data_POSCAR
  _audit_creation_date              2014-09-24
  _audit_creation_method            'ToBaCCo'
  _symmetry_space_group_name_H-M    'P1'
  _symmetry_Int_Tables_number       1
  _symmetry_cell_setting            triclinic
  loop_
  _symmetry_equiv_pos_as_xyz
 x,y,z
_cell_length_a 53.4570
_cell_length_b 53.4413
_cell_length_c 37.9982
_cell_angle_alpha 90.043000
_cell_angle_beta 90.018400
_cell_angle_gamma 89.999700
loop_
  _atom_site_label
  _atom_site_type_symbol
  _atom_site_fract_x
  _atom_site_fract_y
  _atom_site_fract_z
Zr1 Zr -0.04410 0.00209 -0.00303
 O2 O -0.07227 -0.01742 -0.03108
 O3 O -0.06550 0.02462 0.03069
 O4 O -0.06468 -0.02196 0.03005
 O5 O -0.03488 0.04697 -0.06729
 O6 O -0.03479 -0.04434 0.05898
 O7 O -0.06469 0.02596 -0.03621
 O8 O -0.03617 0.04478 0.06374
 O9 O -0.02339 0.00076 0.04367
 O10 O -0.02290 0.03492 -0.00171
 O11 O -0.02272 -0.03083 -0.00655
 O12 O -0.02305 0.00204 -0.05005
 Zr13 Zr 0.04303 0.00110 -0.00450
 Zr14 Zr -0.00061 -0.03094 0.03893
 Zr15 Zr -0.00056 0.03415 -0.04660
 Zr16 Zr -0.00129 0.03292 0.04359
 O17 O 0.00051 0.03228 -0.10220
 O18 O -0.00114 0.02520 0.09832
 O19 O 0.02184 0.03436 -0.00116
 O20 O 0.02167 0.00122 0.04199
 O21 O 0.02209 -0.03195 -0.00590
 O22 O 0.02197 0.00244 -0.05082
 C23 C -0.05900 0.03997 0.05513
 C24 C -0.05784 0.04200 -0.05957
 C25 C -0.05775 -0.03889 0.05213
 O26 O 0.00115 -0.02917 0.09450
 O27 O 0.03354 -0.04643 0.05581
 O28 O 0.06353 -0.02454 0.02634
 C29 C 0.05651 -0.04165 0.04810
 O30 O -0.03306 -0.04267 -0.07589
 Zr31 Zr 0.00019 -0.02972 -0.05117
 O32 O 0.06441 -0.02180 -0.03769
 O33 O -0.00233 -0.07025 0.03263
 O34 O -0.00089 -0.06912 -0.04473
 O35 O 0.00255 -0.02376 -0.10624
 O36 O 0.03503 -0.04416 -0.06770
 C37 C 0.05785 -0.03885 -0.05976
 O38 O 0.07116 0.01947 0.02508
 O39 O -0.00164 0.07351 -0.04063
 O40 O 0.06363 0.02666 -0.03537
 O41 O 0.03364 0.04995 -0.06271
 O42 O -0.00269 0.07246 0.03921
 O43 O 0.03193 0.04909 0.06431
 C44 C 0.05663 0.04453 -0.05593
 H45 H -0.03319 0.05032 -0.00145
 H46 H 0.03255 0.00094 0.06308
 H47 H 0.03245 0.00324 -0.07227
 H48 H -0.03359 -0.04580 -0.00780
 H49 H -0.00584 0.04085 0.11068
 H50 H 0.00037 -0.04664 0.10316
 H51 H -0.00158 -0.07762 0.05653
 H52 H 0.00370 -0.07676 -0.06762
 H53 H -0.00689 0.07924 0.06276
 H54 H -0.00222 0.08072 -0.06464
 H55 H 0.00107 0.04977 -0.11082
 H56 H 0.00682 -0.04002 -0.11727
 H57 H 0.02774 0.05944 0.08510
 H58 H 0.08755 0.01353 0.01611
 H59 H -0.08868 -0.01141 -0.02224
 H60 H -0.02889 -0.05624 -0.09265
 Zr61 Zr 0.54302 0.50110 0.49551
 O62 O 0.57113 0.51957 0.52501
 O63 O 0.56443 0.47808 0.46251
 O64 O 0.56349 0.47557 0.52658
 O65 O 0.53372 0.54974 0.43691
 O66 O 0.53346 0.45381 0.55617
 O67 O 0.56366 0.52652 0.46449
 O68 O 0.53506 0.45564 0.43258
 O69 O 0.52208 0.46804 0.49431
 O70 O 0.52201 0.50228 0.44914
 O71 O 0.52161 0.50140 0.54196
 O72 O 0.52185 0.53438 0.49855
 Zr73 Zr 0.45589 0.50212 0.49681
 Zr74 Zr 0.49933 0.46923 0.53910
 Zr75 Zr 0.49948 0.53401 0.45308
 Zr76 Zr 0.50021 0.47012 0.44899
 O77 O 0.49840 0.57340 0.45877
 O78 O 0.49915 0.43074 0.45572
 O79 O 0.47700 0.50190 0.44983
 O80 O 0.47726 0.46918 0.49357
 O81 O 0.47656 0.50096 0.54355
 O82 O 0.47710 0.53496 0.49792
 C83 C 0.55788 0.46098 0.44051
 C84 C 0.55670 0.54431 0.44377
 C85 C 0.55644 0.45856 0.54847
 O86 O 0.49761 0.42990 0.53308
 O87 O 0.46513 0.45591 0.55917
 O88 O 0.43528 0.47820 0.53002
 C89 C 0.44218 0.46136 0.55224
 O90 O 0.53188 0.54936 0.56389
 Zr91 Zr 0.49867 0.53312 0.54328
 O92 O 0.43447 0.52478 0.53033
 O93 O 0.50103 0.47121 0.59466
 O94 O 0.49880 0.52562 0.59806
 O95 O 0.49725 0.57264 0.53859
 O96 O 0.46377 0.54503 0.56330
 C97 C 0.44096 0.54019 0.55471
 O98 O 0.42774 0.48251 0.46886
 O99 O 0.50062 0.53195 0.39749
 O100 O 0.43534 0.52585 0.46338
 O101 O 0.46519 0.54675 0.43220
 O102 O 0.50260 0.47588 0.39387
 O103 O 0.46698 0.45708 0.42432
 C104 C 0.44222 0.54179 0.43989
 H105 H 0.53250 0.50299 0.42770
 H106 H 0.46639 0.45421 0.49241
 H107 H 0.46681 0.55035 0.49805
 H108 H 0.53247 0.50120 0.56307
 H109 H 0.50375 0.42302 0.43290
 H110 H 0.49834 0.42262 0.55704
 H111 H 0.50023 0.45378 0.60344
 H112 H 0.49410 0.54132 0.61029
 H113 H 0.50687 0.45957 0.38297
 H114 H 0.50119 0.54941 0.38875
 H115 H 0.49786 0.58052 0.43471
 H116 H 0.49304 0.57950 0.56210
 H117 H 0.47116 0.44343 0.40769
 H118 H 0.41133 0.48856 0.47763
 H119 H 0.58753 0.51360 0.51611
 H120 H 0.52768 0.55981 0.58459
 Zr121 Zr 0.54406 -0.00235 0.49799
 O122 O 0.57239 0.01703 0.47017
 O123 O 0.56527 -0.02504 0.53175
 O124 O 0.56464 0.02170 0.53120
 O125 O 0.53476 -0.04715 0.43349
 O126 O 0.53474 0.04416 0.56002
 O127 O 0.56461 -0.02629 0.46479
 O128 O 0.53578 -0.04514 0.56450
 O129 O 0.52323 -0.00095 0.54458
 O130 O 0.52270 -0.03509 0.49908
 O131 O 0.52278 0.03064 0.49444
 O132 O 0.52308 -0.00219 0.45086
 Zr133 Zr 0.45686 -0.00100 0.49604
 Zr134 Zr 0.50056 0.03083 0.53980
 Zr135 Zr 0.50045 -0.03420 0.45408
 Zr136 Zr 0.50100 -0.03302 0.54428
 O137 O 0.49949 -0.03229 0.39848
 O138 O 0.50083 -0.02531 0.59902
 O139 O 0.47794 -0.03433 0.49939
 O140 O 0.47815 -0.00123 0.54263
 O141 O 0.47796 0.03196 0.49485
 O142 O 0.47803 -0.00241 0.44982
 C143 C 0.55865 -0.04044 0.55604
 C144 C 0.55773 -0.04228 0.44131
 C145 C 0.55770 0.03867 0.55325
 O146 O 0.49870 0.02903 0.59535
 O147 O 0.46644 0.04646 0.55658
 O148 O 0.43640 0.02473 0.52688
 C149 C 0.44346 0.04180 0.54874
 O150 O 0.53330 0.04248 0.42517
 Zr151 Zr 0.49995 0.02966 0.44970
 O152 O 0.43566 0.02204 0.46279
 O153 O 0.50242 0.07014 0.53361
 O154 O 0.50121 0.06905 0.45625
 O155 O 0.49767 0.02370 0.39460
 O156 O 0.46522 0.04429 0.43305
 C157 C 0.44234 0.03909 0.44084
 O158 O 0.42858 -0.01925 0.52540
 O159 O 0.50138 -0.07357 0.45992
 O160 O 0.43624 -0.02651 0.46500
 O161 O 0.46623 -0.04990 0.43777
 O162 O 0.50216 -0.07257 0.53972
 O163 O 0.46768 -0.04903 0.56486
 C164 C 0.44324 -0.04442 0.44444
 H165 H 0.53291 -0.05053 0.49932
 H166 H 0.46723 -0.00093 0.56367
 H167 H 0.46759 -0.00316 0.42833
 H168 H 0.53370 0.04558 0.49327
 H169 H 0.50543 -0.04098 0.61136
 H170 H 0.49953 0.04649 0.60407
 H171 H 0.50164 0.07751 0.55753
 H172 H 0.49671 0.07672 0.43336
 H173 H 0.50630 -0.07940 0.56325
 H174 H 0.50198 -0.08077 0.43589
 H175 H 0.49887 -0.04977 0.38980
 H176 H 0.49347 0.03997 0.38358
 H177 H 0.47180 -0.05941 0.58565
 H178 H 0.41224 -0.01324 0.51634
 H179 H 0.58874 0.01093 0.47909
 H180 H 0.52921 0.05604 0.40838
 Zr181 Zr -0.04320 0.49913 -0.00705
 O182 O -0.07161 0.48096 0.02217
 O183 O -0.06430 0.52234 -0.04022
 O184 O -0.06359 0.52484 0.02392
 O185 O -0.03401 0.45024 -0.06528
 O186 O -0.03349 0.54645 0.05366
 O187 O -0.06386 0.47367 -0.03813
 O188 O -0.03472 0.54451 -0.06976
 O189 O -0.02201 0.53203 -0.00814
 O190 O -0.02206 0.49770 -0.05327
 O191 O -0.02193 0.49877 0.03956
 O192 O -0.02225 0.46573 -0.00373
 Zr193 Zr 0.04396 0.49748 -0.00505
 Zr194 Zr 0.00058 0.53077 0.03681
 Zr195 Zr 0.00027 0.46584 -0.04902
 Zr196 Zr -0.00002 0.52968 -0.05329
 O197 O 0.00108 0.42645 -0.04335
 O198 O 0.00144 0.56907 -0.04671
 O199 O 0.02301 0.49777 -0.05219
 O200 O 0.02280 0.53054 -0.00855
 O201 O 0.02314 0.49890 0.04154
 O202 O 0.02250 0.46481 -0.00402
 C203 C -0.05770 0.53954 -0.06208
 C204 C -0.05707 0.45566 -0.05872
 C205 C -0.05649 0.54184 0.04585
 O206 O 0.00255 0.57007 0.03068
 O207 O 0.03480 0.54396 0.05704
 O208 O 0.06463 0.52144 0.02817
 C209 C 0.05775 0.53842 0.05026
 O210 O -0.03258 0.45099 0.06169
 Zr211 Zr 0.00080 0.46691 0.04117
 O212 O 0.06510 0.47471 0.02871
 O213 O -0.00127 0.52892 0.09236
 O214 O 0.00062 0.47457 0.09592
 O215 O 0.00184 0.42737 0.03651
 O216 O 0.03554 0.45467 0.06140
 C217 C 0.05842 0.45932 0.05298
 O218 O 0.07238 0.51675 -0.03286
 O219 O -0.00069 0.46781 -0.10461
 O220 O 0.06441 0.47343 -0.03824
 O221 O 0.03456 0.45280 -0.06958
 O222 O -0.00241 0.52380 -0.10840
 O223 O 0.03336 0.54238 -0.07786
 C224 C 0.05763 0.45739 -0.06178
 H225 H -0.03252 0.49701 -0.07475
 H226 H 0.03378 0.54544 -0.00970
 H227 H 0.03266 0.44933 -0.00380
 H228 H -0.03286 0.49909 0.06059
 H229 H -0.00305 0.57677 -0.06958
 H230 H 0.00180 0.57742 0.05461
 H231 H -0.00038 0.54637 0.10111
 H232 H 0.00517 0.45887 0.10823
 H233 H -0.00658 0.54011 -0.11935
 H234 H -0.00137 0.45034 -0.11333
 H235 H 0.00167 0.41930 -0.06740
 H236 H 0.00595 0.42049 0.06004
 H237 H 0.02931 0.55594 -0.09467
 H238 H 0.08870 0.51057 -0.02395
 H239 H -0.08791 0.48705 0.01307
 H240 H -0.02850 0.44056 0.08244
 Zr241 Zr 0.04425 0.50205 0.50282
 O242 O 0.07245 0.48243 0.53061
 O243 O 0.06562 0.52475 0.46933
 O244 O 0.06481 0.47815 0.46949
 O245 O 0.03504 0.54661 0.56762
 O246 O 0.03492 0.45589 0.44033
 O247 O 0.06484 0.52575 0.53626
 O248 O 0.03627 0.54504 0.43653
 O249 O 0.02351 0.50092 0.45613
 O250 O 0.02304 0.53488 0.50189
 O251 O 0.02289 0.46911 0.50601
 O252 O 0.02322 0.50178 0.54987
 Zr253 Zr -0.04287 0.50101 0.50437
 Zr254 Zr 0.00075 0.46919 0.46055
 Zr255 Zr 0.00072 0.53389 0.54679
 Zr256 Zr 0.00141 0.53307 0.45659
 O257 O -0.00035 0.53179 0.60237
 O258 O 0.00122 0.52561 0.40177
 O259 O -0.02171 0.53430 0.50139
 O260 O -0.02154 0.50135 0.45786
 O261 O -0.02192 0.46796 0.50540
 O262 O -0.02180 0.50215 0.55069
 C263 C 0.05910 0.54020 0.44505
 C264 C 0.05799 0.54167 0.55983
 C265 C 0.05787 0.46131 0.44724
 O266 O -0.00104 0.47121 0.40500
 O267 O -0.03340 0.45376 0.44354
 O268 O -0.06338 0.47550 0.47332
 C269 C -0.05636 0.45850 0.45135
 O270 O 0.03327 0.45695 0.57519
 Zr271 Zr 0.00000 0.47000 0.55066
 O272 O -0.06423 0.47797 0.53736
 O273 O 0.00249 0.42985 0.46640
 O274 O 0.00107 0.43063 0.54379
 O275 O -0.00232 0.47572 0.60581
 O276 O -0.03482 0.45550 0.56710
 C277 C -0.05766 0.46084 0.55926
 O278 O -0.07102 0.51949 0.47501
 O279 O 0.00180 0.57328 0.54126
 O280 O -0.06346 0.52641 0.53551
 O281 O -0.03349 0.54961 0.56309
 O282 O 0.00280 0.57259 0.46141
 O283 O -0.03184 0.54932 0.43610
 C284 C -0.05647 0.54420 0.55625
 H285 H 0.03332 0.55028 0.50179
 H286 H -0.03243 0.50117 0.43679
 H287 H -0.03226 0.50286 0.57216
 H288 H 0.03376 0.45413 0.50709
 H289 H 0.00589 0.54132 0.38959
 H290 H -0.00025 0.45378 0.39615
 H291 H 0.00172 0.42259 0.44242
 H292 H -0.00349 0.42289 0.56660
 H293 H 0.00698 0.57948 0.43793
 H294 H 0.00237 0.58038 0.56535
 H295 H -0.00091 0.54924 0.61118
 H296 H -0.00658 0.45941 0.61667
 H297 H -0.02767 0.55977 0.41542
 H298 H -0.08741 0.51351 0.48393
 H299 H 0.08884 0.48849 0.52182
 H300 H 0.02911 0.44330 0.59180
 Zr301 Zr 0.45719 0.00094 0.00434
 O302 O 0.42906 0.01942 -0.02507
 O303 O 0.43579 -0.02217 0.03721
 O304 O 0.43674 -0.02457 -0.02682
 O305 O 0.46644 0.04950 0.06317
 O306 O 0.46677 -0.04625 -0.05656
 O307 O 0.43652 0.02630 0.03546
 O308 O 0.46517 -0.04465 0.06698
 O309 O 0.47816 -0.03210 0.00536
 O310 O 0.47818 0.00205 0.05073
 O311 O 0.47858 0.00133 -0.04211
 O312 O 0.47832 0.03424 0.00148
 Zr313 Zr 0.54430 0.00204 0.00304
 Zr314 Zr 0.50089 -0.03082 -0.03943
 Zr315 Zr 0.50068 0.03381 0.04696
 Zr316 Zr 0.50001 -0.03009 0.05070
 O317 O 0.50174 0.07321 0.04152
 O318 O 0.50114 -0.06945 0.04377
 O319 O 0.52320 0.00171 0.05003
 O320 O 0.52296 -0.03092 0.00611
 O321 O 0.52364 0.00094 -0.04372
 O322 O 0.52306 0.03485 0.00212
 C323 C 0.44235 -0.03933 0.05907
 C324 C 0.44347 0.04408 0.05624
 C325 C 0.44380 -0.04154 -0.04879
 O326 O 0.50263 -0.07016 -0.03364
 O327 O 0.53511 -0.04412 -0.05951
 O328 O 0.56493 -0.02183 -0.03026
 C329 C 0.55805 -0.03868 -0.05250
 O330 O 0.46828 0.04928 -0.06386
 Zr331 Zr 0.50150 0.03307 -0.04326
 O332 O 0.56570 0.02483 -0.03031
 O333 O 0.49921 -0.02874 -0.09497
 O334 O 0.50146 0.02565 -0.09808
 O335 O 0.50280 0.07259 -0.03835
 O336 O 0.53638 0.04515 -0.06312
 C337 C 0.55921 0.04034 -0.05452
 O338 O 0.57248 -0.01759 0.03086
 O339 O 0.49953 0.03164 0.10253
 O340 O 0.56481 0.02571 0.03660
 O341 O 0.53496 0.04654 0.06790
 O342 O 0.49759 -0.02442 0.10584
 O343 O 0.53325 -0.04312 0.07531
 C344 C 0.55793 0.04161 0.06017
 H345 H 0.46768 0.00272 0.07216
 H346 H 0.53384 -0.04589 0.00720
 H347 H 0.53332 0.05027 0.00209
 H348 H 0.46772 0.00116 -0.06322
 H349 H 0.49655 -0.07722 0.06655
 H350 H 0.50190 -0.07740 -0.05764
 H351 H 0.50002 -0.04616 -0.10385
 H352 H 0.50614 0.04137 -0.11022
 H353 H 0.49333 -0.04074 0.11666
 H354 H 0.49894 0.04908 0.11137
 H355 H 0.50228 0.08028 0.06563
 H356 H 0.50701 0.07951 -0.06181
 H357 H 0.52908 -0.05678 0.09189
 H358 H 0.58888 -0.01150 0.02214
 H359 H 0.41267 0.01342 -0.01621
 H360 H 0.47247 0.05974 -0.08453
 Zr361 Zr 0.45582 0.49781 0.00320
 O362 O 0.42774 0.51734 0.03136
 O363 O 0.43433 0.47538 -0.03055
 O364 O 0.43525 0.52193 -0.02978
 O365 O 0.46503 0.45278 0.06728
 O366 O 0.46513 0.54429 -0.05873
 O367 O 0.43523 0.47392 0.03632
 O368 O 0.46356 0.45519 -0.06370
 O369 O 0.47647 0.49918 -0.04354
 O370 O 0.47696 0.46494 0.00174
 O371 O 0.47726 0.53069 0.00676
 O372 O 0.47693 0.49775 0.05019
 Zr373 Zr 0.54294 0.49865 0.00450
 Zr374 Zr 0.49932 0.53083 -0.03876
 Zr375 Zr 0.49935 0.46561 0.04660
 Zr376 Zr 0.49850 0.46697 -0.04360
 O377 O 0.50048 0.46740 0.10220
 O378 O 0.49858 0.47477 -0.09830
 O379 O 0.52170 0.46543 0.00112
 O380 O 0.52152 0.49864 -0.04196
 O381 O 0.52206 0.53175 0.00604
 O382 O 0.52194 0.49728 0.05087
 C383 C 0.44076 0.46004 -0.05504
 C384 C 0.44208 0.45781 0.05961
 C385 C 0.44218 0.53886 -0.05184
 O386 O 0.50102 0.52914 -0.09434
 O387 O 0.53348 0.54631 -0.05563
 O388 O 0.56346 0.52431 -0.02627
 C389 C 0.55645 0.54148 -0.04795
 O390 O 0.46701 0.54242 0.07616
 Zr391 Zr 0.50022 0.52948 0.05134
 O392 O 0.56441 0.52150 0.03770
 O393 O 0.49764 0.57013 -0.03235
 O394 O 0.49917 0.56890 0.04504
 O395 O 0.50267 0.52345 0.10640
 O396 O 0.53510 0.54386 0.06781
 C397 C 0.55791 0.53854 0.05980
 O398 O 0.57099 0.48026 -0.02517
 O399 O 0.49823 0.42626 0.04052
 O400 O 0.56354 0.47306 0.03529
 O401 O 0.53357 0.44975 0.06263
 O402 O 0.49705 0.42743 -0.03934
 O403 O 0.53167 0.45078 -0.06442
 C404 C 0.55655 0.45518 0.05583
 H405 H 0.46665 0.44956 0.00145
 H406 H 0.53238 0.49892 -0.06306
 H407 H 0.53245 0.49645 0.07229
 H408 H 0.46641 0.54568 0.00807
 H409 H 0.49384 0.45916 -0.11070
 H410 H 0.50025 0.54663 -0.10294
 H411 H 0.49838 0.57754 -0.05624
 H412 H 0.50379 0.57649 0.06794
 H413 H 0.49280 0.42070 -0.06291
 H414 H 0.49768 0.41902 0.06451
 H415 H 0.50103 0.44990 0.11077
 H416 H 0.50697 0.53969 0.11745
 H417 H 0.52743 0.44048 -0.08525
 H418 H 0.58740 0.48616 -0.01623
 H419 H 0.41130 0.51137 0.02253
 H420 H 0.47122 0.55595 0.09297
 Zr421 Zr 0.04296 -0.00116 0.50461
 O422 O 0.07107 -0.01952 0.47501
 O423 O 0.06435 0.02179 0.53774
 O424 O 0.06340 0.02449 0.47372
 O425 O 0.03370 -0.05000 0.56288
 O426 O 0.03335 0.04633 0.44427
 O427 O 0.06362 -0.02667 0.53546
 O428 O 0.03498 0.04412 0.56777
 O429 O 0.02198 0.03187 0.50602
 O430 O 0.02196 -0.00251 0.55097
 O431 O 0.02154 -0.00134 0.45815
 O432 O 0.02181 -0.03445 0.50135
 Zr433 Zr -0.04417 -0.00227 0.50329
 Zr434 Zr -0.00076 0.03080 0.46122
 Zr435 Zr -0.00055 -0.03425 0.54682
 Zr436 Zr 0.00014 0.02962 0.55132
 O437 O -0.00158 -0.07362 0.54090
 O438 O -0.00102 0.06902 0.54487
 O439 O -0.02306 -0.00217 0.55028
 O440 O -0.02283 0.03068 0.50673
 O441 O -0.02352 -0.00093 0.45655
 O442 O -0.02294 -0.03508 0.50196
 C443 C 0.05780 0.03885 0.55979
 C444 C 0.05667 -0.04454 0.55605
 C445 C 0.05633 0.04158 0.45195
 O446 O -0.00253 0.07010 0.46748
 O447 O -0.03498 0.04414 0.44122
 O448 O -0.06481 0.02175 0.47023
 C449 C -0.05792 0.03867 0.44813
 O450 O 0.03183 -0.04920 0.43588
 Zr451 Zr -0.00139 -0.03307 0.45662
 O452 O -0.06558 -0.02485 0.46962
 O453 O 0.00093 0.02900 0.40565
 O454 O -0.00132 -0.02538 0.40189
 O455 O -0.00272 -0.07261 0.46105
 O456 O -0.03628 -0.04500 0.43656
 C457 C -0.05910 -0.04021 0.44519
 O458 O -0.07233 0.01722 0.53135
 O459 O 0.00060 -0.03235 0.60242
 O460 O -0.06470 -0.02615 0.53652
 O461 O -0.03483 -0.04712 0.56758
 O462 O 0.00259 0.02369 0.60640
 O463 O -0.03310 0.04253 0.57608
 C464 C -0.05780 -0.04218 0.55989
 H465 H 0.03247 -0.00328 0.57240
 H466 H -0.03371 0.04564 0.50800
 H467 H -0.03320 -0.05049 0.50174
 H468 H 0.03240 -0.00106 0.43705
 H469 H 0.00359 0.07667 0.56774
 H470 H -0.00182 0.07747 0.44357
 H471 H 0.00011 0.04647 0.39698
 H472 H -0.00601 -0.04103 0.38955
 H473 H 0.00686 0.03996 0.61740
 H474 H 0.00119 -0.04983 0.61106
 H475 H -0.00211 -0.08081 0.56492
 H476 H -0.00694 -0.07940 0.43751
 H477 H -0.02892 0.05610 0.59285
 H478 H -0.08874 0.01118 0.52255
 H479 H 0.08747 -0.01355 0.48394
 H480 H 0.02763 -0.05956 0.41508
 Zr481 Zr 0.75217 0.20579 0.25333
 O482 O 0.73264 0.17764 0.28133
 O483 O 0.77480 0.18434 0.21981
 O484 O 0.72824 0.18510 0.22019
 O485 O 0.79688 0.21521 0.31784
 O486 O 0.70588 0.21489 0.19104
 O487 O 0.77595 0.18530 0.28673
 O488 O 0.79497 0.21362 0.18677
 O489 O 0.75091 0.22639 0.20656
 O490 O 0.78497 0.22703 0.25212
 O491 O 0.71923 0.22713 0.25660
 O492 O 0.75200 0.22695 0.30029
 Zr493 Zr 0.75105 0.29293 0.25451
 Zr494 Zr 0.71918 0.24914 0.21105
 Zr495 Zr 0.78408 0.24947 0.29694
 Zr496 Zr 0.78303 0.24854 0.20674
 O497 O 0.78211 0.25070 0.35252
 O498 O 0.77543 0.24856 0.15197
 O499 O 0.78434 0.27178 0.25144
 O500 O 0.75130 0.27146 0.20809
 O501 O 0.71803 0.27195 0.25581
 O502 O 0.75233 0.27198 0.30091
 C503 C 0.79018 0.19080 0.19542
 C504 C 0.79193 0.19223 0.31018
 C505 C 0.71135 0.19196 0.19801
 O506 O 0.72105 0.25078 0.15549
 O507 O 0.70366 0.28323 0.19399
 O508 O 0.72543 0.31333 0.22351
 C509 C 0.70838 0.30623 0.20167
 O510 O 0.70725 0.21692 0.32589
 Zr511 Zr 0.72021 0.25014 0.30116
 O512 O 0.72808 0.31437 0.28755
 O513 O 0.67987 0.24737 0.21713
 O514 O 0.68083 0.24902 0.29451
 O515 O 0.72607 0.25262 0.35626
 O516 O 0.70573 0.28501 0.31754
 C517 C 0.71103 0.30783 0.30958
 O518 O 0.76942 0.32103 0.22493
 O519 O 0.82344 0.24841 0.29119
 O520 O 0.77651 0.31364 0.28542
 O521 O 0.79980 0.28375 0.31299
 O522 O 0.82255 0.24720 0.21135
 O523 O 0.79919 0.28175 0.18603
 C524 C 0.79435 0.30671 0.30609
 H525 H 0.80038 0.21675 0.25199
 H526 H 0.75105 0.28230 0.18697
 H527 H 0.75308 0.28251 0.32233
 H528 H 0.70427 0.21624 0.25781
 H529 H 0.79111 0.24386 0.13972
 H530 H 0.70361 0.24994 0.14673
 H531 H 0.67255 0.24805 0.19318
 H532 H 0.67315 0.25365 0.31734
 H533 H 0.82938 0.24295 0.18785
 H534 H 0.83060 0.24791 0.31525
 H535 H 0.79957 0.25130 0.36123
 H536 H 0.70978 0.25689 0.36719
 H537 H 0.80959 0.27753 0.16531
 H538 H 0.76344 0.33744 0.23382
 H539 H 0.73870 0.16122 0.27258
 H540 H 0.69365 0.22112 0.34256
 Zr541 Zr 0.74820 0.79380 0.75375
 O542 O 0.76781 0.82208 0.78143
 O543 O 0.72532 0.81510 0.72033
 O544 O 0.77200 0.81439 0.72032
 O545 O 0.70381 0.78456 0.81870
 O546 O 0.79425 0.78450 0.69116
 O547 O 0.72453 0.81437 0.78722
 O548 O 0.70497 0.78565 0.68772
 O549 O 0.74925 0.77302 0.70708
 O550 O 0.71543 0.77250 0.75298
 O551 O 0.78118 0.77249 0.75687
 O552 O 0.74865 0.77280 0.80083
 Zr553 Zr 0.74943 0.70663 0.75544
 Zr554 Zr 0.78103 0.75031 0.71143
 Zr555 Zr 0.71658 0.75023 0.79792
 Zr556 Zr 0.71716 0.75083 0.70770
 O557 O 0.71888 0.74923 0.85349
 O558 O 0.72451 0.75067 0.65287
 O559 O 0.71612 0.72775 0.75254
 O560 O 0.74893 0.72794 0.70890
 O561 O 0.78243 0.72767 0.75630
 O562 O 0.74836 0.72775 0.80175
 C563 C 0.70977 0.80851 0.69619
 C564 C 0.70866 0.80752 0.81083
 C565 C 0.78882 0.80746 0.69806
 O566 O 0.77887 0.74848 0.65590
 O567 O 0.79649 0.71617 0.69441
 O568 O 0.77491 0.68615 0.72430
 C569 C 0.79183 0.69320 0.70227
 O570 O 0.79346 0.78295 0.82606
 Zr571 Zr 0.78046 0.74963 0.80156
 O572 O 0.77266 0.68534 0.78832
 O573 O 0.82037 0.75212 0.71716
 O574 O 0.81980 0.75086 0.79457
 O575 O 0.77488 0.74726 0.85672
 O576 O 0.79518 0.71483 0.81786
 C577 C 0.78989 0.69197 0.81005
 O578 O 0.73095 0.67839 0.72619
 O579 O 0.67719 0.75121 0.79259
 O580 O 0.72410 0.68602 0.78665
 O581 O 0.70094 0.71600 0.81427
 O582 O 0.67767 0.75205 0.71270
 O583 O 0.70098 0.71752 0.68725
 C584 C 0.70633 0.69301 0.80741
 H585 H 0.70000 0.78274 0.75293
 H586 H 0.74908 0.71702 0.68784
 H587 H 0.74775 0.71728 0.82321
 H588 H 0.79613 0.78340 0.75789
 H589 H 0.70877 0.75530 0.64073
 H590 H 0.79627 0.74929 0.64698
 H591 H 0.82757 0.75134 0.69315
 H592 H 0.82761 0.74634 0.81735
 H593 H 0.67069 0.75620 0.68924
 H594 H 0.67016 0.75181 0.81671
 H595 H 0.70147 0.74863 0.86239
 H596 H 0.79122 0.74303 0.86751
 H597 H 0.69048 0.72166 0.66657
 H598 H 0.73700 0.66203 0.73511
 H599 H 0.76169 0.83846 0.77264
 H600 H 0.80711 0.77883 0.84269
 Zr601 Zr 0.25141 0.29471 0.74679
 O602 O 0.23193 0.32280 0.71860
 O603 O 0.27386 0.31621 0.78051
 O604 O 0.22719 0.31531 0.77969
 O605 O 0.29644 0.28540 0.68270
 O606 O 0.20482 0.28541 0.80860
 O607 O 0.27531 0.31527 0.71362
 O608 O 0.29401 0.28697 0.81367
 O609 O 0.25002 0.27408 0.79354
 O610 O 0.28426 0.27355 0.74827
 O611 O 0.21855 0.27324 0.74320
 O612 O 0.25151 0.27353 0.69983
 Zr613 Zr 0.25060 0.20752 0.74553
 Zr614 Zr 0.21839 0.25121 0.78874
 Zr615 Zr 0.28364 0.25110 0.70344
 Zr616 Zr 0.28221 0.25203 0.79362
 O617 O 0.28188 0.24991 0.64783
 O618 O 0.27437 0.25201 0.84832
 O619 O 0.28380 0.22878 0.74893
 O620 O 0.25057 0.22900 0.79196
 O621 O 0.21751 0.22840 0.74396
 O622 O 0.25199 0.22849 0.69916
 C623 C 0.28921 0.30978 0.80498
 C624 C 0.29141 0.30838 0.69033
 C625 C 0.21021 0.30838 0.80170
 O626 O 0.22005 0.24961 0.84432
 O627 O 0.20296 0.21705 0.80569
 O628 O 0.22496 0.18703 0.77637
 C629 C 0.20781 0.19407 0.79808
 O630 O 0.20686 0.28340 0.67377
 Zr631 Zr 0.21980 0.25022 0.69864
 O632 O 0.22778 0.18602 0.71234
 O633 O 0.17910 0.25279 0.78227
 O634 O 0.18039 0.25125 0.70492
 O635 O 0.22589 0.24774 0.64360
 O636 O 0.20545 0.21531 0.68218
 C637 C 0.21077 0.19251 0.69021
 O638 O 0.26897 0.17948 0.77523
 O639 O 0.32297 0.25226 0.70954
 O640 O 0.27624 0.18689 0.71478
 O641 O 0.29954 0.21687 0.68744
 O642 O 0.32175 0.25345 0.78936
 O643 O 0.29837 0.21887 0.81452
 C644 C 0.29414 0.19388 0.69425
 H645 H 0.29964 0.28386 0.74854
 H646 H 0.25028 0.21816 0.81308
 H647 H 0.25285 0.21796 0.67774
 H648 H 0.20356 0.28407 0.74185
 H649 H 0.28998 0.25676 0.86072
 H650 H 0.20256 0.25036 0.85291
 H651 H 0.17167 0.25208 0.80615
 H652 H 0.17282 0.24661 0.68203
 H653 H 0.32848 0.25771 0.81292
 H654 H 0.33023 0.25280 0.68556
 H655 H 0.29938 0.24936 0.63927
 H656 H 0.20967 0.24341 0.63252
 H657 H 0.30867 0.22313 0.83535
 H658 H 0.26308 0.16305 0.76628
 H659 H 0.23790 0.33924 0.72742
 H660 H 0.19334 0.27917 0.65697
 Zr661 Zr 0.24782 0.70559 0.24620
 O662 O 0.26723 0.67735 0.21816
 O663 O 0.22521 0.68426 0.27988
 O664 O 0.27181 0.68493 0.27928
 O665 O 0.20297 0.71497 0.18185
 O666 O 0.29426 0.71477 0.30829
 O667 O 0.22389 0.68507 0.21293
 O668 O 0.20516 0.71366 0.31292
 O669 O 0.24922 0.72631 0.29292
 O670 O 0.21506 0.72690 0.24749
 O671 O 0.28079 0.72688 0.24277
 O672 O 0.24794 0.72666 0.19920
 Zr673 Zr 0.24911 0.79276 0.24484
 Zr674 Zr 0.28098 0.74900 0.28827
 Zr675 Zr 0.21592 0.74925 0.20263
 Zr676 Zr 0.21714 0.74851 0.29282
 O677 O 0.21779 0.75034 0.14703
 O678 O 0.22485 0.74863 0.34756
 O679 O 0.21579 0.77167 0.24808
 O680 O 0.24891 0.77138 0.29130
 O681 O 0.28209 0.77171 0.24346
 O682 O 0.24769 0.77170 0.19849
 C683 C 0.20989 0.69081 0.30431
 C684 C 0.20787 0.69198 0.18953
 C685 C 0.28875 0.69182 0.30140
 O686 O 0.27922 0.75074 0.34384
 O687 O 0.29659 0.78311 0.30525
 O688 O 0.27481 0.81319 0.27578
 C689 C 0.29188 0.80611 0.29758
 O690 O 0.29262 0.71652 0.17345
 Zr691 Zr 0.27977 0.74981 0.19817
 O692 O 0.27208 0.81408 0.21169
 O693 O 0.32027 0.74715 0.28202
 O694 O 0.31916 0.74860 0.20466
 O695 O 0.27381 0.75220 0.14309
 O696 O 0.29432 0.78461 0.18167
 C697 C 0.28909 0.80746 0.18962
 O698 O 0.23084 0.82096 0.27440
 O699 O 0.17656 0.74831 0.20853
 O700 O 0.22362 0.81345 0.21396
 O701 O 0.20024 0.78353 0.18654
 O702 O 0.17761 0.74724 0.28836
 O703 O 0.20108 0.78179 0.31352
 C704 C 0.20574 0.80651 0.19337
 H705 H 0.19964 0.71666 0.24771
 H706 H 0.24921 0.78226 0.31240
 H707 H 0.24693 0.78219 0.17705
 H708 H 0.29573 0.71596 0.24152
 H709 H 0.20919 0.74399 0.35989
 H710 H 0.29668 0.74989 0.35252
 H711 H 0.32765 0.74787 0.30593
 H712 H 0.32681 0.75317 0.18180
 H713 H 0.17081 0.74306 0.31190
 H714 H 0.16936 0.74777 0.18451
 H715 H 0.20032 0.75097 0.13838
 H716 H 0.29008 0.75642 0.13208
 H717 H 0.19072 0.77763 0.33431
 H718 H 0.23683 0.83734 0.26546
 H719 H 0.26116 0.66096 0.22698
 H720 H 0.30618 0.72065 0.15669
 Zr721 Zr 0.25106 0.79300 0.75444
 O722 O 0.26944 0.82110 0.72488
 O723 O 0.22809 0.81443 0.78748
 O724 O 0.22546 0.81342 0.72345
 O725 O 0.29982 0.78378 0.81289
 O726 O 0.20367 0.78335 0.69391
 O727 O 0.27654 0.81369 0.78535
 O728 O 0.20571 0.78508 0.81743
 O729 O 0.21803 0.77203 0.75572
 O730 O 0.25234 0.77204 0.80083
 O731 O 0.25130 0.77155 0.70800
 O732 O 0.28434 0.77184 0.75134
 Zr733 Zr 0.25215 0.70586 0.75319
 Zr734 Zr 0.21917 0.74924 0.71095
 Zr735 Zr 0.28407 0.74952 0.79683
 Zr736 Zr 0.22021 0.75021 0.80106
 O737 O 0.32343 0.74844 0.79109
 O738 O 0.18083 0.74908 0.79442
 O739 O 0.25199 0.72701 0.80017
 O740 O 0.21921 0.72721 0.75648
 O741 O 0.25089 0.72648 0.70644
 O742 O 0.28496 0.72709 0.75199
 C743 C 0.21102 0.80790 0.80948
 C744 C 0.29438 0.80675 0.80599
 C745 C 0.20841 0.80634 0.70161
 O746 O 0.17986 0.74748 0.71704
 O747 O 0.20586 0.71500 0.69091
 O748 O 0.22821 0.68519 0.72004
 C749 C 0.21133 0.69206 0.69785
 O750 O 0.29919 0.78183 0.68596
 Zr751 Zr 0.28302 0.74861 0.70663
 O752 O 0.27477 0.68441 0.71965
 O753 O 0.22104 0.75090 0.65538
 O754 O 0.27542 0.74867 0.65186
 O755 O 0.32254 0.74725 0.71123
 O756 O 0.29493 0.71370 0.68661
 C757 C 0.29014 0.69088 0.69524
 O758 O 0.23262 0.67771 0.78119
 O759 O 0.28210 0.75074 0.85242
 O760 O 0.27595 0.68535 0.78657
 O761 O 0.29686 0.71525 0.81771
 O762 O 0.22606 0.75269 0.85616
 O763 O 0.20725 0.71699 0.82578
 C764 C 0.29192 0.69227 0.81003
 H765 H 0.25309 0.78257 0.82225
 H766 H 0.20425 0.71632 0.75768
 H767 H 0.30036 0.71681 0.75185
 H768 H 0.25105 0.78239 0.68689
 H769 H 0.17315 0.75371 0.81725
 H770 H 0.17254 0.74817 0.69309
 H771 H 0.20359 0.75007 0.64664
 H772 H 0.29110 0.74398 0.63960
 H773 H 0.20978 0.75696 0.86709
 H774 H 0.29957 0.75133 0.86113
 H775 H 0.33059 0.74793 0.81514
 H776 H 0.32936 0.74301 0.68772
 H777 H 0.19365 0.72118 0.84247
 H778 H 0.23867 0.66129 0.77242
 H779 H 0.26347 0.83751 0.73378
 H780 H 0.30960 0.77762 0.66523
 Zr781 Zr 0.24880 0.20667 0.25416
 O782 O 0.23043 0.17834 0.22495
 O783 O 0.27198 0.18549 0.28726
 O784 O 0.27438 0.18617 0.22321
 O785 O 0.20018 0.21609 0.31276
 O786 O 0.29596 0.21615 0.19327
 O787 O 0.22345 0.18608 0.28538
 O788 O 0.29437 0.21509 0.31679
 O789 O 0.28176 0.22777 0.25507
 O790 O 0.24761 0.22789 0.30037
 O791 O 0.24835 0.22788 0.20754
 O792 O 0.21546 0.22773 0.25104
 Zr793 Zr 0.24744 0.29384 0.25210
 Zr794 Zr 0.28042 0.25031 0.21009
 Zr795 Zr 0.21580 0.25030 0.29632
 Zr796 Zr 0.27967 0.24982 0.30022
 O797 O 0.17642 0.25124 0.29080
 O798 O 0.31902 0.25106 0.29336
 O799 O 0.24782 0.27294 0.29926
 O800 O 0.28045 0.27259 0.25544
 O801 O 0.24862 0.27296 0.20552
 O802 O 0.21470 0.27249 0.25130
 C803 C 0.28913 0.19220 0.30907
 C804 C 0.20564 0.19309 0.30604
 C805 C 0.29134 0.19319 0.20122
 O806 O 0.31975 0.25218 0.21595
 O807 O 0.29365 0.28447 0.18975
 O808 O 0.27129 0.31439 0.21870
 C809 C 0.28817 0.30744 0.19656
 O810 O 0.20046 0.21735 0.18574
 Zr811 Zr 0.21656 0.25072 0.20611
 O812 O 0.22460 0.31503 0.21850
 O813 O 0.27836 0.24836 0.15456
 O814 O 0.22400 0.25045 0.15131
 O815 O 0.17705 0.25191 0.21096
 O816 O 0.20437 0.28548 0.18592
 C817 C 0.20911 0.30837 0.19431
 O818 O 0.26695 0.32222 0.27972
 O819 O 0.21796 0.24940 0.35191
 O820 O 0.22371 0.31444 0.28546
 O821 O 0.20299 0.28465 0.31698
 O822 O 0.27398 0.24761 0.35536
 O823 O 0.29259 0.28322 0.32460
 C824 C 0.20784 0.30761 0.30907
 H825 H 0.24696 0.21747 0.32188
 H826 H 0.29538 0.28352 0.25648
 H827 H 0.19926 0.28271 0.25116
 H828 H 0.24857 0.21692 0.18652
 H829 H 0.32680 0.24660 0.31620
 H830 H 0.32700 0.25136 0.19198
 H831 H 0.29578 0.24919 0.14570
 H832 H 0.20828 0.25503 0.13909
 H833 H 0.29030 0.24344 0.36625
 H834 H 0.20053 0.24880 0.36072
 H835 H 0.16934 0.25188 0.31489
 H836 H 0.17011 0.25600 0.18747
 H837 H 0.30623 0.27916 0.34127
 H838 H 0.26082 0.33857 0.27084
 H839 H 0.23648 0.16201 0.23398
 H840 H 0.18998 0.22143 0.16503
 Zr841 Zr 0.75125 0.70674 0.24523
 O842 O 0.76970 0.67864 0.27470
 O843 O 0.72832 0.68533 0.21209
 O844 O 0.72566 0.68620 0.27612
 O845 O 0.79997 0.71622 0.18683
 O846 O 0.70380 0.71619 0.30571
 O847 O 0.77678 0.68617 0.21420
 O848 O 0.70588 0.71470 0.18222
 O849 O 0.71817 0.72765 0.24398
 O850 O 0.75248 0.72782 0.19893
 O851 O 0.75139 0.72812 0.29175
 O852 O 0.78446 0.72799 0.24848
 Zr853 Zr 0.75210 0.79393 0.24684
 Zr854 Zr 0.71921 0.75037 0.28884
 Zr855 Zr 0.78415 0.75041 0.20308
 Zr856 Zr 0.72030 0.74957 0.19874
 O857 O 0.82351 0.75154 0.20892
 O858 O 0.68092 0.75060 0.20531
 O859 O 0.75202 0.77286 0.19979
 O860 O 0.71922 0.77249 0.24339
 O861 O 0.75087 0.77320 0.29351
 O862 O 0.78495 0.77276 0.24800
 C863 C 0.71123 0.69187 0.19011
 C864 C 0.79459 0.69321 0.19356
 C865 C 0.70858 0.69322 0.29795
 O866 O 0.67990 0.75202 0.28267
 O867 O 0.70577 0.78453 0.30898
 O868 O 0.72804 0.81448 0.28002
 C869 C 0.71116 0.80751 0.30215
 O870 O 0.79929 0.71793 0.31391
 Zr871 Zr 0.78306 0.75114 0.29328
 O872 O 0.77466 0.81536 0.28051
 O873 O 0.72107 0.74861 0.34440
 O874 O 0.77542 0.75099 0.34803
 O875 O 0.82257 0.75258 0.28874
 O876 O 0.79492 0.78604 0.31342
 C877 C 0.79007 0.80887 0.30487
 O878 O 0.73253 0.82209 0.21891
 O879 O 0.78220 0.74934 0.14749
 O880 O 0.77589 0.81455 0.21359
 O881 O 0.79689 0.78475 0.18239
 O882 O 0.72619 0.74720 0.14364
 O883 O 0.70728 0.78280 0.17410
 C884 C 0.79190 0.80771 0.19015
 H885 H 0.75326 0.71734 0.17747
 H886 H 0.70423 0.78334 0.24220
 H887 H 0.80034 0.78307 0.24822
 H888 H 0.75117 0.71724 0.31282
 H889 H 0.67325 0.74600 0.18245
 H890 H 0.67257 0.75126 0.30660
 H891 H 0.70362 0.74937 0.35312
 H892 H 0.79107 0.75571 0.36034
 H893 H 0.70993 0.74290 0.13266
 H894 H 0.79967 0.74881 0.13880
 H895 H 0.83068 0.75213 0.18489
 H896 H 0.82939 0.75679 0.31227
 H897 H 0.69370 0.77861 0.15738
 H898 H 0.73853 0.83850 0.22776
 H899 H 0.76377 0.66223 0.26572
 H900 H 0.80967 0.72215 0.33466
 Zr901 Zr 0.74910 0.29361 0.74630
 O902 O 0.73088 0.32184 0.77585
 O903 O 0.77201 0.31487 0.71299
 O904 O 0.77488 0.31410 0.77702
 O905 O 0.70013 0.28427 0.68821
 O906 O 0.79673 0.28409 0.80653
 O907 O 0.72356 0.31424 0.71543
 O908 O 0.79420 0.28535 0.68301
 O909 O 0.78208 0.27256 0.74487
 O910 O 0.74761 0.27247 0.70003
 O911 O 0.74900 0.27231 0.79284
 O912 O 0.71580 0.27251 0.74974
 Zr913 Zr 0.74784 0.20645 0.74797
 Zr914 Zr 0.78108 0.24994 0.78977
 Zr915 Zr 0.71584 0.25002 0.70436
 Zr916 Zr 0.77969 0.25058 0.69967
 O917 O 0.67650 0.24909 0.71041
 O918 O 0.81909 0.24939 0.70602
 O919 O 0.74787 0.22744 0.70089
 O920 O 0.78081 0.22774 0.74435
 O921 O 0.74933 0.22724 0.79461
 O922 O 0.71508 0.22775 0.74931
 C923 C 0.78899 0.30822 0.69090
 C924 C 0.70564 0.30725 0.69492
 C925 C 0.79201 0.30707 0.79875
 O926 O 0.82036 0.24807 0.78340
 O927 O 0.79440 0.21573 0.80987
 O928 O 0.77187 0.18586 0.78105
 C929 C 0.78886 0.19277 0.80307
 O930 O 0.70123 0.28274 0.81526
 Zr931 Zr 0.71724 0.24943 0.79456
 O932 O 0.72530 0.18517 0.78177
 O933 O 0.77941 0.25180 0.84534
 O934 O 0.72507 0.24959 0.84927
 O935 O 0.67770 0.24819 0.79025
 O936 O 0.70526 0.21460 0.81476
 C937 C 0.70998 0.19174 0.80620
 O938 O 0.76722 0.17817 0.71996
 O939 O 0.71762 0.25101 0.64875
 O940 O 0.72386 0.18586 0.71486
 O941 O 0.70286 0.21570 0.68376
 O942 O 0.77364 0.25288 0.64460
 O943 O 0.79249 0.21724 0.67502
 C944 C 0.70779 0.19272 0.69150
 H945 H 0.74681 0.28292 0.67856
 H946 H 0.79574 0.21682 0.74308
 H947 H 0.69966 0.21751 0.74961
 H948 H 0.74935 0.28323 0.81390
 H949 H 0.82670 0.25391 0.68311
 H950 H 0.82777 0.24884 0.80728
 H951 H 0.79689 0.25096 0.85396
 H952 H 0.70943 0.24496 0.86167
 H953 H 0.78989 0.25708 0.63352
 H954 H 0.70012 0.25162 0.64017
 H955 H 0.66925 0.24850 0.68642
 H956 H 0.67094 0.24404 0.81383
 H957 H 0.80603 0.22135 0.65820
 H958 H 0.76117 0.16180 0.72885
 H959 H 0.73685 0.33821 0.76682
 H960 H 0.69093 0.27861 0.83612
 C961 C 0.11310 0.41413 0.88981
 C962 C 0.08800 0.41100 0.88048
 C963 C 0.06948 0.42580 0.89600
 C964 C 0.07570 0.44411 0.92146
 C965 C 0.10131 0.44747 0.92982
 C966 C 0.11973 0.43255 0.91421
 C967 C 0.13177 0.39758 0.87547
 C968 C 0.14683 0.38299 0.86369
 C969 C 0.16399 0.36472 0.84976
 C970 C 0.16132 0.33957 0.85923
 C971 C 0.17680 0.32138 0.84432
 C972 C 0.19524 0.32804 0.81958
 C973 C 0.19821 0.35349 0.81086
 C974 C 0.18263 0.37169 0.82583
 H975 H 0.08265 0.39676 0.86160
 H976 H 0.05024 0.42245 0.88835
 H977 H 0.10725 0.46125 0.94902
 H978 H 0.13913 0.43512 0.92165
 H979 H 0.14695 0.33396 0.87772
 H980 H 0.17397 0.30202 0.85174
 H981 H 0.21217 0.35930 0.79191
 H982 H 0.18485 0.39111 0.81827
 C983 C 0.38515 0.58586 0.38986
 C984 C 0.37863 0.56826 0.41551
 C985 C 0.39709 0.55343 0.43115
 C986 C 0.42239 0.55607 0.42140
 C987 C 0.42863 0.57346 0.39501
 C988 C 0.41013 0.58824 0.37941
 C989 C 0.36654 0.60242 0.37551
 C990 C 0.35154 0.61703 0.36372
 C991 C 0.33448 0.63535 0.34978
 C992 C 0.31589 0.62843 0.32570
 C993 C 0.30046 0.64668 0.31064
 C994 C 0.30352 0.67212 0.31942
 C995 C 0.32189 0.67872 0.34433
 C996 C 0.33722 0.66047 0.35933
 H997 H 0.35936 0.56634 0.42390
 H998 H 0.39160 0.54030 0.45142
 H999 H 0.44786 0.57601 0.38682
 H1000 H 0.41539 0.60186 0.35964
 H1001 H 0.31363 0.60902 0.31810
 H1002 H 0.28654 0.64093 0.29157
 H1003 H 0.32478 0.69807 0.35179
 H1004 H 0.35156 0.66603 0.37793
 C1005 C 0.88519 0.91340 0.60947
 C1006 C 0.91018 0.91103 0.61993
 C1007 C 0.92865 0.92591 0.60447
 C1008 C 0.92239 0.94341 0.57823
 C1009 C 0.89709 0.94604 0.56846
 C1010 C 0.87865 0.93109 0.58395
 C1011 C 0.86660 0.89678 0.62374
 C1012 C 0.85159 0.88216 0.63549
 C1013 C 0.83451 0.86386 0.64944
 C1014 C 0.83720 0.83873 0.63990
 C1015 C 0.82185 0.82050 0.65495
 C1016 C 0.80355 0.82713 0.67992
 C1017 C 0.80054 0.85258 0.68867
 C1018 C 0.81598 0.87080 0.67356
 H1019 H 0.91546 0.89734 0.63959
 H1020 H 0.94789 0.92337 0.61267
 H1021 H 0.89157 0.95924 0.54830
 H1022 H 0.85937 0.93302 0.57556
 H1023 H 0.85149 0.83314 0.62126
 H1024 H 0.82471 0.80114 0.64751
 H1025 H 0.78668 0.85837 0.70779
 H1026 H 0.81376 0.89022 0.68117
 C1027 C 0.61499 0.08574 0.11010
 C1028 C 0.59002 0.08810 0.12063
 C1029 C 0.57152 0.07329 0.10509
 C1030 C 0.57776 0.05589 0.07867
 C1031 C 0.60304 0.05325 0.06886
 C1032 C 0.62150 0.06812 0.08445
 C1033 C 0.63358 0.10237 0.12434
 C1034 C 0.64858 0.11702 0.13601
 C1035 C 0.66565 0.13538 0.14982
 C1036 C 0.68427 0.12852 0.17385
 C1037 C 0.69970 0.14681 0.18883
 C1038 C 0.69660 0.17223 0.18002
 C1039 C 0.67821 0.17877 0.15514
 C1040 C 0.66287 0.16048 0.14022
 H1041 H 0.58477 0.10175 0.14040
 H1042 H 0.55230 0.07582 0.11331
 H1043 H 0.60853 0.04011 0.04857
 H1044 H 0.64077 0.06622 0.07601
 H1045 H 0.68656 0.10913 0.18149
 H1046 H 0.71364 0.14110 0.20788
 H1047 H 0.67529 0.19810 0.14766
 H1048 H 0.64850 0.16598 0.12164
 C1049 C 0.88563 0.08450 0.39995
 C1050 C 0.87872 0.06588 0.42394
 C1051 C 0.89697 0.05041 0.43893
 C1052 C 0.92239 0.05347 0.43016
 C1053 C 0.92898 0.07187 0.40533
 C1054 C 0.91073 0.08724 0.39040
 C1055 C 0.86731 0.10159 0.38609
 C1056 C 0.85269 0.11660 0.37438
 C1057 C 0.83610 0.13520 0.36009
 C1058 C 0.81842 0.12865 0.33456
 C1059 C 0.80355 0.14710 0.31897
 C1060 C 0.80625 0.17242 0.32865
 C1061 C 0.82373 0.17870 0.35493
 C1062 C 0.83854 0.16021 0.37049
 H1063 H 0.85932 0.06362 0.43154
 H1064 H 0.89121 0.03647 0.45794
 H1065 H 0.94832 0.07476 0.39788
 H1066 H 0.91628 0.10161 0.37186
 H1067 H 0.81645 0.10936 0.32622
 H1068 H 0.79035 0.14157 0.29878
 H1069 H 0.82632 0.19795 0.36306
 H1070 H 0.85223 0.16549 0.39016
 C1071 C 0.38565 0.41582 0.60085
 C1072 C 0.41078 0.41295 0.61023
 C1073 C 0.42906 0.42821 0.59514
 C1074 C 0.42248 0.44663 0.57032
 C1075 C 0.39704 0.44981 0.56172
 C1076 C 0.37876 0.43445 0.57686
 C1077 C 0.36728 0.39884 0.61483
 C1078 C 0.35260 0.38390 0.62659
 C1079 C 0.33592 0.36535 0.64084
 C1080 C 0.33818 0.34037 0.63025
 C1081 C 0.32326 0.32192 0.64568
 C1082 C 0.30584 0.32819 0.67202
 C1083 C 0.30331 0.35349 0.68191
 C1084 C 0.31830 0.37191 0.66645
 H1085 H 0.41633 0.39857 0.62875
 H1086 H 0.44841 0.42523 0.60247
 H1087 H 0.39128 0.46377 0.54273
 H1088 H 0.35935 0.43682 0.56938
 H1089 H 0.35181 0.33507 0.61051
 H1090 H 0.32572 0.30268 0.63738
 H1091 H 0.29017 0.35901 0.70216
 H1092 H 0.31645 0.39118 0.67494
 C1093 C 0.61457 0.91544 0.89951
 C1094 C 0.58947 0.91268 0.88986
 C1095 C 0.57120 0.92809 0.90469
 C1096 C 0.57776 0.94653 0.92953
 C1097 C 0.60317 0.94961 0.93837
 C1098 C 0.62144 0.93411 0.92348
 C1099 C 0.63291 0.89831 0.88581
 C1100 C 0.64759 0.88327 0.87427
 C1101 C 0.66427 0.86465 0.86020
 C1102 C 0.66197 0.83971 0.87087
 C1103 C 0.67687 0.82119 0.85552
 C1104 C 0.69431 0.82738 0.82917
 C1105 C 0.69688 0.85265 0.81922
 C1106 C 0.68192 0.87113 0.83461
 H1107 H 0.58395 0.89828 0.87133
 H1108 H 0.55187 0.92518 0.89719
 H1109 H 0.60890 0.96359 0.95738
 H1110 H 0.64083 0.93639 0.93115
 H1111 H 0.64831 0.83448 0.89060
 H1112 H 0.67437 0.80198 0.86384
 H1113 H 0.71004 0.85812 0.79897
 H1114 H 0.68379 0.89037 0.82606
 C1115 C 0.11413 0.58424 0.09897
 C1116 C 0.08900 0.58688 0.10849
 C1117 C 0.07079 0.57151 0.09338
 C1118 C 0.07743 0.55320 0.06838
 C1119 C 0.10287 0.55025 0.05963
 C1120 C 0.12108 0.56572 0.07480
 C1121 C 0.13241 0.60133 0.11307
 C1122 C 0.14698 0.61634 0.12500
 C1123 C 0.16354 0.63496 0.13950
 C1124 C 0.18118 0.62840 0.16510
 C1125 C 0.19607 0.64684 0.18076
 C1126 C 0.19345 0.67216 0.17110
 C1127 C 0.17599 0.67845 0.14480
 C1128 C 0.16116 0.65997 0.12917
 H1129 H 0.08339 0.60115 0.12716
 H1130 H 0.05145 0.57433 0.10084
 H1131 H 0.10866 0.53639 0.04049
 H1132 H 0.14049 0.56353 0.06720
 H1133 H 0.18312 0.60911 0.17340
 H1134 H 0.20925 0.64130 0.20096
 H1135 H 0.17344 0.69770 0.13668
 H1136 H 0.14751 0.66528 0.10945
 C1137 C 0.38494 0.91510 0.10508
 C1138 C 0.40968 0.91297 0.11665
 C1139 C 0.42827 0.92817 0.10223
 C1140 C 0.42235 0.94575 0.07596
 C1141 C 0.39728 0.94810 0.06500
 C1142 C 0.37871 0.93282 0.07945
 C1143 C 0.36634 0.89822 0.11847
 C1144 C 0.35144 0.88334 0.12969
 C1145 C 0.33454 0.86477 0.14315
 C1146 C 0.33660 0.84001 0.13160
 C1147 C 0.32143 0.82145 0.14616
 C1148 C 0.30395 0.82743 0.17255
 C1149 C 0.30166 0.85252 0.18348
 C1150 C 0.31692 0.87106 0.16889
 H1151 H 0.41469 0.89925 0.13642
 H1152 H 0.44733 0.92587 0.11134
 H1153 H 0.39208 0.96136 0.04473
 H1154 H 0.35961 0.93453 0.07022
 H1155 H 0.35025 0.83496 0.11175
 H1156 H 0.32368 0.80237 0.13707
 H1157 H 0.28849 0.85777 0.20383
 H1158 H 0.31527 0.89018 0.17811
 C1159 C 0.61533 0.41564 0.39412
 C1160 C 0.59059 0.41351 0.38253
 C1161 C 0.57199 0.42864 0.39708
 C1162 C 0.57790 0.44615 0.42349
 C1163 C 0.60296 0.44851 0.43445
 C1164 C 0.62155 0.43330 0.41987
 C1165 C 0.63394 0.39879 0.38065
 C1166 C 0.64883 0.38390 0.36941
 C1167 C 0.66569 0.36530 0.35595
 C1168 C 0.66363 0.34058 0.36760
 C1169 C 0.67876 0.32197 0.35307
 C1170 C 0.69620 0.32786 0.32660
 C1171 C 0.69849 0.35291 0.31557
 C1172 C 0.68327 0.37150 0.33014
 H1173 H 0.58560 0.39984 0.36266
 H1174 H 0.55293 0.42634 0.38796
 H1175 H 0.60815 0.46172 0.45482
 H1176 H 0.64065 0.43500 0.42911
 H1177 H 0.65001 0.33559 0.38752
 H1178 H 0.67652 0.30292 0.36224
 H1179 H 0.71164 0.35809 0.29515
 H1180 H 0.68492 0.39059 0.32085
 C1181 C 0.88665 0.58433 0.89320
 C1182 C 0.88008 0.56501 0.91617
 C1183 C 0.89858 0.54961 0.93061
 C1184 C 0.92414 0.55341 0.92245
 C1185 C 0.93028 0.57270 0.89848
 C1186 C 0.91170 0.58796 0.88413
 C1187 C 0.86797 0.60122 0.87991
 C1188 C 0.85299 0.61611 0.86884
 C1189 C 0.83597 0.63468 0.85561
 C1190 C 0.81805 0.62838 0.83026
 C1191 C 0.80261 0.64690 0.81598
 C1192 C 0.80498 0.67201 0.82683
 C1193 C 0.82277 0.67801 0.85282
 C1194 C 0.83813 0.65946 0.86707
 H1195 H 0.86069 0.56208 0.92337
 H1196 H 0.89273 0.53509 0.94871
 H1197 H 0.94949 0.57644 0.89105
 H1198 H 0.91697 0.60290 0.86634
 H1199 H 0.81631 0.60926 0.82111
 H1200 H 0.78920 0.64163 0.79592
 H1201 H 0.82510 0.69709 0.86184
 H1202 H 0.85199 0.66454 0.88663
 C1203 C 0.11520 0.08439 0.60599
 C1204 C 0.09048 0.08641 0.61769
 C1205 C 0.07190 0.07121 0.60323
 C1206 C 0.07781 0.05372 0.57679
 C1207 C 0.10286 0.05146 0.56572
 C1208 C 0.12142 0.06675 0.58022
 C1209 C 0.13378 0.10132 0.61936
 C1210 C 0.14866 0.11626 0.63053
 C1211 C 0.16552 0.13491 0.64391
 C1212 C 0.18312 0.12877 0.66974
 C1213 C 0.19833 0.14739 0.68426
 C1214 C 0.19600 0.17243 0.67317
 C1215 C 0.17855 0.17827 0.64667
 C1216 C 0.16343 0.15962 0.63219
 H1217 H 0.08549 0.10007 0.63758
 H1218 H 0.05286 0.07344 0.61242
 H1219 H 0.10804 0.03828 0.54533
 H1220 H 0.14050 0.06513 0.57089
 H1221 H 0.18479 0.10969 0.67909
 H1222 H 0.21148 0.14226 0.70470
 H1223 H 0.17628 0.19730 0.63746
 H1224 H 0.14980 0.16456 0.61226
 C1225 C 0.11423 0.41555 0.39869
 C1226 C 0.08911 0.41285 0.38914
 C1227 C 0.07089 0.42821 0.40418
 C1228 C 0.07753 0.44655 0.42912
 C1229 C 0.10297 0.44957 0.43787
 C1230 C 0.12118 0.43412 0.42278
 C1231 C 0.13252 0.39844 0.38477
 C1232 C 0.14712 0.38341 0.37304
 C1233 C 0.16369 0.36478 0.35877
 C1234 C 0.16138 0.33983 0.36942
 C1235 C 0.17618 0.32130 0.35392
 C1236 C 0.19353 0.32748 0.32745
 C1237 C 0.19610 0.35275 0.31750
 C1238 C 0.18124 0.37124 0.33304
 H1239 H 0.08353 0.39852 0.37052
 H1240 H 0.05154 0.42535 0.39674
 H1241 H 0.10875 0.46347 0.45697
 H1242 H 0.14059 0.43634 0.43038
 H1243 H 0.14779 0.33462 0.38926
 H1244 H 0.17369 0.30208 0.36226
 H1245 H 0.20920 0.35820 0.29716
 H1246 H 0.18311 0.39049 0.32450
 C1247 C 0.38576 0.58469 0.89988
 C1248 C 0.37883 0.56600 0.92374
 C1249 C 0.39707 0.55055 0.93877
 C1250 C 0.42251 0.55370 0.93019
 C1251 C 0.42914 0.57218 0.90550
 C1252 C 0.41089 0.58754 0.89052
 C1253 C 0.36743 0.60174 0.88596
 C1254 C 0.35279 0.61672 0.87421
 C1255 C 0.33617 0.63529 0.85991
 C1256 C 0.31854 0.62873 0.83430
 C1257 C 0.30364 0.64716 0.81871
 C1258 C 0.30626 0.67247 0.82848
 C1259 C 0.32368 0.67875 0.85484
 C1260 C 0.33851 0.66028 0.87039
 H1261 H 0.35941 0.56366 0.93119
 H1262 H 0.39129 0.53654 0.95767
 H1263 H 0.44849 0.57514 0.89819
 H1264 H 0.41646 0.60196 0.87208
 H1265 H 0.31665 0.60944 0.82589
 H1266 H 0.29049 0.64163 0.79846
 H1267 H 0.32620 0.69800 0.86304
 H1268 H 0.35216 0.66558 0.89013
 C1269 C 0.61398 0.08472 0.60175
 C1270 C 0.58884 0.08736 0.61122
 C1271 C 0.57066 0.07192 0.59619
 C1272 C 0.57734 0.05354 0.57132
 C1273 C 0.60279 0.05058 0.56262
 C1274 C 0.62097 0.06612 0.57771
 C1275 C 0.63223 0.10187 0.61574
 C1276 C 0.64681 0.11693 0.62756
 C1277 C 0.66337 0.13559 0.64192
 C1278 C 0.68109 0.12909 0.66744
 C1279 C 0.69601 0.14757 0.68296
 C1280 C 0.69334 0.17287 0.67322
 C1281 C 0.67580 0.17910 0.64699
 C1282 C 0.66094 0.16058 0.63151
 H1283 H 0.58321 0.10169 0.62979
 H1284 H 0.55131 0.07473 0.60360
 H1285 H 0.60862 0.03667 0.54358
 H1286 H 0.64039 0.06393 0.57015
 H1287 H 0.68307 0.10981 0.67580
 H1288 H 0.70924 0.14207 0.70310
 H1289 H 0.67322 0.19833 0.63882
 H1290 H 0.64723 0.16584 0.61185
 C1291 C 0.88582 0.91539 0.10060
 C1292 C 0.91097 0.91253 0.10993
 C1293 C 0.92921 0.92785 0.09489
 C1294 C 0.92258 0.94632 0.07017
 C1295 C 0.89713 0.94949 0.06162
 C1296 C 0.87889 0.93407 0.07671
 C1297 C 0.86748 0.89836 0.11457
 C1298 C 0.85284 0.88339 0.12632
 C1299 C 0.83621 0.86480 0.14058
 C1300 C 0.83847 0.83983 0.12992
 C1301 C 0.82362 0.82134 0.14537
 C1302 C 0.80626 0.82757 0.17182
 C1303 C 0.80372 0.85284 0.18178
 C1304 C 0.81864 0.87130 0.16629
 H1305 H 0.91654 0.89811 0.12838
 H1306 H 0.94857 0.92487 0.10217
 H1307 H 0.89135 0.96349 0.04270
 H1308 H 0.85946 0.93643 0.06928
 H1309 H 0.85207 0.83458 0.11010
 H1310 H 0.82609 0.80212 0.13702
 H1311 H 0.79062 0.85833 0.20211
 H1312 H 0.81680 0.89056 0.17484
 C1313 C 0.88512 0.08649 0.89107
 C1314 C 0.87861 0.06884 0.91664
 C1315 C 0.89706 0.05386 0.93205
 C1316 C 0.92233 0.05642 0.92214
 C1317 C 0.92856 0.07386 0.89582
 C1318 C 0.91008 0.08878 0.88045
 C1319 C 0.86655 0.10318 0.87691
 C1320 C 0.85158 0.11787 0.86525
 C1321 C 0.83455 0.13624 0.85139
 C1322 C 0.81577 0.12934 0.82761
 C1323 C 0.80036 0.14762 0.81259
 C1324 C 0.80364 0.17308 0.82109
 C1325 C 0.82220 0.17968 0.84570
 C1326 C 0.83752 0.16139 0.86067
 H1327 H 0.85936 0.06698 0.92515
 H1328 H 0.89157 0.04069 0.95228
 H1329 H 0.94777 0.07635 0.88752
 H1330 H 0.91533 0.10244 0.86073
 H1331 H 0.81333 0.10991 0.82021
 H1332 H 0.78628 0.14186 0.79375
 H1333 H 0.82526 0.19904 0.85294
 H1334 H 0.85201 0.16694 0.87903
 C1335 C 0.11509 0.58584 0.60964
 C1336 C 0.09014 0.58814 0.62028
 C1337 C 0.07164 0.57332 0.60476
 C1338 C 0.07784 0.55596 0.57827
 C1339 C 0.10311 0.55338 0.56836
 C1340 C 0.12158 0.56826 0.58392
 C1341 C 0.13369 0.60246 0.62389
 C1342 C 0.14867 0.61712 0.63560
 C1343 C 0.16571 0.63548 0.64948
 C1344 C 0.18433 0.62862 0.67350
 C1345 C 0.19973 0.64691 0.68855
 C1346 C 0.19660 0.67233 0.67982
 C1347 C 0.17820 0.67889 0.65495
 C1348 C 0.16289 0.66059 0.63995
 H1349 H 0.08491 0.60175 0.64011
 H1350 H 0.05242 0.57582 0.61306
 H1351 H 0.10858 0.54028 0.54801
 H1352 H 0.14083 0.56640 0.57540
 H1353 H 0.18664 0.60922 0.68108
 H1354 H 0.21368 0.64119 0.70759
 H1355 H 0.17526 0.69823 0.64752
 H1356 H 0.14853 0.66611 0.62139
 C1357 C 0.61471 0.91329 0.39151
 C1358 C 0.58973 0.91105 0.38094
 C1359 C 0.57128 0.92592 0.39649
 C1360 C 0.57754 0.94328 0.42296
 C1361 C 0.60283 0.94576 0.43287
 C1362 C 0.62125 0.93083 0.41727
 C1363 C 0.63329 0.89669 0.37705
 C1364 C 0.64826 0.88209 0.36512
 C1365 C 0.66531 0.86380 0.35097
 C1366 C 0.66259 0.83864 0.36028
 C1367 C 0.67795 0.82045 0.34511
 C1368 C 0.69631 0.82714 0.32027
 C1369 C 0.69933 0.85261 0.31172
 C1370 C 0.68388 0.87081 0.32694
 H1371 H 0.58444 0.89748 0.36108
 H1372 H 0.55205 0.92349 0.38818
 H1373 H 0.60835 0.95885 0.45321
 H1374 H 0.64052 0.93265 0.42576
 H1375 H 0.64828 0.83300 0.37883
 H1376 H 0.67508 0.80107 0.35241
 H1377 H 0.71324 0.85845 0.29271
 H1378 H 0.68613 0.89024 0.31951
 C1379 C 0.38491 0.41335 0.10875
 C1380 C 0.40989 0.41086 0.11921
 C1381 C 0.42842 0.42575 0.10392
 C1382 C 0.42221 0.44339 0.07782
 C1383 C 0.39693 0.44614 0.06806
 C1384 C 0.37843 0.43119 0.08340
 C1385 C 0.36626 0.39673 0.12285
 C1386 C 0.35120 0.38210 0.13445
 C1387 C 0.33405 0.36381 0.14823
 C1388 C 0.33677 0.33867 0.13872
 C1389 C 0.32136 0.32045 0.15366
 C1390 C 0.30295 0.32710 0.17846
 C1391 C 0.29990 0.35255 0.18716
 C1392 C 0.31540 0.37077 0.17217
 H1393 H 0.41512 0.39706 0.13876
 H1394 H 0.44764 0.42311 0.11210
 H1395 H 0.39145 0.45946 0.04801
 H1396 H 0.35917 0.43321 0.07501
 H1397 H 0.35115 0.33308 0.12023
 H1398 H 0.32424 0.30109 0.14626
 H1399 H 0.28595 0.35835 0.20615
 H1400 H 0.31315 0.39019 0.17974
 C1401 C 0.61542 0.58392 0.10600
 C1402 C 0.59073 0.58595 0.11779
 C1403 C 0.57211 0.57079 0.10333
 C1404 C 0.57796 0.55334 0.07682
 C1405 C 0.60299 0.55106 0.06567
 C1406 C 0.62158 0.56632 0.08016
 C1407 C 0.63403 0.60083 0.11935
 C1408 C 0.64893 0.61575 0.13050
 C1409 C 0.66583 0.63437 0.14386
 C1410 C 0.68352 0.62817 0.16953
 C1411 C 0.69877 0.64677 0.18404
 C1412 C 0.69639 0.67183 0.17309
 C1413 C 0.67885 0.67773 0.14674
 C1414 C 0.66369 0.65911 0.13227
 H1415 H 0.58577 0.59958 0.13773
 H1416 H 0.55308 0.57302 0.11259
 H1417 H 0.60813 0.53791 0.04522
 H1418 H 0.64065 0.56469 0.07077
 H1419 H 0.68523 0.60907 0.17878
 H1420 H 0.71200 0.64159 0.20436
 H1421 H 0.67654 0.69679 0.13764
 H1422 H 0.64998 0.66409 0.11246
 C1423 C 0.11526 0.91579 0.89377
 C1424 C 0.09053 0.91372 0.88214
 C1425 C 0.07194 0.92887 0.89669
 C1426 C 0.07786 0.94633 0.92316
 C1427 C 0.10292 0.94864 0.93415
 C1428 C 0.12149 0.93341 0.91957
 C1429 C 0.13385 0.89890 0.88033
 C1430 C 0.14873 0.88400 0.86911
 C1431 C 0.16560 0.86538 0.85570
 C1432 C 0.16352 0.84066 0.86734
 C1433 C 0.17868 0.82204 0.85286
 C1434 C 0.19617 0.82793 0.82645
 C1435 C 0.19848 0.85299 0.81544
 C1436 C 0.18324 0.87158 0.82995
 H1437 H 0.08552 0.90008 0.86224
 H1438 H 0.05288 0.92661 0.88755
 H1439 H 0.10812 0.96181 0.95456
 H1440 H 0.14058 0.93506 0.92884
 H1441 H 0.14986 0.83568 0.88720
 H1442 H 0.17641 0.80299 0.86201
 H1443 H 0.21167 0.85816 0.79507
 H1444 H 0.18491 0.89067 0.82067
 C1445 C 0.38523 0.08479 0.39417
 C1446 C 0.37885 0.06711 0.41978
 C1447 C 0.39732 0.05178 0.43444
 C1448 C 0.42244 0.05405 0.42371
 C1449 C 0.42852 0.07160 0.39746
 C1450 C 0.41003 0.08684 0.38284
 C1451 C 0.36670 0.10170 0.38055
 C1452 C 0.35184 0.11657 0.36917
 C1453 C 0.33493 0.13511 0.35556
 C1454 C 0.31716 0.12870 0.33007
 C1455 C 0.30180 0.14717 0.31546
 C1456 C 0.30414 0.17231 0.32612
 C1457 C 0.32180 0.17842 0.35225
 C1458 C 0.33706 0.15993 0.36682
 H1459 H 0.35971 0.06546 0.42883
 H1460 H 0.39199 0.03856 0.45468
 H1461 H 0.44762 0.07384 0.38853
 H1462 H 0.41516 0.10052 0.36308
 H1463 H 0.31544 0.10953 0.32109
 H1464 H 0.28850 0.14182 0.29532
 H1465 H 0.32409 0.19754 0.36113
 H1466 H 0.35082 0.16508 0.38649
 C1467 C 0.88492 0.41551 0.60570
 C1468 C 0.90969 0.41330 0.61712
 C1469 C 0.92829 0.42841 0.60255
 C1470 C 0.92234 0.44599 0.57628
 C1471 C 0.89725 0.44842 0.56547
 C1472 C 0.87868 0.43322 0.58007
 C1473 C 0.86629 0.39872 0.61924
 C1474 C 0.85137 0.38390 0.63057
 C1475 C 0.83445 0.36539 0.64413
 C1476 C 0.83639 0.34063 0.63256
 C1477 C 0.82121 0.32212 0.64721
 C1478 C 0.80384 0.32815 0.67372
 C1479 C 0.80166 0.35325 0.68467
 C1480 C 0.81693 0.37173 0.66999
 H1481 H 0.91471 0.39959 0.63689
 H1482 H 0.94737 0.42606 0.61155
 H1483 H 0.89203 0.46168 0.54521
 H1484 H 0.85955 0.43499 0.57096
 H1485 H 0.84995 0.33554 0.61261
 H1486 H 0.82336 0.30303 0.63810
 H1487 H 0.78857 0.35853 0.70512
 H1488 H 0.81538 0.39086 0.67922
 C1489 C 0.88776 0.58763 0.09628
 C1490 C 0.91288 0.58934 0.10628
 C1491 C 0.93089 0.57434 0.09005
 C1492 C 0.92408 0.55728 0.06344
 C1493 C 0.89871 0.55551 0.05371
 C1494 C 0.88068 0.57063 0.07001
 C1495 C 0.86968 0.60405 0.11236
 C1496 C 0.85544 0.61863 0.12606
 C1497 C 0.83948 0.63702 0.14240
 C1498 C 0.84372 0.66241 0.13591
 C1499 C 0.82908 0.68059 0.15245
 C1500 C 0.80988 0.67367 0.17589
 C1501 C 0.80562 0.64803 0.18211
 C1502 C 0.82037 0.62984 0.16549
 H1503 H 0.91861 0.60247 0.12648
 H1504 H 0.95018 0.57621 0.09832
 H1505 H 0.89281 0.54266 0.03327
 H1506 H 0.86130 0.56923 0.06193
 H1507 H 0.85851 0.66821 0.11820
 H1508 H 0.83293 0.70008 0.14691
 H1509 H 0.79101 0.64202 0.19994
 H1510 H 0.81697 0.61022 0.17083
 C1511 C 0.61237 0.41304 0.59877
 C1512 C 0.61936 0.42997 0.57242
 C1513 C 0.60127 0.44503 0.55620
 C1514 C 0.57593 0.44325 0.56608
 C1515 C 0.56923 0.42629 0.59281
 C1516 C 0.58730 0.41134 0.60897
 C1517 C 0.63050 0.39662 0.61467
 C1518 C 0.64478 0.38202 0.62819
 C1519 C 0.66076 0.36359 0.64429
 C1520 C 0.65644 0.33822 0.63767
 C1521 C 0.67108 0.31999 0.65403
 C1522 C 0.69037 0.32684 0.67739
 C1523 C 0.69473 0.35245 0.68372
 C1524 C 0.67997 0.37070 0.66728
 H1525 H 0.63871 0.43135 0.56419
 H1526 H 0.60708 0.45781 0.53566
 H1527 H 0.54996 0.42442 0.60120
 H1528 H 0.58166 0.39825 0.62924
 H1529 H 0.64157 0.33248 0.62003
 H1530 H 0.66717 0.30051 0.64842
 H1531 H 0.70941 0.35841 0.70149
 H1532 H 0.68342 0.39030 0.67270
 C1533 C 0.11225 0.08735 0.40208
 C1534 C 0.08717 0.08912 0.39194
 C1535 C 0.06910 0.07411 0.40796
 C1536 C 0.07582 0.05699 0.43449
 C1537 C 0.10117 0.05514 0.44433
 C1538 C 0.11925 0.07027 0.42824
 C1539 C 0.13040 0.10380 0.38628
 C1540 C 0.14471 0.11840 0.37283
 C1541 C 0.16075 0.13681 0.35679
 C1542 C 0.17982 0.12968 0.33360
 C1543 C 0.19460 0.14791 0.31717
 C1544 C 0.19042 0.17353 0.32369
 C1545 C 0.17129 0.18039 0.34728
 C1546 C 0.15661 0.16219 0.36364
 H1547 H 0.08152 0.10232 0.37181
 H1548 H 0.04982 0.07603 0.39962
 H1549 H 0.10699 0.04224 0.46472
 H1550 H 0.13861 0.06883 0.43643
 H1551 H 0.18314 0.11008 0.32800
 H1552 H 0.20915 0.14194 0.29921
 H1553 H 0.16751 0.19988 0.35305
 H1554 H 0.14186 0.16794 0.38144
 C1555 C 0.38785 0.91283 0.90116
 C1556 C 0.41288 0.91122 0.89075
 C1557 C 0.43096 0.92621 0.90680
 C1558 C 0.42430 0.94314 0.93363
 C1559 C 0.39900 0.94484 0.94372
 C1560 C 0.38090 0.92973 0.92760
 C1561 C 0.36971 0.89633 0.88543
 C1562 C 0.35540 0.88169 0.87208
 C1563 C 0.33937 0.86321 0.85618
 C1564 C 0.34355 0.83787 0.86315
 C1565 C 0.32886 0.81960 0.84696
 C1566 C 0.30966 0.82637 0.82342
 C1567 C 0.30543 0.85196 0.81676
 C1568 C 0.32024 0.87025 0.83303
 H1569 H 0.41848 0.89815 0.87041
 H1570 H 0.45021 0.92441 0.89827
 H1571 H 0.39323 0.95758 0.96435
 H1572 H 0.36158 0.93103 0.93599
 H1573 H 0.35836 0.83221 0.88093
 H1574 H 0.33266 0.80014 0.85282
 H1575 H 0.29083 0.85785 0.79884
 H1576 H 0.31690 0.88983 0.82735
 C1577 C 0.11310 0.91058 0.60642
 C1578 C 0.12015 0.92975 0.58335
 C1579 C 0.10187 0.94451 0.56701
 C1580 C 0.07628 0.94020 0.57350
 C1581 C 0.06949 0.92096 0.59695
 C1582 C 0.08776 0.90631 0.61321
 C1583 C 0.13157 0.89460 0.62241
 C1584 C 0.14621 0.88032 0.63582
 C1585 C 0.16270 0.86221 0.65160
 C1586 C 0.16103 0.83714 0.64132
 C1587 C 0.17604 0.81908 0.65738
 C1588 C 0.19305 0.82581 0.68408
 C1589 C 0.19480 0.85115 0.69403
 C1590 C 0.17967 0.86922 0.67791
 H1591 H 0.13973 0.93316 0.57780
 H1592 H 0.10777 0.95915 0.54917
 H1593 H 0.05003 0.91709 0.60268
 H1594 H 0.08208 0.89147 0.63092
 H1595 H 0.14791 0.83149 0.62108
 H1596 H 0.17420 0.79981 0.64895
 H1597 H 0.20761 0.85697 0.71455
 H1598 H 0.18102 0.88858 0.68619
 C1599 C 0.61313 0.58900 0.39302
 C1600 C 0.58778 0.59326 0.38623
 C1601 C 0.56952 0.57868 0.40261
 C1602 C 0.57630 0.55951 0.42619
 C1603 C 0.60190 0.55522 0.43269
 C1604 C 0.62018 0.56991 0.41622
 C1605 C 0.63161 0.60493 0.37694
 C1606 C 0.64627 0.61918 0.36350
 C1607 C 0.66279 0.63729 0.34774
 C1608 C 0.67973 0.63030 0.32139
 C1609 C 0.69490 0.64839 0.30534
 C1610 C 0.69321 0.67371 0.31541
 C1611 C 0.67623 0.68040 0.34214
 C1612 C 0.66119 0.66234 0.35813
 H1613 H 0.58209 0.60804 0.36842
 H1614 H 0.55005 0.58254 0.39687
 H1615 H 0.60781 0.54063 0.45063
 H1616 H 0.63976 0.56650 0.42179
 H1617 H 0.68104 0.61097 0.31301
 H1618 H 0.70768 0.64259 0.28478
 H1619 H 0.67443 0.69965 0.35067
 H1620 H 0.64810 0.66798 0.37840
 C1621 C 0.38699 0.08885 0.10673
 C1622 C 0.41232 0.09304 0.11375
 C1623 C 0.43060 0.07841 0.09747
 C1624 C 0.42384 0.05928 0.07378
 C1625 C 0.39827 0.05504 0.06709
 C1626 C 0.37997 0.06978 0.08345
 C1627 C 0.36849 0.10484 0.12267
 C1628 C 0.35381 0.11912 0.13600
 C1629 C 0.33725 0.13724 0.15164
 C1630 C 0.33871 0.16224 0.14105
 C1631 C 0.32363 0.18032 0.15695
 C1632 C 0.30675 0.17368 0.18382
 C1633 C 0.30519 0.14840 0.19409
 C1634 C 0.32039 0.13031 0.17812
 H1635 H 0.41798 0.10780 0.13163
 H1636 H 0.45005 0.08222 0.10336
 H1637 H 0.39238 0.04049 0.04906
 H1638 H 0.36040 0.06643 0.07772
 H1639 H 0.35174 0.16784 0.12067
 H1640 H 0.32533 0.19954 0.14827
 H1641 H 0.29248 0.14265 0.21475
 H1642 H 0.31919 0.11101 0.18665
 C1643 C 0.88787 0.41174 0.89277
 C1644 C 0.91319 0.40708 0.88651
 C1645 C 0.93154 0.42178 0.90253
 C1646 C 0.92498 0.44165 0.92541
 C1647 C 0.89922 0.44626 0.93120
 C1648 C 0.88091 0.43140 0.91505
 C1649 C 0.86932 0.39567 0.87698
 C1650 C 0.85463 0.38131 0.86373
 C1651 C 0.83807 0.36312 0.84813
 C1652 C 0.83986 0.33805 0.85833
 C1653 C 0.82475 0.31994 0.84248
 C1654 C 0.80752 0.32660 0.81606
 C1655 C 0.80566 0.35194 0.80615
 C1656 C 0.82088 0.37006 0.82207
 H1657 H 0.91881 0.39186 0.86938
 H1658 H 0.95091 0.41733 0.89694
 H1659 H 0.89305 0.46123 0.94838
 H1660 H 0.86132 0.43513 0.92017
 H1661 H 0.85315 0.33243 0.87837
 H1662 H 0.82670 0.30068 0.85087
 H1663 H 0.79268 0.35773 0.78584
 H1664 H 0.81942 0.38941 0.81382
 C1665 C 0.61658 0.08425 0.89622
 C1666 C 0.59187 0.08577 0.88432
 C1667 C 0.57332 0.07095 0.89962
 C1668 C 0.57925 0.05437 0.92716
 C1669 C 0.60432 0.05248 0.93830
 C1670 C 0.62284 0.06738 0.92295
 C1671 C 0.63507 0.10103 0.88219
 C1672 C 0.64984 0.11586 0.87045
 C1673 C 0.66653 0.13437 0.85627
 C1674 C 0.68341 0.12806 0.82959
 C1675 C 0.69816 0.14659 0.81398
 C1676 C 0.69611 0.17173 0.82481
 C1677 C 0.67952 0.17772 0.85233
 C1678 C 0.66485 0.15916 0.86789
 H1679 H 0.58683 0.09881 0.86368
 H1680 H 0.55427 0.07288 0.89034
 H1681 H 0.60955 0.03998 0.95948
 H1682 H 0.64192 0.06613 0.93243
 H1683 H 0.68478 0.10893 0.82033
 H1684 H 0.71068 0.14130 0.79285
 H1685 H 0.67747 0.19683 0.86138
 H1686 H 0.65178 0.16424 0.88849
 C1687 C 0.38346 0.58349 0.60480
 C1688 C 0.40820 0.58512 0.61658
 C1689 C 0.42680 0.57051 0.60098
 C1690 C 0.42089 0.55403 0.57327
 C1691 C 0.39580 0.55202 0.56227
 C1692 C 0.37723 0.56672 0.57791
 C1693 C 0.36494 0.60013 0.61906
 C1694 C 0.35015 0.61489 0.63093
 C1695 C 0.33348 0.63340 0.64518
 C1696 C 0.33499 0.65812 0.63331
 C1697 C 0.32035 0.67670 0.64890
 C1698 C 0.30398 0.67081 0.67668
 C1699 C 0.30208 0.64573 0.68777
 C1700 C 0.31680 0.62717 0.67215
 H1701 H 0.41322 0.59810 0.63733
 H1702 H 0.44587 0.57251 0.61017
 H1703 H 0.39058 0.53959 0.54098
 H1704 H 0.35813 0.56539 0.56853
 H1705 H 0.34790 0.66313 0.61250
 H1706 H 0.32227 0.69577 0.63963
 H1707 H 0.28972 0.64053 0.70913
 H1708 H 0.31557 0.60808 0.68160
 C1709 C 0.11543 0.41544 0.10329
 C1710 C 0.12189 0.43226 0.07660
 C1711 C 0.10348 0.44713 0.06089
 C1712 C 0.07833 0.44526 0.07162
 C1713 C 0.07219 0.42872 0.09911
 C1714 C 0.09062 0.41392 0.11477
 C1715 C 0.13384 0.39870 0.11772
 C1716 C 0.14858 0.38393 0.12974
 C1717 C 0.16527 0.36548 0.14415
 C1718 C 0.16366 0.34066 0.13268
 C1719 C 0.17843 0.32219 0.14830
 C1720 C 0.19506 0.32830 0.17573
 C1721 C 0.19702 0.35347 0.18646
 C1722 C 0.18216 0.37191 0.17079
 H1723 H 0.14104 0.43351 0.06744
 H1724 H 0.10888 0.45961 0.03977
 H1725 H 0.05306 0.42680 0.10809
 H1726 H 0.08542 0.40092 0.13537
 H1727 H 0.15059 0.33548 0.11212
 H1728 H 0.17644 0.30306 0.13933
 H1729 H 0.20956 0.35885 0.20753
 H1730 H 0.18349 0.39108 0.17994
 C1731 C 0.88345 0.91635 0.39518
 C1732 C 0.90817 0.91480 0.38334
 C1733 C 0.92675 0.92947 0.39889
 C1734 C 0.92084 0.94592 0.42663
 C1735 C 0.89576 0.94785 0.43769
 C1736 C 0.87721 0.93310 0.42209
 C1737 C 0.86494 0.89966 0.38096
 C1738 C 0.85015 0.88487 0.36912
 C1739 C 0.83347 0.86635 0.35491
 C1740 C 0.83504 0.84162 0.36671
 C1741 C 0.82038 0.82303 0.35115
 C1742 C 0.80392 0.82894 0.32346
 C1743 C 0.80195 0.85403 0.31244
 C1744 C 0.81670 0.87260 0.32805
 H1745 H 0.91319 0.90184 0.36256
 H1746 H 0.94581 0.92752 0.38966
 H1747 H 0.89055 0.96026 0.45900
 H1748 H 0.85812 0.93437 0.43152
 H1749 H 0.84802 0.83660 0.38744
 H1750 H 0.82236 0.80396 0.36034
 H1751 H 0.78953 0.85925 0.29116
 H1752 H 0.81541 0.89169 0.31865
 C1753 C 0.88716 0.58895 0.60701
 C1754 C 0.91251 0.59318 0.61386
 C1755 C 0.93076 0.57856 0.59748
 C1756 C 0.92395 0.55941 0.57386
 C1757 C 0.89835 0.55514 0.56733
 C1758 C 0.88009 0.56987 0.58378
 C1759 C 0.86871 0.60492 0.62306
 C1760 C 0.85406 0.61919 0.63650
 C1761 C 0.83754 0.63729 0.65227
 C1762 C 0.83901 0.66230 0.64174
 C1763 C 0.82398 0.68037 0.65779
 C1764 C 0.80717 0.67370 0.68472
 C1765 C 0.80561 0.64841 0.69493
 C1766 C 0.82076 0.63033 0.67882
 H1767 H 0.91821 0.60795 0.63169
 H1768 H 0.95022 0.58239 0.60325
 H1769 H 0.89243 0.54057 0.54935
 H1770 H 0.86050 0.56649 0.57818
 H1771 H 0.85198 0.66792 0.62132
 H1772 H 0.82568 0.69960 0.64916
 H1773 H 0.79296 0.64264 0.71564
 H1774 H 0.81956 0.61102 0.68730
 C1775 C 0.61292 0.41028 0.10630
 C1776 C 0.62000 0.42949 0.08334
 C1777 C 0.60173 0.44425 0.06694
 C1778 C 0.57613 0.43988 0.07328
 C1779 C 0.56932 0.42058 0.09662
 C1780 C 0.58757 0.40593 0.11293
 C1781 C 0.63139 0.39433 0.12236
 C1782 C 0.64605 0.38008 0.13582
 C1783 C 0.66257 0.36201 0.15163
 C1784 C 0.66095 0.33694 0.14136
 C1785 C 0.67600 0.31891 0.15743
 C1786 C 0.69299 0.32568 0.18413
 C1787 C 0.69469 0.35102 0.19408
 C1788 C 0.67952 0.36906 0.17794
 H1789 H 0.63959 0.43296 0.07791
 H1790 H 0.60766 0.45894 0.04919
 H1791 H 0.54985 0.41667 0.10223
 H1792 H 0.58187 0.39106 0.13056
 H1793 H 0.64785 0.33125 0.12112
 H1794 H 0.67420 0.29964 0.14900
 H1795 H 0.70748 0.35687 0.21460
 H1796 H 0.68083 0.38842 0.18622
 C1797 C 0.38700 0.91051 0.39363
 C1798 C 0.41239 0.90630 0.38702
 C1799 C 0.43057 0.92102 0.40342
 C1800 C 0.42368 0.94027 0.42683
 C1801 C 0.39805 0.94452 0.43315
 C1802 C 0.37985 0.92969 0.41667
 C1803 C 0.36861 0.89447 0.37745
 C1804 C 0.35405 0.88015 0.36386
 C1805 C 0.33763 0.86200 0.34787
 C1806 C 0.33945 0.83688 0.35780
 C1807 C 0.32446 0.81882 0.34163
 C1808 C 0.30730 0.82558 0.31515
 C1809 C 0.30541 0.85097 0.30550
 C1810 C 0.32053 0.86904 0.32174
 H1811 H 0.41817 0.89147 0.36934
 H1812 H 0.45005 0.91718 0.39780
 H1813 H 0.39206 0.95916 0.45096
 H1814 H 0.36024 0.93307 0.42209
 H1815 H 0.35267 0.83118 0.37788
 H1816 H 0.32643 0.79952 0.34983
 H1817 H 0.29249 0.85683 0.28516
 H1818 H 0.31903 0.88843 0.31371
 C1819 C 0.11288 0.08955 0.89352
 C1820 C 0.08751 0.09376 0.88681
 C1821 C 0.06931 0.07906 0.90314
 C1822 C 0.07618 0.05984 0.92657
 C1823 C 0.10179 0.05559 0.93298
 C1824 C 0.12001 0.07040 0.91658
 C1825 C 0.13128 0.10557 0.87746
 C1826 C 0.14585 0.11989 0.86397
 C1827 C 0.16225 0.13806 0.84812
 C1828 C 0.17935 0.13107 0.82198
 C1829 C 0.19442 0.14919 0.80583
 C1830 C 0.19247 0.17455 0.81558
 C1831 C 0.17532 0.18126 0.84209
 C1832 C 0.16038 0.16316 0.85818
 H1833 H 0.08176 0.10858 0.86912
 H1834 H 0.04983 0.08289 0.89746
 H1835 H 0.10777 0.04097 0.95081
 H1836 H 0.13961 0.06703 0.92207
 H1837 H 0.18087 0.11170 0.81386
 H1838 H 0.20734 0.14337 0.78546
 H1839 H 0.17332 0.20055 0.85037
 H1840 H 0.14715 0.16881 0.87828
 C1841 C 0.11248 0.91260 0.09787
 C1842 C 0.11944 0.92962 0.07164
 C1843 C 0.10134 0.94476 0.05558
 C1844 C 0.07602 0.94297 0.06554
 C1845 C 0.06934 0.92591 0.09216
 C1846 C 0.08743 0.91088 0.10814
 C1847 C 0.13062 0.89610 0.11360
 C1848 C 0.14491 0.88145 0.12699
 C1849 C 0.16090 0.86297 0.14297
 C1850 C 0.15661 0.83762 0.13616
 C1851 C 0.17125 0.81935 0.15242
 C1852 C 0.19049 0.82613 0.17589
 C1853 C 0.19482 0.85173 0.18240
 C1854 C 0.18007 0.87002 0.16605
 H1855 H 0.13878 0.93101 0.06335
 H1856 H 0.10713 0.95762 0.03512
 H1857 H 0.05009 0.92402 0.10059
 H1858 H 0.08181 0.89772 0.12833
 H1859 H 0.14177 0.83194 0.11843
 H1860 H 0.16736 0.79988 0.14668
 H1861 H 0.20947 0.85763 0.20026
 H1862 H 0.18350 0.88961 0.17162
 C1863 C 0.88763 0.41287 0.40141
 C1864 C 0.91265 0.41126 0.39095
 C1865 C 0.93075 0.42626 0.40698
 C1866 C 0.92412 0.44318 0.43383
 C1867 C 0.89882 0.44488 0.44396
 C1868 C 0.88071 0.42976 0.42787
 C1869 C 0.86950 0.39637 0.38569
 C1870 C 0.85520 0.38172 0.37233
 C1871 C 0.83920 0.36323 0.35640
 C1872 C 0.84342 0.33789 0.36335
 C1873 C 0.82877 0.31960 0.34711
 C1874 C 0.80959 0.32635 0.32354
 C1875 C 0.80533 0.35194 0.31690
 C1876 C 0.82008 0.37024 0.33322
 H1877 H 0.91824 0.39820 0.37059
 H1878 H 0.94999 0.42446 0.39841
 H1879 H 0.89307 0.45762 0.46460
 H1880 H 0.86140 0.43106 0.43630
 H1881 H 0.85822 0.33224 0.38115
 H1882 H 0.83260 0.30014 0.35296
 H1883 H 0.79073 0.35782 0.29896
 H1884 H 0.81672 0.38982 0.32755
 C1885 C 0.38763 0.08785 0.59850
 C1886 C 0.41270 0.08948 0.60875
 C1887 C 0.43073 0.07437 0.59277
 C1888 C 0.42399 0.05729 0.56615
 C1889 C 0.39866 0.05558 0.55620
 C1890 C 0.38061 0.07082 0.57225
 C1891 C 0.36953 0.10440 0.61430
 C1892 C 0.35526 0.11906 0.62776
 C1893 C 0.33925 0.13752 0.64384
 C1894 C 0.34354 0.16289 0.63724
 C1895 C 0.32883 0.18113 0.65353
 C1896 C 0.30950 0.17429 0.67682
 C1897 C 0.30519 0.14867 0.68314
 C1898 C 0.32001 0.13042 0.66677
 H1899 H 0.41838 0.10264 0.62894
 H1900 H 0.44999 0.07620 0.60121
 H1901 H 0.39282 0.04272 0.53574
 H1902 H 0.36126 0.06947 0.56397
 H1903 H 0.35842 0.16863 0.61964
 H1904 H 0.33271 0.20061 0.64793
 H1905 H 0.29049 0.14272 0.70085
 H1906 H 0.31657 0.11082 0.67218
 C1907 C 0.61254 0.58724 0.90256
 C1908 C 0.58747 0.58911 0.89236
 C1909 C 0.56934 0.57409 0.90825
 C1910 C 0.57599 0.55687 0.93470
 C1911 C 0.60132 0.55493 0.94458
 C1912 C 0.61946 0.57007 0.92863
 C1913 C 0.63075 0.60370 0.88692
 C1914 C 0.64513 0.61830 0.87362
 C1915 C 0.66126 0.63671 0.85776
 C1916 C 0.68027 0.62960 0.83445
 C1917 C 0.69512 0.64783 0.81817
 C1918 C 0.69107 0.67344 0.82496
 C1919 C 0.67202 0.68028 0.84869
 C1920 C 0.65727 0.66207 0.86489
 H1921 H 0.58188 0.60238 0.87231
 H1922 H 0.55008 0.57609 0.89988
 H1923 H 0.60708 0.54196 0.96491
 H1924 H 0.63881 0.56855 0.93686
 H1925 H 0.68346 0.61001 0.82863
 H1926 H 0.70961 0.64188 0.80010
 H1927 H 0.66834 0.69975 0.85466
 H1928 H 0.64257 0.66780 0.88279
 C1929 C 0.38306 0.41699 0.89484
 C1930 C 0.40779 0.41524 0.88308
 C1931 C 0.42646 0.42979 0.89866
 C1932 C 0.42063 0.44630 0.92635
 C1933 C 0.39555 0.44844 0.93733
 C1934 C 0.37691 0.43381 0.92170
 C1935 C 0.36445 0.40041 0.88064
 C1936 C 0.34957 0.38570 0.86886
 C1937 C 0.33276 0.36725 0.85475
 C1938 C 0.33406 0.34258 0.86690
 C1939 C 0.31933 0.32402 0.85144
 C1940 C 0.30306 0.32987 0.82350
 C1941 C 0.30135 0.35490 0.81214
 C1942 C 0.31618 0.37345 0.82764
 H1943 H 0.41275 0.40222 0.86235
 H1944 H 0.44552 0.42768 0.88950
 H1945 H 0.39039 0.46091 0.95860
 H1946 H 0.35782 0.43523 0.93107
 H1947 H 0.34690 0.33759 0.88783
 H1948 H 0.32110 0.30499 0.86091
 H1949 H 0.28909 0.36007 0.79065
 H1950 H 0.31510 0.39249 0.81797
 C1951 C 0.88356 0.08329 0.10529
 C1952 C 0.90829 0.08486 0.11711
 C1953 C 0.92686 0.07022 0.10151
 C1954 C 0.92095 0.05379 0.07375
 C1955 C 0.89586 0.05184 0.06272
 C1956 C 0.87730 0.06656 0.07837
 C1957 C 0.86505 0.09997 0.11952
 C1958 C 0.85027 0.11476 0.13135
 C1959 C 0.83360 0.13329 0.14554
 C1960 C 0.83515 0.15800 0.13368
 C1961 C 0.82049 0.17660 0.14920
 C1962 C 0.80405 0.17072 0.17691
 C1963 C 0.80212 0.14564 0.18800
 C1964 C 0.81686 0.12707 0.17244
 H1965 H 0.91332 0.09782 0.13789
 H1966 H 0.94594 0.07219 0.11072
 H1967 H 0.89063 0.03944 0.04140
 H1968 H 0.85821 0.06528 0.06895
 H1969 H 0.84810 0.16301 0.11292
 H1970 H 0.82244 0.19566 0.13994
 H1971 H 0.78971 0.14045 0.20931
 H1972 H 0.81559 0.10799 0.18189
 C1973 C 0.61581 0.91576 0.60616
 C1974 C 0.62220 0.93262 0.57948
 C1975 C 0.60375 0.94747 0.56385
 C1976 C 0.57861 0.94555 0.57465
 C1977 C 0.57254 0.92898 0.60214
 C1978 C 0.59102 0.91420 0.61772
 C1979 C 0.63426 0.89902 0.62046
 C1980 C 0.64904 0.88424 0.63235
 C1981 C 0.66578 0.86576 0.64657
 C1982 C 0.66419 0.84098 0.63492
 C1983 C 0.67901 0.82247 0.65036
 C1984 C 0.69567 0.82850 0.67778
 C1985 C 0.69762 0.85363 0.68869
 C1986 C 0.68271 0.87211 0.67321
 H1987 H 0.64134 0.93390 0.57026
 H1988 H 0.60909 0.95997 0.54273
 H1989 H 0.55343 0.92702 0.61116
 H1990 H 0.58587 0.90117 0.63831
 H1991 H 0.65110 0.83585 0.61436
 H1992 H 0.67703 0.80337 0.64125
 H1993 H 0.71018 0.85894 0.70977
 H1994 H 0.68403 0.89124 0.68250
 C1995 C 0.11650 0.58363 0.39503
 C1996 C 0.09175 0.58525 0.38332
 C1997 C 0.07318 0.57060 0.39889
 C1998 C 0.07913 0.55409 0.42651
 C1999 C 0.10424 0.55210 0.43745
 C2000 C 0.12278 0.56684 0.42184
 C2001 C 0.13500 0.60028 0.38075
 C2002 C 0.14979 0.61503 0.36884
 C2003 C 0.16647 0.63349 0.35454
 C2004 C 0.18316 0.62718 0.32761
 C2005 C 0.19790 0.64569 0.31193
 C2006 C 0.19602 0.67080 0.32293
 C2007 C 0.17963 0.67678 0.35068
 C2008 C 0.16497 0.65825 0.36631
 H2009 H 0.08669 0.59824 0.36262
 H2010 H 0.05410 0.57259 0.38974
 H2011 H 0.10949 0.53965 0.45868
 H2012 H 0.14189 0.56552 0.43117
 H2013 H 0.18439 0.60807 0.31822
 H2014 H 0.21027 0.64041 0.29061
 H2015 H 0.17772 0.69587 0.35987
 H2016 H 0.15205 0.66333 0.38709
   
