data_POSCAR
  _audit_creation_date              2014-09-24
  _audit_creation_method            'ToBaCCo'
  _symmetry_space_group_name_H-M    'P1'
  _symmetry_Int_Tables_number       1
  _symmetry_cell_setting            triclinic
  loop_
  _symmetry_equiv_pos_as_xyz
 x,y,z
_cell_length_a 53.2938
_cell_length_b 53.2914
_cell_length_c 54.6860
_cell_angle_alpha 90.001100
_cell_angle_beta 89.998200
_cell_angle_gamma 89.998600
loop_
  _atom_site_label
  _atom_site_type_symbol
  _atom_site_fract_x
  _atom_site_fract_y
  _atom_site_fract_z
C1 C 0.38976 -0.00003 0.25000
 C2 C 0.11022 -0.00001 0.74998
 C3 C 0.61022 0.49999 0.25001
 C4 C 0.88976 0.49997 0.75003
 C5 C 0.24997 0.36618 1.00002
 C6 C 0.74996 0.13377 0.99999
 C7 C 0.25003 0.63377 0.50001
 C8 C 0.75001 0.86618 0.49999
 C9 C -0.00003 0.25000 0.36064
 C10 C 0.00000 0.75000 0.13936
 C11 C 0.49999 0.24997 0.63936
 C12 C 0.49999 0.74996 0.86064
 C13 C -0.25004 0.63970 1.00000
 C14 C -0.24997 0.36025 0.50000
 C15 C 0.24997 -0.13975 0.00001
 C16 C 0.25000 1.13970 0.50001
 C17 C 0.11621 0.49997 0.25002
 C18 C -0.11624 0.99999 0.24998
 C19 C 0.38377 0.49998 -0.24998
 C20 C 0.61622 -0.00003 -0.25001
 C21 C -0.00002 0.24998 0.88934
 C22 C 0.49998 0.24997 0.11066
 C23 C 0.00000 0.74999 0.61066
 C24 C 0.49999 0.74996 0.38933
 Zr25 Zr 0.01891 -0.02529 1.03438
 O26 O 0.04387 -0.01275 1.06191
 O27 O 0.01427 -0.06293 1.04380
 O28 O 0.00205 -0.02580 1.06967
 O29 O 0.06501 -0.03401 0.99015
 O30 O -0.03563 -0.00622 1.06379
 O31 O 0.05545 -0.04089 1.03034
 O32 O -0.01406 -0.07763 1.01587
 O33 O -0.01929 -0.03150 1.02727
 O34 O 0.01673 -0.04235 0.99996
 O35 O 0.00177 0.01024 1.03580
 O36 O 0.03693 -0.00049 1.00992
 Zr37 Zr -0.02222 0.01224 0.96792
 Zr38 Zr -0.03596 0.00405 1.02682
 Zr39 Zr 0.03268 -0.01715 0.97538
 Zr40 Zr -0.02117 -0.04722 0.99235
 O41 O 0.06479 0.00398 0.96565
 O42 O -0.05624 -0.05993 1.00587
 O43 O -0.00505 -0.02344 0.96606
 O44 O -0.03977 -0.01265 0.99238
 O45 O -0.02014 0.02953 1.00226
 O46 O 0.01591 0.01819 0.97525
 C47 C 0.00032 -0.08006 1.03454
 C48 C 0.07027 -0.04218 1.01166
 C49 C -0.01927 -0.01724 1.07723
 O50 O -0.06935 -0.01597 1.03440
 O51 O -0.06668 0.02433 1.01294
 O52 O -0.05775 0.02989 0.97245
 C53 C -0.07186 0.03265 0.99148
 O54 O 0.04518 0.03844 1.03801
 Zr55 Zr 0.01796 0.03403 1.00992
 O56 O -0.01843 0.05020 0.95910
 O57 O -0.04190 0.03621 1.04878
 O58 O 0.00437 0.06190 1.03425
 O59 O 0.05128 0.04929 0.99479
 O60 O 0.00727 0.06532 0.98914
 C61 C -0.00668 0.06783 0.97020
 O62 O -0.04822 -0.00013 0.94125
 O63 O 0.04009 -0.05034 0.95537
 O64 O -0.00624 0.01134 0.93231
 O65 O 0.03057 -0.00999 0.93770
 O66 O -0.00688 -0.07692 0.97061
 O67 O -0.04467 -0.05304 0.96146
 C68 C 0.01432 0.00140 0.92439
 H69 H 0.02563 -0.05863 0.99919
 H70 H -0.05762 -0.01520 0.98802
 H71 H 0.02406 0.02925 0.96307
 H72 H 0.00360 0.01789 1.05220
 H73 H -0.05730 -0.07819 1.00259
 H74 H -0.07908 -0.00573 1.04618
 H75 H -0.05842 0.03406 1.05685
 H76 H 0.01406 0.07747 1.03117
 H77 H -0.01717 -0.09200 0.97403
 H78 H 0.05659 -0.04801 0.94732
 H79 H 0.07446 -0.00633 0.95387
 H80 H 0.05158 0.06741 0.99888
 H81 H -0.05213 -0.07003 0.96229
 H82 H -0.05207 0.01448 0.93065
 H83 H 0.04778 -0.02743 1.07241
 H84 H 0.04992 0.05635 1.03935
 Zr85 Zr 0.51899 0.47474 0.53445
 O86 O 0.54395 0.48728 0.56198
 O87 O 0.51435 0.43710 0.54388
 O88 O 0.50213 0.47423 0.56975
 O89 O 0.56508 0.46602 0.49022
 O90 O 0.46446 0.49381 0.56387
 O91 O 0.55553 0.45913 0.53041
 O92 O 0.48602 0.42241 0.51595
 O93 O 0.48080 0.46853 0.52735
 O94 O 0.51681 0.45768 0.50003
 O95 O 0.50186 0.51027 0.53587
 O96 O 0.53701 0.49953 0.50999
 Zr97 Zr 0.47786 0.51227 0.46800
 Zr98 Zr 0.46412 0.50408 0.52690
 Zr99 Zr 0.53276 0.48288 0.47545
 Zr100 Zr 0.47890 0.45281 0.49243
 O101 O 0.56486 0.50400 0.46571
 O102 O 0.44384 0.44010 0.50595
 O103 O 0.49503 0.47659 0.46614
 O104 O 0.46031 0.48738 0.49245
 O105 O 0.47994 0.52956 0.50234
 O106 O 0.51599 0.51821 0.47533
 C107 C 0.50040 0.41998 0.53463
 C108 C 0.57035 0.45785 0.51173
 C109 C 0.48081 0.48279 0.57731
 O110 O 0.43073 0.48406 0.53448
 O111 O 0.43340 0.52436 0.51301
 O112 O 0.44233 0.52991 0.47252
 C113 C 0.42822 0.53268 0.49156
 O114 O 0.54526 0.53847 0.53808
 Zr115 Zr 0.51804 0.53406 0.50999
 O116 O 0.48164 0.55022 0.45917
 O117 O 0.45819 0.53625 0.54886
 O118 O 0.50446 0.56193 0.53432
 O119 O 0.55135 0.54932 0.49485
 O120 O 0.50735 0.56535 0.48921
 C121 C 0.49340 0.56786 0.47027
 O122 O 0.45185 0.49990 0.44133
 O123 O 0.54016 0.44969 0.45544
 O124 O 0.49383 0.51136 0.43239
 O125 O 0.53064 0.49003 0.43777
 O126 O 0.49320 0.42311 0.47070
 O127 O 0.45541 0.44698 0.46154
 C128 C 0.51439 0.50142 0.42446
 H129 H 0.52571 0.44139 0.49927
 H130 H 0.44246 0.48482 0.48810
 H131 H 0.52413 0.52927 0.46314
 H132 H 0.50368 0.51792 0.55227
 H133 H 0.44278 0.42184 0.50267
 H134 H 0.42100 0.49431 0.54626
 H135 H 0.44167 0.53410 0.55693
 H136 H 0.51415 0.57749 0.53124
 H137 H 0.48290 0.40802 0.47412
 H138 H 0.55666 0.45201 0.44739
 H139 H 0.57453 0.49370 0.45393
 H140 H 0.55166 0.56743 0.49894
 H141 H 0.44795 0.42999 0.46237
 H142 H 0.44800 0.51451 0.43072
 H143 H 0.54787 0.47261 0.57248
 H144 H 0.55001 0.55638 0.53942
 Zr145 Zr 0.48106 1.02522 0.53440
 O146 O 0.45609 1.01268 0.56193
 O147 O 0.48570 1.06286 0.54384
 O148 O 0.49791 1.02573 0.56969
 O149 O 0.43497 1.03396 0.49017
 O150 O 0.53558 1.00614 0.56382
 O151 O 0.44452 1.04083 0.53037
 O152 O 0.51404 1.07755 0.51591
 O153 O 0.51925 1.03143 0.52730
 O154 O 0.48324 1.04229 0.49998
 O155 O 0.49819 0.98969 0.53581
 O156 O 0.46303 1.00044 0.50994
 Zr157 Zr 0.52219 0.98770 0.46794
 Zr158 Zr 0.53592 0.99587 0.52684
 Zr159 Zr 0.46729 1.01710 0.47540
 Zr160 Zr 0.52115 1.04715 0.49238
 O161 O 0.43518 0.99597 0.46566
 O162 O 0.55621 1.05985 0.50590
 O163 O 0.50502 1.02338 0.46609
 O164 O 0.53974 1.01258 0.49240
 O165 O 0.52010 0.97040 0.50228
 O166 O 0.48406 0.98176 0.47527
 C167 C 0.49966 1.07998 0.53458
 C168 C 0.42970 1.04212 0.51169
 C169 C 0.51923 1.01716 0.57726
 O170 O 0.56931 1.01589 0.53443
 O171 O 0.56664 0.97559 0.51295
 O172 O 0.55772 0.97004 0.47246
 C173 C 0.57182 0.96727 0.49150
 O174 O 0.45478 0.96149 0.53802
 Zr175 Zr 0.48200 0.96591 0.50993
 O176 O 0.51840 0.94974 0.45911
 O177 O 0.54185 0.96370 0.54880
 O178 O 0.49558 0.93802 0.53425
 O179 O 0.44868 0.95065 0.49479
 O180 O 0.49268 0.93462 0.48914
 C181 C 0.50663 0.93211 0.47020
 O182 O 0.54820 1.00006 0.44127
 O183 O 0.45989 1.05029 0.45540
 O184 O 0.50622 0.98861 0.43233
 O185 O 0.46941 1.00995 0.43772
 O186 O 0.50686 1.07686 0.47065
 O187 O 0.54464 1.05298 0.46149
 C188 C 0.48566 0.99855 0.42441
 H189 H 0.47435 1.05857 0.49923
 H190 H 0.55759 1.01513 0.48804
 H191 H 0.47591 0.97070 0.46308
 H192 H 0.49636 0.98204 0.55221
 H193 H 0.55728 1.07811 0.50263
 H194 H 0.57904 1.00564 0.54621
 H195 H 0.55837 0.96585 0.55687
 H196 H 0.48589 0.92247 0.53117
 H197 H 0.51716 1.09194 0.47408
 H198 H 0.44339 1.04797 0.44734
 H199 H 0.42552 1.00629 0.45388
 H200 H 0.44837 0.93254 0.49888
 H201 H 0.55211 1.06997 0.46233
 H202 H 0.55204 0.98546 0.43066
 H203 H 0.45218 1.02736 0.57243
 H204 H 0.45003 0.94358 0.53936
 Zr205 Zr -0.01900 0.52520 1.03446
 O206 O -0.04397 0.51265 1.06198
 O207 O -0.01436 0.56284 1.04390
 O208 O -0.00215 0.52571 1.06975
 O209 O -0.06509 0.53393 0.99023
 O210 O 0.03553 0.50613 1.06388
 O211 O -0.05554 0.54081 1.03042
 O212 O 0.01398 0.57754 1.01597
 O213 O 0.01919 0.53141 1.02736
 O214 O -0.01682 0.54227 1.00004
 O215 O -0.00187 0.48967 1.03587
 O216 O -0.03702 0.50041 1.00999
 Zr217 Zr 0.02214 0.48768 0.96800
 Zr218 Zr 0.03587 0.49586 1.02690
 Zr219 Zr -0.03276 0.51707 0.97545
 Zr220 Zr 0.02109 0.54714 0.99245
 O221 O -0.06487 0.49595 0.96571
 O222 O 0.05615 0.55984 1.00597
 O223 O 0.00497 0.52336 0.96615
 O224 O 0.03968 0.51257 0.99246
 O225 O 0.02005 0.47038 1.00234
 O226 O -0.01599 0.48174 0.97532
 C227 C -0.00041 0.57996 1.03465
 C228 C -0.07035 0.54210 1.01174
 C229 C 0.01917 0.51715 1.07732
 O230 O 0.06926 0.51588 1.03449
 O231 O 0.06659 0.47558 1.01302
 O232 O 0.05767 0.47003 0.97252
 C233 C 0.07177 0.46726 0.99156
 O234 O -0.04528 0.46147 1.03807
 Zr235 Zr -0.01805 0.46589 1.00999
 O236 O 0.01835 0.44973 0.95917
 O237 O 0.04180 0.46369 1.04886
 O238 O -0.00447 0.43801 1.03431
 O239 O -0.05137 0.45063 0.99484
 O240 O -0.00736 0.43460 0.98920
 C241 C 0.00659 0.43209 0.97026
 O242 O 0.04815 0.50006 0.94133
 O243 O -0.04016 0.55027 0.95545
 O244 O 0.00617 0.48859 0.93239
 O245 O -0.03064 0.50993 0.93777
 O246 O 0.00680 0.57685 0.97071
 O247 O 0.04459 0.55297 0.96155
 C248 C -0.01439 0.49854 0.92447
 H249 H -0.02571 0.55855 0.99928
 H250 H 0.05753 0.51512 0.98811
 H251 H -0.02414 0.47068 0.96313
 H252 H -0.00370 0.48202 1.05227
 H253 H 0.05722 0.57810 1.00269
 H254 H 0.07898 0.50563 1.04627
 H255 H 0.05832 0.46584 1.05693
 H256 H -0.01416 0.42245 1.03123
 H257 H 0.01710 0.59193 0.97414
 H258 H -0.05666 0.54795 0.94740
 H259 H -0.07453 0.50626 0.95393
 H260 H -0.05167 0.43252 0.99893
 H261 H 0.05205 0.56996 0.96239
 H262 H 0.05200 0.48545 0.93073
 H263 H -0.04788 0.52733 1.07248
 H264 H -0.05002 0.44356 1.03941
 Zr265 Zr -0.01891 0.47473 0.46564
 O266 O -0.04388 0.48727 0.43812
 O267 O -0.01427 0.43709 0.45620
 O268 O -0.00206 0.47422 0.43035
 O269 O -0.06500 0.46599 0.50988
 O270 O 0.03561 0.49380 0.43622
 O271 O -0.05545 0.45912 0.46968
 O272 O 0.01407 0.42239 0.48413
 O273 O 0.01928 0.46851 0.47274
 O274 O -0.01672 0.45766 0.50006
 O275 O -0.00178 0.51025 0.46423
 O276 O -0.03693 0.49951 0.49011
 Zr277 Zr 0.02223 0.51224 0.53210
 Zr278 Zr 0.03596 0.50407 0.47319
 Zr279 Zr -0.03267 0.48285 0.52465
 Zr280 Zr 0.02118 0.45279 0.50765
 O281 O -0.06478 0.50397 0.53439
 O282 O 0.05625 0.44008 0.49412
 O283 O 0.00506 0.47656 0.53395
 O284 O 0.03977 0.48735 0.50763
 O285 O 0.02014 0.52954 0.49776
 O286 O -0.01590 0.51818 0.52478
 C287 C -0.00032 0.41996 0.46545
 C288 C -0.07026 0.45783 0.48837
 C289 C 0.01926 0.48278 0.42278
 O290 O 0.06935 0.48404 0.46560
 O291 O 0.06668 0.52434 0.48708
 O292 O 0.05776 0.52989 0.52757
 C293 C 0.07186 0.53266 0.50853
 O294 O -0.04519 0.53846 0.46203
 Zr295 Zr -0.01796 0.53404 0.49011
 O296 O 0.01844 0.55019 0.54093
 O297 O 0.04189 0.53623 0.45124
 O298 O -0.00439 0.56192 0.46580
 O299 O -0.05128 0.54929 0.50526
 O300 O -0.00727 0.56533 0.51090
 C301 C 0.00668 0.56783 0.52984
 O302 O 0.04824 0.49986 0.55876
 O303 O -0.04007 0.44965 0.54465
 O304 O 0.00626 0.51133 0.56771
 O305 O -0.03055 0.49000 0.56233
 O306 O 0.00690 0.42308 0.52938
 O307 O 0.04468 0.44695 0.53854
 C308 C -0.01430 0.50139 0.57563
 H309 H -0.02562 0.44137 0.50082
 H310 H 0.05762 0.48480 0.51199
 H311 H -0.02405 0.52924 0.53697
 H312 H -0.00361 0.51791 0.44783
 H313 H 0.05731 0.42182 0.49740
 H314 H 0.07907 0.49430 0.45382
 H315 H 0.05840 0.53409 0.44317
 H316 H -0.01407 0.57748 0.46888
 H317 H 0.01719 0.40799 0.52595
 H318 H -0.05657 0.45198 0.55271
 H319 H -0.07444 0.49366 0.54617
 H320 H -0.05158 0.56741 0.50117
 H321 H 0.05214 0.42996 0.53770
 H322 H 0.05209 0.51447 0.56937
 H323 H -0.04779 0.47260 0.42762
 H324 H -0.04994 0.55637 0.46070
 Zr325 Zr 0.48101 -0.02527 -0.03444
 O326 O 0.45605 -0.01273 -0.06196
 O327 O 0.48566 -0.06291 -0.04387
 O328 O 0.49787 -0.02578 -0.06973
 O329 O 0.43492 -0.03400 0.00979
 O330 O 0.53554 -0.00619 -0.06386
 O331 O 0.44448 -0.04088 -0.03040
 O332 O 0.51400 -0.07760 -0.01594
 O333 O 0.51921 -0.03147 -0.02734
 O334 O 0.48320 -0.04233 -0.00002
 O335 O 0.49814 0.01026 -0.03585
 O336 O 0.46299 -0.00048 -0.00997
 Zr337 Zr 0.52215 0.01226 0.03202
 Zr338 Zr 0.53588 0.00408 -0.02688
 Zr339 Zr 0.46725 -0.01714 0.02457
 Zr340 Zr 0.52111 -0.04720 0.00758
 O341 O 0.43514 0.00399 0.03430
 O342 O 0.55617 -0.05990 -0.00594
 O343 O 0.50498 -0.02342 0.03388
 O344 O 0.53969 -0.01263 0.00756
 O345 O 0.52006 0.02955 -0.00232
 O346 O 0.48401 0.01820 0.02469
 C347 C 0.49962 -0.08003 -0.03462
 C348 C 0.42966 -0.04217 -0.01172
 C349 C 0.51919 -0.01722 -0.07729
 O350 O 0.56927 -0.01594 -0.03447
 O351 O 0.56660 0.02436 -0.01300
 O352 O 0.55767 0.02991 0.02750
 C353 C 0.57178 0.03268 0.00846
 O354 O 0.45473 0.03846 -0.03806
 Zr355 Zr 0.48195 0.03405 -0.00998
 O356 O 0.51835 0.05022 0.04085
 O357 O 0.54181 0.03624 -0.04884
 O358 O 0.49553 0.06193 -0.03430
 O359 O 0.44864 0.04931 0.00517
 O360 O 0.49264 0.06534 0.01081
 C361 C 0.50659 0.06785 0.02975
 O362 O 0.54815 -0.00011 0.05869
 O363 O 0.45985 -0.05033 0.04457
 O364 O 0.50617 0.01135 0.06763
 O365 O 0.46936 -0.00999 0.06225
 O366 O 0.50682 -0.07690 0.02932
 O367 O 0.54460 -0.05302 0.03848
 C368 C 0.48561 0.00141 0.07555
 H369 H 0.47431 -0.05862 0.00074
 H370 H 0.55754 -0.01518 0.01192
 H371 H 0.47586 0.02926 0.03688
 H372 H 0.49631 0.01791 -0.05225
 H373 H 0.55724 -0.07816 -0.00266
 H374 H 0.57900 -0.00569 -0.04625
 H375 H 0.55833 0.03410 -0.05691
 H376 H 0.48585 0.07748 -0.03122
 H377 H 0.51711 -0.09199 0.02589
 H378 H 0.44335 -0.04801 0.05263
 H379 H 0.42547 -0.00632 0.04608
 H380 H 0.44833 0.06742 0.00108
 H381 H 0.55206 -0.07002 0.03764
 H382 H 0.55200 0.01450 0.06929
 H383 H 0.45214 -0.02741 -0.07246
 H384 H 0.44998 0.05637 -0.03940
 Zr385 Zr 0.51890 0.52523 -0.03438
 O386 O 0.54387 0.51268 -0.06191
 O387 O 0.51426 0.56287 -0.04382
 O388 O 0.50205 0.52574 -0.06967
 O389 O 0.56499 0.53396 0.00985
 O390 O 0.46437 0.50616 -0.06380
 O391 O 0.55544 0.54084 -0.03034
 O392 O 0.48593 0.57757 -0.01589
 O393 O 0.48071 0.53144 -0.02728
 O394 O 0.51672 0.54230 0.00004
 O395 O 0.50177 0.48970 -0.03579
 O396 O 0.53693 0.50044 -0.00991
 Zr397 Zr 0.47776 0.48772 0.03208
 Zr398 Zr 0.46403 0.49589 -0.02682
 Zr399 Zr 0.53266 0.51711 0.02463
 Zr400 Zr 0.47881 0.54717 0.00764
 O401 O 0.56477 0.49598 0.03436
 O402 O 0.44375 0.55988 -0.00588
 O403 O 0.49494 0.52340 0.03394
 O404 O 0.46022 0.51260 0.00762
 O405 O 0.47985 0.47042 -0.00226
 O406 O 0.51590 0.48177 0.02475
 C407 C 0.50031 0.58000 -0.03456
 C408 C 0.57026 0.54213 -0.01166
 C409 C 0.48073 0.51718 -0.07724
 O410 O 0.43064 0.51592 -0.03441
 O411 O 0.43331 0.47562 -0.01294
 O412 O 0.44223 0.47007 0.02756
 C413 C 0.42813 0.46730 0.00852
 O414 O 0.54518 0.46150 -0.03800
 Zr415 Zr 0.51795 0.46592 -0.00991
 O416 O 0.48155 0.44976 0.04091
 O417 O 0.45810 0.46372 -0.04878
 O418 O 0.50437 0.43804 -0.03423
 O419 O 0.55127 0.45066 0.00523
 O420 O 0.50727 0.43463 0.01088
 C421 C 0.49331 0.43213 0.02982
 O422 O 0.45176 0.50009 0.05875
 O423 O 0.54007 0.55030 0.04463
 O424 O 0.49373 0.48863 0.06769
 O425 O 0.53054 0.50996 0.06230
 O426 O 0.49310 0.57688 0.02937
 O427 O 0.45532 0.55300 0.03853
 C428 C 0.51429 0.49857 0.07561
 H429 H 0.52561 0.55858 0.00080
 H430 H 0.44237 0.51516 0.01198
 H431 H 0.52404 0.47071 0.03694
 H432 H 0.50360 0.48205 -0.05219
 H433 H 0.44268 0.57814 -0.00261
 H434 H 0.42092 0.50566 -0.04619
 H435 H 0.44158 0.46587 -0.05685
 H436 H 0.51406 0.42248 -0.03115
 H437 H 0.48281 0.59196 0.02594
 H438 H 0.55657 0.54798 0.05268
 H439 H 0.57444 0.50629 0.04614
 H440 H 0.55157 0.43255 0.00114
 H441 H 0.44785 0.57000 0.03769
 H442 H 0.44791 0.48548 0.06936
 H443 H 0.54778 0.52736 -0.07240
 H444 H 0.54992 0.44359 -0.03933
 Zr445 Zr 0.01896 1.02523 0.46555
 O446 O 0.04392 1.01269 0.43802
 O447 O 0.01430 1.06286 0.45612
 O448 O 0.00210 1.02574 0.43026
 O449 O 0.06505 1.03396 0.50978
 O450 O -0.03557 1.00614 0.43614
 O451 O 0.05549 1.04084 0.46959
 O452 O -0.01404 1.07755 0.48406
 O453 O -0.01924 1.03143 0.47266
 O454 O 0.01677 1.04229 0.49997
 O455 O 0.00183 0.98970 0.46413
 O456 O 0.03699 1.00044 0.49001
 Zr457 Zr -0.02217 0.98769 0.53201
 Zr458 Zr -0.03590 0.99587 0.47311
 Zr459 Zr 0.03272 1.01709 0.52455
 Zr460 Zr -0.02114 1.04715 0.50758
 O461 O 0.06484 0.99597 0.53429
 O462 O -0.05621 1.05985 0.49406
 O463 O -0.00500 1.02337 0.53387
 O464 O -0.03972 1.01257 0.50756
 O465 O -0.02008 0.97040 0.49767
 O466 O 0.01597 0.98175 0.52468
 C467 C 0.00034 1.07999 0.46538
 C468 C 0.07031 1.04213 0.48827
 C469 C -0.01922 1.01717 0.42270
 O470 O -0.06930 1.01589 0.46553
 O471 O -0.06662 0.97559 0.48700
 O472 O -0.05769 0.97003 0.52749
 C473 C -0.07180 0.96727 0.50845
 O474 O 0.04525 0.96150 0.46192
 Zr475 Zr 0.01803 0.96591 0.49001
 O476 O -0.01837 0.94973 0.54083
 O477 O -0.04183 0.96371 0.45115
 O478 O 0.00445 0.93803 0.46569
 O479 O 0.05134 0.95066 0.50515
 O480 O 0.00735 0.93461 0.51079
 C481 C -0.00661 0.93210 0.52974
 O482 O -0.04817 1.00005 0.55868
 O483 O 0.04012 1.05029 0.54456
 O484 O -0.00619 0.98860 0.56762
 O485 O 0.03061 1.00994 0.56223
 O486 O -0.00685 1.07685 0.52931
 O487 O -0.04463 1.05297 0.53847
 C488 C 0.01436 0.99854 0.57554
 H489 H 0.02566 1.05858 0.50073
 H490 H -0.05757 1.01512 0.51191
 H491 H 0.02412 0.97070 0.53687
 H492 H 0.00366 0.98204 0.44774
 H493 H -0.05728 1.07811 0.49734
 H494 H -0.07902 1.00564 0.45375
 H495 H -0.05835 0.96585 0.44308
 H496 H 0.01414 0.92247 0.46876
 H497 H -0.01715 1.09194 0.52589
 H498 H 0.05662 1.04797 0.55261
 H499 H 0.07450 1.00628 0.54607
 H500 H 0.05165 0.93254 0.50105
 H501 H -0.05209 1.06996 0.53764
 H502 H -0.05202 0.98544 0.56929
 H503 H 0.04783 1.02737 0.42752
 H504 H 0.05000 0.94359 0.46058
 Zr505 Zr 0.72471 0.26893 0.21558
 O506 O 0.73723 0.29390 0.18805
 O507 O 0.68707 0.26427 0.20616
 O508 O 0.72419 0.25207 0.18029
 O509 O 0.71598 0.31503 0.25981
 O510 O 0.74379 0.21440 0.18617
 O511 O 0.70909 0.30547 0.21962
 O512 O 0.67239 0.23594 0.23411
 O513 O 0.71851 0.23073 0.22269
 O514 O 0.70766 0.26675 0.25001
 O515 O 0.76024 0.25181 0.21416
 O516 O 0.74950 0.28697 0.24004
 Zr517 Zr 0.76227 0.22782 0.28204
 Zr518 Zr 0.75407 0.21407 0.22314
 Zr519 Zr 0.73285 0.28271 0.27458
 Zr520 Zr 0.70281 0.22884 0.25762
 O521 O 0.75397 0.31483 0.28430
 O522 O 0.69011 0.19377 0.24411
 O523 O 0.72658 0.24498 0.28390
 O524 O 0.73738 0.21026 0.25759
 O525 O 0.77955 0.22991 0.24769
 O526 O 0.76819 0.26596 0.27470
 C527 C 0.66995 0.25031 0.21543
 C528 C 0.70780 0.32029 0.23830
 C529 C 0.73276 0.23075 0.17273
 O530 O 0.73406 0.18068 0.21557
 O531 O 0.77436 0.18336 0.23703
 O532 O 0.77992 0.19230 0.27751
 C533 C 0.78269 0.17819 0.25848
 O534 O 0.78842 0.29523 0.21193
 Zr535 Zr 0.78403 0.26801 0.24003
 O536 O 0.80022 0.23163 0.29085
 O537 O 0.78623 0.20815 0.20117
 O538 O 0.81190 0.25444 0.21570
 O539 O 0.79928 0.30134 0.25516
 O540 O 0.81533 0.25734 0.26080
 C541 C 0.81785 0.24339 0.27975
 O542 O 0.74992 0.20182 0.30872
 O543 O 0.69967 0.29011 0.29459
 O544 O 0.76137 0.24381 0.31764
 O545 O 0.74002 0.28061 0.31226
 O546 O 0.67310 0.24313 0.27936
 O547 O 0.69700 0.20535 0.28852
 C548 C 0.75142 0.26436 0.32557
 H549 H 0.69137 0.27564 0.25077
 H550 H 0.73483 0.19241 0.26195
 H551 H 0.77925 0.27411 0.28688
 H552 H 0.76789 0.25364 0.19776
 H553 H 0.67185 0.19270 0.24739
 H554 H 0.74431 0.17095 0.20379
 H555 H 0.78409 0.19162 0.19311
 H556 H 0.82746 0.26413 0.21877
 H557 H 0.65802 0.23283 0.27594
 H558 H 0.70198 0.30661 0.30265
 H559 H 0.74366 0.32450 0.29608
 H560 H 0.81739 0.30165 0.25106
 H561 H 0.68001 0.19788 0.28769
 H562 H 0.76453 0.19798 0.31932
 H563 H 0.72255 0.29780 0.17755
 H564 H 0.80633 0.29999 0.21059
 Zr565 Zr 0.77526 0.73102 0.71559
 O566 O 0.76273 0.70605 0.68806
 O567 O 0.81289 0.73567 0.70616
 O568 O 0.77577 0.74788 0.68030
 O569 O 0.78399 0.68492 0.75981
 O570 O 0.75617 0.78555 0.68618
 O571 O 0.79087 0.69448 0.71962
 O572 O 0.82758 0.76400 0.73410
 O573 O 0.78145 0.76921 0.72270
 O574 O 0.79231 0.73320 0.75001
 O575 O 0.73973 0.74814 0.71417
 O576 O 0.75047 0.71298 0.74005
 Zr577 Zr 0.73771 0.77213 0.78205
 Zr578 Zr 0.74590 0.78588 0.72315
 Zr579 Zr 0.76712 0.71724 0.77459
 Zr580 Zr 0.79717 0.77110 0.75762
 O581 O 0.74600 0.68512 0.78432
 O582 O 0.80987 0.80618 0.74411
 O583 O 0.77339 0.75497 0.78391
 O584 O 0.76260 0.78969 0.75760
 O585 O 0.72042 0.77005 0.74770
 O586 O 0.73178 0.73400 0.77471
 C587 C 0.83001 0.74963 0.71542
 C588 C 0.79216 0.67966 0.73830
 C589 C 0.76720 0.76920 0.67274
 O590 O 0.76592 0.81927 0.71557
 O591 O 0.72561 0.81659 0.73704
 O592 O 0.72005 0.80766 0.77753
 C593 C 0.71729 0.82177 0.75849
 O594 O 0.71154 0.70472 0.71195
 Zr595 Zr 0.71594 0.73194 0.74004
 O596 O 0.69975 0.76833 0.79087
 O597 O 0.71374 0.79181 0.70119
 O598 O 0.68806 0.74552 0.71572
 O599 O 0.70069 0.69862 0.75518
 O600 O 0.68464 0.74262 0.76082
 C601 C 0.68213 0.75657 0.77977
 O602 O 0.75006 0.79814 0.80872
 O603 O 0.80030 0.70984 0.79460
 O604 O 0.73861 0.75615 0.81765
 O605 O 0.75996 0.71935 0.81227
 O606 O 0.82687 0.75682 0.77936
 O607 O 0.80298 0.79460 0.78852
 C608 C 0.74856 0.73559 0.82557
 H609 H 0.80860 0.72431 0.75077
 H610 H 0.76514 0.80754 0.76196
 H611 H 0.72072 0.72585 0.78690
 H612 H 0.73208 0.74631 0.69777
 H613 H 0.82813 0.80725 0.74739
 H614 H 0.75567 0.82900 0.70379
 H615 H 0.71588 0.80833 0.69312
 H616 H 0.67251 0.73583 0.71879
 H617 H 0.84195 0.76712 0.77593
 H618 H 0.79798 0.69334 0.80265
 H619 H 0.75631 0.67546 0.79610
 H620 H 0.68257 0.69831 0.75108
 H621 H 0.81997 0.80206 0.78769
 H622 H 0.73545 0.80198 0.81933
 H623 H 0.77741 0.70214 0.67756
 H624 H 0.69363 0.69997 0.71061
 Zr625 Zr 0.22473 0.23103 0.78442
 O626 O 0.23727 0.20606 0.81194
 O627 O 0.18710 0.23568 0.79385
 O628 O 0.22422 0.24789 0.81971
 O629 O 0.21600 0.18493 0.74019
 O630 O 0.24382 0.28556 0.81383
 O631 O 0.20912 0.19449 0.78038
 O632 O 0.17241 0.26402 0.76591
 O633 O 0.21853 0.26922 0.77731
 O634 O 0.20767 0.23321 0.74999
 O635 O 0.26026 0.24815 0.78583
 O636 O 0.24952 0.21299 0.75995
 Zr637 Zr 0.26227 0.27215 0.71795
 Zr638 Zr 0.25409 0.28589 0.77685
 Zr639 Zr 0.23286 0.21725 0.72541
 Zr640 Zr 0.20281 0.27112 0.74239
 O641 O 0.25398 0.18514 0.71568
 O642 O 0.19011 0.30619 0.75591
 O643 O 0.22658 0.25498 0.71610
 O644 O 0.23738 0.28970 0.74241
 O645 O 0.27956 0.27006 0.75229
 O646 O 0.26820 0.23401 0.72528
 C647 C 0.16997 0.24964 0.78459
 C648 C 0.20783 0.17967 0.76170
 C649 C 0.23279 0.26921 0.82727
 O650 O 0.23407 0.31928 0.78443
 O651 O 0.27437 0.31660 0.76297
 O652 O 0.27992 0.30768 0.72247
 C653 C 0.28269 0.32178 0.74151
 O654 O 0.28845 0.20473 0.78804
 Zr655 Zr 0.28405 0.23195 0.75995
 O656 O 0.30022 0.26835 0.70913
 O657 O 0.28625 0.29182 0.79881
 O658 O 0.31193 0.24553 0.78427
 O659 O 0.29930 0.19863 0.74481
 O660 O 0.31534 0.24263 0.73916
 C661 C 0.31785 0.25658 0.72022
 O662 O 0.24991 0.29815 0.69128
 O663 O 0.19967 0.20985 0.70541
 O664 O 0.26136 0.25617 0.68235
 O665 O 0.24002 0.21936 0.68773
 O666 O 0.17311 0.25683 0.72066
 O667 O 0.19699 0.29461 0.71149
 C668 C 0.25141 0.23561 0.67442
 H669 H 0.19139 0.22432 0.74924
 H670 H 0.23483 0.30755 0.73805
 H671 H 0.27926 0.22586 0.71310
 H672 H 0.26791 0.24632 0.80223
 H673 H 0.17185 0.30726 0.75263
 H674 H 0.24432 0.32901 0.79622
 H675 H 0.28411 0.30834 0.80688
 H676 H 0.32748 0.23584 0.78119
 H677 H 0.15802 0.26713 0.72408
 H678 H 0.20199 0.19335 0.69735
 H679 H 0.24367 0.17547 0.70390
 H680 H 0.31741 0.19832 0.74891
 H681 H 0.18000 0.30208 0.71233
 H682 H 0.26452 0.30199 0.68068
 H683 H 0.22259 0.20215 0.82244
 H684 H 0.30636 0.19998 0.78938
 Zr685 Zr 0.27527 0.76892 0.28441
 O686 O 0.26276 0.79388 0.31195
 O687 O 0.31291 0.76425 0.29382
 O688 O 0.27579 0.75205 0.31970
 O689 O 0.28399 0.81502 0.24019
 O690 O 0.25619 0.71439 0.31383
 O691 O 0.29089 0.80545 0.28037
 O692 O 0.32758 0.73592 0.26587
 O693 O 0.28146 0.73072 0.27729
 O694 O 0.29231 0.76674 0.24998
 O695 O 0.23974 0.75180 0.28585
 O696 O 0.25048 0.78696 0.25997
 Zr697 Zr 0.23769 0.72782 0.21796
 Zr698 Zr 0.24590 0.71406 0.27686
 Zr699 Zr 0.26711 0.78270 0.22542
 Zr700 Zr 0.29716 0.72883 0.24236
 O701 O 0.24599 0.81482 0.21570
 O702 O 0.30986 0.69375 0.25586
 O703 O 0.27337 0.74497 0.21609
 O704 O 0.26258 0.71025 0.24240
 O705 O 0.22042 0.72990 0.25232
 O706 O 0.23177 0.76595 0.22531
 C707 C 0.33003 0.75029 0.28455
 C708 C 0.29217 0.82027 0.26170
 C709 C 0.26723 0.73073 0.32726
 O710 O 0.26592 0.68066 0.28442
 O711 O 0.22561 0.68335 0.26297
 O712 O 0.22003 0.69229 0.22249
 C713 C 0.21727 0.67818 0.24152
 O714 O 0.21156 0.79522 0.28808
 Zr715 Zr 0.21594 0.76801 0.25999
 O716 O 0.19973 0.73163 0.20917
 O717 O 0.21375 0.70814 0.29883
 O718 O 0.18807 0.75443 0.28432
 O719 O 0.20069 0.80133 0.24486
 O720 O 0.18463 0.75734 0.23922
 C721 C 0.18211 0.74339 0.22027
 O722 O 0.25002 0.70182 0.19128
 O723 O 0.30029 0.79010 0.20540
 O724 O 0.23858 0.74380 0.18236
 O725 O 0.25994 0.78060 0.18774
 O726 O 0.32685 0.74311 0.22062
 O727 O 0.30295 0.70534 0.21146
 C728 C 0.24853 0.76436 0.17444
 H729 H 0.30860 0.77562 0.24921
 H730 H 0.26513 0.69240 0.23804
 H731 H 0.22070 0.77411 0.21313
 H732 H 0.23210 0.75363 0.30225
 H733 H 0.32811 0.69268 0.25258
 H734 H 0.25567 0.67094 0.29621
 H735 H 0.21589 0.69161 0.30689
 H736 H 0.17252 0.76413 0.28126
 H737 H 0.34194 0.73281 0.22403
 H738 H 0.29797 0.80660 0.19735
 H739 H 0.25629 0.82449 0.20392
 H740 H 0.18258 0.80165 0.24897
 H741 H 0.31994 0.69787 0.21228
 H742 H 0.23540 0.69798 0.18068
 H743 H 0.27745 0.79778 0.32244
 H744 H 0.19365 0.79998 0.28943
 Zr745 Zr 0.22475 0.76894 0.71560
 O746 O 0.23729 0.79391 0.68807
 O747 O 0.18711 0.76430 0.70616
 O748 O 0.22424 0.75209 0.68031
 O749 O 0.21601 0.81504 0.75983
 O750 O 0.24382 0.71441 0.68618
 O751 O 0.20914 0.80549 0.71963
 O752 O 0.17241 0.73597 0.73409
 O753 O 0.21854 0.73075 0.72270
 O754 O 0.20768 0.76676 0.75002
 O755 O 0.26027 0.75181 0.71418
 O756 O 0.24953 0.78697 0.74006
 Zr757 Zr 0.26226 0.72781 0.78206
 Zr758 Zr 0.25409 0.71407 0.72316
 Zr759 Zr 0.23287 0.78271 0.77460
 Zr760 Zr 0.20281 0.72886 0.75762
 O761 O 0.25399 0.81482 0.78434
 O762 O 0.19010 0.69379 0.74409
 O763 O 0.22658 0.74498 0.78391
 O764 O 0.23738 0.71026 0.75760
 O765 O 0.27956 0.72990 0.74772
 O766 O 0.26820 0.76594 0.77473
 C767 C 0.16998 0.75035 0.71542
 C768 C 0.20785 0.82030 0.73832
 C769 C 0.23280 0.73077 0.67274
 O770 O 0.23407 0.68068 0.71557
 O771 O 0.27436 0.68335 0.73704
 O772 O 0.27991 0.69228 0.77754
 C773 C 0.28268 0.67817 0.75850
 O774 O 0.28847 0.79522 0.71198
 Zr775 Zr 0.28406 0.76800 0.74007
 O776 O 0.30021 0.73160 0.79089
 O777 O 0.28625 0.70814 0.70120
 O778 O 0.31194 0.75442 0.71575
 O779 O 0.29931 0.80131 0.75521
 O780 O 0.31534 0.75731 0.76086
 C781 C 0.31785 0.74336 0.77980
 O782 O 0.24989 0.70181 0.80873
 O783 O 0.19968 0.79012 0.79460
 O784 O 0.26135 0.74378 0.81767
 O785 O 0.24002 0.78060 0.81228
 O786 O 0.17310 0.74315 0.77935
 O787 O 0.19698 0.70536 0.78851
 C788 C 0.25141 0.76434 0.82559
 H789 H 0.19139 0.77566 0.75077
 H790 H 0.23482 0.69241 0.76196
 H791 H 0.27926 0.77409 0.78692
 H792 H 0.26793 0.75364 0.69779
 H793 H 0.17185 0.69273 0.74737
 H794 H 0.24432 0.67096 0.70379
 H795 H 0.28411 0.69162 0.69313
 H796 H 0.32749 0.76410 0.71883
 H797 H 0.15802 0.73285 0.77592
 H798 H 0.20200 0.80662 0.80266
 H799 H 0.24368 0.82449 0.79612
 H800 H 0.31743 0.80162 0.75112
 H801 H 0.17999 0.69790 0.78767
 H802 H 0.26450 0.69796 0.81933
 H803 H 0.22262 0.79782 0.67757
 H804 H 0.30638 0.79997 0.71064
 Zr805 Zr 0.27522 0.23100 0.21560
 O806 O 0.26268 0.20603 0.18808
 O807 O 0.31286 0.23564 0.20616
 O808 O 0.27573 0.24785 0.18031
 O809 O 0.28396 0.18491 0.25983
 O810 O 0.25614 0.28552 0.18618
 O811 O 0.29084 0.19446 0.21964
 O812 O 0.32755 0.26398 0.23409
 O813 O 0.28143 0.26920 0.22270
 O814 O 0.29229 0.23318 0.25002
 O815 O 0.23969 0.24813 0.21419
 O816 O 0.25044 0.21297 0.24007
 Zr817 Zr 0.23771 0.27214 0.28206
 Zr818 Zr 0.24587 0.28587 0.22316
 Zr819 Zr 0.26710 0.21724 0.27461
 Zr820 Zr 0.29716 0.27109 0.25761
 O821 O 0.24598 0.18513 0.28435
 O822 O 0.30986 0.30616 0.24409
 O823 O 0.27339 0.25497 0.28391
 O824 O 0.26259 0.28968 0.25760
 O825 O 0.22041 0.27004 0.24773
 O826 O 0.23177 0.23400 0.27474
 C827 C 0.32998 0.24960 0.21541
 C828 C 0.29213 0.17964 0.23832
 C829 C 0.26716 0.26917 0.17274
 O830 O 0.26589 0.31926 0.21557
 O831 O 0.22560 0.31659 0.23704
 O832 O 0.22006 0.30767 0.27754
 C833 C 0.21729 0.32177 0.25850
 O834 O 0.21150 0.20472 0.21199
 Zr835 Zr 0.21591 0.23194 0.24007
 O836 O 0.19976 0.26835 0.29090
 O837 O 0.21371 0.29180 0.20121
 O838 O 0.18803 0.24552 0.21576
 O839 O 0.20066 0.19862 0.25522
 O840 O 0.18463 0.24263 0.26087
 C841 C 0.18212 0.25658 0.27981
 O842 O 0.25008 0.29815 0.30873
 O843 O 0.30030 0.20984 0.29460
 O844 O 0.23862 0.25617 0.31767
 O845 O 0.25996 0.21936 0.31229
 O846 O 0.32687 0.25681 0.27934
 O847 O 0.30299 0.29459 0.28850
 C848 C 0.24857 0.23561 0.32560
 H849 H 0.30858 0.22429 0.25077
 H850 H 0.26514 0.30753 0.26195
 H851 H 0.22071 0.22586 0.28693
 H852 H 0.23204 0.24629 0.19779
 H853 H 0.32812 0.30723 0.24736
 H854 H 0.25564 0.32898 0.20379
 H855 H 0.21585 0.30831 0.19313
 H856 H 0.17247 0.23583 0.21884
 H857 H 0.34195 0.26710 0.27591
 H858 H 0.29798 0.19334 0.30266
 H859 H 0.25629 0.17546 0.29613
 H860 H 0.18255 0.19832 0.25113
 H861 H 0.31998 0.30206 0.28766
 H862 H 0.23547 0.30199 0.31934
 H863 H 0.27735 0.20212 0.17758
 H864 H 0.19359 0.19997 0.21066
 Zr865 Zr 0.72476 0.73102 0.28440
 O866 O 0.73731 0.70605 0.31191
 O867 O 0.68712 0.73566 0.29385
 O868 O 0.72425 0.74787 0.31969
 O869 O 0.71601 0.68493 0.24016
 O870 O 0.74383 0.78555 0.31381
 O871 O 0.70915 0.69448 0.28036
 O872 O 0.67241 0.76400 0.26592
 O873 O 0.71854 0.76922 0.27730
 O874 O 0.70768 0.73320 0.24998
 O875 O 0.76028 0.74815 0.28580
 O876 O 0.74954 0.71300 0.25992
 Zr877 Zr 0.76225 0.77217 0.21793
 Zr878 Zr 0.75409 0.78589 0.27684
 Zr879 Zr 0.73287 0.71726 0.22539
 Zr880 Zr 0.70281 0.77111 0.24239
 O881 O 0.75399 0.68515 0.21564
 O882 O 0.69010 0.80618 0.25592
 O883 O 0.72657 0.75499 0.21608
 O884 O 0.73737 0.78971 0.24240
 O885 O 0.77956 0.77007 0.25226
 O886 O 0.76820 0.73403 0.22525
 C887 C 0.66999 0.74961 0.28460
 C888 C 0.70785 0.67967 0.26167
 C889 C 0.73282 0.76919 0.32725
 O890 O 0.73407 0.81928 0.28443
 O891 O 0.77436 0.81661 0.26295
 O892 O 0.77990 0.80770 0.22245
 C893 C 0.78267 0.82180 0.24149
 O894 O 0.78849 0.70474 0.28799
 Zr895 Zr 0.78406 0.73197 0.25991
 O896 O 0.80020 0.76838 0.20909
 O897 O 0.78626 0.79182 0.29878
 O898 O 0.81194 0.74555 0.28422
 O899 O 0.79932 0.69866 0.24475
 O900 O 0.81534 0.74267 0.23911
 C901 C 0.81784 0.75662 0.22017
 O902 O 0.74987 0.79817 0.19127
 O903 O 0.69967 0.70986 0.20539
 O904 O 0.76133 0.75620 0.18232
 O905 O 0.74001 0.71938 0.18771
 O906 O 0.67309 0.75683 0.22066
 O907 O 0.69697 0.79461 0.21150
 C908 C 0.75139 0.73563 0.17440
 H909 H 0.69140 0.72431 0.24923
 H910 H 0.73481 0.80756 0.23805
 H911 H 0.77925 0.72589 0.21305
 H912 H 0.76794 0.74632 0.30219
 H913 H 0.67184 0.80724 0.25265
 H914 H 0.74432 0.82901 0.29621
 H915 H 0.78412 0.80834 0.30686
 H916 H 0.82750 0.73586 0.28114
 H917 H 0.65801 0.76712 0.22410
 H918 H 0.70199 0.69336 0.19733
 H919 H 0.74368 0.67549 0.20386
 H920 H 0.81743 0.69835 0.24884
 H921 H 0.67997 0.80208 0.21235
 H922 H 0.76447 0.80202 0.18066
 H923 H 0.72264 0.70213 0.32242
 H924 H 0.80640 0.69999 0.28932
 Zr925 Zr 0.77524 0.26893 0.78440
 O926 O 0.76271 0.29390 0.81193
 O927 O 0.81288 0.26428 0.79383
 O928 O 0.77575 0.25207 0.81969
 O929 O 0.78398 0.31502 0.74017
 O930 O 0.75616 0.21440 0.81381
 O931 O 0.79086 0.30547 0.78036
 O932 O 0.82757 0.23595 0.76589
 O933 O 0.78145 0.23073 0.77729
 O934 O 0.79230 0.26675 0.74998
 O935 O 0.73972 0.25180 0.78581
 O936 O 0.75046 0.28696 0.75994
 Zr937 Zr 0.73771 0.22780 0.71794
 Zr938 Zr 0.74589 0.21406 0.77684
 Zr939 Zr 0.76711 0.28270 0.72539
 Zr940 Zr 0.79717 0.22884 0.74237
 O941 O 0.74599 0.31481 0.71566
 O942 O 0.80987 0.19377 0.75589
 O943 O 0.77340 0.24497 0.71608
 O944 O 0.76260 0.21025 0.74240
 O945 O 0.72042 0.22989 0.75228
 O946 O 0.73178 0.26594 0.72527
 C947 C 0.83000 0.25033 0.78457
 C948 C 0.79215 0.32028 0.76168
 C949 C 0.76719 0.23075 0.82725
 O950 O 0.76592 0.18067 0.78442
 O951 O 0.72562 0.18335 0.76295
 O952 O 0.72006 0.19227 0.72246
 C953 C 0.71730 0.17816 0.74150
 O954 O 0.71152 0.29522 0.78802
 Zr955 Zr 0.71593 0.26800 0.75994
 O956 O 0.69976 0.23160 0.70911
 O957 O 0.71373 0.20813 0.79880
 O958 O 0.68805 0.25442 0.78426
 O959 O 0.70068 0.30131 0.74479
 O960 O 0.68464 0.25731 0.73915
 C961 C 0.68213 0.24336 0.72021
 O962 O 0.75008 0.20180 0.69127
 O963 O 0.80030 0.29010 0.70539
 O964 O 0.73862 0.24378 0.68233
 O965 O 0.75996 0.28058 0.68772
 O966 O 0.82687 0.24312 0.72064
 O967 O 0.80299 0.20534 0.71148
 C968 C 0.74857 0.26434 0.67441
 H969 H 0.80859 0.27564 0.74922
 H970 H 0.76515 0.19240 0.73804
 H971 H 0.72072 0.27408 0.71308
 H972 H 0.73206 0.25363 0.80221
 H973 H 0.82813 0.19270 0.75262
 H974 H 0.75566 0.17094 0.79620
 H975 H 0.71588 0.19162 0.80687
 H976 H 0.67249 0.26411 0.78118
 H977 H 0.84196 0.23282 0.72406
 H978 H 0.79798 0.30660 0.69733
 H979 H 0.75630 0.32448 0.70388
 H980 H 0.68256 0.30162 0.74889
 H981 H 0.81998 0.19787 0.71231
 H982 H 0.73547 0.19795 0.68066
 H983 H 0.77738 0.29781 0.82242
 H984 H 0.69361 0.29997 0.78936
 C985 C 0.43024 1.00063 0.35223
 C986 C 0.43421 1.02057 0.33205
 C987 C 0.43358 0.99964 0.31275
 C988 C 0.42944 0.97970 0.33267
 C989 C 0.45885 0.99727 0.35417
 C990 C 0.45823 0.97630 0.33490
 C991 C 0.46302 1.01724 0.33428
 C992 C 0.46220 0.99627 0.31457
 C993 C 0.41864 1.00069 0.29014
 C994 C 0.40579 1.00090 0.27191
 C995 C 0.47128 0.99650 0.37820
 C996 C 0.47933 0.99677 0.39887
 H997 H 0.41714 1.00239 0.36793
 H998 H 0.42419 1.03879 0.33073
 H999 H 0.41544 0.96429 0.33186
 H1000 H 0.46824 0.95809 0.33624
 H1001 H 0.47701 1.03264 0.33511
 H1002 H 0.47521 0.99452 0.29882
 C1003 C -0.06980 0.50058 0.85228
 C1004 C -0.06585 0.52055 0.83212
 C1005 C -0.06644 0.49963 0.81280
 C1006 C -0.07056 0.47966 0.83270
 C1007 C -0.04118 0.49726 0.85423
 C1008 C -0.04176 0.47631 0.83493
 C1009 C -0.03704 0.51725 0.83435
 C1010 C -0.03783 0.49630 0.81463
 C1011 C -0.08138 0.50068 0.79019
 C1012 C -0.09422 0.50090 0.77195
 C1013 C -0.02876 0.49648 0.87826
 C1014 C -0.02072 0.49675 0.89893
 H1015 H -0.08291 0.50230 0.86797
 H1016 H -0.07590 0.53874 0.83082
 H1017 H -0.08453 0.46424 0.83186
 H1018 H -0.03172 0.45811 0.83626
 H1019 H -0.02308 0.53268 0.83521
 H1020 H -0.02480 0.49459 0.79887
 C1021 C 0.06975 -0.00064 0.85221
 C1022 C 0.06580 -0.02060 0.83205
 C1023 C 0.06640 0.00032 0.81273
 C1024 C 0.07051 0.02028 0.83264
 C1025 C 0.04113 0.00268 0.85416
 C1026 C 0.04172 0.02364 0.83486
 C1027 C 0.03699 -0.01730 0.83427
 C1028 C 0.03778 0.00365 0.81456
 C1029 C 0.08134 -0.00073 0.79013
 C1030 C 0.09419 -0.00095 0.77189
 C1031 C 0.02870 0.00346 0.87819
 C1032 C 0.02065 0.00319 0.89885
 H1033 H 0.08285 -0.00236 0.86791
 H1034 H 0.07584 -0.03880 0.83074
 H1035 H 0.08449 0.03570 0.83181
 H1036 H 0.03168 0.04184 0.83620
 H1037 H 0.02302 -0.03273 0.83513
 H1038 H 0.02476 0.00537 0.79880
 C1039 C 0.56979 0.49935 0.35227
 C1040 C 0.56582 0.47940 0.33209
 C1041 C 0.56643 0.50033 0.31279
 C1042 C 0.57057 0.52028 0.33270
 C1043 C 0.54118 0.50270 0.35422
 C1044 C 0.54178 0.52367 0.33494
 C1045 C 0.53701 0.48273 0.33433
 C1046 C 0.53782 0.50369 0.31462
 C1047 C 0.58136 0.49928 0.29017
 C1048 C 0.59420 0.49906 0.27193
 C1049 C 0.52876 0.50348 0.37825
 C1050 C 0.52072 0.50321 0.39892
 H1051 H 0.58290 0.49761 0.36796
 H1052 H 0.57585 0.46120 0.33078
 H1053 H 0.58456 0.53569 0.33187
 H1054 H 0.53176 0.54188 0.33628
 H1055 H 0.52303 0.46731 0.33518
 H1056 H 0.52479 0.50543 0.29887
 C1057 C 0.56972 0.50063 0.14778
 C1058 C 0.56576 0.52058 0.16795
 C1059 C 0.56638 0.49966 0.18726
 C1060 C 0.57051 0.47971 0.16735
 C1061 C 0.54111 0.49729 0.14585
 C1062 C 0.54172 0.47632 0.16513
 C1063 C 0.53696 0.51727 0.16574
 C1064 C 0.53777 0.49630 0.18545
 C1065 C 0.58134 0.50070 0.20987
 C1066 C 0.59419 0.50093 0.22810
 C1067 C 0.52867 0.49651 0.12182
 C1068 C 0.52063 0.49678 0.10115
 H1069 H 0.58282 0.50237 0.13208
 H1070 H 0.57580 0.53879 0.16926
 H1071 H 0.58450 0.46429 0.16817
 H1072 H 0.53169 0.45812 0.16379
 H1073 H 0.52298 0.53268 0.16489
 H1074 H 0.52476 0.49457 0.20121
 C1075 C 0.06978 1.00060 0.64773
 C1076 C 0.06582 1.02056 0.66789
 C1077 C 0.06642 0.99964 0.68721
 C1078 C 0.07055 0.97968 0.66731
 C1079 C 0.04117 0.99727 0.64578
 C1080 C 0.04176 0.97631 0.66507
 C1081 C 0.03702 1.01726 0.66566
 C1082 C 0.03781 0.99630 0.68538
 C1083 C 0.08136 1.00070 0.70982
 C1084 C 0.09420 1.00092 0.72806
 C1085 C 0.02874 0.99649 0.62175
 C1086 C 0.02070 0.99676 0.60108
 H1087 H 0.08289 1.00233 0.63203
 H1088 H 0.07586 1.03877 0.66920
 H1089 H 0.08453 0.96426 0.66814
 H1090 H 0.03173 0.95811 0.66374
 H1091 H 0.02304 1.03268 0.66481
 H1092 H 0.02479 0.99458 0.70113
 C1093 C -0.03696 0.48270 0.66576
 C1094 C -0.03778 0.50366 0.68547
 C1095 C -0.06639 0.50030 0.68728
 C1096 C -0.06576 0.47937 0.66798
 C1097 C -0.04111 0.50267 0.64587
 C1098 C -0.06973 0.49932 0.64780
 C1099 C -0.04173 0.52364 0.66515
 C1100 C -0.07052 0.52025 0.66737
 C1101 C -0.08135 0.49926 0.70988
 C1102 C -0.09420 0.49904 0.72812
 C1103 C -0.02867 0.50344 0.62184
 C1104 C -0.02063 0.50317 0.60117
 H1105 H -0.02298 0.46729 0.66492
 H1106 H -0.02477 0.50540 0.70123
 H1107 H -0.07579 0.46117 0.66929
 H1108 H -0.08282 0.49757 0.63210
 H1109 H -0.03171 0.54185 0.66381
 H1110 H -0.08452 0.53566 0.66818
 C1111 C 0.46289 -0.01737 0.16563
 C1112 C 0.46219 0.00354 0.18540
 C1113 C 0.43356 0.00031 0.18723
 C1114 C 0.43408 -0.02056 0.16786
 C1115 C 0.45882 0.00268 0.14580
 C1116 C 0.43019 -0.00054 0.14774
 C1117 C 0.45832 0.02359 0.16514
 C1118 C 0.42951 0.02034 0.16737
 C1119 C 0.41862 -0.00074 0.20984
 C1120 C 0.40578 -0.00096 0.22808
 C1121 C 0.47124 0.00346 0.12176
 C1122 C 0.47928 0.00319 0.10109
 H1123 H 0.47680 -0.03285 0.16473
 H1124 H 0.47522 0.00517 0.20115
 H1125 H 0.42396 -0.03873 0.16913
 H1126 H 0.41707 -0.00218 0.13205
 H1127 H 0.46842 0.04176 0.16384
 H1128 H 0.41559 0.03581 0.16824
 C1129 C 0.35662 0.40154 0.00860
 C1130 C 0.33388 0.40447 0.02604
 C1131 C 0.31646 0.40707 0.00372
 C1132 C 0.33888 0.40395 -0.01373
 C1133 C 0.36007 0.43020 0.00873
 C1134 C 0.34264 0.43279 -0.01359
 C1135 C 0.33766 0.43333 0.02620
 C1136 C 0.31989 0.43573 0.00385
 C1137 C 0.29232 0.39363 0.00120
 C1138 C 0.27289 0.38183 -0.00007
 C1139 C 0.38454 0.44317 0.01065
 C1140 C 0.40456 0.45401 0.01078
 H1141 H 0.37189 0.38752 0.01064
 H1142 H 0.33010 0.39269 0.04237
 H1143 H 0.33923 0.39183 -0.03023
 H1144 H 0.34641 0.44456 -0.02993
 H1145 H 0.33733 0.44546 0.04270
 H1146 H 0.30461 0.44974 0.00181
 C1147 C -0.15809 0.93407 0.48716
 C1148 C -0.16167 0.90527 0.48533
 C1149 C -0.18348 0.90705 0.50368
 C1150 C -0.18022 0.93567 0.50549
 C1151 C -0.13986 0.93016 0.50867
 C1152 C -0.16165 0.93196 0.52704
 C1153 C -0.14314 0.90154 0.50686
 C1154 C -0.16526 0.90314 0.52520
 C1155 C -0.20763 0.89362 0.50116
 C1156 C -0.22706 0.88182 0.49989
 C1157 C -0.11539 0.94313 0.51058
 C1158 C -0.09537 0.95397 0.51071
 H1159 H -0.15497 0.94692 0.47147
 H1160 H -0.16183 0.89426 0.46811
 H1161 H -0.19565 0.94965 0.50484
 H1162 H -0.16148 0.94297 0.54426
 H1163 H -0.12773 0.88754 0.50751
 H1164 H -0.16839 0.89027 0.54087
 C1165 C -0.16205 0.06724 0.97339
 C1166 C -0.18019 0.06423 0.99538
 C1167 C -0.18353 0.09288 0.99629
 C1168 C -0.16574 0.09609 0.97431
 C1169 C -0.13992 0.06976 0.99127
 C1170 C -0.14328 0.09842 0.99218
 C1171 C -0.15772 0.06656 1.01324
 C1172 C -0.16139 0.09539 1.01415
 C1173 C -0.20768 0.10632 0.99881
 C1174 C -0.22711 0.11812 1.00008
 C1175 C -0.11545 0.05679 0.98936
 C1176 C -0.09543 0.04595 0.98922
 H1177 H -0.16216 0.05561 0.95654
 H1178 H -0.19554 0.05022 0.99679
 H1179 H -0.16923 0.10838 0.95827
 H1180 H -0.12795 0.11244 0.99078
 H1181 H -0.15425 0.05429 1.02929
 H1182 H -0.16127 0.10701 1.03100
 C1183 C 0.33801 0.56720 0.47348
 C1184 C 0.31989 0.56424 0.49550
 C1185 C 0.31654 0.59289 0.49634
 C1186 C 0.33430 0.59606 0.47434
 C1187 C 0.36016 0.56978 0.49134
 C1188 C 0.35679 0.59843 0.49217
 C1189 C 0.34238 0.56663 0.51333
 C1190 C 0.33870 0.59546 0.51418
 C1191 C 0.29239 0.60633 0.49885
 C1192 C 0.27296 0.61813 0.50012
 C1193 C 0.38463 0.55681 0.48943
 C1194 C 0.40465 0.54597 0.48930
 H1195 H 0.33789 0.55554 0.45666
 H1196 H 0.30455 0.55023 0.49695
 H1197 H 0.33079 0.60830 0.45827
 H1198 H 0.37211 0.61246 0.49073
 H1199 H 0.34587 0.55440 0.52941
 H1200 H 0.33884 0.60712 0.53099
 C1201 C 0.15769 0.56660 0.48674
 C1202 C 0.16137 0.59543 0.48588
 C1203 C 0.18353 0.59288 0.50372
 C1204 C 0.18019 0.56423 0.50457
 C1205 C 0.13992 0.56976 0.50874
 C1206 C 0.16207 0.56720 0.52659
 C1207 C 0.14328 0.59842 0.50788
 C1208 C 0.16577 0.59606 0.52572
 C1209 C 0.20767 0.60632 0.50119
 C1210 C 0.22711 0.61812 0.49992
 C1211 C 0.11545 0.55679 0.51065
 C1212 C 0.09543 0.54595 0.51079
 H1213 H 0.15421 0.55436 0.47067
 H1214 H 0.16123 0.60708 0.46905
 H1215 H 0.19553 0.55022 0.50313
 H1216 H 0.16220 0.55555 0.54342
 H1217 H 0.12795 0.61244 0.50932
 H1218 H 0.16927 0.60832 0.54177
 C1219 C 0.66197 0.06724 0.02656
 C1220 C 0.68011 0.06424 0.00456
 C1221 C 0.68345 0.09289 0.00367
 C1222 C 0.66567 0.09610 0.02565
 C1223 C 0.63984 0.06978 0.00868
 C1224 C 0.64320 0.09843 0.00779
 C1225 C 0.65764 0.06659 -0.01330
 C1226 C 0.66131 0.09542 -0.01419
 C1227 C 0.70760 0.10633 0.00115
 C1228 C 0.72704 0.11813 -0.00011
 C1229 C 0.61537 0.05681 0.01059
 C1230 C 0.59535 0.04597 0.01072
 H1231 H 0.66208 0.05561 0.04340
 H1232 H 0.69546 0.05023 0.00315
 H1233 H 0.66916 0.10838 0.04169
 H1234 H 0.62787 0.11246 0.00920
 H1235 H 0.65416 0.05432 -0.02935
 H1236 H 0.66119 0.10705 -0.03103
 C1237 C 0.66209 0.93286 0.47350
 C1238 C 0.68014 0.93571 0.49559
 C1239 C 0.68350 0.90706 0.49629
 C1240 C 0.66581 0.90400 0.47423
 C1241 C 0.63988 0.93017 0.49128
 C1242 C 0.64327 0.90151 0.49199
 C1243 C 0.65759 0.93322 0.51334
 C1244 C 0.66129 0.90439 0.51406
 C1245 C 0.70765 0.89363 0.49882
 C1246 C 0.72708 0.88182 0.50009
 C1247 C 0.61541 0.94314 0.48937
 C1248 C 0.59539 0.95398 0.48924
 H1249 H 0.66225 0.94461 0.45674
 H1250 H 0.69547 0.94972 0.49715
 H1251 H 0.66937 0.89184 0.45811
 H1252 H 0.62796 0.88749 0.49043
 H1253 H 0.65405 0.94537 0.52947
 H1254 H 0.66111 0.89264 0.53081
 C1255 C 0.16202 0.43281 0.97353
 C1256 C 0.18009 0.43570 0.99559
 C1257 C 0.18345 0.40705 0.99634
 C1258 C 0.16573 0.40395 0.97430
 C1259 C 0.13983 0.43016 0.99134
 C1260 C 0.14322 0.40151 0.99209
 C1261 C 0.15757 0.43325 1.01337
 C1262 C 0.16126 0.40442 1.01413
 C1263 C 0.20760 0.39362 0.99886
 C1264 C 0.22704 0.38182 1.00012
 C1265 C 0.11536 0.44313 0.98943
 C1266 C 0.09534 0.45397 0.98930
 H1267 H 0.16217 0.44453 0.95675
 H1268 H 0.19543 0.44971 0.99711
 H1269 H 0.16928 0.39176 0.95820
 H1270 H 0.12790 0.38748 0.99057
 H1271 H 0.15404 0.44542 1.02948
 H1272 H 0.16110 0.39270 1.03091
 C1273 C -0.00107 0.35288 0.40176
 C1274 C 0.01841 0.33148 0.40351
 C1275 C -0.00320 0.31250 0.40361
 C1276 C -0.02270 0.33353 0.40162
 C1277 C -0.00235 0.35345 0.42977
 C1278 C -0.02400 0.33450 0.42990
 C1279 C 0.01715 0.33242 0.43175
 C1280 C -0.00448 0.31300 0.43161
 C1281 C -0.00299 0.29018 0.38866
 C1282 C -0.00204 0.27195 0.37601
 C1283 C -0.00161 0.37661 0.44345
 C1284 C -0.00094 0.39623 0.45392
 H1285 H 0.00036 0.36963 0.38977
 H1286 H 0.03578 0.32985 0.39240
 H1287 H -0.03902 0.33357 0.38901
 H1288 H -0.04135 0.33617 0.44102
 H1289 H 0.03348 0.33238 0.44435
 H1290 H -0.00590 0.29621 0.44354
 C1291 C 0.49848 -0.14711 -0.09832
 C1292 C 0.51821 -0.16831 -0.09684
 C1293 C 0.49680 -0.18751 -0.09643
 C1294 C 0.47706 -0.16668 -0.09814
 C1295 C 0.49762 -0.14655 -0.07029
 C1296 C 0.47617 -0.16573 -0.06985
 C1297 C 0.51737 -0.16738 -0.06859
 C1298 C 0.49594 -0.18702 -0.06841
 C1299 C 0.49702 -0.20984 -0.11137
 C1300 C 0.49798 -0.22808 -0.12401
 C1301 C 0.49834 -0.12339 -0.05661
 C1302 C 0.49900 -0.10376 -0.04615
 H1303 H 0.49956 -0.13035 -0.11033
 H1304 H 0.53542 -0.16976 -0.10820
 H1305 H 0.46055 -0.16682 -0.11053
 H1306 H 0.45898 -0.16423 -0.05849
 H1307 H 0.53388 -0.16725 -0.05622
 H1308 H 0.49486 -0.20382 -0.05646
 C1309 C -0.01710 -0.16765 1.06816
 C1310 C 0.00457 -0.18702 1.06836
 C1311 C 0.00320 -0.18753 1.09637
 C1312 C -0.01845 -0.16858 1.09640
 C1313 C 0.00236 -0.14658 1.07021
 C1314 C 0.00099 -0.14715 1.09821
 C1315 C 0.02404 -0.16549 1.07013
 C1316 C 0.02266 -0.16646 1.09841
 C1317 C 0.00298 -0.20984 1.11132
 C1318 C 0.00202 -0.22806 1.12397
 C1319 C 0.00162 -0.12342 1.05652
 C1320 C 0.00095 -0.10379 1.04607
 H1321 H -0.03339 -0.16772 1.05551
 H1322 H 0.00606 -0.20381 1.05644
 H1323 H -0.03584 -0.17025 1.10746
 H1324 H -0.00051 -0.13040 1.11020
 H1325 H 0.04142 -0.16379 1.05907
 H1326 H 0.03894 -0.16640 1.11107
 C1327 C 0.48286 0.33245 0.56831
 C1328 C 0.50447 0.31300 0.56843
 C1329 C 0.50321 0.31249 0.59643
 C1330 C 0.48161 0.33151 0.59655
 C1331 C 0.50240 0.35346 0.57030
 C1332 C 0.50113 0.35287 0.59831
 C1333 C 0.52402 0.33447 0.57014
 C1334 C 0.52273 0.33350 0.59842
 C1335 C 0.50297 0.29017 0.61136
 C1336 C 0.50201 0.27193 0.62400
 C1337 C 0.50168 0.37662 0.55662
 C1338 C 0.50102 0.39625 0.54616
 H1339 H 0.46653 0.33244 0.55572
 H1340 H 0.50587 0.29622 0.55649
 H1341 H 0.46426 0.32989 0.60767
 H1342 H 0.49973 0.36962 0.61030
 H1343 H 0.54136 0.33612 0.55902
 H1344 H 0.53906 0.33350 0.61103
 C1345 C 0.47608 1.16554 0.57001
 C1346 C 0.47722 1.16651 0.59829
 C1347 C 0.49681 1.18746 0.59641
 C1348 C 0.49569 1.18696 0.56839
 C1349 C 0.49764 1.14650 0.57026
 C1350 C 0.51724 1.16746 0.56838
 C1351 C 0.49877 1.14707 0.59827
 C1352 C 0.51835 1.16839 0.59662
 C1353 C 0.49703 1.20978 0.61135
 C1354 C 0.49799 1.22801 0.62399
 C1355 C 0.49838 1.12334 0.55658
 C1356 C 0.49904 1.10371 0.54612
 H1357 H 0.45878 1.16394 0.55880
 H1358 H 0.46082 1.16654 0.61082
 H1359 H 0.49440 1.20375 0.55645
 H1360 H 0.53364 1.16743 0.55586
 H1361 H 0.50007 1.13031 0.61027
 H1362 H 0.53566 1.16995 0.60782
 C1363 C -0.02376 0.66575 1.06976
 C1364 C -0.02305 0.66670 1.09806
 C1365 C -0.00320 0.68745 1.09646
 C1366 C -0.00390 0.68695 1.06844
 C1367 C -0.00240 0.64648 1.07033
 C1368 C 0.01744 0.66723 1.06873
 C1369 C -0.00171 0.64704 1.09836
 C1370 C 0.01812 0.66815 1.09699
 C1371 C -0.00297 0.70978 1.11139
 C1372 C -0.00201 0.72802 1.12402
 C1373 C -0.00168 0.62332 1.05665
 C1374 C -0.00102 0.60369 1.04618
 H1375 H -0.04090 0.66433 1.05830
 H1376 H -0.03963 0.66691 1.11035
 H1377 H -0.00483 0.70376 1.05648
 H1378 H 0.03403 0.66702 1.05646
 H1379 H -0.00077 0.63027 1.11037
 H1380 H 0.03527 0.66953 1.10845
 C1381 C 0.48252 0.66728 -0.06865
 C1382 C 0.50389 0.68698 -0.06837
 C1383 C 0.50317 0.68746 -0.09640
 C1384 C 0.48182 0.66819 -0.09691
 C1385 C 0.50233 0.64651 -0.07024
 C1386 C 0.50162 0.64705 -0.09827
 C1387 C 0.52372 0.66575 -0.06970
 C1388 C 0.52299 0.66669 -0.09800
 C1389 C 0.50296 0.70978 -0.11134
 C1390 C 0.50200 0.72801 -0.12399
 C1391 C 0.50160 0.62335 -0.05656
 C1392 C 0.50093 0.60372 -0.04610
 H1393 H 0.46594 0.66711 -0.05636
 H1394 H 0.50485 0.70379 -0.05643
 H1395 H 0.46466 0.66959 -0.10835
 H1396 H 0.50065 0.63028 -0.11028
 H1397 H 0.54086 0.66431 -0.05825
 H1398 H 0.53956 0.66687 -0.11030
 C1399 C -0.01720 1.16752 0.43170
 C1400 C 0.00441 1.18696 0.43158
 C1401 C 0.00314 1.18747 0.40357
 C1402 C -0.01846 1.16846 0.40345
 C1403 C 0.00232 1.14650 0.42971
 C1404 C 0.00105 1.14709 0.40170
 C1405 C 0.02395 1.16548 0.42986
 C1406 C 0.02266 1.16646 0.40158
 C1407 C 0.00292 1.20979 0.38864
 C1408 C 0.00196 1.22803 0.37600
 C1409 C 0.00160 1.12334 0.44338
 C1410 C 0.00095 1.10371 0.45385
 H1411 H -0.03354 1.16754 0.44429
 H1412 H 0.00582 1.20374 0.44351
 H1413 H -0.03582 1.17008 0.39234
 H1414 H -0.00036 1.13034 0.38970
 H1415 H 0.04130 1.16383 0.44097
 H1416 H 0.03899 1.16645 0.38896
 C1417 C 0.75057 0.68015 0.89775
 C1418 C 0.77054 0.68410 0.91791
 C1419 C 0.74963 0.68351 0.93723
 C1420 C 0.72966 0.67940 0.91733
 C1421 C 0.74727 0.70878 0.89581
 C1422 C 0.72631 0.70820 0.91511
 C1423 C 0.76726 0.71291 0.91568
 C1424 C 0.74631 0.71213 0.93541
 C1425 C 0.75068 0.66856 0.95984
 C1426 C 0.75090 0.65572 0.97808
 C1427 C 0.74649 0.72121 0.87178
 C1428 C 0.74677 0.72926 0.85111
 H1429 H 0.75229 0.66705 0.88205
 H1430 H 0.78874 0.67404 0.91921
 H1431 H 0.71423 0.66543 0.91817
 H1432 H 0.70812 0.71824 0.91378
 H1433 H 0.78269 0.72687 0.91483
 H1434 H 0.74461 0.72515 0.95117
 C1435 C 0.26710 0.21315 0.41584
 C1436 C 0.24602 0.21211 0.43543
 C1437 C 0.24967 0.18353 0.43725
 C1438 C 0.27071 0.18438 0.41807
 C1439 C 0.24730 0.20880 0.39583
 C1440 C 0.25093 0.18022 0.39777
 C1441 C 0.22622 0.20796 0.41499
 C1442 C 0.22989 0.17920 0.41722
 C1443 C 0.25072 0.16858 0.45986
 C1444 C 0.25094 0.15573 0.47809
 C1445 C 0.24652 0.22123 0.37180
 C1446 C 0.24679 0.22928 0.35113
 H1447 H 0.28237 0.22730 0.41510
 H1448 H 0.24405 0.22509 0.45118
 H1449 H 0.28901 0.17454 0.41949
 H1450 H 0.25291 0.16715 0.38208
 H1451 H 0.20792 0.21779 0.41355
 H1452 H 0.21462 0.16505 0.41794
 C1453 C 0.75976 0.28037 0.42091
 C1454 C 0.77446 0.30482 0.42665
 C1455 C 0.75037 0.31645 0.43723
 C1456 C 0.73565 0.29224 0.43191
 C1457 C 0.75272 0.29120 0.39579
 C1458 C 0.72864 0.30284 0.40641
 C1459 C 0.76740 0.31542 0.40120
 C1460 C 0.74334 0.32719 0.41208
 C1461 C 0.74932 0.33139 0.45984
 C1462 C 0.74910 0.34423 0.47808
 C1463 C 0.75349 0.27876 0.37177
 C1464 C 0.75321 0.27070 0.35110
 H1465 H 0.76655 0.26099 0.42434
 H1466 H 0.79333 0.30581 0.43519
 H1467 H 0.72251 0.28287 0.44475
 H1468 H 0.70976 0.30190 0.39788
 H1469 H 0.78054 0.32485 0.38840
 H1470 H 0.73655 0.34656 0.40859
 C1471 C 0.24933 0.81977 0.89777
 C1472 C 0.22938 0.81580 0.91795
 C1473 C 0.25031 0.81642 0.93725
 C1474 C 0.27025 0.82056 0.91734
 C1475 C 0.25268 0.79115 0.89583
 C1476 C 0.27365 0.79177 0.91511
 C1477 C 0.23271 0.78699 0.91572
 C1478 C 0.25368 0.78781 0.93543
 C1479 C 0.24926 0.83137 0.95986
 C1480 C 0.24904 0.84422 0.97810
 C1481 C 0.25346 0.77872 0.87180
 C1482 C 0.25319 0.77068 0.85113
 H1483 H 0.24758 0.83287 0.88208
 H1484 H 0.21117 0.82582 0.91926
 H1485 H 0.28566 0.83455 0.91815
 H1486 H 0.29186 0.78175 0.91376
 H1487 H 0.21730 0.77301 0.91488
 H1488 H 0.25542 0.77479 0.95118
 C1489 C 0.22590 0.79259 0.08536
 C1490 C 0.23028 0.82124 0.08311
 C1491 C 0.24962 0.81644 0.06278
 C1492 C 0.24527 0.78796 0.06463
 C1493 C 0.24725 0.79117 0.10420
 C1494 C 0.26662 0.78634 0.08389
 C1495 C 0.25159 0.81965 0.10223
 C1496 C 0.27093 0.81501 0.08164
 C1497 C 0.25068 0.83138 0.04017
 C1498 C 0.25090 0.84422 0.02193
 C1499 C 0.24647 0.77874 0.12823
 C1500 C 0.24674 0.77069 0.14890
 H1501 H 0.20738 0.78323 0.08706
 H1502 H 0.21537 0.83579 0.08263
 H1503 H 0.24272 0.77505 0.04889
 H1504 H 0.28153 0.77180 0.08440
 H1505 H 0.25415 0.83265 0.11791
 H1506 H 0.28946 0.82438 0.07996
 C1507 C 0.72607 0.29231 0.58519
 C1508 C 0.73013 0.32101 0.58295
 C1509 C 0.74967 0.31642 0.56275
 C1510 C 0.74564 0.28789 0.56459
 C1511 C 0.74730 0.29115 0.60417
 C1512 C 0.76686 0.28653 0.58400
 C1513 C 0.75132 0.31968 0.60222
 C1514 C 0.77086 0.31525 0.58176
 C1515 C 0.75073 0.33136 0.54015
 C1516 C 0.75096 0.34422 0.52191
 C1517 C 0.74651 0.27871 0.62820
 C1518 C 0.74678 0.27067 0.64887
 H1519 H 0.70764 0.28274 0.58677
 H1520 H 0.71506 0.33538 0.58236
 H1521 H 0.74335 0.27495 0.54884
 H1522 H 0.78194 0.27216 0.58461
 H1523 H 0.75362 0.33270 0.61791
 H1524 H 0.78929 0.32483 0.58021
 C1525 C 0.24935 0.18017 0.60225
 C1526 C 0.22941 0.18414 0.58208
 C1527 C 0.25033 0.18352 0.56277
 C1528 C 0.27028 0.17939 0.58268
 C1529 C 0.25270 0.20879 0.60419
 C1530 C 0.27366 0.20818 0.58491
 C1531 C 0.23272 0.21294 0.58430
 C1532 C 0.25369 0.21213 0.56459
 C1533 C 0.24929 0.16857 0.54016
 C1534 C 0.24907 0.15572 0.52192
 C1535 C 0.25347 0.22123 0.62822
 C1536 C 0.25320 0.22927 0.64889
 H1537 H 0.24761 0.16707 0.61795
 H1538 H 0.21120 0.17410 0.58077
 H1539 H 0.28569 0.16540 0.58186
 H1540 H 0.29187 0.21821 0.58625
 H1541 H 0.21731 0.22692 0.58514
 H1542 H 0.25542 0.22515 0.54883
 C1543 C 0.74959 0.68017 0.10223
 C1544 C 0.72948 0.68394 0.08218
 C1545 C 0.75030 0.68354 0.06274
 C1546 C 0.77041 0.67960 0.08254
 C1547 C 0.75266 0.70882 0.10416
 C1548 C 0.77352 0.70842 0.08476
 C1549 C 0.73253 0.71278 0.08439
 C1550 C 0.75338 0.71218 0.06456
 C1551 C 0.74925 0.66859 0.04014
 C1552 C 0.74903 0.65573 0.02191
 C1553 C 0.75344 0.72125 0.12819
 C1554 C 0.75317 0.72930 0.14886
 H1555 H 0.74808 0.66705 0.11793
 H1556 H 0.71137 0.67373 0.08097
 H1557 H 0.78595 0.66576 0.08162
 H1558 H 0.79163 0.71862 0.08600
 H1559 H 0.71698 0.72661 0.08533
 H1560 H 0.75489 0.72522 0.04880
 C1561 C 0.18346 0.59227 0.26323
 C1562 C 0.15463 0.58860 0.26424
 C1563 C 0.15708 0.56649 0.24632
 C1564 C 0.18573 0.56983 0.24533
 C1565 C 0.18018 0.61011 0.24131
 C1566 C 0.18264 0.58801 0.22337
 C1567 C 0.15153 0.60675 0.24230
 C1568 C 0.15379 0.58432 0.22439
 C1569 C 0.14365 0.54234 0.24885
 C1570 C 0.13185 0.52290 0.25011
 C1571 C 0.19314 0.63459 0.23940
 C1572 C 0.20398 0.65461 0.23926
 H1573 H 0.19579 0.59571 0.27925
 H1574 H 0.14307 0.58869 0.28112
 H1575 H 0.19974 0.55448 0.24665
 H1576 H 0.19420 0.58794 0.20649
 H1577 H 0.13750 0.62209 0.24098
 H1578 H 0.14144 0.58086 0.20839
 C1579 C 0.68335 0.09233 0.76328
 C1580 C 0.65453 0.08865 0.76413
 C1581 C 0.65709 0.06648 0.74629
 C1582 C 0.68574 0.06983 0.74546
 C1583 C 0.68020 0.11010 0.74129
 C1584 C 0.68278 0.08795 0.72343
 C1585 C 0.65155 0.10673 0.74212
 C1586 C 0.65392 0.08424 0.72429
 C1587 C 0.64366 0.04234 0.74882
 C1588 C 0.63186 0.02290 0.75009
 C1589 C 0.69317 0.13457 0.73937
 C1590 C 0.70400 0.15459 0.73924
 H1591 H 0.69558 0.09583 0.77936
 H1592 H 0.64286 0.08879 0.78095
 H1593 H 0.69975 0.05449 0.74691
 H1594 H 0.69444 0.08782 0.70662
 H1595 H 0.63752 0.12206 0.74067
 H1596 H 0.64168 0.08073 0.70823
 C1597 C 0.84843 0.10680 0.25737
 C1598 C 0.84644 0.08449 0.27546
 C1599 C 0.84290 0.06650 0.25368
 C1600 C 0.84508 0.08849 0.23560
 C1601 C 0.81979 0.11012 0.25869
 C1602 C 0.81626 0.09213 0.23692
 C1603 C 0.81759 0.08814 0.27680
 C1604 C 0.81426 0.06981 0.25500
 C1605 C 0.85633 0.04235 0.25116
 C1606 C 0.86812 0.02292 0.24989
 C1607 C 0.80682 0.13460 0.26061
 C1608 C 0.79599 0.15462 0.26074
 H1609 H 0.86245 0.12217 0.25843
 H1610 H 0.85899 0.08116 0.29133
 H1611 H 0.85642 0.08849 0.21857
 H1612 H 0.80372 0.09544 0.22104
 H1613 H 0.80625 0.08816 0.29382
 H1614 H 0.80026 0.05442 0.25394
 C1615 C 0.31661 0.59232 0.73673
 C1616 C 0.34543 0.58865 0.73586
 C1617 C 0.34289 0.56649 0.75371
 C1618 C 0.31424 0.56983 0.75457
 C1619 C 0.31978 0.61011 0.75872
 C1620 C 0.31722 0.58796 0.77658
 C1621 C 0.34843 0.60674 0.75785
 C1622 C 0.34607 0.58426 0.77570
 C1623 C 0.35632 0.54234 0.75118
 C1624 C 0.36813 0.52290 0.74992
 C1625 C 0.30681 0.63458 0.76063
 C1626 C 0.29597 0.65460 0.76076
 H1627 H 0.30436 0.59581 0.72066
 H1628 H 0.35708 0.58878 0.71903
 H1629 H 0.30023 0.55449 0.75314
 H1630 H 0.30557 0.58784 0.79341
 H1631 H 0.36246 0.62207 0.75928
 H1632 H 0.35834 0.58076 0.79175
 C1633 C 0.31722 0.41200 0.72344
 C1634 C 0.31425 0.43012 0.74546
 C1635 C 0.34290 0.43346 0.74631
 C1636 C 0.34608 0.41570 0.72431
 C1637 C 0.31979 0.38984 0.74130
 C1638 C 0.34844 0.39322 0.74215
 C1639 C 0.31662 0.40762 0.76329
 C1640 C 0.34545 0.41130 0.76415
 C1641 C 0.35633 0.45761 0.74884
 C1642 C 0.36813 0.47705 0.75011
 C1643 C 0.30682 0.36537 0.73938
 C1644 C 0.29598 0.34535 0.73925
 H1645 H 0.30557 0.41212 0.70661
 H1646 H 0.30024 0.44546 0.74690
 H1647 H 0.35833 0.41921 0.70826
 H1648 H 0.36247 0.37789 0.74071
 H1649 H 0.30438 0.40413 0.77936
 H1650 H 0.35710 0.41117 0.78097
 C1651 C 0.84842 0.89323 0.24215
 C1652 C 0.84607 0.91571 0.22430
 C1653 C 0.84288 0.93348 0.24629
 C1654 C 0.84541 0.91132 0.26414
 C1655 C 0.81976 0.88986 0.24128
 C1656 C 0.81659 0.90765 0.26326
 C1657 C 0.81721 0.91201 0.22341
 C1658 C 0.81423 0.93014 0.24542
 C1659 C 0.85631 0.95763 0.24881
 C1660 C 0.86812 0.97706 0.25008
 C1661 C 0.80680 0.86539 0.23936
 C1662 C 0.79596 0.84537 0.23923
 H1663 H 0.86244 0.87790 0.24072
 H1664 H 0.85834 0.91921 0.20825
 H1665 H 0.85706 0.91119 0.28097
 H1666 H 0.80433 0.90417 0.27932
 H1667 H 0.80557 0.91213 0.20658
 H1668 H 0.80022 0.94548 0.24684
 C1669 C 0.65154 0.89321 0.75780
 C1670 C 0.65387 0.91567 0.77567
 C1671 C 0.65709 0.93346 0.75369
 C1672 C 0.65458 0.91131 0.73582
 C1673 C 0.68020 0.88984 0.75870
 C1674 C 0.68340 0.90764 0.73674
 C1675 C 0.68272 0.91197 0.77659
 C1676 C 0.68574 0.93011 0.75460
 C1677 C 0.64366 0.95761 0.75117
 C1678 C 0.63186 0.97704 0.74990
 C1679 C 0.69316 0.86536 0.76062
 C1680 C 0.70400 0.84534 0.76075
 H1681 H 0.63752 0.87787 0.75920
 H1682 H 0.64158 0.91916 0.79170
 H1683 H 0.64296 0.91119 0.71898
 H1684 H 0.69567 0.90416 0.72069
 H1685 H 0.69434 0.91207 0.79344
 H1686 H 0.69975 0.94546 0.75319
 C1687 C 0.18264 0.40719 0.23632
 C1688 C 0.15382 0.41098 0.23636
 C1689 C 0.15708 0.43346 0.25371
 C1690 C 0.18573 0.43000 0.25366
 C1691 C 0.18019 0.38984 0.25872
 C1692 C 0.18347 0.41231 0.27609
 C1693 C 0.15154 0.39332 0.25877
 C1694 C 0.15462 0.41612 0.27611
 C1695 C 0.14365 0.45761 0.25119
 C1696 C 0.13185 0.47705 0.24992
 C1697 C 0.19316 0.36537 0.26063
 C1698 C 0.20399 0.34534 0.26076
 H1699 H 0.19429 0.40335 0.21992
 H1700 H 0.14158 0.41058 0.21995
 H1701 H 0.19974 0.44525 0.25148
 H1702 H 0.19572 0.41269 0.29250
 H1703 H 0.13751 0.37808 0.26095
 H1704 H 0.14295 0.41998 0.29251
 C1705 C 0.08443 0.22604 0.82002
 C1706 C 0.08346 0.22721 0.84831
 C1707 C 0.06250 0.24679 0.84640
 C1708 C 0.06300 0.24564 0.81839
 C1709 C 0.10346 0.24763 0.82026
 C1710 C 0.08249 0.26721 0.81836
 C1711 C 0.10288 0.24877 0.84827
 C1712 C 0.08155 0.26834 0.84661
 C1713 C 0.04018 0.24701 0.86134
 C1714 C 0.02194 0.24797 0.87398
 C1715 C 0.12662 0.24836 0.80658
 C1716 C 0.14625 0.24902 0.79612
 H1717 H 0.08604 0.20874 0.80883
 H1718 H 0.08344 0.21083 0.86085
 H1719 H 0.04621 0.24433 0.80645
 H1720 H 0.08251 0.28360 0.80583
 H1721 H 0.11964 0.25009 0.86027
 H1722 H 0.07998 0.28566 0.85779
 C1723 C 0.58448 0.72599 0.32007
 C1724 C 0.58350 0.72720 0.34836
 C1725 C 0.56252 0.74676 0.34642
 C1726 C 0.56303 0.74556 0.31841
 C1727 C 0.60348 0.74759 0.32028
 C1728 C 0.58250 0.76715 0.31834
 C1729 C 0.60290 0.74878 0.34829
 C1730 C 0.58156 0.76833 0.34659
 C1731 C 0.54019 0.74698 0.36135
 C1732 C 0.52195 0.74794 0.37398
 C1733 C 0.62664 0.74832 0.30660
 C1734 C 0.64627 0.74899 0.29614
 H1735 H 0.58611 0.70867 0.30891
 H1736 H 0.58349 0.71084 0.36092
 H1737 H 0.54624 0.74421 0.30647
 H1738 H 0.58250 0.78352 0.30579
 H1739 H 0.61965 0.75014 0.36029
 H1740 H 0.57996 0.78566 0.35775
 C1741 C 0.58438 0.27388 0.18003
 C1742 C 0.58342 0.27275 0.15174
 C1743 C 0.56248 0.25315 0.15362
 C1744 C 0.56297 0.25426 0.18163
 C1745 C 0.60343 0.25231 0.17977
 C1746 C 0.58248 0.23271 0.18164
 C1747 C 0.60287 0.25121 0.15175
 C1748 C 0.58156 0.23162 0.15339
 C1749 C 0.54016 0.25293 0.13868
 C1750 C 0.52193 0.25198 0.12603
 C1751 C 0.62659 0.25159 0.19345
 C1752 C 0.64622 0.25093 0.20391
 H1753 H 0.58598 0.29117 0.19125
 H1754 H 0.58338 0.28915 0.13923
 H1755 H 0.54618 0.25554 0.19357
 H1756 H 0.58251 0.21630 0.19414
 H1757 H 0.61962 0.24992 0.13975
 H1758 H 0.58000 0.21431 0.14218
 C1759 C 0.08436 0.77388 0.68010
 C1760 C 0.08340 0.77288 0.65181
 C1761 C 0.06251 0.75321 0.65361
 C1762 C 0.06301 0.75420 0.68162
 C1763 C 0.10347 0.75238 0.67975
 C1764 C 0.08258 0.73270 0.68154
 C1765 C 0.10290 0.75139 0.65173
 C1766 C 0.08165 0.73173 0.65329
 C1767 C 0.04019 0.75298 0.63867
 C1768 C 0.02196 0.75202 0.62603
 C1769 C 0.12663 0.75164 0.69343
 C1770 C 0.14626 0.75098 0.70389
 H1771 H 0.08591 0.79113 0.69139
 H1772 H 0.08331 0.78933 0.63936
 H1773 H 0.04621 0.75538 0.69357
 H1774 H 0.08266 0.71624 0.69398
 H1775 H 0.11966 0.75020 0.63972
 H1776 H 0.08014 0.71447 0.64201
 C1777 C 0.91581 0.72629 0.68035
 C1778 C 0.91676 0.72695 0.65205
 C1779 C 0.93749 0.74681 0.65360
 C1780 C 0.93701 0.74616 0.68163
 C1781 C 0.89653 0.74763 0.67975
 C1782 C 0.91726 0.76750 0.68130
 C1783 C 0.89708 0.74827 0.65172
 C1784 C 0.91818 0.76812 0.65304
 C1785 C 0.95981 0.74703 0.63867
 C1786 C 0.97804 0.74799 0.62602
 C1787 C 0.87337 0.74836 0.69343
 C1788 C 0.85374 0.74901 0.70389
 H1789 H 0.91441 0.70917 0.69184
 H1790 H 0.91698 0.71034 0.63979
 H1791 H 0.95382 0.74527 0.69358
 H1792 H 0.91705 0.78411 0.69355
 H1793 H 0.88031 0.74918 0.63971
 H1794 H 0.91954 0.78525 0.64155
 C1795 C 0.39707 0.24875 0.15172
 C1796 C 0.41840 0.26831 0.15340
 C1797 C 0.43746 0.24676 0.15359
 C1798 C 0.41649 0.22718 0.15167
 C1799 C 0.39649 0.24758 0.17973
 C1800 C 0.41552 0.22600 0.17996
 C1801 C 0.41747 0.26716 0.18165
 C1802 C 0.43695 0.24559 0.18160
 C1803 C 0.45978 0.24699 0.13866
 C1804 C 0.47802 0.24795 0.12602
 C1805 C 0.37334 0.24831 0.19341
 C1806 C 0.35371 0.24898 0.20387
 H1807 H 0.38032 0.25008 0.13972
 H1808 H 0.41998 0.28564 0.14223
 H1809 H 0.41651 0.21081 0.13912
 H1810 H 0.41390 0.20869 0.19114
 H1811 H 0.41745 0.28354 0.19419
 H1812 H 0.45374 0.24427 0.19354
 C1813 C 0.41571 0.77375 0.31978
 C1814 C 0.41665 0.77284 0.34807
 C1815 C 0.43750 0.75312 0.34636
 C1816 C 0.43702 0.75400 0.31833
 C1817 C 0.39655 0.75228 0.32020
 C1818 C 0.41740 0.73255 0.31849
 C1819 C 0.39710 0.75140 0.34822
 C1820 C 0.41831 0.73169 0.34674
 C1821 C 0.45981 0.75291 0.36130
 C1822 C 0.47804 0.75196 0.37396
 C1823 C 0.37339 0.75155 0.30652
 C1824 C 0.35376 0.75090 0.29606
 H1825 H 0.41420 0.79095 0.30843
 H1826 H 0.41677 0.78934 0.36047
 H1827 H 0.45382 0.75510 0.30639
 H1828 H 0.41729 0.71604 0.30611
 H1829 H 0.38033 0.75030 0.36023
 H1830 H 0.41978 0.71447 0.35809
 C1831 C 0.91753 0.23281 0.81827
 C1832 C 0.93697 0.25443 0.81838
 C1833 C 0.93748 0.25317 0.84639
 C1834 C 0.91847 0.23158 0.84651
 C1835 C 0.89652 0.25234 0.82024
 C1836 C 0.89709 0.25109 0.84825
 C1837 C 0.91550 0.27397 0.82008
 C1838 C 0.91646 0.27270 0.84836
 C1839 C 0.95979 0.25295 0.86133
 C1840 C 0.97803 0.25199 0.87397
 C1841 C 0.87336 0.25161 0.80656
 C1842 C 0.85373 0.25095 0.79610
 H1843 H 0.91755 0.21647 0.80568
 H1844 H 0.95376 0.25582 0.80644
 H1845 H 0.92009 0.21422 0.85763
 H1846 H 0.88034 0.24969 0.86024
 H1847 H 0.91384 0.29131 0.80895
 H1848 H 0.91645 0.28903 0.86096
 C1849 C 0.57513 1.00957 0.64830
 C1850 C 0.57735 1.02861 0.66953
 C1851 C 0.57224 1.00723 0.68776
 C1852 C 0.57020 0.98817 0.66678
 C1853 C 0.54675 1.01475 0.64705
 C1854 C 0.54163 0.99336 0.66527
 C1855 C 0.54878 1.03386 0.66799
 C1856 C 0.54387 1.01242 0.68663
 C1857 C 0.58728 1.00332 0.71001
 C1858 C 0.60018 1.00100 0.72809
 C1859 C 0.53410 1.01790 0.62330
 C1860 C 0.52583 1.01880 0.60274
 H1861 H 0.58795 1.00848 0.63233
 H1862 H 0.59225 1.04304 0.67143
 H1863 H 0.57913 0.96936 0.66642
 H1864 H 0.52675 0.97892 0.66336
 H1865 H 0.53985 1.05267 0.66832
 H1866 H 0.53113 1.01348 0.70266
 C1867 C 0.07509 0.50959 1.14834
 C1868 C 0.07729 0.52862 1.16958
 C1869 C 0.07221 0.50723 1.18780
 C1870 C 0.07018 0.48818 1.16682
 C1871 C 0.04670 0.51474 1.14711
 C1872 C 0.04161 0.49334 1.16532
 C1873 C 0.04872 0.53385 1.16806
 C1874 C 0.04383 0.51239 1.18669
 C1875 C 0.08726 0.50332 1.21006
 C1876 C 0.10016 0.50101 1.22812
 C1877 C 0.03405 0.51789 1.12336
 C1878 C 0.02577 0.51879 1.10280
 H1879 H 0.08791 0.50852 1.13237
 H1880 H 0.09218 0.54306 1.17149
 H1881 H 0.07913 0.46937 1.16645
 H1882 H 0.02674 0.47889 1.16340
 H1883 H 0.03977 0.55265 1.16839
 H1884 H 0.03109 0.51343 1.20272
 C1885 C -0.04878 -0.03391 1.16800
 C1886 C -0.04389 -0.01244 1.18661
 C1887 C -0.07227 -0.00729 1.18774
 C1888 C -0.07735 -0.02869 1.16954
 C1889 C -0.04678 -0.01482 1.14703
 C1890 C -0.07517 -0.00968 1.14828
 C1891 C -0.04169 0.00660 1.16522
 C1892 C -0.07026 0.01175 1.16675
 C1893 C -0.08730 -0.00337 1.21000
 C1894 C -0.10020 -0.00105 1.22807
 C1895 C -0.03414 -0.01798 1.12328
 C1896 C -0.02587 -0.01888 1.10271
 H1897 H -0.03982 -0.05271 1.16834
 H1898 H -0.03114 -0.01347 1.20263
 H1899 H -0.09223 -0.04314 1.17146
 H1900 H -0.08800 -0.00863 1.13232
 H1901 H -0.02682 0.02106 1.16329
 H1902 H -0.07922 0.03055 1.16637
 C1903 C 0.42490 0.49038 0.64834
 C1904 C 0.42267 0.47134 0.66957
 C1905 C 0.42777 0.49272 0.68780
 C1906 C 0.42982 0.51178 0.66683
 C1907 C 0.45328 0.48520 0.64710
 C1908 C 0.45839 0.50659 0.66532
 C1909 C 0.45124 0.46609 0.66804
 C1910 C 0.45615 0.48753 0.68668
 C1911 C 0.41272 0.49663 0.71005
 C1912 C 0.39982 0.49894 0.72812
 C1913 C 0.46593 0.48205 0.62336
 C1914 C 0.47421 0.48115 0.60279
 H1915 H 0.41208 0.49147 0.63237
 H1916 H 0.40778 0.45691 0.67146
 H1917 H 0.42089 0.53059 0.66646
 H1918 H 0.47327 0.52103 0.66341
 H1919 H 0.46018 0.44728 0.66837
 H1920 H 0.46888 0.48647 0.70271
 C1921 C 0.42483 0.50962 -0.14829
 C1922 C 0.42265 0.52864 -0.16954
 C1923 C 0.42773 0.50724 -0.18774
 C1924 C 0.42974 0.48820 -0.16675
 C1925 C 0.45322 0.51476 -0.14703
 C1926 C 0.45831 0.49334 -0.16523
 C1927 C 0.45123 0.53385 -0.16800
 C1928 C 0.45612 0.51238 -0.18661
 C1929 C 0.41270 0.50333 -0.21000
 C1930 C 0.39981 0.50101 -0.22808
 C1931 C 0.46586 0.51791 -0.12329
 C1932 C 0.47413 0.51881 -0.10272
 H1933 H 0.41200 0.50858 -0.13232
 H1934 H 0.40778 0.54310 -0.17146
 H1935 H 0.42077 0.46940 -0.16637
 H1936 H 0.47317 0.47888 -0.16330
 H1937 H 0.46019 0.55265 -0.16834
 H1938 H 0.46886 0.51340 -0.20263
 C1939 C -0.07521 1.01004 0.35163
 C1940 C -0.07705 1.02889 0.33021
 C1941 C -0.07225 1.00724 0.31221
 C1942 C -0.07058 0.98837 0.33337
 C1943 C -0.04674 1.01476 0.35291
 C1944 C -0.04194 0.99310 0.33492
 C1945 C -0.04840 1.03368 0.33177
 C1946 C -0.04379 1.01196 0.31336
 C1947 C -0.08729 1.00333 0.28995
 C1948 C -0.10019 1.00102 0.27188
 C1949 C -0.03410 1.01791 0.37665
 C1950 C -0.02582 1.01881 0.39722
 H1951 H -0.08809 1.00934 0.36757
 H1952 H -0.09169 1.04355 0.32812
 H1953 H -0.07983 0.96972 0.33390
 H1954 H -0.02731 0.97843 0.33701
 H1955 H -0.03915 1.05234 0.33128
 H1956 H -0.03099 1.01264 0.29736
 C1957 C 0.04918 0.46590 0.33224
 C1958 C 0.04396 0.48706 0.31337
 C1959 C 0.07225 0.49272 0.31227
 C1960 C 0.07766 0.47163 0.33072
 C1961 C 0.04676 0.48520 0.35298
 C1962 C 0.07505 0.49085 0.35175
 C1963 C 0.04133 0.50630 0.33453
 C1964 C 0.06981 0.51196 0.33304
 C1965 C 0.08728 0.49663 0.29000
 C1966 C 0.10017 0.49894 0.27193
 C1967 C 0.03412 0.48205 0.37673
 C1968 C 0.02585 0.48114 0.39730
 H1969 H 0.04058 0.44694 0.33208
 H1970 H 0.03129 0.48560 0.29732
 H1971 H 0.09281 0.45744 0.32901
 H1972 H 0.08781 0.49233 0.36774
 H1973 H 0.02619 0.52050 0.33626
 H1974 H 0.07842 0.53093 0.33323
 C1975 C 0.57511 -0.00965 -0.14833
 C1976 C 0.57731 -0.02868 -0.16957
 C1977 C 0.57223 -0.00728 -0.18779
 C1978 C 0.57019 0.01176 -0.16680
 C1979 C 0.54672 -0.01481 -0.14708
 C1980 C 0.54162 0.00660 -0.16529
 C1981 C 0.54874 -0.03391 -0.16804
 C1982 C 0.54384 -0.01245 -0.18666
 C1983 C 0.58727 -0.00338 -0.21004
 C1984 C 0.60017 -0.00106 -0.22811
 C1985 C 0.53407 -0.01796 -0.12334
 C1986 C 0.52579 -0.01886 -0.10277
 H1987 H 0.58793 -0.00858 -0.13236
 H1988 H 0.59219 -0.04312 -0.17148
 H1989 H 0.57915 0.03057 -0.16643
 H1990 H 0.52675 0.02105 -0.16337
 H1991 H 0.53979 -0.05271 -0.16838
 H1992 H 0.53111 -0.01349 -0.20269
 C1993 C 0.66206 0.57340 -0.02955
 C1994 C 0.66623 0.60222 -0.02914
 C1995 C 0.68345 0.59920 -0.00673
 C1996 C 0.67966 0.57059 -0.00710
 C1997 C 0.63958 0.57669 -0.01219
 C1998 C 0.65683 0.57369 0.01021
 C1999 C 0.64342 0.60530 -0.01182
 C2000 C 0.66095 0.60246 0.01060
 C2001 C 0.70765 0.61240 -0.00364
 C2002 C 0.72707 0.62409 -0.00153
 C2003 C 0.61484 0.56428 -0.01418
 C2004 C 0.59446 0.55416 -0.01421
 H2005 H 0.66234 0.56140 -0.04613
 H2006 H 0.67029 0.61409 -0.04535
 H2007 H 0.69473 0.55637 -0.00507
 H2008 H 0.65279 0.56184 0.02644
 H2009 H 0.62836 0.61955 -0.01383
 H2010 H 0.66064 0.61446 0.02719
 C2011 C 0.16218 1.07327 0.47051
 C2012 C 0.16637 1.10209 0.47074
 C2013 C 0.18350 1.09920 0.49324
 C2014 C 0.17968 1.07059 0.49304
 C2015 C 0.13963 1.07670 0.48775
 C2016 C 0.15678 1.07383 0.51024
 C2017 C 0.14349 1.10531 0.48796
 C2018 C 0.16093 1.10260 0.51046
 C2019 C 0.20770 1.11240 0.49634
 C2020 C 0.22712 1.12409 0.49846
 C2021 C 0.11489 1.06429 0.48576
 C2022 C 0.09451 1.05416 0.48572
 H2023 H 0.16252 1.06116 0.45400
 H2024 H 0.17051 1.11384 0.45448
 H2025 H 0.19474 1.05637 0.49522
 H2026 H 0.15267 1.06210 0.52653
 H2027 H 0.12846 1.11955 0.48580
 H2028 H 0.16057 1.11471 0.52697
 C2029 C 0.15667 -0.07404 0.98963
 C2030 C 0.17962 -0.07064 1.00673
 C2031 C 0.18347 -0.09925 1.00674
 C2032 C 0.16084 -0.10280 0.98962
 C2033 C 0.13959 -0.07675 1.01220
 C2034 C 0.14348 -0.10535 1.01220
 C2035 C 0.16219 -0.07316 1.02935
 C2036 C 0.16642 -0.10197 1.02931
 C2037 C 0.20766 -0.11245 1.00365
 C2038 C 0.22708 -0.12414 1.00154
 C2039 C 0.11485 -0.06433 1.01418
 C2040 C 0.09447 -0.05421 1.01422
 H2041 H 0.15249 -0.06244 0.97327
 H2042 H 0.19465 -0.05643 1.00440
 H2043 H 0.16043 -0.11504 0.97320
 H2044 H 0.12847 -0.11959 1.01452
 H2045 H 0.16258 -0.06091 1.04576
 H2046 H 0.17062 -0.11359 1.04566
 C2047 C 0.65677 0.42605 0.48971
 C2048 C 0.67970 0.42937 0.50684
 C2049 C 0.68354 0.40077 0.50676
 C2050 C 0.66093 0.39728 0.48961
 C2051 C 0.63967 0.42327 0.51225
 C2052 C 0.64354 0.39467 0.51216
 C2053 C 0.66225 0.42679 0.52943
 C2054 C 0.66646 0.39798 0.52931
 C2055 C 0.70773 0.38756 0.50366
 C2056 C 0.72715 0.37586 0.50154
 C2057 C 0.61493 0.43569 0.51424
 C2058 C 0.59455 0.44582 0.51428
 H2059 H 0.65262 0.43771 0.47338
 H2060 H 0.69475 0.44359 0.50458
 H2061 H 0.66054 0.38510 0.47315
 H2062 H 0.62851 0.38043 0.51441
 H2063 H 0.66262 0.43898 0.54588
 H2064 H 0.67064 0.38630 0.54562
 C2065 C -0.14340 0.39465 0.48837
 C2066 C -0.16102 0.39762 0.51071
 C2067 C -0.18346 0.40075 0.49330
 C2068 C -0.16616 0.39761 0.47095
 C2069 C -0.13959 0.42326 0.48784
 C2070 C -0.16201 0.42642 0.47039
 C2071 C -0.15691 0.42639 0.51017
 C2072 C -0.17968 0.42936 0.49277
 C2073 C -0.20766 0.38755 0.49637
 C2074 C -0.22708 0.37586 0.49848
 C2075 C -0.11485 0.43568 0.48585
 C2076 C -0.09446 0.44580 0.48582
 H2077 H -0.12832 0.38041 0.48648
 H2078 H -0.16075 0.38572 0.52737
 H2079 H -0.17015 0.38563 0.45480
 H2080 H -0.16225 0.43832 0.45374
 H2081 H -0.15294 0.43834 0.52634
 H2082 H -0.19478 0.44358 0.49466
 C2083 C 0.33781 -0.07335 -0.02950
 C2084 C 0.33362 -0.10217 -0.02923
 C2085 C 0.31647 -0.09925 -0.00674
 C2086 C 0.32029 -0.07064 -0.00699
 C2087 C 0.36034 -0.07674 -0.01223
 C2088 C 0.34317 -0.07385 0.01024
 C2089 C 0.35649 -0.10535 -0.01198
 C2090 C 0.33902 -0.10261 0.01050
 C2091 C 0.29228 -0.11245 -0.00365
 C2092 C 0.27286 -0.12414 -0.00153
 C2093 C 0.38508 -0.06433 -0.01423
 C2094 C 0.40546 -0.05420 -0.01427
 H2095 H 0.33748 -0.06126 -0.04603
 H2096 H 0.32951 -0.11395 -0.04548
 H2097 H 0.30522 -0.05642 -0.00485
 H2098 H 0.34726 -0.06208 0.02651
 H2099 H 0.37153 -0.11959 -0.01411
 H2100 H 0.33938 -0.11469 0.02703
 C2101 C 0.34316 1.07373 0.48978
 C2102 C 0.32031 1.07059 0.50706
 C2103 C 0.31651 1.09920 0.50674
 C2104 C 0.33903 1.10250 0.48945
 C2105 C 0.36038 1.07669 0.51222
 C2106 C 0.35654 1.10530 0.51190
 C2107 C 0.33788 1.07336 0.52954
 C2108 C 0.33370 1.10217 0.52919
 C2109 C 0.29231 1.11240 0.50365
 C2110 C 0.27289 1.12409 0.50154
 C2111 C 0.38512 1.06428 0.51420
 C2112 C 0.40551 1.05416 0.51424
 H2113 H 0.34722 1.06192 0.47354
 H2114 H 0.30524 1.05637 0.50499
 H2115 H 0.33936 1.11453 0.47289
 H2116 H 0.37159 1.11955 0.51396
 H2117 H 0.33758 1.06132 0.54610
 H2118 H 0.32962 1.11401 0.54541
 C2119 C -0.15697 0.57356 0.98990
 C2120 C -0.17977 0.57058 1.00728
 C2121 C -0.18354 0.59919 1.00676
 C2122 C -0.16108 0.60233 0.98937
 C2123 C -0.13968 0.57668 1.01225
 C2124 C -0.14349 0.60529 1.01173
 C2125 C -0.16211 0.57351 1.02967
 C2126 C -0.16626 0.60232 1.02912
 C2127 C -0.20774 0.61239 1.00366
 C2128 C -0.22715 0.62409 1.00154
 C2129 C -0.11494 0.56426 1.01425
 C2130 C -0.09455 0.55414 1.01429
 H2131 H -0.15299 0.56162 0.97373
 H2132 H -0.19486 0.55636 1.00536
 H2133 H -0.16080 0.61423 0.97271
 H2134 H -0.12842 0.61953 1.01363
 H2135 H -0.16237 0.56160 1.04632
 H2136 H -0.17028 0.61429 1.04527
 C2137 C -0.01136 0.65753 0.54950
 C2138 C -0.01397 0.66405 0.57692
 C2139 C 0.00640 0.68408 0.57371
 C2140 C 0.00901 0.67802 0.54644
 C2141 C 0.00926 0.63865 0.55617
 C2142 C 0.02969 0.65863 0.55290
 C2143 C 0.00666 0.64481 0.58341
 C2144 C 0.02704 0.66522 0.58037
 C2145 C 0.00425 0.70850 0.58484
 C2146 C 0.00224 0.72780 0.59572
 C2147 C 0.00972 0.61330 0.54696
 C2148 C 0.00888 0.59236 0.53935
 H2149 H -0.02710 0.65387 0.53668
 H2150 H -0.03192 0.66673 0.58689
 H2151 H 0.00991 0.69211 0.53152
 H2152 H 0.04762 0.65586 0.54292
 H2153 H 0.00574 0.63078 0.59839
 H2154 H 0.04276 0.66889 0.59321
 C2155 C 0.48856 0.15755 0.04945
 C2156 C 0.48599 0.16406 0.07687
 C2157 C 0.50635 0.18410 0.07364
 C2158 C 0.50893 0.17804 0.04638
 C2159 C 0.50919 0.13867 0.05609
 C2160 C 0.52961 0.15864 0.05280
 C2161 C 0.50661 0.14481 0.08333
 C2162 C 0.52699 0.16522 0.08028
 C2163 C 0.50421 0.20851 0.08480
 C2164 C 0.50221 0.22779 0.09570
 C2165 C 0.50963 0.11332 0.04687
 C2166 C 0.50879 0.09238 0.03926
 H2167 H 0.47281 0.15391 0.03664
 H2168 H 0.46805 0.16674 0.08686
 H2169 H 0.50981 0.19214 0.03146
 H2170 H 0.54753 0.15588 0.04280
 H2171 H 0.50571 0.13078 0.09831
 H2172 H 0.54273 0.16888 0.09310
 C2173 C -0.02973 0.15859 0.94705
 C2174 C -0.00912 0.17803 0.95357
 C2175 C -0.00641 0.18408 0.92632
 C2176 C -0.02698 0.16517 0.91958
 C2177 C -0.00926 0.13865 0.94387
 C2178 C -0.00655 0.14480 0.91663
 C2179 C 0.01130 0.15757 0.95061
 C2180 C 0.01401 0.16408 0.92320
 C2181 C -0.00426 0.20850 0.91517
 C2182 C -0.00226 0.22779 0.90429
 C2183 C -0.00971 0.11330 0.95308
 C2184 C -0.00887 0.09236 0.96069
 H2185 H -0.04770 0.15580 0.95696
 H2186 H -0.01010 0.19213 0.96849
 H2187 H -0.04265 0.16881 0.90668
 H2188 H -0.00555 0.13076 0.90166
 H2189 H 0.02699 0.15395 0.96349
 H2190 H 0.03200 0.16679 0.91329
 C2191 C 0.47037 0.65865 0.44722
 C2192 C 0.49105 0.67805 0.45363
 C2193 C 0.49362 0.68410 0.42636
 C2194 C 0.47298 0.66522 0.41974
 C2195 C 0.49079 0.63867 0.44393
 C2196 C 0.49335 0.64481 0.41668
 C2197 C 0.51142 0.65756 0.45056
 C2198 C 0.51398 0.66406 0.42313
 C2199 C 0.49576 0.70850 0.41520
 C2200 C 0.49775 0.72779 0.40430
 C2201 C 0.49035 0.61333 0.45316
 C2202 C 0.49119 0.59239 0.46077
 H2203 H 0.45245 0.65589 0.45723
 H2204 H 0.49018 0.69215 0.46855
 H2205 H 0.45723 0.66888 0.40693
 H2206 H 0.49424 0.63077 0.40171
 H2207 H 0.52718 0.65391 0.46336
 H2208 H 0.53192 0.66673 0.41314
 C2209 C 0.50664 0.85515 0.41660
 C2210 C 0.52700 0.83472 0.41968
 C2211 C 0.50634 0.81587 0.42630
 C2212 C 0.48600 0.83592 0.42305
 C2213 C 0.50920 0.86129 0.44385
 C2214 C 0.48854 0.84243 0.45048
 C2215 C 0.52960 0.84130 0.44716
 C2216 C 0.50890 0.82192 0.45357
 C2217 C 0.50420 0.79145 0.41516
 C2218 C 0.50221 0.77216 0.40427
 C2219 C 0.50965 0.88664 0.45307
 C2220 C 0.50882 0.90758 0.46068
 H2221 H 0.50577 0.86918 0.40162
 H2222 H 0.54275 0.83104 0.40687
 H2223 H 0.46807 0.83325 0.41304
 H2224 H 0.47278 0.84609 0.46326
 H2225 H 0.54751 0.84405 0.45717
 H2226 H 0.50975 0.80783 0.46849
 C2227 C 0.00654 0.35514 0.91667
 C2228 C 0.02695 0.33475 0.91966
 C2229 C 0.00635 0.31585 0.92635
 C2230 C -0.01405 0.33587 0.92318
 C2231 C 0.00918 0.36128 0.94391
 C2232 C -0.01141 0.34237 0.95060
 C2233 C 0.02964 0.34132 0.94714
 C2234 C 0.00899 0.32190 0.95361
 C2235 C 0.00420 0.29144 0.91519
 C2236 C 0.00221 0.27216 0.90430
 C2237 C 0.00963 0.38662 0.95314
 C2238 C 0.00879 0.40757 0.96075
 H2239 H 0.00559 0.36918 0.90170
 H2240 H 0.04265 0.33111 0.90680
 H2241 H -0.03201 0.33318 0.91324
 H2242 H -0.02713 0.34600 0.96345
 H2243 H 0.04758 0.34410 0.95709
 H2244 H 0.00993 0.30780 0.96852
 C2245 C 0.49336 0.35516 0.08340
 C2246 C 0.47297 0.33475 0.08037
 C2247 C 0.49360 0.31588 0.07370
 C2248 C 0.51397 0.33591 0.07689
 C2249 C 0.49074 0.36131 0.05616
 C2250 C 0.51135 0.34242 0.04947
 C2251 C 0.47030 0.34134 0.05290
 C2252 C 0.49097 0.32193 0.04643
 C2253 C 0.49575 0.29146 0.08484
 C2254 C 0.49774 0.27216 0.09572
 C2255 C 0.49028 0.38666 0.04694
 C2256 C 0.49112 0.40760 0.03933
 H2257 H 0.49429 0.36919 0.09837
 H2258 H 0.45726 0.33109 0.09322
 H2259 H 0.53193 0.33322 0.08685
 H2260 H 0.52708 0.34607 0.03665
 H2261 H 0.45237 0.34410 0.04294
 H2262 H 0.49006 0.30784 0.03151
 C2263 C -0.02849 0.84061 0.55091
 C2264 C -0.00660 0.82201 0.54627
 C2265 C -0.00637 0.81586 0.57363
 C2266 C -0.02821 0.83393 0.57849
 C2267 C -0.00920 0.86128 0.55607
 C2268 C -0.00895 0.85504 0.58341
 C2269 C 0.01263 0.84320 0.55121
 C2270 C 0.01288 0.83659 0.57872
 C2271 C -0.00422 0.79145 0.58479
 C2272 C -0.00223 0.77217 0.59569
 C2273 C -0.00964 0.88663 0.54685
 C2274 C -0.00880 0.90757 0.53924
 H2275 H -0.04549 0.84280 0.53938
 H2276 H -0.00558 0.80800 0.53129
 H2277 H -0.04493 0.82961 0.58985
 H2278 H -0.00996 0.86900 0.59845
 H2279 H 0.02938 0.84749 0.53988
 H2280 H 0.02990 0.83449 0.59025
 C2281 C 0.25258 0.32284 0.10159
 C2282 C 0.27344 0.33128 0.08375
 C2283 C 0.25723 0.32218 0.06224
 C2284 C 0.23634 0.31390 0.07983
 C2285 C 0.26476 0.29668 0.10294
 C2286 C 0.24853 0.28754 0.08147
 C2287 C 0.28568 0.30497 0.08538
 C2288 C 0.26942 0.29604 0.06348
 C2289 C 0.25332 0.33723 0.03999
 C2290 C 0.25100 0.35013 0.02192
 C2291 C 0.26790 0.28404 0.12669
 C2292 C 0.26880 0.27577 0.14726
 H2293 H 0.24570 0.33383 0.11748
 H2294 H 0.28359 0.34946 0.08455
 H2295 H 0.21601 0.31774 0.07742
 H2296 H 0.23838 0.26937 0.08069
 H2297 H 0.30600 0.30115 0.08781
 H2298 H 0.27628 0.28513 0.04753
 C2299 C 0.74146 0.79416 0.58657
 C2300 C 0.73995 0.82312 0.58466
 C2301 C 0.75727 0.82221 0.56223
 C2302 C 0.75877 0.79342 0.56376
 C2303 C 0.76479 0.79672 0.60294
 C2304 C 0.78217 0.79578 0.58055
 C2305 C 0.76328 0.82551 0.60130
 C2306 C 0.78060 0.82478 0.57861
 C2307 C 0.75336 0.83725 0.53997
 C2308 C 0.75104 0.85014 0.52190
 C2309 C 0.76794 0.78407 0.62669
 C2310 C 0.76884 0.77580 0.64726
 H2311 H 0.72540 0.78137 0.59000
 H2312 H 0.72256 0.83447 0.58621
 H2313 H 0.75680 0.78036 0.54807
 H2314 H 0.79956 0.78443 0.57903
 H2315 H 0.76524 0.83866 0.61693
 H2316 H 0.79665 0.83758 0.57518
 C2317 C 0.21613 0.70123 0.58200
 C2318 C 0.23758 0.70614 0.56337
 C2319 C 0.24276 0.67776 0.56224
 C2320 C 0.22137 0.67266 0.58046
 C2321 C 0.23523 0.70326 0.60295
 C2322 C 0.24040 0.67487 0.60170
 C2323 C 0.25663 0.70837 0.58474
 C2324 C 0.26181 0.67980 0.58322
 C2325 C 0.24667 0.66272 0.53998
 C2326 C 0.24899 0.64982 0.52191
 C2327 C 0.23207 0.71590 0.62669
 C2328 C 0.23117 0.72417 0.64726
 H2329 H 0.19732 0.71017 0.58166
 H2330 H 0.23652 0.71888 0.54734
 H2331 H 0.20694 0.65776 0.57855
 H2332 H 0.24148 0.66204 0.61766
 H2333 H 0.27107 0.72325 0.58665
 H2334 H 0.28061 0.67085 0.58359
 C2335 C 0.71609 0.20126 0.08196
 C2336 C 0.73758 0.20613 0.06336
 C2337 C 0.74270 0.17774 0.06222
 C2338 C 0.72128 0.17267 0.08042
 C2339 C 0.73517 0.20323 0.10294
 C2340 C 0.74029 0.17483 0.10168
 C2341 C 0.75661 0.20831 0.08475
 C2342 C 0.76173 0.17973 0.08323
 C2343 C 0.74661 0.16270 0.03996
 C2344 C 0.74893 0.14981 0.02189
 C2345 C 0.73202 0.21587 0.12668
 C2346 C 0.73112 0.22414 0.14725
 H2347 H 0.69730 0.21023 0.08161
 H2348 H 0.73657 0.21888 0.04734
 H2349 H 0.70682 0.15781 0.07849
 H2350 H 0.74132 0.16200 0.11764
 H2351 H 0.77108 0.22316 0.08669
 H2352 H 0.78052 0.17074 0.08361
 C2353 C 0.75967 0.17484 0.89830
 C2354 C 0.77867 0.17269 0.91957
 C2355 C 0.75723 0.17775 0.93776
 C2356 C 0.73822 0.17972 0.91675
 C2357 C 0.76476 0.20324 0.89705
 C2358 C 0.74332 0.20831 0.91522
 C2359 C 0.78384 0.20128 0.91803
 C2360 C 0.76234 0.20614 0.93662
 C2361 C 0.75332 0.16271 0.96001
 C2362 C 0.75100 0.14981 0.97808
 C2363 C 0.76792 0.21588 0.87330
 C2364 C 0.76882 0.22415 0.85273
 H2365 H 0.75865 0.16201 0.88234
 H2366 H 0.79314 0.15784 0.92151
 H2367 H 0.71943 0.17073 0.91635
 H2368 H 0.72884 0.22315 0.91328
 H2369 H 0.80262 0.21027 0.91839
 H2370 H 0.76333 0.21889 0.95265
 C2371 C 0.25966 0.67483 0.39831
 C2372 C 0.27869 0.67263 0.41956
 C2373 C 0.25730 0.67773 0.43777
 C2374 C 0.23825 0.67976 0.41679
 C2375 C 0.26482 0.70322 0.39706
 C2376 C 0.24342 0.70833 0.41526
 C2377 C 0.28392 0.70121 0.41801
 C2378 C 0.26246 0.70611 0.43664
 C2379 C 0.25338 0.66270 0.46003
 C2380 C 0.25107 0.64981 0.47811
 C2381 C 0.26797 0.71586 0.37331
 C2382 C 0.26887 0.72413 0.35274
 H2383 H 0.25859 0.66200 0.38235
 H2384 H 0.29313 0.65775 0.42147
 H2385 H 0.21944 0.67081 0.41642
 H2386 H 0.22897 0.72320 0.41334
 H2387 H 0.30273 0.71015 0.41835
 H2388 H 0.26351 0.71886 0.45266
 C2389 C 0.75632 0.79126 0.41552
 C2390 C 0.76201 0.81973 0.41700
 C2391 C 0.74276 0.82220 0.43776
 C2392 C 0.73707 0.79391 0.43667
 C2393 C 0.73524 0.79670 0.39705
 C2394 C 0.71593 0.79915 0.41778
 C2395 C 0.74092 0.82499 0.39827
 C2396 C 0.72168 0.82763 0.41929
 C2397 C 0.74666 0.83723 0.46002
 C2398 C 0.74898 0.85013 0.47809
 C2399 C 0.73209 0.78406 0.37330
 C2400 C 0.73118 0.77579 0.35274
 H2401 H 0.77051 0.77610 0.41381
 H2402 H 0.78098 0.82832 0.41682
 H2403 H 0.73559 0.78125 0.45272
 H2404 H 0.69696 0.79056 0.41793
 H2405 H 0.74242 0.83774 0.38228
 H2406 H 0.70751 0.84279 0.42099
 C2407 C 0.24042 0.32510 0.89831
 C2408 C 0.22136 0.32734 0.91953
 C2409 C 0.24272 0.32221 0.93778
 C2410 C 0.26179 0.32014 0.91682
 C2411 C 0.23520 0.29672 0.89706
 C2412 C 0.25657 0.29158 0.91530
 C2413 C 0.21607 0.29878 0.91799
 C2414 C 0.23749 0.29384 0.93665
 C2415 C 0.24662 0.33725 0.96004
 C2416 C 0.24893 0.35014 0.97811
 C2417 C 0.23205 0.28408 0.87332
 C2418 C 0.23115 0.27581 0.85275
 H2419 H 0.24154 0.33792 0.88235
 H2420 H 0.20695 0.34226 0.92142
 H2421 H 0.28061 0.32905 0.91647
 H2422 H 0.27098 0.27667 0.91341
 H2423 H 0.19725 0.28987 0.91830
 H2424 H 0.23639 0.28111 0.95268
 C2425 C 0.82376 0.40684 0.73980
 C2426 C 0.82064 0.42968 0.75709
 C2427 C 0.84925 0.43347 0.75675
 C2428 C 0.85252 0.41096 0.73944
 C2429 C 0.82673 0.38960 0.76221
 C2430 C 0.85534 0.39343 0.76186
 C2431 C 0.82343 0.41209 0.77955
 C2432 C 0.85224 0.41626 0.77917
 C2433 C 0.86245 0.45766 0.75366
 C2434 C 0.87415 0.47708 0.75155
 C2435 C 0.81431 0.36486 0.76420
 C2436 C 0.80419 0.34448 0.76423
 H2437 H 0.81192 0.40279 0.72356
 H2438 H 0.80642 0.44476 0.75505
 H2439 H 0.86454 0.41064 0.72286
 H2440 H 0.86958 0.37837 0.76390
 H2441 H 0.81141 0.41238 0.79613
 H2442 H 0.86410 0.42032 0.79539
 C2443 C 0.35536 0.89343 0.26188
 C2444 C 0.35255 0.91094 0.23944
 C2445 C 0.34926 0.93346 0.25674
 C2446 C 0.35225 0.91626 0.27918
 C2447 C 0.32676 0.88959 0.26222
 C2448 C 0.32344 0.91209 0.27955
 C2449 C 0.32378 0.90681 0.23980
 C2450 C 0.32065 0.92966 0.25708
 C2451 C 0.36246 0.95766 0.25365
 C2452 C 0.37415 0.97708 0.25153
 C2453 C 0.31434 0.86485 0.26421
 C2454 C 0.30421 0.84447 0.26425
 H2455 H 0.36961 0.87837 0.26393
 H2456 H 0.36457 0.91062 0.22287
 H2457 H 0.36410 0.92034 0.29540
 H2458 H 0.31141 0.91238 0.29612
 H2459 H 0.31196 0.90276 0.22356
 H2460 H 0.30644 0.94474 0.25502
 C2461 C 0.17657 0.91211 0.72044
 C2462 C 0.14775 0.91628 0.72082
 C2463 C 0.15074 0.93349 0.74325
 C2464 C 0.17935 0.92970 0.74291
 C2465 C 0.17326 0.88962 0.73778
 C2466 C 0.17623 0.90685 0.76020
 C2467 C 0.14465 0.89345 0.73813
 C2468 C 0.14747 0.91098 0.76056
 C2469 C 0.13753 0.95768 0.74633
 C2470 C 0.12584 0.97710 0.74845
 C2471 C 0.18568 0.86488 0.73580
 C2472 C 0.19581 0.84450 0.73576
 H2473 H 0.18859 0.91240 0.70387
 H2474 H 0.13590 0.92034 0.70460
 H2475 H 0.19356 0.94478 0.74496
 H2476 H 0.18806 0.90281 0.77644
 H2477 H 0.13041 0.87839 0.73609
 H2478 H 0.13545 0.91065 0.77713
 C2479 C 0.64461 0.39345 0.23812
 C2480 C 0.64744 0.41097 0.26056
 C2481 C 0.65072 0.43348 0.24326
 C2482 C 0.64772 0.41628 0.22082
 C2483 C 0.67322 0.38961 0.23777
 C2484 C 0.67653 0.41210 0.22044
 C2485 C 0.67620 0.40684 0.26020
 C2486 C 0.67933 0.42968 0.24291
 C2487 C 0.63752 0.45768 0.24635
 C2488 C 0.62583 0.47710 0.24847
 C2489 C 0.68564 0.36487 0.23578
 C2490 C 0.69576 0.34448 0.23575
 H2491 H 0.63037 0.37840 0.23608
 H2492 H 0.63542 0.41065 0.27714
 H2493 H 0.63587 0.42035 0.20461
 H2494 H 0.68855 0.41240 0.20387
 H2495 H 0.68803 0.40278 0.27643
 H2496 H 0.69354 0.44476 0.24496
 C2497 C 0.67659 0.58785 0.27953
 C2498 C 0.64777 0.58369 0.27917
 C2499 C 0.65074 0.56649 0.25673
 C2500 C 0.67935 0.57028 0.25705
 C2501 C 0.67326 0.61035 0.26220
 C2502 C 0.67622 0.59313 0.23977
 C2503 C 0.64466 0.60652 0.26188
 C2504 C 0.64746 0.58900 0.23944
 C2505 C 0.63754 0.54229 0.25365
 C2506 C 0.62584 0.52288 0.25154
 C2507 C 0.68569 0.63508 0.26419
 C2508 C 0.69581 0.65547 0.26423
 H2509 H 0.68862 0.58755 0.29609
 H2510 H 0.63593 0.57961 0.29540
 H2511 H 0.69357 0.55520 0.25499
 H2512 H 0.68804 0.59718 0.22353
 H2513 H 0.63042 0.62158 0.26393
 H2514 H 0.63542 0.58933 0.22287
 C2515 C 0.17653 0.08787 0.77956
 C2516 C 0.14771 0.08370 0.77916
 C2517 C 0.15073 0.06649 0.75673
 C2518 C 0.17934 0.07028 0.75710
 C2519 C 0.17324 0.11035 0.76222
 C2520 C 0.17624 0.09312 0.73980
 C2521 C 0.14463 0.10653 0.76184
 C2522 C 0.14748 0.08900 0.73942
 C2523 C 0.13753 0.04229 0.75364
 C2524 C 0.12583 0.02288 0.75152
 C2525 C 0.18566 0.13509 0.76421
 C2526 C 0.19579 0.15548 0.76425
 H2527 H 0.18853 0.08758 0.79615
 H2528 H 0.13584 0.07964 0.79536
 H2529 H 0.19355 0.05520 0.75508
 H2530 H 0.18809 0.09716 0.72358
 H2531 H 0.13039 0.12159 0.76386
 H2532 H 0.13548 0.08932 0.72283
 C2533 C 0.32350 0.08787 0.22040
 C2534 C 0.35231 0.08372 0.22088
 C2535 C 0.34924 0.06646 0.24326
 C2536 C 0.32063 0.07024 0.24282
 C2537 C 0.32672 0.11033 0.23779
 C2538 C 0.32366 0.09305 0.26017
 C2539 C 0.35533 0.10651 0.23824
 C2540 C 0.35243 0.08894 0.26063
 C2541 C 0.36245 0.04227 0.24635
 C2542 C 0.37415 0.02285 0.24846
 C2543 C 0.31429 0.13506 0.23580
 C2544 C 0.30417 0.15545 0.23577
 H2545 H 0.31155 0.08760 0.20378
 H2546 H 0.36424 0.07969 0.20470
 H2547 H 0.30642 0.05515 0.24478
 H2548 H 0.31176 0.09705 0.27636
 H2549 H 0.36956 0.12158 0.23629
 H2550 H 0.36437 0.08924 0.27725
 C2551 C 0.82344 0.58785 0.72045
 C2552 C 0.85226 0.58368 0.72084
 C2553 C 0.84926 0.56647 0.74327
 C2554 C 0.82065 0.57027 0.74292
 C2555 C 0.82675 0.61034 0.73778
 C2556 C 0.82376 0.59312 0.76021
 C2557 C 0.85536 0.60651 0.73814
 C2558 C 0.85253 0.58899 0.76057
 C2559 C 0.86246 0.54228 0.74637
 C2560 C 0.87415 0.52286 0.74849
 C2561 C 0.81433 0.63508 0.73579
 C2562 C 0.80420 0.65546 0.73575
 H2563 H 0.81143 0.58755 0.70388
 H2564 H 0.86411 0.57960 0.70462
 H2565 H 0.80643 0.55519 0.74497
 H2566 H 0.81193 0.59717 0.77644
 H2567 H 0.86960 0.62156 0.73610
 H2568 H 0.86454 0.58931 0.77715
 C2569 C 0.90759 0.73870 0.20061
 C2570 C 0.91411 0.73597 0.17320
 C2571 C 0.93409 0.75640 0.17631
 C2572 C 0.92803 0.75914 0.20356
 C2573 C 0.88866 0.75924 0.19384
 C2574 C 0.90858 0.77973 0.19701
 C2575 C 0.89481 0.75651 0.16661
 C2576 C 0.91517 0.77696 0.16955
 C2577 C 0.95851 0.75425 0.16518
 C2578 C 0.97781 0.75225 0.15430
 C2579 C 0.86331 0.75968 0.20305
 C2580 C 0.84237 0.75883 0.21066
 H2581 H 0.90398 0.72302 0.21351
 H2582 H 0.91683 0.71797 0.16332
 H2583 H 0.94212 0.76015 0.21848
 H2584 H 0.90577 0.79771 0.20690
 H2585 H 0.88078 0.75548 0.15164
 H2586 H 0.91880 0.79262 0.15664
 C2587 C 0.40758 0.23858 0.70060
 C2588 C 0.41409 0.23592 0.67318
 C2589 C 0.43410 0.25633 0.67634
 C2590 C 0.42804 0.25899 0.70360
 C2591 C 0.38867 0.25916 0.69389
 C2592 C 0.40862 0.27962 0.69711
 C2593 C 0.39482 0.25651 0.66665
 C2594 C 0.41520 0.27692 0.66964
 C2595 C 0.45851 0.25419 0.66520
 C2596 C 0.47780 0.25220 0.65431
 C2597 C 0.36332 0.25961 0.70311
 C2598 C 0.34238 0.25878 0.71072
 H2599 H 0.40395 0.22286 0.71345
 H2600 H 0.41679 0.21796 0.66324
 H2601 H 0.44214 0.25993 0.71852
 H2602 H 0.40584 0.29757 0.70706
 H2603 H 0.38078 0.25554 0.65168
 H2604 H 0.41884 0.29262 0.65678
 C2605 C 0.40753 0.76141 0.79950
 C2606 C 0.41405 0.76394 0.82693
 C2607 C 0.43410 0.74359 0.82366
 C2608 C 0.42804 0.74105 0.79639
 C2609 C 0.38867 0.74076 0.80612
 C2610 C 0.40865 0.72035 0.80280
 C2611 C 0.39482 0.74329 0.83337
 C2612 C 0.41524 0.72293 0.83028
 C2613 C 0.45852 0.74573 0.83480
 C2614 C 0.47781 0.74773 0.84569
 C2615 C 0.36332 0.74031 0.79691
 C2616 C 0.34238 0.74115 0.78930
 H2617 H 0.40387 0.77718 0.78673
 H2618 H 0.41672 0.78186 0.83694
 H2619 H 0.44212 0.74020 0.78146
 H2620 H 0.40590 0.70244 0.79277
 H2621 H 0.38079 0.74416 0.84835
 H2622 H 0.41892 0.70717 0.84307
 C2623 C 0.90782 0.26099 0.29883
 C2624 C 0.91431 0.26437 0.32618
 C2625 C 0.93409 0.24366 0.32363
 C2626 C 0.92806 0.24027 0.29644
 C2627 C 0.88867 0.24082 0.30607
 C2628 C 0.90839 0.22005 0.30346
 C2629 C 0.89480 0.24421 0.33323
 C2630 C 0.91495 0.22349 0.33086
 C2631 C 0.95850 0.24580 0.33478
 C2632 C 0.97779 0.24778 0.34568
 C2633 C 0.86332 0.24037 0.29685
 C2634 C 0.84238 0.24120 0.28925
 H2635 H 0.90440 0.27636 0.28554
 H2636 H 0.91720 0.28259 0.33562
 H2637 H 0.94217 0.23873 0.28159
 H2638 H 0.90542 0.20185 0.29402
 H2639 H 0.88075 0.24577 0.34815
 H2640 H 0.91838 0.20813 0.34416
 C2641 C 0.09136 0.27965 0.30292
 C2642 C 0.07193 0.25902 0.29642
 C2643 C 0.06587 0.25635 0.32368
 C2644 C 0.08477 0.27694 0.33039
 C2645 C 0.11130 0.25918 0.30614
 C2646 C 0.10515 0.25652 0.33337
 C2647 C 0.09239 0.23860 0.29942
 C2648 C 0.08587 0.23594 0.32683
 C2649 C 0.04145 0.25421 0.33481
 C2650 C 0.02216 0.25223 0.34570
 C2651 C 0.13665 0.25963 0.29693
 C2652 C 0.15759 0.25878 0.28932
 H2653 H 0.09415 0.29760 0.29299
 H2654 H 0.05784 0.25998 0.28150
 H2655 H 0.08113 0.29263 0.34326
 H2656 H 0.11918 0.25554 0.34835
 H2657 H 0.09602 0.22289 0.28657
 H2658 H 0.08317 0.21797 0.33676
 C2659 C 0.59287 0.73781 0.80044
 C2660 C 0.58631 0.73657 0.82794
 C2661 C 0.56587 0.75632 0.82364
 C2662 C 0.57198 0.75756 0.79629
 C2663 C 0.61130 0.75915 0.80609
 C2664 C 0.59093 0.77896 0.80172
 C2665 C 0.60511 0.75790 0.83341
 C2666 C 0.58429 0.77767 0.82928
 C2667 C 0.54146 0.75417 0.83479
 C2668 C 0.52217 0.75219 0.84568
 C2669 C 0.63665 0.75960 0.79687
 C2670 C 0.65760 0.75876 0.78927
 H2671 H 0.59689 0.72148 0.78847
 H2672 H 0.58397 0.71913 0.83881
 H2673 H 0.55793 0.75736 0.78131
 H2674 H 0.59336 0.79637 0.79084
 H2675 H 0.61910 0.75809 0.84845
 H2676 H 0.58025 0.79398 0.84128
 C2677 C 0.59240 0.26135 0.70059
 C2678 C 0.58589 0.26399 0.67318
 C2679 C 0.56588 0.24359 0.67635
 C2680 C 0.57193 0.24095 0.70362
 C2681 C 0.61131 0.24076 0.69390
 C2682 C 0.59135 0.22031 0.69713
 C2683 C 0.60515 0.24340 0.66666
 C2684 C 0.58477 0.22299 0.66966
 C2685 C 0.54146 0.24574 0.66521
 C2686 C 0.52217 0.24773 0.65432
 C2687 C 0.63666 0.24032 0.70311
 C2688 C 0.65760 0.24116 0.71071
 H2689 H 0.59603 0.27707 0.71344
 H2690 H 0.58319 0.28195 0.66323
 H2691 H 0.55784 0.24001 0.71853
 H2692 H 0.59414 0.20236 0.70708
 H2693 H 0.61919 0.24436 0.65168
 H2694 H 0.58112 0.20729 0.65680
 C2695 C 0.10336 0.73015 0.16914
 C2696 C 0.07969 0.71895 0.18140
 C2697 C 0.06586 0.74366 0.17641
 C2698 C 0.08911 0.75483 0.16398
 C2699 C 0.11128 0.74082 0.19397
 C2700 C 0.09739 0.76550 0.18896
 C2701 C 0.08809 0.72962 0.20648
 C2702 C 0.07373 0.75436 0.20124
 C2703 C 0.04145 0.74579 0.16524
 C2704 C 0.02217 0.74778 0.15433
 C2705 C 0.13663 0.74038 0.20319
 C2706 C 0.15757 0.74121 0.21079
 H2707 H 0.11594 0.72022 0.15617
 H2708 H 0.07190 0.69992 0.17815
 H2709 H 0.08908 0.76524 0.14640
 H2710 H 0.10513 0.78456 0.19216
 H2711 H 0.08821 0.71922 0.22407
 H2712 H 0.06113 0.76429 0.21418
   
