data_POSCAR
  _audit_creation_date              2014-09-24
  _audit_creation_method            'ToBaCCo'
  _symmetry_space_group_name_H-M    'P1'
  _symmetry_Int_Tables_number       1
  _symmetry_cell_setting            triclinic
  loop_
  _symmetry_equiv_pos_as_xyz
 x,y,z
_cell_length_a 43.1180
_cell_length_b 43.0478
_cell_length_c 43.0775
_cell_angle_alpha 90.057000
_cell_angle_beta 89.999700
_cell_angle_gamma 90.005000
loop_
  _atom_site_label
  _atom_site_type_symbol
  _atom_site_fract_x
  _atom_site_fract_y
  _atom_site_fract_z
C1 C 0.18338 0.21288 0.22919
 N2 N 0.18842 0.23215 0.20481
 C3 C 0.21289 0.22728 0.18560
 N4 N 0.23234 0.20306 0.19083
 C5 C 0.22736 0.18374 0.21520
 N6 N 0.20287 0.18868 0.23438
 C7 C 0.68478 0.71340 0.72782
 N8 N 0.70401 0.68889 0.73235
 C9 C 0.72830 0.68403 0.71292
 N10 N 0.73337 0.70377 0.68890
 C11 C 0.71416 0.72832 0.68432
 N12 N 0.68986 0.73309 0.70378
 C13 C 0.31533 0.78821 0.72689
 N14 N 0.29603 0.81265 0.73158
 C15 C 0.27158 0.81741 0.71235
 N16 N 0.26645 0.79763 0.68834
 C17 C 0.28573 0.77317 0.68356
 N18 N 0.31018 0.76847 0.70285
 C19 C 0.81399 0.28597 0.23022
 N20 N 0.80957 0.26651 0.20582
 C21 C 0.78560 0.27116 0.18598
 N22 N 0.76597 0.29536 0.19055
 C23 C 0.77029 0.31489 0.21493
 N24 N 0.79432 0.31019 0.23475
 C25 C 0.81511 0.71486 0.27112
 N26 N 0.81023 0.73425 0.29547
 C27 C 0.78585 0.72952 0.31482
 N28 N 0.76633 0.70530 0.30979
 C29 C 0.77117 0.68586 0.28543
 N30 N 0.79556 0.69069 0.26612
 C31 C 0.31740 0.21500 -0.22898
 N32 N 0.29801 0.19064 -0.23396
 C33 C 0.27365 0.18560 -0.21464
 N34 N 0.26871 0.20501 -0.19031
 C35 C 0.28802 0.22938 -0.18525
 N36 N 0.31235 0.23436 -0.20460
 C37 C 0.68669 0.28406 -0.22913
 N38 N 0.69126 0.26440 -0.20496
 C39 C 0.71535 0.26902 -0.18520
 N40 N 0.73483 0.29338 -0.18962
 C41 C 0.73031 0.31310 -0.21376
 N42 N 0.70620 0.30840 -0.23349
 C43 C 0.18676 0.78436 0.26968
 N44 N 0.19158 0.76490 0.29394
 C45 C 0.21582 0.76965 0.31345
 N46 N 0.23527 0.79398 0.30868
 C47 C 0.23051 0.81351 0.28441
 N48 N 0.20623 0.80865 0.26494
 C49 C 0.46470 0.43512 0.47873
 N50 N 0.44042 0.45449 0.48390
 C51 C 0.43536 0.47898 0.46477
 N52 N 0.45467 0.48411 0.44043
 C53 C 0.47898 0.46480 0.43520
 N54 N 0.48397 0.44030 0.45437
 C55 C -0.03369 -0.06323 0.97886
 N56 N -0.01403 -0.05820 0.95479
 C57 C -0.01878 -0.03389 0.93532
 N58 N -0.04331 -0.01464 0.93989
 C59 C -0.06304 -0.01965 0.96394
 N60 N -0.05816 -0.04395 0.98338
 C61 C 1.03509 0.56538 0.97965
 N62 N 1.05919 0.54569 0.98459
 C63 C 1.06389 0.52125 0.96521
 N64 N 1.04448 0.51654 0.94085
 C65 C 1.02037 0.53617 0.93588
 N66 N 1.01571 0.56055 0.95529
 C67 C 0.53570 0.06322 0.47895
 N68 N 0.56029 0.04413 0.48367
 C69 C 0.56548 0.01984 0.46423
 N70 N 0.54598 0.01469 0.44002
 C71 C 0.52138 0.03375 0.43524
 N72 N 0.51627 0.05801 0.45472
 C73 C -0.03630 0.06545 0.52263
 N74 N -0.06057 0.04595 0.51797
 C75 C -0.06529 0.02157 0.53739
 N76 N -0.04560 0.01674 0.56152
 C77 C -0.02130 0.03623 0.56621
 N78 N -0.01669 0.06056 0.54676
 C79 C 0.46181 0.56680 0.02078
 N80 N 0.48140 0.56213 0.04499
 C81 C 0.47679 0.53789 0.06457
 N82 N 0.45257 0.51833 0.05989
 C83 C 0.43296 0.52293 0.03571
 N84 N 0.43759 0.54719 0.01617
 C85 C 0.53632 -0.06555 0.02100
 N86 N 0.51658 -0.06068 0.04509
 C87 C 0.52129 -0.03650 0.06479
 N88 N 0.54577 -0.01721 0.06039
 C89 C 0.56554 -0.02201 0.03637
 N90 N 0.56081 -0.04619 0.01671
 C91 C 1.03403 0.43463 0.52050
 N92 N 1.05837 0.45408 0.51597
 C93 C 1.06331 0.47820 0.53567
 N94 N 1.04383 0.48287 0.55998
 C95 C 1.01948 0.46344 0.56459
 N96 N 1.01462 0.43933 0.54486
 C97 C 0.42281 0.01441 0.20964
 H98 H 0.42480 0.03433 0.22484
 C99 C 0.44333 0.01085 0.18483
 H100 H 0.46099 0.02825 0.18095
 C101 C 0.39757 -0.03279 0.19668
 H102 H 0.38005 -0.05000 0.20164
 C103 C 0.41753 -0.03717 0.17153
 H104 H 0.41511 -0.05762 0.15706
 N105 N 0.40039 -0.00717 0.21500
 C106 C 0.32602 0.03878 0.26595
 H107 H 0.32417 0.02355 0.28583
 C108 C 0.30535 0.06351 0.26253
 H109 H 0.28771 0.06729 0.27997
 C110 C 0.35106 0.05193 0.21876
 H111 H 0.36857 0.04708 0.20151
 C112 C 0.33095 0.07699 0.21451
 H113 H 0.33324 0.09150 0.19411
 Zn114 Zn 0.37455 -0.00130 0.25004
 N115 N 0.34842 0.03357 0.24432
 C116 C 0.39790 0.03011 0.30330
 N117 N 0.40072 0.00462 0.28481
 C118 C 0.42328 -0.01688 0.28988
 C119 C 0.44392 -0.01339 0.31462
 C120 C 0.41798 0.03441 0.32837
 C121 C 0.32618 -0.04165 0.23456
 C122 C 0.30581 -0.06662 0.23806
 C123 C 0.33191 -0.07997 0.28584
 C124 C 0.35172 -0.05468 0.28151
 N125 N 0.34870 -0.03629 0.25602
 H126 H 0.38025 0.04726 0.29856
 H127 H 0.42526 -0.03670 0.27456
 H128 H 0.46167 -0.03074 0.31831
 H129 H 0.41553 0.05474 0.34300
 H130 H 0.32403 -0.02639 0.21473
 H131 H 0.28810 -0.07054 0.22072
 H132 H 0.33452 -0.09454 0.30616
 H133 H 0.36932 -0.04972 0.29863
 C134 C 0.30776 0.08288 0.23652
 C135 C 0.44075 -0.01524 0.16551
 C136 C 0.30865 -0.08607 0.26397
 C137 C 0.44130 0.01253 0.33415
 C138 C 0.07875 -0.01213 0.70923
 H139 H 0.07657 -0.03257 0.72366
 C140 C 0.05845 -0.00762 0.68437
 H141 H 0.04062 -0.02468 0.67955
 C142 C 0.10427 0.03536 0.69814
 H143 H 0.12182 0.05232 0.70383
 C144 C 0.08456 0.04070 0.67301
 H145 H 0.08735 0.06168 0.65952
 N146 N 0.10128 0.00911 0.71545
 C147 C 0.17645 -0.03802 0.76374
 H148 H 0.17880 -0.02294 0.78371
 C149 C 0.19688 -0.06283 0.75969
 H150 H 0.21485 -0.06678 0.77674
 C151 C 0.15023 -0.05081 0.71707
 H152 H 0.13229 -0.04583 0.70032
 C153 C 0.17011 -0.07597 0.71219
 H154 H 0.16723 -0.09042 0.69179
 Zn155 Zn 0.12760 0.00207 0.74991
 N156 N 0.15354 -0.03264 0.74272
 C157 C 0.10554 -0.03138 0.80214
 N158 N 0.10219 -0.00502 0.78506
 C159 C 0.07980 0.01617 0.79190
 C160 C 0.05995 0.01143 0.81710
 C161 C 0.08631 -0.03694 0.82760
 C162 C 0.17624 0.04202 0.73478
 C163 C 0.19697 0.06666 0.73840
 C164 C 0.17147 0.07985 0.78657
 C165 C 0.15129 0.05486 0.78212
 N166 N 0.15384 0.03672 0.75637
 H167 H 0.12295 -0.04831 0.79598
 H168 H 0.07730 0.03669 0.77764
 H169 H 0.04217 0.02840 0.82235
 H170 H 0.08934 -0.05804 0.84085
 H171 H 0.17800 0.02696 0.71473
 H172 H 0.21456 0.07054 0.72093
 H173 H 0.16923 0.09426 0.80708
 H174 H 0.13374 0.04995 0.79931
 C175 C 0.19372 -0.08211 0.73366
 C176 C 0.06140 0.01899 0.66591
 C177 C 0.19462 0.08587 0.76456
 C178 C 0.06323 -0.01534 0.83527
 C179 C 0.57490 0.48666 0.20936
 H180 H 0.57282 0.46667 0.22442
 C181 C 0.55421 0.49058 0.18476
 H182 H 0.53631 0.47340 0.18095
 C183 C 0.60069 0.53353 0.19639
 H184 H 0.61857 0.55042 0.20123
 C185 C 0.58054 0.53828 0.17146
 H186 H 0.58313 0.55871 0.15704
 N187 N 0.59773 0.50785 0.21455
 C188 C 0.67208 0.45928 0.26298
 H189 H 0.67469 0.47383 0.28330
 C190 C 0.69190 0.43402 0.25843
 H191 H 0.70978 0.42902 0.27536
 C192 C 0.64601 0.44833 0.21577
 H193 H 0.62845 0.45423 0.19892
 C194 C 0.66525 0.42280 0.21039
 H195 H 0.66209 0.40921 0.18951
 Zn196 Zn 0.62411 0.50098 0.24897
 N197 N 0.64951 0.46578 0.24189
 C198 C 0.60115 0.46890 0.30199
 N199 N 0.59843 0.49474 0.28403
 C200 C 0.57621 0.51643 0.28980
 C201 C 0.55583 0.51278 0.31471
 C202 C 0.58132 0.46441 0.32722
 C203 C 0.67282 0.54106 0.23362
 C204 C 0.69348 0.56577 0.23737
 C205 C 0.66817 0.57844 0.28578
 C206 C 0.64808 0.55341 0.28121
 N207 N 0.65055 0.53550 0.25528
 H208 H 0.61851 0.45161 0.29670
 H209 H 0.57429 0.53654 0.27488
 H210 H 0.53835 0.53029 0.31893
 H211 H 0.58368 0.44381 0.34143
 H212 H 0.67453 0.52619 0.21344
 H213 H 0.71097 0.56988 0.21987
 H214 H 0.66596 0.59264 0.30643
 H215 H 0.63066 0.54829 0.29847
 C216 C 0.68847 0.41546 0.23193
 C217 C 0.55701 0.51664 0.16550
 C218 C 0.69117 0.58474 0.26372
 C219 C 0.55834 0.48649 0.33369
 C220 C 0.92184 0.51221 0.70904
 H221 H 0.92420 0.53284 0.72321
 C222 C 0.94164 0.50752 0.68381
 H223 H 0.95926 0.52462 0.67845
 C224 C 0.89638 0.46444 0.69897
 H225 H 0.87905 0.44745 0.70519
 C226 C 0.91558 0.45892 0.67346
 H227 H 0.91264 0.43778 0.66022
 N228 N 0.89957 0.49092 0.71595
 C229 C 0.82479 0.53830 0.76472
 H230 H 0.82285 0.52363 0.78501
 C231 C 0.80424 0.56300 0.76059
 H232 H 0.78657 0.56728 0.77788
 C233 C 0.85020 0.55028 0.71742
 H234 H 0.86791 0.54507 0.70048
 C235 C 0.83021 0.57531 0.71246
 H236 H 0.83276 0.58942 0.69181
 Zn237 Zn 0.87396 0.49842 0.75085
 N238 N 0.84738 0.53260 0.74343
 C239 C 0.89649 0.53314 0.80219
 N240 N 0.90010 0.50673 0.78519
 C241 C 0.92301 0.48603 0.79177
 C242 C 0.94298 0.49119 0.81677
 C243 C 0.91588 0.53913 0.82745
 C244 C 0.82582 0.45669 0.73816
 C245 C 0.80616 0.43140 0.74305
 C246 C 0.83334 0.42067 0.79088
 C247 C 0.85243 0.44624 0.78516
 N248 N 0.84861 0.46343 0.75894
 H249 H 0.87863 0.54966 0.79624
 H250 H 0.92566 0.46544 0.77758
 H251 H 0.96105 0.47450 0.82193
 H252 H 0.91256 0.56017 0.84077
 H253 H 0.82299 0.47102 0.71773
 H254 H 0.78816 0.42616 0.72631
 H255 H 0.83678 0.40721 0.81178
 H256 H 0.87019 0.45232 0.80174
 C257 C 0.80697 0.58185 0.73422
 C258 C 0.93844 0.48069 0.66566
 C259 C 0.80998 0.41303 0.76959
 C260 C 0.93934 0.51791 0.83498
 C261 C 0.20714 0.42234 0.01498
 H262 H 0.22134 0.42472 0.03555
 C263 C 0.18201 0.44227 0.01028
 H264 H 0.17675 0.46000 0.02733
 C265 C 0.19698 0.39678 -0.03272
 H266 H 0.20315 0.37940 -0.04971
 C267 C 0.17159 0.41611 -0.03824
 H268 H 0.15839 0.41319 -0.05938
 N269 N 0.21398 0.39998 -0.00629
 C270 C 0.26388 0.32561 0.04070
 H271 H 0.28397 0.32385 0.02576
 C272 C 0.26018 0.30488 0.06532
 H273 H 0.27762 0.28728 0.06928
 C274 C 0.21653 0.35061 0.05332
 H275 H 0.19938 0.36819 0.04835
 C276 C 0.21199 0.33042 0.07828
 H277 H 0.19146 0.33269 0.09258
 Zn278 Zn 0.24901 0.37442 0.00083
 N279 N 0.24234 0.34805 0.03532
 C280 C 0.30065 0.39758 0.03448
 N281 N 0.28345 0.40068 0.00818
 C282 C 0.28979 0.42329 -0.01293
 C283 C 0.31468 0.44354 -0.00825
 C284 C 0.32581 0.41724 0.03999
 C285 C 0.23527 0.32571 -0.03964
 C286 C 0.23946 0.30532 -0.06449
 C287 C 0.28713 0.33200 -0.07702
 C288 C 0.28211 0.35184 -0.05184
 N289 N 0.25632 0.34855 -0.03394
 H290 H 0.29487 0.37998 0.05134
 H291 H 0.27545 0.42556 -0.03340
 H292 H 0.31960 0.46142 -0.02522
 H293 H 0.33923 0.41435 0.06099
 H294 H 0.21519 0.32337 -0.02476
 H295 H 0.22239 0.28740 -0.06869
 H296 H 0.30765 0.33484 -0.09124
 H297 H 0.29889 0.36971 -0.04661
 C298 C 0.23398 0.30726 0.08441
 C299 C 0.16391 0.43913 -0.01655
 C300 C 0.26565 0.30845 -0.08349
 C301 C 0.33304 0.44046 0.01840
 C302 C 0.71051 0.07476 -0.01178
 H303 H 0.72491 0.07195 -0.03215
 C304 C 0.68538 0.05491 -0.00689
 H305 H 0.68033 0.03677 -0.02358
 C306 C 0.69967 0.10157 0.03508
 H307 H 0.70552 0.11951 0.05160
 C308 C 0.67425 0.08230 0.04079
 H309 H 0.66070 0.08578 0.06163
 N310 N 0.71695 0.09776 0.00892
 C311 C 0.76486 0.17147 -0.04116
 H312 H 0.78541 0.17412 -0.02699
 C313 C 0.75995 0.19118 -0.06641
 H314 H 0.77681 0.20903 -0.07179
 C315 C 0.71748 0.14537 -0.05117
 H316 H 0.70073 0.12783 -0.04491
 C317 C 0.71175 0.16448 -0.07669
 H318 H 0.69068 0.16126 -0.08992
 Zn319 Zn 0.75159 0.12356 0.00083
 N320 N 0.74387 0.14893 -0.03420
 C321 C 0.80385 0.10030 -0.03231
 N322 N 0.78611 0.09737 -0.00635
 C323 C 0.79201 0.07490 0.01504
 C324 C 0.81692 0.05459 0.01103
 C325 C 0.82909 0.08055 -0.03714
 C326 C 0.73836 0.17282 0.04137
 C327 C 0.74301 0.19298 0.06636
 C328 C 0.79099 0.16635 0.07769
 C329 C 0.78551 0.14677 0.05242
 N330 N 0.75932 0.15004 0.03510
 H331 H 0.79849 0.11789 -0.04933
 H332 H 0.77730 0.07285 0.03528
 H333 H 0.82133 0.03701 0.02839
 H334 H 0.84321 0.08317 -0.05777
 H335 H 0.71795 0.17521 0.02695
 H336 H 0.72610 0.21093 0.07127
 H337 H 0.81185 0.16327 0.09127
 H338 H 0.80224 0.12900 0.04672
 C339 C 0.73320 0.18764 -0.08452
 C340 C 0.66688 0.05876 0.01956
 C341 C 0.76947 0.18965 0.08491
 C342 C 0.83580 0.05743 -0.01530
 C343 C 0.20943 0.57498 0.48570
 H344 H 0.22465 0.57276 0.46585
 C345 C 0.18466 0.55444 0.48943
 H346 H 0.18089 0.53650 0.47226
 C347 C 0.19620 0.60103 0.53237
 H348 H 0.20098 0.61896 0.54925
 C349 C 0.17111 0.58103 0.53694
 H350 H 0.15651 0.58379 0.55722
 N351 N 0.21455 0.59788 0.50687
 C352 C 0.26332 0.67215 0.45844
 H353 H 0.28351 0.67483 0.47310
 C354 C 0.25896 0.69189 0.43310
 H355 H 0.27589 0.70980 0.42816
 C356 C 0.21625 0.64595 0.44727
 H357 H 0.19938 0.62838 0.45311
 C358 C 0.21107 0.66511 0.42167
 H359 H 0.19030 0.66187 0.40797
 Zn360 Zn 0.24904 0.62423 0.50012
 N361 N 0.24222 0.64955 0.46486
 C362 C 0.30216 0.60116 0.46837
 N363 N 0.28408 0.59845 0.49411
 C364 C 0.28973 0.57625 0.51583
 C365 C 0.31466 0.55585 0.51232
 C366 C 0.32742 0.58132 0.46403
 C367 C 0.23357 0.67322 0.53993
 C368 C 0.23732 0.69412 0.56445
 C369 C 0.28563 0.66881 0.57733
 C370 C 0.28106 0.64847 0.55249
 N371 N 0.25520 0.65085 0.53454
 H372 H 0.29697 0.61851 0.45106
 H373 H 0.27471 0.57435 0.53586
 H374 H 0.31880 0.53837 0.52984
 H375 H 0.34173 0.58367 0.44350
 H376 H 0.21345 0.67485 0.52502
 H377 H 0.21986 0.71173 0.56840
 H378 H 0.30624 0.66671 0.59154
 H379 H 0.29829 0.63097 0.54751
 C380 C 0.23263 0.68835 0.41439
 C381 C 0.16517 0.55747 0.51528
 C382 C 0.26363 0.69196 0.58342
 C383 C 0.33377 0.55835 0.48613
 C384 C 0.71064 0.92524 0.51470
 H385 H 0.72560 0.92740 0.53474
 C386 C 0.68576 0.94562 0.51087
 H387 H 0.68165 0.96338 0.52816
 C388 C 0.69814 0.89950 0.46765
 H389 H 0.70324 0.88176 0.45067
 C390 C 0.67294 0.91934 0.46299
 H391 H 0.65858 0.91663 0.44253
 N392 N 0.71619 0.90257 0.49339
 C393 C 0.76458 0.82798 0.54172
 H394 H 0.78512 0.82562 0.52750
 C395 C 0.75973 0.80785 0.56667
 H396 H 0.77664 0.78997 0.57177
 C397 C 0.71709 0.85372 0.55213
 H398 H 0.70025 0.87125 0.54613
 C399 C 0.71143 0.83419 0.57734
 H400 H 0.69032 0.83712 0.59057
 Zn401 Zn 0.75080 0.87645 0.50037
 N402 N 0.74348 0.85053 0.53510
 C403 C 0.80343 0.89955 0.53320
 N404 N 0.78543 0.90256 0.50743
 C405 C 0.79093 0.92526 0.48620
 C406 C 0.81565 0.94580 0.49017
 C407 C 0.82850 0.91955 0.53801
 C408 C 0.73687 0.82806 0.45890
 C409 C 0.74152 0.80804 0.43379
 C410 C 0.78983 0.83432 0.42304
 C411 C 0.78435 0.85374 0.44842
 N412 N 0.75804 0.85054 0.46555
 H413 H 0.79837 0.88176 0.55012
 H414 H 0.77599 0.92737 0.46612
 H415 H 0.81969 0.96361 0.47295
 H416 H 0.84280 0.91693 0.55851
 H417 H 0.71638 0.82569 0.47320
 H418 H 0.72452 0.79025 0.42864
 H419 H 0.81086 0.83728 0.40970
 H420 H 0.80125 0.87124 0.45443
 C421 C 0.73294 0.81098 0.58481
 C422 C 0.66658 0.94267 0.48478
 C423 C 0.76820 0.81121 0.41551
 C424 C 0.83475 0.94297 0.51634
 C425 C 0.01369 0.21064 0.42407
 H426 H 0.03379 0.22561 0.42565
 C427 C 0.01020 0.18598 0.44481
 H428 H 0.02780 0.18200 0.46223
 C429 C -0.03389 0.19798 0.39954
 H430 H -0.05122 0.20295 0.38216
 C431 C -0.03821 0.17299 0.41973
 H432 H -0.05876 0.15866 0.41763
 N433 N -0.00807 0.21602 0.40186
 C434 C 0.03751 0.26439 0.32571
 H435 H 0.02243 0.28435 0.32351
 C436 C 0.06217 0.26040 0.30509
 H437 H 0.06601 0.27748 0.28711
 C438 C 0.05051 0.21770 0.35179
 H439 H 0.04570 0.20091 0.36975
 C440 C 0.07550 0.21288 0.33172
 H441 H 0.08998 0.19251 0.33449
 Zn442 Zn -0.00193 0.25041 0.37522
 N443 N 0.03233 0.24334 0.34866
 C444 C 0.03153 0.30299 0.39676
 N445 N 0.00538 0.28568 0.40047
 C446 C -0.01550 0.29232 0.42320
 C447 C -0.01067 0.31755 0.44304
 C448 C 0.03717 0.32848 0.41600
 C449 C -0.04294 0.23489 0.32750
 C450 C -0.06782 0.23858 0.30711
 C451 C -0.08024 0.28702 0.33258
 C452 C -0.05502 0.28251 0.35242
 N453 N -0.03711 0.25662 0.34969
 H454 H 0.04821 0.29697 0.37907
 H455 H -0.03584 0.27788 0.42598
 H456 H -0.02741 0.32265 0.46109
 H457 H 0.05809 0.34193 0.41270
 H458 H -0.02806 0.21475 0.32558
 H459 H -0.07206 0.22105 0.28963
 H460 H -0.09439 0.30768 0.33492
 H461 H -0.04968 0.29982 0.36978
 C462 C 0.08150 0.23441 0.30812
 C463 C -0.01601 0.16685 0.44265
 C464 C -0.08672 0.26495 0.30957
 C465 C 0.01589 0.33593 0.43943
 C466 C -0.01529 0.70999 0.07577
 H467 H -0.03537 0.72494 0.07397
 C468 C -0.01169 0.68511 0.05526
 H469 H -0.02920 0.68094 0.03777
 C470 C 0.03216 0.69758 0.10064
 H471 H 0.04943 0.70273 0.11804
 C472 C 0.03659 0.67238 0.08070
 H473 H 0.05712 0.65808 0.08302
 N474 N 0.00637 0.71560 0.09805
 C475 C -0.03913 0.76491 0.17374
 H476 H -0.02387 0.78475 0.17584
 C477 C -0.06379 0.76125 0.19442
 H478 H -0.06745 0.77848 0.21233
 C479 C -0.05255 0.71815 0.14790
 H480 H -0.04789 0.70120 0.13001
 C481 C -0.07755 0.71367 0.16803
 H482 H -0.09219 0.69339 0.16540
 Zn483 Zn 0.00027 0.75025 0.12444
 N484 N -0.03415 0.74365 0.15089
 C485 C -0.03269 0.80290 0.10254
 N486 N -0.00662 0.78544 0.09901
 C487 C 0.01447 0.79197 0.07645
 C488 C 0.00999 0.81728 0.05668
 C489 C -0.03801 0.82846 0.08335
 C490 C 0.04084 0.73461 0.17240
 C491 C 0.06579 0.73801 0.19276
 C492 C 0.07888 0.78617 0.16717
 C493 C 0.05359 0.78193 0.14735
 N494 N 0.03534 0.75630 0.15013
 H495 H -0.04955 0.79698 0.12008
 H496 H 0.03475 0.77741 0.07380
 H497 H 0.02692 0.82232 0.03880
 H498 H -0.05885 0.84204 0.08655
 H499 H 0.02569 0.71467 0.17436
 H500 H 0.06980 0.72049 0.21027
 H501 H 0.09333 0.80660 0.16476
 H502 H 0.04851 0.79923 0.12994
 C503 C -0.08332 0.73539 0.19156
 C504 C 0.01451 0.66600 0.05772
 C505 C 0.08509 0.76407 0.19019
 C506 C -0.01646 0.83585 0.06016
 C507 C 0.48487 0.20861 0.57707
 H508 H 0.46485 0.22365 0.57525
 C509 C 0.48831 0.18366 0.55663
 H510 H 0.47073 0.17953 0.53921
 C511 C 0.53241 0.19620 0.60177
 H512 H 0.54979 0.20142 0.61905
 C513 C 0.53669 0.17092 0.58187
 H514 H 0.55723 0.15662 0.58409
 N515 N 0.50667 0.21429 0.59918
 C516 C 0.46103 0.26539 0.67373
 H517 H 0.47600 0.28550 0.67534
 C518 C 0.43638 0.26192 0.69449
 H519 H 0.43242 0.27954 0.71195
 C520 C 0.44833 0.21776 0.64916
 H521 H 0.45329 0.20038 0.63177
 C522 C 0.42337 0.21345 0.66934
 H523 H 0.40905 0.19289 0.66723
 Zn524 Zn 0.50079 0.24952 0.62484
 N525 N 0.46639 0.24359 0.65149
 C526 C 0.46862 0.30234 0.60143
 N527 N 0.49407 0.28391 0.59835
 C528 C 0.51518 0.28889 0.57542
 C529 C 0.51146 0.31359 0.55479
 C530 C 0.46406 0.32737 0.58134
 C531 C 0.54264 0.23547 0.67268
 C532 C 0.56791 0.24007 0.69244
 C533 C 0.57904 0.28804 0.66562
 C534 C 0.55350 0.28262 0.64644
 N535 N 0.53608 0.25652 0.65007
 H536 H 0.45178 0.29767 0.61938
 H537 H 0.53499 0.27361 0.57325
 H538 H 0.52858 0.31726 0.53682
 H539 H 0.44383 0.34203 0.58406
 H540 H 0.52811 0.21517 0.67539
 H541 H 0.57295 0.22320 0.71038
 H542 H 0.59258 0.30893 0.66238
 H543 H 0.54755 0.29945 0.62887
 C544 C 0.41726 0.23568 0.69230
 C545 C 0.51451 0.16456 0.55896
 C546 C 0.58642 0.26658 0.68890
 C547 C 0.48567 0.33316 0.55776
 C548 C 0.51210 0.71030 0.92278
 H549 H 0.53275 0.72435 0.92537
 C550 C 0.50688 0.68532 0.94275
 H551 H 0.52360 0.68003 0.96075
 C552 C 0.46486 0.70026 0.89646
 H553 H 0.44831 0.70638 0.87869
 C554 C 0.45881 0.67500 0.91585
 H555 H 0.43770 0.66182 0.91262
 N556 N 0.49135 0.71708 0.89998
 C557 C 0.54142 0.76416 0.82577
 H558 H 0.52749 0.78491 0.82328
 C559 C 0.56644 0.75897 0.80586
 H560 H 0.57188 0.77581 0.78800
 C561 C 0.55111 0.71662 0.85176
 H562 H 0.54483 0.69994 0.86936
 C563 C 0.57640 0.71059 0.83242
 H564 H 0.58943 0.68936 0.83553
 Zn565 Zn 0.49981 0.75157 0.87409
 N566 N 0.53444 0.74324 0.84837
 C567 C 0.53446 0.80289 0.89704
 N568 N 0.50790 0.78610 0.90013
 C569 C 0.48684 0.79289 0.92265
 C570 C 0.49183 0.81782 0.94281
 C571 C 0.54029 0.82810 0.91662
 C572 C 0.45893 0.73880 0.82520
 C573 C 0.43405 0.74378 0.80506
 C574 C 0.42354 0.79214 0.83154
 C575 C 0.44869 0.78632 0.85110
 N576 N 0.46555 0.75979 0.84788
 H577 H 0.55125 0.79677 0.87948
 H578 H 0.46614 0.77887 0.92491
 H579 H 0.47488 0.82309 0.96060
 H580 H 0.56147 0.84123 0.91375
 H581 H 0.47300 0.71812 0.82285
 H582 H 0.42886 0.72685 0.78718
 H583 H 0.41032 0.81327 0.83456
 H584 H 0.45468 0.80305 0.86879
 C585 C 0.58428 0.73200 0.80923
 C586 C 0.48006 0.66730 0.93922
 C587 C 0.41598 0.77062 0.80830
 C588 C 0.51874 0.83578 0.93975
 C589 C 0.14233 0.22780 0.29762
 C590 C 0.14708 0.19806 0.27796
 C591 C 0.15641 0.21842 0.25017
 C592 C 0.15202 0.24807 0.26956
 C593 C 0.12258 0.21992 0.23907
 C594 C 0.11288 0.19966 0.26712
 C595 C 0.10842 0.22934 0.28657
 C596 C 0.11784 0.24968 0.25871
 H597 H 0.15024 0.23115 0.32192
 H598 H 0.15931 0.17676 0.28573
 H599 H 0.16844 0.26791 0.27040
 H600 H 0.11472 0.21657 0.21475
 H601 H 0.09649 0.17979 0.26624
 H602 H 0.10609 0.27103 0.25036
 C603 C 0.60807 0.72272 0.75254
 C604 C 0.63519 0.74585 0.74799
 C605 C 0.65812 0.71852 0.74929
 C606 C 0.63136 0.69534 0.75355
 C607 C 0.66142 0.72217 0.78462
 C608 C 0.63814 0.74954 0.78362
 C609 C 0.61130 0.72636 0.78794
 C610 C 0.63432 0.69902 0.78918
 H611 H 0.58586 0.72294 0.73952
 H612 H 0.63574 0.76510 0.73087
 H613 H 0.62881 0.67301 0.74091
 H614 H 0.68366 0.72195 0.79760
 H615 H 0.64074 0.77189 0.79624
 H616 H 0.63442 0.67951 0.80598
 C617 C 0.36573 0.80308 0.78810
 C618 C 0.36868 0.80665 0.75247
 C619 C 0.34211 0.78325 0.74824
 C620 C 0.33884 0.77969 0.78358
 C621 C 0.36525 0.75610 0.74697
 C622 C 0.39219 0.77946 0.75151
 C623 C 0.38898 0.77592 0.78691
 C624 C 0.36233 0.75251 0.78262
 H625 H 0.36545 0.82266 0.80486
 H626 H 0.37105 0.82897 0.73979
 H627 H 0.31659 0.77977 0.79655
 H628 H 0.36485 0.73679 0.72988
 H629 H 0.41441 0.77939 0.73849
 H630 H 0.35991 0.73019 0.79527
 C631 C -0.12277 0.24937 0.26008
 C632 C -0.15708 0.25151 0.27048
 C633 C -0.16086 0.28092 0.25069
 C634 C -0.12693 0.27890 0.24000
 C635 C -0.15169 0.30161 0.27832
 C636 C -0.14750 0.27209 0.29842
 C637 C -0.11348 0.27001 0.28780
 C638 C -0.11737 0.29946 0.26793
 H639 H -0.11118 0.22779 0.25212
 H640 H -0.17371 0.23184 0.27138
 H641 H -0.11869 0.28182 0.21576
 H642 H -0.16375 0.32317 0.28572
 H643 H -0.15573 0.26917 0.32266
 H644 H -0.10075 0.31913 0.26701
 C645 C -0.14414 0.72919 0.20241
 C646 C -0.14893 0.69961 0.22224
 C647 C -0.15800 0.72020 0.24999
 C648 C -0.15357 0.74970 0.23043
 C649 C -0.12410 0.72161 0.26089
 C650 C -0.11467 0.70111 0.23289
 C651 C -0.11017 0.73063 0.21326
 C652 C -0.11932 0.75121 0.24108
 H653 H -0.15217 0.73241 0.17814
 H654 H -0.16131 0.67831 0.21464
 H655 H -0.16990 0.76962 0.22959
 H656 H -0.11613 0.71838 0.28518
 H657 H -0.09838 0.68116 0.23376
 H658 H -0.10742 0.77255 0.24926
 C659 C 0.35655 0.22887 0.70330
 C660 C 0.35220 0.19945 0.72347
 C661 C 0.34284 0.22026 0.75096
 C662 C 0.34679 0.24959 0.73107
 C663 C 0.37669 0.22230 0.76189
 C664 C 0.38644 0.20161 0.73412
 C665 C 0.39050 0.23095 0.71413
 C666 C 0.38104 0.25174 0.74170
 H667 H 0.34849 0.23168 0.67899
 H668 H 0.34021 0.17786 0.71605
 H669 H 0.33018 0.26926 0.72997
 H670 H 0.38474 0.21949 0.78621
 H671 H 0.40302 0.18192 0.73524
 H672 H 0.39268 0.27334 0.74956
 C673 C 0.61007 0.27575 0.74563
 C674 C 0.63677 0.25223 0.75051
 C675 C 0.66015 0.27919 0.74918
 C676 C 0.63379 0.30275 0.74458
 C677 C 0.66363 0.27523 0.71390
 C678 C 0.63990 0.24824 0.71492
 C679 C 0.61346 0.27181 0.71028
 C680 C 0.63694 0.29878 0.70901
 H681 H 0.58777 0.27598 0.75851
 H682 H 0.63690 0.23309 0.76776
 H683 H 0.63152 0.32521 0.75705
 H684 H 0.68595 0.27501 0.70107
 H685 H 0.64221 0.22577 0.70248
 H686 H 0.63748 0.31818 0.69208
 C687 C 0.14597 0.77053 0.20083
 C688 C 0.15063 0.79992 0.22104
 C689 C 0.15992 0.77908 0.24848
 C690 C 0.15563 0.74977 0.22856
 C691 C 0.12607 0.77732 0.25947
 C692 C 0.11641 0.79807 0.23177
 C693 C 0.11205 0.76874 0.21178
 C694 C 0.12142 0.74791 0.23929
 H695 H 0.15394 0.76762 0.17650
 H696 H 0.16285 0.82138 0.21368
 H697 H 0.17209 0.72997 0.22741
 H698 H 0.11814 0.78023 0.28382
 H699 H 0.10000 0.81790 0.23296
 H700 H 0.10969 0.72640 0.24724
 C701 C 0.26599 0.11353 0.20229
 C702 C 0.23807 0.12301 0.22281
 C703 C 0.24867 0.15704 0.22093
 C704 C 0.27634 0.14791 0.20032
 C705 C 0.26843 0.15316 0.25036
 C706 C 0.25810 0.11877 0.25234
 C707 C 0.28583 0.10957 0.23173
 C708 C 0.29637 0.14367 0.22983
 H709 H 0.26512 0.09696 0.18255
 H710 H 0.21385 0.11477 0.21981
 H711 H 0.28371 0.16008 0.17885
 H712 H 0.26925 0.16977 0.27006
 H713 H 0.25020 0.10702 0.27385
 H714 H 0.32057 0.15196 0.23282
 C715 C 0.75785 0.61849 0.74953
 C716 C 0.76881 0.65268 0.74772
 C717 C 0.74929 0.65701 0.71820
 C718 C 0.73809 0.62317 0.71990
 C719 C 0.77690 0.64748 0.69770
 C720 C 0.79670 0.64279 0.72731
 C721 C 0.78554 0.60887 0.72906
 C722 C 0.76597 0.61326 0.69950
 H723 H 0.74955 0.60687 0.77095
 H724 H 0.76982 0.66921 0.76748
 H725 H 0.71376 0.61536 0.71673
 H726 H 0.78458 0.65963 0.67632
 H727 H 0.82102 0.65064 0.73048
 H728 H 0.76492 0.59676 0.67972
 C729 C 0.75358 0.38873 0.77868
 C730 C 0.74904 0.36201 0.75502
 C731 C 0.75060 0.33854 0.78187
 C732 C 0.75481 0.36489 0.80558
 C733 C 0.78588 0.33542 0.77804
 C734 C 0.78465 0.35928 0.75116
 C735 C 0.78894 0.38573 0.77485
 C736 C 0.79041 0.36215 0.80171
 H737 H 0.74048 0.41093 0.77896
 H738 H 0.73190 0.36183 0.73580
 H739 H 0.74227 0.36697 0.82800
 H740 H 0.79897 0.31321 0.77776
 H741 H 0.79716 0.35717 0.72874
 H742 H 0.80731 0.36181 0.82113
 C743 C 0.25945 -0.12249 0.24816
 C744 C 0.27022 -0.15676 0.24992
 C745 C 0.25058 -0.16101 0.27937
 C746 C 0.23953 -0.12712 0.27771
 C747 C 0.27816 -0.15169 0.30001
 C748 C 0.29809 -0.14704 0.27047
 C749 C 0.28711 -0.11306 0.26876
 C750 C 0.26740 -0.11742 0.29823
 H751 H 0.25135 -0.11075 0.22672
 H752 H 0.27122 -0.17325 0.23012
 H753 H 0.21524 -0.11917 0.28080
 H754 H 0.28576 -0.16386 0.32141
 H755 H 0.32238 -0.15500 0.26738
 H756 H 0.26637 -0.10095 0.31805
 C757 C 0.20421 -0.14307 0.72699
 C758 C 0.22373 -0.14785 0.69719
 C759 C 0.25159 -0.15706 0.71748
 C760 C 0.23236 -0.15269 0.74718
 C761 C 0.26266 -0.12317 0.71890
 C762 C 0.23450 -0.11356 0.69874
 C763 C 0.21520 -0.10909 0.72847
 C764 C 0.24315 -0.11842 0.74871
 H765 H 0.17996 -0.15102 0.73044
 H766 H 0.21584 -0.16013 0.67593
 H767 H 0.23163 -0.16909 0.76704
 H768 H 0.28691 -0.11522 0.71545
 H769 H 0.23525 -0.09717 0.67887
 H770 H 0.25159 -0.10661 0.77000
 C771 C 0.74519 0.39171 0.22311
 C772 C 0.74990 0.36497 0.24664
 C773 C 0.74867 0.34153 0.21970
 C774 C 0.74425 0.36792 0.19613
 C775 C 0.71340 0.33811 0.22343
 C776 C 0.71432 0.36190 0.25041
 C777 C 0.70984 0.38836 0.22682
 C778 C 0.70868 0.36483 0.19987
 H779 H 0.75809 0.41402 0.22296
 H780 H 0.76704 0.36483 0.26588
 H781 H 0.75683 0.37016 0.17376
 H782 H 0.70054 0.31577 0.22357
 H783 H 0.70176 0.35962 0.27279
 H784 H 0.69188 0.36429 0.18037
 C785 C 0.73283 0.61544 0.29818
 C786 C 0.76065 0.62518 0.27766
 C787 C 0.74987 0.65913 0.27980
 C788 C 0.72231 0.64975 0.30042
 C789 C 0.73006 0.65528 0.25039
 C790 C 0.74059 0.62097 0.24814
 C791 C 0.71296 0.61151 0.26875
 C792 C 0.70222 0.64554 0.27093
 H793 H 0.73385 0.59877 0.31780
 H794 H 0.78492 0.61706 0.28054
 H795 H 0.71494 0.66180 0.32199
 H796 H 0.72910 0.67199 0.23081
 H797 H 0.74852 0.60939 0.22654
 H798 H 0.67798 0.65370 0.26805
 C799 C 0.23643 0.11666 0.79876
 C800 C 0.26428 0.12622 0.77815
 C801 C 0.25352 0.16018 0.78007
 C802 C 0.22596 0.15101 0.80080
 C803 C 0.23370 0.15624 0.75071
 C804 C 0.24415 0.12187 0.74868
 C805 C 0.21651 0.11260 0.76938
 C806 C 0.20585 0.14667 0.77134
 H807 H 0.23741 0.10011 0.81848
 H808 H 0.28852 0.11805 0.78106
 H809 H 0.21855 0.16313 0.82232
 H810 H 0.23273 0.17281 0.73100
 H811 H 0.25203 0.11014 0.72714
 H812 H 0.18161 0.15485 0.76844
 C813 C 0.22702 0.29621 0.14516
 C814 C 0.19768 0.27594 0.14944
 C815 C 0.21846 0.24845 0.15878
 C816 C 0.24771 0.26845 0.15486
 C817 C 0.22053 0.23761 0.12485
 C818 C 0.19985 0.26536 0.11515
 C819 C 0.22912 0.28543 0.11116
 C820 C 0.24989 0.25787 0.12057
 H821 H 0.22978 0.32053 0.15330
 H822 H 0.17613 0.28324 0.16150
 H823 H 0.26733 0.26955 0.17151
 H824 H 0.21776 0.21328 0.11677
 H825 H 0.18020 0.26422 0.09854
 H826 H 0.27149 0.25001 0.10897
 C827 C 0.72336 0.75401 0.60784
 C828 C 0.74659 0.74873 0.63473
 C829 C 0.71950 0.75008 0.65792
 C830 C 0.69622 0.75505 0.63139
 C831 C 0.72364 0.78532 0.66173
 C832 C 0.75077 0.78430 0.63819
 C833 C 0.72747 0.78933 0.61159
 C834 C 0.70037 0.79059 0.63489
 H835 H 0.72323 0.74130 0.58541
 H836 H 0.76559 0.73133 0.63487
 H837 H 0.67374 0.74275 0.62881
 H838 H 0.72376 0.79799 0.68419
 H839 H 0.77326 0.79658 0.64081
 H840 H 0.68110 0.80765 0.63547
 C841 C 0.80042 0.79101 0.36508
 C842 C 0.80419 0.75539 0.36809
 C843 C 0.78078 0.75098 0.34157
 C844 C 0.77701 0.78631 0.33825
 C845 C 0.75375 0.74964 0.36482
 C846 C 0.77712 0.75436 0.39170
 C847 C 0.77338 0.78977 0.38845
 C848 C 0.74995 0.78529 0.36186
 H849 H 0.81988 0.80786 0.36467
 H850 H 0.82655 0.74282 0.37042
 H851 H 0.77695 0.79924 0.31596
 H852 H 0.73457 0.73244 0.36450
 H853 H 0.77719 0.74140 0.41396
 H854 H 0.72758 0.79784 0.35948
 C855 C 0.30065 0.26746 -0.11460
 C856 C 0.28045 0.23942 -0.12454
 C857 C 0.28236 0.25051 -0.15838
 C858 C 0.30266 0.27828 -0.14881
 C859 C 0.25277 0.26996 -0.15431
 C860 C 0.25074 0.25912 -0.12013
 C861 C 0.27102 0.28698 -0.11046
 C862 C 0.27297 0.29802 -0.14438
 H863 H 0.32030 0.26656 -0.09798
 H864 H 0.28365 0.21509 -0.11665
 H865 H 0.32409 0.28601 -0.16083
 H866 H 0.23315 0.27082 -0.17097
 H867 H 0.22928 0.25077 -0.10865
 H868 H 0.26978 0.32233 -0.15231
 C869 C 0.70076 0.20732 -0.13506
 C870 C 0.69675 0.24294 -0.13210
 C871 C 0.72019 0.24743 -0.15858
 C872 C 0.72418 0.21211 -0.16188
 C873 C 0.74716 0.24898 -0.13527
 C874 C 0.72378 0.24420 -0.10844
 C875 C 0.72776 0.20882 -0.11167
 C876 C 0.75120 0.21336 -0.13823
 H877 H 0.68144 0.19031 -0.13542
 H878 H 0.67431 0.25537 -0.12982
 H879 H 0.72435 0.19913 -0.18416
 H880 H 0.76625 0.26628 -0.13554
 H881 H 0.72360 0.25723 -0.08619
 H882 H 0.77365 0.20096 -0.14055
 C883 C 0.25145 0.71415 0.36092
 C884 C 0.22470 0.71292 0.33696
 C885 C 0.22071 0.74824 0.34021
 C886 C 0.24743 0.74978 0.36381
 C887 C 0.19698 0.74378 0.36643
 C888 C 0.20097 0.70817 0.36350
 C889 C 0.22770 0.70963 0.38721
 C890 C 0.22374 0.74502 0.39039
 H891 H 0.27391 0.70171 0.35885
 H892 H 0.22511 0.69994 0.31469
 H893 H 0.26652 0.76708 0.36372
 H894 H 0.17453 0.75624 0.36846
 H895 H 0.18161 0.69122 0.36286
 H896 H 0.22331 0.75804 0.41263
 C897 C 0.24816 0.74186 0.61919
 C898 C 0.25054 0.73170 0.65358
 C899 C 0.27994 0.75158 0.65708
 C900 C 0.27767 0.76200 0.62305
 C901 C 0.30049 0.72387 0.64788
 C902 C 0.27101 0.70371 0.64403
 C903 C 0.26871 0.71408 0.60993
 C904 C 0.29813 0.73402 0.61350
 H905 H 0.22653 0.74967 0.60764
 H906 H 0.23104 0.73093 0.67038
 H907 H 0.28053 0.78621 0.61468
 H908 H 0.32209 0.71661 0.65988
 H909 H 0.26816 0.67951 0.65245
 H910 H 0.31766 0.73485 0.59674
 C911 C 0.77820 0.24643 0.10895
 C912 C 0.75442 0.25108 0.13547
 C913 C 0.78108 0.24969 0.15915
 C914 C 0.80491 0.24534 0.13299
 C915 C 0.77726 0.21435 0.16233
 C916 C 0.75057 0.21543 0.13831
 C917 C 0.77440 0.21103 0.11207
 C918 C 0.80107 0.20971 0.13584
 H919 H 0.77861 0.25945 0.08673
 H920 H 0.73523 0.26827 0.13553
 H921 H 0.82730 0.25792 0.13104
 H922 H 0.77685 0.20137 0.18458
 H923 H 0.72816 0.20289 0.14031
 H924 H 0.82051 0.19284 0.13646
 C925 C 0.47934 0.39408 0.54717
 C926 C 0.49974 0.40369 0.51918
 C927 C 0.47024 0.40811 0.49967
 C928 C 0.44976 0.39886 0.52739
 C929 C 0.47172 0.37420 0.48860
 C930 C 0.50132 0.36941 0.50837
 C931 C 0.48085 0.36009 0.53615
 C932 C 0.45133 0.36459 0.51658
 H933 H 0.48258 0.40204 0.57147
 H934 H 0.51959 0.42009 0.52007
 H935 H 0.42849 0.41117 0.53508
 H936 H 0.46847 0.36630 0.46428
 H937 H 0.52264 0.35757 0.50013
 H938 H 0.43145 0.34822 0.51564
 C939 C -0.04849 0.88648 0.04017
 C940 C -0.02499 0.91327 0.03559
 C941 C -0.02873 0.91001 0.00027
 C942 C -0.05225 0.88354 0.00457
 C943 C -0.00179 0.88665 -0.00112
 C944 C 0.00200 0.88955 0.03452
 C945 C -0.02153 0.86301 0.03887
 C946 C -0.02526 0.85982 0.00348
 H947 H -0.06797 0.88692 0.05699
 H948 H -0.02487 0.93555 0.04858
 H949 H -0.07460 0.88131 -0.00802
 H950 H 0.01741 0.88692 -0.01829
 H951 H 0.02436 0.89183 0.04709
 H952 H -0.02539 0.83757 -0.00956
 C953 C -0.00127 0.62940 0.00854
 C954 C 0.02822 0.62478 -0.01146
 C955 C 0.03005 0.59094 -0.00032
 C956 C 0.00066 0.59517 0.01940
 C957 C 0.05071 0.60041 0.02721
 C958 C 0.04876 0.63465 0.01635
 C959 C 0.01936 0.63899 0.03615
 C960 C 0.02123 0.60505 0.04721
 H961 H -0.02274 0.64107 0.00047
 H962 H 0.03122 0.63266 -0.03581
 H963 H -0.01906 0.57863 0.02051
 H964 H 0.07215 0.58833 0.03479
 H965 H 0.06849 0.65117 0.01522
 H966 H 0.01823 0.59717 0.07156
 C967 C 0.49847 0.12810 0.50976
 C968 C 0.52776 0.12393 0.48938
 C969 C 0.53006 0.09001 0.50021
 C970 C 0.50088 0.09382 0.52032
 C971 C 0.55091 0.09953 0.52758
 C972 C 0.54852 0.13380 0.51701
 C973 C 0.51931 0.13769 0.53720
 C974 C 0.52164 0.10370 0.54797
 H975 H 0.47678 0.13959 0.50201
 H976 H 0.53038 0.13199 0.46506
 H977 H 0.48135 0.07706 0.52151
 H978 H 0.57256 0.08758 0.53478
 H979 H 0.56808 0.15052 0.51578
 H980 H 0.51903 0.09559 0.57229
 C981 C -0.02273 0.10601 0.45364
 C982 C -0.00188 0.09635 0.48129
 C983 C -0.03104 0.09229 0.50138
 C984 C -0.05197 0.10159 0.47401
 C985 C -0.02904 0.12624 0.51224
 C986 C 0.00022 0.13065 0.49189
 C987 C -0.02069 0.14003 0.46445
 C988 C -0.04987 0.13590 0.48461
 H989 H -0.02002 0.09790 0.42932
 H990 H 0.01779 0.07976 0.48009
 H991 H -0.07350 0.08943 0.46680
 H992 H -0.03175 0.13429 0.53658
 H993 H 0.02180 0.14234 0.49967
 H994 H -0.06957 0.15245 0.48586
 C995 C 0.47056 0.64360 0.99588
 C996 C 0.44342 0.62004 0.99472
 C997 C 0.46675 0.59345 0.99922
 C998 C 0.49383 0.61665 1.00067
 C999 C 0.47065 0.59005 0.96393
 C1000 C 0.44735 0.61698 0.95913
 C1001 C 0.47446 0.64027 0.96052
 C1002 C 0.49778 0.61359 0.96508
 H1003 H 0.47051 0.66589 1.00884
 H1004 H 0.42102 0.62245 1.00719
 H1005 H 0.51295 0.61631 1.01793
 H1006 H 0.47069 0.56772 0.95100
 H1007 H 0.42799 0.61668 0.94217
 H1008 H 0.52020 0.61112 0.95264
 C1009 C 0.55139 0.88586 0.96043
 C1010 C 0.52816 0.91290 0.96511
 C1011 C 0.53160 0.90927 1.00041
 C1012 C 0.55487 0.88260 0.99605
 C1013 C 0.50436 0.88622 1.00140
 C1014 C 0.50089 0.88946 0.96576
 C1015 C 0.52415 0.86269 0.96131
 C1016 C 0.52758 0.85918 0.99670
 H1017 H 0.57096 0.88615 0.94372
 H1018 H 0.52837 0.93527 0.95231
 H1019 H 0.57711 0.87999 1.00877
 H1020 H 0.48501 0.88651 1.01839
 H1021 H 0.47866 0.89209 0.95305
 H1022 H 0.52736 0.83681 1.00950
 C1023 C 0.02546 0.35938 0.49619
 C1024 C 0.05253 0.38302 0.49509
 C1025 C 0.02913 0.40949 0.49991
 C1026 C 0.00211 0.38621 0.50135
 C1027 C 0.02502 0.41315 0.46469
 C1028 C 0.04839 0.38631 0.45954
 C1029 C 0.02136 0.36292 0.46088
 C1030 C -0.00204 0.38948 0.46579
 H1031 H 0.02566 0.33699 0.50896
 H1032 H 0.07502 0.38058 0.50740
 H1033 H -0.01694 0.38630 0.51869
 H1034 H 0.02482 0.43554 0.45193
 H1035 H 0.06766 0.38682 0.44249
 H1036 H -0.02452 0.39194 0.45348
 C1037 C 0.36484 0.51683 0.45187
 C1038 C 0.39903 0.52761 0.44982
 C1039 C 0.40850 0.50007 0.47046
 C1040 C 0.37467 0.48904 0.47242
 C1041 C 0.40442 0.51989 0.49986
 C1042 C 0.39458 0.54770 0.47930
 C1043 C 0.36068 0.53672 0.48129
 C1044 C 0.37022 0.50912 0.50193
 H1045 H 0.34829 0.51570 0.43217
 H1046 H 0.41108 0.53508 0.42831
 H1047 H 0.36674 0.46468 0.46948
 H1048 H 0.42102 0.52097 0.51952
 H1049 H 0.40256 0.57205 0.48223
 H1050 H 0.35862 0.50111 0.52347
 C1051 C 0.86756 0.01653 -0.04990
 C1052 C 0.90166 0.02772 -0.05171
 C1053 C 0.91129 0.00020 -0.03113
 C1054 C 0.87760 -0.01129 -0.02945
 C1055 C 0.90682 0.01978 -0.00164
 C1056 C 0.89677 0.04759 -0.02212
 C1057 C 0.86298 0.03618 -0.02038
 C1058 C 0.87275 0.00857 0.00015
 H1059 H 0.85112 0.01531 -0.06970
 H1060 H 0.91372 0.03550 -0.07311
 H1061 H 0.86995 -0.03572 -0.03259
 H1062 H 0.92327 0.02098 0.01815
 H1063 H 0.90441 0.07202 -0.01898
 H1064 H 0.86116 0.00023 0.02157
 C1065 C 0.61335 0.03321 0.00098
 C1066 C 0.61602 -0.00242 0.00504
 C1067 C 0.59243 -0.00071 0.03177
 C1068 C 0.58942 0.03462 0.02775
 C1069 C 0.61864 0.00366 0.05554
 C1070 C 0.64258 0.00224 0.02877
 C1071 C 0.63964 0.03763 0.02475
 C1072 C 0.61596 0.03928 0.05150
 H1073 H 0.61136 0.04561 -0.02151
 H1074 H 0.61584 -0.01974 -0.01406
 H1075 H 0.56725 0.04773 0.02731
 H1076 H 0.62057 -0.00878 0.07802
 H1077 H 0.66472 -0.01091 0.02921
 H1078 H 0.61549 0.05630 0.07085
 C1079 C 0.13369 0.51618 0.54953
 C1080 C 0.09947 0.52698 0.55118
 C1081 C 0.09021 0.49936 0.53050
 C1082 C 0.12405 0.48829 0.52895
 C1083 C 0.09465 0.51904 0.50111
 C1084 C 0.10428 0.54694 0.52170
 C1085 C 0.13820 0.53591 0.52010
 C1086 C 0.12884 0.50822 0.49944
 H1087 H 0.15003 0.51513 0.56941
 H1088 H 0.08718 0.53454 0.57253
 H1089 H 0.13192 0.46394 0.53204
 H1090 H 0.07827 0.52005 0.48125
 H1091 H 0.09636 0.57127 0.51860
 H1092 H 0.14061 0.50005 0.47804
 C1093 C 0.11371 0.45935 -0.04901
 C1094 C 0.08685 0.46431 -0.02569
 C1095 C 0.09040 0.49961 -0.02960
 C1096 C 0.11694 0.49494 -0.05293
 C1097 C 0.11356 0.50095 -0.00247
 C1098 C 0.11036 0.46534 0.00147
 C1099 C 0.13697 0.46062 -0.02188
 C1100 C 0.14046 0.49598 -0.02576
 H1101 H 0.11326 0.44240 -0.06842
 H1102 H 0.06450 0.45150 -0.02566
 H1103 H 0.11942 0.50738 -0.07535
 H1104 H 0.11329 0.51825 0.01666
 H1105 H 0.10784 0.45292 0.02390
 H1106 H 0.16278 0.50883 -0.02581
 C1107 C 0.60565 0.95267 0.47818
 C1108 C 0.59568 0.98050 0.49872
 C1109 C 0.59120 1.00008 0.46927
 C1110 C 0.60077 0.97253 0.44863
 C1111 C 0.62491 1.01152 0.47091
 C1112 C 0.62978 0.99165 0.50047
 C1113 C 0.63946 0.96401 0.47987
 C1114 C 0.63487 0.98367 0.45040
 H1115 H 0.59796 0.92826 0.48128
 H1116 H 0.57926 0.97935 0.51853
 H1117 H 0.58868 0.96475 0.42724
 H1118 H 0.63259 1.03593 0.46781
 H1119 H 0.64143 0.99995 0.52189
 H1120 H 0.65128 0.98484 0.43057
 C1121 C 0.87093 0.99246 0.50102
 C1122 C 0.87545 1.01231 0.53067
 C1123 C 0.90932 1.00138 0.53233
 C1124 C 0.90518 0.98181 0.50278
 C1125 C 0.90013 0.97363 0.55282
 C1126 C 0.86586 0.98428 0.55104
 C1127 C 0.86161 0.96463 0.52146
 C1128 C 0.89557 0.95377 0.52317
 H1129 H 0.85923 1.00067 0.47961
 H1130 H 0.86741 1.03661 0.53387
 H1131 H 0.92165 0.98094 0.48299
 H1132 H 0.91230 0.96599 0.57420
 H1133 H 0.84940 0.98516 0.57083
 H1134 H 0.90362 0.92948 0.51998
 C1135 C 0.38338 0.46101 0.05048
 C1136 C 0.41003 0.46596 0.02692
 C1137 C 0.40641 0.50126 0.03080
 C1138 C 0.38008 0.49660 0.05437
 C1139 C 0.38302 0.50244 0.00387
 C1140 C 0.38629 0.46682 -0.00003
 C1141 C 0.35989 0.46211 0.02355
 C1142 C 0.35633 0.49747 0.02740
 H1143 H 0.38403 0.44413 0.06991
 H1144 H 0.43240 0.45322 0.02672
 H1145 H 0.37776 0.50912 0.07679
 H1146 H 0.38308 0.51966 -0.01528
 H1147 H 0.38865 0.45433 -0.02246
 H1148 H 0.33398 0.51025 0.02762
 C1149 C 0.51679 0.45212 0.36454
 C1150 C 0.52752 0.44983 0.39875
 C1151 C 0.50007 0.47052 0.40835
 C1152 C 0.48908 0.47271 0.37450
 C1153 C 0.51993 0.49990 0.40447
 C1154 C 0.54766 0.47929 0.39451
 C1155 C 0.53673 0.48151 0.36058
 C1156 C 0.50920 0.50220 0.37025
 H1157 H 0.51563 0.43250 0.34783
 H1158 H 0.53491 0.42821 0.41067
 H1159 H 0.46476 0.46990 0.36653
 H1160 H 0.52104 0.51948 0.42122
 H1161 H 0.57196 0.48210 0.40253
 H1162 H 0.50126 0.52385 0.35880
 C1163 C 0.03692 0.00264 0.88884
 C1164 C 0.00140 -0.00155 0.88560
 C1165 C 0.00287 -0.02863 0.90882
 C1166 C 0.03808 -0.02447 0.91241
 C1167 C 0.00769 -0.05201 0.88229
 C1168 C 0.00652 -0.02489 0.85872
 C1169 C 0.04180 -0.02076 0.86224
 C1170 C 0.04319 -0.04784 0.88556
 H1171 H 0.04919 0.02518 0.89134
 H1172 H -0.01598 0.01747 0.88582
 H1173 H 0.05084 -0.02430 0.93479
 H1174 H -0.00460 -0.07454 0.87983
 H1175 H -0.00629 -0.02507 0.83637
 H1176 H 0.06023 -0.06714 0.88605
 C1177 C 0.04066 0.05095 0.61560
 C1178 C 0.03561 0.02735 0.58895
 C1179 C 0.00039 0.03119 0.59271
 C1180 C 0.00515 0.05480 0.61905
 C1181 C -0.00071 0.00426 0.61611
 C1182 C 0.03484 0.00038 0.61271
 C1183 C 0.03966 0.02401 0.63912
 C1184 C 0.00436 0.02783 0.64282
 H1185 H 0.05750 0.07042 0.61487
 H1186 H 0.04825 0.02714 0.56650
 H1187 H -0.00734 0.07722 0.62144
 H1188 H -0.01791 -0.01492 0.61610
 H1189 H 0.04731 -0.02204 0.61028
 H1190 H -0.00831 0.02805 0.66524
 C1191 C 0.54584 0.52346 0.10471
 C1192 C 0.51781 0.50303 0.09526
 C1193 C 0.49820 0.53255 0.09123
 C1194 C 0.52595 0.55308 0.10032
 C1195 C 0.48754 0.53086 0.12522
 C1196 C 0.50739 0.50122 0.12959
 C1197 C 0.53522 0.52172 0.13877
 C1198 C 0.51556 0.55129 0.13468
 H1199 H 0.57003 0.52031 0.09649
 H1200 H 0.51856 0.48325 0.07873
 H1201 H 0.53343 0.57448 0.08806
 H1202 H 0.46333 0.53402 0.13340
 H1203 H 0.49929 0.47978 0.14133
 H1204 H 0.51476 0.57109 0.15117
 C1205 C 0.45208 -0.02198 0.10468
 C1206 C 0.48012 -0.00153 0.09534
 C1207 C 0.49976 -0.03105 0.09135
 C1208 C 0.47200 -0.05158 0.10033
 C1209 C 0.51032 -0.02930 0.12537
 C1210 C 0.49043 0.00033 0.12971
 C1211 C 0.46259 -0.02019 0.13878
 C1212 C 0.48229 -0.04974 0.13471
 H1213 H 0.42790 -0.01885 0.09639
 H1214 H 0.47941 0.01823 0.07882
 H1215 H 0.46458 -0.07300 0.08804
 H1216 H 0.53450 -0.03243 0.13363
 H1217 H 0.49845 0.02179 0.14152
 H1218 H 0.48306 -0.06953 0.15120
 C1219 C 0.99498 0.47171 0.64155
 C1220 C 0.99379 0.44471 0.61778
 C1221 C 0.99810 0.46830 0.59138
 C1222 C 0.99958 0.49525 0.61479
 C1223 C 0.96281 0.47213 0.58822
 C1224 C 0.95822 0.44856 0.61495
 C1225 C 0.95963 0.47552 0.63846
 C1226 C 0.96399 0.49912 0.61198
 H1227 H 1.00804 0.47152 0.66375
 H1228 H 1.00632 0.42229 0.61992
 H1229 H 1.01677 0.51444 0.61452
 H1230 H 0.94980 0.47231 0.56599
 H1231 H 0.94134 0.42911 0.61453
 H1232 H 0.95148 0.52155 0.60979
 C1233 C 0.99590 0.52736 0.85896
 C1234 C 0.99463 0.55452 0.88255
 C1235 C 0.99901 0.53113 0.90911
 C1236 C 1.00058 0.50403 0.88588
 C1237 C 0.96374 0.52721 0.91230
 C1238 C 0.95907 0.55057 0.88541
 C1239 C 0.96056 0.52344 0.86209
 C1240 C 0.96500 0.50006 0.88873
 H1241 H 1.00895 0.52744 0.83675
 H1242 H 1.00709 0.57697 0.88025
 H1243 H 1.01782 0.48489 0.88628
 H1244 H 0.95073 0.52714 0.93454
 H1245 H 0.94214 0.56998 0.88568
 H1246 H 0.95257 0.47760 0.89108
 C1247 C 0.49099 -0.00318 0.36997
 C1248 C 0.51082 0.02647 0.37450
 C1249 C 0.50014 0.02807 0.40849
 C1250 C 0.48058 -0.00148 0.40433
 C1251 C 0.47236 0.04857 0.39948
 C1252 C 0.48278 0.04688 0.36514
 C1253 C 0.46314 0.01732 0.36089
 C1254 C 0.45252 0.01894 0.39496
 H1255 H 0.49906 -0.02458 0.35808
 H1256 H 0.53503 0.02968 0.36635
 H1257 H 0.47985 -0.02131 0.42077
 H1258 H 0.46482 0.06993 0.41181
 H1259 H 0.48356 0.06674 0.34874
 H1260 H 0.42832 0.01574 0.40316
   
