data_POSCAR
  _audit_creation_date              2014-09-24
  _audit_creation_method            'ToBaCCo'
  _symmetry_space_group_name_H-M    'P1'
  _symmetry_Int_Tables_number       1
  _symmetry_cell_setting            triclinic
  loop_
  _symmetry_equiv_pos_as_xyz
 x,y,z
_cell_length_a 43.1480
_cell_length_b 43.1347
_cell_length_c 43.1591
_cell_angle_alpha 89.993900
_cell_angle_beta 90.023600
_cell_angle_gamma 90.033400
loop_
  _atom_site_label
  _atom_site_type_symbol
  _atom_site_fract_x
  _atom_site_fract_y
  _atom_site_fract_z
N1 N 0.35879 1.35781 0.35856
 N2 N 0.35849 0.85721 0.85805
 N3 N 0.85944 1.35821 0.85771
 N4 N 0.86015 0.85974 0.35819
 N5 N 0.64187 0.64121 0.36134
 N6 N 0.64002 0.14402 0.85621
 N7 N 1.14185 0.64357 0.85924
 N8 N 1.14172 0.14387 0.35609
 N9 N 0.64514 1.35462 0.64197
 N10 N 0.64294 0.85515 1.13903
 N11 N 1.14137 1.35982 1.14396
 N12 N 1.14468 0.85899 0.64313
 N13 N 0.35722 0.64192 0.64332
 N14 N 0.35618 0.14327 1.14147
 N15 N 0.85899 0.63906 1.14487
 N16 N 0.85845 0.13699 0.64294
 N17 N 1.35868 0.35712 0.64172
 N18 N 1.35489 0.85701 1.14318
 N19 N 0.85592 0.35947 1.14420
 N20 N 0.85870 0.85781 0.64352
 N21 N 0.64427 0.64187 0.64264
 N22 N 0.64233 1.14342 1.14269
 N23 N 0.14367 0.64362 1.14467
 N24 N 0.14321 1.14206 0.64388
 N25 N 1.35865 0.64448 0.35954
 N26 N 1.33222 1.16945 0.83120
 N27 N 0.85741 0.64017 0.85651
 N28 N 0.86032 1.14073 0.35460
 N29 N 0.64282 0.35430 0.36004
 N30 N 0.64298 0.85357 0.85878
 N31 N 0.14124 0.35916 0.85698
 N32 N 0.14228 0.85933 0.35685
 O33 O 0.96971 0.89255 0.84361
 O34 O 0.97023 0.85800 0.80597
 C35 C 0.95898 0.88237 0.81819
 C36 C 0.93252 0.89861 0.80342
 C37 C 0.92191 0.89007 0.77380
 H38 H 0.93385 0.87201 0.76109
 O39 O 1.02780 1.10870 0.84688
 O40 O 1.02641 1.14384 0.80979
 C41 C 1.03790 1.11935 0.82139
 C42 C 1.06400 1.10401 0.80539
 C43 C 1.07291 1.11414 0.77592
 H44 H 1.05829 1.13084 0.76458
 O45 O 0.84367 0.96804 0.89539
 O46 O 0.80692 0.96754 0.85985
 C47 C 0.81878 0.95679 0.88459
 C48 C 0.80393 0.93000 0.89980
 C49 C 0.77440 0.92087 0.89033
 H50 H 0.76173 0.93625 0.87527
 O51 O 1.15343 1.03275 0.89286
 O52 O 1.18985 1.03366 0.85705
 C53 C 1.17824 1.04412 0.88202
 C54 C 1.19299 1.07114 0.89699
 C55 C 1.22013 1.08308 0.88412
 H56 H 1.23208 1.06919 0.86720
 O57 O 0.89432 0.83862 0.96777
 O58 O 0.85960 0.80111 0.96721
 C59 C 0.88421 0.81336 0.95661
 C60 C 0.90069 0.79888 0.93027
 C61 C 0.89175 0.76970 0.91904
 H62 H 0.87332 0.75710 0.93056
 O63 O 1.10549 1.16056 0.96976
 O64 O 1.14024 1.19806 0.96947
 C65 C 1.11544 1.18607 0.95899
 C66 C 1.09852 1.20101 0.93317
 C67 C 1.10746 1.23021 0.92183
 H68 H 1.12619 1.24266 0.93301
 O69 O 0.88319 1.02980 0.85231
 O70 O 0.84657 1.02880 0.81665
 C71 C 0.87196 1.03959 0.82696
 C72 C 0.88865 1.06357 0.80911
 C73 C 0.87824 1.07211 0.77957
 H74 H 0.85748 1.06127 0.77103
 O75 O 1.11335 0.97216 0.84849
 O76 O 1.14990 0.97363 0.81281
 C77 C 1.12455 0.96269 0.82302
 C78 C 1.10818 0.93861 0.80506
 C79 C 1.11947 0.92960 0.77601
 H80 H 1.14010 0.94076 0.76762
 O81 O 1.03165 0.85107 0.88468
 O82 O 1.03238 0.81611 0.84741
 C83 C 1.04261 0.82637 0.87315
 C84 C 1.06739 0.80929 0.88980
 C85 C 1.07682 0.78011 0.87920
 H86 H 1.06619 0.77139 0.85842
 O87 O 0.96612 1.15053 0.88832
 O88 O 0.96536 1.18552 0.85106
 C89 C 0.95521 1.17526 0.87671
 C90 C 0.93053 1.19255 0.89297
 C91 C 0.92143 1.22162 0.88194
 H92 H 0.93208 1.22986 0.86098
 O93 O 0.84364 1.11261 0.97054
 O94 O 0.80740 1.14865 0.97081
 C95 C 0.81815 1.12329 0.96052
 C96 C 0.80072 1.10623 0.93665
 C97 C 0.77180 1.11710 0.92694
 H98 H 0.76354 1.13836 0.93694
 O99 O 1.15331 0.88973 0.96891
 O100 O 1.18943 0.85359 0.96927
 C101 C 1.17861 0.87879 0.95863
 C102 C 1.19570 0.89520 0.93391
 C103 C 1.22431 0.88381 0.92378
 H104 H 1.23248 0.86247 0.93376
 O105 O 0.96703 1.10853 0.84558
 O106 O 0.96603 1.14347 0.80826
 C107 C 0.95596 1.11853 0.82016
 C108 C 0.93028 1.10149 0.80513
 C109 C 0.91986 1.10948 0.77528
 H110 H 0.93162 1.12758 0.76244
 O111 O 1.03052 0.89255 0.84146
 O112 O 1.03119 0.85800 0.80383
 C113 C 1.04145 0.88279 0.81589
 C114 C 1.06723 0.89993 0.80095
 C115 C 1.07871 0.89129 0.77165
 H116 H 1.06770 0.87258 0.75903
 O117 O 1.15743 0.97227 0.88936
 O118 O 1.19424 0.97313 0.85395
 C119 C 1.18296 0.96203 0.87874
 C120 C 1.19867 0.93619 0.89517
 C121 C 1.22796 0.92498 0.88586
 H122 H 1.24012 0.93617 0.86697
 O123 O 0.83905 1.02865 0.89315
 O124 O 0.80226 1.02796 0.85768
 C125 C 0.81342 1.03880 0.88260
 C126 C 0.79749 1.06441 0.89902
 C127 C 0.76797 1.07519 0.88990
 H128 H 0.75566 1.06361 0.87133
 O129 O 0.88537 1.15565 0.97036
 O130 O 0.84945 1.19198 0.96998
 C131 C 0.87463 1.18081 0.95948
 C132 C 0.89148 1.19617 0.93368
 C133 C 0.88322 1.22588 0.92276
 H134 H 0.86471 1.23855 0.93401
 O135 O 1.11137 0.84678 0.96865
 O136 O 1.14733 0.81051 0.96843
 C137 C 1.12225 0.82169 0.95765
 C138 C 1.10585 0.80628 0.93139
 C139 C 1.11460 0.77665 0.92064
 H140 H 1.13303 0.76421 0.93228
 O141 O 1.11437 1.03229 0.84728
 O142 O 1.15080 1.03370 0.81147
 C143 C 1.12515 1.04339 0.82218
 C144 C 1.10748 1.06795 0.80581
 C145 C 1.11683 1.07930 0.77662
 H146 H 1.13730 1.06986 0.76558
 O147 O 0.88360 0.96976 0.85057
 O148 O 0.84675 0.96903 0.81513
 C149 C 0.87265 0.95938 0.82526
 C150 C 0.89008 0.93582 0.80738
 C151 C 0.87963 0.92670 0.77799
 H152 H 0.85855 0.93690 0.76943
 O153 O 1.02630 1.15357 0.88704
 O154 O 1.02526 1.18862 0.84984
 C155 C 1.03592 1.17893 0.87551
 C156 C 1.06000 1.19711 0.89196
 C157 C 1.06941 1.22617 0.88073
 H158 H 1.05856 1.23462 0.85994
 O159 O 0.97164 0.84702 0.88306
 O160 O 0.97225 0.81232 0.84555
 C161 C 0.96194 0.82169 0.87146
 C162 C 0.93827 0.80322 0.88823
 C163 C 0.92891 0.77401 0.87719
 H164 H 0.93929 0.76555 0.85614
 O165 O 1.14987 1.12041 0.96890
 O166 O 1.18495 1.15758 0.96809
 C167 C 1.17452 1.13204 0.95765
 C168 C 1.19059 1.11554 0.93198
 C169 C 1.21672 1.12836 0.91691
 H170 H 1.22557 1.15074 0.92410
 O171 O 0.84922 0.87830 0.96824
 O172 O 0.81417 0.84110 0.96747
 C173 C 0.82410 0.86706 0.95763
 C174 C 0.80671 0.88481 0.93370
 C175 C 0.77755 0.87497 0.92244
 H176 H 0.76734 0.85376 0.93117
 Cu177 Cu 1.00070 0.87442 0.86674
 Cu178 Cu 1.00161 0.83271 0.82188
 Cu179 Cu 0.99696 1.12666 0.87059
 Cu180 Cu 0.99569 1.16882 0.82595
 Cu181 Cu 0.86591 0.99925 0.87661
 Cu182 Cu 0.82182 0.99824 0.83389
 Cu183 Cu 1.13107 1.00217 0.87313
 Cu184 Cu 1.17504 1.00358 0.83039
 C185 C 0.91671 0.92192 0.81976
 H186 H 0.92455 0.92859 0.84266
 C187 C 0.89567 0.90432 0.76049
 C188 C 1.08114 1.08073 0.82004
 H189 H 1.07422 1.07293 0.84287
 C190 C 1.09989 1.10291 0.76151
 C191 C 0.81982 0.91217 0.92172
 H192 H 0.84271 0.91943 0.92908
 C193 C 0.76146 0.89259 0.89991
 C194 C 1.17857 1.08714 0.92125
 H195 H 1.15756 1.07776 0.93128
 C196 C 1.23112 1.11259 0.89205
 C197 C 0.92430 0.81522 0.91499
 H198 H 0.93109 0.83790 0.92334
 C199 C 0.90600 0.75660 0.89278
 C200 C 1.07442 1.18494 0.91836
 H201 H 1.06757 1.16229 0.92677
 C202 C 1.09287 1.24335 0.89573
 C203 C 0.91483 1.07811 0.82157
 H204 H 0.92260 1.07187 0.84461
 C205 C 0.89403 1.09455 0.76190
 C206 C 1.08190 0.92397 0.81719
 H207 H 1.07350 0.93064 0.83988
 C208 C 1.10483 0.90621 0.75869
 C209 C 1.08179 0.82206 0.91603
 H210 H 1.07480 0.84483 0.92396
 C211 C 1.09973 0.76289 0.89482
 C212 C 0.91571 1.18011 0.91896
 H213 H 0.92244 1.15733 0.92709
 C214 C 0.89871 1.23929 0.89717
 C215 C 0.81322 1.07974 0.92294
 H216 H 0.83592 1.07179 0.93012
 C217 C 0.75456 1.10148 0.90414
 C218 C 1.18321 0.92151 0.91975
 H219 H 1.16076 0.92989 0.92722
 C220 C 1.24152 0.89909 0.90070
 O221 O 1.03217 0.88914 1.15476
 O222 O 1.03333 0.85402 1.19185
 C223 C 1.04332 0.87916 1.18012
 C224 C 1.06853 0.89682 1.19559
 C225 C 1.07993 0.88789 1.22486
 H226 H 1.06975 0.86819 1.23666
 O227 O 0.96495 1.11065 1.15130
 O228 O 0.96358 1.14541 1.18875
 C229 C 0.95369 1.12039 1.17667
 C230 C 0.92852 1.10267 1.19196
 C231 C 0.91792 1.11118 1.22153
 H232 H 0.92871 1.13045 1.23351
 O233 O 0.84335 1.02497 1.10518
 O234 O 0.80680 1.02369 1.14085
 C235 C 0.81787 1.03495 1.11603
 C236 C 0.80141 1.06085 1.10067
 C237 C 0.77202 1.06972 1.11115
 H238 H 0.76101 1.05518 1.12811
 O239 O 1.15284 0.97429 1.10883
 O240 O 1.18933 0.97513 1.14458
 C241 C 1.17809 0.96386 1.11975
 C242 C 1.19435 0.93793 1.10393
 C243 C 1.22303 0.92766 1.11516
 H244 H 1.23214 0.93889 1.13546
 O245 O 1.11093 0.84725 1.02960
 O246 O 1.14722 0.81131 1.02927
 C247 C 1.12213 0.82215 1.04011
 C248 C 1.10640 0.80550 1.06562
 C249 C 1.11739 0.77649 1.07512
 H250 H 1.13727 0.76730 1.06330
 O251 O 0.88564 1.15515 1.03079
 O252 O 0.84932 1.19110 1.03066
 C253 C 0.87444 1.18021 1.04133
 C254 C 0.89048 1.19671 1.06654
 C255 C 0.87961 1.22550 1.07665
 H256 H 0.85899 1.23442 1.06588
 O257 O 0.88689 0.96548 1.14857
 O258 O 0.85010 0.96489 1.18400
 C259 C 0.87592 0.95512 1.17385
 C260 C 0.89309 0.93144 1.19183
 C261 C 0.88249 0.92260 1.22119
 H262 H 0.86138 0.93297 1.22937
 O263 O 1.11093 1.03454 1.15239
 O264 O 1.14733 1.03553 1.18825
 C265 C 1.12166 1.04529 1.17766
 C266 C 1.10398 1.06958 1.19441
 C267 C 1.11319 1.08027 1.22392
 H268 H 1.13353 1.07048 1.23491
 O269 O 0.97201 0.84505 1.11322
 O270 O 0.97299 0.80972 1.15012
 C271 C 0.96216 0.81975 1.12457
 C272 C 0.93780 0.80183 1.10805
 C273 C 0.92814 0.77299 1.11952
 H274 H 0.93857 0.76492 1.14067
 O275 O 1.02576 1.15516 1.11155
 O276 O 1.02457 1.19005 1.14888
 C277 C 1.03570 1.18017 1.12343
 C278 C 1.06067 1.19779 1.10771
 C279 C 1.07009 1.22668 1.11924
 H280 H 1.05847 1.23538 1.13946
 O281 O 0.85069 0.87943 1.02801
 O282 O 0.81558 0.84225 1.02762
 C283 C 0.82554 0.86799 1.03801
 C284 C 0.80779 0.88474 1.06204
 C285 C 0.77840 0.87420 1.07096
 H286 H 0.76959 0.85367 1.05992
 O287 O 1.14921 1.11857 1.02922
 O288 O 1.18463 1.15544 1.02895
 C289 C 1.17437 1.12983 1.03944
 C290 C 1.19158 1.11314 1.06406
 C291 C 1.22077 1.12367 1.07369
 H292 H 1.22976 1.14429 1.06292
 O293 O 1.02548 1.11201 1.15313
 O294 O 1.02401 1.14672 1.19061
 C295 C 1.03530 1.12218 1.17893
 C296 C 1.06092 1.10614 1.19507
 C297 C 1.06969 1.11564 1.22480
 H298 H 1.05520 1.13243 1.23610
 O299 O 0.97162 0.88748 1.15558
 O300 O 0.97231 0.85260 1.19291
 C301 C 0.96115 0.87719 1.18109
 C302 C 0.93501 0.89373 1.19614
 C303 C 0.92441 0.88563 1.22596
 H304 H 0.93623 0.86764 1.23889
 O305 O 1.15305 1.03530 1.10920
 O306 O 1.18964 1.03605 1.14486
 C307 C 1.17824 1.04640 1.11977
 C308 C 1.19381 1.07219 1.10308
 C309 C 1.22331 1.08283 1.11213
 H310 H 1.23537 1.07142 1.13097
 O311 O 0.84428 0.96401 1.10593
 O312 O 0.80752 0.96312 1.14139
 C313 C 0.81922 0.95266 1.11650
 C314 C 0.80426 0.92641 1.10006
 C315 C 0.77466 0.91566 1.10860
 H316 H 0.76204 0.92736 1.12687
 O317 O 1.10694 1.16099 1.03026
 O318 O 1.14185 1.19831 1.03049
 C319 C 1.11716 1.18634 1.04129
 C320 C 1.10038 1.20120 1.06748
 C321 C 1.10942 1.23027 1.07931
 H322 H 1.12848 1.24262 1.06860
 O323 O 0.89330 0.83748 1.02869
 O324 O 0.85874 0.79983 1.02858
 C325 C 0.88321 0.81205 1.03965
 C326 C 0.89967 0.79746 1.06626
 C327 C 0.89065 0.76831 1.07796
 H328 H 0.87212 0.75563 1.06670
 O329 O 1.11120 0.97418 1.15184
 O330 O 1.14762 0.97521 1.18769
 C331 C 1.12248 0.96406 1.17708
 C332 C 1.10677 0.93857 1.19399
 C333 C 1.11743 0.92962 1.22334
 H334 H 1.13585 0.94303 1.23338
 O335 O 0.88516 1.02591 1.14823
 O336 O 0.84856 1.02498 1.18388
 C337 C 0.87372 1.03617 1.17334
 C338 C 0.88954 1.06163 1.19026
 C339 C 0.87921 1.07058 1.21979
 H340 H 0.85998 1.05812 1.22956
 O341 O 0.96563 1.15635 1.11215
 O342 O 0.96435 1.19131 1.14942
 C343 C 0.95471 1.18124 1.12356
 C344 C 0.92994 1.19780 1.10671
 C345 C 0.91937 1.22724 1.11613
 H346 H 0.93030 1.23879 1.13556
 O347 O 1.03212 0.84525 1.11369
 O348 O 1.03351 0.80966 1.15034
 C349 C 1.04324 0.82028 1.12462
 C350 C 1.06811 0.80417 1.10716
 C351 C 1.07912 0.77473 1.11608
 H352 H 1.06883 0.76305 1.13577
 O353 O 1.15371 0.88961 1.02929
 O354 O 1.19013 0.85380 1.02965
 C355 C 1.17910 0.87914 1.03999
 C356 C 1.19527 0.89652 1.06514
 C357 C 1.22450 0.88708 1.07640
 H358 H 1.23593 0.86725 1.06610
 O359 O 0.84336 1.11273 1.03026
 O360 O 0.80674 1.14838 1.03081
 C361 C 0.81786 1.12295 1.04080
 C362 C 0.80153 1.10478 1.06503
 C363 C 0.77236 1.11388 1.07652
 H364 H 0.76130 1.13449 1.06739
 Cu365 Cu 1.00196 0.87032 1.13077
 Cu366 Cu 1.00312 0.82801 1.17508
 Cu367 Cu 0.99543 1.13004 1.12829
 Cu368 Cu 0.99406 1.17178 1.17327
 Cu369 Cu 0.87552 0.86197 0.99810
 Cu370 Cu 0.83371 0.81710 0.99775
 Cu371 Cu 1.12863 0.87185 0.99913
 Cu372 Cu 1.17208 0.82863 0.99920
 Cu373 Cu 0.86828 1.13055 1.00048
 Cu374 Cu 0.82463 1.17379 1.00056
 Cu375 Cu 1.12436 1.13653 0.99953
 Cu376 Cu 1.16643 1.18111 0.99933
 Cu377 Cu 0.86849 0.99507 1.12326
 Cu378 Cu 0.82452 0.99405 1.16602
 Cu379 Cu 1.12843 1.00472 1.12692
 Cu380 Cu 1.17224 1.00555 1.16980
 C381 C 1.08213 0.92227 1.18044
 H382 H 1.07401 0.92899 1.15766
 C383 C 1.10460 0.90403 1.23908
 C384 C 0.91437 1.07764 1.17665
 H385 H 0.92221 1.07107 1.15373
 C386 C 0.89336 1.09524 1.23596
 C387 C 0.81584 1.07825 1.07742
 H388 H 0.83866 1.07147 1.06949
 C389 C 0.75747 1.09677 1.10014
 C390 C 1.18076 0.92240 1.07877
 H391 H 1.15830 0.92990 1.07044
 C392 C 1.23904 0.90289 1.10116
 C393 C 1.08161 0.81903 1.08151
 H394 H 1.07351 0.84172 1.07446
 C395 C 1.10360 0.76029 1.09982
 C396 C 0.91580 1.18319 1.08141
 H397 H 0.92375 1.16057 1.07396
 C398 C 0.89450 1.24180 1.10065
 C399 C 0.91950 0.91716 1.17962
 H400 H 0.92735 0.92362 1.15667
 C401 C 0.89833 0.90041 1.23913
 C402 C 1.07790 1.08288 1.18020
 H403 H 1.07114 1.07560 1.15715
 C404 C 1.09642 1.10382 1.23930
 C405 C 0.92365 0.81372 1.08127
 H406 H 0.93072 0.83622 1.07264
 C407 C 0.90506 0.75545 1.10442
 C408 C 1.07572 1.18540 1.08173
 H409 H 1.06869 1.16290 1.07305
 C410 C 1.09425 1.24353 1.10515
 C411 C 0.82039 0.91099 1.07645
 H412 H 0.84328 0.91891 1.06985
 C413 C 0.76119 0.88968 1.09393
 C414 C 1.17844 1.08721 1.07864
 H415 H 1.15567 1.07931 1.07160
 C416 C 1.23748 1.10825 1.09716
 O417 O 1.11485 0.52926 0.65335
 O418 O 1.15175 0.52908 0.68874
 C419 C 1.12603 0.53926 0.67873
 C420 C 1.10912 0.56321 0.69656
 C421 C 1.11972 0.57257 0.72585
 H422 H 1.14051 0.56196 0.73463
 O423 O 0.88979 0.46615 0.64997
 O424 O 0.85268 0.46564 0.68510
 C425 C 0.87838 0.45558 0.67500
 C426 C 0.89496 0.43143 0.69279
 C427 C 0.88437 0.42287 0.72224
 H428 H 0.86363 0.43380 0.73066
 O429 O 1.03073 0.65231 0.61774
 O430 O 1.03029 0.68703 0.65524
 C431 C 1.04065 0.67746 0.62937
 C432 C 1.06452 0.69559 0.61257
 C433 C 1.07388 0.72485 0.62334
 H434 H 1.06355 0.73345 0.64436
 O435 O 0.97138 0.34340 0.61320
 O436 O 0.97236 0.30788 0.64991
 C437 C 0.96141 0.31813 0.62450
 C438 C 0.93672 0.30055 0.60808
 C439 C 0.92718 0.27154 0.61919
 H440 H 0.93816 0.26304 0.63985
 O441 O 1.15225 0.61909 0.53238
 O442 O 1.18761 0.65599 0.53352
 C443 C 1.17725 0.63017 0.54335
 C444 C 1.19381 0.61247 0.56786
 C445 C 1.22310 0.62170 0.57927
 H446 H 1.23409 0.64235 0.57013
 O447 O 0.84889 0.37940 0.52958
 O448 O 0.81292 0.34310 0.52969
 C449 C 0.82358 0.36864 0.54002
 C450 C 0.80703 0.38651 0.56442
 C451 C 0.77739 0.37790 0.57537
 H452 H 0.76614 0.35744 0.56613
 O453 O 0.97106 0.60752 0.65846
 O454 O 0.97019 0.64193 0.69623
 C455 C 0.95997 0.61718 0.68394
 C456 C 0.93426 0.59980 0.69861
 C457 C 0.92256 0.60830 0.72781
 H458 H 0.93323 0.62722 0.74042
 O459 O 1.03208 0.38676 0.65453
 O460 O 1.03313 0.35163 0.69164
 C461 C 1.04329 0.37665 0.67981
 C462 C 1.06894 0.39393 0.69489
 C463 C 1.07982 0.38577 0.72458
 H464 H 1.06876 0.36705 0.73715
 O465 O 1.15852 0.47098 0.60940
 O466 O 1.19547 0.47072 0.64472
 C467 C 1.18422 0.46060 0.61956
 C468 C 1.20016 0.43566 0.60224
 C469 C 1.22980 0.42478 0.61076
 H470 H 1.24213 0.43573 0.62970
 O471 O 0.84790 0.52753 0.60756
 O472 O 0.81118 0.52620 0.64307
 C473 C 0.82248 0.53766 0.61848
 C474 C 0.80619 0.56379 0.60341
 C475 C 0.77670 0.57244 0.61382
 H476 H 0.76554 0.55763 0.63047
 O477 O 0.89127 0.65667 0.53362
 O478 O 0.85556 0.69319 0.53445
 C479 C 0.88061 0.68167 0.54489
 C480 C 0.89718 0.69672 0.57102
 C481 C 0.88851 0.72623 0.58189
 H482 H 0.86998 0.73870 0.57041
 O483 O 1.11134 0.34732 0.53045
 O484 O 1.14755 0.31127 0.52949
 C485 C 1.12260 0.32207 0.54065
 C486 C 1.10700 0.30508 0.56605
 C487 C 1.11825 0.27611 0.57547
 H488 H 1.13827 0.26717 0.56370
 O489 O 0.88962 0.52645 0.65096
 O490 O 0.85257 0.52524 0.68614
 C491 C 0.87809 0.53604 0.67630
 C492 C 0.89412 0.56027 0.69447
 C493 C 0.88265 0.56908 0.72358
 H494 H 0.86240 0.55735 0.73214
 O495 O 1.11370 0.46900 0.64951
 O496 O 1.15056 0.46914 0.68494
 C497 C 1.12514 0.45850 0.67446
 C498 C 1.10898 0.43370 0.69170
 C499 C 1.11956 0.42520 0.72114
 H500 H 1.13930 0.43735 0.73019
 O501 O 1.03160 0.34337 0.61333
 O502 O 1.03308 0.30771 0.64990
 C503 C 1.04288 0.31850 0.62428
 C504 C 1.06816 0.30285 0.60703
 C505 C 1.07952 0.27357 0.61596
 H506 H 1.06913 0.26162 0.63545
 O507 O 0.97073 0.65103 0.61729
 O508 O 0.97018 0.68576 0.65480
 C509 C 0.96008 0.67585 0.62895
 C510 C 0.93568 0.69337 0.61236
 C511 C 0.92650 0.72262 0.62306
 H512 H 0.93733 0.73135 0.64374
 O513 O 0.84768 0.61540 0.53258
 O514 O 0.81151 0.65146 0.53381
 C515 C 0.82240 0.62585 0.54350
 C516 C 0.80615 0.60776 0.56786
 C517 C 0.77692 0.61675 0.57940
 H518 H 0.76571 0.63726 0.57022
 O519 O 1.15377 0.38991 0.52938
 O520 O 1.18970 0.35354 0.52848
 C521 C 1.17929 0.37890 0.53903
 C522 C 1.19703 0.39543 0.56300
 C523 C 1.22621 0.38454 0.57190
 H524 H 1.23475 0.36406 0.56062
 O525 O 0.97175 0.38574 0.65571
 O526 O 0.97224 0.35073 0.69291
 C527 C 0.96141 0.37556 0.68130
 C528 C 0.93584 0.39262 0.69666
 C529 C 0.92531 0.38475 0.72656
 H530 H 0.93671 0.36638 0.73933
 O531 O 1.03157 0.60833 0.65869
 O532 O 1.03098 0.64274 0.69647
 C533 C 1.04198 0.61827 0.68437
 C534 C 1.06777 0.60158 0.69965
 C535 C 1.07840 0.61038 0.72916
 H536 H 1.06689 0.62900 0.74146
 O537 O 0.84867 0.46652 0.60576
 O538 O 0.81191 0.46617 0.64125
 C539 C 0.82326 0.45589 0.61615
 C540 C 0.80693 0.43050 0.59995
 C541 C 0.77689 0.42270 0.60911
 H542 H 0.76537 0.43823 0.62480
 O543 O 1.15384 0.53131 0.60764
 O544 O 1.19068 0.53086 0.64309
 C545 C 1.17901 0.54196 0.61841
 C546 C 1.19465 0.56820 0.60306
 C547 C 1.22431 0.57669 0.61272
 H548 H 1.23627 0.56132 0.62834
 O549 O 0.89160 0.33747 0.52982
 O550 O 0.85646 0.30039 0.52973
 C551 C 0.88124 0.31210 0.54064
 C552 C 0.89788 0.29703 0.56688
 C553 C 0.88892 0.26772 0.57822
 H554 H 0.87022 0.25526 0.56699
 O555 O 1.10821 0.65962 0.53296
 O556 O 1.14313 0.69696 0.53357
 C557 C 1.11844 0.68485 0.54414
 C558 C 1.10203 0.69952 0.57043
 C559 C 1.11094 0.72884 0.58137
 H560 H 1.12931 0.74137 0.56969
 Cu561 Cu 1.13161 0.50007 0.62635
 Cu562 Cu 1.17582 0.49996 0.66888
 Cu563 Cu 0.87269 0.49674 0.62485
 Cu564 Cu 0.82827 0.49566 0.66730
 Cu565 Cu 1.00114 0.62619 0.63442
 Cu566 Cu 1.00037 0.66779 0.67955
 Cu567 Cu 1.00161 0.36838 0.63062
 Cu568 Cu 1.00272 0.32591 0.67481
 C569 C 1.08296 0.57759 0.68384
 H570 H 1.07504 0.57079 0.66100
 C571 C 1.10420 0.59576 0.74286
 C572 C 0.92083 0.41648 0.68034
 H573 H 0.92863 0.42279 0.65733
 C574 C 0.89973 0.40019 0.73996
 C575 C 1.07846 0.68332 0.58590
 H576 H 1.07165 0.66057 0.57774
 C577 C 1.09668 0.74216 0.60752
 C578 C 0.92215 0.31296 0.58179
 H579 H 0.92916 0.33558 0.57343
 C580 C 0.90367 0.25439 0.60427
 C581 C 1.17966 0.58589 0.58042
 H582 H 1.15668 0.57911 0.57289
 C583 C 1.23831 0.60420 0.60247
 C584 C 0.82170 0.41265 0.57735
 H585 H 0.84496 0.41889 0.57027
 C586 C 0.76225 0.39562 0.59848
 C587 C 0.92007 0.57546 0.68236
 H588 H 0.92863 0.56894 0.65968
 C589 C 0.89673 0.59296 0.74077
 C590 C 1.08353 0.41821 0.67883
 H591 H 1.07559 0.42459 0.65589
 C592 C 1.10513 0.40148 0.73818
 C593 C 1.18437 0.42115 0.57789
 H594 H 1.16150 0.42910 0.57126
 C595 C 1.24333 0.39916 0.59543
 C596 C 0.82059 0.58131 0.58027
 H597 H 0.84344 0.57461 0.57234
 C598 C 0.76204 0.59944 0.60292
 C599 C 0.92117 0.68076 0.58617
 H600 H 0.92796 0.65796 0.57813
 C601 C 0.90344 0.73981 0.60765
 C602 C 1.08182 0.31811 0.58170
 H603 H 1.07346 0.34072 0.57469
 C604 C 1.10440 0.25956 0.59994
 O605 O 1.11649 0.47441 0.35019
 O606 O 1.15288 0.47519 0.31435
 C607 C 1.12757 0.46428 0.32492
 C608 C 1.11101 0.43942 0.30776
 C609 C 1.12155 0.43002 0.27848
 H610 H 1.14172 0.44140 0.26930
 O611 O 0.88688 0.52865 0.35216
 O612 O 0.85011 0.52842 0.31665
 C613 C 0.87566 0.53885 0.32697
 C614 C 0.89218 0.56325 0.30950
 C615 C 0.88156 0.57215 0.28016
 H616 H 0.86135 0.56060 0.27135
 O617 O 0.96862 0.65243 0.38986
 O618 O 0.96816 0.68752 0.35270
 C619 C 0.95807 0.67742 0.37841
 C620 C 0.93388 0.69516 0.39496
 C621 C 0.92466 0.72416 0.38376
 H622 H 0.93512 0.73215 0.36263
 O623 O 1.03289 0.34778 0.38562
 O624 O 1.03408 0.31298 0.34822
 C625 C 1.04389 0.32301 0.37407
 C626 C 1.06857 0.30641 0.39115
 C627 C 1.07964 0.27707 0.38181
 H628 H 1.06993 0.26597 0.36148
 O629 O 1.15317 0.39018 0.46934
 O630 O 1.18898 0.35370 0.46905
 C631 C 1.17848 0.37926 0.45895
 C632 C 1.19623 0.39628 0.43503
 C633 C 1.22531 0.38532 0.42571
 H634 H 1.23334 0.36393 0.43568
 O635 O 0.84929 0.61460 0.47251
 O636 O 0.81314 0.65068 0.47326
 C637 C 0.82388 0.62540 0.46243
 C638 C 0.80659 0.60851 0.43786
 C639 C 0.77749 0.61927 0.42825
 H640 H 0.76896 0.64010 0.43887
 O641 O 1.02976 0.60981 0.34827
 O642 O 1.02851 0.64511 0.31132
 C643 C 1.03990 0.62054 0.32282
 C644 C 1.06598 0.60530 0.30674
 C645 C 1.07462 0.61542 0.27720
 H646 H 1.05971 0.63186 0.26591
 O647 O 0.97219 0.39226 0.34608
 O648 O 0.97312 0.35777 0.30840
 C649 C 0.96175 0.38211 0.32055
 C650 C 0.93522 0.39780 0.30538
 C651 C 0.92578 0.38833 0.27587
 H652 H 0.94060 0.37242 0.26366
 O653 O 1.15789 0.53553 0.39274
 O654 O 1.19474 0.53644 0.35738
 C655 C 1.18300 0.54681 0.38234
 C656 C 1.19796 0.57285 0.39915
 C657 C 1.22743 0.58382 0.39059
 H658 H 1.23991 0.57251 0.37197
 O659 O 0.84540 0.46810 0.39546
 O660 O 0.80858 0.46845 0.36003
 C661 C 0.82013 0.45750 0.38482
 C662 C 0.80448 0.43123 0.40032
 C663 C 0.77480 0.42250 0.39075
 H664 H 0.76277 0.43781 0.37516
 O665 O 1.10880 0.66060 0.47222
 O666 O 1.14362 0.69801 0.47234
 C667 C 1.11894 0.68606 0.46143
 C668 C 1.10213 0.70094 0.43522
 C669 C 1.11088 0.73021 0.42364
 H670 H 1.12960 0.74282 0.43466
 O671 O 0.89242 0.33900 0.46903
 O672 O 0.85731 0.30191 0.46799
 C673 C 0.88217 0.31397 0.45751
 C674 C 0.89910 0.29971 0.43103
 C675 C 0.89054 0.27060 0.41904
 H676 H 0.87183 0.25779 0.42985
 O677 O 0.88501 0.46843 0.35002
 O678 O 0.84824 0.46818 0.31455
 C679 C 0.87389 0.45790 0.32478
 C680 C 0.89123 0.43344 0.30758
 C681 C 0.88123 0.42237 0.27839
 H682 H 0.86039 0.43174 0.26801
 O683 O 1.11717 0.53454 0.34869
 O684 O 1.15356 0.53580 0.31288
 C685 C 1.12787 0.54548 0.32353
 C686 C 1.10997 0.56985 0.30712
 C687 C 1.11912 0.58130 0.27789
 H688 H 1.13972 0.57217 0.26684
 O689 O 0.97273 0.34769 0.38629
 O690 O 0.97383 0.31303 0.34877
 C691 C 0.96293 0.32256 0.37443
 C692 C 0.93841 0.30433 0.39038
 C693 C 0.92944 0.27528 0.37877
 H694 H 0.94103 0.26686 0.35840
 O695 O 1.02892 0.65367 0.38935
 O696 O 1.02809 0.68887 0.35229
 C697 C 1.03882 0.67893 0.37787
 C698 C 1.06323 0.69688 0.39420
 C699 C 1.07253 0.72586 0.38281
 H700 H 1.06156 0.73416 0.36204
 O701 O 0.84817 0.37940 0.46978
 O702 O 0.81239 0.34291 0.46905
 C703 C 0.82287 0.36865 0.45917
 C704 C 0.80596 0.38661 0.43509
 C705 C 0.77665 0.37725 0.42390
 H706 H 0.76597 0.35638 0.43288
 O707 O 1.15177 0.61880 0.47238
 O708 O 1.18706 0.65579 0.47313
 C709 C 1.17699 0.63023 0.46245
 C710 C 1.19466 0.61378 0.43809
 C711 C 1.22401 0.62448 0.42915
 H712 H 1.23299 0.64471 0.44060
 O713 O 1.03320 0.39279 0.34576
 O714 O 1.03405 0.35822 0.30815
 C715 C 1.04437 0.38301 0.32031
 C716 C 1.07019 0.40013 0.30520
 C717 C 1.08102 0.39127 0.27575
 H718 H 1.06973 0.37245 0.26353
 O719 O 0.96898 0.60972 0.34736
 O720 O 0.96815 0.64485 0.31025
 C721 C 0.95803 0.61981 0.32192
 C722 C 0.93260 0.60259 0.30650
 C723 C 0.92185 0.61102 0.27682
 H724 H 0.93306 0.62976 0.26440
 O725 O 0.84363 0.52922 0.39375
 O726 O 0.80663 0.52939 0.35853
 C727 C 0.81834 0.54025 0.38330
 C728 C 0.80322 0.56666 0.39970
 C729 C 0.77372 0.57765 0.39076
 H730 H 0.76121 0.56601 0.37236
 O731 O 1.15989 0.47495 0.39146
 O732 O 1.19679 0.47534 0.35616
 C733 C 1.18530 0.46442 0.38099
 C734 C 1.20051 0.43833 0.39749
 C735 C 1.23011 0.42742 0.38894
 H736 H 1.24287 0.43906 0.37071
 O737 O 1.11025 0.34784 0.46974
 O738 O 1.14638 0.31166 0.46955
 C739 C 1.12115 0.32262 0.45924
 C740 C 1.10519 0.30623 0.43395
 C741 C 1.11496 0.27662 0.42535
 H742 H 1.13185 0.26558 0.43990
 O743 O 0.88987 0.65876 0.47305
 O744 O 0.85426 0.69536 0.47331
 C745 C 0.87920 0.68409 0.46245
 C746 C 0.89572 0.69938 0.43640
 C747 C 0.88720 0.72894 0.42523
 H748 H 0.86886 0.74172 0.43664
 Cu749 Cu 1.13437 0.50486 0.37440
 Cu750 Cu 1.17824 0.50573 0.33168
 Cu751 Cu 0.86876 0.49853 0.37647
 Cu752 Cu 0.82456 0.49864 0.33405
 Cu753 Cu 1.12665 0.63599 0.50245
 Cu754 Cu 1.16876 0.68057 0.50313
 Cu755 Cu 1.12832 0.37243 0.49977
 Cu756 Cu 1.17169 0.32879 0.49904
 Cu757 Cu 0.87322 0.63294 0.50294
 Cu758 Cu 0.83006 0.67638 0.50372
 Cu759 Cu 0.87384 0.36227 0.49959
 Cu760 Cu 0.83141 0.31816 0.49909
 Cu761 Cu 0.99905 0.62772 0.37234
 Cu762 Cu 0.99815 0.67006 0.32787
 Cu763 Cu 1.00281 0.37366 0.36962
 Cu764 Cu 1.00376 0.33221 0.32444
 C765 C 1.08514 0.42452 0.32082
 H766 H 1.07716 0.43137 0.34361
 C767 C 1.10657 0.40619 0.26185
 C768 C 0.91786 0.57832 0.32236
 H769 H 0.92575 0.57177 0.34527
 C770 C 0.89637 0.59570 0.26312
 C771 C 0.91959 0.68311 0.42138
 H772 H 0.92642 0.66040 0.42963
 C773 C 0.90204 0.74197 0.39905
 C774 C 1.08177 0.32078 0.41713
 H775 H 1.07433 0.34377 0.42395
 C776 C 1.10326 0.26191 0.39874
 C777 C 1.18416 0.42293 0.42109
 H778 H 1.16140 0.43102 0.42791
 C779 C 1.24314 0.40107 0.40340
 C780 C 0.81916 0.58207 0.42364
 H781 H 0.84185 0.57398 0.43068
 C782 C 0.76025 0.60381 0.40520
 C783 C 1.08347 0.58230 0.32138
 H784 H 1.07671 0.57452 0.34427
 C785 C 1.10172 0.60458 0.26274
 C786 C 0.91807 0.42057 0.32093
 H787 H 0.92544 0.42797 0.34376
 C788 C 0.89809 0.39918 0.26245
 C789 C 1.18197 0.58780 0.42321
 H790 H 1.15913 0.57974 0.42983
 C791 C 1.24097 0.60955 0.40563
 C792 C 0.81976 0.41347 0.42273
 H793 H 0.84275 0.42033 0.43015
 C794 C 0.76103 0.39478 0.40102
 C795 C 1.07791 0.68478 0.42053
 H796 H 1.07105 0.66216 0.42904
 C797 C 1.09595 0.74324 0.39752
 C798 C 0.92333 0.31617 0.41665
 H799 H 0.92997 0.33875 0.42541
 C800 C 0.90573 0.25785 0.39298
 O801 O 0.47443 0.89473 0.34189
 O802 O 0.47435 0.85918 0.30514
 C803 C 0.46386 0.88420 0.31658
 C804 C 0.43812 0.90018 0.30083
 C805 C 0.42925 0.89083 0.27116
 H806 H 0.44429 0.87498 0.25917
 O807 O 0.52861 1.10944 0.34682
 O808 O 0.52848 1.14631 0.31144
 C809 C 0.53936 1.12104 0.32202
 C810 C 0.56542 1.10587 0.30559
 C811 C 0.57410 1.11651 0.27623
 H812 H 0.55962 1.13373 0.26557
 O813 O 0.34456 0.96909 0.38785
 O814 O 0.30806 0.96852 0.35208
 C815 C 0.31930 0.95824 0.37724
 C816 C 0.30365 0.93282 0.39416
 C817 C 0.27403 0.92210 0.38554
 H818 H 0.26178 0.93326 0.36668
 O819 O 0.65945 1.03143 0.38657
 O820 O 0.69610 1.03262 0.35100
 C821 C 0.68491 1.04216 0.37644
 C822 C 0.70088 1.06653 0.39436
 C823 C 0.73033 1.07758 0.38584
 H824 H 0.74220 1.06740 0.36620
 O825 O 0.39333 0.84630 0.46624
 O826 O 0.35806 0.80928 0.46536
 C827 C 0.38294 0.82116 0.45493
 C828 C 0.39963 0.80605 0.42896
 C829 C 0.39076 0.77653 0.41834
 H830 H 0.37201 0.76434 0.42978
 O831 O 0.61032 1.14812 0.46967
 O832 O 0.64611 1.18463 0.47039
 C833 C 0.62101 1.17360 0.45958
 C834 C 0.60444 1.19085 0.43498
 C835 C 0.61517 1.22013 0.42608
 H836 H 0.63581 1.22861 0.43713
 O837 O 0.38722 1.02973 0.34622
 O838 O 0.35099 1.02920 0.31016
 C839 C 0.37621 1.03997 0.32096
 C840 C 0.39239 1.06516 0.30424
 C841 C 0.38214 1.07415 0.27487
 H842 H 0.36407 1.06054 0.26449
 O843 O 0.61661 0.97285 0.34289
 O844 O 0.65295 0.97372 0.30698
 C845 C 0.62762 0.96300 0.31747
 C846 C 0.61103 0.93842 0.30033
 C847 C 0.62149 0.92879 0.27116
 H848 H 0.64157 0.94017 0.26179
 O849 O 0.53414 0.85064 0.38314
 O850 O 0.53373 0.81500 0.34650
 C851 C 0.54403 0.82525 0.37208
 C852 C 0.56774 0.80749 0.38915
 C853 C 0.57645 0.77783 0.37921
 H854 H 0.56579 0.76897 0.35849
 O855 O 0.46748 1.15101 0.38971
 O856 O 0.46820 1.18787 0.35433
 C857 C 0.45745 1.17664 0.37935
 C858 C 0.43255 1.19354 0.39584
 C859 C 0.42446 1.22337 0.38616
 H860 H 0.43891 1.23405 0.36894
 O861 O 0.34248 1.11193 0.47027
 O862 O 0.30595 1.14762 0.47051
 C863 C 0.31709 1.12250 0.45973
 C864 C 0.30124 1.10548 0.43415
 C865 C 0.27182 1.11448 0.42299
 H866 H 0.25985 1.13375 0.43372
 O867 O 0.65284 0.88901 0.46713
 O868 O 0.68850 0.85242 0.46662
 C869 C 0.67792 0.87794 0.45643
 C870 C 0.69518 0.89452 0.43182
 C871 C 0.72441 0.88378 0.42281
 H872 H 0.73292 0.86318 0.43386
 O873 O 0.46776 1.11160 0.34419
 O874 O 0.46763 1.14822 0.30858
 C875 C 0.45697 1.12286 0.31914
 C876 C 0.43131 1.10626 0.30304
 C877 C 0.41995 1.11569 0.27379
 H878 H 0.43041 1.13535 0.26217
 O879 O 0.53484 0.89275 0.34015
 O880 O 0.53461 0.85723 0.30340
 C881 C 0.54531 0.88219 0.31471
 C882 C 0.57072 0.89889 0.29874
 C883 C 0.58131 0.88961 0.26933
 H884 H 0.57012 0.87043 0.25758
 O885 O 0.65783 0.97149 0.38610
 O886 O 0.69473 0.97194 0.35078
 C887 C 0.68317 0.96092 0.37561
 C888 C 0.69847 0.93506 0.39246
 C889 C 0.72821 0.92433 0.38421
 H890 H 0.74078 0.93560 0.36564
 O891 O 0.34533 1.02964 0.38889
 O892 O 0.30897 1.02909 0.35298
 C893 C 0.32004 1.03999 0.37804
 C894 C 0.30333 1.06521 0.39430
 C895 C 0.27449 1.07497 0.38321
 H896 H 0.26573 1.06399 0.36263
 O897 O 0.38477 1.15433 0.47048
 O898 O 0.34895 1.19073 0.47056
 C899 C 0.37403 1.17956 0.45980
 C900 C 0.39103 1.19523 0.43423
 C901 C 0.38223 1.22470 0.42305
 H902 H 0.36266 1.23658 0.43333
 O903 O 0.61163 0.84519 0.46721
 O904 O 0.64736 0.80863 0.46651
 C905 C 0.62223 0.81994 0.45632
 C906 C 0.60555 0.80438 0.43082
 C907 C 0.61374 0.77441 0.42097
 H908 H 0.63188 0.76189 0.43300
 O909 O 0.61600 1.03296 0.34529
 O910 O 0.65205 1.03443 0.30913
 C911 C 0.62661 1.04438 0.32036
 C912 C 0.60886 1.06951 0.30479
 C913 C 0.61777 1.08127 0.27565
 H914 H 0.63799 1.07187 0.26413
 O915 O 0.38694 0.96967 0.34504
 O916 O 0.35067 0.96907 0.30903
 C917 C 0.37629 0.95924 0.31962
 C918 C 0.39412 0.93541 0.30256
 C919 C 0.38454 0.92452 0.27327
 H920 H 0.36364 0.93366 0.26278
 O921 O 0.52787 1.15304 0.38819
 O922 O 0.52849 1.19003 0.35293
 C923 C 0.53870 1.17854 0.37806
 C924 C 0.56407 1.19408 0.39548
 C925 C 0.57476 1.22395 0.38739
 H926 H 0.56364 1.23651 0.36872
 O927 O 0.47398 0.85076 0.38267
 O928 O 0.47375 0.81517 0.34597
 C929 C 0.46340 0.82565 0.37147
 C930 C 0.43869 0.80849 0.38810
 C931 C 0.42935 0.77907 0.37773
 H932 H 0.44059 0.76974 0.35755
 O933 O 0.65597 1.10872 0.47021
 O934 O 0.69143 1.14559 0.47118
 C935 C 0.68129 1.12026 0.46042
 C936 C 0.69886 1.10461 0.43573
 C937 C 0.72822 1.11550 0.42708
 H938 H 0.73765 1.13477 0.43975
 O939 O 0.34924 0.88715 0.46798
 O940 O 0.31402 0.85008 0.46747
 C941 C 0.32408 0.87586 0.45760
 C942 C 0.30644 0.89248 0.43348
 C943 C 0.27714 0.88179 0.42442
 H944 H 0.26833 0.86131 0.43556
 Cu945 Cu 0.50452 0.87589 0.36559
 Cu946 Cu 0.50407 0.83312 0.32149
 Cu947 Cu 0.49787 1.12754 0.37065
 Cu948 Cu 0.49817 1.17172 0.32821
 Cu949 Cu 0.36960 0.99932 0.37068
 Cu950 Cu 0.32592 0.99899 0.32751
 Cu951 Cu 0.63389 1.00218 0.36878
 Cu952 Cu 0.67761 1.00328 0.32581
 C953 C 0.42078 0.92277 0.31622
 H954 H 0.42771 0.92998 0.33925
 C955 C 0.40161 0.90145 0.25757
 C956 C 0.58267 1.08218 0.31958
 H957 H 0.57595 1.07399 0.34234
 C958 C 0.60062 1.10509 0.26109
 C959 C 0.31932 0.91817 0.41856
 H960 H 0.34221 0.92605 0.42526
 C961 C 0.26014 0.89677 0.40097
 C962 C 0.68560 1.07994 0.41961
 H963 H 0.66270 1.07192 0.42609
 C964 C 0.74445 1.10216 0.40217
 C965 C 0.42392 0.82165 0.41389
 H966 H 0.43079 0.84449 0.42174
 C967 C 0.40568 0.76246 0.39291
 C968 C 0.57875 1.17809 0.41981
 H969 H 0.57085 1.15515 0.42631
 C970 C 0.60024 1.23753 0.40293
 C971 C 0.41714 1.08101 0.31798
 H972 H 0.42496 1.07399 0.34077
 C973 C 0.39499 1.09986 0.25942
 C974 C 0.58549 0.92361 0.31376
 H975 H 0.57769 0.93073 0.33653
 C976 C 0.60667 0.90456 0.25504
 C977 C 0.58212 0.82041 0.41513
 H978 H 0.57578 0.84356 0.42250
 C979 C 0.59890 0.76050 0.39540
 C980 C 0.41605 1.17977 0.42011
 H981 H 0.42244 1.15669 0.42765
 C982 C 0.39863 1.23895 0.39850
 C983 C 0.31643 1.08035 0.41990
 H984 H 0.33903 1.07314 0.42810
 C985 C 0.25783 1.09891 0.39770
 C986 C 0.68248 0.92027 0.41675
 H987 H 0.65962 0.92822 0.42340
 C988 C 0.74178 0.89883 0.39968
 O989 O 0.53147 0.88445 0.65355
 O990 O 0.53135 0.84774 0.68908
 C991 C 0.54215 0.87304 0.67843
 C992 C 0.56764 0.88907 0.69502
 C993 C 0.57773 0.87789 0.72372
 H994 H 0.56704 0.85710 0.73240
 O995 O 0.47105 1.10867 0.65248
 O996 O 0.47149 1.14474 0.68866
 C997 C 0.46039 1.11981 0.67751
 C998 C 0.43406 1.10455 0.69342
 C999 C 0.42077 1.11885 0.71924
 H1000 H 0.43037 1.14072 0.72629
 O1001 O 0.34760 1.02764 0.61031
 O1002 O 0.31138 1.02626 0.64629
 C1003 C 0.32208 1.03741 0.62124
 C1004 C 0.30479 1.06243 0.60528
 C1005 C 0.27559 1.07137 0.61627
 H1006 H 0.26650 1.05905 0.63588
 O1007 O 0.65560 0.96488 0.61217
 O1008 O 0.69223 0.96473 0.64780
 C1009 C 0.68100 0.95433 0.62262
 C1010 C 0.69704 0.92942 0.60523
 C1011 C 0.72644 0.91851 0.61419
 H1012 H 0.73799 0.92875 0.63400
 O1013 O 0.61064 0.84586 0.52769
 O1014 O 0.64664 0.80961 0.52660
 C1015 C 0.62161 0.82043 0.53767
 C1016 C 0.60569 0.80329 0.56275
 C1017 C 0.61661 0.77408 0.57173
 H1018 H 0.63625 0.76496 0.55949
 O1019 O 0.38538 1.15376 0.53099
 O1020 O 0.34959 1.19015 0.53197
 C1021 C 0.37490 1.17889 0.54220
 C1022 C 0.39240 1.19449 0.56768
 C1023 C 0.38356 1.22382 0.57923
 H1024 H 0.36381 1.23563 0.56922
 O1025 O 0.39144 0.96750 0.65245
 O1026 O 0.35535 0.96727 0.68860
 C1027 C 0.38071 0.95698 0.67773
 C1028 C 0.39700 0.93181 0.69443
 C1029 C 0.38718 0.92347 0.72414
 H1030 H 0.37028 0.93814 0.73504
 O1031 O 0.61293 1.02574 0.65332
 O1032 O 0.64913 1.02602 0.68937
 C1033 C 0.62399 1.03674 0.67822
 C1034 C 0.60775 1.06256 0.69413
 C1035 C 0.61840 1.07313 0.72292
 H1036 H 0.63872 1.06223 0.73234
 O1037 O 0.47150 0.84177 0.61107
 O1038 O 0.47123 0.80466 0.64622
 C1039 C 0.46125 0.81600 0.62095
 C1040 C 0.43707 0.79970 0.60290
 C1041 C 0.42645 0.77000 0.61140
 H1042 H 0.43667 0.75827 0.63111
 O1043 O 0.53103 1.15290 0.61128
 O1044 O 0.53162 1.18889 0.64754
 C1045 C 0.54161 1.17823 0.62206
 C1046 C 0.56645 1.19457 0.60497
 C1047 C 0.57710 1.22422 0.61388
 H1048 H 0.56618 1.23615 0.63307
 O1049 O 0.35073 0.88634 0.52840
 O1050 O 0.31529 0.84949 0.52755
 C1051 C 0.32574 0.87470 0.53875
 C1052 C 0.30886 0.89039 0.56431
 C1053 C 0.27960 0.87968 0.57363
 H1054 H 0.26996 0.86035 0.56123
 O1055 O 0.65293 1.10613 0.53052
 O1056 O 0.68845 1.14293 0.53077
 C1057 C 0.67794 1.11743 0.54112
 C1058 C 0.69510 1.10114 0.56591
 C1059 C 0.72427 1.11201 0.57498
 H1060 H 0.73310 1.13221 0.56342
 O1061 O 0.53191 1.10905 0.65292
 O1062 O 0.53217 1.14493 0.68928
 C1063 C 0.54264 1.11972 0.67822
 C1064 C 0.56800 1.10293 0.69448
 C1065 C 0.57868 1.11274 0.72376
 H1066 H 0.56772 1.13229 0.73506
 O1067 O 0.47085 0.88334 0.65450
 O1068 O 0.47019 0.84683 0.69021
 C1069 C 0.45984 0.87227 0.67946
 C1070 C 0.43449 0.88941 0.69541
 C1071 C 0.42313 0.88039 0.72477
 H1072 H 0.43303 0.86044 0.73636
 O1073 O 0.65675 1.02509 0.61265
 O1074 O 0.69339 1.02545 0.64826
 C1075 C 0.68215 1.03582 0.62308
 C1076 C 0.69782 1.06125 0.60588
 C1077 C 0.72740 1.07227 0.61445
 H1078 H 0.73967 1.06142 0.63348
 O1079 O 0.34757 0.96689 0.61126
 O1080 O 0.31135 0.96566 0.64726
 C1081 C 0.32258 0.95551 0.62198
 C1082 C 0.30706 0.92979 0.60500
 C1083 C 0.27769 0.91867 0.61401
 H1084 H 0.26577 0.92947 0.63328
 O1085 O 0.61189 1.15010 0.53021
 O1086 O 0.64774 1.18659 0.53014
 C1087 C 0.62263 1.17555 0.54055
 C1088 C 0.60621 1.19252 0.56518
 C1089 C 0.61713 1.22151 0.57481
 H1090 H 0.63792 1.23017 0.56413
 O1091 O 0.39332 0.84401 0.52687
 O1092 O 0.35783 0.80723 0.52560
 C1093 C 0.38277 0.81826 0.53654
 C1094 C 0.39898 0.80116 0.56136
 C1095 C 0.38833 0.77187 0.57035
 H1096 H 0.36868 0.76263 0.55819
 O1097 O 0.61412 0.96515 0.65561
 O1098 O 0.65018 0.96491 0.69178
 C1099 C 0.62486 0.95444 0.68087
 C1100 C 0.60789 0.92896 0.69685
 C1101 C 0.61709 0.91788 0.72622
 H1102 H 0.63639 0.92872 0.73808
 O1103 O 0.38865 1.02808 0.65432
 O1104 O 0.35242 1.02781 0.69031
 C1105 C 0.37748 1.03881 0.67940
 C1106 C 0.39348 1.06509 0.69503
 C1107 C 0.38097 1.07941 0.72170
 H1108 H 0.36001 1.07029 0.73207
 O1109 O 0.47065 1.15104 0.61024
 O1110 O 0.47138 1.18713 0.64642
 C1111 C 0.46031 1.17628 0.62132
 C1112 C 0.43465 1.19301 0.60557
 C1113 C 0.42597 1.22248 0.61603
 H1114 H 0.43998 1.23287 0.63380
 O1115 O 0.53127 0.84210 0.61144
 O1116 O 0.53155 0.80493 0.64653
 C1117 C 0.54190 0.81655 0.62149
 C1118 C 0.56697 0.80097 0.60386
 C1119 C 0.57808 0.77147 0.61237
 H1120 H 0.56770 0.75940 0.63179
 O1121 O 0.65420 0.88723 0.52768
 O1122 O 0.69011 0.85086 0.52671
 C1123 C 0.67946 0.87596 0.53777
 C1124 C 0.69621 0.89163 0.56323
 C1125 C 0.72567 0.88134 0.57214
 H1126 H 0.73602 0.86319 0.55861
 O1127 O 0.34315 1.11111 0.53047
 O1128 O 0.30661 1.14678 0.53154
 C1129 C 0.31790 1.12139 0.54148
 C1130 C 0.30235 1.10366 0.56657
 C1131 C 0.27291 1.11215 0.57781
 H1132 H 0.26082 1.13159 0.56749
 Cu1133 Cu 0.50112 0.86663 0.62920
 Cu1134 Cu 0.50104 0.82246 0.67176
 Cu1135 Cu 0.50143 1.12678 0.62812
 Cu1136 Cu 0.50168 1.16992 0.67170
 Cu1137 Cu 0.37528 0.86964 0.49740
 Cu1138 Cu 0.33279 0.82529 0.49643
 Cu1139 Cu 0.62865 0.87048 0.49744
 Cu1140 Cu 0.67179 0.82676 0.49655
 Cu1141 Cu 0.36750 1.12933 0.50051
 Cu1142 Cu 0.32418 1.17248 0.50126
 Cu1143 Cu 0.62915 1.12451 0.50006
 Cu1144 Cu 0.67195 1.16861 0.50067
 Cu1145 Cu 0.37241 0.99763 0.62850
 Cu1146 Cu 0.32902 0.99660 0.67172
 Cu1147 Cu 0.63128 0.99510 0.62991
 Cu1148 Cu 0.67478 0.99525 0.67303
 C1149 C 0.58263 0.91474 0.68188
 H1150 H 0.57523 0.92300 0.65936
 C1151 C 0.60154 0.89273 0.74040
 C1152 C 0.42048 1.07754 0.68160
 H1153 H 0.43027 1.06695 0.66106
 C1154 C 0.39466 1.10640 0.73430
 C1155 C 0.31785 1.07846 0.58028
 H1156 H 0.34065 1.07186 0.57212
 C1157 C 0.25907 1.09603 0.60273
 C1158 C 0.68223 0.91582 0.57965
 H1159 H 0.65933 0.92359 0.57288
 C1160 C 0.74109 0.89421 0.59788
 C1161 C 0.58073 0.81644 0.57870
 H1162 H 0.57263 0.83926 0.57205
 C1163 C 0.60297 0.75757 0.59632
 C1164 C 0.41798 1.17933 0.58122
 H1165 H 0.42465 1.15650 0.57318
 C1166 C 0.40009 1.23811 0.60373
 C1167 C 0.42089 0.91500 0.68040
 H1168 H 0.42849 0.92157 0.65740
 C1169 C 0.39894 0.89711 0.73933
 C1170 C 0.58239 1.07743 0.68018
 H1171 H 0.57442 1.06969 0.65767
 C1172 C 0.60358 1.09762 0.73866
 C1173 C 0.42353 0.81476 0.57747
 H1174 H 0.43130 0.83772 0.57087
 C1175 C 0.40194 0.75565 0.59516
 C1176 C 0.58071 1.17940 0.58005
 H1177 H 0.57279 1.15664 0.57297
 C1178 C 0.60225 1.23836 0.59837
 C1179 C 0.32225 0.91557 0.57994
 H1180 H 0.34496 0.92369 0.57299
 C1181 C 0.26344 0.89363 0.59838
 C1182 C 0.68218 1.07562 0.58118
 H1183 H 0.65937 1.06758 0.57442
 C1184 C 0.74118 1.09760 0.59880
 O1185 O 0.46885 0.39293 0.84330
 O1186 O 0.46874 0.35716 0.80680
 C1187 C 0.45804 0.38214 0.81810
 C1188 C 0.43205 0.39833 0.80248
 C1189 C 0.42137 0.38880 0.77315
 H1190 H 0.43301 0.37004 0.76121
 O1191 O 0.53027 0.61022 0.84784
 O1192 O 0.53003 0.64715 0.81253
 C1193 C 0.54081 0.62181 0.82288
 C1194 C 0.56618 0.60617 0.80578
 C1195 C 0.57555 0.61741 0.77676
 H1196 H 0.56367 0.63736 0.76776
 O1197 O 0.34248 0.47038 0.88966
 O1198 O 0.30550 0.47051 0.85441
 C1199 C 0.31718 0.45952 0.87919
 C1200 C 0.30205 0.43327 0.89578
 C1201 C 0.27263 0.42215 0.88696
 H1202 H 0.26023 0.43344 0.86826
 O1203 O 0.65560 0.53128 0.88711
 O1204 O 0.69239 0.53269 0.85172
 C1205 C 0.68076 0.54266 0.87696
 C1206 C 0.69602 0.56810 0.89466
 C1207 C 0.72523 0.57965 0.88583
 H1208 H 0.73711 0.56947 0.86621
 O1209 O 0.39198 0.34644 0.97036
 O1210 O 0.35674 0.30938 0.97008
 C1211 C 0.38167 0.32107 0.95970
 C1212 C 0.39749 0.30577 0.93364
 C1213 C 0.38536 0.27819 0.92179
 H1214 H 0.36793 0.26625 0.93512
 O1215 O 0.60850 0.65108 0.97423
 O1216 O 0.64393 0.68793 0.97503
 C1217 C 0.61896 0.67672 0.96429
 C1218 C 0.60251 0.69361 0.93954
 C1219 C 0.61297 0.72291 0.93045
 H1220 H 0.63287 0.73209 0.94224
 O1221 O 0.38415 0.53139 0.84719
 O1222 O 0.34785 0.53217 0.81125
 C1223 C 0.37339 0.54232 0.82205
 C1224 C 0.39080 0.56744 0.80595
 C1225 C 0.38181 0.57858 0.77652
 H1226 H 0.36215 0.56824 0.76482
 O1227 O 0.61537 0.47059 0.84307
 O1228 O 0.65148 0.47103 0.80699
 C1229 C 0.62632 0.46009 0.81784
 C1230 C 0.60929 0.43468 0.80177
 C1231 C 0.61915 0.42235 0.77305
 H1232 H 0.63976 0.43149 0.76201
 O1233 O 0.52982 0.35116 0.88614
 O1234 O 0.52923 0.31511 0.84993
 C1235 C 0.54005 0.32585 0.87517
 C1236 C 0.56521 0.30886 0.89136
 C1237 C 0.57385 0.27936 0.88098
 H1238 H 0.56020 0.26925 0.86279
 O1239 O 0.46929 0.65174 0.89118
 O1240 O 0.46985 0.68836 0.85551
 C1241 C 0.45915 0.67727 0.88056
 C1242 C 0.43454 0.69444 0.89708
 C1243 C 0.42539 0.72359 0.88627
 H1244 H 0.43646 0.73212 0.86569
 O1245 O 0.34715 0.61166 0.97207
 O1246 O 0.31134 0.64811 0.97288
 C1247 C 0.32185 0.62283 0.96209
 C1248 C 0.30446 0.60674 0.93741
 C1249 C 0.27512 0.61750 0.92881
 H1250 H 0.26569 0.63650 0.94177
 O1251 O 0.65384 0.39113 0.96841
 O1252 O 0.68990 0.35493 0.96861
 C1253 C 0.67926 0.38037 0.95829
 C1254 C 0.69649 0.39687 0.93371
 C1255 C 0.72620 0.38692 0.92560
 H1256 H 0.73646 0.36924 0.93978
 O1257 O 0.46914 0.60987 0.84842
 O1258 O 0.46939 0.64657 0.81287
 C1259 C 0.45839 0.62141 0.82360
 C1260 C 0.43245 0.60590 0.80721
 C1261 C 0.42263 0.61711 0.77841
 H1262 H 0.43411 0.63733 0.76944
 O1263 O 0.52971 0.39352 0.84357
 O1264 O 0.52926 0.35749 0.80734
 C1265 C 0.54017 0.38253 0.81837
 C1266 C 0.56611 0.39804 0.80210
 C1267 C 0.57530 0.38727 0.77301
 H1268 H 0.56077 0.37020 0.76222
 O1269 O 0.65731 0.47102 0.88566
 O1270 O 0.69412 0.47153 0.85027
 C1271 C 0.68278 0.46066 0.87521
 C1272 C 0.69847 0.43530 0.89234
 C1273 C 0.72789 0.42406 0.88359
 H1274 H 0.73980 0.43427 0.86399
 O1275 O 0.34217 0.53098 0.89006
 O1276 O 0.30532 0.53173 0.85467
 C1277 C 0.31688 0.54197 0.87975
 C1278 C 0.30161 0.56747 0.89695
 C1279 C 0.27229 0.57890 0.88824
 H1280 H 0.26006 0.56840 0.86899
 O1281 O 0.38812 0.65578 0.97284
 O1282 O 0.35251 0.69242 0.97286
 C1283 C 0.37769 0.68131 0.96240
 C1284 C 0.39489 0.69725 0.93719
 C1285 C 0.38648 0.72703 0.92647
 H1286 H 0.36761 0.73937 0.93750
 O1287 O 0.61254 0.34735 0.96749
 O1288 O 0.64834 0.31094 0.96695
 C1289 C 0.62325 0.32224 0.95633
 C1290 C 0.60632 0.30679 0.93038
 C1291 C 0.61520 0.27741 0.91892
 H1292 H 0.63457 0.26536 0.92940
 O1293 O 0.61411 0.53081 0.84397
 O1294 O 0.65017 0.53221 0.80783
 C1295 C 0.62470 0.54205 0.81895
 C1296 C 0.60725 0.56733 0.80347
 C1297 C 0.61613 0.57874 0.77423
 H1298 H 0.63562 0.56839 0.76228
 O1299 O 0.38453 0.47124 0.84713
 O1300 O 0.34803 0.47149 0.81136
 C1301 C 0.37349 0.46099 0.82187
 C1302 C 0.39036 0.43647 0.80478
 C1303 C 0.37972 0.42631 0.77583
 H1304 H 0.35864 0.43634 0.76703
 O1305 O 0.52934 0.65278 0.89076
 O1306 O 0.52959 0.68967 0.85538
 C1307 C 0.53960 0.67852 0.88069
 C1308 C 0.56387 0.69497 0.89852
 C1309 C 0.57425 0.72479 0.88999
 H1310 H 0.56371 0.73656 0.87047
 O1311 O 0.46944 0.34968 0.88509
 O1312 O 0.46899 0.31395 0.84854
 C1313 C 0.45875 0.32455 0.87396
 C1314 C 0.43372 0.30800 0.89053
 C1315 C 0.41981 0.28129 0.87783
 H1316 H 0.42795 0.27223 0.85590
 O1317 O 0.65229 0.60996 0.97285
 O1318 O 0.68759 0.64693 0.97364
 C1319 C 0.67723 0.62172 0.96240
 C1320 C 0.69416 0.60640 0.93652
 C1321 C 0.72339 0.61746 0.92733
 H1322 H 0.73316 0.63639 0.94025
 O1323 O 0.34774 0.38703 0.96995
 O1324 O 0.31251 0.34996 0.96971
 C1325 C 0.32272 0.37561 0.95936
 C1326 C 0.30530 0.39214 0.93470
 C1327 C 0.27614 0.38125 0.92530
 H1328 H 0.26741 0.36059 0.93619
 Cu1329 Cu 0.49932 0.37551 0.86812
 Cu1330 Cu 0.49918 0.33239 0.82445
 Cu1331 Cu 0.49971 0.62733 0.87304
 Cu1332 Cu 0.49975 0.67146 0.83033
 Cu1333 Cu 0.36683 0.50105 0.87212
 Cu1334 Cu 0.32292 0.50150 0.82940
 Cu1335 Cu 0.63203 0.50077 0.86843
 Cu1336 Cu 0.67574 0.50205 0.82561
 C1337 C 0.41672 0.42260 0.81775
 H1338 H 0.42470 0.43002 0.84036
 C1339 C 0.39557 0.40314 0.75911
 C1340 C 0.58191 0.58095 0.81877
 H1341 H 0.57498 0.57255 0.84139
 C1342 C 0.60009 0.60360 0.76024
 C1343 C 0.31790 0.41831 0.92005
 H1344 H 0.34061 0.42648 0.92700
 C1345 C 0.25903 0.39636 0.90195
 C1346 C 0.68082 0.58157 0.92021
 H1347 H 0.65816 0.57318 0.92703
 C1348 C 0.73938 0.60437 0.90201
 C1349 C 0.42203 0.32030 0.91825
 H1350 H 0.43140 0.34173 0.92741
 C1351 C 0.39450 0.26695 0.89270
 C1352 C 0.57779 0.67994 0.92376
 H1353 H 0.57018 0.65695 0.93043
 C1354 C 0.59887 0.73923 0.90602
 C1355 C 0.41661 0.58094 0.82068
 H1356 H 0.42385 0.57265 0.84325
 C1357 C 0.39814 0.60308 0.76204
 C1358 C 0.58289 0.42196 0.81613
 H1359 H 0.57561 0.43028 0.83866
 C1360 C 0.60236 0.39818 0.75843
 C1361 C 0.58130 0.32225 0.91622
 H1362 H 0.57462 0.34510 0.92419
 C1363 C 0.59919 0.26338 0.89390
 C1364 C 0.41945 0.68156 0.92266
 H1365 H 0.42618 0.65869 0.93055
 C1366 C 0.40196 0.74077 0.90103
 C1367 C 0.31740 0.58156 0.92168
 H1368 H 0.34023 0.57344 0.92824
 C1369 C 0.25871 0.60416 0.90404
 C1370 C 0.68296 0.42129 0.91733
 H1371 H 0.65991 0.42892 0.92371
 C1372 C 0.74200 0.39942 0.89996
 O1373 O 0.53223 0.38835 1.15510
 O1374 O 0.53207 0.35151 1.19052
 C1375 C 0.54269 0.37687 1.18007
 C1376 C 0.56766 0.39286 1.19712
 C1377 C 0.57761 0.38133 1.22571
 H1378 H 0.56719 0.36021 1.23391
 O1379 O 0.46682 0.60793 1.15951
 O1380 O 0.46648 0.64346 1.19623
 C1381 C 0.45608 0.61833 1.18478
 C1382 C 0.43068 0.60127 1.20027
 C1383 C 0.41974 0.61029 1.22954
 H1384 H 0.43067 0.62951 1.24147
 O1385 O 0.34613 0.52759 1.11006
 O1386 O 0.30946 0.52651 1.14563
 C1387 C 0.32071 0.53767 1.12079
 C1388 C 0.30426 0.56321 1.10495
 C1389 C 0.27471 0.57185 1.11498
 H1390 H 0.26400 0.55760 1.13232
 O1391 O 0.65084 0.46949 1.11235
 O1392 O 0.68735 0.46928 1.14811
 C1393 C 0.67614 0.45896 1.12285
 C1394 C 0.69304 0.43449 1.10590
 C1395 C 0.72222 0.42543 1.11647
 H1396 H 0.73069 0.43613 1.13727
 O1397 O 0.61110 0.34792 1.02836
 O1398 O 0.64725 0.31184 1.02787
 C1399 C 0.62212 0.32267 1.03870
 C1400 C 0.60610 0.30583 1.06395
 C1401 C 0.61688 0.27665 1.07323
 H1402 H 0.63679 0.26744 1.06145
 O1403 O 0.39015 0.65258 1.03317
 O1404 O 0.35420 0.68892 1.03317
 C1405 C 0.37926 0.67771 1.04381
 C1406 C 0.39492 0.69393 1.06949
 C1407 C 0.38494 0.72354 1.07771
 H1408 H 0.36872 0.73473 1.06250
 O1409 O 0.38797 0.46635 1.15191
 O1410 O 0.35121 0.46559 1.18739
 C1411 C 0.37673 0.45542 1.17678
 C1412 C 0.39336 0.43071 1.19375
 C1413 C 0.38248 0.42095 1.22266
 H1414 H 0.36122 0.43093 1.23104
 O1415 O 0.60983 0.52986 1.15585
 O1416 O 0.64644 0.52930 1.19152
 C1417 C 0.62102 0.53995 1.18106
 C1418 C 0.60461 0.56438 1.19852
 C1419 C 0.61572 0.57346 1.22755
 H1420 H 0.63641 0.56243 1.23592
 O1421 O 0.47182 0.34681 1.11194
 O1422 O 0.47213 0.31012 1.14753
 C1423 C 0.46160 0.32132 1.12245
 C1424 C 0.43700 0.30448 1.10573
 C1425 C 0.42769 0.27521 1.11610
 H1426 H 0.43891 0.26607 1.13636
 O1427 O 0.52698 0.64985 1.11699
 O1428 O 0.52712 0.68590 1.15321
 C1429 C 0.53762 0.67497 1.12787
 C1430 C 0.56271 0.69141 1.11114
 C1431 C 0.57220 0.72085 1.12102
 H1432 H 0.56064 0.73063 1.14078
 O1433 O 0.34740 0.38675 1.03027
 O1434 O 0.31230 0.34956 1.02979
 C1435 C 0.32230 0.37514 1.04031
 C1436 C 0.30477 0.39136 1.06472
 C1437 C 0.27537 0.38081 1.07366
 H1438 H 0.26620 0.36077 1.06203
 O1439 O 0.65246 0.60875 1.03363
 O1440 O 0.68758 0.64591 1.03390
 C1441 C 0.67746 0.62025 1.04409
 C1442 C 0.69480 0.60412 1.06875
 C1443 C 0.72413 0.61480 1.07757
 H1444 H 0.73322 0.63451 1.06541
 O1445 O 0.52715 0.60985 1.16150
 O1446 O 0.52740 0.64532 1.19825
 C1447 C 0.53800 0.62033 1.18683
 C1448 C 0.56390 0.60346 1.20211
 C1449 C 0.57514 0.61198 1.23162
 H1450 H 0.56410 0.63069 1.24419
 O1451 O 0.47167 0.38719 1.15617
 O1452 O 0.47146 0.35074 1.19199
 C1453 C 0.46080 0.37600 1.18117
 C1454 C 0.43480 0.39233 1.19680
 C1455 C 0.42404 0.38344 1.22638
 H1456 H 0.43560 0.36490 1.23875
 O1457 O 0.65528 0.52959 1.11630
 O1458 O 0.69205 0.52948 1.15178
 C1459 C 0.68089 0.53998 1.12669
 C1460 C 0.69696 0.56502 1.10939
 C1461 C 0.72666 0.57586 1.11789
 H1462 H 0.73875 0.56518 1.13713
 O1463 O 0.34366 0.46721 1.11129
 O1464 O 0.30686 0.46636 1.14675
 C1465 C 0.31821 0.45640 1.12156
 C1466 C 0.30240 0.43136 1.10433
 C1467 C 0.27279 0.42077 1.11295
 H1468 H 0.26069 0.43186 1.13194
 O1469 O 0.60937 0.65091 1.03478
 O1470 O 0.64460 0.68797 1.03514
 C1471 C 0.61963 0.67639 1.04561
 C1472 C 0.60263 0.69233 1.07100
 C1473 C 0.61160 0.72207 1.08113
 H1474 H 0.63068 0.73382 1.06979
 O1475 O 0.39022 0.34450 1.03051
 O1476 O 0.35519 0.30723 1.03009
 C1477 C 0.38010 0.31875 1.04073
 C1478 C 0.39726 0.30268 1.06574
 C1479 C 0.38852 0.27293 1.07609
 H1480 H 0.36942 0.26098 1.06500
 O1481 O 0.61293 0.46952 1.15895
 O1482 O 0.64926 0.46898 1.19490
 C1483 C 0.62392 0.45866 1.18409
 C1484 C 0.60720 0.43309 1.19988
 C1485 C 0.61635 0.42178 1.22918
 H1486 H 0.63545 0.43267 1.24132
 O1487 O 0.38588 0.52672 1.15518
 O1488 O 0.34920 0.52571 1.19074
 C1489 C 0.37456 0.53656 1.18054
 C1490 C 0.39076 0.56127 1.19801
 C1491 C 0.38001 0.57065 1.22723
 H1492 H 0.36008 0.55894 1.23657
 O1493 O 0.46676 0.65282 1.11969
 O1494 O 0.46629 0.68886 1.15587
 C1495 C 0.45595 0.67805 1.13050
 C1496 C 0.43095 0.69424 1.11303
 C1497 C 0.41919 0.72349 1.12210
 H1498 H 0.42837 0.73483 1.14253
 O1499 O 0.53195 0.34573 1.11278
 O1500 O 0.53232 0.30872 1.14804
 C1501 C 0.54255 0.32015 1.12288
 C1502 C 0.56743 0.30422 1.10520
 C1503 C 0.57829 0.27464 1.11387
 H1504 H 0.56786 0.26280 1.13340
 O1505 O 0.65494 0.38913 1.02870
 O1506 O 0.69128 0.35322 1.02888
 C1507 C 0.68023 0.37844 1.03945
 C1508 C 0.69600 0.39540 1.06509
 C1509 C 0.72593 0.38719 1.07565
 H1510 H 0.73846 0.36863 1.06432
 O1511 O 0.34531 0.61269 1.03229
 O1512 O 0.30924 0.64888 1.03307
 C1513 C 0.32005 0.62337 1.04307
 C1514 C 0.30378 0.60579 1.06779
 C1515 C 0.27440 0.61483 1.07893
 H1516 H 0.26304 0.63496 1.06913
 Cu1517 Cu 0.50195 0.37079 1.13053
 Cu1518 Cu 0.50202 0.32660 1.17316
 Cu1519 Cu 0.49683 0.62657 1.13592
 Cu1520 Cu 0.49686 0.66949 1.17955
 Cu1521 Cu 0.37291 0.36991 1.00046
 Cu1522 Cu 0.33065 0.32527 0.99983
 Cu1523 Cu 0.62946 0.37240 0.99826
 Cu1524 Cu 0.67272 0.32903 0.99801
 Cu1525 Cu 0.37128 0.62956 1.00249
 Cu1526 Cu 0.32826 0.67331 1.00301
 Cu1527 Cu 0.62711 0.62642 1.00391
 Cu1528 Cu 0.66949 0.67085 1.00448
 Cu1529 Cu 0.36956 0.49701 1.12851
 Cu1530 Cu 0.32552 0.49599 1.17120
 Cu1531 Cu 0.62858 0.49972 1.13239
 Cu1532 Cu 0.67244 0.49922 1.17512
 C1533 C 0.58229 0.41886 1.18453
 H1534 H 0.57494 0.42732 1.16207
 C1535 C 0.60102 0.39620 1.24283
 C1536 C 0.41627 0.57647 1.18492
 H1537 H 0.42432 0.56957 1.16217
 C1538 C 0.39445 0.59504 1.24352
 C1539 C 0.31848 0.57998 1.08115
 H1540 H 0.34143 0.57328 1.07350
 C1541 C 0.25966 0.59817 1.10300
 C1542 C 0.68015 0.41964 1.08010
 H1543 H 0.65722 0.42632 1.07236
 C1544 C 0.73958 0.40255 1.10128
 C1545 C 0.58121 0.31931 1.07982
 H1546 H 0.57324 0.34211 1.07298
 C1547 C 0.60285 0.26028 1.09769
 C1548 C 0.41816 0.67957 1.08687
 H1549 H 0.42591 0.65664 1.08022
 C1550 C 0.39560 0.73829 1.10465
 C1551 C 0.41965 0.41654 1.18111
 H1552 H 0.42769 0.42373 1.15845
 C1553 C 0.39826 0.39837 1.24006
 C1554 C 0.57858 0.57920 1.18609
 H1555 H 0.57035 0.57244 1.16336
 C1556 C 0.60098 0.59671 1.24489
 C1557 C 0.42195 0.31795 1.08040
 H1558 H 0.42881 0.34087 1.07279
 C1559 C 0.40386 0.25871 1.10126
 C1560 C 0.57784 0.67742 1.08595
 H1561 H 0.57085 0.65447 1.07852
 C1562 C 0.59634 0.73685 1.10600
 C1563 C 0.31790 0.41680 1.07987
 H1564 H 0.34083 0.42461 1.07327
 C1565 C 0.25873 0.39558 1.09752
 C1566 C 0.68158 0.57910 1.08445
 H1567 H 0.65866 0.57125 1.07783
 C1568 C 0.74079 0.60076 1.10183
 C1569 C 1.12875 1.13493 1.32480
 C1570 C 1.10098 1.15396 1.31217
 C1571 C 1.09055 1.14461 1.28406
 C1572 C 1.10761 1.11608 1.27071
 C1573 C 1.14177 1.12621 1.27040
 C1574 C 1.15266 1.13624 1.29824
 C1575 C 1.11571 1.10169 1.32468
 C1576 C 1.10535 1.09172 1.29657
 H1577 H 1.09017 1.17378 1.32289
 H1578 H 1.07286 1.15811 1.27259
 H1579 H 1.15589 1.12678 1.24959
 H1580 H 1.17590 1.14545 1.30074
 H1581 H 1.11419 1.08740 1.34533
 H1582 H 1.09519 1.06892 1.29333
 C1583 C 1.13340 0.62952 0.82830
 C1584 C 1.15093 0.59979 0.81792
 C1585 C 1.14168 0.58823 0.79014
 C1586 C 1.11551 0.60691 0.77453
 C1587 C 1.08993 0.60752 0.79934
 C1588 C 1.09938 0.61868 0.82733
 C1589 C 1.13746 0.65186 0.80075
 C1590 C 1.12796 0.64024 0.77310
 H1591 H 1.16813 0.58718 0.83093
 H1592 H 1.15075 0.56625 0.78220
 H1593 H 1.06675 0.59843 0.79568
 H1594 H 1.08422 0.61902 0.84740
 H1595 H 1.14785 0.67468 0.80262
 H1596 H 1.13011 0.65332 0.75171
 C1597 C 0.63196 1.13060 0.82487
 C1598 C 0.64796 1.09984 0.81519
 C1599 C 0.63876 1.08858 0.78734
 C1600 C 0.61447 1.10878 0.77058
 C1601 C 0.58814 1.11144 0.79441
 C1602 C 0.59729 1.12224 0.82262
 C1603 C 0.63866 1.15238 0.79735
 C1604 C 0.62924 1.14121 0.76937
 H1605 H 0.66531 1.08713 0.82782
 H1606 H 0.64736 1.06634 0.77968
 H1607 H 0.56448 1.10415 0.78991
 H1608 H 0.58138 1.12416 0.84200
 H1609 H 0.65038 1.17452 0.79961
 H1610 H 0.63288 1.15397 0.74800
 C1611 C 0.63306 0.62776 1.33028
 C1612 C 0.65040 0.59852 1.31873
 C1613 C 0.64020 0.58766 1.29095
 C1614 C 0.61343 0.60681 1.27650
 C1615 C 0.58865 0.60668 1.30199
 C1616 C 0.59904 0.61677 1.33000
 C1617 C 0.63654 0.65078 1.30314
 C1618 C 0.62596 0.64006 1.27555
 H1619 H 0.66833 0.58599 1.33081
 H1620 H 0.64923 0.56597 1.28227
 H1621 H 0.56535 0.59777 1.29874
 H1622 H 0.58452 0.61645 1.35053
 H1623 H 0.64752 0.67330 1.30516
 H1624 H 0.62772 0.65364 1.25444
 C1625 C 0.86865 0.87178 1.32639
 C1626 C 0.90267 0.88267 1.32496
 C1627 C 0.91235 0.89197 1.29637
 C1628 C 0.88697 0.89098 1.27141
 C1629 C 0.87458 0.85762 1.27195
 C1630 C 0.86480 0.84775 1.30020
 C1631 C 0.85107 0.90063 1.31404
 C1632 C 0.86061 0.91053 1.28575
 H1633 H 0.91770 0.88360 1.34512
 H1634 H 0.93557 0.90077 1.29229
 H1635 H 0.87263 0.84323 1.25140
 H1636 H 0.85431 0.82513 1.30336
 H1637 H 0.83345 0.91375 1.32588
 H1638 H 0.85160 0.93208 1.27668
 C1639 C 0.86880 0.37082 0.82642
 C1640 C 0.85221 0.40048 0.81473
 C1641 C 0.86211 0.41066 0.78663
 C1642 C 0.88801 0.39064 0.77204
 C1643 C 0.91326 0.39050 0.79718
 C1644 C 0.90309 0.38096 0.82554
 C1645 C 0.86464 0.34744 0.79975
 C1646 C 0.87480 0.35764 0.77181
 H1647 H 0.83602 0.41450 0.82761
 H1648 H 0.85450 0.43306 0.77836
 H1649 H 0.93666 0.39897 0.79347
 H1650 H 0.91786 0.38146 0.84590
 H1651 H 0.85367 0.32499 0.80230
 H1652 H 0.87265 0.34370 0.75097
 C1653 C 0.36700 0.86846 0.82592
 C1654 C 0.40003 0.88196 0.82541
 C1655 C 0.41019 0.89099 0.79699
 C1656 C 0.38631 0.88696 0.77097
 C1657 C 0.37672 0.85266 0.77228
 C1658 C 0.36621 0.84316 0.80051
 C1659 C 0.34749 0.89496 0.81144
 C1660 C 0.35716 0.90407 0.78296
 H1661 H 0.41416 0.88450 0.84608
 H1662 H 0.43295 0.90115 0.79350
 H1663 H 0.37645 0.83755 0.75217
 H1664 H 0.35674 0.82013 0.80396
 H1665 H 0.32608 0.90442 0.82018
 H1666 H 0.34250 0.91935 0.76956
 C1667 C 0.36759 0.37001 1.32697
 C1668 C 0.35295 0.40094 1.31604
 C1669 C 0.36314 0.41080 1.28794
 C1670 C 0.38681 0.38891 1.27226
 C1671 C 0.41266 0.38623 1.29657
 C1672 C 0.40261 0.37708 1.32502
 C1673 C 0.36036 0.34754 1.30012
 C1674 C 0.37075 0.35715 1.27198
 H1675 H 0.33641 0.41500 1.32829
 H1676 H 0.35639 0.43347 1.27958
 H1677 H 0.43662 0.39258 1.29225
 H1678 H 0.41810 0.37556 1.34480
 H1679 H 0.34770 0.32599 1.30298
 H1680 H 0.36699 0.34370 1.25105
 C1681 C 0.86610 1.12434 0.67468
 C1682 C 0.84792 1.09549 0.68635
 C1683 C 0.85677 1.08518 0.71472
 C1684 C 0.88312 1.10425 0.72967
 C1685 C 0.90894 1.10326 0.70516
 C1686 C 0.89993 1.11306 0.67657
 C1687 C 0.86198 1.14806 0.70106
 C1688 C 0.87113 1.13775 0.72934
 H1689 H 0.83012 1.08289 0.67417
 H1690 H 0.84693 1.06397 0.72375
 H1691 H 0.93196 1.09411 0.70954
 H1692 H 0.91531 1.11225 0.65668
 H1693 H 0.85175 1.17081 0.69798
 H1694 H 0.86887 1.15187 0.75004
 C1695 C 0.86714 0.62632 0.17644
 C1696 C 0.84875 0.59778 0.18838
 C1697 C 0.85792 0.58728 0.21656
 C1698 C 0.88491 0.60583 0.23111
 C1699 C 0.91024 0.60458 0.20613
 C1700 C 0.90084 0.61456 0.17771
 C1701 C 0.86390 0.65006 0.20295
 C1702 C 0.87341 0.63953 0.23106
 H1703 H 0.83034 0.58566 0.17662
 H1704 H 0.84739 0.56654 0.22581
 H1705 H 0.93324 0.59519 0.21010
 H1706 H 0.91586 0.61364 0.15756
 H1707 H 0.85398 0.67297 0.20007
 H1708 H 0.87175 0.65363 0.25183
 C1709 C 0.36418 1.13082 0.17323
 C1710 C 0.34426 1.10404 0.18652
 C1711 C 0.35352 1.09392 0.21487
 C1712 C 0.38262 1.11056 0.22783
 C1713 C 0.40678 1.10702 0.20201
 C1714 C 0.39703 1.11690 0.17372
 C1715 C 0.36336 1.15535 0.19933
 C1716 C 0.37338 1.14493 0.22738
 H1717 H 0.32338 1.09450 0.17660
 H1718 H 0.33924 1.07733 0.22703
 H1719 H 0.42933 1.09642 0.20546
 H1720 H 0.41130 1.11465 0.15313
 H1721 H 0.35432 1.17861 0.19641
 H1722 H 0.37308 1.15949 0.24789
 C1723 C 0.36933 0.63339 0.67501
 C1724 C 0.40063 0.64760 0.68542
 C1725 C 0.41062 0.63765 0.71353
 C1726 C 0.38849 0.61460 0.72983
 C1727 C 0.35706 0.63135 0.73020
 C1728 C 0.34732 0.64151 0.70196
 C1729 C 0.37550 0.59825 0.67748
 C1730 C 0.38487 0.58847 0.70596
 H1731 H 0.41446 0.66436 0.67317
 H1732 H 0.43320 0.64479 0.72173
 H1733 H 0.34397 0.63572 0.75122
 H1734 H 0.32602 0.65456 0.69909
 H1735 H 0.37318 0.58246 0.65804
 H1736 H 0.39057 0.56441 0.71062
 C1737 C 1.13629 0.87312 0.67396
 C1738 C 1.15474 0.90183 0.68532
 C1739 C 1.14492 0.91332 0.71301
 C1740 C 1.11731 0.89542 0.72737
 C1741 C 1.09269 0.89622 0.70170
 C1742 C 1.10274 0.88534 0.67390
 C1743 C 1.13874 0.85026 0.70130
 C1744 C 1.12852 0.86169 0.72873
 H1745 H 1.17343 0.91332 0.67334
 H1746 H 1.15527 0.93427 0.72204
 H1747 H 1.06973 0.90606 0.70470
 H1748 H 1.08831 0.88591 0.65330
 H1749 H 1.14877 0.82729 0.69950
 H1750 H 1.12968 0.84829 0.74999
 C1751 C 1.13407 0.37332 0.17542
 C1752 C 1.10049 0.38528 0.17706
 C1753 C 1.09178 0.39613 0.20535
 C1754 C 1.11758 0.39528 0.22992
 C1755 C 1.12883 0.36147 0.23045
 C1756 C 1.13768 0.35019 0.20240
 C1757 C 1.15295 0.40200 0.18637
 C1758 C 1.14443 0.41323 0.21452
 H1759 H 1.08502 0.38572 0.15721
 H1760 H 1.06893 0.40579 0.20950
 H1761 H 1.13080 0.34785 0.25151
 H1762 H 1.14732 0.32712 0.19985
 H1763 H 1.17155 0.41335 0.17416
 H1764 H 1.15567 0.43371 0.22355
 C1765 C 0.63524 0.86966 0.16993
 C1766 C 0.65384 0.89875 0.18021
 C1767 C 0.64495 0.91071 0.20794
 C1768 C 0.61801 0.89301 0.22354
 C1769 C 0.59249 0.89310 0.19871
 C1770 C 0.60161 0.88162 0.17080
 C1771 C 0.63865 0.84734 0.19761
 C1772 C 0.62942 0.85934 0.22518
 H1773 H 0.67224 0.91008 0.16768
 H1774 H 0.65573 0.93171 0.21632
 H1775 H 0.56957 0.90283 0.20232
 H1776 H 0.58644 0.88159 0.15073
 H1777 H 0.64854 0.82430 0.19592
 H1778 H 0.63129 0.84634 0.24665
 C1779 C 0.63312 0.36391 0.67350
 C1780 C 0.65674 0.36078 0.70027
 C1781 C 0.64661 0.37218 0.72799
 C1782 C 0.61322 0.38466 0.72736
 C1783 C 0.61277 0.40883 0.70132
 C1784 C 0.62263 0.39801 0.67346
 C1785 C 0.60443 0.34655 0.68633
 C1786 C 0.59441 0.35705 0.71419
 H1787 H 0.67912 0.34957 0.69786
 H1788 H 0.66052 0.37082 0.74891
 H1789 H 0.60454 0.43241 0.70437
 H1790 H 0.62278 0.41242 0.65284
 H1791 H 0.59501 0.32496 0.67794
 H1792 H 0.57784 0.34312 0.72679
 C1793 C 1.32451 1.13579 1.12850
 C1794 C 1.31410 1.15270 1.09846
 C1795 C 1.28588 1.14387 1.08768
 C1796 C 1.26967 1.11897 1.10760
 C1797 C 1.29355 1.09257 1.10887
 C1798 C 1.32202 1.10139 1.11920
 C1799 C 1.29754 1.14192 1.15111
 C1800 C 1.26930 1.13281 1.14041
 H1801 H 1.32650 1.17041 1.08599
 H1802 H 1.27743 1.15324 1.06603
 H1803 H 1.28886 1.06914 1.10096
 H1804 H 1.34144 1.08543 1.12013
 H1805 H 1.30034 1.15312 1.17344
 H1806 H 1.24825 1.13617 1.15376
 C1807 C 1.32490 0.63128 0.63498
 C1808 C 1.30037 0.65747 0.63428
 C1809 C 1.27206 0.64861 0.62352
 C1810 C 1.26980 0.61406 0.61532
 C1811 C 1.29603 0.60803 0.59221
 C1812 C 1.32454 0.61632 0.60262
 C1813 C 1.30918 0.60618 0.65536
 C1814 C 1.28048 0.59781 0.64550
 H1815 H 1.30433 0.68064 0.64319
 H1816 H 1.25245 0.66435 0.62304
 H1817 H 1.29258 0.59705 0.56984
 H1818 H 1.34537 0.61232 0.58911
 H1819 H 1.31736 0.59726 0.67723
 H1820 H 1.26591 0.58379 0.66037
 C1821 C 0.82718 1.12851 0.62971
 C1822 C 0.81581 1.14589 0.60041
 C1823 C 0.78783 1.13613 0.58967
 C1824 C 0.77300 1.10966 0.60891
 C1825 C 0.79811 1.08447 0.60892
 C1826 C 0.82630 1.09442 0.61897
 C1827 C 0.80016 1.13249 0.65276
 C1828 C 0.77234 1.12234 0.64211
 H1829 H 0.82802 1.16374 0.58788
 H1830 H 0.77910 1.14552 0.56816
 H1831 H 0.79445 1.06115 0.60019
 H1832 H 0.84658 1.07953 0.61879
 H1833 H 0.80246 1.14342 0.67527
 H1834 H 0.75129 1.12445 0.65572
 C1835 C 0.82745 0.63087 1.13202
 C1836 C 0.82610 0.59681 1.12125
 C1837 C 0.79769 0.58716 1.11146
 C1838 C 0.77281 0.61258 1.11175
 C1839 C 0.77266 0.62521 1.14501
 C1840 C 0.80072 0.63506 1.15538
 C1841 C 0.81587 0.64842 1.10289
 C1842 C 0.78767 0.63899 1.09247
 H1843 H 0.84620 0.58169 1.12090
 H1844 H 0.79370 0.56387 1.10280
 H1845 H 0.75178 0.62748 1.15885
 H1846 H 0.80342 0.64590 1.17788
 H1847 H 0.82791 0.66646 1.09046
 H1848 H 0.77856 0.64901 1.07142
 C1849 C 1.32728 0.86669 0.87069
 C1850 C 1.31654 0.85219 0.90176
 C1851 C 1.28888 0.86295 0.91213
 C1852 C 1.27330 0.88699 0.89059
 C1853 C 1.29809 0.91235 0.88748
 C1854 C 1.32617 0.90175 0.87778
 C1855 C 1.29991 0.86007 0.84868
 C1856 C 1.27213 0.87101 0.85881
 H1857 H 1.32849 0.83511 0.91544
 H1858 H 1.28075 0.85616 0.93485
 H1859 H 1.29436 0.93640 0.89388
 H1860 H 1.34621 0.91685 0.87585
 H1861 H 1.30216 0.84745 0.82705
 H1862 H 1.25089 0.86773 0.84572
 C1863 C 1.32813 0.36814 0.37191
 C1864 C 1.31660 0.35165 0.40167
 C1865 C 1.28903 0.36227 0.41250
 C1866 C 1.27473 0.38874 0.39301
 C1867 C 1.30060 0.41327 0.39257
 C1868 C 1.32848 0.40235 0.38239
 C1869 C 1.30088 0.36505 0.34904
 C1870 C 1.27345 0.37588 0.35991
 H1871 H 1.32952 0.33531 0.41550
 H1872 H 1.28123 0.35504 0.43521
 H1873 H 1.29777 0.43666 0.40138
 H1874 H 1.34931 0.41648 0.38273
 H1875 H 1.30269 0.35435 0.32641
 H1876 H 1.25228 0.37458 0.34635
 C1877 C 0.82855 0.86845 0.37056
 C1878 C 0.80202 0.86422 0.34697
 C1879 C 0.77393 0.87425 0.35700
 C1880 C 0.77388 0.88720 0.39012
 C1881 C 0.78846 0.86109 0.40992
 C1882 C 0.81659 0.85135 0.39983
 C1883 C 0.82735 0.90265 0.38093
 C1884 C 0.79889 0.91255 0.39036
 H1885 H 0.80483 0.85328 0.32453
 H1886 H 0.75318 0.87204 0.34295
 H1887 H 0.77972 0.85237 0.43171
 H1888 H 0.82858 0.83391 0.41307
 H1889 H 0.84756 0.91764 0.38139
 H1890 H 0.79496 0.93592 0.39881
 C1891 C 0.82775 0.36712 0.86976
 C1892 C 0.81415 0.34818 0.89715
 C1893 C 0.78602 0.35803 0.90699
 C1894 C 0.77344 0.38671 0.88955
 C1895 C 0.79953 0.41074 0.89231
 C1896 C 0.82769 0.40042 0.88261
 C1897 C 0.80162 0.36586 0.84529
 C1898 C 0.77370 0.37645 0.85545
 H1899 H 0.82326 0.32713 0.90704
 H1900 H 0.77359 0.34403 0.92360
 H1901 H 0.79634 0.43366 0.90219
 H1902 H 0.84843 0.41457 0.88430
 H1903 H 0.80439 0.35613 0.82230
 H1904 H 0.75315 0.37596 0.84094
 C1905 C 0.67449 0.86214 1.12563
 C1906 C 0.68584 0.84278 1.09750
 C1907 C 0.71416 0.85128 1.08654
 C1908 C 0.72918 0.87860 1.10427
 C1909 C 0.70452 0.90420 1.10247
 C1910 C 0.67610 0.89547 1.11292
 C1911 C 0.70121 0.85903 1.14917
 C1912 C 0.72931 0.86793 1.13820
 H1913 H 0.67361 0.82415 1.08618
 H1914 H 0.72343 0.84000 1.06620
 H1915 H 0.70868 0.92687 1.09235
 H1916 H 0.65614 0.91073 1.11170
 H1917 H 0.69850 0.84952 1.17226
 H1918 H 0.75021 0.86619 1.15211
 C1919 C 0.67660 0.36656 0.63228
 C1920 C 0.69079 0.39381 0.65088
 C1921 C 0.71909 0.40301 0.64072
 C1922 C 0.73087 0.38548 0.61168
 C1923 C 0.73022 0.35139 0.62185
 C1924 C 0.70234 0.34166 0.63288
 C1925 C 0.67621 0.37966 0.59908
 C1926 C 0.70439 0.38878 0.58818
 H1927 H 0.68084 0.40524 0.67076
 H1928 H 0.73189 0.41991 0.65408
 H1929 H 0.75051 0.33652 0.62197
 H1930 H 0.69940 0.31866 0.64253
 H1931 H 0.65517 0.38211 0.58549
 H1932 H 0.70731 0.39880 0.56530
 C1933 C 0.17642 0.86610 0.63012
 C1934 C 0.17830 0.89955 0.61781
 C1935 C 0.20680 0.90819 0.60742
 C1936 C 0.23137 0.88246 0.60898
 C1937 C 0.23130 0.87155 0.64289
 C1938 C 0.20303 0.86274 0.65375
 C1939 C 0.18783 0.84690 0.60192
 C1940 C 0.21626 0.85526 0.59117
 H1941 H 0.15848 0.91501 0.61687
 H1942 H 0.21114 0.93098 0.59767
 H1943 H 0.25213 0.86965 0.65687
 H1944 H 0.20011 0.85320 0.67682
 H1945 H 0.17590 0.82789 0.59091
 H1946 H 0.22609 0.84303 0.57168
 C1947 C 0.17262 0.36735 1.13012
 C1948 C 0.18322 0.34914 1.10092
 C1949 C 0.21131 0.35793 1.08968
 C1950 C 0.22688 0.38437 1.10817
 C1951 C 0.20236 0.41018 1.10801
 C1952 C 0.17412 0.40117 1.11876
 C1953 C 0.19981 0.36316 1.15289
 C1954 C 0.22772 0.37231 1.14164
 H1955 H 0.17059 0.33120 1.08896
 H1956 H 0.21993 0.34762 1.06856
 H1957 H 0.20644 0.43321 1.09874
 H1958 H 0.15423 0.41657 1.11863
 H1959 H 0.19751 0.35282 1.17568
 H1960 H 0.24891 0.36994 1.15501
 C1961 C 0.67039 1.13420 0.87053
 C1962 C 0.68155 1.15155 0.89994
 C1963 C 0.70886 1.14104 0.91155
 C1964 C 0.72328 1.11389 0.89304
 C1965 C 0.69731 1.08952 0.89288
 C1966 C 0.66967 1.10031 0.88202
 C1967 C 0.69803 1.13666 0.84809
 C1968 C 0.72519 1.12588 0.85965
 H1969 H 0.66877 1.16871 0.91285
 H1970 H 0.71646 1.14918 0.93400
 H1971 H 0.69991 1.06633 0.90228
 H1972 H 0.64879 1.08626 0.88227
 H1973 H 0.69664 1.14697 0.82523
 H1974 H 0.74660 1.12684 0.84646
 C1975 C 0.67351 0.63308 0.37406
 C1976 C 0.68545 0.65160 0.40247
 C1977 C 0.71361 0.64239 0.41312
 C1978 C 0.72819 0.61526 0.39479
 C1979 C 0.70309 0.59000 0.39613
 C1980 C 0.67470 0.59941 0.38599
 C1981 C 0.70010 0.63607 0.35037
 C1982 C 0.72821 0.62655 0.36103
 H1983 H 0.67360 0.67004 0.41442
 H1984 H 0.72274 0.65277 0.43399
 H1985 H 0.70696 0.56703 0.40565
 H1986 H 0.65451 0.58441 0.38692
 H1987 H 0.69731 0.64580 0.32737
 H1988 H 0.74900 0.62800 0.34695
 C1989 C 0.17256 1.13037 0.36548
 C1990 C 0.18296 1.09975 0.34995
 C1991 C 0.21062 1.08881 0.36036
 C1992 C 0.22619 1.10930 0.38543
 C1993 C 0.22770 1.14166 0.37074
 C1994 C 0.20013 1.15243 0.36004
 C1995 C 0.17325 1.12175 0.40019
 C1996 C 0.20121 1.11154 0.41066
 H1997 H 0.16998 1.08624 0.33341
 H1998 H 0.21827 1.06606 0.35312
 H1999 H 0.24908 1.15468 0.36803
 H2000 H 0.19822 1.17451 0.34816
 H2001 H 0.15304 1.12300 0.41510
 H2002 H 0.20472 1.10412 0.43444
 C2003 C 0.17321 0.63534 0.87240
 C2004 C 0.18575 0.65454 0.90011
 C2005 C 0.21377 0.64502 0.91080
 C2006 C 0.22727 0.61664 0.89350
 C2007 C 0.20150 0.59222 0.89577
 C2008 C 0.17341 0.60212 0.88549
 C2009 C 0.19985 0.63700 0.84860
 C2010 C 0.22762 0.62690 0.85943
 H2011 H 0.17526 0.67472 0.91045
 H2012 H 0.22470 0.65785 0.92931
 H2013 H 0.20475 0.56945 0.90597
 H2014 H 0.15280 0.58776 0.88696
 H2015 H 0.19742 0.64658 0.82550
 H2016 H 0.24848 0.62768 0.84539
 C2017 C 1.12741 1.32875 1.13591
 C2018 C 1.11533 1.32834 1.10232
 C2019 C 1.10443 1.30041 1.09259
 C2020 C 1.10515 1.27499 1.11748
 C2021 C 1.13887 1.27382 1.12880
 C2022 C 1.15028 1.30144 1.13873
 C2023 C 1.09870 1.31749 1.15441
 C2024 C 1.08727 1.28963 1.14491
 H2025 H 1.11489 1.34875 1.08760
 H2026 H 1.09471 1.29712 1.06962
 H2027 H 1.15227 1.25258 1.13024
 H2028 H 1.17323 1.30340 1.14880
 H2029 H 1.08749 1.32942 1.17329
 H2030 H 1.06675 1.28030 1.15582
 C2031 C 1.13049 0.82788 0.63556
 C2032 C 1.15276 0.80036 0.64017
 C2033 C 1.14112 0.77257 0.63102
 C2034 C 1.10778 0.77388 0.61859
 C2035 C 1.08919 0.78979 0.64459
 C2036 C 1.10083 0.81771 0.65343
 C2037 C 1.11963 0.82641 0.60162
 C2038 C 1.10835 0.79835 0.59267
 H2039 H 1.17551 0.80239 0.65066
 H2040 H 1.15412 0.75118 0.63356
 H2041 H 1.06765 0.78147 0.65434
 H2042 H 1.08882 0.83048 0.67121
 H2043 H 1.12013 0.84622 0.58611
 H2044 H 1.09919 0.79441 0.56957
 C2045 C 0.63483 1.32382 0.62898
 C2046 C 0.59989 1.32320 0.62115
 C2047 C 0.58913 1.29514 0.61130
 C2048 C 0.61432 1.27011 0.60861
 C2049 C 0.63882 1.28555 0.58747
 C2050 C 0.64952 1.31318 0.59802
 C2051 C 0.64054 1.29641 0.65111
 C2052 C 0.62967 1.26876 0.64067
 H2053 H 0.58507 1.34347 0.62256
 H2054 H 0.56520 1.29161 0.60439
 H2055 H 0.64482 1.27823 0.56427
 H2056 H 0.66514 1.32627 0.58361
 H2057 H 0.65255 1.29854 0.67310
 H2058 H 0.63240 1.24749 0.65384
 C2059 C 0.62924 0.82365 1.13221
 C2060 C 0.65202 0.79654 1.13698
 C2061 C 0.64071 0.76840 1.12848
 C2062 C 0.60721 0.76896 1.11646
 C2063 C 0.58879 0.78518 1.14254
 C2064 C 0.60009 0.81345 1.15067
 C2065 C 0.61792 0.82135 1.09843
 C2066 C 0.60710 0.79291 1.09010
 H2067 H 0.67485 0.79906 1.14719
 H2068 H 0.65407 0.74726 1.13128
 H2069 H 0.56780 0.77677 1.15328
 H2070 H 0.58835 0.82635 1.16854
 H2071 H 0.61790 0.84087 1.08255
 H2072 H 0.59787 0.78830 1.06716
 C2073 C 0.87132 1.32646 0.86641
 C2074 C 0.84794 1.30003 0.86053
 C2075 C 0.85733 1.27180 0.87084
 C2076 C 0.88974 1.27154 0.88549
 C2077 C 0.91092 1.28642 0.86065
 C2078 C 0.90132 1.31467 0.85061
 C2079 C 0.87992 1.32479 0.90109
 C2080 C 0.88877 1.29621 0.91111
 H2081 H 0.82598 1.30318 0.84871
 H2082 H 0.84328 1.25113 0.86786
 H2083 H 0.93308 1.27760 0.85299
 H2084 H 0.91508 1.32658 0.83354
 H2085 H 0.87956 1.34479 0.91635
 H2086 H 0.89600 1.29198 0.93483
 C2087 C 0.87261 0.82827 0.36728
 C2088 C 0.84893 0.80168 0.36391
 C2089 C 0.85904 0.77377 0.37440
 C2090 C 0.89234 0.77391 0.38689
 C2091 C 0.91181 0.78798 0.36023
 C2092 C 0.90160 0.81596 0.35003
 C2093 C 0.88348 0.82770 0.40134
 C2094 C 0.89299 0.79942 0.41170
 H2095 H 0.82635 0.80430 0.35319
 H2096 H 0.84492 0.75299 0.37281
 H2097 H 0.93350 0.77904 0.35148
 H2098 H 0.91459 0.82769 0.33222
 H2099 H 0.88420 0.84821 0.41591
 H2100 H 0.90176 0.79594 0.43502
 C2101 C 0.37001 1.32565 0.36700
 C2102 C 0.39624 1.31109 0.34718
 C2103 C 0.40535 1.28258 0.35672
 C2104 C 0.38854 1.27065 0.38604
 C2105 C 0.39299 1.29665 0.40988
 C2106 C 0.38392 1.32512 0.39985
 C2107 C 0.34462 1.30033 0.36655
 C2108 C 0.35414 1.27206 0.37691
 H2109 H 0.40549 1.31974 0.32565
 H2110 H 0.42044 1.26919 0.34188
 H2111 H 0.40344 1.29311 0.43249
 H2112 H 0.38674 1.34579 0.41392
 H2113 H 0.32147 1.30386 0.35744
 H2114 H 0.33896 1.25199 0.37685
 C2115 C 0.37144 0.82634 0.86831
 C2116 C 0.34813 0.79944 0.86537
 C2117 C 0.35866 0.77180 0.87607
 C2118 C 0.39189 0.77255 0.88870
 C2119 C 0.41136 0.78668 0.86206
 C2120 C 0.40086 0.81442 0.85160
 C2121 C 0.38224 0.82645 0.90244
 C2122 C 0.39201 0.79836 0.91325
 H2123 H 0.32543 0.80165 0.85485
 H2124 H 0.34477 0.75084 0.87482
 H2125 H 0.43390 0.77880 0.85452
 H2126 H 0.41479 0.82721 0.83526
 H2127 H 0.38303 0.84725 0.91658
 H2128 H 0.40090 0.79531 0.93658
 C2129 C 1.12930 0.67539 0.86669
 C2130 C 1.11902 0.67762 0.90083
 C2131 C 1.10936 0.70626 0.90984
 C2132 C 1.10946 0.73053 0.88381
 C2133 C 1.14258 0.73027 0.87083
 C2134 C 1.15272 0.70192 0.86154
 C2135 C 1.10001 0.68663 0.84918
 C2136 C 1.08974 0.71507 0.85811
 H2137 H 1.11883 0.65790 0.91647
 H2138 H 1.10094 0.71081 0.93310
 H2139 H 1.15654 0.75103 0.86804
 H2140 H 1.17518 0.69881 0.85070
 H2141 H 1.08733 0.67415 0.83163
 H2142 H 1.06826 0.72390 0.84870
 C2143 C 1.13378 0.17566 0.36836
 C2144 C 1.15209 0.18802 0.39672
 C2145 C 1.14284 0.21634 0.40670
 C2146 C 1.11543 0.23031 0.38824
 C2147 C 1.12725 0.23027 0.35465
 C2148 C 1.13735 0.20214 0.34450
 C2149 C 1.09998 0.17682 0.37970
 C2150 C 1.09035 0.20516 0.38944
 H2151 H 1.17296 0.17840 0.40654
 H2152 H 1.15697 0.22828 0.42358
 H2153 H 1.12913 0.25104 0.34056
 H2154 H 1.14797 0.19923 0.32191
 H2155 H 1.08493 0.15665 0.38024
 H2156 H 1.06713 0.20908 0.39828
 C2157 C 0.62913 0.67300 0.36878
 C2158 C 0.59994 0.68419 0.35082
 C2159 C 0.58953 0.71261 0.35931
 C2160 C 0.60881 0.72814 0.38510
 C2161 C 0.60834 0.70404 0.41135
 C2162 C 0.61827 0.67535 0.40271
 C2163 C 0.65260 0.69952 0.36398
 C2164 C 0.64216 0.72789 0.37273
 H2165 H 0.58705 0.67164 0.33352
 H2166 H 0.56799 0.72120 0.34982
 H2167 H 0.59943 0.70873 0.43440
 H2168 H 0.61781 0.65570 0.41843
 H2169 H 0.67529 0.69645 0.35363
 H2170 H 0.65611 0.74867 0.37001
 C2171 C 0.62831 0.17617 0.86385
 C2172 C 0.60186 0.18988 0.84378
 C2173 C 0.59231 0.21853 0.85279
 C2174 C 0.60922 0.23143 0.88175
 C2175 C 0.60514 0.20587 0.90614
 C2176 C 0.61443 0.17728 0.89669
 C2177 C 0.65339 0.20175 0.86277
 C2178 C 0.64358 0.23013 0.87252
 H2179 H 0.59221 0.17998 0.82294
 H2180 H 0.57596 0.23092 0.83844
 H2181 H 0.59463 0.20974 0.92866
 H2182 H 0.61177 0.15688 0.91118
 H2183 H 0.67658 0.19822 0.85377
 H2184 H 0.65858 0.25034 0.87203
 C2185 C 0.87252 0.67015 1.13599
 C2186 C 0.88364 0.67042 1.10206
 C2187 C 0.89431 0.69834 1.09190
 C2188 C 0.89426 0.72390 1.11671
 C2189 C 0.86082 0.72504 1.12884
 C2190 C 0.84967 0.69743 1.13916
 C2191 C 0.90174 0.68161 1.15361
 C2192 C 0.91293 0.70932 1.14359
 H2193 H 0.88368 0.64995 1.08743
 H2194 H 0.90343 0.70153 1.06868
 H2195 H 0.84736 0.74625 1.13030
 H2196 H 0.82688 0.69542 1.14957
 H2197 H 0.91387 0.66968 1.17189
 H2198 H 0.93440 0.71812 1.15307
 C2199 C 0.87163 0.16837 0.63450
 C2200 C 0.90035 0.18009 0.65276
 C2201 C 0.91131 0.20804 0.64327
 C2202 C 0.89301 0.22260 0.61613
 C2203 C 0.89386 0.19728 0.59109
 C2204 C 0.88338 0.16911 0.60079
 C2205 C 0.84833 0.19531 0.63743
 C2206 C 0.85931 0.22318 0.62761
 H2207 H 0.91221 0.16828 0.67130
 H2208 H 0.93223 0.21715 0.65360
 H2209 H 0.90332 0.20083 0.56806
 H2210 H 0.88395 0.14878 0.58597
 H2211 H 0.82537 0.19291 0.64734
 H2212 H 0.84554 0.24419 0.62900
 C2213 C 0.36818 0.67197 0.62909
 C2214 C 0.36521 0.69990 0.65108
 C2215 C 0.37616 0.72693 0.63935
 C2216 C 0.38922 0.72452 0.60636
 C2217 C 0.41358 0.69855 0.60783
 C2218 C 0.40243 0.67104 0.61883
 C2219 C 0.35200 0.68269 0.59883
 C2220 C 0.36273 0.70984 0.58724
 H2221 H 0.35452 0.69879 0.67376
 H2222 H 0.37489 0.74852 0.65222
 H2223 H 0.43705 0.70101 0.59911
 H2224 H 0.41640 0.65012 0.61924
 H2225 H 0.33565 0.66955 0.58523
 H2226 H 0.35522 0.71697 0.56444
 C2227 C 0.37043 0.17386 1.13228
 C2228 C 0.34817 0.20153 1.13593
 C2229 C 0.35972 0.22894 1.12578
 C2230 C 0.39289 0.22720 1.11314
 C2231 C 0.41177 0.21196 1.13954
 C2232 C 0.40022 0.18439 1.14941
 C2233 C 0.38123 0.17407 1.09820
 C2234 C 0.39211 0.20194 1.08805
 H2235 H 0.32548 0.19995 1.14658
 H2236 H 0.34669 0.25039 1.12762
 H2237 H 0.43417 0.21946 1.14791
 H2238 H 0.41321 0.17124 1.16624
 H2239 H 0.38100 0.15362 1.08354
 H2240 H 0.40107 0.20517 1.06478
 C2241 C 1.13084 1.13393 0.67560
 C2242 C 1.15522 1.13548 0.70179
 C2243 C 1.14487 1.12539 0.72983
 C2244 C 1.11069 1.11532 0.73009
 C2245 C 1.09354 1.14398 0.71705
 C2246 C 1.10356 1.15333 0.68874
 C2247 C 1.11771 1.10075 0.67614
 C2248 C 1.10785 1.09094 0.70438
 H2249 H 1.17829 1.14503 0.69890
 H2250 H 1.15928 1.12618 0.75044
 H2251 H 1.07722 1.15830 0.72954
 H2252 H 1.09401 1.17433 0.67911
 H2253 H 1.11601 1.08628 0.65563
 H2254 H 1.09781 1.06812 0.70790
 C2255 C 1.13162 0.63563 0.17652
 C2256 C 1.10362 0.65419 0.18931
 C2257 C 1.09385 0.64480 0.21770
 C2258 C 1.11210 0.61703 0.23121
 C2259 C 1.11032 0.59218 0.20588
 C2260 C 1.11988 0.60195 0.17754
 C2261 C 1.15582 0.63869 0.20276
 C2262 C 1.14584 0.62849 0.23091
 H2263 H 1.09399 0.67523 0.17986
 H2264 H 1.07738 0.65900 0.23012
 H2265 H 1.10126 0.56901 0.20971
 H2266 H 1.11894 0.58707 0.15728
 H2267 H 1.17850 0.64912 0.19970
 H2268 H 1.16015 0.63010 0.25154
 C2269 C 0.63028 1.13559 0.17458
 C2270 C 0.65450 1.13882 0.20075
 C2271 C 0.64452 1.12887 0.22898
 C2272 C 0.61078 1.11740 0.22942
 C2273 C 0.59245 1.14500 0.21569
 C2274 C 0.60226 1.15422 0.18724
 C2275 C 0.61855 1.10192 0.17583
 C2276 C 0.60899 1.09237 0.20425
 H2277 H 0.67722 1.14911 0.19756
 H2278 H 0.65888 1.13056 0.24957
 H2279 H 0.57551 1.15894 0.22775
 H2280 H 0.59238 1.17499 0.17747
 H2281 H 0.61756 1.08692 0.15567
 H2282 H 0.59987 1.06924 0.20823
 C2283 C 0.63126 0.63360 0.67403
 C2284 C 0.65376 0.63934 0.70118
 C2285 C 0.64310 0.62950 0.72917
 C2286 C 0.61041 0.61534 0.72838
 C2287 C 0.59032 0.64050 0.71268
 C2288 C 0.60108 0.65001 0.68467
 C2289 C 0.62223 0.59907 0.67570
 C2290 C 0.61196 0.58951 0.70392
 H2291 H 0.67598 0.65085 0.69870
 H2292 H 0.65637 0.63256 0.75033
 H2293 H 0.56880 0.64985 0.72138
 H2294 H 0.58858 0.66794 0.67260
 H2295 H 0.62332 0.58356 0.65593
 H2296 H 0.60429 0.56590 0.70807
 C2297 C 0.86674 0.87164 0.67463
 C2298 C 0.86311 0.84879 0.70184
 C2299 C 0.87255 0.86010 0.72962
 C2300 C 0.88438 0.89364 0.72867
 C2301 C 0.90987 0.89396 0.70381
 C2302 C 0.90053 0.88317 0.67567
 C2303 C 0.84862 0.90080 0.68545
 C2304 C 0.85776 0.91209 0.71342
 H2305 H 0.85298 0.82589 0.69969
 H2306 H 0.87063 0.84666 0.75081
 H2307 H 0.93287 0.90347 0.70755
 H2308 H 0.91560 0.88351 0.65554
 H2309 H 0.83116 0.91319 0.67256
 H2310 H 0.84834 0.93379 0.72172
 C2311 C 0.86753 0.36784 0.17624
 C2312 C 0.84254 0.36731 0.20195
 C2313 C 0.85255 0.37762 0.23012
 C2314 C 0.88698 0.38683 0.23099
 C2315 C 0.90352 0.35748 0.21876
 C2316 C 0.89397 0.34798 0.19036
 C2317 C 0.88131 0.40075 0.17666
 C2318 C 0.89088 0.41073 0.20498
 H2319 H 0.81936 0.35814 0.19874
 H2320 H 0.83772 0.37745 0.25043
 H2321 H 0.91851 0.34254 0.23221
 H2322 H 0.90287 0.32635 0.18156
 H2323 H 0.88360 0.41495 0.15602
 H2324 H 0.90123 0.43342 0.20841
 C2325 C 0.36827 0.86721 0.17387
 C2326 C 0.38176 0.90024 0.17241
 C2327 C 0.39232 0.91134 0.20001
 C2328 C 0.38987 0.88817 0.22690
 C2329 C 0.35561 0.87848 0.22788
 C2330 C 0.34448 0.86736 0.20058
 C2331 C 0.39592 0.84844 0.18721
 C2332 C 0.40646 0.85882 0.21487
 H2333 H 0.38340 0.91354 0.15112
 H2334 H 0.40279 0.93413 0.20221
 H2335 H 0.34163 0.87887 0.24877
 H2336 H 0.32116 0.85820 0.19863
 H2337 H 0.40664 0.82815 0.17733
 H2338 H 0.42362 0.84536 0.22720
 C2339 C 0.36688 0.37054 0.67301
 C2340 C 0.40147 0.37926 0.67494
 C2341 C 0.41077 0.38999 0.70312
 C2342 C 0.38462 0.39218 0.72722
 C2343 C 0.36003 0.41229 0.71086
 C2344 C 0.35069 0.40113 0.68299
 C2345 C 0.36066 0.34853 0.70044
 C2346 C 0.37021 0.35961 0.72837
 H2347 H 0.41718 0.37772 0.65537
 H2348 H 0.43437 0.39763 0.70739
 H2349 H 0.35169 0.43458 0.71873
 H2350 H 0.33346 0.41400 0.67035
 H2351 H 0.34914 0.32629 0.69817
 H2352 H 0.36691 0.34668 0.74970
 C2353 C 1.13437 0.87217 1.32522
 C2354 C 1.10106 0.88491 1.32432
 C2355 C 1.09169 0.89527 1.29607
 C2356 C 1.11658 0.89321 1.27073
 C2357 C 1.14461 0.91060 1.28470
 C2358 C 1.15364 0.90000 1.31290
 C2359 C 1.13656 0.84830 1.29868
 C2360 C 1.12699 0.85912 1.27064
 H2361 H 1.08623 0.88608 1.34460
 H2362 H 1.06888 0.90522 1.29236
 H2363 H 1.15801 0.92858 1.27356
 H2364 H 1.17395 0.91012 1.32338
 H2365 H 1.14601 0.82517 1.30143
 H2366 H 1.12812 0.84503 1.24983
 C2367 C 1.13378 0.37181 0.82524
 C2368 C 1.15271 0.39990 0.81314
 C2369 C 1.14388 0.41013 0.78470
 C2370 C 1.11660 0.39180 0.77027
 C2371 C 1.12768 0.35799 0.77075
 C2372 C 1.13697 0.34774 0.79901
 C2373 C 1.10030 0.38409 0.82365
 C2374 C 1.09119 0.39377 0.79508
 H2375 H 1.17150 0.41156 0.82479
 H2376 H 1.15533 0.43009 0.77484
 H2377 H 1.12944 0.34367 0.75014
 H2378 H 1.14684 0.32483 0.80213
 H2379 H 1.08520 0.38554 0.84371
 H2380 H 1.06835 0.40345 0.79087
 C2381 C 0.63076 0.86224 0.82717
 C2382 C 0.62445 0.89737 0.82492
 C2383 C 0.61495 0.90727 0.79652
 C2384 C 0.61139 0.88124 0.77252
 C2385 C 0.64289 0.86464 0.77198
 C2386 C 0.65275 0.85437 0.80014
 C2387 C 0.59948 0.84796 0.81673
 C2388 C 0.58937 0.85806 0.78873
 H2389 H 0.62673 0.91306 0.84445
 H2390 H 0.60908 0.93133 0.79202
 H2391 H 0.65596 0.86048 0.75090
 H2392 H 0.67413 0.84144 0.80289
 H2393 H 0.58574 0.83104 0.82885
 H2394 H 0.56674 0.85104 0.78055
 C2395 C 0.63037 0.36376 1.32876
 C2396 C 0.62334 0.39882 1.32756
 C2397 C 0.61385 0.40942 1.29941
 C2398 C 0.61086 0.38404 1.27466
 C2399 C 0.64262 0.36802 1.27372
 C2400 C 0.65255 0.35709 1.30156
 C2401 C 0.59935 0.34928 1.31786
 C2402 C 0.58917 0.36003 1.29012
 H2403 H 0.62515 0.41393 1.34760
 H2404 H 0.60754 0.43347 1.29559
 H2405 H 0.65584 0.36471 1.25258
 H2406 H 0.67416 0.34446 1.30398
 H2407 H 0.58554 0.33227 1.32977
 H2408 H 0.56646 0.35326 1.28192
 C2409 C 0.86719 1.12745 1.32294
 C2410 C 0.90089 1.11602 1.32057
 C2411 C 0.90912 1.10534 1.29208
 C2412 C 0.88279 1.10587 1.26807
 C2413 C 0.85652 1.08752 1.28389
 C2414 C 0.84850 1.09850 1.31227
 C2415 C 0.86268 1.15062 1.29614
 C2416 C 0.87103 1.13952 1.26787
 H2417 H 0.91679 1.11580 1.34007
 H2418 H 0.93202 1.09604 1.28740
 H2419 H 0.84494 1.06730 1.27471
 H2420 H 0.83010 1.08699 1.32462
 H2421 H 0.85277 1.17354 1.29896
 H2422 H 0.86836 1.15315 1.24689
 C2423 C 0.86560 0.62606 0.82562
 C2424 C 0.86314 0.64898 0.79835
 C2425 C 0.87317 0.63753 0.77084
 C2426 C 0.88423 0.60373 0.77209
 C2427 C 0.90893 0.60278 0.79768
 C2428 C 0.89907 0.61370 0.82552
 C2429 C 0.84694 0.59745 0.81422
 C2430 C 0.85656 0.58599 0.78644
 H2431 H 0.85323 0.67200 0.80024
 H2432 H 0.87195 0.65097 0.74960
 H2433 H 0.93184 0.59284 0.79458
 H2434 H 0.91360 0.61307 0.84605
 H2435 H 0.82802 0.58621 0.82608
 H2436 H 0.84567 0.56547 0.77704
 C2437 C 0.35082 1.15297 0.80657
 C2438 C 0.33346 1.15297 0.77548
 C2439 C 0.34806 1.13748 0.75230
 C2440 C 0.37945 1.12349 0.76148
 C2441 C 0.39788 1.15099 0.77522
 C2442 C 0.38297 1.16656 0.79799
 C2443 C 0.35830 1.11861 0.81366
 C2444 C 0.37262 1.10322 0.78998
 H2445 H 0.31144 1.16462 0.77200
 H2446 H 0.33839 1.13592 0.72912
 H2447 H 0.42212 1.15593 0.77118
 H2448 H 0.39543 1.18463 0.80995
 H2449 H 0.35400 1.10769 0.83589
 H2450 H 0.38004 1.07927 0.79209
 C2451 C 0.36610 0.62992 1.32862
 C2452 C 0.39966 0.61787 1.32766
 C2453 C 0.40862 0.60630 1.29976
 C2454 C 0.38304 0.60650 1.27498
 C2455 C 0.35606 0.58892 1.29056
 C2456 C 0.34732 0.60089 1.31836
 C2457 C 0.36266 0.65227 1.30097
 C2458 C 0.37174 0.64023 1.27338
 H2459 H 0.41491 0.61788 1.34767
 H2460 H 0.43148 0.59646 1.29609
 H2461 H 0.34488 0.56826 1.28184
 H2462 H 0.32869 0.58982 1.33080
 H2463 H 0.35283 0.67533 1.30272
 H2464 H 0.36979 0.65322 1.25191
 C2465 C 1.12712 1.32826 0.86550
 C2466 C 1.09807 1.31725 0.84718
 C2467 C 1.08635 1.28961 0.85667
 C2468 C 1.10421 1.27475 0.88383
 C2469 C 1.13792 1.27322 0.87246
 C2470 C 1.14970 1.30075 0.86270
 C2471 C 1.11528 1.32797 0.89915
 C2472 C 1.10394 1.30014 0.90883
 H2473 H 1.08643 1.32934 0.82869
 H2474 H 1.06521 1.28091 0.84642
 H2475 H 1.15112 1.25184 0.87112
 H2476 H 1.17277 1.30253 0.85291
 H2477 H 1.11520 1.34834 0.91391
 H2478 H 1.09424 1.29693 0.93181
 C2479 C 1.12851 0.82840 0.36578
 C2480 C 1.09939 0.81699 0.34802
 C2481 C 1.08816 0.78924 0.35799
 C2482 C 1.10665 0.77476 0.38510
 C2483 C 1.14015 0.77356 0.37323
 C2484 C 1.15138 0.80111 0.36292
 C2485 C 1.11703 0.82831 0.39960
 C2486 C 1.10637 0.80040 0.40981
 H2487 H 1.08704 0.82937 0.33016
 H2488 H 1.06661 0.78058 0.34859
 H2489 H 1.15361 0.75235 0.37189
 H2490 H 1.17421 0.80302 0.35264
 H2491 H 1.11669 0.84889 0.41407
 H2492 H 1.09700 0.79731 0.43294
 C2493 C 0.63264 1.32335 0.37287
 C2494 C 0.64926 1.31143 0.40237
 C2495 C 0.63890 1.28359 0.41273
 C2496 C 0.61244 1.26940 0.39307
 C2497 C 0.58775 1.29508 0.39312
 C2498 C 0.59847 1.32325 0.38347
 C2499 C 0.63583 1.29654 0.34952
 C2500 C 0.62523 1.26882 0.35993
 H2501 H 0.66542 1.32431 0.41646
 H2502 H 0.64630 1.27564 0.43532
 H2503 H 0.56440 1.29188 0.40191
 H2504 H 0.58422 1.34397 0.38427
 H2505 H 0.64645 1.29885 0.32689
 H2506 H 0.62667 1.24791 0.34600
 C2507 C 0.63215 0.82338 0.87279
 C2508 C 0.64828 0.81261 0.90303
 C2509 C 0.63764 0.78533 0.91441
 C2510 C 0.61134 0.77056 0.89505
 C2511 C 0.58681 0.79637 0.89369
 C2512 C 0.59786 0.82404 0.88297
 C2513 C 0.63538 0.79562 0.85063
 C2514 C 0.62452 0.76846 0.86211
 H2515 H 0.66425 0.82595 0.91689
 H2516 H 0.64474 0.77837 0.93740
 H2517 H 0.56334 0.79370 0.90234
 H2518 H 0.58379 0.84489 0.88275
 H2519 H 0.64615 0.79695 0.82799
 H2520 H 0.62595 0.74697 0.84909
 C2521 C 0.86468 1.32809 1.13143
 C2522 C 0.89958 1.32619 1.12392
 C2523 C 0.90933 1.29788 1.11392
 C2524 C 0.88330 1.27375 1.11102
 C2525 C 0.86776 1.27282 1.14303
 C2526 C 0.85775 1.30082 1.15347
 C2527 C 0.84954 1.31776 1.10048
 C2528 C 0.85940 1.28993 1.08989
 H2529 H 0.91520 1.34584 1.12580
 H2530 H 0.93319 1.29354 1.10725
 H2531 H 0.86417 1.25160 1.15609
 H2532 H 0.84563 1.30331 1.17535
 H2533 H 0.83252 1.32996 1.08699
 H2534 H 0.85194 1.28213 1.06727
 C2535 C 0.87206 0.82636 0.63602
 C2536 C 0.90152 0.81562 0.65370
 C2537 C 0.91241 0.78743 0.64474
 C2538 C 0.89319 0.77182 0.61883
 C2539 C 0.85999 0.77129 0.63157
 C2540 C 0.84918 0.79934 0.64089
 C2541 C 0.88264 0.82458 0.60197
 C2542 C 0.89300 0.79623 0.59291
 H2543 H 0.91378 0.82814 0.67150
 H2544 H 0.93383 0.77876 0.65444
 H2545 H 0.84648 0.75022 0.63423
 H2546 H 0.82659 0.80190 0.65160
 H2547 H 0.88254 0.84439 0.58645
 H2548 H 0.90176 0.79200 0.56972
 C2549 C 0.37059 1.32508 0.63398
 C2550 C 0.39759 1.31174 0.65360
 C2551 C 0.40728 1.28316 0.64451
 C2552 C 0.38996 1.26998 0.61595
 C2553 C 0.35576 1.27092 0.62587
 C2554 C 0.34582 1.29924 0.63565
 C2555 C 0.38383 1.32398 0.60088
 C2556 C 0.39327 1.29546 0.59138
 H2557 H 0.40743 1.32175 0.67429
 H2558 H 0.42397 1.27093 0.65862
 H2559 H 0.34100 1.25055 0.62673
 H2560 H 0.32276 1.30257 0.64505
 H2561 H 0.38594 1.34434 0.58624
 H2562 H 0.40337 1.29161 0.56867
 C2563 C 0.36310 0.82489 1.13205
 C2564 C 0.39683 0.82399 1.12050
 C2565 C 0.40705 0.79553 1.11189
 C2566 C 0.38260 0.76991 1.11429
 C2567 C 0.37098 0.77098 1.14792
 C2568 C 0.36015 0.79924 1.15694
 C2569 C 0.34477 0.81113 1.10447
 C2570 C 0.35457 0.78254 1.09560
 H2571 H 0.41144 0.84444 1.11904
 H2572 H 0.43033 0.79178 1.10310
 H2573 H 0.36959 0.75072 1.16278
 H2574 H 0.34937 0.80278 1.17937
 H2575 H 0.32336 0.81987 1.09496
 H2576 H 0.34014 0.76924 1.08001
 C2577 C 0.87174 0.67118 0.86422
 C2578 C 0.90131 0.68139 0.84622
 C2579 C 0.91309 0.70924 0.85518
 C2580 C 0.89474 0.72499 0.88144
 C2581 C 0.86132 0.72649 0.86924
 C2582 C 0.84952 0.69879 0.85997
 C2583 C 0.88280 0.67237 0.89810
 C2584 C 0.89426 0.70031 0.90717
 H2585 H 0.91311 0.66870 0.82824
 H2586 H 0.93450 0.71768 0.84524
 H2587 H 0.84836 0.74793 0.86695
 H2588 H 0.82668 0.69688 0.84965
 H2589 H 0.88232 0.65245 0.91347
 H2590 H 0.90358 0.70405 0.93024
 C2591 C 0.87379 0.17205 0.36247
 C2592 C 0.88629 0.17266 0.39589
 C2593 C 0.89682 0.20077 0.40550
 C2594 C 0.89530 0.22621 0.38066
 C2595 C 0.91308 0.21195 0.35297
 C2596 C 0.90204 0.18386 0.34360
 C2597 C 0.85038 0.19893 0.35999
 C2598 C 0.86141 0.22675 0.36978
 H2599 H 0.88728 0.15226 0.41059
 H2600 H 0.90679 0.20420 0.42834
 H2601 H 0.93319 0.22179 0.34174
 H2602 H 0.91317 0.17216 0.32452
 H2603 H 0.82733 0.19656 0.35025
 H2604 H 0.84759 0.24774 0.36855
 C2605 C 0.37253 0.67590 0.36633
 C2606 C 0.38419 0.67796 0.39999
 C2607 C 0.39518 0.70629 0.40838
 C2608 C 0.39481 0.73045 0.38220
 C2609 C 0.41296 0.71445 0.35584
 C2610 C 0.40154 0.68620 0.34763
 C2611 C 0.34975 0.70307 0.36195
 C2612 C 0.36119 0.73113 0.37052
 H2613 H 0.38435 0.65833 0.41573
 H2614 H 0.40472 0.71069 0.43124
 H2615 H 0.43384 0.72308 0.34501
 H2616 H 0.41310 0.67333 0.32961
 H2617 H 0.32683 0.70064 0.35194
 H2618 H 0.34784 0.75230 0.36796
 C2619 C 0.34749 0.19513 0.84922
 C2620 C 0.35524 0.22287 0.82808
 C2621 C 0.37076 0.24628 0.84231
 C2622 C 0.37664 0.24078 0.87700
 C2623 C 0.34385 0.23432 0.88985
 C2624 C 0.32892 0.21048 0.87587
 C2625 C 0.37805 0.18563 0.86510
 C2626 C 0.39340 0.20945 0.87898
 H2627 H 0.34815 0.22426 0.80399
 H2628 H 0.37662 0.26758 0.83028
 H2629 H 0.33196 0.24797 0.90720
 H2630 H 0.30646 0.20393 0.88454
 H2631 H 0.38665 0.16199 0.86564
 H2632 H 0.41511 0.20609 0.89125
 C2633 C 1.13462 0.67462 1.13131
 C2634 C 1.14059 0.70210 1.15333
 C2635 C 1.13036 0.72986 1.14253
 C2636 C 1.11550 0.72854 1.11022
 C2637 C 1.14024 0.71264 1.08970
 C2638 C 1.15017 0.68484 1.10060
 C2639 C 1.09989 0.67584 1.12292
 C2640 C 1.08986 0.70394 1.11264
 H2641 H 1.15246 0.70000 1.17538
 H2642 H 1.13347 0.75120 1.15550
 H2643 H 1.14793 0.72037 1.06715
 H2644 H 1.16671 0.67186 1.08714
 H2645 H 1.08462 0.65588 1.12437
 H2646 H 1.06609 0.70783 1.10536
 C2647 C 1.13482 0.17341 0.63083
 C2648 C 1.10026 0.17493 0.62189
 C2649 C 1.09054 0.20315 0.61176
 C2650 C 1.11626 0.22772 0.61014
 C2651 C 1.13056 0.22854 0.64274
 C2652 C 1.14059 0.20059 0.65330
 C2653 C 1.15107 0.18411 0.60061
 C2654 C 1.14139 0.21209 0.58991
 H2655 H 1.08486 0.15505 0.62295
 H2656 H 1.06690 0.20721 0.60417
 H2657 H 1.13360 0.24971 0.65600
 H2658 H 1.15223 0.19815 0.67545
 H2659 H 1.16882 0.17197 0.58795
 H2660 H 1.15040 0.22069 0.56819
 C2661 C 0.63490 0.67264 0.62885
 C2662 C 0.60094 0.67264 0.61773
 C2663 C 0.59061 0.70053 0.60713
 C2664 C 0.61539 0.72612 0.60700
 C2665 C 0.62768 0.72749 0.64036
 C2666 C 0.63802 0.69999 0.65159
 C2667 C 0.65225 0.68389 0.59945
 C2668 C 0.64226 0.71156 0.58829
 H2669 H 0.58646 0.65204 0.61759
 H2670 H 0.56735 0.70363 0.59804
 H2671 H 0.62920 0.74876 0.65373
 H2672 H 0.64847 0.69816 0.67436
 H2673 H 0.66982 0.67145 0.58677
 H2674 H 0.65161 0.72001 0.56666
 C2675 C 0.63347 0.17446 1.12924
 C2676 C 0.63943 0.20192 1.15128
 C2677 C 0.62934 0.22971 1.14045
 C2678 C 0.61463 0.22846 1.10807
 C2679 C 0.63942 0.21251 1.08766
 C2680 C 0.64921 0.18464 1.09859
 C2681 C 0.59879 0.17580 1.12067
 C2682 C 0.58891 0.20393 1.11034
 H2683 H 0.65125 0.19978 1.17336
 H2684 H 0.63250 0.25104 1.15343
 H2685 H 0.64725 0.22031 1.06518
 H2686 H 0.66574 0.17159 1.08520
 H2687 H 0.58346 0.15589 1.12204
 H2688 H 0.56519 0.20789 1.10293
 C2689 C 1.30522 1.15297 0.84579
 C2690 C 1.27627 1.17381 0.84840
 C2691 C 1.25208 1.16071 0.86390
 C2692 C 1.25801 1.12711 0.87415
 C2693 C 1.26750 1.11099 0.84345
 C2694 C 1.29194 1.12437 0.82878
 C2695 C 1.31230 1.14123 0.87873
 C2696 C 1.28777 1.12819 0.89345
 H2697 H 1.27470 1.19666 0.83795
 H2698 H 1.23002 1.17246 0.86668
 H2699 H 1.25374 1.09398 0.83114
 H2700 H 1.29781 1.11707 0.80557
 H2701 H 1.33504 1.14237 0.88936
 H2702 H 1.28965 1.11855 0.91661
 C2703 C 1.32726 0.63745 0.37325
 C2704 C 1.32582 0.60407 0.38581
 C2705 C 1.29753 0.59527 0.39651
 C2706 C 1.27283 0.62085 0.39508
 C2707 C 1.28796 0.64812 0.41277
 C2708 C 1.31619 0.65669 0.40158
 C2709 C 1.30033 0.64067 0.35000
 C2710 C 1.27234 0.63169 0.36120
 H2711 H 1.34581 0.58882 0.38674
 H2712 H 1.29350 0.57255 0.40656
 H2713 H 1.27869 0.65951 0.43305
 H2714 H 1.32847 0.67539 0.41274
 H2715 H 1.30281 0.65030 0.32693
 H2716 H 1.25130 0.63351 0.34751
 C2717 C 0.82945 1.13260 0.36887
 C2718 C 0.82880 1.09870 0.38006
 C2719 C 0.80090 1.08902 0.39104
 C2720 C 0.77586 1.11430 0.39135
 C2721 C 0.79107 1.14102 0.40979
 C2722 C 0.81887 1.15044 0.39828
 C2723 C 0.80187 1.13644 0.34648
 C2724 C 0.77433 1.12660 0.35800
 H2725 H 0.84901 1.08372 0.37985
 H2726 H 0.79740 1.06583 0.40018
 H2727 H 0.78211 1.15163 0.43062
 H2728 H 0.83108 1.16890 0.40989
 H2729 H 0.80363 1.14709 0.32380
 H2730 H 0.75292 1.12874 0.34495
 C2731 C 0.82586 0.63289 0.86983
 C2732 C 0.79903 0.63630 0.84647
 C2733 C 0.77093 0.62721 0.85750
 C2734 C 0.77124 0.61601 0.89132
 C2735 C 0.79599 0.59045 0.89248
 C2736 C 0.82431 0.59935 0.88191
 C2737 C 0.81458 0.65185 0.89825
 C2738 C 0.78626 0.64321 0.90919
 H2739 H 0.80170 0.64609 0.82348
 H2740 H 0.74995 0.62915 0.84373
 H2741 H 0.79189 0.56756 0.90210
 H2742 H 0.84424 0.58401 0.88256
 H2743 H 0.82639 0.67104 0.90909
 H2744 H 0.77623 0.65549 0.92856
 C2745 C 1.32415 0.87048 1.13333
 C2746 C 1.29623 0.84922 1.13997
 C2747 C 1.26868 0.86023 1.12931
 C2748 C 1.27064 0.89198 1.11328
 C2749 C 1.28702 0.91310 1.13718
 C2750 C 1.31454 0.90199 1.14763
 C2751 C 1.32309 0.87749 1.09828
 C2752 C 1.29521 0.88804 1.08780
 H2753 H 1.29796 0.82746 1.15246
 H2754 H 1.24710 0.84773 1.13269
 H2755 H 1.27996 0.93630 1.14353
 H2756 H 1.32792 0.91596 1.16343
 H2757 H 1.34300 0.87500 1.08312
 H2758 H 1.29151 0.89448 1.06378
 C2759 C 1.32803 0.36663 0.62782
 C2760 C 1.32843 0.40046 0.61619
 C2761 C 1.30061 0.41108 0.60570
 C2762 C 1.27473 0.38663 0.60602
 C2763 C 1.28892 0.35936 0.58748
 C2764 C 1.31648 0.34907 0.59869
 C2765 C 1.30072 0.36413 0.65069
 C2766 C 1.27336 0.37476 0.63949
 H2767 H 1.34924 0.41461 0.61563
 H2768 H 1.29778 0.43424 0.59628
 H2769 H 1.28067 0.35050 0.56556
 H2770 H 1.32892 0.33154 0.58594
 H2771 H 1.30246 0.35382 0.67352
 H2772 H 1.25214 0.37366 0.65296
 C2773 C 0.82718 0.86533 0.63025
 C2774 C 0.82608 0.89864 0.61752
 C2775 C 0.79781 0.90775 0.60698
 C2776 C 0.77274 0.88254 0.60877
 C2777 C 0.78717 0.85472 0.59142
 C2778 C 0.81540 0.84600 0.60226
 C2779 C 0.80042 0.86274 0.65383
 C2780 C 0.77241 0.87201 0.64279
 H2781 H 0.84624 0.91367 0.61645
 H2782 H 0.79395 0.93052 0.59698
 H2783 H 0.77643 0.84141 0.57315
 H2784 H 0.82640 0.82604 0.59201
 H2785 H 0.80297 0.85317 0.67692
 H2786 H 0.75147 0.87051 0.65664
 C2787 C 0.82510 0.37259 1.13418
 C2788 C 0.79819 0.34928 1.13723
 C2789 C 0.77063 0.35967 1.12636
 C2790 C 0.77137 0.39281 1.11365
 C2791 C 0.78548 0.41244 1.14031
 C2792 C 0.81323 0.40198 1.15089
 C2793 C 0.82524 0.38347 1.10007
 C2794 C 0.79716 0.39302 1.08915
 H2795 H 0.80029 0.32674 1.14809
 H2796 H 0.74967 0.34579 1.12776
 H2797 H 0.77769 0.43514 1.14754
 H2798 H 0.82617 0.41596 1.16712
 H2799 H 0.84607 0.38439 1.08599
 H2800 H 0.79411 0.40190 1.06582
 C2801 C 0.67320 1.12988 1.13332
 C2802 C 0.67246 1.11705 1.10004
 C2803 C 0.70018 1.10641 1.08945
 C2804 C 0.72654 1.10809 1.11329
 C2805 C 0.72763 1.14213 1.12373
 C2806 C 0.70020 1.15334 1.13439
 C2807 C 0.68573 1.10177 1.15196
 C2808 C 0.71349 1.09091 1.14192
 H2809 H 0.65150 1.11595 1.08616
 H2810 H 0.70280 1.09636 1.06654
 H2811 H 0.74870 1.15589 1.12416
 H2812 H 0.69830 1.17648 1.14399
 H2813 H 0.67525 1.09114 1.17201
 H2814 H 0.72499 1.07284 1.15489
 C2815 C 0.67602 0.62962 0.63445
 C2816 C 0.68939 0.60239 0.65378
 C2817 C 0.71777 0.59256 0.64427
 C2818 C 0.73058 0.60988 0.61559
 C2819 C 0.70477 0.60689 0.59134
 C2820 C 0.67649 0.61649 0.60130
 C2821 C 0.70208 0.65416 0.63593
 C2822 C 0.73013 0.64403 0.62571
 H2823 H 0.67971 0.59265 0.67466
 H2824 H 0.73038 0.57609 0.65834
 H2825 H 0.70823 0.59688 0.56853
 H2826 H 0.65590 0.61460 0.58695
 H2827 H 0.69910 0.67718 0.64557
 H2828 H 0.75066 0.65858 0.62648
 C2829 C 0.17403 1.12839 0.63460
 C2830 C 0.20130 1.15127 0.63760
 C2831 C 0.22884 1.14009 0.62731
 C2832 C 0.22760 1.10666 0.61517
 C2833 C 0.21310 1.08800 0.64215
 C2834 C 0.18537 1.09909 0.65208
 C2835 C 0.17408 1.11714 0.60069
 C2836 C 0.20200 1.10659 0.59041
 H2837 H 0.19939 1.17408 0.64796
 H2838 H 0.25006 1.15356 0.62878
 H2839 H 0.22172 1.06652 0.65169
 H2840 H 0.17295 1.08647 0.66972
 H2841 H 0.15350 1.11686 0.58622
 H2842 H 0.20513 1.09743 0.56720
 C2843 C 0.17472 0.63041 1.13540
 C2844 C 0.20150 0.65413 1.13668
 C2845 C 0.22911 0.64319 1.12621
 C2846 C 0.22843 0.60916 1.11577
 C2847 C 0.21522 0.59181 1.14426
 C2848 C 0.18730 0.60238 1.15404
 C2849 C 0.17436 0.61761 1.10208
 C2850 C 0.20229 0.60725 1.09169
 H2851 H 0.19932 0.67726 1.14622
 H2852 H 0.25004 0.65717 1.12671
 H2853 H 0.22638 0.57348 1.15713
 H2854 H 0.17653 0.59129 1.17368
 H2855 H 0.15351 0.61626 1.08806
 H2856 H 0.20519 0.59723 1.06881
 C2857 C 0.67522 0.86443 0.86725
 C2858 C 0.69997 0.83844 0.86808
 C2859 C 0.72818 0.84757 0.87892
 C2860 C 0.73012 0.88217 0.88708
 C2861 C 0.71942 0.89824 0.85684
 C2862 C 0.69082 0.88963 0.84689
 C2863 C 0.67535 0.87939 0.89961
 C2864 C 0.70376 0.88797 0.91010
 H2865 H 0.69623 0.81524 0.85918
 H2866 H 0.74794 0.83201 0.87945
 H2867 H 0.73397 0.91240 0.84207
 H2868 H 0.68264 0.89848 0.82499
 H2869 H 0.65444 0.88317 0.91307
 H2870 H 0.70704 0.89896 0.93249
 C2871 C 0.67488 0.36562 0.36868
 C2872 C 0.68944 0.39215 0.34921
 C2873 C 0.71788 0.40127 0.35904
 C2874 C 0.72962 0.38426 0.38830
 C2875 C 0.70349 0.38823 0.41202
 C2876 C 0.67516 0.37913 0.40169
 C2877 C 0.70034 0.34038 0.36806
 C2878 C 0.72850 0.34995 0.37872
 H2879 H 0.68095 0.40144 0.32762
 H2880 H 0.73164 0.41631 0.34442
 H2881 H 0.70685 0.39835 0.43480
 H2882 H 0.65440 0.38159 0.41568
 H2883 H 0.69702 0.31737 0.35850
 H2884 H 0.74867 0.33493 0.37846
 C2885 C 0.17367 0.86739 0.37006
 C2886 C 0.17534 0.90173 0.37982
 C2887 C 0.20367 0.91117 0.38996
 C2888 C 0.22814 0.88534 0.39083
 C2889 C 0.21256 0.85985 0.41065
 C2890 C 0.18445 0.85048 0.39992
 C2891 C 0.20070 0.86207 0.34733
 C2892 C 0.22871 0.87178 0.35795
 H2893 H 0.15549 0.91717 0.37932
 H2894 H 0.20785 0.93461 0.39811
 H2895 H 0.22105 0.85086 0.43243
 H2896 H 0.17197 0.83299 0.41266
 H2897 H 0.19814 0.85086 0.32498
 H2898 H 0.24979 0.86893 0.34451
 C2899 C 0.17264 0.36701 0.87037
 C2900 C 0.18342 0.34960 0.89993
 C2901 C 0.21154 0.35885 0.91087
 C2902 C 0.22706 0.38482 0.89159
 C2903 C 0.22771 0.37189 0.85845
 C2904 C 0.19975 0.36228 0.84760
 C2905 C 0.17417 0.40115 0.88078
 C2906 C 0.20244 0.41053 0.89116
 H2907 H 0.17078 0.33197 0.91235
 H2908 H 0.22014 0.34945 0.93244
 H2909 H 0.24883 0.36930 0.84503
 H2910 H 0.19735 0.35133 0.82511
 H2911 H 0.15425 0.41652 0.88054
 H2912 H 0.20647 0.43383 0.89978
   
