data_POSCAR
  _audit_creation_date              2014-09-24
  _audit_creation_method            'ToBaCCo'
  _symmetry_space_group_name_H-M    'P1'
  _symmetry_Int_Tables_number       1
  _symmetry_cell_setting            triclinic
  loop_
  _symmetry_equiv_pos_as_xyz
 x,y,z
_cell_length_a 33.8957
_cell_length_b 32.5820
_cell_length_c 25.2748
_cell_angle_alpha 91.790200
_cell_angle_beta 91.225100
_cell_angle_gamma 94.146900
loop_
  _atom_site_label
  _atom_site_type_symbol
  _atom_site_fract_x
  _atom_site_fract_y
  _atom_site_fract_z
C1 C 0.30844 -0.04995 0.27719
 C2 C 0.32731 -0.01962 0.24570
 C3 C 0.35405 -0.03147 0.20766
 C4 C 0.36614 -0.07154 0.20483
 C5 C 0.34657 -0.10173 0.23504
 C6 C 0.31666 -0.09188 0.27040
 C7 C 0.33343 0.02399 0.26414
 C8 C 0.36735 0.03280 0.29583
 C9 C 0.38748 0.07189 0.29712
 C10 C 0.36914 0.10455 0.27451
 C11 C 0.33304 0.09739 0.24637
 C12 C 0.31617 0.05648 0.23871
 H13 H 0.28876 -0.04046 0.30767
 H14 H 0.36980 -0.00769 0.18555
 H15 H 0.38095 0.00719 0.31354
 H16 H 0.29031 0.04990 0.21314
 H17 H 0.35498 -0.13302 0.23141
 H18 H 0.38298 0.13555 0.27779
 C19 C 0.19426 -0.05212 0.79344
 C20 C 0.16927 -0.02129 0.80851
 C21 C 0.13347 -0.03242 0.83210
 C22 C 0.11978 -0.07369 0.83505
 C23 C 0.14486 -0.10430 0.82118
 C24 C 0.18265 -0.09403 0.80132
 C25 C 0.17064 0.01846 0.78232
 C26 C 0.14739 0.01934 0.73630
 C27 C 0.13936 0.05633 0.71352
 C28 C 0.15648 0.09336 0.73627
 C29 C 0.18150 0.09335 0.78193
 C30 C 0.18750 0.05547 0.80577
 H31 H 0.22124 -0.04346 0.77319
 H32 H 0.11386 -0.00845 0.84141
 H33 H 0.13445 -0.00948 0.71854
 H34 H 0.20504 0.05450 0.84190
 H35 H 0.13466 -0.13610 0.82516
 H36 H 0.15238 0.12172 0.71644
 C37 C 0.69636 0.44416 0.25368
 C38 C 0.66882 0.47395 0.26166
 C39 C 0.63286 0.46288 0.28466
 C40 C 0.62188 0.42240 0.29641
 C41 C 0.64849 0.39209 0.28699
 C42 C 0.68654 0.40275 0.26719
 C43 C 0.67350 0.51681 0.24420
 C44 C 0.64421 0.52872 0.20869
 C45 C 0.63322 0.56923 0.20904
 C46 C 0.65551 0.59919 0.24026
 C47 C 0.68720 0.58874 0.27298
 C48 C 0.69556 0.54705 0.27558
 H49 H 0.72454 0.45313 0.23660
 H50 H 0.61234 0.48646 0.29156
 H51 H 0.62602 0.50507 0.18655
 H52 H 0.71745 0.53770 0.30365
 H53 H 0.63999 0.36056 0.29624
 H54 H 0.64790 0.63083 0.23949
 C55 C 0.80714 0.46255 0.74139
 C56 C 0.82961 0.49405 0.71588
 C57 C 0.85743 0.48334 0.67842
 C58 C 0.86457 0.44212 0.66799
 C59 C 0.84092 0.41127 0.69176
 C60 C 0.81231 0.42074 0.72871
 C61 C 0.83545 0.53613 0.73985
 C62 C 0.86652 0.54239 0.77702
 C63 C 0.88242 0.58205 0.79160
 C64 C 0.86387 0.61598 0.77302
 C65 C 0.83110 0.61071 0.73811
 C66 C 0.81764 0.57048 0.71975
 H67 H 0.78734 0.47071 0.77241
 H68 H 0.87655 0.50749 0.66172
 H69 H 0.88066 0.51570 0.79075
 H70 H 0.79380 0.56587 0.69051
 H71 H 0.84570 0.37947 0.68279
 H72 H 0.87482 0.64688 0.78535
 C73 C 0.22642 0.41123 1.06432
 C74 C 0.25006 0.43405 1.02911
 C75 C 0.28766 0.45074 1.04527
 C76 C 0.30243 0.44492 1.09630
 C77 C 0.27922 0.42075 1.13098
 C78 C 0.24131 0.40287 1.11515
 C79 C 0.23742 0.43759 0.97350
 C80 C 0.20522 0.46013 0.96029
 C81 C 0.19445 0.46478 0.90696
 C82 C 0.21504 0.44512 0.86704
 C83 C 0.24679 0.42206 0.88023
 C84 C 0.25850 0.41901 0.93326
 H85 H 0.19784 0.39785 1.05021
 H86 H 0.30555 0.46816 1.01748
 H87 H 0.18925 0.47478 0.99148
 H88 H 0.28322 0.40116 0.94333
 H89 H 0.29121 0.41467 1.16974
 H90 H 0.20607 0.44689 0.82584
 C91 C 0.76833 0.08455 1.08292
 C92 C 0.74142 0.06765 1.04346
 C93 C 0.70232 0.05585 1.05647
 C94 C 0.68924 0.06103 1.10817
 C95 C 0.71643 0.07759 1.14750
 C96 C 0.75581 0.09100 1.13525
 C97 C 0.75205 0.06710 0.98706
 C98 C 0.78289 0.04467 0.96875
 C99 C 0.79166 0.04344 0.91464
 C100 C 0.77039 0.06654 0.87908
 C101 C 0.74002 0.09014 0.89740
 C102 C 0.73065 0.08942 0.95131
 H103 H 0.79794 0.09490 1.07165
 H104 H 0.68163 0.04393 1.02542
 H105 H 0.79951 0.02749 0.99651
 H106 H 0.70785 0.10785 0.96656
 H107 H 0.70633 0.08192 1.18745
 H108 H 0.77816 0.06711 0.83774
 C109 C 0.26879 0.58136 0.56477
 C110 C 0.24604 0.55870 0.52542
 C111 C 0.20785 0.54243 0.53607
 C112 C 0.19201 0.54826 0.58605
 C113 C 0.21512 0.57008 0.62562
 C114 C 0.25285 0.58817 0.61487
 C115 C 0.25932 0.55668 0.47080
 C116 C 0.28766 0.52987 0.45572
 C117 C 0.29769 0.52586 0.40237
 C118 C 0.28065 0.55013 0.36459
 C119 C 0.25315 0.57780 0.38019
 C120 C 0.24182 0.58038 0.43290
 H121 H 0.29737 0.59574 0.55495
 H122 H 0.19002 0.52649 0.50458
 H123 H 0.30138 0.51172 0.48528
 H124 H 0.21963 0.60105 0.44455
 H125 H 0.20256 0.57589 0.66385
 H126 H 0.28931 0.54818 0.32359
 C127 C 0.73857 0.93123 0.58732
 C128 C 0.76440 0.94819 0.55002
 C129 C 0.80387 0.95951 0.56435
 C130 C 0.81888 0.95250 0.61519
 C131 C 0.79268 0.93476 0.65231
 C132 C 0.75264 0.92324 0.63831
 C133 C 0.75267 0.94665 0.49359
 C134 C 0.72037 0.96666 0.47534
 C135 C 0.70955 0.96413 0.42149
 C136 C 0.73041 0.94002 0.38584
 C137 C 0.76224 0.91860 0.40438
 C138 C 0.77331 0.92280 0.45830
 H139 H 0.70871 0.92077 0.57470
 H140 H 0.82334 0.97181 0.53424
 H141 H 0.70394 0.98460 0.50297
 H142 H 0.79689 0.90587 0.47422
 H143 H 0.80364 0.92775 0.69126
 H144 H 0.72124 0.93710 0.34448
 C145 C -0.06714 0.21060 0.37860
 C146 C -0.02574 0.21112 0.38417
 C147 C -0.00884 0.18860 0.42406
 C148 C -0.03215 0.17333 0.46478
 C149 C -0.07337 0.17519 0.46115
 C150 C -0.09161 0.19154 0.41638
 C151 C -0.00072 0.24614 0.36543
 C152 C -0.00386 0.28353 0.39287
 C153 C 0.02859 0.31215 0.39862
 C154 C 0.06360 0.30555 0.37111
 C155 C 0.06553 0.26995 0.33804
 C156 C 0.03341 0.23984 0.33697
 H157 H -0.07991 0.22802 0.34752
 H158 H 0.02312 0.18908 0.42834
 H159 H -0.02941 0.28736 0.41727
 H160 H 0.03600 0.21009 0.31754
 H161 H -0.09086 0.16136 0.49203
 H162 H 0.08921 0.32732 0.37637
 C163 C -0.02051 0.78375 0.18769
 C164 C 0.00308 0.77942 0.14381
 C165 C 0.00024 0.80536 0.10175
 C166 C -0.02964 0.83229 0.10006
 C167 C -0.05716 0.83322 0.14102
 C168 C -0.05240 0.80900 0.18584
 C169 C 0.02100 0.74062 0.13516
 C170 C 0.00548 0.71323 0.09519
 C171 C 0.01978 0.67407 0.08816
 C172 C 0.05117 0.66344 0.12166
 C173 C 0.06528 0.69081 0.16314
 C174 C 0.05008 0.72918 0.16954
 H175 H -0.01804 0.76182 0.21872
 H176 H 0.01867 0.80141 0.06761
 H177 H -0.01787 0.72315 0.06988
 H178 H 0.06133 0.75057 0.20103
 H179 H -0.08244 0.85158 0.13725
 H180 H 0.06365 0.63389 0.11681
 C181 C 0.45483 0.27681 0.66089
 C182 C 0.48690 0.26870 0.63039
 C183 C 0.50069 0.29613 0.59314
 C184 C 0.48223 0.33237 0.58446
 C185 C 0.44901 0.34084 0.61516
 C186 C 0.43580 0.31292 0.65399
 C187 C 0.50450 0.22962 0.63222
 C188 C 0.49107 0.19870 0.59620
 C189 C 0.51412 0.16576 0.58469
 C190 C 0.54977 0.16232 0.61408
 C191 C 0.56194 0.19285 0.65296
 C192 C 0.53969 0.22709 0.65996
 H193 H 0.44417 0.25455 0.68929
 H194 H 0.52518 0.28748 0.56966
 H195 H 0.46369 0.20256 0.57492
 H196 H 0.55022 0.25262 0.68640
 H197 H 0.43381 0.36849 0.60910
 H198 H 0.56764 0.13656 0.60687
 C199 C 0.43498 0.73628 0.86703
 C200 C 0.47304 0.74668 0.88715
 C201 C 0.48709 0.72753 0.93186
 C202 C 0.46411 0.69664 0.95625
 C203 C 0.42617 0.68489 0.93443
 C204 C 0.41159 0.70503 0.89047
 C205 C 0.49837 0.78081 0.86787
 C206 C 0.50089 0.81500 0.90206
 C207 C 0.53790 0.83017 0.92178
 C208 C 0.57237 0.81966 0.89573
 C209 C 0.56899 0.79176 0.85166
 C210 C 0.53169 0.77116 0.83961
 H211 H 0.42401 0.75169 0.83290
 H212 H 0.51661 0.73708 0.94667
 H213 H 0.47473 0.82178 0.92389
 H214 H 0.52926 0.74409 0.81350
 H215 H 0.40799 0.65996 0.95104
 H216 H 0.60116 0.83257 0.90989
 C217 C -0.30740 0.57437 0.98170
 C218 C -0.26781 0.57845 0.99987
 C219 C -0.25901 0.59387 1.05101
 C220 C -0.28865 0.60623 1.08406
 C221 C -0.32844 0.60021 1.06735
 C222 C -0.33842 0.58374 1.01593
 C223 C -0.23421 0.57652 0.96392
 C224 C -0.22812 0.60923 0.93004
 C225 C -0.19003 0.62147 0.91342
 C226 C -0.15877 0.59641 0.92474
 C227 C -0.16495 0.56093 0.95492
 C228 C -0.20284 0.55189 0.97555
 H229 H -0.31348 0.56324 0.94139
 H230 H -0.22824 0.59936 1.06381
 H231 H -0.25217 0.62887 0.92352
 H232 H -0.20776 0.52729 1.00295
 H233 H -0.35127 0.60914 1.09385
 H234 H -0.12935 0.60488 0.91129
 C235 C -0.30837 0.44667 0.49014
 C236 C -0.27920 0.41855 0.48274
 C237 C -0.28779 0.38280 0.45183
 C238 C -0.32528 0.37319 0.42959
 C239 C -0.35422 0.40124 0.43574
 C240 C -0.34639 0.43838 0.46588
 C241 C -0.24070 0.42111 0.51110
 C242 C -0.23663 0.39292 0.55155
 C243 C -0.19990 0.37797 0.56294
 C244 C -0.16632 0.39506 0.53801
 C245 C -0.16923 0.42443 0.49907
 C246 C -0.20682 0.43718 0.48525
 H247 H -0.30147 0.47392 0.51510
 H248 H -0.26508 0.36117 0.44743
 H249 H -0.26297 0.37812 0.56835
 H250 H -0.21025 0.45725 0.45240
 H251 H -0.38279 0.39393 0.41685
 H252 H -0.13776 0.38388 0.54696
 C253 C 0.18659 -0.05579 -0.00741
 C254 C 0.21962 -0.07763 -0.02174
 C255 C 0.21307 -0.11436 -0.05149
 C256 C 0.17486 -0.13351 -0.05868
 C257 C 0.14202 -0.11162 -0.04418
 C258 C 0.14735 -0.07183 -0.02041
 C259 C 0.25687 -0.07412 0.01101
 C260 C 0.25247 -0.08661 0.06287
 C261 C 0.28280 -0.10518 0.08981
 C262 C 0.32050 -0.10450 0.06783
 C263 C 0.32760 -0.08582 0.01899
 C264 C 0.29495 -0.07318 -0.01097
 H265 H 0.19174 -0.02762 0.01625
 H266 H 0.23848 -0.13145 -0.06091
 H267 H 0.22277 -0.08884 0.07822
 H268 H 0.29886 -0.06315 -0.05107
 H269 H 0.11227 -0.12527 -0.05154
 H270 H 0.34448 -0.11738 0.08928
 C271 C 0.19978 1.06389 0.46300
 C272 C 0.23796 1.07014 0.48580
 C273 C 0.24319 1.09134 0.53460
 C274 C 0.21141 1.10826 0.55967
 C275 C 0.17330 1.10205 0.53682
 C276 C 0.16691 1.07871 0.48895
 C277 C 0.27323 1.06783 0.45300
 C278 C 0.27868 1.09923 0.41735
 C279 C 0.31665 1.11397 0.40385
 C280 C 0.34904 1.09098 0.41762
 C281 C 0.34340 1.05484 0.44698
 C282 C 0.30535 1.04500 0.46727
 H283 H 0.19626 1.04810 0.42475
 H284 H 0.27288 1.09761 0.55119
 H285 H 0.25357 1.11680 0.40792
 H286 H 0.30071 1.02093 0.49544
 H287 H 0.14858 1.11392 0.55738
 H288 H 0.37854 1.10114 0.40590
 C289 C 0.14972 0.47162 0.15876
 C290 C 0.16803 0.49565 0.20059
 C291 C 0.18609 0.53462 0.19105
 C292 C 0.18486 0.55100 0.14054
 C293 C 0.16588 0.52695 0.09888
 C294 C 0.14753 0.48752 0.10785
 C295 C 0.16311 0.48334 0.25574
 C296 C 0.17835 0.44744 0.27368
 C297 C 0.17388 0.43638 0.32666
 C298 C 0.15439 0.46194 0.36147
 C299 C 0.13812 0.49749 0.34361
 C300 C 0.14236 0.50780 0.29043
 H301 H 0.13414 0.44244 0.16716
 H302 H 0.19964 0.55291 0.22399
 H303 H 0.19362 0.42827 0.24622
 H304 H 0.12927 0.53455 0.27537
 H305 H 0.16316 0.53974 0.06009
 H306 H 0.15081 0.45375 0.40230
 C307 C -0.14638 1.02330 0.18165
 C308 C -0.16048 0.99922 0.22350
 C309 C -0.17288 0.95778 0.21415
 C310 C -0.17138 0.93917 0.16372
 C311 C -0.15690 0.96328 0.12198
 C312 C -0.14325 1.00516 0.13045
 C313 C -0.16202 1.01559 0.27842
 C314 C -0.19090 1.04193 0.29236
 C315 C -0.19937 1.04988 0.34590
 C316 C -0.17705 1.03192 0.38591
 C317 C -0.14662 1.00669 0.37203
 C318 C -0.13974 0.99852 0.31818
 H319 H -0.13632 1.05516 0.19000
 H320 H -0.18364 0.93998 0.24716
 H321 H -0.20852 1.05410 0.26100
 H322 H -0.11731 0.97814 0.30669
 H323 H -0.15490 0.94916 0.08295
 H324 H -0.18256 1.03797 0.42736
 C325 C 0.36452 0.52123 -0.33728
 C326 C 0.34762 0.49755 -0.29699
 C327 C 0.32849 0.45912 -0.30950
 C328 C 0.32717 0.44246 -0.36115
 C329 C 0.34542 0.46548 -0.40124
 C330 C 0.36441 0.50511 -0.38991
 C331 C 0.34391 0.51443 -0.24275
 C332 C 0.31103 0.53610 -0.23251
 C333 C 0.30172 0.54792 -0.18071
 C334 C 0.32717 0.53903 -0.13832
 C335 C 0.35905 0.51425 -0.14767
 C336 C 0.36742 0.50252 -0.20033
 H337 H 0.37824 0.55149 -0.32688
 H338 H 0.31336 0.44275 -0.27855
 H339 H 0.29235 0.54364 -0.26574
 H340 H 0.39130 0.48297 -0.20821
 H341 H 0.34518 0.45242 -0.44115
 H342 H 0.32015 0.54790 -0.09813
 C343 C 0.63010 -0.02942 -0.31803
 C344 C 0.64617 -0.00440 -0.27520
 C345 C 0.66684 0.03304 -0.28458
 C346 C 0.67221 0.04610 -0.33591
 C347 C 0.65512 0.02206 -0.37872
 C348 C 0.63306 -0.01556 -0.37047
 C349 C 0.64278 -0.01648 -0.21976
 C350 C 0.66111 -0.05092 -0.20289
 C351 C 0.66345 -0.05960 -0.14892
 C352 C 0.64611 -0.03375 -0.11198
 C353 C 0.62692 0.00073 -0.12847
 C354 C 0.62598 0.00954 -0.18247
 H355 H 0.61368 -0.05812 -0.30972
 H356 H 0.67978 0.05165 -0.25138
 H357 H 0.67490 -0.07003 -0.23196
 H358 H 0.61168 0.03606 -0.19604
 H359 H 0.65817 0.03330 -0.41842
 H360 H 0.64698 -0.04062 -0.07039
 C361 C -0.01796 0.19694 0.88092
 C362 C -0.01336 0.23862 0.86700
 C363 C -0.04505 0.25689 0.84311
 C364 C -0.08029 0.23392 0.82971
 C365 C -0.08528 0.19306 0.84545
 C366 C -0.05405 0.17385 0.86995
 C367 C 0.02596 0.26075 0.86274
 C368 C 0.05355 0.24284 0.83022
 C369 C 0.08491 0.26704 0.80947
 C370 C 0.08910 0.30942 0.82270
 C371 C 0.06133 0.32818 0.85439
 C372 C 0.03082 0.30324 0.87616
 H373 H 0.00727 0.18181 0.89574
 H374 H -0.04067 0.28823 0.83038
 H375 H 0.04893 0.21064 0.81808
 H376 H 0.00816 0.31753 0.89836
 H377 H -0.11257 0.17502 0.83477
 H378 H 0.11293 0.32828 0.80572
 C379 C 0.49660 0.20744 0.13108
 C380 C 0.50778 0.24474 0.15720
 C381 C 0.54569 0.25237 0.17869
 C382 C 0.57282 0.22242 0.17432
 C383 C 0.56194 0.18440 0.14842
 C384 C 0.52386 0.17743 0.12535
 C385 C 0.48081 0.27717 0.15857
 C386 C 0.45205 0.27720 0.19667
 C387 C 0.42749 0.30947 0.19985
 C388 C 0.43104 0.34164 0.16412
 C389 C 0.45931 0.34072 0.12430
 C390 C 0.48456 0.30852 0.12242
 H391 H 0.46698 0.20246 0.11396
 H392 H 0.55448 0.28218 0.19738
 H393 H 0.44914 0.25238 0.22430
 H394 H 0.50769 0.30787 0.09355
 H395 H 0.58363 0.16185 0.14304
 H396 H 0.41141 0.36644 0.16652
 C397 C -0.00425 0.69374 0.61690
 C398 C -0.00829 0.72512 0.65401
 C399 C 0.02087 0.73415 0.69305
 C400 C 0.05617 0.71412 0.69325
 C401 C 0.05997 0.68142 0.65588
 C402 C 0.02955 0.67141 0.61750
 C403 C -0.03762 0.75510 0.64603
 C404 C -0.06517 0.76114 0.68498
 C405 C -0.08050 0.79955 0.69156
 C406 C -0.07039 0.83098 0.65605
 C407 C -0.04661 0.82300 0.61250
 C408 C -0.02993 0.78493 0.60833
 H409 H -0.02708 0.68768 0.58637
 H410 H 0.01658 0.75927 0.72067
 H411 H -0.07060 0.73781 0.71423
 H412 H -0.00785 0.77974 0.57901
 H413 H 0.08690 0.66546 0.65485
 H414 H -0.08229 0.86083 0.66095
 C415 C 0.47954 0.68964 0.35379
 C416 C 0.48593 0.73141 0.34065
 C417 C 0.45647 0.75063 0.31324
 C418 C 0.42077 0.72906 0.29918
 C419 C 0.41398 0.68789 0.31354
 C420 C 0.44366 0.66729 0.33947
 C421 C 0.52551 0.75312 0.34479
 C422 C 0.55638 0.73486 0.31924
 C423 C 0.59182 0.75773 0.31076
 C424 C 0.59705 0.79871 0.32951
 C425 C 0.56588 0.81834 0.35286
 C426 C 0.53040 0.79495 0.36193
 H427 H 0.50323 0.67412 0.37218
 H428 H 0.46195 0.78208 0.30093
 H429 H 0.55194 0.70363 0.30297
 H430 H 0.50556 0.80996 0.37799
 H431 H 0.38597 0.67145 0.30240
 H432 H 0.62466 0.81626 0.32214
 B433 B -0.06125 0.00909 0.97864
 B434 B -0.07734 -0.01319 0.92064
 B435 B -0.04218 0.02560 0.92134
 B436 B -0.01215 0.02168 0.97530
 B437 B -0.02969 -0.02119 1.00739
 B438 B -0.07068 -0.04226 0.97294
 B439 B -0.00765 -0.04611 0.90924
 B440 B 0.00883 -0.02376 0.96689
 B441 B -0.02729 -0.06208 0.96562
 B442 B -0.05678 -0.05798 0.91163
 B443 B -0.03867 -0.01578 0.87969
 B444 B 0.00203 0.00575 0.91394
 B445 B 0.44775 0.50951 0.46063
 B446 B 0.43081 0.48035 0.40791
 B447 B 0.46103 0.52260 0.39937
 B448 B 0.49485 0.52732 0.44977
 B449 B 0.48469 0.48665 0.48972
 B450 B 0.44434 0.45790 0.46343
 B451 B 0.50305 0.45558 0.39254
 B452 B 0.52046 0.48501 0.44494
 B453 B 0.48954 0.44331 0.45365
 B454 B 0.45608 0.43831 0.40312
 B455 B 0.46654 0.47884 0.36282
 B456 B 0.50689 0.50769 0.38893
 B457 B 0.55310 0.98067 0.47016
 B458 B 0.57291 1.00670 0.41975
 B459 B 0.54186 0.96494 0.40734
 B460 B 0.50597 0.96365 0.45296
 B461 B 0.51562 1.00611 0.49397
 B462 B 0.55779 1.03244 0.47330
 B463 B 0.50231 1.03262 0.39430
 B464 B 0.48169 1.00662 0.44423
 B465 B 0.51341 1.04771 0.45685
 B466 B 0.54904 1.04923 0.41138
 B467 B 0.53905 1.00700 0.37003
 B468 B 0.49700 0.98050 0.39052
 B469 B 0.04498 0.48747 0.96997
 B470 B 0.06190 0.51470 0.91912
 B471 B 0.03032 0.47334 0.90783
 B472 B -0.00290 0.47092 0.95693
 B473 B 0.00912 0.51236 0.99912
 B474 B 0.05000 0.53915 0.97538
 B475 B -0.00926 0.54176 0.90244
 B476 B -0.02729 0.51432 0.95274
 B477 B 0.00506 0.55510 0.96453
 B478 B 0.03815 0.55761 0.91553
 B479 B 0.02565 0.51651 0.87315
 B480 B -0.01510 0.48962 0.89637
 B481 B 0.04262 0.50992 0.48119
 B482 B 0.05147 0.50312 0.54579
 B483 B 0.01738 0.53432 0.52703
 B484 B -0.00630 0.51426 0.47150
 B485 B 0.01425 0.46938 0.45604
 B486 B 0.05078 0.46300 0.50250
 B487 B -0.01923 0.46194 0.55276
 B488 B -0.02865 0.46897 0.48854
 B489 B 0.00650 0.43769 0.50653
 B490 B 0.02942 0.45800 0.56258
 B491 B 0.00849 0.50287 0.57794
 B492 B -0.02752 0.50956 0.53186
 B493 B 0.53707 0.00969 0.01612
 B494 B 0.54780 0.00793 0.08099
 B495 B 0.50900 0.03230 0.05985
 B496 B 0.48739 0.00630 0.00685
 B497 B 0.51382 -0.03499 -0.00462
 B498 B 0.55164 -0.03370 0.04160
 B499 B 0.48213 -0.04209 0.09300
 B500 B 0.47121 -0.03998 0.02850
 B501 B 0.51069 -0.06435 0.04885
 B502 B 0.53170 -0.03848 0.10263
 B503 B 0.50498 0.00334 0.11421
 B504 B 0.46744 0.00208 0.06802
 B505 B 0.44687 0.50835 0.01230
 B506 B 0.43912 0.51046 0.07782
 B507 B 0.47283 0.48048 0.05367
 B508 B 0.49567 0.50377 0.00306
 B509 B 0.47567 0.54966 -0.00366
 B510 B 0.43989 0.55364 0.04278
 B511 B 0.51113 0.54982 0.09433
 B512 B 0.51908 0.54698 0.02927
 B513 B 0.48526 0.57724 0.05290
 B514 B 0.46233 0.55420 0.10394
 B515 B 0.48279 0.50803 0.11079
 B516 B 0.51815 0.50398 0.06431
 B517 B -0.04475 0.99440 0.51313
 B518 B -0.04232 0.99332 0.57955
 B519 B -0.01608 0.96199 0.54328
 B520 B 0.00021 0.98685 0.48924
 B521 B -0.01639 1.03494 0.49357
 B522 B -0.04312 1.03857 0.54976
 B523 B 0.03341 1.02561 0.57863
 B524 B 0.03004 1.02706 0.51228
 B525 B 0.00418 1.05825 0.54931
 B526 B -0.01187 1.03325 0.60327
 B527 B 0.00461 0.98506 0.59876
 B528 B 0.03095 0.98128 0.54206
 B529 B 0.76584 0.18954 0.27648
 B530 B 0.73578 0.17367 0.32514
 B531 B 0.77463 0.20724 0.33935
 B532 B 0.78102 0.23979 0.28896
 B533 B 0.74456 0.22587 0.24289
 B534 B 0.71651 0.18433 0.26548
 B535 B 0.70891 0.24853 0.33367
 B536 B 0.73943 0.26525 0.28652
 B537 B 0.70106 0.23140 0.27141
 B538 B 0.69426 0.19872 0.32192
 B539 B 0.73054 0.21322 0.36822
 B540 B 0.75843 0.25457 0.34595
 B541 B 0.73434 0.81307 0.76283
 B542 B 0.73693 0.81636 0.82922
 B543 B 0.70959 0.77787 0.79876
 B544 B 0.73243 0.76307 0.74340
 B545 B 0.77515 0.79348 0.74023
 B546 B 0.77728 0.82717 0.79390
 B547 B 0.77924 0.74973 0.82989
 B548 B 0.77550 0.74590 0.76372
 B549 B 0.80302 0.78554 0.79389
 B550 B 0.78031 0.79972 0.84990
 B551 B 0.73750 0.76861 0.85319
 B552 B 0.73493 0.73523 0.79964
 B553 B 0.26831 0.31066 0.74981
 B554 B 0.26751 0.30502 0.68338
 B555 B 0.30156 0.28326 0.71968
 B556 B 0.28120 0.26653 0.77636
 B557 B 0.23327 0.27857 0.77403
 B558 B 0.22495 0.30313 0.71625
 B559 B 0.24410 0.22480 0.69142
 B560 B 0.24487 0.23090 0.75750
 B561 B 0.21088 0.25312 0.72153
 B562 B 0.23117 0.26908 0.66453
 B563 B 0.27966 0.25703 0.66678
 B564 B 0.28801 0.23299 0.72474
 B565 B 0.23382 0.69142 0.25954
 B566 B 0.23145 0.69513 0.19344
 B567 B 0.19870 0.71706 0.23155
 B568 B 0.22128 0.73599 0.28847
 B569 B 0.26938 0.72516 0.28445
 B570 B 0.27544 0.69919 0.22537
 B571 B 0.25302 0.77609 0.20396
 B572 B 0.25575 0.77219 0.26984
 B573 B 0.28843 0.74971 0.23206
 B574 B 0.26587 0.73150 0.17507
 B575 B 0.21721 0.74216 0.17908
 B576 B 0.21106 0.76740 0.23829
 B577 B 0.25230 0.69097 0.75956
 B578 B 0.23400 0.66969 0.81452
 B579 B 0.27376 0.70335 0.81848
 B580 B 0.26858 0.74011 0.77389
 B581 B 0.22426 0.72848 0.74122
 B582 B 0.20320 0.68425 0.76649
 B583 B 0.20962 0.74262 0.84598
 B584 B 0.22821 0.76394 0.79127
 B585 B 0.18861 0.72968 0.78642
 B586 B 0.19377 0.69327 0.83174
 B587 B 0.23817 0.70514 0.86461
 B588 B 0.25929 0.74944 0.83932
 B589 B 0.23181 0.29728 0.24588
 B590 B 0.23360 0.30402 0.31195
 B591 B 0.20762 0.26336 0.28455
 B592 B 0.23172 0.24653 0.23112
 B593 B 0.27368 0.27812 0.22617
 B594 B 0.27420 0.31438 0.27682
 B595 B 0.27816 0.23946 0.32001
 B596 B 0.27535 0.23211 0.25410
 B597 B 0.30104 0.27403 0.28155
 B598 B 0.27704 0.29005 0.33544
 B599 B 0.23534 0.25785 0.34041
 B600 B 0.23453 0.22192 0.28987
 B601 B 0.78181 0.80244 0.27787
 B602 B 0.78325 0.79891 0.21141
 B603 B 0.81521 0.77486 0.24832
 B604 B 0.79232 0.75670 0.30264
 B605 B 0.74493 0.77041 0.29834
 B606 B 0.73942 0.79715 0.24162
 B607 B 0.75764 0.71904 0.21369
 B608 B 0.75609 0.72273 0.27978
 B609 B 0.72423 0.74708 0.24305
 B610 B 0.74681 0.76457 0.18863
 B611 B 0.79470 0.75101 0.19301
 B612 B 0.80019 0.72482 0.24983
 B613 B 0.72854 0.19963 0.76620
 B614 B 0.73534 0.18657 0.70239
 B615 B 0.70117 0.21919 0.71812
 B616 B 0.71837 0.25006 0.76984
 B617 B 0.76400 0.23580 0.78644
 B618 B 0.77448 0.19565 0.74463
 B619 B 0.76607 0.26265 0.68495
 B620 B 0.75861 0.27693 0.74805
 B621 B 0.79265 0.24378 0.73409
 B622 B 0.77604 0.21300 0.68212
 B623 B 0.72984 0.22758 0.66493
 B624 B 0.71947 0.26744 0.70632
 C625 C 0.42606 1.07597 0.31844
 C626 C 0.45257 1.11033 0.31813
 C627 C 0.48604 1.09877 0.34301
 C628 C 0.47712 1.05862 0.35710
 O629 O 0.44141 1.04478 0.34130
 H630 H 0.44836 1.14018 0.30229
 H631 H 0.51286 1.11795 0.35224
 C632 C -0.08267 0.58642 0.82235
 C633 C -0.05926 0.62249 0.83276
 C634 C -0.02797 0.61115 0.86214
 C635 C -0.03510 0.56939 0.86850
 O636 O -0.06767 0.55438 0.84374
 H637 H -0.06359 0.65323 0.81993
 H638 H -0.00338 0.63110 0.87814
 C639 C 0.07820 -0.08290 0.84933
 C640 C 0.05700 -0.12076 0.84784
 C641 C 0.02037 -0.11304 0.86589
 C642 C 0.02219 -0.07121 0.87708
 O643 O 0.05686 -0.05320 0.86617
 H644 H 0.06693 -0.15041 0.83599
 H645 H -0.00396 -0.13552 0.87153
 C646 C 0.58267 0.41472 0.31994
 C647 C 0.55954 0.37812 0.32000
 C648 C 0.52572 0.38755 0.34515
 C649 C 0.53120 0.42902 0.35895
 O650 O 0.56531 0.44527 0.34311
 H651 H 0.56624 0.34846 0.30348
 H652 H 0.50059 0.36658 0.35363
 C653 C 0.59564 0.57846 0.18210
 C654 C 0.57284 0.61010 0.19708
 C655 C 0.53900 0.60445 0.16684
 C656 C 0.54348 0.56992 0.13527
 O657 O 0.57760 0.55382 0.14496
 H658 H 0.57899 0.63312 0.22842
 H659 H 0.51366 0.62282 0.16840
 C660 C 0.12149 1.05405 0.66320
 C661 C 0.13912 1.03324 0.62300
 C662 C 0.10981 1.02135 0.58793
 C663 C 0.07573 1.03671 0.60736
 O664 O 0.08259 1.05542 0.65456
 H665 H 0.16926 1.02428 0.62209
 H666 H 0.11290 1.00206 0.55284
 C667 C -0.10075 0.43196 0.63660
 C668 C -0.08471 0.39411 0.63405
 C669 C -0.05238 0.39943 0.60326
 C670 C -0.05075 0.44006 0.58945
 O671 O -0.07995 0.45979 0.60974
 H672 H -0.09470 0.36595 0.65274
 H673 H -0.03256 0.37629 0.59252
 C674 C 0.40205 -0.07939 0.17457
 C675 C 0.42138 -0.11532 0.17302
 C676 C 0.45432 -0.10699 0.14384
 C677 C 0.45279 -0.06658 0.13000
 O678 O 0.42128 -0.04998 0.14850
 H679 H 0.41312 -0.14391 0.19152
 H680 H 0.47659 -0.12789 0.13375
 C681 C 0.34281 0.46292 0.11119
 C682 C 0.35886 0.46644 0.16196
 C683 C 0.39594 0.48482 0.15687
 C684 C 0.40003 0.49125 0.10346
 O685 O 0.36783 0.47803 0.07576
 H686 H 0.34532 0.45718 0.19849
 H687 H 0.41757 0.49246 0.18843
 C688 C -0.14008 0.96062 0.62555
 C689 C -0.11953 0.95372 0.67206
 C690 C -0.08064 0.96463 0.66230
 C691 C -0.08012 0.97731 0.61077
 O692 O -0.11594 0.97499 0.58877
 H693 H -0.13093 0.94186 0.70863
 H694 H -0.05565 0.96329 0.68940
 C695 C -0.17525 0.01977 0.89717
 C696 C -0.17234 -0.00031 0.84866
 C697 C -0.13674 -0.01761 0.85081
 C698 C -0.12055 -0.00623 0.90016
 O699 O -0.14405 0.01605 0.92818
 H700 H -0.19349 -0.00210 0.81584
 H701 H -0.12351 -0.03503 0.81955
 C702 C 0.32965 0.50026 0.38826
 C703 C 0.33182 0.47604 0.34283
 C704 C 0.36882 0.46191 0.34502
 C705 C 0.38616 0.47942 0.39111
 O706 O 0.36227 0.50216 0.41727
 H707 H 0.30972 0.47049 0.31139
 H708 H 0.38239 0.44343 0.31511
 C709 C 0.14998 0.53574 0.59438
 C710 C 0.13172 0.53552 0.64275
 C711 C 0.09303 0.52448 0.63139
 C712 C 0.09040 0.51872 0.57705
 O713 O 0.12490 0.52535 0.55455
 H714 H 0.14469 0.54228 0.68179
 H715 H 0.06957 0.52052 0.65957
 C716 C 0.64653 0.05168 0.11914
 C717 C 0.62767 0.06325 0.16466
 C718 C 0.58891 0.04968 0.15675
 C719 C 0.58660 0.03094 0.10700
 O720 O 0.62147 0.03212 0.08420
 H721 H 0.64019 0.07999 0.19940
 H722 H 0.56516 0.05288 0.18418
 C723 C 0.67478 0.98496 0.40459
 C724 C 0.67238 1.00887 0.36085
 C725 C 0.63538 1.02282 0.36207
 C726 C 0.61798 1.00583 0.40613
 O727 O 0.64206 0.98316 0.43206
 H728 H 0.69486 1.01539 0.33190
 H729 H 0.62202 1.04161 0.33306
 C730 C 0.16064 0.48874 0.89389
 C731 C 0.15350 0.50623 0.84598
 C732 C 0.11822 0.52312 0.85095
 C733 C 0.10569 0.51325 0.90084
 O734 O 0.13161 0.49287 0.92698
 H735 H 0.17046 0.50472 0.81054
 H736 H 0.10183 0.53726 0.82005
 C737 C 0.02752 0.34196 0.44345
 C738 C 0.03881 0.33274 0.49401
 C739 C 0.02742 0.36418 0.52545
 C740 C 0.00921 0.39033 0.49209
 O741 O 0.00906 0.37640 0.44204
 H742 H 0.05361 0.30617 0.50632
 H743 H 0.03454 0.36906 0.56721
 C744 C 0.53803 -0.14828 -0.02646
 C745 C 0.56284 -0.15403 0.01599
 C746 C 0.54979 -0.12953 0.05593
 C747 C 0.51823 -0.11027 0.03450
 O748 O 0.51052 -0.12314 -0.01485
 H749 H 0.58783 -0.17286 0.01725
 H750 H 0.56491 -0.12230 0.09359
 C751 C -0.03518 -0.14751 1.05019
 C752 C -0.04964 -0.16840 1.00501
 C753 C -0.04467 -0.14099 0.96603
 C754 C -0.02646 -0.10560 0.99009
 O755 O -0.02076 -0.10971 1.04153
 H756 H -0.06261 -0.19974 1.00129
 H757 H -0.05615 -0.14538 0.92585
 C758 C 0.49730 0.35921 0.54175
 C759 C 0.53089 0.35315 0.51288
 C760 C 0.53244 0.38234 0.47601
 C761 C 0.50045 0.40481 0.48503
 O762 O 0.47896 0.39084 0.52483
 H763 H 0.55216 0.33027 0.51695
 H764 H 0.55427 0.38607 0.44605
 C765 C 0.50163 1.13722 0.53993
 C766 C 0.47070 1.14258 0.50467
 C767 C 0.47045 1.11075 0.46917
 C768 C 0.50115 1.08818 0.48471
 O769 O 0.52018 1.10421 0.52759
 H770 H 0.45069 1.16687 0.50334
 H771 H 0.45011 1.10547 0.43599
 C772 C 0.00285 0.64642 1.04875
 C773 C -0.03215 0.65094 1.02078
 C774 C -0.03709 0.61778 0.98692
 C775 C -0.00477 0.59547 0.99575
 O776 O 0.01916 0.61248 1.03372
 H777 H -0.05255 0.67480 1.02463
 H778 H -0.06133 0.61143 0.95891
 C779 C 0.47983 0.67541 -0.00160
 C780 C 0.51670 0.68368 0.02306
 C781 C 0.52262 0.65032 0.05261
 C782 C 0.48885 0.62459 0.04478
 O783 O 0.46283 0.64017 0.01295
 H784 H 0.53832 0.70917 0.01775
 H785 H 0.54992 0.64390 0.07255
 C786 C -0.01454 1.15551 0.50797
 C787 C -0.02575 1.16058 0.55971
 C788 C -0.00951 1.12997 0.58624
 C789 C 0.00847 1.10673 0.54816
 O790 O 0.00709 1.12377 0.50130
 H791 H -0.04603 1.18189 0.57525
 H792 H -0.01667 1.12124 0.62608
 C793 C 0.81616 0.66037 0.89112
 C794 C 0.85231 0.68231 0.88684
 C795 C 0.84380 0.71932 0.86761
 C796 C 0.80315 0.71735 0.86053
 O797 O 0.78646 0.68173 0.87514
 H798 H 0.88140 0.67333 0.89781
 H799 H 0.86514 0.74428 0.85899
 C800 C 0.32069 0.15337 0.38259
 C801 C 0.35517 0.17845 0.38178
 C802 C 0.34406 0.21497 0.36366
 C803 C 0.30368 0.20960 0.35335
 O804 O 0.28968 0.17226 0.36522
 H805 H 0.38464 0.17178 0.39452
 H806 H 0.36378 0.24175 0.35788
 C807 C 0.66764 0.33333 0.40062
 C808 C 0.63166 0.31340 0.38528
 C809 C 0.64098 0.27799 0.35930
 C810 C 0.68176 0.27908 0.36149
 O811 O 0.69764 0.31230 0.38655
 H812 H 0.60237 0.32341 0.39175
 H813 H 0.62065 0.25471 0.34019
 C814 C 0.17128 0.82522 0.92277
 C815 C 0.13837 0.79782 0.92598
 C816 C 0.14922 0.76168 0.90359
 C817 C 0.18745 0.76996 0.88694
 O818 O 0.20100 0.80797 0.89987
 H819 H 0.10992 0.80321 0.94236
 H820 H 0.13039 0.73372 0.89634
 C821 C 0.27282 0.87280 0.13500
 C822 C 0.24395 0.88478 0.16854
 C823 C 0.23403 0.85174 0.19712
 C824 C 0.25798 0.82133 0.18064
 O825 O 0.28207 0.83427 0.14274
 H826 H 0.23020 0.91376 0.17014
 H827 H 0.21113 0.85009 0.22629
 C828 C 0.80245 0.34018 0.59358
 C829 C 0.83124 0.31281 0.58626
 C830 C 0.82131 0.28105 0.61771
 C831 C 0.78739 0.29116 0.64286
 O832 O 0.77543 0.32688 0.62757
 H833 H 0.85593 0.31484 0.55983
 H834 H 0.83729 0.25373 0.62214
 C835 C 0.21938 0.13071 0.61077
 C836 C 0.24023 0.11378 0.65077
 C837 C 0.25099 0.14542 0.68506
 C838 C 0.23508 0.17977 0.66485
 O839 O 0.21630 0.17094 0.61872
 H840 H 0.24900 0.08255 0.65259
 H841 H 0.26981 0.14377 0.71992
 C842 C 0.72416 0.62666 0.13477
 C843 C 0.75011 0.60907 0.16828
 C844 C 0.76585 0.64031 0.20025
 C845 C 0.74776 0.67501 0.18527
 O846 O 0.72283 0.66686 0.14452
 H847 H 0.75879 0.57774 0.16667
 H848 H 0.78845 0.63803 0.23066
 C849 C 0.19959 0.59472 0.13442
 C850 C 0.20109 0.61586 0.08783
 C851 C 0.21367 0.65553 0.10238
 C852 C 0.21893 0.65583 0.15665
 O853 O 0.21055 0.61906 0.17584
 H854 H 0.19341 0.60426 0.04812
 H855 H 0.21786 0.68133 0.07663
 C856 C 0.69549 0.08528 0.65674
 C857 C 0.71580 0.09531 0.61178
 C858 C 0.73424 0.13306 0.62317
 C859 C 0.72381 0.14340 0.67425
 O860 O 0.70029 0.11436 0.69467
 H861 H 0.71748 0.07717 0.57540
 H862 H 0.75263 0.15130 0.59689
 C863 C 0.77140 0.07704 0.35697
 C864 C 0.75288 0.08327 0.40441
 C865 C 0.73081 0.11633 0.39668
 C866 C 0.73838 0.12846 0.34571
 O867 O 0.76184 0.10378 0.32173
 H868 H 0.75608 0.06700 0.44074
 H869 H 0.71489 0.13242 0.42658
 C870 C 0.26725 0.56846 0.82630
 C871 C 0.23323 0.55824 0.79632
 C872 C 0.21288 0.59249 0.79598
 C873 C 0.23661 0.62214 0.82392
 O874 O 0.26875 0.60711 0.84418
 H875 H 0.22665 0.53061 0.77188
 H876 H 0.18694 0.59678 0.77161
 C877 C 0.30734 0.40060 0.62947
 C878 C 0.30115 0.37936 0.58148
 C879 C 0.28389 0.34160 0.59367
 C880 C 0.28076 0.34261 0.64803
 O881 O 0.29484 0.37824 0.66935
 H882 H 0.30887 0.38955 0.54247
 H883 H 0.27578 0.31595 0.56642
 C884 C 0.81687 0.89686 0.15715
 C885 C 0.81694 0.87343 0.11047
 C886 C 0.80420 0.83449 0.12363
 C887 C 0.79725 0.83671 0.17714
 O888 O 0.80487 0.87434 0.19742
 H889 H 0.82537 0.88291 0.07145
 H890 H 0.80074 0.80752 0.09737
 C891 C 0.68448 0.90437 0.86706
 C892 C 0.68956 0.89051 0.91777
 C893 C 0.71046 0.85631 0.91197
 C894 C 0.71650 0.85206 0.85840
 O895 O 0.70082 0.88100 0.83151
 H896 H 0.67919 0.90323 0.95450
 H897 H 0.71964 0.83654 0.94285
 C898 C 0.18847 0.39732 0.34394
 C899 C 0.18481 0.38073 0.39353
 C900 C 0.20116 0.34374 0.38955
 C901 C 0.21333 0.34069 0.33805
 O902 O 0.20577 0.37297 0.31066
 H903 H 0.17154 0.39340 0.42835
 H904 H 0.20358 0.32154 0.42020
 C905 C 0.11263 0.24949 0.77187
 C906 C 0.10585 0.21487 0.73882
 C907 C 0.14034 0.21148 0.71190
 C908 C 0.16543 0.24391 0.73111
 O909 O 0.14838 0.26690 0.76667
 H910 H 0.07915 0.19464 0.73460
 H911 H 0.14670 0.18789 0.68295
 C912 C 0.62255 0.74104 0.27815
 C913 C 0.61643 0.71759 0.23185
 C914 C 0.65322 0.71508 0.21114
 C915 C 0.67862 0.73702 0.24675
 O916 O 0.65994 0.75282 0.28681
 H917 H 0.58842 0.70609 0.21376
 H918 H 0.66024 0.70036 0.17398
 C919 C 0.61365 0.23439 0.18970
 C920 C 0.63588 0.26461 0.16476
 C921 C 0.67056 0.26892 0.19252
 C922 C 0.66641 0.24171 0.23332
 O923 O 0.63180 0.22027 0.23125
 H924 H 0.62776 0.28107 0.13009
 H925 H 0.69631 0.28841 0.18253
 C926 C 0.08951 0.73062 0.72904
 C927 C 0.08941 0.76660 0.75970
 C928 C 0.12535 0.77149 0.78411
 C929 C 0.14544 0.73865 0.76726
 O930 O 0.12376 0.71372 0.73355
 H931 H 0.06650 0.78772 0.76414
 H932 H 0.13494 0.79593 0.81178
 C933 C 0.89544 0.80588 0.73434
 C934 C 0.89616 0.84155 0.76504
 C935 C 0.86671 0.83465 0.80001
 C936 C 0.84862 0.79611 0.78606
 O937 O 0.86716 0.77818 0.74732
 H938 H 0.91534 0.86937 0.76180
 H939 H 0.85633 0.85736 0.82758
 C940 C 0.39714 0.30731 0.23927
 C941 C 0.40025 0.32771 0.28769
 C942 C 0.36684 0.31460 0.31284
 C943 C 0.34626 0.28676 0.27780
 O944 O 0.36493 0.28235 0.23310
 H945 H 0.42370 0.34971 0.30237
 H946 H 0.35745 0.32589 0.35093
 C947 C 0.39051 0.74877 0.26842
 C948 C 0.39678 0.77503 0.22706
 C949 C 0.35975 0.78153 0.20737
 C950 C 0.33415 0.75914 0.23892
 O951 O 0.35289 0.73931 0.27533
 H952 H 0.42490 0.78609 0.21141
 H953 H 0.35246 0.79890 0.17317
 C954 C 0.89010 0.25050 0.79381
 C955 C 0.89551 0.28576 0.76489
 C956 C 0.86127 0.28790 0.73630
 C957 C 0.83757 0.25375 0.74932
 O958 O 0.85512 0.23116 0.78403
 H959 H 0.92114 0.30746 0.76404
 H960 H 0.85454 0.31204 0.71016
 C961 C 0.61172 0.96438 0.58622
 C962 C 0.58914 0.92721 0.58645
 C963 C 0.56793 0.92468 0.53947
 C964 C 0.57905 0.96022 0.51369
 O965 O 0.60597 0.98362 0.54170
 H966 H 0.58618 0.90572 0.61811
 H967 H 0.54429 0.90181 0.52802
 C968 C 0.11972 0.46801 1.06680
 C969 C 0.10190 0.42837 1.06529
 C970 C 0.07291 0.42775 1.02631
 C971 C 0.07529 0.46698 1.00725
 O972 O 0.10362 0.49086 1.03157
 H973 H 0.10769 0.40360 1.09120
 H974 H 0.05124 0.40271 1.01552
 C975 C -0.12334 0.02567 1.08899
 C976 C -0.10463 0.06499 1.09074
 C977 C -0.08222 0.06730 1.04602
 C978 C -0.08919 0.02962 1.01987
 O979 O -0.11454 0.00516 1.04549
 H980 H -0.10442 0.08807 1.12244
 H981 H -0.06050 0.09181 1.03658
 C982 C 0.38535 0.52566 0.56975
 C983 C 0.40587 0.56407 0.57360
 C984 C 0.42814 0.56677 0.52898
 C985 C 0.41944 0.53019 0.50087
 O986 O 0.39303 0.50603 0.52518
 H987 H 0.40711 0.58629 0.60637
 H988 H 0.45106 0.59048 0.52098
 C989 C 0.38105 0.49686 -0.10299
 C990 C 0.39125 0.45665 -0.10216
 C991 C 0.41316 0.45383 -0.05686
 C992 C 0.41567 0.49263 -0.03319
 O993 O 0.39579 0.51875 -0.06113
 H994 H 0.38492 0.43244 -0.13199
 H995 H 0.42746 0.42708 -0.04493
 C996 C -0.12239 0.98726 0.41249
 C997 C -0.10898 0.94875 0.40495
 C998 C -0.08358 0.94384 0.44583
 C999 C -0.08153 0.98043 0.47505
 O1000 O -0.10537 1.00697 0.45474
 H1001 H -0.11453 0.92787 0.37112
 H1002 H -0.06524 0.91842 0.44936
 C1003 C 0.11381 0.52073 0.38014
 C1004 C 0.09580 0.55629 0.36937
 C1005 C 0.06978 0.56094 0.40915
 C1006 C 0.07410 0.52828 0.44177
 O1007 O 0.10106 0.50437 0.42417
 H1008 H 0.09859 0.57485 0.33473
 H1009 H 0.04759 0.58287 0.40995
 C1010 C 0.60419 0.02359 -0.08940
 C1011 C 0.58586 0.05961 -0.09701
 C1012 C 0.56089 0.06306 -0.05537
 C1013 C 0.56611 0.02912 -0.02547
 O1014 O 0.59259 0.00585 -0.04583
 H1015 H 0.58805 0.07937 -0.13058
 H1016 H 0.53909 0.08540 -0.05039
 C1017 C 0.62145 0.57648 -0.00008
 C1018 C 0.60760 0.56866 -0.05161
 C1019 C 0.56780 0.56029 -0.04818
 C1020 C 0.55990 0.56305 0.00502
 O1021 O 0.59232 0.57332 0.03415
 H1022 H 0.62417 0.56852 -0.08768
 H1023 H 0.54725 0.55100 -0.08044
 C1024 C 0.12576 1.06650 0.46995
 C1025 C 0.11527 1.04319 0.42445
 C1026 C 0.07687 1.02881 0.43080
 C1027 C 0.06656 1.04438 0.47948
 O1028 O 0.09571 1.06824 0.50215
 H1029 H 0.13395 1.03453 0.39245
 H1030 H 0.05978 1.00657 0.40526
 C1031 C 0.11176 -0.04855 0.99233
 C1032 C 0.11219 -0.01316 1.02400
 C1033 C 0.07452 -0.00077 1.02154
 C1034 C 0.05321 -0.02916 0.98856
 O1035 O 0.07580 -0.05837 0.97129
 H1036 H 0.13701 0.00254 1.04560
 H1037 H 0.06419 0.02674 1.04004
 C1038 C 0.62277 0.46489 0.47161
 C1039 C 0.62367 0.50169 0.50067
 C1040 C 0.58637 0.51501 0.49513
 C1041 C 0.56554 0.48558 0.46310
 O1042 O 0.58763 0.45566 0.44899
 H1043 H 0.64804 0.51697 0.52362
 H1044 H 0.57558 0.54265 0.51267
 C1045 C -0.13235 0.43927 0.47286
 C1046 C -0.12917 0.46116 0.42707
 C1047 C -0.08944 0.47110 0.42214
 C1048 C -0.07128 0.45446 0.46511
 O1049 O -0.09739 0.43500 0.49517
 H1050 H -0.15278 0.47044 0.40166
 H1051 H -0.07577 0.49107 0.39327
 C1052 C 0.36913 -0.07901 0.00107
 C1053 C 0.38100 -0.07826 -0.05081
 C1054 C 0.42079 -0.06712 -0.04831
 C1055 C 0.43050 -0.06158 0.00487
 O1056 O 0.39911 -0.06889 0.03464
 H1057 H 0.36271 -0.08400 -0.08625
 H1058 H 0.43998 -0.06147 -0.08137
 C1059 C 0.37763 1.02930 0.45814
 C1060 C 0.37628 0.99378 0.48685
 C1061 C 0.41368 0.98052 0.48585
 C1062 C 0.43553 1.00852 0.45653
 O1063 O 0.41358 1.03796 0.43980
 H1064 H 0.35120 0.97890 0.50615
 H1065 H 0.42380 0.95354 0.50433
 C1066 C -0.13076 0.53605 0.96767
 C1067 C -0.13013 0.50535 1.00421
 C1068 C -0.09245 0.49273 1.00401
 C1069 C -0.07265 0.51641 0.96741
 O1070 O -0.09593 0.54242 0.94542
 H1071 H -0.15382 0.49380 1.02890
 H1072 H -0.08071 0.46933 1.02803
 C1073 C 0.03248 0.64031 0.57458
 C1074 C 0.02104 0.64769 0.52323
 C1075 C 0.01417 0.61015 0.49915
 C1076 C 0.02348 0.58234 0.53654
 O1077 O 0.03404 0.60054 0.58287
 H1078 H 0.01432 0.67683 0.50707
 H1079 H 0.00075 0.60387 0.46032
 C1080 C 0.51300 0.14081 0.09161
 C1081 C 0.48817 0.14089 0.04766
 C1082 C 0.48411 0.10131 0.02942
 C1083 C 0.50696 0.08001 0.06335
 O1084 O 0.52471 0.10394 0.10115
 H1085 H 0.47442 0.16671 0.03107
 H1086 H 0.46612 0.08932 -0.00424
 C1087 C -0.05696 0.12825 0.87137
 C1088 C -0.07326 0.10459 0.82933
 C1089 C -0.06970 0.06531 0.84249
 C1090 C -0.05186 0.06687 0.89236
 O1091 O -0.04333 0.10557 0.90989
 H1092 H -0.08532 0.11489 0.79244
 H1093 H -0.07857 0.03852 0.81759
 C1094 C 0.43852 0.62179 0.34534
 C1095 C 0.41553 0.59616 0.31069
 C1096 C 0.42056 0.55740 0.32607
 C1097 C 0.44580 0.56140 0.36981
 O1098 O 0.45740 0.60070 0.38114
 H1099 H 0.39851 0.60447 0.27647
 H1100 H 0.40829 0.52943 0.30611
 C1101 C 0.56854 0.86404 0.35798
 C1102 C 0.58965 0.88840 0.32323
 C1103 C 0.58252 0.92752 0.33679
 C1104 C 0.55793 0.92506 0.37960
 O1105 O 0.54871 0.88621 0.39214
 H1106 H 0.60683 0.87878 0.29006
 H1107 H 0.59328 0.95468 0.31653
 C1108 C 0.06003 0.37384 0.85624
 C1109 C 0.07212 0.39788 0.81482
 C1110 C 0.06217 0.43634 0.82784
 C1111 C 0.04518 0.43392 0.87692
 O1112 O 0.04327 0.39561 0.89406
 H1113 H 0.08495 0.38825 0.77804
 H1114 H 0.06637 0.46301 0.80363
 C1115 C 0.46373 0.37350 0.08564
 C1116 C 0.48013 0.36862 0.03651
 C1117 C 0.48406 0.40692 0.01703
 C1118 C 0.46882 0.43232 0.05491
 O1119 O 0.45669 0.41213 0.09683
 H1120 H 0.48954 0.34077 0.01781
 H1121 H 0.49765 0.41552 -0.01976
 C1122 C -0.03628 0.85536 0.57429
 C1123 C -0.01920 0.84874 0.52584
 C1124 C -0.01082 0.88680 0.50661
 C1125 C -0.02420 0.91390 0.54390
 O1126 O -0.03941 0.89492 0.58511
 H1127 H -0.01256 0.81982 0.50713
 H1128 H 0.00421 0.89405 0.47035
 C1129 C 0.22138 0.37411 0.14800
 C1130 C 0.18462 0.35334 0.13833
 C1131 C 0.18092 0.32391 0.17589
 C1132 C 0.21536 0.32886 0.20600
 O1133 O 0.23937 0.35948 0.18948
 H1134 H 0.16373 0.35722 0.10630
 H1135 H 0.15726 0.30002 0.17840
 C1136 C 0.72883 0.89591 0.67347
 C1137 C 0.68965 0.88108 0.66606
 C1138 C 0.68391 0.84969 0.70075
 C1139 C 0.71983 0.84792 0.72677
 O1140 O 0.74649 0.87606 0.71054
 H1141 H 0.66842 0.89007 0.63688
 H1142 H 0.65763 0.82918 0.70408
 C1143 C 0.27076 0.61939 0.65361
 C1144 C 0.30557 0.64369 0.64874
 C1145 C 0.30526 0.67315 0.68858
 C1146 C 0.27058 0.66422 0.71486
 O1147 O 0.25001 0.63189 0.69373
 H1148 H 0.32749 0.64178 0.61846
 H1149 H 0.32688 0.69884 0.69634
 C1150 C 0.77892 0.11523 0.17367
 C1151 C 0.81458 0.13776 0.16644
 C1152 C 0.81905 0.16535 0.20893
 C1153 C 0.78642 0.15722 0.23963
 O1154 O 0.76319 0.12628 0.21863
 H1155 H 0.83294 0.13772 0.13198
 H1156 H 0.84067 0.19142 0.21321
 C1157 C 0.72045 0.11849 0.86211
 C1158 C 0.68454 0.13404 0.87206
 C1159 C 0.68138 0.16501 0.83789
 C1160 C 0.71487 0.16573 0.80774
 O1161 O 0.73871 0.13738 0.82286
 H1162 H 0.66405 0.12575 0.90286
 H1163 H 0.65851 0.18593 0.83915
 C1164 C 0.23490 0.60295 0.34132
 C1165 C 0.19612 0.59687 0.32562
 C1166 C 0.19043 0.62615 0.29002
 C1167 C 0.22600 0.64966 0.28883
 O1168 O 0.25332 0.63508 0.31977
 H1169 H 0.17472 0.57410 0.33943
 H1170 H 0.16344 0.62895 0.26775
 C1171 C 0.78298 0.89005 0.36945
 C1172 C 0.81993 0.87737 0.38136
 C1173 C 0.82635 0.84744 0.34516
 C1174 C 0.79253 0.84258 0.31378
 O1175 O 0.76597 0.86857 0.32853
 H1176 H 0.83891 0.88607 0.41523
 H1177 H 0.85100 0.82845 0.34622
 C1178 C 0.26607 0.39895 0.83891
 C1179 C 0.30320 0.40902 0.82096
 C1180 C 0.30994 0.37891 0.78432
 C1181 C 0.27616 0.35253 0.78284
 O1182 O 0.24950 0.36493 0.81612
 H1183 H 0.32238 0.43561 0.83256
 H1184 H 0.33599 0.37757 0.76079
 C1185 C 0.79036 0.38557 0.75410
 C1186 C 0.76443 0.38711 0.79542
 C1187 C 0.75080 0.34693 0.80247
 C1188 C 0.76957 0.32382 0.76525
 O1189 O 0.79327 0.34736 0.73635
 H1190 H 0.75563 0.41405 0.81690
 H1191 H 0.72843 0.33607 0.82965
 C1192 C 0.29546 0.87543 0.29566
 C1193 C 0.26278 0.87807 0.32720
 C1194 C 0.24637 0.83837 0.33020
 C1195 C 0.27023 0.81423 0.30079
 O1196 O 0.30041 0.83671 0.28171
 H1197 H 0.24979 0.90553 0.34150
 H1198 H 0.21769 0.82913 0.34572
 C1199 C 0.20785 0.87200 0.78685
 C1200 C 0.24438 0.87584 0.76364
 C1201 C 0.25648 0.83672 0.75990
 C1202 C 0.22655 0.81175 0.78102
 O1203 O 0.19729 0.83324 0.79717
 H1204 H 0.26070 0.90360 0.75160
 H1205 H 0.28433 0.82768 0.74490
 C1206 C 0.71508 0.37011 0.26237
 C1207 C 0.75386 0.37489 0.24631
 C1208 C 0.76870 0.33709 0.25152
 C1209 C 0.73803 0.31199 0.27035
 O1210 O 0.70576 0.33203 0.27668
 H1211 H 0.76985 0.40256 0.23335
 H1212 H 0.79846 0.32904 0.24352
 C1213 C 0.71156 0.62260 0.30147
 C1214 C 0.74465 0.61890 0.33343
 C1215 C 0.76343 0.65766 0.33757
 C1216 C 0.74045 0.68214 0.30796
 O1217 O 0.70879 0.66095 0.28757
 H1218 H 0.75607 0.59098 0.34750
 H1219 H 0.79274 0.66577 0.35420
 C1220 C 0.20386 0.13255 0.79988
 C1221 C 0.23468 0.13684 0.83690
 C1222 C 0.25235 0.17556 0.83078
 C1223 C 0.23099 0.19218 0.79079
 O1224 O 0.20147 0.16637 0.77293
 H1225 H 0.24531 0.11366 0.86220
 H1226 H 0.27949 0.18860 0.84984
 C1227 C 0.31405 0.13354 0.22628
 C1228 C 0.29092 0.13434 0.18094
 C1229 C 0.27743 0.17291 0.18119
 C1230 C 0.29303 0.19288 0.22691
 O1231 O 0.31554 0.16891 0.25373
 H1232 H 0.28362 0.10946 0.15227
 H1233 H 0.25608 0.18391 0.15356
 C1234 C 0.81186 0.64829 0.72347
 C1235 C 0.79055 0.65386 0.67758
 C1236 C 0.77751 0.69254 0.68325
 C1237 C 0.79167 0.70774 0.73230
 O1238 O 0.81259 0.68084 0.75627
 H1239 H 0.78448 0.63216 0.64464
 H1240 H 0.75782 0.70684 0.65632
 C1241 C 0.91773 0.80333 0.22304
 C1242 C 0.92305 0.78637 0.27206
 C1243 C 0.88624 0.77565 0.28902
 C1244 C 0.86084 0.78759 0.25010
 O1245 O 0.87980 0.80473 0.21019
 H1246 H 0.95047 0.78039 0.29210
 H1247 H 0.87881 0.75935 0.32454
 C1248 C 0.40187 0.31862 0.68786
 C1249 C 0.40639 0.32183 0.74226
 C1250 C 0.37056 0.30920 0.76163
 C1251 C 0.34644 0.29972 0.71773
 O1252 O 0.36556 0.30469 0.67295
 H1253 H 0.43361 0.32878 0.76498
 H1254 H 0.36305 0.30654 0.80285
 C1255 C 0.37400 0.69037 0.86485
 C1256 C 0.37016 0.65578 0.83235
 C1257 C 0.33334 0.65575 0.81050
 C1258 C 0.31679 0.68986 0.83231
 O1259 O 0.34210 0.71152 0.86471
 H1260 H 0.39221 0.63420 0.82395
 H1261 H 0.32051 0.63322 0.78173
 C1262 C 0.86680 0.19033 0.41043
 C1263 C 0.84050 0.17827 0.44910
 C1264 C 0.80412 0.18249 0.42795
 C1265 C 0.80996 0.19579 0.37724
 O1266 O 0.84813 0.20122 0.36669
 H1267 H 0.84634 0.16904 0.48902
 H1268 H 0.77652 0.17765 0.44827
 C1269 C 0.10136 0.26177 0.30732
 C1270 C 0.10003 0.23724 0.26166
 C1271 C 0.13821 0.23490 0.24747
 C1272 C 0.16059 0.25832 0.28502
 O1273 O 0.13825 0.27487 0.32154
 H1274 H 0.07420 0.22250 0.24113
 H1275 H 0.14854 0.21788 0.21366
 C1276 C 0.60410 0.78072 0.82141
 C1277 C 0.60171 0.75928 0.77323
 C1278 C 0.63961 0.75497 0.75926
 C1279 C 0.66280 0.77439 0.79932
 O1280 O 0.64134 0.79019 0.83721
 H1281 H 0.57555 0.74838 0.75027
 H1282 H 0.64919 0.73990 0.72350
 C1283 C 0.59673 0.19125 0.68852
 C1284 C 0.59394 0.20372 0.74080
 C1285 C 0.63091 0.21692 0.75648
 C1286 C 0.65486 0.20804 0.71493
 O1287 O 0.63392 0.19355 0.67245
 H1288 H 0.56728 0.20867 0.76223
 H1289 H 0.63880 0.23438 0.79268
 C1290 C 0.09791 0.68287 0.19880
 C1291 C 0.09387 0.68478 0.25307
 C1292 C 0.13044 0.69709 0.27331
 C1293 C 0.15422 0.70085 0.22991
 O1294 O 0.13451 0.69272 0.18485
 H1295 H 0.06662 0.68245 0.27468
 H1296 H 0.13855 0.70386 0.31447
   
