data_POSCAR
  _audit_creation_date              2014-09-24
  _audit_creation_method            'ToBaCCo'
  _symmetry_space_group_name_H-M    'P1'
  _symmetry_Int_Tables_number       1
  _symmetry_cell_setting            triclinic
  loop_
  _symmetry_equiv_pos_as_xyz
 x,y,z
_cell_length_a 41.3263
_cell_length_b 27.5771
_cell_length_c 29.0165
_cell_angle_alpha 89.907000
_cell_angle_beta 89.963700
_cell_angle_gamma 89.982100
loop_
  _atom_site_label
  _atom_site_type_symbol
  _atom_site_fract_x
  _atom_site_fract_y
  _atom_site_fract_z
C1 C 0.00072 0.00024 0.14945
 C2 C 0.00211 -0.00152 -0.15251
 C3 C -0.07399 -0.07852 0.07095
 C4 C -0.07364 0.07661 0.07186
 C5 C -0.07314 -0.08359 -0.06973
 C6 C 0.07620 -0.07679 -0.07435
 C7 C 0.07600 0.07469 -0.07508
 C8 C 0.07531 -0.07628 0.07311
 C9 C -0.07346 0.08063 -0.07081
 C10 C 0.07536 0.07290 0.07461
 O11 O -0.04337 -0.09287 -0.08028
 O12 O -0.08231 -0.04938 -0.04204
 O13 O -0.04366 0.08962 -0.08152
 O14 O -0.08266 0.04724 -0.04225
 O15 O 0.04566 0.08394 0.08401
 O16 O 0.08422 0.04289 0.04286
 O17 O 0.00143 0.03981 -0.13178
 O18 O 0.00144 -0.04261 -0.13129
 O19 O 0.00081 0.04139 0.12840
 O20 O 0.00081 -0.04130 0.12908
 O21 O 0.04643 -0.08665 -0.08497
 O22 O 0.08454 -0.04567 -0.04332
 O23 O -0.04424 -0.08921 0.08062
 O24 O -0.08290 -0.04656 0.04082
 O25 O 0.04561 -0.08606 0.08372
 O26 O 0.08415 -0.04566 0.04185
 O27 O 0.04621 0.08461 -0.08544
 O28 O 0.08450 0.04358 -0.04398
 O29 O 0.00241 0.13563 0.06503
 O30 O 0.00215 0.13436 -0.07314
 O31 O 0.00274 -0.13671 -0.07161
 O32 O 0.00198 -0.13649 0.06820
 O33 O -0.02710 -0.06443 -0.00111
 O34 O -0.02719 0.06288 -0.00180
 O35 O 0.02841 -0.06423 -0.00094
 O36 O -0.02861 -0.00057 0.05947
 O37 O -0.08266 0.04476 0.04168
 O38 O -0.04389 0.08783 0.08069
 O39 O 0.03043 -0.00062 0.06048
 O40 O 0.03080 -0.00111 -0.06310
 O41 O 0.02852 0.06260 -0.00161
 O42 O -0.02881 -0.00115 -0.06303
 Zr43 Zr 0.00082 0.05952 0.05799
 Zr44 Zr 0.00107 -0.06109 -0.06093
 Zr45 Zr -0.05496 -0.00079 -0.00156
 Zr46 Zr 0.00073 -0.06064 0.05878
 Zr47 Zr 0.00097 0.05884 -0.06153
 Zr48 Zr 0.05629 -0.00085 -0.00110
 H49 H 0.04139 -0.09439 -0.00072
 H50 H -0.04283 -0.00070 0.08687
 H51 H 0.04166 0.09260 -0.00136
 H52 H -0.04335 -0.00132 -0.09015
 H53 H -0.00715 0.14873 0.03634
 H54 H 0.00467 0.14919 -0.04235
 H55 H -0.00551 -0.15042 0.03868
 H56 H 0.00386 -0.15127 -0.04049
 C57 C 0.25306 0.24626 0.09908
 C58 C 0.24946 0.25061 0.40103
 C59 C 0.17611 0.32733 0.17857
 C60 C 0.17621 0.16853 0.17999
 C61 C 0.17557 0.32969 0.31891
 C62 C 0.32475 0.32413 0.32517
 C63 C 0.32481 0.17583 0.32675
 C64 C 0.32501 0.32540 0.17716
 C65 C 0.17569 0.17200 0.32276
 C66 C 0.32574 0.17268 0.17799
 O67 O 0.20525 0.33980 0.32928
 O68 O 0.16680 0.29631 0.29021
 O69 O 0.20535 0.16129 0.33271
 O70 O 0.16688 0.20358 0.29228
 O71 O 0.29616 0.16135 0.16803
 O72 O 0.33414 0.20451 0.20827
 O73 O 0.24982 0.20905 0.38083
 O74 O 0.24952 0.29172 0.37983
 O75 O 0.25219 0.20536 0.12063
 O76 O 0.25204 0.28779 0.11946
 O77 O 0.29501 0.33483 0.33473
 O78 O 0.33367 0.29370 0.29384
 O79 O 0.20583 0.33707 0.16814
 O80 O 0.16709 0.29480 0.20792
 O81 O 0.29539 0.33479 0.16613
 O82 O 0.33382 0.29425 0.20799
 O83 O 0.29512 0.16535 0.33680
 O84 O 0.33366 0.20554 0.29470
 O85 O 0.25154 0.11191 0.18180
 O86 O 0.25193 0.11379 0.32036
 O87 O 0.25193 0.38570 0.31768
 O88 O 0.25109 0.38324 0.17702
 O89 O 0.22244 0.31258 0.24909
 O90 O 0.22247 0.18492 0.25081
 O91 O 0.27782 0.31240 0.24962
 O92 O 0.22118 0.24776 0.18843
 O93 O 0.16728 0.20176 0.20867
 O94 O 0.20598 0.15806 0.17014
 O95 O 0.28048 0.24798 0.18856
 O96 O 0.27981 0.24979 0.31212
 O97 O 0.27814 0.18555 0.25131
 O98 O 0.22071 0.24974 0.31111
 Zr99 Zr 0.25083 0.18776 0.19116
 Zr100 Zr 0.25013 0.30977 0.30926
 Zr101 Zr 0.19491 0.24880 0.24973
 Zr102 Zr 0.25058 0.30786 0.18948
 Zr103 Zr 0.25024 0.18961 0.31074
 Zr104 Zr 0.30582 0.24916 0.25064
 H105 H 0.29073 0.34262 0.24975
 H106 H 0.20700 0.24747 0.16095
 H107 H 0.29131 0.15557 0.25210
 H108 H 0.20613 0.25042 0.33814
 H109 H 0.25463 0.09796 0.21290
 H110 H 0.24342 0.09967 0.29149
 H111 H 0.25088 0.39852 0.20783
 H112 H 0.24567 0.39943 0.28747
 C113 C 0.49970 -0.00063 0.15108
 C114 C 0.50146 -0.00398 -0.14955
 C115 C 0.57664 0.07489 0.07362
 C116 C 0.57656 -0.08152 0.07279
 C117 C 0.57712 0.07216 -0.07495
 C118 C 0.42757 0.07127 -0.07544
 C119 C 0.42715 -0.07992 -0.07127
 C120 C 0.42753 0.07354 0.07471
 C121 C 0.57702 -0.08301 -0.06905
 C122 C 0.42677 -0.07662 0.07679
 O123 O 0.54728 0.08479 -0.08203
 O124 O 0.58591 0.04003 -0.04473
 O125 O 0.54714 -0.09295 -0.07928
 O126 O 0.58558 -0.05036 -0.03950
 O127 O 0.45662 -0.08675 0.08679
 O128 O 0.41826 -0.04659 0.04464
 O129 O 0.50139 -0.04515 -0.12854
 O130 O 0.50181 0.03754 -0.12936
 O131 O 0.50069 -0.04229 0.13115
 O132 O 0.50059 0.04036 0.12987
 O133 O 0.45732 0.08183 -0.08519
 O134 O 0.41868 0.04118 -0.04364
 O135 O 0.54689 0.08610 0.08254
 O136 O 0.58564 0.04335 0.04314
 O137 O 0.45727 0.08438 0.08400
 O138 O 0.41856 0.04226 0.04414
 O139 O 0.45685 -0.09010 -0.08169
 O140 O 0.41840 -0.04814 -0.04108
 O141 O 0.50026 -0.13783 0.07133
 O142 O 0.50139 -0.13940 -0.06792
 O143 O 0.50073 0.13267 -0.06900
 O144 O 0.50205 0.13420 0.06801
 O145 O 0.53057 0.06148 -0.00001
 O146 O 0.53002 -0.06655 0.00162
 O147 O 0.47436 0.06084 -0.00002
 O148 O 0.53139 -0.00216 0.06187
 O149 O 0.58537 -0.04938 0.04270
 O150 O 0.54668 -0.09081 0.08329
 O151 O 0.47234 -0.00175 0.06227
 O152 O 0.47240 -0.00333 -0.06077
 O153 O 0.47426 -0.06611 0.00164
 O154 O 0.53140 -0.00364 -0.06019
 Zr155 Zr 0.50179 -0.06208 0.06125
 Zr156 Zr 0.50221 0.05682 -0.05945
 Zr157 Zr 0.55781 -0.00277 0.00075
 Zr158 Zr 0.50215 0.05821 0.05956
 Zr159 Zr 0.50198 -0.06362 -0.05817
 Zr160 Zr 0.44640 -0.00257 0.00084
 H161 H 0.46125 0.09088 -0.00053
 H162 H 0.54547 -0.00228 0.08943
 H163 H 0.46124 -0.09622 0.00236
 H164 H 0.54557 -0.00459 -0.08764
 H165 H 0.50829 -0.15214 0.04225
 H166 H 0.49991 -0.15353 -0.03665
 H167 H 0.49764 0.14780 0.03710
 H168 H 0.51032 0.14670 -0.04077
 C169 C 0.75279 0.24466 0.10111
 C170 C 0.75071 0.25167 0.40180
 C171 C 0.67641 0.32591 0.17944
 C172 C 0.67649 0.16732 0.18321
 C173 C 0.67649 0.32799 0.32154
 C174 C 0.82553 0.32456 0.32506
 C175 C 0.82601 0.17583 0.32898
 C176 C 0.82561 0.32111 0.17461
 C177 C 0.67671 0.17222 0.32540
 C178 C 0.82623 0.17090 0.17999
 O179 O 0.70620 0.33910 0.33081
 O180 O 0.66763 0.29491 0.29267
 O181 O 0.70641 0.16160 0.33534
 O182 O 0.66784 0.20327 0.29449
 O183 O 0.79655 0.16001 0.17012
 O184 O 0.83487 0.20290 0.20994
 O185 O 0.75098 0.20988 0.38211
 O186 O 0.75091 0.29257 0.38031
 O187 O 0.75214 0.20376 0.12254
 O188 O 0.75194 0.28637 0.12088
 O189 O 0.79582 0.33533 0.33447
 O190 O 0.83457 0.29348 0.29438
 O191 O 0.70614 0.33581 0.16889
 O192 O 0.66761 0.29369 0.20925
 O193 O 0.79590 0.33181 0.16506
 O194 O 0.83456 0.29133 0.20662
 O195 O 0.79619 0.16598 0.33913
 O196 O 0.83466 0.20483 0.29606
 O197 O 0.75213 0.11076 0.18377
 O198 O 0.75311 0.11376 0.32248
 O199 O 0.75270 0.38587 0.31693
 O200 O 0.75197 0.38226 0.17816
 O201 O 0.72296 0.31220 0.25003
 O202 O 0.72315 0.18426 0.25296
 O203 O 0.77882 0.31177 0.25004
 O204 O 0.72168 0.24664 0.19010
 O205 O 0.66764 0.20107 0.21130
 O206 O 0.70624 0.15647 0.17357
 O207 O 0.78083 0.24676 0.19003
 O208 O 0.78077 0.24977 0.31311
 O209 O 0.77895 0.18479 0.25302
 O210 O 0.72182 0.24964 0.31239
 Zr211 Zr 0.75128 0.18659 0.19318
 Zr212 Zr 0.75107 0.30978 0.30970
 Zr213 Zr 0.69564 0.24821 0.25145
 Zr214 Zr 0.75106 0.30686 0.19050
 Zr215 Zr 0.75126 0.18951 0.31247
 Zr216 Zr 0.80672 0.24834 0.25164
 H217 H 0.79193 0.34180 0.24942
 H218 H 0.70732 0.24600 0.16283
 H219 H 0.79205 0.15476 0.25413
 H220 H 0.70742 0.25037 0.33960
 H221 H 0.75444 0.09682 0.21502
 H222 H 0.74414 0.09945 0.29397
 H223 H 0.75369 0.39746 0.20890
 H224 H 0.74428 0.39908 0.28759
 C225 C 0.00013 0.50149 0.15102
 C226 C 0.00233 0.49700 -0.15087
 C227 C -0.07393 0.41991 0.07087
 C228 C -0.07380 0.57856 0.07071
 C229 C -0.07360 0.41997 -0.07059
 C230 C 0.07558 0.42276 -0.07193
 C231 C 0.07538 0.57162 -0.07660
 C232 C 0.07522 0.42563 0.07622
 C233 C -0.07366 0.57823 -0.07076
 C234 C 0.07512 0.57456 0.07513
 O235 O -0.04386 0.40967 -0.08050
 O236 O -0.08265 0.45232 -0.04108
 O237 O -0.04395 0.58816 -0.08124
 O238 O -0.08258 0.54547 -0.04152
 O239 O 0.04538 0.58524 0.08451
 O240 O 0.08413 0.54398 0.04394
 O241 O 0.00132 0.53852 -0.13045
 O242 O 0.00196 0.45606 -0.12930
 O243 O 0.00046 0.54248 0.12970
 O244 O 0.00003 0.45983 0.13096
 O245 O 0.04597 0.41246 -0.08253
 O246 O 0.08421 0.45405 -0.04129
 O247 O -0.04424 0.40966 0.08120
 O248 O -0.08272 0.45297 0.04185
 O249 O 0.04558 0.41523 0.08656
 O250 O 0.08395 0.45548 0.04424
 O251 O 0.04573 0.58267 -0.08616
 O252 O 0.08419 0.54228 -0.04419
 O253 O 0.00228 0.63606 0.06696
 O254 O 0.00218 0.63399 -0.07188
 O255 O 0.00217 0.36241 -0.06669
 O256 O 0.00217 0.36437 0.07273
 O257 O -0.02724 0.43531 0.00103
 O258 O -0.02729 0.56298 -0.00068
 O259 O 0.02832 0.43593 0.00131
 O260 O -0.02888 0.49990 0.06141
 O261 O -0.08276 0.54574 0.04160
 O262 O -0.04410 0.58924 0.08026
 O263 O 0.03025 0.50001 0.06216
 O264 O 0.03051 0.49843 -0.06118
 O265 O 0.02843 0.56288 -0.00055
 O266 O -0.02866 0.49847 -0.06118
 Zr267 Zr 0.00064 0.56004 0.05916
 Zr268 Zr 0.00089 0.43842 -0.05869
 Zr269 Zr -0.05482 0.49914 0.00012
 Zr270 Zr 0.00061 0.43985 0.06095
 Zr271 Zr 0.00083 0.55847 -0.06035
 Zr272 Zr 0.05616 0.49943 0.00059
 H273 H 0.04137 0.40583 0.00187
 H274 H -0.04344 0.49995 0.08849
 H275 H 0.04165 0.59280 -0.00092
 H276 H -0.04294 0.49840 -0.08854
 H277 H -0.00600 0.64953 0.03763
 H278 H 0.00361 0.64883 -0.04096
 H279 H 0.00372 0.34942 0.04185
 H280 H -0.00572 0.34898 -0.03712
 C281 C 0.25342 0.74730 0.10035
 C282 C 0.25036 0.75501 0.40113
 C283 C 0.17668 0.82756 0.17677
 C284 C 0.17604 0.67181 0.18111
 C285 C 0.17627 0.83309 0.31870
 C286 C 0.32541 0.82634 0.32464
 C287 C 0.32522 0.67800 0.32733
 C288 C 0.32629 0.82602 0.17608
 C289 C 0.17621 0.67475 0.32409
 C290 C 0.32540 0.67297 0.17885
 O291 O 0.20599 0.84347 0.32874
 O292 O 0.16749 0.79939 0.29045
 O293 O 0.20590 0.66398 0.33371
 O294 O 0.16738 0.70658 0.29377
 O295 O 0.29573 0.66251 0.16880
 O296 O 0.33417 0.70502 0.20877
 O297 O 0.25054 0.71325 0.38138
 O298 O 0.25041 0.79588 0.37962
 O299 O 0.25208 0.70649 0.12182
 O300 O 0.25304 0.78912 0.11997
 O301 O 0.29576 0.83763 0.33398
 O302 O 0.33428 0.79559 0.29359
 O303 O 0.20639 0.83775 0.16626
 O304 O 0.16790 0.79658 0.20775
 O305 O 0.29662 0.83613 0.16522
 O306 O 0.33469 0.79497 0.20728
 O307 O 0.29550 0.66793 0.33752
 O308 O 0.33415 0.70748 0.29512
 O309 O 0.25181 0.61352 0.18454
 O310 O 0.25187 0.61719 0.32375
 O311 O 0.25264 0.88880 0.31719
 O312 O 0.25228 0.88559 0.17774
 O313 O 0.22306 0.81534 0.24895
 O314 O 0.22267 0.68734 0.25210
 O315 O 0.27870 0.81463 0.24935
 O316 O 0.22177 0.74996 0.18940
 O317 O 0.16742 0.70484 0.21009
 O318 O 0.20571 0.66073 0.17121
 O319 O 0.28079 0.74955 0.18898
 O320 O 0.28037 0.75263 0.31227
 O321 O 0.27838 0.68765 0.25223
 O322 O 0.22131 0.75295 0.31185
 Zr323 Zr 0.25086 0.68957 0.19236
 Zr324 Zr 0.25083 0.81286 0.30895
 Zr325 Zr 0.19549 0.75151 0.25061
 Zr326 Zr 0.25138 0.81006 0.18944
 Zr327 Zr 0.25067 0.69263 0.31173
 Zr328 Zr 0.30636 0.75097 0.25073
 H329 H 0.29182 0.84465 0.24903
 H330 H 0.20765 0.74923 0.16190
 H331 H 0.29133 0.65747 0.25314
 H332 H 0.20672 0.75390 0.33887
 H333 H 0.24370 0.60020 0.21404
 H334 H 0.25139 0.60208 0.29289
 H335 H 0.24429 0.90045 0.20659
 H336 H 0.25151 0.90232 0.28565
 C337 C 0.49766 0.50082 0.15165
 C338 C 0.50049 0.49729 -0.14894
 C339 C 0.57514 0.57599 0.07464
 C340 C 0.57493 0.42181 0.07501
 C341 C 0.57536 0.57645 -0.06992
 C342 C 0.42623 0.57556 -0.07292
 C343 C 0.42610 0.42456 -0.07381
 C344 C 0.42605 0.57406 0.07604
 C345 C 0.57515 0.41909 -0.06801
 C346 C 0.42562 0.42557 0.07630
 O347 O 0.54571 0.58743 -0.07964
 O348 O 0.58420 0.54404 -0.04033
 O349 O 0.54548 0.40897 -0.07852
 O350 O 0.58394 0.45181 -0.03878
 O351 O 0.45520 0.41462 0.08648
 O352 O 0.41701 0.45561 0.04442
 O353 O 0.50076 0.45616 -0.12793
 O354 O 0.50045 0.53883 -0.12871
 O355 O 0.49847 0.45925 0.13153
 O356 O 0.49889 0.54194 0.13070
 O357 O 0.45599 0.58509 -0.08339
 O358 O 0.41726 0.54462 -0.04197
 O359 O 0.54541 0.58724 0.08382
 O360 O 0.58400 0.54442 0.04424
 O361 O 0.45571 0.58502 0.08556
 O362 O 0.41719 0.54369 0.04459
 O363 O 0.45579 0.41347 -0.08312
 O364 O 0.41720 0.45524 -0.04265
 O365 O 0.49981 0.36361 0.07243
 O366 O 0.49881 0.36235 -0.06552
 O367 O 0.50024 0.63417 -0.07042
 O368 O 0.49951 0.63594 0.06744
 O369 O 0.52886 0.56300 0.00098
 O370 O 0.52857 0.43490 0.00228
 O371 O 0.47301 0.56276 0.00075
 O372 O 0.52965 0.49938 0.06286
 O373 O 0.58372 0.45322 0.04440
 O374 O 0.54518 0.41110 0.08486
 O375 O 0.47087 0.49974 0.06249
 O376 O 0.47105 0.49867 -0.06048
 O377 O 0.47269 0.43570 0.00186
 O378 O 0.53012 0.49835 -0.05942
 Zr379 Zr 0.50029 0.43931 0.06169
 Zr380 Zr 0.50077 0.55864 -0.05877
 Zr381 Zr 0.55605 0.49881 0.00194
 Zr382 Zr 0.50056 0.55980 0.06044
 Zr383 Zr 0.50060 0.43835 -0.05757
 Zr384 Zr 0.44507 0.49945 0.00095
 H385 H 0.46004 0.59293 0.00074
 H386 H 0.54358 0.49937 0.09055
 H387 H 0.45945 0.40579 0.00188
 H388 H 0.54459 0.49798 -0.08659
 H389 H 0.49497 0.34917 0.04204
 H390 H 0.50711 0.34879 -0.03624
 H391 H 0.50955 0.64886 0.03900
 H392 H 0.49784 0.64906 -0.03963
 C393 C 0.75269 0.74526 0.10067
 C394 C 0.75010 0.75373 0.40137
 C395 C 0.67573 0.82492 0.17617
 C396 C 0.67599 0.66870 0.18208
 C397 C 0.67572 0.83059 0.31947
 C398 C 0.82487 0.82479 0.32562
 C399 C 0.82513 0.67799 0.32856
 C400 C 0.82511 0.82444 0.17592
 C401 C 0.67590 0.67402 0.32534
 C402 C 0.82525 0.67388 0.17780
 O403 O 0.70540 0.84099 0.32966
 O404 O 0.66695 0.79739 0.29067
 O405 O 0.70561 0.66338 0.33515
 O406 O 0.66704 0.70508 0.29436
 O407 O 0.79568 0.66232 0.16833
 O408 O 0.83385 0.70509 0.20856
 O409 O 0.75035 0.71188 0.38173
 O410 O 0.75000 0.79458 0.37978
 O411 O 0.75142 0.70450 0.12222
 O412 O 0.75225 0.78712 0.12022
 O413 O 0.79516 0.83605 0.33480
 O414 O 0.83376 0.79449 0.29418
 O415 O 0.70544 0.83568 0.16619
 O416 O 0.66705 0.79393 0.20726
 O417 O 0.79544 0.83437 0.16521
 O418 O 0.83379 0.79396 0.20742
 O419 O 0.79543 0.66753 0.33866
 O420 O 0.83390 0.70698 0.29581
 O421 O 0.75167 0.61182 0.18481
 O422 O 0.75224 0.61541 0.32247
 O423 O 0.75229 0.88757 0.31591
 O424 O 0.75051 0.88370 0.17716
 O425 O 0.72226 0.81367 0.24918
 O426 O 0.72240 0.68564 0.25254
 O427 O 0.77801 0.81337 0.24947
 O428 O 0.72119 0.74789 0.18959
 O429 O 0.66718 0.70210 0.21060
 O430 O 0.70572 0.65795 0.17228
 O431 O 0.78015 0.74817 0.18949
 O432 O 0.77988 0.75141 0.31251
 O433 O 0.77830 0.68623 0.25266
 O434 O 0.72100 0.75133 0.31183
 Zr435 Zr 0.75063 0.68783 0.19284
 Zr436 Zr 0.75029 0.81147 0.30908
 Zr437 Zr 0.69495 0.74961 0.25075
 Zr438 Zr 0.75044 0.80832 0.18965
 Zr439 Zr 0.75046 0.69112 0.31211
 Zr440 Zr 0.80586 0.74992 0.25114
 H441 H 0.79108 0.84345 0.24924
 H442 H 0.70704 0.74684 0.16213
 H443 H 0.79157 0.65636 0.25359
 H444 H 0.70653 0.75232 0.33898
 H445 H 0.75491 0.59851 0.21613
 H446 H 0.74280 0.60097 0.29434
 H447 H 0.75216 0.89899 0.20785
 H448 H 0.74362 0.90072 0.28668
 C449 C -0.00011 0.00105 0.34961
 C450 C 0.00135 -0.00088 0.65125
 C451 C -0.07461 0.08038 0.43042
 C452 C -0.07431 -0.07930 0.43025
 C453 C -0.07454 0.08020 0.57037
 C454 C 0.07460 0.07321 0.57709
 C455 C 0.07444 -0.07362 0.57646
 C456 C 0.07471 0.07663 0.42745
 C457 C -0.07460 -0.07736 0.57280
 C458 C 0.07495 -0.07219 0.42411
 O459 O -0.04486 0.08980 0.58127
 O460 O -0.08336 0.04731 0.54131
 O461 O -0.04490 -0.08830 0.58235
 O462 O -0.08345 -0.04534 0.54274
 O463 O 0.04531 -0.08330 0.41435
 O464 O 0.08358 -0.04281 0.45647
 O465 O 0.00074 -0.04203 0.63029
 O466 O 0.00047 0.04066 0.63085
 O467 O -0.00030 -0.04039 0.37013
 O468 O 0.00015 0.04225 0.37048
 O469 O 0.04492 0.08423 0.58663
 O470 O 0.08342 0.04370 0.54488
 O471 O -0.04488 0.09085 0.42035
 O472 O -0.08339 0.04695 0.45909
 O473 O 0.04508 0.08675 0.41679
 O474 O 0.08340 0.04564 0.45843
 O475 O 0.04476 -0.08471 0.58583
 O476 O 0.08333 -0.04379 0.54445
 O477 O 0.00189 -0.13509 0.42982
 O478 O 0.00144 -0.13626 0.56749
 O479 O 0.00194 0.13587 0.57034
 O480 O 0.00119 0.13650 0.43022
 O481 O -0.02792 0.06420 0.50071
 O482 O -0.02797 -0.06354 0.50012
 O483 O 0.02762 0.06387 0.50085
 O484 O -0.02943 0.00066 0.43913
 O485 O -0.08317 -0.04628 0.45919
 O486 O -0.04460 -0.08951 0.41994
 O487 O 0.02977 0.00080 0.43880
 O488 O 0.02948 -0.00007 0.56198
 O489 O 0.02782 -0.06323 0.50021
 O490 O -0.02946 0.00011 0.56177
 Zr491 Zr 0.00020 -0.05944 0.44036
 Zr492 Zr -0.00000 0.06013 0.56059
 Zr493 Zr -0.05545 0.00038 0.50046
 Zr494 Zr 0.00003 0.06083 0.44085
 Zr495 Zr -0.00005 -0.06018 0.55990
 Zr496 Zr 0.05545 0.00036 0.50063
 H497 H 0.04071 0.09392 0.50137
 H498 H -0.04399 0.00078 0.41207
 H499 H 0.04115 -0.09306 0.50014
 H500 H -0.04378 0.00044 0.58910
 H501 H 0.00488 -0.14952 0.46074
 H502 H -0.00813 -0.14946 0.53889
 H503 H 0.00107 0.15095 0.46138
 H504 H -0.00492 0.15024 0.54066
 C505 C 0.25351 0.24577 0.90281
 C506 C 0.24890 0.25015 0.60107
 C507 C 0.17614 0.16942 0.82426
 C508 C 0.17643 0.32517 0.82528
 C509 C 0.17563 0.16846 0.68226
 C510 C 0.32478 0.17513 0.67524
 C511 C 0.32434 0.32348 0.67625
 C512 C 0.32583 0.17081 0.82324
 C513 C 0.17527 0.32811 0.68301
 C514 C 0.32543 0.32426 0.82466
 O515 O 0.20528 0.15854 0.67145
 O516 O 0.16693 0.20130 0.71152
 O517 O 0.20488 0.33861 0.67254
 O518 O 0.16670 0.29479 0.71197
 O519 O 0.29583 0.33414 0.83561
 O520 O 0.33400 0.29299 0.79387
 O521 O 0.24910 0.29119 0.62218
 O522 O 0.24919 0.20855 0.62134
 O523 O 0.25265 0.28732 0.88246
 O524 O 0.25264 0.20468 0.88178
 O525 O 0.29510 0.16445 0.66531
 O526 O 0.33354 0.20489 0.70715
 O527 O 0.20589 0.15858 0.83406
 O528 O 0.16740 0.20158 0.79435
 O529 O 0.29624 0.16025 0.83401
 O530 O 0.33420 0.20292 0.79303
 O531 O 0.29458 0.33403 0.66673
 O532 O 0.33337 0.29311 0.70767
 O533 O 0.25127 0.38277 0.82402
 O534 O 0.25156 0.38485 0.68411
 O535 O 0.25179 0.11316 0.68014
 O536 O 0.25183 0.11090 0.81951
 O537 O 0.22256 0.18402 0.75172
 O538 O 0.22238 0.31185 0.75302
 O539 O 0.27805 0.18473 0.75085
 O540 O 0.22155 0.24710 0.81365
 O541 O 0.16741 0.29340 0.79524
 O542 O 0.20616 0.33575 0.83485
 O543 O 0.28065 0.24718 0.81344
 O544 O 0.27962 0.24895 0.68982
 O545 O 0.27786 0.31162 0.75203
 O546 O 0.22046 0.24866 0.69096
 Zr547 Zr 0.25088 0.30728 0.81238
 Zr548 Zr 0.25012 0.18868 0.69143
 Zr549 Zr 0.19502 0.24788 0.75266
 Zr550 Zr 0.25093 0.18692 0.81127
 Zr551 Zr 0.24985 0.30889 0.69265
 Zr552 Zr 0.30578 0.24831 0.75121
 H553 H 0.29117 0.15471 0.75007
 H554 H 0.20758 0.24688 0.84135
 H555 H 0.29083 0.34179 0.75177
 H556 H 0.20566 0.24882 0.66418
 H557 H 0.25163 0.39778 0.79306
 H558 H 0.24445 0.39854 0.71394
 H559 H 0.24332 0.09757 0.79030
 H560 H 0.25320 0.09834 0.71113
 C561 C 0.49857 0.00105 0.35033
 C562 C 0.50013 -0.00269 0.65114
 C563 C 0.57515 -0.07660 0.42714
 C564 C 0.57535 0.07924 0.43113
 C565 C 0.57468 -0.07929 0.57245
 C566 C 0.42565 -0.07408 0.57583
 C567 C 0.42601 0.07591 0.57422
 C568 C 0.42605 -0.07577 0.42711
 C569 C 0.57514 0.07578 0.57429
 C570 C 0.42609 0.07708 0.42810
 O571 O 0.54494 -0.08995 0.58198
 O572 O 0.58373 -0.04727 0.54251
 O573 O 0.54544 0.08678 0.58380
 O574 O 0.58400 0.04443 0.54367
 O575 O 0.45576 0.08751 0.41785
 O576 O 0.41736 0.04510 0.45814
 O577 O 0.49987 0.03899 0.63098
 O578 O 0.50029 -0.04371 0.63009
 O579 O 0.49964 0.04222 0.37112
 O580 O 0.49909 -0.04040 0.37069
 O581 O 0.45527 -0.08538 0.58545
 O582 O 0.41699 -0.04375 0.54421
 O583 O 0.54547 -0.08761 0.41750
 O584 O 0.58389 -0.04553 0.45800
 O585 O 0.45568 -0.08603 0.41658
 O586 O 0.41733 -0.04449 0.45775
 O587 O 0.45568 0.08531 0.58521
 O588 O 0.41723 0.04501 0.54328
 O589 O 0.50020 0.13624 0.43117
 O590 O 0.49975 0.13482 0.57127
 O591 O 0.49824 -0.13727 0.56719
 O592 O 0.50055 -0.13551 0.42980
 O593 O 0.52863 -0.06456 0.50022
 O594 O 0.52872 0.06352 0.50134
 O595 O 0.47278 -0.06368 0.50020
 O596 O 0.53000 0.00033 0.43950
 O597 O 0.58404 0.04631 0.46028
 O598 O 0.54571 0.08976 0.42074
 O599 O 0.47095 0.00045 0.43896
 O600 O 0.47081 -0.00083 0.56239
 O601 O 0.47320 0.06330 0.50122
 O602 O 0.52973 -0.00123 0.56177
 Zr603 Zr 0.50071 0.06050 0.44143
 Zr604 Zr 0.50027 -0.06119 0.55978
 Zr605 Zr 0.55603 -0.00059 0.50085
 Zr606 Zr 0.50059 -0.05986 0.44055
 Zr607 Zr 0.50058 0.05911 0.56101
 Zr608 Zr 0.44521 0.00002 0.50069
 H609 H 0.45964 -0.09367 0.50044
 H610 H 0.54419 0.00099 0.41202
 H611 H 0.46038 0.09361 0.50147
 H612 H 0.54397 -0.00167 0.58912
 H613 H 0.49993 0.15052 0.46240
 H614 H 0.50713 0.14913 0.54180
 H615 H 0.49692 -0.15012 0.46051
 H616 H 0.50812 -0.15059 0.53883
 C617 C 0.75231 0.24534 0.90163
 C618 C 0.74856 0.25208 0.60083
 C619 C 0.67594 0.16722 0.82102
 C620 C 0.67575 0.32466 0.82599
 C621 C 0.67552 0.16992 0.68091
 C622 C 0.82442 0.17739 0.67343
 C623 C 0.82362 0.32469 0.67468
 C624 C 0.82591 0.17822 0.82583
 C625 C 0.67459 0.32837 0.68214
 C626 C 0.82484 0.32370 0.82485
 O627 O 0.70520 0.15997 0.67033
 O628 O 0.66666 0.20244 0.71038
 O629 O 0.70414 0.33921 0.67170
 O630 O 0.66611 0.29538 0.71147
 O631 O 0.79527 0.33327 0.83633
 O632 O 0.83335 0.29436 0.79247
 O633 O 0.74854 0.29309 0.62192
 O634 O 0.74895 0.21041 0.62090
 O635 O 0.75200 0.28709 0.88160
 O636 O 0.75092 0.20441 0.88048
 O637 O 0.79478 0.16631 0.66386
 O638 O 0.83315 0.20684 0.70563
 O639 O 0.70578 0.15674 0.83081
 O640 O 0.66707 0.20113 0.79296
 O641 O 0.79641 0.16631 0.83594
 O642 O 0.83412 0.20716 0.79293
 O643 O 0.79383 0.33559 0.66560
 O644 O 0.83267 0.29454 0.70621
 O645 O 0.75058 0.38352 0.82358
 O646 O 0.75069 0.38657 0.68489
 O647 O 0.75158 0.11454 0.67892
 O648 O 0.75400 0.11161 0.81713
 O649 O 0.72229 0.18494 0.75065
 O650 O 0.72159 0.31287 0.75263
 O651 O 0.77813 0.18577 0.74985
 O652 O 0.72103 0.24745 0.81290
 O653 O 0.66679 0.29331 0.79547
 O654 O 0.70545 0.33563 0.83529
 O655 O 0.77988 0.24826 0.81188
 O656 O 0.77903 0.25064 0.68886
 O657 O 0.77725 0.31315 0.75154
 O658 O 0.72013 0.24986 0.69055
 Zr659 Zr 0.75015 0.30805 0.81186
 Zr660 Zr 0.74993 0.19000 0.69064
 Zr661 Zr 0.69452 0.24861 0.75208
 Zr662 Zr 0.75069 0.18761 0.80997
 Zr663 Zr 0.74921 0.31047 0.69230
 Zr664 Zr 0.80521 0.24995 0.74992
 H665 H 0.79169 0.15617 0.74948
 H666 H 0.70689 0.24642 0.84041
 H667 H 0.79026 0.34329 0.75147
 H668 H 0.70538 0.24999 0.66371
 H669 H 0.75259 0.39857 0.79276
 H670 H 0.74206 0.39972 0.71412
 H671 H 0.74484 0.09809 0.78839
 H672 H 0.75507 0.09964 0.70953
 C673 C 0.00063 0.50207 0.35094
 C674 C 0.00150 0.49718 0.65265
 C675 C -0.07347 0.58134 0.43235
 C676 C -0.07381 0.42253 0.43000
 C677 C -0.07371 0.57979 0.57153
 C678 C 0.07543 0.57206 0.57831
 C679 C 0.07477 0.42464 0.57731
 C680 C 0.07574 0.57633 0.42872
 C681 C -0.07456 0.42046 0.57093
 C682 C 0.07527 0.42664 0.42487
 O683 O -0.04402 0.58926 0.58250
 O684 O -0.08255 0.54689 0.54257
 O685 O -0.04494 0.40981 0.58149
 O686 O -0.08303 0.45384 0.54208
 O687 O 0.04557 0.41604 0.41513
 O688 O 0.08410 0.45595 0.45725
 O689 O 0.00064 0.45618 0.63144
 O690 O 0.00103 0.53883 0.63242
 O691 O 0.00038 0.46047 0.37118
 O692 O 0.00106 0.54311 0.37206
 O693 O 0.04577 0.58293 0.58805
 O694 O 0.08426 0.54253 0.54613
 O695 O -0.04372 0.59152 0.42217
 O696 O -0.08234 0.54779 0.46079
 O697 O 0.04611 0.58672 0.41834
 O698 O 0.08437 0.54496 0.45952
 O699 O 0.04502 0.41373 0.58655
 O700 O 0.08383 0.45466 0.54554
 O701 O 0.00204 0.36509 0.42993
 O702 O 0.00177 0.36271 0.56854
 O703 O 0.00275 0.63440 0.57391
 O704 O 0.00295 0.63680 0.43325
 O705 O -0.02691 0.56403 0.50238
 O706 O -0.02749 0.43623 0.50080
 O707 O 0.02856 0.56308 0.50262
 O708 O -0.02856 0.50109 0.44031
 O709 O -0.08250 0.45528 0.45925
 O710 O -0.04418 0.41136 0.42024
 O711 O 0.03057 0.50062 0.43999
 O712 O 0.03012 0.49859 0.56319
 O713 O 0.02824 0.43610 0.50107
 O714 O -0.02898 0.49921 0.56313
 Zr715 Zr 0.00073 0.44063 0.44118
 Zr716 Zr 0.00079 0.55897 0.56232
 Zr717 Zr -0.05461 0.50044 0.50153
 Zr718 Zr 0.00109 0.56096 0.44255
 Zr719 Zr 0.00026 0.43877 0.56080
 Zr720 Zr 0.05625 0.49940 0.50177
 H721 H 0.04173 0.59305 0.50323
 H722 H -0.04309 0.50173 0.41323
 H723 H 0.04141 0.40611 0.50078
 H724 H -0.04352 0.49916 0.59025
 H725 H 0.00376 0.35025 0.46087
 H726 H -0.00679 0.34942 0.53934
 H727 H -0.00223 0.65082 0.46372
 H728 H 0.00015 0.64951 0.54321
 C729 C 0.25242 0.74660 0.90131
 C730 C 0.24953 0.75473 0.60053
 C731 C 0.17595 0.66878 0.81954
 C732 C 0.17575 0.82710 0.82497
 C733 C 0.17577 0.67139 0.68072
 C734 C 0.32471 0.67780 0.67419
 C735 C 0.32445 0.82868 0.67870
 C736 C 0.32520 0.67464 0.82422
 C737 C 0.17526 0.83132 0.68240
 C738 C 0.32513 0.82285 0.82706
 O739 O 0.20546 0.66174 0.66995
 O740 O 0.16686 0.70431 0.70976
 O741 O 0.20491 0.84200 0.67223
 O742 O 0.16660 0.79779 0.71103
 O743 O 0.29549 0.83372 0.83727
 O744 O 0.33367 0.79332 0.79481
 O745 O 0.24980 0.79554 0.62194
 O746 O 0.24948 0.71292 0.62033
 O747 O 0.25170 0.78836 0.88152
 O748 O 0.25128 0.70572 0.88002
 O749 O 0.29505 0.66740 0.66406
 O750 O 0.33343 0.70752 0.70619
 O751 O 0.20568 0.65851 0.82968
 O752 O 0.16701 0.70273 0.79161
 O753 O 0.29558 0.66345 0.83407
 O754 O 0.33373 0.70550 0.79294
 O755 O 0.29477 0.83890 0.66839
 O756 O 0.33326 0.79682 0.70883
 O757 O 0.25120 0.88463 0.82400
 O758 O 0.25123 0.88833 0.68452
 O759 O 0.25162 0.61679 0.67713
 O760 O 0.25228 0.61278 0.81720
 O761 O 0.22239 0.68682 0.74983
 O762 O 0.22205 0.81456 0.75260
 O763 O 0.27797 0.68700 0.74945
 O764 O 0.22095 0.74886 0.81260
 O765 O 0.16686 0.79545 0.79466
 O766 O 0.20550 0.83754 0.83472
 O767 O 0.27994 0.74905 0.81226
 O768 O 0.27970 0.75232 0.68894
 O769 O 0.27769 0.81408 0.75218
 O770 O 0.22049 0.75203 0.68999
 Zr771 Zr 0.25031 0.80920 0.81202
 Zr772 Zr 0.25018 0.69204 0.68997
 Zr773 Zr 0.19471 0.75055 0.75148
 Zr774 Zr 0.25050 0.68882 0.80945
 Zr775 Zr 0.24989 0.81229 0.69252
 Zr776 Zr 0.30553 0.75062 0.75055
 H777 H 0.29117 0.65704 0.74881
 H778 H 0.20670 0.74791 0.84001
 H779 H 0.29073 0.84416 0.75294
 H780 H 0.20581 0.75241 0.66307
 H781 H 0.25306 0.89979 0.79323
 H782 H 0.24408 0.90171 0.71446
 H783 H 0.24568 0.59944 0.78701
 H784 H 0.25349 0.60127 0.70775
 C785 C 0.49821 0.50099 0.35074
 C786 C 0.49898 0.49763 0.65164
 C787 C 0.57511 0.42222 0.42916
 C788 C 0.57503 0.57921 0.43146
 C789 C 0.57418 0.42135 0.57408
 C790 C 0.42511 0.42316 0.57392
 C791 C 0.42551 0.57594 0.57437
 C792 C 0.42572 0.42374 0.42707
 C793 C 0.57465 0.57615 0.57472
 C794 C 0.42583 0.57713 0.42843
 O795 O 0.54444 0.41036 0.58325
 O796 O 0.58324 0.45306 0.54379
 O797 O 0.54490 0.58689 0.58432
 O798 O 0.58355 0.54472 0.54419
 O799 O 0.45554 0.58737 0.41823
 O800 O 0.41698 0.54508 0.45836
 O801 O 0.49908 0.53923 0.63140
 O802 O 0.49904 0.45655 0.63066
 O803 O 0.49928 0.54207 0.37163
 O804 O 0.49900 0.45947 0.37099
 O805 O 0.45474 0.41280 0.58447
 O806 O 0.41652 0.45475 0.54337
 O807 O 0.54546 0.41133 0.41908
 O808 O 0.58370 0.45408 0.45935
 O809 O 0.45542 0.41343 0.41681
 O810 O 0.41695 0.45527 0.45751
 O811 O 0.45517 0.58539 0.58530
 O812 O 0.41673 0.54473 0.54365
 O813 O 0.49998 0.63596 0.43160
 O814 O 0.49916 0.63475 0.57139
 O815 O 0.49846 0.36268 0.56835
 O816 O 0.50011 0.36430 0.42976
 O817 O 0.52824 0.43540 0.50086
 O818 O 0.52831 0.56342 0.50185
 O819 O 0.47254 0.43618 0.50046
 O820 O 0.52983 0.50007 0.43994
 O821 O 0.58373 0.54627 0.46067
 O822 O 0.54537 0.58960 0.42110
 O823 O 0.47068 0.50015 0.43927
 O824 O 0.47017 0.49899 0.56281
 O825 O 0.47277 0.56298 0.50150
 O826 O 0.52921 0.49877 0.56236
 Zr827 Zr 0.50043 0.56021 0.44186
 Zr828 Zr 0.49978 0.43873 0.56035
 Zr829 Zr 0.55568 0.49939 0.50151
 Zr830 Zr 0.50039 0.43988 0.44090
 Zr831 Zr 0.50004 0.55900 0.56139
 Zr832 Zr 0.44473 0.49971 0.50089
 H833 H 0.45956 0.40603 0.50036
 H834 H 0.54410 0.50052 0.41254
 H835 H 0.45997 0.59330 0.50170
 H836 H 0.54331 0.49855 0.58987
 H837 H 0.49923 0.65024 0.46281
 H838 H 0.50685 0.64896 0.54204
 H839 H 0.49800 0.34952 0.46068
 H840 H 0.50753 0.34933 0.53947
 C841 C 0.75288 0.74436 0.90148
 C842 C 0.74985 0.75364 0.60080
 C843 C 0.67617 0.66991 0.82219
 C844 C 0.67646 0.82489 0.82651
 C845 C 0.67568 0.67138 0.68007
 C846 C 0.82481 0.67736 0.67297
 C847 C 0.82477 0.82655 0.67823
 C848 C 0.82538 0.67330 0.82440
 C849 C 0.67570 0.82878 0.68178
 C850 C 0.82608 0.81707 0.82913
 O851 O 0.70532 0.66131 0.66924
 O852 O 0.66706 0.70367 0.70993
 O853 O 0.70530 0.83983 0.67165
 O854 O 0.66715 0.79623 0.71141
 O855 O 0.79649 0.82854 0.83908
 O856 O 0.83455 0.78925 0.79557
 O857 O 0.75034 0.79442 0.62234
 O858 O 0.74958 0.71176 0.62046
 O859 O 0.75208 0.78621 0.88183
 O860 O 0.75196 0.70351 0.88003
 O861 O 0.79513 0.66665 0.66313
 O862 O 0.83359 0.70630 0.70550
 O863 O 0.70580 0.65820 0.83148
 O864 O 0.66746 0.70279 0.79303
 O865 O 0.79579 0.66200 0.83429
 O866 O 0.83394 0.70343 0.79257
 O867 O 0.79510 0.83714 0.66826
 O868 O 0.83355 0.79491 0.70861
 O869 O 0.75273 0.88276 0.82401
 O870 O 0.75166 0.88719 0.68626
 O871 O 0.75156 0.61519 0.67745
 O872 O 0.75226 0.61054 0.81551
 O873 O 0.72241 0.68512 0.74986
 O874 O 0.72255 0.81325 0.75317
 O875 O 0.77822 0.68506 0.74926
 O876 O 0.72162 0.74720 0.81269
 O877 O 0.66751 0.79399 0.79554
 O878 O 0.70628 0.83536 0.83606
 O879 O 0.78021 0.74683 0.81199
 O880 O 0.77984 0.75076 0.68911
 O881 O 0.77839 0.81244 0.75257
 O882 O 0.72093 0.75078 0.69046
 Zr883 Zr 0.75100 0.80730 0.81239
 Zr884 Zr 0.75028 0.69051 0.68998
 Zr885 Zr 0.69520 0.74929 0.75189
 Zr886 Zr 0.75072 0.68676 0.80933
 Zr887 Zr 0.75032 0.81102 0.69302
 Zr888 Zr 0.80583 0.74865 0.75042
 H889 H 0.79146 0.65515 0.74841
 H890 H 0.70757 0.74654 0.84028
 H891 H 0.79174 0.84222 0.75363
 H892 H 0.70631 0.75121 0.66349
 H893 H 0.75525 0.89771 0.79324
 H894 H 0.74244 0.90004 0.71525
 H895 H 0.74256 0.59792 0.78676
 H896 H 0.75428 0.59984 0.70802
 C897 C -0.00164 -0.04232 0.22585
 C898 C -0.00104 0.00083 0.20037
 C899 C -0.00421 0.04472 0.22501
 C900 C -0.00445 0.04496 0.27355
 C901 C -0.00159 0.00130 0.29870
 C902 C -0.00192 -0.04209 0.27367
 C903 C 0.01999 -0.08504 0.27648
 C904 C 0.02035 -0.08526 0.22406
 H905 H -0.00548 0.07907 0.20697
 H906 H -0.00582 0.07946 0.29121
 H907 H 0.00763 -0.11717 0.29155
 H908 H 0.04388 -0.07620 0.29198
 H909 H 0.00826 -0.11756 0.20902
 H910 H 0.04444 -0.07649 0.20910
 C911 C 0.25656 0.28875 1.02673
 C912 C 0.25552 0.24560 1.05258
 C913 C 0.25820 0.20165 1.02746
 C914 C 0.25845 0.20160 0.97885
 C915 C 0.25596 0.24533 0.95375
 C916 C 0.25679 0.28856 0.97891
 C917 C 0.23557 0.33226 0.97606
 C918 C 0.23532 0.33261 1.02845
 H919 H 0.25899 0.16696 1.04501
 H920 H 0.25929 0.16712 0.96110
 H921 H 0.21152 0.32415 0.96074
 H922 H 0.24834 0.36394 0.96086
 H923 H 0.21110 0.32487 1.04350
 H924 H 0.24801 0.36446 1.04337
 C925 C 0.13372 0.08541 0.09557
 C926 C 0.10091 0.09511 0.10343
 C927 C 0.09310 0.12430 0.14181
 C928 C 0.11755 0.14703 0.16773
 C929 C 0.15049 0.14077 0.15631
 C930 C 0.15785 0.10759 0.12130
 C931 C 0.17944 0.11288 0.08029
 C932 C 0.15300 0.08861 0.05214
 H933 H 0.06809 0.13116 0.15089
 H934 H 0.11049 0.17113 0.19538
 H935 H 0.20169 0.09046 0.08339
 H936 H 0.18363 0.15141 0.07060
 H937 H 0.16009 0.05228 0.03905
 H938 H 0.14180 0.11302 0.02609
 C939 C 0.38321 0.34588 0.16341
 C940 C 0.35046 0.35370 0.15378
 C941 C 0.34262 0.39093 0.12224
 C942 C 0.36704 0.41523 0.09762
 C943 C 0.39985 0.40285 0.10400
 C944 C 0.40730 0.36995 0.13925
 C945 C 0.42859 0.32622 0.13842
 C946 C 0.40206 0.29972 0.16454
 H947 H 0.31763 0.40010 0.11515
 H948 H 0.36006 0.44230 0.07243
 H949 H 0.45094 0.33149 0.15913
 H950 H 0.43256 0.31204 0.10301
 H951 H 0.40920 0.28927 0.20010
 H952 H 0.39041 0.27057 0.14399
 C953 C 0.34586 0.10975 0.12233
 C954 C 0.35192 0.14778 0.15262
 C955 C 0.38484 0.16158 0.15705
 C956 C 0.40951 0.13787 0.13150
 C957 C 0.40212 0.09917 0.10107
 C958 C 0.36953 0.08662 0.09826
 C959 C 0.34679 0.04999 0.07908
 C960 C 0.31995 0.07655 0.10589
 H961 H 0.39167 0.19047 0.18029
 H962 H 0.43428 0.14977 0.13591
 H963 H 0.35182 0.01302 0.09253
 H964 H 0.34427 0.05280 0.04118
 H965 H 0.30942 0.05455 0.13431
 H966 H 0.30215 0.09535 0.08338
 C967 C 0.11798 0.35019 0.16666
 C968 C 0.15069 0.35556 0.15501
 C969 C 0.15849 0.38893 0.11982
 C970 C 0.13399 0.41190 0.09431
 C971 C 0.10107 0.40269 0.10373
 C972 C 0.09380 0.37328 0.14174
 C973 C 0.07183 0.33041 0.14509
 C974 C 0.09827 0.30524 0.17253
 H975 H 0.18344 0.39557 0.11032
 H976 H 0.14094 0.43514 0.06591
 H977 H 0.06715 0.31329 0.11106
 H978 H 0.04985 0.33818 0.16586
 H979 H 0.10888 0.27341 0.15449
 H980 H 0.09155 0.29884 0.20913
 C981 C 0.38321 0.16163 0.34543
 C982 C 0.35047 0.15299 0.35472
 C983 C 0.34295 0.12363 0.39315
 C984 C 0.36755 0.09991 0.41794
 C985 C 0.40028 0.10477 0.40475
 C986 C 0.40747 0.13806 0.36974
 C987 C 0.42795 0.13229 0.32768
 C988 C 0.40141 0.15827 0.30106
 H989 H 0.31804 0.11741 0.40309
 H990 H 0.36075 0.07638 0.44625
 H991 H 0.43098 0.09369 0.31750
 H992 H 0.45076 0.15350 0.32988
 H993 H 0.38912 0.13483 0.27529
 H994 H 0.40891 0.19451 0.28807
 C995 C 0.11705 0.34891 0.33484
 C996 C 0.14995 0.35828 0.34220
 C997 C 0.15777 0.39586 0.37336
 C998 C 0.13355 0.41874 0.39976
 C999 C 0.10083 0.40472 0.39570
 C1000 C 0.09318 0.37161 0.36074
 C1001 C 0.07282 0.32691 0.36220
 C1002 C 0.09899 0.30205 0.33389
 H1003 H 0.18273 0.40616 0.37904
 H1004 H 0.14068 0.44610 0.42448
 H1005 H 0.04972 0.33155 0.34310
 H1006 H 0.07031 0.31186 0.39761
 H1007 H 0.09090 0.29239 0.29856
 H1008 H 0.11168 0.27260 0.35288
 C1009 C 0.11739 0.15807 0.34196
 C1010 C 0.15012 0.14865 0.35048
 C1011 C 0.15783 0.12008 0.38937
 C1012 C 0.13331 0.09759 0.41532
 C1013 C 0.10049 0.10326 0.40308
 C1014 C 0.09320 0.13587 0.36753
 C1015 C 0.07201 0.12964 0.32629
 C1016 C 0.09858 0.15384 0.29826
 H1017 H 0.18278 0.11393 0.39914
 H1018 H 0.14021 0.07447 0.44386
 H1019 H 0.04960 0.15180 0.32864
 H1020 H 0.06815 0.09091 0.31718
 H1021 H 0.09144 0.18987 0.28434
 H1022 H 0.11024 0.12906 0.27302
 C1023 C 0.38316 0.33919 0.34400
 C1024 C 0.35033 0.34752 0.35300
 C1025 C 0.34265 0.37678 0.39140
 C1026 C 0.36713 0.40084 0.41620
 C1027 C 0.39994 0.39626 0.40327
 C1028 C 0.40727 0.36293 0.36840
 C1029 C 0.42805 0.36830 0.32658
 C1030 C 0.40164 0.34220 0.29986
 H1031 H 0.31771 0.38243 0.40148
 H1032 H 0.36019 0.42422 0.44448
 H1033 H 0.45078 0.34694 0.32935
 H1034 H 0.43128 0.40679 0.31602
 H1035 H 0.40919 0.30583 0.28738
 H1036 H 0.38953 0.36547 0.27370
 C1037 C 0.49622 -0.04285 0.22723
 C1038 C 0.49685 0.00023 0.20170
 C1039 C 0.49335 0.04424 0.22601
 C1040 C 0.49311 0.04470 0.27448
 C1041 C 0.49622 0.00116 0.29967
 C1042 C 0.49592 -0.04239 0.27495
 C1043 C 0.51792 -0.08527 0.27797
 C1044 C 0.51822 -0.08578 0.22558
 H1045 H 0.49211 0.07849 0.20779
 H1046 H 0.49182 0.07927 0.29203
 H1047 H 0.50566 -0.11738 0.29323
 H1048 H 0.54181 -0.07627 0.29337
 H1049 H 0.50611 -0.11817 0.21072
 H1050 H 0.54229 -0.07710 0.21052
 C1051 C 0.75604 0.28738 1.02528
 C1052 C 0.75505 0.24401 1.05039
 C1053 C 0.75750 0.20022 1.02553
 C1054 C 0.75744 0.20043 0.97701
 C1055 C 0.75480 0.24443 0.95232
 C1056 C 0.75585 0.28757 0.97756
 C1057 C 0.73426 0.33095 0.97550
 C1058 C 0.73457 0.33087 1.02787
 H1059 H 0.75814 0.16571 1.04336
 H1060 H 0.75814 0.16607 0.95904
 H1061 H 0.71011 0.32250 0.96066
 H1062 H 0.74658 0.36299 0.96025
 H1063 H 0.71057 0.32267 1.04341
 H1064 H 0.74724 0.36276 1.04276
 C1065 C 0.63452 0.08483 0.09822
 C1066 C 0.60186 0.09727 0.10308
 C1067 C 0.59354 0.12751 0.14056
 C1068 C 0.61767 0.14864 0.16830
 C1069 C 0.65074 0.13973 0.15955
 C1070 C 0.65833 0.10540 0.12578
 C1071 C 0.68173 0.10904 0.08680
 C1072 C 0.65552 0.08759 0.05655
 H1073 H 0.56849 0.13626 0.14764
 H1074 H 0.61038 0.17369 0.19506
 H1075 H 0.70284 0.08451 0.09148
 H1076 H 0.68790 0.14715 0.07776
 H1077 H 0.66178 0.05112 0.04298
 H1078 H 0.64599 0.11409 0.03104
 C1079 C -0.11629 0.33206 0.15129
 C1080 C -0.14901 0.34391 0.14584
 C1081 C -0.15704 0.37667 0.11015
 C1082 C -0.13270 0.40055 0.08488
 C1083 C -0.09969 0.39179 0.09410
 C1084 C -0.09228 0.35536 0.12612
 C1085 C -0.06969 0.35616 0.16628
 C1086 C -0.09600 0.33070 0.19380
 H1087 H -0.18205 0.38561 0.10298
 H1088 H -0.13984 0.42751 0.05972
 H1089 H -0.06448 0.39352 0.17861
 H1090 H -0.04800 0.33313 0.16044
 H1091 H -0.10615 0.35339 0.22198
 H1092 H -0.08946 0.29302 0.20377
 C1093 C 0.86867 0.08594 0.09741
 C1094 C 0.90118 0.09952 0.10099
 C1095 C 0.90939 0.13204 0.13674
 C1096 C 0.88518 0.15412 0.16375
 C1097 C 0.85215 0.14419 0.15575
 C1098 C 0.84480 0.10782 0.12387
 C1099 C 0.82124 0.10815 0.08498
 C1100 C 0.84740 0.08440 0.05606
 H1101 H 0.93439 0.14174 0.14299
 H1102 H 0.89236 0.18045 0.18944
 H1103 H 0.81505 0.14545 0.07332
 H1104 H 0.80018 0.08404 0.09162
 H1105 H 0.85653 0.10826 0.02801
 H1106 H 0.84145 0.04654 0.04607
 C1107 C 0.61784 0.34416 0.16397
 C1108 C 0.65066 0.35336 0.15543
 C1109 C 0.65814 0.39001 0.12314
 C1110 C 0.63357 0.41249 0.09718
 C1111 C 0.60083 0.39888 0.10273
 C1112 C 0.59360 0.36647 0.13849
 C1113 C 0.57322 0.32179 0.13833
 C1114 C 0.59981 0.29730 0.16615
 H1115 H 0.68304 0.40007 0.11648
 H1116 H 0.64043 0.43945 0.07181
 H1117 H 0.57017 0.30630 0.10324
 H1118 H 0.55041 0.32674 0.15812
 H1119 H 0.61224 0.26763 0.14718
 H1120 H 0.59224 0.28803 0.20185
 C1121 C -0.11753 0.16344 0.34593
 C1122 C -0.15051 0.15527 0.35503
 C1123 C -0.15785 0.12614 0.39402
 C1124 C -0.13321 0.10341 0.41971
 C1125 C -0.10042 0.10850 0.40710
 C1126 C -0.09327 0.14083 0.37124
 C1127 C -0.07246 0.13385 0.32970
 C1128 C -0.09901 0.15832 0.30190
 H1129 H -0.18268 0.11943 0.40416
 H1130 H -0.14004 0.08026 0.44829
 H1131 H -0.06900 0.09497 0.32082
 H1132 H -0.04985 0.15558 0.33150
 H1133 H -0.11104 0.13358 0.27699
 H1134 H -0.09157 0.19392 0.28737
 C1135 C 0.61863 0.33986 0.34570
 C1136 C 0.65100 0.35379 0.34745
 C1137 C 0.65826 0.39244 0.37793
 C1138 C 0.63372 0.41448 0.40501
 C1139 C 0.60115 0.39843 0.40262
 C1140 C 0.59514 0.36076 0.37187
 C1141 C 0.56972 0.32636 0.35601
 C1142 C 0.59635 0.30261 0.32649
 H1143 H 0.68286 0.40546 0.38135
 H1144 H 0.64038 0.44399 0.42767
 H1145 H 0.55060 0.34452 0.33543
 H1146 H 0.56085 0.30266 0.38434
 H1147 H 0.59264 0.30708 0.28879
 H1148 H 0.60279 0.26541 0.33804
 C1149 C 0.61841 0.15939 0.34500
 C1150 C 0.65110 0.14967 0.35363
 C1151 C 0.65866 0.12187 0.39305
 C1152 C 0.63401 0.10029 0.41946
 C1153 C 0.60119 0.10637 0.40734
 C1154 C 0.59408 0.13827 0.37114
 C1155 C 0.57282 0.13134 0.33006
 C1156 C 0.59953 0.15434 0.30141
 H1157 H 0.68359 0.11546 0.40279
 H1158 H 0.64079 0.07724 0.44809
 H1159 H 0.55058 0.15394 0.33191
 H1160 H 0.56865 0.09245 0.32185
 H1161 H 0.59262 0.19007 0.28660
 H1162 H 0.61098 0.12876 0.27669
 C1163 C -0.11675 0.33683 0.34957
 C1164 C -0.14927 0.34985 0.35171
 C1165 C -0.15692 0.38853 0.38199
 C1166 C -0.13251 0.41196 0.40804
 C1167 C -0.09969 0.39742 0.40464
 C1168 C -0.09335 0.35935 0.37451
 C1169 C -0.06714 0.32721 0.35703
 C1170 C -0.09371 0.30128 0.32920
 H1171 H -0.18166 0.40087 0.38565
 H1172 H -0.13943 0.44156 0.43046
 H1173 H -0.05650 0.30434 0.38472
 H1174 H -0.04944 0.34714 0.33524
 H1175 H -0.09853 0.26379 0.34134
 H1176 H -0.09111 0.30562 0.29138
 C1177 C -0.00299 0.45916 0.22732
 C1178 C -0.00156 0.50228 0.20188
 C1179 C -0.00352 0.54629 0.22656
 C1180 C -0.00331 0.54647 0.27510
 C1181 C -0.00117 0.50263 0.30011
 C1182 C -0.00279 0.45933 0.27508
 C1183 C 0.01802 0.41512 0.27743
 C1184 C 0.01777 0.41492 0.22503
 H1185 H -0.00409 0.58070 0.20854
 H1186 H -0.00373 0.58098 0.29284
 H1187 H 0.00502 0.38371 0.29277
 H1188 H 0.04229 0.42254 0.29236
 H1189 H 0.00458 0.38345 0.21027
 H1190 H 0.04190 0.42224 0.20952
 C1191 C 0.25751 0.78937 1.02442
 C1192 C 0.25591 0.74624 1.04976
 C1193 C 0.25778 0.70216 1.02523
 C1194 C 0.25750 0.70196 0.97674
 C1195 C 0.25523 0.74585 0.95187
 C1196 C 0.25718 0.78917 0.97676
 C1197 C 0.23656 0.83361 0.97449
 C1198 C 0.23691 0.83382 1.02686
 H1199 H 0.25806 0.66778 1.04331
 H1200 H 0.25769 0.66746 0.95898
 H1201 H 0.21222 0.82641 0.95968
 H1202 H 0.24967 0.86489 0.95907
 H1203 H 0.21277 0.82675 1.04247
 H1204 H 0.25019 0.86522 1.04156
 C1205 C 0.13299 0.58689 0.09980
 C1206 C 0.10035 0.59924 0.10254
 C1207 C 0.09262 0.63669 0.13422
 C1208 C 0.11705 0.65988 0.16055
 C1209 C 0.15002 0.64636 0.15610
 C1210 C 0.15639 0.60919 0.12501
 C1211 C 0.18289 0.57899 0.10555
 C1212 C 0.15640 0.55330 0.07742
 H1213 H 0.06780 0.64837 0.13865
 H1214 H 0.11004 0.68863 0.18389
 H1215 H 0.19433 0.55537 0.13200
 H1216 H 0.19992 0.60060 0.08410
 H1217 H 0.15247 0.51514 0.08812
 H1218 H 0.15842 0.55948 0.03980
 C1219 C 0.37012 0.91035 0.09304
 C1220 C 0.40311 0.90187 0.10202
 C1221 C 0.41017 0.87122 0.14007
 C1222 C 0.38531 0.84736 0.16462
 C1223 C 0.35251 0.85306 0.15209
 C1224 C 0.34568 0.88686 0.11735
 C1225 C 0.32488 0.88223 0.07557
 C1226 C 0.35159 0.90777 0.04888
 H1227 H 0.43494 0.86445 0.15050
 H1228 H 0.39200 0.82322 0.19249
 H1229 H 0.30240 0.90416 0.07838
 H1230 H 0.32121 0.84389 0.06494
 H1231 H 0.34436 0.94422 0.03622
 H1232 H 0.36349 0.88424 0.02278
 C1233 C 0.34366 0.61203 0.12028
 C1234 C 0.35111 0.64532 0.15513
 C1235 C 0.38393 0.65025 0.16759
 C1236 C 0.40833 0.62631 0.14255
 C1237 C 0.40053 0.59706 0.10422
 C1238 C 0.36771 0.58845 0.09556
 C1239 C 0.34914 0.59176 0.05155
 C1240 C 0.32284 0.61779 0.07858
 H1241 H 0.39097 0.67397 0.19553
 H1242 H 0.43331 0.63219 0.15231
 H1243 H 0.34152 0.55549 0.03894
 H1244 H 0.36121 0.61513 0.02541
 H1245 H 0.30003 0.59662 0.08127
 H1246 H 0.31975 0.65639 0.06830
 C1247 C 0.13365 0.90337 0.08689
 C1248 C 0.10091 0.89693 0.09782
 C1249 C 0.09327 0.86263 0.13228
 C1250 C 0.11786 0.83983 0.15781
 C1251 C 0.15074 0.85078 0.14960
 C1252 C 0.15792 0.88082 0.11203
 C1253 C 0.17954 0.92407 0.10897
 C1254 C 0.15292 0.94878 0.08143
 H1255 H 0.06832 0.85461 0.14079
 H1256 H 0.11096 0.81480 0.18489
 H1257 H 0.20163 0.91664 0.08828
 H1258 H 0.18397 0.94116 0.14308
 H1259 H 0.15970 0.95559 0.04491
 H1260 H 0.14186 0.98012 0.09963
 C1261 C 0.38356 0.66240 0.34573
 C1262 C 0.35075 0.65473 0.35531
 C1263 C 0.34305 0.62566 0.39389
 C1264 C 0.36746 0.60133 0.41857
 C1265 C 0.40018 0.60529 0.40516
 C1266 C 0.40763 0.63829 0.36998
 C1267 C 0.42785 0.63163 0.32781
 C1268 C 0.40149 0.65803 0.30124
 H1269 H 0.31811 0.62011 0.40402
 H1270 H 0.36050 0.57807 0.44701
 H1271 H 0.43040 0.59287 0.31790
 H1272 H 0.45091 0.65228 0.32963
 H1273 H 0.38876 0.63455 0.27595
 H1274 H 0.40935 0.69389 0.28775
 C1275 C 0.11768 -0.14857 0.33415
 C1276 C 0.15049 -0.13858 0.34176
 C1277 C 0.15790 -0.10099 0.37305
 C1278 C 0.13337 -0.07871 0.39934
 C1279 C 0.10078 -0.09344 0.39503
 C1280 C 0.09352 -0.12651 0.35993
 C1281 C 0.07356 -0.17161 0.36110
 C1282 C 0.10002 -0.19578 0.33284
 H1283 H 0.18276 -0.09029 0.37894
 H1284 H 0.14017 -0.05131 0.42420
 H1285 H 0.05047 -0.16736 0.34189
 H1286 H 0.07109 -0.18687 0.39643
 H1287 H 0.09215 -0.20537 0.29738
 H1288 H 0.11290 -0.22510 0.35176
 C1289 C 0.11790 0.65976 0.34380
 C1290 C 0.15075 0.65076 0.35184
 C1291 C 0.15870 0.62129 0.39011
 C1292 C 0.13440 0.59782 0.41586
 C1293 C 0.10148 0.60329 0.40413
 C1294 C 0.09395 0.63656 0.36914
 C1295 C 0.07263 0.63113 0.32792
 C1296 C 0.09888 0.65658 0.30020
 H1297 H 0.18373 0.61519 0.39953
 H1298 H 0.14154 0.57420 0.44392
 H1299 H 0.05006 0.65281 0.33101
 H1300 H 0.06903 0.59259 0.31788
 H1301 H 0.09141 0.69290 0.28739
 H1302 H 0.11054 0.63285 0.27404
 C1303 C 0.38368 -0.15914 0.34342
 C1304 C 0.35091 -0.15067 0.35256
 C1305 C 0.34316 -0.12187 0.39119
 C1306 C 0.36759 -0.09820 0.41620
 C1307 C 0.40035 -0.10296 0.40329
 C1308 C 0.40778 -0.13586 0.36813
 C1309 C 0.42849 -0.12960 0.32635
 C1310 C 0.40204 -0.15507 0.29924
 H1311 H 0.31821 -0.11622 0.40127
 H1312 H 0.36065 -0.07488 0.44451
 H1313 H 0.45123 -0.15101 0.32863
 H1314 H 0.43173 -0.09090 0.31652
 H1315 H 0.40957 -0.19110 0.28586
 H1316 H 0.38984 -0.13113 0.27372
 C1317 C 0.49381 0.45808 0.22743
 C1318 C 0.49479 0.50135 0.20223
 C1319 C 0.49208 0.54524 0.22689
 C1320 C 0.49243 0.54530 0.27534
 C1321 C 0.49535 0.50146 0.30015
 C1322 C 0.49407 0.45815 0.27514
 C1323 C 0.51545 0.41455 0.27724
 C1324 C 0.51509 0.41440 0.22487
 H1325 H 0.49114 0.57967 0.20894
 H1326 H 0.49180 0.57977 0.29314
 H1327 H 0.50291 0.38275 0.29258
 H1328 H 0.53967 0.42273 0.29203
 H1329 H 0.50226 0.38257 0.21013
 H1330 H 0.53910 0.42232 0.20925
 C1331 C 0.75692 0.78721 1.02469
 C1332 C 0.75523 0.74411 1.05005
 C1333 C 0.75727 0.70001 1.02558
 C1334 C 0.75744 0.69975 0.97707
 C1335 C 0.75540 0.74359 0.95211
 C1336 C 0.75698 0.78695 0.97702
 C1337 C 0.73616 0.83116 0.97439
 C1338 C 0.73608 0.83143 1.02675
 H1339 H 0.75733 0.66567 1.04369
 H1340 H 0.75778 0.66523 0.95933
 H1341 H 0.71197 0.82365 0.95920
 H1342 H 0.74922 0.86257 0.95914
 H1343 H 0.71186 0.82411 1.04197
 H1344 H 0.74908 0.86300 1.04162
 C1345 C 0.63323 0.58579 0.09791
 C1346 C 0.60061 0.59829 0.10348
 C1347 C 0.59270 0.62869 0.14097
 C1348 C 0.61714 0.65005 0.16796
 C1349 C 0.65013 0.64146 0.15827
 C1350 C 0.65732 0.60701 0.12437
 C1351 C 0.68024 0.60931 0.08463
 C1352 C 0.65387 0.58587 0.05571
 H1353 H 0.56772 0.63733 0.14867
 H1354 H 0.61011 0.67496 0.19498
 H1355 H 0.70166 0.58551 0.08977
 H1356 H 0.68590 0.64715 0.07398
 H1357 H 0.66008 0.54847 0.04455
 H1358 H 0.64427 0.60998 0.02815
 C1359 C 0.86770 0.90756 0.09121
 C1360 C 0.90049 0.89746 0.09858
 C1361 C 0.90834 0.86736 0.13642
 C1362 C 0.88391 0.84438 0.16232
 C1363 C 0.85096 0.85089 0.15110
 C1364 C 0.84362 0.88477 0.11662
 C1365 C 0.82185 0.88072 0.07577
 C1366 C 0.84821 0.90578 0.04796
 H1367 H 0.93335 0.86048 0.14543
 H1368 H 0.89097 0.82034 0.19009
 H1369 H 0.79965 0.90312 0.07965
 H1370 H 0.81759 0.84250 0.06521
 H1371 H 0.84116 0.94260 0.03601
 H1372 H 0.85926 0.88215 0.02121
 C1373 C 0.86813 0.59529 0.09070
 C1374 C 0.90095 0.60459 0.09673
 C1375 C 0.90879 0.63884 0.13143
 C1376 C 0.88429 0.66136 0.15813
 C1377 C 0.85117 0.65024 0.15107
 C1378 C 0.84465 0.61673 0.11641
 C1379 C 0.81807 0.58990 0.09300
 C1380 C 0.84471 0.56549 0.06398
 H1381 H 0.93378 0.64798 0.13846
 H1382 H 0.89140 0.68723 0.18427
 H1383 H 0.80214 0.61434 0.07270
 H1384 H 0.80539 0.56450 0.11668
 H1385 H 0.84412 0.57594 0.02701
 H1386 H 0.84744 0.52606 0.07099
 C1387 C 0.63297 0.90083 0.08570
 C1388 C 0.59994 0.89315 0.09487
 C1389 C 0.59246 0.85733 0.12839
 C1390 C 0.61701 0.83493 0.15451
 C1391 C 0.64983 0.84744 0.14810
 C1392 C 0.65710 0.87850 0.11133
 C1393 C 0.67845 0.92208 0.10936
 C1394 C 0.65202 0.94667 0.08133
 H1395 H 0.56761 0.84777 0.13608
 H1396 H 0.61007 0.80897 0.18076
 H1397 H 0.70087 0.91525 0.08920
 H1398 H 0.68226 0.93884 0.14376
 H1399 H 0.65927 0.95405 0.04508
 H1400 H 0.64049 0.97761 0.09955
 C1401 C -0.11638 0.66595 0.34932
 C1402 C -0.14916 0.65617 0.35749
 C1403 C -0.15673 0.62684 0.39596
 C1404 C -0.13211 0.60410 0.42170
 C1405 C -0.09925 0.60988 0.40950
 C1406 C -0.09211 0.64332 0.37453
 C1407 C -0.07077 0.63850 0.33324
 C1408 C -0.09732 0.66336 0.30566
 H1409 H -0.18167 0.61968 0.40512
 H1410 H -0.13899 0.58028 0.44975
 H1411 H -0.06676 0.60008 0.32311
 H1412 H -0.04844 0.66072 0.33630
 H1413 H -0.10870 0.63942 0.27945
 H1414 H -0.09028 0.69992 0.29293
 C1415 C 0.61724 -0.15186 0.33602
 C1416 C 0.65005 -0.14183 0.34333
 C1417 C 0.65771 -0.10516 0.37543
 C1418 C 0.63341 -0.08378 0.40265
 C1419 C 0.60083 -0.09852 0.39849
 C1420 C 0.59327 -0.13059 0.36270
 C1421 C 0.57341 -0.17580 0.36320
 C1422 C 0.59970 -0.19914 0.33399
 H1423 H 0.68259 -0.09447 0.38117
 H1424 H 0.64039 -0.05688 0.42791
 H1425 H 0.55016 -0.17116 0.34445
 H1426 H 0.57125 -0.19194 0.39822
 H1427 H 0.59156 -0.20793 0.29847
 H1428 H 0.61282 -0.22877 0.35209
 C1429 C 0.61763 0.66139 0.34620
 C1430 C 0.65038 0.65127 0.35384
 C1431 C 0.65820 0.62234 0.39248
 C1432 C 0.63374 0.60016 0.41890
 C1433 C 0.60082 0.60665 0.40760
 C1434 C 0.59350 0.63963 0.37231
 C1435 C 0.57175 0.63424 0.33155
 C1436 C 0.59822 0.65798 0.30296
 H1437 H 0.68320 0.61547 0.40155
 H1438 H 0.64074 0.57635 0.44686
 H1439 H 0.54962 0.65694 0.33459
 H1440 H 0.56734 0.59568 0.32228
 H1441 H 0.59130 0.69427 0.28946
 H1442 H 0.60927 0.63315 0.27720
 C1443 C -0.11684 -0.16318 0.34675
 C1444 C -0.14962 -0.15304 0.35439
 C1445 C -0.15743 -0.12364 0.39261
 C1446 C -0.13295 -0.10088 0.41842
 C1447 C -0.10004 -0.10724 0.40693
 C1448 C -0.09271 -0.14082 0.37226
 C1449 C -0.07101 -0.13621 0.33129
 C1450 C -0.09747 -0.16072 0.30335
 H1451 H -0.18242 -0.11663 0.40162
 H1452 H -0.13996 -0.07664 0.44598
 H1453 H -0.04881 -0.15870 0.33475
 H1454 H -0.06671 -0.09783 0.32112
 H1455 H -0.09050 -0.19732 0.29077
 H1456 H -0.10855 -0.13659 0.27698
 C1457 C 0.00477 0.04155 0.77535
 C1458 C 0.00400 -0.00178 0.80095
 C1459 C 0.00645 -0.04554 0.77554
 C1460 C 0.00643 -0.04528 0.72699
 C1461 C 0.00368 -0.00143 0.70217
 C1462 C 0.00466 0.04167 0.72752
 C1463 C -0.01659 0.08538 0.72519
 C1464 C -0.01654 0.08531 0.77760
 H1465 H 0.00735 -0.08035 0.79285
 H1466 H 0.00734 -0.07967 0.70906
 H1467 H -0.04072 0.07744 0.71003
 H1468 H -0.00386 0.11715 0.71007
 H1469 H -0.04065 0.07733 0.79288
 H1470 H -0.00383 0.11710 0.79261
 C1471 C 0.24705 0.20771 0.47716
 C1472 C 0.24745 0.25104 0.45192
 C1473 C 0.24401 0.29471 0.47679
 C1474 C 0.24381 0.29459 0.52534
 C1475 C 0.24695 0.25078 0.55021
 C1476 C 0.24674 0.20757 0.52496
 C1477 C 0.26885 0.16483 0.52755
 C1478 C 0.26933 0.16513 0.47517
 H1479 H 0.24259 0.32914 0.45892
 H1480 H 0.24236 0.32895 0.54322
 H1481 H 0.25660 0.13244 0.54228
 H1482 H 0.29266 0.17375 0.54326
 H1483 H 0.25755 0.13277 0.45974
 H1484 H 0.29339 0.17457 0.46051
 C1485 C 0.13302 0.08653 0.59703
 C1486 C 0.10022 0.09480 0.60621
 C1487 C 0.09259 0.12187 0.64609
 C1488 C 0.11712 0.14443 0.67210
 C1489 C 0.14990 0.14036 0.65897
 C1490 C 0.15718 0.10877 0.62261
 C1491 C 0.17807 0.11611 0.58116
 C1492 C 0.15158 0.09175 0.55314
 H1493 H 0.06764 0.12717 0.65634
 H1494 H 0.11024 0.16662 0.70126
 H1495 H 0.20071 0.09441 0.58295
 H1496 H 0.18150 0.15506 0.57243
 H1497 H 0.15899 0.05607 0.53882
 H1498 H 0.13960 0.11659 0.52818
 C1499 C 0.38263 0.33971 0.65811
 C1500 C 0.34983 0.34704 0.64832
 C1501 C 0.34215 0.37548 0.60930
 C1502 C 0.36659 0.39959 0.58436
 C1503 C 0.39931 0.39579 0.59779
 C1504 C 0.40671 0.36346 0.63354
 C1505 C 0.42687 0.37084 0.67563
 C1506 C 0.40047 0.34488 0.70256
 H1507 H 0.31722 0.38040 0.59879
 H1508 H 0.35968 0.42237 0.55555
 H1509 H 0.42946 0.40975 0.68499
 H1510 H 0.44993 0.35014 0.67414
 H1511 H 0.38767 0.36874 0.72749
 H1512 H 0.40834 0.30925 0.71660
 C1513 C 0.34339 0.11972 0.61208
 C1514 C 0.35061 0.15247 0.64745
 C1515 C 0.38343 0.16483 0.65404
 C1516 C 0.40801 0.14076 0.62955
 C1517 C 0.40039 0.10380 0.59776
 C1518 C 0.36764 0.09603 0.58789
 C1519 C 0.34877 0.04993 0.58577
 C1520 C 0.32219 0.07588 0.61231
 H1521 H 0.39031 0.19177 0.67931
 H1522 H 0.43296 0.14992 0.63688
 H1523 H 0.36032 0.02003 0.60559
 H1524 H 0.34169 0.04056 0.54992
 H1525 H 0.31829 0.06104 0.64754
 H1526 H 0.29982 0.08139 0.59173
 C1527 C 0.15687 0.39044 0.62556
 C1528 C 0.14945 0.35604 0.65959
 C1529 C 0.11645 0.34893 0.67015
 C1530 C 0.09210 0.37191 0.64407
 C1531 C 0.10011 0.40227 0.60647
 C1532 C 0.13289 0.41302 0.59983
 C1533 C 0.15279 0.41191 0.55689
 C1534 C 0.17904 0.38702 0.58501
 H1535 H 0.10932 0.32397 0.69712
 H1536 H 0.06706 0.36431 0.65235
 H1537 H 0.15968 0.44891 0.54523
 H1538 H 0.14218 0.38832 0.52976
 H1539 H 0.20108 0.40963 0.58937
 H1540 H 0.18358 0.34892 0.57429
 C1541 C 0.36914 0.08470 0.90435
 C1542 C 0.40192 0.09457 0.89649
 C1543 C 0.40948 0.12568 0.85926
 C1544 C 0.38482 0.14958 0.83446
 C1545 C 0.35195 0.14315 0.84635
 C1546 C 0.34487 0.10836 0.88006
 C1547 C 0.32360 0.11175 0.92150
 C1548 C 0.35013 0.08573 0.94805
 H1549 H 0.43442 0.13308 0.85030
 H1550 H 0.39166 0.17444 0.80722
 H1551 H 0.30120 0.08980 0.91777
 H1552 H 0.31975 0.14979 0.93295
 H1553 H 0.34297 0.04876 0.95928
 H1554 H 0.36160 0.10856 0.97505
 C1555 C 0.09407 0.36381 0.86824
 C1556 C 0.10139 0.39590 0.90407
 C1557 C 0.13414 0.40057 0.91703
 C1558 C 0.15865 0.37748 0.89158
 C1559 C 0.15098 0.34916 0.85262
 C1560 C 0.11824 0.34092 0.84324
 C1561 C 0.10015 0.34638 0.79902
 C1562 C 0.07366 0.37142 0.82642
 H1563 H 0.14100 0.42328 0.94583
 H1564 H 0.18359 0.38293 0.90178
 H1565 H 0.09254 0.31080 0.78471
 H1566 H 0.11262 0.37087 0.77425
 H1567 H 0.05079 0.35027 0.82791
 H1568 H 0.07073 0.41042 0.81750
 C1569 C 0.13257 0.09055 0.91171
 C1570 C 0.09963 0.09908 0.90248
 C1571 C 0.09250 0.13542 0.86941
 C1572 C 0.11731 0.15831 0.84425
 C1573 C 0.15007 0.14563 0.85102
 C1574 C 0.15701 0.11330 0.88690
 C1575 C 0.17780 0.06906 0.88720
 C1576 C 0.15106 0.04403 0.91424
 H1577 H 0.06774 0.14550 0.86172
 H1578 H 0.11060 0.18503 0.81859
 H1579 H 0.20027 0.07441 0.90760
 H1580 H 0.18148 0.05370 0.85217
 H1581 H 0.15819 0.03479 0.95012
 H1582 H 0.13916 0.01422 0.89483
 C1583 C 0.36777 0.40956 0.90710
 C1584 C 0.40060 0.40118 0.89827
 C1585 C 0.40839 0.37154 0.86018
 C1586 C 0.38400 0.34716 0.83552
 C1587 C 0.35119 0.35196 0.84820
 C1588 C 0.34374 0.38563 0.88275
 C1589 C 0.32289 0.38051 0.92454
 C1590 C 0.34926 0.40673 0.95123
 H1591 H 0.43337 0.36574 0.85031
 H1592 H 0.39102 0.32326 0.80770
 H1593 H 0.31962 0.34209 0.93529
 H1594 H 0.30018 0.40188 0.92159
 H1595 H 0.36136 0.38353 0.97747
 H1596 H 0.34168 0.44310 0.96367
 C1597 C 0.50115 0.03928 0.77483
 C1598 C 0.50256 -0.00418 0.79972
 C1599 C 0.50695 -0.04750 0.77473
 C1600 C 0.50666 -0.04714 0.72629
 C1601 C 0.50187 -0.00346 0.70180
 C1602 C 0.50085 0.03965 0.72709
 C1603 C 0.47690 0.08016 0.72525
 C1604 C 0.47715 0.07966 0.77761
 H1605 H 0.50962 -0.08186 0.79243
 H1606 H 0.50921 -0.08125 0.70821
 H1607 H 0.45332 0.06897 0.71016
 H1608 H 0.48749 0.11373 0.71029
 H1609 H 0.45374 0.06795 0.79293
 H1610 H 0.48776 0.11301 0.79284
 C1611 C 0.74773 0.20925 0.47762
 C1612 C 0.74842 0.25252 0.45240
 C1613 C 0.74464 0.29634 0.47685
 C1614 C 0.74394 0.29642 0.52529
 C1615 C 0.74686 0.25266 0.55021
 C1616 C 0.74692 0.20931 0.52528
 C1617 C 0.76912 0.16672 0.52855
 C1618 C 0.77017 0.16682 0.47622
 H1619 H 0.74336 0.33067 0.45878
 H1620 H 0.74234 0.33084 0.54305
 H1621 H 0.75682 0.13430 0.54313
 H1622 H 0.79273 0.17587 0.54473
 H1623 H 0.75865 0.13432 0.46064
 H1624 H 0.79435 0.17639 0.46208
 C1625 C 0.63340 0.08991 0.59387
 C1626 C 0.60060 0.09834 0.60281
 C1627 C 0.59275 0.12492 0.64288
 C1628 C 0.61713 0.14673 0.66959
 C1629 C 0.64995 0.14240 0.65694
 C1630 C 0.65744 0.11150 0.62015
 C1631 C 0.67851 0.11993 0.57909
 C1632 C 0.65213 0.09646 0.55029
 H1633 H 0.56775 0.13009 0.65298
 H1634 H 0.61011 0.16849 0.69898
 H1635 H 0.70111 0.09811 0.58054
 H1636 H 0.68204 0.15910 0.57135
 H1637 H 0.65960 0.06126 0.53501
 H1638 H 0.64022 0.12208 0.52599
 C1639 C -0.11802 0.33742 0.65451
 C1640 C -0.15076 0.34704 0.64597
 C1641 C -0.15821 0.37594 0.60718
 C1642 C -0.13344 0.39857 0.58153
 C1643 C -0.10062 0.39270 0.59395
 C1644 C -0.09365 0.35966 0.62927
 C1645 C -0.07251 0.36508 0.67066
 C1646 C -0.09924 0.34076 0.69832
 H1647 H -0.18313 0.38252 0.59753
 H1648 H -0.14015 0.42214 0.55322
 H1649 H -0.06849 0.40364 0.68028
 H1650 H -0.05020 0.34272 0.66812
 H1651 H -0.11079 0.36526 0.72393
 H1652 H -0.09230 0.30445 0.71175
 C1653 C 0.86699 0.09952 0.58477
 C1654 C 0.89979 0.10889 0.59301
 C1655 C 0.90732 0.14683 0.62382
 C1656 C 0.88279 0.17004 0.64927
 C1657 C 0.85015 0.15580 0.64459
 C1658 C 0.84284 0.12240 0.60981
 C1659 C 0.82245 0.07773 0.61119
 C1660 C 0.84893 0.05265 0.58370
 H1661 H 0.93222 0.15715 0.62997
 H1662 H 0.88964 0.19770 0.67386
 H1663 H 0.79957 0.08218 0.59154
 H1664 H 0.81955 0.06300 0.64666
 H1665 H 0.84128 0.04275 0.54821
 H1666 H 0.86139 0.02332 0.60318
 C1667 C 0.65619 0.38780 0.62228
 C1668 C 0.64876 0.35519 0.65783
 C1669 C 0.61580 0.34837 0.66869
 C1670 C 0.59146 0.36990 0.64157
 C1671 C 0.59949 0.39855 0.60280
 C1672 C 0.63221 0.40911 0.59565
 C1673 C 0.65198 0.40560 0.55271
 C1674 C 0.67823 0.38209 0.58182
 H1675 H 0.60872 0.32487 0.69686
 H1676 H 0.56641 0.36290 0.65032
 H1677 H 0.65893 0.44189 0.53923
 H1678 H 0.64122 0.38068 0.52680
 H1679 H 0.70036 0.40476 0.58496
 H1680 H 0.68264 0.34343 0.57294
 C1681 C 0.86898 0.11014 0.92090
 C1682 C 0.90144 0.11111 0.90675
 C1683 C 0.90941 0.14238 0.86980
 C1684 C 0.88502 0.16588 0.84428
 C1685 C 0.85208 0.15864 0.85510
 C1686 C 0.84495 0.13346 0.89568
 C1687 C 0.82105 0.09388 0.90318
 C1688 C 0.84741 0.06780 0.92946
 H1689 H 0.93428 0.14645 0.85868
 H1690 H 0.89196 0.18735 0.81460
 H1691 H 0.81400 0.07516 0.87078
 H1692 H 0.80059 0.10562 0.92539
 H1693 H 0.85653 0.03600 0.91110
 H1694 H 0.84135 0.06177 0.96606
 C1695 C 0.59346 0.35998 0.87202
 C1696 C 0.60084 0.39165 0.90820
 C1697 C 0.63370 0.39694 0.92036
 C1698 C 0.65815 0.37510 0.89377
 C1699 C 0.65032 0.34737 0.85445
 C1700 C 0.61757 0.33823 0.84596
 C1701 C 0.59873 0.34370 0.80237
 C1702 C 0.57233 0.36754 0.83091
 H1703 H 0.64067 0.41952 0.94920
 H1704 H 0.68314 0.38122 0.90329
 H1705 H 0.59140 0.30808 0.78785
 H1706 H 0.61047 0.36887 0.77748
 H1707 H 0.54977 0.34568 0.83279
 H1708 H 0.56875 0.40656 0.82258
 C1709 C 0.63200 0.07477 0.89549
 C1710 C 0.60003 0.09221 0.89738
 C1711 C 0.59249 0.12985 0.86561
 C1712 C 0.61694 0.15292 0.83949
 C1713 C 0.64975 0.13901 0.84369
 C1714 C 0.65588 0.09737 0.86980
 C1715 C 0.68191 0.08341 0.90275
 C1716 C 0.65566 0.05784 0.93073
 H1717 H 0.56803 0.14361 0.86245
 H1718 H 0.61018 0.18332 0.81786
 H1719 H 0.69257 0.11519 0.92075
 H1720 H 0.69965 0.05795 0.88715
 H1721 H 0.65124 0.07473 0.96451
 H1722 H 0.65820 0.01771 0.93107
 C1723 C 0.86860 0.39589 0.91561
 C1724 C 0.90113 0.39441 0.90317
 C1725 C 0.90840 0.36863 0.86218
 C1726 C 0.88366 0.34571 0.83631
 C1727 C 0.85087 0.34817 0.85048
 C1728 C 0.84487 0.37428 0.89060
 C1729 C 0.81912 0.38639 0.92457
 C1730 C 0.84604 0.41068 0.95305
 H1731 H 0.93309 0.36628 0.84984
 H1732 H 0.89032 0.32610 0.80544
 H1733 H 0.80889 0.35350 0.94127
 H1734 H 0.80110 0.41237 0.91043
 H1735 H 0.85122 0.39131 0.98579
 H1736 H 0.84351 0.45061 0.95585
 C1737 C 0.00505 0.53963 0.77676
 C1738 C 0.00418 0.49644 0.80254
 C1739 C 0.00638 0.45256 0.77722
 C1740 C 0.00619 0.45266 0.72859
 C1741 C 0.00367 0.49649 0.70364
 C1742 C 0.00489 0.53961 0.72894
 C1743 C -0.01606 0.58364 0.72655
 C1744 C -0.01594 0.58373 0.77896
 H1745 H 0.00714 0.41781 0.79464
 H1746 H 0.00687 0.41824 0.71071
 H1747 H -0.04026 0.57602 0.71147
 H1748 H -0.00313 0.61517 0.71131
 H1749 H -0.04010 0.57618 0.79433
 H1750 H -0.00299 0.61535 0.79386
 C1751 C 0.24736 0.71255 0.47701
 C1752 C 0.24849 0.75584 0.45185
 C1753 C 0.24580 0.79971 0.47655
 C1754 C 0.24554 0.79964 0.52506
 C1755 C 0.24787 0.75569 0.54984
 C1756 C 0.24700 0.71247 0.52470
 C1757 C 0.26848 0.66901 0.52742
 C1758 C 0.26901 0.66924 0.47506
 H1759 H 0.24501 0.83415 0.45861
 H1760 H 0.24465 0.83404 0.54297
 H1761 H 0.25575 0.63705 0.54216
 H1762 H 0.29240 0.67718 0.54315
 H1763 H 0.25676 0.63727 0.45964
 H1764 H 0.29322 0.67787 0.46044
 C1765 C 0.13379 0.58723 0.59704
 C1766 C 0.10098 0.59428 0.60697
 C1767 C 0.09328 0.62140 0.64678
 C1768 C 0.11765 0.64526 0.67196
 C1769 C 0.15030 0.64247 0.65798
 C1770 C 0.15779 0.61074 0.62183
 C1771 C 0.17806 0.61852 0.57983
 C1772 C 0.15173 0.59279 0.55267
 H1773 H 0.06836 0.62580 0.65757
 H1774 H 0.11070 0.66739 0.70113
 H1775 H 0.20111 0.59779 0.58130
 H1776 H 0.18068 0.65751 0.57069
 H1777 H 0.15964 0.55728 0.53848
 H1778 H 0.13899 0.61686 0.52779
 C1779 C 0.36719 0.91131 0.59415
 C1780 C 0.39993 0.90353 0.60405
 C1781 C 0.40740 0.87592 0.64365
 C1782 C 0.38282 0.85258 0.66885
 C1783 C 0.35017 0.85636 0.65510
 C1784 C 0.34294 0.88834 0.61901
 C1785 C 0.32264 0.88092 0.57705
 C1786 C 0.34925 0.90604 0.54979
 H1787 H 0.43228 0.87091 0.65437
 H1788 H 0.38959 0.83021 0.69800
 H1789 H 0.29979 0.90214 0.57841
 H1790 H 0.31967 0.84197 0.56808
 H1791 H 0.34170 0.94167 0.53542
 H1792 H 0.36180 0.88163 0.52508
 C1793 C 0.34313 0.62189 0.61125
 C1794 C 0.35048 0.65460 0.64663
 C1795 C 0.38339 0.66604 0.65364
 C1796 C 0.40784 0.64121 0.62951
 C1797 C 0.40000 0.60435 0.59767
 C1798 C 0.36723 0.59746 0.58740
 C1799 C 0.34781 0.55190 0.58506
 C1800 C 0.32139 0.57864 0.61124
 H1801 H 0.39043 0.69281 0.67899
 H1802 H 0.43283 0.64974 0.63717
 H1803 H 0.35885 0.52166 0.60503
 H1804 H 0.34085 0.54272 0.54912
 H1805 H 0.31709 0.56395 0.64644
 H1806 H 0.29922 0.58475 0.59037
 C1807 C 0.13263 0.91566 0.59901
 C1808 C 0.09991 0.90456 0.60571
 C1809 C 0.09202 0.87442 0.64350
 C1810 C 0.11647 0.85185 0.66966
 C1811 C 0.14943 0.85919 0.65901
 C1812 C 0.15673 0.89349 0.62486
 C1813 C 0.17894 0.89014 0.58436
 C1814 C 0.15256 0.91454 0.55609
 H1815 H 0.06702 0.86661 0.65183
 H1816 H 0.10943 0.82695 0.69673
 H1817 H 0.18373 0.85204 0.57382
 H1818 H 0.20086 0.91305 0.58864
 H1819 H 0.14209 0.89068 0.52907
 H1820 H 0.15926 0.95156 0.54424
 C1821 C 0.36789 0.59542 0.91212
 C1822 C 0.40072 0.60321 0.90273
 C1823 C 0.40848 0.63980 0.87043
 C1824 C 0.38400 0.66365 0.84531
 C1825 C 0.35112 0.65143 0.85172
 C1826 C 0.34378 0.61889 0.88737
 C1827 C 0.32261 0.57503 0.88742
 C1828 C 0.34905 0.54931 0.91447
 H1829 H 0.43347 0.64893 0.86328
 H1830 H 0.39099 0.69043 0.81986
 H1831 H 0.31891 0.55989 0.85231
 H1832 H 0.30012 0.58073 0.90774
 H1833 H 0.36074 0.51930 0.89505
 H1834 H 0.34174 0.54015 0.95031
 C1835 C 0.09303 0.86513 0.86862
 C1836 C 0.09999 0.89875 0.90361
 C1837 C 0.13309 0.90472 0.91533
 C1838 C 0.15767 0.88128 0.89011
 C1839 C 0.15010 0.85128 0.85227
 C1840 C 0.11734 0.84208 0.84382
 C1841 C 0.09885 0.84532 0.79979
 C1842 C 0.07223 0.87048 0.82680
 H1843 H 0.14032 0.92841 0.94323
 H1844 H 0.18262 0.88777 0.89965
 H1845 H 0.09166 0.80902 0.78673
 H1846 H 0.11077 0.86935 0.77407
 H1847 H 0.04968 0.84869 0.82933
 H1848 H 0.06870 0.90903 0.81664
 C1849 C 0.13362 0.58299 0.90148
 C1850 C 0.10085 0.59311 0.89399
 C1851 C 0.09301 0.62233 0.85555
 C1852 C 0.11746 0.64543 0.82981
 C1853 C 0.15033 0.63976 0.84186
 C1854 C 0.15770 0.60581 0.87620
 C1855 C 0.17946 0.60978 0.91707
 C1856 C 0.15306 0.58468 0.94474
 H1857 H 0.06800 0.62911 0.84643
 H1858 H 0.11046 0.66945 0.80199
 H1859 H 0.18369 0.64799 0.92773
 H1860 H 0.20168 0.58742 0.91322
 H1861 H 0.14196 0.60830 0.97146
 H1862 H 0.16007 0.54778 0.95655
 C1863 C 0.36856 0.90137 0.91438
 C1864 C 0.40131 0.89233 0.90529
 C1865 C 0.40861 0.85466 0.87407
 C1866 C 0.38385 0.83123 0.84928
 C1867 C 0.35115 0.84488 0.85507
 C1868 C 0.34416 0.87821 0.89004
 C1869 C 0.32358 0.92268 0.88909
 C1870 C 0.35034 0.94809 0.91563
 H1871 H 0.43348 0.84449 0.86735
 H1872 H 0.39052 0.80372 0.82444
 H1873 H 0.30100 0.91808 0.90950
 H1874 H 0.32010 0.93722 0.85366
 H1875 H 0.34310 0.95818 0.95120
 H1876 H 0.36247 0.97728 0.89557
 C1877 C 0.50018 0.54024 0.77521
 C1878 C 0.50153 0.49692 0.80032
 C1879 C 0.50555 0.45339 0.77548
 C1880 C 0.50504 0.45345 0.72703
 C1881 C 0.50044 0.49705 0.70235
 C1882 C 0.49968 0.54030 0.72746
 C1883 C 0.47592 0.58108 0.72566
 C1884 C 0.47646 0.58101 0.77804
 H1885 H 0.50811 0.41908 0.79331
 H1886 H 0.50736 0.41921 0.70910
 H1887 H 0.45220 0.57003 0.71093
 H1888 H 0.48658 0.61442 0.71033
 H1889 H 0.45306 0.56991 0.79381
 H1890 H 0.48743 0.61431 0.79287
 C1891 C 0.74707 0.71146 0.47733
 C1892 C 0.74839 0.75469 0.45211
 C1893 C 0.74616 0.79864 0.47679
 C1894 C 0.74609 0.79864 0.52531
 C1895 C 0.74816 0.75468 0.55011
 C1896 C 0.74689 0.71145 0.52502
 C1897 C 0.76812 0.66772 0.52763
 C1898 C 0.76847 0.66787 0.47528
 H1899 H 0.74558 0.83307 0.45881
 H1900 H 0.74557 0.83305 0.54320
 H1901 H 0.75527 0.63593 0.54250
 H1902 H 0.79214 0.67560 0.54317
 H1903 H 0.75599 0.63604 0.45998
 H1904 H 0.79266 0.67621 0.46050
 C1905 C 0.63299 0.59035 0.59417
 C1906 C 0.60020 0.59924 0.60286
 C1907 C 0.59250 0.62700 0.64226
 C1908 C 0.61701 0.64921 0.66853
 C1909 C 0.64987 0.64414 0.65613
 C1910 C 0.65715 0.61231 0.61998
 C1911 C 0.67829 0.61939 0.57876
 C1912 C 0.65180 0.59546 0.55048
 H1913 H 0.56752 0.63274 0.65219
 H1914 H 0.61009 0.67174 0.69744
 H1915 H 0.70078 0.59737 0.58078
 H1916 H 0.68202 0.65830 0.57010
 H1917 H 0.65907 0.55972 0.53614
 H1918 H 0.64006 0.62054 0.52552
 C1919 C 0.86711 0.90856 0.59261
 C1920 C 0.89990 0.89903 0.60061
 C1921 C 0.90777 0.87002 0.63916
 C1922 C 0.88338 0.84741 0.66531
 C1923 C 0.85048 0.85331 0.65364
 C1924 C 0.84304 0.88620 0.61836
 C1925 C 0.82160 0.88032 0.57736
 C1926 C 0.84800 0.90467 0.54913
 H1927 H 0.93278 0.86366 0.64853
 H1928 H 0.89043 0.82407 0.69363
 H1929 H 0.79921 0.90249 0.58013
 H1930 H 0.81765 0.84165 0.56804
 H1931 H 0.84080 0.94081 0.53554
 H1932 H 0.85948 0.88006 0.52358
 C1933 C 0.86783 0.60005 0.58442
 C1934 C 0.90058 0.60868 0.59376
 C1935 C 0.90801 0.64616 0.62506
 C1936 C 0.88333 0.66954 0.64999
 C1937 C 0.85063 0.65595 0.64427
 C1938 C 0.84350 0.62313 0.60895
 C1939 C 0.82269 0.57889 0.60925
 C1940 C 0.84936 0.55358 0.58231
 H1941 H 0.93291 0.65592 0.63203
 H1942 H 0.89007 0.69673 0.67509
 H1943 H 0.80016 0.58405 0.58894
 H1944 H 0.81912 0.56383 0.64447
 H1945 H 0.84216 0.54425 0.54649
 H1946 H 0.86125 0.52377 0.60187
 C1947 C 0.63267 0.90616 0.59391
 C1948 C 0.59991 0.89622 0.59977
 C1949 C 0.59209 0.86339 0.63577
 C1950 C 0.61662 0.84212 0.66333
 C1951 C 0.64972 0.85319 0.65587
 C1952 C 0.65618 0.88598 0.62047
 C1953 C 0.68277 0.91112 0.59533
 C1954 C 0.65608 0.93436 0.56551
 H1955 H 0.56713 0.85414 0.64293
 H1956 H 0.60956 0.81682 0.69009
 H1957 H 0.69841 0.88538 0.57606
 H1958 H 0.69579 0.93752 0.61751
 H1959 H 0.65647 0.92225 0.52899
 H1960 H 0.65353 0.97410 0.57076
 C1961 C 0.86795 0.59616 0.91348
 C1962 C 0.90072 0.60620 0.90575
 C1963 C 0.90825 0.64384 0.87451
 C1964 C 0.88376 0.66631 0.84839
 C1965 C 0.85120 0.65157 0.85284
 C1966 C 0.84384 0.61836 0.88782
 C1967 C 0.82392 0.57326 0.88627
 C1968 C 0.85036 0.54889 0.91437
 H1969 H 0.93312 0.65455 0.86865
 H1970 H 0.89057 0.69393 0.82365
 H1971 H 0.82152 0.55839 0.85083
 H1972 H 0.80079 0.57728 0.90549
 H1973 H 0.86333 0.51981 0.89528
 H1974 H 0.84239 0.53894 0.94969
 C1975 C 0.59386 0.85807 0.87443
 C1976 C 0.60077 0.89215 0.90907
 C1977 C 0.63398 0.89955 0.91945
 C1978 C 0.65853 0.87758 0.89295
 C1979 C 0.65086 0.84759 0.85514
 C1980 C 0.61815 0.83641 0.84845
 C1981 C 0.59839 0.83769 0.80545
 C1982 C 0.57183 0.86156 0.83370
 H1983 H 0.64130 0.92364 0.94701
 H1984 H 0.68352 0.88540 0.90136
 H1985 H 0.59190 0.80072 0.79338
 H1986 H 0.60885 0.86192 0.77862
 H1987 H 0.54998 0.83843 0.83768
 H1988 H 0.56697 0.89972 0.82334
 C1989 C 0.63285 0.58632 0.90427
 C1990 C 0.60076 0.60174 0.90397
 C1991 C 0.59361 0.64165 0.87489
 C1992 C 0.61802 0.66360 0.84770
 C1993 C 0.65030 0.64617 0.84868
 C1994 C 0.65624 0.60731 0.87812
 C1995 C 0.68154 0.57205 0.89270
 C1996 C 0.65491 0.54785 0.92196
 H1997 H 0.56921 0.65582 0.87279
 H1998 H 0.61153 0.69422 0.82620
 H1999 H 0.70090 0.58942 0.91352
 H2000 H 0.69007 0.54913 0.86365
 H2001 H 0.65907 0.55078 0.95962
 H2002 H 0.64800 0.51119 0.90950
 C2003 C 0.86873 0.89292 0.91862
 C2004 C 0.90153 0.88536 0.90909
 C2005 C 0.90930 0.84781 0.87791
 C2006 C 0.88478 0.82372 0.85307
 C2007 C 0.85194 0.83644 0.85914
 C2008 C 0.84447 0.86847 0.89489
 C2009 C 0.82327 0.91210 0.89299
 C2010 C 0.85042 0.93922 0.91635
 H2011 H 0.93431 0.83895 0.87058
 H2012 H 0.89171 0.79714 0.82747
 H2013 H 0.80144 0.90796 0.91506
 H2014 H 0.81846 0.92482 0.85724
 H2015 H 0.84398 0.95377 0.95082
 H2016 H 0.86287 0.96409 0.89214
   
