data_POSCAR
  _audit_creation_date              2014-09-24
  _audit_creation_method            'ToBaCCo'
  _symmetry_space_group_name_H-M    'P1'
  _symmetry_Int_Tables_number       1
  _symmetry_cell_setting            triclinic
  loop_
  _symmetry_equiv_pos_as_xyz
 x,y,z
_cell_length_a 70.5205
_cell_length_b 70.5842
_cell_length_c 70.5007
_cell_angle_alpha 89.839300
_cell_angle_beta 89.839600
_cell_angle_gamma 90.086900
loop_
  _atom_site_label
  _atom_site_type_symbol
  _atom_site_fract_x
  _atom_site_fract_y
  _atom_site_fract_z
N1 N 0.20862 0.20925 0.20974
 N2 N 0.70887 0.70940 0.70810
 N3 N 0.29004 0.79015 0.70967
 N4 N 0.78944 0.29095 0.20774
 N5 N 0.79092 0.70926 0.29048
 N6 N 0.28920 0.20809 -0.20935
 N7 N 0.71077 0.29016 -0.20914
 N8 N 0.21221 0.79073 0.29129
 N9 N 0.46087 0.45948 0.46113
 N10 N -0.04078 -0.04293 0.96042
 N11 N 1.04036 0.54023 0.95959
 N12 N 0.54071 0.04251 0.45872
 N13 N -0.04142 0.04046 0.54008
 N14 N 0.45720 0.54059 0.04101
 N15 N 0.54027 -0.04078 0.03899
 N16 N 1.04009 0.45919 0.53979
 C17 C 0.40590 0.00969 0.22431
 H18 H 0.40785 0.02158 0.23376
 C19 C 0.41816 0.00717 0.20894
 H20 H 0.42947 0.01729 0.20650
 C21 C 0.38877 -0.01800 0.21606
 H22 H 0.37749 -0.02793 0.21903
 C23 C 0.40057 -0.02093 0.20040
 H24 H 0.39826 -0.03316 0.19146
 N25 N 0.39152 -0.00278 0.22754
 C26 C 0.34615 0.02581 0.25810
 H27 H 0.34480 0.01668 0.27038
 C28 C 0.33368 0.04095 0.25566
 H29 H 0.32264 0.04330 0.26609
 C30 C 0.36182 0.03333 0.22926
 H31 H 0.37270 0.03022 0.21893
 C32 C 0.34966 0.04864 0.22626
 H33 H 0.35157 0.05737 0.21375
 Zn34 Zn 0.37595 0.00124 0.24905
 N35 N 0.35996 0.02237 0.24506
 C36 C 0.39005 0.02132 0.28092
 N37 N 0.39205 0.00554 0.27008
 C38 C 0.40605 -0.00723 0.27355
 C39 C 0.41849 -0.00458 0.28870
 C40 C 0.40216 0.02452 0.29622
 C41 C 0.34573 -0.02323 0.24118
 C42 C 0.33345 -0.03854 0.24388
 C43 C 0.35116 -0.04716 0.27189
 C44 C 0.36299 -0.03158 0.26876
 N45 N 0.36023 -0.02011 0.25347
 H46 H 0.37908 0.03149 0.27776
 H47 H 0.40756 -0.01948 0.26448
 H48 H 0.42963 -0.01483 0.29112
 H49 H 0.40009 0.03699 0.30488
 H50 H 0.34373 -0.01377 0.22926
 H51 H 0.32210 -0.04093 0.23386
 H52 H 0.35351 -0.05611 0.28416
 H53 H 0.37431 -0.02867 0.27860
 C54 C 0.33535 0.05263 0.23956
 C55 C 0.41552 -0.00828 0.19673
 C56 C 0.33616 -0.05078 0.25936
 C57 C 0.41660 0.01145 0.30030
 C58 C 0.09462 -0.01015 0.72389
 H59 H 0.09367 -0.02291 0.73237
 C60 C 0.08235 -0.00749 0.70860
 H61 H 0.07188 -0.01827 0.70545
 C62 C 0.10906 0.01966 0.71814
 H63 H 0.11935 0.03031 0.72201
 C64 C 0.09702 0.02293 0.70279
 H65 H 0.09843 0.03597 0.69477
 N66 N 0.10779 0.00324 0.72821
 C67 C 0.15317 -0.02605 0.75821
 H68 H 0.15423 -0.01731 0.77074
 C69 C 0.16565 -0.04118 0.75565
 H70 H 0.17639 -0.04389 0.76626
 C71 C 0.13828 -0.03261 0.72887
 H72 H 0.12776 -0.02911 0.71834
 C73 C 0.15044 -0.04789 0.72576
 H74 H 0.14882 -0.05622 0.71299
 Zn75 Zn 0.12362 -0.00117 0.74941
 N76 N 0.13970 -0.02219 0.74500
 C77 C 0.10941 -0.02183 0.78113
 N78 N 0.10767 -0.00577 0.77058
 C79 C 0.09398 0.00721 0.77445
 C80 C 0.08159 0.00449 0.78970
 C81 C 0.09736 -0.02510 0.79655
 C82 C 0.15304 0.02400 0.74075
 C83 C 0.16538 0.03925 0.74335
 C84 C 0.14948 0.04614 0.77293
 C85 C 0.13751 0.03068 0.76982
 N86 N 0.13936 0.02010 0.75382
 H87 H 0.12012 -0.03217 0.77764
 H88 H 0.09269 0.01970 0.76561
 H89 H 0.07068 0.01492 0.79241
 H90 H 0.09923 -0.03779 0.80498
 H91 H 0.15433 0.01522 0.72826
 H92 H 0.17604 0.04227 0.73267
 H93 H 0.14789 0.05434 0.78579
 H94 H 0.12685 0.02712 0.78026
 C95 C 0.16434 -0.05238 0.73927
 C96 C 0.08347 0.00923 0.69781
 C97 C 0.16364 0.05058 0.75960
 C98 C 0.08322 -0.01182 0.80104
 C99 C 0.59431 0.49104 0.22483
 H100 H 0.59401 0.47817 0.23320
 C101 C 0.58137 0.49352 0.21007
 H102 H 0.57107 0.48250 0.20726
 C103 C 0.60768 0.52128 0.21890
 H104 H 0.61767 0.53226 0.22257
 C105 C 0.59507 0.52433 0.20398
 H106 H 0.59593 0.53745 0.19603
 N107 N 0.60732 0.50470 0.22877
 C108 C 0.65354 0.47493 0.25707
 H109 H 0.65487 0.48353 0.26968
 C110 C 0.66580 0.45970 0.25420
 H111 H 0.67665 0.45677 0.26464
 C112 C 0.63814 0.46883 0.22789
 H113 H 0.62751 0.47256 0.21755
 C114 C 0.65009 0.45344 0.22446
 H115 H 0.64820 0.44524 0.21165
 Zn116 Zn 0.62414 0.50013 0.24922
 N117 N 0.63991 0.47907 0.24411
 C118 C 0.61054 0.47922 0.28116
 N119 N 0.60905 0.49555 0.27098
 C120 C 0.59609 0.50902 0.27563
 C121 C 0.58408 0.50643 0.29119
 C122 C 0.59890 0.47611 0.29693
 C123 C 0.65154 0.52722 0.23890
 C124 C 0.66372 0.54262 0.24138
 C125 C 0.65340 0.54458 0.27400
 C126 C 0.64108 0.52943 0.27075
 N127 N 0.64023 0.52122 0.25336
 H128 H 0.62063 0.46850 0.27701
 H129 H 0.59510 0.52179 0.26717
 H130 H 0.57396 0.51738 0.29477
 H131 H 0.60015 0.46298 0.30480
 H132 H 0.65091 0.52016 0.22532
 H133 H 0.67199 0.54753 0.22939
 H134 H 0.65412 0.55050 0.28812
 H135 H 0.63247 0.52404 0.28226
 C136 C 0.66412 0.44865 0.23775
 C137 C 0.58172 0.51031 0.19932
 C138 C 0.66485 0.55156 0.25916
 C139 C 0.58542 0.48981 0.30207
 C140 C 0.90477 0.50943 0.72486
 H141 H 0.90626 0.52177 0.73380
 C142 C 0.91711 0.50676 0.70958
 H143 H 0.92818 0.51709 0.70695
 C144 C 0.88891 0.48065 0.71797
 H145 H 0.87804 0.47040 0.72138
 C146 C 0.90090 0.47745 0.70252
 H147 H 0.89882 0.46490 0.69399
 N148 N 0.89092 0.49654 0.72866
 C149 C 0.84557 0.52596 0.75861
 H150 H 0.84417 0.51705 0.77105
 C151 C 0.83326 0.54121 0.75598
 H152 H 0.82231 0.54385 0.76642
 C153 C 0.86117 0.53282 0.72958
 H154 H 0.87193 0.52941 0.71922
 C155 C 0.84920 0.54824 0.72640
 H156 H 0.85116 0.55674 0.71374
 Zn157 Zn 0.87508 0.50093 0.74993
 N158 N 0.85929 0.52216 0.74558
 C159 C 0.88923 0.52115 0.78175
 N160 N 0.89101 0.50523 0.77107
 C161 C 0.90471 0.49221 0.77479
 C162 C 0.91709 0.49476 0.78999
 C163 C 0.90128 0.52425 0.79712
 C164 C 0.84527 0.47615 0.74151
 C165 C 0.83292 0.46089 0.74413
 C166 C 0.84912 0.45344 0.77336
 C167 C 0.86110 0.46891 0.77023
 N168 N 0.85913 0.47976 0.75438
 H169 H 0.87850 0.53151 0.77839
 H170 H 0.90602 0.47984 0.76586
 H171 H 0.92801 0.48432 0.79258
 H172 H 0.89939 0.53684 0.80564
 H173 H 0.84388 0.48515 0.72914
 H174 H 0.82215 0.45807 0.73358
 H175 H 0.85084 0.44500 0.78609
 H176 H 0.87189 0.47224 0.78053
 C177 C 0.83500 0.55262 0.73970
 C178 C 0.91525 0.49060 0.69813
 C179 C 0.83482 0.44924 0.76019
 C180 C 0.91544 0.51095 0.80144
 C181 C 0.22473 0.40451 0.00775
 H182 H 0.23423 0.40628 0.01964
 C183 C 0.20951 0.41691 0.00532
 H184 H 0.20724 0.42814 0.01552
 C185 C 0.21619 0.38771 -0.02001
 H186 H 0.21899 0.37651 -0.03002
 C187 C 0.20070 0.39967 -0.02288
 H188 H 0.19171 0.39755 -0.03512
 N189 N 0.22772 0.39020 -0.00478
 C190 C 0.25774 0.34464 0.02408
 H191 H 0.26990 0.34303 0.01484
 C192 C 0.25520 0.33233 0.03942
 H193 H 0.26545 0.32119 0.04183
 C194 C 0.22926 0.36074 0.03166
 H195 H 0.21909 0.37172 0.02850
 C196 C 0.22618 0.34876 0.04716
 H197 H 0.21377 0.35090 0.05598
 Zn198 Zn 0.24899 0.37437 -0.00080
 N199 N 0.24493 0.35860 0.02059
 C200 C 0.28181 0.38782 0.01831
 N201 N 0.27033 0.39021 0.00302
 C202 C 0.27339 0.40445 -0.00967
 C203 C 0.28861 0.41689 -0.00733
 C204 C 0.29730 0.39982 0.02109
 C205 C 0.24015 0.34439 -0.02515
 C206 C 0.24256 0.33197 -0.04034
 C207 C 0.27135 0.34864 -0.04873
 C208 C 0.26844 0.36068 -0.03332
 N209 N 0.25293 0.35847 -0.02201
 H210 H 0.27895 0.37669 0.02846
 H211 H 0.26392 0.40614 -0.02160
 H212 H 0.29092 0.42807 -0.01763
 H213 H 0.30624 0.39779 0.03340
 H214 H 0.22806 0.34282 -0.01579
 H215 H 0.23211 0.32100 -0.04276
 H216 H 0.28385 0.35051 -0.05750
 H217 H 0.27864 0.37170 -0.03038
 C218 C 0.23925 0.33432 0.05122
 C219 C 0.19723 0.41451 -0.01012
 C220 C 0.25831 0.33405 -0.05240
 C221 C 0.30082 0.41460 0.00819
 C222 C 0.72671 0.09333 -0.00887
 H223 H 0.73645 0.09146 -0.02060
 C224 C 0.71139 0.08097 -0.00659
 H225 H 0.70928 0.06968 -0.01674
 C226 C 0.71768 0.11033 0.01864
 H227 H 0.72033 0.12159 0.02863
 C228 C 0.70207 0.09843 0.02134
 H229 H 0.69282 0.10066 0.03342
 N230 N 0.72951 0.10772 0.00361
 C231 C 0.76009 0.15338 -0.02478
 H232 H 0.77207 0.15501 -0.01536
 C233 C 0.75781 0.16577 -0.04008
 H234 H 0.76825 0.17678 -0.04251
 C235 C 0.73193 0.13701 -0.03299
 H236 H 0.72172 0.12598 -0.03002
 C237 C 0.72916 0.14902 -0.04850
 H238 H 0.71675 0.14711 -0.05731
 Zn239 Zn 0.75094 0.12350 -0.00017
 N240 N 0.74730 0.13928 -0.02160
 C241 C 0.78397 0.11001 -0.01897
 N242 N 0.77225 0.10762 -0.00379
 C243 C 0.77505 0.09337 0.00891
 C244 C 0.79024 0.08089 0.00670
 C245 C 0.79944 0.09797 -0.02162
 C246 C 0.74189 0.15347 0.02418
 C247 C 0.74421 0.16590 0.03937
 C248 C 0.77293 0.14932 0.04781
 C249 C 0.77010 0.13724 0.03241
 N250 N 0.75468 0.13940 0.02108
 H251 H 0.78133 0.12117 -0.02912
 H252 H 0.76540 0.09168 0.02076
 H253 H 0.79234 0.06970 0.01702
 H254 H 0.80857 0.10000 -0.03384
 H255 H 0.72988 0.15502 0.01479
 H256 H 0.73374 0.17685 0.04176
 H257 H 0.78539 0.14749 0.05657
 H258 H 0.78032 0.12625 0.02949
 C259 C 0.74219 0.16364 -0.05220
 C260 C 0.69880 0.08351 0.00863
 C261 C 0.75988 0.16388 0.05145
 C262 C 0.80269 0.08317 -0.00871
 C263 C 0.22598 0.59454 0.49166
 H264 H 0.23512 0.59328 0.47937
 C265 C 0.21068 0.58217 0.49398
 H266 H 0.20796 0.57153 0.48329
 C267 C 0.21845 0.61002 0.52049
 H268 H 0.22169 0.62067 0.53095
 C269 C 0.20294 0.59802 0.52332
 H270 H 0.19438 0.59958 0.53600
 N271 N 0.22948 0.60822 0.50473
 C272 C 0.25980 0.65393 0.47603
 H273 H 0.27207 0.65523 0.48512
 C274 C 0.25741 0.66644 0.46086
 H275 H 0.26786 0.67744 0.45845
 C276 C 0.23095 0.63841 0.46867
 H277 H 0.22056 0.62761 0.47187
 C278 C 0.22801 0.65059 0.45332
 H279 H 0.21550 0.64873 0.44464
 Zn280 Zn 0.25076 0.62415 0.50075
 N281 N 0.24675 0.64016 0.47955
 C282 C 0.28308 0.61040 0.48090
 N283 N 0.27205 0.60837 0.49664
 C284 C 0.27555 0.59453 0.50962
 C285 C 0.29085 0.58223 0.50720
 C286 C 0.29860 0.59849 0.47797
 C287 C 0.24168 0.65358 0.52567
 C288 C 0.24406 0.66590 0.54094
 C289 C 0.27344 0.65002 0.54841
 C290 C 0.27053 0.63805 0.53295
 N291 N 0.25475 0.63990 0.52207
 H292 H 0.27984 0.62118 0.47052
 H293 H 0.26641 0.59308 0.52189
 H294 H 0.29357 0.57146 0.51781
 H295 H 0.30715 0.60023 0.46531
 H296 H 0.22937 0.65489 0.51663
 H297 H 0.23337 0.67654 0.54373
 H298 H 0.28616 0.64844 0.55683
 H299 H 0.28099 0.62740 0.52962
 C300 C 0.24134 0.66485 0.44923
 C301 C 0.19888 0.58388 0.50996
 C302 C 0.26010 0.66417 0.55257
 C303 C 0.30265 0.58418 0.49123
 C304 C 0.72430 0.90527 0.50781
 H305 H 0.73327 0.90637 0.52019
 C306 C 0.70925 0.91787 0.50537
 H307 H 0.70680 0.92873 0.51591
 C308 C 0.71714 0.89020 0.47871
 H309 H 0.72038 0.87956 0.46823
 C310 C 0.70194 0.90248 0.47571
 H311 H 0.69341 0.90085 0.46308
 N312 N 0.72784 0.89166 0.49467
 C313 C 0.75708 0.84519 0.52296
 H314 H 0.76914 0.84357 0.51359
 C315 C 0.75452 0.83269 0.53814
 H316 H 0.76478 0.82155 0.54052
 C317 C 0.72904 0.86174 0.53122
 H318 H 0.71897 0.87287 0.52831
 C319 C 0.72603 0.84968 0.54667
 H320 H 0.71364 0.85166 0.55555
 Zn321 Zn 0.74884 0.87546 0.49871
 N322 N 0.74449 0.85944 0.51986
 C323 C 0.78111 0.88882 0.51875
 N324 N 0.77028 0.89101 0.50295
 C325 C 0.77404 0.90490 0.49008
 C326 C 0.78936 0.91716 0.49271
 C327 C 0.79663 0.90070 0.52189
 C328 C 0.73949 0.84643 0.47340
 C329 C 0.74180 0.83429 0.45797
 C330 C 0.77172 0.84959 0.45106
 C331 C 0.76884 0.86142 0.46664
 N332 N 0.75283 0.85978 0.47732
 H333 H 0.77767 0.87796 0.52902
 H334 H 0.76506 0.90646 0.47775
 H335 H 0.79225 0.92800 0.48219
 H336 H 0.80499 0.89887 0.53462
 H337 H 0.72700 0.84528 0.48228
 H338 H 0.73087 0.82397 0.45490
 H339 H 0.78463 0.85099 0.44284
 H340 H 0.77950 0.87180 0.47024
 C341 C 0.73887 0.83493 0.55028
 C342 C 0.69781 0.91655 0.48915
 C343 C 0.75807 0.83582 0.44652
 C344 C 0.80090 0.91512 0.50878
 C345 C 0.00666 0.22571 0.40398
 H346 H 0.01903 0.23471 0.40525
 C347 C 0.00419 0.21043 0.41635
 H348 H 0.01485 0.20759 0.42700
 C349 C -0.02220 0.21849 0.38843
 H350 H -0.03260 0.22184 0.37774
 C351 C -0.02518 0.20300 0.40044
 H352 H -0.03792 0.19458 0.39885
 N353 N -0.00635 0.22934 0.39025
 C354 C 0.02311 0.25920 0.34465
 H355 H 0.01427 0.27164 0.34328
 C356 C 0.03841 0.25657 0.33232
 H357 H 0.04115 0.26701 0.32138
 C358 C 0.02977 0.23018 0.36021
 H359 H 0.02626 0.21981 0.37095
 C360 C 0.04521 0.22699 0.34820
 H361 H 0.05363 0.21433 0.35014
 Zn362 Zn -0.00203 0.25053 0.37427
 N363 N 0.01920 0.24618 0.35837
 C364 C 0.01820 0.28251 0.38815
 N365 N 0.00229 0.27174 0.39007
 C366 C -0.01072 0.27542 0.40385
 C367 C -0.00814 0.29063 0.41620
 C368 C 0.02129 0.29792 0.40012
 C369 C -0.02703 0.24176 0.34478
 C370 C -0.04225 0.24435 0.33242
 C371 C -0.04919 0.27395 0.34807
 C372 C -0.03382 0.27081 0.36011
 N373 N -0.02322 0.25482 0.35839
 H374 H 0.02860 0.27912 0.37742
 H375 H -0.02314 0.26649 0.40521
 H376 H -0.01877 0.29348 0.42693
 H377 H 0.03410 0.30625 0.39847
 H378 H -0.01816 0.22934 0.34351
 H379 H -0.04491 0.23387 0.32155
 H380 H -0.05765 0.28661 0.34989
 H381 H -0.03039 0.28120 0.37078
 C382 C 0.04973 0.24029 0.33403
 C383 C -0.01187 0.19879 0.41460
 C384 C -0.05360 0.26061 0.33399
 C385 C 0.00802 0.30215 0.41437
 C386 C -0.00675 0.72325 0.09778
 H387 H -0.01928 0.73204 0.09682
 C388 C -0.00441 0.70802 0.08541
 H389 H -0.01516 0.70529 0.07483
 C390 C 0.02276 0.71670 0.11236
 H391 H 0.03342 0.72024 0.12273
 C392 C 0.02566 0.70130 0.10031
 H393 H 0.03841 0.69292 0.10185
 N394 N 0.00667 0.72720 0.11101
 C395 C -0.02254 0.75752 0.15626
 H396 H -0.01412 0.77034 0.15688
 C397 C -0.03766 0.75494 0.16883
 H398 H -0.04079 0.76582 0.17917
 C399 C -0.02830 0.72755 0.14234
 H400 H -0.02449 0.71682 0.13213
 C401 C -0.04346 0.72433 0.15471
 H402 H -0.05142 0.71125 0.15365
 Zn403 Zn 0.00256 0.74844 0.12682
 N404 N -0.01833 0.74404 0.14318
 C405 C -0.01816 0.78001 0.11260
 N406 N -0.00209 0.76953 0.11081
 C407 C 0.01089 0.77339 0.09702
 C408 C 0.00817 0.78859 0.08460
 C409 C -0.02140 0.79540 0.10055
 C410 C 0.02809 0.73989 0.15587
 C411 C 0.04346 0.74259 0.16800
 C412 C 0.05003 0.77227 0.15213
 C413 C 0.03449 0.76902 0.14033
 N414 N 0.02400 0.75294 0.14227
 H415 H -0.02858 0.77644 0.12327
 H416 H 0.02342 0.76466 0.09574
 H417 H 0.01880 0.79162 0.07391
 H418 H -0.03432 0.80353 0.10212
 H419 H 0.01930 0.72739 0.15732
 H420 H 0.04632 0.73213 0.17888
 H421 H 0.05838 0.78500 0.15013
 H422 H 0.03083 0.77941 0.12969
 C423 C -0.04837 0.73817 0.16812
 C424 C 0.01197 0.69677 0.08660
 C425 C 0.05470 0.75895 0.16620
 C426 C -0.00812 0.79988 0.08635
 C427 C 0.49166 0.22510 0.59694
 H428 H 0.47932 0.23410 0.59572
 C429 C 0.49417 0.21004 0.58438
 H430 H 0.48371 0.20763 0.57343
 C431 C 0.52060 0.21784 0.61231
 H432 H 0.53098 0.22103 0.62307
 C433 C 0.52366 0.20262 0.60008
 H434 H 0.53624 0.19403 0.60184
 N435 N 0.50471 0.22860 0.61066
 C436 C 0.47558 0.25809 0.65650
 H437 H 0.48459 0.27041 0.65797
 C438 C 0.46023 0.25547 0.66878
 H439 H 0.45735 0.26598 0.67957
 C440 C 0.46840 0.22945 0.64057
 H441 H 0.47179 0.21918 0.62977
 C442 C 0.45284 0.22633 0.65247
 H443 H 0.44441 0.21363 0.65069
 Zn444 Zn 0.50052 0.24964 0.62673
 N445 N 0.47926 0.24525 0.64262
 C446 C 0.48059 0.28190 0.61305
 N447 N 0.49634 0.27099 0.61099
 C448 C 0.50928 0.27461 0.59710
 C449 C 0.50680 0.28991 0.58477
 C450 C 0.47760 0.29741 0.60109
 C451 C 0.52548 0.24063 0.65623
 C452 C 0.54081 0.24306 0.66848
 C453 C 0.54816 0.27251 0.65250
 C454 C 0.53263 0.26957 0.64062
 N455 N 0.52179 0.25372 0.64254
 H456 H 0.47024 0.27857 0.62387
 H457 H 0.52156 0.26556 0.59564
 H458 H 0.51737 0.29271 0.57395
 H459 H 0.46492 0.30587 0.60285
 H460 H 0.51649 0.22827 0.65758
 H461 H 0.54369 0.23237 0.67913
 H462 H 0.55656 0.28526 0.65085
 H463 H 0.52924 0.28002 0.62996
 C464 C 0.44857 0.23945 0.66678
 C465 C 0.51033 0.19853 0.58588
 C466 C 0.55243 0.25914 0.66664
 C467 C 0.49081 0.30158 0.58673
 C468 C 0.50842 0.72491 0.90448
 H469 H 0.52077 0.73391 0.90581
 C470 C 0.50581 0.70972 0.91696
 H471 H 0.51619 0.70723 0.92797
 C472 C 0.47956 0.71778 0.88892
 H473 H 0.46924 0.72106 0.87812
 C474 C 0.47641 0.70242 0.90105
 H475 H 0.46383 0.69383 0.89916
 N476 N 0.49545 0.72855 0.89071
 C477 C 0.52430 0.75836 0.84469
 H478 H 0.51524 0.77063 0.84324
 C479 C 0.53947 0.75578 0.83220
 H480 H 0.54217 0.76628 0.82129
 C481 C 0.53173 0.72978 0.86072
 H482 H 0.52850 0.71951 0.87163
 C483 C 0.54710 0.72668 0.84859
 H484 H 0.55555 0.71400 0.85032
 Zn485 Zn 0.49967 0.74976 0.87473
 N486 N 0.52082 0.74553 0.85870
 C487 C 0.51928 0.78244 0.88791
 N488 N 0.50393 0.77101 0.89049
 C489 C 0.49139 0.77410 0.90485
 C490 C 0.49394 0.78932 0.91720
 C491 C 0.52224 0.79795 0.89981
 C492 C 0.47464 0.74110 0.84523
 C493 C 0.45932 0.74369 0.83300
 C494 C 0.45209 0.77295 0.84916
 C495 C 0.46756 0.76981 0.86108
 N496 N 0.47836 0.75400 0.85903
 H497 H 0.52929 0.77957 0.87667
 H498 H 0.47941 0.76468 0.90669
 H499 H 0.48374 0.79167 0.92846
 H500 H 0.53456 0.80688 0.89760
 H501 H 0.48366 0.72881 0.84372
 H502 H 0.45673 0.73336 0.82198
 H503 H 0.44347 0.78546 0.85124
 H504 H 0.47090 0.78004 0.87193
 C505 C 0.55115 0.73979 0.83411
 C506 C 0.48963 0.69821 0.91533
 C507 C 0.44778 0.75978 0.83489
 C508 C 0.50949 0.80151 0.91469
 C509 C 0.16162 0.21853 0.24679
 C510 C 0.16607 0.20016 0.24057
 C511 C 0.18152 0.19711 0.22851
 C512 C 0.19278 0.21237 0.22237
 C513 C 0.18837 0.23073 0.22858
 C514 C 0.17296 0.23378 0.24070
 C515 C 0.14516 0.22178 0.25954
 C516 C 0.14656 0.23443 0.27483
 C517 C 0.13107 0.23746 0.28685
 C518 C 0.11381 0.22796 0.28381
 C519 C 0.11241 0.21535 0.26847
 C520 C 0.12792 0.21228 0.25649
 C521 C 0.09735 0.23115 0.29661
 C522 C 0.08560 0.21598 0.30210
 C523 C 0.07015 0.21895 0.31417
 C524 C 0.06609 0.23716 0.32109
 C525 C 0.07782 0.25234 0.31558
 C526 C 0.09326 0.24937 0.30348
 H527 H 0.15771 0.18811 0.24518
 H528 H 0.18461 0.18285 0.22382
 H529 H 0.19692 0.24268 0.22408
 H530 H 0.16977 0.24811 0.24510
 H531 H 0.15975 0.24174 0.27769
 H532 H 0.13271 0.24702 0.29871
 H533 H 0.09923 0.20806 0.26555
 H534 H 0.12633 0.20268 0.24465
 H535 H 0.08848 0.20173 0.29722
 H536 H 0.06127 0.20699 0.31795
 H537 H 0.07520 0.26651 0.32081
 H538 H 0.10190 0.26140 0.29936
 C539 C 0.66178 0.71837 0.74517
 C540 C 0.67274 0.73375 0.73866
 C541 C 0.68812 0.73080 0.72649
 C542 C 0.69292 0.71243 0.72062
 C543 C 0.68199 0.69706 0.72707
 C544 C 0.66657 0.69999 0.73920
 C545 C 0.64546 0.72150 0.75817
 C546 C 0.64181 0.70887 0.77320
 C547 C 0.62650 0.71184 0.78546
 C548 C 0.61450 0.72754 0.78302
 C549 C 0.61814 0.74016 0.76799
 C550 C 0.63342 0.73717 0.75570
 C551 C 0.59826 0.73073 0.79612
 C552 C 0.58081 0.73737 0.78920
 C553 C 0.56555 0.74037 0.80152
 C554 C 0.56738 0.73673 0.82103
 C555 C 0.58481 0.73010 0.82796
 C556 C 0.60009 0.72717 0.81566
 H557 H 0.66962 0.74804 0.74322
 H558 H 0.69646 0.74284 0.72183
 H559 H 0.68530 0.68279 0.72255
 H560 H 0.65824 0.68788 0.74370
 H561 H 0.65093 0.69678 0.77563
 H562 H 0.62397 0.70173 0.79676
 H563 H 0.60930 0.75250 0.76583
 H564 H 0.63571 0.74705 0.74414
 H565 H 0.57883 0.73996 0.77419
 H566 H 0.55220 0.74522 0.79572
 H567 H 0.58673 0.72744 0.84297
 H568 H 0.61344 0.72236 0.82150
 C569 C 0.33667 0.78103 0.74706
 C570 C 0.32554 0.76572 0.74084
 C571 C 0.31028 0.76872 0.72860
 C572 C 0.30580 0.78707 0.72235
 C573 C 0.31687 0.80238 0.72856
 C574 C 0.33215 0.79940 0.74077
 C575 C 0.35295 0.77785 0.76002
 C576 C 0.35672 0.79058 0.77485
 C577 C 0.37207 0.78764 0.78699
 C578 C 0.38398 0.77187 0.78461
 C579 C 0.38020 0.75912 0.76982
 C580 C 0.36487 0.76208 0.75765
 C581 C 0.40031 0.76877 0.79749
 C582 C 0.40457 0.75052 0.80424
 C583 C 0.41994 0.74761 0.81637
 C584 C 0.43143 0.76287 0.82200
 C585 C 0.42717 0.78112 0.81521
 C586 C 0.41178 0.78404 0.80312
 H587 H 0.32847 0.75145 0.74564
 H588 H 0.30181 0.75673 0.72414
 H589 H 0.31379 0.81663 0.72376
 H590 H 0.34062 0.81145 0.74506
 H591 H 0.34762 0.80269 0.77725
 H592 H 0.37446 0.79755 0.79843
 H593 H 0.38929 0.74700 0.76747
 H594 H 0.36254 0.75219 0.74619
 H595 H 0.39583 0.73852 0.80037
 H596 H 0.42265 0.73343 0.82159
 H597 H 0.43593 0.79313 0.81901
 H598 H 0.40902 0.79822 0.79791
 C599 C -0.16415 0.28186 0.24542
 C600 C -0.16853 0.30020 0.23895
 C601 C -0.18375 0.30317 0.22665
 C602 C -0.19488 0.28788 0.22052
 C603 C -0.19055 0.26955 0.22696
 C604 C -0.17535 0.26657 0.23928
 C605 C -0.14794 0.27869 0.25847
 C606 C -0.13615 0.26279 0.25633
 C607 C -0.12090 0.25982 0.26860
 C608 C -0.11705 0.27271 0.28325
 C609 C -0.12883 0.28860 0.28540
 C610 C -0.14411 0.29155 0.27317
 C611 C -0.10080 0.26960 0.29623
 C612 C -0.08920 0.28482 0.30171
 C613 C -0.07389 0.28190 0.31391
 C614 C -0.06985 0.26370 0.32097
 C615 C -0.08148 0.24848 0.31548
 C616 C -0.09676 0.25139 0.30324
 H617 H -0.16001 0.31224 0.24316
 H618 H -0.18672 0.31739 0.22171
 H619 H -0.19907 0.25758 0.22256
 H620 H -0.17255 0.25231 0.24423
 H621 H -0.13852 0.25278 0.24497
 H622 H -0.11190 0.24759 0.26642
 H623 H -0.12639 0.29863 0.29674
 H624 H -0.15310 0.30376 0.27540
 H625 H -0.09178 0.29896 0.29631
 H626 H -0.06502 0.29387 0.31758
 H627 H -0.07895 0.23434 0.32090
 H628 H -0.10561 0.23944 0.29949
 C629 C -0.16067 0.71687 0.25485
 C630 C -0.15917 0.71912 0.27459
 C631 C -0.17501 0.71654 0.28628
 C632 C -0.19263 0.71160 0.27848
 C633 C -0.19406 0.70903 0.25879
 C634 C -0.17827 0.71171 0.24709
 C635 C -0.14401 0.72006 0.24234
 C636 C -0.14596 0.73014 0.22524
 C637 C -0.13031 0.73321 0.21344
 C638 C -0.11237 0.72617 0.21843
 C639 C -0.11041 0.71606 0.23551
 C640 C -0.12605 0.71309 0.24738
 C641 C -0.09580 0.72931 0.20578
 C642 C -0.08294 0.71457 0.20212
 C643 C -0.06754 0.71745 0.18992
 C644 C -0.06460 0.73516 0.18123
 C645 C -0.07736 0.74995 0.18504
 C646 C -0.09283 0.74704 0.19714
 H647 H -0.14582 0.72321 0.28095
 H648 H -0.17355 0.71840 0.30145
 H649 H -0.20749 0.70522 0.25245
 H650 H -0.17978 0.70963 0.23195
 H651 H -0.15959 0.73584 0.22109
 H652 H -0.13228 0.74089 0.20028
 H653 H -0.09672 0.71061 0.23978
 H654 H -0.12416 0.70515 0.26040
 H655 H -0.08496 0.70072 0.20846
 H656 H -0.05783 0.70585 0.18739
 H657 H -0.07554 0.76370 0.17842
 H658 H -0.10240 0.75871 0.19984
 C659 C 0.33646 0.21758 0.75384
 C660 C 0.33832 0.21987 0.77354
 C661 C 0.32287 0.21670 0.78559
 C662 C 0.30520 0.21129 0.77818
 C663 C 0.30332 0.20906 0.75848
 C664 C 0.31880 0.21212 0.74644
 C665 C 0.35290 0.22087 0.74105
 C666 C 0.35662 0.20845 0.72596
 C667 C 0.37213 0.21150 0.71396
 C668 C 0.38423 0.22710 0.71671
 C669 C 0.38046 0.23954 0.73180
 C670 C 0.36500 0.23644 0.74385
 C671 C 0.40071 0.23036 0.70391
 C672 C 0.41808 0.23693 0.71114
 C673 C 0.43358 0.23995 0.69910
 C674 C 0.43209 0.23640 0.67956
 C675 C 0.41475 0.22985 0.67231
 C676 C 0.39923 0.22691 0.68433
 H677 H 0.35182 0.22382 0.77966
 H678 H 0.32471 0.21832 0.80073
 H679 H 0.28979 0.20510 0.75243
 H680 H 0.31689 0.21049 0.73129
 H681 H 0.34770 0.19617 0.72364
 H682 H 0.37482 0.20146 0.70269
 H683 H 0.38931 0.25187 0.73412
 H684 H 0.36232 0.24640 0.75520
 H685 H 0.41980 0.23943 0.72619
 H686 H 0.44684 0.24475 0.70513
 H687 H 0.41310 0.22726 0.65727
 H688 H 0.38597 0.22217 0.67825
 C689 C 0.66389 0.28050 0.75391
 C690 C 0.66192 0.27796 0.77360
 C691 C 0.67725 0.28116 0.78569
 C692 C 0.69491 0.28686 0.77834
 C693 C 0.69691 0.28932 0.75866
 C694 C 0.68155 0.28623 0.74657
 C695 C 0.64757 0.27724 0.74108
 C696 C 0.64384 0.28983 0.72609
 C697 C 0.62844 0.28681 0.71405
 C698 C 0.61645 0.27108 0.71666
 C699 C 0.62022 0.25846 0.73165
 C700 C 0.63558 0.26153 0.74375
 C701 C 0.60007 0.26787 0.70382
 C702 C 0.58270 0.26108 0.71100
 C703 C 0.56729 0.25816 0.69893
 C704 C 0.56885 0.26204 0.67943
 C705 C 0.58619 0.26879 0.67224
 C706 C 0.60163 0.27163 0.68428
 H707 H 0.64842 0.27379 0.77968
 H708 H 0.67531 0.27936 0.80083
 H709 H 0.71043 0.29351 0.75265
 H710 H 0.68355 0.28806 0.73144
 H711 H 0.65268 0.30221 0.72387
 H712 H 0.62574 0.29699 0.70286
 H713 H 0.61146 0.24604 0.73387
 H714 H 0.63827 0.25145 0.75502
 H715 H 0.58092 0.25834 0.72602
 H716 H 0.55401 0.25320 0.70492
 H717 H 0.58790 0.27163 0.65723
 H718 H 0.61489 0.27654 0.67824
 C719 C 0.16573 0.78115 0.25389
 C720 C 0.17020 0.79958 0.25995
 C721 C 0.18547 0.80271 0.27213
 C722 C 0.19653 0.78749 0.27857
 C723 C 0.19211 0.76907 0.27251
 C724 C 0.17689 0.76593 0.26026
 C725 C 0.14946 0.77782 0.24101
 C726 C 0.15106 0.76513 0.22578
 C727 C 0.13574 0.76206 0.21362
 C728 C 0.11847 0.77157 0.21646
 C729 C 0.11688 0.78423 0.23175
 C730 C 0.13221 0.78734 0.24386
 C731 C 0.10217 0.76834 0.20353
 C732 C 0.09046 0.78347 0.19800
 C733 C 0.07509 0.78042 0.18592
 C734 C 0.07108 0.76219 0.17902
 C735 C 0.08282 0.74706 0.18452
 C736 C 0.09817 0.75010 0.19664
 H737 H 0.16199 0.81160 0.25511
 H738 H 0.18858 0.81702 0.27668
 H739 H 0.20052 0.75714 0.27723
 H740 H 0.17368 0.75156 0.25597
 H741 H 0.16426 0.75779 0.22308
 H742 H 0.13754 0.75246 0.20180
 H743 H 0.10367 0.79152 0.23454
 H744 H 0.13047 0.79699 0.25566
 H745 H 0.09328 0.79772 0.20288
 H746 H 0.06621 0.79234 0.18216
 H747 H 0.08025 0.73288 0.17930
 H748 H 0.10678 0.73810 0.20079
 C749 C 0.24588 0.16256 0.21896
 C750 C 0.23961 0.16704 0.20058
 C751 C 0.22741 0.18233 0.19757
 C752 C 0.22120 0.19342 0.21287
 C753 C 0.22741 0.18894 0.23125
 C754 C 0.23965 0.17368 0.23427
 C755 C 0.25891 0.14636 0.22214
 C756 C 0.27418 0.14798 0.23481
 C757 C 0.28653 0.13278 0.23768
 C758 C 0.28388 0.11561 0.22799
 C759 C 0.26855 0.11398 0.21538
 C760 C 0.25623 0.12919 0.21247
 C761 C 0.29706 0.09947 0.23097
 C762 C 0.30283 0.08816 0.21562
 C763 C 0.31523 0.07299 0.21841
 C764 C 0.32217 0.06877 0.23661
 C765 C 0.31641 0.08008 0.25195
 C766 C 0.30400 0.09525 0.24917
 H767 H 0.24432 0.15886 0.18849
 H768 H 0.22273 0.18547 0.18330
 H769 H 0.22285 0.19735 0.24323
 H770 H 0.24408 0.17045 0.24861
 H771 H 0.27677 0.16113 0.24225
 H772 H 0.29837 0.13460 0.24726
 H773 H 0.26592 0.10084 0.20794
 H774 H 0.24442 0.12742 0.20285
 H775 H 0.29791 0.09117 0.20140
 H776 H 0.31921 0.06443 0.20633
 H777 H 0.32166 0.07734 0.26611
 H778 H 0.29967 0.10356 0.26131
 C779 C 0.74671 0.66325 0.71779
 C780 C 0.74068 0.66774 0.69932
 C781 C 0.72834 0.68288 0.69616
 C782 C 0.72170 0.69382 0.71139
 C783 C 0.72771 0.68938 0.72984
 C784 C 0.74010 0.67427 0.73301
 C785 C 0.75980 0.64710 0.72115
 C786 C 0.75738 0.63519 0.73699
 C787 C 0.76963 0.61995 0.74008
 C788 C 0.78453 0.61623 0.72736
 C789 C 0.78698 0.62814 0.71154
 C790 C 0.77478 0.64342 0.70848
 C791 C 0.79744 0.59994 0.73054
 C792 C 0.80310 0.58844 0.71532
 C793 C 0.81523 0.57309 0.71829
 C794 C 0.82204 0.56892 0.73656
 C795 C 0.81637 0.58044 0.75179
 C796 C 0.80418 0.59575 0.74882
 H797 H 0.74526 0.65935 0.68732
 H798 H 0.72374 0.68593 0.68183
 H799 H 0.72294 0.69777 0.74177
 H800 H 0.74470 0.67139 0.74737
 H801 H 0.74581 0.63745 0.74685
 H802 H 0.76723 0.61085 0.75225
 H803 H 0.79851 0.62579 0.70165
 H804 H 0.77724 0.65251 0.69633
 H805 H 0.79790 0.59114 0.70113
 H806 H 0.81905 0.56430 0.70631
 H807 H 0.82159 0.57780 0.76597
 H808 H 0.80027 0.60452 0.76078
 C809 C 0.74750 0.33746 0.78145
 C810 C 0.72777 0.33932 0.77926
 C811 C 0.71576 0.32385 0.78238
 C812 C 0.72320 0.30616 0.78766
 C813 C 0.74290 0.30427 0.78981
 C814 C 0.75492 0.31975 0.78678
 C815 C 0.76029 0.35393 0.77821
 C816 C 0.77797 0.35152 0.76926
 C817 C 0.79004 0.36698 0.76631
 C818 C 0.78468 0.38522 0.77215
 C819 C 0.76699 0.38767 0.78103
 C820 C 0.75496 0.37220 0.78406
 C821 C 0.79751 0.40162 0.76906
 C822 C 0.79033 0.41903 0.76260
 C823 C 0.80244 0.43447 0.75965
 C824 C 0.82197 0.43285 0.76322
 C825 C 0.82914 0.41545 0.76973
 C826 C 0.81705 0.39998 0.77256
 H827 H 0.72162 0.35268 0.77494
 H828 H 0.70062 0.32569 0.78074
 H829 H 0.74898 0.29076 0.79378
 H830 H 0.77001 0.31789 0.78883
 H831 H 0.78238 0.33771 0.76427
 H832 H 0.80347 0.36471 0.75918
 H833 H 0.76260 0.40151 0.78593
 H834 H 0.74159 0.37450 0.79128
 H835 H 0.77536 0.42066 0.75963
 H836 H 0.79649 0.44775 0.75479
 H837 H 0.84414 0.41373 0.77244
 H838 H 0.82295 0.38679 0.77771
 C839 C 0.24919 -0.16236 0.28172
 C840 C 0.24196 -0.16607 0.29996
 C841 C 0.22995 -0.18153 0.30311
 C842 C 0.22479 -0.19344 0.28807
 C843 C 0.23195 -0.18972 0.26984
 C844 C 0.24411 -0.17438 0.26670
 C845 C 0.26196 -0.14598 0.27837
 C846 C 0.27842 -0.14802 0.26730
 C847 C 0.29050 -0.13259 0.26422
 C848 C 0.28625 -0.11478 0.27197
 C849 C 0.26972 -0.11272 0.28294
 C850 C 0.25775 -0.12819 0.28619
 C851 C 0.29903 -0.09840 0.26865
 C852 C 0.29159 -0.08059 0.26377
 C853 C 0.30365 -0.06516 0.26063
 C854 C 0.32337 -0.06719 0.26249
 C855 C 0.33081 -0.08498 0.26744
 C856 C 0.31876 -0.10046 0.27039
 H857 H 0.24578 -0.15713 0.31181
 H858 H 0.22450 -0.18413 0.31726
 H859 H 0.22818 -0.19880 0.25808
 H860 H 0.24935 -0.17174 0.25248
 H861 H 0.28207 -0.16161 0.26123
 H862 H 0.30308 -0.13453 0.25559
 H863 H 0.26619 -0.09917 0.28920
 H864 H 0.24506 -0.12620 0.29465
 H865 H 0.27644 -0.07866 0.26220
 H866 H 0.29754 -0.05157 0.25698
 H867 H 0.34596 -0.08696 0.26882
 H868 H 0.32485 -0.11399 0.27428
 C869 C 0.25275 -0.16311 0.71855
 C870 C 0.25879 -0.17431 0.73391
 C871 C 0.27101 -0.18960 0.73099
 C872 C 0.27741 -0.19405 0.71267
 C873 C 0.27139 -0.18291 0.69731
 C874 C 0.25920 -0.16759 0.70021
 C875 C 0.23977 -0.14683 0.72163
 C876 C 0.22516 -0.14291 0.70868
 C877 C 0.21299 -0.12756 0.71154
 C878 C 0.21512 -0.11582 0.72746
 C879 C 0.22969 -0.11975 0.74044
 C880 C 0.24190 -0.13505 0.73754
 C881 C 0.20218 -0.09954 0.73050
 C882 C 0.19501 -0.09557 0.74867
 C883 C 0.18275 -0.08029 0.75152
 C884 C 0.17743 -0.06860 0.73626
 C885 C 0.18468 -0.07254 0.71810
 C886 C 0.19688 -0.08786 0.71525
 H887 H 0.25385 -0.17143 0.74816
 H888 H 0.27534 -0.19812 0.74302
 H889 H 0.27631 -0.18597 0.68308
 H890 H 0.25507 -0.15908 0.68812
 H891 H 0.22293 -0.15189 0.69646
 H892 H 0.20172 -0.12506 0.70145
 H893 H 0.23184 -0.11078 0.75269
 H894 H 0.25320 -0.13749 0.74762
 H895 H 0.19863 -0.10448 0.76065
 H896 H 0.17718 -0.07783 0.76562
 H897 H 0.18113 -0.06362 0.70611
 H898 H 0.20241 -0.09040 0.70114
 C899 C 0.75207 0.33765 0.21634
 C900 C 0.75804 0.32650 0.23176
 C901 C 0.77031 0.31124 0.22894
 C902 C 0.77681 0.30677 0.21065
 C903 C 0.77085 0.31787 0.19523
 C904 C 0.75863 0.33318 0.19805
 C905 C 0.73905 0.35388 0.21934
 C906 C 0.74204 0.37113 0.20978
 C907 C 0.72984 0.38644 0.21269
 C908 C 0.71434 0.38484 0.22518
 C909 C 0.71133 0.36754 0.23468
 C910 C 0.72356 0.35226 0.23181
 C911 C 0.70142 0.40115 0.22836
 C912 C 0.69435 0.40505 0.24660
 C913 C 0.68224 0.42041 0.24962
 C914 C 0.67693 0.43227 0.23449
 C915 C 0.68400 0.42836 0.21625
 C916 C 0.69609 0.41298 0.21322
 H917 H 0.75338 0.32972 0.24604
 H918 H 0.77467 0.30281 0.24101
 H919 H 0.77576 0.31472 0.18102
 H920 H 0.75413 0.34140 0.18588
 H921 H 0.75401 0.37288 0.20028
 H922 H 0.73274 0.39965 0.20539
 H923 H 0.69934 0.36573 0.24414
 H924 H 0.72074 0.33905 0.23916
 H925 H 0.69834 0.39636 0.25861
 H926 H 0.67687 0.42288 0.26380
 H927 H 0.68036 0.43733 0.20432
 H928 H 0.70111 0.41024 0.19897
 C929 C 0.75368 0.66277 0.28078
 C930 C 0.77201 0.65982 0.28815
 C931 C 0.78430 0.67508 0.29108
 C932 C 0.77837 0.69358 0.28716
 C933 C 0.76014 0.69673 0.28005
 C934 C 0.74798 0.68147 0.27666
 C935 C 0.74061 0.64647 0.27746
 C936 C 0.72087 0.64859 0.27947
 C937 C 0.70863 0.63336 0.27622
 C938 C 0.71576 0.61542 0.27131
 C939 C 0.73551 0.61326 0.26948
 C940 C 0.74773 0.62859 0.27229
 C941 C 0.70270 0.59907 0.26816
 C942 C 0.70721 0.58486 0.25495
 C943 C 0.69510 0.56942 0.25219
 C944 C 0.67789 0.56794 0.26224
 C945 C 0.67328 0.58228 0.27529
 C946 C 0.68559 0.59748 0.27836
 H947 H 0.77684 0.64577 0.29193
 H948 H 0.79834 0.67255 0.29672
 H949 H 0.75551 0.71100 0.27687
 H950 H 0.73421 0.68436 0.27058
 H951 H 0.71478 0.66198 0.28374
 H952 H 0.69352 0.63577 0.27745
 H953 H 0.74166 0.59965 0.26606
 H954 H 0.76278 0.62639 0.27025
 H955 H 0.72004 0.58567 0.24654
 H956 H 0.69941 0.55857 0.24227
 H957 H 0.66005 0.58191 0.28309
 H958 H 0.68170 0.60789 0.28891
 C959 C 0.25192 0.16132 0.78115
 C960 C 0.27163 0.15927 0.77885
 C961 C 0.28382 0.17456 0.78198
 C962 C 0.27658 0.19227 0.78740
 C963 C 0.25690 0.19437 0.78965
 C964 C 0.24471 0.17906 0.78661
 C965 C 0.23895 0.14503 0.77791
 C966 C 0.22127 0.14773 0.76913
 C967 C 0.20904 0.13243 0.76617
 C968 C 0.21425 0.11406 0.77181
 C969 C 0.23193 0.11132 0.78052
 C970 C 0.24412 0.12663 0.78359
 C971 C 0.20128 0.09781 0.76864
 C972 C 0.20832 0.08047 0.76189
 C973 C 0.19609 0.06518 0.75887
 C974 C 0.17660 0.06685 0.76268
 C975 C 0.16957 0.08417 0.76949
 C976 C 0.18177 0.09951 0.77237
 H977 H 0.27763 0.14588 0.77441
 H978 H 0.29894 0.17256 0.78026
 H979 H 0.25098 0.20790 0.79373
 H980 H 0.22964 0.18107 0.78877
 H981 H 0.21698 0.16164 0.76428
 H982 H 0.19561 0.13491 0.75917
 H983 H 0.23620 0.09736 0.78526
 H984 H 0.25747 0.12410 0.79068
 H985 H 0.22326 0.07881 0.75874
 H986 H 0.20193 0.05195 0.75378
 H987 H 0.15459 0.08592 0.77239
 H988 H 0.17598 0.11266 0.77774
 C989 C 0.21794 0.24635 0.16272
 C990 C 0.19953 0.24016 0.16732
 C991 C 0.19648 0.22805 0.18275
 C992 C 0.21177 0.22185 0.19386
 C993 C 0.23016 0.22802 0.18928
 C994 C 0.23322 0.24017 0.17389
 C995 C 0.22118 0.25920 0.14632
 C996 C 0.23402 0.27438 0.14766
 C997 C 0.23700 0.28652 0.13223
 C998 C 0.22723 0.28373 0.11511
 C999 C 0.21443 0.26851 0.11376
 C1000 C 0.21142 0.25639 0.12920
 C1001 C 0.23033 0.29667 0.09873
 C1002 C 0.21502 0.30247 0.08740
 C1003 C 0.21791 0.31465 0.07201
 C1004 C 0.23619 0.32134 0.06758
 C1005 C 0.25150 0.31554 0.07890
 C1006 C 0.24861 0.30335 0.09430
 H1007 H 0.18745 0.24485 0.15912
 H1008 H 0.18219 0.22339 0.18596
 H1009 H 0.24215 0.22348 0.19771
 H1010 H 0.24758 0.24454 0.17058
 H1011 H 0.24153 0.27707 0.16075
 H1012 H 0.24672 0.29829 0.13382
 H1013 H 0.20692 0.26578 0.10067
 H1014 H 0.20167 0.24464 0.12764
 H1015 H 0.20074 0.29775 0.09056
 H1016 H 0.20585 0.31868 0.06344
 H1017 H 0.26572 0.32059 0.07599
 H1018 H 0.26073 0.29898 0.10263
 C1019 C 0.71800 0.74655 0.66118
 C1020 C 0.69987 0.73909 0.66485
 C1021 C 0.69686 0.72699 0.68029
 C1022 C 0.71196 0.72197 0.69222
 C1023 C 0.73010 0.72933 0.68851
 C1024 C 0.73308 0.74159 0.67319
 C1025 C 0.72117 0.75948 0.64487
 C1026 C 0.73192 0.77610 0.64706
 C1027 C 0.73478 0.78838 0.63172
 C1028 C 0.72712 0.78417 0.61385
 C1029 C 0.71647 0.76748 0.61163
 C1030 C 0.71344 0.75531 0.62702
 C1031 C 0.73018 0.79717 0.59757
 C1032 C 0.73528 0.79002 0.57969
 C1033 C 0.73822 0.80228 0.56437
 C1034 C 0.73591 0.82192 0.56656
 C1035 C 0.73073 0.82906 0.58442
 C1036 C 0.72799 0.81681 0.59980
 H1037 H 0.68798 0.74281 0.65591
 H1038 H 0.68279 0.72139 0.68289
 H1039 H 0.74190 0.72568 0.69760
 H1040 H 0.74723 0.74701 0.67058
 H1041 H 0.73791 0.77972 0.66071
 H1042 H 0.74316 0.80108 0.63378
 H1043 H 0.71029 0.76398 0.59804
 H1044 H 0.70523 0.74252 0.62492
 H1045 H 0.73719 0.77494 0.57764
 H1046 H 0.74206 0.79640 0.55072
 H1047 H 0.72900 0.84416 0.58653
 H1048 H 0.72392 0.82268 0.61339
 C1049 C 0.77947 0.74780 0.33568
 C1050 C 0.78739 0.75431 0.31854
 C1051 C 0.79101 0.74173 0.30369
 C1052 C 0.78689 0.72234 0.30569
 C1053 C 0.77878 0.71587 0.32276
 C1054 C 0.77513 0.72844 0.33758
 C1055 C 0.77596 0.76107 0.35161
 C1056 C 0.75939 0.75957 0.36264
 C1057 C 0.75627 0.77184 0.37785
 C1058 C 0.76966 0.78588 0.38239
 C1059 C 0.78617 0.78745 0.37128
 C1060 C 0.78928 0.77519 0.35606
 C1061 C 0.76650 0.79873 0.39875
 C1062 C 0.77127 0.81803 0.39748
 C1063 C 0.76849 0.83006 0.41295
 C1064 C 0.76088 0.82307 0.43004
 C1065 C 0.75604 0.80378 0.43128
 C1066 C 0.75883 0.79175 0.41582
 H1067 H 0.79060 0.76919 0.31653
 H1068 H 0.79695 0.74716 0.29058
 H1069 H 0.77556 0.70099 0.32475
 H1070 H 0.76925 0.72295 0.35070
 H1071 H 0.74873 0.74903 0.35938
 H1072 H 0.74327 0.77047 0.38595
 H1073 H 0.79689 0.79792 0.37459
 H1074 H 0.80232 0.77651 0.34801
 H1075 H 0.77692 0.82390 0.38443
 H1076 H 0.77208 0.84491 0.41145
 H1077 H 0.75042 0.79790 0.44434
 H1078 H 0.75530 0.77688 0.41734
 C1079 C 0.27943 0.24540 -0.16276
 C1080 C 0.28481 0.25259 -0.18060
 C1081 C 0.28795 0.24038 -0.19585
 C1082 C 0.28585 0.22072 -0.19359
 C1083 C 0.28048 0.21350 -0.17578
 C1084 C 0.27728 0.22570 -0.16054
 C1085 C 0.27613 0.25838 -0.14652
 C1086 C 0.28209 0.25339 -0.12816
 C1087 C 0.27903 0.26562 -0.11290
 C1088 C 0.27003 0.28315 -0.11567
 C1089 C 0.26407 0.28815 -0.13401
 C1090 C 0.26705 0.27589 -0.14926
 C1091 C 0.26692 0.29620 -0.09949
 C1092 C 0.27017 0.31574 -0.10156
 C1093 C 0.26739 0.32802 -0.08629
 C1094 C 0.26121 0.32102 -0.06864
 C1095 C 0.25788 0.30149 -0.06659
 C1096 C 0.26075 0.28920 -0.08184
 H1097 H 0.28683 0.26765 -0.18273
 H1098 H 0.29199 0.24627 -0.20948
 H1099 H 0.27887 0.19838 -0.17368
 H1100 H 0.27292 0.21972 -0.14706
 H1101 H 0.28940 0.24015 -0.12562
 H1102 H 0.28403 0.26151 -0.09898
 H1103 H 0.25684 0.30145 -0.13652
 H1104 H 0.26201 0.28002 -0.16315
 H1105 H 0.27509 0.32152 -0.11494
 H1106 H 0.26990 0.34302 -0.08833
 H1107 H 0.25328 0.29567 -0.05311
 H1108 H 0.25797 0.27423 -0.07987
 C1109 C 0.72076 0.25266 -0.16259
 C1110 C 0.72270 0.27236 -0.16037
 C1111 C 0.71941 0.28462 -0.17559
 C1112 C 0.71418 0.27746 -0.19340
 C1113 C 0.71229 0.25779 -0.19567
 C1114 C 0.71551 0.24552 -0.18043
 C1115 C 0.72414 0.23961 -0.14637
 C1116 C 0.73340 0.22220 -0.14913
 C1117 C 0.73648 0.20988 -0.13389
 C1118 C 0.73043 0.21473 -0.11553
 C1119 C 0.72125 0.23215 -0.11274
 C1120 C 0.71810 0.24443 -0.12799
 C1121 C 0.73363 0.20162 -0.09936
 C1122 C 0.73967 0.20859 -0.08172
 C1123 C 0.74257 0.19626 -0.06646
 C1124 C 0.73937 0.17671 -0.06848
 C1125 C 0.73334 0.16974 -0.08612
 C1126 C 0.73055 0.18206 -0.10141
 H1127 H 0.72695 0.27830 -0.14689
 H1128 H 0.72087 0.29974 -0.17348
 H1129 H 0.70836 0.25194 -0.20928
 H1130 H 0.71365 0.23045 -0.18257
 H1131 H 0.73852 0.21819 -0.16305
 H1132 H 0.74384 0.19667 -0.13643
 H1133 H 0.71618 0.23614 -0.09880
 H1134 H 0.71065 0.25758 -0.12542
 H1135 H 0.74233 0.22357 -0.07978
 H1136 H 0.74705 0.20205 -0.05299
 H1137 H 0.73093 0.15473 -0.08814
 H1138 H 0.72572 0.17631 -0.11478
 C1139 C 0.22116 0.75385 0.33848
 C1140 C 0.23656 0.76026 0.32748
 C1141 C 0.23363 0.77239 0.31208
 C1142 C 0.21524 0.77829 0.30729
 C1143 C 0.19985 0.77192 0.31827
 C1144 C 0.20278 0.75985 0.33372
 C1145 C 0.22426 0.74092 0.35481
 C1146 C 0.21436 0.74357 0.37191
 C1147 C 0.21722 0.73135 0.38727
 C1148 C 0.22999 0.71614 0.38584
 C1149 C 0.23990 0.71351 0.36872
 C1150 C 0.23709 0.72577 0.35339
 C1151 C 0.23292 0.70305 0.40211
 C1152 C 0.25112 0.69618 0.40642
 C1153 C 0.25384 0.68381 0.42168
 C1154 C 0.23845 0.67802 0.43301
 C1155 C 0.22026 0.68493 0.42873
 C1156 C 0.21753 0.69727 0.41346
 H1157 H 0.25091 0.75604 0.33093
 H1158 H 0.24570 0.77708 0.30377
 H1159 H 0.18556 0.77638 0.31491
 H1160 H 0.19062 0.75500 0.34182
 H1161 H 0.20459 0.75529 0.37352
 H1162 H 0.20960 0.73397 0.40035
 H1163 H 0.24961 0.70176 0.36704
 H1164 H 0.24471 0.72321 0.34029
 H1165 H 0.26330 0.70052 0.39809
 H1166 H 0.26800 0.67860 0.42446
 H1167 H 0.20814 0.68094 0.43732
 H1168 H 0.20330 0.70213 0.41040
 C1169 C 0.28094 0.75270 0.66313
 C1170 C 0.29931 0.75908 0.66754
 C1171 C 0.30228 0.77132 0.68279
 C1172 C 0.28696 0.77748 0.69392
 C1173 C 0.26861 0.77117 0.68953
 C1174 C 0.26562 0.75889 0.67432
 C1175 C 0.27777 0.73965 0.64693
 C1176 C 0.29061 0.72491 0.64315
 C1177 C 0.28767 0.71266 0.62790
 C1178 C 0.27180 0.71484 0.61607
 C1179 C 0.25895 0.72957 0.61987
 C1180 C 0.26191 0.74183 0.63511
 C1181 C 0.26869 0.70184 0.59982
 C1182 C 0.26185 0.70878 0.58243
 C1183 C 0.25900 0.69655 0.56714
 C1184 C 0.26298 0.67713 0.56886
 C1185 C 0.26980 0.67017 0.58624
 C1186 C 0.27260 0.68238 0.60155
 H1187 H 0.31136 0.75482 0.65903
 H1188 H 0.31652 0.77617 0.68580
 H1189 H 0.25662 0.77561 0.69805
 H1190 H 0.25134 0.75402 0.67148
 H1191 H 0.30286 0.72270 0.65212
 H1192 H 0.29795 0.70160 0.62524
 H1193 H 0.24647 0.73151 0.61116
 H1194 H 0.25186 0.75317 0.63750
 H1195 H 0.25901 0.72373 0.58053
 H1196 H 0.25400 0.70237 0.55383
 H1197 H 0.27273 0.65523 0.58808
 H1198 H 0.27757 0.67653 0.61485
 C1199 C 0.78044 0.25322 0.16139
 C1200 C 0.79882 0.25945 0.16595
 C1201 C 0.80176 0.27179 0.18112
 C1202 C 0.78639 0.27820 0.19205
 C1203 C 0.76802 0.27203 0.18752
 C1204 C 0.76507 0.25966 0.17236
 C1205 C 0.77731 0.24006 0.14528
 C1206 C 0.76165 0.24237 0.13320
 C1207 C 0.75873 0.23000 0.11804
 C1208 C 0.77140 0.21503 0.11460
 C1209 C 0.78705 0.21272 0.12669
 C1210 C 0.78997 0.22508 0.14185
 C1211 C 0.76833 0.20191 0.09845
 C1212 C 0.77178 0.18240 0.10048
 C1213 C 0.76902 0.17007 0.08525
 C1214 C 0.76270 0.17696 0.06766
 C1215 C 0.75918 0.19645 0.06563
 C1216 C 0.76198 0.20879 0.08084
 H1217 H 0.81092 0.25499 0.15760
 H1218 H 0.81602 0.27652 0.18424
 H1219 H 0.75599 0.27664 0.19587
 H1220 H 0.75077 0.25491 0.16941
 H1221 H 0.75176 0.25389 0.13534
 H1222 H 0.74643 0.23204 0.10912
 H1223 H 0.79719 0.20147 0.12430
 H1224 H 0.80204 0.22279 0.15102
 H1225 H 0.77637 0.17660 0.11394
 H1226 H 0.77158 0.15508 0.08733
 H1227 H 0.75458 0.20223 0.05217
 H1228 H 0.75949 0.22378 0.07872
 C1229 C 0.47001 0.41269 0.49849
 C1230 C 0.47230 0.41057 0.47880
 C1231 C 0.46926 0.42587 0.46657
 C1232 C 0.46400 0.44365 0.47378
 C1233 C 0.46178 0.44579 0.49346
 C1234 C 0.46470 0.43046 0.50569
 C1235 C 0.47313 0.39642 0.51147
 C1236 C 0.46062 0.39295 0.52663
 C1237 C 0.46351 0.37758 0.53882
 C1238 C 0.47903 0.36538 0.53617
 C1239 C 0.49157 0.36890 0.52102
 C1240 C 0.48862 0.38422 0.50878
 C1241 C 0.48210 0.34903 0.54915
 C1242 C 0.48857 0.33158 0.54207
 C1243 C 0.49145 0.31622 0.55427
 C1244 C 0.48785 0.31792 0.57380
 C1245 C 0.48137 0.33534 0.58088
 C1246 C 0.47857 0.35073 0.56871
 H1247 H 0.47614 0.39698 0.47283
 H1248 H 0.47085 0.42382 0.45144
 H1249 H 0.45792 0.45940 0.49936
 H1250 H 0.46307 0.43258 0.52082
 H1251 H 0.44840 0.40196 0.52888
 H1252 H 0.45340 0.37509 0.55014
 H1253 H 0.50384 0.35998 0.51878
 H1254 H 0.49865 0.38671 0.49738
 H1255 H 0.49111 0.32969 0.52705
 H1256 H 0.49619 0.30289 0.54836
 H1257 H 0.47874 0.33714 0.59591
 H1258 H 0.47390 0.36406 0.57467
 C1259 C -0.03082 0.91066 -0.00197
 C1260 C -0.01566 0.92186 -0.00859
 C1261 C -0.01892 0.93705 -0.02091
 C1262 C -0.03741 0.94140 -0.02683
 C1263 C -0.05257 0.93029 -0.02019
 C1264 C -0.04932 0.91506 -0.00793
 C1265 C -0.02736 0.89444 0.01106
 C1266 C -0.03998 0.89051 0.02604
 C1267 C -0.03679 0.87521 0.03823
 C1268 C -0.02087 0.86350 0.03579
 C1269 C -0.00822 0.86746 0.02085
 C1270 C -0.01144 0.88273 0.00862
 C1271 C -0.01750 0.84721 0.04876
 C1272 C -0.01047 0.82996 0.04174
 C1273 C -0.00736 0.81463 0.05393
 C1274 C -0.01129 0.81618 0.07341
 C1275 C -0.01831 0.83340 0.08045
 C1276 C -0.02134 0.84876 0.06828
 H1277 H -0.00128 0.91906 -0.00404
 H1278 H -0.00705 0.94556 -0.02569
 H1279 H -0.06692 0.93328 -0.02472
 H1280 H -0.06128 0.90654 -0.00335
 H1281 H -0.05226 0.89938 0.02846
 H1282 H -0.04694 0.87243 0.04946
 H1283 H 0.00430 0.85886 0.01870
 H1284 H -0.00156 0.88523 -0.00290
 H1285 H -0.00767 0.82818 0.02674
 H1286 H -0.00219 0.80145 0.04806
 H1287 H -0.02119 0.83510 0.09545
 H1288 H -0.02644 0.86194 0.07421
 C1289 C 0.03160 0.58664 -0.00276
 C1290 C 0.04994 0.58207 -0.00912
 C1291 C 0.05279 0.56684 -0.02140
 C1292 C 0.03738 0.55593 -0.02767
 C1293 C 0.01905 0.56049 -0.02134
 C1294 C 0.01619 0.57566 -0.00897
 C1295 C 0.02859 0.60281 0.01031
 C1296 C 0.01611 0.60114 0.02579
 C1297 C 0.01340 0.61633 0.03818
 C1298 C 0.02305 0.63356 0.03531
 C1299 C 0.03547 0.63522 0.01975
 C1300 C 0.03824 0.62001 0.00742
 C1301 C 0.02021 0.64971 0.04850
 C1302 C 0.03555 0.66129 0.05375
 C1303 C 0.03288 0.67652 0.06608
 C1304 C 0.01481 0.68053 0.07352
 C1305 C -0.00052 0.66892 0.06831
 C1306 C 0.00214 0.65372 0.05593
 H1307 H 0.06210 0.59015 -0.00441
 H1308 H 0.06704 0.56362 -0.02616
 H1309 H 0.00697 0.55220 -0.02592
 H1310 H 0.00189 0.57896 -0.00444
 H1311 H 0.00869 0.58797 0.02851
 H1312 H 0.00398 0.61447 0.05020
 H1313 H 0.04286 0.64839 0.01694
 H1314 H 0.04772 0.62179 -0.00456
 H1315 H 0.04970 0.65847 0.04847
 H1316 H 0.04496 0.68531 0.06961
 H1317 H -0.01458 0.67148 0.07394
 H1318 H -0.01002 0.64522 0.05201
 C1319 C 0.53130 0.08903 0.49609
 C1320 C 0.51603 0.07784 0.48988
 C1321 C 0.51911 0.06264 0.47760
 C1322 C 0.53751 0.05827 0.47134
 C1323 C 0.55277 0.06943 0.47754
 C1324 C 0.54970 0.08467 0.48977
 C1325 C 0.52806 0.10516 0.50915
 C1326 C 0.53767 0.12242 0.50644
 C1327 C 0.53471 0.13758 0.51880
 C1328 C 0.52211 0.13581 0.53419
 C1329 C 0.51247 0.11856 0.53688
 C1330 C 0.51540 0.10341 0.52449
 C1331 C 0.51908 0.15189 0.54742
 C1332 C 0.50087 0.15593 0.55450
 C1333 C 0.49804 0.17103 0.56697
 C1334 C 0.51334 0.18246 0.57263
 C1335 C 0.53154 0.17843 0.56554
 C1336 C 0.53437 0.16332 0.55309
 H1337 H 0.50168 0.08097 0.49435
 H1338 H 0.50715 0.05417 0.47305
 H1339 H 0.56706 0.06637 0.47282
 H1340 H 0.56176 0.09291 0.49447
 H1341 H 0.54730 0.12428 0.49458
 H1342 H 0.54210 0.15078 0.51614
 H1343 H 0.50290 0.11664 0.54877
 H1344 H 0.50800 0.09020 0.52710
 H1345 H 0.48876 0.14753 0.55025
 H1346 H 0.48389 0.17363 0.57233
 H1347 H 0.54359 0.18709 0.56945
 H1348 H 0.54860 0.16046 0.54807
 C1349 C -0.03191 0.08716 0.50259
 C1350 C -0.03761 0.06947 0.49547
 C1351 C -0.04061 0.05416 0.50772
 C1352 C -0.03809 0.05624 0.52737
 C1353 C -0.03234 0.07390 0.53449
 C1354 C -0.02924 0.08919 0.52223
 C1355 C -0.02885 0.10346 0.48960
 C1356 C -0.01323 0.11559 0.49200
 C1357 C -0.01040 0.13098 0.47980
 C1358 C -0.02318 0.13465 0.46497
 C1359 C -0.03882 0.12251 0.46259
 C1360 C -0.04160 0.10707 0.47474
 C1361 C -0.02024 0.15109 0.45205
 C1362 C -0.02408 0.14953 0.43256
 C1363 C -0.02140 0.16501 0.42043
 C1364 C -0.01475 0.18237 0.42750
 C1365 C -0.01085 0.18394 0.44697
 C1366 C -0.01361 0.16849 0.45911
 H1367 H -0.03952 0.06742 0.48038
 H1368 H -0.04480 0.04063 0.50188
 H1369 H -0.03048 0.07590 0.54959
 H1370 H -0.02508 0.10271 0.52815
 H1371 H -0.00303 0.11299 0.50316
 H1372 H 0.00196 0.13986 0.48183
 H1373 H -0.04911 0.12512 0.45152
 H1374 H -0.05392 0.09813 0.47272
 H1375 H -0.02890 0.13625 0.42660
 H1376 H -0.02425 0.16330 0.40545
 H1377 H -0.00597 0.19722 0.45287
 H1378 H -0.01082 0.17026 0.47410
 C1379 C 0.46729 0.58747 1.00397
 C1380 C 0.44874 0.58277 1.00965
 C1381 C 0.44544 0.56738 1.02172
 C1382 C 0.46062 0.55643 1.02845
 C1383 C 0.47916 0.56111 1.02281
 C1384 C 0.48247 0.57644 1.01066
 C1385 C 0.47078 0.60380 0.99113
 C1386 C 0.48385 0.60238 0.97613
 C1387 C 0.48700 0.61771 0.96393
 C1388 C 0.47719 0.63485 0.96650
 C1389 C 0.46419 0.63629 0.98159
 C1390 C 0.46100 0.62093 0.99373
 C1391 C 0.48042 0.65112 0.95345
 C1392 C 0.46519 0.66254 0.94760
 C1393 C 0.46819 0.67782 0.93530
 C1394 C 0.48648 0.68202 0.92849
 C1395 C 0.50171 0.67060 0.93434
 C1396 C 0.49872 0.65535 0.94668
 H1397 H 0.43676 0.59088 1.00456
 H1398 H 0.43104 0.56408 1.02595
 H1399 H 0.49107 0.55279 1.02774
 H1400 H 0.49692 0.57983 1.00666
 H1401 H 0.49140 0.58927 0.97362
 H1402 H 0.49687 0.61603 0.95227
 H1403 H 0.45666 0.64938 0.98417
 H1404 H 0.45105 0.62253 1.00535
 H1405 H 0.45089 0.65955 0.95236
 H1406 H 0.45618 0.68646 0.93127
 H1407 H 0.51594 0.67332 0.92920
 H1408 H 0.51079 0.64696 0.95108
 C1409 C 0.53079 0.91232 1.00223
 C1410 C 0.51567 0.92406 1.00769
 C1411 C 0.51877 0.93937 1.01983
 C1412 C 0.53706 0.94334 1.02655
 C1413 C 0.55220 0.93168 1.02103
 C1414 C 0.54908 0.91624 1.00907
 C1415 C 0.52752 0.89603 0.98943
 C1416 C 0.53556 0.87827 0.99345
 C1417 C 0.53244 0.86290 0.98140
 C1418 C 0.52140 0.86504 0.96498
 C1419 C 0.51342 0.88281 0.96092
 C1420 C 0.51636 0.89813 0.97309
 C1421 C 0.51826 0.84878 0.95210
 C1422 C 0.52013 0.85105 0.93238
 C1423 C 0.51736 0.83568 0.92024
 C1424 C 0.51245 0.81779 0.92757
 C1425 C 0.51045 0.81556 0.94728
 C1426 C 0.51344 0.83088 0.95944
 H1427 H 0.50142 0.92125 1.00274
 H1428 H 0.50693 0.94825 1.02387
 H1429 H 0.56639 0.93446 1.02614
 H1430 H 0.56100 0.90750 1.00495
 H1431 H 0.54410 0.87624 1.00603
 H1432 H 0.53887 0.84938 0.98478
 H1433 H 0.50474 0.88480 0.94843
 H1434 H 0.51011 0.91170 0.96960
 H1435 H 0.52397 0.86467 0.92637
 H1436 H 0.51885 0.83781 0.90509
 H1437 H 0.50682 0.80190 0.95330
 H1438 H 0.51178 0.82880 0.97457
 C1439 C 0.03019 0.41257 0.50257
 C1440 C 0.03581 0.43031 0.49533
 C1441 C 0.03900 0.44556 0.50751
 C1442 C 0.03673 0.44342 0.52719
 C1443 C 0.03115 0.42571 0.53446
 C1444 C 0.02787 0.41047 0.52229
 C1445 C 0.02679 0.39633 0.48962
 C1446 C 0.03236 0.37791 0.49480
 C1447 C 0.02916 0.36265 0.48263
 C1448 C 0.02042 0.36546 0.46497
 C1449 C 0.01487 0.38386 0.45976
 C1450 C 0.01798 0.39911 0.47197
 C1451 C 0.01714 0.34927 0.45200
 C1452 C 0.02078 0.35108 0.43247
 C1453 C 0.01785 0.33578 0.42027
 C1454 C 0.01109 0.31839 0.42732
 C1455 C 0.00736 0.31661 0.44684
 C1456 C 0.01041 0.33187 0.45906
 H1457 H 0.03797 0.43234 0.48025
 H1458 H 0.04320 0.45910 0.50156
 H1459 H 0.02939 0.42369 0.54959
 H1460 H 0.02332 0.39709 0.52832
 H1461 H 0.03947 0.37532 0.50814
 H1462 H 0.03384 0.34867 0.48690
 H1463 H 0.00786 0.38641 0.44635
 H1464 H 0.01322 0.41306 0.46769
 H1465 H 0.02613 0.36427 0.42666
 H1466 H 0.02068 0.33762 0.40527
 H1467 H 0.00231 0.30333 0.45270
 H1468 H 0.00733 0.33012 0.47401
 C1469 C 0.41395 0.49654 0.47045
 C1470 C 0.43176 0.50383 0.46512
 C1471 C 0.44713 0.49170 0.46213
 C1472 C 0.44500 0.47203 0.46431
 C1473 C 0.42722 0.46473 0.46962
 C1474 C 0.41187 0.47684 0.47269
 C1475 C 0.39759 0.50943 0.47361
 C1476 C 0.37927 0.50422 0.46773
 C1477 C 0.36389 0.51632 0.47073
 C1478 C 0.36648 0.53393 0.47959
 C1479 C 0.38477 0.53917 0.48544
 C1480 C 0.40014 0.52704 0.48253
 C1481 C 0.35015 0.54682 0.48267
 C1482 C 0.35193 0.56634 0.47915
 C1483 C 0.33651 0.57846 0.48190
 C1484 C 0.31902 0.57132 0.48835
 C1485 C 0.31727 0.55180 0.49196
 C1486 C 0.33266 0.53967 0.48909
 H1487 H 0.43379 0.51890 0.46303
 H1488 H 0.46072 0.49767 0.45815
 H1489 H 0.42521 0.44960 0.47130
 H1490 H 0.39843 0.47078 0.47703
 H1491 H 0.37686 0.49092 0.46053
 H1492 H 0.35000 0.51203 0.46581
 H1493 H 0.38714 0.55254 0.49255
 H1494 H 0.41400 0.53134 0.48753
 H1495 H 0.36519 0.57222 0.47404
 H1496 H 0.33832 0.59346 0.47917
 H1497 H 0.30392 0.54588 0.49677
 H1498 H 0.33093 0.52471 0.49207
 C1499 C 0.91262 -0.00579 -0.02976
 C1500 C 0.92470 -0.01099 -0.01481
 C1501 C 0.93991 -0.02325 -0.01801
 C1502 C 0.94344 -0.03038 -0.03625
 C1503 C 0.93143 -0.02514 -0.05121
 C1504 C 0.91611 -0.01303 -0.04799
 C1505 C 0.89646 0.00718 -0.02638
 C1506 C 0.87854 0.00323 -0.03408
 C1507 C 0.86330 0.01547 -0.03091
 C1508 C 0.86573 0.03201 -0.02014
 C1509 C 0.88367 0.03599 -0.01247
 C1510 C 0.89886 0.02364 -0.01548
 C1511 C 0.84963 0.04512 -0.01700
 C1512 C 0.85212 0.06477 -0.01906
 C1513 C 0.83688 0.07712 -0.01639
 C1514 C 0.81889 0.07008 -0.01141
 C1515 C 0.81644 0.05044 -0.00919
 C1516 C 0.83164 0.03807 -0.01205
 H1517 H 0.92223 -0.00573 -0.00060
 H1518 H 0.94906 -0.02707 -0.00631
 H1519 H 0.93388 -0.03056 -0.06536
 H1520 H 0.90712 -0.00911 -0.05979
 H1521 H 0.87627 -0.00944 -0.04241
 H1522 H 0.84966 0.01215 -0.03710
 H1523 H 0.88589 0.04856 -0.00400
 H1524 H 0.91256 0.02710 -0.00950
 H1525 H 0.86581 0.07056 -0.02302
 H1526 H 0.83918 0.09220 -0.01806
 H1527 H 0.80269 0.04462 -0.00550
 H1528 H 0.82937 0.02300 -0.01023
 C1529 C 0.58740 -0.00406 0.02943
 C1530 C 0.58323 -0.01070 0.04778
 C1531 C 0.56772 -0.02265 0.05093
 C1532 C 0.55621 -0.02834 0.03575
 C1533 C 0.56041 -0.02180 0.01739
 C1534 C 0.57581 -0.00968 0.01427
 C1535 C 0.60378 0.00871 0.02611
 C1536 C 0.60187 0.02491 0.01466
 C1537 C 0.61727 0.03706 0.01171
 C1538 C 0.63494 0.03313 0.01998
 C1539 C 0.63689 0.01685 0.03131
 C1540 C 0.62144 0.00482 0.03444
 C1541 C 0.65126 0.04604 0.01690
 C1542 C 0.66926 0.03874 0.01248
 C1543 C 0.68466 0.05092 0.00962
 C1544 C 0.68241 0.07061 0.01135
 C1545 C 0.66442 0.07790 0.01582
 C1546 C 0.64897 0.06574 0.01846
 H1547 H 0.59185 -0.00645 0.05973
 H1548 H 0.56476 -0.02761 0.06517
 H1549 H 0.55166 -0.02598 0.00552
 H1550 H 0.57880 -0.00489 -0.00004
 H1551 H 0.58838 0.02830 0.00819
 H1552 H 0.61542 0.04945 0.00281
 H1553 H 0.65032 0.01358 0.03797
 H1554 H 0.62332 -0.00766 0.04321
 H1555 H 0.67137 0.02362 0.01106
 H1556 H 0.69841 0.04493 0.00633
 H1557 H 0.66227 0.09303 0.01710
 H1558 H 0.63528 0.07172 0.02199
 C1559 C 0.08726 0.49608 0.53028
 C1560 C 0.06954 0.50341 0.53573
 C1561 C 0.05410 0.49134 0.53877
 C1562 C 0.05604 0.47168 0.53653
 C1563 C 0.07374 0.46433 0.53111
 C1564 C 0.08917 0.47639 0.52798
 C1565 C 0.10370 0.50892 0.52706
 C1566 C 0.12201 0.50361 0.53286
 C1567 C 0.13745 0.51571 0.52990
 C1568 C 0.13492 0.53344 0.52116
 C1569 C 0.11665 0.53876 0.51535
 C1570 C 0.10122 0.52663 0.51823
 C1571 C 0.15128 0.54636 0.51819
 C1572 C 0.14955 0.56584 0.52185
 C1573 C 0.16500 0.57800 0.51921
 C1574 C 0.18248 0.57096 0.51272
 C1575 C 0.18418 0.55150 0.50896
 C1576 C 0.16877 0.53932 0.51173
 H1577 H 0.06764 0.51847 0.53787
 H1578 H 0.04057 0.49735 0.54285
 H1579 H 0.07561 0.44921 0.52939
 H1580 H 0.10255 0.47030 0.52356
 H1581 H 0.12437 0.49022 0.54000
 H1582 H 0.15132 0.51135 0.53477
 H1583 H 0.11432 0.55222 0.50833
 H1584 H 0.08738 0.53102 0.51329
 H1585 H 0.13630 0.57164 0.52701
 H1586 H 0.16322 0.59296 0.52206
 H1587 H 0.19752 0.54564 0.50412
 H1588 H 0.17047 0.52439 0.50863
 C1589 C 0.08680 0.50277 -0.03124
 C1590 C 0.07486 0.50792 -0.01613
 C1591 C 0.05967 0.52025 -0.01914
 C1592 C 0.05603 0.52750 -0.03732
 C1593 C 0.06788 0.52227 -0.05246
 C1594 C 0.08318 0.51009 -0.04943
 C1595 C 0.10301 0.48981 -0.02804
 C1596 C 0.12088 0.49386 -0.03592
 C1597 C 0.13619 0.48170 -0.03282
 C1598 C 0.13388 0.46515 -0.02194
 C1599 C 0.11598 0.46106 -0.01413
 C1600 C 0.10072 0.47332 -0.01706
 C1601 C 0.15008 0.45218 -0.01879
 C1602 C 0.14775 0.43250 -0.02070
 C1603 C 0.16307 0.42028 -0.01793
 C1604 C 0.18098 0.42747 -0.01301
 C1605 C 0.18327 0.44714 -0.01096
 C1606 C 0.16799 0.45937 -0.01392
 H1607 H 0.07743 0.50260 -0.00195
 H1608 H 0.05064 0.52408 -0.00731
 H1609 H 0.06534 0.52779 -0.06657
 H1610 H 0.09207 0.50622 -0.06135
 H1611 H 0.12306 0.50656 -0.04431
 H1612 H 0.14980 0.48511 -0.03912
 H1613 H 0.11385 0.44846 -0.00556
 H1614 H 0.08706 0.46980 -0.01094
 H1615 H 0.13412 0.42660 -0.02458
 H1616 H 0.16089 0.40517 -0.01946
 H1617 H 0.19695 0.45306 -0.00732
 H1618 H 0.17013 0.47447 -0.01222
 C1619 C 0.58751 1.00545 0.46814
 C1620 C 0.57614 1.01146 0.48338
 C1621 C 0.56083 1.02361 0.48030
 C1622 C 0.55653 1.02994 0.46191
 C1623 C 0.56785 1.02393 0.44666
 C1624 C 0.58320 1.01183 0.44975
 C1625 C 0.60380 0.99257 0.47141
 C1626 C 0.62111 0.99554 0.46192
 C1627 C 0.63642 0.98337 0.46493
 C1628 C 0.63477 0.96792 0.47745
 C1629 C 0.61746 0.96498 0.48696
 C1630 C 0.60216 0.97718 0.48399
 C1631 C 0.65099 0.95486 0.48050
 C1632 C 0.65499 0.94770 0.49867
 C1633 C 0.67018 0.93532 0.50149
 C1634 C 0.68173 0.92981 0.48619
 C1635 C 0.67777 0.93703 0.46803
 C1636 C 0.66258 0.94939 0.46521
 H1637 H 0.57924 1.00694 0.49774
 H1638 H 0.55224 1.02802 0.49224
 H1639 H 0.56484 1.02871 0.43238
 H1640 H 0.59158 1.00728 0.43770
 H1641 H 0.62289 1.00746 0.45237
 H1642 H 0.64966 0.98622 0.45764
 H1643 H 0.61562 0.95303 0.49646
 H1644 H 0.58891 0.97438 0.49129
 H1645 H 0.64647 0.95180 0.51078
 H1646 H 0.67273 0.92986 0.51562
 H1647 H 0.68653 0.93326 0.45599
 H1648 H 0.65976 0.95448 0.45100
 C1649 C 0.91168 1.00325 0.53097
 C1650 C 0.90967 1.02291 0.52844
 C1651 C 0.92500 1.03509 0.53148
 C1652 C 0.94269 1.02788 0.53704
 C1653 C 0.94471 1.00825 0.53960
 C1654 C 0.92938 0.99607 0.53662
 C1655 C 0.89540 0.99028 0.52769
 C1656 C 0.89814 0.97262 0.51891
 C1657 C 0.88284 0.96042 0.51585
 C1658 C 0.86443 0.96561 0.52142
 C1659 C 0.86166 0.98326 0.53016
 C1660 C 0.87697 0.99544 0.53329
 C1661 C 0.84818 0.95267 0.51813
 C1662 C 0.83080 0.95975 0.51148
 C1663 C 0.81549 0.94756 0.50837
 C1664 C 0.81720 0.92804 0.51194
 C1665 C 0.83457 0.92096 0.51862
 C1666 C 0.84991 0.93314 0.52163
 H1667 H 0.89630 1.02889 0.52387
 H1668 H 0.92305 1.05019 0.52955
 H1669 H 0.95823 1.00235 0.54381
 H1670 H 0.93134 0.98103 0.53895
 H1671 H 0.91210 0.96835 0.51413
 H1672 H 0.88536 0.94702 0.50883
 H1673 H 0.84767 0.98753 0.53485
 H1674 H 0.87441 1.00879 0.54037
 H1675 H 0.82910 0.97471 0.50850
 H1676 H 0.80223 0.95344 0.50340
 H1677 H 0.83635 0.90596 0.52133
 H1678 H 0.86307 0.92730 0.52692
 C1679 C 0.41080 0.50330 0.03060
 C1680 C 0.42304 0.50867 0.01577
 C1681 C 0.43820 0.52096 0.01917
 C1682 C 0.44151 0.52794 0.03749
 C1683 C 0.42937 0.52250 0.05234
 C1684 C 0.41409 0.51036 0.04892
 C1685 C 0.39465 0.49036 0.02700
 C1686 C 0.37664 0.49426 0.03459
 C1687 C 0.36140 0.48207 0.03120
 C1688 C 0.36392 0.46561 0.02032
 C1689 C 0.38194 0.46167 0.01277
 C1690 C 0.39713 0.47398 0.01599
 C1691 C 0.34782 0.45254 0.01697
 C1692 C 0.35019 0.43288 0.01898
 C1693 C 0.33493 0.42056 0.01614
 C1694 C 0.31704 0.42765 0.01104
 C1695 C 0.31472 0.44730 0.00884
 C1696 C 0.32993 0.45963 0.01188
 H1697 H 0.42073 0.50355 0.00149
 H1698 H 0.44747 0.52495 0.00755
 H1699 H 0.43166 0.52779 0.06655
 H1700 H 0.40497 0.50631 0.06064
 H1701 H 0.37431 0.50687 0.04300
 H1702 H 0.34769 0.48535 0.03731
 H1703 H 0.38423 0.44916 0.00422
 H1704 H 0.41090 0.47057 0.01009
 H1705 H 0.36379 0.42705 0.02303
 H1706 H 0.33714 0.40547 0.01779
 H1707 H 0.30104 0.45314 0.00507
 H1708 H 0.32776 0.47472 0.01010
 C1709 C 0.49817 0.46876 0.41419
 C1710 C 0.47853 0.47144 0.41221
 C1711 C 0.46632 0.46835 0.42756
 C1712 C 0.47351 0.46267 0.44525
 C1713 C 0.49315 0.46009 0.44725
 C1714 C 0.50535 0.46303 0.43186
 C1715 C 0.51110 0.47191 0.39786
 C1716 C 0.52576 0.45905 0.39395
 C1717 C 0.53784 0.46192 0.37844
 C1718 C 0.53560 0.47781 0.36658
 C1719 C 0.52098 0.49074 0.37060
 C1720 C 0.50883 0.48778 0.38602
 C1721 C 0.54840 0.48086 0.35004
 C1722 C 0.54131 0.48820 0.33291
 C1723 C 0.55333 0.49115 0.31739
 C1724 C 0.57269 0.48670 0.31858
 C1725 C 0.57980 0.47927 0.33564
 C1726 C 0.56781 0.47644 0.35121
 H1727 H 0.47258 0.47563 0.39869
 H1728 H 0.45122 0.47023 0.42559
 H1729 H 0.49905 0.45591 0.46079
 H1730 H 0.52045 0.46108 0.43385
 H1731 H 0.52767 0.44656 0.40269
 H1732 H 0.54873 0.45152 0.37557
 H1733 H 0.51907 0.50330 0.36198
 H1734 H 0.49782 0.49807 0.38887
 H1735 H 0.52638 0.49142 0.33138
 H1736 H 0.54741 0.49662 0.30432
 H1737 H 0.59472 0.47594 0.33703
 H1738 H 0.57381 0.47107 0.36428
 C1739 C -0.00426 -0.03364 0.91293
 C1740 C -0.01051 -0.01834 0.92402
 C1741 C -0.02251 -0.02139 0.93954
 C1742 C -0.02844 -0.03979 0.94434
 C1743 C -0.02220 -0.05509 0.93328
 C1744 C -0.01027 -0.05205 0.91771
 C1745 C 0.00850 -0.03040 0.89646
 C1746 C 0.00557 -0.04009 0.87933
 C1747 C 0.01758 -0.03702 0.86382
 C1748 C 0.03285 -0.02426 0.86511
 C1749 C 0.03579 -0.01460 0.88227
 C1750 C 0.02373 -0.01761 0.89775
 C1751 C 0.04569 -0.02106 0.84864
 C1752 C 0.05256 -0.00281 0.84444
 C1753 C 0.06470 0.00018 0.82902
 C1754 C 0.07024 -0.01500 0.81740
 C1755 C 0.06333 -0.03324 0.82156
 C1756 C 0.05121 -0.03623 0.83700
 H1757 H -0.00627 -0.00398 0.92057
 H1758 H -0.02709 -0.00939 0.94791
 H1759 H -0.02668 -0.06939 0.93666
 H1760 H -0.00554 -0.06412 0.90953
 H1761 H -0.00621 -0.04982 0.87783
 H1762 H 0.01473 -0.04445 0.85071
 H1763 H 0.04760 -0.00493 0.88384
 H1764 H 0.02651 -0.01016 0.91086
 H1765 H 0.04840 0.00922 0.85298
 H1766 H 0.06994 0.01437 0.82634
 H1767 H 0.06713 -0.04520 0.81276
 H1768 H 0.04635 -0.05050 0.83997
 C1769 C -0.00438 0.03109 0.58691
 C1770 C 0.00299 0.03535 0.56884
 C1771 C -0.00914 0.03844 0.55352
 C1772 C -0.02888 0.03730 0.55593
 C1773 C -0.03627 0.03302 0.57396
 C1774 C -0.02415 0.02998 0.58930
 C1775 C 0.00851 0.02785 0.60321
 C1776 C 0.00427 0.03544 0.62114
 C1777 C 0.01641 0.03242 0.63647
 C1778 C 0.03304 0.02168 0.63425
 C1779 C 0.03725 0.01405 0.61634
 C1780 C 0.02514 0.01714 0.60098
 C1781 C 0.04594 0.01848 0.65054
 C1782 C 0.05413 0.00060 0.65363
 C1783 C 0.06626 -0.00242 0.66898
 C1784 C 0.07053 0.01240 0.68155
 C1785 C 0.06235 0.03029 0.67845
 C1786 C 0.05016 0.03328 0.66314
 H1787 H 0.01815 0.03650 0.56661
 H1788 H -0.00316 0.04165 0.53971
 H1789 H -0.05145 0.03215 0.57613
 H1790 H -0.03023 0.02653 0.60300
 H1791 H -0.00835 0.04390 0.62325
 H1792 H 0.01270 0.03832 0.65014
 H1793 H 0.05005 0.00587 0.61414
 H1794 H 0.02869 0.01096 0.58739
 H1795 H 0.05100 -0.01113 0.64427
 H1796 H 0.07248 -0.01630 0.67090
 H1797 H 0.06522 0.04193 0.68799
 H1798 H 0.04421 0.04726 0.66103
 C1799 C 0.49326 0.53113 0.08856
 C1800 C 0.48747 0.51593 0.07710
 C1801 C 0.47559 0.51902 0.06158
 C1802 C 0.46937 0.53739 0.05712
 C1803 C 0.47514 0.55259 0.06856
 C1804 C 0.48692 0.54949 0.08416
 C1805 C 0.50594 0.52786 0.10500
 C1806 C 0.50253 0.53693 0.12238
 C1807 C 0.51453 0.53390 0.13783
 C1808 C 0.53029 0.52182 0.13622
 C1809 C 0.53367 0.51275 0.11880
 C1810 C 0.52161 0.51569 0.10339
 C1811 C 0.54322 0.51879 0.15257
 C1812 C 0.55104 0.50083 0.15617
 C1813 C 0.56344 0.49807 0.17135
 C1814 C 0.56829 0.51318 0.18335
 C1815 C 0.56034 0.53111 0.17984
 C1816 C 0.54800 0.53389 0.16462
 H1817 H 0.49198 0.50161 0.08028
 H1818 H 0.47135 0.50712 0.05291
 H1819 H 0.47041 0.56684 0.06543
 H1820 H 0.49130 0.56149 0.09263
 H1821 H 0.49040 0.54617 0.12410
 H1822 H 0.51132 0.54085 0.15113
 H1823 H 0.54586 0.50362 0.11696
 H1824 H 0.52473 0.50872 0.09008
 H1825 H 0.54747 0.48884 0.14731
 H1826 H 0.56946 0.48413 0.17351
 H1827 H 0.56357 0.54301 0.18895
 H1828 H 0.54241 0.54795 0.16213
 C1829 C 0.50308 -0.03084 0.08566
 C1830 C 0.50881 -0.01582 0.07384
 C1831 C 0.52106 -0.01907 0.05858
 C1832 C 0.52763 -0.03743 0.05474
 C1833 C 0.52181 -0.05248 0.06646
 C1834 C 0.50973 -0.04920 0.08184
 C1835 C 0.49023 -0.02737 0.10195
 C1836 C 0.49407 -0.03542 0.11977
 C1837 C 0.48202 -0.03208 0.13517
 C1838 C 0.46576 -0.02081 0.13298
 C1839 C 0.46187 -0.01284 0.11513
 C1840 C 0.47405 -0.01600 0.09979
 C1841 C 0.45289 -0.01743 0.14927
 C1842 C 0.43315 -0.01903 0.14708
 C1843 C 0.42102 -0.01610 0.16250
 C1844 C 0.42837 -0.01129 0.18036
 C1845 C 0.44810 -0.00952 0.18250
 C1846 C 0.46024 -0.01267 0.16713
 H1847 H 0.50400 -0.00151 0.07656
 H1848 H 0.52533 -0.00730 0.04966
 H1849 H 0.52680 -0.06672 0.06378
 H1850 H 0.50540 -0.06105 0.09065
 H1851 H 0.50653 -0.04413 0.12185
 H1852 H 0.48526 -0.03851 0.14874
 H1853 H 0.44950 -0.00399 0.11311
 H1854 H 0.47070 -0.00974 0.08617
 H1855 H 0.42713 -0.02282 0.13349
 H1856 H 0.40587 -0.01742 0.16044
 H1857 H 0.45414 -0.00597 0.19615
 H1858 H 0.47539 -0.01121 0.16916
 C1859 C 1.00299 0.46877 0.58674
 C1860 C 1.02270 0.47088 0.58878
 C1861 C 1.03484 0.46770 0.57342
 C1862 C 1.02753 0.46245 0.55568
 C1863 C 1.00782 0.46040 0.55362
 C1864 C 0.99568 0.46348 0.56900
 C1865 C 0.99010 0.47204 0.60308
 C1866 C 0.97486 0.45967 0.60665
 C1867 C 0.96278 0.46269 0.62210
 C1868 C 0.96561 0.47819 0.63423
 C1869 C 0.98081 0.49060 0.63061
 C1870 C 0.99296 0.48752 0.61523
 C1871 C 0.95277 0.48139 0.65062
 C1872 C 0.94632 0.49970 0.65495
 C1873 C 0.93415 0.50269 0.67033
 C1874 C 0.92821 0.48744 0.68178
 C1875 C 0.93475 0.46913 0.67747
 C1876 C 0.94685 0.46614 0.66204
 H1877 H 1.02875 0.47471 0.60234
 H1878 H 1.04999 0.46917 0.57541
 H1879 H 1.00184 0.45656 0.54003
 H1880 H 0.98054 0.46198 0.56695
 H1881 H 0.97241 0.44753 0.59762
 H1882 H 0.95108 0.45299 0.62444
 H1883 H 0.98343 0.50257 0.63982
 H1884 H 1.00449 0.49737 0.61273
 H1885 H 0.95044 0.51168 0.64623
 H1886 H 0.92914 0.51692 0.67306
 H1887 H 0.93074 0.45713 0.68620
 H1888 H 0.95182 0.45191 0.65922
 C1889 C 1.00333 0.53157 0.91262
 C1890 C 1.00957 0.51614 0.92360
 C1891 C 1.02171 0.51899 0.93895
 C1892 C 1.02780 0.53731 0.94371
 C1893 C 1.02156 0.55274 0.93278
 C1894 C 1.00948 0.54990 0.91737
 C1895 C 0.99046 0.52854 0.89629
 C1896 C 0.99334 0.53837 0.87916
 C1897 C 0.98125 0.53548 0.86376
 C1898 C 0.96596 0.52274 0.86516
 C1899 C 0.96307 0.51294 0.88232
 C1900 C 0.97520 0.51578 0.89769
 C1901 C 0.95306 0.51971 0.84880
 C1902 C 0.94617 0.50151 0.84458
 C1903 C 0.93399 0.49867 0.82924
 C1904 C 0.92843 0.51396 0.81773
 C1905 C 0.93535 0.53216 0.82192
 C1906 C 0.94750 0.53500 0.83728
 H1907 H 1.00523 0.50184 0.92016
 H1908 H 1.02629 0.50689 0.94723
 H1909 H 1.02617 0.56698 0.93613
 H1910 H 1.00476 0.56207 0.90929
 H1911 H 1.00515 0.54808 0.87757
 H1912 H 0.98406 0.54301 0.85065
 H1913 H 0.95124 0.50328 0.88397
 H1914 H 0.97246 0.50822 0.91080
 H1915 H 0.95034 0.48939 0.85304
 H1916 H 0.92875 0.48451 0.82654
 H1917 H 0.93153 0.54421 0.81320
 H1918 H 0.95238 0.54923 0.84026
 C1919 C 0.50384 0.03319 0.41174
 C1920 C 0.50990 0.05160 0.41634
 C1921 C 0.52193 0.05465 0.43175
 C1922 C 0.52818 0.03937 0.44287
 C1923 C 0.52213 0.02097 0.43832
 C1924 C 0.51008 0.01791 0.42293
 C1925 C 0.49107 0.02994 0.39533
 C1926 C 0.49370 0.01422 0.38341
 C1927 C 0.48170 0.01117 0.36797
 C1928 C 0.46682 0.02380 0.36407
 C1929 C 0.46418 0.03952 0.37598
 C1930 C 0.47615 0.04254 0.39144
 C1931 C 0.45408 0.02060 0.34765
 C1932 C 0.44832 0.03585 0.33619
 C1933 C 0.43625 0.03287 0.32080
 C1934 C 0.42962 0.01458 0.31654
 C1935 C 0.43543 -0.00068 0.32798
 C1936 C 0.44754 0.00230 0.34335
 H1937 H 0.50558 0.06363 0.40783
 H1938 H 0.52658 0.06893 0.43488
 H1939 H 0.52662 0.00901 0.44682
 H1940 H 0.50544 0.00360 0.41994
 H1941 H 0.50525 0.00442 0.38584
 H1942 H 0.48426 -0.00091 0.35889
 H1943 H 0.45265 0.04933 0.37351
 H1944 H 0.47355 0.05460 0.40053
 H1945 H 0.45337 0.05006 0.33897
 H1946 H 0.43231 0.04487 0.31207
 H1947 H 0.43034 -0.01489 0.32526
 H1948 H 0.45152 -0.00969 0.35209
   
