data_POSCAR
  _audit_creation_date              2014-09-24
  _audit_creation_method            'ToBaCCo'
  _symmetry_space_group_name_H-M    'P1'
  _symmetry_Int_Tables_number       1
  _symmetry_cell_setting            triclinic
  loop_
  _symmetry_equiv_pos_as_xyz
 x,y,z
_cell_length_a 41.0459
_cell_length_b 41.0107
_cell_length_c 41.0264
_cell_angle_alpha 90.078600
_cell_angle_beta 89.911300
_cell_angle_gamma 89.990600
loop_
  _atom_site_label
  _atom_site_type_symbol
  _atom_site_fract_x
  _atom_site_fract_y
  _atom_site_fract_z
O1 O 0.87566 0.16833 0.79077
 O2 O 0.91067 0.12216 0.78168
 O3 O 0.79022 0.12455 0.83103
 O4 O 0.77817 0.09202 0.87334
 O5 O 0.83144 0.20965 0.87563
 O6 O 0.87726 0.21834 0.91102
 O7 O 0.87507 0.04040 0.92142
 O8 O 0.83625 0.03176 0.87926
 O9 O 0.95803 0.07740 0.87646
 O10 O 0.96865 0.12379 0.83874
 O11 O 0.92040 0.12237 0.95942
 O12 O 0.87504 0.16102 0.96956
 O13 O 0.87525 0.08005 0.96016
 O14 O 0.83943 0.12749 0.96986
 O15 O 0.95919 0.12164 0.91988
 O16 O 0.97010 0.15792 0.87359
 O17 O 0.91834 0.03889 0.87714
 O18 O 0.87332 0.02907 0.84070
 O19 O 0.87622 0.20811 0.82946
 O20 O 0.91320 0.21716 0.87419
 O21 O 0.79155 0.17116 0.87547
 O22 O 0.78329 0.12670 0.91444
 O23 O 0.82933 0.12391 0.79169
 O24 O 0.87365 0.08673 0.78232
 Zr25 Zr 0.87355 0.12455 0.81739
 O26 O 0.90358 0.09388 0.84526
 Zr27 Zr 0.81660 0.12638 0.87495
 O28 O 0.84412 0.09551 0.90537
 Zr29 Zr 0.87501 0.18258 0.87394
 O30 O 0.90504 0.15438 0.90447
 Zr31 Zr 0.87483 0.06588 0.87705
 O32 O 0.84425 0.09378 0.84626
 Zr33 Zr 0.93298 0.12217 0.87605
 O34 O 0.90580 0.15321 0.84515
 Zr35 Zr 0.87610 0.12386 0.93368
 O36 O 0.84580 0.15509 0.90591
 O37 O 0.84411 0.15571 0.84430
 O38 O 0.90596 0.09242 0.90713
 C39 C 0.87624 0.19841 0.79962
 C40 C 0.79944 0.12413 0.80104
 C41 C 0.80133 0.20094 0.87577
 C42 C 0.87496 0.05003 0.95124
 C43 C 0.94843 0.04754 0.87667
 C44 C 0.95021 0.12160 0.94985
 H45 H 0.91677 0.08018 0.83047
 H46 H 0.91886 0.16898 0.91772
 H47 H 0.83037 0.16970 0.83029
 H48 H 0.82931 0.08220 0.91893
 H49 H 0.81971 0.03891 0.86323
 H50 H 0.78448 0.07338 0.88723
 H51 H 0.96523 0.17477 0.89016
 H52 H 0.92987 0.20909 0.85868
 H53 H 0.88927 0.03472 0.82354
 H54 H 0.85799 0.07010 0.79012
 H55 H 0.89304 0.17635 0.96488
 H56 H 0.86241 0.21096 0.92856
 H57 H 0.92819 0.13704 0.78903
 H58 H 0.96416 0.10577 0.82335
 H59 H 0.79030 0.14421 0.92950
 H60 H 0.82300 0.11042 0.96539
 O61 O 0.83125 0.70817 0.37437
 O62 O 0.87679 0.71766 0.40990
 O63 O 0.87685 0.66744 0.28984
 O64 O 0.90957 0.62499 0.27847
 O65 O 0.79109 0.62334 0.32985
 O66 O 0.78182 0.58770 0.37558
 O67 O 0.95967 0.57798 0.37761
 O68 O 0.96880 0.61917 0.33773
 O69 O 0.92110 0.62254 0.45882
 O70 O 0.87479 0.66095 0.46847
 O71 O 0.87596 0.53995 0.42089
 O72 O 0.83929 0.52947 0.37424
 O73 O 0.92024 0.53912 0.37801
 O74 O 0.87435 0.52878 0.33998
 O75 O 0.87620 0.57961 0.45960
 O76 O 0.84019 0.62647 0.46940
 O77 O 0.96011 0.62221 0.41946
 O78 O 0.97023 0.65896 0.37406
 O79 O 0.79171 0.66931 0.37455
 O80 O 0.78210 0.62467 0.41147
 O81 O 0.83033 0.62259 0.29066
 O82 O 0.87516 0.58383 0.28345
 O83 O 0.87615 0.70718 0.32859
 O84 O 0.91287 0.71677 0.37332
 Zr85 Zr 0.87515 0.68167 0.37300
 O86 O 0.90535 0.65406 0.40380
 Zr87 Zr 0.87463 0.62362 0.31643
 O88 O 0.90512 0.59346 0.34467
 Zr89 Zr 0.81740 0.62493 0.37389
 O90 O 0.84513 0.59472 0.40464
 Zr91 Zr 0.93393 0.62217 0.37562
 O92 O 0.90652 0.65266 0.34437
 Zr93 Zr 0.87671 0.62338 0.43304
 O94 O 0.84607 0.65401 0.40501
 Zr95 Zr 0.87628 0.56537 0.37639
 O96 O 0.84551 0.59281 0.34537
 O97 O 0.84470 0.65441 0.34322
 O98 O 0.90693 0.59228 0.40658
 C99 C 0.80124 0.69918 0.37457
 C100 C 0.87670 0.69754 0.29876
 C101 C 0.80037 0.62270 0.29989
 C102 C 0.95020 0.54815 0.37872
 C103 C 0.95099 0.62214 0.44939
 C104 C 0.87589 0.54958 0.45071
 H105 H 0.91880 0.66893 0.41712
 H106 H 0.83023 0.58157 0.41823
 H107 H 0.83090 0.66830 0.32918
 H108 H 0.91887 0.57976 0.33035
 H109 H 0.96209 0.63502 0.32083
 H110 H 0.92816 0.61123 0.28521
 H111 H 0.82344 0.60987 0.46439
 H112 H 0.78967 0.64039 0.42816
 H113 H 0.96475 0.67573 0.39050
 H114 H 0.92962 0.70900 0.35775
 H115 H 0.82307 0.53461 0.39135
 H116 H 0.78911 0.57051 0.36024
 H117 H 0.86201 0.71016 0.42744
 H118 H 0.89317 0.67599 0.46435
 H119 H 0.85803 0.56846 0.29069
 H120 H 0.89232 0.53281 0.32442
 O121 O 0.37663 0.16734 0.28973
 O122 O 0.41219 0.12117 0.28115
 O123 O 0.29137 0.12332 0.32968
 O124 O 0.27918 0.09089 0.37216
 O125 O 0.33210 0.20873 0.37411
 O126 O 0.37761 0.21764 0.40985
 O127 O 0.37558 0.03965 0.42102
 O128 O 0.33735 0.03081 0.37848
 O129 O 0.45902 0.07701 0.37739
 O130 O 0.46955 0.12254 0.33813
 O131 O 0.42107 0.12208 0.45865
 O132 O 0.37537 0.16063 0.46858
 O133 O 0.37568 0.07947 0.45950
 O134 O 0.34003 0.12694 0.46906
 O135 O 0.45998 0.12183 0.41922
 O136 O 0.47067 0.15756 0.37246
 O137 O 0.41940 0.03836 0.37827
 O138 O 0.37478 0.02833 0.34009
 O139 O 0.37684 0.20720 0.32837
 O140 O 0.41383 0.21641 0.37316
 O141 O 0.29230 0.17015 0.37387
 O142 O 0.28384 0.12590 0.41302
 O143 O 0.33066 0.12243 0.29050
 O144 O 0.37518 0.08560 0.28153
 Zr145 Zr 0.37473 0.12351 0.31649
 O146 O 0.40467 0.09296 0.34471
 Zr147 Zr 0.31746 0.12542 0.37379
 O148 O 0.34488 0.09478 0.40454
 Zr149 Zr 0.37570 0.18176 0.37287
 O150 O 0.40566 0.15380 0.40364
 Zr151 Zr 0.37580 0.06508 0.37654
 O152 O 0.34537 0.09279 0.34541
 Zr153 Zr 0.43381 0.12159 0.37541
 O154 O 0.40671 0.15243 0.34428
 Zr155 Zr 0.37669 0.12330 0.43289
 O156 O 0.34642 0.15431 0.40482
 O157 O 0.34505 0.15466 0.34317
 O158 O 0.40670 0.09194 0.40654
 C159 C 0.37692 0.19748 0.29854
 C160 C 0.30072 0.12270 0.29972
 C161 C 0.30202 0.19995 0.37402
 C162 C 0.37534 0.04931 0.45087
 C163 C 0.44939 0.04723 0.37872
 C164 C 0.45094 0.12167 0.44915
 H165 H 0.41805 0.07915 0.33019
 H166 H 0.41938 0.16853 0.41685
 H167 H 0.33132 0.16850 0.32901
 H168 H 0.33003 0.08151 0.41810
 H169 H 0.32091 0.03787 0.36230
 H170 H 0.28550 0.07234 0.38617
 H171 H 0.46574 0.17451 0.38891
 H172 H 0.43037 0.20857 0.35741
 H173 H 0.39220 0.03293 0.32409
 H174 H 0.36028 0.06853 0.28980
 H175 H 0.39341 0.17593 0.46396
 H176 H 0.36267 0.21028 0.42731
 H177 H 0.42959 0.13610 0.28865
 H178 H 0.46571 0.10370 0.32356
 H179 H 0.29080 0.14343 0.42810
 H180 H 0.32339 0.11015 0.46432
 O181 O 0.12489 0.33040 0.28982
 O182 O 0.08929 0.37573 0.28138
 O183 O 0.21006 0.37763 0.32918
 O184 O 0.22218 0.40897 0.37190
 O185 O 0.17211 0.29032 0.37289
 O186 O 0.12794 0.28022 0.40989
 O187 O 0.12494 0.45836 0.42102
 O188 O 0.16186 0.46822 0.37785
 O189 O 0.04154 0.41857 0.37805
 O190 O 0.03163 0.37274 0.33984
 O191 O 0.08165 0.37424 0.45949
 O192 O 0.12823 0.33788 0.46906
 O193 O 0.12530 0.41867 0.45959
 O194 O 0.16307 0.37219 0.46845
 O195 O 0.04237 0.37390 0.42056
 O196 O 0.03251 0.33741 0.37343
 O197 O 0.08014 0.45824 0.37918
 O198 O 0.12407 0.46929 0.34006
 O199 O 0.12483 0.29077 0.32856
 O200 O 0.09089 0.28024 0.37487
 O201 O 0.21082 0.32995 0.37318
 O202 O 0.21806 0.37459 0.41244
 O203 O 0.17070 0.37695 0.29021
 O204 O 0.12501 0.41214 0.28178
 Zr205 Zr 0.12680 0.37424 0.31660
 O206 O 0.09616 0.40396 0.34517
 Zr207 Zr 0.18439 0.37391 0.37337
 O208 O 0.15642 0.40399 0.40431
 Zr209 Zr 0.12778 0.31615 0.37299
 O210 O 0.09733 0.34336 0.40413
 Zr211 Zr 0.12447 0.43275 0.37665
 O212 O 0.15546 0.40575 0.34533
 Zr213 Zr 0.06804 0.37473 0.37630
 O214 O 0.09579 0.34466 0.34484
 Zr215 Zr 0.12567 0.37473 0.43307
 O216 O 0.15649 0.34438 0.40469
 O217 O 0.15753 0.34381 0.34278
 O218 O 0.09456 0.40522 0.40711
 C219 C 0.12366 0.30037 0.29877
 C220 C 0.20061 0.37846 0.29932
 C221 C 0.20194 0.29990 0.37304
 C222 C 0.12528 0.44873 0.45080
 C223 C 0.05038 0.44859 0.37947
 C224 C 0.05170 0.37379 0.45040
 H225 H 0.08228 0.41735 0.33079
 H226 H 0.08416 0.32825 0.41747
 H227 H 0.17131 0.33032 0.32823
 H228 H 0.17105 0.41771 0.41765
 H229 H 0.17841 0.46144 0.36160
 H230 H 0.21490 0.42799 0.38484
 H231 H 0.03697 0.32156 0.39103
 H232 H 0.07316 0.28789 0.36044
 H233 H 0.10601 0.46467 0.32483
 H234 H 0.13919 0.42979 0.29012
 H235 H 0.11193 0.32102 0.46351
 H236 H 0.14326 0.28789 0.42687
 H237 H 0.07187 0.36106 0.28934
 H238 H 0.03553 0.39087 0.32444
 H239 H 0.21181 0.35678 0.42746
 H240 H 0.17855 0.39016 0.46414
 O241 O 0.62398 0.82895 0.29106
 O242 O 0.58852 0.87429 0.28229
 O243 O 0.70913 0.87638 0.33049
 O244 O 0.72107 0.90777 0.37322
 O245 O 0.67097 0.78912 0.37427
 O246 O 0.62675 0.77917 0.41128
 O247 O 0.62380 0.95729 0.42184
 O248 O 0.66079 0.96700 0.37872
 O249 O 0.54043 0.91744 0.37866
 O250 O 0.53061 0.87146 0.34064
 O251 O 0.58021 0.87345 0.46045
 O252 O 0.62674 0.83694 0.47023
 O253 O 0.62405 0.91775 0.46057
 O254 O 0.66161 0.87122 0.46969
 O255 O 0.54106 0.87299 0.42140
 O256 O 0.53140 0.83623 0.37437
 O257 O 0.57907 0.95707 0.37985
 O258 O 0.62307 0.96803 0.34089
 O259 O 0.62377 0.78940 0.32988
 O260 O 0.58973 0.77908 0.37615
 O261 O 0.70967 0.82876 0.37452
 O262 O 0.71683 0.87342 0.41377
 O263 O 0.66989 0.87556 0.29140
 O264 O 0.62417 0.91067 0.28271
 Zr265 Zr 0.62588 0.87289 0.31767
 O266 O 0.59515 0.90269 0.34606
 Zr267 Zr 0.68328 0.87271 0.37460
 O268 O 0.65521 0.90287 0.40539
 Zr269 Zr 0.62665 0.81496 0.37423
 O270 O 0.59610 0.84228 0.40522
 Zr271 Zr 0.62338 0.93156 0.37754
 O272 O 0.65445 0.90448 0.34638
 Zr273 Zr 0.56691 0.87357 0.37721
 O274 O 0.59476 0.84342 0.34591
 Zr275 Zr 0.62435 0.87372 0.43416
 O276 O 0.65526 0.84330 0.40594
 O277 O 0.65650 0.84252 0.34402
 O278 O 0.59335 0.90415 0.40800
 C279 C 0.62268 0.79894 0.30008
 C280 C 0.69979 0.87717 0.30059
 C281 C 0.70079 0.79871 0.37440
 C282 C 0.62410 0.94777 0.45166
 C283 C 0.54930 0.94744 0.38004
 C284 C 0.55028 0.87305 0.45128
 H285 H 0.58133 0.91603 0.33160
 H286 H 0.58286 0.82723 0.41857
 H287 H 0.67032 0.82901 0.32952
 H288 H 0.66982 0.91661 0.41873
 H289 H 0.67738 0.96017 0.36253
 H290 H 0.71376 0.92681 0.38611
 H291 H 0.53572 0.82052 0.39212
 H292 H 0.57202 0.78672 0.36169
 H293 H 0.60514 0.96330 0.32554
 H294 H 0.63833 0.92835 0.29104
 H295 H 0.61034 0.82015 0.46475
 H296 H 0.64201 0.78693 0.42827
 H297 H 0.57102 0.85970 0.29026
 H298 H 0.53460 0.88950 0.32516
 H299 H 0.71053 0.85562 0.42879
 H300 H 0.67722 0.88905 0.46528
 O301 O 0.62307 0.66901 0.20928
 O302 O 0.58903 0.62287 0.21908
 O303 O 0.70926 0.62285 0.16995
 O304 O 0.72161 0.59073 0.12772
 O305 O 0.66946 0.70859 0.12492
 O306 O 0.62476 0.71758 0.08869
 O307 O 0.62300 0.53930 0.08010
 O308 O 0.66178 0.53038 0.12226
 O309 O 0.54093 0.57865 0.12333
 O310 O 0.53051 0.62510 0.16066
 O311 O 0.58034 0.62177 0.04077
 O312 O 0.62661 0.65919 0.03055
 O313 O 0.62323 0.57838 0.04097
 O314 O 0.66162 0.62460 0.03119
 O315 O 0.54106 0.62133 0.07982
 O316 O 0.53100 0.65992 0.12608
 O317 O 0.57995 0.53936 0.12270
 O318 O 0.62479 0.52971 0.16150
 O319 O 0.62324 0.70823 0.17011
 O320 O 0.58793 0.71717 0.12432
 O321 O 0.70888 0.66963 0.12523
 O322 O 0.71655 0.62425 0.08646
 O323 O 0.67023 0.62421 0.20935
 O324 O 0.62553 0.58718 0.21845
 Zr325 Zr 0.62604 0.62479 0.18326
 O326 O 0.59550 0.59438 0.15541
 Zr327 Zr 0.68324 0.62514 0.12594
 O328 O 0.65553 0.59409 0.09574
 Zr329 Zr 0.62564 0.68211 0.12601
 O330 O 0.59552 0.65406 0.09539
 Zr331 Zr 0.62405 0.56545 0.12416
 O332 O 0.65498 0.59327 0.15474
 Zr333 Zr 0.56684 0.62281 0.12403
 O334 O 0.59435 0.65354 0.15494
 Zr335 Zr 0.62435 0.62265 0.06688
 O336 O 0.65474 0.65388 0.09453
 O337 O 0.65601 0.65530 0.15625
 O338 O 0.59380 0.59232 0.09366
 C339 C 0.62200 0.69895 0.20001
 C340 C 0.70014 0.62326 0.19995
 C341 C 0.69944 0.69953 0.12485
 C342 C 0.62228 0.54842 0.05012
 C343 C 0.55008 0.54872 0.12225
 C344 C 0.55043 0.62077 0.04994
 H345 H 0.58187 0.58106 0.17012
 H346 H 0.58207 0.66868 0.08182
 H347 H 0.66963 0.66933 0.17037
 H348 H 0.67008 0.58022 0.08242
 H349 H 0.67850 0.53736 0.13818
 H350 H 0.71457 0.57140 0.11514
 H351 H 0.53450 0.67466 0.10734
 H352 H 0.57059 0.70934 0.13917
 H353 H 0.60680 0.53434 0.17687
 H354 H 0.64081 0.57022 0.21058
 H355 H 0.60915 0.67519 0.03511
 H356 H 0.63963 0.70968 0.07137
 H357 H 0.57105 0.63680 0.21106
 H358 H 0.53471 0.60732 0.17637
 H359 H 0.71001 0.64183 0.07131
 H360 H 0.67671 0.60623 0.03518
 O361 O 0.37468 0.83167 0.71053
 O362 O 0.41002 0.87710 0.71979
 O363 O 0.28984 0.87700 0.67064
 O364 O 0.27808 0.90970 0.62869
 O365 O 0.32963 0.79142 0.62477
 O366 O 0.37546 0.78175 0.59043
 O367 O 0.37511 0.96050 0.58071
 O368 O 0.33781 0.96962 0.62345
 O369 O 0.45862 0.92113 0.62338
 O370 O 0.46878 0.87559 0.66170
 O371 O 0.41979 0.87650 0.54175
 O372 O 0.37325 0.84028 0.53133
 O373 O 0.37595 0.92120 0.54165
 O374 O 0.33866 0.87455 0.53169
 O375 O 0.45884 0.87612 0.58091
 O376 O 0.46837 0.83995 0.62815
 O377 O 0.41954 0.96036 0.62311
 O378 O 0.37501 0.97054 0.66182
 O379 O 0.37412 0.79203 0.67170
 O380 O 0.41132 0.78271 0.62688
 O381 O 0.29037 0.83055 0.62459
 O382 O 0.28279 0.87619 0.58727
 O383 O 0.32876 0.87680 0.71006
 O384 O 0.37379 0.91347 0.71900
 Zr385 Zr 0.37301 0.87553 0.68406
 O386 O 0.40377 0.90566 0.65612
 Zr387 Zr 0.31612 0.87493 0.62661
 O388 O 0.34413 0.90559 0.59637
 Zr389 Zr 0.37354 0.81776 0.62729
 O390 O 0.40387 0.84555 0.59659
 Zr391 Zr 0.37546 0.93442 0.62472
 O392 O 0.34430 0.90691 0.65536
 Zr393 Zr 0.43260 0.87700 0.62497
 O394 O 0.40483 0.84650 0.65603
 Zr395 Zr 0.37552 0.87691 0.56766
 O396 O 0.34489 0.84595 0.59545
 O397 O 0.34296 0.84491 0.65712
 O398 O 0.40605 0.90749 0.59424
 C399 C 0.37468 0.80161 0.70157
 C400 C 0.29888 0.87725 0.70065
 C401 C 0.29971 0.80063 0.62354
 C402 C 0.37536 0.95119 0.55080
 C403 C 0.44942 0.95106 0.62249
 C404 C 0.44968 0.87588 0.55099
 H405 H 0.41736 0.91907 0.67077
 H406 H 0.41726 0.83060 0.58323
 H407 H 0.32887 0.83100 0.67091
 H408 H 0.32951 0.91928 0.58303
 H409 H 0.32112 0.96261 0.63943
 H410 H 0.28517 0.92888 0.61593
 H411 H 0.46364 0.82361 0.61105
 H412 H 0.42770 0.79007 0.64297
 H413 H 0.39267 0.96570 0.67744
 H414 H 0.35854 0.93041 0.71113
 H415 H 0.39014 0.82385 0.53634
 H416 H 0.36125 0.78951 0.57258
 H417 H 0.42782 0.86291 0.71174
 H418 H 0.46449 0.89364 0.67713
 H419 H 0.28979 0.85925 0.57154
 H420 H 0.32315 0.89255 0.53583
 O421 O 0.87588 0.32812 0.70893
 O422 O 0.91184 0.37315 0.71887
 O423 O 0.79162 0.37451 0.66966
 O424 O 0.77990 0.40772 0.62817
 O425 O 0.83117 0.28945 0.62283
 O426 O 0.87703 0.28042 0.58785
 O427 O 0.87653 0.45899 0.58109
 O428 O 0.83939 0.46742 0.62426
 O429 O 0.96035 0.41922 0.62326
 O430 O 0.97028 0.37291 0.66118
 O431 O 0.92157 0.37562 0.54104
 O432 O 0.87510 0.33945 0.53008
 O433 O 0.87782 0.42015 0.54156
 O434 O 0.84058 0.37380 0.53077
 O435 O 0.96062 0.37482 0.58020
 O436 O 0.97035 0.33809 0.62675
 O437 O 0.92118 0.45835 0.62330
 O438 O 0.87692 0.46806 0.66225
 O439 O 0.87598 0.28921 0.66936
 O440 O 0.91279 0.28041 0.62442
 O441 O 0.79202 0.32868 0.62317
 O442 O 0.78457 0.37471 0.58635
 O443 O 0.83049 0.37365 0.70912
 O444 O 0.87571 0.40970 0.71887
 Zr445 Zr 0.87475 0.37247 0.68319
 O446 O 0.90547 0.40313 0.65578
 Zr447 Zr 0.81788 0.37291 0.62568
 O448 O 0.84591 0.40393 0.59593
 Zr449 Zr 0.87520 0.31566 0.62547
 O450 O 0.90568 0.34389 0.59537
 Zr451 Zr 0.87716 0.43234 0.62476
 O452 O 0.84607 0.40435 0.65499
 Zr453 Zr 0.93436 0.37498 0.62424
 O454 O 0.90653 0.34390 0.65468
 Zr455 Zr 0.87732 0.37560 0.56690
 O456 O 0.84656 0.34432 0.59410
 O457 O 0.84467 0.34238 0.65573
 O458 O 0.90778 0.40586 0.59393
 C459 C 0.87611 0.29823 0.69939
 C460 C 0.80064 0.37436 0.69966
 C461 C 0.80127 0.29877 0.62181
 C462 C 0.87694 0.45000 0.55109
 C463 C 0.95107 0.44914 0.62259
 C464 C 0.95145 0.37497 0.55028
 H465 H 0.91903 0.41634 0.67063
 H466 H 0.91911 0.32915 0.58182
 H467 H 0.83053 0.32832 0.66932
 H468 H 0.83128 0.41778 0.58275
 H469 H 0.82285 0.46016 0.64030
 H470 H 0.78701 0.42705 0.61565
 H471 H 0.96552 0.32187 0.60957
 H472 H 0.92950 0.28776 0.64018
 H473 H 0.89448 0.46290 0.67787
 H474 H 0.86081 0.42702 0.71114
 H475 H 0.89203 0.32298 0.53486
 H476 H 0.86238 0.28829 0.57041
 H477 H 0.92938 0.35869 0.71073
 H478 H 0.96616 0.39095 0.67667
 H479 H 0.79153 0.35795 0.57041
 H480 H 0.82497 0.39164 0.53523
 O481 O 0.79055 0.87590 0.17059
 O482 O 0.78106 0.91077 0.12508
 O483 O 0.82939 0.79007 0.12380
 O484 O 0.87098 0.77879 0.08995
 O485 O 0.87444 0.82812 0.20924
 O486 O 0.91124 0.87260 0.21901
 O487 O 0.91960 0.87741 0.04091
 O488 O 0.87740 0.83865 0.03171
 O489 O 0.87585 0.95914 0.08138
 O490 O 0.83918 0.96874 0.12850
 O491 O 0.95912 0.91922 0.12533
 O492 O 0.96917 0.87169 0.16062
 O493 O 0.95879 0.87700 0.07985
 O494 O 0.96882 0.83803 0.12509
 O495 O 0.92007 0.95846 0.12548
 O496 O 0.87388 0.96836 0.16251
 O497 O 0.87580 0.92049 0.04164
 O498 O 0.83881 0.87599 0.03091
 O499 O 0.82965 0.87508 0.20980
 O500 O 0.87583 0.90948 0.21968
 O501 O 0.87485 0.78952 0.16941
 O502 O 0.91269 0.78237 0.12404
 O503 O 0.79041 0.82949 0.12523
 O504 O 0.78129 0.87466 0.08902
 Zr505 Zr 0.81662 0.87351 0.12646
 O506 O 0.84451 0.90431 0.09651
 Zr507 Zr 0.87358 0.81604 0.12560
 O508 O 0.90399 0.84426 0.09519
 Zr509 Zr 0.87379 0.87262 0.18368
 O510 O 0.90433 0.90326 0.15609
 Zr511 Zr 0.87565 0.87615 0.06712
 O512 O 0.84485 0.84494 0.09436
 Zr513 Zr 0.87592 0.93261 0.12528
 O514 O 0.84508 0.90463 0.15572
 Zr515 Zr 0.93292 0.87511 0.12414
 O516 O 0.90516 0.84407 0.15475
 O517 O 0.84345 0.84284 0.15635
 O518 O 0.90634 0.90627 0.09420
 C519 C 0.79978 0.87665 0.20052
 C520 C 0.79949 0.79950 0.12426
 C521 C 0.87494 0.79830 0.19949
 C522 C 0.94957 0.87793 0.04992
 C523 C 0.87561 0.95028 0.05132
 C524 C 0.94994 0.94917 0.12581
 H525 H 0.82969 0.91806 0.08347
 H526 H 0.91783 0.91640 0.17109
 H527 H 0.82933 0.82908 0.17025
 H528 H 0.91727 0.82990 0.08109
 H529 H 0.86121 0.82203 0.03835
 H530 H 0.88486 0.78548 0.07141
 H531 H 0.89119 0.96337 0.17849
 H532 H 0.86114 0.92713 0.21229
 H533 H 0.82186 0.89188 0.03735
 H534 H 0.78872 0.85917 0.07203
 H535 H 0.96410 0.88812 0.17755
 H536 H 0.92804 0.85713 0.21119
 H537 H 0.78890 0.92831 0.13969
 H538 H 0.82343 0.96485 0.11069
 H539 H 0.92854 0.78928 0.14085
 H540 H 0.96452 0.82297 0.10674
 O541 O 0.37477 0.32777 0.20822
 O542 O 0.41149 0.37255 0.21778
 O543 O 0.29094 0.37571 0.16915
 O544 O 0.27844 0.40664 0.12683
 O545 O 0.33055 0.28898 0.12234
 O546 O 0.37627 0.28005 0.08723
 O547 O 0.37568 0.45835 0.07965
 O548 O 0.33821 0.46694 0.12297
 O549 O 0.45934 0.41900 0.12273
 O550 O 0.46946 0.37243 0.16001
 O551 O 0.42026 0.37666 0.04012
 O552 O 0.37451 0.33844 0.02957
 O553 O 0.37560 0.41924 0.04036
 O554 O 0.33922 0.37231 0.03016
 O555 O 0.45944 0.37619 0.07914
 O556 O 0.46943 0.33782 0.12504
 O557 O 0.42011 0.45806 0.12197
 O558 O 0.37588 0.46794 0.16091
 O559 O 0.37548 0.28886 0.16867
 O560 O 0.41213 0.28016 0.12374
 O561 O 0.29129 0.32809 0.12336
 O562 O 0.28367 0.37381 0.08577
 O563 O 0.33001 0.37481 0.20840
 O564 O 0.37584 0.40916 0.21829
 Zr565 Zr 0.37411 0.37219 0.18239
 O566 O 0.40455 0.40295 0.15474
 Zr567 Zr 0.31699 0.37243 0.12512
 O568 O 0.34477 0.40340 0.09509
 Zr569 Zr 0.37445 0.31530 0.12483
 O570 O 0.40480 0.34351 0.09447
 Zr571 Zr 0.37612 0.43201 0.12363
 O572 O 0.34534 0.40400 0.15413
 Zr573 Zr 0.43341 0.37474 0.12323
 O574 O 0.40583 0.34364 0.15385
 Zr575 Zr 0.37611 0.37496 0.06607
 O576 O 0.34556 0.34376 0.09353
 O577 O 0.34387 0.34202 0.15522
 O578 O 0.40657 0.40537 0.09292
 C579 C 0.37534 0.29785 0.19869
 C580 C 0.30017 0.37656 0.19907
 C581 C 0.30063 0.29822 0.12173
 C582 C 0.37535 0.44915 0.04967
 C583 C 0.45002 0.44889 0.12168
 C584 C 0.45016 0.37730 0.04929
 H585 H 0.41812 0.41623 0.16954
 H586 H 0.41834 0.32896 0.08083
 H587 H 0.32967 0.32825 0.16905
 H588 H 0.33003 0.41714 0.08192
 H589 H 0.32179 0.45976 0.13916
 H590 H 0.28586 0.42640 0.11520
 H591 H 0.46540 0.32254 0.10681
 H592 H 0.42921 0.28801 0.13884
 H593 H 0.39380 0.46318 0.17625
 H594 H 0.36201 0.42719 0.21020
 H595 H 0.39262 0.32306 0.03358
 H596 H 0.36195 0.28815 0.06961
 H597 H 0.42857 0.35745 0.20986
 H598 H 0.46491 0.38993 0.17599
 H599 H 0.29021 0.35644 0.07030
 H600 H 0.32325 0.38979 0.03476
 O601 O 0.37549 0.67169 0.79206
 O602 O 0.41160 0.62643 0.78215
 O603 O 0.29086 0.62574 0.83086
 O604 O 0.27878 0.59258 0.87259
 O605 O 0.33107 0.71052 0.87756
 O606 O 0.37643 0.71875 0.91355
 O607 O 0.37544 0.54051 0.91976
 O608 O 0.33751 0.53257 0.87685
 O609 O 0.45901 0.57958 0.87560
 O610 O 0.46946 0.62684 0.83975
 O611 O 0.42042 0.62170 0.95985
 O612 O 0.37474 0.66004 0.97068
 O613 O 0.37557 0.57925 0.95940
 O614 O 0.33941 0.62618 0.97008
 O615 O 0.45944 0.62214 0.92055
 O616 O 0.46985 0.66052 0.87516
 O617 O 0.41963 0.54066 0.87585
 O618 O 0.37493 0.53118 0.83874
 O619 O 0.37636 0.71045 0.83178
 O620 O 0.41279 0.71871 0.87715
 O621 O 0.29152 0.67171 0.87622
 O622 O 0.28348 0.62634 0.91429
 O623 O 0.33015 0.62627 0.79170
 O624 O 0.37521 0.59028 0.78169
 Zr625 Zr 0.37422 0.62723 0.81766
 O626 O 0.40438 0.59620 0.84500
 Zr627 Zr 0.31698 0.62715 0.87497
 O628 O 0.34463 0.59581 0.90479
 Zr629 Zr 0.37489 0.68385 0.87563
 O630 O 0.40503 0.65522 0.90568
 Zr631 Zr 0.37576 0.56712 0.87598
 O632 O 0.34510 0.59549 0.84568
 Zr633 Zr 0.43341 0.62401 0.87660
 O634 O 0.40608 0.65549 0.84628
 Zr635 Zr 0.37622 0.62372 0.93397
 O636 O 0.34578 0.65533 0.90678
 O637 O 0.34435 0.65745 0.84516
 O638 O 0.40651 0.59322 0.90681
 C639 C 0.37612 0.70155 0.80170
 C640 C 0.30021 0.62583 0.80091
 C641 C 0.30104 0.70156 0.87721
 C642 C 0.37521 0.54943 0.94981
 C643 C 0.44959 0.54971 0.87537
 C644 C 0.45030 0.62106 0.95046
 H645 H 0.41778 0.58299 0.82994
 H646 H 0.41865 0.66958 0.91939
 H647 H 0.33051 0.67155 0.83137
 H648 H 0.32984 0.58207 0.91795
 H649 H 0.32098 0.54008 0.86097
 H650 H 0.28534 0.57355 0.88583
 H651 H 0.46551 0.67608 0.89308
 H652 H 0.42978 0.71101 0.86181
 H653 H 0.39118 0.53721 0.82200
 H654 H 0.35995 0.57312 0.78909
 H655 H 0.39289 0.67539 0.96668
 H656 H 0.36173 0.71066 0.93090
 H657 H 0.42860 0.64179 0.78973
 H658 H 0.46445 0.61003 0.82319
 H659 H 0.29024 0.64363 0.92973
 H660 H 0.32303 0.60923 0.96501
 O661 O 0.12468 0.66984 0.70982
 O662 O 0.08929 0.62456 0.71937
 O663 O 0.20982 0.62458 0.67072
 O664 O 0.22218 0.59150 0.62922
 O665 O 0.17005 0.70936 0.62377
 O666 O 0.12436 0.71853 0.58934
 O667 O 0.12550 0.53955 0.58130
 O668 O 0.16241 0.53091 0.62422
 O669 O 0.04163 0.57918 0.62349
 O670 O 0.03088 0.62552 0.66067
 O671 O 0.08132 0.62214 0.54117
 O672 O 0.12727 0.65905 0.53061
 O673 O 0.12516 0.57845 0.54192
 O674 O 0.16262 0.62536 0.53199
 O675 O 0.04175 0.62281 0.57992
 O676 O 0.03155 0.66045 0.62644
 O677 O 0.08076 0.53999 0.62314
 O678 O 0.12509 0.53076 0.66276
 O679 O 0.12520 0.70913 0.67072
 O680 O 0.08819 0.71770 0.62560
 O681 O 0.20949 0.67042 0.62471
 O682 O 0.21743 0.62433 0.58738
 O683 O 0.17060 0.62506 0.70996
 O684 O 0.12554 0.58813 0.71893
 Zr685 Zr 0.12653 0.62574 0.68374
 O686 O 0.09605 0.59522 0.65594
 Zr687 Zr 0.18389 0.62594 0.62663
 O688 O 0.15632 0.59472 0.59661
 Zr689 Zr 0.12620 0.68291 0.62648
 O690 O 0.09633 0.65462 0.59578
 Zr691 Zr 0.12478 0.56614 0.62504
 O692 O 0.15563 0.59416 0.65552
 Zr693 Zr 0.06746 0.62343 0.62428
 O694 O 0.09482 0.65434 0.65530
 Zr695 Zr 0.12518 0.62302 0.56746
 O696 O 0.15533 0.65451 0.59509
 O697 O 0.15663 0.65619 0.65668
 O698 O 0.09450 0.59268 0.59414
 C699 C 0.12467 0.69981 0.70067
 C700 C 0.20055 0.62475 0.70067
 C701 C 0.20003 0.70027 0.62315
 C702 C 0.12551 0.54857 0.55134
 C703 C 0.05086 0.54926 0.62259
 C704 C 0.05133 0.62215 0.55010
 H705 H 0.08237 0.58197 0.67065
 H706 H 0.08297 0.66923 0.58210
 H707 H 0.17054 0.67032 0.67042
 H708 H 0.17111 0.58091 0.58350
 H709 H 0.17907 0.53821 0.64007
 H710 H 0.21519 0.57200 0.61688
 H711 H 0.03603 0.67610 0.60867
 H712 H 0.07164 0.71027 0.64152
 H713 H 0.10653 0.53506 0.67754
 H714 H 0.14102 0.57123 0.71135
 H715 H 0.11010 0.67533 0.53526
 H716 H 0.13843 0.71045 0.57146
 H717 H 0.07161 0.63878 0.71123
 H718 H 0.03543 0.60818 0.67676
 H719 H 0.21084 0.64149 0.57177
 H720 H 0.17784 0.60711 0.53604
 O721 O 0.12400 0.17023 0.20868
 O722 O 0.08977 0.12443 0.21923
 O723 O 0.20986 0.12332 0.16978
 O724 O 0.22160 0.08989 0.12850
 O725 O 0.17057 0.20819 0.12276
 O726 O 0.12516 0.21724 0.08762
 O727 O 0.12235 0.03885 0.08119
 O728 O 0.16173 0.03036 0.12316
 O729 O 0.04103 0.07907 0.12525
 O730 O 0.03091 0.12650 0.16081
 O731 O 0.08066 0.12193 0.04097
 O732 O 0.12763 0.15811 0.03038
 O733 O 0.12248 0.07751 0.04168
 O734 O 0.16163 0.12275 0.03107
 O735 O 0.04131 0.12153 0.07994
 O736 O 0.03140 0.16038 0.12570
 O737 O 0.07990 0.03961 0.12556
 O738 O 0.12479 0.02984 0.16235
 O739 O 0.12467 0.20899 0.16910
 O740 O 0.08906 0.21759 0.12370
 O741 O 0.20964 0.16887 0.12352
 O742 O 0.21691 0.12268 0.08638
 O743 O 0.17090 0.12531 0.20920
 O744 O 0.12606 0.08868 0.21907
 Zr745 Zr 0.12667 0.12571 0.18326
 O746 O 0.09589 0.09515 0.15590
 Zr747 Zr 0.18365 0.12472 0.12586
 O748 O 0.15564 0.09352 0.09610
 Zr749 Zr 0.12647 0.18220 0.12535
 O750 O 0.09607 0.15393 0.09522
 Zr751 Zr 0.12406 0.06551 0.12496
 O752 O 0.15523 0.09349 0.15517
 Zr753 Zr 0.06717 0.12318 0.12420
 O754 O 0.09501 0.15418 0.15464
 Zr755 Zr 0.12458 0.12196 0.06705
 O756 O 0.15524 0.15327 0.09420
 O757 O 0.15684 0.15565 0.15579
 O758 O 0.09377 0.09204 0.09413
 C759 C 0.12322 0.20005 0.19909
 C760 C 0.20077 0.12412 0.19977
 C761 C 0.20044 0.19879 0.12198
 C762 C 0.12141 0.04767 0.05113
 C763 C 0.05006 0.04908 0.12580
 C764 C 0.05075 0.12136 0.05007
 H765 H 0.08232 0.08219 0.17100
 H766 H 0.08275 0.16854 0.08149
 H767 H 0.17069 0.16989 0.16948
 H768 H 0.17002 0.07936 0.08289
 H769 H 0.17840 0.03726 0.13918
 H770 H 0.21466 0.07064 0.11574
 H771 H 0.03544 0.17529 0.10720
 H772 H 0.07166 0.20989 0.13855
 H773 H 0.10905 0.03646 0.17938
 H774 H 0.14182 0.07186 0.21186
 H775 H 0.11028 0.17432 0.03459
 H776 H 0.13986 0.20917 0.07025
 H777 H 0.07198 0.13863 0.21129
 H778 H 0.03551 0.10955 0.17730
 H779 H 0.21000 0.13943 0.07047
 H780 H 0.17633 0.10408 0.03506
 O781 O 0.70989 0.37604 0.82967
 O782 O 0.71881 0.41259 0.87471
 O783 O 0.67126 0.29143 0.87498
 O784 O 0.62985 0.27939 0.90864
 O785 O 0.62448 0.33078 0.79028
 O786 O 0.58938 0.37647 0.78113
 O787 O 0.58041 0.37741 0.95930
 O788 O 0.62265 0.33858 0.96806
 O789 O 0.62240 0.45968 0.92052
 O790 O 0.66049 0.47045 0.87462
 O791 O 0.54095 0.41988 0.87527
 O792 O 0.53163 0.37250 0.83894
 O793 O 0.54149 0.37745 0.91999
 O794 O 0.53150 0.33896 0.87450
 O795 O 0.57967 0.45944 0.87568
 O796 O 0.62668 0.46997 0.83933
 O797 O 0.62319 0.42038 0.95948
 O798 O 0.66159 0.37589 0.96915
 O799 O 0.67068 0.37585 0.79056
 O800 O 0.62581 0.41238 0.78146
 O801 O 0.62466 0.29148 0.82935
 O802 O 0.58804 0.28325 0.87517
 O803 O 0.71008 0.33102 0.87536
 O804 O 0.71896 0.37654 0.91129
 Zr805 Zr 0.68367 0.37492 0.87385
 O806 O 0.65557 0.40524 0.90439
 Zr807 Zr 0.62690 0.31721 0.87373
 O808 O 0.59634 0.34488 0.90451
 Zr809 Zr 0.62661 0.37477 0.81665
 O810 O 0.59590 0.40489 0.84462
 Zr811 Zr 0.62449 0.37649 0.93319
 O812 O 0.65547 0.34581 0.90546
 Zr813 Zr 0.62410 0.43387 0.87607
 O814 O 0.65517 0.40645 0.84517
 Zr815 Zr 0.56742 0.37599 0.87587
 O816 O 0.59535 0.34556 0.84491
 O817 O 0.65686 0.34450 0.84350
 O818 O 0.59378 0.40677 0.90642
 C819 C 0.70060 0.37607 0.79973
 C820 C 0.70113 0.30099 0.87544
 C821 C 0.62342 0.30084 0.79948
 C822 C 0.55056 0.37817 0.94992
 C823 C 0.62202 0.45030 0.95042
 C824 C 0.54987 0.44989 0.87517
 H825 H 0.67016 0.41890 0.91779
 H826 H 0.58240 0.41816 0.82976
 H827 H 0.67067 0.33049 0.82950
 H828 H 0.58307 0.33029 0.91834
 H829 H 0.63903 0.32215 0.96135
 H830 H 0.61631 0.28590 0.92751
 H831 H 0.60966 0.46503 0.82302
 H832 H 0.64121 0.42931 0.78909
 H833 H 0.67735 0.39342 0.96414
 H834 H 0.71138 0.36141 0.92849
 H835 H 0.53572 0.39016 0.82306
 H836 H 0.57213 0.36133 0.78855
 H837 H 0.71071 0.42986 0.85997
 H838 H 0.67616 0.46606 0.89236
 H839 H 0.57178 0.29051 0.85894
 H840 H 0.53584 0.32368 0.89261
 O841 O 0.12445 0.82968 0.79189
 O842 O 0.08760 0.87438 0.78268
 O843 O 0.20824 0.87706 0.83113
 O844 O 0.21911 0.91071 0.87301
 O845 O 0.17032 0.79110 0.87644
 O846 O 0.12528 0.78119 0.91271
 O847 O 0.11963 0.95896 0.92179
 O848 O 0.15884 0.96874 0.87980
 O849 O 0.03872 0.91846 0.87682
 O850 O 0.02964 0.87128 0.84036
 O851 O 0.07850 0.87628 0.96051
 O852 O 0.12549 0.83855 0.97018
 O853 O 0.12142 0.91961 0.96067
 O854 O 0.15943 0.87412 0.97062
 O855 O 0.03951 0.87586 0.92130
 O856 O 0.03020 0.83712 0.87539
 O857 O 0.07710 0.95838 0.87747
 O858 O 0.12193 0.96954 0.84079
 O859 O 0.12464 0.79049 0.83108
 O860 O 0.08901 0.78045 0.87644
 O861 O 0.20876 0.83104 0.87645
 O862 O 0.21558 0.87637 0.91452
 O863 O 0.16899 0.87608 0.79206
 O864 O 0.12317 0.91127 0.78276
 Zr865 Zr 0.12493 0.87388 0.81814
 O866 O 0.09388 0.90371 0.84603
 Zr867 Zr 0.18209 0.87487 0.87532
 O868 O 0.15354 0.90498 0.90579
 Zr869 Zr 0.12575 0.81653 0.87525
 O870 O 0.09471 0.84386 0.90576
 Zr871 Zr 0.12165 0.93313 0.87747
 O872 O 0.15311 0.90609 0.84661
 Zr873 Zr 0.06554 0.87470 0.87720
 O874 O 0.09382 0.84440 0.84638
 Zr875 Zr 0.12272 0.87567 0.93446
 O876 O 0.15410 0.84542 0.90671
 O877 O 0.15558 0.84414 0.84513
 O878 O 0.09166 0.90565 0.90780
 C879 C 0.12441 0.79972 0.80114
 C880 C 0.19892 0.87702 0.80118
 C881 C 0.20009 0.80092 0.87674
 C882 C 0.11971 0.94952 0.95166
 C883 C 0.04738 0.94858 0.87698
 C884 C 0.04862 0.87680 0.95121
 H885 H 0.08018 0.91676 0.83117
 H886 H 0.08146 0.82898 0.91927
 H887 H 0.16974 0.83049 0.83112
 H888 H 0.16776 0.91903 0.91922
 H889 H 0.17564 0.96230 0.86367
 H890 H 0.21225 0.92915 0.88698
 H891 H 0.03444 0.82200 0.89365
 H892 H 0.07143 0.78815 0.86187
 H893 H 0.10597 0.96329 0.82389
 H894 H 0.13811 0.92863 0.79035
 H895 H 0.10721 0.82328 0.96651
 H896 H 0.14013 0.78927 0.92992
 H897 H 0.07091 0.85859 0.79004
 H898 H 0.03414 0.88849 0.82410
 H899 H 0.20896 0.85918 0.93010
 H900 H 0.17512 0.89182 0.96594
 O901 O 0.70914 0.12506 0.67112
 O902 O 0.71906 0.08836 0.62690
 O903 O 0.67071 0.20892 0.62256
 O904 O 0.62859 0.22122 0.59113
 O905 O 0.62305 0.17069 0.70932
 O906 O 0.58842 0.12524 0.71906
 O907 O 0.58156 0.12189 0.54052
 O908 O 0.62403 0.15973 0.53125
 O909 O 0.62495 0.03963 0.58157
 O910 O 0.66010 0.02971 0.62863
 O911 O 0.54094 0.08036 0.62303
 O912 O 0.53059 0.12718 0.65987
 O913 O 0.54188 0.12319 0.57918
 O914 O 0.53173 0.16162 0.62503
 O915 O 0.57969 0.04084 0.62357
 O916 O 0.62536 0.03149 0.66320
 O917 O 0.62472 0.07810 0.54178
 O918 O 0.66289 0.12284 0.53161
 O919 O 0.66975 0.12579 0.71016
 O920 O 0.62459 0.08905 0.71910
 O921 O 0.62483 0.20951 0.66983
 O922 O 0.58715 0.21641 0.62368
 O923 O 0.70975 0.16961 0.62438
 O924 O 0.71916 0.12332 0.58971
 Zr925 Zr 0.68349 0.12565 0.62686
 O926 O 0.65592 0.09462 0.59679
 Zr927 Zr 0.62653 0.18310 0.62575
 O928 O 0.59666 0.15486 0.59493
 Zr929 Zr 0.62585 0.12640 0.68364
 O930 O 0.59531 0.09590 0.65580
 Zr931 Zr 0.62521 0.12272 0.56708
 O932 O 0.65552 0.15410 0.59462
 Zr933 Zr 0.62405 0.06646 0.62528
 O934 O 0.65483 0.09445 0.65583
 Zr935 Zr 0.56730 0.12424 0.62367
 O936 O 0.59476 0.15505 0.65465
 O937 O 0.65637 0.15646 0.65660
 O938 O 0.59416 0.09293 0.59398
 C939 C 0.69974 0.12530 0.70101
 C940 C 0.70060 0.19952 0.62230
 C941 C 0.62283 0.20053 0.69979
 C942 C 0.55154 0.12214 0.54940
 C943 C 0.62498 0.04834 0.55150
 C944 C 0.54989 0.05037 0.62258
 H945 H 0.67085 0.08077 0.58392
 H946 H 0.58147 0.08277 0.67050
 H947 H 0.67018 0.17076 0.67028
 H948 H 0.58363 0.16931 0.58075
 H949 H 0.63972 0.17669 0.53822
 H950 H 0.61707 0.21357 0.57140
 H951 H 0.60638 0.03533 0.67759
 H952 H 0.64011 0.07207 0.71177
 H953 H 0.67848 0.10528 0.53696
 H954 H 0.71179 0.13814 0.57218
 H955 H 0.53446 0.10950 0.67578
 H956 H 0.57061 0.13912 0.71061
 H957 H 0.71110 0.07132 0.64201
 H958 H 0.67731 0.03482 0.61254
 H959 H 0.57171 0.21024 0.64118
 H960 H 0.53614 0.17668 0.60673
 C961 C 0.37148 0.74328 0.71953
 C962 C 0.37360 0.77645 0.72735
 C963 C 0.37250 0.78493 0.76072
 C964 C 0.37298 0.76068 0.78501
 C965 C 0.37455 0.72732 0.77655
 C966 C 0.37191 0.71941 0.74344
 C967 C 0.39188 0.69691 0.72291
 C968 C 0.39144 0.72311 0.69671
 H969 H 0.37233 0.81027 0.76817
 H970 H 0.37310 0.76816 0.81033
 H971 H 0.37815 0.67461 0.71594
 H972 H 0.41651 0.69246 0.73325
 H973 H 0.37752 0.71584 0.67466
 H974 H 0.41582 0.73391 0.69184
 C975 C 0.37266 0.25579 0.28078
 C976 C 0.37526 0.22266 0.27280
 C977 C 0.37343 0.21428 0.23946
 C978 C 0.37287 0.23865 0.21527
 C979 C 0.37411 0.27202 0.22381
 C980 C 0.37211 0.27976 0.25699
 C981 C 0.39203 0.30258 0.27712
 C982 C 0.39262 0.27629 0.30324
 H983 H 0.37345 0.18896 0.23193
 H984 H 0.37255 0.23124 0.18993
 H985 H 0.37802 0.32459 0.28450
 H986 H 0.41636 0.30754 0.26624
 H987 H 0.37893 0.28318 0.32561
 H988 H 0.41730 0.26598 0.30755
 C989 C 0.62230 0.78152 0.24144
 C990 C 0.61960 0.77366 0.27453
 C991 C 0.61304 0.74082 0.28250
 C992 C 0.61284 0.71652 0.25822
 C993 C 0.61919 0.72445 0.22536
 C994 C 0.62212 0.75756 0.21750
 C995 C 0.64757 0.77467 0.19788
 C996 C 0.64776 0.80092 0.22409
 H997 H 0.60927 0.73363 0.30761
 H998 H 0.60895 0.69142 0.26542
 H999 H 0.63797 0.78341 0.17413
 H1000 H 0.67077 0.76072 0.19638
 H1001 H 0.63824 0.82475 0.21542
 H1002 H 0.67107 0.80224 0.23782
 C1003 C 0.12364 0.28287 0.24012
 C1004 C 0.12058 0.27512 0.27322
 C1005 C 0.11372 0.24237 0.28123
 C1006 C 0.11362 0.21799 0.25705
 C1007 C 0.12039 0.22576 0.22423
 C1008 C 0.12356 0.25881 0.21626
 C1009 C 0.14927 0.27572 0.19682
 C1010 C 0.14936 0.30206 0.22295
 H1011 H 0.10965 0.23528 0.30633
 H1012 H 0.10948 0.19296 0.26432
 H1013 H 0.13993 0.28443 0.17295
 H1014 H 0.17241 0.26164 0.19556
 H1015 H 0.14007 0.32591 0.21412
 H1016 H 0.17255 0.30329 0.23690
 C1017 C 0.12661 0.75831 0.71854
 C1018 C 0.12595 0.72510 0.72636
 C1019 C 0.12898 0.71667 0.75958
 C1020 C 0.12897 0.74088 0.78394
 C1021 C 0.12591 0.77415 0.77572
 C1022 C 0.12658 0.78218 0.74256
 C1023 C 0.10472 0.80390 0.72329
 C1024 C 0.10475 0.77774 0.69697
 H1025 H 0.13041 0.69136 0.76694
 H1026 H 0.13036 0.73336 0.80919
 H1027 H 0.11720 0.82671 0.71567
 H1028 H 0.08052 0.80741 0.73501
 H1029 H 0.11724 0.78551 0.67421
 H1030 H 0.08058 0.76604 0.69339
 C1031 C 0.87315 0.25669 0.78166
 C1032 C 0.87495 0.22351 0.77382
 C1033 C 0.87282 0.21497 0.74053
 C1034 C 0.87271 0.23919 0.71621
 C1035 C 0.87470 0.27254 0.72459
 C1036 C 0.87303 0.28052 0.75774
 C1037 C 0.89359 0.30299 0.77763
 C1038 C 0.89373 0.27683 0.80389
 H1039 H 0.87225 0.18963 0.73313
 H1040 H 0.87209 0.23167 0.69091
 H1041 H 0.88011 0.32536 0.78495
 H1042 H 0.91796 0.30733 0.76658
 H1043 H 0.88036 0.28416 0.82631
 H1044 H 0.91819 0.26596 0.80809
 C1045 C 0.78283 0.37167 0.75807
 C1046 C 0.77496 0.37330 0.72491
 C1047 C 0.74167 0.37164 0.71652
 C1048 C 0.71742 0.37213 0.74080
 C1049 C 0.72585 0.37433 0.77409
 C1050 C 0.75894 0.37217 0.78199
 C1051 C 0.77920 0.39269 0.80417
 C1052 C 0.80542 0.39213 0.77792
 H1053 H 0.73421 0.37101 0.69122
 H1054 H 0.69212 0.37183 0.73335
 H1055 H 0.78631 0.37935 0.82663
 H1056 H 0.76856 0.41730 0.80830
 H1057 H 0.82760 0.37847 0.78529
 H1058 H 0.81003 0.41642 0.76681
 C1059 C 0.24180 0.62843 0.78311
 C1060 C 0.27499 0.62715 0.77526
 C1061 C 0.28349 0.62943 0.74197
 C1062 C 0.25934 0.62910 0.71766
 C1063 C 0.22606 0.62651 0.72600
 C1064 C 0.21800 0.62813 0.75914
 C1065 C 0.19591 0.60718 0.77905
 C1066 C 0.22201 0.60751 0.80533
 H1067 H 0.30880 0.63038 0.73454
 H1068 H 0.26689 0.62985 0.69237
 H1069 H 0.19201 0.58270 0.76802
 H1070 H 0.17332 0.62027 0.78634
 H1071 H 0.23328 0.58323 0.80958
 H1072 H 0.21443 0.62080 0.82773
 C1073 C 0.24240 0.12667 0.28205
 C1074 C 0.27549 0.12432 0.27410
 C1075 C 0.28396 0.12632 0.24078
 C1076 C 0.25974 0.12681 0.21653
 C1077 C 0.22642 0.12534 0.22498
 C1078 C 0.21853 0.12713 0.25816
 C1079 C 0.19587 0.10683 0.27809
 C1080 C 0.22204 0.10633 0.30430
 H1081 H 0.30927 0.12650 0.23328
 H1082 H 0.26723 0.12731 0.19122
 H1083 H 0.19121 0.08250 0.26704
 H1084 H 0.17370 0.12057 0.28547
 H1085 H 0.23258 0.08171 0.30849
 H1086 H 0.21493 0.11981 0.32674
 C1087 C 0.74102 0.12745 0.78348
 C1088 C 0.77416 0.12591 0.77552
 C1089 C 0.78264 0.12868 0.74227
 C1090 C 0.75847 0.12909 0.71802
 C1091 C 0.72519 0.12674 0.72638
 C1092 C 0.71717 0.12783 0.75955
 C1093 C 0.69493 0.10667 0.77907
 C1094 C 0.72107 0.10627 0.80531
 H1095 H 0.80795 0.12951 0.73480
 H1096 H 0.76602 0.13015 0.69274
 H1097 H 0.69082 0.08245 0.76757
 H1098 H 0.67246 0.11979 0.78666
 H1099 H 0.73215 0.08181 0.80907
 H1100 H 0.71364 0.11918 0.82798
 C1101 C 0.75831 0.87787 0.28302
 C1102 C 0.72519 0.88003 0.27515
 C1103 C 0.71713 0.88553 0.24218
 C1104 C 0.74142 0.88536 0.21788
 C1105 C 0.77436 0.87963 0.22595
 C1106 C 0.78224 0.87769 0.25909
 C1107 C 0.80217 0.85300 0.27687
 C1108 C 0.77593 0.85314 0.30306
 H1109 H 0.69198 0.88873 0.23492
 H1110 H 0.73417 0.88847 0.19271
 H1111 H 0.82573 0.86326 0.28539
 H1112 H 0.80405 0.82943 0.26356
 H1113 H 0.78443 0.86338 0.32666
 H1114 H 0.76248 0.82966 0.30492
 C1115 C 0.74290 0.71670 0.37131
 C1116 C 0.77599 0.72480 0.37291
 C1117 C 0.78425 0.75812 0.37047
 C1118 C 0.75985 0.78227 0.37035
 C1119 C 0.72660 0.77366 0.37263
 C1120 C 0.71888 0.74045 0.37118
 C1121 C 0.69671 0.72051 0.39201
 C1122 C 0.72305 0.69443 0.39213
 H1123 H 0.80952 0.76569 0.36975
 H1124 H 0.76716 0.80762 0.36960
 H1125 H 0.67435 0.71296 0.37874
 H1126 H 0.69240 0.73167 0.41637
 H1127 H 0.71586 0.67188 0.37890
 H1128 H 0.73406 0.69041 0.41655
 C1129 C 0.78339 0.24030 0.62202
 C1130 C 0.77579 0.27344 0.61898
 C1131 C 0.74301 0.28164 0.61256
 C1132 C 0.71853 0.25756 0.61274
 C1133 C 0.72624 0.22469 0.61934
 C1134 C 0.75926 0.21657 0.62222
 C1135 C 0.77627 0.19718 0.64786
 C1136 C 0.80269 0.22316 0.64763
 H1137 H 0.73601 0.30678 0.60862
 H1138 H 0.69350 0.26496 0.60894
 H1139 H 0.78480 0.17320 0.63852
 H1140 H 0.76238 0.19616 0.67114
 H1141 H 0.82642 0.21412 0.63815
 H1142 H 0.80416 0.23723 0.67078
 C1143 C 0.75782 0.71721 0.12705
 C1144 C 0.72467 0.72518 0.12617
 C1145 C 0.71631 0.75847 0.12877
 C1146 C 0.74059 0.78271 0.12853
 C1147 C 0.77383 0.77427 0.12567
 C1148 C 0.78174 0.74109 0.12681
 C1149 C 0.80352 0.72133 0.10533
 C1150 C 0.77729 0.69513 0.10561
 H1151 H 0.69104 0.76595 0.12996
 H1152 H 0.73316 0.80803 0.12960
 H1153 H 0.82620 0.71380 0.11804
 H1154 H 0.80722 0.73261 0.08097
 H1155 H 0.78488 0.67255 0.11849
 H1156 H 0.76575 0.69119 0.08141
 C1157 C 0.28302 0.23975 0.12177
 C1158 C 0.27526 0.27286 0.11896
 C1159 C 0.24246 0.28102 0.11266
 C1160 C 0.21809 0.25687 0.11274
 C1161 C 0.22595 0.22400 0.11912
 C1162 C 0.25900 0.21595 0.12186
 C1163 C 0.27611 0.19646 0.14736
 C1164 C 0.30243 0.22253 0.14725
 H1165 H 0.23537 0.30616 0.10885
 H1166 H 0.19302 0.26419 0.10902
 H1167 H 0.28471 0.17256 0.13786
 H1168 H 0.26225 0.19524 0.17066
 H1169 H 0.32618 0.21364 0.13768
 H1170 H 0.30388 0.23648 0.17048
 C1171 C 0.24274 0.71912 0.87305
 C1172 C 0.27575 0.72722 0.87595
 C1173 C 0.28391 0.76065 0.87499
 C1174 C 0.25941 0.78473 0.87480
 C1175 C 0.22612 0.77598 0.87559
 C1176 C 0.21863 0.74279 0.87289
 C1177 C 0.19585 0.72211 0.89229
 C1178 C 0.22230 0.69611 0.89245
 H1179 H 0.30916 0.76831 0.87536
 H1180 H 0.26662 0.81013 0.87507
 H1181 H 0.17399 0.71492 0.87801
 H1182 H 0.19068 0.73244 0.91683
 H1183 H 0.21565 0.67399 0.87825
 H1184 H 0.23249 0.69133 0.91708
 C1185 C 0.24382 0.21777 0.37014
 C1186 C 0.27693 0.22572 0.37210
 C1187 C 0.28534 0.25903 0.36976
 C1188 C 0.26102 0.28327 0.36941
 C1189 C 0.22771 0.27479 0.37135
 C1190 C 0.21990 0.24161 0.36979
 C1191 C 0.19742 0.22170 0.39032
 C1192 C 0.22366 0.19552 0.39068
 H1193 H 0.31064 0.26649 0.36931
 H1194 H 0.26841 0.30861 0.36876
 H1195 H 0.17518 0.21426 0.37678
 H1196 H 0.19288 0.23281 0.41466
 H1197 H 0.21654 0.17303 0.37731
 H1198 H 0.23437 0.19140 0.41522
 C1199 C 0.49201 0.61681 1.03259
 C1200 C 0.52515 0.61795 1.02448
 C1201 C 0.53344 0.61509 0.99120
 C1202 C 0.50910 0.61526 0.96706
 C1203 C 0.47588 0.61811 0.97560
 C1204 C 0.46803 0.61692 1.00880
 C1205 C 0.44627 0.63841 1.02859
 C1206 C 0.47251 0.63818 1.05471
 H1207 H 0.55871 0.61414 0.98363
 H1208 H 0.51649 0.61459 0.94173
 H1209 H 0.42359 0.62576 1.03622
 H1210 H 0.44258 0.66277 1.01731
 H1211 H 0.46495 0.62523 1.07728
 H1212 H 0.48399 0.66242 1.05867
 C1213 C 0.46986 0.12111 0.50733
 C1214 C 0.47677 0.12098 0.47411
 C1215 C 0.51031 0.12033 0.46568
 C1216 C 0.53481 0.12045 0.49005
 C1217 C 0.52653 0.12121 0.52362
 C1218 C 0.49332 0.12124 0.53068
 C1219 C 0.46929 0.12234 0.55789
 C1220 C 0.44271 0.12219 0.53141
 H1221 H 0.51776 0.11995 0.44035
 H1222 H 0.56010 0.12018 0.48250
 H1223 H 0.47058 0.14557 0.57182
 H1224 H 0.46974 0.09978 0.57283
 H1225 H 0.42870 0.14534 0.53005
 H1226 H 0.42785 0.09953 0.53106
 C1227 C 0.53241 0.87412 0.50981
 C1228 C 0.52467 0.87190 0.47666
 C1229 C 0.49158 0.86737 0.46844
 C1230 C 0.46716 0.86827 0.49256
 C1231 C 0.47518 0.87367 0.52556
 C1232 C 0.50832 0.87492 0.53362
 C1233 C 0.52649 0.89942 0.55348
 C1234 C 0.55282 0.89859 0.52739
 H1235 H 0.48434 0.86414 0.44327
 H1236 H 0.44198 0.86564 0.48516
 H1237 H 0.53467 0.88916 0.57715
 H1238 H 0.51365 0.92325 0.55515
 H1239 H 0.57615 0.88797 0.53610
 H1240 H 0.55525 0.92193 0.51380
 C1241 C 1.03404 0.37433 0.50897
 C1242 C 1.02621 0.37231 0.47583
 C1243 C 0.99315 0.36753 0.46764
 C1244 C 0.96882 0.36800 0.49182
 C1245 C 0.97690 0.37321 0.52483
 C1246 C 1.01003 0.37471 0.53284
 C1247 C 1.02799 0.39926 0.55282
 C1248 C 1.05425 0.39890 0.52665
 H1249 H 0.98587 0.36442 0.44247
 H1250 H 0.94364 0.36519 0.48446
 H1251 H 1.03634 0.38893 0.57640
 H1252 H 1.01489 0.42294 0.55469
 H1253 H 1.07771 0.38847 0.53523
 H1254 H 1.05639 0.42235 0.51322
 C1255 C 0.00689 0.88122 1.03353
 C1256 C -0.02637 0.88030 1.02565
 C1257 C -0.03453 0.88285 0.99225
 C1258 C -0.01018 0.88262 0.96804
 C1259 C 0.02302 0.87967 0.97647
 C1260 C 0.03086 0.88102 1.00963
 C1261 C 0.05277 0.85978 1.02934
 C1262 C 0.02648 0.85983 1.05549
 H1263 H -0.05973 0.88372 0.98454
 H1264 H -0.01755 0.88342 0.94272
 H1265 H 0.07532 0.87274 1.03690
 H1266 H 0.05671 0.83543 1.01803
 H1267 H 0.03400 0.87262 1.07814
 H1268 H 0.01509 0.83552 1.05928
 C1269 C -0.03090 0.11907 0.00800
 C1270 C -0.02398 0.12070 -0.02520
 C1271 C 0.00954 0.12168 -0.03361
 C1272 C 0.03400 0.12161 -0.00923
 C1273 C 0.02571 0.12057 0.02433
 C1274 C -0.00745 0.11900 0.03137
 C1275 C -0.03145 0.11755 0.05859
 C1276 C -0.05803 0.11762 0.03209
 H1277 H 0.01699 0.12276 -0.05892
 H1278 H 0.05927 0.12264 -0.01677
 H1279 H -0.03118 0.14005 0.07373
 H1280 H -0.02992 0.09425 0.07233
 H1281 H -0.07308 0.14016 0.03196
 H1282 H -0.07186 0.09437 0.03052
 C1283 C 0.11597 1.03147 0.99399
 C1284 C 0.11822 1.02342 1.02716
 C1285 C 0.11587 0.98999 1.03526
 C1286 C 0.11520 0.96592 1.01074
 C1287 C 0.11704 0.97457 0.97748
 C1288 C 0.11538 1.00776 0.96989
 C1289 C 0.13560 1.02780 0.94725
 C1290 C 0.13622 1.05386 0.97362
 H1291 H 0.11593 0.98216 1.06046
 H1292 H 0.11471 0.94054 1.01799
 H1293 H 0.12183 1.03532 0.92521
 H1294 H 0.15988 1.01677 0.94238
 H1295 H 0.12272 1.07633 0.96677
 H1296 H 0.16088 1.05802 0.98401
 C1297 C 0.12575 0.50711 0.46883
 C1298 C 0.12671 0.47389 0.47660
 C1299 C 0.13089 0.46552 0.50971
 C1300 C 0.13100 0.48974 0.53409
 C1301 C 0.12690 0.52294 0.52599
 C1302 C 0.12580 0.53097 0.49285
 C1303 C 0.10197 0.55162 0.47474
 C1304 C 0.10200 0.52554 0.44838
 H1305 H 0.13316 0.44024 0.51694
 H1306 H 0.13335 0.48230 0.55929
 H1307 H 0.11289 0.57504 0.46659
 H1308 H 0.07821 0.55393 0.48763
 H1309 H 0.11309 0.53393 0.42514
 H1310 H 0.07824 0.51275 0.44585
 C1311 C 0.37557 0.50772 1.03215
 C1312 C 0.37361 0.47457 1.02419
 C1313 C 0.36832 0.46647 0.99115
 C1314 C 0.36828 0.49076 0.96690
 C1315 C 0.37353 0.52378 0.97508
 C1316 C 0.37549 0.53166 1.00825
 C1317 C 0.40012 0.55173 1.02597
 C1318 C 0.40032 0.52545 1.05206
 H1319 H 0.36515 0.44130 0.98381
 H1320 H 0.36511 0.48350 0.94172
 H1321 H 0.38971 0.57521 1.03464
 H1322 H 0.42358 0.55379 1.01252
 H1323 H 0.39022 0.53389 1.07577
 H1324 H 0.42385 0.51211 1.05365
 C1325 C 0.87697 0.49126 0.46865
 C1326 C 0.87455 0.52442 0.47643
 C1327 C 0.86936 0.53271 0.50944
 C1328 C 0.86970 0.50856 0.53382
 C1329 C 0.87527 0.47555 0.52578
 C1330 C 0.87731 0.46747 0.49267
 C1331 C 0.90237 0.44775 0.47507
 C1332 C 0.90206 0.47383 0.44880
 H1333 H 0.86596 0.55790 0.51662
 H1334 H 0.86650 0.51593 0.55898
 H1335 H 0.89255 0.42395 0.46660
 H1336 H 0.92585 0.44629 0.48850
 H1337 H 0.89212 0.46504 0.42519
 H1338 H 0.92533 0.48761 0.44704
 C1339 C 0.87586 0.99174 -0.03097
 C1340 C 0.87358 1.02487 -0.02308
 C1341 C 0.86843 1.03312 0.00995
 C1342 C 0.86866 1.00892 0.03426
 C1343 C 0.87409 0.97591 0.02612
 C1344 C 0.87612 0.96791 -0.00701
 C1345 C 0.90117 0.94823 -0.02468
 C1346 C 0.90084 0.97431 -0.05094
 H1347 H 0.86512 1.05831 0.01718
 H1348 H 0.86547 1.01622 0.05944
 H1349 H 0.89136 0.92442 -0.03314
 H1350 H 0.92466 0.94683 -0.01126
 H1351 H 0.89078 0.96554 -0.07452
 H1352 H 0.92415 0.98802 -0.05285
 C1353 C 0.62492 0.00624 0.46934
 C1354 C 0.62562 -0.02693 0.47734
 C1355 C 0.62974 -0.03510 0.51051
 C1356 C 0.63005 -0.01070 0.53473
 C1357 C 0.62620 0.02247 0.52638
 C1358 C 0.62514 0.03025 0.49319
 C1359 C 0.60147 0.05096 0.47493
 C1360 C 0.60131 0.02469 0.44875
 H1361 H 0.63183 -0.06035 0.51791
 H1362 H 0.63234 -0.01796 0.55998
 H1363 H 0.61257 0.07423 0.46661
 H1364 H 0.57773 0.05353 0.48779
 H1365 H 0.61247 0.03283 0.42545
 H1366 H 0.57746 0.01206 0.44630
 C1367 C 0.50757 1.02959 0.38383
 C1368 C 0.47447 1.02160 0.38191
 C1369 C 0.46605 0.98832 0.38441
 C1370 C 0.49034 0.96406 0.38489
 C1371 C 0.52361 0.97253 0.38273
 C1372 C 0.53147 1.00572 0.38415
 C1373 C 0.55380 1.02547 0.36327
 C1374 C 0.52763 1.05170 0.36303
 H1375 H 0.44075 0.98084 0.38454
 H1376 H 0.48293 0.93873 0.38550
 H1377 H 0.55804 1.01421 0.33895
 H1378 H 0.57619 1.03298 0.37646
 H1379 H 0.51675 1.05575 0.33855
 H1380 H 0.53492 1.07422 0.37625
 C1381 C 0.00845 -0.03332 0.12610
 C1382 C -0.02467 -0.02534 0.12774
 C1383 C -0.03281 0.00775 0.13271
 C1384 C -0.00854 0.03201 0.13266
 C1385 C 0.02448 0.02379 0.12765
 C1386 C 0.03237 -0.00940 0.12600
 C1387 C 0.05244 -0.02737 0.10148
 C1388 C 0.02633 -0.05364 0.10173
 H1389 H -0.05798 0.01512 0.13561
 H1390 H -0.01582 0.05723 0.13554
 H1391 H 0.07605 -0.03572 0.11176
 H1392 H 0.05422 -0.01423 0.07784
 H1393 H 0.03487 -0.07702 0.11237
 H1394 H 0.01309 -0.05592 0.07819
 C1395 C 0.53234 0.49036 0.11719
 C1396 C 0.52449 0.52352 0.11935
 C1397 C 0.49122 0.53202 0.11714
 C1398 C 0.46693 0.50778 0.11704
 C1399 C 0.47529 0.47444 0.11905
 C1400 C 0.50842 0.46649 0.11705
 C1401 C 0.52852 0.44387 0.13719
 C1402 C 0.55477 0.47006 0.13734
 H1403 H 0.48378 0.55735 0.11688
 H1404 H 0.44165 0.51531 0.11681
 H1405 H 0.53571 0.42163 0.12342
 H1406 H 0.51773 0.43930 0.16164
 H1407 H 0.57704 0.46288 0.12364
 H1408 H 0.55922 0.48070 0.16188
 C1409 C 0.00953 0.46676 0.61906
 C1410 C -0.02365 0.47468 0.61988
 C1411 C -0.03204 0.50791 0.61666
 C1412 C -0.00782 0.53222 0.61671
 C1413 C 0.02540 0.52391 0.61985
 C1414 C 0.03340 0.49071 0.61899
 C1415 C 0.05519 0.47131 0.64066
 C1416 C 0.02899 0.44509 0.64080
 H1417 H -0.05732 0.51534 0.61547
 H1418 H -0.01530 0.55750 0.61566
 H1419 H 0.05889 0.48297 0.66486
 H1420 H 0.07788 0.46361 0.62797
 H1421 H 0.01742 0.44158 0.66508
 H1422 H 0.03667 0.42229 0.62832
 C1423 C 0.50803 0.53214 0.87554
 C1424 C 0.47493 0.52414 0.87359
 C1425 C 0.46689 0.49110 0.86825
 C1426 C 0.49123 0.46688 0.86818
 C1427 C 0.52421 0.47512 0.87342
 C1428 C 0.53202 0.50829 0.87541
 C1429 C 0.55200 0.52603 0.90010
 C1430 C 0.52566 0.55208 0.90036
 H1431 H 0.44175 0.48377 0.86508
 H1432 H 0.48404 0.44168 0.86499
 H1433 H 0.57546 0.53474 0.88972
 H1434 H 0.55407 0.51259 0.92353
 H1435 H 0.53403 0.57581 0.89033
 H1436 H 0.51228 0.55362 0.92390
 C1437 C 0.61841 0.53239 0.99272
 C1438 C 0.61951 0.52429 1.02594
 C1439 C 0.61637 0.49087 1.03391
 C1440 C 0.61618 0.46682 1.00936
 C1441 C 0.61921 0.47543 0.97617
 C1442 C 0.61826 0.50867 0.96858
 C1443 C 0.63954 0.52840 0.94666
 C1444 C 0.63966 0.55446 0.97306
 H1445 H 0.61527 0.48302 1.05909
 H1446 H 0.61499 0.44145 1.01656
 H1447 H 0.62666 0.53613 0.92416
 H1448 H 0.66381 0.51700 0.94262
 H1449 H 0.62675 0.57713 0.96577
 H1450 H 0.66402 0.55825 0.98429
 C1451 C 0.37431 0.99212 0.46797
 C1452 C 0.37387 1.02552 0.47549
 C1453 C 0.37058 1.03405 0.50878
 C1454 C 0.37052 1.00997 0.53325
 C1455 C 0.37394 0.97665 0.52526
 C1456 C 0.37432 0.96840 0.49214
 C1457 C 0.39757 0.94726 0.47374
 C1458 C 0.39768 0.97321 0.44734
 H1459 H 0.36884 1.05936 0.51618
 H1460 H 0.36877 1.01763 0.55846
 H1461 H 0.38613 0.92401 0.46580
 H1462 H 0.42143 0.94457 0.48627
 H1463 H 0.38644 0.96486 0.42415
 H1464 H 0.42158 0.98569 0.44467
 C1465 C -0.03027 0.62118 0.50769
 C1466 C -0.02325 0.62149 0.47448
 C1467 C 0.01033 0.62124 0.46619
 C1468 C 0.03473 0.62122 0.49068
 C1469 C 0.02634 0.62143 0.52424
 C1470 C -0.00690 0.62116 0.53116
 C1471 C -0.03104 0.62148 0.55829
 C1472 C -0.05752 0.62149 0.53169
 H1473 H 0.01788 0.62123 0.44089
 H1474 H 0.06004 0.62123 0.48321
 H1475 H -0.03008 0.64447 0.57263
 H1476 H -0.03038 0.59866 0.57282
 H1477 H -0.07180 0.64449 0.53070
 H1478 H -0.07210 0.59866 0.53088
 C1479 C 0.50856 0.38233 1.03200
 C1480 C 0.47548 0.38043 1.02388
 C1481 C 0.46726 0.38305 0.99060
 C1482 C 0.49167 0.38329 0.96647
 C1483 C 0.52490 0.38091 0.97505
 C1484 C 0.53261 0.38258 1.00824
 C1485 C 0.55497 0.36213 1.02830
 C1486 C 0.52858 0.36185 1.05438
 H1487 H 0.44201 0.38351 0.98301
 H1488 H 0.48437 0.38392 0.94113
 H1489 H 0.57717 0.37574 1.03577
 H1490 H 0.55955 0.33775 1.01731
 H1491 H 0.53561 0.37529 1.07684
 H1492 H 0.51783 0.33731 1.05852
 C1493 C 0.50794 -0.03175 0.61894
 C1494 C 0.47482 -0.02357 0.61971
 C1495 C 0.46667 0.00971 0.61652
 C1496 C 0.49108 0.03382 0.61664
 C1497 C 0.52423 0.02525 0.61982
 C1498 C 0.53199 -0.00799 0.61893
 C1499 C 0.55361 -0.02758 0.64062
 C1500 C 0.52720 -0.05358 0.64071
 H1501 H 0.44144 0.01732 0.61532
 H1502 H 0.48380 0.05917 0.61565
 H1503 H 0.55736 -0.01597 0.66483
 H1504 H 0.57625 -0.03545 0.62795
 H1505 H 0.51557 -0.05702 0.66496
 H1506 H 0.53472 -0.07644 0.62823
 C1507 C 0.00848 0.53066 0.38364
 C1508 C -0.02462 0.52260 0.38186
 C1509 C -0.03294 0.48929 0.38437
 C1510 C -0.00859 0.46509 0.38471
 C1511 C 0.02465 0.47363 0.38237
 C1512 C 0.03244 0.50684 0.38381
 C1513 C 0.05463 0.52668 0.36287
 C1514 C 0.02840 0.55285 0.36279
 H1515 H -0.05821 0.48175 0.38462
 H1516 H -0.01594 0.43974 0.38532
 H1517 H 0.05879 0.51548 0.33851
 H1518 H 0.07706 0.53421 0.37598
 H1519 H 0.01740 0.55691 0.33837
 H1520 H 0.03570 0.57536 0.37602
 C1521 C 0.00554 1.03082 0.87521
 C1522 C -0.02773 1.02300 0.87553
 C1523 C -0.03601 0.98958 0.87310
 C1524 C -0.01170 0.96530 0.87306
 C1525 C 0.02155 0.97370 0.87564
 C1526 C 0.02943 1.00690 0.87523
 C1527 C 0.05086 1.02604 0.89754
 C1528 C 0.02467 1.05224 0.89761
 H1529 H -0.06125 0.98196 0.87200
 H1530 H -0.01908 0.93998 0.87197
 H1531 H 0.07373 1.03388 0.88532
 H1532 H 0.05418 1.01412 0.92165
 H1533 H 0.03254 1.07520 0.88556
 H1534 H 0.01272 1.05550 0.92175
 C1535 C 0.74195 0.62629 0.28224
 C1536 C 0.77506 0.62406 0.27428
 C1537 C 0.78344 0.62568 0.24092
 C1538 C 0.75916 0.62585 0.21671
 C1539 C 0.72583 0.62439 0.22520
 C1540 C 0.71801 0.62644 0.25838
 C1541 C 0.69550 0.60619 0.27854
 C1542 C 0.72173 0.60605 0.30470
 H1543 H 0.80873 0.62584 0.23338
 H1544 H 0.76661 0.62613 0.19138
 H1545 H 0.69094 0.58174 0.26770
 H1546 H 0.67328 0.61988 0.28585
 H1547 H 0.73241 0.58152 0.30909
 H1548 H 0.71460 0.61969 0.32704
 C1549 C 0.28120 0.87482 0.75917
 C1550 C 0.27323 0.87620 0.72601
 C1551 C 0.23993 0.87399 0.71775
 C1552 C 0.21573 0.87396 0.74212
 C1553 C 0.22418 0.87616 0.77542
 C1554 C 0.25735 0.87480 0.78319
 C1555 C 0.27716 0.89591 0.80521
 C1556 C 0.30330 0.89593 0.77888
 H1557 H 0.23242 0.87320 0.69247
 H1558 H 0.19043 0.87313 0.73474
 H1559 H 0.28469 0.88286 0.82770
 H1560 H 0.26592 0.92026 0.80929
 H1561 H 0.32585 0.88287 0.78623
 H1562 H 0.30726 0.92028 0.76767
 C1563 C 0.25903 0.37873 0.28162
 C1564 C 0.22592 0.38117 0.27382
 C1565 C 0.21778 0.38659 0.24086
 C1566 C 0.24197 0.38602 0.21648
 C1567 C 0.27486 0.37996 0.22450
 C1568 C 0.28285 0.37816 0.25761
 C1569 C 0.30260 0.35337 0.27547
 C1570 C 0.27645 0.35394 0.30176
 H1571 H 0.19263 0.38998 0.23368
 H1572 H 0.23468 0.38906 0.19131
 H1573 H 0.32630 0.36342 0.28384
 H1574 H 0.30418 0.32970 0.26230
 H1575 H 0.28515 0.36424 0.32526
 H1576 H 0.26278 0.33062 0.30381
 C1577 C 0.87212 0.75583 0.28127
 C1578 C 0.87510 0.72279 0.27313
 C1579 C 0.87371 0.71453 0.23974
 C1580 C 0.87311 0.73901 0.21568
 C1581 C 0.87389 0.77233 0.22442
 C1582 C 0.87155 0.77991 0.25761
 C1583 C 0.89114 0.80279 0.27800
 C1584 C 0.89174 0.77638 0.30399
 H1585 H 0.87408 0.68925 0.23210
 H1586 H 0.87312 0.73173 0.19030
 H1587 H 0.87692 0.82465 0.28538
 H1588 H 0.91552 0.80798 0.26733
 H1589 H 0.87783 0.78305 0.32629
 H1590 H 0.91647 0.76624 0.30844
 C1591 C 0.62362 0.28324 0.74093
 C1592 C 0.62047 0.27550 0.77402
 C1593 C 0.61349 0.24277 0.78203
 C1594 C 0.61329 0.21842 0.75780
 C1595 C 0.62009 0.22619 0.72498
 C1596 C 0.62345 0.25923 0.71704
 C1597 C 0.64930 0.27601 0.69767
 C1598 C 0.64948 0.30231 0.72383
 H1599 H 0.60936 0.23571 0.80712
 H1600 H 0.60904 0.19340 0.76505
 H1601 H 0.64005 0.28481 0.67379
 H1602 H 0.67236 0.26181 0.69644
 H1603 H 0.64034 0.32623 0.71500
 H1604 H 0.67265 0.30340 0.73782
 C1605 C 0.74310 0.21884 0.87231
 C1606 C 0.77622 0.22676 0.87438
 C1607 C 0.78461 0.26009 0.87267
 C1608 C 0.76027 0.28434 0.87259
 C1609 C 0.72694 0.27584 0.87423
 C1610 C 0.71916 0.24268 0.87223
 C1611 C 0.69668 0.22251 0.89251
 C1612 C 0.72294 0.19633 0.89256
 H1613 H 0.80991 0.26757 0.87239
 H1614 H 0.76767 0.30968 0.87225
 H1615 H 0.67446 0.21522 0.87886
 H1616 H 0.69213 0.23332 0.91697
 H1617 H 0.71583 0.17400 0.87891
 H1618 H 0.73363 0.19192 0.91705
 C1619 C 0.28236 0.74200 0.62307
 C1620 C 0.27440 0.77511 0.62067
 C1621 C 0.24150 0.78305 0.61455
 C1622 C 0.21729 0.75869 0.61444
 C1623 C 0.22538 0.72578 0.62047
 C1624 C 0.25851 0.71801 0.62301
 C1625 C 0.27597 0.69828 0.64808
 C1626 C 0.30213 0.72452 0.64809
 H1627 H 0.23421 0.80818 0.61104
 H1628 H 0.19216 0.76586 0.61085
 H1629 H 0.28464 0.67457 0.63817
 H1630 H 0.26233 0.69666 0.67147
 H1631 H 0.32581 0.71592 0.63810
 H1632 H 0.30377 0.73812 0.67151
   
