data_POSCAR
  _audit_creation_date              2014-09-24
  _audit_creation_method            'ToBaCCo'
  _symmetry_space_group_name_H-M    'P1'
  _symmetry_Int_Tables_number       1
  _symmetry_cell_setting            triclinic
  loop_
  _symmetry_equiv_pos_as_xyz
 x,y,z
_cell_length_a 58.6821
_cell_length_b 58.0738
_cell_length_c 57.6655
_cell_angle_alpha 90.431700
_cell_angle_beta 91.694500
_cell_angle_gamma 91.709700
loop_
  _atom_site_label
  _atom_site_type_symbol
  _atom_site_fract_x
  _atom_site_fract_y
  _atom_site_fract_z
C1 C 0.41697 0.03029 0.27227
 H2 H 0.41717 0.04211 0.25786
 C3 C 0.42825 0.03636 0.29316
 H4 H 0.43714 0.05292 0.29483
 C5 C 0.40424 -0.00537 0.28784
 H6 H 0.39463 -0.02146 0.28568
 C7 C 0.41510 0.00010 0.30911
 H8 H 0.41402 -0.01203 0.32324
 N9 N 0.40529 0.00975 0.27003
 C10 C 0.40005 -0.00332 0.19581
 H11 H 0.38176 -0.00492 0.19306
 C12 C 0.41445 -0.00658 0.17731
 H13 H 0.40710 -0.01006 0.16015
 C14 C 0.43185 0.00316 0.22160
 H15 H 0.43860 0.00636 0.23898
 C16 C 0.44685 0.00006 0.20363
 H17 H 0.46505 0.00124 0.20731
 Zn18 Zn 0.38872 0.00416 0.24200
 N19 N 0.40893 0.00173 0.21735
 C20 C 0.36893 0.04240 0.21874
 N21 N 0.36932 0.02910 0.23808
 C22 C 0.35747 0.03468 0.25711
 C23 C 0.34525 0.05480 0.25758
 C24 C 0.35666 0.06268 0.21839
 C25 C 0.38304 -0.04306 0.23832
 C26 C 0.37130 -0.06399 0.23466
 C27 C 0.33615 -0.04518 0.24250
 C28 C 0.34861 -0.02441 0.24530
 N29 N 0.37157 -0.02371 0.24288
 H30 H 0.37890 0.03791 0.20402
 H31 H 0.35846 0.02400 0.27238
 H32 H 0.33679 0.05966 0.27325
 H33 H 0.35724 0.07380 0.20341
 H34 H 0.40136 -0.04204 0.23672
 H35 H 0.38139 -0.07890 0.23144
 H36 H 0.31781 -0.04451 0.24339
 H37 H 0.33973 -0.00875 0.24856
 C38 C 0.43818 -0.00477 0.18112
 C39 C 0.42710 0.02129 0.31198
 C40 C 0.34724 -0.06549 0.23611
 C41 C 0.34521 0.06922 0.23825
 C42 C 0.10971 0.01753 0.72255
 H43 H 0.10690 0.03160 0.73443
 C44 C 0.10182 0.01876 0.69950
 H45 H 0.09308 0.03397 0.69381
 C46 C 0.12558 -0.01879 0.71551
 H47 H 0.13480 -0.03342 0.72183
 C48 C 0.11774 -0.01842 0.69242
 H49 H 0.12085 -0.03302 0.68131
 N50 N 0.12198 -0.00069 0.72988
 C51 C 0.09740 -0.01906 0.78385
 H52 H 0.09940 -0.03340 0.77207
 C53 C 0.08292 -0.02151 0.80262
 H54 H 0.07405 -0.03783 0.80534
 C55 C 0.10802 0.01897 0.79569
 H56 H 0.11781 0.03470 0.79303
 C57 C 0.09360 0.01740 0.81441
 H58 H 0.09269 0.03195 0.82616
 Zn59 Zn 0.13491 0.00056 0.76042
 N60 N 0.11073 0.00038 0.78171
 C61 C 0.16296 0.03358 0.78521
 N62 N 0.15403 0.02749 0.76391
 C63 C 0.15980 0.03952 0.74470
 C64 C 0.17404 0.05913 0.74663
 C65 C 0.17697 0.05340 0.78801
 C66 C 0.17223 -0.02701 0.75228
 C67 C 0.18716 -0.04505 0.75570
 C68 C 0.16494 -0.05759 0.78810
 C69 C 0.15055 -0.03922 0.78417
 N70 N 0.15406 -0.02469 0.76613
 H71 H 0.15882 0.02326 0.80014
 H72 H 0.15364 0.03378 0.72774
 H73 H 0.17847 0.06821 0.73100
 H74 H 0.18298 0.05848 0.80527
 H75 H 0.17504 -0.01484 0.73846
 H76 H 0.20147 -0.04658 0.74443
 H77 H 0.16127 -0.06939 0.80204
 H78 H 0.13668 -0.03666 0.79566
 C79 C 0.08190 -0.00350 0.81885
 C80 C 0.10620 0.00082 0.68391
 C81 C 0.18343 -0.06085 0.77365
 C82 C 0.18242 0.06671 0.76857
 C83 C 0.63511 0.50793 0.21373
 H84 H 0.65304 0.51271 0.21455
 C85 C 0.62306 0.50892 0.19263
 H86 H 0.63180 0.51440 0.17724
 C87 C 0.60237 0.49286 0.23218
 H88 H 0.59467 0.48552 0.24731
 C89 C 0.58958 0.49375 0.21136
 H90 H 0.57211 0.48715 0.21060
 N91 N 0.62483 0.49958 0.23288
 C92 C 0.63666 0.46698 0.29765
 H93 H 0.65184 0.45870 0.29212
 C94 C 0.62700 0.46042 0.31849
 H95 H 0.63484 0.44717 0.32886
 C96 C 0.60884 0.49529 0.29186
 H97 H 0.60225 0.50937 0.28175
 C98 C 0.59841 0.48901 0.31246
 H99 H 0.58393 0.49843 0.31822
 Zn100 Zn 0.64439 0.49495 0.25904
 N101 N 0.62786 0.48453 0.28506
 C102 C 0.65207 0.53735 0.28279
 N103 N 0.66037 0.52315 0.26639
 C104 C 0.67883 0.52965 0.25401
 C105 C 0.68937 0.55133 0.25759
 C106 C 0.66191 0.55924 0.28674
 C107 C 0.65509 0.45380 0.23825
 C108 C 0.66744 0.43421 0.23389
 C109 C 0.69978 0.45177 0.25489
 C110 C 0.68671 0.47113 0.25897
 N111 N 0.66468 0.47161 0.25088
 H112 H 0.63734 0.53208 0.29237
 H113 H 0.68519 0.51815 0.24104
 H114 H 0.70402 0.55611 0.24752
 H115 H 0.65432 0.57053 0.29918
 H116 H 0.63747 0.45443 0.23232
 H117 H 0.65925 0.41990 0.22443
 H118 H 0.71692 0.45108 0.26229
 H119 H 0.69380 0.48522 0.26950
 C120 C 0.60792 0.47180 0.32629
 C121 C 0.60020 0.50130 0.19124
 C122 C 0.68986 0.43279 0.24274
 C123 C 0.68064 0.56668 0.27384
 C124 C 0.92436 0.50877 0.76649
 H125 H 0.93171 0.51109 0.74968
 C126 C 0.93672 0.51609 0.78647
 H127 H 0.95323 0.52435 0.78419
 C128 C 0.89329 0.49650 0.78894
 H129 H 0.87629 0.48886 0.78975
 C130 C 0.90502 0.50333 0.80931
 H131 H 0.89680 0.49957 0.82543
 N132 N 0.90294 0.49946 0.76806
 C133 C 0.90669 0.47136 0.70346
 H134 H 0.90158 0.45516 0.71112
 C135 C 0.91589 0.47152 0.68142
 H136 H 0.91776 0.45539 0.67222
 C137 C 0.90905 0.51218 0.70540
 H138 H 0.90567 0.52795 0.71463
 C139 C 0.91811 0.51314 0.68335
 H140 H 0.92207 0.52974 0.67578
 Zn141 Zn 0.88496 0.49150 0.74116
 N142 N 0.90292 0.49154 0.71465
 C143 C 0.85307 0.51555 0.71446
 N144 N 0.86239 0.51376 0.73625
 C145 C 0.85740 0.52894 0.75330
 C146 C 0.84280 0.54698 0.74864
 C147 C 0.83845 0.53334 0.70903
 C148 C 0.87968 0.44635 0.75907
 C149 C 0.87102 0.42368 0.75918
 C150 C 0.84460 0.43325 0.72806
 C151 C 0.85372 0.45570 0.72858
 N152 N 0.87104 0.46180 0.74381
 H153 H 0.85774 0.50370 0.70098
 H154 H 0.86524 0.52760 0.77037
 H155 H 0.83970 0.55938 0.76222
 H156 H 0.83153 0.53471 0.69150
 H157 H 0.89380 0.45137 0.77066
 H158 H 0.87821 0.41159 0.77136
 H159 H 0.83135 0.42862 0.71527
 H160 H 0.84737 0.46803 0.71630
 C161 C 0.92096 0.49265 0.67085
 C162 C 0.92709 0.51377 0.80856
 C163 C 0.85345 0.41681 0.74329
 C164 C 0.83347 0.54957 0.72615
 C165 C 0.21029 0.42628 0.98776
 H166 H 0.22179 0.42540 0.97348
 C167 C 0.19139 0.44033 0.98628
 H168 H 0.18816 0.45025 0.97076
 C169 C 0.20024 0.41435 1.02547
 H170 H 0.20329 0.40381 1.04048
 C171 C 0.18153 0.42845 1.02491
 H172 H 0.17040 0.42876 1.03956
 N173 N 0.21453 0.41399 1.00734
 C174 C 0.28727 0.40530 1.01069
 H175 H 0.28747 0.38674 1.01211
 C176 C 0.30763 0.41812 1.01097
 H177 H 0.32361 0.40933 1.01265
 C178 C 0.26601 0.43932 1.00753
 H179 H 0.24970 0.44744 1.00659
 C180 C 0.28608 0.45290 1.00793
 H181 H 0.28517 0.47146 1.00683
 Zn182 Zn 0.24102 0.39656 1.00951
 N183 N 0.26706 0.41597 1.00865
 C184 C 0.25601 0.37795 0.96747
 N185 N 0.24067 0.37532 0.98454
 C186 C 0.22435 0.35823 0.98350
 C187 C 0.22351 0.34243 0.96513
 C188 C 0.25544 0.36289 0.94849
 C189 C 0.24445 0.39624 1.05717
 C190 C 0.24441 0.38747 1.07954
 C191 C 0.24171 0.34900 1.06316
 C192 C 0.24168 0.35856 1.04102
 N193 N 0.24247 0.38183 1.03849
 H194 H 0.26835 0.39213 0.96817
 H195 H 0.21200 0.35684 0.99702
 H196 H 0.21070 0.32863 0.96505
 H197 H 0.26730 0.36592 0.93474
 H198 H 0.24541 0.41467 1.05461
 H199 H 0.24520 0.39930 1.09416
 H200 H 0.24113 0.33045 1.06494
 H201 H 0.24102 0.34736 1.02599
 C202 C 0.30717 0.44220 1.00943
 C203 C 0.17712 0.44177 1.00527
 C204 C 0.24284 0.36356 1.08275
 C205 C 0.23902 0.34477 0.94708
 C206 C 0.76592 0.10035 0.99584
 H207 H 0.75013 0.09054 0.99753
 C208 C 0.78635 0.08881 0.99334
 H209 H 0.78580 0.07018 0.99377
 C210 C 0.78555 0.13647 0.99432
 H211 H 0.78507 0.15508 0.99476
 C212 C 0.80628 0.12576 0.99229
 H213 H 0.82146 0.13656 0.99040
 N214 N 0.76609 0.12376 0.99721
 C215 C 0.69546 0.12274 0.99480
 H216 H 0.69430 0.13609 0.98195
 C217 C 0.67714 0.10716 0.99719
 H218 H 0.66207 0.10863 0.98605
 C219 C 0.71587 0.10513 1.02563
 H220 H 0.73114 0.10443 1.03655
 C221 C 0.69780 0.08937 1.02881
 H222 H 0.69920 0.07651 1.04224
 Zn223 Zn 0.74033 0.14096 1.00452
 N224 N 0.71456 0.12114 1.00858
 C225 C 0.72972 0.15276 0.95845
 N226 N 0.73558 0.16165 0.97977
 C227 C 0.74051 0.18456 0.98282
 C228 C 0.73999 0.19939 0.96392
 C229 C 0.72849 0.16708 0.93917
 C230 C 0.76622 0.15348 1.04509
 C231 C 0.77187 0.16628 1.06509
 C232 C 0.73726 0.18728 1.05938
 C233 C 0.73208 0.17380 1.03960
 N234 N 0.74677 0.15764 1.03256
 H235 H 0.72678 0.13438 0.95631
 H236 H 0.74617 0.19120 0.99960
 H237 H 0.74513 0.21734 0.96631
 H238 H 0.72469 0.15968 0.92214
 H239 H 0.77736 0.14010 1.03975
 H240 H 0.78740 0.16274 1.07487
 H241 H 0.72544 0.20009 1.06481
 H242 H 0.71653 0.17651 1.02957
 C243 C 0.67827 0.09012 1.01425
 C244 C 0.80720 0.10152 0.99276
 C245 C 0.75740 0.18353 1.07232
 C246 C 0.73415 0.19057 0.94181
 C247 C 0.28292 0.58752 0.49003
 H248 H 0.26585 0.58017 0.48889
 C249 C 0.30136 0.57286 0.48998
 H250 H 0.29828 0.55438 0.48938
 C251 C 0.30798 0.62026 0.49119
 H252 H 0.31040 0.63880 0.49180
 C253 C 0.32689 0.60627 0.49080
 H254 H 0.34387 0.61413 0.49136
 N255 N 0.28654 0.61075 0.49167
 C256 C 0.21663 0.62806 0.48131
 H257 H 0.22032 0.64449 0.47339
 C258 C 0.19478 0.61822 0.47875
 H259 H 0.18207 0.62759 0.46906
 C260 C 0.22821 0.59757 0.50545
 H261 H 0.24109 0.59002 0.51655
 C262 C 0.20677 0.58654 0.50253
 H263 H 0.20394 0.57007 0.51074
 Zn264 Zn 0.26261 0.63182 0.49468
 N265 N 0.23312 0.61729 0.49380
 C266 C 0.25987 0.64307 0.44782
 N267 N 0.26423 0.65216 0.46935
 C268 C 0.26875 0.67509 0.47258
 C269 C 0.26833 0.68998 0.45368
 C270 C 0.25901 0.65736 0.42851
 C271 C 0.28464 0.64738 0.53731
 C272 C 0.28711 0.66179 0.55683
 C273 C 0.25072 0.67793 0.54670
 C274 C 0.24912 0.66351 0.52728
 N275 N 0.26609 0.64889 0.52272
 H276 H 0.25648 0.62474 0.44579
 H277 H 0.27249 0.68191 0.48980
 H278 H 0.27162 0.70824 0.45653
 H279 H 0.25531 0.64990 0.41149
 H280 H 0.29777 0.63535 0.53370
 H281 H 0.30237 0.66088 0.56774
 H282 H 0.23683 0.68924 0.55000
 H283 H 0.23444 0.66419 0.51555
 C284 C 0.18972 0.59664 0.48858
 C285 C 0.32366 0.58226 0.49082
 C286 C 0.27013 0.67758 0.56158
 C287 C 0.26311 0.68115 0.43137
 C288 C 0.69392 0.89830 0.49328
 H289 H 0.69396 0.88420 0.48095
 C290 C 0.67424 0.91093 0.49551
 H291 H 0.65928 0.90589 0.48508
 C292 C 0.71295 0.92060 0.52286
 H293 H 0.72803 0.92403 0.53372
 C294 C 0.69392 0.93421 0.52512
 H295 H 0.69497 0.94842 0.53737
 N296 N 0.71277 0.90330 0.50684
 C297 C 0.78599 0.89279 0.50499
 H298 H 0.78599 0.87425 0.50605
 C299 C 0.80667 0.90520 0.50494
 H300 H 0.82239 0.89591 0.50575
 C301 C 0.76551 0.92716 0.50139
 H302 H 0.74946 0.93564 0.49933
 C303 C 0.78585 0.94031 0.50145
 H304 H 0.78515 0.95886 0.50014
 Zn305 Zn 0.73884 0.88525 0.50365
 N306 N 0.76593 0.90385 0.50355
 C307 C 0.74677 0.87686 0.45624
 N308 N 0.73646 0.86858 0.47539
 C309 C 0.72545 0.84768 0.47516
 C310 C 0.72553 0.83365 0.45550
 C311 C 0.74659 0.86367 0.43584
 C312 C 0.72953 0.86680 0.54830
 C313 C 0.72980 0.84982 0.56539
 C314 C 0.75236 0.82657 0.54050
 C315 C 0.75222 0.84418 0.52428
 N316 N 0.74064 0.86370 0.52819
 H317 H 0.75525 0.89365 0.45682
 H318 H 0.71718 0.84157 0.49055
 H319 H 0.71770 0.81660 0.45642
 H320 H 0.75450 0.87085 0.42070
 H321 H 0.72038 0.88240 0.55111
 H322 H 0.72129 0.85295 0.58145
 H323 H 0.76085 0.81086 0.53627
 H324 H 0.76071 0.84187 0.50809
 C325 C 0.80682 0.92932 0.50341
 C326 C 0.67404 0.92941 0.51144
 C327 C 0.74117 0.82919 0.56154
 C328 C 0.73615 0.84152 0.43535
 C329 C 0.01546 0.27924 0.40255
 H330 H 0.03237 0.27765 0.39612
 C331 C 0.01050 0.29891 0.41527
 H332 H 0.02371 0.31208 0.41840
 C333 C -0.02261 0.26506 0.40524
 H334 H -0.03557 0.25196 0.40095
 C335 C -0.02844 0.28475 0.41761
 H336 H -0.04584 0.28666 0.42289
 N337 N -0.00105 0.26282 0.39758
 C338 C 0.02809 0.19745 0.38834
 H339 H 0.03883 0.20281 0.37437
 C340 C 0.03228 0.17670 0.39937
 H341 H 0.04719 0.16769 0.39426
 C342 C -0.00353 0.20360 0.41177
 H343 H -0.01772 0.21406 0.41624
 C344 C -0.00020 0.18262 0.42311
 H345 H -0.01247 0.17738 0.43578
 Zn346 Zn 0.00445 0.23763 0.37717
 N347 N 0.01040 0.21047 0.39452
 C348 C 0.05068 0.24701 0.36960
 N349 N 0.02997 0.24489 0.35845
 C350 C 0.02791 0.24748 0.33502
 C351 C 0.04713 0.25304 0.32203
 C352 C 0.07016 0.25263 0.35742
 C353 C -0.03265 0.21110 0.35806
 C354 C -0.05447 0.20776 0.34813
 C355 C -0.05424 0.24795 0.33764
 C356 C -0.03238 0.25056 0.34788
 N357 N -0.02238 0.23240 0.35844
 H358 H 0.05208 0.24418 0.38810
 H359 H 0.01136 0.24539 0.32639
 H360 H 0.04523 0.25545 0.30348
 H361 H 0.08643 0.25417 0.36675
 H362 H -0.02436 0.19684 0.36636
 H363 H -0.06277 0.19087 0.34882
 H364 H -0.06253 0.26285 0.33050
 H365 H -0.02392 0.26737 0.34858
 C366 C 0.01769 0.16829 0.41667
 C367 C -0.01178 0.30207 0.42253
 C368 C -0.06584 0.22649 0.33845
 C369 C 0.06855 0.25603 0.33336
 C370 C -0.01368 0.72100 0.09461
 H371 H -0.01574 0.73619 0.08417
 C372 C -0.01621 0.69928 0.08405
 H373 H -0.02007 0.69814 0.06560
 C374 C -0.00826 0.70402 0.13145
 H375 H -0.00591 0.70574 0.14996
 C376 C -0.01037 0.68203 0.12160
 H377 H -0.00883 0.66723 0.13277
 N378 N -0.00986 0.72304 0.11797
 C379 C -0.02473 0.79159 0.10651
 H380 H -0.03863 0.79158 0.11836
 C381 C -0.02318 0.80891 0.08992
 H382 H -0.03583 0.82212 0.08921
 C383 C 0.00952 0.77562 0.09388
 H384 H 0.02232 0.76267 0.09570
 C385 C 0.01202 0.79298 0.07743
 H386 H 0.02691 0.79357 0.06676
 Zn387 Zn -0.00964 0.75282 0.13220
 N388 N -0.00837 0.77550 0.10840
 C389 C 0.03108 0.77522 0.14926
 N390 N 0.01593 0.75763 0.15344
 C391 C 0.01880 0.74407 0.17244
 C392 C 0.03795 0.74723 0.18732
 C393 C 0.05032 0.77906 0.16371
 C394 C -0.05641 0.75173 0.13409
 C395 C -0.07788 0.75572 0.14256
 C396 C -0.06031 0.76499 0.17999
 C397 C -0.03896 0.76149 0.17044
 N398 N -0.03745 0.75546 0.14771
 H399 H 0.02838 0.78645 0.13471
 H400 H 0.00609 0.73101 0.17640
 H401 H 0.03997 0.73622 0.20226
 H402 H 0.06236 0.79282 0.15961
 H403 H -0.05475 0.74637 0.11622
 H404 H -0.09235 0.75212 0.13091
 H405 H -0.06057 0.77089 0.19781
 H406 H -0.02362 0.76435 0.18103
 C407 C -0.00438 0.80997 0.07553
 C408 C -0.01485 0.67938 0.09763
 C409 C -0.08040 0.76320 0.16576
 C410 C 0.05411 0.76484 0.18291
 C411 C 0.50166 0.21999 0.60584
 H412 H 0.51740 0.22997 0.60430
 C413 C 0.49875 0.19871 0.59421
 H414 H 0.51244 0.19234 0.58400
 C415 C 0.46515 0.21564 0.62190
 H416 H 0.45212 0.22201 0.63287
 C417 C 0.46149 0.19451 0.61053
 H418 H 0.44547 0.18515 0.61276
 N419 N 0.48503 0.22792 0.61954
 C420 C 0.48822 0.30262 0.62703
 H421 H 0.48567 0.30336 0.64552
 C422 C 0.49086 0.32293 0.61464
 H423 H 0.49022 0.33929 0.62372
 C424 C 0.49298 0.28034 0.59300
 H425 H 0.49410 0.26365 0.58476
 C426 C 0.49572 0.30042 0.57983
 H427 H 0.49921 0.29910 0.56155
 Zn428 Zn 0.48931 0.25620 0.63656
 N429 N 0.49000 0.28186 0.61631
 C430 C 0.53285 0.27385 0.65154
 N431 N 0.51739 0.25621 0.65438
 C432 C 0.52157 0.23924 0.66997
 C433 C 0.54155 0.24008 0.68397
 C434 C 0.55285 0.27545 0.66524
 C435 C 0.44431 0.26634 0.64592
 C436 C 0.42567 0.27203 0.65905
 C437 C 0.44824 0.26545 0.69392
 C438 C 0.46664 0.26012 0.68007
 N439 N 0.46437 0.26067 0.65649
 H440 H 0.52972 0.28692 0.63874
 H441 H 0.50919 0.22523 0.67180
 H442 H 0.54439 0.22665 0.69656
 H443 H 0.56483 0.28967 0.66263
 H444 H 0.44298 0.26692 0.62718
 H445 H 0.40994 0.27671 0.65025
 H446 H 0.45039 0.26534 0.71264
 H447 H 0.48278 0.25603 0.68824
 C448 C 0.49536 0.32202 0.59090
 C449 C 0.47854 0.18547 0.59680
 C450 C 0.42755 0.27188 0.68338
 C451 C 0.55735 0.25858 0.68191
 C452 C 0.52475 0.76524 0.91398
 H453 H 0.53776 0.75244 0.91503
 C454 C 0.52680 0.78500 0.92790
 H455 H 0.54126 0.78695 0.93991
 C456 C 0.49013 0.77791 0.89705
 H457 H 0.47594 0.77519 0.88489
 C458 C 0.49167 0.79814 0.91043
 H459 H 0.47873 0.81087 0.90803
 N460 N 0.50684 0.76221 0.89865
 C461 C 0.52858 0.69381 0.89198
 H462 H 0.53665 0.69478 0.87549
 C463 C 0.53343 0.67547 0.90665
 H464 H 0.54463 0.66240 0.90059
 C465 C 0.50375 0.70909 0.91933
 H466 H 0.49217 0.72233 0.92418
 C467 C 0.50855 0.69129 0.93483
 H468 H 0.50077 0.69131 0.95160
 Zn469 Zn 0.50724 0.73582 0.87888
 N470 N 0.51383 0.71014 0.89837
 C471 C 0.54110 0.76212 0.85684
 N472 N 0.53028 0.74107 0.85641
 C473 C 0.53596 0.72473 0.84068
 C474 C 0.55482 0.72835 0.82658
 C475 C 0.55950 0.76668 0.84269
 C476 C 0.46451 0.71317 0.86954
 C477 C 0.44252 0.71062 0.85973
 C478 C 0.44987 0.74434 0.83655
 C479 C 0.47174 0.74629 0.84687
 N480 N 0.47842 0.73112 0.86342
 H481 H 0.53576 0.77544 0.86845
 H482 H 0.52640 0.70853 0.83963
 H483 H 0.56001 0.71452 0.81541
 H484 H 0.56786 0.78355 0.84371
 H485 H 0.47022 0.70113 0.88251
 H486 H 0.43155 0.69647 0.86519
 H487 H 0.44453 0.75713 0.82412
 H488 H 0.48319 0.76034 0.84220
 C489 C 0.52365 0.67407 0.92864
 C490 C 0.51042 0.80212 0.92587
 C491 C 0.43475 0.72660 0.84335
 C492 C 0.56742 0.74934 0.82810
 C493 C -0.25957 0.67390 0.96933
 H494 H -0.26173 0.68310 0.98539
 C495 C -0.25864 0.68615 0.94871
 H496 H -0.25952 0.70473 0.94940
 C497 C -0.25552 0.63870 0.94904
 H498 H -0.25404 0.62018 0.94946
 C499 C -0.25484 0.65025 0.92794
 H500 H -0.25343 0.64039 0.91207
 N501 N -0.25721 0.65069 0.96923
 C502 C -0.27377 0.64992 1.03958
 H503 H -0.28567 0.63538 1.03807
 C504 C -0.27400 0.66439 1.05911
 H505 H -0.28603 0.66007 1.07232
 C506 C -0.24238 0.67109 1.02500
 H507 H -0.22986 0.67339 1.01174
 C508 C -0.24237 0.68629 1.04369
 H509 H -0.23037 0.70072 1.04335
 Zn510 Zn -0.25475 0.63406 0.99714
 N511 N -0.25806 0.65355 1.02305
 C512 C -0.22025 0.60981 1.01952
 N513 N -0.22551 0.62215 1.00024
 C514 C -0.20971 0.62718 0.98415
 C515 C -0.18767 0.61938 0.98693
 C516 C -0.19829 0.60167 1.02303
 C517 C -0.29893 0.61604 0.99497
 C518 C -0.31617 0.59910 0.99375
 C519 C -0.28749 0.57005 0.99286
 C520 C -0.27072 0.58762 0.99436
 N521 N -0.27676 0.61003 0.99578
 H522 H -0.23311 0.60648 1.03223
 H523 H -0.21401 0.63754 0.96930
 H524 H -0.17542 0.62327 0.97373
 H525 H -0.19422 0.59203 1.03853
 H526 H -0.30314 0.63405 0.99551
 H527 H -0.33382 0.60409 0.99355
 H528 H -0.28262 0.55222 0.99221
 H529 H -0.25294 0.58332 0.99430
 C530 C -0.25788 0.68293 1.06176
 C531 C -0.25596 0.67437 0.92765
 C532 C -0.31048 0.57581 0.99295
 C533 C -0.18169 0.60660 1.00663
 C534 C -0.23053 0.34663 0.54995
 H535 H -0.21818 0.36064 0.55206
 C536 C -0.23049 0.32957 0.56541
 H537 H -0.21839 0.33113 0.57985
 C538 C -0.26188 0.32962 0.52833
 H539 H -0.27420 0.32972 0.51403
 C540 C -0.26219 0.31016 0.54461
 H541 H -0.27437 0.29628 0.54070
 N542 N -0.24713 0.34665 0.53114
 C543 C -0.26925 0.37322 0.46548
 H544 H -0.27462 0.38990 0.47125
 C545 C -0.27512 0.36549 0.44305
 H546 H -0.28501 0.37631 0.43160
 C547 C -0.24923 0.33909 0.47306
 H548 H -0.23877 0.32910 0.48474
 C549 C -0.25504 0.33053 0.45089
 H550 H -0.24885 0.31400 0.44550
 Zn551 Zn -0.24851 0.37171 0.50998
 N552 N -0.25646 0.36005 0.47993
 C553 C -0.20752 0.38683 0.48959
 N554 N -0.21983 0.38764 0.50920
 C555 C -0.21154 0.39892 0.52857
 C556 C -0.18945 0.40855 0.52924
 C557 C -0.18550 0.39666 0.48935
 C558 C -0.29254 0.38222 0.52207
 C559 C -0.31112 0.39595 0.52592
 C560 C -0.28622 0.42966 0.52396
 C561 C -0.26801 0.41515 0.52013
 N562 N -0.27158 0.39192 0.51882
 H563 H -0.21448 0.37798 0.47429
 H564 H -0.22187 0.39988 0.54375
 H565 H -0.18272 0.41673 0.54504
 H566 H -0.17557 0.39524 0.47389
 H567 H -0.29502 0.36375 0.52108
 H568 H -0.32735 0.38731 0.52887
 H569 H -0.28288 0.44806 0.52352
 H570 H -0.25128 0.42260 0.51711
 C571 C -0.26795 0.34392 0.43554
 C572 C -0.24751 0.30994 0.56317
 C573 C -0.30852 0.42022 0.52604
 C574 C -0.17609 0.40711 0.50956
 C575 C 0.25470 -0.13945 0.02584
 H576 H 0.26637 -0.14494 0.01296
 C577 C 0.25486 -0.14975 0.04665
 H578 H 0.26627 -0.16377 0.04966
 C579 C 0.22644 -0.11333 0.03685
 H580 H 0.21555 -0.09905 0.03344
 C581 C 0.22589 -0.12415 0.05977
 H582 H 0.21479 -0.11677 0.07230
 N583 N 0.23911 -0.12132 0.02069
 C584 C 0.21230 -0.13417 -0.04671
 H585 H 0.19846 -0.12256 -0.04480
 C586 C 0.21058 -0.15119 -0.06411
 H587 H 0.19511 -0.15274 -0.07476
 C588 C 0.24924 -0.14598 -0.03568
 H589 H 0.26475 -0.14329 -0.02538
 C590 C 0.24842 -0.16284 -0.05303
 H591 H 0.26340 -0.17291 -0.05546
 Zn592 Zn 0.23525 -0.10808 -0.00954
 N593 N 0.23140 -0.13194 -0.03274
 C594 C 0.27230 -0.09313 -0.03633
 N595 N 0.26153 -0.08976 -0.01608
 C596 C 0.26988 -0.07417 -0.00006
 C597 C 0.29025 -0.06181 -0.00381
 C598 C 0.29297 -0.08171 -0.04048
 C599 C 0.18878 -0.10088 -0.00550
 C600 C 0.16876 -0.08886 -0.00351
 C601 C 0.19038 -0.05326 -0.00810
 C602 C 0.21004 -0.06614 -0.01056
 N603 N 0.20889 -0.08955 -0.00922
 H604 H 0.26516 -0.10506 -0.04921
 H605 H 0.26087 -0.07161 0.01581
 H606 H 0.29637 -0.04938 0.00916
 H607 H 0.30167 -0.08593 -0.05616
 H608 H 0.18841 -0.11940 -0.00357
 H609 H 0.15337 -0.09869 0.00022
 H610 H 0.19184 -0.03472 -0.00965
 H611 H 0.22624 -0.05737 -0.01324
 C612 C 0.22887 -0.16581 -0.06756
 C613 C 0.23868 -0.14258 0.06462
 C614 C 0.16909 -0.06458 -0.00490
 C615 C 0.30250 -0.06593 -0.02402
 C616 C 0.27428 1.16618 0.47395
 H617 H 0.28713 1.16202 0.48689
 C618 C 0.28065 1.17871 0.45452
 H619 H 0.29822 1.18461 0.45290
 C620 C 0.23638 1.16151 0.45892
 H621 H 0.21931 1.15437 0.46031
 C622 C 0.24211 1.17363 0.43904
 H623 H 0.22933 1.17589 0.42538
 N624 N 0.25237 1.15813 0.47600
 C625 C 0.22888 1.15748 0.54446
 H626 H 0.21447 1.14585 0.54102
 C627 C 0.23021 1.16997 0.56527
 H628 H 0.21682 1.16782 0.57767
 C629 C 0.26478 1.17306 0.53367
 H630 H 0.27852 1.17388 0.52174
 C631 C 0.26680 1.18577 0.55418
 H632 H 0.28203 1.19639 0.55765
 Zn633 Zn 0.24563 1.14009 0.50235
 N634 N 0.24619 1.15901 0.52926
 C635 C 0.28075 1.11588 0.52552
 N636 N 0.26872 1.11842 0.50521
 C637 C 0.27485 1.10784 0.48534
 C638 C 0.29485 1.09555 0.48496
 C639 C 0.30077 1.10342 0.52598
 C640 C 0.19789 1.13787 0.49735
 C641 C 0.17619 1.12747 0.49763
 C642 C 0.19360 1.09040 0.50084
 C643 C 0.21502 1.10152 0.50037
 N644 N 0.21675 1.12488 0.49903
 H645 H 0.27552 1.12451 0.54107
 H646 H 0.26500 1.11031 0.46945
 H647 H 0.30041 1.08849 0.46870
 H648 H 0.31105 1.10266 0.54185
 H649 H 0.19973 1.15645 0.49668
 H650 H 0.16140 1.13817 0.49660
 H651 H 0.19257 1.07189 0.50294
 H652 H 0.23023 1.09155 0.50200
 C653 C 0.24963 1.18388 0.57048
 C654 C 0.26449 1.18230 0.43674
 C655 C 0.17385 1.10347 0.49995
 C656 C 0.30837 1.09393 0.50529
 C657 C 0.15512 0.46373 0.25706
 H658 H 0.14984 0.47098 0.27325
 C659 C 0.16544 0.44236 0.25709
 H660 H 0.16745 0.43311 0.27323
 C661 C 0.15847 0.46644 0.21637
 H662 H 0.15594 0.47577 0.20051
 C663 C 0.16865 0.44509 0.21557
 H664 H 0.17350 0.43810 0.19903
 N665 N 0.15063 0.47469 0.23669
 C666 C 0.13686 0.54405 0.21718
 H667 H 0.11943 0.54133 0.21092
 C668 C 0.14840 0.56481 0.21276
 H669 H 0.13963 0.57803 0.20319
 C670 C 0.16898 0.53050 0.23829
 H671 H 0.17676 0.51702 0.24835
 C672 C 0.18118 0.55105 0.23429
 H673 H 0.19849 0.55321 0.24116
 Zn674 Zn 0.13071 0.50008 0.23618
 N675 N 0.14726 0.52744 0.22973
 C676 C 0.11993 0.52224 0.27861
 N677 N 0.11745 0.50256 0.26568
 C678 C 0.10665 0.48345 0.27406
 C679 C 0.09903 0.48319 0.29670
 C680 C 0.11213 0.52286 0.30131
 C681 C 0.11353 0.49451 0.19019
 C682 C 0.09744 0.48942 0.17248
 C683 C 0.06841 0.48724 0.20117
 C684 C 0.08526 0.49171 0.21838
 N685 N 0.10744 0.49488 0.21272
 H686 H 0.12852 0.53725 0.27158
 H687 H 0.10489 0.46803 0.26343
 H688 H 0.09127 0.46757 0.30346
 H689 H 0.11480 0.53833 0.31177
 H690 H 0.13087 0.49883 0.18576
 H691 H 0.10329 0.49016 0.15488
 H692 H 0.05125 0.48389 0.20687
 H693 H 0.08048 0.49255 0.23628
 C694 C 0.17085 0.56857 0.22142
 C695 C 0.17127 0.43238 0.23598
 C696 C 0.07419 0.48566 0.17754
 C697 C 0.10211 0.50294 0.31068
 C698 C -0.14142 1.03091 0.25935
 H699 H -0.15139 1.01544 0.25499
 C700 C -0.15234 1.05180 0.26230
 H701 H -0.17070 1.05223 0.26002
 C702 C -0.10526 1.04950 0.26575
 H703 H -0.08687 1.04849 0.26659
 C704 C -0.11543 1.07060 0.26908
 H705 H -0.10468 1.08572 0.27284
 N706 N -0.11826 1.03026 0.26072
 C707 C -0.13265 0.96742 0.26482
 H708 H -0.12813 0.97321 0.28227
 C709 C -0.14705 0.94798 0.26135
 H710 H -0.15313 0.93881 0.27632
 C711 C -0.12890 0.97165 0.22431
 H712 H -0.12161 0.98058 0.20985
 C713 C -0.14364 0.95269 0.22004
 H714 H -0.14779 0.94782 0.20223
 Zn715 Zn -0.10248 1.00349 0.25283
 N716 N -0.12362 0.97862 0.24643
 C717 C -0.06861 0.97715 0.27581
 N718 N -0.08336 0.99463 0.27824
 C719 C -0.08626 1.00473 0.29927
 C720 C -0.07389 0.99758 0.31880
 C721 C -0.05543 0.96984 0.29486
 C722 C -0.09810 1.02017 0.20818
 C723 C -0.08823 1.02500 0.18700
 C724 C -0.05213 1.01298 0.20303
 C725 C -0.06285 1.00818 0.22397
 N726 N -0.08566 1.01104 0.22587
 H727 H -0.06722 0.96876 0.25913
 H728 H -0.09863 1.01797 0.30111
 H729 H -0.07644 1.00576 0.33543
 H730 H -0.04359 0.95609 0.29273
 H731 H -0.11599 1.02330 0.21040
 H732 H -0.09890 1.03244 0.17358
 H733 H -0.03426 1.00923 0.20187
 H734 H -0.05293 1.00176 0.23847
 C735 C -0.15258 0.94016 0.23867
 C736 C -0.13924 1.07213 0.26669
 C737 C -0.06499 1.02071 0.18365
 C738 C -0.05821 0.98002 0.31667
 C739 C 0.35086 0.53635 -0.25696
 H740 H 0.34201 0.52043 -0.26200
 C741 C 0.33835 0.55590 -0.25223
 H742 H 0.31991 0.55485 -0.25377
 C743 C 0.38549 0.55682 -0.24762
 H744 H 0.40388 0.55690 -0.24551
 C745 C 0.37370 0.57667 -0.24266
 H746 H 0.38321 0.59213 -0.23719
 N747 N 0.37401 0.53716 -0.25451
 C748 C 0.37159 0.46735 -0.24312
 H749 H 0.38231 0.46984 -0.22772
 C750 C 0.35785 0.44865 -0.24495
 H751 H 0.35836 0.43630 -0.23101
 C752 C 0.36054 0.48050 -0.28073
 H753 H 0.36156 0.49307 -0.29444
 C754 C 0.34539 0.45980 -0.28375
 H755 H 0.33520 0.45825 -0.29965
 Zn756 Zn 0.39165 0.51051 -0.25746
 N757 N 0.37247 0.48382 -0.26156
 C758 C 0.39623 0.51151 -0.20977
 N759 N 0.40844 0.50795 -0.22908
 C760 C 0.43111 0.50357 -0.22754
 C761 C 0.44236 0.50280 -0.20579
 C762 C 0.40680 0.51120 -0.18787
 C763 C 0.41236 0.53342 -0.29521
 C764 C 0.42700 0.53578 -0.31380
 C765 C 0.43899 0.49690 -0.30724
 C766 C 0.42419 0.49532 -0.28872
 N767 N 0.41140 0.51351 -0.28292
 H768 H 0.37825 0.51496 -0.21147
 H769 H 0.44056 0.50100 -0.24309
 H770 H 0.46050 0.49986 -0.20466
 H771 H 0.39695 0.51466 -0.17270
 H772 H 0.40183 0.54759 -0.29065
 H773 H 0.42779 0.55194 -0.32300
 H774 H 0.44877 0.48208 -0.31170
 H775 H 0.42285 0.47954 -0.27895
 C776 C 0.34357 0.44429 -0.26644
 C777 C 0.34979 0.57633 -0.24466
 C778 C 0.44065 0.51740 -0.32003
 C779 C 0.43014 0.50701 -0.18575
 C780 C 0.65399 -0.05154 -0.22020
 H781 H 0.65301 -0.03989 -0.20561
 C782 C 0.66500 -0.07125 -0.21769
 H783 H 0.67300 -0.07479 -0.20102
 C784 C 0.64594 -0.05878 -0.26038
 H785 H 0.63914 -0.05373 -0.27709
 C786 C 0.65779 -0.08062 -0.25848
 H787 H 0.65764 -0.09146 -0.27381
 N788 N 0.64413 -0.04548 -0.24234
 C789 C 0.64471 0.02824 -0.23869
 H790 H 0.62662 0.03073 -0.23711
 C791 C 0.65985 0.04710 -0.23756
 H792 H 0.65263 0.06390 -0.23568
 C793 C 0.67489 0.00312 -0.24544
 H794 H 0.68049 -0.01413 -0.24880
 C795 C 0.69074 0.02161 -0.24469
 H796 H 0.70854 0.01798 -0.24674
 Zn797 Zn 0.63012 -0.01691 -0.24639
 N798 N 0.65238 0.00684 -0.24259
 C799 C 0.61429 -0.00870 -0.20161
 N800 N 0.60733 -0.01244 -0.22408
 C801 C 0.58481 -0.01206 -0.23049
 C802 C 0.56829 -0.00928 -0.21387
 C803 C 0.59834 -0.00543 -0.18447
 C804 C 0.62663 0.00026 -0.29163
 C805 C 0.61746 0.00265 -0.31397
 C806 C 0.58984 -0.02777 -0.30619
 C807 C 0.60002 -0.03003 -0.28414
 N808 N 0.61747 -0.01546 -0.27698
 H809 H 0.63227 -0.00805 -0.19698
 H810 H 0.57944 -0.01394 -0.24842
 H811 H 0.55042 -0.00958 -0.21917
 H812 H 0.60412 -0.00301 -0.16658
 H813 H 0.64104 0.01111 -0.28603
 H814 H 0.62517 0.01527 -0.32526
 H815 H 0.57511 -0.03861 -0.31099
 H816 H 0.59358 -0.04302 -0.27247
 C817 C 0.68341 0.04419 -0.24070
 C818 C 0.66727 -0.08704 -0.23798
 C819 C 0.59825 -0.01084 -0.32126
 C820 C 0.57501 -0.00615 -0.19053
 C821 C 0.03053 0.25076 0.83485
 H822 H 0.01783 0.26319 0.83030
 C823 C 0.04893 0.24764 0.82031
 H824 H 0.04967 0.25729 0.80437
 C825 C 0.04486 0.22329 0.86116
 H826 H 0.04353 0.21404 0.87727
 C827 C 0.06375 0.22012 0.84754
 H828 H 0.07673 0.20868 0.85382
 N829 N 0.02860 0.23832 0.85467
 C830 C -0.04376 0.24175 0.87203
 H831 H -0.04199 0.24178 0.89070
 C832 C -0.06534 0.24396 0.86162
 H833 H -0.07990 0.24572 0.87252
 C834 C -0.02715 0.23867 0.83532
 H835 H -0.01236 0.23635 0.82501
 C836 C -0.04849 0.24094 0.82412
 H837 H -0.04965 0.24092 0.80535
 Zn838 Zn 0.00395 0.24192 0.87521
 N839 N -0.02501 0.24013 0.85890
 C840 C -0.00716 0.27582 0.90820
 N841 N 0.00671 0.27118 0.89034
 C842 C 0.02128 0.28767 0.88217
 C843 C 0.02122 0.31011 0.89100
 C844 C -0.00765 0.29801 0.91766
 C845 C -0.00222 0.19678 0.88992
 C846 C -0.00212 0.17813 0.90498
 C847 C 0.01320 0.20332 0.93551
 C848 C 0.01277 0.22161 0.91978
 N849 N 0.00487 0.21805 0.89753
 H850 H -0.01821 0.26242 0.91490
 H851 H 0.03245 0.28372 0.86826
 H852 H 0.03241 0.32319 0.88378
 H853 H -0.01948 0.30158 0.93120
 H854 H -0.00803 0.19435 0.87206
 H855 H -0.00784 0.16133 0.89848
 H856 H 0.01913 0.20644 0.95324
 H857 H 0.01883 0.23859 0.92533
 C858 C -0.06784 0.24442 0.83733
 C859 C 0.06595 0.23209 0.82655
 C860 C 0.00536 0.18129 0.92822
 C861 C 0.00619 0.31562 0.90857
 C862 C 0.45883 0.25615 0.15466
 H863 H 0.46599 0.27341 0.15290
 C864 C 0.43878 0.25252 0.16691
 H865 H 0.43044 0.26710 0.17436
 C866 C 0.46013 0.21630 0.14583
 H867 H 0.46839 0.20224 0.13742
 C868 C 0.44022 0.21193 0.15783
 H869 H 0.43329 0.19446 0.15852
 N870 N 0.46866 0.23820 0.14387
 C871 C 0.54114 0.24405 0.12958
 H872 H 0.54054 0.24349 0.11081
 C873 C 0.56214 0.24517 0.14152
 H874 H 0.57761 0.24550 0.13172
 C875 C 0.52168 0.24383 0.16498
 H876 H 0.50579 0.24337 0.17402
 C877 C 0.54243 0.24502 0.17769
 H878 H 0.54237 0.24582 0.19645
 Zn879 Zn 0.49341 0.24291 0.12377
 N880 N 0.52142 0.24374 0.14134
 C881 C 0.50735 0.28536 0.10206
 N882 N 0.48944 0.27088 0.10687
 C883 C 0.46794 0.27556 0.09917
 C884 C 0.46383 0.29512 0.08593
 C885 C 0.50399 0.30519 0.08883
 C886 C 0.50844 0.20105 0.10353
 C887 C 0.50663 0.18191 0.08863
 C888 C 0.47268 0.19764 0.07113
 C889 C 0.47511 0.21639 0.08635
 N890 N 0.49272 0.21781 0.10221
 H891 H 0.52431 0.28167 0.10843
 H892 H 0.45384 0.26410 0.10340
 H893 H 0.44657 0.29827 0.07988
 H894 H 0.51841 0.31664 0.08552
 H895 H 0.52197 0.20204 0.11664
 H896 H 0.51888 0.16842 0.09047
 H897 H 0.45847 0.19693 0.05871
 H898 H 0.46257 0.22959 0.08574
 C899 C 0.56302 0.24613 0.16590
 C900 C 0.42888 0.23024 0.16795
 C901 C 0.48838 0.17989 0.07232
 C902 C 0.48196 0.31033 0.08060
 C903 C -0.04700 0.72514 0.62716
 H904 H -0.04329 0.72674 0.60895
 C905 C -0.06846 0.72138 0.63359
 H906 H -0.08165 0.72096 0.62010
 C907 C -0.03271 0.72623 0.66623
 H908 H -0.01869 0.72776 0.67879
 C909 C -0.05622 0.72189 0.67423
 H910 H -0.05826 0.71985 0.69266
 N911 N -0.02878 0.72763 0.64418
 C912 C 0.03667 0.71335 0.66165
 H913 H 0.03393 0.69773 0.65164
 C914 C 0.05451 0.71457 0.67823
 H915 H 0.06517 0.69983 0.68076
 C916 C 0.02717 0.75186 0.66988
 H917 H 0.01660 0.76643 0.66629
 C918 C 0.04526 0.75400 0.68625
 H919 H 0.04850 0.77023 0.69530
 Zn920 Zn 0.00110 0.73153 0.63283
 N921 N 0.02345 0.73187 0.65765
 C922 C 0.02571 0.76618 0.61022
 N923 N 0.00436 0.75987 0.61679
 C924 C -0.01362 0.77371 0.61267
 C925 C -0.01046 0.79474 0.60134
 C926 C 0.02966 0.78715 0.59913
 C927 C 0.00275 0.68488 0.62025
 C928 C 0.00795 0.66591 0.60664
 C929 C 0.01735 0.69175 0.57548
 C930 C 0.01241 0.71033 0.58990
 N931 N 0.00593 0.70662 0.61210
 H932 H 0.03974 0.75496 0.61385
 H933 H -0.03037 0.76868 0.61841
 H934 H -0.02485 0.80573 0.59851
 H935 H 0.04680 0.79196 0.59418
 H936 H -0.00313 0.68234 0.63768
 H937 H 0.00622 0.64873 0.61369
 H938 H 0.02317 0.69489 0.55810
 H939 H 0.01419 0.72768 0.58345
 C940 C 0.05927 0.73521 0.69040
 C941 C -0.07388 0.71913 0.65869
 C942 C 0.01575 0.66930 0.58414
 C943 C 0.01145 0.80175 0.59463
 C944 C 0.52042 0.77493 0.33720
 H945 H 0.50665 0.78684 0.33635
 C946 C 0.53962 0.77901 0.32398
 H947 H 0.54038 0.79412 0.31311
 C948 C 0.53569 0.74045 0.35173
 H949 H 0.53398 0.72529 0.36234
 C950 C 0.55529 0.74387 0.33873
 H951 H 0.56872 0.73152 0.33995
 N952 N 0.51887 0.75611 0.35101
 C953 C 0.44580 0.75677 0.35272
 H954 H 0.44341 0.76345 0.37001
 C955 C 0.42748 0.75572 0.33666
 H956 H 0.41100 0.76154 0.34180
 C957 C 0.47010 0.74081 0.32514
 H958 H 0.48682 0.73511 0.32073
 C959 C 0.45215 0.73921 0.30861
 H960 H 0.45524 0.73242 0.29148
 Zn961 Zn 0.49181 0.75269 0.36833
 N962 N 0.46670 0.74970 0.34664
 C963 C 0.48007 0.79885 0.37615
 N964 N 0.48844 0.77993 0.38683
 C965 C 0.49387 0.78039 0.40998
 C966 C 0.49089 0.80035 0.42324
 C967 C 0.47654 0.81899 0.38877
 C968 C 0.47415 0.71094 0.38632
 C969 C 0.47305 0.69185 0.40089
 C970 C 0.50971 0.70359 0.41782
 C971 C 0.51005 0.72259 0.40297
 N972 N 0.49235 0.72602 0.38769
 H973 H 0.47562 0.79821 0.35783
 H974 H 0.50038 0.76529 0.41834
 H975 H 0.49501 0.80032 0.44167
 H976 H 0.46965 0.83376 0.37994
 H977 H 0.46024 0.71382 0.37410
 H978 H 0.45839 0.68011 0.39943
 H979 H 0.52377 0.70138 0.43011
 H980 H 0.52439 0.73474 0.40382
 C981 C 0.43057 0.74702 0.31419
 C982 C 0.55756 0.76354 0.32482
 C983 C 0.49089 0.68803 0.41707
 C984 C 0.48186 0.81989 0.41266
 B985 B -0.03649 0.00056 1.00864
 B986 B -0.05239 -0.00212 0.98384
 B987 B -0.02956 0.01629 0.98496
 B988 B -0.00867 0.00439 1.00172
 B989 B -0.01912 -0.02179 1.01045
 B990 B -0.04632 -0.02567 0.99937
 B991 B -0.01762 -0.02247 0.96292
 B992 B -0.00173 -0.02011 0.98765
 B993 B -0.02476 -0.03821 0.98652
 B994 B -0.04534 -0.02636 0.96979
 B995 B -0.03496 -0.00026 0.96109
 B996 B -0.00784 0.00375 0.97226
 B997 B 0.50039 0.51695 0.51528
 B998 B 0.48555 0.51492 0.48958
 B999 B 0.51160 0.52841 0.49127
 B1000 B 0.52847 0.51394 0.51010
 B1001 B 0.51251 0.49143 0.52015
 B1002 B 0.48582 0.49228 0.50779
 B1003 B 0.51598 0.48558 0.47335
 B1004 B 0.53078 0.48714 0.49870
 B1005 B 0.50477 0.47413 0.49752
 B1006 B 0.48806 0.48841 0.47855
 B1007 B 0.50417 0.51105 0.46834
 B1008 B 0.53071 0.51002 0.48097
 B1009 B 0.50153 0.99135 0.52470
 B1010 B 0.51207 0.99526 0.49806
 B1011 B 0.49077 0.97571 0.50197
 B1012 B 0.47311 0.98620 0.52198
 B1013 B 0.48391 1.01271 0.53013
 B1014 B 0.50819 1.01827 0.51520
 B1015 B 0.47273 1.01410 0.48379
 B1016 B 0.46232 1.01046 0.51045
 B1017 B 0.48373 1.02976 0.50646
 B1018 B 0.50123 1.01915 0.48641
 B1019 B 0.49032 0.99262 0.47832
 B1020 B 0.46601 0.98741 0.49320
 B1021 B -0.00134 0.48509 1.01792
 B1022 B 0.01071 0.49074 0.99227
 B1023 B -0.01207 0.47247 0.99352
 B1024 B -0.02989 0.48238 1.01352
 B1025 B -0.01770 0.50729 1.02456
 B1026 B 0.00765 0.51219 1.01164
 B1027 B -0.02640 0.51362 0.97825
 B1028 B -0.03833 0.50831 1.00394
 B1029 B -0.01531 0.52631 1.00273
 B1030 B 0.00224 0.51632 0.98270
 B1031 B -0.01008 0.49154 0.97158
 B1032 B -0.03545 0.48652 0.98471
 B1033 B 0.02099 0.50341 0.46746
 B1034 B 0.03550 0.50259 0.49305
 B1035 B 0.01384 0.52059 0.48963
 B1036 B -0.00674 0.50747 0.47257
 B1037 B 0.00253 0.48073 0.46572
 B1038 B 0.02896 0.47782 0.47848
 B1039 B -0.00136 0.48341 0.51287
 B1040 B -0.01590 0.48418 0.48736
 B1041 B 0.00581 0.46619 0.49081
 B1042 B 0.02637 0.47936 0.50776
 B1043 B 0.01701 0.50593 0.51461
 B1044 B -0.00930 0.50895 0.50185
 B1045 B 0.50508 0.00625 -0.03163
 B1046 B 0.52520 0.00153 -0.01081
 B1047 B 0.50504 0.02130 -0.00653
 B1048 B 0.48020 0.01121 -0.01887
 B1049 B 0.48507 -0.01519 -0.03058
 B1050 B 0.51320 -0.02086 -0.02578
 B1051 B 0.49331 -0.01775 0.01621
 B1052 B 0.47308 -0.01290 -0.00446
 B1053 B 0.49319 -0.03271 -0.00884
 B1054 B 0.51813 -0.02262 0.00346
 B1055 B 0.51313 0.00375 0.01514
 B1056 B 0.48516 0.00936 0.01043
 B1057 B 0.49768 0.48698 -0.01900
 B1058 B 0.47880 0.48505 0.00230
 B1059 B 0.50081 0.46718 0.00214
 B1060 B 0.52391 0.48196 -0.00776
 B1061 B 0.51570 0.50934 -0.01315
 B1062 B 0.48754 0.51109 -0.00684
 B1063 B 0.51082 0.50123 0.03319
 B1064 B 0.52969 0.50329 0.01189
 B1065 B 0.50762 0.52104 0.01211
 B1066 B 0.48463 0.50627 0.02198
 B1067 B 0.49280 0.47895 0.02744
 B1068 B 0.52094 0.47710 0.02106
 B1069 B -0.00863 0.97236 0.48655
 B1070 B -0.02155 0.97630 0.51212
 B1071 B 0.00115 0.95921 0.51068
 B1072 B 0.01979 0.97090 0.49204
 B1073 B 0.00831 0.99564 0.48189
 B1074 B -0.01752 0.99878 0.49405
 B1075 B 0.01524 1.00048 0.52877
 B1076 B 0.02820 0.99682 0.50351
 B1077 B 0.00547 1.01364 0.50464
 B1078 B -0.01313 1.00197 0.52334
 B1079 B -0.00150 0.97726 0.53359
 B1080 B 0.02428 0.97424 0.52114
 B1081 B 0.75538 0.22560 0.24431
 B1082 B 0.75351 0.21210 0.27003
 B1083 B 0.76914 0.23675 0.26816
 B1084 B 0.75603 0.25449 0.24934
 B1085 B 0.73176 0.24049 0.23951
 B1086 B 0.73015 0.21396 0.25223
 B1087 B 0.72876 0.24670 0.28640
 B1088 B 0.73082 0.26041 0.26102
 B1089 B 0.71503 0.23574 0.26234
 B1090 B 0.72807 0.21796 0.28137
 B1091 B 0.75251 0.23199 0.29129
 B1092 B 0.75416 0.25838 0.27856
 B1093 B 0.72875 0.73568 0.71008
 B1094 B 0.73511 0.75441 0.73183
 B1095 B 0.71481 0.73353 0.73509
 B1096 B 0.72307 0.70940 0.72140
 B1097 B 0.74896 0.71573 0.70997
 B1098 B 0.75630 0.74381 0.71637
 B1099 B 0.75357 0.72047 0.75706
 B1100 B 0.74730 0.70166 0.73531
 B1101 B 0.76753 0.72259 0.73218
 B1102 B 0.75923 0.74666 0.74570
 B1103 B 0.73341 0.74028 0.75700
 B1104 B 0.72612 0.71229 0.75084
 B1105 B 0.25767 0.27061 0.78590
 B1106 B 0.25885 0.28940 0.76366
 B1107 B 0.27622 0.26677 0.76460
 B1108 B 0.26170 0.24381 0.77564
 B1109 B 0.23499 0.25253 0.78115
 B1110 B 0.23342 0.28107 0.77401
 B1111 B 0.24114 0.25664 0.73458
 B1112 B 0.23981 0.23785 0.75653
 B1113 B 0.22251 0.26053 0.75592
 B1114 B 0.23698 0.28336 0.74488
 B1115 B 0.26367 0.27438 0.73920
 B1116 B 0.26538 0.24613 0.74669
 B1117 B 0.23698 0.75054 0.26884
 B1118 B 0.24005 0.73288 0.24580
 B1119 B 0.21869 0.75189 0.24589
 B1120 B 0.22864 0.77641 0.25927
 B1121 B 0.25630 0.77245 0.26717
 B1122 B 0.26322 0.74521 0.25912
 B1123 B 0.25273 0.76915 0.21984
 B1124 B 0.24985 0.78684 0.24269
 B1125 B 0.27109 0.76786 0.24306
 B1126 B 0.26122 0.74336 0.22952
 B1127 B 0.23332 0.74749 0.22146
 B1128 B 0.22656 0.77456 0.22985
 B1129 B 0.26714 0.74217 0.72738
 B1130 B 0.25853 0.72530 0.74920
 B1131 B 0.27950 0.74554 0.75391
 B1132 B 0.27345 0.76888 0.73799
 B1133 B 0.24816 0.76297 0.72349
 B1134 B 0.23904 0.73587 0.73030
 B1135 B 0.24016 0.76192 0.76990
 B1136 B 0.24907 0.77891 0.74809
 B1137 B 0.22798 0.75876 0.74331
 B1138 B 0.23403 0.73518 0.75928
 B1139 B 0.25925 0.74106 0.77382
 B1140 B 0.26834 0.76838 0.76704
 B1141 B 0.23482 0.25826 0.22519
 B1142 B 0.23781 0.26945 0.25209
 B1143 B 0.21868 0.24780 0.24659
 B1144 B 0.22970 0.22958 0.22702
 B1145 B 0.25611 0.24044 0.22077
 B1146 B 0.26112 0.26520 0.23644
 B1147 B 0.25599 0.22996 0.26701
 B1148 B 0.25321 0.21894 0.23999
 B1149 B 0.27218 0.24066 0.24561
 B1150 B 0.26116 0.25866 0.26518
 B1151 B 0.23469 0.24796 0.27140
 B1152 B 0.22976 0.22306 0.25575
 B1153 B 0.75284 0.77142 0.27245
 B1154 B 0.74837 0.78971 0.25039
 B1155 B 0.76796 0.76919 0.24826
 B1156 B 0.75815 0.74516 0.26148
 B1157 B 0.73180 0.75091 0.27136
 B1158 B 0.72607 0.77879 0.26479
 B1159 B 0.72980 0.75482 0.22421
 B1160 B 0.73448 0.73645 0.24624
 B1161 B 0.71460 0.75688 0.24841
 B1162 B 0.72440 0.78111 0.23533
 B1163 B 0.75052 0.77525 0.22537
 B1164 B 0.75670 0.74748 0.23206
 B1165 B 0.73697 0.23704 0.77147
 B1166 B 0.73890 0.21362 0.75416
 B1167 B 0.72172 0.23505 0.74609
 B1168 B 0.73436 0.26042 0.75473
 B1169 B 0.75989 0.25425 0.76769
 B1170 B 0.76244 0.22492 0.76737
 B1171 B 0.76081 0.23983 0.72261
 B1172 B 0.75881 0.26293 0.74006
 B1173 B 0.77593 0.24111 0.74798
 B1174 B 0.76315 0.21601 0.73917
 B1175 B 0.73778 0.22226 0.72619
 B1176 B 0.73512 0.25150 0.72657
 C1177 C 0.42525 1.02439 0.35496
 C1178 C 0.43546 1.02876 0.37684
 C1179 C 0.45835 1.03703 0.37874
 C1180 C 0.47034 1.04161 0.35850
 C1181 C 0.46004 1.03704 0.33667
 C1182 C 0.43762 1.02787 0.33479
 C1183 C 0.46909 1.03958 0.40076
 C1184 C 0.45745 1.03301 0.42073
 C1185 C 0.43437 1.02534 0.41863
 C1186 C 0.42337 1.02384 0.39681
 C1187 C 0.42305 1.01754 0.43813
 C1188 C 0.43492 1.01544 0.45915
 C1189 C 0.45808 1.02252 0.46172
 C1190 C 0.46895 1.03224 0.44246
 H1191 H 0.40779 1.01775 0.35360
 H1192 H 0.48786 1.04805 0.35955
 H1193 H 0.46983 1.03995 0.32128
 H1194 H 0.48682 1.04538 0.40223
 H1195 H 0.40582 1.01747 0.39528
 H1196 H 0.40544 1.01138 0.43673
 H1197 H 0.42610 1.00680 0.47294
 H1198 H 0.48687 1.03727 0.44377
 C1199 C -0.07282 0.52560 0.84977
 C1200 C -0.06125 0.52970 0.87105
 C1201 C -0.03721 0.53087 0.87220
 C1202 C -0.02519 0.52851 0.85174
 C1203 C -0.03681 0.52352 0.83063
 C1204 C -0.06092 0.52115 0.82933
 C1205 C -0.02568 0.53312 0.89390
 C1206 C -0.03801 0.53242 0.91445
 C1207 C -0.06210 0.53133 0.91303
 C1208 C -0.07354 0.53107 0.89141
 C1209 C -0.07445 0.52811 0.93308
 C1210 C -0.06315 0.52376 0.95402
 C1211 C -0.03914 0.52494 0.95620
 C1212 C -0.02673 0.53048 0.93623
 H1213 H -0.09125 0.52570 0.84951
 H1214 H -0.00671 0.52937 0.85221
 H1215 H -0.02652 0.52020 0.81582
 H1216 H -0.00719 0.53362 0.89482
 H1217 H -0.09204 0.52987 0.89049
 H1218 H -0.09292 0.52655 0.93215
 H1219 H -0.07361 0.51744 0.96772
 H1220 H -0.00826 0.53064 0.93705
 C1221 C 0.05056 -0.01851 0.84486
 C1222 C 0.04186 -0.02124 0.86731
 C1223 C 0.05515 -0.01300 0.88669
 C1224 C 0.07668 -0.00278 0.88371
 C1225 C 0.08498 0.00005 0.86163
 C1226 C 0.07201 -0.00732 0.84195
 C1227 C 0.04659 -0.01443 0.90889
 C1228 C 0.02464 -0.02345 0.91224
 C1229 C 0.01127 -0.03245 0.89345
 C1230 C 0.02006 -0.03147 0.87089
 C1231 C -0.01088 -0.04126 0.89770
 C1232 C -0.01985 -0.03998 0.92011
 C1233 C -0.00678 -0.03002 0.93866
 C1234 C 0.01563 -0.02220 0.93419
 H1235 H 0.04055 -0.02446 0.82978
 H1236 H 0.08704 0.00336 0.89850
 H1237 H 0.10179 0.00797 0.85994
 H1238 H 0.05678 -0.00770 0.92359
 H1239 H 0.00977 -0.03793 0.85620
 H1240 H -0.02153 -0.04833 0.88356
 H1241 H -0.03731 -0.04575 0.92265
 H1242 H 0.02602 -0.01345 0.94750
 C1243 C 0.57702 0.46390 0.35476
 C1244 C 0.56971 0.46345 0.37778
 C1245 C 0.58579 0.46781 0.39618
 C1246 C 0.60894 0.47098 0.39151
 C1247 C 0.61606 0.47108 0.36870
 C1248 C 0.60017 0.46821 0.35017
 C1249 C 0.57844 0.47000 0.41890
 C1250 C 0.55521 0.46799 0.42354
 C1251 C 0.53921 0.46189 0.40565
 C1252 C 0.54656 0.45963 0.38275
 C1253 C 0.51604 0.45941 0.41088
 C1254 C 0.50870 0.46462 0.43320
 C1255 C 0.52437 0.47260 0.45063
 C1256 C 0.54772 0.47353 0.44558
 H1257 H 0.56474 0.46153 0.34045
 H1258 H 0.62145 0.47412 0.40546
 H1259 H 0.63393 0.47451 0.36547
 H1260 H 0.59073 0.47426 0.43283
 H1261 H 0.53421 0.45587 0.36877
 H1262 H 0.50348 0.45446 0.39747
 H1263 H 0.49059 0.46382 0.43630
 H1264 H 0.56020 0.48032 0.45822
 C1265 C 0.57029 0.50942 0.16037
 C1266 C 0.56101 0.50537 0.13783
 C1267 C 0.57067 0.48844 0.12364
 C1268 C 0.58923 0.47600 0.13188
 C1269 C 0.59851 0.48040 0.15394
 C1270 C 0.58925 0.49708 0.16827
 C1271 C 0.56193 0.48430 0.10124
 C1272 C 0.54385 0.49703 0.09245
 C1273 C 0.53402 0.51405 0.10617
 C1274 C 0.54257 0.51805 0.12901
 C1275 C 0.51607 0.52682 0.09656
 C1276 C 0.50827 0.52282 0.07353
 C1277 C 0.51821 0.50591 0.05983
 C1278 C 0.53588 0.49302 0.06979
 H1279 H 0.56322 0.52235 0.17150
 H1280 H 0.59674 0.46301 0.12114
 H1281 H 0.61303 0.47073 0.15993
 H1282 H 0.56945 0.47131 0.09048
 H1283 H 0.53515 0.53113 0.13971
 H1284 H 0.50826 0.54002 0.10675
 H1285 H 0.49469 0.53307 0.06640
 H1286 H 0.54422 0.48006 0.05979
 C1287 C 0.07902 1.01269 0.65157
 C1288 C 0.07236 1.01298 0.62793
 C1289 C 0.08630 1.00276 0.61137
 C1290 C 0.10695 0.99325 0.61852
 C1291 C 0.11346 0.99308 0.64196
 C1292 C 0.09942 1.00229 0.65885
 C1293 C 0.07907 1.00151 0.58802
 C1294 C 0.05781 1.00984 0.58102
 C1295 C 0.04420 1.02090 0.59725
 C1296 C 0.05167 1.02264 0.62062
 C1297 C 0.02285 1.02894 0.59001
 C1298 C 0.01432 1.02441 0.56744
 C1299 C 0.02713 1.01205 0.55157
 C1300 C 0.04937 1.00582 0.55835
 H1301 H 0.06793 1.01982 0.66430
 H1302 H 0.11795 0.98561 0.60599
 H1303 H 0.12960 0.98566 0.64685
 H1304 H 0.08956 0.99314 0.57548
 H1305 H 0.04099 1.03065 0.63322
 H1306 H 0.01222 1.03765 0.60215
 H1307 H -0.00287 1.02938 0.56298
 H1308 H 0.05961 0.99620 0.54656
 C1309 C -0.05642 0.47875 0.63750
 C1310 C -0.05079 0.47967 0.61401
 C1311 C -0.06210 0.49513 0.59907
 C1312 C -0.07875 0.50936 0.60775
 C1313 C -0.08396 0.50860 0.63113
 C1314 C -0.07282 0.49343 0.64621
 C1315 C -0.05623 0.49660 0.57581
 C1316 C -0.03858 0.48349 0.56743
 C1317 C -0.02725 0.46794 0.58216
 C1318 C -0.03370 0.46581 0.60533
 C1319 C -0.00911 0.45548 0.57365
 C1320 C -0.00148 0.45940 0.55121
 C1321 C -0.01219 0.47544 0.53670
 C1322 C -0.03134 0.48672 0.54481
 H1323 H -0.04774 0.46704 0.64908
 H1324 H -0.08758 0.52125 0.59650
 H1325 H -0.09698 0.51972 0.63742
 H1326 H -0.06481 0.50862 0.56445
 H1327 H -0.02492 0.45401 0.61675
 H1328 H -0.00022 0.44344 0.58466
 H1329 H 0.01334 0.45050 0.54564
 H1330 H -0.04014 0.49894 0.53393
 C1331 C 0.44969 -0.02355 0.14405
 C1332 C 0.46303 -0.02364 0.12425
 C1333 C 0.48081 -0.00686 0.12215
 C1334 C 0.48559 0.00901 0.14016
 C1335 C 0.47211 0.00913 0.15962
 C1336 C 0.45375 -0.00675 0.16153
 C1337 C 0.49277 -0.00535 0.10162
 C1338 C 0.48665 -0.01982 0.08279
 C1339 C 0.46977 -0.03739 0.08511
 C1340 C 0.45824 -0.03945 0.10603
 C1341 C 0.46388 -0.05165 0.06597
 C1342 C 0.47301 -0.04704 0.04425
 C1343 C 0.48803 -0.02801 0.04131
 C1344 C 0.49596 -0.01563 0.06119
 H1345 H 0.43576 -0.03609 0.14557
 H1346 H 0.49921 0.02191 0.13879
 H1347 H 0.47549 0.02230 0.17277
 H1348 H 0.50590 0.00802 0.09979
 H1349 H 0.44476 -0.05248 0.10766
 H1350 H 0.45122 -0.06549 0.06745
 H1351 H 0.46674 -0.05720 0.02959
 H1352 H 0.50803 -0.00128 0.05981
 C1353 C 0.34656 0.44824 -0.00424
 C1354 C 0.36820 0.45884 -0.00230
 C1355 C 0.37220 0.47761 0.01319
 C1356 C 0.35410 0.48592 0.02590
 C1357 C 0.33253 0.47502 0.02405
 C1358 C 0.32884 0.45574 0.00942
 C1359 C 0.39433 0.48720 0.01622
 C1360 C 0.41245 0.47792 0.00422
 C1361 C 0.40815 0.45954 -0.01168
 C1362 C 0.38606 0.45029 -0.01502
 C1363 C 0.42614 0.45020 -0.02356
 C1364 C 0.44833 0.45849 -0.01928
 C1365 C 0.45312 0.47638 -0.00311
 C1366 C 0.43488 0.48629 0.00831
 H1367 H 0.34365 0.43361 -0.01586
 H1368 H 0.35679 0.50036 0.03777
 H1369 H 0.31901 0.48104 0.03472
 H1370 H 0.39754 0.50136 0.02836
 H1371 H 0.38289 0.43593 -0.02695
 H1372 H 0.42312 0.43610 -0.03580
 H1373 H 0.46176 0.45020 -0.02823
 H1374 H 0.43806 0.50020 0.02072
 C1375 C -0.15261 0.93573 0.51734
 C1376 C -0.13124 0.94696 0.51603
 C1377 C -0.12844 0.96593 0.50106
 C1378 C -0.14719 0.97348 0.48787
 C1379 C -0.16834 0.96188 0.48893
 C1380 C -0.17120 0.94270 0.50343
 C1381 C -0.10684 0.97659 0.49904
 C1382 C -0.08790 0.96803 0.51124
 C1383 C -0.09078 0.94915 0.52631
 C1384 C -0.11248 0.93899 0.52892
 C1385 C -0.07178 0.94034 0.53807
 C1386 C -0.04997 0.94934 0.53405
 C1387 C -0.04667 0.96729 0.51811
 C1388 C -0.06598 0.97743 0.50784
 H1389 H -0.15467 0.92128 0.52897
 H1390 H -0.14535 0.98797 0.47627
 H1391 H -0.18228 0.96753 0.47786
 H1392 H -0.10463 0.99101 0.48738
 H1393 H -0.11463 0.92439 0.54036
 H1394 H -0.07371 0.92611 0.54997
 H1395 H -0.03568 0.94195 0.54328
 H1396 H -0.06394 0.99172 0.49603
 C1397 C -0.16852 0.06821 0.98502
 C1398 C -0.14720 0.05772 0.98700
 C1399 C -0.12896 0.06936 0.99914
 C1400 C -0.13190 0.09130 1.00839
 C1401 C -0.15272 0.10187 1.00572
 C1402 C -0.17151 0.09060 0.99418
 C1403 C -0.10786 0.05907 1.00172
 C1404 C -0.10431 0.03762 0.99156
 C1405 C -0.12203 0.02605 0.97874
 C1406 C -0.14361 0.03601 0.97683
 C1407 C -0.11761 0.00493 0.96790
 C1408 C -0.09572 -0.00426 0.96946
 C1409 C -0.07799 0.00728 0.98226
 C1410 C -0.08291 0.02798 0.99368
 H1411 H -0.18237 0.05928 0.97554
 H1412 H -0.11803 0.10035 1.01777
 H1413 H -0.15424 0.11855 1.01393
 H1414 H -0.09401 0.06802 1.01127
 H1415 H -0.15740 0.02710 0.96718
 H1416 H -0.13094 -0.00428 0.95791
 H1417 H -0.09272 -0.02032 0.96056
 H1418 H -0.06978 0.03719 1.00390
 C1419 C 0.36247 0.57087 0.47896
 C1420 C 0.38201 0.55778 0.48223
 C1421 C 0.38264 0.54096 0.49983
 C1422 C 0.36343 0.53692 0.51326
 C1423 C 0.34397 0.54987 0.50973
 C1424 C 0.34349 0.56720 0.49288
 C1425 C 0.40258 0.52875 0.50401
 C1426 C 0.42187 0.53308 0.49075
 C1427 C 0.42092 0.54922 0.47255
 C1428 C 0.40103 0.56152 0.46843
 C1429 C 0.44000 0.55297 0.45892
 C1430 C 0.46014 0.54155 0.46385
 C1431 C 0.46195 0.52684 0.48310
 C1432 C 0.44224 0.52183 0.49572
 H1433 H 0.36208 0.58407 0.46576
 H1434 H 0.36357 0.52402 0.52674
 H1435 H 0.32954 0.54687 0.52071
 H1436 H 0.40321 0.51618 0.51782
 H1437 H 0.40047 0.57422 0.45474
 H1438 H 0.43946 0.56493 0.44460
 H1439 H 0.47458 0.54498 0.45302
 H1440 H 0.44288 0.50986 0.51002
 C1441 C 0.15753 0.56914 0.49974
 C1442 C 0.13607 0.55841 0.49511
 C1443 C 0.12341 0.56421 0.47487
 C1444 C 0.13283 0.57958 0.45901
 C1445 C 0.15448 0.58947 0.46326
 C1446 C 0.16697 0.58494 0.48392
 C1447 C 0.10155 0.55451 0.47070
 C1448 C 0.09244 0.53839 0.48609
 C1449 C 0.10547 0.53160 0.50570
 C1450 C 0.12708 0.54194 0.51034
 C1451 C 0.09650 0.51476 0.52043
 C1452 C 0.07475 0.50495 0.51588
 C1453 C 0.06130 0.51209 0.49675
 C1454 C 0.07039 0.52912 0.48216
 H1455 H 0.16657 0.56535 0.51581
 H1456 H 0.12355 0.58380 0.44315
 H1457 H 0.16140 0.60059 0.45008
 H1458 H 0.09168 0.55937 0.45539
 H1459 H 0.13690 0.53712 0.52568
 H1460 H 0.10625 0.50924 0.53553
 H1461 H 0.06831 0.49218 0.52780
 H1462 H 0.06018 0.53600 0.46813
 C1463 C 0.64821 0.06263 -0.00220
 C1464 C 0.62848 0.04871 0.00028
 C1465 C 0.61924 0.04591 0.02250
 C1466 C 0.63036 0.05628 0.04192
 C1467 C 0.64999 0.07006 0.03928
 C1468 C 0.65878 0.07375 0.01720
 C1469 C 0.59862 0.03349 0.02485
 C1470 C 0.58687 0.02427 0.00523
 C1471 C 0.59651 0.02622 -0.01685
 C1472 C 0.61743 0.03822 -0.01916
 C1473 C 0.58465 0.01680 -0.03632
 C1474 C 0.56263 0.00734 -0.03422
 C1475 C 0.55189 0.00762 -0.01274
 C1476 C 0.56496 0.01439 0.00721
 H1477 H 0.65513 0.06518 -0.01925
 H1478 H 0.62353 0.05423 0.05906
 H1479 H 0.65786 0.07854 0.05442
 H1480 H 0.59123 0.03187 0.04181
 H1481 H 0.62461 0.04016 -0.03618
 H1482 H 0.59206 0.01748 -0.05330
 H1483 H 0.55380 0.00054 -0.04962
 H1484 H 0.55754 0.01379 0.02418
 C1485 C 0.63749 0.94575 0.49529
 C1486 C 0.61719 0.95750 0.49813
 C1487 C 0.61293 0.96795 0.51971
 C1488 C 0.62873 0.96602 0.53821
 C1489 C 0.64841 0.95349 0.53553
 C1490 C 0.65316 0.94321 0.51406
 C1491 C 0.59267 0.97962 0.52269
 C1492 C 0.57605 0.97991 0.50474
 C1493 C 0.57996 0.96896 0.48334
 C1494 C 0.60079 0.95835 0.47993
 C1495 C 0.56270 0.96828 0.46599
 C1496 C 0.54140 0.97734 0.47025
 C1497 C 0.53716 0.98782 0.49174
 C1498 C 0.55514 0.99009 0.50832
 H1499 H 0.64087 0.93849 0.47844
 H1500 H 0.62556 0.97367 0.55496
 H1501 H 0.65961 0.95149 0.55056
 H1502 H 0.58943 0.98765 0.53927
 H1503 H 0.60387 0.95003 0.46346
 H1504 H 0.56538 0.95996 0.44944
 H1505 H 0.52810 0.97552 0.45690
 H1506 H 0.55275 0.99904 0.52446
 C1507 C 0.13991 0.45276 0.98758
 C1508 C 0.11911 0.46377 0.98931
 C1509 C 0.11592 0.47925 1.00794
 C1510 C 0.13372 0.48385 1.02419
 C1511 C 0.15409 0.47226 1.02272
 C1512 C 0.15712 0.45640 1.00468
 C1513 C 0.09468 0.48906 1.01067
 C1514 C 0.07637 0.48294 0.99555
 C1515 C 0.07959 0.46777 0.97674
 C1516 C 0.10107 0.45859 0.97347
 C1517 C 0.06106 0.46152 0.96192
 C1518 C 0.03934 0.46927 0.96641
 C1519 C 0.03569 0.48330 0.98586
 C1520 C 0.05464 0.49098 0.99965
 H1521 H 0.14221 0.44027 0.97382
 H1522 H 0.13156 0.49567 1.03853
 H1523 H 0.16732 0.47521 1.03600
 H1524 H 0.09215 0.50064 1.02517
 H1525 H 0.10348 0.44668 0.95923
 H1526 H 0.06327 0.45024 0.94716
 H1527 H 0.02548 0.46415 0.95461
 H1528 H 0.05241 0.50223 1.01443
 C1529 C -0.00401 0.33433 0.45112
 C1530 C -0.00759 0.35695 0.45871
 C1531 C -0.02511 0.36976 0.44809
 C1532 C -0.03958 0.35927 0.43106
 C1533 C -0.03597 0.33672 0.42371
 C1534 C -0.01778 0.32432 0.43316
 C1535 C -0.02730 0.39306 0.45399
 C1536 C -0.01210 0.40375 0.47027
 C1537 C 0.00455 0.39061 0.48183
 C1538 C 0.00666 0.36727 0.47605
 C1539 C 0.01954 0.40132 0.49820
 C1540 C 0.01890 0.42504 0.50218
 C1541 C 0.00316 0.43863 0.48999
 C1542 C -0.01258 0.42760 0.47429
 H1543 H 0.00994 0.32475 0.45861
 H1544 H -0.05321 0.36877 0.42288
 H1545 H -0.04671 0.32937 0.40978
 H1546 H -0.04030 0.40306 0.44532
 H1547 H 0.01993 0.35738 0.48441
 H1548 H 0.03238 0.39150 0.50729
 H1549 H 0.03161 0.43280 0.51401
 H1550 H -0.02443 0.43765 0.46415
 C1551 C 0.49485 -0.16345 -0.05338
 C1552 C 0.49800 -0.14164 -0.04277
 C1553 C 0.52028 -0.13199 -0.03953
 C1554 C 0.53899 -0.14429 -0.04677
 C1555 C 0.53570 -0.16571 -0.05767
 C1556 C 0.51365 -0.17556 -0.06127
 C1557 C 0.52351 -0.10990 -0.02975
 C1558 C 0.50469 -0.09697 -0.02385
 C1559 C 0.48243 -0.10661 -0.02690
 C1560 C 0.47921 -0.12904 -0.03597
 C1561 C 0.46373 -0.09331 -0.02160
 C1562 C 0.46698 -0.07030 -0.01464
 C1563 C 0.48900 -0.06012 -0.01220
 C1564 C 0.50781 -0.07411 -0.01606
 H1565 H 0.47776 -0.17084 -0.05571
 H1566 H 0.55617 -0.13708 -0.04454
 H1567 H 0.55051 -0.17424 -0.06391
 H1568 H 0.54062 -0.10245 -0.02754
 H1569 H 0.46208 -0.13634 -0.03851
 H1570 H 0.44651 -0.10044 -0.02365
 H1571 H 0.45204 -0.06067 -0.01152
 H1572 H 0.52503 -0.06689 -0.01437
 C1573 C -0.01587 -0.16267 1.04397
 C1574 C -0.01299 -0.14125 1.03298
 C1575 C 0.00544 -0.12634 1.04017
 C1576 C 0.02147 -0.13355 1.05683
 C1577 C 0.01875 -0.15496 1.06725
 C1578 C -0.00019 -0.16935 1.06143
 C1579 C 0.00720 -0.10411 1.03122
 C1580 C -0.00898 -0.09658 1.01490
 C1581 C -0.02640 -0.11180 1.00621
 C1582 C -0.02847 -0.13411 1.01549
 C1583 C -0.04177 -0.10403 0.98901
 C1584 C -0.04038 -0.08113 0.98129
 C1585 C -0.02386 -0.06551 0.99095
 C1586 C -0.00832 -0.07368 1.00786
 H1587 H -0.03046 -0.17387 1.03943
 H1588 H 0.03579 -0.12238 1.06227
 H1589 H 0.03088 -0.15986 1.08072
 H1590 H 0.02089 -0.09244 1.03740
 H1591 H -0.04235 -0.14564 1.00955
 H1592 H -0.05518 -0.11548 0.98193
 H1593 H -0.05288 -0.07545 0.96856
 H1594 H 0.00412 -0.06204 1.01630
 C1595 C 0.49183 0.35016 0.55767
 C1596 C 0.49745 0.37180 0.54800
 C1597 C 0.51383 0.38646 0.55967
 C1598 C 0.52466 0.37931 0.58017
 C1599 C 0.51883 0.35812 0.58969
 C1600 C 0.50213 0.34354 0.57891
 C1601 C 0.51885 0.40836 0.55108
 C1602 C 0.50760 0.41617 0.53109
 C1603 C 0.49170 0.40167 0.51880
 C1604 C 0.48671 0.37941 0.52732
 C1605 C 0.48087 0.41003 0.49856
 C1606 C 0.48540 0.43269 0.49106
 C1607 C 0.50077 0.44737 0.50370
 C1608 C 0.51181 0.43864 0.52367
 H1609 H 0.47897 0.33893 0.54924
 H1610 H 0.53736 0.39032 0.58913
 H1611 H 0.52727 0.35316 0.60578
 H1612 H 0.53120 0.41960 0.56033
 H1613 H 0.47423 0.36828 0.51819
 H1614 H 0.46866 0.39919 0.48875
 H1615 H 0.47652 0.43883 0.47569
 H1616 H 0.52379 0.44940 0.53384
 C1617 C 0.48290 1.15591 0.56451
 C1618 C 0.47977 1.13318 0.55578
 C1619 C 0.46929 1.11621 0.56974
 C1620 C 0.46219 1.12200 0.59191
 C1621 C 0.46541 1.14438 0.60041
 C1622 C 0.47562 1.16169 0.58692
 C1623 C 0.46638 1.09354 0.56160
 C1624 C 0.47418 1.08725 0.53981
 C1625 C 0.48448 1.10394 0.52554
 C1626 C 0.48706 1.12695 0.53353
 C1627 C 0.49246 1.09706 0.50385
 C1628 C 0.49118 1.07375 0.49695
 C1629 C 0.48163 1.05693 0.51150
 C1630 C 0.47257 1.06419 0.53263
 H1631 H 0.49076 1.16905 0.55387
 H1632 H 0.45432 1.10910 0.60284
 H1633 H 0.46014 1.14806 0.61786
 H1634 H 0.45849 1.08060 0.57252
 H1635 H 0.49511 1.13981 0.52270
 H1636 H 0.50034 1.10958 0.49253
 H1637 H 0.49831 1.06884 0.48061
 H1638 H 0.46493 1.05175 0.54419
 C1639 C -0.01177 0.65045 1.06491
 C1640 C -0.01548 0.62808 1.05572
 C1641 C -0.02666 0.61115 1.06916
 C1642 C -0.03452 0.61689 1.09105
 C1643 C -0.03094 0.63909 1.09995
 C1644 C -0.01918 0.65604 1.08727
 C1645 C -0.02956 0.58860 1.06072
 C1646 C -0.02140 0.58261 1.03900
 C1647 C -0.01091 0.59947 1.02506
 C1648 C -0.00797 0.62220 1.03353
 C1649 C -0.00325 0.59311 1.00312
 C1650 C -0.00536 0.57013 0.99545
 C1651 C -0.01504 0.55310 1.00966
 C1652 C -0.02323 0.55975 1.03136
 H1653 H -0.00266 0.66328 1.05492
 H1654 H -0.04337 0.60414 1.10139
 H1655 H -0.03752 0.64299 1.11682
 H1656 H -0.03783 0.57560 1.07125
 H1657 H 0.00042 0.63516 1.02304
 H1658 H 0.00469 0.60582 0.99204
 H1659 H 0.00104 0.56564 0.97864
 H1660 H -0.03103 0.54711 1.04259
 C1661 C 0.51304 0.64559 -0.03989
 C1662 C 0.51769 0.62578 -0.02681
 C1663 C 0.53859 0.61472 -0.02951
 C1664 C 0.55512 0.62451 -0.04371
 C1665 C 0.55056 0.64433 -0.05629
 C1666 C 0.52917 0.65465 -0.05540
 C1667 C 0.54231 0.59355 -0.01877
 C1668 C 0.52532 0.58312 -0.00549
 C1669 C 0.50517 0.59488 -0.00116
 C1670 C 0.50146 0.61625 -0.01182
 C1671 C 0.48852 0.58434 0.01253
 C1672 C 0.49077 0.56152 0.01979
 C1673 C 0.50966 0.54872 0.01339
 C1674 C 0.52744 0.56032 0.00183
 H1675 H 0.49648 0.65319 -0.03877
 H1676 H 0.57144 0.61653 -0.04551
 H1677 H 0.56383 0.65135 -0.06705
 H1678 H 0.55798 0.58464 -0.02172
 H1679 H 0.48557 0.62487 -0.00932
 H1680 H 0.47309 0.59323 0.01640
 H1681 H 0.47670 0.55334 0.02864
 H1682 H 0.54194 0.55101 -0.00393
 C1683 C 0.01139 1.13949 0.44798
 C1684 C 0.01371 1.11700 0.45667
 C1685 C 0.02547 1.10066 0.44371
 C1686 C 0.03472 1.10685 0.42258
 C1687 C 0.03216 1.12894 0.41394
 C1688 C 0.02052 1.14590 0.42631
 C1689 C 0.02740 1.07811 0.45171
 C1690 C 0.01730 1.07137 0.47234
 C1691 C 0.00576 1.08751 0.48570
 C1692 C 0.00421 1.11038 0.47789
 C1693 C -0.00449 1.08022 0.50623
 C1694 C -0.00396 1.05703 0.51293
 C1695 C 0.00705 1.04074 0.49936
 C1696 C 0.01799 1.04839 0.47927
 H1697 H 0.00288 1.15190 0.45849
 H1698 H 0.04352 1.09436 0.41234
 H1699 H 0.03852 1.13197 0.39681
 H1700 H 0.03627 1.06561 0.44151
 H1701 H -0.00484 1.12281 0.48799
 H1702 H -0.01342 1.09232 0.51679
 H1703 H -0.01270 1.05179 0.52836
 H1704 H 0.02668 1.03633 0.46845
 C1705 C 0.75958 0.68003 0.88777
 C1706 C 0.76012 0.69187 0.86664
 C1707 C 0.74673 0.71153 0.86363
 C1708 C 0.73308 0.71899 0.88151
 C1709 C 0.73219 0.70681 0.90215
 C1710 C 0.74536 0.68723 0.90556
 C1711 C 0.74639 0.72295 0.84245
 C1712 C 0.75826 0.71431 0.82377
 C1713 C 0.77188 0.69487 0.82654
 C1714 C 0.77319 0.68402 0.84823
 C1715 C 0.78303 0.68616 0.80724
 C1716 C 0.77900 0.69541 0.78513
 C1717 C 0.76389 0.71358 0.78205
 C1718 C 0.75514 0.72395 0.80193
 H1719 H 0.77006 0.66515 0.89025
 H1720 H 0.72258 0.73390 0.87930
 H1721 H 0.72076 0.71251 0.91527
 H1722 H 0.73582 0.73783 0.84012
 H1723 H 0.78342 0.66890 0.85044
 H1724 H 0.79387 0.67147 0.80902
 H1725 H 0.78677 0.68754 0.77038
 H1726 H 0.74426 0.73862 0.80053
 C1727 C 0.26700 0.18103 0.39408
 C1728 C 0.27121 0.19150 0.37286
 C1729 C 0.27997 0.21444 0.37228
 C1730 C 0.28538 0.22608 0.39327
 C1731 C 0.28106 0.21544 0.41448
 C1732 C 0.27123 0.19311 0.41488
 C1733 C 0.28215 0.22554 0.35084
 C1734 C 0.27484 0.21417 0.33019
 C1735 C 0.26683 0.19097 0.33105
 C1736 C 0.26561 0.17966 0.35225
 C1737 C 0.25849 0.17983 0.31094
 C1738 C 0.25631 0.19199 0.29045
 C1739 C 0.26374 0.21526 0.28906
 C1740 C 0.27382 0.22601 0.30899
 H1741 H 0.25977 0.16362 0.39445
 H1742 H 0.29227 0.24360 0.39326
 H1743 H 0.28461 0.22487 0.43052
 H1744 H 0.28830 0.24332 0.35034
 H1745 H 0.25893 0.16204 0.35281
 H1746 H 0.25211 0.16214 0.31140
 H1747 H 0.24756 0.18323 0.27602
 H1748 H 0.27916 0.24402 0.30852
 C1749 C 0.71949 0.31386 0.40583
 C1750 C 0.71781 0.30614 0.38263
 C1751 C 0.72487 0.32108 0.36477
 C1752 C 0.73223 0.34371 0.37014
 C1753 C 0.73364 0.35126 0.39314
 C1754 C 0.72785 0.33631 0.41119
 C1755 C 0.72540 0.31292 0.34192
 C1756 C 0.71921 0.28996 0.33666
 C1757 C 0.71077 0.27534 0.35405
 C1758 C 0.71002 0.28356 0.37703
 C1759 C 0.70438 0.25245 0.34830
 C1760 C 0.70794 0.24373 0.32598
 C1761 C 0.71800 0.25773 0.30904
 C1762 C 0.72281 0.28110 0.31453
 H1763 H 0.71478 0.30234 0.41971
 H1764 H 0.73752 0.35537 0.35660
 H1765 H 0.74017 0.36857 0.39693
 H1766 H 0.73157 0.32419 0.32839
 H1767 H 0.70428 0.27216 0.39061
 H1768 H 0.69761 0.24100 0.36133
 H1769 H 0.70409 0.22566 0.32250
 H1770 H 0.73106 0.29226 0.30216
 C1771 C 0.21721 0.82071 0.89173
 C1772 C 0.21952 0.80547 0.87287
 C1773 C 0.23339 0.78612 0.87557
 C1774 C 0.24318 0.78130 0.89734
 C1775 C 0.24051 0.79625 0.91602
 C1776 C 0.22838 0.81666 0.91329
 C1777 C 0.23795 0.77233 0.85633
 C1778 C 0.22877 0.77756 0.83435
 C1779 C 0.21343 0.79569 0.83185
 C1780 C 0.20896 0.80967 0.85114
 C1781 C 0.20357 0.80000 0.80990
 C1782 C 0.21027 0.78770 0.79037
 C1783 C 0.22760 0.77149 0.79229
 C1784 C 0.23571 0.76565 0.81468
 H1785 H 0.20770 0.83624 0.88918
 H1786 H 0.25339 0.76622 0.89982
 H1787 H 0.24846 0.79202 0.93256
 H1788 H 0.24935 0.75806 0.85831
 H1789 H 0.19790 0.82420 0.84907
 H1790 H 0.19140 0.81353 0.80767
 H1791 H 0.20328 0.79243 0.77359
 H1792 H 0.24850 0.75273 0.81693
 C1793 C 0.25393 0.83244 0.09603
 C1794 C 0.25085 0.82093 0.11729
 C1795 C 0.22942 0.82153 0.12778
 C1796 C 0.21156 0.83323 0.11722
 C1797 C 0.21477 0.84482 0.09659
 C1798 C 0.23602 0.84507 0.08563
 C1799 C 0.22599 0.81062 0.14888
 C1800 C 0.24379 0.79934 0.16014
 C1801 C 0.26533 0.79838 0.15010
 C1802 C 0.26877 0.80914 0.12851
 C1803 C 0.28286 0.78686 0.16204
 C1804 C 0.27906 0.77692 0.18387
 C1805 C 0.25771 0.77853 0.19420
 C1806 C 0.24014 0.78939 0.18166
 H1807 H 0.27055 0.83238 0.08838
 H1808 H 0.19496 0.83347 0.12498
 H1809 H 0.20002 0.85286 0.08886
 H1810 H 0.20946 0.81126 0.15679
 H1811 H 0.28531 0.80859 0.12067
 H1812 H 0.29956 0.78579 0.15466
 H1813 H 0.29291 0.76853 0.19291
 H1814 H 0.22331 0.79067 0.18862
 C1815 C 0.76964 0.28906 0.59641
 C1816 C 0.76723 0.27447 0.61556
 C1817 C 0.74645 0.26214 0.61848
 C1818 C 0.72876 0.26397 0.60192
 C1819 C 0.73096 0.27904 0.58335
 C1820 C 0.75120 0.29252 0.58048
 C1821 C 0.74317 0.24915 0.63852
 C1822 C 0.75999 0.24933 0.65628
 C1823 C 0.78110 0.26100 0.65317
 C1824 C 0.78485 0.27300 0.63251
 C1825 C 0.79746 0.26168 0.67140
 C1826 C 0.79208 0.25291 0.69318
 C1827 C 0.77042 0.24288 0.69701
 C1828 C 0.75515 0.23972 0.67782
 H1829 H 0.78597 0.29777 0.59434
 H1830 H 0.71270 0.25460 0.60394
 H1831 H 0.71595 0.28091 0.57234
 H1832 H 0.72693 0.24019 0.64097
 H1833 H 0.80087 0.28243 0.63033
 H1834 H 0.81390 0.27029 0.66928
 H1835 H 0.80452 0.25526 0.70713
 H1836 H 0.73841 0.23180 0.68006
 C1837 C 0.23620 0.20621 0.60475
 C1838 C 0.24004 0.21504 0.62734
 C1839 C 0.26120 0.21133 0.63892
 C1840 C 0.27822 0.19945 0.62786
 C1841 C 0.27435 0.19096 0.60550
 C1842 C 0.25338 0.19414 0.59379
 C1843 C 0.26508 0.21929 0.66155
 C1844 C 0.24820 0.23104 0.67290
 C1845 C 0.22724 0.23549 0.66150
 C1846 C 0.22318 0.22734 0.63865
 C1847 C 0.21086 0.24791 0.67331
 C1848 C 0.21518 0.25532 0.69632
 C1849 C 0.23570 0.24990 0.70800
 C1850 C 0.25221 0.23817 0.69573
 H1851 H 0.22002 0.20873 0.59572
 H1852 H 0.29447 0.19652 0.63660
 H1853 H 0.28763 0.18138 0.59749
 H1854 H 0.28124 0.21613 0.67043
 H1855 H 0.20701 0.23043 0.62980
 H1856 H 0.19473 0.25177 0.66482
 H1857 H 0.20230 0.26474 0.70509
 H1858 H 0.26850 0.23425 0.70380
 C1859 C 0.72502 0.69884 0.09736
 C1860 C 0.72718 0.71222 0.11783
 C1861 C 0.74781 0.72463 0.12284
 C1862 C 0.76585 0.72346 0.10777
 C1863 C 0.76388 0.70977 0.08796
 C1864 C 0.74346 0.69717 0.08206
 C1865 C 0.75056 0.73747 0.14328
 C1866 C 0.73329 0.73744 0.15941
 C1867 C 0.71249 0.72532 0.15476
 C1868 C 0.70934 0.71303 0.13369
 C1869 C 0.69570 0.72520 0.17167
 C1870 C 0.70015 0.73582 0.19340
 C1871 C 0.72140 0.74682 0.19852
 C1872 C 0.73732 0.74840 0.18073
 H1873 H 0.70879 0.69015 0.09348
 H1874 H 0.78190 0.73261 0.11169
 H1875 H 0.77915 0.70844 0.07811
 H1876 H 0.76658 0.74675 0.14708
 H1877 H 0.69345 0.70350 0.13005
 H1878 H 0.67946 0.71621 0.16842
 H1879 H 0.68722 0.73471 0.20621
 H1880 H 0.75383 0.75688 0.18378
 C1881 C 0.19583 0.60176 0.23595
 C1882 C 0.20540 0.62398 0.23323
 C1883 C 0.20228 0.63553 0.21192
 C1884 C 0.19024 0.62441 0.19349
 C1885 C 0.18060 0.60240 0.19641
 C1886 C 0.18292 0.59102 0.21775
 C1887 C 0.21059 0.65825 0.20959
 C1888 C 0.22150 0.66977 0.22848
 C1889 C 0.22516 0.65805 0.24959
 C1890 C 0.21734 0.63513 0.25175
 C1891 C 0.23603 0.66969 0.26839
 C1892 C 0.24180 0.69311 0.26683
 C1893 C 0.23652 0.70546 0.24657
 C1894 C 0.22778 0.69318 0.22692
 H1895 H 0.19755 0.59328 0.25256
 H1896 H 0.18783 0.63294 0.17699
 H1897 H 0.17111 0.59432 0.18199
 H1898 H 0.20781 0.66723 0.19338
 H1899 H 0.21984 0.62627 0.26808
 H1900 H 0.23952 0.66084 0.28453
 H1901 H 0.24999 0.70157 0.28176
 H1902 H 0.22432 0.70210 0.21081
 C1903 C 0.69342 0.08390 0.77123
 C1904 C 0.70606 0.10436 0.76838
 C1905 C 0.72527 0.10483 0.75424
 C1906 C 0.73194 0.08428 0.74386
 C1907 C 0.71883 0.06389 0.74629
 C1908 C 0.69871 0.06361 0.75925
 C1909 C 0.73687 0.12593 0.75015
 C1910 C 0.72879 0.14654 0.75940
 C1911 C 0.70968 0.14564 0.77378
 C1912 C 0.69886 0.12461 0.77864
 C1913 C 0.70074 0.16590 0.78213
 C1914 C 0.71009 0.18700 0.77577
 C1915 C 0.72925 0.18869 0.76176
 C1916 C 0.73876 0.16811 0.75382
 H1917 H 0.67918 0.08406 0.78275
 H1918 H 0.74673 0.08416 0.73306
 H1919 H 0.72379 0.04891 0.73664
 H1920 H 0.75147 0.12641 0.73905
 H1921 H 0.68401 0.12417 0.78944
 H1922 H 0.68575 0.16549 0.79269
 H1923 H 0.70109 0.20187 0.78071
 H1924 H 0.75329 0.16879 0.74267
 C1925 C 0.82874 0.09849 0.27655
 C1926 C 0.81854 0.12013 0.27521
 C1927 C 0.82991 0.13843 0.26380
 C1928 C 0.85117 0.13504 0.25422
 C1929 C 0.86108 0.11360 0.25551
 C1930 C 0.85007 0.09505 0.26659
 C1931 C 0.81972 0.15979 0.26170
 C1932 C 0.79816 0.16318 0.27063
 C1933 C 0.78675 0.14524 0.28236
 C1934 C 0.79707 0.12375 0.28470
 C1935 C 0.76503 0.14906 0.29101
 C1936 C 0.75461 0.17026 0.28757
 C1937 C 0.76568 0.18810 0.27541
 C1938 C 0.78766 0.18421 0.26731
 H1939 H 0.82012 0.08439 0.28524
 H1940 H 0.86000 0.14890 0.24535
 H1941 H 0.87720 0.11140 0.24724
 H1942 H 0.82844 0.17370 0.25274
 H1943 H 0.78826 0.10982 0.29350
 H1944 H 0.75597 0.13554 0.30013
 H1945 H 0.73772 0.17249 0.29413
 H1946 H 0.79633 0.19703 0.25704
 C1947 C 0.31832 0.60408 0.74780
 C1948 C 0.30721 0.62451 0.75305
 C1949 C 0.31467 0.63795 0.77254
 C1950 C 0.33279 0.63054 0.78668
 C1951 C 0.34388 0.61035 0.78122
 C1952 C 0.33701 0.59708 0.76160
 C1953 C 0.30436 0.65889 0.77723
 C1954 C 0.28712 0.66693 0.76230
 C1955 C 0.27935 0.65335 0.74306
 C1956 C 0.28923 0.63208 0.73871
 C1957 C 0.26236 0.66167 0.72803
 C1958 C 0.25440 0.68390 0.73101
 C1959 C 0.26322 0.69825 0.74917
 C1960 C 0.27841 0.68891 0.76562
 H1961 H 0.31297 0.59409 0.73254
 H1962 H 0.33864 0.64055 0.80175
 H1963 H 0.35791 0.60511 0.79239
 H1964 H 0.31040 0.66936 0.79196
 H1965 H 0.28347 0.62182 0.72375
 H1966 H 0.25601 0.65142 0.71331
 H1967 H 0.24234 0.69024 0.71820
 H1968 H 0.28442 0.69907 0.78041
 C1969 C 0.32053 0.41347 0.75151
 C1970 C 0.30769 0.39271 0.74992
 C1971 C 0.30329 0.38223 0.72802
 C1972 C 0.31104 0.39312 0.70804
 C1973 C 0.32367 0.41388 0.70970
 C1974 C 0.32918 0.42420 0.73152
 C1975 C 0.29154 0.36086 0.72648
 C1976 C 0.28418 0.34982 0.74661
 C1977 C 0.28782 0.36068 0.76843
 C1978 C 0.29949 0.38211 0.76997
 C1979 C 0.27992 0.34976 0.78837
 C1980 C 0.26970 0.32773 0.78687
 C1981 C 0.26775 0.31584 0.76553
 C1982 C 0.27381 0.32779 0.74528
 H1983 H 0.32329 0.42138 0.76846
 H1984 H 0.30774 0.38533 0.69108
 H1985 H 0.33015 0.42096 0.69382
 H1986 H 0.28857 0.35260 0.70968
 H1987 H 0.30260 0.39027 0.78679
 H1988 H 0.28188 0.35815 0.80519
 H1989 H 0.26339 0.32025 0.80254
 H1990 H 0.27144 0.31960 0.72840
 C1991 C 0.81615 0.91142 0.24945
 C1992 C 0.80393 0.89041 0.24568
 C1993 C 0.80876 0.87660 0.22623
 C1994 C 0.82575 0.88374 0.21114
 C1995 C 0.83813 0.90427 0.21529
 C1996 C 0.83352 0.91849 0.23437
 C1997 C 0.79697 0.85556 0.22242
 C1998 C 0.78093 0.84763 0.23823
 C1999 C 0.77607 0.86116 0.25780
 C2000 C 0.78733 0.88271 0.26122
 C2001 C 0.76038 0.85258 0.27377
 C2002 C 0.75060 0.83037 0.27095
 C2003 C 0.75623 0.81638 0.25204
 C2004 C 0.77042 0.82586 0.23514
 H2005 H 0.81215 0.92215 0.26413
 H2006 H 0.82981 0.87318 0.19633
 H2007 H 0.85175 0.90867 0.20372
 H2008 H 0.80085 0.84497 0.20755
 H2009 H 0.78366 0.89315 0.27626
 H2010 H 0.75625 0.86273 0.28884
 H2011 H 0.73932 0.82385 0.28407
 H2012 H 0.77404 0.81610 0.21977
 C2013 C 0.68868 0.88146 0.74491
 C2014 C 0.69855 0.85989 0.74667
 C2015 C 0.69895 0.84840 0.76814
 C2016 C 0.68999 0.85895 0.78762
 C2017 C 0.68002 0.88041 0.78573
 C2018 C 0.67868 0.89186 0.76423
 C2019 C 0.70786 0.82635 0.76968
 C2020 C 0.71597 0.81553 0.74987
 C2021 C 0.71611 0.82725 0.72851
 C2022 C 0.70761 0.84948 0.72708
 C2023 C 0.72452 0.81639 0.70890
 C2024 C 0.73150 0.79366 0.71015
 C2025 C 0.72968 0.78118 0.73087
 C2026 C 0.72333 0.79290 0.75100
 H2027 H 0.68928 0.89019 0.72840
 H2028 H 0.69017 0.85035 0.80423
 H2029 H 0.67230 0.88724 0.80102
 H2030 H 0.70785 0.81735 0.78611
 H2031 H 0.70747 0.85839 0.71061
 H2032 H 0.72533 0.82533 0.69250
 H2033 H 0.73803 0.78586 0.69473
 H2034 H 0.72378 0.78445 0.76765
 C2035 C 0.19383 0.39878 0.24994
 C2036 C 0.19849 0.37519 0.24906
 C2037 C 0.18597 0.36062 0.23319
 C2038 C 0.16950 0.36981 0.21818
 C2039 C 0.16530 0.39325 0.21888
 C2040 C 0.17727 0.40789 0.23477
 C2041 C 0.19018 0.33709 0.23237
 C2042 C 0.20728 0.32795 0.24663
 C2043 C 0.22025 0.34236 0.26214
 C2044 C 0.21553 0.36591 0.26356
 C2045 C 0.23794 0.33296 0.27559
 C2046 C 0.24321 0.30972 0.27300
 C2047 C 0.23053 0.29533 0.25731
 C2048 C 0.21202 0.30462 0.24491
 H2049 H 0.20314 0.41006 0.26219
 H2050 H 0.15984 0.35886 0.20591
 H2051 H 0.15223 0.39990 0.20732
 H2052 H 0.18049 0.32597 0.22023
 H2053 H 0.22534 0.37704 0.27557
 H2054 H 0.24810 0.34371 0.28763
 H2055 H 0.25746 0.30320 0.28303
 H2056 H 0.20155 0.29392 0.23316
 C2057 C 0.09572 0.24679 0.79871
 C2058 C 0.11658 0.24419 0.78762
 C2059 C 0.12833 0.22343 0.79028
 C2060 C 0.11824 0.20500 0.80205
 C2061 C 0.09736 0.20751 0.81251
 C2062 C 0.08632 0.22872 0.81203
 C2063 C 0.15036 0.22167 0.78195
 C2064 C 0.16081 0.24036 0.77081
 C2065 C 0.14849 0.26037 0.76619
 C2066 C 0.12639 0.26226 0.77475
 C2067 C 0.15903 0.27856 0.75424
 C2068 C 0.18206 0.27758 0.74854
 C2069 C 0.19510 0.25852 0.75496
 C2070 C 0.18391 0.23978 0.76564
 H2071 H 0.08757 0.26325 0.79788
 H2072 H 0.12677 0.18877 0.80366
 H2073 H 0.09015 0.19283 0.82146
 H2074 H 0.15971 0.20607 0.78494
 H2075 H 0.11725 0.27804 0.77217
 H2076 H 0.14979 0.29397 0.75021
 H2077 H 0.18999 0.29247 0.74056
 H2078 H 0.19344 0.22537 0.77197
 C2079 C 0.59013 0.75078 0.30057
 C2080 C 0.61050 0.75562 0.28901
 C2081 C 0.61950 0.77848 0.28865
 C2082 C 0.60793 0.79610 0.29956
 C2083 C 0.58782 0.79114 0.31109
 C2084 C 0.57872 0.76848 0.31188
 C2085 C 0.64018 0.78334 0.27785
 C2086 C 0.65235 0.76555 0.26790
 C2087 C 0.64327 0.74277 0.26788
 C2088 C 0.62224 0.73796 0.27817
 C2089 C 0.65573 0.72510 0.25817
 C2090 C 0.67765 0.72966 0.25013
 C2091 C 0.68760 0.75203 0.25131
 C2092 C 0.67404 0.77008 0.25907
 H2093 H 0.58317 0.73329 0.30077
 H2094 H 0.61463 0.81369 0.29951
 H2095 H 0.57961 0.80506 0.31985
 H2096 H 0.64716 0.80085 0.27788
 H2097 H 0.61540 0.72041 0.27835
 H2098 H 0.64887 0.70757 0.25754
 H2099 H 0.68665 0.71541 0.24325
 H2100 H 0.68086 0.78762 0.25972
 C2101 C 0.59117 0.23771 0.19889
 C2102 C 0.61312 0.24067 0.20943
 C2103 C 0.62907 0.25608 0.19938
 C2104 C 0.62292 0.26864 0.17971
 C2105 C 0.60134 0.26556 0.16942
 C2106 C 0.58536 0.24981 0.17847
 C2107 C 0.65118 0.25850 0.20879
 C2108 C 0.65786 0.24569 0.22811
 C2109 C 0.64213 0.23078 0.23890
 C2110 C 0.61968 0.22831 0.22946
 C2111 C 0.64947 0.21840 0.25855
 C2112 C 0.67227 0.22044 0.26692
 C2113 C 0.68812 0.23485 0.25572
 C2114 C 0.68041 0.24736 0.23629
 H2115 H 0.57895 0.22557 0.20608
 H2116 H 0.63495 0.28067 0.17205
 H2117 H 0.59714 0.27555 0.15417
 H2118 H 0.66340 0.27011 0.20075
 H2119 H 0.60755 0.21658 0.23739
 H2120 H 0.63769 0.20687 0.26722
 H2121 H 0.67760 0.21037 0.28173
 H2122 H 0.69208 0.25849 0.22703
 C2123 C 0.09652 0.75476 0.70176
 C2124 C 0.11772 0.75484 0.71376
 C2125 C 0.12206 0.73793 0.73073
 C2126 C 0.10497 0.72138 0.73554
 C2127 C 0.08422 0.72093 0.72293
 C2128 C 0.07992 0.73744 0.70579
 C2129 C 0.14370 0.73722 0.74182
 C2130 C 0.16138 0.75250 0.73535
 C2131 C 0.15695 0.76933 0.71836
 C2132 C 0.13506 0.77077 0.70811
 C2133 C 0.17478 0.78369 0.71095
 C2134 C 0.19699 0.78080 0.71946
 C2135 C 0.20192 0.76417 0.73637
 C2136 C 0.18370 0.75040 0.74463
 H2137 H 0.09343 0.76731 0.68827
 H2138 H 0.10797 0.70826 0.74845
 H2139 H 0.07163 0.70743 0.72624
 H2140 H 0.14707 0.72408 0.75463
 H2141 H 0.13182 0.78359 0.69492
 H2142 H 0.17177 0.79643 0.69764
 H2143 H 0.21033 0.79094 0.71175
 H2144 H 0.18698 0.73721 0.75738
 C2145 C 0.89566 0.71952 0.68809
 C2146 C 0.87263 0.71598 0.69383
 C2147 C 0.85680 0.70699 0.67695
 C2148 C 0.86428 0.70081 0.65507
 C2149 C 0.88706 0.70426 0.64949
 C2150 C 0.90325 0.71427 0.66552
 C2151 C 0.83362 0.70475 0.68196
 C2152 C 0.82590 0.71159 0.70365
 C2153 C 0.84169 0.71978 0.72094
 C2154 C 0.86500 0.72188 0.71597
 C2155 C 0.83372 0.72655 0.74259
 C2156 C 0.81030 0.72614 0.74668
 C2157 C 0.79430 0.71874 0.72931
 C2158 C 0.80248 0.71125 0.70787
 H2159 H 0.90712 0.72753 0.70099
 H2160 H 0.85243 0.69340 0.64210
 H2161 H 0.89181 0.69838 0.63254
 H2162 H 0.82149 0.69824 0.66874
 H2163 H 0.87708 0.72865 0.72909
 H2164 H 0.84554 0.73291 0.75610
 H2165 H 0.80472 0.73260 0.76315
 H2166 H 0.79069 0.70631 0.69380
 C2167 C 0.39888 0.23624 0.19792
 C2168 C 0.37628 0.23310 0.20525
 C2169 C 0.36038 0.22015 0.19112
 C2170 C 0.36728 0.21003 0.17051
 C2171 C 0.38964 0.21306 0.16350
 C2172 C 0.40562 0.22632 0.17690
 C2173 C 0.33762 0.21792 0.19745
 C2174 C 0.33035 0.22849 0.21769
 C2175 C 0.34614 0.24065 0.23246
 C2176 C 0.36913 0.24291 0.22616
 C2177 C 0.33842 0.25082 0.25289
 C2178 C 0.31515 0.24975 0.25801
 C2179 C 0.29919 0.23855 0.24276
 C2180 C 0.30723 0.22768 0.22280
 H2181 H 0.41114 0.24639 0.20842
 H2182 H 0.35526 0.20005 0.15957
 H2183 H 0.39430 0.20552 0.14714
 H2184 H 0.32542 0.20837 0.18629
 H2185 H 0.38126 0.25264 0.23720
 H2186 H 0.35027 0.26010 0.26459
 H2187 H 0.30961 0.25839 0.27346
 H2188 H 0.29540 0.21905 0.21060
 C2189 C 0.39721 0.76538 0.29447
 C2190 C 0.37788 0.76439 0.27952
 C2191 C 0.37253 0.74418 0.26641
 C2192 C 0.38726 0.72559 0.26790
 C2193 C 0.40648 0.72668 0.28296
 C2194 C 0.41133 0.74638 0.29677
 C2195 C 0.35213 0.74261 0.25287
 C2196 C 0.33662 0.76065 0.25312
 C2197 C 0.34251 0.78099 0.26583
 C2198 C 0.36327 0.78296 0.27841
 C2199 C 0.32678 0.79838 0.26747
 C2200 C 0.30467 0.79490 0.25859
 C2201 C 0.29794 0.77469 0.24609
 C2202 C 0.31463 0.75801 0.24258
 H2203 H 0.40102 0.78082 0.30473
 H2204 H 0.38357 0.70996 0.25793
 H2205 H 0.41712 0.71181 0.28440
 H2206 H 0.34776 0.72690 0.24324
 H2207 H 0.36739 0.79844 0.28852
 H2208 H 0.33090 0.81389 0.27751
 H2209 H 0.29252 0.80737 0.26370
 H2210 H 0.30987 0.74196 0.23378
 C2211 C 0.90156 0.23839 0.80574
 C2212 C 0.87993 0.24327 0.79599
 C2213 C 0.86649 0.25986 0.80676
 C2214 C 0.87493 0.27159 0.82663
 C2215 C 0.89627 0.26660 0.83621
 C2216 C 0.90972 0.24976 0.82618
 C2217 C 0.84458 0.26417 0.79785
 C2218 C 0.83562 0.25181 0.77855
 C2219 C 0.84907 0.23560 0.76734
 C2220 C 0.87126 0.23153 0.77602
 C2221 C 0.83975 0.22321 0.74814
 C2222 C 0.81699 0.22602 0.74091
 C2223 C 0.80315 0.24157 0.75244
 C2224 C 0.81300 0.25476 0.77101
 H2225 H 0.91171 0.22536 0.79782
 H2226 H 0.86490 0.28448 0.83495
 H2227 H 0.90232 0.27607 0.85154
 H2228 H 0.83423 0.27668 0.80639
 H2229 H 0.88150 0.21884 0.76765
 H2230 H 0.84980 0.21075 0.73923
 H2231 H 0.81002 0.21538 0.72676
 H2232 H 0.80286 0.26687 0.78028
 C2233 C 0.57518 0.97630 0.64289
 C2234 C 0.56339 0.98153 0.62208
 C2235 C 0.56325 1.00463 0.61449
 C2236 C 0.57437 1.02205 0.62770
 C2237 C 0.58555 1.01682 0.64845
 C2238 C 0.58635 0.99396 0.65626
 C2239 C 0.55170 1.01019 0.59395
 C2240 C 0.53979 0.99311 0.58097
 C2241 C 0.53943 0.97003 0.58833
 C2242 C 0.55149 0.96426 0.60886
 C2243 C 0.52660 0.95344 0.57522
 C2244 C 0.51443 0.95979 0.55501
 C2245 C 0.51551 0.98266 0.54716
 C2246 C 0.52792 0.99917 0.56083
 H2247 H 0.57568 0.95859 0.64857
 H2248 H 0.57412 1.03984 0.62216
 H2249 H 0.59322 1.03092 0.65861
 H2250 H 0.55172 1.02795 0.58821
 H2251 H 0.55134 0.94655 0.61467
 H2252 H 0.52567 0.93567 0.58079
 H2253 H 0.50393 0.94687 0.54586
 H2254 H 0.52845 1.01715 0.55600
 C2255 C 0.06386 0.47250 1.13831
 C2256 C 0.04782 0.47071 1.11978
 C2257 C 0.02549 0.47832 1.12280
 C2258 C 0.01907 0.48591 1.14464
 C2259 C 0.03495 0.48734 1.16312
 C2260 C 0.05803 0.48167 1.16020
 C2261 C 0.01018 0.47909 1.10376
 C2262 C 0.01704 0.47254 1.08165
 C2263 C 0.03869 0.46314 1.07886
 C2264 C 0.05397 0.46213 1.09802
 C2265 C 0.04490 0.45582 1.05674
 C2266 C 0.03085 0.46014 1.03730
 C2267 C 0.01083 0.47258 1.03957
 C2268 C 0.00314 0.47676 1.06212
 H2269 H 0.08076 0.46625 1.13554
 H2270 H 0.00190 0.49158 1.14726
 H2271 H 0.02915 0.49483 1.17903
 H2272 H -0.00667 0.48586 1.10593
 H2273 H 0.07094 0.45573 1.09574
 H2274 H 0.06102 0.44763 1.05434
 H2275 H 0.03621 0.45447 1.02052
 H2276 H -0.01297 0.48494 1.06461
 C2277 C -0.06937 0.02016 1.14108
 C2278 C -0.06021 0.02078 1.11892
 C2279 C -0.03666 0.02513 1.11625
 C2280 C -0.02264 0.02872 1.13617
 C2281 C -0.03179 0.02741 1.15839
 C2282 C -0.05540 0.02310 1.16131
 C2283 C -0.02758 0.02500 1.09381
 C2284 C -0.04171 0.01930 1.07425
 C2285 C -0.06517 0.01446 1.07746
 C2286 C -0.07433 0.01592 1.09949
 C2287 C -0.07906 0.00671 1.05889
 C2288 C -0.06981 0.00279 1.03746
 C2289 C -0.04679 0.00857 1.03303
 C2290 C -0.03277 0.01701 1.05181
 H2291 H -0.08732 0.01566 1.14232
 H2292 H -0.00450 0.03214 1.13461
 H2293 H -0.02030 0.03042 1.17318
 H2294 H -0.00948 0.02831 1.09171
 H2295 H -0.09236 0.01214 1.10165
 H2296 H -0.09689 0.00220 1.06128
 H2297 H -0.08090 -0.00578 1.02465
 H2298 H -0.01475 0.02038 1.04934
 C2299 C 0.44980 0.53112 0.63976
 C2300 C 0.46387 0.53145 0.62042
 C2301 C 0.48481 0.52002 0.62148
 C2302 C 0.49169 0.50920 0.64206
 C2303 C 0.47758 0.50887 0.66114
 C2304 C 0.45628 0.51936 0.66010
 C2305 C 0.49811 0.51877 0.60172
 C2306 C 0.49037 0.52812 0.58065
 C2307 C 0.46992 0.54031 0.57977
 C2308 C 0.45695 0.54223 0.59975
 C2309 C 0.46224 0.54934 0.55859
 C2310 C 0.47333 0.54426 0.53812
 C2311 C 0.49246 0.53021 0.53831
 C2312 C 0.50188 0.52392 0.56013
 H2313 H 0.43338 0.53917 0.63856
 H2314 H 0.50779 0.50056 0.64323
 H2315 H 0.48332 0.50023 0.67672
 H2316 H 0.51386 0.50945 0.60242
 H2317 H 0.44097 0.55115 0.59891
 H2318 H 0.44686 0.55921 0.55762
 H2319 H 0.46591 0.55044 0.52225
 H2320 H 0.51712 0.51385 0.56114
 C2321 C 0.45237 0.49095 -0.15184
 C2322 C 0.46096 0.49334 -0.12882
 C2323 C 0.45916 0.51475 -0.11720
 C2324 C 0.44932 0.53335 -0.12858
 C2325 C 0.44054 0.53069 -0.15111
 C2326 C 0.44170 0.50953 -0.16279
 C2327 C 0.46668 0.51722 -0.09413
 C2328 C 0.47575 0.49858 -0.08221
 C2329 C 0.47810 0.47723 -0.09354
 C2330 C 0.47073 0.47471 -0.11695
 C2331 C 0.48761 0.45892 -0.08107
 C2332 C 0.49426 0.46175 -0.05756
 C2333 C 0.49109 0.48278 -0.04599
 C2334 C 0.48221 0.50117 -0.05888
 H2335 H 0.45315 0.47456 -0.16086
 H2336 H 0.44793 0.54982 -0.11986
 H2337 H 0.43245 0.54514 -0.15940
 H2338 H 0.46504 0.53363 -0.08528
 H2339 H 0.47225 0.45828 -0.12574
 H2340 H 0.48979 0.44241 -0.08946
 H2341 H 0.50148 0.44740 -0.04840
 H2342 H 0.48015 0.51787 -0.05090
 C2343 C -0.05606 0.96565 0.35733
 C2344 C -0.04365 0.96188 0.37807
 C2345 C -0.01968 0.96539 0.37880
 C2346 C -0.00844 0.97119 0.35840
 C2347 C -0.02094 0.97477 0.33778
 C2348 C -0.04484 0.97273 0.33731
 C2349 C -0.00752 0.96411 0.40008
 C2350 C -0.01913 0.95989 0.42065
 C2351 C -0.04286 0.95502 0.41963
 C2352 C -0.05495 0.95577 0.39831
 C2353 C -0.05430 0.95065 0.44014
 C2354 C -0.04290 0.95351 0.46160
 C2355 C -0.01981 0.96076 0.46316
 C2356 C -0.00771 0.96214 0.44234
 H2357 H -0.07452 0.96389 0.35692
 H2358 H 0.00993 0.97374 0.35858
 H2359 H -0.01206 0.98021 0.32246
 H2360 H 0.01075 0.96762 0.40079
 H2361 H -0.07329 0.95276 0.39770
 H2362 H -0.07236 0.94615 0.43967
 H2363 H -0.05262 0.95052 0.47678
 H2364 H 0.01027 0.96703 0.44283
 C2365 C 0.08022 0.51629 0.34474
 C2366 C 0.07363 0.51349 0.36784
 C2367 C 0.08405 0.49656 0.38177
 C2368 C 0.10087 0.48286 0.37256
 C2369 C 0.10684 0.48533 0.34950
 C2370 C 0.09648 0.50184 0.33540
 C2371 C 0.07701 0.49299 0.40446
 C2372 C 0.05910 0.50550 0.41323
 C2373 C 0.04870 0.52254 0.39954
 C2374 C 0.05628 0.52671 0.37700
 C2375 C 0.03043 0.53456 0.40841
 C2376 C 0.02200 0.52908 0.43022
 C2377 C 0.03190 0.51175 0.44374
 C2378 C 0.05087 0.50047 0.43519
 H2379 H 0.07213 0.52894 0.33379
 H2380 H 0.10899 0.46984 0.38302
 H2381 H 0.11949 0.47420 0.34252
 H2382 H 0.08490 0.47985 0.41500
 H2383 H 0.04817 0.53963 0.36637
 H2384 H 0.02223 0.54771 0.39820
 H2385 H 0.00735 0.53803 0.43615
 H2386 H 0.05903 0.48723 0.44532
 C2387 C 0.55922 0.01197 -0.15504
 C2388 C 0.54417 0.01130 -0.13655
 C2389 C 0.52762 -0.00686 -0.13546
 C2390 C 0.52557 -0.02325 -0.15339
 C2391 C 0.54050 -0.02238 -0.17174
 C2392 C 0.55777 -0.00517 -0.17242
 C2393 C 0.51409 -0.00899 -0.11597
 C2394 C 0.51721 0.00649 -0.09733
 C2395 C 0.53267 0.02545 -0.09892
 C2396 C 0.54597 0.02789 -0.11867
 C2397 C 0.53541 0.04091 -0.08019
 C2398 C 0.52467 0.03632 -0.05930
 C2399 C 0.51120 0.01613 -0.05669
 C2400 C 0.50632 0.00223 -0.07648
 H2401 H 0.57239 0.02544 -0.15567
 H2402 H 0.51288 -0.03718 -0.15286
 H2403 H 0.53915 -0.03574 -0.18497
 H2404 H 0.50198 -0.02340 -0.11481
 H2405 H 0.55842 0.04201 -0.11960
 H2406 H 0.54686 0.05583 -0.08121
 H2407 H 0.52846 0.04774 -0.04487
 H2408 H 0.49557 -0.01318 -0.07533
 C2409 C 0.65488 0.55952 0.01055
 C2410 C 0.63563 0.54486 0.00991
 C2411 C 0.63277 0.52785 -0.00769
 C2412 C 0.65000 0.52528 -0.02385
 C2413 C 0.66917 0.54029 -0.02324
 C2414 C 0.67128 0.55790 -0.00642
 C2415 C 0.61239 0.51450 -0.00933
 C2416 C 0.59468 0.51867 0.00593
 C2417 C 0.59811 0.53540 0.02376
 C2418 C 0.61867 0.54796 0.02595
 C2419 C 0.58045 0.54042 0.03839
 C2420 C 0.55915 0.52990 0.03480
 C2421 C 0.55507 0.51322 0.01713
 C2422 C 0.57325 0.50735 0.00300
 H2423 H 0.65672 0.57290 0.02377
 H2424 H 0.64826 0.51226 -0.03739
 H2425 H 0.68184 0.53877 -0.03640
 H2426 H 0.60991 0.50174 -0.02307
 H2427 H 0.62098 0.56106 0.03941
 H2428 H 0.58274 0.55347 0.05187
 H2429 H 0.54565 0.53615 0.04518
 H2430 H 0.57049 0.49489 -0.01096
 C2431 C 0.14514 1.07087 0.49292
 C2432 C 0.12376 1.06026 0.49676
 C2433 C 0.10814 1.07141 0.51095
 C2434 C 0.11403 1.09285 0.52100
 C2435 C 0.13527 1.10322 0.51717
 C2436 C 0.15105 1.09242 0.50313
 C2437 C 0.08689 1.06095 0.51502
 C2438 C 0.08096 1.03946 0.50509
 C2439 C 0.09637 1.02822 0.49083
 C2440 C 0.11775 1.03869 0.48673
 C2441 C 0.09002 1.00674 0.48092
 C2442 C 0.06857 0.99661 0.48504
 C2443 C 0.05309 1.00773 0.49921
 C2444 C 0.05969 1.02917 0.50921
 H2445 H 0.15710 1.06245 0.48194
 H2446 H 0.10227 1.10153 0.53200
 H2447 H 0.13954 1.11955 0.52564
 H2448 H 0.07496 1.06954 0.52593
 H2449 H 0.12966 1.03010 0.47581
 H2450 H 0.10159 0.99782 0.46991
 H2451 H 0.06412 0.98013 0.47698
 H2452 H 0.04821 1.03821 0.52015
 C2453 C 0.12769 -0.06289 0.98913
 C2454 C 0.10705 -0.05175 0.99117
 C2455 C 0.10651 -0.02958 1.00125
 C2456 C 0.12723 -0.01862 1.00841
 C2457 C 0.14802 -0.02971 1.00588
 C2458 C 0.14854 -0.05235 0.99671
 C2459 C 0.08533 -0.01888 1.00368
 C2460 C 0.06491 -0.03004 0.99547
 C2461 C 0.06617 -0.05192 0.98467
 C2462 C 0.08697 -0.06267 0.98290
 C2463 C 0.04670 -0.06281 0.97516
 C2464 C 0.02596 -0.05236 0.97618
 C2465 C 0.02342 -0.03110 0.98782
 C2466 C 0.04332 -0.01982 0.99733
 H2467 H 0.12741 -0.07960 0.98063
 H2468 H 0.12737 -0.00152 1.01606
 H2469 H 0.16350 -0.02086 1.01219
 H2470 H 0.08479 -0.00194 1.01164
 H2471 H 0.08754 -0.07956 0.97478
 H2472 H 0.04754 -0.07929 0.96631
 H2473 H 0.01189 -0.06121 0.96715
 H2474 H 0.04212 -0.00312 1.00562
 C2475 C 0.65075 0.42590 0.51807
 C2476 C 0.63161 0.43966 0.51754
 C2477 C 0.63317 0.46248 0.52611
 C2478 C 0.65426 0.47112 0.53501
 C2479 C 0.67354 0.45735 0.53515
 C2480 C 0.67212 0.43437 0.52679
 C2481 C 0.61372 0.47622 0.52519
 C2482 C 0.59301 0.46741 0.51521
 C2483 C 0.59198 0.44459 0.50640
 C2484 C 0.61106 0.43087 0.50787
 C2485 C 0.57203 0.43580 0.49563
 C2486 C 0.55315 0.44939 0.49332
 C2487 C 0.55319 0.47204 0.50239
 C2488 C 0.57343 0.48098 0.51339
 H2489 H 0.64899 0.40892 0.51024
 H2490 H 0.65592 0.48859 0.54172
 H2491 H 0.68934 0.46467 0.54249
 H2492 H 0.61483 0.49377 0.53178
 H2493 H 0.61001 0.41339 0.50105
 H2494 H 0.57115 0.41848 0.48844
 H2495 H 0.53863 0.44199 0.48372
 H2496 H 0.57412 0.49847 0.52009
 C2497 C -0.14328 0.43048 0.49428
 C2498 C -0.12014 0.43750 0.49533
 C2499 C -0.10544 0.42833 0.51259
 C2500 C -0.11416 0.41284 0.52883
 C2501 C -0.13725 0.40639 0.52799
 C2502 C -0.15192 0.41497 0.51067
 C2503 C -0.08227 0.43488 0.51347
 C2504 C -0.07369 0.45104 0.49781
 C2505 C -0.08839 0.46073 0.48096
 C2506 C -0.11150 0.45366 0.47958
 C2507 C -0.07970 0.47744 0.46589
 C2508 C -0.05680 0.48478 0.46782
 C2509 C -0.04197 0.47527 0.48459
 C2510 C -0.05063 0.45790 0.49908
 H2511 H -0.15464 0.43723 0.48099
 H2512 H -0.10314 0.40575 0.54221
 H2513 H -0.14364 0.39429 0.54064
 H2514 H -0.07100 0.42768 0.52661
 H2515 H -0.12277 0.46091 0.46649
 H2516 H -0.09069 0.48507 0.45282
 H2517 H -0.05079 0.49795 0.45612
 H2518 H -0.03953 0.44952 0.51145
 C2519 C 0.34015 -0.04944 -0.00825
 C2520 C 0.36259 -0.04129 -0.01142
 C2521 C 0.37093 -0.03922 -0.03406
 C2522 C 0.35624 -0.04392 -0.05318
 C2523 C 0.33373 -0.05144 -0.04991
 C2524 C 0.32555 -0.05504 -0.02744
 C2525 C 0.39388 -0.03278 -0.03719
 C2526 C 0.40844 -0.02791 -0.01793
 C2527 C 0.39966 -0.02860 0.00463
 C2528 C 0.37690 -0.03555 0.00777
 C2529 C 0.41380 -0.02228 0.02370
 C2530 C 0.43668 -0.01631 0.02061
 C2531 C 0.44633 -0.01787 -0.00139
 C2532 C 0.43169 -0.02260 -0.02080
 H2533 H 0.33450 -0.05220 0.00923
 H2534 H 0.36218 -0.04196 -0.07069
 H2535 H 0.32286 -0.05467 -0.06513
 H2536 H 0.40044 -0.03179 -0.05456
 H2537 H 0.37038 -0.03663 0.02516
 H2538 H 0.40715 -0.02184 0.04102
 H2539 H 0.44676 -0.01058 0.03565
 H2540 H 0.43842 -0.02271 -0.03809
 C2541 C 0.33972 1.06740 0.51698
 C2542 C 0.36233 1.06036 0.51503
 C2543 C 0.37719 1.07272 0.50035
 C2544 C 0.36932 1.09148 0.48770
 C2545 C 0.34681 1.09795 0.48930
 C2546 C 0.33189 1.08605 0.50386
 C2547 C 0.39964 1.06598 0.49818
 C2548 C 0.40739 1.04659 0.50984
 C2549 C 0.39276 1.03387 0.52427
 C2550 C 0.37030 1.04105 0.52709
 C2551 C 0.40083 1.01399 0.53513
 C2552 C 0.42294 1.00656 0.53117
 C2553 C 0.43747 1.01908 0.51655
 C2554 C 0.42949 1.03943 0.50652
 H2555 H 0.32814 1.05824 0.52823
 H2556 H 0.38052 1.10104 0.47639
 H2557 H 0.34103 1.11252 0.47932
 H2558 H 0.41095 1.07554 0.48694
 H2559 H 0.35896 1.03139 0.53819
 H2560 H 0.38991 1.00394 0.54630
 H2561 H 0.42851 0.99090 0.53934
 H2562 H 0.44010 1.04941 0.49507
 C2563 C -0.15407 0.57587 1.01677
 C2564 C -0.13196 0.56737 1.01625
 C2565 C -0.11392 0.58189 1.00867
 C2566 C -0.11785 0.60485 1.00313
 C2567 C -0.13980 0.61311 1.00366
 C2568 C -0.15819 0.59853 1.00964
 C2569 C -0.09237 0.57308 1.00587
 C2570 C -0.08852 0.54994 1.01052
 C2571 C -0.10591 0.53558 1.01940
 C2572 C -0.12770 0.54440 1.02221
 C2573 C -0.10125 0.51253 1.02445
 C2574 C -0.07970 0.50382 1.02021
 C2575 C -0.06263 0.51793 1.01046
 C2576 C -0.06756 0.54093 1.00557
 H2577 H -0.16818 0.56453 1.02145
 H2578 H -0.10407 0.61623 0.99769
 H2579 H -0.14252 0.63081 0.99876
 H2580 H -0.07872 0.58410 0.99943
 H2581 H -0.14141 0.53328 1.02831
 H2582 H -0.11432 0.50119 1.03140
 H2583 H -0.07664 0.48595 1.02406
 H2584 H -0.05570 0.55178 0.99640
 C2585 C 0.01341 0.64359 0.54882
 C2586 C 0.01940 0.62322 0.53738
 C2587 C 0.03626 0.60923 0.54755
 C2588 C 0.04708 0.61590 0.56862
 C2589 C 0.04054 0.63570 0.58015
 C2590 C 0.02350 0.64948 0.57057
 C2591 C 0.04126 0.58818 0.53720
 C2592 C 0.02877 0.58024 0.51751
 C2593 C 0.01224 0.59423 0.50697
 C2594 C 0.00802 0.61595 0.51665
 C2595 C -0.00083 0.58555 0.48789
 C2596 C 0.00112 0.56260 0.48067
 C2597 C 0.01670 0.54810 0.49190
 C2598 C 0.03126 0.55766 0.50956
 H2599 H 0.00018 0.65419 0.54146
 H2600 H 0.06003 0.60537 0.57660
 H2601 H 0.04861 0.64017 0.59679
 H2602 H 0.05387 0.57731 0.54534
 H2603 H -0.00500 0.62655 0.50886
 H2604 H -0.01363 0.59599 0.47955
 H2605 H -0.01074 0.55588 0.46740
 H2606 H 0.04305 0.54693 0.51897
 C2607 C 0.50352 0.14780 0.04802
 C2608 C 0.50016 0.12714 0.03533
 C2609 C 0.47787 0.11749 0.03206
 C2610 C 0.45933 0.12883 0.04109
 C2611 C 0.46281 0.14922 0.05381
 C2612 C 0.48491 0.15884 0.05763
 C2613 C 0.47451 0.09632 0.02044
 C2614 C 0.49320 0.08432 0.01255
 C2615 C 0.51541 0.09415 0.01530
 C2616 C 0.51876 0.11565 0.02639
 C2617 C 0.53396 0.08189 0.00760
 C2618 C 0.53074 0.05947 -0.00111
 C2619 C 0.50889 0.04876 -0.00263
 C2620 C 0.49008 0.06208 0.00313
 H2621 H 0.52061 0.15515 0.05061
 H2622 H 0.44215 0.12165 0.03877
 H2623 H 0.44820 0.15712 0.06124
 H2624 H 0.45743 0.08877 0.01833
 H2625 H 0.53588 0.12303 0.02880
 H2626 H 0.55111 0.08932 0.00906
 H2627 H 0.54556 0.05077 -0.00647
 H2628 H 0.47293 0.05464 0.00184
 C2629 C -0.01511 0.14669 0.94338
 C2630 C -0.01569 0.12626 0.95603
 C2631 C 0.00281 0.12068 0.97097
 C2632 C 0.02148 0.13637 0.97335
 C2633 C 0.02218 0.15663 0.96012
 C2634 C 0.00411 0.16159 0.94452
 C2635 C 0.00259 0.09919 0.98237
 C2636 C -0.01537 0.08290 0.97787
 C2637 C -0.03360 0.08900 0.96271
 C2638 C -0.03405 0.11075 0.95267
 C2639 C -0.05039 0.07272 0.95615
 C2640 C -0.04878 0.05025 0.96348
 C2641 C -0.03175 0.04350 0.97971
 C2642 C -0.01494 0.06025 0.98693
 H2643 H -0.02938 0.15061 0.93185
 H2644 H 0.03587 0.13260 0.98475
 H2645 H 0.03718 0.16792 0.96141
 H2646 H 0.01685 0.09472 0.99367
 H2647 H -0.04807 0.11504 0.94094
 H2648 H -0.06400 0.07696 0.94392
 H2649 H -0.06080 0.03802 0.95542
 H2650 H -0.00088 0.05534 0.99825
 C2651 C 0.50881 0.65457 0.43767
 C2652 C 0.50704 0.63472 0.45147
 C2653 C 0.48590 0.62846 0.46118
 C2654 C 0.46704 0.64229 0.45723
 C2655 C 0.46885 0.66176 0.44323
 C2656 C 0.48961 0.66799 0.43305
 C2657 C 0.48374 0.60809 0.47402
 C2658 C 0.50221 0.59340 0.47655
 C2659 C 0.52340 0.59980 0.46717
 C2660 C 0.52582 0.62059 0.45504
 C2661 C 0.54158 0.58482 0.46931
 C2662 C 0.53823 0.56293 0.47875
 C2663 C 0.51666 0.55550 0.48659
 C2664 C 0.49936 0.57176 0.48704
 H2665 H 0.52487 0.65904 0.42979
 H2666 H 0.45074 0.63780 0.46459
 H2667 H 0.45391 0.67197 0.44032
 H2668 H 0.46740 0.60315 0.48112
 H2669 H 0.54205 0.62529 0.44758
 H2670 H 0.55812 0.58957 0.46262
 H2671 H 0.55247 0.55151 0.47891
 H2672 H 0.48309 0.56728 0.49400
 C2673 C 0.49343 0.85088 0.44208
 C2674 C 0.48896 0.87154 0.45391
 C2675 C 0.46759 0.88184 0.45041
 C2676 C 0.45109 0.87138 0.43542
 C2677 C 0.45581 0.85120 0.42346
 C2678 C 0.47701 0.84084 0.42644
 C2679 C 0.46321 0.90278 0.46142
 C2680 C 0.48011 0.91404 0.47537
 C2681 C 0.50141 0.90383 0.47914
 C2682 C 0.50562 0.88244 0.46864
 C2683 C 0.51831 0.91560 0.49272
 C2684 C 0.51458 0.93775 0.50137
 C2685 C 0.49374 0.94858 0.49695
 C2686 C 0.47630 0.93595 0.48463
 H2687 H 0.50988 0.84306 0.44440
 H2688 H 0.43462 0.87903 0.43263
 H2689 H 0.44281 0.84361 0.41180
 H2690 H 0.44688 0.91071 0.45846
 H2691 H 0.52206 0.87468 0.47134
 H2692 H 0.53475 0.90804 0.49594
 H2693 H 0.52839 0.94661 0.51087
 H2694 H 0.45998 0.94354 0.48095
 C2695 C 0.00193 0.34601 0.93945
 C2696 C -0.00138 0.36904 0.94594
 C2697 C -0.00338 0.38599 0.92856
 C2698 C -0.00168 0.37983 0.90518
 C2699 C 0.00185 0.35704 0.89892
 C2700 C 0.00360 0.33990 0.91588
 C2701 C -0.00699 0.40889 0.93474
 C2702 C -0.00817 0.41528 0.95812
 C2703 C -0.00585 0.39862 0.97563
 C2704 C -0.00268 0.37548 0.96944
 C2705 C -0.00672 0.40550 0.99899
 C2706 C -0.00917 0.42875 1.00485
 C2707 C -0.01076 0.44557 0.98749
 C2708 C -0.01123 0.43831 0.96412
 H2709 H 0.00338 0.33289 0.95264
 H2710 H -0.00318 0.39264 0.89169
 H2711 H 0.00270 0.35268 0.88067
 H2712 H -0.00859 0.42181 0.92134
 H2713 H -0.00103 0.36258 0.98284
 H2714 H -0.00527 0.39295 1.01272
 H2715 H -0.00982 0.43346 1.02298
 H2716 H -0.01342 0.45064 0.95029
 C2717 C 0.49280 0.34045 0.05096
 C2718 C 0.48897 0.36158 0.03980
 C2719 C 0.46965 0.37427 0.04541
 C2720 C 0.45429 0.36552 0.06149
 C2721 C 0.45827 0.34469 0.07253
 C2722 C 0.47761 0.33198 0.06765
 C2723 C 0.46638 0.39594 0.03558
 C2724 C 0.48251 0.40554 0.02073
 C2725 C 0.50145 0.39274 0.01439
 C2726 C 0.50441 0.37063 0.02371
 C2727 C 0.51772 0.40289 -0.00006
 C2728 C 0.51627 0.42610 -0.00641
 C2729 C 0.49826 0.43950 0.00116
 C2730 C 0.48082 0.42846 0.01370
 H2731 H 0.50765 0.33073 0.04683
 H2732 H 0.43944 0.37508 0.06597
 H2733 H 0.44645 0.33884 0.08546
 H2734 H 0.45182 0.40583 0.04040
 H2735 H 0.51922 0.36096 0.01928
 H2736 H 0.53232 0.39333 -0.00527
 H2737 H 0.53012 0.43393 -0.01587
 H2738 H 0.46695 0.43828 0.02021
 C2739 C 0.00146 0.83275 0.56604
 C2740 C 0.00522 0.85489 0.55685
 C2741 C 0.02313 0.86923 0.56629
 C2742 C 0.03728 0.86109 0.58423
 C2743 C 0.03358 0.83905 0.59305
 C2744 C 0.01558 0.82475 0.58426
 C2745 C 0.02647 0.89162 0.55794
 C2746 C 0.01216 0.89998 0.54025
 C2747 C -0.00530 0.88557 0.53022
 C2748 C -0.00869 0.86306 0.53858
 C2749 C -0.01931 0.89418 0.51236
 C2750 C -0.01662 0.91708 0.50519
 C2751 C 0.00001 0.93196 0.51577
 C2752 C 0.01472 0.92284 0.53296
 H2753 H -0.01236 0.82174 0.55904
 H2754 H 0.05108 0.87187 0.59161
 H2755 H 0.04452 0.83334 0.60720
 H2756 H 0.03999 0.90268 0.56551
 H2757 H -0.02233 0.85207 0.53114
 H2758 H -0.03272 0.88336 0.50430
 H2759 H -0.02824 0.92319 0.49203
 H2760 H 0.02778 0.93367 0.54154
 C2761 C 0.22862 0.33488 0.11170
 C2762 C 0.22929 0.32539 0.13399
 C2763 C 0.24417 0.33537 0.15127
 C2764 C 0.25786 0.35469 0.14616
 C2765 C 0.25731 0.36381 0.12391
 C2766 C 0.24285 0.35396 0.10644
 C2767 C 0.24577 0.32545 0.17319
 C2768 C 0.23333 0.30519 0.17786
 C2769 C 0.21806 0.29533 0.16096
 C2770 C 0.21584 0.30573 0.13913
 C2771 C 0.20605 0.27476 0.16594
 C2772 C 0.21024 0.26340 0.18692
 C2773 C 0.22626 0.27263 0.20333
 C2774 C 0.23705 0.29403 0.19885
 H2775 H 0.21718 0.32735 0.09842
 H2776 H 0.26939 0.36244 0.15923
 H2777 H 0.26863 0.37831 0.12024
 H2778 H 0.25746 0.33294 0.18630
 H2779 H 0.20439 0.29806 0.12593
 H2780 H 0.19413 0.26699 0.15326
 H2781 H 0.20159 0.24701 0.18987
 H2782 H 0.24926 0.30172 0.21129
 C2783 C 0.72349 0.80680 0.59433
 C2784 C 0.72462 0.78969 0.61143
 C2785 C 0.74386 0.77563 0.61286
 C2786 C 0.76169 0.77905 0.59760
 C2787 C 0.76082 0.79655 0.58128
 C2788 C 0.74173 0.81061 0.57925
 C2789 C 0.74553 0.75901 0.63016
 C2790 C 0.72897 0.75722 0.64707
 C2791 C 0.70975 0.77124 0.64595
 C2792 C 0.70731 0.78695 0.62766
 C2793 C 0.69416 0.77029 0.66395
 C2794 C 0.69877 0.75726 0.68381
 C2795 C 0.71860 0.74423 0.68560
 C2796 C 0.73260 0.74308 0.66622
 H2797 H 0.70850 0.81719 0.59295
 H2798 H 0.77669 0.76861 0.59875
 H2799 H 0.77546 0.79930 0.57056
 H2800 H 0.76046 0.74845 0.63132
 H2801 H 0.69266 0.79790 0.62683
 H2802 H 0.67933 0.78097 0.66347
 H2803 H 0.68779 0.75906 0.69834
 H2804 H 0.74794 0.73315 0.66693
 C2805 C 0.28248 0.68676 0.60303
 C2806 C 0.28251 0.70130 0.62263
 C2807 C 0.27227 0.72298 0.62098
 C2808 C 0.26338 0.73032 0.59960
 C2809 C 0.26353 0.71586 0.58022
 C2810 C 0.27237 0.69365 0.58182
 C2811 C 0.27025 0.73664 0.64087
 C2812 C 0.27799 0.72874 0.66251
 C2813 C 0.28948 0.70778 0.66407
 C2814 C 0.29180 0.69419 0.64406
 C2815 C 0.29761 0.70039 0.68579
 C2816 C 0.29262 0.71260 0.70592
 C2817 C 0.27895 0.73211 0.70479
 C2818 C 0.27311 0.74087 0.68274
 H2819 H 0.28938 0.66973 0.60463
 H2820 H 0.25583 0.74706 0.59796
 H2821 H 0.25640 0.72203 0.56397
 H2822 H 0.26170 0.75292 0.63966
 H2823 H 0.29998 0.67772 0.64535
 H2824 H 0.30699 0.68466 0.68732
 H2825 H 0.29853 0.70597 0.72241
 H2826 H 0.26339 0.75636 0.68113
 C2827 C 0.76697 0.18364 0.11454
 C2828 C 0.76981 0.19489 0.13601
 C2829 C 0.76913 0.21918 0.13735
 C2830 C 0.76560 0.23177 0.11691
 C2831 C 0.76191 0.22028 0.09560
 C2832 C 0.76245 0.19613 0.09434
 C2833 C 0.77077 0.23026 0.15917
 C2834 C 0.77128 0.21716 0.17961
 C2835 C 0.77155 0.19286 0.17792
 C2836 C 0.77183 0.18199 0.15625
 C2837 C 0.76931 0.17957 0.19776
 C2838 C 0.76506 0.19004 0.21882
 C2839 C 0.76552 0.21423 0.22142
 C2840 C 0.76943 0.22772 0.20155
 H2841 H 0.76705 0.16497 0.11369
 H2842 H 0.76493 0.25038 0.11751
 H2843 H 0.75855 0.23020 0.08010
 H2844 H 0.77005 0.24888 0.16027
 H2845 H 0.77186 0.16332 0.15515
 H2846 H 0.76861 0.16092 0.19660
 H2847 H 0.75959 0.17875 0.23242
 H2848 H 0.76871 0.24631 0.20268
 C2849 C 0.72083 0.20860 0.90461
 C2850 C 0.72612 0.21853 0.88318
 C2851 C 0.74921 0.22379 0.87837
 C2852 C 0.76629 0.22096 0.89547
 C2853 C 0.76084 0.21150 0.91675
 C2854 C 0.73832 0.20454 0.92114
 C2855 C 0.75511 0.23066 0.85618
 C2856 C 0.73829 0.23243 0.83869
 C2857 C 0.71504 0.22956 0.84377
 C2858 C 0.70901 0.22240 0.86610
 C2859 C 0.69850 0.23325 0.82614
 C2860 C 0.70513 0.23779 0.80336
 C2861 C 0.72824 0.23699 0.79764
 C2862 C 0.74465 0.23594 0.81591
 H2863 H 0.70342 0.20328 0.90812
 H2864 H 0.78398 0.22521 0.89207
 H2865 H 0.77444 0.20839 0.92935
 H2866 H 0.77293 0.23361 0.85225
 H2867 H 0.69123 0.21907 0.86988
 H2868 H 0.68052 0.23203 0.82982
 H2869 H 0.69208 0.24015 0.79003
 H2870 H 0.76270 0.23694 0.81249
 C2871 C 0.24430 0.69428 0.39439
 C2872 C 0.24403 0.70819 0.37459
 C2873 C 0.26196 0.72459 0.37148
 C2874 C 0.27945 0.72726 0.38845
 C2875 C 0.27955 0.71341 0.40810
 C2876 C 0.26221 0.69660 0.41109
 C2877 C 0.26248 0.73763 0.35120
 C2878 C 0.24550 0.73428 0.33380
 C2879 C 0.22715 0.71851 0.33713
 C2880 C 0.22642 0.70563 0.35762
 C2881 C 0.21032 0.71535 0.31953
 C2882 C 0.21238 0.72668 0.29832
 C2883 C 0.23131 0.74135 0.29426
 C2884 C 0.24728 0.74571 0.31266
 H2885 H 0.23069 0.68156 0.39676
 H2886 H 0.29328 0.73979 0.38633
 H2887 H 0.29354 0.71539 0.42070
 H2888 H 0.27650 0.74986 0.34863
 H2889 H 0.21257 0.69317 0.36005
 H2890 H 0.19599 0.70347 0.32183
 H2891 H 0.19973 0.72289 0.28488
 H2892 H 0.26203 0.75700 0.31027
 C2893 C 0.75392 0.82823 0.39818
 C2894 C 0.75343 0.81424 0.37814
 C2895 C 0.73538 0.79782 0.37455
 C2896 C 0.71785 0.79613 0.39037
 C2897 C 0.71796 0.81068 0.40963
 C2898 C 0.73609 0.82668 0.41410
 C2899 C 0.73459 0.78384 0.35476
 C2900 C 0.75073 0.78701 0.33763
 C2901 C 0.76856 0.80368 0.34065
 C2902 C 0.77024 0.81679 0.36130
 C2903 C 0.78359 0.80760 0.32245
 C2904 C 0.77990 0.79627 0.30101
 C2905 C 0.76162 0.78021 0.29770
 C2906 C 0.74806 0.77484 0.31678
 H2907 H 0.76818 0.84023 0.40127
 H2908 H 0.70369 0.78392 0.38754
 H2909 H 0.70351 0.80949 0.42082
 H2910 H 0.72066 0.77128 0.35211
 H2911 H 0.78391 0.82962 0.36376
 H2912 H 0.79733 0.82042 0.32432
 H2913 H 0.79047 0.80120 0.28672
 H2914 H 0.73389 0.76252 0.31506
 C2915 C 0.25657 0.32384 0.91374
 C2916 C 0.25432 0.31123 0.89286
 C2917 C 0.23239 0.30349 0.88484
 C2918 C 0.21323 0.30828 0.89769
 C2919 C 0.21554 0.32134 0.91800
 C2920 C 0.23714 0.32945 0.92625
 C2921 C 0.22975 0.29183 0.86364
 C2922 C 0.24859 0.28853 0.84982
 C2923 C 0.27060 0.29594 0.85766
 C2924 C 0.27343 0.30694 0.87942
 C2925 C 0.28914 0.29295 0.84314
 C2926 C 0.28563 0.28383 0.82066
 C2927 C 0.26354 0.27733 0.81244
 C2928 C 0.24533 0.27899 0.82769
 H2929 H 0.27339 0.32960 0.91998
 H2930 H 0.19633 0.30257 0.89163
 H2931 H 0.20019 0.32570 0.92678
 H2932 H 0.21284 0.28618 0.85743
 H2933 H 0.29027 0.31292 0.88545
 H2934 H 0.30621 0.29848 0.84883
 H2935 H 0.30005 0.28293 0.80952
 H2936 H 0.22810 0.27406 0.82200
 C2937 C 0.82180 0.38693 0.73774
 C2938 C 0.81406 0.36385 0.73595
 C2939 C 0.82989 0.34605 0.73817
 C2940 C 0.85310 0.35157 0.74200
 C2941 C 0.86063 0.37453 0.74381
 C2942 C 0.84512 0.39244 0.74179
 C2943 C 0.82226 0.32300 0.73692
 C2944 C 0.79894 0.31747 0.73405
 C2945 C 0.78308 0.33513 0.73160
 C2946 C 0.79075 0.35827 0.73231
 C2947 C 0.75978 0.32928 0.72910
 C2948 C 0.75224 0.30624 0.73042
 C2949 C 0.76785 0.28852 0.73399
 C2950 C 0.79125 0.29446 0.73462
 H2951 H 0.80964 0.40057 0.73635
 H2952 H 0.86543 0.33811 0.74366
 H2953 H 0.87871 0.37828 0.74645
 H2954 H 0.83441 0.30937 0.73887
 H2955 H 0.77857 0.37188 0.73059
 H2956 H 0.74732 0.34255 0.72696
 H2957 H 0.73406 0.30246 0.72943
 H2958 H 0.80381 0.28155 0.73631
 C2959 C 0.31357 0.90942 0.24017
 C2960 C 0.30205 0.88823 0.23551
 C2961 C 0.31171 0.87218 0.22046
 C2962 C 0.33263 0.87727 0.21055
 C2963 C 0.34442 0.89783 0.21595
 C2964 C 0.33534 0.91443 0.23096
 C2965 C 0.30084 0.85079 0.21623
 C2966 C 0.28117 0.84455 0.22805
 C2967 C 0.27142 0.86027 0.24334
 C2968 C 0.28157 0.88236 0.24650
 C2969 C 0.25254 0.85306 0.25614
 C2970 C 0.24460 0.83003 0.25504
 C2971 C 0.25501 0.81402 0.24061
 C2972 C 0.27241 0.82203 0.22620
 H2973 H 0.30616 0.92100 0.25245
 H2974 H 0.34014 0.86515 0.19884
 H2975 H 0.36021 0.90094 0.20713
 H2976 H 0.30846 0.83847 0.20476
 H2977 H 0.27424 0.89446 0.25837
 H2978 H 0.24472 0.86486 0.26794
 H2979 H 0.23099 0.82463 0.26623
 H2980 H 0.28136 0.81017 0.21559
 C2981 C 0.20548 0.90693 0.75701
 C2982 C 0.21707 0.88629 0.75943
 C2983 C 0.22139 0.87723 0.78177
 C2984 C 0.21482 0.88954 0.80136
 C2985 C 0.20320 0.91009 0.79879
 C2986 C 0.19795 0.91874 0.77658
 C2987 C 0.23140 0.85566 0.78408
 C2988 C 0.23647 0.84280 0.76427
 C2989 C 0.23290 0.85234 0.74202
 C2990 C 0.22354 0.87412 0.73975
 C2991 C 0.23810 0.83961 0.72232
 C2992 C 0.24464 0.81685 0.72447
 C2993 C 0.24571 0.80618 0.74634
 C2994 C 0.24391 0.82012 0.76624
 H2995 H 0.20133 0.91315 0.73976
 H2996 H 0.21817 0.88301 0.81864
 H2997 H 0.19808 0.91908 0.81421
 H2998 H 0.23417 0.84842 0.80119
 H2999 H 0.22042 0.88118 0.72262
 H3000 H 0.23624 0.84692 0.70516
 H3001 H 0.24784 0.80736 0.70874
 H3002 H 0.24726 0.81312 0.78328
 C3003 C 0.68966 0.39053 0.24865
 C3004 C 0.69998 0.36915 0.24824
 C3005 C 0.72246 0.36737 0.24042
 C3006 C 0.73434 0.38743 0.23348
 C3007 C 0.72398 0.40890 0.23434
 C3008 C 0.70147 0.41051 0.24171
 C3009 C 0.73263 0.34568 0.24004
 C3010 C 0.72072 0.32599 0.24802
 C3011 C 0.69842 0.32828 0.25625
 C3012 C 0.68812 0.34964 0.25597
 C3013 C 0.68683 0.30931 0.26537
 C3014 C 0.69717 0.28821 0.26668
 C3015 C 0.71906 0.28498 0.25790
 C3016 C 0.73079 0.30420 0.24854
 H3017 H 0.67246 0.39172 0.25485
 H3018 H 0.75164 0.38654 0.22755
 H3019 H 0.73339 0.42418 0.22899
 H3020 H 0.74984 0.34420 0.23397
 H3021 H 0.67096 0.35116 0.26224
 H3022 H 0.66994 0.31094 0.27223
 H3023 H 0.68798 0.27461 0.27539
 H3024 H 0.74790 0.30243 0.24234
 C3025 C 0.69745 0.60293 0.25692
 C3026 C 0.70475 0.62611 0.25893
 C3027 C 0.70455 0.63738 0.28073
 C3028 C 0.69777 0.62505 0.30028
 C3029 C 0.69069 0.60192 0.29817
 C3030 C 0.69008 0.59068 0.27643
 C3031 C 0.71084 0.66085 0.28257
 C3032 C 0.71744 0.67314 0.26289
 C3033 C 0.71829 0.66166 0.24125
 C3034 C 0.71187 0.63826 0.23938
 C3035 C 0.72550 0.67380 0.22179
 C3036 C 0.73122 0.69725 0.22354
 C3037 C 0.72925 0.70927 0.24464
 C3038 C 0.72295 0.69680 0.26446
 H3039 H 0.69680 0.59471 0.23997
 H3040 H 0.69775 0.63333 0.31718
 H3041 H 0.68558 0.59286 0.31359
 H3042 H 0.71035 0.66958 0.29924
 H3043 H 0.71224 0.62957 0.22268
 H3044 H 0.72672 0.66517 0.20516
 H3045 H 0.73720 0.70583 0.20823
 H3046 H 0.72184 0.70550 0.28105
 C3047 C 0.19070 0.10736 0.75648
 C3048 C 0.20283 0.12842 0.75855
 C3049 C 0.22037 0.13149 0.77569
 C3050 C 0.22572 0.11299 0.79022
 C3051 C 0.21364 0.09185 0.78787
 C3052 C 0.19591 0.08883 0.77102
 C3053 C 0.23197 0.15303 0.77812
 C3054 C 0.22608 0.17144 0.76360
 C3055 C 0.20880 0.16789 0.74620
 C3056 C 0.19737 0.14652 0.74378
 C3057 C 0.20267 0.18593 0.73175
 C3058 C 0.21297 0.20758 0.73479
 C3059 C 0.22996 0.21195 0.75220
 C3060 C 0.23667 0.19348 0.76641
 H3061 H 0.17677 0.10565 0.74376
 H3062 H 0.23919 0.11488 0.80341
 H3063 H 0.21831 0.07784 0.79915
 H3064 H 0.24526 0.15552 0.79145
 H3065 H 0.18395 0.14407 0.73056
 H3066 H 0.18931 0.18351 0.71849
 H3067 H 0.20630 0.22114 0.72427
 H3068 H 0.24958 0.19633 0.78003
 C3069 C 0.31722 0.09942 0.22740
 C3070 C 0.30837 0.12133 0.23117
 C3071 C 0.31930 0.13633 0.24779
 C3072 C 0.33869 0.12943 0.26026
 C3073 C 0.34705 0.10760 0.25672
 C3074 C 0.33636 0.09247 0.24048
 C3075 C 0.31055 0.15793 0.25206
 C3076 C 0.29080 0.16478 0.24027
 C3077 C 0.27967 0.15014 0.22365
 C3078 C 0.28862 0.12841 0.21904
 C3079 C 0.25975 0.15755 0.21218
 C3080 C 0.25106 0.17924 0.21728
 C3081 C 0.26214 0.19382 0.23393
 C3082 C 0.28206 0.18618 0.24519
 H3083 H 0.30898 0.08760 0.21492
 H3084 H 0.34719 0.14078 0.27300
 H3085 H 0.36188 0.10239 0.26678
 H3086 H 0.31898 0.16934 0.26485
 H3087 H 0.28014 0.11699 0.20634
 H3088 H 0.25091 0.14661 0.19932
 H3089 H 0.23573 0.18454 0.20816
 H3090 H 0.29102 0.19686 0.25813
 C3091 C 0.80424 0.57860 0.73560
 C3092 C 0.79343 0.59938 0.73103
 C3093 C 0.79847 0.61171 0.71066
 C3094 C 0.81369 0.60277 0.69491
 C3095 C 0.82449 0.58219 0.69967
 C3096 C 0.82017 0.57011 0.72019
 C3097 C 0.78877 0.63311 0.70668
 C3098 C 0.77442 0.64255 0.72301
 C3099 C 0.76883 0.62998 0.74304
 C3100 C 0.77822 0.60835 0.74685
 C3101 C 0.75438 0.63954 0.75921
 C3102 C 0.74659 0.66184 0.75618
 C3103 C 0.75332 0.67510 0.73707
 C3104 C 0.76629 0.66476 0.71999
 H3105 H 0.80062 0.56927 0.75134
 H3106 H 0.81773 0.61200 0.67923
 H3107 H 0.83688 0.57615 0.68766
 H3108 H 0.79299 0.64277 0.69126
 H3109 H 0.77424 0.59886 0.76242
 H3110 H 0.74966 0.63005 0.77453
 H3111 H 0.73612 0.66903 0.76942
 H3112 H 0.77066 0.67412 0.70455
 C3113 C 0.89316 0.76772 0.19747
 C3114 C 0.87091 0.77214 0.20472
 C3115 C 0.85431 0.77905 0.18818
 C3116 C 0.85988 0.78143 0.16499
 C3117 C 0.88148 0.77616 0.15777
 C3118 C 0.89865 0.76883 0.17361
 C3119 C 0.83203 0.78275 0.19476
 C3120 C 0.82558 0.77847 0.21748
 C3121 C 0.84179 0.77154 0.23432
 C3122 C 0.86462 0.76885 0.22795
 C3123 C 0.83450 0.76633 0.25677
 C3124 C 0.81123 0.76689 0.26195
 C3125 C 0.79492 0.77340 0.24503
 C3126 C 0.80267 0.77959 0.22296
 H3127 H 0.90539 0.76171 0.21029
 H3128 H 0.84734 0.78703 0.15222
 H3129 H 0.88477 0.77906 0.13965
 H3130 H 0.81938 0.78789 0.18184
 H3131 H 0.87715 0.76329 0.24075
 H3132 H 0.84660 0.76077 0.26997
 H3133 H 0.80594 0.76123 0.27885
 H3134 H 0.79076 0.78362 0.20903
 C3135 C 0.40030 0.26619 0.71612
 C3136 C 0.38026 0.27216 0.72736
 C3137 C 0.36845 0.29185 0.72005
 C3138 C 0.37712 0.30559 0.70232
 C3139 C 0.39666 0.29929 0.69099
 C3140 C 0.40816 0.27932 0.69734
 C3141 C 0.34753 0.29691 0.72968
 C3142 C 0.33766 0.28200 0.74579
 C3143 C 0.34965 0.26280 0.75386
 C3144 C 0.37115 0.25822 0.74492
 C3145 C 0.33920 0.24775 0.76956
 C3146 C 0.31636 0.25044 0.77531
 C3147 C 0.30365 0.26849 0.76580
 C3148 C 0.31512 0.28497 0.75226
 H3149 H 0.40906 0.25074 0.72112
 H3150 H 0.36834 0.32081 0.69665
 H3151 H 0.40265 0.30990 0.67691
 H3152 H 0.33827 0.31168 0.72354
 H3153 H 0.38014 0.24313 0.75064
 H3154 H 0.34818 0.23304 0.77621
 H3155 H 0.30828 0.23745 0.78593
 H3156 H 0.30594 0.29882 0.74446
 C3157 C 0.40462 0.73019 0.81144
 C3158 C 0.38154 0.73058 0.80399
 C3159 C 0.36426 0.72657 0.82019
 C3160 C 0.37022 0.72178 0.84330
 C3161 C 0.39310 0.72138 0.85053
 C3162 C 0.41055 0.72575 0.83482
 C3163 C 0.34126 0.72781 0.81319
 C3164 C 0.33520 0.73308 0.79019
 C3165 C 0.35232 0.73658 0.77379
 C3166 C 0.37543 0.73526 0.78076
 C3167 C 0.34599 0.74195 0.75085
 C3168 C 0.32298 0.74417 0.74435
 C3169 C 0.30571 0.74068 0.76051
 C3170 C 0.31222 0.73543 0.78356
 H3171 H 0.41791 0.73339 0.79911
 H3172 H 0.35717 0.71868 0.85592
 H3173 H 0.39713 0.71825 0.86865
 H3174 H 0.32807 0.72500 0.82575
 H3175 H 0.38861 0.73826 0.76825
 H3176 H 0.35887 0.74492 0.73804
 H3177 H 0.31883 0.74926 0.72676
 H3178 H 0.29948 0.73362 0.79668
 C3179 C 0.90059 0.23367 0.31128
 C3180 C 0.87696 0.23219 0.30612
 C3181 C 0.86224 0.22145 0.32206
 C3182 C 0.87125 0.21189 0.34242
 C3183 C 0.89464 0.21319 0.34725
 C3184 C 0.90954 0.22419 0.33192
 C3185 C 0.83867 0.22057 0.31758
 C3186 C 0.82949 0.23003 0.29723
 C3187 C 0.84403 0.24014 0.28084
 C3188 C 0.86774 0.24132 0.28545
 C3189 C 0.83452 0.24889 0.26019
 C3190 C 0.81085 0.24771 0.25594
 C3191 C 0.79624 0.23807 0.27241
 C3192 C 0.80588 0.22942 0.29312
 H3193 H 0.91197 0.24209 0.29932
 H3194 H 0.86018 0.20359 0.35475
 H3195 H 0.90107 0.20608 0.36339
 H3196 H 0.82744 0.21255 0.32999
 H3197 H 0.87895 0.24934 0.27305
 H3198 H 0.84537 0.25658 0.24730
 H3199 H 0.80402 0.25442 0.23979
 H3200 H 0.79507 0.22166 0.30601
 C3201 C 0.09502 0.25203 0.29985
 C3202 C 0.11642 0.25658 0.29006
 C3203 C 0.13195 0.27250 0.30119
 C3204 C 0.12557 0.28439 0.32105
 C3205 C 0.10452 0.27964 0.33071
 C3206 C 0.08932 0.26296 0.32073
 C3207 C 0.15400 0.27561 0.29298
 C3208 C 0.16102 0.26274 0.27401
 C3209 C 0.14538 0.24772 0.26198
 C3210 C 0.12303 0.24481 0.27000
 C3211 C 0.15279 0.23513 0.24286
 C3212 C 0.17575 0.23640 0.23666
 C3213 C 0.19173 0.25031 0.24946
 C3214 C 0.18388 0.26378 0.26784
 H3215 H 0.08340 0.23916 0.29199
 H3216 H 0.13719 0.29685 0.32956
 H3217 H 0.10029 0.28867 0.34645
 H3218 H 0.16603 0.28735 0.30200
 H3219 H 0.11116 0.23274 0.26124
 H3220 H 0.14104 0.22361 0.23325
 H3221 H 0.18114 0.22558 0.22260
 H3222 H 0.19577 0.27416 0.27848
 C3223 C 0.59385 0.74289 0.79448
 C3224 C 0.61548 0.74567 0.78453
 C3225 C 0.63286 0.75871 0.79658
 C3226 C 0.62856 0.76872 0.81805
 C3227 C 0.60737 0.76559 0.82791
 C3228 C 0.58964 0.75278 0.81637
 C3229 C 0.65460 0.76101 0.78745
 C3230 C 0.65963 0.74986 0.76672
 C3231 C 0.64248 0.73702 0.75429
 C3232 C 0.62031 0.73525 0.76311
 C3233 C 0.64817 0.72545 0.73385
 C3234 C 0.67086 0.72559 0.72665
 C3235 C 0.68824 0.73773 0.73943
 C3236 C 0.68205 0.75034 0.75912
 H3237 H 0.58045 0.73300 0.78528
 H3238 H 0.64182 0.77855 0.82755
 H3239 H 0.60513 0.77282 0.84501
 H3240 H 0.66790 0.77082 0.79697
 H3241 H 0.60713 0.72516 0.75377
 H3242 H 0.63529 0.71549 0.72398
 H3243 H 0.67491 0.71547 0.71156
 H3244 H 0.69486 0.75923 0.76987
 C3245 C 0.59190 0.24081 0.70045
 C3246 C 0.61311 0.24285 0.71241
 C3247 C 0.62112 0.26454 0.72111
 C3248 C 0.60747 0.28376 0.71807
 C3249 C 0.58655 0.28167 0.70582
 C3250 C 0.57868 0.26028 0.69658
 C3251 C 0.64290 0.26678 0.73198
 C3252 C 0.65710 0.24774 0.73353
 C3253 C 0.64884 0.22607 0.72498
 C3254 C 0.62684 0.22367 0.71492
 C3255 C 0.66313 0.20731 0.72542
 C3256 C 0.68575 0.21011 0.73307
 C3257 C 0.69457 0.23145 0.74178
 C3258 C 0.67979 0.25020 0.74229
 H3259 H 0.58616 0.22427 0.69324
 H3260 H 0.61320 0.30052 0.72469
 H3261 H 0.57655 0.29689 0.70340
 H3262 H 0.64912 0.28350 0.73835
 H3263 H 0.62078 0.20704 0.70814
 H3264 H 0.65720 0.19068 0.71860
 H3265 H 0.69653 0.19555 0.73090
 H3266 H 0.68627 0.26697 0.74818
 C3267 C 0.08796 0.74940 0.20493
 C3268 C 0.10923 0.75293 0.21651
 C3269 C 0.11745 0.77564 0.22144
 C3270 C 0.10400 0.79434 0.21545
 C3271 C 0.08307 0.79070 0.20367
 C3272 C 0.07505 0.76829 0.19781
 C3273 C 0.13936 0.77938 0.23139
 C3274 C 0.15348 0.76075 0.23580
 C3275 C 0.14508 0.73804 0.23159
 C3276 C 0.12286 0.73421 0.22229
 C3277 C 0.15940 0.71959 0.23588
 C3278 C 0.18232 0.72367 0.24239
 C3279 C 0.19151 0.74624 0.24500
 C3280 C 0.17634 0.76463 0.24298
 H3281 H 0.08202 0.73205 0.20038
 H3282 H 0.10997 0.81184 0.21926
 H3283 H 0.07327 0.80550 0.19878
 H3284 H 0.14580 0.79684 0.23464
 H3285 H 0.11660 0.71677 0.21861
 H3286 H 0.15313 0.70199 0.23331
 H3287 H 0.19261 0.70896 0.24511
 H3288 H 0.18261 0.78226 0.24531
   
