data_POSCAR
  _audit_creation_date              2014-09-24
  _audit_creation_method            'ToBaCCo'
  _symmetry_space_group_name_H-M    'P1'
  _symmetry_Int_Tables_number       1
  _symmetry_cell_setting            triclinic
  loop_
  _symmetry_equiv_pos_as_xyz
 x,y,z
_cell_length_a 63.9478
_cell_length_b 63.7407
_cell_length_c 64.0854
_cell_angle_alpha 89.929500
_cell_angle_beta 89.790400
_cell_angle_gamma 90.063200
loop_
  _atom_site_label
  _atom_site_type_symbol
  _atom_site_fract_x
  _atom_site_fract_y
  _atom_site_fract_z
N1 N 0.35118 1.33650 0.29842
 N2 N 0.34607 1.35613 0.30189
 C3 C 0.35054 1.36754 0.28470
 C4 C 0.35850 1.35414 0.26946
 C5 C 0.35854 1.33452 0.27891
 H6 H 0.34797 1.38426 0.28344
 H7 H 0.36446 1.31997 0.27261
 Cu8 Cu 0.33435 1.36476 0.32883
 Cu9 Cu 0.35004 1.31572 0.32033
 Cu10 Cu 0.31954 1.32379 0.36179
 N11 N 0.31442 1.36801 0.35238
 N12 N 0.30752 1.35214 0.36374
 C13 C 0.29237 1.35897 0.37668
 C14 C 0.28977 1.38039 0.37361
 C15 C 0.30417 1.38550 0.35812
 H16 H 0.28425 1.34911 0.38780
 H17 H 0.30628 1.40059 0.35068
 N18 N 0.34150 1.30233 0.36207
 N19 N 0.35403 1.30007 0.34592
 C20 C 0.36934 1.28655 0.35073
 C21 C 0.36614 1.27967 0.37091
 C22 C 0.34822 1.28983 0.37769
 H23 H 0.38219 1.28245 0.34050
 H24 H 0.34144 1.28924 0.39317
 H25 H 0.31982 1.33636 0.33102
 H26 H 0.34271 1.34040 0.34848
 N27 N 0.38039 0.86854 0.82552
 N28 N 0.36423 0.88101 0.82305
 C29 C 0.36509 0.88961 0.80381
 C30 C 0.38260 0.88182 0.79373
 C31 C 0.39194 0.86855 0.80797
 H32 H 0.35307 0.89946 0.79713
 H33 H 0.40560 0.85887 0.80540
 Cu34 Cu 0.34209 0.88213 0.84398
 Cu35 Cu 0.38429 0.85199 0.85069
 Cu36 Cu 0.33783 0.83964 0.87546
 N37 N 0.31635 0.87568 0.85877
 N38 N 0.31435 0.85830 0.86968
 C39 C 0.29452 0.85675 0.87657
 C40 C 0.28358 0.87416 0.86978
 C41 C 0.29794 0.88594 0.85860
 H42 H 0.28855 0.84407 0.88612
 H43 H 0.29502 0.90045 0.85034
 N44 N 0.36391 0.82345 0.87957
 N45 N 0.38183 0.82911 0.87097
 C46 C 0.39704 0.81623 0.87761
 C47 C 0.38834 0.80159 0.89102
 C48 C 0.36726 0.80657 0.89184
 H49 H 0.41319 0.81718 0.87265
 H50 H 0.35540 0.79879 0.90111
 H51 H 0.35299 0.84585 0.84780
 H52 H 0.36021 0.86182 0.87109
 N53 N 0.87963 1.36056 0.82190
 N54 N 0.86851 1.37785 0.82088
 C55 C 0.87016 1.38590 0.80144
 C56 C 0.88250 1.37246 0.78954
 C57 C 0.88821 1.35663 0.80320
 H58 H 0.86197 1.39972 0.79608
 H59 H 0.89824 1.34337 0.80003
 Cu60 Cu 0.85072 1.38608 0.84427
 Cu61 Cu 0.88311 1.34450 0.84733
 Cu62 Cu 0.84786 1.35516 0.88682
 N63 N 0.82673 1.38712 0.86326
 N64 N 0.82588 1.37470 0.87965
 C65 C 0.80706 1.37641 0.88878
 C66 C 0.79535 1.39061 0.87761
 C67 C 0.80825 1.39722 0.86146
 H68 H 0.80177 1.36694 0.90180
 H69 H 0.80397 1.40723 0.84852
 N70 N 0.86688 1.33104 0.88741
 N71 N 0.88054 1.32703 0.87248
 C72 C 0.88924 1.30812 0.87602
 C73 C 0.88029 1.29972 0.89382
 C74 C 0.86623 1.31468 0.90066
 H75 H 0.89971 1.30016 0.86539
 H76 H 0.85526 1.31309 0.91344
 H77 H 0.85254 1.34981 0.85551
 H78 H 0.87277 1.36595 0.86887
 N79 N 0.86616 0.84892 0.30777
 N80 N 0.85011 0.86168 0.30625
 C81 C 0.84941 0.86974 0.28694
 C82 C 0.86643 0.86230 0.27578
 C83 C 0.87702 0.84937 0.28966
 H84 H 0.83778 0.88085 0.28171
 H85 H 0.89067 0.83990 0.28639
 Cu86 Cu 0.83236 0.86805 0.32989
 Cu87 Cu 0.86895 0.83066 0.33226
 Cu88 Cu 0.82223 0.82725 0.36038
 N89 N 0.81395 0.87076 0.35377
 N90 N 0.80917 0.85440 0.36532
 C91 C 0.79471 0.86004 0.37957
 C92 C 0.79055 0.88121 0.37699
 C93 C 0.80307 0.88749 0.36046
 H94 H 0.78784 0.84954 0.39097
 H95 H 0.80361 0.90286 0.35332
 N96 N 0.84372 0.80525 0.36054
 N97 N 0.86203 0.80696 0.35107
 C98 C 0.87333 0.78955 0.35504
 C99 C 0.86136 0.77626 0.36737
 C100 C 0.84277 0.78679 0.37057
 H101 H 0.88875 0.78645 0.34878
 H102 H 0.82959 0.78153 0.37982
 H103 H 0.83733 0.83024 0.33147
 H104 H 0.84858 0.84385 0.35460
 N105 N 0.62607 0.63446 0.32332
 N106 N 0.64372 0.62459 0.31949
 C107 C 0.64266 0.61560 0.30048
 C108 C 0.62335 0.62031 0.29200
 C109 C 0.61327 0.63229 0.30688
 H110 H 0.65549 0.60768 0.29278
 H111 H 0.59822 0.63986 0.30536
 Cu112 Cu 0.66725 0.62697 0.33862
 Cu113 Cu 0.62196 0.65140 0.34830
 Cu114 Cu 0.66859 0.67252 0.36517
 N115 N 0.69181 0.63538 0.35436
 N116 N 0.69239 0.65353 0.36407
 C117 C 0.71130 0.65608 0.37276
 C118 C 0.72321 0.63848 0.36852
 C119 C 0.71030 0.62558 0.35683
 H120 H 0.71583 0.66956 0.38193
 H121 H 0.71418 0.61042 0.35035
 N122 N 0.64109 0.68472 0.37218
 N123 N 0.62329 0.67597 0.36657
 C124 C 0.60731 0.68723 0.37434
 C125 C 0.61540 0.70401 0.38542
 C126 C 0.63692 0.70190 0.38369
 H127 H 0.59101 0.68373 0.37156
 H128 H 0.64868 0.71191 0.39054
 H129 H 0.65081 0.66147 0.34051
 H130 H 0.64964 0.64712 0.36592
 N131 N 0.62371 0.13773 0.82096
 N132 N 0.64008 0.12639 0.81586
 C133 C 0.63537 0.11447 0.79917
 C134 C 0.61462 0.11813 0.79385
 C135 C 0.60778 0.13295 0.80821
 H136 H 0.64599 0.10338 0.79204
 H137 H 0.59262 0.14041 0.80897
 Cu138 Cu 0.66510 0.12710 0.83300
 Cu139 Cu 0.62448 0.15850 0.84320
 Cu140 Cu 0.67303 0.16772 0.86524
 N141 N 0.68514 0.12552 0.85575
 N142 N 0.68882 0.14173 0.86787
 C143 C 0.70366 0.13659 0.88181
 C144 C 0.70926 0.11590 0.87849
 C145 C 0.69720 0.10937 0.86181
 H146 H 0.70941 0.14693 0.89387
 H147 H 0.69726 0.09406 0.85453
 N148 N 0.64969 0.18756 0.86776
 N149 N 0.63117 0.18393 0.85945
 C150 C 0.61916 0.20106 0.86193
 C151 C 0.63052 0.21593 0.87270
 C152 C 0.64982 0.20692 0.87617
 H153 H 0.60373 0.20306 0.85537
 H154 H 0.66334 0.21439 0.88301
 H155 H 0.65542 0.16385 0.83754
 H156 H 0.64928 0.14764 0.86106
 N157 N 1.12751 0.64163 0.81978
 N158 N 1.14470 0.63039 0.81913
 C159 C 1.14575 0.62010 0.80091
 C160 C 1.12818 0.62499 0.78945
 C161 C 1.11677 0.63858 0.80194
 H162 H 1.15871 0.61034 0.79605
 H163 H 1.10248 0.64661 0.79781
 Cu164 Cu 1.16529 0.63186 0.84090
 Cu165 Cu 1.12230 0.66135 0.84258
 Cu166 Cu 1.16169 0.66596 0.88008
 N167 N 1.18950 0.63950 0.85697
 N168 N 1.18819 0.65225 0.87303
 C169 C 1.20714 0.65351 0.88217
 C170 C 1.22098 0.64130 0.87073
 C171 C 1.20924 0.63272 0.85489
 H172 H 1.21062 0.66270 0.89591
 H173 H 1.21454 0.62182 0.84309
 N174 N 1.13566 0.68278 0.88058
 N175 N 1.12045 0.68036 0.86686
 C176 C 1.10492 0.69383 0.87144
 C177 C 1.11072 0.70552 0.88860
 C178 C 1.13034 0.69822 0.89395
 H179 H 1.09076 0.69566 0.86248
 H180 H 1.14003 0.70382 0.90657
 H181 H 1.15365 0.66698 0.84918
 H182 H 1.13977 0.64704 0.86529
 N183 N 1.12940 0.14556 0.31602
 N184 N 1.14178 0.12911 0.31633
 C185 C 1.14015 0.11883 0.29802
 C186 C 1.12619 0.12968 0.28556
 C187 C 1.11959 0.14643 0.29756
 H188 H 1.14934 0.10528 0.29365
 H189 H 1.10904 0.15884 0.29291
 Cu190 Cu 1.16023 0.12416 0.33994
 Cu191 Cu 1.12866 0.16585 0.33869
 Cu192 Cu 1.17640 0.16824 0.36368
 N193 N 1.18235 0.12368 0.36065
 N194 N 1.18903 0.14102 0.36951
 C195 C 1.20515 0.13643 0.38217
 C196 C 1.20856 0.11499 0.38142
 C197 C 1.19377 0.10742 0.36758
 H198 H 1.21359 0.14784 0.39136
 H199 H 1.19183 0.09137 0.36248
 N200 N 1.15630 0.19178 0.36321
 N201 N 1.13751 0.19026 0.35490
 C202 C 1.12719 0.20842 0.35767
 C203 C 1.14021 0.22219 0.36805
 C204 C 1.15853 0.21110 0.37136
 H205 H 1.11172 0.21166 0.35171
 H206 H 1.17240 0.21663 0.37925
 H207 H 1.15994 0.16228 0.33654
 H208 H 1.14866 0.15329 0.36192
 N209 N 0.62251 1.36640 0.67954
 N210 N 0.63431 1.38274 0.67515
 C211 C 0.62973 1.39845 0.68832
 C212 C 0.61422 1.39177 0.70182
 C213 C 0.60999 1.37124 0.69588
 H214 H 0.63757 1.41349 0.68853
 H215 H 0.59866 1.36070 0.70282
 Cu216 Cu 0.65563 1.38149 0.65364
 Cu217 Cu 0.62437 1.34061 0.66274
 Cu218 Cu 0.67193 1.33544 0.63630
 N219 N 0.67641 1.37993 0.63156
 N220 N 0.68348 1.36163 0.62531
 C221 C 0.69951 1.36467 0.61194
 C222 C 0.70245 1.38609 0.60947
 C223 C 0.68745 1.39525 0.62216
 H224 H 0.70853 1.35220 0.60487
 H225 H 0.68548 1.41181 0.62518
 N226 N 0.65228 1.31198 0.64083
 N227 N 0.63372 1.31395 0.64977
 C228 C 0.62334 1.29557 0.64802
 C229 C 0.63613 1.28139 0.63767
 C230 C 0.65429 1.29238 0.63344
 H231 H 0.60763 1.29275 0.65367
 H232 H 0.66760 1.28683 0.62457
 H233 H 0.65550 1.34443 0.66328
 H234 H 0.64331 1.34951 0.63739
 N235 N 0.62181 0.86909 1.17506
 N236 N 0.63954 0.87914 1.17792
 C237 C 0.63956 0.88758 1.19721
 C238 C 0.62089 0.88233 1.20686
 C239 C 0.61004 0.87063 1.19239
 H240 H 0.65280 0.89539 1.20426
 H241 H 0.59528 0.86265 1.19479
 Cu242 Cu 0.66191 0.87743 1.15728
 Cu243 Cu 0.61662 0.85232 1.15025
 Cu244 Cu 0.66251 0.83209 1.13024
 N245 N 0.68591 0.86935 1.14048
 N246 N 0.68631 0.85132 1.13053
 C247 C 0.70525 0.84878 1.12171
 C248 C 0.71732 0.86626 1.12618
 C249 C 0.70448 0.87906 1.13806
 H250 H 0.70987 0.83520 1.11271
 H251 H 0.70862 0.89390 1.14511
 N252 N 0.63476 0.81923 1.12519
 N253 N 0.61725 0.82776 1.13202
 C254 C 0.60097 0.81589 1.12609
 C255 C 0.60847 0.79885 1.11499
 C256 C 0.63003 0.80152 1.11470
 H257 H 0.58492 0.81900 1.13046
 H258 H 0.64143 0.79132 1.10746
 H259 H 0.64615 0.84262 1.15604
 H260 H 0.64326 0.85708 1.13087
 N261 N 1.12880 1.36444 1.18213
 N262 N 1.14583 1.37603 1.18274
 C263 C 1.14713 1.38528 1.20162
 C264 C 1.13010 1.37888 1.21339
 C265 C 1.11884 1.36568 1.20058
 H266 H 1.15995 1.39505 1.20678
 H267 H 1.10468 1.35724 1.20455
 Cu268 Cu 1.16531 1.37619 1.15930
 Cu269 Cu 1.12076 1.34839 1.15758
 Cu270 Cu 1.16143 1.33820 1.12347
 N271 N 1.18205 1.37686 1.13384
 N272 N 1.17997 1.36210 1.11967
 C273 C 1.19305 1.36598 1.10368
 C274 C 1.20405 1.38408 1.10807
 C275 C 1.19682 1.39056 1.12741
 H276 H 1.19478 1.35606 1.09010
 H277 H 1.20185 1.40422 1.13604
 N278 N 1.13557 1.32162 1.12402
 N279 N 1.11955 1.32631 1.13616
 C280 C 1.10370 1.31309 1.13199
 C281 C 1.11013 1.29933 1.11655
 C282 C 1.13046 1.30516 1.11192
 H283 H 1.08875 1.31317 1.13994
 H284 H 1.14058 1.29833 1.10021
 H285 H 1.15127 1.34078 1.15464
 H286 H 1.14135 1.35969 1.13475
 N287 N 1.12284 0.86684 0.68074
 N288 N 1.13513 0.88277 0.67633
 C289 C 1.12973 0.89925 0.68824
 C290 C 1.11331 0.89321 0.70105
 C291 C 1.10941 0.87247 0.69596
 H292 H 1.13769 0.91423 0.68821
 H293 H 1.09766 0.86227 0.70271
 Cu294 Cu 1.15825 0.87974 0.65696
 Cu295 Cu 1.12561 0.84008 0.66646
 Cu296 Cu 1.15985 0.83892 0.62410
 N297 N 1.18381 0.87195 0.64262
 N298 N 1.18439 0.85668 0.62885
 C299 C 1.20379 0.85569 0.62053
 C300 C 1.21598 0.87085 0.63009
 C301 C 1.20281 0.88081 0.64401
 H302 H 1.20879 0.84442 0.60894
 H303 H 1.20671 0.89372 0.65422
 N304 N 1.13784 0.81761 0.62861
 N305 N 1.12498 0.81822 0.64478
 C306 C 1.11069 0.80290 0.64285
 C307 C 1.11486 0.79189 0.62479
 C308 C 1.13231 0.80148 0.61617
 H309 H 1.09777 0.80032 0.65349
 H310 H 1.13975 0.79765 0.60148
 H311 H 1.15622 0.84159 0.65495
 H312 H 1.13527 0.85475 0.63955
 N313 N 0.37551 0.64060 0.68293
 N314 N 0.36086 0.62634 0.68532
 C315 C 0.36730 0.61198 0.69935
 C316 C 0.38722 0.61750 0.70578
 C317 C 0.39191 0.63569 0.69501
 H318 H 0.35821 0.59862 0.70451
 H319 H 0.40579 0.64524 0.69671
 Cu320 Cu 0.33505 0.62802 0.66957
 Cu321 Cu 0.37121 0.66596 0.66674
 Cu322 Cu 0.32534 0.66941 0.63831
 N323 N 0.31486 0.62655 0.64705
 N324 N 0.31059 0.64284 0.63521
 C325 C 0.29538 0.63759 0.62169
 C326 C 0.29019 0.61676 0.62502
 C327 C 0.30288 0.61026 0.64120
 H328 H 0.28884 0.64804 0.61011
 H329 H 0.30310 0.59494 0.64847
 N330 N 0.34657 0.69191 0.63867
 N331 N 0.36389 0.69048 0.64975
 C332 C 0.37445 0.70864 0.64835
 C333 C 0.36352 0.72200 0.63552
 C334 C 0.34595 0.71096 0.62946
 H335 H 0.38884 0.71219 0.65642
 H336 H 0.33331 0.71669 0.61986
 H337 H 0.33907 0.66632 0.66759
 H338 H 0.35122 0.65226 0.64511
 N339 N 0.37549 0.14091 1.18177
 N340 N 0.36241 0.12511 1.17970
 C341 C 0.36249 0.11353 1.19722
 C342 C 0.37658 0.12234 1.21097
 C343 C 0.38473 0.13962 1.20063
 H344 H 0.35244 0.10016 1.20007
 H345 H 0.39530 0.15124 1.20695
 Cu346 Cu 0.34523 0.12174 1.15502
 Cu347 Cu 0.37655 0.16340 1.16088
 Cu348 Cu 0.32884 0.16713 1.13532
 N349 N 0.32323 0.12257 1.13430
 N350 N 0.31637 0.14055 1.12701
 C351 C 0.30012 0.13696 1.11421
 C352 C 0.29681 0.11550 1.11319
 C353 C 0.31182 0.10687 1.12617
 H354 H 0.29143 0.14909 1.10622
 H355 H 0.31383 0.09047 1.13003
 N356 N 0.34888 0.19055 1.13746
 N357 N 0.36758 0.18889 1.14597
 C358 C 0.37805 0.20704 1.14313
 C359 C 0.36517 0.22081 1.13245
 C360 C 0.34686 0.20978 1.12913
 H361 H 0.39377 0.21004 1.14856
 H362 H 0.33336 0.21506 1.12049
 H363 H 0.34548 0.15936 1.16198
 H364 H 0.35726 0.15280 1.13616
 N365 N 0.86962 0.64746 1.19333
 N366 N 0.85720 0.63113 1.19132
 C367 C 0.86467 0.61524 1.20307
 C368 C 0.88292 0.62206 1.21250
 C369 C 0.88553 0.64252 1.20600
 H370 H 0.85744 0.59997 1.20467
 H371 H 0.89774 0.65326 1.21070
 Cu372 Cu 0.83237 0.63309 1.17377
 Cu373 Cu 0.86334 0.67458 1.18107
 Cu374 Cu 0.83240 0.67109 1.13723
 N375 N 0.80962 0.63562 1.15377
 N376 N 0.80957 0.65092 1.13996
 C377 C 0.79147 0.65052 1.12940
 C378 C 0.77952 0.63408 1.13691
 C379 C 0.79153 0.62481 1.15229
 H380 H 0.78704 0.66179 1.11759
 H381 H 0.78691 0.61203 1.16242
 N382 N 0.85086 0.69523 1.14275
 N383 N 0.86152 0.69700 1.16025
 C384 C 0.87123 0.71568 1.16058
 C385 C 0.86660 0.72623 1.14234
 C386 C 0.85372 0.71278 1.13128
 H387 H 0.88128 0.72103 1.17303
 H388 H 0.84646 0.71581 1.11637
 H389 H 0.83312 0.67109 1.16870
 H390 H 0.85563 0.65762 1.15582
 N391 N 0.87293 0.14249 0.68311
 N392 N 0.85795 0.12834 0.68296
 C393 C 0.85590 0.12002 0.70211
 C394 C 0.87061 0.12916 0.71496
 C395 C 0.88134 0.14326 0.70238
 H396 H 0.84471 0.10799 0.70634
 H397 H 0.89384 0.15368 0.70702
 Cu398 Cu 0.84298 0.12115 0.65767
 Cu399 Cu 0.87922 0.15918 0.65819
 Cu400 Cu 0.83696 0.16066 0.62413
 N401 N 0.82355 0.11915 0.63461
 N402 N 0.82050 0.13511 0.62200
 C403 C 0.80509 0.13034 0.60856
 C404 C 0.79843 0.11011 0.61275
 C405 C 0.81052 0.10346 0.62937
 H406 H 0.79936 0.14072 0.59650
 H407 H 0.80941 0.08861 0.63748
 N408 N 0.86048 0.18057 0.62288
 N409 N 0.87661 0.18020 0.63570
 C410 C 0.89040 0.19511 0.62977
 C411 C 0.88268 0.20489 0.61211
 C412 C 0.86377 0.19529 0.60821
 H413 H 0.90533 0.19797 0.63713
 H414 H 0.85342 0.19841 0.59527
 H415 H 0.84820 0.15894 0.65472
 H416 H 0.86254 0.14403 0.63412
 N417 N 1.35583 0.36815 0.68487
 N418 N 1.36990 0.35322 0.68678
 C419 C 1.38184 0.35720 0.70361
 C420 C 1.37463 0.37544 0.71282
 C421 C 1.35827 0.38203 0.70042
 H422 H 1.39326 0.34646 0.70997
 H423 H 1.34767 0.39485 0.70364
 Cu424 Cu 1.36835 0.32789 0.66986
 Cu425 Cu 1.33241 0.36596 0.66547
 Cu426 Cu 1.31864 0.31395 0.66112
 N427 N 1.36142 0.30020 0.65923
 N428 N 1.34177 0.29466 0.65700
 C429 C 1.34082 0.27470 0.65053
 C430 C 1.36105 0.26723 0.64799
 C431 C 1.37377 0.28399 0.65374
 H432 H 1.32633 0.26678 0.64694
 H433 H 1.39067 0.28443 0.65409
 N434 N 1.29908 0.33719 0.65580
 N435 N 1.30457 0.35712 0.65629
 C436 C 1.28833 0.36896 0.65003
 C437 C 1.27174 0.35575 0.64529
 C438 C 1.27924 0.33573 0.64917
 H439 H 1.28872 0.38589 0.64894
 H440 H 1.27126 0.32103 0.64654
 H441 H 1.33225 0.33722 0.67859
 H442 H 1.33727 0.33686 0.64991
 N443 N 1.35370 0.86579 1.19109
 N444 N 1.36305 0.84749 1.19230
 C445 C 1.37200 0.84545 1.21106
 C446 C 1.36850 0.86367 1.22234
 C447 C 1.35705 0.87643 1.20896
 H448 H 1.38077 0.83179 1.21583
 H449 H 1.35064 0.89176 1.21233
 Cu450 Cu 1.36318 0.82771 1.16940
 Cu451 Cu 1.33626 0.87268 1.16694
 Cu452 Cu 1.31817 0.82687 1.14364
 N453 N 1.35617 0.80447 1.15139
 N454 N 1.33777 0.80356 1.14244
 C455 C 1.33562 0.78482 1.13310
 C456 C 1.35393 0.77345 1.13598
 C457 C 1.36671 0.78663 1.14758
 H458 H 1.32186 0.78015 1.12452
 H459 H 1.38201 0.78314 1.15380
 N460 N 1.30518 0.85459 1.13934
 N461 N 1.31208 0.87214 1.14788
 C462 C 1.30091 0.88840 1.14035
 C463 C 1.28654 0.88057 1.12629
 C464 C 1.28975 0.85922 1.12592
 H465 H 1.30373 0.90472 1.14401
 H466 H 1.28205 0.84801 1.11588
 H467 H 1.32806 0.84263 1.17015
 H468 H 1.34215 0.84825 1.14522
 N469 N 0.85718 0.37403 1.18730
 N470 N 0.87122 0.35901 1.18655
 C471 C 0.88116 0.35783 1.20488
 C472 C 0.87346 0.37340 1.21784
 C473 C 0.85849 0.38374 1.20598
 H474 H 0.89345 0.34671 1.20827
 H475 H 0.84820 0.39620 1.21110
 Cu476 Cu 0.87603 0.34271 1.16157
 Cu477 Cu 0.83639 0.37657 1.16493
 Cu478 Cu 0.83227 0.32938 1.13751
 N479 N 0.87625 0.32171 1.13990
 N480 N 0.85885 0.31587 1.13076
 C481 C 0.86303 0.29981 1.11774
 C482 C 0.88431 0.29570 1.11857
 C483 C 0.89216 0.30995 1.13282
 H484 H 0.85146 0.29174 1.10844
 H485 H 0.90809 0.31111 1.13830
 N486 N 0.80963 0.35034 1.13919
 N487 N 0.81147 0.36874 1.14848
 C488 C 0.79351 0.37954 1.14601
 C489 C 0.77970 0.36716 1.13483
 C490 C 0.79051 0.34886 1.13073
 H491 H 0.79047 0.39491 1.15248
 H492 H 0.78494 0.33553 1.12193
 H493 H 0.83825 0.34511 1.16526
 H494 H 0.84770 0.35720 1.14049
 N495 N 0.86533 0.88421 0.67444
 N496 N 0.88113 0.87110 0.67573
 C497 C 0.88988 0.87277 0.69477
 C498 C 0.87874 0.88758 0.70601
 C499 C 0.86336 0.89457 0.69259
 H500 H 0.90253 0.86308 0.70042
 H501 H 0.85121 0.90587 0.69598
 Cu502 Cu 0.88689 0.85147 0.65326
 Cu503 Cu 0.84772 0.88601 0.64979
 Cu504 Cu 0.84919 0.84185 0.61821
 N505 N 0.88744 0.82656 0.63586
 N506 N 0.87306 0.82326 0.62163
 C507 C 0.87591 0.80412 0.61323
 C508 C 0.89270 0.79478 0.62304
 C509 C 0.89966 0.80945 0.63733
 H510 H 0.86538 0.79674 0.60230
 H511 H 0.91184 0.80733 0.64881
 N512 N 0.82648 0.86268 0.61725
 N513 N 0.82622 0.87983 0.62877
 C514 C 0.80781 0.88973 0.62610
 C515 C 0.79580 0.87801 0.61252
 C516 C 0.80816 0.86108 0.60714
 H517 H 0.80279 0.90335 0.63481
 H518 H 0.80364 0.84798 0.59745
 H519 H 0.84950 0.85408 0.64813
 H520 H 0.86405 0.86860 0.62742
 N521 N 0.63248 0.62176 0.68054
 N522 N 0.62175 0.63912 0.68336
 C523 C 0.60697 0.63562 0.69808
 C524 C 0.60843 0.61488 0.70444
 C525 C 0.62474 0.60662 0.69293
 H526 H 0.59621 0.64729 0.70398
 H527 H 0.63126 0.59104 0.69434
 Cu528 Cu 0.62910 0.66456 0.66793
 Cu529 Cu 0.65758 0.62059 0.66349
 Cu530 Cu 0.66689 0.66298 0.63118
 N531 N 0.63616 0.68917 0.65114
 N532 N 0.65175 0.68865 0.63770
 C533 C 0.65367 0.70753 0.62853
 C534 C 0.63827 0.72054 0.63637
 C535 C 0.62734 0.70839 0.65062
 H536 H 0.66491 0.71132 0.61645
 H537 H 0.61403 0.71324 0.65988
 N538 N 0.68347 0.63694 0.62979
 N539 N 0.67931 0.62058 0.64174
 C540 C 0.69226 0.60480 0.63660
 C541 C 0.70542 0.61157 0.62082
 C542 C 0.69953 0.63210 0.61695
 H543 H 0.69228 0.58951 0.64392
 H544 H 0.70614 0.64251 0.60534
 H545 H 0.66472 0.65254 0.66100
 H546 H 0.64529 0.64116 0.64249
 N547 N 0.62863 1.11809 1.17101
 N548 N 0.62201 1.13591 1.17886
 C549 C 0.61127 1.13200 1.19660
 C550 C 0.61084 1.11038 1.19984
 C551 C 0.62197 1.10218 1.18306
 H552 H 0.60395 1.14397 1.20605
 H553 H 0.62574 1.08595 1.18005
 Cu554 Cu 0.62717 1.16199 1.16389
 Cu555 Cu 0.64600 1.11681 1.14606
 Cu556 Cu 0.66605 1.16423 1.12857
 N557 N 0.62830 1.18400 1.14282
 N558 N 0.64388 1.18553 1.12943
 C559 C 0.64003 1.20158 1.11622
 C560 C 0.62081 1.21017 1.12142
 C561 C 0.61387 1.19863 1.13838
 H562 H 0.64971 1.20567 1.10294
 H563 H 0.59906 1.20025 1.14642
 N564 N 0.67936 1.13704 1.12209
 N565 N 0.67086 1.11907 1.12791
 C566 C 0.68317 1.10323 1.12161
 C567 C 0.70038 1.11145 1.11129
 C568 C 0.69743 1.13305 1.11189
 H569 H 0.68031 1.08694 1.12535
 H570 H 0.70772 1.14498 1.10562
 H571 H 0.65972 1.14442 1.15450
 H572 H 0.64113 1.14572 1.13221
 N573 N 0.13920 0.63408 1.18662
 N574 N 0.13071 0.65282 1.18750
 C575 C 0.12181 0.65558 1.20628
 C576 C 0.12451 0.63744 1.21795
 C577 C 0.13540 0.62395 1.20475
 H578 H 0.11380 0.66978 1.21084
 H579 H 0.14123 0.60846 1.20841
 Cu580 Cu 0.13201 0.67225 1.16424
 Cu581 Cu 0.15648 0.62597 1.16263
 Cu582 Cu 0.17770 0.67044 1.13919
 N583 N 0.14021 0.69435 1.14520
 N584 N 0.15874 0.69417 1.13634
 C585 C 0.16152 0.71217 1.12574
 C586 C 0.14349 0.72420 1.12768
 C587 C 0.13024 0.71220 1.14012
 H588 H 0.17550 0.71584 1.11693
 H589 H 0.11491 0.71644 1.14588
 N590 N 0.18982 0.64213 1.13618
 N591 N 0.18126 0.62508 1.14425
 C592 C 0.19223 0.60821 1.13794
 C593 C 0.20851 0.61499 1.12523
 C594 C 0.20646 0.63659 1.12454
 H595 H 0.18862 0.59223 1.14235
 H596 H 0.21588 0.64745 1.11556
 H597 H 0.16633 0.65558 1.16571
 H598 H 0.15262 0.65055 1.14057
 N599 N 0.14048 1.13060 0.68210
 N600 N 0.12670 1.14568 0.67973
 C601 C 0.11641 1.14872 0.69773
 C602 C 0.12353 1.13429 0.71222
 C603 C 0.13867 1.12275 0.70162
 H604 H 0.10395 1.16002 0.69972
 H605 H 0.14834 1.11034 0.70788
 Cu606 Cu 0.12182 1.15879 0.65295
 Cu607 Cu 0.16046 1.12434 0.65961
 Cu608 Cu 0.16507 1.16695 0.62541
 N609 N 0.12186 1.17751 0.62924
 N610 N 0.13929 1.18229 0.61944
 C611 C 0.13545 1.19795 0.60579
 C612 C 0.11420 1.20263 0.60662
 C613 C 0.10616 1.18915 0.62166
 H614 H 0.14713 1.20496 0.59571
 H615 H 0.09036 1.18876 0.62771
 N616 N 0.18580 1.14395 0.62717
 N617 N 0.18419 1.12778 0.64003
 C618 C 0.19973 1.11409 0.63586
 C619 C 0.21134 1.12187 0.61932
 C620 C 0.20205 1.14072 0.61419
 H621 H 0.20155 1.09895 0.64326
 H622 H 0.20616 1.15079 0.60121
 H623 H 0.15971 1.15538 0.65540
 H624 H 0.14855 1.14030 0.63315
 N625 N 1.35902 0.61840 0.32539
 N626 N 1.37503 0.63121 0.32343
 C627 C 1.38383 0.62850 0.30447
 C628 C 1.37245 0.61337 0.29396
 C629 C 1.35689 0.60730 0.30772
 H630 H 1.39667 0.63771 0.29833
 H631 H 1.34461 0.59600 0.30488
 Cu632 Cu 1.38080 0.65200 0.34474
 Cu633 Cu 1.34121 0.61791 0.35004
 Cu634 Cu 1.35394 0.65286 0.38963
 N635 N 1.38023 0.67680 0.36240
 N636 N 1.37100 0.67656 0.38074
 C637 C 1.37371 0.69528 0.39006
 C638 C 1.38459 0.70832 0.37645
 C639 C 1.38847 0.69592 0.35903
 H640 H 1.36699 0.69944 0.40501
 H641 H 1.39685 0.70027 0.34499
 N642 N 1.33014 0.63321 0.39129
 N643 N 1.32534 0.61985 0.37632
 C644 C 1.30675 0.61094 0.38076
 C645 C 1.29929 0.61943 0.39912
 C646 C 1.31453 0.63344 0.40542
 H647 H 1.29822 0.60070 0.37037
 H648 H 1.31355 0.64422 0.41840
 H649 H 1.34591 0.64882 0.35902
 H650 H 1.36354 0.62839 0.37004
 N651 N 1.35784 1.12955 0.80920
 N652 N 1.37104 1.14535 0.80860
 C653 C 1.38736 1.14029 0.79634
 C654 C 1.38399 1.12040 0.78850
 C655 C 1.36500 1.11406 0.79680
 H656 H 1.40031 1.15061 0.79270
 H657 H 1.35711 1.09927 0.79420
 Cu658 Cu 1.36450 1.17188 0.82181
 Cu659 Cu 1.33267 1.13071 0.82636
 Cu660 Cu 1.33413 1.16967 0.86448
 N661 N 1.36031 1.19615 0.83940
 N662 N 1.34914 1.19521 0.85663
 C663 C 1.35067 1.21369 0.86673
 C664 C 1.36316 1.22695 0.85487
 C665 C 1.36894 1.21528 0.83766
 H666 H 1.34334 1.21718 0.88156
 H667 H 1.37946 1.22007 0.82529
 N668 N 1.31479 1.14546 0.86563
 N669 N 1.31453 1.13068 0.85121
 C670 C 1.30060 1.11586 0.85671
 C671 C 1.29135 1.12174 0.87529
 C672 C 1.30054 1.14067 0.88047
 H673 H 1.29746 1.10176 0.84789
 H674 H 1.29747 1.14993 0.89427
 H675 H 1.32932 1.16276 0.83396
 H676 H 1.35016 1.14707 0.84697
 N677 N 0.85259 0.63307 0.81749
 N678 N 0.86823 0.64634 0.81532
 C679 C 0.87802 0.64251 0.79704
 C680 C 0.86772 0.62616 0.78725
 C681 C 0.85176 0.62052 0.80071
 H682 H 0.89101 0.65150 0.79088
 H683 H 0.84013 0.60843 0.79832
 Cu684 Cu 0.87298 0.66819 0.83601
 Cu685 Cu 0.83393 0.63319 0.84151
 Cu686 Cu 0.83434 0.67938 0.86949
 N687 N 0.87740 0.68738 0.85927
 N688 N 0.86227 0.69094 0.87277
 C689 C 0.86904 0.70434 0.88741
 C690 C 0.88944 0.70965 0.88276
 C691 C 0.89431 0.69878 0.86471
 H692 H 0.85965 0.71023 0.90019
 H693 H 0.90902 0.69907 0.85632
 N694 N 0.81096 0.65949 0.87044
 N695 N 0.81126 0.64128 0.86071
 C696 C 0.79327 0.63101 0.86474
 C697 C 0.78100 0.64352 0.87750
 C698 C 0.79277 0.66143 0.88082
 H699 H 0.78906 0.61597 0.85818
 H700 H 0.78849 0.67485 0.89021
 H701 H 0.83512 0.66489 0.84004
 H702 H 0.84971 0.65294 0.86226
 N703 N 0.85779 1.13516 0.30972
 N704 N 0.87178 1.15020 0.31103
 C705 C 0.88771 1.14597 0.29793
 C706 C 0.88323 1.12745 0.28764
 C707 C 0.86404 1.12108 0.29537
 H708 H 0.90155 1.15559 0.29611
 H709 H 0.85569 1.10685 0.29151
 Cu710 Cu 0.86807 1.17358 0.33005
 Cu711 Cu 0.83336 1.13419 0.32779
 Cu712 Cu 0.83365 1.16916 0.36935
 N713 N 0.87002 1.19119 0.35460
 N714 N 0.85721 1.18856 0.37049
 C715 C 0.86299 1.20142 0.38607
 C716 C 0.88024 1.21281 0.37950
 C717 C 0.88423 1.20600 0.35940
 H718 H 0.85515 1.20250 0.40101
 H719 H 0.89697 1.21088 0.34935
 N720 N 0.81376 1.14555 0.36736
 N721 N 0.81407 1.13210 0.35170
 C722 C 0.80011 1.11677 0.35549
 C723 C 0.79031 1.12091 0.37426
 C724 C 0.79920 1.13933 0.38135
 H725 H 0.79746 1.10338 0.34550
 H726 H 0.79594 1.14705 0.39601
 H727 H 0.83114 1.16501 0.33772
 H728 H 0.85018 1.14790 0.35151
 N729 N 0.65543 0.35378 0.29923
 N730 N 0.65423 0.33395 0.29390
 C731 C 0.64634 0.33249 0.27458
 C732 C 0.64198 0.35258 0.26734
 C733 C 0.64800 0.36573 0.28359
 H734 H 0.64370 0.31772 0.26676
 H735 H 0.64757 0.38268 0.28396
 Cu736 Cu 0.66296 0.31147 0.31244
 Cu737 Cu 0.66824 0.36168 0.32545
 Cu738 Cu 0.67262 0.32580 0.36355
 N739 N 0.66208 0.29159 0.33605
 N740 N 0.66404 0.29720 0.35575
 C741 C 0.65890 0.28081 0.36806
 C742 C 0.65349 0.26394 0.35539
 C743 C 0.65595 0.27148 0.33520
 H744 H 0.65879 0.28138 0.38492
 H745 H 0.65192 0.26363 0.32084
 N746 N 0.69026 0.35104 0.36295
 N747 N 0.68850 0.36480 0.34773
 C748 C 0.70433 0.37859 0.34880
 C749 C 0.71682 0.37323 0.36552
 C750 C 0.70730 0.35581 0.37438
 H751 H 0.70734 0.39070 0.33734
 H752 H 0.71342 0.34617 0.38685
 H753 H 0.68164 0.32661 0.33358
 H754 H 0.65277 0.32879 0.33701
 N755 N 0.64713 0.87472 0.81801
 N756 N 0.63210 0.86062 0.81876
 C757 C 0.62198 0.86037 0.80044
 C758 C 0.63095 0.87523 0.78752
 C759 C 0.64683 0.88419 0.79915
 H760 H 0.60945 0.84969 0.79652
 H761 H 0.65803 0.89580 0.79389
 Cu762 Cu 0.62786 0.84237 0.84262
 Cu763 Cu 0.66737 0.87749 0.84067
 Cu764 Cu 0.65506 0.85064 0.88609
 N765 N 0.62997 0.82086 0.86404
 N766 N 0.64127 0.82398 0.88084
 C767 C 0.64125 0.80642 0.89249
 C768 C 0.62913 0.79157 0.88251
 C769 C 0.62209 0.80124 0.86454
 H770 H 0.64960 0.80454 0.90703
 H771 H 0.61270 0.79427 0.85237
 N772 N 0.67629 0.87277 0.88489
 N773 N 0.68195 0.88235 0.86749
 C774 C 0.69845 0.89489 0.87163
 C775 C 0.70318 0.89313 0.89268
 C776 C 0.68872 0.87903 0.90052
 H777 H 0.70653 0.90443 0.86019
 H778 H 0.68801 0.87286 0.91623
 H779 H 0.66306 0.84880 0.85553
 H780 H 0.64492 0.87079 0.86193
 N781 N 0.13394 0.38383 0.82530
 N782 N 0.11764 0.37177 0.82895
 C783 C 0.10555 0.37111 0.81188
 C784 C 0.11461 0.38357 0.79671
 C785 C 0.13254 0.39161 0.80576
 H786 H 0.09185 0.36128 0.81021
 H787 H 0.14457 0.40078 0.79810
 Cu788 Cu 0.11483 0.35575 0.85454
 Cu789 Cu 0.15725 0.38471 0.84503
 Cu790 Cu 0.16041 0.33715 0.87156
 N791 N 0.11584 0.33323 0.87468
 N792 N 0.13369 0.32492 0.88045
 C793 C 0.12976 0.30754 0.89183
 C794 C 0.10817 0.30503 0.89353
 C795 C 0.09996 0.32189 0.88253
 H796 H 0.14177 0.29747 0.89816
 H797 H 0.08373 0.32494 0.87904
 N798 N 0.18445 0.35654 0.86785
 N799 N 0.18290 0.37516 0.85889
 C800 C 0.20149 0.38503 0.85991
 C801 C 0.21553 0.37189 0.86978
 C802 C 0.20420 0.35399 0.87460
 H803 H 0.20470 0.40038 0.85342
 H804 H 0.20982 0.34031 0.88282
 H805 H 0.15175 0.35365 0.84523
 H806 H 0.14744 0.36633 0.87108
 N807 N 0.15010 0.86770 0.30970
 N808 N 0.13464 0.85395 0.31089
 C809 C 0.11949 0.85981 0.29743
 C810 C 0.12568 0.87833 0.28786
 C811 C 0.14506 0.88282 0.29603
 H812 H 0.10487 0.85160 0.29516
 H813 H 0.15478 0.89622 0.29233
 Cu814 Cu 0.13531 0.82966 0.33046
 Cu815 Cu 0.17590 0.86609 0.32609
 Cu816 Cu 0.18072 0.82360 0.35566
 N817 N 0.14201 0.80372 0.34571
 N818 N 0.16058 0.80113 0.35403
 C819 C 0.16169 0.78218 0.36299
 C820 C 0.14254 0.77222 0.36085
 C821 C 0.13030 0.78652 0.34983
 H822 H 0.17502 0.77680 0.37181
 H823 H 0.11421 0.78456 0.34506
 N824 N 0.19531 0.84933 0.36246
 N825 N 0.19444 0.86577 0.35012
 C826 C 0.20706 0.88089 0.35765
 C827 C 0.21581 0.87359 0.37598
 C828 C 0.20800 0.85355 0.37859
 H829 H 0.20919 0.89622 0.35068
 H830 H 0.21155 0.84273 0.39110
 H831 H 0.16577 0.83465 0.32243
 H832 H 0.15587 0.85033 0.34494
 O833 O 1.07957 1.02327 1.10179
 O834 O 1.10514 1.02394 1.12477
 C835 C 1.08773 1.03083 1.11818
 C836 C 1.07712 1.04835 1.12907
 C837 C 1.08650 1.05838 1.14624
 H838 H 1.10131 1.05281 1.15224
 O839 O 0.92885 0.97669 1.10634
 O840 O 0.90525 0.97589 1.13152
 C841 C 0.92195 0.96890 1.12328
 C842 C 0.93250 0.95058 1.13280
 C843 C 0.92219 0.93915 1.14841
 H844 H 0.90754 0.94495 1.15467
 O845 O 1.02079 1.10492 1.07449
 O846 O 1.02042 1.12928 1.09893
 C847 C 1.02725 1.12233 1.08163
 C848 C 1.04297 1.13459 1.06981
 C849 C 1.04643 1.15573 1.07457
 H850 H 1.03742 1.16308 1.08691
 O851 O 0.98656 0.89611 1.07491
 O852 O 0.98843 0.87103 1.09857
 C853 C 0.98026 0.87868 1.08217
 C854 C 0.96221 0.86798 1.07240
 C855 C 0.95193 0.85186 1.08324
 H856 H 0.95833 0.84612 1.09780
 O857 O 1.10465 1.08079 1.01783
 O858 O 1.12863 1.10569 1.01784
 C859 C 1.12177 1.08819 1.02458
 C860 C 1.13364 1.07611 1.04036
 C861 C 1.15486 1.08039 1.04435
 H862 H 1.16284 1.09278 1.03588
 O863 O 0.90129 0.92344 1.02299
 O864 O 0.87773 0.89816 1.02239
 C865 C 0.88470 0.91510 1.03017
 C866 C 0.87388 0.92456 1.04836
 C867 C 0.85688 0.91419 1.05761
 H868 H 0.85086 0.89997 1.05058
 O869 O 0.98211 1.07410 1.10414
 O870 O 0.98223 1.09818 1.12883
 C871 C 0.97552 1.08090 1.12157
 C872 C 0.95976 1.06876 1.13348
 C873 C 0.95539 1.07391 1.15425
 H874 H 0.96373 1.08676 1.16153
 O875 O 1.02597 0.92616 1.10378
 O876 O 1.02748 0.90158 1.12798
 C877 C 1.03357 0.91910 1.12066
 C878 C 1.05005 0.93124 1.13141
 C879 C 1.05599 0.92645 1.15198
 H880 H 1.04792 0.91414 1.16045
 O881 O 1.10726 0.98310 1.07149
 O882 O 1.13260 0.98289 1.09473
 C883 C 1.12472 0.97615 1.07784
 C884 C 1.13581 0.95999 1.06543
 C885 C 1.15629 0.95395 1.07051
 H886 H 1.16427 0.96152 1.08335
 O887 O 0.89809 1.01753 1.07978
 O888 O 0.87437 1.01640 1.10482
 C889 C 0.88099 1.02392 1.08766
 C890 C 0.86887 1.04041 1.07684
 C891 C 0.84794 1.04439 1.08222
 H892 H 0.84042 1.03511 1.09429
 O893 O 0.92203 1.10374 1.02523
 O894 O 0.89722 1.12773 1.02658
 C895 C 0.91475 1.12068 1.03267
 C896 C 0.92701 1.13203 1.04857
 C897 C 0.92277 1.15310 1.05350
 H898 H 0.91034 1.16136 1.04553
 O899 O 1.07862 0.90131 1.01586
 O900 O 1.10382 0.87778 1.01431
 C901 C 1.08716 0.88468 1.02266
 C902 C 1.07852 0.87374 1.04118
 C903 C 1.08956 0.85690 1.04986
 H904 H 1.10324 0.85092 1.04184
 O905 O 0.92797 1.01762 1.10709
 O906 O 0.90460 1.01698 1.13247
 C907 C 0.92128 1.02440 1.12448
 C908 C 0.93305 1.04132 1.13511
 C909 C 0.92879 1.04680 1.15598
 H910 H 0.91694 1.03834 1.16472
 O911 O 1.07973 0.98237 1.10147
 O912 O 1.10482 0.98286 1.12497
 C913 C 1.08759 0.97555 1.11833
 C914 C 1.07660 0.95883 1.13015
 C915 C 1.08233 0.95389 1.15069
 H916 H 1.09495 0.96247 1.15802
 O917 O 1.02739 0.89789 1.07486
 O918 O 1.02963 0.87314 1.09881
 C919 C 1.03600 0.88138 1.08188
 C920 C 1.05400 0.87221 1.07048
 C921 C 1.06571 0.85570 1.07925
 H922 H 1.06132 0.84933 1.09431
 O923 O 0.98005 1.10395 1.07656
 O924 O 0.98004 1.12811 1.10119
 C925 C 0.97277 1.12081 1.08431
 C926 C 0.95567 1.13200 1.07361
 C927 C 0.95142 1.15306 1.07822
 H928 H 0.96083 1.16120 1.08969
 O929 O 0.89456 1.07391 1.02619
 O930 O 0.86941 1.09754 1.02757
 C931 C 0.87754 1.08056 1.03401
 C932 C 0.86724 1.06836 1.05079
 C933 C 0.84639 1.07234 1.05654
 H934 H 0.83758 1.08436 1.04848
 O935 O 1.10678 0.93043 1.01406
 O936 O 1.13193 0.90685 1.01218
 C937 C 1.12439 0.92351 1.02006
 C938 C 1.13579 0.93459 1.03687
 C939 C 1.15625 0.92874 1.04219
 H940 H 1.16394 0.91633 1.03356
 O941 O 0.98523 0.92314 1.10468
 O942 O 0.98665 0.89801 1.12833
 C943 C 0.97830 0.91463 1.12128
 C944 C 0.95970 0.92367 1.13177
 C945 C 0.94878 0.91215 1.14715
 H946 H 0.95440 0.89688 1.15198
 O947 O 1.02298 1.07633 1.10312
 O948 O 1.02290 1.10070 1.12752
 C949 C 1.03056 1.08409 1.11972
 C950 C 1.04901 1.07430 1.12964
 C951 C 1.05855 1.08403 1.14672
 H952 H 1.05163 1.09802 1.15341
 O953 O 0.89924 0.97665 1.07918
 O954 O 0.87565 0.97536 1.10434
 C955 C 0.88284 0.96860 1.08708
 C956 C 0.87277 0.95063 1.07635
 C957 C 0.85572 0.93993 1.08543
 H958 H 0.84915 0.94531 1.10008
 O959 O 1.10640 1.02388 1.07161
 O960 O 1.13215 1.02366 1.09443
 C961 C 1.12386 1.03089 1.07792
 C962 C 1.13457 1.04771 1.06606
 C963 C 1.15575 1.05197 1.06957
 H964 H 1.16434 1.04271 1.08084
 O965 O 0.93053 0.89549 1.02170
 O966 O 0.90681 0.87034 1.02144
 C967 C 0.92349 0.87820 1.02878
 C968 C 0.93419 0.86780 1.04648
 C969 C 0.92409 0.85167 1.05770
 H970 H 0.90889 0.84607 1.05278
 O971 O 1.07544 1.10882 1.01898
 O972 O 1.09892 1.13419 1.01907
 C973 C 1.08216 1.12610 1.02618
 C974 C 1.07014 1.13658 1.04298
 C975 C 1.07352 1.15780 1.04803
 H976 H 1.08508 1.16685 1.03949
 Cu977 Cu 1.09065 1.00305 1.08433
 Cu978 Cu 1.12122 1.00327 1.11209
 Cu979 Cu 0.91587 0.99734 1.09058
 Cu980 Cu 0.88763 0.99621 1.12087
 Cu981 Cu 1.00143 1.08736 1.08712
 Cu982 Cu 1.00134 1.11642 1.11665
 Cu983 Cu 1.00621 0.91332 1.08720
 Cu984 Cu 1.00834 0.88336 1.11575
 C985 C 1.05828 1.05634 1.12104
 H986 H 1.05116 1.04901 1.10758
 C987 C 1.07741 1.07645 1.15489
 C988 C 0.95139 0.94286 1.12471
 H989 H 0.95924 0.95144 1.11235
 C990 C 0.92971 0.91961 1.15513
 C991 C 1.05472 1.12520 1.05388
 H992 H 1.05210 1.10881 1.05022
 C993 C 1.06139 1.16757 1.06359
 C994 C 0.95333 0.87574 1.05390
 H995 H 0.96086 0.88862 1.04577
 C996 C 0.93265 0.84404 1.07636
 C997 C 1.12370 1.05968 1.05125
 H998 H 1.10732 1.05640 1.04845
 C999 C 1.16607 1.06805 1.05865
 C1000 C 0.88158 0.94288 1.05771
 H1001 H 0.89498 0.95071 1.05084
 C1002 C 0.84792 0.92150 1.07626
 C1003 C 0.94870 1.05229 1.12409
 H1004 H 0.95196 1.04836 1.10796
 C1005 C 0.94020 1.06290 1.16574
 C1006 C 1.06031 0.94756 1.12075
 H1007 H 1.05595 0.95118 1.10483
 C1008 C 1.07194 0.93792 1.16185
 C1009 C 1.12579 0.95036 1.04847
 H1010 H 1.10991 0.95478 1.04462
 C1011 C 1.16669 0.93841 1.05890
 C1012 C 0.87829 1.05234 1.06098
 H1013 H 0.89444 1.04934 1.05675
 C1014 C 0.83653 1.06018 1.07200
 C1015 C 0.94353 1.12169 1.05864
 H1016 H 0.94679 1.10540 1.05506
 C1017 C 0.93522 1.16382 1.06805
 C1018 C 1.06061 0.88115 1.05145
 H1019 H 1.05215 0.89431 1.04492
 C1020 C 1.08378 0.84821 1.06916
 O1021 O 1.07257 0.98895 0.89171
 O1022 O 1.09582 0.99059 0.86624
 C1023 C 1.07911 0.98297 0.87397
 C1024 C 1.06741 0.96662 0.86249
 C1025 C 1.07168 0.96271 0.84140
 H1026 H 1.08343 0.97200 0.83340
 O1027 O 0.92260 1.02406 0.89877
 O1028 O 0.89693 1.02390 0.87590
 C1029 C 0.91400 1.03158 0.88258
 C1030 C 0.92352 1.04993 0.87192
 C1031 C 0.91355 1.05917 0.85477
 H1032 H 0.89951 1.05205 0.84855
 O1033 O 0.97502 1.10825 0.92759
 O1034 O 0.97331 1.13375 0.90437
 C1035 C 0.96682 1.12521 0.92111
 C1036 C 0.94912 1.13463 0.93282
 C1037 C 0.93950 1.15321 0.92575
 H1038 H 0.94533 1.16100 0.91187
 O1039 O 1.02197 0.90251 0.91974
 O1040 O 1.02220 0.87821 0.89524
 C1041 C 1.02916 0.88553 0.91230
 C1042 C 1.04541 0.87396 0.92393
 C1043 C 1.04898 0.85266 0.91992
 H1044 H 1.04012 0.84485 0.90781
 O1045 O 1.10417 0.93090 0.97319
 O1046 O 1.12867 0.90664 0.97150
 C1047 C 1.12060 0.92352 0.96475
 C1048 C 1.13003 0.93397 0.94632
 C1049 C 1.14650 0.92418 0.93566
 H1050 H 1.15296 0.90964 0.94160
 O1051 O 0.89281 1.07484 0.98561
 O1052 O 0.86743 1.09821 0.98691
 C1053 C 0.87525 1.08157 0.97930
 C1054 C 0.86424 1.06992 0.96268
 C1055 C 0.84318 1.07405 0.95785
 H1056 H 0.83454 1.08576 0.96657
 O1057 O 1.01630 1.08228 0.89686
 O1058 O 1.01489 1.10793 0.87381
 C1059 C 1.02296 1.09090 0.88023
 C1060 C 1.04097 1.08164 0.86887
 C1061 C 1.04917 1.09170 0.85117
 H1062 H 1.04092 1.10505 0.84481
 O1063 O 0.97913 0.92930 0.89278
 O1064 O 0.97891 0.90504 0.86829
 C1065 C 0.97140 0.92167 0.87620
 C1066 C 0.95313 0.93209 0.86658
 C1067 C 0.94336 0.92371 0.84875
 H1068 H 0.94956 0.90971 0.84146
 O1069 O 1.10240 1.02790 0.92150
 O1070 O 1.12658 1.02855 0.89687
 C1071 C 1.11954 1.03495 0.91431
 C1072 C 1.13118 1.05097 0.92625
 C1073 C 1.15216 1.05526 0.92164
 H1074 H 1.15994 1.04659 0.90932
 O1075 O 0.89702 0.98108 0.92746
 O1076 O 0.87121 0.98082 0.90469
 C1077 C 0.87977 0.97360 0.92107
 C1078 C 0.86964 0.95635 0.93285
 C1079 C 0.84863 0.95102 0.92921
 H1080 H 0.83963 0.95971 0.91781
 O1081 O 1.07433 1.10944 0.97856
 O1082 O 1.09785 1.13478 0.97836
 C1083 C 1.08075 1.12703 0.97178
 C1084 C 1.06800 1.13848 0.95620
 C1085 C 1.07177 1.15978 0.95179
 H1086 H 1.08410 1.16806 0.95991
 O1087 O 0.93046 0.89717 0.98078
 O1088 O 0.90711 0.87168 0.98059
 C1089 C 0.92375 0.87994 0.97345
 C1090 C 0.93529 0.86949 0.95631
 C1091 C 0.93177 0.84825 0.95191
 H1092 H 0.92063 0.83947 0.96125
 O1093 O 0.92376 0.98302 0.89710
 O1094 O 0.89805 0.98285 0.87425
 C1095 C 0.91559 0.97600 0.88046
 C1096 C 0.92606 0.95901 0.86871
 C1097 C 0.91670 0.95065 0.85083
 H1098 H 0.90259 0.95779 0.84478
 O1099 O 1.07368 1.02989 0.89326
 O1100 O 1.09768 1.03160 0.86852
 C1101 C 1.08088 1.03834 0.87675
 C1102 C 1.06975 1.05647 0.86742
 C1103 C 1.07818 1.06729 0.85014
 H1104 H 1.09295 1.06226 0.84354
 O1105 O 0.98165 0.90096 0.92147
 O1106 O 0.98183 0.87639 0.89724
 C1107 C 0.97529 0.88339 0.91467
 C1108 C 0.96020 0.87112 0.92732
 C1109 C 0.95643 0.84981 0.92309
 H1110 H 0.96477 0.84211 0.91051
 O1111 O 1.01598 1.10963 0.92668
 O1112 O 1.01421 1.13542 0.90378
 C1113 C 1.02218 1.12739 0.92009
 C1114 C 1.03905 1.13864 0.93131
 C1115 C 1.04300 1.15989 0.92720
 H1116 H 1.03349 1.16814 0.91589
 O1117 O 0.90064 0.92482 0.98224
 O1118 O 0.87704 0.89957 0.98180
 C1119 C 0.88366 0.91722 0.97532
 C1120 C 0.87155 0.92899 0.95953
 C1121 C 0.85049 0.92404 0.95585
 H1122 H 0.84303 0.91163 0.96473
 O1123 O 1.10396 1.08181 0.97735
 O1124 O 1.12798 1.10667 0.97710
 C1125 C 1.12081 1.08947 0.97007
 C1126 C 1.13188 1.07803 0.95324
 C1127 C 1.15295 1.08225 0.94834
 H1128 H 1.16146 1.09406 0.95701
 O1129 O 1.01975 0.93168 0.89150
 O1130 O 1.01987 0.90783 0.86661
 C1131 C 1.02638 0.92516 0.87399
 C1132 C 1.04192 0.93799 0.86243
 C1133 C 1.04645 0.93421 0.84127
 H1134 H 1.03827 0.92188 0.83302
 O1135 O 0.97539 1.08098 0.89775
 O1136 O 0.97382 1.10644 0.87449
 C1137 C 0.96735 1.08890 0.88144
 C1138 C 0.94966 1.07800 0.87116
 C1139 C 0.93937 1.08706 0.85398
 H1140 H 0.94494 1.10176 0.84751
 O1141 O 0.89502 1.02182 0.92857
 O1142 O 0.86935 1.02132 0.90567
 C1143 C 0.87718 1.02811 0.92253
 C1144 C 0.86540 1.04356 0.93509
 C1145 C 0.84436 1.04763 0.93068
 H1146 H 0.83670 1.03921 0.91816
 O1147 O 1.10253 0.98705 0.91858
 O1148 O 1.12591 0.98765 0.89321
 C1149 C 1.11893 0.97971 0.91004
 C1150 C 1.12942 0.96126 0.91946
 C1151 C 1.14604 0.95115 0.90902
 H1152 H 1.15185 0.95724 0.89431
 O1153 O 1.07672 0.90105 0.97502
 O1154 O 1.10123 0.87675 0.97379
 C1155 C 1.08383 0.88399 0.96762
 C1156 C 1.07184 0.87289 0.95131
 C1157 C 1.07529 0.85152 0.94707
 H1158 H 1.08654 0.84278 0.95620
 O1159 O 0.92132 1.10357 0.98476
 O1160 O 0.89613 1.12716 0.98597
 C1161 C 0.91316 1.12045 0.97815
 C1162 C 0.92313 1.13217 0.96081
 C1163 C 0.91414 1.15088 0.95380
 H1164 H 0.90081 1.15729 0.96208
 Cu1165 Cu 1.08543 1.00835 0.90875
 Cu1166 Cu 1.11388 1.00974 0.87869
 Cu1167 Cu 0.91223 1.00255 0.91521
 Cu1168 Cu 0.88140 1.00222 0.88772
 Cu1169 Cu 1.08727 1.09272 0.99818
 Cu1170 Cu 1.11575 1.12288 0.99807
 Cu1171 Cu 1.08907 0.91833 0.99466
 Cu1172 Cu 1.11894 0.88965 0.99277
 Cu1173 Cu 0.91014 1.08660 1.00539
 Cu1174 Cu 0.88003 1.11508 1.00692
 Cu1175 Cu 0.91813 0.91273 1.00189
 Cu1176 Cu 0.88983 0.88238 1.00133
 Cu1177 Cu 0.99581 1.09273 0.91451
 Cu1178 Cu 0.99397 1.12342 0.88676
 Cu1179 Cu 1.00066 0.91861 0.90872
 Cu1180 Cu 1.00082 0.88949 0.87927
 C1181 C 1.05236 0.95436 0.87280
 H1182 H 1.04914 0.95723 0.88916
 C1183 C 1.06111 0.94676 0.83057
 C1184 C 0.94170 1.05932 0.87984
 H1185 H 0.94924 1.05248 0.89334
 C1186 C 0.92114 1.07787 0.84589
 C1187 C 0.94079 1.12425 0.95039
 H1188 H 0.94770 1.10967 0.95564
 C1189 C 0.92182 1.16130 0.93606
 C1190 C 1.05676 0.88389 0.93978
 H1191 H 1.05405 0.90037 0.94294
 C1192 C 1.06354 0.84118 0.93167
 C1193 C 1.12164 0.95258 0.93818
 H1194 H 1.10860 0.95997 0.94611
 C1195 C 1.15433 0.93239 0.91691
 C1196 C 0.87514 1.05456 0.95127
 H1197 H 0.89144 1.05149 0.95466
 C1198 C 0.83307 1.06264 0.94205
 C1199 C 1.05119 1.06385 0.87668
 H1200 H 1.04498 1.05605 0.89039
 C1201 C 1.06810 1.08513 0.84199
 C1202 C 0.94441 0.94983 0.87630
 H1203 H 0.95151 0.95608 0.89029
 C1204 C 0.92494 0.93281 0.84095
 C1205 C 1.12124 1.06227 0.94219
 H1206 H 1.10497 1.05904 0.94575
 C1207 C 1.16329 1.07058 0.93280
 C1208 C 0.88093 0.94532 0.94812
 H1209 H 0.89717 0.94924 0.95092
 C1210 C 0.83886 0.93515 0.94093
 C1211 C 1.05151 1.12812 0.94597
 H1212 H 1.04856 1.11168 0.94918
 C1213 C 1.05909 1.17068 0.93756
 C1214 C 0.94968 0.88075 0.94409
 H1215 H 0.95240 0.89719 0.94739
 C1216 C 0.94249 0.83818 0.93557
 O1217 O 0.98296 0.43031 0.39410
 O1218 O 0.98302 0.40662 0.36906
 C1219 C 0.97545 0.42312 0.37723
 C1220 C 0.95692 0.43314 0.36761
 C1221 C 0.94702 0.42326 0.35083
 H1222 H 0.95420 0.40956 0.34386
 O1223 O 1.02222 0.58132 0.40237
 O1224 O 1.02185 0.60704 0.37932
 C1225 C 1.02935 0.58980 0.38585
 C1226 C 1.04709 0.58009 0.37450
 C1227 C 1.05570 0.59023 0.35707
 H1228 H 1.04829 0.60428 0.35112
 O1229 O 0.89675 0.48375 0.42460
 O1230 O 0.87277 0.48558 0.40002
 C1231 C 0.87977 0.47732 0.41665
 C1232 C 0.86883 0.45911 0.42598
 C1233 C 0.85151 0.45035 0.41591
 H1234 H 0.84498 0.45818 0.40241
 O1235 O 1.10587 0.52641 0.42739
 O1236 O 1.13084 0.52876 0.40368
 C1237 C 1.12276 0.53468 0.42085
 C1238 C 1.13266 0.55164 0.43324
 C1239 C 1.15141 0.56126 0.42657
 H1240 H 1.15898 0.55608 0.41234
 O1241 O 0.92655 0.39860 0.47449
 O1242 O 0.90321 0.37311 0.47318
 C1243 C 0.92026 0.38134 0.46692
 C1244 C 0.93296 0.37062 0.45084
 C1245 C 0.92916 0.34954 0.44615
 H1246 H 0.91683 0.34119 0.45433
 O1247 O 1.07437 0.60631 0.48780
 O1248 O 1.09871 0.63075 0.48979
 C1249 C 1.08214 0.62358 0.48154
 C1250 C 1.07263 0.63477 0.46361
 C1251 C 1.08371 0.65097 0.45363
 H1252 H 1.09829 0.65643 0.46025
 O1253 O 0.92723 0.52443 0.39765
 O1254 O 0.90389 0.52556 0.37241
 C1255 C 0.92083 0.53198 0.38048
 C1256 C 0.93303 0.54876 0.37016
 C1257 C 0.92927 0.55425 0.34927
 H1258 H 0.91785 0.54553 0.34034
 O1259 O 1.07918 0.48618 0.39626
 O1260 O 1.10422 0.48774 0.37257
 C1261 C 1.08726 0.47972 0.37931
 C1262 C 1.07714 0.46212 0.36798
 C1263 C 1.08724 0.45232 0.35101
 H1264 H 1.10220 0.45811 0.34549
 O1265 O 1.02514 0.40085 0.42001
 O1266 O 1.02550 0.37759 0.39455
 C1267 C 1.03289 0.38456 0.41154
 C1268 C 1.05135 0.37432 0.42103
 C1269 C 1.06203 0.35809 0.41051
 H1270 H 1.05623 0.35222 0.39577
 O1271 O 0.98024 0.60770 0.43190
 O1272 O 0.97969 0.63313 0.40856
 C1273 C 0.97246 0.62468 0.42505
 C1274 C 0.95419 0.63416 0.43579
 C1275 C 0.94295 0.65049 0.42619
 H1276 H 0.94814 0.65674 0.41132
 O1277 O 0.89706 0.57582 0.48494
 O1278 O 0.87255 0.60011 0.48625
 C1279 C 0.88045 0.58394 0.47772
 C1280 C 0.87085 0.57535 0.45850
 C1281 C 0.85470 0.58641 0.44867
 H1282 H 0.84840 0.60042 0.45589
 O1283 O 1.10867 0.42838 0.47847
 O1284 O 1.13366 0.40457 0.47754
 C1285 C 1.12614 0.42199 0.47146
 C1286 C 1.13728 0.43479 0.45557
 C1287 C 1.15797 0.43019 0.44956
 H1288 H 1.16635 0.41766 0.45729
 O1289 O 0.98163 0.58048 0.40170
 O1290 O 0.98148 0.60588 0.37829
 C1291 C 0.97493 0.58818 0.38470
 C1292 C 0.95934 0.57642 0.37236
 C1293 C 0.95536 0.58179 0.35151
 H1294 H 0.96377 0.59475 0.34444
 O1295 O 1.02404 0.43143 0.39364
 O1296 O 1.02413 0.40807 0.36828
 C1297 C 1.03138 0.42473 0.37647
 C1298 C 1.04946 0.43553 0.36659
 C1299 C 1.05971 0.42616 0.34965
 H1300 H 1.05333 0.41199 0.34282
 O1301 O 1.10699 0.48567 0.42562
 O1302 O 1.13219 0.48789 0.40214
 C1303 C 1.12460 0.47969 0.41861
 C1304 C 1.13624 0.46291 0.42959
 C1305 C 1.15679 0.45803 0.42374
 H1306 H 1.16406 0.46665 0.41106
 O1307 O 0.89797 0.52470 0.42576
 O1308 O 0.87450 0.52675 0.40072
 C1309 C 0.88167 0.53304 0.41811
 C1310 C 0.87147 0.55071 0.42922
 C1311 C 0.85523 0.56206 0.41968
 H1312 H 0.84963 0.55750 0.40441
 O1313 O 0.92548 0.60424 0.48757
 O1314 O 0.90089 0.62844 0.48899
 C1315 C 0.91782 0.62145 0.48120
 C1316 C 0.92776 0.63270 0.46349
 C1317 C 0.91692 0.64905 0.45368
 H1318 H 0.90223 0.65449 0.46017
 O1319 O 1.08004 0.39991 0.47487
 O1320 O 1.10495 0.37603 0.47353
 C1321 C 1.08812 0.38380 0.46647
 C1322 C 1.07838 0.37433 0.44785
 C1323 C 1.08878 0.35828 0.43715
 H1324 H 1.10341 0.35221 0.44314
 O1325 O 1.07815 0.52719 0.39824
 O1326 O 1.10296 0.52918 0.37434
 C1327 C 1.08576 0.53566 0.38194
 C1328 C 1.07484 0.55380 0.37241
 C1329 C 1.08350 0.56450 0.35515
 H1330 H 1.09796 0.55905 0.34820
 O1331 O 0.92563 0.48354 0.39645
 O1332 O 0.90161 0.48461 0.37185
 C1333 C 0.91816 0.47666 0.37942
 C1334 C 0.92849 0.45877 0.36880
 C1335 C 0.91845 0.44811 0.35235
 H1336 H 0.90321 0.45323 0.34707
 O1337 O 1.02134 0.60888 0.43190
 O1338 O 1.02102 0.63452 0.40878
 C1339 C 1.02850 0.62622 0.42517
 C1340 C 1.04651 0.63609 0.43586
 C1341 C 1.05806 0.65209 0.42593
 H1342 H 1.05314 0.65790 0.41084
 O1343 O 0.98419 0.40011 0.42124
 O1344 O 0.98470 0.37629 0.39630
 C1345 C 0.97754 0.38298 0.41358
 C1346 C 0.96100 0.37112 0.42479
 C1347 C 0.95677 0.34993 0.42009
 H1348 H 0.96594 0.34184 0.40836
 O1349 O 1.10251 0.57730 0.48679
 O1350 O 1.12676 0.60182 0.48907
 C1351 C 1.11962 0.58529 0.48057
 C1352 C 1.13106 0.57591 0.46276
 C1353 C 1.14992 0.58488 0.45612
 H1354 H 1.15670 0.59754 0.46511
 O1355 O 0.89617 0.42552 0.47516
 O1356 O 0.87269 0.40025 0.47320
 C1357 C 0.87966 0.41791 0.46717
 C1358 C 0.86897 0.42953 0.45027
 C1359 C 0.85175 0.42078 0.43973
 H1360 H 0.84569 0.40559 0.44438
 Cu1361 Cu 1.00401 0.41799 0.40979
 Cu1362 Cu 1.00423 0.38991 0.37941
 Cu1363 Cu 1.00130 0.59213 0.41940
 Cu1364 Cu 1.00087 0.62285 0.39154
 Cu1365 Cu 0.91427 0.50402 0.41360
 Cu1366 Cu 0.88574 0.50588 0.38381
 Cu1367 Cu 1.09001 0.50614 0.41415
 Cu1368 Cu 1.12000 0.50852 0.38571
 C1369 C 0.94768 0.45106 0.37637
 H1370 H 0.95513 0.45864 0.38951
 C1371 C 0.92743 0.43000 0.34362
 C1372 C 1.05659 0.56172 0.38190
 H1373 H 1.05016 0.55400 0.39555
 C1374 C 1.07415 0.58295 0.34760
 C1375 C 0.87723 0.44879 0.44336
 H1376 H 0.89086 0.45532 0.45097
 C1377 C 0.84318 0.43099 0.42230
 C1378 C 1.12264 0.55913 0.45138
 H1379 H 1.10794 0.55227 0.45636
 C1380 C 1.15998 0.57810 0.43786
 C1381 C 0.94908 0.38123 0.44030
 H1382 H 0.95207 0.39757 0.44388
 C1383 C 0.94114 0.33897 0.43111
 C1384 C 1.05390 0.62762 0.45473
 H1385 H 1.04552 0.61479 0.46208
 C1386 C 1.07696 0.65926 0.43446
 C1387 C 0.94826 0.55976 0.38147
 H1388 H 0.95110 0.55570 0.39764
 C1389 C 0.94056 0.57060 0.33972
 C1390 C 1.05817 0.45365 0.37552
 H1391 H 1.05059 0.46068 0.38893
 C1392 C 1.07877 0.43407 0.34209
 C1393 C 1.05960 0.38219 0.43978
 H1394 H 1.05173 0.39490 0.44779
 C1395 C 1.08096 0.35032 0.41838
 C1396 C 0.94651 0.62543 0.45453
 H1397 H 0.95467 0.61241 0.46168
 C1398 C 0.92407 0.65762 0.43481
 C1399 C 0.87909 0.55743 0.44871
 H1400 H 0.89189 0.54908 0.45597
 C1401 C 0.84707 0.58014 0.42916
 C1402 C 1.12669 0.45135 0.44565
 H1403 H 1.11070 0.45488 0.45003
 C1404 C 1.16795 0.44194 0.43377
 O1405 O 1.02137 0.41851 0.60070
 O1406 O 1.02132 0.39200 0.62284
 C1407 C 1.02829 0.40977 0.61711
 C1408 C 1.04503 0.42010 0.62926
 C1409 C 1.05232 0.41116 0.64785
 H1410 H 1.04464 0.39731 0.65399
 O1411 O 0.97829 0.56779 0.61184
 O1412 O 0.97773 0.59107 0.63726
 C1413 C 0.97064 0.57447 0.62889
 C1414 C 0.95263 0.56333 0.63842
 C1415 C 0.94181 0.57202 0.65551
 H1416 H 0.94721 0.58657 0.66236
 O1417 O 0.89632 0.51467 0.57770
 O1418 O 0.87117 0.51266 0.60129
 C1419 C 0.87891 0.52095 0.58494
 C1420 C 0.86759 0.53803 0.57417
 C1421 C 0.84666 0.54232 0.57908
 H1422 H 0.83877 0.53308 0.59094
 O1423 O 1.10447 0.47518 0.57822
 O1424 O 1.12857 0.47411 0.60274
 C1425 C 1.12132 0.46759 0.58553
 C1426 C 1.13196 0.45025 0.57449
 C1427 C 1.14796 0.43889 0.58440
 H1428 H 1.15333 0.44348 0.59975
 O1429 O 1.07868 0.39600 0.51528
 O1430 O 1.10283 0.37134 0.51386
 C1431 C 1.08555 0.37820 0.52096
 C1432 C 1.07333 0.36577 0.53630
 C1433 C 1.07752 0.34435 0.53977
 H1434 H 1.08959 0.33651 0.53082
 O1435 O 0.92408 0.60198 0.52840
 O1436 O 0.89944 0.62610 0.52993
 C1437 C 0.91637 0.61833 0.53675
 C1438 C 0.92698 0.62788 0.55496
 C1439 C 0.91934 0.64641 0.56430
 H1440 H 0.90573 0.65418 0.55792
 O1441 O 0.92418 0.47177 0.60372
 O1442 O 0.89924 0.46952 0.62746
 C1443 C 0.91642 0.46305 0.61980
 C1444 C 0.92736 0.44491 0.62922
 C1445 C 0.91919 0.43462 0.64691
 H1446 H 0.90484 0.44019 0.65399
 O1447 O 1.07508 0.51452 0.60841
 O1448 O 1.09965 0.51379 0.63245
 C1449 C 1.08260 0.52115 0.62551
 C1450 C 1.07206 0.53831 0.63694
 C1451 C 1.08190 0.54761 0.65412
 H1452 H 1.09650 0.54123 0.65982
 O1453 O 0.98130 0.39189 0.56935
 O1454 O 0.98128 0.36530 0.59143
 C1455 C 0.97428 0.37413 0.57511
 C1456 C 0.95754 0.36387 0.56292
 C1457 C 0.95207 0.34282 0.56669
 H1458 H 0.96065 0.33377 0.57812
 O1459 O 1.01878 0.59822 0.58451
 O1460 O 1.01815 0.62179 0.60970
 C1461 C 1.02530 0.61531 0.59234
 C1462 C 1.04133 0.62772 0.58111
 C1463 C 1.04549 0.64851 0.58688
 H1464 H 1.03698 0.65538 0.59982
 O1465 O 0.89588 0.42386 0.51579
 O1466 O 0.87179 0.39912 0.51402
 C1467 C 0.87877 0.41592 0.52209
 C1468 C 0.86722 0.42643 0.53913
 C1469 C 0.84596 0.42220 0.54297
 H1470 H 0.83762 0.41106 0.53332
 O1471 O 1.10241 0.57528 0.52741
 O1472 O 1.12658 0.59988 0.52956
 C1473 C 1.11936 0.58217 0.53514
 C1474 C 1.13069 0.56941 0.55079
 C1475 C 1.15161 0.57392 0.55592
 H1476 H 1.15971 0.58669 0.54818
 O1477 O 1.01932 0.56841 0.61200
 O1478 O 1.01897 0.59187 0.63725
 C1479 C 1.02655 0.57542 0.62906
 C1480 C 1.04466 0.56491 0.63884
 C1481 C 1.05484 0.57409 0.65601
 H1482 H 1.04883 0.58843 0.66281
 O1483 O 0.98059 0.41846 0.59981
 O1484 O 0.98053 0.39193 0.62194
 C1485 C 0.97323 0.40947 0.61594
 C1486 C 0.95547 0.41902 0.62738
 C1487 C 0.94740 0.40929 0.64531
 H1488 H 0.95534 0.39571 0.65160
 O1489 O 1.10292 0.51609 0.57905
 O1490 O 1.12765 0.51502 0.60294
 C1491 C 1.12002 0.52289 0.58637
 C1492 C 1.13098 0.54027 0.57562
 C1493 C 1.15180 0.54494 0.58047
 H1494 H 1.15986 0.53564 0.59210
 O1495 O 0.89606 0.47413 0.57478
 O1496 O 0.87093 0.47229 0.59841
 C1497 C 0.87863 0.46677 0.58098
 C1498 C 0.86727 0.45162 0.56779
 C1499 C 0.84597 0.44760 0.57117
 H1500 H 0.83764 0.45584 0.58342
 O1501 O 1.07307 0.60359 0.52862
 O1502 O 1.09704 0.62841 0.53055
 C1503 C 1.07993 0.62038 0.53677
 C1504 C 1.06797 0.63037 0.55386
 C1505 C 1.07190 0.65125 0.55977
 H1506 H 1.08344 0.66040 0.55132
 O1507 O 0.92526 0.39597 0.51484
 O1508 O 0.90144 0.37095 0.51348
 C1509 C 0.91833 0.37829 0.52090
 C1510 C 0.93006 0.36609 0.53664
 C1511 C 0.92480 0.34510 0.54064
 H1512 H 0.91195 0.33795 0.53227
 O1513 O 1.07521 0.47365 0.60603
 O1514 O 1.09930 0.47273 0.63056
 C1515 C 1.08253 0.46564 0.62260
 C1516 C 1.07169 0.44742 0.63208
 C1517 C 1.07907 0.43803 0.65051
 H1518 H 1.09262 0.44453 0.65827
 O1519 O 0.92414 0.51267 0.60689
 O1520 O 0.89912 0.51066 0.63058
 C1521 C 0.91617 0.51861 0.62407
 C1522 C 0.92616 0.53575 0.63603
 C1523 C 0.91588 0.54437 0.65336
 H1524 H 0.90161 0.53714 0.65902
 O1525 O 0.97823 0.59739 0.58423
 O1526 O 0.97778 0.62067 0.60967
 C1527 C 0.97092 0.61404 0.59231
 C1528 C 0.95386 0.62559 0.58186
 C1529 C 0.94629 0.64417 0.59066
 H1530 H 0.95394 0.65060 0.60429
 O1531 O 1.02216 0.39271 0.56930
 O1532 O 1.02189 0.36611 0.59134
 C1533 C 1.02910 0.37497 0.57506
 C1534 C 1.04569 0.36447 0.56274
 C1535 C 1.05003 0.34318 0.56595
 H1536 H 1.04118 0.33451 0.57755
 O1537 O 1.10672 0.42493 0.51911
 O1538 O 1.13096 0.40036 0.51819
 C1539 C 1.12312 0.41661 0.52654
 C1540 C 1.13263 0.42522 0.54568
 C1541 C 1.14838 0.41396 0.55594
 H1542 H 1.15432 0.39953 0.54925
 O1543 O 0.89585 0.57278 0.52571
 O1544 O 0.87103 0.59675 0.52691
 C1545 C 0.87848 0.57929 0.53288
 C1546 C 0.86721 0.56653 0.54864
 C1547 C 0.84622 0.57071 0.55384
 H1548 H 0.83788 0.58314 0.54589
 Cu1549 Cu 1.00142 0.40806 0.58258
 Cu1550 Cu 1.00131 0.37621 0.60915
 Cu1551 Cu 0.99876 0.58048 0.59571
 Cu1552 Cu 0.99814 0.60860 0.62613
 Cu1553 Cu 0.91323 0.41360 0.49524
 Cu1554 Cu 0.88486 0.38335 0.49331
 Cu1555 Cu 1.09111 0.41477 0.49705
 Cu1556 Cu 1.12062 0.38568 0.49565
 Cu1557 Cu 0.91308 0.58628 0.50671
 Cu1558 Cu 0.88354 0.61530 0.50827
 Cu1559 Cu 1.08559 0.58821 0.50762
 Cu1560 Cu 1.11466 0.61771 0.51007
 Cu1561 Cu 0.91276 0.49345 0.58848
 Cu1562 Cu 0.88271 0.49107 0.61696
 Cu1563 Cu 1.08697 0.49494 0.59052
 Cu1564 Cu 1.11622 0.49393 0.61965
 C1565 C 1.05461 0.43838 0.62168
 H1566 H 1.04915 0.44521 0.60721
 C1567 C 1.06950 0.41980 0.65849
 C1568 C 0.94470 0.54513 0.62887
 H1569 H 0.95251 0.53874 0.61527
 C1570 C 0.92320 0.56281 0.66285
 C1571 C 0.87767 0.55007 0.55880
 H1572 H 0.89387 0.54687 0.55500
 C1573 C 0.83574 0.55840 0.56882
 C1574 C 1.12458 0.44344 0.55500
 H1575 H 1.11198 0.45186 0.54747
 C1576 C 1.15587 0.42052 0.57537
 C1577 C 1.05726 0.37558 0.54774
 H1578 H 1.05401 0.39208 0.54528
 C1579 C 1.06559 0.33285 0.55432
 C1580 C 0.94428 0.61765 0.56388
 H1581 H 0.94999 0.60316 0.55716
 C1582 C 0.92885 0.65450 0.58235
 C1583 C 0.94553 0.43698 0.61963
 H1584 H 0.95161 0.44445 0.60568
 C1585 C 0.92905 0.41665 0.65498
 C1586 C 1.05331 0.54691 0.62955
 H1587 H 1.04589 0.54007 0.61599
 C1588 C 1.07369 0.56572 0.66344
 C1589 C 0.94658 0.37531 0.54772
 H1590 H 0.95061 0.39156 0.54482
 C1591 C 0.93586 0.33325 0.55543
 C1592 C 1.05252 0.61884 0.56447
 H1593 H 1.04948 0.60273 0.56004
 C1594 C 1.06046 0.66056 0.57609
 C1595 C 0.87768 0.44117 0.55160
 H1596 H 0.89413 0.44429 0.54891
 C1597 C 0.83520 0.43309 0.55873
 C1598 C 1.12060 0.55244 0.56060
 H1599 H 1.10446 0.54896 0.55685
 C1600 C 1.16236 0.56149 0.57050
 O1601 O 0.48017 0.92387 0.39767
 O1602 O 0.48040 0.89888 0.37389
 C1603 C 0.47297 0.91591 0.38101
 C1604 C 0.45492 0.92579 0.37047
 C1605 C 0.44514 0.91542 0.35392
 H1606 H 0.45204 0.90122 0.34770
 O1607 O 0.51998 1.07455 0.39312
 O1608 O 0.51927 1.09857 0.36833
 C1609 C 0.52640 1.08150 0.37563
 C1610 C 0.54269 1.06965 0.36418
 C1611 C 0.54734 1.07376 0.34306
 H1612 H 0.53858 1.08555 0.33462
 O1613 O 0.39667 0.97807 0.42671
 O1614 O 0.37147 0.97785 0.40330
 C1615 C 0.37924 0.97109 0.42024
 C1616 C 0.36813 0.95476 0.43245
 C1617 C 0.34738 0.94913 0.42775
 H1618 H 0.33914 0.95726 0.41542
 O1619 O 0.60335 1.02088 0.42223
 O1620 O 0.62768 1.02078 0.39773
 C1621 C 0.62045 1.02783 0.41482
 C1622 C 0.63220 1.04406 0.42633
 C1623 C 0.65297 1.04856 0.42091
 H1624 H 0.66022 1.04028 0.40803
 O1625 O 0.42489 0.89417 0.48188
 O1626 O 0.40037 0.86982 0.48203
 C1627 C 0.41716 0.87737 0.47448
 C1628 C 0.42754 0.86716 0.45643
 C1629 C 0.41840 0.84975 0.44635
 H1630 H 0.40385 0.84320 0.45212
 O1631 O 0.57749 1.10379 0.47787
 O1632 O 0.60256 1.12753 0.47666
 C1633 C 0.58545 1.12010 0.46972
 C1634 C 0.57539 1.12975 0.45119
 C1635 C 0.58602 1.14532 0.43974
 H1636 H 0.60104 1.15105 0.44505
 O1637 O 0.42508 1.01858 0.39706
 O1638 O 0.40007 1.01828 0.37348
 C1639 C 0.41713 1.02576 0.38040
 C1640 C 0.42721 1.04369 0.36953
 C1641 C 0.41772 1.05255 0.35194
 H1642 H 0.40390 1.04522 0.34547
 O1643 O 0.57559 0.97903 0.39439
 O1644 O 0.60011 0.97851 0.37011
 C1645 C 0.58325 0.97128 0.37778
 C1646 C 0.57272 0.95322 0.36783
 C1647 C 0.58124 0.94363 0.34993
 H1648 H 0.59536 0.94989 0.34288
 O1649 O 0.52093 0.89567 0.42671
 O1650 O 0.52074 0.87050 0.40310
 C1651 C 0.52777 0.87826 0.41991
 C1652 C 0.54427 0.86706 0.43149
 C1653 C 0.54856 0.84593 0.42727
 H1654 H 0.53943 0.83762 0.41570
 O1655 O 0.48107 1.10364 0.42374
 O1656 O 0.48103 1.12846 0.39975
 C1657 C 0.47421 1.12100 0.41688
 C1658 C 0.45775 1.13227 0.42869
 C1659 C 0.45175 1.15261 0.42292
 H1660 H 0.45955 1.16027 0.40995
 O1661 O 0.39769 1.07516 0.47993
 O1662 O 0.37310 1.09940 0.47999
 C1663 C 0.38043 1.08224 0.47310
 C1664 C 0.36896 1.07032 0.45697
 C1665 C 0.34793 1.07485 0.45225
 H1666 H 0.33979 1.08720 0.46056
 O1667 O 0.60551 0.92540 0.47936
 O1668 O 0.63032 0.90140 0.47860
 C1669 C 0.62259 0.91846 0.47191
 C1670 C 0.63339 0.93036 0.45522
 C1671 C 0.65434 0.92609 0.44999
 H1672 H 0.66289 0.91413 0.45844
 O1673 O 0.47925 1.07483 0.39534
 O1674 O 0.47848 1.09950 0.37121
 C1675 C 0.47136 1.08250 0.37883
 C1676 C 0.45338 1.07175 0.36883
 C1677 C 0.44341 1.08054 0.35130
 H1678 H 0.44913 1.09511 0.34466
 O1679 O 0.52110 0.92374 0.39725
 O1680 O 0.52116 0.89856 0.37369
 C1681 C 0.52830 0.91580 0.38052
 C1682 C 0.54569 0.92620 0.36928
 C1683 C 0.55422 0.91701 0.35131
 H1684 H 0.54707 0.90301 0.34494
 O1685 O 0.60351 0.98023 0.42333
 O1686 O 0.62817 0.98024 0.39914
 C1687 C 0.62083 0.97345 0.41633
 C1688 C 0.63247 0.95743 0.42823
 C1689 C 0.65340 0.95313 0.42337
 H1690 H 0.66110 0.96175 0.41094
 O1691 O 0.39703 1.01877 0.42614
 O1692 O 0.37185 1.01841 0.40268
 C1693 C 0.37971 1.02567 0.41937
 C1694 C 0.36869 1.04238 0.43093
 C1695 C 0.34772 1.04689 0.42662
 H1696 H 0.33951 1.03791 0.41485
 O1697 O 0.42663 1.10386 0.47948
 O1698 O 0.40226 1.12831 0.47974
 C1699 C 0.41931 1.12100 0.47254
 C1700 C 0.43067 1.13226 0.45572
 C1701 C 0.42481 1.15264 0.44968
 H1702 H 0.41219 1.16054 0.45778
 O1703 O 0.57722 0.89606 0.48020
 O1704 O 0.60176 0.87177 0.47955
 C1705 C 0.58440 0.87890 0.47312
 C1706 C 0.57234 0.86734 0.45720
 C1707 C 0.57672 0.84621 0.45254
 H1708 H 0.58906 0.83804 0.46074
 O1709 O 0.57457 1.01996 0.39371
 O1710 O 0.59868 1.01948 0.36902
 C1711 C 0.58159 1.02653 0.37635
 C1712 C 0.56975 1.04264 0.36473
 C1713 C 0.57413 1.04677 0.34369
 H1714 H 0.58632 1.03799 0.33582
 O1715 O 0.42447 0.97747 0.39716
 O1716 O 0.39939 0.97690 0.37365
 C1717 C 0.41650 0.96978 0.38072
 C1718 C 0.42692 0.95183 0.37039
 C1719 C 0.41708 0.94093 0.35401
 H1720 H 0.40204 0.94614 0.34827
 O1721 O 0.52197 1.10220 0.42263
 O1722 O 0.52204 1.12631 0.39793
 C1723 C 0.52966 1.11875 0.41464
 C1724 C 0.54828 1.12879 0.42422
 C1725 C 0.55926 1.14427 0.41310
 H1726 H 0.55349 1.14956 0.39811
 O1727 O 0.48007 0.89570 0.42679
 O1728 O 0.48027 0.87089 0.40282
 C1729 C 0.47290 0.87858 0.41956
 C1730 C 0.45514 0.86788 0.42995
 C1731 C 0.44610 0.85033 0.42049
 H1732 H 0.45326 0.84378 0.40661
 O1733 O 0.60630 1.07548 0.47823
 O1734 O 0.63147 1.09919 0.47743
 C1735 C 0.62350 1.08223 0.47077
 C1736 C 0.63398 1.07043 0.45386
 C1737 C 0.65485 1.07476 0.44822
 H1738 H 0.66367 1.08644 0.45675
 O1739 O 0.39738 0.92381 0.48297
 O1740 O 0.37265 0.89967 0.48364
 C1741 C 0.38005 0.91674 0.47644
 C1742 C 0.36861 0.92829 0.46004
 C1743 C 0.34799 0.92282 0.45509
 H1744 H 0.34046 0.91013 0.46350
 Cu1745 Cu 0.50065 0.91230 0.41448
 Cu1746 Cu 0.50072 0.88224 0.38595
 Cu1747 Cu 0.50059 1.08636 0.41111
 Cu1748 Cu 0.50015 1.11575 0.38194
 Cu1749 Cu 0.41339 0.99817 0.41405
 Cu1750 Cu 0.38329 0.99784 0.38576
 Cu1751 Cu 0.58671 1.00011 0.41078
 Cu1752 Cu 0.61608 0.99983 0.38148
 C1753 C 0.44589 0.94416 0.37840
 H1754 H 0.45322 0.95203 0.39145
 C1755 C 0.42595 0.92245 0.34599
 C1756 C 0.55391 1.05399 0.37475
 H1757 H 0.55057 1.05090 0.39105
 C1758 C 0.56280 1.06203 0.33261
 C1759 C 0.37848 0.94441 0.44878
 H1760 H 0.39451 0.94852 0.45239
 C1761 C 0.33711 0.93330 0.43918
 C1762 C 0.62288 1.05492 0.44294
 H1763 H 0.60679 1.05157 0.44711
 C1764 C 0.66455 1.06360 0.43194
 C1765 C 0.44593 0.87607 0.44806
 H1766 H 0.45275 0.88982 0.45526
 C1767 C 0.42746 0.84153 0.42808
 C1768 C 0.55643 1.12165 0.44334
 H1769 H 0.54840 1.10926 0.45174
 C1770 C 0.57829 1.15224 0.42048
 C1771 C 0.44517 1.05327 0.37774
 H1772 H 0.45240 1.04669 0.39153
 C1773 C 0.42536 1.07117 0.34297
 C1774 C 0.55487 0.94445 0.37727
 H1775 H 0.54850 0.95143 0.39132
 C1776 C 0.57218 0.92534 0.34172
 C1777 C 0.55604 0.87755 0.44665
 H1778 H 0.55276 0.89389 0.44994
 C1779 C 0.56458 0.83534 0.43785
 C1780 C 0.44728 1.12233 0.44526
 H1781 H 0.45170 1.10653 0.44965
 C1782 C 0.43543 1.16301 0.43342
 C1783 C 0.37911 1.05399 0.44627
 H1784 H 0.39534 1.05054 0.44965
 C1785 C 0.33714 1.06288 0.43734
 C1786 C 0.62265 0.94616 0.44434
 H1787 H 0.60644 0.94939 0.44812
 C1788 C 0.66453 0.93768 0.43430
 O1789 O 0.52405 0.92444 0.60459
 O1790 O 0.52397 0.90008 0.62906
 C1791 C 0.53123 0.91704 0.62154
 C1792 C 0.54890 0.92759 0.63213
 C1793 C 0.55844 0.91808 0.64938
 H1794 H 0.55186 0.90378 0.65581
 O1795 O 0.48421 1.07643 0.60155
 O1796 O 0.48405 1.10047 0.62630
 C1797 C 0.47729 1.08328 0.61885
 C1798 C 0.46120 1.07123 0.63047
 C1799 C 0.45696 1.07602 0.65140
 H1800 H 0.46551 1.08858 0.65891
 O1801 O 0.39850 1.01995 0.57654
 O1802 O 0.37458 1.02081 0.60139
 C1803 C 0.38161 1.02737 0.58399
 C1804 C 0.37036 1.04391 0.57225
 C1805 C 0.34951 1.04922 0.57710
 H1806 H 0.34129 1.04095 0.58942
 O1807 O 0.60675 0.97978 0.57611
 O1808 O 0.63157 0.98010 0.59991
 C1809 C 0.62387 0.97267 0.58321
 C1810 C 0.63437 0.95510 0.57223
 C1811 C 0.65226 0.94547 0.58071
 H1812 H 0.65903 0.95135 0.59503
 O1813 O 0.57813 0.89634 0.52086
 O1814 O 0.60295 0.87233 0.52021
 C1815 C 0.58614 0.87958 0.52800
 C1816 C 0.57649 0.86904 0.54625
 C1817 C 0.58713 0.85276 0.55637
 H1818 H 0.60162 0.84690 0.54980
 O1819 O 0.42699 1.10376 0.52021
 O1820 O 0.40221 1.12780 0.52059
 C1821 C 0.41927 1.12051 0.52767
 C1822 C 0.42951 1.13102 0.54551
 C1823 C 0.41870 1.14665 0.55649
 H1824 H 0.40356 1.15190 0.55103
 O1825 O 0.42732 0.97921 0.60513
 O1826 O 0.40359 0.97986 0.63018
 C1827 C 0.42018 0.97220 0.62232
 C1828 C 0.43091 0.95441 0.63273
 C1829 C 0.42222 0.94491 0.65066
 H1830 H 0.40791 0.95101 0.65739
 O1831 O 0.57833 1.02067 0.60472
 O1832 O 0.60283 1.02131 0.62883
 C1833 C 0.58566 1.02810 0.62155
 C1834 C 0.57406 1.04506 0.63230
 C1835 C 0.57782 1.05009 0.65337
 H1836 H 0.58918 1.04118 0.66220
 O1837 O 0.48314 0.89540 0.57616
 O1838 O 0.48338 0.87113 0.60071
 C1839 C 0.47588 0.87852 0.58392
 C1840 C 0.45769 0.86802 0.57414
 C1841 C 0.44745 0.85170 0.58479
 H1842 H 0.45387 0.84580 0.59927
 O1843 O 0.52457 1.10659 0.57345
 O1844 O 0.52442 1.13069 0.59809
 C1845 C 0.53181 1.12346 0.58113
 C1846 C 0.54974 1.13400 0.57074
 C1847 C 0.56024 1.15077 0.58044
 H1848 H 0.55452 1.15691 0.59515
 O1849 O 0.39743 0.92258 0.52363
 O1850 O 0.37305 0.89809 0.52433
 C1851 C 0.38070 0.91505 0.53139
 C1852 C 0.37061 0.92574 0.54933
 C1853 C 0.35356 0.91647 0.55981
 H1854 H 0.34720 0.90172 0.55433
 O1855 O 0.60619 1.07565 0.51888
 O1856 O 0.63146 1.09921 0.51792
 C1857 C 0.62368 1.08242 0.52538
 C1858 C 0.63485 1.07061 0.54187
 C1859 C 0.65618 1.07430 0.54595
 H1860 H 0.66475 1.08580 0.53685
 O1861 O 0.52483 1.07730 0.60165
 O1862 O 0.52435 1.10140 0.62633
 C1863 C 0.53151 1.08437 0.61892
 C1864 C 0.54761 1.07264 0.63066
 C1865 C 0.55161 1.07751 0.65156
 H1866 H 0.54308 1.09021 0.65889
 O1867 O 0.48315 0.92447 0.60442
 O1868 O 0.48324 0.90011 0.62888
 C1869 C 0.47595 0.91706 0.62139
 C1870 C 0.45830 0.92764 0.63214
 C1871 C 0.44955 0.91862 0.65010
 H1872 H 0.45669 0.90477 0.65681
 O1873 O 0.60576 1.02057 0.57489
 O1874 O 0.63071 1.02103 0.59856
 C1875 C 0.62302 1.02771 0.58152
 C1876 C 0.63432 1.04382 0.56923
 C1877 C 0.65553 1.04762 0.57298
 H1878 H 0.66352 1.03881 0.58502
 O1879 O 0.39869 0.97897 0.57692
 O1880 O 0.37495 0.97966 0.60196
 C1881 C 0.38199 0.97188 0.58508
 C1882 C 0.37125 0.95371 0.57544
 C1883 C 0.35420 0.94426 0.58558
 H1884 H 0.34800 0.95123 0.59971
 O1885 O 0.57864 1.10548 0.51879
 O1886 O 0.60366 1.12928 0.51800
 C1887 C 0.58667 1.12233 0.52569
 C1888 C 0.57669 1.13328 0.54354
 C1889 C 0.58697 1.14994 0.55349
 H1890 H 0.60164 1.15574 0.54723
 O1891 O 0.42673 0.89471 0.52265
 O1892 O 0.40234 0.87023 0.52316
 C1893 C 0.41934 0.87780 0.53012
 C1894 C 0.42999 0.86757 0.54790
 C1895 C 0.41997 0.85130 0.55890
 H1896 H 0.40494 0.84551 0.55369
 O1897 O 0.57851 0.97974 0.60497
 O1898 O 0.60326 0.98010 0.62884
 C1899 C 0.58633 0.97256 0.62172
 C1900 C 0.57601 0.95466 0.63235
 C1901 C 0.58544 0.94478 0.64959
 H1902 H 0.59998 0.95081 0.65582
 O1903 O 0.42851 1.02016 0.60382
 O1904 O 0.40495 1.02087 0.62903
 C1905 C 0.42194 1.02753 0.62103
 C1906 C 0.43415 1.04411 0.63167
 C1907 C 0.43015 1.04915 0.65267
 H1908 H 0.41836 1.04052 0.66132
 O1909 O 0.48342 1.10575 0.57363
 O1910 O 0.48306 1.12982 0.59831
 C1911 C 0.47567 1.12229 0.58154
 C1912 C 0.45709 1.13209 0.57184
 C1913 C 0.44593 1.14775 0.58261
 H1914 H 0.45157 1.15351 0.59747
 O1915 O 0.52429 0.89532 0.57643
 O1916 O 0.52450 0.87109 0.60101
 C1917 C 0.53184 0.87858 0.58414
 C1918 C 0.55002 0.86845 0.57387
 C1919 C 0.56106 0.85220 0.58390
 H1920 H 0.55570 0.84631 0.59885
 O1921 O 0.60595 0.92562 0.52010
 O1922 O 0.63069 0.90154 0.51930
 C1923 C 0.62310 0.91832 0.52689
 C1924 C 0.63386 0.92875 0.54448
 C1925 C 0.65169 0.91951 0.55313
 H1926 H 0.65830 0.90559 0.54599
 O1927 O 0.39874 1.07475 0.52059
 O1928 O 0.37391 1.09875 0.52053
 C1929 C 0.38158 1.08182 0.52769
 C1930 C 0.37050 1.07035 0.54454
 C1931 C 0.34977 1.07536 0.54954
 H1932 H 0.34189 1.08765 0.54092
 Cu1933 Cu 0.50368 0.91228 0.58788
 Cu1934 Cu 0.50372 0.88314 0.61732
 Cu1935 Cu 0.50435 1.08925 0.58496
 Cu1936 Cu 0.50394 1.11817 0.61459
 Cu1937 Cu 0.41408 0.91120 0.50270
 Cu1938 Cu 0.38470 0.88193 0.50326
 Cu1939 Cu 0.58921 0.91326 0.50003
 Cu1940 Cu 0.61894 0.88435 0.49921
 Cu1941 Cu 0.41499 1.08698 0.49990
 Cu1942 Cu 0.38547 1.11607 0.50018
 Cu1943 Cu 0.58963 1.08779 0.49859
 Cu1944 Cu 0.61964 1.11637 0.49750
 Cu1945 Cu 0.41561 0.99962 0.58812
 Cu1946 Cu 0.38711 1.00055 0.61813
 Cu1947 Cu 0.58982 1.00018 0.58787
 Cu1948 Cu 0.61958 1.00085 0.61646
 C1949 C 0.55766 0.94601 0.62388
 H1950 H 0.55059 0.95318 0.61029
 C1951 C 0.57690 0.92626 0.65795
 C1952 C 0.44988 1.05509 0.62077
 H1953 H 0.45299 1.05140 0.60455
 C1954 C 0.44172 1.06490 0.66274
 C1955 C 0.38061 1.05447 0.55583
 H1956 H 0.39668 1.05060 0.55209
 C1957 C 0.33899 1.06469 0.56549
 C1958 C 0.62539 0.94667 0.55401
 H1959 H 0.61136 0.95363 0.54763
 C1960 C 0.66073 0.92745 0.57137
 C1961 C 0.55782 0.87663 0.55498
 H1962 H 0.54976 0.88950 0.54745
 C1963 C 0.57986 0.84456 0.57541
 C1964 C 0.44881 1.12393 0.55320
 H1965 H 0.45695 1.11143 0.54513
 C1966 C 0.42651 1.15467 0.57526
 C1967 C 0.44901 0.94567 0.62367
 H1968 H 0.45550 0.95252 0.60958
 C1969 C 0.43130 0.92678 0.65922
 C1970 C 0.55879 1.05631 0.62120
 H1971 H 0.55580 1.05258 0.60499
 C1972 C 0.56627 1.06607 0.66325
 C1973 C 0.44894 0.87574 0.55557
 H1974 H 0.45643 0.88872 0.54757
 C1975 C 0.42838 0.84362 0.57758
 C1976 C 0.55795 1.12562 0.55214
 H1977 H 0.55022 1.11244 0.54482
 C1978 C 0.57905 1.15858 0.57208
 C1979 C 0.37922 0.94444 0.55720
 H1980 H 0.39264 0.95142 0.54951
 C1981 C 0.34549 0.92548 0.57814
 C1982 C 0.62414 1.05522 0.55352
 H1983 H 0.60772 1.05231 0.55056
 C1984 C 0.66669 1.06250 0.56121
 O1985 O 0.48374 0.42914 0.89226
 O1986 O 0.48501 0.40584 0.86687
 C1987 C 0.47696 0.42211 0.87500
 C1988 C 0.45890 0.43242 0.86486
 C1989 C 0.44890 0.42291 0.84773
 H1990 H 0.45486 0.40836 0.84135
 O1991 O 0.52135 0.58117 0.89986
 O1992 O 0.52151 0.60601 0.87583
 C1993 C 0.52845 0.58875 0.88291
 C1994 C 0.54500 0.57725 0.87154
 C1995 C 0.54887 0.58104 0.85024
 H1996 H 0.53958 0.59248 0.84188
 O1997 O 0.39710 0.48220 0.92012
 O1998 O 0.37370 0.48300 0.89495
 C1999 C 0.38067 0.47494 0.91167
 C2000 C 0.37045 0.45618 0.92089
 C2001 C 0.35359 0.44619 0.91080
 H2002 H 0.34709 0.45283 0.89667
 O2003 O 0.60557 0.52703 0.92889
 O2004 O 0.63032 0.52937 0.90496
 C2005 C 0.62219 0.53555 0.92202
 C2006 C 0.63160 0.55333 0.93365
 C2007 C 0.64841 0.56479 0.92507
 H2008 H 0.65507 0.56020 0.91020
 O2009 O 0.42762 0.39578 0.97195
 O2010 O 0.40359 0.37098 0.97075
 C2011 C 0.42056 0.37894 0.96407
 C2012 C 0.43159 0.36926 0.94616
 C2013 C 0.42205 0.35309 0.93470
 H2014 H 0.40707 0.34687 0.93967
 O2015 O 0.57278 0.60699 0.98696
 O2016 O 0.59648 0.63206 0.98899
 C2017 C 0.58026 0.62436 0.98059
 C2018 C 0.57095 0.63525 0.96245
 C2019 C 0.58115 0.65273 0.95386
 H2020 H 0.59470 0.65917 0.96167
 O2021 O 0.42691 0.52431 0.89462
 O2022 O 0.40399 0.52495 0.86897
 C2023 C 0.42056 0.53185 0.87742
 C2024 C 0.43249 0.54904 0.86741
 C2025 C 0.42910 0.55437 0.84642
 H2026 H 0.41801 0.54544 0.83726
 O2027 O 0.57926 0.48626 0.89801
 O2028 O 0.60406 0.48819 0.87406
 C2029 C 0.58701 0.48033 0.88070
 C2030 C 0.57602 0.46413 0.86827
 C2031 C 0.58168 0.46023 0.84743
 H2032 H 0.59428 0.46915 0.84034
 O2033 O 0.52494 0.40089 0.92070
 O2034 O 0.52656 0.37789 0.89506
 C2035 C 0.53304 0.38467 0.91254
 C2036 C 0.55076 0.37404 0.92295
 C2037 C 0.56043 0.35686 0.91333
 H2038 H 0.55397 0.35060 0.89902
 O2039 O 0.48013 0.60860 0.92894
 O2040 O 0.48083 0.63420 0.90577
 C2041 C 0.47338 0.62610 0.92236
 C2042 C 0.45660 0.63695 0.93411
 C2043 C 0.45220 0.65814 0.93039
 H2044 H 0.46132 0.66675 0.91894
 O2045 O 0.39538 0.57683 0.97845
 O2046 O 0.37089 0.60115 0.97869
 C2047 C 0.37884 0.58470 0.97083
 C2048 C 0.36924 0.57515 0.95215
 C2049 C 0.35282 0.58539 0.94178
 H2050 H 0.34660 0.59993 0.94793
 O2051 O 0.60674 0.42862 0.97961
 O2052 O 0.63158 0.40466 0.97945
 C2053 C 0.62408 0.42183 0.97268
 C2054 C 0.63508 0.43347 0.95582
 C2055 C 0.65301 0.42496 0.94642
 H2056 H 0.65957 0.41047 0.95234
 O2057 O 0.48081 0.58093 0.89927
 O2058 O 0.48103 0.60621 0.87572
 C2059 C 0.47418 0.58866 0.88227
 C2060 C 0.45852 0.57698 0.86994
 C2061 C 0.45494 0.58211 0.84896
 H2062 H 0.46351 0.59497 0.84188
 O2063 O 0.52463 0.43063 0.89312
 O2064 O 0.52587 0.40774 0.86736
 C2065 C 0.53230 0.42454 0.87585
 C2066 C 0.54915 0.43695 0.86583
 C2067 C 0.55510 0.43317 0.84504
 H2068 H 0.54685 0.42145 0.83599
 O2069 O 0.60725 0.48599 0.92722
 O2070 O 0.63218 0.48796 0.90344
 C2071 C 0.62459 0.47965 0.91985
 C2072 C 0.63545 0.46180 0.92997
 C2073 C 0.65353 0.45309 0.92091
 H2074 H 0.66024 0.46006 0.90698
 O2075 O 0.39734 0.52334 0.92224
 O2076 O 0.37433 0.52435 0.89673
 C2077 C 0.38099 0.53108 0.91413
 C2078 C 0.37026 0.54884 0.92447
 C2079 C 0.35391 0.55934 0.91431
 H2080 H 0.34821 0.55356 0.89949
 O2081 O 0.42329 0.60614 0.98185
 O2082 O 0.39889 0.63056 0.98255
 C2083 C 0.41628 0.62373 0.97570
 C2084 C 0.42850 0.63594 0.96013
 C2085 C 0.42409 0.65719 0.95599
 H2086 H 0.41175 0.66511 0.96450
 O2087 O 0.57889 0.39932 0.97678
 O2088 O 0.60372 0.37535 0.97647
 C2089 C 0.58701 0.38293 0.96891
 C2090 C 0.57730 0.37310 0.95033
 C2091 C 0.58689 0.35594 0.94027
 H2092 H 0.60119 0.34934 0.94647
 O2093 O 0.57759 0.52687 0.89975
 O2094 O 0.60220 0.52862 0.87557
 C2095 C 0.58469 0.53458 0.88286
 C2096 C 0.57239 0.55059 0.87160
 C2097 C 0.57590 0.55435 0.85031
 H2098 H 0.58773 0.54542 0.84205
 O2099 O 0.42767 0.48350 0.89375
 O2100 O 0.40426 0.48421 0.86856
 C2101 C 0.42092 0.47678 0.87638
 C2102 C 0.43174 0.45935 0.86563
 C2103 C 0.42226 0.44985 0.84841
 H2104 H 0.40793 0.45634 0.84217
 O2105 O 0.52097 0.60894 0.92912
 O2106 O 0.52193 0.63395 0.90533
 C2107 C 0.52870 0.62595 0.92217
 C2108 C 0.54618 0.63600 0.93352
 C2109 C 0.55696 0.65328 0.92489
 H2110 H 0.55213 0.65972 0.91003
 O2111 O 0.48410 0.39917 0.91940
 O2112 O 0.48566 0.37596 0.89394
 C2113 C 0.47758 0.38241 0.91090
 C2114 C 0.45958 0.37103 0.92014
 C2115 C 0.44984 0.35485 0.90895
 H2116 H 0.45656 0.34960 0.89432
 O2117 O 0.60171 0.57877 0.98720
 O2118 O 0.62522 0.60403 0.98914
 C2119 C 0.61854 0.58723 0.98079
 C2120 C 0.62984 0.57827 0.96263
 C2121 C 0.64671 0.58929 0.95389
 H2122 H 0.65241 0.60336 0.96147
 O2123 O 0.39877 0.42428 0.97158
 O2124 O 0.37486 0.39935 0.97031
 C2125 C 0.38218 0.41668 0.96375
 C2126 C 0.37163 0.42758 0.94631
 C2127 C 0.35489 0.41790 0.93607
 H2128 H 0.34902 0.40296 0.94168
 Cu2129 Cu 0.50424 0.41729 0.90891
 Cu2130 Cu 0.50603 0.38949 0.87829
 Cu2131 Cu 0.50073 0.59245 0.91670
 Cu2132 Cu 0.50124 0.62274 0.88837
 Cu2133 Cu 0.41448 0.50330 0.91031
 Cu2134 Cu 0.38665 0.50426 0.87981
 Cu2135 Cu 0.59004 0.50632 0.91593
 Cu2136 Cu 0.61984 0.50875 0.88726
 C2137 C 0.45020 0.45068 0.87366
 H2138 H 0.45738 0.45773 0.88724
 C2139 C 0.43030 0.43134 0.83977
 C2140 C 0.55675 0.56193 0.88202
 H2141 H 0.55394 0.55902 0.89845
 C2142 C 0.56400 0.56928 0.83945
 C2143 C 0.37916 0.44681 0.93876
 H2144 H 0.39238 0.45411 0.94639
 C2145 C 0.34600 0.42685 0.91819
 C2146 C 0.62250 0.56017 0.95251
 H2147 H 0.60918 0.55184 0.95894
 C2148 C 0.65575 0.58301 0.93494
 C2149 C 0.45048 0.37795 0.93887
 H2150 H 0.45761 0.39080 0.94730
 C2151 C 0.43089 0.34609 0.91587
 C2152 C 0.55333 0.62713 0.95232
 H2153 H 0.54559 0.61343 0.95875
 C2154 C 0.57475 0.66147 0.93482
 C2155 C 0.44735 0.56031 0.87898
 H2156 H 0.44998 0.55633 0.89520
 C2157 C 0.44050 0.57070 0.83698
 C2158 C 0.55961 0.45254 0.87724
 H2159 H 0.55521 0.45539 0.89333
 C2160 C 0.57116 0.44493 0.83561
 C2161 C 0.55918 0.38195 0.94156
 H2162 H 0.55197 0.39544 0.94889
 C2163 C 0.57868 0.34795 0.92158
 C2164 C 0.44483 0.62606 0.94915
 H2165 H 0.44816 0.60965 0.95204
 C2166 C 0.43620 0.66846 0.94141
 C2167 C 0.37771 0.55677 0.94348
 H2168 H 0.39065 0.54904 0.95117
 C2169 C 0.34532 0.57777 0.92270
 C2170 C 0.62653 0.45201 0.94759
 H2171 H 0.61237 0.45837 0.95441
 C2172 C 0.66216 0.43451 0.92885
 O2173 O 0.51917 0.42200 1.10089
 O2174 O 0.51897 0.39599 1.12360
 C2175 C 0.52623 0.41346 1.11734
 C2176 C 0.54382 0.42322 1.12877
 C2177 C 0.55393 0.41186 1.14451
 H2178 H 0.54791 0.39666 1.14918
 O2179 O 0.47401 0.57073 1.10864
 O2180 O 0.47277 0.59407 1.13398
 C2181 C 0.46617 0.57724 1.12568
 C2182 C 0.44850 0.56555 1.13521
 C2183 C 0.43831 0.57307 1.15320
 H2184 H 0.44397 0.58712 1.16082
 O2185 O 0.39399 0.51655 1.07240
 O2186 O 0.36814 0.51468 1.09522
 C2187 C 0.37630 0.52277 1.07897
 C2188 C 0.36502 0.53958 1.06767
 C2189 C 0.34416 0.54404 1.07268
 H2190 H 0.33629 0.53504 1.08474
 O2191 O 0.60253 0.47957 1.07844
 O2192 O 0.62623 0.47879 1.10334
 C2193 C 0.61927 0.47208 1.08601
 C2194 C 0.63007 0.45460 1.07510
 C2195 C 0.64682 0.44409 1.08476
 H2196 H 0.65257 0.44938 1.09974
 O2197 O 0.57705 0.39691 1.01746
 O2198 O 0.60154 0.37258 1.01715
 C2199 C 0.58415 0.37945 1.02391
 C2200 C 0.57210 0.36744 1.03974
 C2201 C 0.57741 0.34663 1.04500
 H2202 H 0.59023 0.33887 1.03707
 O2203 O 0.42176 0.60262 1.02249
 O2204 O 0.39667 0.62632 1.02312
 C2205 C 0.41333 0.61866 1.03069
 C2206 C 0.42212 0.62788 1.04993
 C2207 C 0.41101 0.64367 1.06028
 H2208 H 0.39708 0.65014 1.05319
 O2209 O 0.42116 0.47423 1.10042
 O2210 O 0.39525 0.47213 1.12312
 C2211 C 0.41279 0.46569 1.11631
 C2212 C 0.42328 0.44764 1.12641
 C2213 C 0.41324 0.43621 1.14240
 H2214 H 0.39798 0.44104 1.14800
 O2215 O 0.57247 0.51881 1.10809
 O2216 O 0.59605 0.51824 1.13309
 C2217 C 0.57929 0.52563 1.12539
 C2218 C 0.56812 0.54302 1.13607
 C2219 C 0.57697 0.55295 1.15359
 H2220 H 0.59168 0.54739 1.15984
 O2221 O 0.47906 0.39417 1.07028
 O2222 O 0.47862 0.36861 1.09352
 C2223 C 0.47163 0.37688 1.07693
 C2224 C 0.45394 0.36684 1.06592
 C2225 C 0.44303 0.35011 1.07535
 H2226 H 0.44815 0.34393 1.09023
 O2227 O 0.51383 0.60184 1.08122
 O2228 O 0.51233 0.62578 1.10600
 C2229 C 0.51992 0.61915 1.08888
 C2230 C 0.53624 0.63142 1.07784
 C2231 C 0.54010 0.65243 1.08309
 H2232 H 0.53085 0.65988 1.09518
 O2233 O 0.39733 0.42348 1.01217
 O2234 O 0.37299 0.39897 1.01066
 C2235 C 0.37994 0.41598 1.01826
 C2236 C 0.36780 0.42707 1.03450
 C2237 C 0.34674 0.42201 1.03807
 H2238 H 0.33941 0.40988 1.02880
 O2239 O 0.60062 0.57765 1.02814
 O2240 O 0.62387 0.60315 1.02994
 C2241 C 0.61694 0.58558 1.03623
 C2242 C 0.62756 0.57486 1.05376
 C2243 C 0.64413 0.58483 1.06402
 H2244 H 0.64996 0.59970 1.05819
 O2245 O 0.51494 0.57188 1.10862
 O2246 O 0.51389 0.59564 1.13357
 C2247 C 0.52185 0.57916 1.12570
 C2248 C 0.53995 0.56903 1.13608
 C2249 C 0.54887 0.57842 1.15369
 H2250 H 0.54153 0.59214 1.16046
 O2251 O 0.47810 0.42156 1.09992
 O2252 O 0.47801 0.39585 1.12299
 C2253 C 0.47048 0.41296 1.11615
 C2254 C 0.45182 0.42213 1.12643
 C2255 C 0.44162 0.41105 1.14241
 H2256 H 0.44840 0.39666 1.14832
 O2257 O 0.60223 0.52055 1.08081
 O2258 O 0.62590 0.52004 1.10574
 C2259 C 0.61869 0.52798 1.08907
 C2260 C 0.62871 0.54672 1.07967
 C2261 C 0.64527 0.55708 1.08985
 H2262 H 0.65156 0.55079 1.10423
 O2263 O 0.39424 0.47587 1.07029
 O2264 O 0.36823 0.47420 1.09295
 C2265 C 0.37669 0.46840 1.07596
 C2266 C 0.36615 0.45267 1.06272
 C2267 C 0.34501 0.44755 1.06600
 H2268 H 0.33616 0.45569 1.07794
 O2269 O 0.57072 0.60543 1.02780
 O2270 O 0.59403 0.63091 1.02942
 C2271 C 0.57696 0.62269 1.03552
 C2272 C 0.56430 0.63310 1.05188
 C2273 C 0.56811 0.65408 1.05748
 H2274 H 0.58019 0.66294 1.04949
 O2275 O 0.42636 0.39520 1.01290
 O2276 O 0.40205 0.37067 1.01174
 C2277 C 0.41857 0.37819 1.01977
 C2278 C 0.42805 0.36757 1.03797
 C2279 C 0.41742 0.35091 1.04766
 H2280 H 0.40303 0.34502 1.04098
 O2281 O 0.57346 0.47775 1.10642
 O2282 O 0.59710 0.47688 1.13138
 C2283 C 0.58065 0.46957 1.12299
 C2284 C 0.57046 0.45061 1.13175
 C2285 C 0.58042 0.43885 1.14744
 H2286 H 0.59508 0.44424 1.15396
 O2287 O 0.42072 0.51512 1.10279
 O2288 O 0.39497 0.51319 1.12569
 C2289 C 0.41225 0.52108 1.11972
 C2290 C 0.42213 0.53795 1.13212
 C2291 C 0.41238 0.54544 1.15024
 H2292 H 0.39842 0.53770 1.15600
 O2293 O 0.47307 0.60037 1.08121
 O2294 O 0.47154 0.62371 1.10655
 C2295 C 0.46485 0.61662 1.08931
 C2296 C 0.44687 0.62683 1.07889
 C2297 C 0.43519 0.64248 1.08921
 H2298 H 0.43965 0.64760 1.10468
 O2299 O 0.51999 0.39480 1.07068
 O2300 O 0.51929 0.36883 1.09344
 C2301 C 0.52681 0.37722 1.07705
 C2302 C 0.54386 0.36654 1.06555
 C2303 C 0.54922 0.34580 1.07042
 H2304 H 0.54055 0.33750 1.08243
 O2305 O 0.60454 0.42670 1.02045
 O2306 O 0.62912 0.40248 1.02039
 C2307 C 0.62110 0.41898 1.02816
 C2308 C 0.63069 0.42862 1.04692
 C2309 C 0.64729 0.41842 1.05692
 H2310 H 0.65373 0.40418 1.05029
 O2311 O 0.39335 0.57410 1.01907
 O2312 O 0.36816 0.59771 1.01934
 C2313 C 0.37576 0.58047 1.02582
 C2314 C 0.36451 0.56781 1.04175
 C2315 C 0.34364 0.57227 1.04727
 H2316 H 0.33532 0.58483 1.03951
 Cu2317 Cu 0.49918 0.41075 1.08315
 Cu2318 Cu 0.49881 0.37981 1.11076
 Cu2319 Cu 0.49410 0.58383 1.09244
 Cu2320 Cu 0.49265 0.61211 1.12262
 Cu2321 Cu 0.41503 0.41210 0.99228
 Cu2322 Cu 0.38605 0.38240 0.99080
 Cu2323 Cu 0.58933 0.41527 0.99862
 Cu2324 Cu 0.61905 0.38644 0.99841
 Cu2325 Cu 0.41092 0.58752 1.00033
 Cu2326 Cu 0.38117 0.61637 1.00096
 Cu2327 Cu 0.58408 0.58966 1.00748
 Cu2328 Cu 0.61231 0.61999 1.00967
 Cu2329 Cu 0.41018 0.49560 1.08426
 Cu2330 Cu 0.37913 0.49341 1.11164
 Cu2331 Cu 0.58533 0.49927 1.09097
 Cu2332 Cu 0.61367 0.49841 1.12090
 C2333 C 0.55206 0.44271 1.12261
 H2334 H 0.54463 0.45132 1.11009
 C2335 C 0.57247 0.41924 1.15351
 C2336 C 0.44036 0.54787 1.12492
 H2337 H 0.44776 0.54232 1.11074
 C2338 C 0.42006 0.56321 1.16069
 C2339 C 0.37499 0.55135 1.05200
 H2340 H 0.39115 0.54798 1.04811
 C2341 C 0.33331 0.56016 1.06250
 C2342 C 0.62222 0.44681 1.05607
 H2343 H 0.60902 0.45446 1.04876
 C2344 C 0.65516 0.42578 1.07594
 C2345 C 0.55522 0.37714 1.05004
 H2346 H 0.55120 0.39322 1.04632
 C2347 C 0.56574 0.33561 1.06010
 C2348 C 0.44017 0.61964 1.05924
 H2349 H 0.44864 0.60717 1.05146
 C2350 C 0.41696 0.65061 1.08012
 C2351 C 0.44266 0.44054 1.11869
 H2352 H 0.45023 0.44891 1.10602
 C2353 C 0.42218 0.41769 1.15018
 C2354 C 0.54956 0.55119 1.12748
 H2355 H 0.54296 0.54407 1.11365
 C2356 C 0.56762 0.57091 1.16224
 C2357 C 0.44640 0.37537 1.04714
 H2358 H 0.45439 0.38860 1.04007
 C2359 C 0.42453 0.34241 1.06653
 C2360 C 0.54825 0.62198 1.06205
 H2361 H 0.54540 0.60574 1.05797
 C2362 C 0.55585 0.66395 1.07284
 C2363 C 0.37733 0.44254 1.04677
 H2364 H 0.39367 0.44634 1.04423
 C2365 C 0.33510 0.43238 1.05358
 C2366 C 0.62011 0.55569 1.06154
 H2367 H 0.60703 0.54814 1.05390
 C2368 C 0.65278 0.57637 1.08226
 C2369 C 1.11324 1.10326 1.23444
 C2370 C 1.11058 1.12060 1.22193
 C2371 C 1.11307 1.14100 1.22908
 C2372 C 1.11842 1.14370 1.25007
 C2373 C 1.12134 1.12614 1.26337
 C2374 C 1.11900 1.10559 1.25535
 O2375 O 1.10865 1.08537 1.22483
 C2376 C 1.10297 1.09160 1.20587
 C2377 C 1.10402 1.11301 1.20334
 C2378 C 1.09788 1.12313 1.18518
 C2379 C 1.08992 1.11072 1.16905
 C2380 C 1.08808 1.08863 1.17138
 C2381 C 1.09515 1.07888 1.18992
 H2382 H 1.11057 1.15437 1.21898
 H2383 H 1.12030 1.15950 1.25596
 H2384 H 1.12079 1.09195 1.26527
 H2385 H 1.09875 1.14002 1.18365
 H2386 H 1.08479 1.11834 1.15485
 H2387 H 1.09363 1.06211 1.19222
 C2388 C 1.10107 0.60690 0.74039
 C2389 C 1.11809 0.60439 0.72743
 C2390 C 1.13841 0.60890 0.73351
 C2391 C 1.14140 0.61608 0.75391
 C2392 C 1.12419 0.61873 0.76770
 C2393 C 1.10366 0.61440 0.76071
 O2394 O 1.08328 0.60049 0.73181
 C2395 C 1.08926 0.59379 0.71308
 C2396 C 1.11040 0.59593 0.70968
 C2397 C 1.12026 0.58921 0.69156
 C2398 C 1.10786 0.57966 0.67633
 C2399 C 1.08604 0.57686 0.67949
 C2400 C 1.07655 0.58436 0.69805
 H2401 H 1.15154 0.60657 0.72307
 H2402 H 1.15717 0.61950 0.75899
 H2403 H 1.09032 0.61596 0.77104
 H2404 H 1.13696 0.59101 0.68933
 H2405 H 1.11528 0.57435 0.66207
 H2406 H 1.06000 0.58225 0.70097
 C2407 C 0.60073 1.09110 0.74424
 C2408 C 0.57932 1.09263 0.74507
 C2409 C 0.56876 1.10215 0.76145
 C2410 C 0.58073 1.11060 0.77767
 C2411 C 0.60294 1.10907 0.77757
 C2412 C 0.61299 1.09877 0.76060
 O2413 O 0.60766 1.08303 0.72637
 C2414 C 0.59019 1.07933 0.71577
 C2415 C 0.57245 1.08473 0.72669
 C2416 C 0.55249 1.08291 0.71847
 C2417 C 0.55071 1.07568 0.69793
 C2418 C 0.56875 1.07087 0.68582
 C2419 C 0.58880 1.07224 0.69513
 H2420 H 0.55189 1.10347 0.76153
 H2421 H 0.57246 1.11804 0.79041
 H2422 H 0.62984 1.09767 0.75952
 H2423 H 0.53878 1.08724 0.72741
 H2424 H 0.53522 1.07428 0.69131
 H2425 H 0.60287 1.06895 0.68629
 C2426 C 0.60739 0.59594 1.24082
 C2427 C 0.60212 0.61371 1.22982
 C2428 C 0.60376 0.63380 1.23807
 C2429 C 0.61100 0.63568 1.25858
 C2430 C 0.61673 0.61767 1.27021
 C2431 C 0.61516 0.59751 1.26115
 O2432 O 0.60325 0.57833 1.23050
 C2433 C 0.59525 0.58519 1.21262
 C2434 C 0.59441 0.60671 1.21144
 C2435 C 0.58608 0.61734 1.19449
 C2436 C 0.57797 0.60530 1.17815
 C2437 C 0.57794 0.58301 1.17913
 C2438 C 0.58713 0.57283 1.19651
 H2439 H 0.59918 0.64749 1.22920
 H2440 H 0.61211 0.65114 1.26548
 H2441 H 0.61907 0.58354 1.26992
 H2442 H 0.58564 0.63430 1.19395
 H2443 H 0.57152 0.61340 1.16479
 H2444 H 0.58721 0.55589 1.19783
 C2445 C 0.89633 0.87407 1.22731
 C2446 C 0.88013 0.87954 1.21436
 C2447 C 0.85935 0.87916 1.22059
 C2448 C 0.85500 0.87318 1.24115
 C2449 C 0.87128 0.86700 1.25492
 C2450 C 0.89227 0.86686 1.24758
 O2451 O 0.91502 0.87839 1.21915
 C2452 C 0.91043 0.88669 1.20066
 C2453 C 0.88927 0.88736 1.19694
 C2454 C 0.88070 0.89646 1.17927
 C2455 C 0.89444 0.90585 1.16505
 C2456 C 0.91629 0.90657 1.16895
 C2457 C 0.92448 0.89620 1.18672
 H2458 H 0.84696 0.88415 1.21026
 H2459 H 0.83883 0.87318 1.24618
 H2460 H 0.90515 0.86299 1.25781
 H2461 H 0.86397 0.89683 1.17678
 H2462 H 0.88794 0.91321 1.15128
 H2463 H 0.94101 0.89672 1.19025
 C2464 C 0.89378 0.39406 0.73670
 C2465 C 0.90020 0.37610 0.72673
 C2466 C 0.90091 0.35669 0.73648
 C2467 C 0.89494 0.35571 0.75748
 C2468 C 0.88787 0.37390 0.76829
 C2469 C 0.88692 0.39333 0.75745
 O2470 O 0.89606 0.41116 0.72499
 C2471 C 0.90399 0.40372 0.70727
 C2472 C 0.90654 0.38232 0.70753
 C2473 C 0.91500 0.37120 0.69094
 C2474 C 0.92150 0.38263 0.67343
 C2475 C 0.92002 0.40489 0.67296
 C2476 C 0.91069 0.41552 0.69007
 H2477 H 0.90636 0.34285 0.72835
 H2478 H 0.89552 0.34055 0.76505
 H2479 H 0.88215 0.40765 0.76516
 H2480 H 0.91672 0.35432 0.69152
 H2481 H 0.92791 0.37407 0.66031
 H2482 H 0.90948 0.43245 0.69040
 C2483 C 0.39579 0.90456 0.74085
 C2484 C 0.39984 0.88641 0.72996
 C2485 C 0.39837 0.86658 0.73886
 C2486 C 0.39256 0.86536 0.75993
 C2487 C 0.38805 0.88376 0.77148
 C2488 C 0.38942 0.90366 0.76174
 O2489 O 0.39960 0.92181 0.72978
 C2490 C 0.40616 0.91436 0.71152
 C2491 C 0.40639 0.89279 0.71084
 C2492 C 0.41329 0.88158 0.69359
 C2493 C 0.42064 0.89304 0.67642
 C2494 C 0.42136 0.91533 0.67687
 C2495 C 0.41355 0.92614 0.69458
 H2496 H 0.40200 0.85257 0.73004
 H2497 H 0.39154 0.85008 0.76727
 H2498 H 0.38641 0.91794 0.77039
 H2499 H 0.41329 0.86460 0.69346
 H2500 H 0.42607 0.88450 0.66285
 H2501 H 0.41407 0.94309 0.69550
 C2502 C 0.37780 0.38425 1.22329
 C2503 C 0.38239 0.36799 1.21000
 C2504 C 0.37897 0.34713 1.21514
 C2505 C 0.37070 0.34273 1.23492
 C2506 C 0.36584 0.35911 1.24926
 C2507 C 0.36917 0.38028 1.24300
 O2508 O 0.38341 0.40286 1.21570
 C2509 C 0.39172 0.39816 1.19723
 C2510 C 0.39135 0.37701 1.19303
 C2511 C 0.39991 0.36839 1.17505
 C2512 C 0.40952 0.38209 1.16087
 C2513 C 0.41057 0.40397 1.16492
 C2514 C 0.40118 0.41217 1.18324
 H2515 H 0.38288 0.33462 1.20441
 H2516 H 0.36807 0.32644 1.23879
 H2517 H 0.36607 0.39330 1.25337
 H2518 H 0.39947 0.35167 1.17217
 H2519 H 0.41633 0.37563 1.14678
 H2520 H 0.40193 0.42874 1.18683
 C2521 C 0.89563 1.11607 0.76666
 C2522 C 0.87805 1.11238 0.77855
 C2523 C 0.85789 1.11468 0.77089
 C2524 C 0.85571 1.12077 0.74999
 C2525 C 0.87354 1.12465 0.73733
 C2526 C 0.89381 1.12263 0.74590
 O2527 O 0.91327 1.11141 0.77656
 C2528 C 0.90664 1.10463 0.79507
 C2529 C 0.88522 1.10504 0.79706
 C2530 C 0.87478 1.09774 0.81467
 C2531 C 0.88689 1.08941 0.83085
 C2532 C 0.90901 1.08829 0.82911
 C2533 C 0.91904 1.09640 0.81105
 H2534 H 0.84432 1.11133 0.78047
 H2535 H 0.84014 1.12223 0.74358
 H2536 H 0.90765 1.12501 0.73640
 H2537 H 0.85790 1.09814 0.81578
 H2538 H 0.87898 1.08362 0.84468
 H2539 H 0.93584 1.09551 0.80915
 C2540 C 0.90115 0.59355 0.26053
 C2541 C 0.92247 0.59554 0.25824
 C2542 C 0.93170 0.60483 0.24086
 C2543 C 0.91841 0.61277 0.22541
 C2544 C 0.89640 0.61100 0.22745
 C2545 C 0.88764 0.60085 0.24505
 O2546 O 0.89556 0.58593 0.27903
 C2547 C 0.91373 0.58307 0.28859
 C2548 C 0.93067 0.58862 0.27650
 C2549 C 0.95109 0.58800 0.28380
 C2550 C 0.95421 0.58153 0.30448
 C2551 C 0.93699 0.57610 0.31749
 C2552 C 0.91646 0.57665 0.30924
 H2553 H 0.94850 0.60662 0.23962
 H2554 H 0.92520 0.62074 0.21207
 H2555 H 0.87086 0.59995 0.24727
 H2556 H 0.96415 0.59261 0.27402
 H2557 H 0.97003 0.58090 0.31038
 H2558 H 0.90295 0.57304 0.31882
 C2559 C 0.40083 1.10820 0.26280
 C2560 C 0.38309 1.10369 0.27415
 C2561 C 0.36307 1.10524 0.26595
 C2562 C 0.36122 1.11158 0.24511
 C2563 C 0.37921 1.11652 0.23306
 C2564 C 0.39932 1.11508 0.24211
 O2565 O 0.41835 1.10428 0.27323
 C2566 C 0.41146 1.09719 0.29154
 C2567 C 0.38999 1.09670 0.29287
 C2568 C 0.37933 1.08925 0.31026
 C2569 C 0.39124 1.08162 0.32689
 C2570 C 0.41344 1.08122 0.32580
 C2571 C 0.42369 1.08956 0.30796
 H2572 H 0.34938 1.10126 0.27513
 H2573 H 0.34577 1.11265 0.23832
 H2574 H 0.41328 1.11840 0.23308
 H2575 H 0.36241 1.08905 0.31090
 H2576 H 0.38312 1.07577 0.34057
 H2577 H 0.44057 1.08929 0.30655
 C2578 C 0.40376 0.59193 0.75613
 C2579 C 0.42516 0.59351 0.75437
 C2580 C 0.43503 0.60172 0.73681
 C2581 C 0.42232 0.60894 0.72054
 C2582 C 0.40021 0.60767 0.72204
 C2583 C 0.39082 0.59864 0.73994
 O2584 O 0.39751 0.58508 0.77471
 C2585 C 0.41535 0.58230 0.78488
 C2586 C 0.43271 0.58717 0.77310
 C2587 C 0.45291 0.58642 0.78098
 C2588 C 0.45532 0.58055 0.80193
 C2589 C 0.43765 0.57575 0.81458
 C2590 C 0.41738 0.57641 0.80576
 H2591 H 0.45188 0.60310 0.73593
 H2592 H 0.42967 0.61583 0.70691
 H2593 H 0.37399 0.59797 0.74173
 H2594 H 0.46632 0.59049 0.77144
 H2595 H 0.47096 0.57983 0.80832
 H2596 H 0.40356 0.57323 0.81505
 C2597 C 1.08691 0.90912 0.75134
 C2598 C 1.08592 0.93051 0.74870
 C2599 C 1.09315 0.94056 0.73080
 C2600 C 1.10190 0.92805 0.71503
 C2601 C 1.10306 0.90595 0.71735
 C2602 C 1.09520 0.89635 0.73570
 O2603 O 1.08050 0.90286 0.77008
 C2604 C 1.07534 0.92070 0.77946
 C2605 C 1.07827 0.93805 0.76699
 C2606 C 1.07478 0.95838 0.77394
 C2607 C 1.06834 0.96098 0.79470
 C2608 C 1.06572 0.94340 0.80812
 C2609 C 1.06891 0.92292 0.80019
 H2610 H 1.09250 0.95745 0.72922
 H2611 H 1.10781 0.93559 0.70106
 H2612 H 1.09630 0.87957 0.73811
 H2613 H 1.07731 0.97179 0.76386
 H2614 H 1.06571 0.97673 0.80044
 H2615 H 1.06743 0.90923 0.81011
 C2616 C 1.11779 0.40618 0.26414
 C2617 C 1.11491 0.38906 0.27694
 C2618 C 1.11733 0.36851 0.27009
 C2619 C 1.12277 0.36545 0.24912
 C2620 C 1.12597 0.38278 0.23563
 C2621 C 1.12377 0.40347 0.24329
 O2622 O 1.11283 0.42422 0.27332
 C2623 C 1.10670 0.41832 0.29230
 C2624 C 1.10786 0.39697 0.29527
 C2625 C 1.10115 0.38715 0.31345
 C2626 C 1.09248 0.39978 0.32909
 C2627 C 1.09042 0.42178 0.32625
 C2628 C 1.09813 0.43126 0.30775
 H2629 H 1.11451 0.35531 0.28036
 H2630 H 1.12428 0.34958 0.24327
 H2631 H 1.12560 0.41691 0.23309
 H2632 H 1.10208 0.37030 0.31533
 H2633 H 1.08687 0.39235 0.34326
 H2634 H 1.09645 0.44795 0.30505
 C2635 C 0.60768 0.90429 0.25988
 C2636 C 0.60382 0.88598 0.27063
 C2637 C 0.60564 0.86625 0.26160
 C2638 C 0.61153 0.86534 0.24055
 C2639 C 0.61577 0.88395 0.22916
 C2640 C 0.61409 0.90371 0.23900
 O2641 O 0.60359 0.92137 0.27105
 C2642 C 0.59705 0.91363 0.28922
 C2643 C 0.59707 0.89206 0.28975
 C2644 C 0.59022 0.88060 0.30688
 C2645 C 0.58272 0.89180 0.32413
 C2646 C 0.58186 0.91409 0.32387
 C2647 C 0.58953 0.92515 0.30622
 H2648 H 0.60215 0.85210 0.27030
 H2649 H 0.61272 0.85017 0.23304
 H2650 H 0.61685 0.91811 0.23044
 H2651 H 0.59040 0.86362 0.30689
 H2652 H 0.57739 0.88307 0.33764
 H2653 H 0.58889 0.94210 0.30541
 C2654 C 0.59234 0.40745 0.75456
 C2655 C 0.59247 0.42894 0.75248
 C2656 C 0.59837 0.43901 0.73416
 C2657 C 0.60479 0.42646 0.71739
 C2658 C 0.60521 0.40425 0.71913
 C2659 C 0.59848 0.39459 0.73792
 O2660 O 0.58700 0.40117 0.77364
 C2661 C 0.58374 0.41909 0.78377
 C2662 C 0.58690 0.43651 0.77149
 C2663 C 0.58514 0.45687 0.77904
 C2664 C 0.57989 0.45942 0.80015
 C2665 C 0.57654 0.44175 0.81327
 C2666 C 0.57839 0.42126 0.80483
 H2667 H 0.59842 0.45595 0.73295
 H2668 H 0.60967 0.43412 0.70309
 H2669 H 0.59895 0.37772 0.73984
 H2670 H 0.58785 0.47032 0.76906
 H2671 H 0.57828 0.47517 0.80625
 H2672 H 0.57621 0.40747 0.81448
 C2673 C 1.24574 1.10299 1.08635
 C2674 C 1.24870 1.08215 1.08170
 C2675 C 1.26702 1.07148 1.08647
 C2676 C 1.28292 1.08271 1.09655
 C2677 C 1.28028 1.10422 1.10162
 C2678 C 1.26144 1.11453 1.09618
 O2679 O 1.22669 1.10980 1.08170
 C2680 C 1.21740 1.09287 1.07398
 C2681 C 1.23024 1.07556 1.07360
 C2682 C 1.22341 1.05586 1.06731
 C2683 C 1.20238 1.05383 1.06157
 C2684 C 1.18867 1.07132 1.06221
 C2685 C 1.19643 1.09124 1.06810
 H2686 H 1.26887 1.05499 1.08289
 H2687 H 1.29724 1.07460 1.10046
 H2688 H 1.25871 1.13078 1.10019
 H2689 H 1.23374 1.04243 1.06738
 H2690 H 1.19659 1.03851 1.05707
 H2691 H 1.18620 1.10472 1.06917
 C2692 C 1.24047 0.60057 0.59781
 C2693 C 1.24368 0.57931 0.59606
 C2694 C 1.26181 0.56951 0.60291
 C2695 C 1.27720 0.58210 0.61212
 C2696 C 1.27430 0.60407 0.61414
 C2697 C 1.25576 0.61347 0.60658
 O2698 O 1.22158 0.60651 0.59161
 C2699 C 1.21269 0.58860 0.58583
 C2700 C 1.22562 0.57153 0.58816
 C2701 C 1.21924 0.55113 0.58399
 C2702 C 1.19857 0.54814 0.57746
 C2703 C 1.18467 0.56539 0.57540
 C2704 C 1.19202 0.58598 0.57930
 H2705 H 1.26383 0.55270 0.60163
 H2706 H 1.29134 0.57472 0.61777
 H2707 H 1.25293 0.63012 0.60831
 H2708 H 1.22968 0.53795 0.58608
 H2709 H 1.19327 0.53232 0.57429
 H2710 H 1.18173 0.59941 0.57823
 C2711 C 0.74774 1.09678 0.58582
 C2712 C 0.74944 1.07531 0.58460
 C2713 C 0.76676 1.06440 0.59189
 C2714 C 0.78297 1.07608 0.60091
 C2715 C 0.78166 1.09825 0.60229
 C2716 C 0.76387 1.10875 0.59436
 O2717 O 0.72930 1.10389 0.57948
 C2718 C 0.71915 1.08652 0.57414
 C2719 C 0.73087 1.06864 0.57688
 C2720 C 0.72302 1.04864 0.57338
 C2721 C 0.70209 1.04694 0.56725
 C2722 C 0.68940 1.06506 0.56493
 C2723 C 0.69824 1.08520 0.56796
 H2724 H 0.76756 1.04746 0.59109
 H2725 H 0.79650 1.06787 0.60689
 H2726 H 0.76224 1.12561 0.59564
 H2727 H 0.73252 1.03481 0.57580
 H2728 H 0.69558 1.03145 0.56479
 H2729 H 0.68885 1.09926 0.56669
 C2730 C 0.73001 0.60559 1.12177
 C2731 C 0.71671 0.62236 1.11939
 C2732 C 0.72281 0.64300 1.12279
 C2733 C 0.74356 0.64656 1.12878
 C2734 C 0.75760 0.62958 1.13151
 C2735 C 0.75065 0.60875 1.12825
 O2736 O 0.72144 0.58744 1.11614
 C2737 C 0.70232 0.59293 1.11011
 C2738 C 0.69868 0.61411 1.11198
 C2739 C 0.68017 0.62353 1.10574
 C2740 C 0.66489 0.61068 1.09679
 C2741 C 0.66840 0.58886 1.09397
 C2742 C 0.68725 0.57977 1.10121
 H2743 H 0.71213 0.65594 1.12044
 H2744 H 0.74873 0.66254 1.13125
 H2745 H 0.76122 0.59559 1.12982
 H2746 H 0.67774 0.64026 1.10731
 H2747 H 0.65043 0.61782 1.09166
 H2748 H 0.69047 0.56324 1.09903
 C2749 C 1.23323 0.90293 0.88126
 C2750 C 1.21949 0.88634 0.88223
 C2751 C 1.22557 0.86567 0.87894
 C2752 C 1.24674 0.86190 0.87459
 C2753 C 1.26124 0.87871 0.87340
 C2754 C 1.25431 0.89957 0.87650
 O2755 O 1.22454 0.92110 0.88660
 C2756 C 1.20489 0.91584 0.89102
 C2757 C 1.20103 0.89475 0.88844
 C2758 C 1.18196 0.88551 0.89334
 C2759 C 1.16635 0.89842 0.90171
 C2760 C 1.17007 0.92010 0.90518
 C2761 C 1.18948 0.92905 0.89925
 H2762 H 1.21452 0.85285 0.88019
 H2763 H 1.25184 0.84589 0.87222
 H2764 H 1.26515 0.91263 0.87615
 H2765 H 1.17938 0.86885 0.89136
 H2766 H 1.15153 0.89143 0.90612
 H2767 H 1.19285 0.94545 0.90214
 C2768 C 1.24344 0.39966 0.40322
 C2769 C 1.24635 0.42095 0.40149
 C2770 C 1.26324 0.42974 0.39097
 C2771 C 1.27771 0.41605 0.38174
 C2772 C 1.27536 0.39389 0.38344
 C2773 C 1.25798 0.38571 0.39472
 O2774 O 1.22549 0.39457 0.41244
 C2775 C 1.21694 0.41308 0.41668
 C2776 C 1.22921 0.42970 0.41047
 C2777 C 1.22308 0.45046 0.41278
 C2778 C 1.20329 0.45427 0.42143
 C2779 C 1.18983 0.43744 0.42718
 C2780 C 1.19705 0.41651 0.42515
 H2781 H 1.26499 0.44657 0.38953
 H2782 H 1.29084 0.42291 0.37352
 H2783 H 1.25516 0.36903 0.39603
 H2784 H 1.23305 0.46327 0.40780
 H2785 H 1.19832 0.47039 0.42329
 H2786 H 1.18715 0.40328 0.42904
 C2787 C 0.74201 0.89817 0.40605
 C2788 C 0.74527 0.91947 0.40705
 C2789 C 0.76316 0.92909 0.39920
 C2790 C 0.77824 0.91624 0.38973
 C2791 C 0.77521 0.89422 0.38837
 C2792 C 0.75694 0.88505 0.39697
 O2793 O 0.72333 0.89238 0.41311
 C2794 C 0.71460 0.91043 0.41866
 C2795 C 0.72742 0.92747 0.41533
 C2796 C 0.72102 0.94798 0.41889
 C2797 C 0.70046 0.95110 0.42588
 C2798 C 0.68675 0.93383 0.42904
 C2799 C 0.69411 0.91316 0.42573
 H2800 H 0.76523 0.94593 0.39991
 H2801 H 0.79217 0.92347 0.38331
 H2802 H 0.75396 0.86838 0.39576
 H2803 H 0.73133 0.96114 0.41595
 H2804 H 0.69508 0.96699 0.42849
 H2805 H 0.68389 0.89973 0.42759
 C2806 C 0.74303 0.41447 0.89051
 C2807 C 0.73080 0.39668 0.89054
 C2808 C 0.73842 0.37702 0.88511
 C2809 C 0.75964 0.37552 0.87986
 C2810 C 0.77267 0.39352 0.87998
 C2811 C 0.76419 0.41337 0.88496
 O2812 O 0.73303 0.43124 0.89776
 C2813 C 0.71416 0.42383 0.90252
 C2814 C 0.71205 0.40276 0.89836
 C2815 C 0.69415 0.39141 0.90336
 C2816 C 0.67775 0.40217 0.91314
 C2817 C 0.67950 0.42387 0.91777
 C2818 C 0.69790 0.43492 0.91209
 H2819 H 0.72856 0.36321 0.88562
 H2820 H 0.76612 0.36024 0.87629
 H2821 H 0.77403 0.42719 0.88577
 H2822 H 0.69300 0.37478 0.90017
 H2823 H 0.66368 0.39360 0.91721
 H2824 H 0.69976 0.45140 0.91573
 C2825 C 0.76814 0.89303 1.11156
 C2826 C 0.78078 0.87585 1.10856
 C2827 C 0.77378 0.85536 1.11115
 C2828 C 0.75284 0.85241 1.11705
 C2829 C 0.73943 0.86983 1.12036
 C2830 C 0.74731 0.89046 1.11775
 O2831 O 0.77761 0.91108 1.10712
 C2832 C 0.79664 0.90514 1.10120
 C2833 C 0.79936 0.88374 1.10192
 C2834 C 0.81774 0.87397 1.09569
 C2835 C 0.83388 0.88673 1.08801
 C2836 C 0.83135 0.90882 1.08651
 C2837 C 0.81257 0.91819 1.09365
 H2838 H 0.78398 0.84210 1.10844
 H2839 H 0.74714 0.83655 1.11911
 H2840 H 0.73738 0.90405 1.11983
 H2841 H 0.81947 0.85709 1.09636
 H2842 H 0.84826 0.87936 1.08288
 H2843 H 0.81011 0.93495 1.09245
 C2844 C 0.75430 0.39829 0.58352
 C2845 C 0.75166 0.41923 0.57904
 C2846 C 0.73318 0.42991 0.58318
 C2847 C 0.71682 0.41863 0.59258
 C2848 C 0.71921 0.39709 0.59775
 C2849 C 0.73817 0.38673 0.59277
 O2850 O 0.77352 0.39147 0.57949
 C2851 C 0.78322 0.40849 0.57238
 C2852 C 0.77051 0.42589 0.57183
 C2853 C 0.77778 0.44571 0.56631
 C2854 C 0.79908 0.44773 0.56142
 C2855 C 0.81254 0.43007 0.56200
 C2856 C 0.80442 0.41009 0.56723
 H2857 H 0.73155 0.44644 0.57969
 H2858 H 0.70241 0.42681 0.59605
 H2859 H 0.74071 0.37045 0.59685
 H2860 H 0.76755 0.45923 0.56633
 H2861 H 0.80522 0.46309 0.55751
 H2862 H 0.81450 0.39649 0.56825
 C2863 C 0.26738 0.88493 0.60458
 C2864 C 0.27925 0.88896 0.62199
 C2865 C 0.27169 0.88645 0.64220
 C2866 C 0.25093 0.87982 0.64460
 C2867 C 0.23831 0.87560 0.62695
 C2868 C 0.24677 0.87779 0.60663
 O2869 O 0.27707 0.88994 0.58687
 C2870 C 0.29542 0.89729 0.59328
 C2871 C 0.29752 0.89691 0.61463
 C2872 C 0.31496 0.90477 0.62483
 C2873 C 0.33085 0.91363 0.61256
 C2874 C 0.32898 0.91471 0.59050
 C2875 C 0.31110 0.90606 0.58072
 H2876 H 0.28123 0.89010 0.65564
 H2877 H 0.24453 0.87829 0.66020
 H2878 H 0.23726 0.87521 0.59292
 H2879 H 0.31617 0.90438 0.64167
 H2880 H 0.34457 0.91981 0.62028
 H2881 H 0.30908 0.90689 0.56397
 C2882 C 0.25471 0.40927 1.09124
 C2883 C 0.25270 0.40828 1.06989
 C2884 C 0.23503 0.40027 1.06016
 C2885 C 0.21885 0.39273 1.07297
 C2886 C 0.22053 0.39359 1.09502
 C2887 C 0.23859 0.40230 1.10427
 O2888 O 0.27335 0.41606 1.09729
 C2889 C 0.28331 0.41945 1.07938
 C2890 C 0.27131 0.41505 1.06217
 C2891 C 0.27887 0.41672 1.04188
 C2892 C 0.29973 0.42300 1.03922
 C2893 C 0.31267 0.42717 1.05672
 C2894 C 0.30413 0.42560 1.07711
 H2895 H 0.23395 0.39934 1.04334
 H2896 H 0.20509 0.38606 1.06574
 H2897 H 0.24047 0.40267 1.12105
 H2898 H 0.26913 0.41310 1.02859
 H2899 H 0.30582 0.42448 1.02351
 H2900 H 0.31361 0.42828 1.09081
 C2901 C 0.75657 1.10042 0.91000
 C2902 C 0.75352 1.07912 0.91156
 C2903 C 0.73636 1.06897 0.90291
 C2904 C 0.72176 1.08129 0.89216
 C2905 C 0.72447 1.10331 0.89040
 C2906 C 0.74205 1.11302 0.89969
 O2907 O 0.77469 1.10671 0.91791
 C2908 C 0.78327 1.08898 0.92461
 C2909 C 0.77086 1.07167 0.92120
 C2910 C 0.77723 1.05138 0.92583
 C2911 C 0.79743 1.04874 0.93382
 C2912 C 0.81083 1.06624 0.93686
 C2913 C 0.80341 1.08672 0.93267
 H2914 H 0.73449 1.05213 0.90404
 H2915 H 0.70835 1.07366 0.88522
 H2916 H 0.74477 1.12972 0.89823
 H2917 H 0.76725 1.03800 0.92283
 H2918 H 0.80290 1.03299 0.93704
 H2919 H 0.81346 1.10029 0.93438
 C2920 C 0.77199 0.61069 0.38687
 C2921 C 0.78457 0.62761 0.39132
 C2922 C 0.77835 0.64823 0.38809
 C2923 C 0.75822 0.65159 0.38016
 C2924 C 0.74482 0.63444 0.37556
 C2925 C 0.75198 0.61366 0.37871
 O2926 O 0.78051 0.59245 0.39214
 C2927 C 0.79885 0.59800 0.40012
 C2928 C 0.80208 0.61934 0.39992
 C2929 C 0.81979 0.62870 0.40830
 C2930 C 0.83469 0.61554 0.41750
 C2931 C 0.83163 0.59347 0.41823
 C2932 C 0.81356 0.58457 0.40909
 H2933 H 0.78847 0.66128 0.39191
 H2934 H 0.75308 0.66757 0.37770
 H2935 H 0.74202 0.60027 0.37572
 H2936 H 0.82191 0.64555 0.40805
 H2937 H 0.84857 0.62253 0.42418
 H2938 H 0.81070 0.56783 0.40965
 C2939 C 0.25887 1.10022 0.40857
 C2940 C 0.25561 1.07913 0.41176
 C2941 C 0.23734 1.06896 0.40580
 C2942 C 0.22183 1.08099 0.39605
 C2943 C 0.22478 1.10278 0.39251
 C2944 C 0.24355 1.11253 0.39910
 O2945 O 0.27781 1.10654 0.41429
 C2946 C 0.28669 1.08905 0.42122
 C2947 C 0.27371 1.07186 0.42006
 C2948 C 0.28011 1.05175 0.42544
 C2949 C 0.30086 1.04918 0.43192
 C2950 C 0.31474 1.06655 0.43286
 C2951 C 0.30739 1.08687 0.42782
 H2952 H 0.23525 1.05228 0.40826
 H2953 H 0.20755 1.07328 0.39126
 H2954 H 0.24648 1.12902 0.39629
 H2955 H 0.26967 1.03845 0.42420
 H2956 H 0.30629 1.03357 0.43581
 H2957 H 0.31775 1.10032 0.42799
 C2958 C 0.27052 0.62398 0.89717
 C2959 C 0.28338 0.62171 0.88006
 C2960 C 0.27730 0.62709 0.85997
 C2961 C 0.25691 0.63462 0.85731
 C2962 C 0.24319 0.63675 0.87461
 C2963 C 0.25026 0.63187 0.89492
 O2964 O 0.27881 0.61634 0.91458
 C2965 C 0.29723 0.60906 0.90827
 C2966 C 0.30076 0.61199 0.88728
 C2967 C 0.31841 0.60444 0.87707
 C2968 C 0.33305 0.59335 0.88897
 C2969 C 0.32977 0.58993 0.91064
 C2970 C 0.31167 0.59815 0.92045
 H2971 H 0.28759 0.62482 0.84672
 H2972 H 0.25158 0.63821 0.84169
 H2973 H 0.23987 0.63276 0.90827
 H2974 H 0.32069 0.60675 0.86049
 H2975 H 0.34696 0.58742 0.88131
 H2976 H 0.30861 0.59552 0.93687
 C2977 C 1.09589 1.24808 1.09067
 C2978 C 1.07446 1.24974 1.09020
 C2979 C 1.06381 1.26711 1.09789
 C2980 C 1.07573 1.28343 1.10647
 C2981 C 1.09787 1.28218 1.10706
 C2982 C 1.10807 1.26426 1.09886
 O2983 O 1.10284 1.22975 1.08366
 C2984 C 1.08541 1.21964 1.07863
 C2985 C 1.06764 1.23125 1.08224
 C2986 C 1.04764 1.22346 1.07887
 C2987 C 1.04586 1.20272 1.07188
 C2988 C 1.06391 1.19014 1.06859
 C2989 C 1.08401 1.19893 1.07162
 H2990 H 1.04691 1.26793 1.09758
 H2991 H 1.06770 1.29706 1.11257
 H2992 H 1.12491 1.26265 1.09943
 H2993 H 1.03389 1.23288 1.08190
 H2994 H 1.03038 1.19630 1.06940
 H2995 H 1.09803 1.18965 1.06958
 C2996 C 1.09818 0.74095 0.59984
 C2997 C 1.07681 0.74254 0.60189
 C2998 C 1.06705 0.75987 0.61070
 C2999 C 1.07983 0.77617 0.61790
 C3000 C 1.10190 0.77499 0.61594
 C3001 C 1.11121 0.75724 0.60648
 O3002 O 1.10427 0.72254 0.59225
 C3003 C 1.08635 0.71236 0.58943
 C3004 C 1.06912 0.72399 0.59498
 C3005 C 1.04885 0.71625 0.59396
 C3006 C 1.04619 0.69554 0.58716
 C3007 C 1.06370 0.68290 0.58181
 C3008 C 1.08409 0.69164 0.58269
 H3009 H 1.05022 0.76061 0.61240
 H3010 H 1.07254 0.78970 0.62507
 H3011 H 1.12803 0.75580 0.60518
 H3012 H 1.03555 0.72574 0.59845
 H3013 H 1.03047 0.68932 0.58619
 H3014 H 1.09779 0.68238 0.57902
 C3015 C 0.60787 1.23351 0.61693
 C3016 C 0.62450 1.22010 0.61430
 C3017 C 0.64481 1.22532 0.61990
 C3018 C 0.64823 1.24533 0.62824
 C3019 C 0.63147 1.25969 0.63087
 C3020 C 0.61089 1.25351 0.62546
 O3021 O 0.59002 1.22574 0.60960
 C3022 C 0.59558 1.20707 0.60216
 C3023 C 0.61653 1.20293 0.60468
 C3024 C 0.62598 1.18478 0.59730
 C3025 C 0.61337 1.17028 0.58677
 C3026 C 0.59172 1.17412 0.58377
 C3027 C 0.58265 1.19273 0.59184
 H3028 H 0.65765 1.21453 0.61752
 H3029 H 0.66403 1.24973 0.63242
 H3030 H 0.59785 1.26423 0.62692
 H3031 H 0.64253 1.18197 0.59937
 H3032 H 0.62047 1.15600 0.58097
 H3033 H 0.56623 1.19616 0.58962
 C3034 C 0.59288 0.74506 1.09516
 C3035 C 0.57160 0.74757 1.09350
 C3036 C 0.56158 0.76639 1.09785
 C3037 C 0.57397 0.78329 1.10443
 C3038 C 0.59598 0.78113 1.10664
 C3039 C 0.60554 0.76170 1.10164
 O3040 O 0.59917 0.72569 1.09079
 C3041 C 0.58145 0.71578 1.08632
 C3042 C 0.56413 0.72848 1.08780
 C3043 C 0.54392 0.72120 1.08448
 C3044 C 0.54142 0.69993 1.07948
 C3045 C 0.55900 0.68643 1.07784
 C3046 C 0.57934 0.69458 1.08118
 H3047 H 0.54479 0.76796 1.09645
 H3048 H 0.56629 0.79800 1.10787
 H3049 H 0.62220 0.75935 1.10334
 H3050 H 0.53053 0.73150 1.08586
 H3051 H 0.52580 0.69397 1.07677
 H3052 H 0.59302 0.68462 1.08029
 C3053 C 0.90139 1.24612 0.90711
 C3054 C 0.88314 1.23597 0.91241
 C3055 C 0.86377 1.24582 0.91257
 C3056 C 0.86313 1.26703 0.90686
 C3057 C 0.88163 1.27777 0.90084
 C3058 C 0.90104 1.26713 0.90090
 O3059 O 0.91821 1.23405 0.90895
 C3060 C 0.91036 1.21586 0.91545
 C3061 C 0.88895 1.21622 0.91758
 C3062 C 0.87741 1.19901 0.92421
 C3063 C 0.88841 1.18076 0.92933
 C3064 C 0.91062 1.18012 0.92824
 C3065 C 0.92170 1.19789 0.92073
 H3066 H 0.84968 1.23751 0.91703
 H3067 H 0.84817 1.27495 0.90669
 H3068 H 0.91539 1.27505 0.89650
 H3069 H 0.86054 1.19964 0.92552
 H3070 H 0.87956 1.16717 0.93440
 H3071 H 0.93860 1.19802 0.91982
 C3072 C 0.89139 0.73017 0.38912
 C3073 C 0.87522 0.71639 0.39285
 C3074 C 0.85457 0.72089 0.38800
 C3075 C 0.85031 0.74053 0.37918
 C3076 C 0.86662 0.75517 0.37532
 C3077 C 0.88754 0.74975 0.38008
 O3078 O 0.90972 0.72313 0.39588
 C3079 C 0.90496 0.70455 0.40406
 C3080 C 0.88405 0.69972 0.40253
 C3081 C 0.87543 0.68146 0.41071
 C3082 C 0.88888 0.66764 0.42105
 C3083 C 0.91050 0.67231 0.42314
 C3084 C 0.91869 0.69094 0.41424
 H3085 H 0.84212 0.70983 0.39124
 H3086 H 0.83426 0.74434 0.37546
 H3087 H 0.90025 0.76071 0.37762
 H3088 H 0.85890 0.67807 0.40935
 H3089 H 0.88245 0.65328 0.42746
 H3090 H 0.93507 0.69497 0.41574
 C3091 C 0.38809 1.23537 0.40305
 C3092 C 0.40907 1.24020 0.40220
 C3093 C 0.41677 1.25794 0.39214
 C3094 C 0.40229 1.27113 0.38234
 C3095 C 0.38060 1.26655 0.38302
 C3096 C 0.37334 1.24862 0.39384
 O3097 O 0.38430 1.21684 0.41180
 C3098 C 0.40327 1.20985 0.41654
 C3099 C 0.41893 1.22364 0.41110
 C3100 C 0.44001 1.21907 0.41356
 C3101 C 0.44522 1.19934 0.42169
 C3102 C 0.42944 1.18453 0.42693
 C3103 C 0.40811 1.19010 0.42466
 H3104 H 0.43338 1.26115 0.39130
 H3105 H 0.40796 1.28477 0.37395
 H3106 H 0.35690 1.24453 0.39405
 H3107 H 0.45205 1.23013 0.40899
 H3108 H 0.46159 1.19546 0.42358
 H3109 H 0.39571 1.17903 0.42809
 C3110 C 0.40088 0.74929 0.91612
 C3111 C 0.42182 0.75198 0.92013
 C3112 C 0.43247 0.77045 0.91561
 C3113 C 0.42113 0.78680 0.90639
 C3114 C 0.39952 0.78449 0.90192
 C3115 C 0.38919 0.76550 0.90717
 O3116 O 0.39413 0.73002 0.92047
 C3117 C 0.41120 0.72037 0.92734
 C3118 C 0.42853 0.73319 0.92747
 C3119 C 0.44831 0.72612 0.93295
 C3120 C 0.45042 0.70489 0.93821
 C3121 C 0.43291 0.69118 0.93789
 C3122 C 0.41291 0.69916 0.93274
 H3123 H 0.44902 0.77208 0.91870
 H3124 H 0.42925 0.80124 0.90265
 H3125 H 0.37283 0.76311 0.90361
 H3126 H 0.46174 0.73647 0.93272
 H3127 H 0.46577 0.69898 0.94220
 H3128 H 0.39938 0.68896 0.93198
 C3129 C 1.09716 0.75796 0.91230
 C3130 C 1.07567 0.75680 0.91221
 C3131 C 1.06485 0.73919 0.90539
 C3132 C 1.07663 0.72215 0.89812
 C3133 C 1.09880 0.72294 0.89798
 C3134 C 1.10921 0.74100 0.90552
 O3135 O 1.10428 0.77669 0.91797
 C3136 C 1.08692 0.78757 0.92152
 C3137 C 1.06901 0.77605 0.91830
 C3138 C 1.04910 0.78454 0.92010
 C3139 C 1.04754 0.80586 0.92515
 C3140 C 1.06574 0.81830 0.92809
 C3141 C 1.08573 0.80886 0.92660
 H3142 H 1.04793 0.73879 0.90517
 H3143 H 1.06850 0.70842 0.89239
 H3144 H 1.12609 0.74222 0.90511
 H3145 H 1.03525 0.77517 0.91736
 H3146 H 1.03213 0.81275 0.92654
 H3147 H 1.09990 0.81799 0.92842
 C3148 C 1.11161 0.27194 0.38251
 C3149 C 1.12807 0.28575 0.38389
 C3150 C 1.14871 0.27985 0.38038
 C3151 C 1.15256 0.25883 0.37519
 C3152 C 1.13585 0.24428 0.37348
 C3153 C 1.11505 0.25103 0.37707
 O3154 O 1.09337 0.28044 0.38775
 C3155 C 1.09844 0.30006 0.39255
 C3156 C 1.11949 0.30410 0.39030
 C3157 C 1.12844 0.32327 0.39540
 C3158 C 1.11528 0.33874 0.40364
 C3159 C 1.09363 0.33480 0.40676
 C3160 C 1.08499 0.31533 0.40063
 H3161 H 1.16143 0.29096 0.38188
 H3162 H 1.16853 0.25396 0.37238
 H3163 H 1.10201 0.24022 0.37626
 H3164 H 1.14506 0.32601 0.39363
 H3165 H 1.12203 0.35364 0.40819
 H3166 H 1.06862 0.31179 0.40321
 C3167 C 0.60113 0.75593 0.41032
 C3168 C 0.58030 0.75264 0.41461
 C3169 C 0.57020 0.73384 0.41027
 C3170 C 0.58200 0.71780 0.40100
 C3171 C 0.60350 0.72080 0.39618
 C3172 C 0.61320 0.74016 0.40117
 O3173 O 0.60746 0.77526 0.41481
 C3174 C 0.59023 0.78437 0.42204
 C3175 C 0.57318 0.77117 0.42224
 C3176 C 0.55331 0.77771 0.42817
 C3177 C 0.55083 0.79879 0.43386
 C3178 C 0.56809 0.81281 0.43359
 C3179 C 0.58816 0.80538 0.42792
 H3180 H 0.55374 0.73169 0.41366
 H3181 H 0.57428 0.70311 0.39754
 H3182 H 0.62944 0.74317 0.39745
 H3183 H 0.54010 0.76708 0.42798
 H3184 H 0.53541 0.80432 0.43821
 H3185 H 0.60149 0.81584 0.42720
 C3186 C 0.61604 0.26770 0.89708
 C3187 C 0.61273 0.27951 0.87941
 C3188 C 0.61515 0.27155 0.85935
 C3189 C 0.62117 0.25050 0.85741
 C3190 C 0.62490 0.23809 0.87535
 C3191 C 0.62253 0.24683 0.89549
 O3192 O 0.61139 0.27791 0.91457
 C3193 C 0.60505 0.29655 0.90777
 C3194 C 0.60575 0.29832 0.88638
 C3195 C 0.59915 0.31612 0.87580
 C3196 C 0.59108 0.33266 0.88770
 C3197 C 0.58944 0.33106 0.90978
 C3198 C 0.59700 0.31286 0.91997
 H3199 H 0.61206 0.28106 0.84570
 H3200 H 0.62288 0.24380 0.84197
 H3201 H 0.62493 0.23745 0.90937
 H3202 H 0.59985 0.31710 0.85895
 H3203 H 0.58578 0.34662 0.87967
 H3204 H 0.59574 0.31106 0.93673
 C3205 C 0.88675 0.77226 1.11092
 C3206 C 0.89053 0.78637 1.12669
 C3207 C 0.88622 0.78210 1.14752
 C3208 C 0.87788 0.76235 1.15238
 C3209 C 0.87392 0.74741 1.13648
 C3210 C 0.87811 0.75259 1.11537
 O3211 O 0.89323 0.77904 1.09235
 C3212 C 0.90129 0.79779 1.09655
 C3213 C 0.89993 0.80298 1.11735
 C3214 C 0.90819 0.82138 1.12547
 C3215 C 0.91852 0.83492 1.11164
 C3216 C 0.92053 0.82985 1.09015
 C3217 C 0.91144 0.81115 1.08243
 H3218 H 0.88959 0.79339 1.15966
 H3219 H 0.87465 0.75866 1.16857
 H3220 H 0.87562 0.74135 1.10298
 H3221 H 0.90701 0.82503 1.14192
 H3222 H 0.92512 0.84933 1.11770
 H3223 H 0.91292 0.80681 1.06617
 C3224 C 0.91051 0.25404 0.59449
 C3225 C 0.90895 0.25190 0.57319
 C3226 C 0.89968 0.23463 0.56377
 C3227 C 0.89145 0.21901 0.57685
 C3228 C 0.89288 0.22080 0.59886
 C3229 C 0.90287 0.23841 0.60781
 O3230 O 0.91843 0.27242 0.60021
 C3231 C 0.92195 0.28204 0.58212
 C3232 C 0.91652 0.27008 0.56514
 C3233 C 0.91798 0.27737 0.54475
 C3234 C 0.92505 0.29797 0.54172
 C3235 C 0.93024 0.31093 0.55898
 C3236 C 0.92898 0.30263 0.57948
 H3237 H 0.89831 0.23349 0.54698
 H3238 H 0.88381 0.20560 0.56986
 H3239 H 0.90370 0.24035 0.62457
 H3240 H 0.91352 0.26766 0.53165
 H3241 H 0.92625 0.30391 0.52593
 H3242 H 0.93244 0.31219 0.59299
 C3243 C 0.38097 0.77081 0.60749
 C3244 C 0.38543 0.78348 0.62427
 C3245 C 0.38182 0.77745 0.64481
 C3246 C 0.37367 0.75733 0.64824
 C3247 C 0.36907 0.74392 0.63124
 C3248 C 0.37233 0.75089 0.61054
 O3249 O 0.38732 0.77886 0.58941
 C3250 C 0.39601 0.79695 0.59494
 C3251 C 0.39517 0.80052 0.61609
 C3252 C 0.40433 0.81784 0.62548
 C3253 C 0.41494 0.83207 0.61256
 C3254 C 0.41640 0.82865 0.59070
 C3255 C 0.40649 0.81094 0.58175
 H3256 H 0.38589 0.78753 0.65776
 H3257 H 0.37143 0.75193 0.66412
 H3258 H 0.36956 0.74061 0.59739
 H3259 H 0.40358 0.82019 0.64219
 H3260 H 0.42206 0.84574 0.61960
 H3261 H 0.40756 0.80778 0.56519
 C3262 C 0.39388 0.26827 1.11145
 C3263 C 0.37733 0.28157 1.10799
 C3264 C 0.35681 0.27636 1.11293
 C3265 C 0.35311 0.25648 1.12153
 C3266 C 0.36983 0.24228 1.12503
 C3267 C 0.39059 0.24845 1.12023
 O3268 O 0.41201 0.27597 1.10468
 C3269 C 0.40672 0.29448 1.09673
 C3270 C 0.38567 0.29861 1.09841
 C3271 C 0.37652 0.31663 1.09039
 C3272 C 0.38957 0.33098 1.08010
 C3273 C 0.41134 0.32709 1.07795
 C3274 C 0.42007 0.30865 1.08665
 H3275 H 0.34404 0.28706 1.10990
 H3276 H 0.33718 0.25211 1.12529
 H3277 H 0.40362 0.23786 1.12238
 H3278 H 0.35989 0.31944 1.09181
 H3279 H 0.38273 0.34516 1.07381
 H3280 H 0.43657 0.30519 1.08509
 C3281 C 1.10915 1.11127 0.76375
 C3282 C 1.10019 1.12851 0.77301
 C3283 C 1.09876 1.14786 0.76324
 C3284 C 1.10668 1.14955 0.74293
 C3285 C 1.11648 1.13219 0.73293
 C3286 C 1.11814 1.11285 0.74384
 O3287 O 1.10706 1.09390 0.77512
 C3288 C 1.09668 1.10045 0.79194
 C3289 C 1.09244 1.12156 0.79146
 C3290 C 1.08159 1.13181 0.80720
 C3291 C 1.07448 1.11977 0.82406
 C3292 C 1.07756 1.09766 0.82464
 C3293 C 1.08925 1.08798 0.80838
 H3294 H 1.09126 1.16107 0.77076
 H3295 H 1.10544 1.16461 0.73523
 H3296 H 1.12496 1.09911 0.73660
 H3297 H 1.07869 1.14853 0.80652
 H3298 H 1.06648 1.12782 0.83660
 H3299 H 1.09185 1.07121 0.80809
 C3300 C 1.11046 0.61117 0.26810
 C3301 C 1.10528 0.62840 0.27986
 C3302 C 1.10604 0.64873 0.27219
 C3303 C 1.11237 0.65151 0.25145
 C3304 C 1.11825 0.63411 0.23879
 C3305 C 1.11748 0.61359 0.24752
 O3306 O 1.10716 0.59314 0.27808
 C3307 C 1.09982 0.59923 0.29655
 C3308 C 1.09861 0.62068 0.29842
 C3309 C 1.09100 0.63061 0.31612
 C3310 C 1.08388 0.61793 0.33249
 C3311 C 1.08400 0.59569 0.33079
 C3312 C 1.09258 0.58621 0.31266
 H3313 H 1.10157 0.66199 0.28173
 H3314 H 1.11303 0.66740 0.24559
 H3315 H 1.12135 0.59983 0.23842
 H3316 H 1.09035 0.64755 0.31721
 H3317 H 1.07797 0.62550 0.34643
 H3318 H 1.09277 0.56934 0.31079
 C3319 C 0.58668 1.09726 0.25134
 C3320 C 0.58547 1.07581 0.24963
 C3321 C 0.59191 1.06503 0.23197
 C3322 C 0.60012 1.07677 0.21536
 C3323 C 0.60169 1.09905 0.21648
 C3324 C 0.59445 1.10938 0.23480
 O3325 O 0.58088 1.10421 0.27005
 C3326 C 0.57592 1.08673 0.28031
 C3327 C 0.57839 1.06896 0.26840
 C3328 C 0.57501 1.04888 0.27612
 C3329 C 0.56916 1.04694 0.29712
 C3330 C 0.56696 1.06492 0.31000
 C3331 C 0.57001 1.08517 0.30132
 H3332 H 0.59098 1.04810 0.23112
 H3333 H 0.60508 1.06823 0.20166
 H3334 H 0.59562 1.12620 0.23664
 H3335 H 0.57717 1.03515 0.26644
 H3336 H 0.56665 1.03138 0.30346
 H3337 H 0.56876 1.09914 0.31083
 C3338 C 0.58344 0.60310 0.75663
 C3339 C 0.58088 0.58173 0.75496
 C3340 C 0.58570 0.57066 0.73692
 C3341 C 0.59393 0.58199 0.72002
 C3342 C 0.59709 0.60398 0.72140
 C3343 C 0.59131 0.61476 0.73985
 O3344 O 0.57940 0.61028 0.77569
 C3345 C 0.57425 0.59306 0.78625
 C3346 C 0.57491 0.57519 0.77424
 C3347 C 0.57153 0.55525 0.78237
 C3348 C 0.56748 0.55360 0.80382
 C3349 C 0.56690 0.57173 0.81665
 C3350 C 0.57002 0.59179 0.80764
 H3351 H 0.58384 0.55380 0.73610
 H3352 H 0.59829 0.57356 0.70601
 H3353 H 0.59407 0.63143 0.74154
 H3354 H 0.57243 0.54141 0.77264
 H3355 H 0.56501 0.53818 0.81051
 H3356 H 0.57006 0.60583 0.81714
 C3357 C 0.90199 0.90028 0.75862
 C3358 C 0.88403 0.90353 0.77003
 C3359 C 0.86413 0.90182 0.76156
 C3360 C 0.86265 0.89657 0.74039
 C3361 C 0.88088 0.89288 0.72828
 C3362 C 0.90086 0.89456 0.73760
 O3363 O 0.91931 0.90400 0.76942
 C3364 C 0.91208 0.90968 0.78806
 C3365 C 0.89060 0.90946 0.78922
 C3366 C 0.87961 0.91536 0.80697
 C3367 C 0.89121 0.92219 0.82416
 C3368 C 0.91339 0.92335 0.82324
 C3369 C 0.92399 0.91654 0.80501
 H3370 H 0.85026 0.90476 0.77082
 H3371 H 0.84729 0.89523 0.73347
 H3372 H 0.91501 0.89213 0.72860
 H3373 H 0.86270 0.91500 0.80749
 H3374 H 0.88285 0.92688 0.83811
 H3375 H 0.94085 0.91743 0.80373
 C3376 C 0.88522 0.39981 0.26821
 C3377 C 0.89270 0.38298 0.27932
 C3378 C 0.89405 0.36290 0.27114
 C3379 C 0.88759 0.35998 0.25053
 C3380 C 0.87920 0.37686 0.23868
 C3381 C 0.87752 0.39703 0.24796
 O3382 O 0.88779 0.41797 0.27815
 C3383 C 0.89697 0.41234 0.29591
 C3384 C 0.89992 0.39103 0.29742
 C3385 C 0.90984 0.38157 0.31415
 C3386 C 0.91763 0.39462 0.32980
 C3387 C 0.91612 0.41682 0.32818
 C3388 C 0.90500 0.42578 0.31123
 H3389 H 0.90054 0.35005 0.28006
 H3390 H 0.88880 0.34436 0.24405
 H3391 H 0.87186 0.41041 0.23922
 H3392 H 0.91183 0.36473 0.31497
 H3393 H 0.92536 0.38737 0.34296
 H3394 H 0.90369 0.44262 0.30943
 C3395 C 0.38383 0.89166 0.27090
 C3396 C 0.38943 0.87484 0.28308
 C3397 C 0.38824 0.85425 0.27629
 C3398 C 0.38115 0.85074 0.25598
 C3399 C 0.37496 0.86771 0.24290
 C3400 C 0.37597 0.88851 0.25080
 O3401 O 0.38795 0.91002 0.27984
 C3402 C 0.39628 0.90458 0.29805
 C3403 C 0.39728 0.88321 0.30080
 C3404 C 0.40606 0.87388 0.31825
 C3405 C 0.41461 0.88710 0.33338
 C3406 C 0.41467 0.90923 0.33066
 C3407 C 0.40488 0.91812 0.31292
 H3408 H 0.39309 0.84133 0.28612
 H3409 H 0.38025 0.83465 0.25074
 H3410 H 0.37192 0.90193 0.24127
 H3411 H 0.40661 0.85699 0.32000
 H3412 H 0.42152 0.88003 0.34709
 H3413 H 0.40484 0.93490 0.31031
 C3414 C 0.40206 0.39238 0.76208
 C3415 C 0.38503 0.39570 0.77483
 C3416 C 0.36455 0.39282 0.76831
 C3417 C 0.36143 0.38624 0.74774
 C3418 C 0.37866 0.38244 0.73429
 C3419 C 0.39931 0.38532 0.74161
 O3420 O 0.42009 0.39740 0.77107
 C3421 C 0.41425 0.40400 0.78989
 C3422 C 0.39296 0.40306 0.79294
 C3423 C 0.38324 0.40975 0.81113
 C3424 C 0.39593 0.41821 0.82672
 C3425 C 0.41788 0.42015 0.82380
 C3426 C 0.42725 0.41246 0.80526
 H3427 H 0.35143 0.39585 0.77859
 H3428 H 0.34557 0.38391 0.74232
 H3429 H 0.41268 0.38274 0.73152
 H3430 H 0.36645 0.40882 0.81311
 H3431 H 0.38858 0.42364 0.84098
 H3432 H 0.44390 0.41390 0.80253
 C3433 C 1.09734 0.89639 1.23951
 C3434 C 1.09772 0.91776 1.24259
 C3435 C 1.10587 0.92694 1.26045
 C3436 C 1.11435 0.91360 1.27561
 C3437 C 1.11429 0.89153 1.27281
 C3438 C 1.10527 0.88275 1.25467
 O3439 O 1.09035 0.89107 1.22073
 C3440 C 1.08626 0.90946 1.21182
 C3441 C 1.09044 0.92625 1.22461
 C3442 C 1.08832 0.94695 1.21816
 C3443 C 1.08177 0.95056 1.19762
 C3444 C 1.07766 0.93358 1.18389
 C3445 C 1.07970 0.91269 1.19128
 H3446 H 1.10633 0.94380 1.26235
 H3447 H 1.12134 0.92045 1.28938
 H3448 H 1.10559 0.86600 1.25192
 H3449 H 1.09187 0.95989 1.22849
 H3450 H 1.08001 0.96661 1.19237
 H3451 H 1.07704 0.89940 1.18112
 C3452 C 1.10140 0.40261 0.74257
 C3453 C 1.09684 0.38381 0.73307
 C3454 C 1.09791 0.36466 0.74337
 C3455 C 1.10382 0.36487 0.76439
 C3456 C 1.10886 0.38399 0.77451
 C3457 C 1.10786 0.40313 0.76339
 O3458 O 1.09821 0.41907 0.73024
 C3459 C 1.09159 0.41043 0.71259
 C3460 C 1.09066 0.38890 0.71351
 C3461 C 1.08391 0.37663 0.69696
 C3462 C 1.07759 0.38697 0.67876
 C3463 C 1.07768 0.40925 0.67750
 C3464 C 1.08512 0.42109 0.69468
 H3465 H 1.09397 0.35012 0.73561
 H3466 H 1.10460 0.35014 0.77279
 H3467 H 1.11134 0.41793 0.77090
 H3468 H 1.08345 0.35969 0.69806
 H3469 H 1.07256 0.37754 0.66566
 H3470 H 1.08522 0.43807 0.69441
 C3471 C 0.61657 0.90082 0.73638
 C3472 C 0.61336 0.88327 0.72432
 C3473 C 0.61633 0.86299 0.73172
 C3474 C 0.62261 0.86066 0.75250
 C3475 C 0.62603 0.87845 0.76531
 C3476 C 0.62333 0.89887 0.75704
 O3477 O 0.61128 0.91851 0.72673
 C3478 C 0.60460 0.91194 0.70822
 C3479 C 0.60569 0.89050 0.70600
 C3480 C 0.59861 0.88006 0.68838
 C3481 C 0.58976 0.89215 0.67246
 C3482 C 0.58791 0.91427 0.67445
 C3483 C 0.59583 0.92435 0.69248
 H3484 H 0.61335 0.84944 0.72200
 H3485 H 0.62461 0.84498 0.75872
 H3486 H 0.62539 0.91265 0.76668
 H3487 H 0.59956 0.86315 0.68708
 H3488 H 0.58411 0.88423 0.65863
 H3489 H 0.59440 0.94114 0.69456
 C3490 C 0.61826 0.38383 1.22434
 C3491 C 0.61510 0.36831 1.20986
 C3492 C 0.62066 0.34757 1.21323
 C3493 C 0.62978 0.34251 1.23242
 C3494 C 0.63328 0.35814 1.24792
 C3495 C 0.62751 0.37923 1.24351
 O3496 O 0.61107 0.40241 1.21824
 C3497 C 0.60320 0.39844 1.19949
 C3498 C 0.60534 0.37779 1.19367
 C3499 C 0.59775 0.36994 1.17498
 C3500 C 0.58728 0.38390 1.16179
 C3501 C 0.58448 0.40525 1.16750
 C3502 C 0.59287 0.41269 1.18653
 H3503 H 0.61787 0.33562 1.20158
 H3504 H 0.63407 0.32632 1.23490
 H3505 H 0.62956 0.39171 1.25474
 H3506 H 0.59964 0.35361 1.17079
 H3507 H 0.58129 0.37807 1.14711
 H3508 H 0.59085 0.42884 1.19134
 C3509 C 0.90070 1.09563 1.24123
 C3510 C 0.92202 1.09596 1.24396
 C3511 C 0.93157 1.10626 1.26050
 C3512 C 0.91860 1.11666 1.27484
 C3513 C 0.89657 1.11629 1.27253
 C3514 C 0.88749 1.10544 1.25558
 O3515 O 0.89492 1.08641 1.22358
 C3516 C 0.91299 1.08076 1.21502
 C3517 C 0.93001 1.08608 1.22699
 C3518 C 0.95048 1.08255 1.22062
 C3519 C 0.95357 1.07370 1.20085
 C3520 C 0.93633 1.06889 1.18775
 C3521 C 0.91571 1.07196 1.19524
 H3522 H 0.94841 1.10665 1.26208
 H3523 H 0.92570 1.12489 1.28778
 H3524 H 0.87073 1.10530 1.25323
 H3525 H 0.96361 1.08695 1.23028
 H3526 H 0.96944 1.07119 1.19546
 H3527 H 0.90227 1.06885 1.18549
 C3528 C 0.89445 0.60565 0.73876
 C3529 C 0.87728 0.60006 0.72714
 C3530 C 0.85687 0.60282 0.73407
 C3531 C 0.85398 0.61159 0.75389
 C3532 C 0.87137 0.61764 0.76619
 C3533 C 0.89192 0.61486 0.75840
 O3534 O 0.91246 0.60064 0.72963
 C3535 C 0.90649 0.59174 0.71187
 C3536 C 0.88512 0.59116 0.70960
 C3537 C 0.87536 0.58230 0.69244
 C3538 C 0.88812 0.57345 0.67701
 C3539 C 0.91025 0.57323 0.67911
 C3540 C 0.91954 0.58283 0.69675
 H3541 H 0.84364 0.59806 0.72469
 H3542 H 0.83819 0.61373 0.75965
 H3543 H 0.90545 0.61905 0.76761
 H3544 H 0.85850 0.58216 0.69099
 H3545 H 0.88069 0.56678 0.66339
 H3546 H 0.93632 0.58286 0.69891
 C3547 C 0.40200 1.09070 0.74098
 C3548 C 0.42333 1.09181 0.74348
 C3549 C 0.43266 1.10132 0.76061
 C3550 C 0.41945 1.11027 0.77567
 C3551 C 0.39742 1.10925 0.77349
 C3552 C 0.38856 1.09900 0.75608
 O3553 O 0.39639 1.08272 0.72270
 C3554 C 0.41457 1.07870 0.71348
 C3555 C 0.43152 1.08383 0.72561
 C3556 C 0.45202 1.08197 0.71863
 C3557 C 0.45520 1.07486 0.69817
 C3558 C 0.43799 1.07009 0.68503
 C3559 C 0.41737 1.07166 0.69303
 H3560 H 0.44949 1.10241 0.76198
 H3561 H 0.42634 1.11823 0.78889
 H3562 H 0.37180 1.09858 0.75378
 H3563 H 0.46510 1.08623 0.72843
 H3564 H 0.47109 1.07343 0.69246
 H3565 H 0.40390 1.06856 0.68332
 C3566 C 0.39600 0.59774 1.24214
 C3567 C 0.37814 0.59321 1.23113
 C3568 C 0.35820 0.59505 1.23960
 C3569 C 0.35658 0.60175 1.26035
 C3570 C 0.37471 0.60669 1.27205
 C3571 C 0.39472 0.60485 1.26272
 O3572 O 0.41341 0.59395 1.23140
 C3573 C 0.40633 0.58694 1.21322
 C3574 C 0.38486 0.58634 1.21227
 C3575 C 0.37407 0.57925 1.19490
 C3576 C 0.38587 0.57221 1.17786
 C3577 C 0.40809 0.57203 1.17854
 C3578 C 0.41844 0.57985 1.19645
 H3579 H 0.34441 0.59118 1.23065
 H3580 H 0.34117 0.60323 1.26724
 H3581 H 0.40882 0.60826 1.27140
 H3582 H 0.35715 0.57905 1.19452
 H3583 H 0.37763 0.56685 1.16413
 H3584 H 0.43533 0.57979 1.19757
 C3585 C 1.09476 1.25281 0.91619
 C3586 C 1.07345 1.25484 0.91807
 C3587 C 1.06291 1.27311 0.91290
 C3588 C 1.07473 1.28994 0.90516
 C3589 C 1.09684 1.28839 0.90274
 C3590 C 1.10696 1.26951 0.90888
 O3591 O 1.10148 1.23362 0.92079
 C3592 C 1.08400 1.22338 0.92564
 C3593 C 1.06644 1.23573 0.92428
 C3594 C 1.04638 1.22810 0.92777
 C3595 C 1.04426 1.20676 0.93264
 C3596 C 1.06204 1.19348 0.93379
 C3597 C 1.08226 1.20206 0.93054
 H3598 H 1.04608 1.27425 0.91438
 H3599 H 1.06641 1.30411 0.90111
 H3600 H 1.12363 1.26735 0.90707
 H3601 H 1.03280 1.23814 0.92648
 H3602 H 1.02872 1.20054 0.93537
 H3603 H 1.09609 1.19228 0.93099
 C3604 C 1.11150 0.72812 0.38360
 C3605 C 1.12752 0.71527 0.38992
 C3606 C 1.14840 0.71984 0.38630
 C3607 C 1.15311 0.73867 0.37612
 C3608 C 1.13704 0.75262 0.36949
 C3609 C 1.11579 0.74682 0.37283
 O3610 O 1.09281 0.72130 0.38988
 C3611 C 1.09726 0.70381 0.40034
 C3612 C 1.11829 0.69945 0.40067
 C3613 C 1.12667 0.68239 0.41116
 C3614 C 1.11282 0.66924 0.42195
 C3615 C 1.09100 0.67344 0.42238
 C3616 C 1.08310 0.69091 0.41111
 H3617 H 1.16070 0.70947 0.39157
 H3618 H 1.16945 0.74217 0.37338
 H3619 H 1.10305 0.75704 0.36840
 H3620 H 1.14332 0.67934 0.41114
 H3621 H 1.11916 0.65569 0.42991
 H3622 H 1.06658 0.69462 0.41118
 C3623 C 0.62894 1.22108 0.38659
 C3624 C 0.62580 1.20647 0.37117
 C3625 C 0.63237 1.20941 0.35074
 C3626 C 0.64221 1.22841 0.34581
 C3627 C 0.64529 1.24423 0.36121
 C3628 C 0.63894 1.24009 0.38211
 O3629 O 0.62060 1.21545 0.40479
 C3630 C 0.61198 1.19693 0.40067
 C3631 C 0.61476 1.19079 0.38029
 C3632 C 0.60630 1.17245 0.37222
 C3633 C 0.59440 1.15990 0.38571
 C3634 C 0.59116 1.16585 0.40682
 C3635 C 0.60031 1.18455 0.41447
 H3636 H 0.62967 1.19764 0.33890
 H3637 H 0.64725 1.23058 0.32985
 H3638 H 0.64069 1.25158 0.39438
 H3639 H 0.60860 1.16807 0.35606
 H3640 H 0.58774 1.14548 0.37975
 H3641 H 0.59793 1.18953 0.43045
 C3642 C 0.60343 0.74022 0.89676
 C3643 C 0.62062 0.72891 0.90302
 C3644 C 0.64081 0.73705 0.90274
 C3645 C 0.64339 0.75776 0.89581
 C3646 C 0.62599 0.76966 0.88901
 C3647 C 0.60574 0.76069 0.88924
 O3648 O 0.58551 0.73004 0.89974
 C3649 C 0.59155 0.71189 0.90800
 C3650 C 0.61290 0.71041 0.91012
 C3651 C 0.62267 0.69311 0.91889
 C3652 C 0.60991 0.67678 0.92617
 C3653 C 0.58774 0.67816 0.92500
 C3654 C 0.57848 0.69585 0.91532
 H3655 H 0.65402 0.72794 0.90810
 H3656 H 0.65892 0.76456 0.89572
 H3657 H 0.59218 0.76966 0.88451
 H3658 H 0.63951 0.69230 0.92031
 H3659 H 0.61735 0.66315 0.93297
 H3660 H 0.56166 0.69749 0.91434
 C3661 C 0.89858 1.24403 1.09337
 C3662 C 0.91971 1.24687 1.09044
 C3663 C 0.92997 1.26536 1.09561
 C3664 C 0.91801 1.28154 1.10440
 C3665 C 0.89620 1.27900 1.10781
 C3666 C 0.88631 1.26004 1.10188
 O3667 O 0.89216 1.22482 1.08852
 C3668 C 0.90964 1.21534 1.08243
 C3669 C 0.92692 1.22819 1.08330
 C3670 C 0.94699 1.22125 1.07866
 C3671 C 0.94941 1.20012 1.07314
 C3672 C 0.93192 1.18640 1.07240
 C3673 C 0.91168 1.19426 1.07681
 H3674 H 0.94666 1.26712 1.09336
 H3675 H 0.92580 1.29597 1.10870
 H3676 H 0.86980 1.25745 1.10464
 H3677 H 0.96036 1.23162 1.07964
 H3678 H 0.96496 1.19436 1.06963
 H3679 H 0.89811 1.18409 1.07671
 C3680 C 0.90341 0.74051 0.60216
 C3681 C 0.90700 0.72990 0.62049
 C3682 C 0.90698 0.73965 0.63988
 C3683 C 0.90285 0.76124 0.64045
 C3684 C 0.89851 0.77246 0.62185
 C3685 C 0.89877 0.76192 0.60242
 O3686 O 0.90525 0.72843 0.58536
 C3687 C 0.91000 0.70977 0.59330
 C3688 C 0.91100 0.70985 0.61474
 C3689 C 0.91585 0.69216 0.62637
 C3690 C 0.92049 0.67374 0.61545
 C3691 C 0.92070 0.67337 0.59326
 C3692 C 0.91480 0.69159 0.58204
 H3693 H 0.91014 0.73098 0.65405
 H3694 H 0.90252 0.76910 0.65542
 H3695 H 0.89565 0.77019 0.58799
 H3696 H 0.91633 0.69260 0.64324
 H3697 H 0.92442 0.65983 0.62433
 H3698 H 0.91495 0.69190 0.56515
 C3699 C 0.39251 1.22405 0.62465
 C3700 C 0.37713 1.20926 0.62191
 C3701 C 0.35660 1.21228 0.62817
 C3702 C 0.35152 1.23151 0.63735
 C3703 C 0.36692 1.24745 0.64015
 C3704 C 0.38790 1.24328 0.63405
 O3705 O 0.41080 1.21836 0.61652
 C3706 C 0.40677 1.19959 0.60845
 C3707 C 0.38638 1.19335 0.61140
 C3708 C 0.37838 1.17476 0.60348
 C3709 C 0.39192 1.16208 0.59185
 C3710 C 0.41299 1.16818 0.58829
 C3711 C 0.42062 1.18710 0.59700
 H3712 H 0.34478 1.20037 0.62572
 H3713 H 0.33547 1.23376 0.64216
 H3714 H 0.40015 1.25489 0.63555
 H3715 H 0.36221 1.17030 0.60592
 H3716 H 0.38598 1.14750 0.58553
 H3717 H 0.43657 1.19220 0.59436
 C3718 C 0.38293 0.72513 1.12116
 C3719 C 0.36663 0.71267 1.11481
 C3720 C 0.34598 0.71934 1.11496
 C3721 C 0.34189 0.73975 1.12196
 C3722 C 0.35833 0.75298 1.12908
 C3723 C 0.37918 0.74527 1.12883
 O3724 O 0.40155 0.71639 1.11804
 C3725 C 0.39684 0.69796 1.10958
 C3726 C 0.37564 0.69489 1.10753
 C3727 C 0.36712 0.67713 1.09840
 C3728 C 0.38101 0.66213 1.09052
 C3729 C 0.40300 0.66530 1.09145
 C3730 C 0.41102 0.68325 1.10169
 H3731 H 0.33347 0.70933 1.10947
 H3732 H 0.32580 0.74493 1.12209
 H3733 H 0.39230 0.75489 1.13350
 H3734 H 0.35038 0.67508 1.09700
 H3735 H 0.37460 0.64827 1.08316
 H3736 H 0.42767 0.68622 1.10242
 C3737 C 0.91923 0.75828 0.89730
 C3738 C 0.92135 0.75517 0.91845
 C3739 C 0.91452 0.73705 0.92848
 C3740 C 0.90477 0.72166 0.91629
 C3741 C 0.90239 0.72452 0.89451
 C3742 C 0.91009 0.74288 0.88478
 O3743 O 0.92472 0.77746 0.89124
 C3744 C 0.93039 0.78664 0.90894
 C3745 C 0.92872 0.77362 0.92600
 C3746 C 0.93239 0.78039 0.94626
 C3747 C 0.93771 0.80152 0.94911
 C3748 C 0.93902 0.81548 0.93186
 C3749 C 0.93572 0.80776 0.91142
 H3750 H 0.91585 0.73521 0.94522
 H3751 H 0.89856 0.70775 0.92383
 H3752 H 0.90770 0.74570 0.86829
 H3753 H 0.93071 0.76990 0.95946
 H3754 H 0.94042 0.80712 0.96482
 H3755 H 0.93614 0.81809 0.89800
 C3756 C 0.91120 0.26106 0.39398
 C3757 C 0.91320 0.25807 0.41514
 C3758 C 0.90502 0.24069 0.42547
 C3759 C 0.89428 0.22578 0.41351
 C3760 C 0.89215 0.22837 0.39165
 C3761 C 0.90097 0.24617 0.38171
 O3762 O 0.91852 0.27950 0.38755
 C3763 C 0.92530 0.28833 0.40504
 C3764 C 0.92254 0.27576 0.42231
 C3765 C 0.92732 0.28229 0.44240
 C3766 C 0.93470 0.30283 0.44489
 C3767 C 0.93696 0.31644 0.42746
 C3768 C 0.93273 0.30886 0.40715
 H3769 H 0.90643 0.23892 0.44220
 H3770 H 0.88762 0.21222 0.42128
 H3771 H 0.89915 0.24876 0.36512
 H3772 H 0.92482 0.27217 0.45576
 H3773 H 0.93795 0.30843 0.46049
 H3774 H 0.93384 0.31905 0.39366
 C3775 C 0.39477 0.76005 0.40137
 C3776 C 0.39936 0.77187 0.38402
 C3777 C 0.39973 0.76362 0.36399
 C3778 C 0.39508 0.74227 0.36167
 C3779 C 0.38962 0.72964 0.37920
 C3780 C 0.38933 0.73891 0.39937
 O3781 O 0.39714 0.77056 0.41913
 C3782 C 0.40326 0.78947 0.41278
 C3783 C 0.40454 0.79109 0.39140
 C3784 C 0.41112 0.80917 0.38126
 C3785 C 0.41730 0.82612 0.39365
 C3786 C 0.41736 0.82458 0.41580
 C3787 C 0.40959 0.80615 0.42550
 H3788 H 0.40385 0.77320 0.35064
 H3789 H 0.39530 0.73587 0.34605
 H3790 H 0.38587 0.72984 0.41325
 H3791 H 0.41189 0.81007 0.36441
 H3792 H 0.42268 0.84027 0.38594
 H3793 H 0.40963 0.80441 0.44231
 C3794 C 0.38396 0.27388 0.88409
 C3795 C 0.38838 0.28710 0.86767
 C3796 C 0.38395 0.28208 0.84707
 C3797 C 0.37494 0.26243 0.84316
 C3798 C 0.37046 0.24835 0.85975
 C3799 C 0.37466 0.25435 0.88058
 O3800 O 0.39058 0.28122 0.90231
 C3801 C 0.39938 0.29942 0.89724
 C3802 C 0.39839 0.30373 0.87623
 C3803 C 0.40736 0.32148 0.86732
 C3804 C 0.41787 0.33535 0.88059
 C3805 C 0.41937 0.33124 0.90233
 C3806 C 0.40974 0.31307 0.91077
 H3807 H 0.38779 0.29267 0.83440
 H3808 H 0.37175 0.25806 0.82717
 H3809 H 0.37182 0.24375 0.89349
 H3810 H 0.40645 0.32445 0.85072
 H3811 H 0.42479 0.34937 0.87393
 H3812 H 0.41077 0.30941 0.92724
 C3813 C 1.11596 0.77232 1.10976
 C3814 C 1.13256 0.78366 1.10210
 C3815 C 1.15296 0.77626 1.10228
 C3816 C 1.15645 0.75628 1.11073
 C3817 C 1.13969 0.74421 1.11920
 C3818 C 1.11911 0.75264 1.11877
 O3819 O 1.09766 0.78175 1.10691
 C3820 C 1.10289 0.79949 1.09731
 C3821 C 1.12409 0.80146 1.09421
 C3822 C 1.13308 0.81859 1.08428
 C3823 C 1.11965 0.83421 1.07687
 C3824 C 1.09757 0.83227 1.07900
 C3825 C 1.08914 0.81476 1.08980
 H3826 H 1.16573 0.78541 1.09588
 H3827 H 1.17236 0.75056 1.11092
 H3828 H 1.10575 0.74395 1.12454
 H3829 H 1.14984 0.81984 1.08220
 H3830 H 1.12651 0.84776 1.06928
 H3831 H 1.07243 0.81269 1.09161
 C3832 C 1.10135 0.25170 0.57782
 C3833 C 1.07998 0.24978 0.57676
 C3834 C 1.06921 0.23260 0.58465
 C3835 C 1.08088 0.21681 0.59434
 C3836 C 1.10307 0.21812 0.59564
 C3837 C 1.11344 0.23571 0.58667
 O3838 O 1.10819 0.27035 0.57138
 C3839 C 1.09071 0.28033 0.56612
 C3840 C 1.07308 0.26826 0.56892
 C3841 C 1.05301 0.27579 0.56560
 C3842 C 1.05092 0.29681 0.55964
 C3843 C 1.06872 0.31000 0.55749
 C3844 C 1.08899 0.30143 0.56023
 H3845 H 1.05232 0.23170 0.58400
 H3846 H 1.07246 0.20350 0.60066
 H3847 H 1.13021 0.23769 0.58783
 H3848 H 1.03939 0.26598 0.56805
 H3849 H 1.03534 0.30300 0.55729
 H3850 H 1.10283 0.31117 0.55909
 C3851 C 0.61028 0.76966 0.61902
 C3852 C 0.62711 0.78232 0.61436
 C3853 C 0.64771 0.77601 0.61717
 C3854 C 0.65115 0.75572 0.62488
 C3855 C 0.63411 0.74234 0.62985
 C3856 C 0.61336 0.74955 0.62718
 O3857 O 0.59207 0.77815 0.61374
 C3858 C 0.59753 0.79656 0.60559
 C3859 C 0.61880 0.79986 0.60574
 C3860 C 0.62809 0.81762 0.59722
 C3861 C 0.61499 0.83248 0.58788
 C3862 C 0.59301 0.82928 0.58694
 C3863 C 0.58414 0.81118 0.59633
 H3864 H 0.66068 0.78615 0.61305
 H3865 H 0.66708 0.75034 0.62681
 H3866 H 0.60009 0.73946 0.63038
 H3867 H 0.64488 0.81982 0.59748
 H3868 H 0.62202 0.84641 0.58116
 H3869 H 0.56749 0.80818 0.59568
 C3870 C 0.60541 0.25903 1.09155
 C3871 C 0.58435 0.25536 1.08912
 C3872 C 0.57449 0.23741 1.09657
 C3873 C 0.58679 0.22261 1.10704
 C3874 C 0.60857 0.22584 1.10966
 C3875 C 0.61809 0.24421 1.10155
 O3876 O 0.61128 0.27784 1.08464
 C3877 C 0.59353 0.28616 1.07770
 C3878 C 0.57667 0.27292 1.07999
 C3879 C 0.55642 0.27866 1.07473
 C3880 C 0.55328 0.29905 1.06722
 C3881 C 0.57022 0.31336 1.06530
 C3882 C 0.59076 0.30662 1.07018
 H3883 H 0.55783 0.23507 1.09477
 H3884 H 0.57934 0.20860 1.11312
 H3885 H 0.63460 0.24723 1.10369
 H3886 H 0.54341 0.26797 1.07680
 H3887 H 0.53753 0.30390 1.06338
 H3888 H 0.60391 0.31729 1.06923
 C3889 C 1.24262 1.10732 0.90540
 C3890 C 1.24492 1.08589 0.90645
 C3891 C 1.26215 1.07544 0.89827
 C3892 C 1.27759 1.08755 0.88839
 C3893 C 1.27566 1.10967 0.88714
 C3894 C 1.25809 1.11975 0.89609
 O3895 O 1.22420 1.11388 0.91249
 C3896 C 1.21469 1.09619 0.91811
 C3897 C 1.22680 1.07867 0.91485
 C3898 C 1.21959 1.05842 0.91843
 C3899 C 1.19889 1.05607 0.92527
 C3900 C 1.18578 1.07381 0.92816
 C3901 C 1.19399 1.09422 0.92498
 H3902 H 1.26337 1.05852 0.89890
 H3903 H 1.29096 1.07971 0.88153
 H3904 H 1.25602 1.13656 0.89484
 H3905 H 1.22938 1.04488 0.91555
 H3906 H 1.19290 1.04038 0.92785
 H3907 H 1.18426 1.10800 0.92666
 C3908 C 1.24558 0.59845 0.41182
 C3909 C 1.23578 0.61661 0.41799
 C3910 C 1.24604 0.63578 0.41939
 C3911 C 1.26727 0.63635 0.41389
 C3912 C 1.27761 0.61799 0.40684
 C3913 C 1.26659 0.59874 0.40585
 O3914 O 1.23310 0.58176 0.41236
 C3915 C 1.21499 0.58963 0.41889
 C3916 C 1.21581 0.61092 0.42231
 C3917 C 1.19872 0.62247 0.42905
 C3918 C 1.18012 0.61156 0.43302
 C3919 C 1.17903 0.58938 0.43072
 C3920 C 1.19666 0.57835 0.42302
 H3921 H 1.23800 0.64981 0.42449
 H3922 H 1.27545 0.65121 0.41448
 H3923 H 1.27416 0.58450 0.40058
 H3924 H 1.19970 0.63926 0.43133
 H3925 H 1.16665 0.62039 0.43828
 H3926 H 1.19642 0.56148 0.42116
 C3927 C 0.74227 1.10323 0.40374
 C3928 C 0.74468 1.08181 0.40268
 C3929 C 0.76168 1.07231 0.39299
 C3930 C 0.77678 1.08543 0.38388
 C3931 C 0.77475 1.10756 0.38487
 C3932 C 0.75739 1.11659 0.39522
 O3933 O 0.72415 1.10897 0.41217
 C3934 C 0.71496 1.09077 0.41654
 C3935 C 0.72697 1.07371 0.41117
 C3936 C 0.72007 1.05316 0.41343
 C3937 C 0.69979 1.05005 0.42117
 C3938 C 0.68673 1.06736 0.42620
 C3939 C 0.69467 1.08804 0.42425
 H3940 H 0.76302 1.05542 0.39202
 H3941 H 0.79001 1.07838 0.37599
 H3942 H 0.75527 1.13343 0.39577
 H3943 H 0.72980 1.04000 0.40900
 H3944 H 0.69410 1.03413 0.42288
 H3945 H 0.68500 1.10157 0.42759
 C3946 C 0.73249 0.61502 0.89600
 C3947 C 0.71976 0.63174 0.90068
 C3948 C 0.72595 0.65248 0.89804
 C3949 C 0.74616 0.65616 0.89030
 C3950 C 0.75964 0.63921 0.88527
 C3951 C 0.75258 0.61832 0.88803
 O3952 O 0.72384 0.59659 0.90051
 C3953 C 0.70525 0.60183 0.90821
 C3954 C 0.70200 0.62316 0.90856
 C3955 C 0.68389 0.63220 0.91645
 C3956 C 0.66859 0.61872 0.92461
 C3957 C 0.67168 0.59664 0.92491
 C3958 C 0.69019 0.58808 0.91624
 H3959 H 0.71568 0.66537 0.90200
 H3960 H 0.75120 0.67223 0.88812
 H3961 H 0.76258 0.60506 0.88462
 H3962 H 0.68170 0.64903 0.91654
 H3963 H 0.65435 0.62551 0.93081
 H3964 H 0.69306 0.57134 0.91641
 C3965 C 1.24046 0.90996 1.10486
 C3966 C 1.24522 0.90974 1.08389
 C3967 C 1.26365 0.90121 1.07606
 C3968 C 1.27759 0.89227 1.09040
 C3969 C 1.27298 0.89230 1.11203
 C3970 C 1.25430 0.90151 1.11943
 O3971 O 1.22149 0.91743 1.10889
 C3972 C 1.21414 0.92201 1.09007
 C3973 C 1.22807 0.91767 1.07426
 C3974 C 1.22320 0.92032 1.05330
 C3975 C 1.20311 0.92761 1.04842
 C3976 C 1.18828 0.93193 1.06441
 C3977 C 1.19407 0.92926 1.08557
 H3978 H 1.26688 0.90085 1.05947
 H3979 H 1.29175 0.88491 1.08468
 H3980 H 1.25023 0.90110 1.13584
 H3981 H 1.23438 0.91664 1.04112
 H3982 H 1.19907 0.92980 1.03217
 H3983 H 1.18305 0.93197 1.09814
 C3984 C 1.22738 0.38645 0.62089
 C3985 C 1.21275 0.37083 0.61857
 C3986 C 1.21604 0.35037 0.62520
 C3987 C 1.23532 0.34571 0.63442
 C3988 C 1.25098 0.36139 0.63668
 C3989 C 1.24672 0.38217 0.62997
 O3990 O 1.22124 0.40475 0.61309
 C3991 C 1.20235 0.40051 0.60562
 C3992 C 1.19649 0.37994 0.60854
 C3993 C 1.17774 0.37181 0.60123
 C3994 C 1.16448 0.38544 0.59038
 C3995 C 1.17011 0.40675 0.58718
 C3996 C 1.18924 0.41446 0.59511
 H3997 H 1.20425 0.33835 0.62318
 H3998 H 1.23793 0.32979 0.63959
 H3999 H 1.25821 0.39456 0.63125
 H4000 H 1.17357 0.35552 0.60359
 H4001 H 1.14979 0.37946 0.58448
 H4002 H 1.19394 0.43060 0.59268
 C4003 C 0.74336 0.90274 0.60137
 C4004 C 0.73119 0.88506 0.59939
 C4005 C 0.73911 0.86487 0.60133
 C4006 C 0.76049 0.86278 0.60552
 C4007 C 0.77340 0.88074 0.60787
 C4008 C 0.76464 0.90104 0.60593
 O4009 O 0.73293 0.92038 0.59765
 C4010 C 0.71377 0.91363 0.59327
 C4011 C 0.71192 0.89214 0.59429
 C4012 C 0.69356 0.88156 0.58956
 C4013 C 0.67650 0.89357 0.58299
 C4014 C 0.67813 0.91571 0.58105
 C4015 C 0.69691 0.92594 0.58678
 H4016 H 0.72924 0.85121 0.59942
 H4017 H 0.76691 0.84717 0.60717
 H4018 H 0.77420 0.91499 0.60738
 H4019 H 0.69254 0.86463 0.59045
 H4020 H 0.66213 0.88558 0.57890
 H4021 H 0.69866 0.94276 0.58517
 C4022 C 0.73110 0.39589 1.11727
 C4023 C 0.71767 0.37923 1.11470
 C4024 C 0.72325 0.35864 1.11903
 C4025 C 0.74362 0.35499 1.12610
 C4026 C 0.75793 0.37181 1.12874
 C4027 C 0.75142 0.39263 1.12457
 O4028 O 0.72297 0.41404 1.11106
 C4029 C 0.70404 0.40866 1.10441
 C4030 C 0.70007 0.38753 1.10637
 C4031 C 0.68172 0.37821 1.09947
 C4032 C 0.66689 0.39115 1.08991
 C4033 C 0.67064 0.41296 1.08737
 C4034 C 0.68936 0.42191 1.09507
 H4035 H 0.71244 0.34579 1.11666
 H4036 H 0.74825 0.33900 1.12939
 H4037 H 0.76210 0.40573 1.12610
 H4038 H 0.67907 0.36151 1.10105
 H4039 H 0.65254 0.38417 1.08428
 H4040 H 0.69271 0.43845 1.09308
 C4041 C 0.75492 1.09669 1.09295
 C4042 C 0.75255 1.07537 1.09063
 C4043 C 0.73363 1.06517 1.09386
 C4044 C 0.71647 1.07735 1.10004
 C4045 C 0.71846 1.09936 1.10307
 C4046 C 0.73800 1.10917 1.09913
 O4047 O 0.77440 1.10313 1.08947
 C4048 C 0.78450 1.08548 1.08493
 C4049 C 0.77181 1.06806 1.08550
 C4050 C 0.77919 1.04787 1.08195
 C4051 C 0.80057 1.04550 1.07761
 C4052 C 0.81404 1.06319 1.07678
 C4053 C 0.80581 1.08351 1.08039
 H4054 H 0.73216 1.04837 1.09189
 H4055 H 0.70169 1.06948 1.10257
 H4056 H 0.74019 1.12584 1.10143
 H4057 H 0.76889 1.03440 1.08262
 H4058 H 0.80661 1.02992 1.07467
 H4059 H 0.81576 1.09726 1.08006
 C4060 C 0.75634 0.59617 0.59491
 C4061 C 0.75363 0.57481 0.59350
 C4062 C 0.73554 0.56469 0.60013
 C4063 C 0.71961 0.57707 0.60877
 C4064 C 0.72196 0.59914 0.61048
 C4065 C 0.74051 0.60886 0.60315
 O4066 O 0.77525 0.60243 0.58888
 C4067 C 0.78466 0.58463 0.58356
 C4068 C 0.77204 0.56730 0.58603
 C4069 C 0.77892 0.54699 0.58228
 C4070 C 0.79976 0.54436 0.57600
 C4071 C 0.81332 0.56189 0.57373
 C4072 C 0.80548 0.58237 0.57725
 H4073 H 0.73390 0.54782 0.59909
 H4074 H 0.70548 0.56942 0.61421
 H4075 H 0.74291 0.62560 0.60462
 H4076 H 0.76870 0.53360 0.58445
 H4077 H 0.80543 0.52861 0.57312
 H4078 H 0.81551 0.59602 0.57598
 C4079 C 0.26065 1.09308 0.60393
 C4080 C 0.25802 1.09218 0.58265
 C4081 C 0.24058 1.10031 0.57262
 C4082 C 0.22523 1.10988 0.58500
 C4083 C 0.22741 1.11086 0.60698
 C4084 C 0.24525 1.10208 0.61664
 O4085 O 0.27916 1.08588 0.61006
 C4086 C 0.28835 1.08031 0.59225
 C4087 C 0.27595 1.08371 0.57509
 C4088 C 0.28265 1.07991 0.55481
 C4089 C 0.30314 1.07272 0.55202
 C4090 C 0.31663 1.06973 0.56934
 C4091 C 0.30891 1.07314 0.58982
 H4092 H 0.23909 1.09977 0.55581
 H4093 H 0.21164 1.11660 0.57750
 H4094 H 0.24743 1.10305 0.63336
 H4095 H 0.27259 1.08280 0.54157
 H4096 H 0.30868 1.06989 0.53628
 H4097 H 0.31890 1.07132 0.60331
 C4098 C 0.25768 0.59863 1.09661
 C4099 C 0.25378 0.57765 1.09358
 C4100 C 0.23556 0.56790 1.10050
 C4101 C 0.22071 0.58032 1.11092
 C4102 C 0.22429 0.60206 1.11419
 C4103 C 0.24310 0.61128 1.10682
 O4104 O 0.27636 0.60462 1.08970
 C4105 C 0.28445 0.58702 1.08213
 C4106 C 0.27122 0.57007 1.08408
 C4107 C 0.27686 0.54992 1.07803
 C4108 C 0.29711 0.54704 1.07006
 C4109 C 0.31124 0.56416 1.06831
 C4110 C 0.30462 0.58453 1.07405
 H4111 H 0.23294 0.55130 1.09812
 H4112 H 0.20641 0.57296 1.11629
 H4113 H 0.24657 0.62769 1.10932
 H4114 H 0.26624 0.53681 1.07986
 H4115 H 0.30199 0.53138 1.06567
 H4116 H 0.31520 0.59779 1.07329
 C4117 C 0.75666 0.91451 0.90623
 C4118 C 0.75478 0.91603 0.92756
 C4119 C 0.73637 0.91141 0.93817
 C4120 C 0.71926 0.90458 0.92637
 C4121 C 0.72081 0.90246 0.90436
 C4122 C 0.73974 0.90790 0.89412
 O4123 O 0.77583 0.91882 0.89938
 C4124 C 0.78625 0.92309 0.91678
 C4125 C 0.77405 0.92156 0.93444
 C4126 C 0.78192 0.92444 0.95442
 C4127 C 0.80328 0.92904 0.95631
 C4128 C 0.81627 0.93071 0.93837
 C4129 C 0.80753 0.92786 0.91828
 H4130 H 0.73532 0.91263 0.95499
 H4131 H 0.70488 0.90069 0.93446
 H4132 H 0.74157 0.90612 0.87742
 H4133 H 0.77203 0.92296 0.96809
 H4134 H 0.80972 0.93136 0.97174
 H4135 H 0.81713 0.92874 0.90435
 C4136 C 0.76596 0.39122 0.39291
 C4137 C 0.77790 0.39696 0.37594
 C4138 C 0.77092 0.39535 0.35552
 C4139 C 0.75073 0.38752 0.35240
 C4140 C 0.73804 0.38131 0.36956
 C4141 C 0.74587 0.38298 0.39013
 O4142 O 0.77532 0.39511 0.41100
 C4143 C 0.79353 0.40344 0.40525
 C4144 C 0.79584 0.40476 0.38394
 C4145 C 0.81334 0.41338 0.37436
 C4146 C 0.82904 0.42134 0.38726
 C4147 C 0.82692 0.42083 0.40933
 C4148 C 0.80903 0.41135 0.41846
 H4149 H 0.78058 0.40019 0.34247
 H4150 H 0.74507 0.38611 0.33657
 H4151 H 0.73643 0.37854 0.40349
 H4152 H 0.81475 0.41416 0.35754
 H4153 H 0.84282 0.42810 0.38002
 H4154 H 0.80691 0.41086 0.43523
 C4155 C 0.26196 0.90415 0.39609
 C4156 C 0.25848 0.90276 0.41725
 C4157 C 0.24124 0.89254 0.42579
 C4158 C 0.22707 0.88322 0.41194
 C4159 C 0.23020 0.88462 0.39008
 C4160 C 0.24773 0.89550 0.38202
 O4161 O 0.28019 0.91296 0.39130
 C4162 C 0.28837 0.91725 0.40984
 C4163 C 0.27561 0.91148 0.42620
 C4164 C 0.28142 0.91366 0.44694
 C4165 C 0.30137 0.92178 0.45102
 C4166 C 0.31522 0.92717 0.43445
 C4167 C 0.30836 0.92524 0.41354
 H4168 H 0.23908 0.89126 0.44250
 H4169 H 0.21372 0.87481 0.41821
 H4170 H 0.25072 0.89628 0.36540
 H4171 H 0.27112 0.90894 0.45953
 H4172 H 0.30615 0.92350 0.46711
 H4173 H 0.31861 0.92881 0.40053
 C4174 C 0.26620 0.39926 0.88318
 C4175 C 0.27963 0.38243 0.88358
 C4176 C 0.27323 0.36201 0.87943
 C4177 C 0.25207 0.35876 0.87473
 C4178 C 0.23786 0.37583 0.87410
 C4179 C 0.24513 0.39643 0.87816
 O4180 O 0.27519 0.41712 0.88901
 C4181 C 0.29472 0.41143 0.89318
 C4182 C 0.29822 0.39037 0.88998
 C4183 C 0.31720 0.38077 0.89430
 C4184 C 0.33311 0.39326 0.90270
 C4185 C 0.32978 0.41490 0.90678
 C4186 C 0.31043 0.42422 0.90147
 H4187 H 0.28405 0.34899 0.88017
 H4188 H 0.24676 0.34295 0.87157
 H4189 H 0.23458 0.40969 0.87819
 H4190 H 0.31952 0.36414 0.89177
 H4191 H 0.34790 0.38597 0.90654
 H4192 H 0.30735 0.44059 0.90474
   
