data_POSCAR
  _audit_creation_date              2014-09-24
  _audit_creation_method            'ToBaCCo'
  _symmetry_space_group_name_H-M    'P1'
  _symmetry_Int_Tables_number       1
  _symmetry_cell_setting            triclinic
  loop_
  _symmetry_equiv_pos_as_xyz
 x,y,z
_cell_length_a 27.3829
_cell_length_b 27.5969
_cell_length_c 26.8275
_cell_angle_alpha 89.883500
_cell_angle_beta 92.152000
_cell_angle_gamma 91.647800
loop_
  _atom_site_label
  _atom_site_type_symbol
  _atom_site_fract_x
  _atom_site_fract_y
  _atom_site_fract_z
C1 C 0.37508 0.00688 0.25200
 C2 C 0.11950 0.00119 0.74499
 C3 C 0.64227 0.50330 0.25994
 C4 C 0.87322 0.50569 0.74664
 C5 C 0.24103 0.37277 1.00215
 C6 C 0.75367 0.11900 1.00867
 C7 C 0.25072 0.62878 0.50600
 C8 C 0.74679 0.85856 0.50587
 C9 C -0.00026 0.25282 0.38337
 C10 C 0.00134 0.76427 0.12729
 C11 C 0.49302 0.24578 0.63973
 C12 C 0.49461 0.74310 0.89989
 C13 C -0.25264 0.65100 1.00095
 C14 C -0.25486 0.36415 0.49297
 C15 C 0.24636 -0.13580 -0.01085
 C16 C 0.25287 1.13253 0.49207
 C17 C 0.12738 0.49120 0.25129
 C18 C -0.11108 1.01991 0.24036
 C19 C 0.36219 0.50136 -0.25286
 C20 C 0.60304 -0.00384 -0.25628
 C21 C 0.00155 0.25877 0.86961
 C22 C 0.48560 0.23888 0.12066
 C23 C -0.01191 0.74990 0.62409
 C24 C 0.49998 0.74745 0.34905
 B25 B -0.00300 0.03075 1.04684
 B26 B -0.04608 0.02144 1.00021
 B27 B -0.00028 0.06317 0.98924
 B28 B 0.05115 0.04249 1.02054
 B29 B 0.03694 -0.01181 1.04521
 B30 B -0.02326 -0.02498 1.03229
 B31 B 0.02468 -0.02106 0.94487
 B32 B 0.06518 -0.01057 0.99220
 B33 B 0.01966 -0.05141 1.00158
 B34 B -0.03179 -0.03121 0.97016
 B35 B -0.01677 0.02269 0.94455
 B36 B 0.04281 0.03650 0.95856
 B37 B 0.48031 0.52974 0.54583
 B38 B 0.44837 0.52298 0.49055
 B39 B 0.50034 0.55882 0.48807
 B40 B 0.54056 0.53498 0.53321
 B41 B 0.51630 0.48268 0.55486
 B42 B 0.45862 0.47447 0.52884
 B43 B 0.52838 0.47231 0.45549
 B44 B 0.55635 0.47946 0.51107
 B45 B 0.50666 0.44198 0.51066
 B46 B 0.46477 0.46584 0.46747
 B47 B 0.48802 0.51644 0.44576
 B48 B 0.54378 0.52652 0.47288
 B49 B 0.51624 0.95961 0.53834
 B50 B 0.55466 0.97260 0.49190
 B51 B 0.50183 0.93866 0.47793
 B52 B 0.45717 0.96218 0.51344
 B53 B 0.48223 1.00816 0.54624
 B54 B 0.54187 1.01575 0.53376
 B55 B 0.48678 1.03225 0.44739
 B56 B 0.44835 1.02089 0.49399
 B57 B 0.49958 1.05309 0.51045
 B58 B 0.54487 1.03148 0.47282
 B59 B 0.52116 0.98300 0.43913
 B60 B 0.46065 0.97661 0.45244
 B61 B 0.02285 0.49118 1.03827
 B62 B 0.05277 0.49817 0.98593
 B63 B 0.00463 0.45879 0.98244
 B64 B -0.03948 0.48148 1.02056
 B65 B -0.01811 0.53463 1.04326
 B66 B 0.03720 0.54548 1.01980
 B67 B -0.02549 0.54387 0.94211
 B68 B -0.05819 0.53629 0.99319
 B69 B -0.01024 0.57452 0.99821
 B70 B 0.03398 0.55190 0.95976
 B71 B 0.01242 0.49793 0.93651
 B72 B -0.04474 0.48764 0.95749
 B73 B 0.02171 0.51697 0.44548
 B74 B 0.05396 0.52138 0.49920
 B75 B 0.00649 0.55895 0.49329
 B76 B -0.03845 0.52525 0.45740
 B77 B -0.01711 0.46895 0.44783
 B78 B 0.04028 0.46678 0.47429
 B79 B -0.02389 0.48396 0.54871
 B80 B -0.05596 0.47640 0.49429
 B81 B -0.00697 0.44142 0.50284
 B82 B 0.03670 0.47430 0.53666
 B83 B 0.01521 0.52894 0.54551
 B84 B -0.04206 0.53174 0.51734
 B85 B 0.52682 0.01905 -0.04568
 B86 B 0.55433 0.01830 0.01136
 B87 B 0.50832 0.05717 0.00011
 B88 B 0.46543 0.02858 -0.03868
 B89 B 0.48691 -0.02589 -0.04920
 B90 B 0.54051 -0.03317 -0.01846
 B91 B 0.47046 -0.01887 0.05009
 B92 B 0.44368 -0.02113 -0.00653
 B93 B 0.48989 -0.05790 0.00160
 B94 B 0.53110 -0.03040 0.04311
 B95 B 0.51192 0.02613 0.05411
 B96 B 0.45747 0.03296 0.02228
 B97 B 0.47349 0.47680 -0.04451
 B98 B 0.44779 0.47248 0.01074
 B99 B 0.49549 0.43776 0.00552
 B100 B 0.53565 0.46983 -0.03379
 B101 B 0.51203 0.52542 -0.04530
 B102 B 0.45763 0.52724 -0.01705
 B103 B 0.53089 0.51546 0.05541
 B104 B 0.55596 0.52094 0.00072
 B105 B 0.50700 0.55425 0.00895
 B106 B 0.46809 0.52197 0.04544
 B107 B 0.49278 0.46923 0.05599
 B108 B 0.54574 0.46529 0.02769
 B109 B -0.02600 0.96792 0.44596
 B110 B -0.05934 0.97132 0.49690
 B111 B -0.00958 0.93784 0.50230
 B112 B 0.03477 0.96549 0.46842
 B113 B 0.01083 1.01553 0.44581
 B114 B -0.04734 1.02148 0.46334
 B115 B 0.01313 1.02492 0.54684
 B116 B 0.04864 1.02039 0.49704
 B117 B -0.00172 1.05418 0.49121
 B118 B -0.04658 1.02643 0.52522
 B119 B -0.02290 0.97498 0.54926
 B120 B 0.03592 0.97096 0.53170
 B121 B 0.77264 0.24100 0.19943
 B122 B 0.77227 0.20031 0.24649
 B123 B 0.80272 0.25264 0.25861
 B124 B 0.77240 0.29671 0.22752
 B125 B 0.72191 0.27097 0.20076
 B126 B 0.72076 0.21016 0.21185
 B127 B 0.71443 0.25711 0.30056
 B128 B 0.71777 0.29968 0.25407
 B129 B 0.68473 0.24672 0.24310
 B130 B 0.71614 0.20137 0.27325
 B131 B 0.76619 0.22741 0.30060
 B132 B 0.76720 0.28798 0.28994
 B133 B 0.70401 0.77059 0.70357
 B134 B 0.71053 0.80345 0.75548
 B135 B 0.67695 0.75186 0.76047
 B136 B 0.70292 0.71002 0.72234
 B137 B 0.75288 0.73569 0.69807
 B138 B 0.75959 0.79382 0.71932
 B139 B 0.76795 0.73490 0.79978
 B140 B 0.75998 0.69887 0.74870
 B141 B 0.79422 0.75057 0.74360
 B142 B 0.76821 0.79383 0.78074
 B143 B 0.71761 0.76760 0.80542
 B144 B 0.71274 0.70892 0.78559
 B145 B 0.26677 0.27244 0.80206
 B146 B 0.26447 0.30601 0.74791
 B147 B 0.30565 0.25895 0.75377
 B148 B 0.27616 0.21308 0.78456
 B149 B 0.22018 0.23182 0.79744
 B150 B 0.21332 0.28931 0.77593
 B151 B 0.22535 0.22953 0.69583
 B152 B 0.22586 0.19578 0.74778
 B153 B 0.18725 0.24218 0.74580
 B154 B 0.21589 0.28693 0.71347
 B155 B 0.27343 0.26911 0.69980
 B156 B 0.27895 0.21166 0.72151
 B157 B 0.24532 0.72207 0.29675
 B158 B 0.24218 0.68839 0.24531
 B159 B 0.20268 0.73596 0.24728
 B160 B 0.23452 0.78085 0.28074
 B161 B 0.29301 0.76203 0.29359
 B162 B 0.29699 0.70571 0.27053
 B163 B 0.27886 0.76541 0.19135
 B164 B 0.28200 0.79959 0.24561
 B165 B 0.31965 0.75204 0.23805
 B166 B 0.28865 0.70666 0.20809
 B167 B 0.23235 0.72575 0.19616
 B168 B 0.22800 0.78320 0.21761
 B169 B 0.28067 0.74416 0.70705
 B170 B 0.26721 0.70501 0.75786
 B171 B 0.30285 0.75502 0.77223
 B172 B 0.28600 0.80114 0.73348
 B173 B 0.23589 0.78186 0.70012
 B174 B 0.22376 0.72126 0.71493
 B175 B 0.21074 0.77766 0.79568
 B176 B 0.22921 0.81578 0.74921
 B177 B 0.19042 0.76657 0.73627
 B178 B 0.20859 0.71922 0.77381
 B179 B 0.25659 0.74033 0.80730
 B180 B 0.26921 0.79919 0.79381
 B181 B 0.20577 0.26434 0.18658
 B182 B 0.21764 0.30094 0.23548
 B183 B 0.17675 0.25364 0.24233
 B184 B 0.19941 0.20680 0.20742
 B185 B 0.25365 0.22603 0.18444
 B186 B 0.26398 0.28433 0.20092
 B187 B 0.26200 0.22807 0.28601
 B188 B 0.25449 0.19208 0.23607
 B189 B 0.29350 0.24034 0.23204
 B190 B 0.27093 0.28652 0.26438
 B191 B 0.21772 0.26745 0.28746
 B192 B 0.20665 0.20917 0.26896
 B193 B 0.78684 0.78654 0.29755
 B194 B 0.77559 0.82409 0.24851
 B195 B 0.81471 0.77889 0.24111
 B196 B 0.79476 0.72968 0.27289
 B197 B 0.74265 0.74435 0.29789
 B198 B 0.72984 0.80315 0.28323
 B199 B 0.72775 0.75007 0.19728
 B200 B 0.74036 0.71121 0.24594
 B201 B 0.70059 0.75729 0.25446
 B202 B 0.72069 0.80648 0.22077
 B203 B 0.77380 0.79193 0.19561
 B204 B 0.78548 0.73325 0.21014
 B205 B 0.73574 0.21518 0.80250
 B206 B 0.73060 0.18470 0.74847
 B207 B 0.69518 0.23262 0.75265
 B208 B 0.72814 0.27485 0.78972
 B209 B 0.78552 0.25249 0.80191
 B210 B 0.78633 0.19631 0.77564
 B211 B 0.77148 0.26508 0.70052
 B212 B 0.77731 0.29414 0.75685
 B213 B 0.81282 0.24499 0.74727
 B214 B 0.77940 0.20312 0.71269
 B215 B 0.72464 0.22604 0.70161
 B216 B 0.72181 0.28099 0.72854
 C217 C 0.39240 1.01552 0.34985
 C218 C 0.41158 1.01256 0.30112
 C219 C 0.46284 1.02657 0.30064
 C220 C 0.49029 1.03968 0.34576
 C221 C 0.46637 1.05059 0.39054
 C222 C 0.41575 1.05034 0.38219
 C223 C 0.34278 1.00721 0.35781
 C224 C 0.31572 1.04712 0.37063
 C225 C 0.34082 1.09154 0.37829
 C226 C 0.39125 1.09334 0.38441
 H227 H 0.32506 0.97303 0.34834
 H228 H 0.27626 1.04466 0.36971
 H229 H 0.32320 1.12471 0.37630
 H230 H 0.41093 1.12775 0.38743
 H231 H 0.48250 1.02808 0.26665
 H232 H 0.52982 1.04125 0.34554
 C233 C -0.03887 0.53432 0.79720
 C234 C -0.09145 0.52265 0.79219
 C235 C -0.11903 0.53606 0.83322
 C236 C -0.09857 0.55028 0.87806
 C237 C -0.04814 0.55575 0.88624
 C238 C -0.01908 0.55416 0.84364
 C239 C -0.00475 0.53140 0.75879
 C240 C 0.04535 0.53874 0.76745
 C241 C 0.06250 0.56113 0.81077
 C242 C 0.02982 0.57211 0.84682
 H243 H -0.01417 0.53020 0.72035
 H244 H 0.07024 0.53311 0.73770
 H245 H 0.10059 0.57249 0.81519
 H246 H 0.04314 0.59514 0.87703
 H247 H -0.15839 0.53005 0.83248
 H248 H -0.12420 0.55014 0.90679
 C249 C 0.05327 -0.04882 0.79883
 C250 C 0.09308 -0.01422 0.79389
 C251 C 0.11320 0.00462 0.83838
 C252 C 0.09561 -0.00725 0.88332
 C253 C 0.04972 -0.03121 0.88986
 C254 C 0.02754 -0.05145 0.84531
 C255 C 0.03282 -0.07326 0.75680
 C256 C -0.01624 -0.08834 0.75606
 C257 C -0.04305 -0.08596 0.79919
 C258 C -0.02052 -0.07071 0.84419
 H259 H 0.05228 -0.07500 0.72251
 H260 H -0.03371 -0.10172 0.72173
 H261 H -0.08105 -0.09797 0.79814
 H262 H -0.04169 -0.07225 0.87729
 H263 H 0.14545 0.02816 0.84028
 H264 H 0.11684 0.01111 0.91235
 C265 C 0.63928 0.51521 0.35701
 C266 C 0.61344 0.50556 0.31025
 C267 C 0.56498 0.48637 0.31375
 C268 C 0.54477 0.47042 0.35882
 C269 C 0.56714 0.48050 0.40606
 C270 C 0.61550 0.50864 0.40368
 C271 C 0.68936 0.53159 0.35919
 C272 C 0.71108 0.55497 0.39945
 C273 C 0.68486 0.55979 0.44070
 C274 C 0.64086 0.53443 0.44431
 H275 H 0.71447 0.52786 0.33094
 H276 H 0.74774 0.57063 0.39795
 H277 H 0.69925 0.58271 0.47071
 H278 H 0.62831 0.54122 0.48005
 H279 H 0.54119 0.48239 0.28155
 H280 H 0.50842 0.45375 0.35667
 C281 C 0.63877 0.49110 0.16251
 C282 C 0.61546 0.50765 0.20671
 C283 C 0.56946 0.52889 0.19949
 C284 C 0.54553 0.53134 0.15223
 C285 C 0.56667 0.51537 0.10819
 C286 C 0.61537 0.49456 0.11390
 C287 C 0.68578 0.46988 0.16584
 C288 C 0.70884 0.45070 0.12596
 C289 C 0.68726 0.45385 0.07967
 C290 C 0.64269 0.47579 0.07361
 H291 H 0.70694 0.46744 0.19875
 H292 H 0.74418 0.43435 0.13107
 H293 H 0.70553 0.43983 0.04781
 H294 H 0.63284 0.47568 0.03531
 H295 H 0.55151 0.54447 0.23055
 H296 H 0.50953 0.54664 0.15004
 C297 C 0.02991 1.02269 0.69515
 C298 C 0.08305 1.01594 0.69875
 C299 C 0.10723 1.03827 0.65908
 C300 C 0.08488 1.04535 0.61294
 C301 C 0.03435 1.03949 0.60386
 C302 C 0.00644 1.03456 0.64734
 C303 C -0.00053 1.02442 0.73684
 C304 C -0.05047 1.03213 0.73235
 C305 C -0.07213 1.04216 0.68641
 C306 C -0.04384 1.04498 0.64476
 H307 H 0.01265 1.02298 0.77444
 H308 H -0.07209 1.03256 0.76533
 H309 H -0.11056 1.05036 0.68345
 H310 H -0.06140 1.05896 0.61152
 H311 H 0.14661 1.04388 0.66104
 H312 H 0.11014 1.05150 0.58464
 C313 C -0.12082 0.51934 0.64958
 C314 C -0.10241 0.49902 0.69486
 C315 C -0.06303 0.46817 0.68948
 C316 C -0.03840 0.46371 0.64470
 C317 C -0.05101 0.49220 0.60315
 C318 C -0.08773 0.52831 0.61231
 C319 C -0.16771 0.53817 0.64232
 C320 C -0.17409 0.58043 0.61485
 C321 C -0.13409 0.60134 0.59222
 C322 C -0.09070 0.57612 0.59238
 H323 H -0.19753 0.52411 0.66282
 H324 H -0.20869 0.59845 0.61418
 H325 H -0.13663 0.63639 0.57435
 H326 H -0.05976 0.59525 0.57852
 H327 H -0.04688 0.45271 0.72202
 H328 H -0.00796 0.43956 0.64345
 C329 C 0.38927 0.03462 0.15627
 C330 C 0.40458 0.01052 0.20141
 C331 C 0.44297 -0.02163 0.19495
 C332 C 0.46297 -0.03107 0.14815
 C333 C 0.43907 -0.01757 0.10319
 C334 C 0.39723 0.01248 0.10931
 C335 C 0.36822 0.08076 0.15435
 C336 C 0.34717 0.09907 0.11016
 C337 C 0.34699 0.07262 0.06738
 C338 C 0.36685 0.02751 0.06897
 H339 H 0.37369 0.10569 0.18387
 H340 H 0.33023 0.13342 0.10735
 H341 H 0.32867 0.08565 0.03365
 H342 H 0.36081 0.00776 0.03631
 H343 H 0.45828 -0.03901 0.22732
 H344 H 0.49615 -0.05143 0.14718
 C345 C 0.33846 0.37062 -0.01924
 C346 C 0.29843 0.38937 0.00847
 C347 C 0.31374 0.42316 0.04536
 C348 C 0.35927 0.44901 0.04476
 C349 C 0.39514 0.43886 0.01019
 C350 C 0.38470 0.39666 -0.02157
 C351 C 0.33547 0.32456 -0.04265
 C352 C 0.36930 0.30835 -0.07510
 C353 C 0.41147 0.33447 -0.08061
 C354 C 0.41924 0.37697 -0.05456
 H355 H 0.30786 0.29862 -0.03568
 H356 H 0.36339 0.27445 -0.09492
 H357 H 0.43985 0.32060 -0.10320
 H358 H 0.45465 0.39049 -0.06193
 H359 H 0.28670 0.43508 0.06994
 H360 H 0.36595 0.47821 0.07125
 C361 C -0.15742 0.86406 0.50315
 C362 C -0.20233 0.88813 0.50916
 C363 C -0.19814 0.93920 0.50288
 C364 C -0.15325 0.96429 0.50824
 C365 C -0.11102 0.94066 0.49625
 C366 C -0.11761 0.89020 0.48298
 C367 C -0.15218 0.81411 0.51102
 C368 C -0.11883 0.78875 0.48402
 C369 C -0.08900 0.81352 0.45118
 C370 C -0.08785 0.86412 0.45084
 H371 H -0.17590 0.79411 0.53522
 H372 H -0.11878 0.74968 0.48610
 H373 H -0.06492 0.79376 0.42800
 H374 H -0.06184 0.88136 0.42731
 H375 H -0.22813 0.96075 0.49069
 H376 H -0.15263 1.00338 0.51200
 C377 C -0.18622 0.04402 1.04437
 C378 C -0.19657 0.08863 1.01645
 C379 C -0.15372 0.11284 1.00277
 C380 C -0.10846 0.09176 1.00686
 C381 C -0.10223 0.04176 1.01080
 C382 C -0.14214 0.01764 1.03467
 C383 C -0.21609 0.02550 1.08275
 C384 C -0.20621 -0.01817 1.10673
 C385 C -0.16874 -0.04652 1.09100
 C386 C -0.13791 -0.02953 1.05436
 H387 H -0.24874 0.04331 1.09340
 H388 H -0.22982 -0.03156 1.13550
 H389 H -0.16338 -0.08191 1.10748
 H390 H -0.11054 -0.05375 1.04293
 H391 H -0.15370 0.15031 0.99211
 H392 H -0.07830 0.11667 1.00846
 C393 C 0.34101 0.62820 0.48254
 C394 C 0.29863 0.59993 0.49491
 C395 C 0.30393 0.54879 0.49563
 C396 C 0.34986 0.52676 0.49058
 C397 C 0.39395 0.55368 0.48475
 C398 C 0.38739 0.60633 0.47947
 C399 C 0.33952 0.68035 0.48115
 C400 C 0.37943 0.71035 0.47770
 C401 C 0.42338 0.69042 0.47809
 C402 C 0.42599 0.64060 0.48072
 H403 H 0.31071 0.70122 0.49310
 H404 H 0.37698 0.74854 0.48506
 H405 H 0.45525 0.71374 0.48533
 H406 H 0.45762 0.63272 0.49859
 H407 H 0.27291 0.52466 0.50002
 H408 H 0.35100 0.48767 0.49352
 C409 C 0.15444 0.62429 0.49107
 C410 C 0.19831 0.60329 0.51323
 C411 C 0.19216 0.55635 0.53320
 C412 C 0.14785 0.52925 0.52552
 C413 C 0.10814 0.54752 0.49642
 C414 C 0.11493 0.59424 0.47350
 C415 C 0.14936 0.67475 0.48284
 C416 C 0.11937 0.69264 0.44475
 C417 C 0.08710 0.66195 0.41997
 C418 C 0.08306 0.61442 0.43562
 H419 H 0.17221 0.70137 0.50087
 H420 H 0.12193 0.73022 0.43358
 H421 H 0.06302 0.67561 0.39057
 H422 H 0.05295 0.59702 0.41703
 H423 H 0.22120 0.54084 0.55581
 H424 H 0.14402 0.49445 0.54391
 C425 C 0.69917 0.03455 0.01131
 C426 C 0.70537 0.08573 0.00354
 C427 C 0.66298 0.10676 -0.01610
 C428 C 0.61750 0.08466 -0.01275
 C429 C 0.61016 0.04077 0.01349
 C430 C 0.65314 0.01515 0.02687
 C431 C 0.73245 0.00060 -0.00501
 C432 C 0.72946 -0.04751 0.01156
 C433 C 0.69055 -0.06297 0.04010
 C434 C 0.65184 -0.03217 0.04694
 H435 H 0.76168 0.01126 -0.02909
 H436 H 0.75733 -0.07263 0.00218
 H437 H 0.68880 -0.09979 0.05404
 H438 H 0.62088 -0.04660 0.06605
 H439 H 0.66493 0.13793 -0.04009
 H440 H 0.58839 0.10234 -0.03319
 C441 C 0.69438 0.94006 0.52625
 C442 C 0.69996 0.89273 0.50370
 C443 C 0.65547 0.87203 0.48542
 C444 C 0.61152 0.89596 0.49017
 C445 C 0.60934 0.94695 0.49333
 C446 C 0.65414 0.96990 0.51079
 C447 C 0.72528 0.95844 0.56526
 C448 C 0.72612 1.00725 0.57833
 C449 C 0.69490 1.03858 0.55346
 C450 C 0.65842 1.02013 0.52071
 H451 H 0.75265 0.93675 0.58185
 H452 H 0.75289 1.02115 0.60580
 H453 H 0.69803 1.07711 0.56069
 H454 H 0.63397 1.04575 0.50411
 H455 H 0.65344 0.83483 0.47298
 H456 H 0.57954 0.87321 0.49408
 C457 C 0.20028 0.46664 0.99391
 C458 C 0.19878 0.41383 0.99634
 C459 C 0.15051 0.39470 0.99885
 C460 C 0.10973 0.42287 1.00464
 C461 C 0.10833 0.47206 0.99087
 C462 C 0.15545 0.49449 0.98803
 C463 C 0.24383 0.49393 0.99918
 C464 C 0.24419 0.54356 1.00890
 C465 C 0.20228 0.56917 0.99935
 C466 C 0.15931 0.54508 0.98455
 H467 H 0.27781 0.47875 0.99239
 H468 H 0.27832 0.56304 1.01774
 H469 H 0.20291 0.60787 1.00229
 H470 H 0.12866 0.56688 0.97442
 H471 H 0.14398 0.35652 1.00305
 H472 H 0.07790 0.40375 1.01774
 C473 C 0.04039 0.31370 0.45492
 C474 C -0.00011 0.29629 0.42314
 C475 C -0.04407 0.32023 0.42984
 C476 C -0.04620 0.36283 0.45678
 C477 C -0.00777 0.38173 0.48839
 C478 C 0.03503 0.35341 0.48973
 C479 C 0.08738 0.29527 0.45138
 C480 C 0.12780 0.31791 0.47520
 C481 C 0.12141 0.35162 0.51239
 C482 C 0.07490 0.36659 0.52193
 H483 H 0.09442 0.26460 0.42901
 H484 H 0.16380 0.30593 0.46738
 H485 H 0.15222 0.36631 0.53415
 H486 H 0.07093 0.39006 0.55344
 H487 H -0.07785 0.30931 0.41055
 H488 H -0.07771 0.38292 0.44670
 C489 C 0.44675 -0.17704 -0.07570
 C490 C 0.48854 -0.20745 -0.07113
 C491 C 0.52520 -0.19123 -0.03582
 C492 C 0.52158 -0.14700 -0.00997
 C493 C 0.48616 -0.11290 -0.02444
 C494 C 0.45349 -0.12750 -0.06660
 C495 C 0.39752 -0.19207 -0.08673
 C496 C 0.36461 -0.16089 -0.10952
 C497 C 0.38114 -0.11515 -0.12214
 C498 C 0.42530 -0.09791 -0.10066
 H499 H 0.38320 -0.22709 -0.07809
 H500 H 0.32768 -0.17307 -0.11944
 H501 H 0.35830 -0.09173 -0.14484
 H502 H 0.43413 -0.06171 -0.11220
 H503 H 0.55633 -0.21351 -0.02729
 H504 H 0.54911 -0.13779 0.01876
 C505 C 0.05945 -0.16749 1.08635
 C506 C 0.01290 -0.19111 1.09118
 C507 C -0.02230 -0.17799 1.05359
 C508 C -0.01546 -0.13829 1.02154
 C509 C 0.02513 -0.10604 1.02753
 C510 C 0.06266 -0.12060 1.06400
 C511 C 0.10371 -0.18907 1.10122
 C512 C 0.14549 -0.16126 1.11155
 C513 C 0.14609 -0.11302 1.09941
 C514 C 0.10460 -0.09217 1.07921
 H515 H 0.10730 -0.22758 1.10431
 H516 H 0.17771 -0.17746 1.12780
 H517 H 0.17968 -0.09196 1.10250
 H518 H 0.10885 -0.05407 1.07561
 H519 H -0.05638 -0.19865 1.04911
 H520 H -0.04481 -0.13046 0.99481
 C521 C 0.54382 0.31895 0.59476
 C522 C 0.49927 0.29230 0.60204
 C523 C 0.45894 0.31259 0.57462
 C524 C 0.46332 0.35484 0.54273
 C525 C 0.50609 0.38581 0.54250
 C526 C 0.54323 0.36893 0.57831
 C527 C 0.58930 0.30043 0.60931
 C528 C 0.62561 0.33141 0.62867
 C529 C 0.61748 0.38077 0.63017
 C530 C 0.57779 0.39961 0.60405
 H531 H 0.59582 0.26224 0.61091
 H532 H 0.65740 0.31603 0.64639
 H533 H 0.64140 0.40522 0.65091
 H534 H 0.57540 0.43800 0.60663
 H535 H 0.42304 0.29660 0.57919
 H536 H 0.43110 0.36576 0.52148
 C537 C 0.44995 1.16127 0.60455
 C538 C 0.48602 1.19969 0.60149
 C539 C 0.52321 1.18997 0.56690
 C540 C 0.52727 1.14490 0.54122
 C541 C 0.49620 1.10397 0.54946
 C542 C 0.45915 1.11251 0.58731
 C543 C 0.40333 1.17029 0.62250
 C544 C 0.37179 1.13313 0.63685
 C545 C 0.38595 1.08594 0.63271
 C546 C 0.42872 1.07572 0.60887
 H547 H 0.39019 1.20681 0.62413
 H548 H 0.33695 1.14117 0.65220
 H549 H 0.36312 1.05680 0.64702
 H550 H 0.43683 1.03854 0.61167
 H551 H 0.55036 1.21766 0.55928
 H552 H 0.55554 1.14213 0.51431
 C553 C -0.05449 0.69321 1.08076
 C554 C -0.01129 0.72302 1.08442
 C555 C 0.02425 0.71025 1.04947
 C556 C 0.02119 0.66668 1.02079
 C557 C -0.01488 0.62992 1.02827
 C558 C -0.05172 0.64356 1.06412
 C559 C -0.09866 0.70896 1.09904
 C560 C -0.13397 0.67607 1.11480
 C561 C -0.12568 0.62706 1.11185
 C562 C -0.08548 0.61086 1.08699
 H563 H -0.10689 0.74663 1.09936
 H564 H -0.16718 0.68863 1.13020
 H565 H -0.15179 0.60116 1.12654
 H566 H -0.08379 0.57238 1.08634
 H567 H 0.05618 0.73347 1.04537
 H568 H 0.05001 0.66005 0.99532
 C569 C 0.46524 0.69027 -0.01873
 C570 C 0.50053 0.70470 -0.05556
 C571 C 0.54398 0.67992 -0.05134
 C572 C 0.54234 0.63209 -0.03647
 C573 C 0.50688 0.61294 -0.00418
 C574 C 0.46925 0.64474 0.00750
 C575 C 0.42430 0.71733 -0.00915
 C576 C 0.38402 0.69671 0.01415
 C577 C 0.38930 0.65487 0.04180
 C578 C 0.43324 0.63131 0.04168
 H579 H 0.42447 0.75487 -0.01616
 H580 H 0.34965 0.71481 0.01400
 H581 H 0.36000 0.64168 0.06469
 H582 H 0.43780 0.60269 0.06826
 H583 H 0.57642 0.69235 -0.06976
 H584 H 0.56924 0.61019 -0.05292
 C585 C -0.00064 1.15669 0.38799
 C586 C -0.00365 1.20221 0.41267
 C587 C -0.01438 1.19790 0.46433
 C588 C -0.01702 1.15184 0.48869
 C589 C 0.00126 1.11009 0.46611
 C590 C 0.01681 1.11743 0.41610
 C591 C -0.00535 1.15023 0.33586
 C592 C 0.01776 1.11165 0.31331
 C593 C 0.04383 1.07922 0.34127
 C594 C 0.04931 1.08751 0.39152
 H595 H -0.01895 1.17848 0.31219
 H596 H 0.02460 1.11125 0.27430
 H597 H 0.06580 1.05272 0.32344
 H598 H 0.07758 1.06785 0.41040
 H599 H -0.02336 1.22941 0.48562
 H600 H -0.02989 1.14960 0.52631
 C601 C 0.74693 0.72848 0.93613
 C602 C 0.74761 0.67750 0.94779
 C603 C 0.76335 0.64821 0.90869
 C604 C 0.78198 0.66713 0.86540
 C605 C 0.78533 0.71724 0.85634
 C606 C 0.77712 0.74730 0.89801
 C607 C 0.71019 0.76009 0.94989
 C608 C 0.71719 0.81034 0.94565
 C609 C 0.75833 0.82907 0.92249
 C610 C 0.78746 0.79764 0.89686
 H611 H 0.67387 0.74715 0.95660
 H612 H 0.68984 0.83452 0.95840
 H613 H 0.76435 0.86788 0.91947
 H614 H 0.81483 0.81279 0.87290
 H615 H 0.76494 0.60946 0.91240
 H616 H 0.79044 0.64085 0.83820
 C617 C 0.29170 0.20072 0.42539
 C618 C 0.26082 0.15885 0.43905
 C619 C 0.23793 0.13662 0.39717
 C620 C 0.24375 0.15559 0.34956
 C621 C 0.26442 0.20338 0.34125
 C622 C 0.27694 0.22980 0.38462
 C623 C 0.34236 0.20397 0.42949
 C624 C 0.36850 0.24772 0.42018
 C625 C 0.34300 0.28706 0.40182
 C626 C 0.29581 0.27799 0.38272
 H627 H 0.36135 0.17167 0.43356
 H628 H 0.40782 0.25058 0.42496
 H629 H 0.36125 0.32186 0.39629
 H630 H 0.27794 0.30613 0.36168
 H631 H 0.21989 0.10145 0.39976
 H632 H 0.22941 0.13272 0.31977
 C633 C 0.69249 0.34137 0.40650
 C634 C 0.72945 0.33013 0.44472
 C635 C 0.74941 0.28394 0.43768
 C636 C 0.73491 0.25271 0.39822
 C637 C 0.70158 0.26662 0.35953
 C638 C 0.67388 0.30572 0.37087
 C639 C 0.67447 0.38760 0.39911
 C640 C 0.63163 0.39335 0.37090
 C641 C 0.60727 0.35584 0.34589
 C642 C 0.62990 0.31234 0.34363
 H643 H 0.69357 0.41974 0.41330
 H644 H 0.62129 0.42784 0.36251
 H645 H 0.57462 0.36234 0.32312
 H646 H 0.61448 0.28512 0.31864
 H647 H 0.77749 0.27013 0.46128
 H648 H 0.75441 0.21929 0.39560
 C649 C 0.22491 0.77932 0.93183
 C650 C 0.23286 0.83171 0.93923
 C651 C 0.21521 0.85978 0.89797
 C652 C 0.18455 0.84020 0.85963
 C653 C 0.18520 0.79169 0.84825
 C654 C 0.19457 0.76183 0.88999
 C655 C 0.24671 0.74228 0.96084
 C656 C 0.23297 0.69354 0.95527
 C657 C 0.19720 0.67906 0.92014
 C658 C 0.17817 0.71303 0.88739
 H659 H 0.27141 0.74807 0.99128
 H660 H 0.25066 0.66723 0.97909
 H661 H 0.18607 0.64126 0.91656
 H662 H 0.15241 0.70086 0.85809
 H663 H 0.21787 0.89888 0.89926
 H664 H 0.16254 0.86332 0.83622
 C665 C 0.22815 0.79126 0.05489
 C666 C 0.24761 0.83806 0.04300
 C667 C 0.27511 0.85999 0.08344
 C668 C 0.29059 0.83491 0.12620
 C669 C 0.28015 0.78563 0.13300
 C670 C 0.25213 0.76261 0.09271
 C671 C 0.18403 0.77222 0.03322
 C672 C 0.17019 0.72373 0.04002
 C673 C 0.20120 0.69316 0.06665
 C674 C 0.24330 0.71207 0.09082
 H675 H 0.16053 0.79368 0.01025
 H676 H 0.13736 0.70915 0.02126
 H677 H 0.19217 0.65495 0.06965
 H678 H 0.26659 0.68740 0.11119
 H679 H 0.28975 0.89589 0.08172
 H680 H 0.31211 0.85496 0.15360
 C681 C 0.75690 0.36496 0.59108
 C682 C 0.74756 0.33745 0.54628
 C683 C 0.74186 0.28668 0.55447
 C684 C 0.75667 0.26558 0.60082
 C685 C 0.76327 0.29354 0.64514
 C686 C 0.74951 0.34365 0.63818
 C687 C 0.76939 0.41446 0.59126
 C688 C 0.75111 0.44452 0.62683
 C689 C 0.72939 0.42494 0.66769
 C690 C 0.72932 0.37508 0.67431
 H691 H 0.79026 0.43088 0.56282
 H692 H 0.75189 0.48277 0.62170
 H693 H 0.71444 0.44831 0.69533
 H694 H 0.71389 0.36477 0.70874
 H695 H 0.72986 0.26223 0.52513
 H696 H 0.75873 0.22649 0.60271
 C697 C 0.23770 0.21744 0.54660
 C698 C 0.24392 0.16527 0.54058
 C699 C 0.23862 0.13790 0.58447
 C700 C 0.22740 0.15785 0.63016
 C701 C 0.22010 0.20772 0.63749
 C702 C 0.22444 0.23752 0.59406
 C703 C 0.24373 0.25150 0.50784
 C704 C 0.24774 0.30112 0.51602
 C705 C 0.23401 0.31954 0.56076
 C706 C 0.21702 0.28804 0.59672
 H707 H 0.23858 0.24273 0.47023
 H708 H 0.25505 0.32561 0.48540
 H709 H 0.23212 0.35834 0.56581
 H710 H 0.19720 0.30434 0.62549
 H711 H 0.24390 0.09914 0.58368
 H712 H 0.22831 0.13276 0.66053
 C713 C 0.73456 0.65910 0.09673
 C714 C 0.74864 0.68248 0.05199
 C715 C 0.74989 0.73425 0.05586
 C716 C 0.73397 0.75851 0.09861
 C717 C 0.71368 0.73308 0.13948
 C718 C 0.70618 0.68388 0.13127
 C719 C 0.73845 0.60959 0.10363
 C720 C 0.70250 0.58445 0.12787
 C721 C 0.66466 0.60887 0.14905
 C722 C 0.66786 0.65888 0.15325
 H723 H 0.76748 0.58991 0.08920
 H724 H 0.70411 0.54644 0.12710
 H725 H 0.63395 0.58993 0.16391
 H726 H 0.64033 0.67809 0.17263
 H727 H 0.76257 0.75754 0.02688
 H728 H 0.73955 0.79749 0.10037
 C729 C 0.21850 0.54100 0.25359
 C730 C 0.16650 0.53790 0.26126
 C731 C 0.15309 0.58015 0.28710
 C732 C 0.17768 0.62528 0.28191
 C733 C 0.22058 0.63124 0.25415
 C734 C 0.24236 0.58673 0.24092
 C735 C 0.24986 0.50386 0.26937
 C736 C 0.29870 0.50463 0.25613
 C737 C 0.31784 0.54412 0.23026
 C738 C 0.29035 0.58554 0.22366
 H739 H 0.23672 0.47391 0.29172
 H740 H 0.32168 0.47457 0.26603
 H741 H 0.35539 0.54417 0.21899
 H742 H 0.30875 0.61677 0.20864
 H743 H 0.12146 0.58007 0.30983
 H744 H 0.16136 0.65625 0.29864
 C745 C 0.61757 0.08958 0.75431
 C746 C 0.63431 0.04541 0.73410
 C747 C 0.68236 0.04862 0.71570
 C748 C 0.71263 0.09135 0.72200
 C749 C 0.69829 0.13177 0.75013
 C750 C 0.65054 0.12689 0.77194
 C751 C 0.56740 0.09623 0.75914
 C752 C 0.54930 0.13039 0.79068
 C753 C 0.58181 0.16005 0.81736
 C754 C 0.63134 0.15904 0.80775
 H755 H 0.54245 0.07421 0.73789
 H756 H 0.51032 0.13317 0.79483
 H757 H 0.56845 0.18623 0.84322
 H758 H 0.65128 0.18685 0.82704
 H759 H 0.69734 0.01822 0.69689
 H760 H 0.74776 0.09269 0.70477
 C761 C 0.88595 0.11417 0.24324
 C762 C 0.86083 0.06813 0.24011
 C763 C 0.81129 0.06967 0.22359
 C764 C 0.78347 0.10942 0.23371
 C765 C 0.80671 0.15407 0.24368
 C766 C 0.85902 0.15671 0.23687
 C767 C 0.93701 0.11783 0.23980
 C768 C 0.96044 0.15922 0.22118
 C769 C 0.93350 0.19838 0.20735
 C770 C 0.88347 0.19605 0.21240
 H771 H 0.95837 0.08614 0.24300
 H772 H 0.99906 0.15983 0.21404
 H773 H 0.95084 0.22944 0.18983
 H774 H 0.86485 0.22534 0.19470
 H775 H 0.79315 0.03949 0.20442
 H776 H 0.74414 0.10635 0.22783
 C777 C 0.36468 0.58982 0.78165
 C778 C 0.33500 0.54820 0.76885
 C779 C 0.28329 0.55595 0.77034
 C780 C 0.26314 0.60383 0.77086
 C781 C 0.29260 0.64718 0.76936
 C782 C 0.34477 0.63763 0.77637
 C783 C 0.41646 0.58586 0.78368
 C784 C 0.44778 0.62460 0.78031
 C785 C 0.42971 0.66893 0.77322
 C786 C 0.37961 0.67307 0.76534
 H787 H 0.43556 0.55437 0.77686
 H788 H 0.48488 0.61895 0.77149
 H789 H 0.45487 0.69848 0.76480
 H790 H 0.36857 0.70366 0.74507
 H791 H 0.25772 0.52565 0.76651
 H792 H 0.22380 0.60667 0.76819
 C793 C 0.28316 0.44827 0.71020
 C794 C 0.33194 0.45406 0.73052
 C795 C 0.35425 0.41067 0.74341
 C796 C 0.32710 0.37174 0.75875
 C797 C 0.28018 0.36313 0.74197
 C798 C 0.25613 0.40295 0.71746
 C799 C 0.26214 0.48379 0.67955
 C800 C 0.21358 0.47929 0.66244
 C801 C 0.18539 0.43868 0.67493
 C802 C 0.20629 0.40085 0.70205
 H803 H 0.28376 0.51373 0.66659
 H804 H 0.19764 0.50756 0.63964
 H805 H 0.14723 0.43622 0.66293
 H806 H 0.18219 0.37146 0.71211
 H807 H 0.39230 0.40986 0.75283
 H808 H 0.34163 0.34898 0.78728
 C809 C 0.80201 0.96799 0.25983
 C810 C 0.85325 0.97231 0.24569
 C811 C 0.87616 0.92754 0.24974
 C812 C 0.85055 0.88454 0.25804
 C813 C 0.79975 0.87945 0.24922
 C814 C 0.77428 0.92335 0.25128
 C815 C 0.77897 1.00222 0.28940
 C816 C 0.72883 1.00029 0.29640
 C817 C 0.70043 0.96219 0.27661
 C818 C 0.72291 0.92344 0.25487
 H819 H 0.79860 1.03246 0.30518
 H820 H 0.71196 1.02893 0.31656
 H821 H 0.66125 0.96121 0.28086
 H822 H 0.69953 0.89317 0.24411
 H823 H 0.91492 0.92508 0.25436
 H824 H 0.87180 0.85587 0.27385
 C825 C 0.60357 0.90136 0.74999
 C826 C 0.63061 0.94649 0.75362
 C827 C 0.68141 0.94228 0.76468
 C828 C 0.70302 0.89699 0.77295
 C829 C 0.67898 0.85377 0.75665
 C830 C 0.62815 0.85790 0.73987
 C831 C 0.55205 0.89862 0.75222
 C832 C 0.52493 0.85904 0.73353
 C833 C 0.54870 0.82165 0.71163
 C834 C 0.59953 0.82119 0.71408
 H835 H 0.53176 0.92754 0.76628
 H836 H 0.48539 0.85861 0.73380
 H837 H 0.52776 0.79195 0.69424
 H838 H 0.61403 0.79011 0.69714
 H839 H 0.70580 0.97332 0.76739
 H840 H 0.74125 0.89659 0.78482
 C841 C 0.19410 0.43904 0.21136
 C842 C 0.15564 0.44496 0.24581
 C843 C 0.13290 0.40204 0.26111
 C844 C 0.14905 0.36020 0.24124
 C845 C 0.19881 0.35504 0.23484
 C846 C 0.22291 0.39739 0.21703
 C847 C 0.20437 0.47092 0.17206
 C848 C 0.24930 0.47031 0.15000
 C849 C 0.28325 0.43642 0.16566
 C850 C 0.27016 0.39924 0.19840
 H851 H 0.17855 0.49616 0.15862
 H852 H 0.25843 0.49727 0.12223
 H853 H 0.31902 0.43873 0.15094
 H854 H 0.29700 0.37321 0.20919
 H855 H 0.09630 0.40136 0.27507
 H856 H 0.12197 0.33349 0.22879
 C857 C 0.05995 0.28771 0.79232
 C858 C 0.04622 0.25341 0.83158
 C859 C 0.07415 0.21121 0.83256
 C860 C 0.11620 0.20687 0.80466
 C861 C 0.12915 0.23922 0.76548
 C862 C 0.09568 0.27624 0.75599
 C863 C 0.04367 0.33546 0.78994
 C864 C 0.05246 0.36597 0.74938
 C865 C 0.07746 0.34931 0.70925
 C866 C 0.09974 0.30490 0.71276
 H867 H 0.02740 0.35145 0.82079
 H868 H 0.03940 0.40262 0.74892
 H869 H 0.08209 0.37197 0.67670
 H870 H 0.12111 0.29352 0.68202
 H871 H 0.06601 0.18140 0.85705
 H872 H 0.13956 0.17745 0.81536
 C873 C 0.58798 0.71423 0.33433
 C874 C 0.54960 0.74399 0.31924
 C875 C 0.55953 0.76954 0.27393
 C876 C 0.60619 0.77174 0.25350
 C877 C 0.64666 0.75355 0.27999
 C878 C 0.63618 0.73027 0.32732
 C879 C 0.58178 0.66542 0.34742
 C880 C 0.61797 0.64362 0.37661
 C881 C 0.66056 0.67032 0.38946
 C882 C 0.66974 0.71402 0.36476
 H883 H 0.54913 0.64521 0.33621
 H884 H 0.61107 0.60804 0.39136
 H885 H 0.68691 0.65701 0.41676
 H886 H 0.70120 0.73531 0.37718
 H887 H 0.53152 0.78457 0.25047
 H888 H 0.61061 0.78898 0.21756
 C889 C 0.53938 0.21528 0.20634
 C890 C 0.53366 0.23936 0.15775
 C891 C 0.57769 0.25519 0.13840
 C892 C 0.62193 0.25260 0.16469
 C893 C 0.62740 0.24236 0.21656
 C894 C 0.58467 0.22071 0.23682
 C895 C 0.50408 0.18132 0.22341
 C896 C 0.50797 0.16083 0.27084
 C897 C 0.54878 0.17072 0.30171
 C898 C 0.58740 0.19906 0.28444
 H899 H 0.47476 0.16721 0.19955
 H900 H 0.47973 0.13584 0.28317
 H901 H 0.55169 0.15409 0.33825
 H902 H 0.61999 0.20240 0.30823
 H903 H 0.58008 0.26582 0.10027
 H904 H 0.65231 0.25941 0.14141
 C905 C 0.07140 0.79936 0.65171
 C906 C 0.03847 0.75884 0.65753
 C907 C 0.05178 0.73177 0.70112
 C908 C 0.09785 0.73734 0.72668
 C909 C 0.13543 0.76768 0.70827
 C910 C 0.12172 0.79529 0.66460
 C911 C 0.05726 0.84560 0.63586
 C912 C 0.08876 0.87226 0.60650
 C913 C 0.13472 0.85461 0.59870
 C914 C 0.15307 0.81956 0.63121
 H915 H 0.02121 0.85867 0.64152
 H916 H 0.07666 0.90419 0.58756
 H917 H 0.15713 0.87023 0.57022
 H918 H 0.19057 0.81242 0.62700
 H919 H 0.02494 0.71029 0.72002
 H920 H 0.10421 0.71646 0.76040
 C921 C 0.93903 0.77327 0.71050
 C922 C 0.94213 0.75055 0.66109
 C923 C 0.89816 0.72841 0.64324
 C924 C 0.85493 0.72771 0.66976
 C925 C 0.85006 0.75019 0.71722
 C926 C 0.89409 0.77100 0.73825
 C927 C 0.97869 0.79843 0.73487
 C928 C 0.98051 0.80651 0.78610
 C929 C 0.93863 0.80090 0.81285
 C930 C 0.89512 0.78705 0.78829
 H931 H 1.00860 0.81397 0.71592
 H932 H 1.01351 0.82160 0.80425
 H933 H 0.93927 0.80997 0.85212
 H934 H 0.86327 0.78528 0.81042
 H935 H 0.89633 0.71172 0.60683
 H936 H 0.82481 0.70810 0.65127
 C937 C 0.43498 0.27120 0.19780
 C938 C 0.44072 0.23757 0.15684
 C939 C 0.40304 0.20275 0.14975
 C940 C 0.36034 0.20345 0.17684
 C941 C 0.35179 0.23676 0.21475
 C942 C 0.39186 0.26888 0.22781
 C943 C 0.46981 0.30908 0.20822
 C944 C 0.46586 0.33968 0.24900
 C945 C 0.42690 0.33401 0.28030
 C946 C 0.39023 0.29920 0.26983
 H947 H 0.49991 0.31662 0.18450
 H948 H 0.49338 0.36790 0.25652
 H949 H 0.42478 0.35713 0.31265
 H950 H 0.36155 0.29542 0.29597
 H951 H 0.40546 0.17595 0.12101
 H952 H 0.33184 0.17778 0.16735
 C953 C 0.44530 0.79611 0.28118
 C954 C 0.46092 0.75143 0.30429
 C955 C 0.44961 0.71078 0.27346
 C956 C 0.40509 0.70888 0.24534
 C957 C 0.37871 0.75147 0.23827
 C958 C 0.40654 0.79363 0.24409
 C959 C 0.47383 0.83961 0.28322
 C960 C 0.47351 0.87086 0.24255
 C961 C 0.43975 0.86356 0.20306
 C962 C 0.40479 0.82687 0.20514
 H963 H 0.50440 0.84528 0.30834
 H964 H 0.50244 0.89818 0.24014
 H965 H 0.44132 0.88433 0.16948
 H966 H 0.38029 0.82061 0.17339
 H967 H 0.47111 0.67858 0.27675
 H968 H 0.39007 0.67427 0.23242
 C969 C 0.92933 0.29651 0.80849
 C970 C 0.95543 0.25675 0.83016
 C971 C 0.94253 0.21117 0.80638
 C972 C 0.89898 0.20457 0.77600
 C973 C 0.87330 0.24479 0.75702
 C974 C 0.89883 0.28819 0.76468
 C975 C 0.93967 0.34523 0.81906
 C976 C 0.94322 0.37730 0.77916
 C977 C 0.93283 0.36044 0.73038
 C978 C 0.90744 0.31701 0.72347
 H979 H 0.95234 0.35829 0.85482
 H980 H 0.95946 0.41262 0.78703
 H981 H 0.94289 0.37962 0.69749
 H982 H 0.89511 0.30561 0.68636
 H983 H 0.96286 0.17924 0.81610
 H984 H 0.88509 0.16809 0.76850
 C985 C 0.51896 0.97673 0.67884
 C986 C 0.57137 0.98467 0.69137
 C987 C 0.60154 0.96796 0.65326
 C988 C 0.58409 0.94476 0.60931
 C989 C 0.53421 0.94058 0.59557
 C990 C 0.50312 0.94747 0.63583
 C991 C 0.48024 0.99844 0.70298
 C992 C 0.43195 0.98099 0.69742
 C993 C 0.41957 0.94478 0.66314
 C994 C 0.45452 0.92946 0.63105
 H995 H 0.48444 1.03098 0.72384
 H996 H 0.40366 0.99707 0.71856
 H997 H 0.38209 0.93145 0.65874
 H998 H 0.44341 0.90449 0.60136
 H999 H 0.64075 0.97049 0.65838
 H1000 H 0.61088 0.93197 0.58504
 C1001 C 0.07496 0.53125 1.18178
 C1002 C 0.09453 0.48987 1.20031
 C1003 C 0.08362 0.44802 1.16897
 C1004 C 0.06112 0.44965 1.12059
 C1005 C 0.05858 0.49229 1.09250
 C1006 C 0.08086 0.53589 1.11808
 C1007 C 0.07092 0.57579 1.22435
 C1008 C 0.08142 0.63357 1.21018
 C1009 C 0.09657 0.64441 1.11512
 C1010 C 0.09575 0.58958 1.08678
 H1011 H 0.05967 0.56955 1.26124
 H1012 H 0.07958 0.65927 1.24084
 H1013 H 0.10549 0.67641 1.09347
 H1014 H 0.10985 0.59047 1.05011
 H1015 H 0.08871 0.41184 1.18218
 H1016 H 0.04763 0.41593 1.10385
 C1017 C -0.07834 0.06362 1.15203
 C1018 C -0.08110 0.02248 1.18806
 C1019 C -0.04663 -0.01287 1.17826
 C1020 C -0.01460 -0.00835 1.13889
 C1021 C -0.01286 0.03359 1.10722
 C1022 C -0.03554 0.07264 1.12458
 C1023 C -0.11588 0.09472 1.13741
 C1024 C -0.10577 0.13823 1.11086
 C1025 C -0.05872 0.15205 1.09943
 C1026 C -0.02326 0.11834 1.10492
 H1027 H -0.15237 0.08388 1.14426
 H1028 H -0.13297 0.16145 1.09587
 H1029 H -0.05131 0.18590 1.08029
 H1030 H 0.01177 0.12551 1.08845
 H1031 H -0.04425 -0.04580 1.19900
 H1032 H 0.00632 -0.04003 1.13140
 C1033 C 0.38269 0.55597 0.66066
 C1034 C 0.39204 0.51617 0.69582
 C1035 C 0.43025 0.48747 0.68169
 C1036 C 0.45965 0.49570 0.64030
 C1037 C 0.45510 0.53310 0.60242
 C1038 C 0.42159 0.56742 0.61160
 C1039 C 0.34426 0.59403 0.68146
 C1040 C 0.34296 0.65078 0.66611
 C1041 C 0.39895 0.67211 0.59461
 C1042 C 0.43174 0.62133 0.58152
 H1043 H 0.30926 0.58127 0.69112
 H1044 H 0.31444 0.66697 0.68358
 H1045 H 0.40687 0.70634 0.57589
 H1046 H 0.46880 0.62768 0.57056
 H1047 H 0.43780 0.45530 0.70283
 H1048 H 0.48656 0.46807 0.63832
 C1049 C 0.36465 0.47720 -0.15643
 C1050 C 0.39135 0.48374 -0.20072
 C1051 C 0.44237 0.47476 -0.19329
 C1052 C 0.46504 0.46771 -0.14504
 C1053 C 0.44007 0.47342 -0.10011
 C1054 C 0.38842 0.48357 -0.10801
 C1055 C 0.31300 0.47346 -0.15900
 C1056 C 0.28677 0.49819 -0.12502
 C1057 C 0.31186 0.51958 -0.08534
 C1058 C 0.35909 0.50590 -0.07258
 H1059 H 0.29230 0.45880 -0.19032
 H1060 H 0.24800 0.50351 -0.13131
 H1061 H 0.29446 0.54598 -0.06380
 H1062 H 0.37087 0.51807 -0.03649
 H1063 H 0.46631 0.47601 -0.22419
 H1064 H 0.50396 0.46175 -0.14298
 C1065 C -0.09999 1.02330 0.33764
 C1066 C -0.07748 1.01709 0.29159
 C1067 C -0.03353 0.99013 0.29764
 C1068 C -0.01899 0.96779 0.34439
 C1069 C -0.05058 0.96479 0.38561
 C1070 C -0.09742 0.98539 0.37308
 C1071 C -0.12623 1.06438 0.35054
 C1072 C -0.16170 1.06002 0.38640
 C1073 C -0.17273 1.01411 0.40535
 C1074 C -0.14041 0.97638 0.39830
 H1075 H -0.12066 1.09906 0.33315
 H1076 H -0.18417 1.09043 0.39459
 H1077 H -0.20559 1.00833 0.42574
 H1078 H -0.14968 0.94028 0.41026
 H1079 H -0.00898 0.98756 0.26742
 H1080 H 0.01766 0.95432 0.34876
 C1081 C 0.04164 0.49433 0.30074
 C1082 C 0.09404 0.48859 0.29888
 C1083 C 0.11964 0.48879 0.34508
 C1084 C 0.09769 0.50105 0.38900
 C1085 C 0.04837 0.51557 0.39052
 C1086 C 0.02151 0.51531 0.34423
 C1087 C 0.00834 0.48300 0.26058
 C1088 C -0.03947 0.49904 0.25923
 C1089 C -0.05550 0.52702 0.29784
 C1090 C -0.02533 0.53526 0.33988
 H1091 H 0.01757 0.46062 0.23021
 H1092 H -0.06378 0.49061 0.22747
 H1093 H -0.09177 0.54154 0.29584
 H1094 H -0.03862 0.55861 0.36813
 H1095 H 0.15832 0.48140 0.34696
 H1096 H 0.12036 0.49712 0.42227
 C1097 C 0.61773 0.01279 -0.15930
 C1098 C 0.58373 0.00490 -0.20127
 C1099 C 0.53437 0.00803 -0.18856
 C1100 C 0.52091 0.02457 -0.14197
 C1101 C 0.55292 0.02103 -0.09981
 C1102 C 0.60102 0.00486 -0.11064
 C1103 C 0.66893 0.01881 -0.16252
 C1104 C 0.69936 -0.00795 -0.13137
 C1105 C 0.67824 -0.03624 -0.09524
 C1106 C 0.63119 -0.02607 -0.08100
 H1107 H 0.68641 0.03916 -0.19084
 H1108 H 0.73801 -0.00984 -0.13804
 H1109 H 0.69907 -0.06400 -0.07674
 H1110 H 0.62009 -0.04642 -0.04958
 H1111 H 0.50482 -0.00298 -0.21213
 H1112 H 0.48257 0.03161 -0.13784
 C1113 C 0.65331 0.63461 0.02127
 C1114 C 0.69693 0.61883 -0.00111
 C1115 C 0.69089 0.57380 -0.02663
 C1116 C 0.64723 0.54501 -0.02594
 C1117 C 0.60856 0.55566 0.00518
 C1118 C 0.61506 0.60085 0.03373
 C1119 C 0.64573 0.68410 0.03069
 C1120 C 0.60818 0.70041 0.05859
 C1121 C 0.57770 0.66711 0.08027
 C1122 C 0.58172 0.61832 0.06927
 H1123 H 0.67015 0.71110 0.01955
 H1124 H 0.60477 0.73873 0.06583
 H1125 H 0.54962 0.67910 0.10444
 H1126 H 0.55313 0.59832 0.08550
 H1127 H 0.71952 0.55999 -0.04848
 H1128 H 0.64447 0.51270 -0.04883
 C1129 C 0.15505 1.12544 0.48838
 C1130 C 0.20071 1.10091 0.48907
 C1131 C 0.19416 1.04975 0.49750
 C1132 C 0.14759 1.02511 0.49378
 C1133 C 0.10372 1.05017 0.49663
 C1134 C 0.11125 1.10143 0.50431
 C1135 C 0.15367 1.17579 0.48333
 C1136 C 0.12426 1.20207 0.51388
 C1137 C 0.08899 1.17858 0.54087
 C1138 C 0.08101 1.12919 0.53431
 H1139 H 0.17857 1.19475 0.46012
 H1140 H 0.13084 1.24001 0.51951
 H1141 H 0.06652 1.19881 0.56534
 H1142 H 0.05123 1.11409 0.55409
 H1143 H 0.22312 1.02762 0.51136
 H1144 H 0.14608 0.98589 0.49471
 C1145 C 0.20666 -0.04694 1.01067
 C1146 C 0.20397 -0.09680 0.99306
 C1147 C 0.15693 -0.11277 0.97566
 C1148 C 0.11821 -0.08285 0.96873
 C1149 C 0.11889 -0.03546 0.98723
 C1150 C 0.16445 -0.01634 1.00555
 C1151 C 0.24785 -0.02652 1.03657
 C1152 C 0.24610 0.01842 1.05950
 C1153 C 0.20769 0.04859 1.05027
 C1154 C 0.16851 0.03243 1.02073
 H1155 H 0.28158 -0.04411 1.04138
 H1156 H 0.27327 0.02881 1.08722
 H1157 H 0.20747 0.08402 1.06721
 H1158 H 0.14138 0.05847 1.01128
 H1159 H 0.14925 -0.14895 0.96247
 H1160 H 0.08559 -0.09958 0.95158
 C1161 C 0.69993 0.45230 0.51606
 C1162 C 0.70112 0.40091 0.50230
 C1163 C 0.65447 0.37734 0.50187
 C1164 C 0.61162 0.40331 0.49847
 C1165 C 0.60967 0.45135 0.51588
 C1166 C 0.65509 0.47175 0.53351
 C1167 C 0.73958 0.48608 0.51463
 C1168 C 0.73911 0.53060 0.53902
 C1169 C 0.69904 0.54314 0.56597
 C1170 C 0.65709 0.51366 0.56356
 H1171 H 0.77241 0.47947 0.49737
 H1172 H 0.77024 0.55530 0.53681
 H1173 H 0.69961 0.57685 0.58656
 H1174 H 0.62559 0.52525 0.58279
 H1175 H 0.65083 0.33857 0.49602
 H1176 H 0.57938 0.38388 0.48408
 C1177 C -0.15855 0.36967 0.51417
 C1178 C -0.20024 0.38531 0.48482
 C1179 C -0.18916 0.42270 0.45071
 C1180 C -0.14576 0.45248 0.45670
 C1181 C -0.11039 0.44575 0.49613
 C1182 C -0.11853 0.40256 0.52660
 C1183 C -0.15431 0.32088 0.53003
 C1184 C -0.12042 0.30664 0.56610
 C1185 C -0.08702 0.34012 0.58508
 C1186 C -0.08523 0.38631 0.56486
 H1187 H -0.17693 0.29247 0.51566
 H1188 H -0.11985 0.26939 0.57884
 H1189 H -0.05951 0.32922 0.61260
 H1190 H -0.05339 0.40471 0.57732
 H1191 H -0.21646 0.43261 0.42259
 H1192 H -0.14011 0.48156 0.43020
 C1193 C 0.34256 -0.12985 0.00319
 C1194 C 0.29935 -0.11118 -0.01989
 C1195 C 0.30659 -0.06669 -0.04561
 C1196 C 0.35184 -0.04006 -0.04214
 C1197 C 0.39108 -0.05423 -0.00968
 C1198 C 0.38330 -0.09934 0.01738
 C1199 C 0.34510 -0.17894 0.01485
 C1200 C 0.37467 -0.19533 0.05401
 C1201 C 0.40972 -0.16475 0.07472
 C1202 C 0.41506 -0.11830 0.05611
 H1203 H 0.32351 -0.20334 -0.00653
 H1204 H 0.37043 -0.23110 0.06940
 H1205 H 0.43479 -0.17798 0.10342
 H1206 H 0.44630 -0.10124 0.07313
 H1207 H 0.27669 -0.05093 -0.06674
 H1208 H 0.35542 -0.00671 -0.06318
 C1209 C 0.34853 1.12580 0.51225
 C1210 C 0.30201 1.10215 0.50092
 C1211 C 0.30610 1.05330 0.48437
 C1212 C 0.35021 1.02743 0.48795
 C1213 C 0.39572 1.05169 0.49440
 C1214 C 0.39267 1.10371 0.49728
 C1215 C 0.35297 1.17436 0.52920
 C1216 C 0.39451 1.20307 0.52047
 C1217 C 0.43191 1.18454 0.49371
 C1218 C 0.43020 1.13576 0.48088
 H1219 H 0.32581 1.19220 0.54881
 H1220 H 0.39513 1.24078 0.53018
 H1221 H 0.46201 1.20792 0.48261
 H1222 H 0.45965 1.12382 0.45908
 H1223 H 0.27717 1.03542 0.46283
 H1224 H 0.34912 0.98922 0.47872
 C1225 C -0.15725 0.64511 0.99035
 C1226 C -0.20221 0.62125 1.00338
 C1227 C -0.19919 0.57000 1.00984
 C1228 C -0.15468 0.54497 1.00772
 C1229 C -0.11125 0.56752 0.99163
 C1230 C -0.11618 0.61816 0.97555
 C1231 C -0.15296 0.69626 0.98891
 C1232 C -0.11655 0.72076 0.96399
 C1233 C -0.08238 0.69474 0.94038
 C1234 C -0.08163 0.64482 0.94648
 H1235 H -0.17795 0.71844 1.00606
 H1236 H -0.11560 0.75997 0.96214
 H1237 H -0.05442 0.71350 0.91957
 H1238 H -0.05063 0.63052 0.93024
 H1239 H -0.23082 0.54843 1.01981
 H1240 H -0.15463 0.50694 1.01772
 C1241 C 0.01166 0.65865 0.60517
 C1242 C -0.01213 0.70031 0.58955
 C1243 C -0.02900 0.69647 0.53805
 C1244 C -0.02067 0.65505 0.50660
 C1245 C 0.01193 0.61768 0.52088
 C1246 C 0.03457 0.62764 0.57099
 C1247 C 0.01204 0.64553 0.65485
 C1248 C 0.05012 0.61895 0.67509
 C1249 C 0.08446 0.60129 0.64370
 C1250 C 0.07639 0.60523 0.59219
 H1251 H -0.01557 0.65953 0.67751
 H1252 H 0.05494 0.61584 0.71493
 H1253 H 0.11644 0.58349 0.65894
 H1254 H 0.10392 0.59194 0.57066
 H1255 H -0.05002 0.72518 0.52196
 H1256 H -0.03998 0.65246 0.47071
 C1257 C 0.46226 0.18516 0.03696
 C1258 C 0.48976 0.19328 0.08373
 C1259 C 0.52905 0.16165 0.09195
 C1260 C 0.54181 0.12706 0.05807
 C1261 C 0.51239 0.11509 0.01551
 C1262 C 0.47544 0.14786 0.00248
 C1263 C 0.42085 0.21166 0.02345
 C1264 C 0.39496 0.20408 -0.02173
 C1265 C 0.41075 0.17146 -0.05628
 C1266 C 0.45101 0.14382 -0.04456
 H1267 H 0.40672 0.23701 0.04810
 H1268 H 0.36194 0.22330 -0.02981
 H1269 H 0.39130 0.16707 -0.09194
 H1270 H 0.46332 0.11962 -0.07281
 H1271 H 0.55149 0.16161 0.12574
 H1272 H 0.57151 0.10454 0.07043
 C1273 C -0.04729 0.18539 0.91416
 C1274 C -0.00363 0.21408 0.90885
 C1275 C 0.03553 0.19915 0.94120
 C1276 C 0.03368 0.15468 0.96873
 C1277 C -0.00525 0.11970 0.96222
 C1278 C -0.04436 0.13521 0.92752
 C1279 C -0.09418 0.20402 0.90424
 C1280 C -0.13287 0.17329 0.88952
 C1281 C -0.12599 0.12396 0.88689
 C1282 C -0.08285 0.10477 0.90647
 H1283 H -0.10047 0.24226 0.90185
 H1284 H -0.16705 0.18825 0.87713
 H1285 H -0.15532 0.10009 0.87268
 H1286 H -0.08390 0.06623 0.90697
 H1287 H 0.06869 0.22128 0.94419
 H1288 H 0.06496 0.14613 0.99269
 C1289 C 0.46625 0.65759 0.37925
 C1290 C 0.49469 0.70145 0.38778
 C1291 C 0.52833 0.69738 0.43037
 C1292 C 0.53426 0.65332 0.45929
 C1293 C 0.51106 0.60808 0.44497
 C1294 C 0.48475 0.61245 0.39687
 C1295 C 0.42161 0.65397 0.35151
 C1296 C 0.41158 0.61261 0.32215
 C1297 C 0.44354 0.57471 0.32426
 C1298 C 0.48047 0.57533 0.36104
 H1299 H 0.39792 0.68420 0.34701
 H1300 H 0.38300 0.61183 0.29354
 H1301 H 0.43970 0.54509 0.29787
 H1302 H 0.50713 0.54841 0.36009
 H1303 H 0.55079 0.72872 0.44137
 H1304 H 0.55619 0.65498 0.49368
 C1305 C 0.45390 0.81078 0.40722
 C1306 C 0.49749 0.79480 0.38399
 C1307 C 0.53852 0.82642 0.39098
 C1308 C 0.53566 0.87160 0.41503
 C1309 C 0.49790 0.88352 0.44752
 C1310 C 0.45508 0.85203 0.44144
 C1311 C 0.40787 0.78865 0.39495
 C1312 C 0.36478 0.80616 0.41282
 C1313 C 0.36672 0.84137 0.44948
 C1314 C 0.41140 0.86222 0.46531
 H1315 H 0.40368 0.75812 0.37082
 H1316 H 0.32998 0.78932 0.40135
 H1317 H 0.33345 0.85179 0.46666
 H1318 H 0.41019 0.88622 0.49626
 H1319 H 0.57198 0.81931 0.37251
 H1320 H 0.56524 0.89732 0.40874
 C1321 C 0.05031 0.33680 0.90901
 C1322 C 0.00768 0.30597 0.90557
 C1323 C -0.02954 0.32066 0.93772
 C1324 C -0.02757 0.36606 0.96353
 C1325 C 0.00915 0.40224 0.95562
 C1326 C 0.04624 0.38724 0.92120
 C1327 C 0.09645 0.32039 0.89645
 C1328 C 0.13115 0.35242 0.87778
 C1329 C 0.12192 0.40142 0.87575
 C1330 C 0.08049 0.41890 0.89757
 H1331 H 0.10492 0.28253 0.89781
 H1332 H 0.16396 0.33881 0.86257
 H1333 H 0.14800 0.42628 0.85918
 H1334 H 0.07815 0.45733 0.89554
 H1335 H -0.06117 0.29758 0.94289
 H1336 H -0.05714 0.37403 0.98763
 C1337 C 0.44478 0.32162 0.08774
 C1338 C 0.48157 0.28624 0.08475
 C1339 C 0.51374 0.29617 0.04484
 C1340 C 0.51538 0.34158 0.01894
 C1341 C 0.48877 0.38171 0.03449
 C1342 C 0.45780 0.37037 0.07736
 C1343 C 0.39685 0.31307 0.10469
 C1344 C 0.37460 0.34827 0.13184
 C1345 C 0.40079 0.39068 0.14259
 C1346 C 0.44143 0.40237 0.11507
 H1347 H 0.37780 0.27872 0.10272
 H1348 H 0.34057 0.33982 0.14923
 H1349 H 0.39057 0.41425 0.17231
 H1350 H 0.46137 0.43368 0.12938
 H1351 H 0.53705 0.26812 0.03211
 H1352 H 0.53963 0.34596 -0.01180
 C1353 C 0.01959 0.80035 0.54510
 C1354 C -0.01563 0.79191 0.58366
 C1355 C -0.05102 0.82720 0.58789
 C1356 C -0.04754 0.87108 0.56276
 C1357 C -0.01388 0.88108 0.52459
 C1358 C 0.01774 0.84310 0.51372
 C1359 C 0.06104 0.77128 0.54155
 C1360 C 0.09834 0.78420 0.50997
 C1361 C 0.09213 0.82040 0.47474
 C1362 C 0.05111 0.84854 0.47534
 H1363 H 0.06795 0.74125 0.56627
 H1364 H 0.13269 0.76651 0.51335
 H1365 H 0.12004 0.82782 0.44800
 H1366 H 0.04711 0.87566 0.44674
 H1367 H -0.07891 0.82446 0.61518
 H1368 H -0.07276 0.89777 0.57453
 C1369 C 0.24044 0.29214 0.06052
 C1370 C 0.22903 0.34172 0.05141
 C1371 C 0.19919 0.36150 0.08812
 C1372 C 0.17723 0.33294 0.12489
 C1373 C 0.18714 0.28363 0.13082
 C1374 C 0.20889 0.26249 0.08952
 C1375 C 0.28395 0.27123 0.04746
 C1376 C 0.28849 0.22086 0.04853
 C1377 C 0.24969 0.19111 0.06286
 C1378 C 0.20959 0.21177 0.08397
 H1379 H 0.31573 0.29382 0.04208
 H1380 H 0.32217 0.20448 0.03985
 H1381 H 0.25309 0.15231 0.06226
 H1382 H 0.18278 0.18845 0.10154
 H1383 H 0.19153 0.39969 0.08842
 H1384 H 0.15331 0.35049 0.14930
 C1385 C 0.75480 0.84361 0.60170
 C1386 C 0.73760 0.82659 0.55425
 C1387 C 0.69634 0.79283 0.55714
 C1388 C 0.68016 0.77485 0.60410
 C1389 C 0.69264 0.80048 0.64856
 C1390 C 0.71965 0.84487 0.63812
 C1391 C 0.80118 0.86535 0.61415
 C1392 C 0.80578 0.89929 0.65282
 C1393 C 0.76356 0.91379 0.67546
 C1394 C 0.71975 0.88728 0.66607
 H1395 H 0.83353 0.85730 0.59502
 H1396 H 0.84058 0.91758 0.66133
 H1397 H 0.76472 0.94523 0.69951
 H1398 H 0.68570 0.90048 0.67776
 H1399 H 0.67928 0.77740 0.52362
 H1400 H 0.65778 0.74193 0.60544
 C1401 C 0.31259 0.66257 0.58358
 C1402 C 0.26577 0.65976 0.55565
 C1403 C 0.23087 0.68872 0.57535
 C1404 C 0.23920 0.72396 0.61163
 C1405 C 0.28382 0.73354 0.64044
 C1406 C 0.32551 0.71740 0.61531
 C1407 C 0.34807 0.61143 0.59700
 C1408 C 0.41994 0.63646 0.66450
 C1409 C 0.41865 0.69971 0.67606
 C1410 C 0.37428 0.73320 0.65209
 H1411 H 0.33680 0.57586 0.58284
 H1412 H 0.44959 0.60843 0.68237
 H1413 H 0.42354 0.66587 0.67338
 H1414 H 0.37514 0.77002 0.66601
 H1415 H 0.19305 0.67877 0.56929
 H1416 H 0.20480 0.73723 0.62258
 C1417 C 0.72799 0.20427 0.05968
 C1418 C 0.74913 0.15648 0.05521
 C1419 C 0.77559 0.14437 0.09773
 C1420 C 0.79141 0.17603 0.13439
 C1421 C 0.77789 0.22329 0.13933
 C1422 C 0.74754 0.23874 0.09753
 C1423 C 0.68859 0.22004 0.02907
 C1424 C 0.67343 0.26786 0.02992
 C1425 C 0.69873 0.30216 0.05944
 C1426 C 0.73599 0.28791 0.09249
 H1427 H 0.66859 0.19660 0.00436
 H1428 H 0.64328 0.27887 0.00560
 H1429 H 0.68868 0.33978 0.05757
 H1430 H 0.75472 0.31526 0.11558
 H1431 H 0.78889 0.10988 0.10271
 H1432 H 0.81653 0.16095 0.15866
 C1433 C 0.76080 0.19727 0.94811
 C1434 C 0.75710 0.14610 0.95606
 C1435 C 0.74942 0.11826 0.91214
 C1436 C 0.74003 0.13962 0.86526
 C1437 C 0.73293 0.19005 0.85941
 C1438 C 0.73857 0.21789 0.90413
 C1439 C 0.78783 0.22924 0.98035
 C1440 C 0.78060 0.27900 0.97762
 C1441 C 0.74569 0.29678 0.94377
 C1442 C 0.72532 0.26659 0.90652
 H1443 H 0.81159 0.21642 1.01022
 H1444 H 0.79897 0.30312 1.00450
 H1445 H 0.73567 0.33438 0.94518
 H1446 H 0.69931 0.28158 0.88000
 H1447 H 0.75047 0.07917 0.91416
 H1448 H 0.73961 0.11580 0.83356
 C1449 C 0.23757 0.62611 0.40906
 C1450 C 0.24167 0.65523 0.45280
 C1451 C 0.23916 0.70644 0.44371
 C1452 C 0.23450 0.72560 0.39487
 C1453 C 0.24235 0.69654 0.35299
 C1454 C 0.25435 0.64707 0.36486
 C1455 C 0.23187 0.57494 0.41046
 C1456 C 0.26228 0.54702 0.38285
 C1457 C 0.29557 0.57051 0.35300
 C1458 C 0.28974 0.61941 0.34173
 H1459 H 0.20997 0.55603 0.43695
 H1460 H 0.26318 0.50817 0.38824
 H1461 H 0.32476 0.55071 0.33741
 H1462 H 0.31543 0.63454 0.31768
 H1463 H 0.23996 0.73191 0.47440
 H1464 H 0.22929 0.76412 0.39033
 C1465 C 0.76895 0.78185 0.44386
 C1466 C 0.75250 0.83090 0.45332
 C1467 C 0.75787 0.86336 0.41282
 C1468 C 0.78079 0.85179 0.36882
 C1469 C 0.79472 0.80442 0.35723
 C1470 C 0.79249 0.77051 0.39760
 C1471 C 0.76538 0.74335 0.47888
 C1472 C 0.78315 0.69749 0.47033
 C1473 C 0.80752 0.68827 0.42749
 C1474 C 0.81317 0.72448 0.39224
 H1475 H 0.75239 0.74701 0.51499
 H1476 H 0.77984 0.66943 0.49840
 H1477 H 0.82302 0.65312 0.42196
 H1478 H 0.83468 0.71586 0.36100
 H1479 H 0.74740 0.90068 0.41676
 H1480 H 0.78259 0.88015 0.34147
 C1481 C 0.22214 0.29471 0.94081
 C1482 C 0.23428 0.34502 0.94995
 C1483 C 0.25154 0.37054 0.90823
 C1484 C 0.26639 0.34707 0.86513
 C1485 C 0.26621 0.29594 0.85995
 C1486 C 0.24518 0.26966 0.90102
 C1487 C 0.18803 0.26804 0.96870
 C1488 C 0.18315 0.21780 0.96423
 C1489 C 0.21444 0.19295 0.93453
 C1490 C 0.24622 0.21860 0.90419
 H1491 H 0.16512 0.28503 0.99464
 H1492 H 0.15709 0.19786 0.98634
 H1493 H 0.21341 0.15371 0.93425
 H1494 H 0.27036 0.19808 0.88205
 H1495 H 0.25736 0.40937 0.91068
 H1496 H 0.27743 0.37054 0.83579
 C1497 C 0.84247 0.42502 0.80433
 C1498 C 0.84660 0.45259 0.75778
 C1499 C 0.83340 0.42310 0.71597
 C1500 C 0.82106 0.37371 0.71929
 C1501 C 0.80242 0.35174 0.76188
 C1502 C 0.81282 0.37997 0.80607
 C1503 C 0.87168 0.43468 0.84791
 C1504 C 0.86103 0.41385 0.89353
 C1505 C 0.82358 0.37966 0.89643
 C1506 C 0.80048 0.36176 0.85297
 H1507 H 0.90653 0.45319 0.84701
 H1508 H 0.88289 0.42288 0.92665
 H1509 H 0.81566 0.36442 0.93233
 H1510 H 0.77437 0.33271 0.85639
 H1511 H 0.83748 0.43574 0.67838
 H1512 H 0.82543 0.35301 0.68616
 C1513 C 0.30744 0.94020 0.21737
 C1514 C 0.34895 0.95395 0.24974
 C1515 C 0.36529 0.91653 0.28230
 C1516 C 0.34250 0.86997 0.28331
 C1517 C 0.30164 0.85719 0.25212
 C1518 C 0.27954 0.89651 0.22729
 C1519 C 0.28758 0.97117 0.18042
 C1520 C 0.23795 0.96743 0.16664
 C1521 C 0.20837 0.93210 0.18770
 C1522 C 0.22904 0.89561 0.21575
 H1523 H 0.30656 1.00304 0.16843
 H1524 H 0.22058 0.99604 0.14598
 H1525 H 0.16902 0.93379 0.18338
 H1526 H 0.20423 0.87004 0.23254
 H1527 H 0.39694 0.92224 0.30705
 H1528 H 0.35794 0.84342 0.30851
 C1529 C 0.17331 0.93562 0.69174
 C1530 C 0.15688 0.95784 0.73696
 C1531 C 0.18572 0.94403 0.78006
 C1532 C 0.21676 0.90488 0.78063
 C1533 C 0.21552 0.87308 0.74102
 C1534 C 0.20801 0.89731 0.69516
 C1535 C 0.16304 0.95289 0.64363
 C1536 C 0.19667 0.94906 0.60613
 C1537 C 0.23683 0.91987 0.61334
 C1538 C 0.24103 0.89193 0.65645
 H1539 H 0.12690 0.96211 0.63227
 H1540 H 0.18925 0.96496 0.56999
 H1541 H 0.26254 0.91605 0.58402
 H1542 H 0.27169 0.86835 0.66016
 H1543 H 0.18679 0.96439 0.81409
 H1544 H 0.23975 0.89821 0.81324
 C1545 C 0.63127 0.40941 0.23681
 C1546 C 0.65690 0.44793 0.26467
 C1547 C 0.69725 0.43262 0.29439
 C1548 C 0.71531 0.38624 0.29087
 C1549 C 0.69632 0.35334 0.25500
 C1550 C 0.65860 0.36975 0.22240
 C1551 C 0.58353 0.41179 0.21464
 C1552 C 0.57243 0.38966 0.16884
 C1553 C 0.60836 0.36476 0.14569
 C1554 C 0.65117 0.35427 0.17275
 H1555 H 0.55636 0.43457 0.22795
 H1556 H 0.53793 0.39570 0.14946
 H1557 H 0.60276 0.35278 0.10746
 H1558 H 0.67934 0.33735 0.15334
 H1559 H 0.71614 0.45486 0.32150
 H1560 H 0.74520 0.37699 0.31633
 C1561 C 0.72989 0.56036 0.24788
 C1562 C 0.67772 0.55191 0.25660
 C1563 C 0.65226 0.59480 0.26391
 C1564 C 0.67298 0.64128 0.26063
 C1565 C 0.72197 0.65182 0.24986
 C1566 C 0.75088 0.60974 0.24303
 C1567 C 0.76333 0.52232 0.24724
 C1568 C 0.81213 0.52963 0.23630
 C1569 C 0.83053 0.57572 0.22760
 C1570 C 0.80078 0.61516 0.23157
 H1571 H 0.75410 0.48627 0.25680
 H1572 H 0.83610 0.49913 0.23534
 H1573 H 0.86863 0.58117 0.21904
 H1574 H 0.81865 0.64942 0.22568
 H1575 H 0.61358 0.59277 0.27076
 H1576 H 0.64697 0.66890 0.26072
 C1577 C 0.12610 0.09511 0.75334
 C1578 C 0.15029 0.05035 0.75537
 C1579 C 0.20246 0.05456 0.75766
 C1580 C 0.22645 0.10055 0.75802
 C1581 C 0.20033 0.14198 0.74432
 C1582 C 0.15001 0.13384 0.73023
 C1583 C 0.07708 0.10072 0.76464
 C1584 C 0.04860 0.13315 0.73693
 C1585 C 0.07019 0.16072 0.69964
 C1586 C 0.12117 0.16200 0.69674
 H1587 H 0.06136 0.07987 0.79414
 H1588 H 0.00997 0.13571 0.74329
 H1589 H 0.04822 0.18418 0.67612
 H1590 H 0.13670 0.18746 0.67114
 H1591 H 0.22544 0.02363 0.75982
 H1592 H 0.26558 0.10322 0.76544
 C1593 C 0.28422 0.04955 0.25331
 C1594 C 0.33724 0.05043 0.25629
 C1595 C 0.35729 0.09681 0.26755
 C1596 C 0.32956 0.13848 0.26430
 C1597 C 0.28160 0.13862 0.24211
 C1598 C 0.25871 0.09194 0.23633
 C1599 C 0.25475 0.01158 0.27267
 C1600 C 0.20409 0.01054 0.26495
 C1601 C 0.18239 0.04498 0.23429
 C1602 C 0.20928 0.08617 0.22068
 H1603 H 0.26975 -0.01845 0.29261
 H1604 H 0.18231 -0.01947 0.27904
 H1605 H 0.14382 0.04152 0.22406
 H1606 H 0.19018 0.11384 0.20041
 H1607 H 0.39582 0.10177 0.27696
 H1608 H 0.34754 0.17108 0.27856
 C1609 C 0.86411 0.60068 0.73852
 C1610 C 0.84023 0.55366 0.74169
 C1611 C 0.78860 0.55492 0.74671
 C1612 C 0.76333 0.59985 0.74430
 C1613 C 0.78877 0.64554 0.74800
 C1614 C 0.84053 0.64184 0.75600
 C1615 C 0.91418 0.60698 0.72934
 C1616 C 0.94289 0.63956 0.75816
 C1617 C 0.92066 0.67065 0.78966
 C1618 C 0.87005 0.67336 0.78685
 H1619 H 0.93217 0.58372 0.70463
 H1620 H 0.98230 0.63907 0.75811
 H1621 H 0.94255 0.69461 0.81396
 H1622 H 0.85584 0.70050 0.80930
 H1623 H 0.76766 0.52121 0.74922
 H1624 H 0.72376 0.59875 0.74291
 C1625 C 0.95248 0.75186 0.21787
 C1626 C 0.95907 0.77365 0.16733
 C1627 C 0.92513 0.81014 0.15575
 C1628 C 0.88070 0.81262 0.17907
 C1629 C 0.87077 0.78576 0.22228
 C1630 C 0.91027 0.76318 0.24569
 C1631 C 0.98524 0.72126 0.24488
 C1632 C 0.98029 0.70770 0.29456
 C1633 C 0.94295 0.72527 0.32139
 C1634 C 0.90865 0.75339 0.29732
 H1635 H 1.01664 0.70710 0.23199
 H1636 H 1.00708 0.68489 0.31289
 H1637 H 0.94058 0.71724 0.36077
 H1638 H 0.88172 0.76919 0.31988
 H1639 H 0.92924 0.83485 0.12535
 H1640 H 0.85379 0.83640 0.16259
 C1641 C 0.43546 0.29813 0.70119
 C1642 C 0.45037 0.25297 0.67960
 C1643 C 0.43434 0.21249 0.70909
 C1644 C 0.39019 0.21306 0.73535
 C1645 C 0.36774 0.25701 0.74625
 C1646 C 0.40185 0.29637 0.74172
 C1647 C 0.46366 0.34154 0.69744
 C1648 C 0.47605 0.36804 0.74069
 C1649 C 0.45738 0.35338 0.78608
 C1650 C 0.42014 0.31789 0.78641
 H1651 H 0.48332 0.35168 0.66519
 H1652 H 0.50252 0.39787 0.73949
 H1653 H 0.46986 0.37095 0.82040
 H1654 H 0.40425 0.30769 0.82125
 H1655 H 0.45132 0.17808 0.70632
 H1656 H 0.37329 0.17880 0.74588
 C1657 C 0.40806 0.70415 0.87057
 C1658 C 0.44851 0.73631 0.86289
 C1659 C 0.44145 0.77182 0.82460
 C1660 C 0.39587 0.77857 0.79927
 C1661 C 0.35301 0.75278 0.81259
 C1662 C 0.35977 0.71755 0.85373
 C1663 C 0.41360 0.65790 0.89243
 C1664 C 0.37421 0.63077 0.90838
 C1665 C 0.32827 0.64900 0.90323
 C1666 C 0.32156 0.69238 0.87801
 H1667 H 0.44775 0.64169 0.89954
 H1668 H 0.38029 0.59759 0.92838
 H1669 H 0.29778 0.62975 0.91925
 H1670 H 0.28687 0.70669 0.88221
 H1671 H 0.47128 0.79651 0.81568
 H1672 H 0.39409 0.80468 0.76913
 C1673 C 0.94166 0.29189 0.30937
 C1674 C 0.95111 0.25620 0.34774
 C1675 C 0.91121 0.22430 0.35642
 C1676 C 0.86864 0.22318 0.32720
 C1677 C 0.85888 0.25580 0.28724
 C1678 C 0.89766 0.28950 0.27727
 C1679 C 0.97357 0.33172 0.30314
 C1680 C 0.97033 0.36077 0.26098
 C1681 C 0.93145 0.35478 0.22669
 C1682 C 0.89450 0.32054 0.23550
 H1683 H 0.99944 0.34257 0.33190
 H1684 H 0.99839 0.38787 0.25528
 H1685 H 0.92924 0.37766 0.19390
 H1686 H 0.86471 0.31758 0.20821
 H1687 H 0.91136 0.19872 0.38686
 H1688 H 0.84322 0.19441 0.33705
 C1689 C 0.07270 0.21388 0.33207
 C1690 C 0.04732 0.25471 0.34892
 C1691 C 0.07537 0.29699 0.33919
 C1692 C 0.11650 0.29484 0.30936
 C1693 C 0.12312 0.25664 0.27328
 C1694 C 0.09343 0.21478 0.28382
 C1695 C 0.09831 0.18503 0.36702
 C1696 C 0.12673 0.14764 0.35052
 C1697 C 0.12605 0.13689 0.29972
 C1698 C 0.10595 0.16960 0.26531
 H1699 H 0.09400 0.18904 0.40644
 H1700 H 0.14293 0.12307 0.37718
 H1701 H 0.14160 0.10405 0.28786
 H1702 H 0.11038 0.16396 0.22588
 H1703 H 0.07097 0.32986 0.36009
 H1704 H 0.14495 0.32124 0.31919
 C1705 C 0.55620 0.70177 0.83296
 C1706 C 0.54089 0.74293 0.86242
 C1707 C 0.56968 0.78537 0.85518
 C1708 C 0.61012 0.78724 0.82385
 C1709 C 0.62204 0.74968 0.79003
 C1710 C 0.59260 0.70665 0.79481
 C1711 C 0.53994 0.65407 0.84307
 C1712 C 0.55984 0.61360 0.82142
 C1713 C 0.58797 0.61958 0.78009
 C1714 C 0.60148 0.66595 0.76501
 H1715 H 0.51267 0.64659 0.86851
 H1716 H 0.54810 0.57751 0.83267
 H1717 H 0.59838 0.58835 0.75902
 H1718 H 0.61992 0.66910 0.73055
 H1719 H 0.56276 0.81796 0.87561
 H1720 H 0.63332 0.81915 0.82835
 C1721 C 0.56620 0.19259 0.67794
 C1722 C 0.53965 0.23621 0.67701
 C1723 C 0.55992 0.27197 0.71064
 C1724 C 0.60507 0.26669 0.73763
 C1725 C 0.63701 0.22905 0.72728
 C1726 C 0.61734 0.19435 0.68940
 C1727 C 0.54479 0.14690 0.66631
 C1728 C 0.57194 0.11103 0.64538
 C1729 C 0.62089 0.12028 0.63831
 C1730 C 0.64390 0.16089 0.66064
 H1731 H 0.50737 0.13845 0.67351
 H1732 H 0.55491 0.07673 0.63409
 H1733 H 0.64191 0.09375 0.61974
 H1734 H 0.68223 0.16229 0.65497
 H1735 H 0.54291 0.30583 0.71483
 H1736 H 0.61730 0.29533 0.76308
 C1737 C 0.06524 0.70670 0.16456
 C1738 C 0.04717 0.75268 0.16290
 C1739 C 0.06988 0.78587 0.19810
 C1740 C 0.11326 0.77670 0.22815
 C1741 C 0.14367 0.73620 0.22250
 C1742 C 0.12721 0.70161 0.18134
 C1743 C 0.02242 0.66094 0.15294
 C1744 C 0.03789 0.60289 0.14812
 C1745 C 0.13208 0.59466 0.16616
 C1746 C 0.15981 0.64892 0.17704
 H1747 H -0.01563 0.66701 0.15812
 H1748 H 0.00832 0.57578 0.14250
 H1749 H 0.15525 0.56422 0.16710
 H1750 H 0.14953 0.68290 0.16498
 H1751 H 0.05345 0.82077 0.20226
 H1752 H 0.12575 0.80485 0.25403
   
