data_POSCAR
  _audit_creation_date              2014-09-24
  _audit_creation_method            'ToBaCCo'
  _symmetry_space_group_name_H-M    'P1'
  _symmetry_Int_Tables_number       1
  _symmetry_cell_setting            triclinic
  loop_
  _symmetry_equiv_pos_as_xyz
 x,y,z
_cell_length_a 68.9989
_cell_length_b 68.8113
_cell_length_c 68.8398
_cell_angle_alpha 87.860600
_cell_angle_beta 87.796200
_cell_angle_gamma 87.670400
loop_
  _atom_site_label
  _atom_site_type_symbol
  _atom_site_fract_x
  _atom_site_fract_y
  _atom_site_fract_z
C1 C 0.78439 0.63785 1.00526
 C2 C 0.78907 0.62322 0.98934
 C3 C 0.77379 0.61221 0.98544
 C4 C 0.75529 0.61670 0.99786
 C5 C 0.76655 0.64984 0.99824
 C6 C 0.75135 0.63866 0.99438
 C7 C 0.77695 0.62572 1.02290
 C8 C 0.76171 0.61469 1.01900
 H9 H 0.80263 0.62280 0.98078
 H10 H 0.74291 0.60759 0.99476
 H11 H 0.76621 0.66555 0.99593
 H12 H 0.78248 0.62663 1.03739
 C13 C 0.78368 0.36600 0.48072
 C14 C 0.78721 0.37876 0.49790
 C15 C 0.77131 0.38985 0.50353
 C16 C 0.75333 0.38727 0.49152
 C17 C 0.76612 0.35405 0.48721
 C18 C 0.75026 0.36525 0.49284
 C19 C 0.77627 0.38010 0.46466
 C20 C 0.76038 0.39119 0.47034
 H21 H 0.80087 0.37864 0.50528
 H22 H 0.74042 0.39638 0.49613
 H23 H 0.76618 0.33826 0.48726
 H24 H 0.78241 0.38058 0.44988
 C25 C 0.28398 -0.13310 -0.01934
 C26 C 0.28785 -0.12107 -0.00304
 C27 C 0.27126 -0.10937 0.00317
 C28 C 0.25402 -0.11189 -0.00803
 C29 C 0.26744 -0.14460 -0.01293
 C30 C 0.25089 -0.13279 -0.00669
 C31 C 0.27682 -0.11968 -0.03458
 C32 C 0.26026 -0.10797 -0.02828
 H33 H 0.30157 -0.12143 0.00426
 H34 H 0.24119 -0.10271 -0.00316
 H35 H 0.26745 -0.16041 -0.01294
 H36 H 0.28239 -0.11951 -0.04959
 C37 C 0.28335 0.13237 0.50848
 C38 C 0.28805 0.11796 0.49235
 C39 C 0.27260 0.10748 0.48782
 C40 C 0.25391 0.11222 0.49988
 C41 C 0.26601 0.14496 0.50123
 C42 C 0.25062 0.13430 0.49674
 C43 C 0.27517 0.12011 0.52567
 C44 C 0.25976 0.10961 0.52116
 H45 H 0.30179 0.11738 0.48408
 H46 H 0.24138 0.10353 0.49627
 H47 H 0.26616 0.16068 0.49912
 H48 H 0.28039 0.12055 0.54034
 C49 C 0.13650 0.50790 0.28270
 C50 C 0.12238 0.49158 0.28722
 C51 C 0.11175 0.48729 0.27177
 C52 C 0.11605 0.49978 0.25325
 C53 C 0.14887 0.50114 0.26500
 C54 C 0.13806 0.49690 0.24961
 C55 C 0.12396 0.52518 0.27505
 C56 C 0.11331 0.52092 0.25962
 H57 H 0.12209 0.48303 0.30082
 H58 H 0.10723 0.49637 0.24073
 H59 H 0.16459 0.49930 0.26485
 H60 H 0.12438 0.53976 0.28054
 C61 C -0.13057 -0.01939 0.28405
 C62 C -0.11805 -0.00217 0.28813
 C63 C -0.10690 0.00379 0.27239
 C64 C -0.10924 -0.00801 0.25412
 C65 C -0.14247 -0.01244 0.26649
 C66 C -0.13120 -0.00647 0.25081
 C67 C -0.11714 -0.03448 0.27685
 C68 C -0.10544 -0.02819 0.26041
 H69 H -0.11841 0.00500 0.30195
 H70 H -0.10007 -0.00309 0.24136
 H71 H -0.15823 -0.01212 0.26651
 H72 H -0.11693 -0.04949 0.28242
 C73 C 0.36807 0.48055 0.78198
 C74 C 0.38086 0.49756 0.78588
 C75 C 0.39203 0.50330 0.77010
 C76 C 0.38948 0.49156 0.75188
 C77 C 0.35627 0.48739 0.76437
 C78 C 0.36755 0.49314 0.74865
 C79 C 0.38208 0.46446 0.77442
 C80 C 0.39325 0.47025 0.75866
 H81 H 0.38067 0.50479 0.79966
 H82 H 0.39866 0.49625 0.73906
 H83 H 0.34052 0.48764 0.76433
 H84 H 0.38245 0.44961 0.78037
 C85 C 0.63699 1.00580 0.78507
 C86 C 0.62295 0.98929 0.78930
 C87 C 0.61234 0.98529 0.77371
 C88 C 0.61665 0.99822 0.75544
 C89 C 0.64948 0.99924 0.76732
 C90 C 0.63870 0.99526 0.75179
 C91 C 0.62511 1.02230 0.77810
 C92 C 0.61397 1.01812 0.76182
 H93 H 0.62256 0.98058 0.80280
 H94 H 0.60787 0.99496 0.74282
 H95 H 0.66519 0.99731 0.76725
 H96 H 0.62586 1.03688 0.78354
 C97 C -0.01882 0.28441 -0.13294
 C98 C -0.00201 0.28833 -0.11991
 C99 C 0.00352 0.27262 -0.10849
 C100 C -0.00822 0.25444 -0.11105
 C101 C -0.01192 0.26662 -0.14451
 C102 C -0.00639 0.25096 -0.13298
 C103 C -0.03505 0.27711 -0.11906
 C104 C -0.02947 0.26142 -0.10765
 H105 H 0.00520 0.30209 -0.12006
 H106 H -0.00369 0.24168 -0.10167
 H107 H -0.01157 0.26638 -0.16029
 H108 H -0.04985 0.28317 -0.11894
 C109 C 0.50528 0.28333 0.13842
 C110 C 0.48934 0.28807 0.12388
 C111 C 0.48517 0.27266 0.11307
 C112 C 0.49738 0.25400 0.11765
 C113 C 0.49811 0.26571 0.15063
 C114 C 0.49399 0.25038 0.13965
 C115 C 0.52270 0.27547 0.12625
 C116 C 0.51855 0.26012 0.11542
 H117 H 0.48090 0.30175 0.12345
 H118 H 0.49409 0.24151 0.10870
 H119 H 0.49567 0.26569 0.16631
 H120 H 0.53723 0.28089 0.12691
 C121 C 1.00501 0.78328 0.63685
 C122 C 0.98970 0.78790 0.62320
 C123 C 0.98561 0.77183 0.61153
 C124 C 0.99763 0.75429 0.61570
 C125 C 0.99860 0.76629 0.64836
 C126 C 0.99455 0.75026 0.63656
 C127 C 1.02177 0.77644 0.62512
 C128 C 1.01765 0.76042 0.61344
 H129 H 0.98066 0.80123 0.62339
 H130 H 0.99454 0.74188 0.60649
 H131 H 0.99592 0.76609 0.66404
 H132 H 1.03631 0.78178 0.62617
 C133 C 0.48117 0.78424 0.36843
 C134 C 0.49818 0.78816 0.38121
 C135 C 0.50395 0.77240 0.39244
 C136 C 0.49225 0.75418 0.38996
 C137 C 0.48797 0.76656 0.35665
 C138 C 0.49375 0.75085 0.36799
 C139 C 0.46518 0.77677 0.38251
 C140 C 0.47101 0.76103 0.39374
 H141 H 0.50537 0.80193 0.38097
 H142 H 0.49698 0.74139 0.39919
 H143 H 0.48815 0.76645 0.34087
 H144 H 0.45036 0.78276 0.38289
 C145 C 0.38290 -0.00413 0.25962
 H146 H 0.38206 0.00992 0.26623
 C147 C 0.39409 -0.01942 0.26789
 H148 H 0.40199 -0.01716 0.28087
 C149 C 0.37305 -0.02452 0.23508
 H150 H 0.36447 -0.02660 0.22259
 C151 C 0.38406 -0.04019 0.24289
 H152 H 0.38406 -0.05423 0.23627
 N153 N 0.37271 -0.00690 0.24348
 C154 C 0.36152 0.05096 0.21719
 H155 H 0.34593 0.05078 0.21608
 C156 C 0.37150 0.06730 0.21055
 H157 H 0.36360 0.07980 0.20431
 C158 C 0.39092 0.03489 0.22667
 H159 H 0.39846 0.02217 0.23279
 C160 C 0.40147 0.05095 0.22019
 H161 H 0.41708 0.05062 0.22148
 Zn162 Zn 0.35643 0.01399 0.23430
 N163 N 0.37127 0.03530 0.22533
 C164 C 0.34003 0.03955 0.26239
 N165 N 0.33979 0.02126 0.25555
 C166 C 0.32925 0.00723 0.26493
 C167 C 0.31854 0.01131 0.28205
 C168 C 0.32951 0.04425 0.27941
 C169 C 0.35272 0.00210 0.19655
 C170 C 0.34353 -0.00419 0.18036
 C171 C 0.31283 -0.00154 0.19838
 C172 C 0.32261 0.00473 0.21429
 N173 N 0.34226 0.00614 0.21317
 H174 H 0.34889 0.05036 0.25510
 H175 H 0.32966 -0.00731 0.25942
 H176 H 0.31057 -0.00005 0.28970
 H177 H 0.33016 0.05871 0.28500
 H178 H 0.36829 0.00356 0.19602
 H179 H 0.35204 -0.00765 0.16729
 H180 H 0.29723 -0.00291 0.19941
 H181 H 0.31454 0.00833 0.22751
 C182 C 0.39163 0.06734 0.21217
 C183 C 0.39459 -0.03763 0.25949
 C184 C 0.32343 -0.00616 0.18132
 C185 C 0.31885 0.02995 0.28944
 C186 C 0.08451 1.02873 0.78009
 H187 H 0.08384 1.01437 0.78698
 C188 C 0.07398 1.04440 0.78822
 H189 H 0.06508 1.04212 0.80135
 C190 C 0.09753 1.04948 0.75502
 H191 H 0.10709 1.05154 0.74239
 C192 C 0.08725 1.06552 0.76266
 H193 H 0.08877 1.07981 0.75575
 N194 N 0.09597 1.03151 0.76377
 C195 C 0.10571 0.97475 0.73827
 H196 H 0.12138 0.97454 0.73688
 C197 C 0.09562 0.95932 0.73161
 H198 H 0.10353 0.94715 0.72508
 C199 C 0.07621 0.99100 0.74828
 H200 H 0.06873 1.00349 0.75457
 C201 C 0.06553 0.97582 0.74177
 H202 H 0.04983 0.97657 0.74317
 Zn203 Zn 0.11142 1.01014 0.75465
 N204 N 0.09596 0.99008 0.74658
 C205 C 0.12535 0.98225 0.78262
 N206 N 0.12691 1.00083 0.77540
 C207 C 0.13859 1.01346 0.78363
 C208 C 0.14951 1.00743 0.79961
 C209 C 0.13601 0.97565 0.79855
 C210 C 0.11740 1.02352 0.71635
 C211 C 0.12773 1.02913 0.69937
 C212 C 0.15759 1.02279 0.71614
 C213 C 0.14669 1.01729 0.73285
 N214 N 0.12695 1.01795 0.73270
 H215 H 0.11562 0.97258 0.77629
 H216 H 0.13927 1.02826 0.77784
 H217 H 0.15874 1.01757 0.80612
 H218 H 0.13461 0.96086 0.80425
 H219 H 0.10171 1.02362 0.71656
 H220 H 0.11999 1.03365 0.68647
 H221 H 0.17330 1.02231 0.71636
 H222 H 0.15402 1.01240 0.74584
 C223 C 0.07537 0.95983 0.73341
 C224 C 0.07546 1.06298 0.77946
 C225 C 0.14800 1.02879 0.69928
 C226 C 0.14816 0.98835 0.80714
 C227 C 0.58719 0.53104 0.27787
 H228 H 0.58677 0.51664 0.28471
 C229 C 0.57650 0.54653 0.28613
 H230 H 0.56772 0.54408 0.29931
 C231 C 0.59977 0.55207 0.25280
 H232 H 0.60922 0.55431 0.24012
 C233 C 0.58931 0.56795 0.26057
 H234 H 0.59060 0.58229 0.25372
 N235 N 0.59851 0.53405 0.26149
 C236 C 0.60870 0.47744 0.23574
 H237 H 0.62437 0.47738 0.23422
 C238 C 0.59870 0.46188 0.22922
 H239 H 0.60666 0.44975 0.22267
 C240 C 0.57915 0.49342 0.24599
 H241 H 0.57160 0.50584 0.25235
 C242 C 0.56855 0.47811 0.23964
 H243 H 0.55286 0.47870 0.24123
 Zn244 Zn 0.61417 0.51287 0.25225
 N245 N 0.59888 0.49269 0.24413
 C246 C 0.62840 0.48499 0.28009
 N247 N 0.62972 0.50364 0.27299
 C248 C 0.64119 0.51639 0.28133
 C249 C 0.65211 0.51044 0.29733
 C250 C 0.63907 0.47846 0.29604
 C251 C 0.62018 0.52653 0.21400
 C252 C 0.63054 0.53235 0.19711
 C253 C 0.66035 0.52614 0.21401
 C254 C 0.64941 0.52043 0.23062
 N255 N 0.62968 0.52093 0.23036
 H256 H 0.61883 0.47522 0.27366
 H257 H 0.64167 0.53123 0.27563
 H258 H 0.66115 0.52067 0.30394
 H259 H 0.63785 0.46362 0.30165
 H260 H 0.60449 0.52650 0.21412
 H261 H 0.62284 0.53690 0.18419
 H262 H 0.67605 0.52581 0.21432
 H263 H 0.65671 0.51553 0.24362
 C264 C 0.57846 0.46218 0.23125
 C265 C 0.57767 0.56517 0.27744
 C266 C 0.65080 0.53219 0.19714
 C267 C 0.65099 0.49130 0.30475
 C268 C 0.88493 0.49699 0.75853
 H269 H 0.88427 0.51103 0.76514
 C270 C 0.89614 0.48163 0.76668
 H271 H 0.90421 0.48384 0.77955
 C272 C 0.87461 0.47665 0.73416
 H273 H 0.86585 0.47461 0.72180
 C274 C 0.88563 0.46092 0.74184
 H275 H 0.88544 0.44688 0.73525
 N276 N 0.87449 0.49427 0.74255
 C277 C 0.86309 0.55208 0.71622
 H278 H 0.84748 0.55188 0.71531
 C279 C 0.87300 0.56837 0.70930
 H280 H 0.86501 0.58081 0.70306
 C281 C 0.89262 0.53608 0.72543
 H282 H 0.90023 0.52341 0.73155
 C283 C 0.90309 0.55210 0.71867
 H284 H 0.91873 0.55177 0.71973
 Zn285 Zn 0.85817 0.51521 0.73354
 N286 N 0.87294 0.53648 0.72435
 C287 C 0.84205 0.54088 0.76168
 N288 N 0.84176 0.52255 0.75493
 C289 C 0.83124 0.50856 0.76443
 C290 C 0.82058 0.51276 0.78155
 C291 C 0.83157 0.54567 0.77869
 C292 C 0.85399 0.50333 0.69587
 C293 C 0.84459 0.49709 0.67978
 C294 C 0.81408 0.49982 0.69813
 C295 C 0.82407 0.50604 0.71393
 N296 N 0.84372 0.50738 0.71259
 H297 H 0.85089 0.55165 0.75429
 H298 H 0.83161 0.49400 0.75899
 H299 H 0.81260 0.50144 0.78928
 H300 H 0.83224 0.56017 0.78419
 H301 H 0.86956 0.50474 0.69516
 H302 H 0.85294 0.49361 0.66663
 H303 H 0.79849 0.49850 0.69934
 H304 H 0.81615 0.50966 0.72723
 C305 C 0.89316 0.56842 0.71063
 C306 C 0.89639 0.46342 0.75830
 C307 C 0.82449 0.49519 0.68096
 C308 C 0.82091 0.53145 0.78882
 C309 C 0.25939 0.38552 -0.00544
 H310 H 0.26605 0.38526 0.00855
 C311 C 0.26744 0.39629 -0.02112
 H312 H 0.28030 0.40443 -0.01923
 C313 C 0.23496 0.37459 -0.02527
 H314 H 0.22260 0.36576 -0.02699
 C315 C 0.24255 0.38515 -0.04132
 H316 H 0.23590 0.38455 -0.05528
 N317 N 0.24341 0.37499 -0.00775
 C318 C 0.21752 0.36536 0.05049
 H319 H 0.21661 0.34970 0.05076
 C320 C 0.21075 0.37584 0.06652
 H321 H 0.20462 0.36824 0.07923
 C322 C 0.22659 0.39446 0.03356
 H323 H 0.23258 0.40167 0.02062
 C324 C 0.21998 0.40549 0.04929
 H325 H 0.22104 0.42117 0.04849
 Zn326 Zn 0.23454 0.35924 0.01365
 N327 N 0.22550 0.37473 0.03455
 C328 C 0.26282 0.34382 0.03942
 N329 N 0.25594 0.34298 0.02121
 C330 C 0.26537 0.33207 0.00742
 C331 C 0.28256 0.32159 0.01168
 C332 C 0.27992 0.33354 0.04427
 C333 C 0.19688 0.35476 0.00218
 C334 C 0.18085 0.34520 -0.00387
 C335 C 0.19923 0.31465 -0.00068
 C336 C 0.21496 0.32481 0.00535
 N337 N 0.21359 0.34455 0.00635
 H338 H 0.25549 0.35296 0.05002
 H339 H 0.25982 0.33201 -0.00707
 H340 H 0.29023 0.31332 0.00049
 H341 H 0.28553 0.33467 0.05865
 H342 H 0.19615 0.37042 0.00330
 H343 H 0.16772 0.35350 -0.00748
 H344 H 0.20048 0.29899 -0.00177
 H345 H 0.22826 0.31695 0.00904
 C346 C 0.21210 0.39607 0.06595
 C347 C 0.25899 0.39601 -0.03924
 C348 C 0.18208 0.32499 -0.00547
 C349 C 0.28998 0.32251 0.03023
 C350 C 0.77883 0.08800 1.03146
 H351 H 0.78563 0.08751 1.01706
 C352 C 0.78725 0.07755 1.04699
 H353 H 0.80052 0.06888 1.04455
 C354 C 0.75371 0.10057 1.05250
 H355 H 0.74095 0.10996 1.05471
 C356 C 0.76164 0.09036 1.06840
 H357 H 0.75484 0.09177 1.08276
 N358 N 0.76236 0.09923 1.03446
 C359 C 0.73669 0.10911 0.97790
 H360 H 0.73506 0.12482 0.97788
 C361 C 0.73024 0.09904 0.96234
 H362 H 0.72364 0.10699 0.95026
 C363 C 0.74712 0.07954 0.99378
 H364 H 0.75351 0.07202 1.00617
 C365 C 0.74084 0.06887 0.97846
 H366 H 0.74251 0.05314 0.97901
 Zn367 Zn 0.75303 0.11477 1.01329
 N368 N 0.74512 0.09932 0.99311
 C369 C 0.78076 0.12911 0.98545
 N370 N 0.77358 0.13048 1.00408
 C371 C 0.78175 0.14210 1.01682
 C372 C 0.79763 0.15314 1.01090
 C373 C 0.79659 0.13988 0.97896
 C374 C 0.71479 0.12055 1.02690
 C375 C 0.69779 0.13085 1.03256
 C376 C 0.71434 0.16086 1.02626
 C377 C 0.73107 0.14999 1.02071
 N378 N 0.73103 0.13019 1.02131
 H379 H 0.77447 0.11941 0.97568
 H380 H 0.77600 0.14262 1.03165
 H381 H 0.80410 0.16230 1.02114
 H382 H 0.80227 0.13862 0.96414
 H383 H 0.71509 0.10482 1.02694
 H384 H 0.68496 0.12305 1.03707
 H385 H 0.71446 0.17661 1.02581
 H386 H 0.74397 0.15738 1.01580
 C387 C 0.73238 0.07875 0.96259
 C388 C 0.77863 0.07886 1.06564
 C389 C 0.69758 0.15118 1.03226
 C390 C 0.80513 0.15196 0.99179
 C391 C 0.27756 0.58854 0.53000
 H392 H 0.28448 0.58840 0.51563
 C393 C 0.28578 0.57760 0.54532
 H394 H 0.29901 0.56890 0.54276
 C395 C 0.25232 0.60067 0.55116
 H396 H 0.23960 0.61005 0.55351
 C397 C 0.26005 0.58996 0.56686
 H398 H 0.25312 0.59098 0.58120
 N399 N 0.26112 0.59977 0.53315
 C400 C 0.23593 0.61110 0.47654
 H401 H 0.23439 0.62680 0.47683
 C402 C 0.22953 0.60140 0.46071
 H403 H 0.22305 0.60963 0.44873
 C404 C 0.24607 0.58116 0.49191
 H405 H 0.25232 0.57335 0.50421
 C406 C 0.23982 0.57086 0.47632
 H407 H 0.24138 0.55513 0.47657
 Zn408 Zn 0.25199 0.61586 0.51228
 N409 N 0.24420 0.60095 0.49162
 C410 C 0.27993 0.63087 0.48503
 N411 N 0.27263 0.63173 0.50365
 C412 C 0.28069 0.64297 0.51680
 C413 C 0.29661 0.65415 0.51131
 C414 C 0.29580 0.64180 0.47896
 C415 C 0.21367 0.62142 0.52574
 C416 C 0.19667 0.63162 0.53156
 C417 C 0.21332 0.66169 0.52616
 C418 C 0.23005 0.65091 0.52043
 N419 N 0.22997 0.63112 0.52051
 H420 H 0.27372 0.62148 0.47493
 H421 H 0.27484 0.64309 0.53161
 H422 H 0.30299 0.66301 0.52187
 H423 H 0.30157 0.64096 0.46414
 H424 H 0.21393 0.60571 0.52537
 H425 H 0.18379 0.62376 0.53578
 H426 H 0.21348 0.67742 0.52613
 H427 H 0.24300 0.65837 0.51581
 C428 C 0.23153 0.58112 0.46057
 C429 C 0.27698 0.57842 0.56394
 C430 C 0.19650 0.65193 0.53180
 C431 C 0.30423 0.65351 0.49222
 C432 C 0.76057 0.88453 0.49631
 H433 H 0.76722 0.88411 0.51031
 C434 C 0.76882 0.89518 0.48066
 H435 H 0.78183 0.90310 0.48259
 C436 C 0.73594 0.87409 0.47643
 H437 H 0.72343 0.86549 0.47468
 C438 C 0.74373 0.88456 0.46040
 H439 H 0.73707 0.88412 0.44644
 N440 N 0.74440 0.87430 0.49396
 C441 C 0.71816 0.86502 0.55209
 H442 H 0.71696 0.84939 0.55232
 C443 C 0.71149 0.87556 0.56811
 H444 H 0.70515 0.86805 0.58077
 C445 C 0.72784 0.89397 0.53529
 H446 H 0.73403 0.90111 0.52241
 C447 C 0.72134 0.90507 0.55102
 H448 H 0.72268 0.92072 0.55027
 Zn449 Zn 0.73520 0.85869 0.51532
 N450 N 0.72639 0.87428 0.53622
 C451 C 0.76316 0.84275 0.54117
 N452 N 0.75631 0.84205 0.52294
 C453 C 0.76558 0.83098 0.50918
 C454 C 0.78259 0.82021 0.51349
 C455 C 0.78007 0.83218 0.54608
 C456 C 0.69745 0.85493 0.50382
 C457 C 0.68120 0.84568 0.49786
 C458 C 0.69899 0.81480 0.50110
 C459 C 0.71497 0.82466 0.50704
 N460 N 0.71399 0.84440 0.50799
 H461 H 0.75596 0.85201 0.55175
 H462 H 0.76006 0.83103 0.49468
 H463 H 0.79015 0.81182 0.50233
 H464 H 0.78568 0.83321 0.56048
 H465 H 0.69703 0.87059 0.50491
 H466 H 0.66820 0.85422 0.49429
 H467 H 0.69991 0.79912 0.50009
 H468 H 0.72813 0.81654 0.51073
 C469 C 0.71319 0.89575 0.56761
 C470 C 0.76036 0.89511 0.46253
 C471 C 0.68201 0.82546 0.49636
 C472 C 0.78999 0.82099 0.53206
 C473 C -0.00212 0.26005 0.38545
 H474 H 0.01180 0.26676 0.38491
 C475 C -0.01761 0.26811 0.39652
 H476 H -0.01562 0.28103 0.40462
 C477 C -0.02202 0.23545 0.37494
 H478 H -0.02384 0.22303 0.36616
 C479 C -0.03787 0.24304 0.38582
 H480 H -0.05178 0.23633 0.38551
 N481 N -0.00456 0.24399 0.37498
 C482 C 0.05345 0.21804 0.36431
 H483 H 0.05351 0.21715 0.34865
 C484 C 0.06955 0.21108 0.37452
 H485 H 0.08210 0.20484 0.36672
 C486 C 0.03697 0.22711 0.39368
 H487 H 0.02416 0.23314 0.40111
 C488 C 0.05278 0.22031 0.40445
 H489 H 0.05217 0.22127 0.42013
 Zn490 Zn 0.01655 0.23507 0.35886
 N491 N 0.03769 0.22608 0.37395
 C492 C 0.04189 0.26344 0.34296
 N493 N 0.02374 0.25648 0.34245
 C494 C 0.00975 0.26584 0.33180
 C495 C 0.01374 0.28307 0.32125
 C496 C 0.04648 0.28057 0.33261
 C497 C 0.00522 0.19725 0.35472
 C498 C -0.00086 0.18107 0.34536
 C499 C 0.00167 0.19930 0.31472
 C500 C 0.00773 0.21520 0.32468
 N501 N 0.00908 0.21397 0.34438
 H502 H 0.05266 0.25615 0.35191
 H503 H -0.00468 0.26023 0.33200
 H504 H 0.00240 0.29070 0.31320
 H505 H 0.06082 0.28627 0.33348
 H506 H 0.00661 0.19664 0.37034
 H507 H -0.00420 0.16793 0.35377
 H508 H 0.00032 0.20042 0.29909
 H509 H 0.01119 0.22850 0.31671
 C510 C 0.06923 0.21230 0.39476
 C511 C -0.03566 0.25957 0.39661
 C512 C -0.00279 0.18214 0.32521
 C513 C 0.03223 0.29059 0.32184
 C514 C 1.03131 0.77971 0.08432
 H515 H 1.01698 0.78665 0.08366
 C516 C 1.04690 0.78776 0.07372
 H517 H 1.04458 0.80087 0.06477
 C518 C 1.05207 0.75461 0.09740
 H519 H 1.05415 0.74200 0.10701
 C520 C 1.06802 0.76217 0.08704
 H521 H 1.08229 0.75522 0.08857
 N522 N 1.03414 0.76342 0.09585
 C523 C 0.97752 0.73819 0.10589
 H524 H 0.97741 0.73686 0.12161
 C525 C 0.96204 0.73159 0.09587
 H526 H 0.94993 0.72517 0.10386
 C527 C 0.99357 0.74802 0.07625
 H528 H 1.00599 0.75423 0.06869
 C529 C 0.97833 0.74158 0.06563
 H530 H 0.97897 0.74294 0.04989
 Zn531 Zn 1.01287 0.75449 0.11144
 N532 N 0.99277 0.74640 0.09604
 C533 C 0.98512 0.78269 0.12531
 N534 N 1.00368 0.77542 0.12683
 C535 C 1.01634 0.78369 0.13844
 C536 C 1.01039 0.79975 0.14934
 C537 C 0.97860 0.79870 0.13594
 C538 C 1.02622 0.71614 0.11780
 C539 C 1.03173 0.69923 0.12834
 C540 C 1.02539 0.71637 0.15807
 C541 C 1.01999 0.73301 0.14696
 N542 N 1.02068 0.73263 0.12718
 H543 H 0.97542 0.77631 0.11563
 H544 H 1.03111 0.77787 0.13909
 H545 H 1.02055 0.80628 0.15852
 H546 H 0.96383 0.80442 0.13459
 H547 H 1.02633 0.71617 0.10208
 H548 H 1.03620 0.68619 0.12073
 H549 H 1.02487 0.71676 0.17380
 H550 H 1.01513 0.74610 0.15416
 C551 C 0.96242 0.73334 0.07557
 C552 C 1.06544 0.77895 0.07520
 C553 C 1.03134 0.69935 0.14865
 C554 C 0.99134 0.80731 0.14804
 C555 C 0.53068 0.27567 0.58492
 H556 H 0.51621 0.28232 0.58454
 C557 C 0.54586 0.28388 0.57382
 H558 H 0.54308 0.29684 0.56476
 C559 C 0.55224 0.25119 0.59784
 H560 H 0.55482 0.23880 0.60761
 C561 C 0.56779 0.25892 0.58698
 H562 H 0.58223 0.25231 0.58827
 N563 N 0.53411 0.25963 0.59664
 C564 C 0.47832 0.23347 0.60914
 H565 H 0.47876 0.23252 0.62484
 C566 C 0.46271 0.22616 0.59986
 H567 H 0.45105 0.21957 0.60842
 C568 C 0.49315 0.24297 0.57877
 H569 H 0.50518 0.24930 0.57064
 C570 C 0.47776 0.23579 0.56888
 H571 H 0.47788 0.23672 0.55313
 Zn572 Zn 0.51351 0.25057 0.61306
 N573 N 0.49305 0.24181 0.59857
 C574 C 0.48578 0.27854 0.62737
 N575 N 0.50449 0.27161 0.62839
 C576 C 0.51740 0.28031 0.63937
 C577 C 0.51157 0.29651 0.65012
 C578 C 0.47936 0.29468 0.63787
 C579 C 0.52765 0.21255 0.61944
 C580 C 0.53381 0.19585 0.62994
 C581 C 0.52837 0.21327 0.65962
 C582 C 0.52229 0.22970 0.64855
 N583 N 0.52223 0.22908 0.62880
 H584 H 0.47585 0.27181 0.61817
 H585 H 0.53228 0.27474 0.63962
 H586 H 0.52193 0.30340 0.65879
 H587 H 0.46447 0.30015 0.63690
 H588 H 0.52716 0.21239 0.60375
 H589 H 0.53818 0.18278 0.62234
 H590 H 0.52844 0.21384 0.67533
 H591 H 0.51752 0.24282 0.65574
 C592 C 0.46240 0.22734 0.57957
 C593 C 0.56460 0.27549 0.57498
 C594 C 0.53420 0.19622 0.65020
 C595 C 0.49237 0.30376 0.64932
 C596 C 0.49606 0.75983 0.88432
 H597 H 0.51006 0.76640 0.88382
 C598 C 0.48058 0.76814 0.89521
 H599 H 0.48264 0.78112 0.90321
 C600 C 0.47600 0.73532 0.87393
 H601 H 0.47413 0.72282 0.86527
 C602 C 0.46015 0.74317 0.88462
 H603 H 0.44618 0.73657 0.88430
 N604 N 0.49355 0.74368 0.87401
 C605 C 0.55139 0.71701 0.86418
 H606 H 0.55151 0.71581 0.84855
 C607 C 0.56745 0.71026 0.87456
 H608 H 0.58002 0.70386 0.86692
 C609 C 0.53486 0.72678 0.89328
 H610 H 0.52207 0.73304 0.90054
 C611 C 0.55063 0.72020 0.90422
 H612 H 0.55001 0.72155 0.91986
 Zn613 Zn 0.51472 0.73435 0.85820
 N614 N 0.53564 0.72534 0.87359
 C615 C 0.54061 0.76217 0.84220
 N616 N 0.52235 0.75548 0.84161
 C617 C 0.50863 0.76486 0.83063
 C618 C 0.51303 0.78179 0.81976
 C619 C 0.54561 0.77899 0.83154
 C620 C 0.50297 0.69661 0.85426
 C621 C 0.49695 0.68039 0.84491
 C622 C 0.50029 0.69830 0.81415
 C623 C 0.50629 0.71423 0.82410
 N624 N 0.50722 0.71318 0.84384
 H625 H 0.55116 0.75488 0.85140
 H626 H 0.49411 0.75947 0.83076
 H627 H 0.50192 0.78942 0.81141
 H628 H 0.56005 0.78445 0.83243
 H629 H 0.50406 0.69613 0.86991
 H630 H 0.49332 0.66736 0.85336
 H631 H 0.49930 0.69928 0.79848
 H632 H 0.51005 0.72741 0.81607
 C633 C 0.56711 0.71198 0.89474
 C634 C 0.46245 0.75977 0.89528
 C635 C 0.49547 0.68128 0.82470
 C636 C 0.53165 0.78899 0.82039
 C637 C 0.47484 -0.19879 0.35644
 C638 C 0.46941 -0.18476 0.34682
 C639 C 0.46264 -0.16796 0.33560
 C640 C 0.47061 -0.14986 0.33798
 C641 C 0.46348 -0.13337 0.32768
 C642 C 0.44824 -0.13478 0.31485
 C643 C 0.44049 -0.15309 0.31238
 C644 C 0.44764 -0.16955 0.32271
 C645 C 0.44008 -0.11716 0.30449
 C646 C 0.43465 -0.11792 0.28504
 C647 C 0.42621 -0.10153 0.27559
 C648 C 0.42311 -0.08419 0.28543
 C649 C 0.42870 -0.08320 0.30468
 C650 C 0.43715 -0.09956 0.31415
 C651 C 0.41352 -0.06763 0.27605
 C652 C 0.40510 -0.05388 0.26839
 H653 H 0.48224 -0.14847 0.34792
 H654 H 0.46990 -0.11952 0.32971
 H655 H 0.42858 -0.15461 0.30283
 H656 H 0.44129 -0.18348 0.32084
 H657 H 0.43695 -0.13118 0.27714
 H658 H 0.42193 -0.10245 0.26068
 H659 H 0.42625 -0.06987 0.31247
 H660 H 0.44092 -0.09858 0.32920
 C661 C 0.97512 0.30136 0.85489
 C662 C 0.96992 0.31540 0.84517
 C663 C 0.96341 0.33227 0.83388
 C664 C 0.97173 0.35022 0.83616
 C665 C 0.96481 0.36680 0.82585
 C666 C 0.94945 0.36564 0.81313
 C667 C 0.94136 0.34746 0.81075
 C668 C 0.94830 0.33090 0.82108
 C669 C 0.94147 0.38337 0.80283
 C670 C 0.93584 0.38271 0.78344
 C671 C 0.92753 0.39921 0.77407
 C672 C 0.92476 0.41658 0.78393
 C673 C 0.93056 0.41747 0.80312
 C674 C 0.93888 0.40099 0.81251
 C675 C 0.91525 0.43325 0.77466
 C676 C 0.90688 0.44709 0.76710
 H677 H 0.98344 0.35143 0.84603
 H678 H 0.97148 0.38053 0.82781
 H679 H 0.92935 0.34613 0.80129
 H680 H 0.94169 0.31710 0.81929
 H681 H 0.93787 0.36943 0.77552
 H682 H 0.92309 0.39836 0.75921
 H683 H 0.92837 0.43081 0.81093
 H684 H 0.94281 0.40191 0.82752
 C685 C 0.00030 1.23264 0.85923
 C686 C 0.00590 1.21732 0.85268
 C687 C 0.01265 1.19908 0.84479
 C688 C 0.00340 1.19165 0.82909
 C689 C 0.01015 1.17409 0.82120
 C690 C 0.02626 1.16373 0.82894
 C691 C 0.03537 1.17127 0.84482
 C692 C 0.02860 1.18883 0.85267
 C693 C 0.03377 1.14532 0.82027
 C694 C 0.04028 1.12952 0.83221
 C695 C 0.04793 1.11245 0.82399
 C696 C 0.04918 1.11093 0.80376
 C697 C 0.04255 1.12648 0.79177
 C698 C 0.03488 1.14356 0.79995
 C699 C 0.05794 1.09374 0.79527
 C700 C 0.06568 1.07958 0.78810
 H701 H -0.00900 1.19944 0.82290
 H702 H 0.00269 1.16855 0.80914
 H703 H 0.04796 1.16379 0.85093
 H704 H 0.03590 1.19449 0.86479
 H705 H 0.03939 1.13034 0.84790
 H706 H 0.05304 1.10050 0.83340
 H707 H 0.04356 1.12551 0.77609
 H708 H 0.03024 1.15554 0.79037
 C709 C 0.50057 0.73268 0.35996
 C710 C 0.50630 0.71751 0.35318
 C711 C 0.51322 0.69947 0.34498
 C712 C 0.50428 0.69240 0.32891
 C713 C 0.51123 0.67507 0.32070
 C714 C 0.52724 0.66457 0.32847
 C715 C 0.53604 0.67174 0.34473
 C716 C 0.52906 0.68908 0.35291
 C717 C 0.53499 0.64642 0.31947
 C718 C 0.54136 0.63036 0.33114
 C719 C 0.54924 0.61353 0.32262
 C720 C 0.55084 0.61252 0.30235
 C721 C 0.54435 0.62832 0.29062
 C722 C 0.53645 0.64516 0.29910
 C723 C 0.55981 0.59558 0.29359
 C724 C 0.56772 0.58159 0.28623
 H725 H 0.49197 0.70031 0.32269
 H726 H 0.50401 0.66981 0.30835
 H727 H 0.54855 0.66415 0.35088
 H728 H 0.53613 0.69446 0.36531
 H729 H 0.54020 0.63079 0.34685
 H730 H 0.55423 0.60139 0.33183
 H731 H 0.54563 0.62774 0.27491
 H732 H 0.53192 0.65735 0.28973
 C733 C 0.50980 0.29999 0.14989
 C734 C 0.51373 0.31391 0.15890
 C735 C 0.51872 0.33073 0.16917
 C736 C 0.53497 0.32987 0.18076
 C737 C 0.54051 0.34650 0.18982
 C738 C 0.52988 0.36426 0.18737
 C739 C 0.51337 0.36489 0.17594
 C740 C 0.50785 0.34823 0.16690
 C741 C 0.53647 0.38218 0.19605
 C742 C 0.53607 0.40000 0.18532
 C743 C 0.54338 0.41662 0.19300
 C744 C 0.55114 0.41568 0.21151
 C745 C 0.55125 0.39813 0.22246
 C746 C 0.54395 0.38149 0.21481
 C747 C 0.56003 0.43238 0.21876
 C748 C 0.56809 0.44613 0.22458
 H749 H 0.54356 0.31642 0.18251
 H750 H 0.55345 0.34561 0.19828
 H751 H 0.50477 0.37828 0.17396
 H752 H 0.49525 0.34905 0.15794
 H753 H 0.53067 0.40095 0.17074
 H754 H 0.54337 0.43009 0.18433
 H755 H 0.55726 0.39723 0.23679
 H756 H 0.54425 0.36805 0.22352
 C757 C 0.00903 0.79896 0.64802
 C758 C 0.01266 0.81277 0.65735
 C759 C 0.01727 0.82945 0.66802
 C760 C 0.03318 0.82848 0.68007
 C761 C 0.03835 0.84500 0.68958
 C762 C 0.02768 0.86273 0.68712
 C763 C 0.01151 0.86346 0.67523
 C764 C 0.00636 0.84692 0.66574
 C765 C 0.03392 0.88054 0.69629
 C766 C 0.03372 0.89850 0.68581
 C767 C 0.04079 0.91500 0.69393
 C768 C 0.04809 0.91381 0.71264
 C769 C 0.04795 0.89612 0.72335
 C770 C 0.04090 0.87959 0.71525
 C771 C 0.05688 0.93036 0.72031
 C772 C 0.06493 0.94397 0.72644
 H773 H 0.04179 0.81506 0.68184
 H774 H 0.05104 0.84403 0.69839
 H775 H 0.00289 0.87684 0.67322
 H776 H -0.00598 0.84782 0.65644
 H777 H 0.02870 0.89965 0.67108
 H778 H 0.04098 0.92858 0.68545
 H779 H 0.05362 0.89502 0.73783
 H780 H 0.04102 0.86604 0.72377
 C781 C 0.98611 0.73385 0.64395
 C782 C 0.97843 0.71936 0.65019
 C783 C 0.96899 0.70212 0.65736
 C784 C 0.95023 0.69865 0.65167
 C785 C 0.94099 0.68189 0.65848
 C786 C 0.95042 0.66833 0.67109
 C787 C 0.96931 0.67194 0.67671
 C788 C 0.97852 0.68874 0.66988
 C789 C 0.94057 0.65053 0.67832
 C790 C 0.95088 0.63249 0.67968
 C791 C 0.94149 0.61572 0.68628
 C792 C 0.92171 0.61677 0.69163
 C793 C 0.91136 0.63465 0.69041
 C794 C 0.92070 0.65143 0.68381
 C795 C 0.91196 0.59953 0.69830
 C796 C 0.90353 0.58525 0.70390
 H797 H 0.94276 0.70888 0.64191
 H798 H 0.92657 0.67940 0.65367
 H799 H 0.97686 0.66190 0.68657
 H800 H 0.99304 0.69130 0.67439
 H801 H 0.96612 0.63128 0.67534
 H802 H 0.94963 0.60193 0.68713
 H803 H 0.89606 0.63564 0.69458
 H804 H 0.91243 0.66513 0.68319
 C805 C 0.48523 0.23310 0.14773
 C806 C 0.47757 0.21865 0.15411
 C807 C 0.46807 0.20146 0.16132
 C808 C 0.44850 0.19923 0.15761
 C809 C 0.43922 0.18245 0.16430
 C810 C 0.44940 0.16764 0.17479
 C811 C 0.46907 0.17003 0.17847
 C812 C 0.47833 0.18684 0.17178
 C813 C 0.43952 0.14977 0.18176
 C814 C 0.44910 0.13137 0.18062
 C815 C 0.43962 0.11454 0.18686
 C816 C 0.42049 0.11587 0.19434
 C817 C 0.41088 0.13411 0.19564
 C818 C 0.42032 0.15094 0.18941
 C819 C 0.41060 0.09858 0.20057
 C820 C 0.40208 0.08425 0.20582
 H821 H 0.44044 0.21041 0.14945
 H822 H 0.42415 0.18093 0.16098
 H823 H 0.47724 0.15899 0.18670
 H824 H 0.49349 0.18843 0.17473
 H825 H 0.46379 0.12996 0.17458
 H826 H 0.44717 0.10048 0.18574
 H827 H 0.39609 0.13531 0.20147
 H828 H 0.41264 0.16490 0.19073
 C829 C 0.35615 0.47428 -0.20101
 C830 C 0.34661 0.46892 -0.18693
 C831 C 0.33550 0.46228 -0.17004
 C832 C 0.34370 0.46176 -0.15174
 C833 C 0.33323 0.45466 -0.13538
 C834 C 0.31440 0.44796 -0.13712
 C835 C 0.30620 0.44875 -0.15556
 C836 C 0.31670 0.45586 -0.17190
 C837 C 0.30361 0.43968 -0.11987
 C838 C 0.29286 0.42290 -0.12140
 C839 C 0.28332 0.41464 -0.10502
 C840 C 0.28435 0.42304 -0.08691
 C841 C 0.29480 0.43987 -0.08526
 C842 C 0.30437 0.44816 -0.10163
 C843 C 0.27518 0.41399 -0.06997
 C844 C 0.26769 0.40602 -0.05588
 H845 H 0.35828 0.46661 -0.15016
 H846 H 0.34005 0.45399 -0.12146
 H847 H 0.29166 0.44392 -0.15733
 H848 H 0.31021 0.45623 -0.18600
 H849 H 0.29222 0.41587 -0.13516
 H850 H 0.27535 0.40155 -0.10644
 H851 H 0.29569 0.44650 -0.07131
 H852 H 0.31233 0.46121 -0.10003
 C853 C 0.85753 0.97412 0.30101
 C854 C 0.84801 0.96860 0.31504
 C855 C 0.83693 0.96175 0.33187
 C856 C 0.84447 0.96261 0.35038
 C857 C 0.83406 0.95533 0.36670
 C858 C 0.81596 0.94706 0.36471
 C859 C 0.80841 0.94646 0.34604
 C860 C 0.81884 0.95376 0.32974
 C861 C 0.80527 0.93863 0.38195
 C862 C 0.79592 0.92094 0.38077
 C863 C 0.78640 0.91265 0.39714
 C864 C 0.78606 0.92191 0.41490
 C865 C 0.79515 0.93960 0.41621
 C866 C 0.80469 0.94793 0.39985
 C867 C 0.77681 0.91294 0.43185
 C868 C 0.76923 0.90503 0.44592
 H869 H 0.85850 0.96869 0.35218
 H870 H 0.84039 0.95576 0.38082
 H871 H 0.79441 0.94040 0.34406
 H872 H 0.81286 0.95304 0.31547
 H873 H 0.79634 0.91328 0.36729
 H874 H 0.77950 0.89889 0.39599
 H875 H 0.79496 0.94690 0.42990
 H876 H 0.81156 0.96167 0.40117
 C877 C 0.86075 0.00091 1.23287
 C878 C 0.85398 0.00717 1.21790
 C879 C 0.84585 0.01480 1.20011
 C880 C 0.84047 0.03458 1.19816
 C881 C 0.83250 0.04205 1.18094
 C882 C 0.82979 0.02982 1.16542
 C883 C 0.83524 0.00994 1.16753
 C884 C 0.84323 0.00250 1.18477
 C885 C 0.82123 0.03779 1.14717
 C886 C 0.80756 0.02733 1.13760
 C887 C 0.79915 0.03512 1.12070
 C888 C 0.80434 0.05342 1.11313
 C889 C 0.81808 0.06384 1.12243
 C890 C 0.82648 0.05609 1.13932
 C891 C 0.79527 0.06182 1.09614
 C892 C 0.78767 0.06932 1.08211
 H893 H 0.84238 0.04422 1.20997
 H894 H 0.82820 0.05735 1.17988
 H895 H 0.83354 0.00021 1.15576
 H896 H 0.84738 -0.01283 1.18611
 H897 H 0.80305 0.01332 1.14340
 H898 H 0.78847 0.02697 1.11366
 H899 H 0.82222 0.07801 1.11668
 H900 H 0.83716 0.06438 1.14619
 C901 C 0.35949 0.50002 0.73055
 C902 C 0.35269 0.50581 0.71544
 C903 C 0.34447 0.51281 0.69747
 C904 C 0.32808 0.50427 0.69068
 C905 C 0.31985 0.51132 0.67343
 C906 C 0.32794 0.52703 0.66272
 C907 C 0.34451 0.53542 0.66960
 C908 C 0.35270 0.52835 0.68686
 C909 C 0.31892 0.53489 0.64466
 C910 C 0.33054 0.54080 0.62842
 C911 C 0.32203 0.54882 0.61169
 C912 C 0.30182 0.55103 0.61094
 C913 C 0.29013 0.54499 0.62692
 C914 C 0.29860 0.53696 0.64367
 C915 C 0.29309 0.56018 0.59410
 C916 C 0.28575 0.56825 0.58022
 H917 H 0.32162 0.49220 0.69876
 H918 H 0.30725 0.50440 0.66839
 H919 H 0.35091 0.54769 0.66185
 H920 H 0.36536 0.53511 0.69202
 H921 H 0.34621 0.53917 0.62865
 H922 H 0.33121 0.55346 0.59940
 H923 H 0.27447 0.54675 0.62655
 H924 H 0.28927 0.53280 0.65600
 C925 C 0.14777 0.51254 0.29945
 C926 C 0.15657 0.51653 0.31346
 C927 C 0.16657 0.52155 0.33042
 C928 C 0.15643 0.52263 0.34837
 C929 C 0.16580 0.52827 0.36476
 C930 C 0.18549 0.53294 0.36342
 C931 C 0.19564 0.53155 0.34536
 C932 C 0.18622 0.52590 0.32897
 C933 C 0.19512 0.53992 0.38065
 C934 C 0.20767 0.55554 0.37866
 C935 C 0.21583 0.56290 0.39500
 C936 C 0.21161 0.55474 0.41353
 C937 C 0.19946 0.53895 0.41564
 C938 C 0.19127 0.53156 0.39931
 C939 C 0.21898 0.56328 0.43038
 C940 C 0.22485 0.57105 0.44429
 H941 H 0.14119 0.51938 0.34963
 H942 H 0.15751 0.52947 0.37837
 H943 H 0.21085 0.53484 0.34392
 H944 H 0.19421 0.52509 0.31514
 H945 H 0.21070 0.56247 0.36455
 H946 H 0.22511 0.57522 0.39322
 H947 H 0.19608 0.53254 0.42992
 H948 H 0.18186 0.51937 0.40128
 C949 C 0.64822 0.01014 0.80195
 C950 C 0.65701 0.01390 0.81605
 C951 C 0.66701 0.01870 0.83308
 C952 C 0.65656 0.02116 0.85069
 C953 C 0.66599 0.02663 0.86712
 C954 C 0.68604 0.02975 0.86614
 C955 C 0.69648 0.02697 0.84842
 C956 C 0.68700 0.02149 0.83200
 C957 C 0.69579 0.03662 0.88334
 C958 C 0.70950 0.05119 0.88112
 C959 C 0.71774 0.05861 0.89739
 C960 C 0.71244 0.05154 0.91609
 C961 C 0.69913 0.03675 0.91845
 C962 C 0.69086 0.02931 0.90219
 C963 C 0.71983 0.06031 0.93280
 C964 C 0.72571 0.06833 0.94656
 H965 H 0.64106 0.01913 0.85166
 H966 H 0.65749 0.02894 0.88044
 H967 H 0.71195 0.02905 0.84727
 H968 H 0.69523 0.01960 0.81843
 H969 H 0.71340 0.05732 0.86686
 H970 H 0.72793 0.07016 0.89541
 H971 H 0.69489 0.03120 0.93286
 H972 H 0.68053 0.01793 0.90435
 C973 C 0.64709 0.98757 0.73406
 C974 C 0.65374 0.98088 0.71919
 C975 C 0.66133 0.97261 0.70143
 C976 C 0.65278 0.97779 0.68378
 C977 C 0.65961 0.96918 0.66662
 C978 C 0.67511 0.95524 0.66692
 C979 C 0.68375 0.95029 0.68472
 C980 C 0.67688 0.95892 0.70185
 C981 C 0.68194 0.94556 0.64883
 C982 C 0.70188 0.94175 0.64491
 C983 C 0.70823 0.93215 0.62814
 C984 C 0.69477 0.92623 0.61509
 C985 C 0.67493 0.93010 0.61877
 C986 C 0.66854 0.93970 0.63551
 C987 C 0.70127 0.91578 0.59817
 C988 C 0.70670 0.90678 0.58415
 H989 H 0.64073 0.98838 0.68329
 H990 H 0.65282 0.97347 0.65312
 H991 H 0.69552 0.93943 0.68547
 H992 H 0.68353 0.95472 0.71546
 H993 H 0.71256 0.94628 0.65476
 H994 H 0.72363 0.92924 0.62542
 H995 H 0.66438 0.92549 0.60881
 H996 H 0.65310 0.94218 0.63825
 C997 C 0.14640 0.48905 0.23193
 C998 C 0.15295 0.48225 0.21707
 C999 C 0.16034 0.47384 0.19931
 C1000 C 0.14993 0.47657 0.18231
 C1001 C 0.15662 0.46777 0.16521
 C1002 C 0.17384 0.45608 0.16490
 C1003 C 0.18433 0.45362 0.18202
 C1004 C 0.17759 0.46243 0.19911
 C1005 C 0.18061 0.44616 0.14694
 C1006 C 0.20047 0.44493 0.14145
 C1007 C 0.20682 0.43518 0.12476
 C1008 C 0.19343 0.42655 0.11335
 C1009 C 0.17364 0.42780 0.11861
 C1010 C 0.16726 0.43755 0.13528
 C1011 C 0.20001 0.41606 0.09649
 C1012 C 0.20550 0.40706 0.08249
 H1013 H 0.13655 0.48539 0.18230
 H1014 H 0.14837 0.47015 0.15222
 H1015 H 0.19749 0.44451 0.18232
 H1016 H 0.18571 0.46014 0.21222
 H1017 H 0.21107 0.45160 0.14999
 H1018 H 0.22217 0.43432 0.12081
 H1019 H 0.16316 0.42109 0.10994
 H1020 H 0.15191 0.43800 0.13925
 C1021 C -0.19918 0.35417 0.47457
 C1022 C -0.18497 0.34471 0.46933
 C1023 C -0.16792 0.33372 0.46283
 C1024 C -0.15009 0.33635 0.47119
 C1025 C -0.13336 0.32629 0.46432
 C1026 C -0.13425 0.31345 0.44897
 C1027 C -0.15230 0.31073 0.44083
 C1028 C -0.16901 0.32082 0.44771
 C1029 C -0.11637 0.30336 0.44108
 C1030 C -0.11666 0.28389 0.43555
 C1031 C -0.10002 0.27470 0.42736
 C1032 C -0.08289 0.28482 0.42460
 C1033 C -0.08237 0.30410 0.43029
 C1034 C -0.09899 0.31331 0.43850
 C1035 C -0.06607 0.27571 0.41522
 C1036 C -0.05212 0.26826 0.40696
 H1037 H -0.14910 0.34631 0.48291
 H1038 H -0.11973 0.32851 0.47104
 H1039 H -0.15342 0.30116 0.42882
 H1040 H -0.18273 0.31875 0.44107
 H1041 H -0.12975 0.27578 0.43758
 H1042 H -0.10057 0.25978 0.42299
 H1043 H -0.06922 0.31210 0.42811
 H1044 H -0.09837 0.32838 0.44236
 C1045 C 0.30012 0.85565 0.97452
 C1046 C 0.31420 0.84613 0.96904
 C1047 C 0.33110 0.83507 0.96226
 C1048 C 0.34904 0.83740 0.97052
 C1049 C 0.36562 0.82724 0.96342
 C1050 C 0.36447 0.81461 0.94792
 C1051 C 0.34632 0.81220 0.93987
 C1052 C 0.32976 0.82238 0.94699
 C1053 C 0.38219 0.80439 0.93983
 C1054 C 0.38163 0.78500 0.93411
 C1055 C 0.39814 0.77567 0.92581
 C1056 C 0.41541 0.78557 0.92313
 C1057 C 0.41619 0.80476 0.92898
 C1058 C 0.39971 0.81412 0.93729
 C1059 C 0.43213 0.77628 0.91374
 C1060 C 0.44603 0.76866 0.90553
 H1061 H 0.35023 0.84718 0.98236
 H1062 H 0.37934 0.82922 0.97007
 H1063 H 0.34500 0.80281 0.92776
 H1064 H 0.31596 0.82055 0.94042
 H1065 H 0.36843 0.77705 0.93610
 H1066 H 0.39738 0.76080 0.92133
 H1067 H 0.42946 0.81260 0.92686
 H1068 H 0.40054 0.82913 0.94129
 C1069 C 1.23378 0.85950 -0.00033
 C1070 C 1.21871 0.85260 0.00531
 C1071 C 1.20078 0.84425 0.01210
 C1072 C 1.20103 0.82589 0.02154
 C1073 C 1.18368 0.81779 0.02832
 C1074 C 1.16580 0.82798 0.02574
 C1075 C 1.16570 0.84642 0.01617
 C1076 C 1.18309 0.85448 0.00939
 C1077 C 1.14741 0.81951 0.03329
 C1078 C 1.13287 0.83125 0.04245
 C1079 C 1.11586 0.82314 0.05016
 C1080 C 1.11311 0.80320 0.04878
 C1081 C 1.12736 0.79144 0.03947
 C1082 C 1.14439 0.79952 0.03176
 C1083 C 1.09603 0.79470 0.05758
 C1084 C 1.08195 0.78753 0.06537
 H1085 H 1.21465 0.81787 0.02377
 H1086 H 1.18427 0.80370 0.03587
 H1087 H 1.15217 0.85452 0.01377
 H1088 H 1.18273 0.86869 0.00205
 H1089 H 1.13486 0.84663 0.04408
 H1090 H 1.10497 0.83236 0.05744
 H1091 H 1.12538 0.77599 0.03833
 H1092 H 1.15518 0.79014 0.02457
 C1093 C 0.73215 0.35705 0.49929
 C1094 C 0.71703 0.35012 0.50470
 C1095 C 0.69905 0.34174 0.51126
 C1096 C 0.68160 0.35278 0.51034
 C1097 C 0.66417 0.34471 0.51698
 C1098 C 0.66399 0.32545 0.52460
 C1099 C 0.68160 0.31444 0.52534
 C1100 C 0.69900 0.32255 0.51871
 C1101 C 0.64559 0.31697 0.53213
 C1102 C 0.64169 0.29748 0.52879
 C1103 C 0.62474 0.28929 0.53657
 C1104 C 0.61145 0.30047 0.54776
 C1105 C 0.61505 0.31994 0.55093
 C1106 C 0.63199 0.32816 0.54316
 C1107 C 0.59459 0.29173 0.55675
 C1108 C 0.58075 0.28435 0.56477
 H1109 H 0.68146 0.36764 0.50455
 H1110 H 0.65083 0.35347 0.51601
 H1111 H 0.68199 0.29968 0.53138
 H1112 H 0.71244 0.31389 0.51954
 H1113 H 0.65175 0.28856 0.52015
 H1114 H 0.62211 0.27419 0.53404
 H1115 H 0.60492 0.32869 0.55969
 H1116 H 0.63468 0.34312 0.54621
 C1117 C 0.30006 0.14344 0.51350
 C1118 C 0.31397 0.15204 0.51806
 C1119 C 0.33073 0.16172 0.52402
 C1120 C 0.33492 0.16160 0.54375
 C1121 C 0.35162 0.17016 0.54966
 C1122 C 0.36443 0.17895 0.53589
 C1123 C 0.35996 0.17926 0.51610
 C1124 C 0.34322 0.17064 0.51021
 C1125 C 0.38247 0.18746 0.54223
 C1126 C 0.38870 0.20533 0.53414
 C1127 C 0.40541 0.21353 0.54066
 C1128 C 0.41611 0.20391 0.55525
 C1129 C 0.41018 0.18600 0.56315
 C1130 C 0.39351 0.17781 0.55669
 C1131 C 0.43272 0.21262 0.56283
 C1132 C 0.44642 0.21954 0.57000
 H1133 H 0.32535 0.15474 0.55456
 H1134 H 0.35450 0.16996 0.56502
 H1135 H 0.36962 0.18576 0.50516
 H1136 H 0.34016 0.17073 0.49489
 H1137 H 0.38041 0.21318 0.52311
 H1138 H 0.40981 0.22746 0.53453
 H1139 H 0.41835 0.17843 0.57445
 H1140 H 0.38927 0.16389 0.56297
 C1141 C 0.80093 0.64954 0.00949
 C1142 C 0.81476 0.65873 0.01313
 C1143 C 0.83150 0.66923 0.01774
 C1144 C 0.84887 0.66679 0.00676
 C1145 C 0.86547 0.67609 0.01192
 C1146 C 0.86490 0.68796 0.02817
 C1147 C 0.84727 0.69057 0.03890
 C1148 C 0.83070 0.68125 0.03373
 C1149 C 0.88276 0.69694 0.03439
 C1150 C 0.88198 0.71590 0.04143
 C1151 C 0.89857 0.72384 0.04845
 C1152 C 0.91616 0.71296 0.04848
 C1153 C 0.91718 0.69424 0.04113
 C1154 C 0.90062 0.68628 0.03410
 C1155 C 0.93279 0.72048 0.05721
 C1156 C 0.94647 0.72649 0.06520
 H1157 H 0.84965 0.65751 -0.00564
 H1158 H 0.87875 0.67397 0.00324
 H1159 H 0.84643 0.69937 0.05164
 H1160 H 0.81736 0.68314 0.04240
 H1161 H 0.86851 0.72455 0.04163
 H1162 H 0.89760 0.73832 0.05416
 H1163 H 0.93068 0.68563 0.04124
 H1164 H 0.90164 0.67156 0.02903
 C1165 C 0.73364 0.64655 0.98630
 C1166 C 0.71878 0.65273 0.97929
 C1167 C 0.70103 0.65968 0.97064
 C1168 C 0.69384 0.67872 0.97347
 C1169 C 0.67669 0.68544 0.96483
 C1170 C 0.66651 0.67318 0.95325
 C1171 C 0.67385 0.65405 0.95057
 C1172 C 0.69098 0.64737 0.95921
 C1173 C 0.64848 0.68035 0.94376
 C1174 C 0.63262 0.66822 0.94281
 C1175 C 0.61588 0.67477 0.93335
 C1176 C 0.61475 0.69351 0.92475
 C1177 C 0.63035 0.70575 0.92579
 C1178 C 0.64711 0.69924 0.93524
 C1179 C 0.59777 0.70002 0.91446
 C1180 C 0.58371 0.70545 0.90560
 H1181 H 0.70149 0.68836 0.98233
 H1182 H 0.67130 0.70017 0.96734
 H1183 H 0.66652 0.64435 0.94152
 H1184 H 0.69646 0.63263 0.95687
 H1185 H 0.63313 0.65370 0.94945
 H1186 H 0.60387 0.66518 0.93266
 H1187 H 0.62966 0.72026 0.91910
 H1188 H 0.65915 0.70883 0.93551
 C1189 C 0.23343 0.14279 0.48811
 C1190 C 0.21900 0.14943 0.48060
 C1191 C 0.20176 0.15688 0.47131
 C1192 C 0.19065 0.17233 0.47921
 C1193 C 0.17381 0.17936 0.47019
 C1194 C 0.16786 0.17098 0.45317
 C1195 C 0.17918 0.15549 0.44534
 C1196 C 0.19600 0.14850 0.45436
 C1197 C 0.14998 0.17836 0.44354
 C1198 C 0.13739 0.16535 0.43573
 C1199 C 0.12079 0.17230 0.42627
 C1200 C 0.11653 0.19232 0.42450
 C1201 C 0.12886 0.20539 0.43236
 C1202 C 0.14547 0.19847 0.44184
 C1203 C 0.09973 0.19944 0.41427
 C1204 C 0.08576 0.20533 0.40549
 H1205 H 0.19495 0.17888 0.49237
 H1206 H 0.16529 0.19116 0.47669
 H1207 H 0.17515 0.14892 0.43210
 H1208 H 0.20452 0.13656 0.44810
 H1209 H 0.14031 0.14978 0.43704
 H1210 H 0.11132 0.16205 0.42028
 H1211 H 0.12574 0.22093 0.43100
 H1212 H 0.15499 0.20886 0.44749
 C1213 C 0.60465 0.03257 0.75126
 C1214 C 0.59686 0.04577 0.74213
 C1215 C 0.58809 0.06201 0.73147
 C1216 C 0.57768 0.07667 0.74144
 C1217 C 0.57019 0.09307 0.73126
 C1218 C 0.57307 0.09507 0.71094
 C1219 C 0.58331 0.08011 0.70102
 C1220 C 0.59078 0.06370 0.71124
 C1221 C 0.56589 0.11291 0.70024
 C1222 C 0.57741 0.12154 0.68523
 C1223 C 0.57085 0.13852 0.67537
 C1224 C 0.55270 0.14713 0.68034
 C1225 C 0.54109 0.13865 0.69520
 C1226 C 0.54764 0.12166 0.70511
 C1227 C 0.54600 0.16457 0.67006
 C1228 C 0.54055 0.17908 0.66118
 H1229 H 0.57565 0.07557 0.75712
 H1230 H 0.56260 0.10444 0.73934
 H1231 H 0.58554 0.08109 0.68537
 H1232 H 0.59885 0.05246 0.70338
 H1233 H 0.59164 0.11534 0.68133
 H1234 H 0.57996 0.14498 0.66390
 H1235 H 0.52698 0.14514 0.69911
 H1236 H 0.53835 0.11525 0.71643
 C1237 C 1.10266 0.53583 0.24876
 C1238 C 1.09430 0.54882 0.23984
 C1239 C 1.08494 0.56484 0.22936
 C1240 C 1.08904 0.56789 0.20944
 C1241 C 1.08104 0.58423 0.19954
 C1242 C 1.06886 0.59778 0.20945
 C1243 C 1.06456 0.59439 0.22941
 C1244 C 1.07257 0.57804 0.23929
 C1245 C 1.06121 0.61567 0.19915
 C1246 C 1.06072 0.63371 0.20818
 C1247 C 1.05420 0.65068 0.19823
 C1248 C 1.04806 0.64985 0.17915
 C1249 C 1.04829 0.63195 0.17011
 C1250 C 1.05482 0.61497 0.18003
 C1251 C 1.04196 0.66739 0.16868
 C1252 C 1.03703 0.68203 0.15969
 H1253 H 1.09872 0.55785 0.20165
 H1254 H 1.08484 0.58655 0.18424
 H1255 H 1.05505 0.60442 0.23739
 H1256 H 1.06933 0.57584 0.25472
 H1257 H 1.06580 0.63479 0.22277
 H1258 H 1.05416 0.66446 0.20534
 H1259 H 1.04355 0.63114 0.15535
 H1260 H 1.05481 0.60128 0.17277
 C1261 C 0.90593 0.95899 0.24994
 C1262 C 0.91560 0.94722 0.24087
 C1263 C 0.92663 0.93264 0.23027
 C1264 C 0.92978 0.93495 0.21013
 C1265 C 0.93941 0.92016 0.19969
 C1266 C 0.94599 0.90284 0.20928
 C1267 C 0.94306 0.90084 0.22958
 C1268 C 0.93342 0.91563 0.23998
 C1269 C 0.95515 0.88662 0.19811
 C1270 C 0.97096 0.87545 0.20545
 C1271 C 0.97895 0.85963 0.19529
 C1272 C 0.97125 0.85478 0.17767
 C1273 C 0.95569 0.86594 0.17014
 C1274 C 0.94769 0.88175 0.18026
 C1275 C 0.97890 0.83809 0.16749
 C1276 C 0.98483 0.82406 0.15876
 H1277 H 0.92455 0.94805 0.20246
 H1278 H 0.94166 0.92224 0.18411
 H1279 H 0.94769 0.88759 0.23736
 H1280 H 0.93095 0.91364 0.25556
 H1281 H 0.97716 0.87897 0.21904
 H1282 H 0.99102 0.85111 0.20124
 H1283 H 0.94957 0.86226 0.15655
 H1284 H 0.93535 0.88986 0.17436
 C1285 C 0.40576 0.45672 0.74815
 C1286 C 0.41576 0.44487 0.73953
 C1287 C 0.42713 0.43015 0.72943
 C1288 C 0.43222 0.41257 0.73916
 C1289 C 0.44211 0.39767 0.72914
 C1290 C 0.44701 0.40014 0.70919
 C1291 C 0.44215 0.41801 0.69962
 C1292 C 0.43226 0.43291 0.70969
 C1293 C 0.45638 0.38383 0.69829
 C1294 C 0.45038 0.37992 0.67957
 C1295 C 0.45843 0.36398 0.66968
 C1296 C 0.47259 0.35174 0.67831
 C1297 C 0.47887 0.35565 0.69680
 C1298 C 0.47083 0.37159 0.70674
 C1299 C 0.48014 0.33486 0.66837
 C1300 C 0.48598 0.32068 0.65983
 H1301 H 0.42820 0.41023 0.75442
 H1302 H 0.44538 0.38400 0.73686
 H1303 H 0.44593 0.42044 0.68434
 H1304 H 0.42836 0.44645 0.70201
 H1305 H 0.43908 0.38886 0.67278
 H1306 H 0.45339 0.36103 0.65540
 H1307 H 0.48984 0.34627 0.70361
 H1308 H 0.47591 0.37435 0.72103
 C1309 C 0.40407 0.51989 0.77045
 C1310 C 0.41377 0.53397 0.77142
 C1311 C 0.42490 0.55097 0.77344
 C1312 C 0.44490 0.54911 0.77611
 C1313 C 0.45535 0.56548 0.77982
 C1314 C 0.44589 0.58395 0.78097
 C1315 C 0.42587 0.58572 0.77774
 C1316 C 0.41546 0.56934 0.77403
 C1317 C 0.45653 0.60108 0.78664
 C1318 C 0.45255 0.61965 0.77808
 C1319 C 0.46144 0.63598 0.78462
 C1320 C 0.47445 0.63396 0.79973
 C1321 C 0.47888 0.61551 0.80799
 C1322 C 0.47001 0.59917 0.80149
 C1323 C 0.48231 0.65088 0.80769
 C1324 C 0.48851 0.66486 0.81507
 H1325 H 0.45234 0.53495 0.77572
 H1326 H 0.47078 0.56368 0.78201
 H1327 H 0.41809 0.59965 0.77881
 H1328 H 0.39995 0.57093 0.77214
 H1329 H 0.44241 0.62156 0.76648
 H1330 H 0.45788 0.65021 0.77815
 H1331 H 0.48881 0.61380 0.81980
 H1332 H 0.47318 0.58515 0.80858
 C1333 C -0.09503 0.02050 0.27280
 C1334 C -0.08545 0.03467 0.27376
 C1335 C -0.07442 0.05175 0.27569
 C1336 C -0.08405 0.06994 0.27733
 C1337 C -0.07362 0.08638 0.28078
 C1338 C -0.05338 0.08484 0.28269
 C1339 C -0.04376 0.06656 0.28055
 C1340 C -0.05423 0.05013 0.27709
 C1341 C -0.04259 0.10201 0.28798
 C1342 C -0.02814 0.10003 0.30187
 C1343 C -0.01908 0.11637 0.30810
 C1344 C -0.02429 0.13492 0.30051
 C1345 C -0.03828 0.13702 0.28632
 C1346 C -0.04737 0.12068 0.28006
 C1347 C -0.01624 0.15181 0.30833
 C1348 C -0.00989 0.16577 0.31562
 H1349 H -0.09969 0.07134 0.27641
 H1350 H -0.08150 0.10015 0.28265
 H1351 H -0.02817 0.06495 0.28172
 H1352 H -0.04664 0.03611 0.27588
 H1353 H -0.02433 0.08592 0.30847
 H1354 H -0.00839 0.11460 0.31921
 H1355 H -0.04246 0.15131 0.28038
 H1356 H -0.05827 0.12265 0.26918
 C1357 C 0.10063 0.47001 0.27198
 C1358 C 0.09205 0.45507 0.27271
 C1359 C 0.08262 0.43678 0.27431
 C1360 C 0.09324 0.41958 0.27014
 C1361 C 0.08486 0.40156 0.27351
 C1362 C 0.06570 0.40049 0.28115
 C1363 C 0.05494 0.41789 0.28473
 C1364 C 0.06337 0.43592 0.28136
 C1365 C 0.05754 0.38128 0.28654
 C1366 C 0.04666 0.37870 0.30409
 C1367 C 0.04043 0.36029 0.31010
 C1368 C 0.04494 0.34421 0.29868
 C1369 C 0.05530 0.34669 0.28094
 C1370 C 0.06154 0.36511 0.27488
 C1371 C 0.04001 0.32507 0.30590
 C1372 C 0.03628 0.30922 0.31273
 H1373 H 0.10821 0.42007 0.26483
 H1374 H 0.09364 0.38846 0.27088
 H1375 H 0.04009 0.41756 0.29039
 H1376 H 0.05503 0.44914 0.28468
 H1377 H 0.04360 0.39075 0.31355
 H1378 H 0.03255 0.35851 0.32393
 H1379 H 0.05890 0.33433 0.27200
 H1380 H 0.06970 0.36667 0.26119
 C1381 C 0.60086 0.96827 0.77366
 C1382 C 0.59187 0.95360 0.77418
 C1383 C 0.58184 0.93564 0.77554
 C1384 C 0.56855 0.93215 0.79102
 C1385 C 0.56034 0.91396 0.79363
 C1386 C 0.56538 0.89896 0.78080
 C1387 C 0.57831 0.90280 0.76494
 C1388 C 0.58650 0.92102 0.76235
 C1389 C 0.55820 0.87909 0.78479
 C1390 C 0.57085 0.86267 0.78265
 C1391 C 0.56473 0.84410 0.78820
 C1392 C 0.54589 0.84164 0.79589
 C1393 C 0.53300 0.85778 0.79751
 C1394 C 0.53909 0.87639 0.79198
 C1395 C 0.54038 0.82285 0.80358
 C1396 C 0.53618 0.80728 0.81082
 H1397 H 0.56498 0.94331 0.80141
 H1398 H 0.55068 0.91140 0.80614
 H1399 H 0.58231 0.89162 0.75470
 H1400 H 0.59683 0.92354 0.75036
 H1401 H 0.58573 0.86427 0.77746
 H1402 H 0.57489 0.83173 0.78704
 H1403 H 0.51840 0.85605 0.80351
 H1404 H 0.52895 0.88870 0.79359
 C1405 C 0.75111 0.60421 0.03419
 C1406 C 0.74237 0.59597 0.04734
 C1407 C 0.73206 0.58673 0.06350
 C1408 C 0.71190 0.58531 0.06332
 C1409 C 0.70176 0.57747 0.07956
 C1410 C 0.71168 0.57096 0.09623
 C1411 C 0.73200 0.57215 0.09612
 C1412 C 0.74210 0.58000 0.07987
 C1413 C 0.70085 0.56354 0.11386
 C1414 C 0.70823 0.54750 0.12494
 C1415 C 0.69823 0.54089 0.14182
 C1416 C 0.68074 0.55023 0.14784
 C1417 C 0.67323 0.56612 0.13686
 C1418 C 0.68319 0.57274 0.11999
 C1419 C 0.67048 0.54362 0.16530
 C1420 C 0.66166 0.53831 0.17987
 H1421 H 0.70398 0.59051 0.05074
 H1422 H 0.68616 0.57652 0.07910
 H1423 H 0.74002 0.56751 0.10880
 H1424 H 0.75769 0.58116 0.08022
 H1425 H 0.72167 0.53997 0.12049
 H1426 H 0.70414 0.52853 0.15017
 H1427 H 0.65973 0.57348 0.14141
 H1428 H 0.67727 0.58530 0.11196
 C1429 C 0.24862 1.09911 0.53591
 C1430 C 0.23955 1.09087 0.54883
 C1431 C 0.22897 1.08167 0.56484
 C1432 C 0.20866 1.08253 0.56555
 C1433 C 0.19843 1.07485 0.58181
 C1434 C 0.20840 1.06625 0.59761
 C1435 C 0.22882 1.06514 0.59657
 C1436 C 0.23902 1.07282 0.58030
 C1437 C 0.19759 1.05909 0.61536
 C1438 C 0.20367 1.04177 0.62527
 C1439 C 0.19376 1.03539 0.64229
 C1440 C 0.17769 1.04622 0.64963
 C1441 C 0.17148 1.06340 0.63983
 C1442 C 0.18135 1.06980 0.62282
 C1443 C 0.16754 1.03982 0.66723
 C1444 C 0.15880 1.03469 0.68190
 H1445 H 0.20074 1.08938 0.55368
 H1446 H 0.18272 1.07570 0.58206
 H1447 H 0.23692 1.05885 0.60858
 H1448 H 0.25474 1.07223 0.57997
 H1449 H 0.21599 1.03310 0.61978
 H1450 H 0.19865 1.02203 0.64973
 H1451 H 0.15908 1.07192 0.64540
 H1452 H 0.17649 1.08334 0.61571
 C1453 C 0.24972 0.90332 0.95893
 C1454 C 0.24061 0.91292 0.94717
 C1455 C 0.22998 0.92387 0.93257
 C1456 C 0.20980 0.92648 0.93459
 C1457 C 0.19938 0.93602 0.91978
 C1458 C 0.20905 0.94305 0.90271
 C1459 C 0.22938 0.94066 0.90099
 C1460 C 0.23976 0.93111 0.91582
 C1461 C 0.19794 0.95213 0.88644
 C1462 C 0.20499 0.96831 0.87565
 C1463 C 0.19490 0.97627 0.85980
 C1464 C 0.17766 0.96817 0.85455
 C1465 C 0.17043 0.95223 0.86532
 C1466 C 0.18047 0.94426 0.88116
 C1467 C 0.16754 0.97583 0.83786
 C1468 C 0.15886 0.98179 0.82385
 H1469 H 0.20208 0.92090 0.94749
 H1470 H 0.18377 0.93785 0.92163
 H1471 H 0.23722 0.94565 0.88794
 H1472 H 0.25537 0.92906 0.91405
 H1473 H 0.21827 0.97483 0.87949
 H1474 H 0.20060 0.98863 0.85158
 H1475 H 0.15714 0.94579 0.86133
 H1476 H 0.17482 0.93163 0.88896
 C1477 C 0.74999 0.40375 0.45678
 C1478 C 0.74146 0.41380 0.44493
 C1479 C 0.73145 0.42523 0.43022
 C1480 C 0.74097 0.42960 0.41237
 C1481 C 0.73099 0.43958 0.39754
 C1482 C 0.71130 0.44531 0.40035
 C1483 C 0.70196 0.44117 0.41849
 C1484 C 0.71198 0.43118 0.43331
 C1485 C 0.70040 0.45480 0.38414
 C1486 C 0.68138 0.44947 0.38077
 C1487 C 0.67144 0.45763 0.36495
 C1488 C 0.68033 0.47124 0.35229
 C1489 C 0.69914 0.47687 0.35566
 C1490 C 0.70912 0.46872 0.37149
 C1491 C 0.67030 0.47888 0.33555
 C1492 C 0.66166 0.48481 0.32150
 H1493 H 0.75601 0.42494 0.40979
 H1494 H 0.73852 0.44229 0.38367
 H1495 H 0.68688 0.44559 0.42117
 H1496 H 0.70447 0.42785 0.44707
 H1497 H 0.67437 0.43859 0.39005
 H1498 H 0.65692 0.45309 0.36242
 H1499 H 0.70615 0.48741 0.34596
 H1500 H 0.72366 0.47329 0.37383
 C1501 C 0.77138 0.40197 0.52013
 C1502 C 0.77214 0.41176 0.53422
 C1503 C 0.77394 0.42300 0.55123
 C1504 C 0.77509 0.41356 0.56952
 C1505 C 0.77862 0.42413 0.58588
 C1506 C 0.78110 0.44432 0.58415
 C1507 C 0.77940 0.45377 0.56576
 C1508 C 0.77587 0.44316 0.54941
 C1509 C 0.78661 0.45519 0.60122
 C1510 C 0.80092 0.46919 0.59915
 C1511 C 0.80733 0.47827 0.61542
 C1512 C 0.79952 0.47353 0.63397
 C1513 C 0.78493 0.46000 0.63615
 C1514 C 0.77848 0.45089 0.61989
 C1515 C 0.80746 0.48161 0.65079
 C1516 C 0.81484 0.48800 0.66467
 H1517 H 0.77378 0.39793 0.57107
 H1518 H 0.78014 0.41636 0.59975
 H1519 H 0.78101 0.46933 0.56400
 H1520 H 0.77505 0.45061 0.53530
 H1521 H 0.80769 0.47261 0.58506
 H1522 H 0.81875 0.48861 0.61358
 H1523 H 0.77881 0.45619 0.65045
 H1524 H 0.76729 0.44035 0.62193
 C1525 C 0.27145 -0.09827 0.01917
 C1526 C 0.27226 -0.08875 0.03344
 C1527 C 0.27408 -0.07779 0.05063
 C1528 C 0.27579 -0.08754 0.06872
 C1529 C 0.27925 -0.07717 0.08523
 C1530 C 0.28110 -0.05686 0.08386
 C1531 C 0.27888 -0.04713 0.06568
 C1532 C 0.27541 -0.05754 0.04918
 C1533 C 0.28645 -0.04614 0.10109
 C1534 C 0.30027 -0.03164 0.09914
 C1535 C 0.30651 -0.02262 0.11551
 C1536 C 0.29902 -0.02790 0.13405
 C1537 C 0.28491 -0.04196 0.13612
 C1538 C 0.27863 -0.05101 0.11975
 C1539 C 0.30678 -0.01981 0.15095
 C1540 C 0.31400 -0.01339 0.16492
 H1541 H 0.27493 -0.10322 0.06999
 H1542 H 0.28118 -0.08514 0.09892
 H1543 H 0.28000 -0.03149 0.06420
 H1544 H 0.27416 -0.04985 0.03523
 H1545 H 0.30678 -0.02776 0.08504
 H1546 H 0.31755 -0.01186 0.11376
 H1547 H 0.27904 -0.04619 0.15041
 H1548 H 0.26782 -0.06195 0.12170
 C1549 C 0.27299 0.09614 0.47063
 C1550 C 0.27376 0.08732 0.45580
 C1551 C 0.27529 0.07758 0.43764
 C1552 C 0.26172 0.08190 0.42335
 C1553 C 0.26433 0.07401 0.40496
 C1554 C 0.28060 0.06171 0.40062
 C1555 C 0.29384 0.05700 0.41529
 C1556 C 0.29120 0.06492 0.43365
 C1557 C 0.28449 0.05484 0.38058
 C1558 C 0.29233 0.03596 0.37748
 C1559 C 0.29766 0.03019 0.35869
 C1560 C 0.29517 0.04318 0.34276
 C1561 C 0.28685 0.06178 0.34564
 C1562 C 0.28151 0.06758 0.36440
 C1563 C 0.30258 0.03804 0.32374
 C1564 C 0.30956 0.03414 0.30797
 H1565 H 0.24938 0.09175 0.42627
 H1566 H 0.25377 0.07773 0.39405
 H1567 H 0.30666 0.04783 0.41234
 H1568 H 0.30189 0.06161 0.44455
 H1569 H 0.29459 0.02575 0.38962
 H1570 H 0.30415 0.01578 0.35664
 H1571 H 0.28503 0.07201 0.33343
 H1572 H 0.27579 0.08229 0.36631
 C1573 C 0.77414 0.60042 0.96857
 C1574 C 0.77492 0.59123 0.95398
 C1575 C 0.77651 0.58105 0.93607
 C1576 C 0.76282 0.58480 0.92177
 C1577 C 0.76552 0.57656 0.90356
 C1578 C 0.78200 0.56448 0.89939
 C1579 C 0.79535 0.56033 0.91408
 C1580 C 0.79263 0.56860 0.93227
 C1581 C 0.78599 0.55729 0.87949
 C1582 C 0.79422 0.53850 0.87672
 C1583 C 0.79968 0.53250 0.85804
 C1584 C 0.79694 0.54516 0.84190
 C1585 C 0.78824 0.56365 0.84445
 C1586 C 0.78276 0.56968 0.86310
 C1587 C 0.80448 0.53982 0.82297
 C1588 C 0.81156 0.53579 0.80728
 H1589 H 0.75033 0.59449 0.92454
 H1590 H 0.75488 0.57985 0.89263
 H1591 H 0.80833 0.55135 0.91126
 H1592 H 0.80341 0.56574 0.94316
 H1593 H 0.79668 0.52856 0.88902
 H1594 H 0.80647 0.51817 0.85624
 H1595 H 0.78621 0.57363 0.83207
 H1596 H 0.77674 0.58433 0.86475
 C1597 C 0.03206 0.75008 0.60380
 C1598 C 0.04521 0.74116 0.59570
 C1599 C 0.06140 0.73077 0.58654
 C1600 C 0.06523 0.71111 0.59146
 C1601 C 0.08166 0.70134 0.58351
 C1602 C 0.09454 0.71115 0.57057
 C1603 C 0.09040 0.73084 0.56549
 C1604 C 0.07395 0.74057 0.57345
 C1605 C 0.11248 0.70102 0.56285
 C1606 C 0.13015 0.71061 0.56142
 C1607 C 0.14717 0.70090 0.55474
 C1608 C 0.14677 0.68151 0.54936
 C1609 C 0.12925 0.67191 0.55056
 C1610 C 0.11221 0.68158 0.55726
 C1611 C 0.16439 0.67134 0.54299
 C1612 C 0.17908 0.66263 0.53782
 H1613 H 0.05569 0.70343 0.60169
 H1614 H 0.08458 0.68627 0.58791
 H1615 H 0.09989 0.73872 0.55539
 H1616 H 0.07114 0.75581 0.56957
 H1617 H 0.13090 0.72547 0.56588
 H1618 H 0.16067 0.70845 0.55394
 H1619 H 0.12877 0.65690 0.54641
 H1620 H 0.09881 0.67388 0.55797
 C1621 C 0.53350 0.24932 1.10475
 C1622 C 0.54651 0.24050 1.09633
 C1623 C 0.56258 0.23021 1.08685
 C1624 C 0.56593 0.21030 1.09088
 C1625 C 0.58232 0.20058 1.08277
 C1626 C 0.59562 0.21069 1.07056
 C1627 C 0.59193 0.23063 1.06633
 C1628 C 0.57553 0.24032 1.07445
 C1629 C 0.61356 0.20060 1.06278
 C1630 C 0.63141 0.20984 1.06227
 C1631 C 0.64843 0.20011 1.05562
 C1632 C 0.64785 0.18103 1.04938
 C1633 C 0.63014 0.17177 1.04964
 C1634 C 0.61310 0.18147 1.05629
 C1635 C 0.66546 0.17077 1.04314
 C1636 C 0.68016 0.16198 1.03810
 H1637 H 0.55609 0.20237 1.10059
 H1638 H 0.58487 0.18530 1.08651
 H1639 H 0.60176 0.23875 1.05680
 H1640 H 0.57310 0.25575 1.07128
 H1641 H 0.63230 0.22444 1.06743
 H1642 H 0.66207 0.20738 1.05556
 H1643 H 0.62953 0.15701 1.04481
 H1644 H 0.59957 0.17405 1.05630
 C1645 C 0.95687 0.25113 0.90483
 C1646 C 0.94496 0.24266 0.91481
 C1647 C 0.93020 0.23272 0.92615
 C1648 C 0.91215 0.24211 0.92989
 C1649 C 0.89732 0.23215 0.93982
 C1650 C 0.90033 0.21261 0.94612
 C1651 C 0.91866 0.20340 0.94260
 C1652 C 0.93349 0.21340 0.93266
 C1653 C 0.88417 0.20169 0.95557
 C1654 C 0.88128 0.18238 0.95068
 C1655 C 0.86551 0.17239 0.95879
 C1656 C 0.85243 0.18154 0.97189
 C1657 C 0.85532 0.20065 0.97708
 C1658 C 0.87109 0.21067 0.96898
 C1659 C 0.83576 0.17143 0.97947
 C1660 C 0.82177 0.16272 0.98534
 H1661 H 0.90942 0.25702 0.92480
 H1662 H 0.88331 0.23956 0.94204
 H1663 H 0.92150 0.18845 0.94747
 H1664 H 0.94741 0.20599 0.92983
 H1665 H 0.89090 0.17516 0.94019
 H1666 H 0.86335 0.15763 0.95460
 H1667 H 0.84529 0.20785 0.98723
 H1668 H 0.87305 0.22545 0.97320
 C1669 C 0.45757 0.75059 0.40633
 C1670 C 0.44580 0.74203 0.41640
 C1671 C 0.43119 0.73198 0.42785
 C1672 C 0.42917 0.71201 0.42587
 C1673 C 0.41405 0.70251 0.43585
 C1674 C 0.40070 0.71290 0.44791
 C1675 C 0.40309 0.73291 0.45010
 C1676 C 0.41823 0.74237 0.44012
 C1677 C 0.38390 0.70306 0.45747
 C1678 C 0.36536 0.71239 0.45800
 C1679 C 0.34932 0.70274 0.46599
 C1680 C 0.35159 0.68368 0.47361
 C1681 C 0.37002 0.67440 0.47348
 C1682 C 0.38609 0.68402 0.46548
 C1683 C 0.33489 0.67334 0.48072
 C1684 C 0.32089 0.66444 0.48621
 H1685 H 0.43903 0.70386 0.41629
 H1686 H 0.41245 0.68717 0.43364
 H1687 H 0.39319 0.74125 0.45946
 H1688 H 0.41964 0.75785 0.44171
 H1689 H 0.36315 0.72693 0.45171
 H1690 H 0.33510 0.71001 0.46591
 H1691 H 0.37194 0.65964 0.47933
 H1692 H 0.40020 0.67654 0.46550
 C1693 C 0.52053 0.77274 0.40450
 C1694 C 0.53461 0.77368 0.41422
 C1695 C 0.55160 0.77561 0.42536
 C1696 C 0.54983 0.77799 0.44546
 C1697 C 0.56621 0.78153 0.45596
 C1698 C 0.58457 0.78278 0.44646
 C1699 C 0.58625 0.77987 0.42633
 C1700 C 0.56987 0.77633 0.41587
 C1701 C 0.60172 0.78821 0.45719
 C1702 C 0.62021 0.77964 0.45300
 C1703 C 0.63656 0.78598 0.46198
 C1704 C 0.63463 0.80089 0.47527
 C1705 C 0.61624 0.80914 0.47991
 C1706 C 0.59989 0.80284 0.47096
 C1707 C 0.65156 0.80869 0.48318
 C1708 C 0.66556 0.81595 0.48941
 H1709 H 0.53575 0.77749 0.45295
 H1710 H 0.56448 0.78348 0.47148
 H1711 H 0.60010 0.78103 0.41852
 H1712 H 0.57138 0.77465 0.40029
 H1713 H 0.62206 0.76820 0.44264
 H1714 H 0.65073 0.77952 0.45825
 H1715 H 0.61460 0.82080 0.49006
 H1716 H 0.58593 0.80994 0.47429
 C1717 C 0.01978 0.27302 -0.09603
 C1718 C 0.03359 0.27401 -0.08596
 C1719 C 0.05025 0.27601 -0.07436
 C1720 C 0.04968 0.28979 -0.05988
 C1721 C 0.06633 0.29305 -0.04974
 C1722 C 0.08385 0.28260 -0.05399
 C1723 C 0.08415 0.26841 -0.06822
 C1724 C 0.06746 0.26517 -0.07835
 C1725 C 0.10191 0.28733 -0.04440
 C1726 C 0.11953 0.28851 -0.05530
 C1727 C 0.13619 0.29461 -0.04676
 C1728 C 0.13551 0.29957 -0.02721
 C1729 C 0.11820 0.29794 -0.01609
 C1730 C 0.10151 0.29183 -0.02461
 C1731 C 0.15215 0.30767 -0.01903
 C1732 C 0.16591 0.31518 -0.01261
 H1733 H 0.03648 0.29837 -0.05678
 H1734 H 0.06568 0.30427 -0.03909
 H1735 H 0.09734 0.25998 -0.07167
 H1736 H 0.06808 0.25450 -0.08956
 H1737 H 0.12027 0.28543 -0.07063
 H1738 H 0.14947 0.29597 -0.05554
 H1739 H 0.11749 0.30179 -0.00095
 H1740 H 0.08823 0.29086 -0.01578
 C1741 C 0.46812 0.27302 0.10162
 C1742 C 0.45337 0.27380 0.09275
 C1743 C 0.43528 0.27541 0.08298
 C1744 C 0.41803 0.27100 0.09325
 C1745 C 0.40018 0.27432 0.08454
 C1746 C 0.39933 0.28216 0.06540
 C1747 C 0.41681 0.28600 0.05498
 C1748 C 0.43466 0.28267 0.06375
 C1749 C 0.38028 0.28750 0.05692
 C1750 C 0.37768 0.30516 0.04618
 C1751 C 0.35938 0.31111 0.03966
 C1752 C 0.34342 0.29952 0.04372
 C1753 C 0.34593 0.28168 0.05393
 C1754 C 0.36425 0.27568 0.06047
 C1755 C 0.32436 0.30667 0.03851
 C1756 C 0.30856 0.31345 0.03454
 H1757 H 0.41833 0.26551 0.10820
 H1758 H 0.38702 0.27149 0.09306
 H1759 H 0.41665 0.29182 0.04016
 H1760 H 0.44793 0.28617 0.05567
 H1761 H 0.38962 0.31475 0.04347
 H1762 H 0.35757 0.32502 0.03190
 H1763 H 0.33367 0.27261 0.05718
 H1764 H 0.36583 0.26191 0.06849
 C1765 C 0.96895 0.77176 0.60148
 C1766 C 0.95387 0.77224 0.59317
 C1767 C 0.93546 0.77358 0.58397
 C1768 C 0.93448 0.77872 0.56416
 C1769 C 0.91643 0.78185 0.55574
 C1770 C 0.89914 0.77995 0.56706
 C1771 C 0.90032 0.77424 0.58684
 C1772 C 0.91836 0.77110 0.59521
 C1773 C 0.87999 0.78515 0.55871
 C1774 C 0.86354 0.77446 0.56414
 C1775 C 0.84522 0.78051 0.55764
 C1776 C 0.84312 0.79724 0.54561
 C1777 C 0.85946 0.80763 0.53969
 C1778 C 0.87777 0.80164 0.54617
 C1779 C 0.82413 0.80464 0.54041
 C1780 C 0.80842 0.81165 0.53642
 H1781 H 0.94764 0.78072 0.55533
 H1782 H 0.91601 0.78601 0.54043
 H1783 H 0.88732 0.77294 0.59603
 H1784 H 0.91896 0.76727 0.61060
 H1785 H 0.86480 0.76158 0.57360
 H1786 H 0.83265 0.77238 0.56235
 H1787 H 0.85798 0.82070 0.53050
 H1788 H 0.89005 0.81036 0.54196
   
