data_POSCAR
  _audit_creation_date              2014-09-24
  _audit_creation_method            'ToBaCCo'
  _symmetry_space_group_name_H-M    'P1'
  _symmetry_Int_Tables_number       1
  _symmetry_cell_setting            triclinic
  loop_
  _symmetry_equiv_pos_as_xyz
 x,y,z
_cell_length_a 41.8827
_cell_length_b 41.9165
_cell_length_c 41.8751
_cell_angle_alpha 89.931100
_cell_angle_beta 90.011500
_cell_angle_gamma 89.876400
loop_
  _atom_site_label
  _atom_site_type_symbol
  _atom_site_fract_x
  _atom_site_fract_y
  _atom_site_fract_z
C1 C 0.24077 0.99460 -0.02173
 C2 C 0.23909 0.99454 0.01055
 C3 C 0.23899 0.96485 0.02954
 C4 C 0.24171 1.02437 0.02906
 C5 C 0.24268 1.02479 -0.04000
 C6 C 0.24041 0.96474 -0.04041
 C7 C 0.21141 0.95558 0.04612
 C8 C 0.21305 0.93167 0.06940
 C9 C 0.24234 0.91691 0.07639
 C10 C 0.26942 0.92477 0.05829
 C11 C 0.26788 0.94898 0.03546
 C12 C 0.21480 1.03764 0.04367
 C13 C 0.21773 1.06458 0.06301
 C14 C 0.24780 1.07912 0.06824
 C15 C 0.27471 1.06510 0.05329
 C16 C 0.27161 1.03830 0.03380
 C17 C 0.26960 1.03106 -0.05888
 C18 C 0.27160 1.05936 -0.07636
 C19 C 0.24668 1.08178 -0.07523
 C20 C 0.21958 1.07537 -0.05662
 C21 C 0.21762 1.04707 -0.03905
 C22 C 0.26847 0.94693 -0.04465
 C23 C 0.26847 0.91997 -0.06425
 C24 C 0.24045 0.91062 -0.08005
 C25 C 0.21250 0.92881 -0.07614
 C26 C 0.21247 0.95561 -0.05634
 H27 H 0.18898 0.96783 0.04206
 H28 H 0.19186 0.92572 0.08297
 H29 H 0.29214 0.91335 0.06312
 H30 H 0.28959 0.95646 0.02363
 H31 H 0.19148 1.02714 0.04009
 H32 H 0.19604 1.07453 0.07297
 H33 H 0.29273 1.02771 0.02325
 H34 H 0.28908 1.01407 -0.06001
 H35 H 0.29240 1.06366 -0.09110
 H36 H 0.19994 1.09221 -0.05589
 H37 H 0.19645 1.04235 -0.02499
 H38 H 0.29051 0.95433 -0.03341
 H39 H 0.29039 0.90658 -0.06743
 H40 H 0.19086 0.92245 -0.08877
 H41 H 0.19083 0.96958 -0.05384
 H42 H 0.29868 1.07336 0.05822
 C43 C 0.74338 0.49715 0.47701
 C44 C 0.74390 0.49777 0.50937
 C45 C 0.74294 0.46835 0.52873
 C46 C 0.74706 0.52762 0.52761
 C47 C 0.74438 0.52669 0.45736
 C48 C 0.74210 0.46653 0.45949
 C49 C 0.71373 0.45674 0.54010
 C50 C 0.71313 0.43123 0.56164
 C51 C 0.74172 0.41663 0.57155
 C52 C 0.77090 0.42817 0.55978
 C53 C 0.77150 0.45404 0.53877
 C54 C 0.71995 0.54201 0.54096
 C55 C 0.72312 0.56841 0.56097
 C56 C 0.75353 0.58015 0.56876
 C57 C 0.78068 0.56521 0.55578
 C58 C 0.77742 0.53943 0.53495
 C59 C 0.76728 0.52961 0.43305
 C60 C 0.76718 0.55611 0.41278
 C61 C 0.74409 0.58015 0.41638
 C62 C 0.72175 0.57774 0.44127
 C63 C 0.72146 0.55091 0.46113
 C64 C 0.76851 0.44588 0.45926
 C65 C 0.76781 0.41792 0.44117
 C66 C 0.74074 0.41030 0.42298
 C67 C 0.71442 0.43111 0.42305
 C68 C 0.71510 0.45904 0.44120
 H69 H 0.69155 0.46808 0.53309
 H70 H 0.69043 0.42331 0.57111
 H71 H 0.79323 0.41757 0.56745
 H72 H 0.79427 0.46331 0.53080
 H73 H 0.69640 0.53253 0.53617
 H74 H 0.70188 0.57921 0.57103
 H75 H 0.79858 0.52791 0.52551
 H76 H 0.78505 0.51114 0.42952
 H77 H 0.78472 0.55759 0.39384
 H78 H 0.70394 0.59620 0.44467
 H79 H 0.70277 0.54871 0.47878
 H80 H 0.78992 0.45184 0.47242
 H81 H 0.78856 0.40245 0.44091
 H82 H 0.69364 0.42600 0.40853
 H83 H 0.69476 0.47504 0.44072
 H84 H 0.80440 0.57305 0.56234
 C85 C 0.75687 1.01341 0.99418
 C86 C 0.75922 0.98120 0.99551
 C87 C 0.76063 0.96176 0.96606
 C88 C 0.75638 0.96352 1.02617
 C89 C 0.75393 1.03343 1.02317
 C90 C 0.75885 1.03120 0.96381
 C91 C 0.73225 0.95420 0.95007
 C92 C 0.73238 0.93188 0.92533
 C93 C 0.76076 0.91607 0.91686
 C94 C 0.78950 0.92513 0.93155
 C95 C 0.78945 0.94796 0.95592
 C96 C 0.72940 0.96754 1.04575
 C97 C 0.72607 0.94971 1.07377
 C98 C 0.74915 0.92685 1.08212
 C99 C 0.77640 0.92329 1.06300
 C100 C 0.77998 0.94145 1.03526
 C101 C 0.77837 1.03408 1.04610
 C102 C 0.77692 1.05572 1.07145
 C103 C 0.75119 1.07712 1.07392
 C104 C 0.72621 1.07558 1.05176
 C105 C 0.72762 1.05398 1.02651
 C106 C 0.78798 1.04478 0.95481
 C107 C 0.78888 1.06858 0.93148
 C108 C 0.76046 1.08018 0.91755
 C109 C 0.73167 1.06417 0.92467
 C110 C 0.73091 1.04001 0.94769
 H111 H 0.70983 0.96475 0.95754
 H112 H 0.71009 0.92587 0.91370
 H113 H 0.81175 0.91368 0.92496
 H114 H 0.81167 0.95398 0.96763
 H115 H 0.71065 0.98406 1.03903
 H116 H 0.70504 0.95301 1.08845
 H117 H 0.80115 0.93807 1.02089
 H118 H 0.79895 1.01856 1.04378
 H119 H 0.79628 1.05651 1.08859
 H120 H 0.70610 1.09178 1.05349
 H121 H 0.70837 1.05369 1.00928
 H122 H 0.80981 1.03802 0.96697
 H123 H 0.81183 1.07848 0.92494
 H124 H 0.70923 1.07187 0.91437
 H125 H 0.70819 1.02977 0.95450
 H126 H 0.79457 0.90592 1.06921
 C127 C 0.25342 0.47606 0.49528
 C128 C 0.25217 0.50844 0.49508
 C129 C 0.25432 0.52723 0.46518
 C130 C 0.24885 0.52781 0.52464
 C131 C 0.25033 0.45722 0.52521
 C132 C 0.25569 0.45747 0.46527
 C133 C 0.27941 0.54909 0.46171
 C134 C 0.27809 0.57266 0.43819
 C135 C 0.25152 0.57484 0.41792
 C136 C 0.22738 0.55173 0.42000
 C137 C 0.22855 0.52831 0.44378
 C138 C 0.27074 0.52512 0.54994
 C139 C 0.26955 0.54661 0.57550
 C140 C 0.24704 0.57154 0.57564
 C141 C 0.22446 0.57340 0.55102
 C142 C 0.22537 0.55178 0.52578
 C143 C 0.22346 0.46062 0.54504
 C144 C 0.22023 0.44175 0.57244
 C145 C 0.24347 0.41875 0.58001
 C146 C 0.27049 0.41570 0.56048
 C147 C 0.27383 0.43468 0.53328
 C148 C 0.22764 0.44731 0.45019
 C149 C 0.22908 0.42612 0.42453
 C150 C 0.25851 0.41331 0.41462
 C151 C 0.28673 0.42469 0.42872
 C152 C 0.28532 0.44680 0.45378
 H153 H 0.29920 0.54895 0.47839
 H154 H 0.29707 0.59011 0.43677
 H155 H 0.20690 0.55284 0.40423
 H156 H 0.20843 0.51244 0.44672
 H157 H 0.28937 0.50718 0.54937
 H158 H 0.28688 0.54453 0.59460
 H159 H 0.20824 0.55432 0.50656
 H160 H 0.20483 0.47756 0.53908
 H161 H 0.19934 0.44461 0.58742
 H162 H 0.28874 0.39821 0.56606
 H163 H 0.29483 0.43169 0.51854
 H164 H 0.20456 0.45509 0.45890
 H165 H 0.20705 0.41843 0.41342
 H166 H 0.30972 0.41555 0.42118
 H167 H 0.30722 0.45449 0.46513
 H168 H 0.20674 0.59227 0.55083
 C169 C 0.99815 0.24504 0.02447
 C170 C 0.99844 0.24457 -0.00795
 C171 C 0.96931 0.24439 -0.02827
 C172 C 1.02908 0.24688 -0.02548
 C173 C 1.02856 0.24596 0.04246
 C174 C 0.96851 0.24497 0.04383
 C175 C 0.96859 0.22433 -0.05511
 C176 C 0.94552 0.22839 -0.07872
 C177 C 0.92236 0.25253 -0.07604
 C178 C 0.92103 0.27049 -0.04764
 C179 C 0.94481 0.26702 -0.02432
 C180 C 1.04730 0.21961 -0.03181
 C181 C 1.07450 0.22166 -0.05104
 C182 C 1.08471 0.25130 -0.06351
 C183 C 1.06626 0.27862 -0.05640
 C184 C 1.03873 0.27636 -0.03777
 C185 C 1.04579 0.27443 0.04523
 C186 C 1.07447 0.27508 0.06225
 C187 C 1.08690 0.24705 0.07623
 C188 C 1.06900 0.21868 0.07370
 C189 C 1.04016 0.21819 0.05697
 C190 C 0.96404 0.26900 0.06673
 C191 C 0.93750 0.26859 0.08679
 C192 C 0.91490 0.24410 0.08443
 C193 C 0.91929 0.21986 0.06170
 C194 C 0.94592 0.22034 0.04139
 H195 H 0.98685 0.20635 -0.05858
 H196 H 0.94624 0.21314 -0.09960
 H197 H 0.90320 0.28900 -0.04465
 H198 H 0.94502 0.28322 -0.00422
 H199 H 1.03969 0.19656 -0.02295
 H200 H 1.08653 0.19969 -0.05739
 H201 H 1.02475 0.29762 -0.03309
 H202 H 1.03693 0.29612 0.03425
 H203 H 1.08738 0.29740 0.06370
 H204 H 1.07675 0.19703 0.08557
 H205 H 1.02681 0.19614 0.05537
 H206 H 0.98123 0.28810 0.06917
 H207 H 0.93466 0.28727 0.10442
 H208 H 0.90217 0.20062 0.05979
 H209 H 0.94924 0.20128 0.02428
 H210 H 1.07321 0.30197 -0.06500
 C211 C 0.49854 0.74598 0.49059
 C212 C 0.49778 0.74687 0.52293
 C213 C 0.52750 0.74694 0.54198
 C214 C 0.46751 0.74663 0.54113
 C215 C 0.46929 0.74514 0.47074
 C216 C 0.52905 0.74735 0.47292
 C217 C 0.53487 0.72049 0.56114
 C218 C 0.56248 0.72036 0.57979
 C219 C 0.58313 0.74668 0.57946
 C220 C 0.57551 0.77338 0.56067
 C221 C 0.54782 0.77352 0.54203
 C222 C 0.44725 0.72003 0.54055
 C223 C 0.42000 0.71930 0.55985
 C224 C 0.41236 0.74540 0.57951
 C225 C 0.43263 0.77202 0.57984
 C226 C 0.46007 0.77254 0.56094
 C227 C 0.44668 0.76989 0.47218
 C228 C 0.42151 0.77097 0.45025
 C229 C 0.41901 0.74764 0.42633
 C230 C 0.44077 0.72222 0.42579
 C231 C 0.46576 0.72104 0.44775
 C232 C 0.53995 0.77672 0.46127
 C233 C 0.56717 0.77812 0.44210
 C234 C 0.58350 0.75007 0.43367
 C235 C 0.57234 0.72061 0.44528
 C236 C 0.54564 0.71933 0.46526
 H237 H 0.51919 0.69998 0.56164
 H238 H 0.56768 0.69985 0.59469
 H239 H 0.59093 0.79408 0.56057
 H240 H 0.54202 0.79444 0.52798
 H241 H 0.45302 0.69959 0.52582
 H242 H 0.40509 0.69822 0.55983
 H243 H 0.47566 0.79311 0.56186
 H244 H 0.44922 0.78894 0.48942
 H245 H 0.40466 0.79058 0.45114
 H246 H 0.43902 0.70391 0.40765
 H247 H 0.48284 0.70168 0.44628
 H248 H 0.52706 0.79848 0.46669
 H249 H 0.57509 0.80106 0.43322
 H250 H 0.58390 0.69855 0.43834
 H251 H 0.53719 0.69645 0.47377
 H252 H 0.42737 0.79224 0.59505
 C253 C -0.01918 0.75792 0.00410
 C254 C 0.01298 0.75972 0.00582
 C255 C 0.03294 0.75615 -0.02296
 C256 C 0.03050 0.76221 0.03637
 C257 C -0.03983 0.75834 0.03263
 C258 C -0.03582 0.75686 -0.02697
 C259 C 0.04258 0.72562 -0.03239
 C260 C 0.06470 0.72185 -0.05697
 C261 C 0.07850 0.74862 -0.07196
 C262 C 0.06703 0.77921 -0.06363
 C263 C 0.04459 0.78290 -0.03919
 C264 C 0.03239 0.73601 0.05719
 C265 C 0.05369 0.73645 0.08297
 C266 C 0.07318 0.76316 0.08828
 C267 C 0.07066 0.78959 0.06785
 C268 C 0.04946 0.78913 0.04215
 C269 C -0.04528 0.78670 0.04943
 C270 C -0.06917 0.78806 0.07276
 C271 C -0.08824 0.76114 0.07944
 C272 C -0.08100 0.73224 0.06381
 C273 C -0.05741 0.73104 0.04034
 C274 C -0.04963 0.78472 -0.03919
 C275 C -0.06756 0.78378 -0.06727
 C276 C -0.07197 0.75487 -0.08391
 C277 C -0.05813 0.72687 -0.07114
 C278 C -0.04005 0.72794 -0.04308
 H279 H 0.03339 0.70473 -0.02026
 H280 H 0.07111 0.69786 -0.06414
 H281 H 0.07669 0.80047 -0.07470
 H282 H 0.03711 0.80665 -0.03224
 H283 H 0.01843 0.71477 0.05265
 H284 H 0.05554 0.71574 0.09835
 H285 H 0.04861 0.80941 0.02614
 H286 H -0.03183 0.80799 0.04370
 H287 H -0.07279 0.81023 0.08554
 H288 H -0.09488 0.71093 0.06832
 H289 H -0.05354 0.70899 0.02742
 H290 H -0.04713 0.80710 -0.02653
 H291 H -0.07924 0.80550 -0.07507
 H292 H -0.06089 0.70414 -0.08308
 H293 H -0.02984 0.70613 -0.03360
 H294 H 0.08579 0.81023 0.07131
 C295 C 0.51219 0.25434 0.50775
 C296 C 0.47988 0.25491 0.50568
 C297 C 0.46359 0.25325 0.47436
 C298 C 0.45859 0.25687 0.53388
 C299 C 0.52956 0.25437 0.53851
 C300 C 0.53244 0.25154 0.47889
 C301 C 0.46015 0.28058 0.45537
 C302 C 0.44197 0.27942 0.42738
 C303 C 0.42793 0.25062 0.41742
 C304 C 0.43197 0.22320 0.43633
 C305 C 0.44936 0.22460 0.46475
 C306 C 0.43496 0.28067 0.53483
 C307 C 0.41107 0.27992 0.55802
 C308 C 0.41038 0.25536 0.58078
 C309 C 0.43493 0.23245 0.58090
 C310 C 0.45846 0.23281 0.55723
 C311 C 0.53965 0.22521 0.55150
 C312 C 0.56190 0.22449 0.57629
 C313 C 0.57592 0.25286 0.58727
 C314 C 0.56455 0.28218 0.57549
 C315 C 0.54140 0.28292 0.55132
 C316 C 0.53165 0.22377 0.46022
 C317 C 0.55252 0.22022 0.43446
 C318 C 0.57503 0.24402 0.42757
 C319 C 0.57534 0.27207 0.44577
 C320 C 0.55424 0.27577 0.47132
 H321 H 0.47059 0.30298 0.46283
 H322 H 0.43837 0.30112 0.41378
 H323 H 0.42113 0.20082 0.42938
 H324 H 0.45155 0.20341 0.47943
 H325 H 0.43439 0.29933 0.51693
 H326 H 0.39259 0.29803 0.55766
 H327 H 0.47557 0.21350 0.55637
 H328 H 0.53130 0.20293 0.54146
 H329 H 0.56967 0.20163 0.58559
 H330 H 0.57471 0.30438 0.58388
 H331 H 0.53418 0.30564 0.54128
 H332 H 0.51541 0.20457 0.46605
 H333 H 0.55176 0.19855 0.42041
 H334 H 0.59242 0.29076 0.44063
 H335 H 0.55521 0.29738 0.48540
 H336 H 0.43518 0.21364 0.59865
 C337 C 1.00455 0.02043 0.24522
 C338 C 1.00498 -0.01178 0.24767
 C339 C 1.03506 -0.03008 0.24779
 C340 C 0.97539 -0.03096 0.24924
 C341 C 0.97418 0.03829 0.24393
 C342 C 1.03417 0.03970 0.24407
 C343 C 1.04278 -0.04875 0.22121
 C344 C 1.06980 -0.06816 0.22160
 C345 C 1.08959 -0.06955 0.24878
 C346 C 1.08129 -0.05105 0.27567
 C347 C 1.05448 -0.03112 0.27498
 C348 C 0.95507 -0.03329 0.22277
 C349 C 0.92978 -0.05501 0.22297
 C350 C 0.92462 -0.07515 0.24949
 C351 C 0.94384 -0.07096 0.27679
 C352 C 0.96928 -0.04950 0.27641
 C353 C 0.95429 0.04004 0.27076
 C354 C 0.92647 0.05841 0.26974
 C355 C 0.91785 0.07469 0.24164
 C356 C 0.93786 0.07284 0.21482
 C357 C 0.96593 0.05488 0.21603
 C358 C 1.03897 0.06360 0.26701
 C359 C 1.06528 0.08387 0.26495
 C360 C 1.08701 0.08080 0.23970
 C361 C 1.08274 0.05645 0.21710
 C362 C 1.05636 0.03611 0.21916
 H363 H 1.02751 -0.04864 0.20031
 H364 H 1.07434 -0.08326 0.20110
 H365 H 1.09582 -0.05163 0.29707
 H366 H 1.04842 -0.01713 0.29585
 H367 H 0.95943 -0.01906 0.20162
 H368 H 0.91441 -0.05631 0.20220
 H369 H 0.98478 -0.04793 0.29706
 H370 H 0.96070 0.02775 0.29262
 H371 H 0.91179 0.06023 0.29095
 H372 H 0.93183 0.08551 0.19307
 H373 H 0.98128 0.05390 0.19523
 H374 H 1.02204 0.06681 0.28630
 H375 H 1.06827 0.10251 0.28259
 H376 H 1.09939 0.05377 0.19749
 H377 H 1.05277 0.01823 0.20089
 H378 H 0.94052 -0.08572 0.29777
 C379 C 0.50345 0.51969 0.74876
 C380 C 0.50282 0.48742 0.75070
 C381 C 0.53225 0.46805 0.75117
 C382 C 0.47253 0.46929 0.75183
 C383 C 0.47358 0.53859 0.74786
 C384 C 0.53375 0.53798 0.74810
 C385 C 0.54421 0.45539 0.72259
 C386 C 0.56990 0.43410 0.72306
 C387 C 0.58344 0.42448 0.75223
 C388 C 0.57083 0.43671 0.78086
 C389 C 0.54587 0.45883 0.78029
 C390 C 0.45262 0.46766 0.72491
 C391 C 0.42625 0.44723 0.72485
 C392 C 0.41960 0.42828 0.75169
 C393 C 0.43859 0.43103 0.77906
 C394 C 0.46495 0.45133 0.77910
 C395 C 0.45217 0.53819 0.77366
 C396 C 0.42436 0.55664 0.77267
 C397 C 0.41757 0.57550 0.74581
 C398 C 0.43905 0.57603 0.72013
 C399 C 0.46694 0.55777 0.72121
 C400 C 0.54004 0.56008 0.77245
 C401 C 0.56661 0.58011 0.77060
 C402 C 0.58712 0.57861 0.74418
 C403 C 0.58146 0.55582 0.72027
 C404 C 0.55477 0.53585 0.72207
 H405 H 0.53329 0.46166 0.69998
 H406 H 0.57890 0.42471 0.70071
 H407 H 0.58010 0.42885 0.80370
 H408 H 0.53645 0.46791 0.80258
 H409 H 0.45827 0.48121 0.70362
 H410 H 0.41184 0.44515 0.70348
 H411 H 0.47989 0.45242 0.80015
 H412 H 0.45722 0.52388 0.79462
 H413 H 0.40817 0.55634 0.79284
 H414 H 0.43432 0.59085 0.69945
 H415 H 0.48334 0.55850 0.70122
 H416 H 0.52393 0.56228 0.79257
 H417 H 0.57061 0.59752 0.78926
 H418 H 0.59710 0.55432 0.69973
 H419 H 0.54990 0.51964 0.70259
 H420 H 0.43379 0.41644 0.79987
 C421 C 1.02027 1.00205 0.75889
 C422 C 0.98828 1.00319 0.75435
 C423 C 0.96896 0.97387 0.75200
 C424 C 0.97047 1.03365 0.75354
 C425 C 1.03971 1.03133 0.76216
 C426 C 1.03785 0.97140 0.75880
 C427 C 0.95500 0.96532 0.72285
 C428 C 0.93461 0.93910 0.72118
 C429 C 0.92838 0.92069 0.74852
 C430 C 0.94239 0.92929 0.77771
 C431 C 0.96242 0.95584 0.77946
 C432 C 0.96090 1.04681 0.72432
 C433 C 0.94142 1.07386 0.72354
 C434 C 0.93117 1.08857 0.75206
 C435 C 0.94102 1.07501 0.78136
 C436 C 0.96061 1.04798 0.78204
 C437 C 1.05795 1.03618 0.78984
 C438 C 1.07802 1.06264 0.79230
 C439 C 1.08006 1.08471 0.76716
 C440 C 1.06185 1.07983 0.73944
 C441 C 1.04188 1.05330 0.73693
 C442 C 1.04202 0.95401 0.78705
 C443 C 1.06128 0.92675 0.78736
 C444 C 1.07770 0.91690 0.75963
 C445 C 1.07172 0.93351 0.73090
 C446 C 1.05229 0.96068 0.73062
 H447 H 0.95954 0.97913 0.70149
 H448 H 0.92340 0.93332 0.69861
 H449 H 0.93749 0.91568 0.79915
 H450 H 0.97231 0.96270 0.80233
 H451 H 0.96832 1.03598 0.70206
 H452 H 0.93469 1.08351 0.70049
 H453 H 0.96722 1.03758 0.80480
 H454 H 1.05690 1.01930 0.80940
 H455 H 1.09243 1.06563 0.81357
 H456 H 1.06355 1.09631 0.71958
 H457 H 1.02874 1.04946 0.71501
 H458 H 1.03085 0.96189 0.80900
 H459 H 1.06359 0.91351 0.80948
 H460 H 1.08357 0.92671 0.70895
 H461 H 1.04921 0.97390 0.70859
 H462 H 0.93230 1.08429 0.80385
 C463 C 0.52071 0.50420 0.25793
 C464 C 0.48849 0.50370 0.25514
 C465 C 0.47059 0.47347 0.25453
 C466 C 0.46884 0.53297 0.25238
 C467 C 0.53874 0.53444 0.25877
 C468 C 0.53991 0.47440 0.25871
 C469 C 0.46951 0.45501 0.22672
 C470 C 0.44999 0.42809 0.22544
 C471 C 0.43207 0.41880 0.25228
 C472 C 0.43356 0.43723 0.28021
 C473 C 0.45248 0.46455 0.28121
 C474 C 0.44898 0.53681 0.22562
 C475 C 0.42614 0.56104 0.22483
 C476 C 0.42275 0.58168 0.25085
 C477 C 0.44344 0.57887 0.27708
 C478 C 0.46643 0.55458 0.27786
 C479 C 0.55673 0.54205 0.28595
 C480 C 0.57597 0.56920 0.28625
 C481 C 0.57777 0.58895 0.25922
 C482 C 0.55988 0.58114 0.23192
 C483 C 0.54024 0.55423 0.23180
 C484 C 0.53569 0.45151 0.28288
 C485 C 0.55476 0.42408 0.28362
 C486 C 0.57869 0.41951 0.26058
 C487 C 0.58262 0.44215 0.23625
 C488 C 0.56348 0.46944 0.23540
 H489 H 0.48296 0.46205 0.20579
 H490 H 0.44847 0.41476 0.20336
 H491 H 0.41969 0.43070 0.30104
 H492 H 0.45287 0.47893 0.30269
 H493 H 0.45038 0.52025 0.20584
 H494 H 0.41019 0.56288 0.20454
 H495 H 0.48118 0.55164 0.29891
 H496 H 0.55609 0.52673 0.30679
 H497 H 0.58984 0.57459 0.30739
 H498 H 0.56157 0.59559 0.21053
 H499 H 0.52700 0.54826 0.21042
 H500 H 0.51805 0.45515 0.30141
 H501 H 0.55139 0.40676 0.30252
 H502 H 0.60096 0.43896 0.21828
 H503 H 0.56713 0.48681 0.21659
 H504 H 0.44084 0.59458 0.29743
 O505 O 0.26207 0.16333 0.19366
 O506 O 0.29811 0.15360 0.23566
 O507 O 0.18006 0.20311 0.23715
 O508 O 0.16869 0.24400 0.27045
 O509 O 0.22093 0.24695 0.15479
 O510 O 0.26247 0.28415 0.14855
 O511 O 0.26177 0.28716 0.32322
 O512 O 0.22700 0.24312 0.32997
 O513 O 0.34598 0.24474 0.28338
 O514 O 0.35832 0.21243 0.24103
 O515 O 0.30879 0.32737 0.24164
 O516 O 0.26464 0.34045 0.20772
 O517 O 0.26421 0.32660 0.28588
 O518 O 0.22841 0.33757 0.23852
 O519 O 0.34625 0.28842 0.24054
 O520 O 0.35197 0.23944 0.20131
 O521 O 0.30757 0.24961 0.32123
 O522 O 0.26822 0.20511 0.32676
 O523 O 0.26479 0.20266 0.15606
 O524 O 0.30262 0.24732 0.14989
 O525 O 0.18212 0.24877 0.19290
 O526 O 0.17406 0.28457 0.23947
 O527 O 0.21774 0.16382 0.23708
 O528 O 0.26141 0.15676 0.27654
 Zr529 Zr 0.26153 0.18855 0.23706
 O530 O 0.29186 0.21487 0.26720
 Zr531 Zr 0.20642 0.24580 0.23699
 O532 O 0.23388 0.27396 0.26817
 Zr533 Zr 0.26327 0.24593 0.18173
 O534 O 0.29280 0.27501 0.21007
 Zr535 Zr 0.26427 0.24520 0.29594
 O536 O 0.23338 0.21655 0.26791
 Zr537 Zr 0.32033 0.24573 0.24018
 O538 O 0.29304 0.21646 0.20961
 Zr539 Zr 0.26498 0.30274 0.24135
 O540 O 0.23514 0.27669 0.20989
 O541 O 0.23301 0.21644 0.20752
 O542 O 0.29446 0.27546 0.27056
 C543 C 0.26380 0.17316 0.16458
 C544 C 0.18865 0.17363 0.23684
 C545 C 0.19158 0.24818 0.16366
 C546 C 0.26193 0.31674 0.31494
 C547 C 0.33700 0.24833 0.31247
 C548 C 0.33802 0.31785 0.24098
 H549 H 0.30503 0.20025 0.28032
 H550 H 0.30615 0.28835 0.19592
 H551 H 0.21936 0.20328 0.19351
 H552 H 0.21928 0.28662 0.28173
 H553 H 0.21305 0.22509 0.32381
 H554 H 0.17754 0.25130 0.29106
 H555 H 0.35022 0.25861 0.18764
 H556 H 0.29488 0.24213 0.12810
 H557 H 0.27299 0.21300 0.34857
 H558 H 0.25505 0.13528 0.26892
 H559 H 0.27816 0.33381 0.18954
 H560 H 0.24726 0.30024 0.15683
 H561 H 0.31480 0.16170 0.22102
 H562 H 0.34988 0.19256 0.25054
 H563 H 0.18026 0.29978 0.22246
 H564 H 0.21354 0.33386 0.25649
 O565 O 0.74791 0.84658 0.21669
 O566 O 0.71583 0.85355 0.26184
 O567 O 0.83271 0.80217 0.25107
 O568 O 0.84509 0.75936 0.28175
 O569 O 0.78575 0.76520 0.16972
 O570 O 0.74304 0.72892 0.16369
 O571 O 0.75326 0.71377 0.33736
 O572 O 0.79158 0.75247 0.34417
 O573 O 0.66991 0.75736 0.30651
 O574 O 0.65549 0.79638 0.26780
 O575 O 0.70141 0.68039 0.25377
 O576 O 0.74533 0.66955 0.21795
 O577 O 0.74436 0.67779 0.29759
 O578 O 0.78086 0.66809 0.24984
 O579 O 0.66472 0.71968 0.25969
 O580 O 0.65684 0.77181 0.22649
 O581 O 0.71092 0.75565 0.34189
 O582 O 0.75429 0.79604 0.34583
 O583 O 0.74168 0.80978 0.17709
 O584 O 0.70415 0.76596 0.16936
 O585 O 0.82683 0.75940 0.20497
 O586 O 0.83691 0.72054 0.24794
 O587 O 0.79599 0.84204 0.25624
 O588 O 0.75549 0.84720 0.29932
 Zr589 Zr 0.75174 0.81812 0.25804
 O590 O 0.72302 0.79017 0.28844
 Zr591 Zr 0.80545 0.76005 0.25048
 O592 O 0.77936 0.73006 0.28128
 Zr593 Zr 0.74507 0.76482 0.19925
 O594 O 0.71656 0.73454 0.22735
 Zr595 Zr 0.75205 0.75754 0.31303
 O596 O 0.78149 0.78765 0.28503
 Zr597 Zr 0.69186 0.76182 0.26149
 O598 O 0.71785 0.79258 0.23111
 Zr599 Zr 0.74569 0.70415 0.25467
 O600 O 0.77424 0.73173 0.22335
 O601 O 0.77757 0.79192 0.22480
 O602 O 0.71925 0.72985 0.28780
 C603 C 0.74322 0.83863 0.18738
 C604 C 0.82476 0.83176 0.25317
 C605 C 0.81557 0.76241 0.17655
 C606 C 0.74807 0.68538 0.32712
 C607 C 0.68103 0.75500 0.33506
 C608 C 0.67237 0.69027 0.25596
 H609 H 0.71137 0.80405 0.30358
 H610 H 0.70210 0.72268 0.21299
 H611 H 0.79028 0.80587 0.21064
 H612 H 0.79411 0.71588 0.29309
 H613 H 0.80639 0.77017 0.33915
 H614 H 0.83837 0.74783 0.30122
 H615 H 0.65929 0.75569 0.20947
 H616 H 0.71069 0.77291 0.14766
 H617 H 0.75127 0.78728 0.36763
 H618 H 0.76181 0.86900 0.29260
 H619 H 0.73009 0.67700 0.20149
 H620 H 0.75914 0.71253 0.16935
 H621 H 0.69727 0.84581 0.24945
 H622 H 0.66417 0.81345 0.28154
 H623 H 0.82798 0.70577 0.23184
 H624 H 0.79515 0.66913 0.26861
 O625 O 0.76114 0.17165 0.79617
 O626 O 0.72466 0.16045 0.75630
 O627 O 0.84056 0.21381 0.74893
 O628 O 0.85027 0.25447 0.71639
 O629 O 0.80148 0.25948 0.83243
 O630 O 0.75787 0.29082 0.84281
 O631 O 0.74772 0.29246 0.66484
 O632 O 0.78710 0.25611 0.65719
 O633 O 0.67093 0.25100 0.71013
 O634 O 0.66137 0.21917 0.75381
 O635 O 0.70944 0.33521 0.75032
 O636 O 0.75559 0.35055 0.77666
 O637 O 0.74683 0.33253 0.70138
 O638 O 0.79039 0.34413 0.74506
 O639 O 0.67198 0.29615 0.75281
 O640 O 0.66886 0.24787 0.79265
 O641 O 0.70765 0.24860 0.67020
 O642 O 0.75340 0.21008 0.66484
 O643 O 0.75997 0.21104 0.83358
 O644 O 0.71882 0.25486 0.83955
 O645 O 0.83838 0.25945 0.79305
 O646 O 0.84219 0.29596 0.74448
 O647 O 0.80431 0.17354 0.75207
 O648 O 0.75887 0.16467 0.71396
 Zr649 Zr 0.75952 0.19684 0.75305
 O650 O 0.72665 0.22198 0.72450
 Zr651 Zr 0.81259 0.25543 0.74990
 O652 O 0.78302 0.28186 0.71881
 Zr653 Zr 0.75819 0.25452 0.80764
 O654 O 0.72731 0.28321 0.78013
 Zr655 Zr 0.75215 0.25174 0.69349
 O656 O 0.78553 0.22484 0.72047
 Zr657 Zr 0.69856 0.25317 0.75210
 O658 O 0.72812 0.22426 0.78139
 Zr659 Zr 0.75278 0.31044 0.74646
 O660 O 0.78405 0.28580 0.77781
 O661 O 0.78840 0.22573 0.78108
 O662 O 0.72236 0.28209 0.71949
 C663 C 0.76104 0.18146 0.82519
 C664 C 0.83309 0.18415 0.75071
 C665 C 0.83051 0.26136 0.82264
 C666 C 0.74538 0.32200 0.67252
 C667 C 0.67869 0.24879 0.68051
 C668 C 0.68046 0.32564 0.75274
 H669 H 0.71344 0.20652 0.71255
 H670 H 0.71484 0.29684 0.79485
 H671 H 0.80316 0.21337 0.79483
 H672 H 0.79616 0.29467 0.70397
 H673 H 0.80355 0.23971 0.66167
 H674 H 0.84060 0.25916 0.69538
 H675 H 0.66843 0.26857 0.80398
 H676 H 0.72592 0.24670 0.86065
 H677 H 0.74865 0.21655 0.64255
 H678 H 0.76728 0.14376 0.72128
 H679 H 0.75260 0.34236 0.79857
 H680 H 0.77112 0.30852 0.83457
 H681 H 0.70755 0.16863 0.77040
 H682 H 0.66982 0.19930 0.74429
 H683 H 0.83813 0.30997 0.76307
 H684 H 0.79908 0.34465 0.72310
 O685 O 0.24088 0.82030 0.79618
 O686 O 0.27516 0.82987 0.75291
 O687 O 0.15619 0.78272 0.75430
 O688 O 0.14317 0.74238 0.72163
 O689 O 0.19961 0.73448 0.83489
 O690 O 0.24322 0.70026 0.84084
 O691 O 0.24053 0.69779 0.66542
 O692 O 0.20000 0.73592 0.65968
 O693 O 0.31949 0.73677 0.70193
 O694 O 0.33400 0.77067 0.74490
 O695 O 0.28299 0.65574 0.74445
 O696 O 0.23850 0.64454 0.78131
 O697 O 0.23901 0.65807 0.70261
 O698 O 0.20324 0.64692 0.74919
 O699 O 0.32139 0.69393 0.74508
 O700 O 0.33040 0.74141 0.78356
 O701 O 0.27993 0.74243 0.66560
 O702 O 0.23555 0.78099 0.66347
 O703 O 0.24217 0.78061 0.83343
 O704 O 0.28255 0.73690 0.83632
 O705 O 0.15927 0.73692 0.79839
 O706 O 0.14975 0.70075 0.75222
 O707 O 0.19485 0.82086 0.75546
 O708 O 0.23678 0.82806 0.71375
 Zr709 Zr 0.23815 0.79551 0.75259
 O710 O 0.26700 0.76907 0.72112
 Zr711 Zr 0.18214 0.73943 0.75359
 O712 O 0.20827 0.71103 0.72125
 Zr713 Zr 0.24121 0.73770 0.80700
 O714 O 0.26929 0.70830 0.77743
 Zr715 Zr 0.23792 0.73975 0.69289
 O716 O 0.20839 0.76864 0.72216
 Zr717 Zr 0.29620 0.73730 0.74657
 O718 O 0.27039 0.76684 0.77845
 Zr719 Zr 0.23987 0.68160 0.74693
 O720 O 0.21154 0.70787 0.77952
 O721 O 0.21026 0.76776 0.78263
 O722 O 0.26864 0.70878 0.71694
 C723 C 0.24162 0.81022 0.82521
 C724 C 0.16553 0.81192 0.75582
 C725 C 0.16987 0.73488 0.82718
 C726 C 0.24059 0.66822 0.67372
 C727 C 0.30948 0.73950 0.67296
 C728 C 0.31228 0.66472 0.74404
 H729 H 0.27957 0.78395 0.70779
 H730 H 0.28291 0.69454 0.79097
 H731 H 0.19709 0.78068 0.79733
 H732 H 0.19358 0.69848 0.70773
 H733 H 0.18451 0.75294 0.66515
 H734 H 0.15019 0.73262 0.70134
 H735 H 0.32969 0.72153 0.79630
 H736 H 0.27648 0.74333 0.85831
 H737 H 0.23909 0.77430 0.64103
 H738 H 0.23066 0.84939 0.72200
 H739 H 0.25686 0.64745 0.79589
 H740 H 0.23198 0.68202 0.83106
 H741 H 0.29274 0.82086 0.76593
 H742 H 0.32613 0.78964 0.73323
 H743 H 0.15660 0.68547 0.76893
 H744 H 0.18796 0.65133 0.73171
 O745 O 0.24476 0.34050 0.71502
 O746 O 0.21325 0.34955 0.76014
 O747 O 0.33098 0.30046 0.75497
 O748 O 0.34632 0.25761 0.78206
 O749 O 0.28389 0.25540 0.67245
 O750 O 0.24191 0.22148 0.66760
 O751 O 0.25500 0.21536 0.84349
 O752 O 0.29206 0.25681 0.84755
 O753 O 0.16970 0.25659 0.81051
 O754 O 0.15398 0.29039 0.76869
 O755 O 0.20448 0.17510 0.76585
 O756 O 0.24647 0.16347 0.72746
 O757 O 0.24976 0.17659 0.80580
 O758 O 0.28423 0.16616 0.75690
 O759 O 0.16618 0.21355 0.76827
 O760 O 0.15649 0.26163 0.72920
 O761 O 0.21106 0.25542 0.84565
 O762 O 0.25240 0.29798 0.84723
 O763 O 0.23980 0.30143 0.67751
 O764 O 0.20114 0.25594 0.67521
 O765 O 0.32560 0.25622 0.70747
 O766 O 0.33675 0.21850 0.75283
 O767 O 0.29340 0.33953 0.75339
 O768 O 0.25348 0.34612 0.79733
 Zr769 Zr 0.24983 0.31466 0.75785
 O770 O 0.22204 0.28779 0.79008
 Zr771 Zr 0.30486 0.25775 0.75332
 O772 O 0.28025 0.22919 0.78646
 Zr773 Zr 0.24377 0.25785 0.70255
 O774 O 0.21690 0.22806 0.73290
 Zr775 Zr 0.25209 0.25765 0.81661
 O776 O 0.28047 0.28668 0.78644
 Zr777 Zr 0.19157 0.25677 0.76531
 O778 O 0.21623 0.28675 0.73299
 Zr779 Zr 0.24745 0.20057 0.76172
 O780 O 0.27428 0.22708 0.72818
 O781 O 0.27607 0.28728 0.72588
 O782 O 0.22025 0.22742 0.79335
 C783 C 0.24047 0.33088 0.68619
 C784 C 0.32260 0.32989 0.75312
 C785 C 0.31385 0.25492 0.67913
 C786 C 0.25285 0.18601 0.83482
 C787 C 0.18110 0.25508 0.83897
 C788 C 0.17533 0.18428 0.76829
 H789 H 0.20998 0.30230 0.80429
 H790 H 0.20259 0.21459 0.71988
 H791 H 0.28853 0.30061 0.71088
 H792 H 0.29576 0.21646 0.79895
 H793 H 0.30589 0.27486 0.84119
 H794 H 0.33914 0.25314 0.80410
 H795 H 0.15495 0.24098 0.71789
 H796 H 0.20588 0.26314 0.65313
 H797 H 0.24987 0.29028 0.86950
 H798 H 0.25945 0.36757 0.78929
 H799 H 0.22854 0.16781 0.71270
 H800 H 0.25238 0.20258 0.67715
 H801 H 0.19489 0.34102 0.74798
 H802 H 0.16245 0.30924 0.78004
 H803 H 0.32972 0.20417 0.73543
 H804 H 0.29934 0.16904 0.77481
 O805 O 0.76292 0.66505 0.69742
 O806 O 0.79835 0.65598 0.73938
 O807 O 0.67880 0.70156 0.74227
 O808 O 0.66685 0.74145 0.77657
 O809 O 0.71672 0.74716 0.66000
 O810 O 0.75639 0.78690 0.65422
 O811 O 0.76041 0.78781 0.82794
 O812 O 0.72537 0.74415 0.83471
 O813 O 0.84374 0.75060 0.78673
 O814 O 0.85396 0.71319 0.74211
 O815 O 0.80371 0.82986 0.74594
 O816 O 0.75824 0.84106 0.71204
 O817 O 0.76066 0.82732 0.79057
 O818 O 0.72353 0.83797 0.74479
 O819 O 0.84262 0.79213 0.74244
 O820 O 0.85202 0.74900 0.70659
 O821 O 0.80582 0.74876 0.82559
 O822 O 0.76627 0.70530 0.83052
 O823 O 0.76314 0.70469 0.66009
 O824 O 0.79695 0.75203 0.65222
 O825 O 0.67856 0.74759 0.69876
 O826 O 0.67021 0.78279 0.74541
 O827 O 0.71770 0.66352 0.74083
 O828 O 0.76185 0.65760 0.78014
 Zr829 Zr 0.76074 0.68979 0.74099
 O830 O 0.79060 0.71686 0.77098
 Zr831 Zr 0.70375 0.74506 0.74232
 O832 O 0.73089 0.77398 0.77318
 Zr833 Zr 0.75955 0.74764 0.68608
 O834 O 0.78888 0.77699 0.71415
 Zr835 Zr 0.76239 0.74592 0.80038
 O836 O 0.73211 0.71647 0.77256
 Zr837 Zr 0.81787 0.74872 0.74372
 O838 O 0.79084 0.71906 0.71321
 Zr839 Zr 0.76077 0.80376 0.74605
 O840 O 0.73099 0.77710 0.71508
 O841 O 0.73081 0.71684 0.71205
 O842 O 0.79143 0.77724 0.77477
 C843 C 0.76414 0.67511 0.66840
 C844 C 0.68827 0.67237 0.74123
 C845 C 0.68752 0.74742 0.66937
 C846 C 0.75983 0.81739 0.81965
 C847 C 0.83493 0.75060 0.81611
 C848 C 0.83308 0.82123 0.74357
 H849 H 0.80412 0.70250 0.78399
 H850 H 0.80180 0.79051 0.69976
 H851 H 0.71764 0.70322 0.69800
 H852 H 0.71629 0.78623 0.78711
 H853 H 0.71146 0.72600 0.82883
 H854 H 0.67503 0.75096 0.79655
 H855 H 0.84230 0.73772 0.68828
 H856 H 0.78834 0.74675 0.63078
 H857 H 0.77064 0.71277 0.85256
 H858 H 0.75590 0.63605 0.77241
 H859 H 0.77294 0.83557 0.69439
 H860 H 0.73993 0.80163 0.66266
 H861 H 0.81570 0.66574 0.72666
 H862 H 0.85053 0.69823 0.76005
 H863 H 0.67605 0.79855 0.72879
 H864 H 0.70875 0.83322 0.76259
 O865 O 0.24734 0.66864 0.29683
 O866 O 0.20948 0.66233 0.25687
 O867 O 0.33024 0.70330 0.25418
 O868 O 0.34414 0.74268 0.22053
 O869 O 0.29365 0.74933 0.33705
 O870 O 0.25492 0.78715 0.34565
 O871 O 0.24969 0.79461 0.16971
 O872 O 0.28312 0.75240 0.16071
 O873 O 0.16630 0.75967 0.21202
 O874 O 0.15257 0.72738 0.25380
 O875 O 0.21224 0.83767 0.25094
 O876 O 0.25727 0.84575 0.28624
 O877 O 0.25441 0.83314 0.20763
 O878 O 0.29211 0.84073 0.25487
 O879 O 0.17116 0.80256 0.25546
 O880 O 0.16260 0.75345 0.29434
 O881 O 0.20341 0.75735 0.17242
 O882 O 0.24244 0.71224 0.16641
 O883 O 0.24761 0.70692 0.33552
 O884 O 0.21180 0.75413 0.34236
 O885 O 0.33178 0.75070 0.29823
 O886 O 0.34282 0.78268 0.24892
 O887 O 0.29004 0.66745 0.25073
 O888 O 0.24309 0.66418 0.21437
 Zr889 Zr 0.24788 0.69503 0.25424
 O890 O 0.21841 0.72443 0.22596
 Zr891 Zr 0.30694 0.74767 0.25422
 O892 O 0.28097 0.77826 0.22382
 Zr893 Zr 0.25125 0.75083 0.31074
 O894 O 0.22386 0.78339 0.28379
 Zr895 Zr 0.24752 0.75255 0.19661
 O896 O 0.27732 0.72128 0.22317
 Zr897 Zr 0.19317 0.75725 0.25426
 O898 O 0.21889 0.72457 0.28298
 Zr899 Zr 0.25315 0.80892 0.25196
 O900 O 0.28120 0.77999 0.28252
 O901 O 0.27904 0.71977 0.28384
 O902 O 0.22065 0.78477 0.22336
 C903 C 0.24664 0.67767 0.32612
 C904 C 0.31982 0.67456 0.25223
 C905 C 0.32275 0.75077 0.32767
 C906 C 0.25247 0.82385 0.17837
 C907 C 0.17447 0.75992 0.18248
 C908 C 0.18248 0.83090 0.25270
 H909 H 0.20377 0.71107 0.21316
 H910 H 0.21200 0.79763 0.29841
 H911 H 0.29227 0.70561 0.29742
 H912 H 0.29597 0.78994 0.20982
 H913 H 0.29651 0.73327 0.16449
 H914 H 0.33466 0.74746 0.19945
 H915 H 0.16285 0.77421 0.30557
 H916 H 0.21865 0.74666 0.36379
 H917 H 0.23733 0.72005 0.14463
 H918 H 0.24933 0.64227 0.22090
 H919 H 0.24161 0.84144 0.30338
 H920 H 0.26833 0.80416 0.33626
 H921 H 0.19340 0.67175 0.27143
 H922 H 0.15953 0.70663 0.24496
 H923 H 0.33838 0.79926 0.26505
 H924 H 0.30750 0.83437 0.23819
 O925 O 0.74202 0.32003 0.30099
 O926 O 0.77742 0.33077 0.25945
 O927 O 0.65809 0.28528 0.25451
 O928 O 0.64584 0.24647 0.21992
 O929 O 0.69705 0.23333 0.33509
 O930 O 0.73946 0.19963 0.34302
 O931 O 0.74450 0.20228 0.16622
 O932 O 0.70580 0.24127 0.16002
 O933 O 0.82361 0.23939 0.20870
 O934 O 0.83651 0.26972 0.25297
 O935 O 0.78284 0.15659 0.24483
 O936 O 0.73497 0.14631 0.28106
 O937 O 0.74157 0.16130 0.20187
 O938 O 0.70402 0.14815 0.24489
 O939 O 0.82177 0.19355 0.25026
 O940 O 0.82925 0.24031 0.29109
 O941 O 0.78557 0.24547 0.17031
 O942 O 0.74154 0.28543 0.16737
 O943 O 0.74057 0.27929 0.33705
 O944 O 0.78020 0.23394 0.33988
 O945 O 0.65842 0.23795 0.29697
 O946 O 0.65057 0.20360 0.24914
 O947 O 0.69717 0.32274 0.25878
 O948 O 0.74098 0.33036 0.21875
 Zr949 Zr 0.74020 0.29676 0.25670
 O950 O 0.77020 0.27081 0.22597
 Zr951 Zr 0.68337 0.24172 0.25336
 O952 O 0.71044 0.21412 0.22112
 Zr953 Zr 0.73989 0.23717 0.30928
 O954 O 0.76870 0.20804 0.28002
 Zr955 Zr 0.74201 0.24314 0.19525
 O956 O 0.71148 0.27145 0.22409
 Zr957 Zr 0.79762 0.23764 0.25174
 O958 O 0.77079 0.26676 0.28313
 Zr959 Zr 0.74027 0.18322 0.24703
 O960 O 0.71105 0.20880 0.27936
 O961 O 0.71054 0.26860 0.28464
 O962 O 0.77108 0.21083 0.21961
 C963 C 0.74146 0.30910 0.32967
 C964 C 0.66774 0.31423 0.25756
 C965 C 0.66771 0.23442 0.32606
 C966 C 0.74425 0.17241 0.17338
 C967 C 0.81477 0.24334 0.17955
 C968 C 0.81228 0.16454 0.24725
 H969 H 0.78368 0.28596 0.21389
 H970 H 0.78135 0.19349 0.29368
 H971 H 0.69700 0.28124 0.29927
 H972 H 0.69619 0.20237 0.20647
 H973 H 0.69011 0.25806 0.16558
 H974 H 0.65369 0.23759 0.19952
 H975 H 0.82901 0.21936 0.30199
 H976 H 0.77407 0.24129 0.36155
 H977 H 0.74631 0.27948 0.14495
 H978 H 0.73440 0.35147 0.22722
 H979 H 0.75304 0.14795 0.29617
 H980 H 0.72969 0.18120 0.33210
 H981 H 0.79443 0.32121 0.27284
 H982 H 0.82911 0.28992 0.24322
 H983 H 0.65668 0.18749 0.26534
 H984 H 0.68845 0.15477 0.22839
 C985 C 0.23728 0.12658 0.14115
 C986 C 0.23189 0.10477 0.11681
 C987 C 0.25107 0.10410 0.08904
 C988 C 0.27466 0.12860 0.08552
 C989 C 0.28101 0.14984 0.11120
 C990 C 0.26181 0.14897 0.13901
 C991 C 0.30640 0.17152 0.10804
 N992 N 0.32187 0.17436 0.07977
 N993 N 0.31364 0.15697 0.05454
 C994 C 0.29035 0.13463 0.05628
 H995 H 0.22189 0.12600 0.16197
 H996 H 0.21379 0.08691 0.12127
 H997 H 0.31417 0.18618 0.12774
 H998 H 0.28389 0.12231 0.03457
 C999 C 0.74472 0.62416 0.64654
 C1000 C 0.74133 0.60190 0.62223
 C1001 C 0.75691 0.60587 0.59286
 C1002 C 0.77655 0.63301 0.58816
 C1003 C 0.78149 0.65473 0.61367
 C1004 C 0.76442 0.65086 0.64271
 C1005 C 0.80400 0.67921 0.60933
 N1006 N 0.81818 0.68334 0.58053
 N1007 N 0.81164 0.66444 0.55587
 C1008 C 0.79127 0.63950 0.55865
 H1009 H 0.73136 0.62070 0.66844
 H1010 H 0.72641 0.58124 0.62648
 H1011 H 0.81110 0.69455 0.62871
 H1012 H 0.78668 0.62517 0.53772
 C1013 C 0.76571 0.88608 0.16068
 C1014 C 0.76758 0.90674 0.13465
 C1015 C 0.74463 0.90589 0.11027
 C1016 C 0.71870 0.88430 0.11270
 C1017 C 0.71637 0.86392 0.13963
 C1018 C 0.74077 0.86403 0.16309
 C1019 C 0.68958 0.84387 0.14216
 N1020 N 0.66760 0.84316 0.11841
 N1021 N 0.67057 0.86115 0.09238
 C1022 C 0.69537 0.88155 0.08862
 H1023 H 0.78468 0.88627 0.17829
 H1024 H 0.78758 0.92303 0.13309
 H1025 H 0.68570 0.82907 0.16295
 H1026 H 0.69662 0.89516 0.06675
 C1027 C 0.26165 0.37830 0.65835
 C1028 C 0.26269 0.39909 0.63237
 C1029 C 0.23972 0.39749 0.60807
 C1030 C 0.21465 0.37492 0.61051
 C1031 C 0.21325 0.35421 0.63731
 C1032 C 0.23763 0.35523 0.66078
 C1033 C 0.18721 0.33322 0.63982
 N1034 N 0.16509 0.33198 0.61622
 N1035 N 0.16718 0.35038 0.59038
 C1036 C 0.19120 0.37170 0.58665
 H1037 H 0.28047 0.37943 0.67608
 H1038 H 0.28200 0.41619 0.63086
 H1039 H 0.18396 0.31816 0.66051
 H1040 H 0.19170 0.38577 0.56503
 C1041 C 0.74223 0.13009 0.84648
 C1042 C 0.74156 0.10576 0.86901
 C1043 C 0.76064 0.10689 0.89665
 C1044 C 0.77982 0.13465 0.90183
 C1045 C 0.78164 0.15870 0.87788
 C1046 C 0.76204 0.15664 0.85035
 C1047 C 0.80330 0.18395 0.88233
 N1048 N 0.81935 0.18677 0.91026
 N1049 N 0.81525 0.16606 0.93399
 C1050 C 0.79582 0.14043 0.93091
 H1051 H 0.72712 0.12803 0.82557
 H1052 H 0.72681 0.08520 0.86388
 H1053 H 0.80786 0.20139 0.86393
 H1054 H 0.79262 0.12533 0.95155
 C1055 C 0.27192 0.63074 0.35069
 C1056 C 0.27302 0.60576 0.37254
 C1057 C 0.24883 0.60189 0.39528
 C1058 C 0.22332 0.62428 0.39639
 C1059 C 0.22189 0.64932 0.37357
 C1060 C 0.24646 0.65240 0.35058
 C1061 C 0.19567 0.67031 0.37442
 N1062 N 0.17316 0.66713 0.39746
 N1063 N 0.17509 0.64438 0.41960
 C1064 C 0.19939 0.62295 0.41994
 H1065 H 0.29139 0.63346 0.33396
 H1066 H 0.29295 0.58925 0.37168
 H1067 H 0.19279 0.68915 0.35700
 H1068 H 0.19984 0.60534 0.43879
 C1069 C 0.26163 0.86043 0.84851
 C1070 C 0.26169 0.88434 0.87155
 C1071 C 0.24086 0.88313 0.89770
 C1072 C 0.21986 0.85684 0.90094
 C1073 C 0.21924 0.83280 0.87708
 C1074 C 0.24077 0.83447 0.85086
 C1075 C 0.19620 0.80854 0.87986
 N1076 N 0.17668 0.80747 0.90566
 N1077 N 0.17842 0.82912 0.92880
 C1078 C 0.19935 0.85370 0.92737
 H1079 H 0.27801 0.86226 0.82857
 H1080 H 0.27776 0.90436 0.86861
 H1081 H 0.19300 0.79076 0.86163
 H1082 H 0.19980 0.87045 0.94697
 C1083 C 0.76399 0.35707 0.35473
 C1084 C 0.76405 0.38129 0.37739
 C1085 C 0.74107 0.38216 0.40165
 C1086 C 0.71806 0.35748 0.40363
 C1087 C 0.71776 0.33290 0.38032
 C1088 C 0.74111 0.33279 0.35571
 C1089 C 0.69326 0.30998 0.38191
 N1090 N 0.67167 0.31091 0.40601
 N1091 N 0.67274 0.33327 0.42854
 C1092 C 0.69518 0.35653 0.42821
 H1093 H 0.78184 0.35748 0.33600
 H1094 H 0.78169 0.40006 0.37544
 H1095 H 0.69069 0.29160 0.36412
 H1096 H 0.69499 0.37397 0.44721
 C1097 C 0.14443 0.27264 0.13836
 C1098 C 0.11947 0.27292 0.11644
 C1099 C 0.11539 0.24788 0.09444
 C1100 C 0.13906 0.22336 0.09319
 C1101 C 0.16426 0.22295 0.11591
 C1102 C 0.16671 0.24780 0.13872
 C1103 C 0.18595 0.19724 0.11528
 N1104 N 0.18393 0.17489 0.09203
 N1105 N 0.16171 0.17647 0.06938
 C1106 C 0.13946 0.20001 0.06897
 H1107 H 0.14608 0.29182 0.15562
 H1108 H 0.10205 0.29198 0.11825
 H1109 H 0.20442 0.19459 0.13302
 H1110 H 0.12273 0.20053 0.04934
 C1111 C 0.63785 0.76940 0.64673
 C1112 C 0.61298 0.76959 0.62472
 C1113 C 0.61167 0.74690 0.60025
 C1114 C 0.63639 0.72391 0.59749
 C1115 C 0.66154 0.72340 0.62019
 C1116 C 0.66229 0.74665 0.64482
 C1117 C 0.68449 0.69889 0.61793
 N1118 N 0.68307 0.67754 0.59368
 N1119 N 0.66019 0.67886 0.57165
 C1120 C 0.63685 0.70130 0.57269
 H1121 H 0.63799 0.78716 0.66552
 H1122 H 0.59415 0.78718 0.62723
 H1123 H 0.70327 0.69612 0.63533
 H1124 H 0.61898 0.70130 0.55405
 C1125 C 0.12215 0.75896 0.85159
 C1126 C 0.10082 0.76345 0.87662
 C1127 C 0.10260 0.74486 0.90458
 C1128 C 0.12794 0.72213 0.90738
 C1129 C 0.14865 0.71658 0.88110
 C1130 C 0.14613 0.73573 0.85332
 C1131 C 0.17130 0.69189 0.88358
 N1132 N 0.17524 0.67618 0.91160
 N1133 N 0.15800 0.68349 0.93725
 C1134 C 0.13482 0.70609 0.93623
 H1135 H 0.12013 0.77419 0.83074
 H1136 H 0.08201 0.78093 0.87339
 H1137 H 0.18565 0.68468 0.86348
 H1138 H 0.12256 0.71167 0.95821
 C1139 C 0.62019 0.25827 0.35124
 C1140 C 0.59833 0.26110 0.37611
 C1141 C 0.59861 0.23951 0.40167
 C1142 C 0.62133 0.21437 0.40201
 C1143 C 0.64301 0.21100 0.37623
 C1144 C 0.64295 0.23372 0.35113
 C1145 C 0.66378 0.18461 0.37627
 N1146 N 0.66407 0.16419 0.40140
 N1147 N 0.64487 0.16829 0.42639
 C1148 C 0.62359 0.19267 0.42762
 H1149 H 0.61993 0.27598 0.33235
 H1150 H 0.58118 0.28048 0.37556
 H1151 H 0.67931 0.17968 0.35634
 H1152 H 0.60885 0.19488 0.44867
 C1153 C 0.86092 0.73825 0.14820
 C1154 C 0.88399 0.73767 0.12438
 C1155 C 0.88645 0.76247 0.10183
 C1156 C 0.86350 0.78774 0.10285
 C1157 C 0.84017 0.78840 0.12754
 C1158 C 0.83892 0.76325 0.15018
 C1159 C 0.81899 0.81451 0.12887
 N1160 N 0.81966 0.83716 0.10579
 N1161 N 0.83996 0.83543 0.08142
 C1162 C 0.86158 0.81144 0.07896
 H1163 H 0.86030 0.71892 0.16541
 H1164 H 0.90099 0.71815 0.12456
 H1165 H 0.80199 0.81731 0.14803
 H1166 H 0.87645 0.81088 0.05793
 C1167 C 0.35462 0.28135 0.64631
 C1168 C 0.37822 0.28132 0.62297
 C1169 C 0.38410 0.25405 0.60451
 C1170 C 0.36484 0.22655 0.60913
 C1171 C 0.34155 0.22632 0.63374
 C1172 C 0.33670 0.25394 0.65250
 C1173 C 0.32393 0.19827 0.63884
 N1174 N 0.32840 0.17270 0.61955
 N1175 N 0.34930 0.17331 0.59560
 C1176 C 0.36753 0.19935 0.58963
 H1177 H 0.35034 0.30299 0.65972
 H1178 H 0.39227 0.30272 0.61950
 H1179 H 0.30666 0.19646 0.65791
 H1180 H 0.38360 0.19857 0.56948
 C1181 C 0.84655 0.26186 0.87978
 C1182 C 0.86852 0.25991 0.90457
 C1183 C 0.90131 0.25883 0.89838
 C1184 C 0.91210 0.26391 0.86649
 C1185 C 0.88961 0.26742 0.84109
 C1186 C 0.85619 0.26411 0.84761
 C1187 C 0.90177 0.27526 0.81057
 N1188 N 0.93361 0.27808 0.80578
 N1189 N 0.95445 0.27450 0.82942
 C1190 C 0.94483 0.26802 0.85955
 H1191 H 0.82153 0.26050 0.88614
 H1192 H 0.85960 0.25689 0.92868
 H1193 H 0.88693 0.28085 0.79048
 H1194 H 0.96295 0.26729 0.87787
 C1195 C 0.34837 0.72681 0.37496
 C1196 C 0.37158 0.72601 0.39875
 C1197 C 0.39451 0.75019 0.40103
 C1198 C 0.39404 0.77570 0.37876
 C1199 C 0.36996 0.77685 0.35498
 C1200 C 0.34748 0.75175 0.35269
 C1201 C 0.36885 0.80353 0.33465
 N1202 N 0.39148 0.82650 0.33685
 N1203 N 0.41501 0.82466 0.35815
 C1204 C 0.41713 0.80007 0.37911
 H1205 H 0.33116 0.70758 0.37366
 H1206 H 0.37174 0.70631 0.41553
 H1207 H 0.34993 0.80661 0.31745
 H1208 H 0.43688 0.79982 0.39571
 C1209 C 0.16217 0.12592 0.25912
 C1210 C 0.13752 0.10365 0.25989
 C1211 C 0.11348 0.10391 0.23662
 C1212 C 0.11450 0.12692 0.21180
 C1213 C 0.13970 0.14946 0.21090
 C1214 C 0.16324 0.14934 0.23527
 C1215 C 0.14068 0.17115 0.18525
 N1216 N 0.11730 0.17098 0.16285
 N1217 N 0.09307 0.15052 0.16430
 C1218 C 0.09081 0.12858 0.18800
 H1219 H 0.18012 0.12539 0.27775
 H1220 H 0.13699 0.08621 0.27901
 H1221 H 0.15993 0.18799 0.18258
 H1222 H 0.07050 0.11271 0.18798
 C1223 C 0.66286 0.62356 0.76278
 C1224 C 0.63821 0.60123 0.76369
 C1225 C 0.61352 0.60196 0.74108
 C1226 C 0.61397 0.62553 0.71673
 C1227 C 0.63929 0.64794 0.71555
 C1228 C 0.66340 0.64744 0.73937
 C1229 C 0.63979 0.67001 0.69021
 N1230 N 0.61578 0.67046 0.66849
 N1231 N 0.59136 0.65027 0.67034
 C1232 C 0.58956 0.62793 0.69372
 H1233 H 0.68119 0.62275 0.78104
 H1234 H 0.63817 0.58340 0.78245
 H1235 H 0.65919 0.68662 0.68720
 H1236 H 0.56901 0.61241 0.69406
 C1237 C 0.85912 0.13556 0.73006
 C1238 C 0.88356 0.11304 0.72955
 C1239 C 0.90931 0.11450 0.75120
 C1240 C 0.91080 0.14093 0.77262
 C1241 C 0.88524 0.16327 0.77377
 C1242 C 0.85944 0.16067 0.75194
 C1243 C 0.88628 0.18740 0.79711
 N1244 N 0.91241 0.19069 0.81588
 N1245 N 0.93756 0.17147 0.81294
 C1246 C 0.93780 0.14699 0.79181
 H1247 H 0.83961 0.13327 0.71321
 H1248 H 0.88121 0.09331 0.71304
 H1249 H 0.86658 0.20357 0.80079
 H1250 H 0.95936 0.13294 0.78985
 C1251 C 0.37485 0.65671 0.24027
 C1252 C 0.39992 0.63492 0.24029
 C1253 C 0.39552 0.60405 0.25178
 C1254 C 0.36519 0.59468 0.26330
 C1255 C 0.33936 0.61683 0.26354
 C1256 C 0.34434 0.64855 0.25184
 C1257 C 0.31001 0.60619 0.27622
 N1258 N 0.30691 0.57588 0.28710
 N1259 N 0.33105 0.55525 0.28644
 C1260 C 0.36005 0.56360 0.27496
 H1261 H 0.37953 0.68037 0.23099
 H1262 H 0.42300 0.64221 0.23118
 H1263 H 0.28936 0.62120 0.27826
 H1264 H 0.37886 0.54587 0.27522
 C1265 C 0.11907 0.84207 0.73508
 C1266 C 0.09867 0.86840 0.73543
 C1267 C 0.09959 0.89100 0.76035
 C1268 C 0.12262 0.88669 0.78521
 C1269 C 0.14245 0.85915 0.78529
 C1270 C 0.14130 0.83734 0.75949
 C1271 C 0.16339 0.85448 0.81117
 N1272 N 0.16631 0.87718 0.83396
 N1273 N 0.14982 0.90429 0.83251
 C1274 C 0.12850 0.91001 0.80882
 H1275 H 0.11802 0.82564 0.71514
 H1276 H 0.08146 0.87064 0.71623
 H1277 H 0.17740 0.83299 0.81350
 H1278 H 0.11714 0.93313 0.80836
 C1279 C 0.62086 0.34367 0.23673
 C1280 C 0.59969 0.36939 0.23730
 C1281 C 0.60044 0.39166 0.26225
 C1282 C 0.62262 0.38756 0.28751
 C1283 C 0.64380 0.36113 0.28716
 C1284 C 0.64350 0.33964 0.26099
 C1285 C 0.66449 0.35695 0.31331
 N1286 N 0.66489 0.37862 0.33731
 N1287 N 0.64593 0.40413 0.33699
 C1288 C 0.62491 0.40941 0.31292
 H1289 H 0.62024 0.32737 0.21668
 H1290 H 0.58286 0.37225 0.21785
 H1291 H 0.68002 0.33648 0.31511
 H1292 H 0.61032 0.43068 0.31392
 C1293 C 0.85563 0.87613 0.27638
 C1294 C 0.88044 0.89819 0.27579
 C1295 C 0.90070 0.90104 0.24908
 C1296 C 0.89619 0.87972 0.22288
 C1297 C 0.87049 0.85766 0.22344
 C1298 C 0.85046 0.85566 0.25063
 C1299 C 0.86570 0.83805 0.19662
 N1300 N 0.88658 0.83884 0.17193
 N1301 N 0.91197 0.85784 0.17231
 C1302 C 0.91769 0.87796 0.19697
 H1303 H 0.84047 0.87484 0.29731
 H1304 H 0.88306 0.91396 0.29610
 H1305 H 0.84562 0.82209 0.19504
 H1306 H 0.93945 0.89168 0.19627
 C1307 C 0.34310 0.38368 0.76639
 C1308 C 0.36628 0.40747 0.76620
 C1309 C 0.39516 0.40298 0.75011
 C1310 C 0.40089 0.37400 0.73378
 C1311 C 0.37726 0.34974 0.73365
 C1312 C 0.34812 0.35447 0.75072
 C1313 C 0.38368 0.32194 0.71583
 N1314 N 0.41196 0.31840 0.70050
 N1315 N 0.43439 0.34077 0.70152
 C1316 C 0.42987 0.36840 0.71763
 H1317 H 0.32122 0.38795 0.77951
 H1318 H 0.36177 0.42951 0.77894
 H1319 H 0.36660 0.30307 0.71327
 H1320 H 0.44897 0.38570 0.71758
 C1321 C 0.13093 0.27312 0.86397
 C1322 C 0.10801 0.27302 0.88796
 C1323 C 0.11097 0.25325 0.91506
 C1324 C 0.13928 0.23445 0.91819
 C1325 C 0.16180 0.23330 0.89277
 C1326 C 0.15785 0.25341 0.86570
 C1327 C 0.18733 0.21159 0.89529
 N1328 N 0.19201 0.19497 0.92267
 N1329 N 0.17280 0.19852 0.94771
 C1330 C 0.14688 0.21790 0.94655
 H1331 H 0.12735 0.28863 0.84355
 H1332 H 0.08688 0.28747 0.88415
 H1333 H 0.20338 0.20733 0.87574
 H1334 H 0.13283 0.22055 0.96802
 C1335 C 0.62809 0.76792 0.35769
 C1336 C 0.60491 0.76725 0.38140
 C1337 C 0.61028 0.75140 0.41038
 C1338 C 0.64003 0.73599 0.41547
 C1339 C 0.66318 0.73521 0.39060
 C1340 C 0.65746 0.75223 0.36161
 C1341 C 0.69078 0.71662 0.39561
 N1342 N 0.69592 0.70224 0.42417
 N1343 N 0.67526 0.70495 0.44814
 C1344 C 0.64760 0.72142 0.44483
 H1345 H 0.62291 0.78101 0.33596
 H1346 H 0.58228 0.77900 0.37687
 H1347 H 0.70804 0.71264 0.37714
 H1348 H 0.63193 0.72307 0.46526
 C1349 C 0.86173 0.72851 0.86363
 C1350 C 0.88524 0.72872 0.88712
 C1351 C 0.90782 0.75354 0.88895
 C1352 C 0.90748 0.77749 0.86467
 C1353 C 0.88292 0.77759 0.84125
 C1354 C 0.86005 0.75273 0.84075
 C1355 C 0.88195 0.80288 0.81916
 N1356 N 0.90547 0.82502 0.81884
 N1357 N 0.92987 0.82357 0.83915
 C1358 C 0.93185 0.80049 0.86178
 H1359 H 0.84451 0.70925 0.86342
 H1360 H 0.88445 0.71014 0.90509
 H1361 H 0.86267 0.80536 0.80227
 H1362 H 0.95278 0.80004 0.87685
 C1363 C 0.35397 0.23755 0.36800
 C1364 C 0.37580 0.23759 0.39300
 C1365 C 0.40668 0.24969 0.38895
 C1366 C 0.41567 0.26192 0.35865
 C1367 C 0.39284 0.26350 0.33349
 C1368 C 0.36180 0.25022 0.33797
 C1369 C 0.40194 0.27915 0.30512
 N1370 N 0.43226 0.28976 0.30134
 N1371 N 0.45416 0.28611 0.32407
 C1372 C 0.44695 0.27248 0.35251
 H1373 H 0.33062 0.22736 0.37229
 H1374 H 0.36830 0.22831 0.41596
 H1375 H 0.38536 0.28383 0.28614
 H1376 H 0.46583 0.26989 0.36991
 C1377 C 0.14767 0.74052 0.13354
 C1378 C 0.12262 0.74052 0.11159
 C1379 C 0.09776 0.76285 0.11377
 C1380 C 0.09813 0.78561 0.13875
 C1381 C 0.12384 0.78592 0.16083
 C1382 C 0.14856 0.76274 0.15849
 C1383 C 0.12423 0.81003 0.18413
 N1384 N 0.09989 0.83131 0.18603
 N1385 N 0.07516 0.83021 0.16609
 C1386 C 0.07340 0.80809 0.14258
 H1387 H 0.16626 0.72265 0.13133
 H1388 H 0.12285 0.72316 0.09244
 H1389 H 0.14386 0.81250 0.20047
 H1390 H 0.05265 0.80822 0.12724
 C1391 C 0.62553 0.26692 0.66137
 C1392 C 0.60124 0.26869 0.63862
 C1393 C 0.60328 0.25159 0.60995
 C1394 C 0.63075 0.23250 0.60414
 C1395 C 0.65437 0.22901 0.62822
 C1396 C 0.65243 0.24746 0.65658
 C1397 C 0.67877 0.20645 0.62324
 N1398 N 0.68126 0.19120 0.59482
 N1399 N 0.66074 0.19667 0.57117
 C1400 C 0.63567 0.21684 0.57479
 H1401 H 0.62342 0.28120 0.68280
 H1402 H 0.58056 0.28347 0.64352
 H1403 H 0.69530 0.20005 0.64189
 H1404 H 0.62002 0.22052 0.55461
 C1405 C 0.86274 0.22044 0.15373
 C1406 C 0.88607 0.21982 0.12998
 C1407 C 0.88737 0.24376 0.10664
 C1408 C 0.86432 0.26855 0.10698
 C1409 C 0.84089 0.26950 0.13144
 C1410 C 0.83989 0.24492 0.15475
 C1411 C 0.81985 0.29571 0.13221
 N1412 N 0.82121 0.31834 0.10909
 N1413 N 0.84235 0.31671 0.08540
 C1414 C 0.86394 0.29264 0.08355
 H1415 H 0.86228 0.20143 0.17128
 H1416 H 0.90369 0.20085 0.13019
 H1417 H 0.80275 0.29882 0.15123
 H1418 H 0.88050 0.29252 0.06375
 C1419 C 0.36575 0.74608 0.65618
 C1420 C 0.39036 0.74786 0.63407
 C1421 C 0.38453 0.74414 0.60146
 C1422 C 0.35289 0.73864 0.59088
 C1423 C 0.32757 0.73552 0.61348
 C1424 C 0.33406 0.74001 0.64686
 C1425 C 0.29713 0.72745 0.60136
 N1426 N 0.29229 0.72492 0.56946
 N1427 N 0.31564 0.72969 0.54852
 C1428 C 0.34569 0.73653 0.55811
 H1429 H 0.37186 0.74969 0.68104
 H1430 H 0.41442 0.75205 0.64262
 H1431 H 0.27707 0.72200 0.61627
 H1432 H 0.36359 0.74042 0.53995
 C1433 C 0.22761 0.13846 0.85799
 C1434 C 0.22554 0.11375 0.88005
 C1435 C 0.24808 0.11069 0.90453
 C1436 C 0.27258 0.13379 0.90750
 C1437 C 0.27497 0.15883 0.88475
 C1438 C 0.25221 0.16103 0.85973
 C1439 C 0.30071 0.18015 0.88739
 N1440 N 0.32159 0.17737 0.91201
 N1441 N 0.31863 0.15459 0.93399
 C1442 C 0.29488 0.13272 0.93259
 H1443 H 0.20982 0.13992 0.83923
 H1444 H 0.20667 0.09630 0.87745
 H1445 H 0.30478 0.19871 0.87001
 H1446 H 0.29356 0.11483 0.95117
 C1447 C 0.77176 0.65205 0.36977
 C1448 C 0.77080 0.62638 0.39095
 C1449 C 0.74331 0.60751 0.39385
 C1450 C 0.71601 0.61506 0.37514
 C1451 C 0.71678 0.64171 0.35426
 C1452 C 0.74524 0.65960 0.35090
 C1453 C 0.68874 0.64985 0.33761
 N1454 N 0.66230 0.63150 0.34054
 N1455 N 0.66206 0.60552 0.35883
 C1456 C 0.68801 0.59654 0.37602
 H1457 H 0.79356 0.66575 0.36764
 H1458 H 0.79180 0.62105 0.40512
 H1459 H 0.68750 0.67077 0.32253
 H1460 H 0.68643 0.57494 0.39000
 C1461 C 0.72522 0.12386 0.14607
 C1462 C 0.72686 0.10085 0.12217
 C1463 C 0.75077 0.10205 0.09885
 C1464 C 0.77338 0.12713 0.09945
 C1465 C 0.77209 0.15023 0.12414
 C1466 C 0.74733 0.14888 0.14727
 C1467 C 0.79623 0.17345 0.12521
 N1468 N 0.81888 0.17451 0.10211
 N1469 N 0.81920 0.15372 0.07811
 C1470 C 0.79724 0.13012 0.07596
 H1471 H 0.70633 0.12227 0.16368
 H1472 H 0.70935 0.08185 0.12188
 H1473 H 0.79764 0.19040 0.14438
 H1474 H 0.79866 0.11401 0.05587
 C1475 C 0.21771 0.62374 0.64278
 C1476 C 0.21945 0.60026 0.61931
 C1477 C 0.24717 0.59627 0.60094
 C1478 C 0.27374 0.61651 0.60642
 C1479 C 0.27214 0.63991 0.63080
 C1480 C 0.24360 0.64395 0.64849
 C1481 C 0.29954 0.65816 0.63713
 N1482 N 0.32613 0.65430 0.61908
 N1483 N 0.32714 0.63345 0.59516
 C1484 C 0.30186 0.61457 0.58809
 H1485 H 0.19592 0.62627 0.65650
 H1486 H 0.19893 0.58506 0.61540
 H1487 H 0.30012 0.67526 0.65638
 H1488 H 0.30405 0.59838 0.56817
 C1489 C 0.77862 0.86855 0.84242
 C1490 C 0.77933 0.89203 0.86595
 C1491 C 0.76020 0.88959 0.89328
 C1492 C 0.74021 0.86251 0.89703
 C1493 C 0.73839 0.83936 0.87236
 C1494 C 0.75855 0.84193 0.84520
 C1495 C 0.71568 0.81487 0.87548
 N1496 N 0.69818 0.81222 0.90257
 N1497 N 0.70158 0.83261 0.92666
 C1498 C 0.72201 0.85757 0.92487
 H1499 H 0.79406 0.87113 0.82186
 H1500 H 0.79478 0.91247 0.86267
 H1501 H 0.71105 0.79825 0.85646
 H1502 H 0.72390 0.87313 0.94533
 C1503 C 0.27869 0.36840 0.33879
 C1504 C 0.27848 0.39126 0.36305
 C1505 C 0.25946 0.38732 0.39034
 C1506 C 0.24052 0.35939 0.39321
 C1507 C 0.23905 0.33731 0.36757
 C1508 C 0.25938 0.34114 0.34065
 C1509 C 0.21651 0.31253 0.36955
 N1510 N 0.19939 0.30819 0.39667
 N1511 N 0.20297 0.32719 0.42183
 C1512 C 0.22299 0.35253 0.42109
 H1513 H 0.29427 0.37199 0.31845
 H1514 H 0.29316 0.41235 0.36038
 H1515 H 0.21161 0.29713 0.34960
 H1516 H 0.22510 0.36687 0.44240
 C1517 C 0.23030 0.84390 0.12744
 C1518 C 0.22715 0.86649 0.10323
 C1519 C 0.24518 0.89454 0.10366
 C1520 C 0.26643 0.90017 0.12942
 C1521 C 0.27068 0.87655 0.15337
 C1522 C 0.25183 0.84840 0.15275
 C1523 C 0.29434 0.88176 0.17662
 N1524 N 0.31061 0.90967 0.17728
 N1525 N 0.30508 0.93267 0.15605
 C1526 C 0.28355 0.92892 0.13221
 H1527 H 0.21545 0.82278 0.12652
 H1528 H 0.21066 0.86194 0.08383
 H1529 H 0.30067 0.86378 0.19378
 H1530 H 0.27995 0.94854 0.11583
 C1531 C 0.75950 0.37397 0.64870
 C1532 C 0.75922 0.39633 0.62415
 C1533 C 0.74149 0.39120 0.59625
 C1534 C 0.72335 0.36282 0.59327
 C1535 C 0.72262 0.34054 0.61887
 C1536 C 0.74179 0.34574 0.64644
 C1537 C 0.70205 0.31418 0.61613
 N1538 N 0.68536 0.30933 0.58883
 N1539 N 0.68764 0.32918 0.56411
 C1540 C 0.70610 0.35566 0.56534
 H1541 H 0.77418 0.37858 0.66950
 H1542 H 0.77302 0.41799 0.62701
 H1543 H 0.69848 0.29777 0.63554
 H1544 H 0.70719 0.37072 0.54441
 C1545 C 0.15105 0.13548 0.74663
 C1546 C 0.12770 0.11195 0.74590
 C1547 C 0.10321 0.11134 0.76866
 C1548 C 0.10227 0.13515 0.79270
 C1549 C 0.12637 0.15890 0.79372
 C1550 C 0.15061 0.15927 0.77006
 C1551 C 0.12572 0.18105 0.81892
 N1552 N 0.10171 0.18029 0.84062
 N1553 N 0.07840 0.15881 0.83890
 C1554 C 0.07780 0.13628 0.81569
 H1555 H 0.16944 0.13535 0.72842
 H1556 H 0.12892 0.09381 0.72752
 H1557 H 0.14424 0.19863 0.82185
 H1558 H 0.05816 0.11960 0.81539
 C1559 C 0.65500 0.63430 0.26326
 C1560 C 0.63240 0.61016 0.26493
 C1561 C 0.60018 0.61633 0.25875
 C1562 C 0.59056 0.64774 0.25069
 C1563 C 0.61381 0.67227 0.24739
 C1564 C 0.64649 0.66571 0.25499
 C1565 C 0.60320 0.70206 0.23578
 N1566 N 0.57167 0.70751 0.23082
 N1567 N 0.54984 0.68517 0.23623
 C1568 C 0.55818 0.65552 0.24601
 H1569 H 0.67949 0.62820 0.26894
 H1570 H 0.64026 0.58625 0.27095
 H1571 H 0.61929 0.72092 0.22955
 H1572 H 0.53937 0.63839 0.25014
 C1573 C 0.13985 0.86335 0.27699
 C1574 C 0.11831 0.88867 0.27671
 C1575 C 0.11543 0.90877 0.24989
 C1576 C 0.13691 0.90437 0.22384
 C1577 C 0.15860 0.87836 0.22411
 C1578 C 0.15981 0.85770 0.25089
 C1579 C 0.17818 0.87363 0.19720
 N1580 N 0.17760 0.89482 0.17275
 N1581 N 0.15877 0.92041 0.17338
 C1582 C 0.13866 0.92606 0.19811
 H1583 H 0.14085 0.84789 0.29773
 H1584 H 0.10239 0.89120 0.29695
 H1585 H 0.19372 0.85318 0.19525
 H1586 H 0.12469 0.94776 0.19766
 C1587 C 0.62755 0.34725 0.73717
 C1588 C 0.60477 0.37153 0.73622
 C1589 C 0.60940 0.40023 0.75286
 C1590 C 0.63764 0.40421 0.77110
 C1591 C 0.65966 0.37862 0.77387
 C1592 C 0.65536 0.35051 0.75543
 C1593 C 0.68498 0.38188 0.79568
 N1594 N 0.68980 0.41000 0.81087
 N1595 N 0.67075 0.43499 0.80600
 C1596 C 0.64494 0.43312 0.78657
 H1597 H 0.62363 0.32595 0.72311
 H1598 H 0.58326 0.36783 0.72235
 H1599 H 0.70039 0.36211 0.80148
 H1600 H 0.63056 0.45430 0.78332
 C1601 C 0.86790 0.14890 0.23525
 C1602 C 0.89319 0.12755 0.23333
 C1603 C 0.88911 0.09540 0.24105
 C1604 C 0.85846 0.08432 0.24993
 C1605 C 0.83272 0.10630 0.25343
 C1606 C 0.83747 0.13923 0.24561
 C1607 C 0.80366 0.09419 0.26535
 N1608 N 0.80012 0.06251 0.27082
 N1609 N 0.82369 0.04188 0.26557
 C1610 C 0.85268 0.05167 0.25529
 H1611 H 0.87246 0.17349 0.22873
 H1612 H 0.91645 0.13644 0.22635
 H1613 H 0.78374 0.10911 0.27111
 H1614 H 0.87085 0.03379 0.25120
 C1615 C 0.36310 0.64396 0.76508
 C1616 C 0.38824 0.62228 0.76598
 C1617 C 0.38897 0.59617 0.74526
 C1618 C 0.36344 0.59137 0.72362
 C1619 C 0.33766 0.61343 0.72270
 C1620 C 0.33764 0.64007 0.74368
 C1621 C 0.31333 0.60836 0.70012
 N1622 N 0.31445 0.58263 0.68055
 N1623 N 0.33829 0.56161 0.68194
 C1624 C 0.36278 0.56506 0.70281
 H1625 H 0.36352 0.66403 0.78136
 H1626 H 0.40768 0.62627 0.78257
 H1627 H 0.29359 0.62463 0.69749
 H1628 H 0.38144 0.54718 0.70299
 C1629 C 0.85525 0.87137 0.76489
 C1630 C 0.87872 0.89472 0.76685
 C1631 C 0.90559 0.89376 0.74694
 C1632 C 0.90892 0.86848 0.72474
 C1633 C 0.88435 0.84543 0.72180
 C1634 C 0.85770 0.84646 0.74277
 C1635 C 0.88701 0.82263 0.69730
 N1636 N 0.91361 0.82154 0.67888
 N1637 N 0.93759 0.84189 0.68306
 C1638 C 0.93620 0.86526 0.70536
 H1639 H 0.83514 0.87259 0.78107
 H1640 H 0.87569 0.91395 0.78386
 H1641 H 0.86800 0.80616 0.69205
 H1642 H 0.95649 0.88096 0.70780
 C1643 C 0.35528 0.37265 0.25427
 C1644 C 0.37779 0.39663 0.25788
 C1645 C 0.40989 0.39134 0.25034
 C1646 C 0.41950 0.36095 0.23914
 C1647 C 0.39623 0.33700 0.23321
 C1648 C 0.36366 0.34258 0.24202
 C1649 C 0.40676 0.30881 0.21808
 N1650 N 0.43829 0.30384 0.21265
 N1651 N 0.46018 0.32528 0.22077
 C1652 C 0.45188 0.35362 0.23383
 H1653 H 0.33093 0.37787 0.26132
 H1654 H 0.36995 0.41975 0.26643
 H1655 H 0.39066 0.29092 0.20951
 H1656 H 0.47072 0.37006 0.24007
   
