data_POSCAR
  _audit_creation_date              2014-09-24
  _audit_creation_method            'ToBaCCo'
  _symmetry_space_group_name_H-M    'P1'
  _symmetry_Int_Tables_number       1
  _symmetry_cell_setting            triclinic
  loop_
  _symmetry_equiv_pos_as_xyz
 x,y,z
_cell_length_a 72.4225
_cell_length_b 72.6007
_cell_length_c 72.3182
_cell_angle_alpha 90.133200
_cell_angle_beta 90.047400
_cell_angle_gamma 89.997700
loop_
  _atom_site_label
  _atom_site_type_symbol
  _atom_site_fract_x
  _atom_site_fract_y
  _atom_site_fract_z
N1 N 0.17926 0.22235 0.22698
 N2 N 0.18390 0.20747 0.23620
 C3 C 0.17181 0.20492 0.25008
 C4 C 0.15892 0.21898 0.24961
 C5 C 0.16412 0.22985 0.23479
 H6 H 0.17235 0.19370 0.25986
 H7 H 0.15714 0.24200 0.22974
 Cu8 Cu 0.20512 0.19271 0.22902
 Cu9 Cu 0.19268 0.23033 0.20503
 Cu10 Cu 0.23032 0.20379 0.19177
 N11 N 0.22664 0.17836 0.22189
 N12 N 0.23623 0.18255 0.20708
 C13 C 0.25011 0.17037 0.20510
 C14 C 0.24925 0.15790 0.21954
 C15 C 0.23417 0.16343 0.22993
 H16 H 0.26026 0.17075 0.19416
 H17 H 0.22899 0.15692 0.24231
 N18 N 0.22221 0.22582 0.17813
 N19 N 0.20801 0.23602 0.18322
 C20 C 0.20609 0.25001 0.17117
 C21 C 0.21973 0.24856 0.15781
 C22 C 0.22968 0.23304 0.16273
 H23 H 0.19540 0.26036 0.17193
 H24 H 0.24161 0.22749 0.15571
 H25 H 0.20236 0.20461 0.19765
 H26 H 0.21777 0.21903 0.21247
 N27 N 0.67805 0.72404 0.72544
 N28 N 0.68248 0.70917 0.73476
 C29 C 0.67036 0.70697 0.74872
 C30 C 0.65777 0.72133 0.74815
 C31 C 0.66311 0.73187 0.73318
 H32 H 0.67085 0.69598 0.75876
 H33 H 0.65651 0.74425 0.72816
 Cu34 Cu 0.70400 0.69459 0.72792
 Cu35 Cu 0.69183 0.73216 0.70390
 Cu36 Cu 0.73036 0.70666 0.69152
 N37 N 0.72558 0.68029 0.72076
 N38 N 0.73594 0.68517 0.70669
 C39 C 0.74988 0.67302 0.70486
 C40 C 0.74816 0.65975 0.71849
 C41 C 0.73256 0.66486 0.72832
 H42 H 0.76031 0.67367 0.69419
 H43 H 0.72681 0.65796 0.74022
 N44 N 0.72231 0.72883 0.67794
 N45 N 0.70743 0.73828 0.68254
 C46 C 0.70504 0.75205 0.67037
 C47 C 0.71909 0.75134 0.65746
 C48 C 0.72985 0.73648 0.66273
 H49 H 0.69390 0.76194 0.67086
 H50 H 0.74199 0.73136 0.65572
 H51 H 0.70236 0.70658 0.69652
 H52 H 0.71699 0.72116 0.71201
 N53 N 0.32141 0.77879 0.72665
 N54 N 0.31662 0.79407 0.73518
 C55 C 0.32849 0.79720 0.74920
 C56 C 0.34138 0.78309 0.74949
 C57 C 0.33642 0.77167 0.73495
 H58 H 0.32765 0.80868 0.75870
 H59 H 0.34330 0.75918 0.73061
 Cu60 Cu 0.29489 0.80782 0.72741
 Cu61 Cu 0.30795 0.76928 0.70531
 Cu62 Cu 0.26911 0.79369 0.69152
 N63 N 0.27318 0.82158 0.71957
 N64 N 0.26282 0.81557 0.70591
 C65 C 0.24837 0.82699 0.70372
 C66 C 0.24970 0.84114 0.71665
 C67 C 0.26574 0.83716 0.72644
 H68 H 0.23789 0.82519 0.69324
 H69 H 0.27142 0.84476 0.73798
 N70 N 0.27780 0.77127 0.67874
 N71 N 0.29252 0.76195 0.68405
 C72 C 0.29494 0.74753 0.67256
 C73 C 0.28112 0.74777 0.65931
 C74 C 0.27052 0.76305 0.66369
 H75 H 0.30613 0.73775 0.67356
 H76 H 0.25833 0.76777 0.65651
 H77 H 0.29718 0.79419 0.69668
 H78 H 0.28265 0.78016 0.71262
 N79 N 0.82145 0.27880 0.22702
 N80 N 0.81576 0.29270 0.23717
 C81 C 0.82717 0.29475 0.25172
 C82 C 0.84097 0.28149 0.25065
 C83 C 0.83680 0.27163 0.23467
 H84 H 0.82566 0.30538 0.26207
 H85 H 0.84417 0.25996 0.22902
 Cu86 Cu 0.79432 0.30711 0.22998
 Cu87 Cu 0.80834 0.27089 0.20476
 Cu88 Cu 0.77007 0.29679 0.19192
 N89 N 0.77295 0.32163 0.22278
 N90 N 0.76369 0.31767 0.20765
 C91 C 0.74988 0.32990 0.20558
 C92 C 0.75043 0.34217 0.22027
 C93 C 0.76526 0.33646 0.23091
 H94 H 0.74001 0.32970 0.19436
 H95 H 0.77023 0.34282 0.24349
 N96 N 0.77870 0.27516 0.17786
 N97 N 0.79315 0.26521 0.18276
 C98 C 0.79529 0.25137 0.17050
 C99 C 0.78158 0.25270 0.15720
 C100 C 0.77134 0.26796 0.16236
 H101 H 0.80615 0.24118 0.17109
 H102 H 0.75924 0.27329 0.15545
 H103 H 0.79796 0.29648 0.19821
 H104 H 0.78279 0.28108 0.21214
 N105 N 0.82122 0.72380 0.27332
 N106 N 0.81706 0.70878 0.26402
 C107 C 0.82924 0.70666 0.25009
 C108 C 0.84161 0.72122 0.25063
 C109 C 0.83606 0.73180 0.26557
 H110 H 0.82892 0.69560 0.24007
 H111 H 0.84244 0.74433 0.27055
 Cu112 Cu 0.79569 0.69397 0.27076
 Cu113 Cu 0.80722 0.73186 0.29486
 Cu114 Cu 0.76947 0.70527 0.30735
 N115 N 0.77447 0.67910 0.27785
 N116 N 0.76417 0.68378 0.29206
 C117 C 0.75033 0.67154 0.29383
 C118 C 0.75203 0.65840 0.28002
 C119 C 0.76755 0.66366 0.27015
 H120 H 0.73994 0.67207 0.30454
 H121 H 0.77323 0.65688 0.25810
 N122 N 0.77709 0.72750 0.32107
 N123 N 0.79137 0.73769 0.31625
 C124 C 0.79303 0.75178 0.32830
 C125 C 0.77915 0.75039 0.34138
 C126 C 0.76932 0.73481 0.33632
 H127 H 0.80376 0.76210 0.32777
 H128 H 0.75731 0.72926 0.34318
 H129 H 0.79752 0.70612 0.30215
 H130 H 0.78238 0.72033 0.28692
 N131 N 0.32224 0.22348 -0.22564
 N132 N 0.31860 0.20812 -0.23452
 C133 C 0.33117 0.20579 -0.24808
 C134 C 0.34324 0.22069 -0.24786
 C135 C 0.33702 0.23162 -0.23335
 H136 H 0.33111 0.19440 -0.25769
 H137 H 0.34290 0.24441 -0.22846
 Cu138 Cu 0.29709 0.19337 -0.22807
 Cu139 Cu 0.30787 0.23170 -0.20440
 Cu140 Cu 0.26960 0.20549 -0.19266
 N141 N 0.27555 0.17876 -0.22146
 N142 N 0.26476 0.18374 -0.20775
 C143 C 0.25080 0.17160 -0.20624
 C144 C 0.25291 0.15822 -0.21976
 C145 C 0.26880 0.16323 -0.22916
 H146 H 0.24005 0.17237 -0.19591
 H147 H 0.27487 0.15626 -0.24088
 N148 N 0.27690 0.22793 -0.17908
 N149 N 0.29166 0.23771 -0.18334
 C150 C 0.29333 0.25169 -0.17118
 C151 C 0.27886 0.25076 -0.15874
 C152 C 0.26870 0.23556 -0.16420
 H153 H 0.30417 0.26191 -0.17141
 H154 H 0.25646 0.23023 -0.15756
 H155 H 0.29778 0.20615 -0.19687
 H156 H 0.28325 0.22007 -0.21290
 N157 N 0.67942 0.27825 -0.22651
 N158 N 0.68365 0.29373 -0.23488
 C159 C 0.67148 0.29671 -0.24864
 C160 C 0.65901 0.28216 -0.24915
 C161 C 0.66462 0.27069 -0.23483
 H162 H 0.67205 0.30833 -0.25791
 H163 H 0.65826 0.25797 -0.23047
 Cu164 Cu 0.70532 0.30778 -0.22751
 Cu165 Cu 0.69314 0.26927 -0.20509
 Cu166 Cu 0.73183 0.29444 -0.19207
 N167 N 0.72713 0.32179 -0.22042
 N168 N 0.73753 0.31627 -0.20661
 C169 C 0.75191 0.32784 -0.20472
 C170 C 0.75053 0.34141 -0.21808
 C171 C 0.73457 0.33712 -0.22780
 H172 H 0.76251 0.32649 -0.19429
 H173 H 0.72900 0.34441 -0.23956
 N174 N 0.72373 0.27203 -0.17909
 N175 N 0.70886 0.26259 -0.18379
 C176 C 0.70685 0.24837 -0.17200
 C177 C 0.72123 0.24880 -0.15939
 C178 C 0.73164 0.26398 -0.16433
 H179 H 0.69589 0.23829 -0.17267
 H180 H 0.74394 0.26894 -0.15746
 H181 H 0.70364 0.29436 -0.19675
 H182 H 0.71812 0.28041 -0.21285
 N183 N 0.17863 0.77741 0.27454
 N184 N 0.18304 0.79232 0.26526
 C185 C 0.17093 0.79451 0.25126
 C186 C 0.15837 0.78011 0.25176
 C187 C 0.16372 0.76956 0.26674
 H188 H 0.17148 0.80546 0.24115
 H189 H 0.15722 0.75710 0.27165
 Cu190 Cu 0.20479 0.80674 0.27191
 Cu191 Cu 0.19261 0.76891 0.29585
 Cu192 Cu 0.23172 0.79373 0.30746
 N193 N 0.22664 0.82083 0.27896
 N194 N 0.23735 0.81519 0.29247
 C195 C 0.25178 0.82670 0.29414
 C196 C 0.25012 0.84054 0.28103
 C197 C 0.23386 0.83631 0.27165
 H198 H 0.26245 0.82515 0.30445
 H199 H 0.22788 0.84367 0.26014
 N200 N 0.22370 0.77172 0.32108
 N201 N 0.20856 0.76248 0.31693
 C202 C 0.20653 0.74858 0.32907
 C203 C 0.22117 0.74902 0.34138
 C204 C 0.23177 0.76386 0.33586
 H205 H 0.19537 0.73871 0.32885
 H206 H 0.24428 0.76878 0.34238
 H207 H 0.20349 0.79422 0.30312
 H208 H 0.21749 0.77959 0.28712
 N209 N 0.47255 0.42763 0.47716
 N210 N 0.45779 0.43270 0.48643
 C211 C 0.45508 0.42088 0.50049
 C212 C 0.46893 0.40773 0.50008
 C213 C 0.47979 0.41249 0.48508
 H214 H 0.44401 0.42189 0.51045
 H215 H 0.49190 0.40533 0.48010
 Cu216 Cu 0.44375 0.45438 0.47931
 Cu217 Cu 0.48106 0.44090 0.45536
 Cu218 Cu 0.45576 0.47935 0.44218
 N219 N 0.42965 0.47590 0.47186
 N220 N 0.43424 0.48550 0.45718
 C221 C 0.42222 0.49950 0.45512
 C222 C 0.40946 0.49872 0.46936
 C223 C 0.41463 0.48355 0.47970
 H224 H 0.42291 0.50969 0.44426
 H225 H 0.40786 0.47841 0.49196
 N226 N 0.47796 0.47086 0.42883
 N227 N 0.48743 0.45611 0.43372
 C228 C 0.50144 0.45368 0.42174
 C229 C 0.50087 0.46761 0.40872
 C230 C 0.48581 0.47826 0.41368
 H231 H 0.51147 0.44269 0.42252
 H232 H 0.48076 0.49033 0.40657
 H233 H 0.47055 0.46634 0.46285
 H234 H 0.45565 0.45150 0.44792
 N235 N -0.02681 -0.07203 0.97564
 N236 N -0.04078 -0.06670 0.98590
 C237 C -0.04300 -0.07877 0.99987
 C238 C -0.02970 -0.09241 0.99821
 C239 C -0.01968 -0.08763 0.98265
 H240 H -0.05363 -0.07783 1.01030
 H241 H -0.00793 -0.09482 0.97693
 Cu242 Cu -0.05481 -0.04465 0.97982
 Cu243 Cu -0.01876 -0.05839 0.95402
 Cu244 Cu -0.04346 -0.01918 0.94256
 N245 N -0.06910 -0.02313 0.97259
 N246 N -0.06455 -0.01318 0.95815
 C247 C -0.07677 0.00067 0.95626
 C248 C -0.08977 -0.00066 0.97026
 C249 C -0.08440 -0.01597 0.98035
 H250 H -0.07636 0.01074 0.94529
 H251 H -0.09110 -0.02149 0.99248
 N252 N -0.02171 -0.02765 0.92849
 N253 N -0.01261 -0.04282 0.93269
 C254 C 0.00100 -0.04535 0.92029
 C255 C 0.00055 -0.03106 0.90770
 C256 C -0.01400 -0.02004 0.91336
 H257 H 0.01068 -0.05667 0.92049
 H258 H -0.01883 -0.00763 0.90670
 H259 H -0.02845 -0.03286 0.96248
 H260 H -0.04433 -0.04704 0.94787
 N261 N 1.02799 0.57285 0.97475
 N262 N 1.04188 0.56764 0.98520
 C263 C 1.04298 0.57888 0.99999
 C264 C 1.02898 0.59183 0.99875
 C265 C 1.01972 0.58754 0.98254
 H266 H 1.05320 0.57776 1.01083
 H267 H 1.00816 0.59483 0.97656
 Cu268 Cu 1.05764 0.54715 0.97803
 Cu269 Cu 1.02262 0.56096 0.95119
 Cu270 Cu 1.04145 0.51726 0.94648
 N271 N 1.07137 0.52512 0.97131
 N272 N 1.06498 0.51346 0.95896
 C273 C 1.07677 0.49922 0.95738
 C274 C 1.09146 0.50208 0.96939
 C275 C 1.08748 0.51872 0.97800
 H276 H 1.07466 0.48767 0.94817
 H277 H 1.09550 0.52556 0.98857
 N278 N 1.02140 0.52657 0.93060
 N279 N 1.01455 0.54334 0.93213
 C280 C 1.00152 0.54575 0.91908
 C281 C 1.00010 0.52972 0.90873
 C282 C 1.01295 0.51787 0.91647
 H283 H 0.99351 0.55819 0.91743
 H284 H 1.01622 0.50405 0.91194
 H285 H 1.02892 0.53690 0.96366
 H286 H 1.04623 0.54481 0.94631
 N287 N 0.52645 0.07285 0.47618
 N288 N 0.54135 0.06832 0.48549
 C289 C 0.54353 0.08020 0.49967
 C290 C 0.52912 0.09275 0.49927
 C291 C 0.51857 0.08764 0.48415
 H292 H 0.55454 0.07958 0.50975
 H293 H 0.50612 0.09422 0.47924
 Cu294 Cu 0.55616 0.04713 0.47826
 Cu295 Cu 0.51815 0.05924 0.45454
 Cu296 Cu 0.54225 0.01949 0.44358
 N297 N 0.57061 0.02584 0.47062
 N298 N 0.56518 0.01512 0.45700
 C299 C 0.57746 0.00136 0.45483
 C300 C 0.59143 0.00355 0.46779
 C301 C 0.58656 0.01928 0.47755
 H302 H 0.57624 -0.00941 0.44456
 H303 H 0.59390 0.02536 0.48905
 N304 N 0.52103 0.02838 0.42897
 N305 N 0.51190 0.04353 0.43325
 C306 C 0.49807 0.04587 0.42107
 C307 C 0.49845 0.03155 0.40843
 C308 C 0.51328 0.02075 0.41382
 H309 H 0.48844 0.05724 0.42133
 H310 H 0.51788 0.00811 0.40739
 H311 H 0.52838 0.03463 0.46375
 H312 H 0.54335 0.04757 0.44723
 N313 N -0.02797 0.07249 0.52402
 N314 N -0.04204 0.06701 0.51394
 C315 C -0.04454 0.07905 0.49997
 C316 C -0.03132 0.09283 0.50146
 C317 C -0.02107 0.08811 0.51690
 H318 H -0.05529 0.07800 0.48964
 H319 H -0.00930 0.09539 0.52248
 Cu320 Cu -0.05572 0.04475 0.52038
 Cu321 Cu -0.01941 0.05917 0.54565
 Cu322 Cu -0.04358 0.02001 0.55788
 N323 N -0.06972 0.02312 0.52810
 N324 N -0.06478 0.01360 0.54272
 C325 C -0.07654 -0.00051 0.54503
 C326 C -0.08968 0.00004 0.53111
 C327 C -0.08488 0.01531 0.52061
 H328 H -0.07553 -0.01039 0.55613
 H329 H -0.09184 0.02037 0.50842
 N330 N -0.02177 0.02875 0.57153
 N331 N -0.01278 0.04389 0.56705
 C332 C 0.00103 0.04655 0.57924
 C333 C 0.00078 0.03236 0.59195
 C334 C -0.01383 0.02129 0.58661
 H335 H 0.01068 0.05789 0.57881
 H336 H -0.01854 0.00894 0.59345
 H337 H -0.02899 0.03352 0.53755
 H338 H -0.04482 0.04780 0.55213
 N339 N 0.47109 0.57259 0.02302
 N340 N 0.45682 0.56712 0.01321
 C341 C 0.45442 0.57873 -0.00107
 C342 C 0.46792 0.59222 -0.00022
 C343 C 0.47824 0.58787 0.01532
 H344 H 0.44355 0.57754 -0.01125
 H345 H 0.49027 0.59505 0.02047
 Cu346 Cu 0.44283 0.54526 0.01985
 Cu347 Cu 0.47946 0.55925 0.04478
 Cu348 Cu 0.45477 0.52024 0.05715
 N349 N 0.42859 0.52394 0.02757
 N350 N 0.43342 0.51402 0.04195
 C351 C 0.42122 0.50018 0.04408
 C352 C 0.40796 0.50153 0.03031
 C353 C 0.41313 0.51681 0.02011
 H354 H 0.42180 0.49010 0.05504
 H355 H 0.40619 0.52229 0.00809
 N356 N 0.47673 0.52885 0.07079
 N357 N 0.48585 0.54393 0.06629
 C358 C 0.49965 0.54652 0.07850
 C359 C 0.49927 0.53239 0.09128
 C360 C 0.48459 0.52140 0.08592
 H361 H 0.50939 0.55779 0.07805
 H362 H 0.47976 0.50910 0.09279
 H363 H 0.46952 0.53373 0.03687
 H364 H 0.45397 0.54815 0.05155
 N365 N 0.52935 -0.07088 0.02305
 N366 N 0.54406 -0.06583 0.01371
 C367 C 0.54681 -0.07780 -0.00027
 C368 C 0.53301 -0.09099 0.00023
 C369 C 0.52216 -0.08612 0.01523
 H370 H 0.55788 -0.07686 -0.01024
 H371 H 0.51007 -0.09327 0.02025
 Cu372 Cu 0.55810 -0.04401 0.02057
 Cu373 Cu 0.52072 -0.05750 0.04476
 Cu374 Cu 0.54605 -0.01916 0.05791
 N375 N 0.57237 -0.02265 0.02843
 N376 N 0.56768 -0.01319 0.04321
 C377 C 0.57993 0.00048 0.04587
 C378 C 0.59300 -0.00035 0.03195
 C379 C 0.58774 -0.01519 0.02109
 H380 H 0.57926 0.01042 0.05700
 H381 H 0.59478 -0.02034 0.00896
 N382 N 0.52377 -0.02733 0.07108
 N383 N 0.51426 -0.04211 0.06631
 C384 C 0.50010 -0.04419 0.07820
 C385 C 0.50066 -0.02996 0.09096
 C386 C 0.51584 -0.01955 0.08599
 H387 H 0.48995 -0.05509 0.07749
 H388 H 0.52087 -0.00734 0.09292
 H389 H 0.53124 -0.03225 0.03716
 H390 H 0.54625 -0.04710 0.05195
 N391 N 1.02704 0.42826 0.52368
 N392 N 1.04195 0.43276 0.51437
 C393 C 1.04423 0.42071 0.50035
 C394 C 1.02989 0.40809 0.50082
 C395 C 1.01927 0.41334 0.51584
 H396 H 1.05521 0.42132 0.49026
 H397 H 1.00682 0.40676 0.52075
 Cu398 Cu 1.05642 0.45439 0.52110
 Cu399 Cu 1.01855 0.44209 0.54515
 Cu400 Cu 1.04387 0.48069 0.55728
 N401 N 1.07055 0.47612 0.52824
 N402 N 1.06541 0.48630 0.54236
 C403 C 1.07717 0.50048 0.54431
 C404 C 1.09050 0.49925 0.53065
 C405 C 1.08585 0.48355 0.52069
 H406 H 1.07613 0.51083 0.55501
 H407 H 1.09292 0.47808 0.50873
 N408 N 1.02169 0.47281 0.57076
 N409 N 1.01221 0.45790 0.56641
 C410 C 0.99811 0.45607 0.57842
 C411 C 0.99869 0.47062 0.59081
 C412 C 1.01380 0.48094 0.58551
 H413 H 0.98799 0.44514 0.57803
 H414 H 1.01882 0.49334 0.59212
 H415 H 1.02939 0.46696 0.53677
 H416 H 1.04403 0.45258 0.55238
 C417 C 0.40424 0.00636 0.22666
 H418 H 0.40638 0.01727 0.23665
 C419 C 0.41658 0.00415 0.21201
 H420 H 0.42832 0.01332 0.21108
 C421 C 0.38675 -0.01926 0.21645
 H422 H 0.37530 -0.02856 0.21829
 C423 C 0.39854 -0.02175 0.20138
 H424 H 0.39556 -0.03267 0.19162
 N425 N 0.38959 -0.00518 0.22856
 C426 C 0.34383 0.02179 0.25617
 H427 H 0.34104 0.01161 0.26670
 C428 C 0.33195 0.03676 0.25398
 H429 H 0.31988 0.03773 0.26273
 C430 C 0.36268 0.03231 0.23161
 H431 H 0.37467 0.03050 0.22292
 C432 C 0.35133 0.04768 0.22913
 H433 H 0.35496 0.05769 0.21869
 Zn434 Zn 0.37384 -0.00105 0.24909
 N435 N 0.35880 0.01982 0.24503
 C436 C 0.38835 0.01952 0.27901
 N437 N 0.38907 0.00309 0.26998
 C438 C 0.40115 -0.01027 0.27517
 C439 C 0.41273 -0.00760 0.29040
 C440 C 0.39990 0.02289 0.29410
 C441 C 0.34560 -0.02629 0.23990
 C442 C 0.33389 -0.04137 0.24243
 C443 C 0.34681 -0.04538 0.27294
 C444 C 0.35848 -0.03046 0.26969
 N445 N 0.35797 -0.02147 0.25323
 H446 H 0.37898 0.03013 0.27439
 H447 H 0.40162 -0.02311 0.26757
 H448 H 0.42179 -0.01868 0.29461
 H449 H 0.39931 0.03623 0.30079
 H450 H 0.34498 -0.01851 0.22717
 H451 H 0.32471 -0.04534 0.23131
 H452 H 0.34735 -0.05210 0.28627
 H453 H 0.36777 -0.02598 0.28046
 C454 C 0.33565 0.05006 0.24037
 C455 C 0.41375 -0.00997 0.19896
 C456 C 0.33448 -0.05129 0.25911
 C457 C 0.41222 0.00919 0.30013
 C458 C 0.09692 -0.00698 0.72652
 H459 H 0.09500 -0.01856 0.73571
 C460 C 0.08448 -0.00397 0.71207
 H461 H 0.07288 -0.01322 0.71048
 C462 C 0.11392 0.01962 0.71826
 H463 H 0.12519 0.02899 0.72082
 C464 C 0.10207 0.02292 0.70342
 H465 H 0.10482 0.03456 0.69452
 N466 N 0.11128 0.00476 0.72935
 C467 C 0.15479 -0.02547 0.75792
 H468 H 0.15602 -0.01754 0.77055
 C469 C 0.16619 -0.04070 0.75502
 H470 H 0.17577 -0.04460 0.76580
 C471 C 0.14041 -0.03000 0.72885
 H472 H 0.13047 -0.02566 0.71860
 C473 C 0.15181 -0.04508 0.72519
 H474 H 0.15054 -0.05201 0.71199
 Zn475 Zn 0.12693 0.00017 0.74984
 N476 N 0.14195 -0.02066 0.74509
 C477 C 0.11394 -0.01875 0.78173
 N478 N 0.11156 -0.00382 0.77067
 C479 C 0.09751 0.00826 0.77365
 C480 C 0.08507 0.00546 0.78813
 C481 C 0.10210 -0.02183 0.79661
 C482 C 0.15569 0.02422 0.74092
 C483 C 0.16792 0.03888 0.74328
 C484 C 0.15413 0.04490 0.77309
 C485 C 0.14195 0.03028 0.77001
 N486 N 0.14285 0.02039 0.75405
 H487 H 0.12493 -0.02839 0.77906
 H488 H 0.09576 0.01989 0.76448
 H489 H 0.07366 0.01494 0.78978
 H490 H 0.10465 -0.03358 0.80543
 H491 H 0.15630 0.01593 0.72848
 H492 H 0.17761 0.04197 0.73234
 H493 H 0.15338 0.05233 0.78606
 H494 H 0.13190 0.02675 0.78046
 C495 C 0.16486 -0.05079 0.73843
 C496 C 0.08697 0.01116 0.70021
 C497 C 0.16732 0.04946 0.75958
 C498 C 0.08723 -0.00980 0.79989
 C499 C 0.59483 0.49354 0.22660
 H500 H 0.59251 0.48237 0.23621
 C501 C 0.58245 0.49646 0.21207
 H502 H 0.57055 0.48754 0.21077
 C503 C 0.61265 0.51926 0.21740
 H504 H 0.62421 0.52835 0.21961
 C505 C 0.60084 0.52248 0.20252
 H506 H 0.60391 0.53375 0.19325
 N507 N 0.60959 0.50489 0.22902
 C508 C 0.65611 0.47874 0.25597
 H509 H 0.65936 0.48942 0.26591
 C510 C 0.66806 0.46385 0.25371
 H511 H 0.68063 0.46338 0.26181
 C512 C 0.63599 0.46685 0.23302
 H513 H 0.62350 0.46810 0.22496
 C514 C 0.64749 0.45159 0.23043
 H515 H 0.64350 0.44110 0.22055
 Zn516 Zn 0.62528 0.50085 0.24968
 N517 N 0.64042 0.47997 0.24572
 C518 C 0.61486 0.48384 0.28326
 N519 N 0.61032 0.49707 0.27079
 C520 C 0.59476 0.50736 0.27280
 C521 C 0.58283 0.50425 0.28764
 C522 C 0.60349 0.48047 0.29845
 C523 C 0.65414 0.52494 0.24058
 C524 C 0.66644 0.53954 0.24302
 C525 C 0.65217 0.54595 0.27252
 C526 C 0.63992 0.53141 0.26935
 N527 N 0.64106 0.52131 0.25353
 H528 H 0.62731 0.47585 0.28145
 H529 H 0.59144 0.51774 0.26263
 H530 H 0.57023 0.51220 0.28857
 H531 H 0.60759 0.47008 0.30834
 H532 H 0.65499 0.51645 0.22829
 H533 H 0.67635 0.54243 0.23222
 H534 H 0.65126 0.55347 0.28542
 H535 H 0.62967 0.52804 0.27965
 C536 C 0.66379 0.44992 0.24087
 C537 C 0.58536 0.51113 0.19974
 C538 C 0.66566 0.55027 0.25922
 C539 C 0.58707 0.49057 0.30072
 C540 C 0.90274 0.50958 0.72615
 H541 H 0.90469 0.52090 0.73571
 C542 C 0.91480 0.50732 0.71126
 H543 H 0.92615 0.51689 0.70972
 C544 C 0.88606 0.48293 0.71731
 H545 H 0.87505 0.47326 0.71981
 C546 C 0.89753 0.48039 0.70202
 H547 H 0.89472 0.46902 0.69273
 N548 N 0.88869 0.49748 0.72889
 C549 C 0.84533 0.52627 0.75921
 H550 H 0.84472 0.51820 0.77176
 C551 C 0.83325 0.54105 0.75675
 H552 H 0.82370 0.54446 0.76775
 C553 C 0.85873 0.53155 0.72984
 H554 H 0.86852 0.52763 0.71927
 C555 C 0.84671 0.54626 0.72667
 H556 H 0.84735 0.55336 0.71355
 Zn557 Zn 0.87347 0.50139 0.74987
 N558 N 0.85791 0.52197 0.74596
 C559 C 0.88716 0.51991 0.78202
 N560 N 0.88928 0.50526 0.77046
 C561 C 0.90312 0.49288 0.77302
 C562 C 0.91542 0.49486 0.78777
 C563 C 0.89894 0.52224 0.79714
 C564 C 0.84523 0.47619 0.74129
 C565 C 0.83381 0.46091 0.74386
 C566 C 0.84836 0.45588 0.77348
 C567 C 0.85971 0.47106 0.77019
 N568 N 0.85814 0.48071 0.75418
 H569 H 0.87629 0.52979 0.77965
 H570 H 0.90465 0.48147 0.76349
 H571 H 0.92654 0.48501 0.78923
 H572 H 0.89657 0.53370 0.80644
 H573 H 0.84399 0.48434 0.72885
 H574 H 0.82412 0.45723 0.73307
 H575 H 0.84970 0.44863 0.78647
 H576 H 0.86967 0.47517 0.78052
 C577 C 0.83374 0.55127 0.74026
 C578 C 0.91224 0.49261 0.69882
 C579 C 0.83530 0.45044 0.76014
 C580 C 0.91338 0.50965 0.80021
 C581 C 0.22304 0.40236 0.01065
 H582 H 0.23041 0.40210 0.02367
 C583 C 0.20820 0.41438 0.00826
 H584 H 0.20403 0.42303 0.01973
 C585 C 0.21955 0.39109 -0.01992
 H586 H 0.22426 0.38220 -0.03096
 C587 C 0.20481 0.40311 -0.02302
 H588 H 0.19840 0.40337 -0.03654
 N589 N 0.22831 0.39094 -0.00329
 C590 C 0.25953 0.34893 0.02630
 H591 H 0.27255 0.34962 0.01901
 C592 C 0.25737 0.33665 0.04096
 H593 H 0.26899 0.32822 0.04508
 C594 C 0.22871 0.35929 0.02974
 H595 H 0.21743 0.36781 0.02505
 C596 C 0.22587 0.34704 0.04433
 H597 H 0.21236 0.34634 0.05067
 Zn598 Zn 0.24925 0.37595 0.00073
 N599 N 0.24540 0.36014 0.02117
 C600 C 0.27861 0.39198 0.02156
 N601 N 0.26945 0.39201 0.00513
 C602 C 0.27386 0.40420 -0.00840
 C603 C 0.28855 0.41642 -0.00604
 C604 C 0.29325 0.40416 0.02461
 C605 C 0.24112 0.34696 -0.02307
 C606 C 0.24329 0.33481 -0.03790
 C607 C 0.27078 0.35138 -0.04675
 C608 C 0.26833 0.36294 -0.03147
 N609 N 0.25352 0.36071 -0.02015
 H610 H 0.27445 0.38274 0.03245
 H611 H 0.26602 0.40432 -0.02114
 H612 H 0.29214 0.42555 -0.01729
 H613 H 0.30012 0.40408 0.03791
 H614 H 0.22960 0.34533 -0.01371
 H615 H 0.23346 0.32371 -0.03954
 H616 H 0.28234 0.35390 -0.05586
 H617 H 0.27827 0.37368 -0.02879
 C618 C 0.24034 0.33554 0.05020
 C619 C 0.19894 0.41503 -0.00882
 C620 C 0.25821 0.33698 -0.05015
 C621 C 0.29854 0.41652 0.01064
 C622 C 0.72841 0.09445 -0.00677
 H623 H 0.73794 0.09211 -0.01804
 C624 C 0.71390 0.08214 -0.00377
 H625 H 0.71259 0.07024 -0.01272
 C626 C 0.71933 0.11231 0.01909
 H627 H 0.72159 0.12384 0.02823
 C628 C 0.70443 0.10058 0.02237
 H629 H 0.69521 0.10372 0.03371
 N630 N 0.73084 0.10922 0.00457
 C631 C 0.75872 0.15384 -0.02378
 H632 H 0.76953 0.15654 -0.01381
 C633 C 0.75638 0.16555 -0.03885
 H634 H 0.76535 0.17740 -0.04013
 C635 C 0.73344 0.13550 -0.03350
 H636 H 0.72448 0.12382 -0.03128
 C637 C 0.73081 0.14669 -0.04899
 H638 H 0.71999 0.14320 -0.05872
 Zn639 Zn 0.75140 0.12474 -0.00006
 N640 N 0.74731 0.13919 -0.02136
 C641 C 0.78099 0.10905 -0.02031
 N642 N 0.77215 0.10935 -0.00374
 C643 C 0.77727 0.09795 0.01022
 C644 C 0.79215 0.08594 0.00798
 C645 C 0.79572 0.09698 -0.02329
 C646 C 0.74220 0.15375 0.02401
 C647 C 0.74459 0.16623 0.03854
 C648 C 0.77493 0.15350 0.04382
 C649 C 0.77184 0.14108 0.02937
 N650 N 0.75556 0.14121 0.01998
 H651 H 0.77641 0.11793 -0.03138
 H652 H 0.76981 0.09828 0.02318
 H653 H 0.79626 0.07740 0.01953
 H654 H 0.80217 0.09665 -0.03678
 H655 H 0.72959 0.15396 0.01599
 H656 H 0.73348 0.17565 0.04183
 H657 H 0.78812 0.15330 0.05084
 H658 H 0.78262 0.13156 0.02552
 C659 C 0.74234 0.16202 -0.05183
 C660 C 0.70158 0.08513 0.01096
 C661 C 0.76113 0.16623 0.04873
 C662 C 0.80156 0.08520 -0.00901
 C663 C 0.22480 0.59511 0.49033
 H664 H 0.23251 0.59464 0.47753
 C665 C 0.20963 0.58349 0.49279
 H666 H 0.20551 0.57452 0.48154
 C667 C 0.22085 0.60757 0.52034
 H668 H 0.22546 0.61667 0.53122
 C669 C 0.20585 0.59597 0.52352
 H670 H 0.19918 0.59636 0.53691
 N671 N 0.22977 0.60723 0.50381
 C672 C 0.25770 0.65337 0.47730
 H673 H 0.26878 0.65536 0.48715
 C674 C 0.25549 0.66570 0.46269
 H675 H 0.26483 0.67727 0.46163
 C676 C 0.23165 0.63628 0.46743
 H677 H 0.22217 0.62501 0.46940
 C678 C 0.22913 0.64806 0.45240
 H679 H 0.21802 0.64524 0.44280
 Zn680 Zn 0.25021 0.62307 0.49971
 N681 N 0.24597 0.63890 0.47932
 C682 C 0.28370 0.61216 0.48206
 N683 N 0.27114 0.60811 0.49542
 C684 C 0.27309 0.59301 0.50631
 C685 C 0.28811 0.58122 0.50398
 C686 C 0.29914 0.60090 0.47946
 C687 C 0.24096 0.65013 0.52597
 C688 C 0.24362 0.66165 0.54123
 C689 C 0.27420 0.64889 0.54486
 C690 C 0.27084 0.63740 0.52972
 N691 N 0.25439 0.63814 0.52069
 H692 H 0.28190 0.62422 0.47354
 H693 H 0.26285 0.59008 0.51678
 H694 H 0.28907 0.56906 0.51255
 H695 H 0.30921 0.60468 0.46909
 H696 H 0.22808 0.65059 0.51838
 H697 H 0.23249 0.67066 0.54548
 H698 H 0.28756 0.64831 0.55154
 H699 H 0.28148 0.62805 0.52505
 C700 C 0.24115 0.66305 0.44982
 C701 C 0.19980 0.58390 0.50954
 C702 C 0.26046 0.66118 0.55092
 C703 C 0.30151 0.58513 0.49048
 C704 C 0.72411 0.90535 0.50862
 H705 H 0.73173 0.90562 0.52149
 C706 C 0.70946 0.91754 0.50599
 H707 H 0.70559 0.92665 0.51720
 C708 C 0.72016 0.89320 0.47848
 H709 H 0.72458 0.88397 0.46763
 C710 C 0.70558 0.90536 0.47514
 H711 H 0.69906 0.90529 0.46167
 N712 N 0.72902 0.89329 0.49507
 C713 C 0.75653 0.84693 0.52207
 H714 H 0.76746 0.84447 0.51220
 C715 C 0.75377 0.83450 0.53654
 H716 H 0.76270 0.82260 0.53758
 C717 C 0.73085 0.86463 0.53172
 H718 H 0.72159 0.87605 0.52969
 C719 C 0.72778 0.85274 0.54654
 H720 H 0.71652 0.85569 0.55592
 Zn721 Zn 0.74957 0.87742 0.49931
 N722 N 0.74522 0.86175 0.51997
 C723 C 0.78688 0.88437 0.50944
 N724 N 0.77088 0.89219 0.50348
 C725 C 0.76983 0.91060 0.50017
 C726 C 0.78508 0.92195 0.50322
 C727 C 0.80255 0.89521 0.51249
 C728 C 0.73970 0.84988 0.47414
 C729 C 0.74189 0.83769 0.45935
 C730 C 0.77233 0.85025 0.45421
 C731 C 0.76942 0.86244 0.46890
 N732 N 0.75333 0.86199 0.47855
 H733 H 0.78759 0.86970 0.51171
 H734 H 0.75719 0.91660 0.49505
 H735 H 0.78370 0.93661 0.50090
 H736 H 0.81520 0.88864 0.51697
 H737 H 0.72708 0.84975 0.48213
 H738 H 0.73064 0.82850 0.45588
 H739 H 0.78547 0.85052 0.44710
 H740 H 0.78014 0.87208 0.47272
 C741 C 0.73924 0.83733 0.54909
 C742 C 0.69998 0.91776 0.48902
 C743 C 0.75845 0.83762 0.44922
 C744 C 0.80176 0.91431 0.50945
 C745 C 0.00862 0.22561 0.40343
 H746 H 0.02130 0.23347 0.40383
 C747 C 0.00600 0.21109 0.41578
 H748 H 0.01700 0.20763 0.42529
 C749 C -0.02100 0.22070 0.39045
 H750 H -0.03169 0.22473 0.38089
 C751 C -0.02430 0.20623 0.40270
 H752 H -0.03755 0.19936 0.40234
 N753 N -0.00462 0.22989 0.39081
 C754 C 0.02273 0.25676 0.34423
 H755 H 0.01323 0.26804 0.34200
 C756 C 0.03725 0.25382 0.33186
 H757 H 0.03859 0.26282 0.32003
 C758 C 0.03176 0.23087 0.36189
 H759 H 0.02949 0.22172 0.37339
 C760 C 0.04666 0.22764 0.35010
 H761 H 0.05587 0.21631 0.35313
 Zn762 Zn -0.00020 0.25002 0.37462
 N763 N 0.02028 0.24538 0.35894
 C764 C 0.01788 0.28323 0.38578
 N765 N 0.00412 0.27105 0.38948
 C766 C -0.00722 0.27339 0.40426
 C767 C -0.00492 0.28841 0.41609
 C768 C 0.02048 0.29867 0.39709
 C769 C -0.02660 0.24061 0.34766
 C770 C -0.04183 0.24327 0.33612
 C771 C -0.04453 0.27428 0.34799
 C772 C -0.02950 0.27088 0.35958
 N773 N -0.02097 0.25421 0.35932
 H774 H 0.02675 0.28112 0.37396
 H775 H -0.01800 0.26343 0.40694
 H776 H -0.01385 0.28965 0.42801
 H777 H 0.03121 0.30843 0.39360
 H778 H -0.01936 0.22757 0.34753
 H779 H -0.04642 0.23197 0.32749
 H780 H -0.05078 0.28782 0.34818
 H781 H -0.02452 0.28168 0.36860
 C782 C 0.04956 0.23911 0.33472
 C783 C -0.01065 0.20112 0.41554
 C784 C -0.05107 0.26032 0.33614
 C785 C 0.00901 0.30142 0.41255
 C786 C -0.00668 0.72814 0.09394
 H787 H -0.01639 0.73898 0.09067
 C788 C -0.00464 0.71321 0.08192
 H789 H -0.01267 0.71290 0.06929
 C790 C 0.01598 0.71589 0.11410
 H791 H 0.02403 0.71701 0.12662
 C792 C 0.01830 0.70059 0.10258
 H793 H 0.02795 0.68995 0.10661
 N794 N 0.00358 0.72923 0.10965
 C795 C -0.02274 0.75815 0.15495
 H796 H -0.01251 0.76866 0.15770
 C797 C -0.03776 0.75604 0.16685
 H798 H -0.03876 0.76487 0.17888
 C799 C -0.03328 0.73347 0.13624
 H800 H -0.03144 0.72469 0.12430
 C801 C -0.04867 0.73105 0.14762
 H802 H -0.05867 0.72054 0.14406
 Zn803 Zn 0.00023 0.75020 0.12487
 N804 N -0.02075 0.74690 0.14005
 C805 C -0.01919 0.78087 0.11047
 N806 N -0.00342 0.77076 0.10923
 C807 C 0.00949 0.77444 0.09612
 C808 C 0.00705 0.78909 0.08390
 C809 C -0.02236 0.79544 0.09830
 C810 C 0.02314 0.74235 0.15513
 C811 C 0.03794 0.74457 0.16732
 C812 C 0.04845 0.77024 0.14897
 C813 C 0.03327 0.76773 0.13732
 N814 N 0.02109 0.75380 0.14041
 H815 H -0.02949 0.77746 0.12070
 H816 H 0.02172 0.76593 0.09516
 H817 H 0.01780 0.79199 0.07394
 H818 H -0.03523 0.80294 0.09927
 H819 H 0.01310 0.73158 0.15750
 H820 H 0.03898 0.73551 0.17913
 H821 H 0.05819 0.78109 0.14584
 H822 H 0.03133 0.77693 0.12581
 C823 C -0.05105 0.74236 0.16326
 C824 C 0.00795 0.69911 0.08617
 C825 C 0.05096 0.75861 0.16429
 C826 C -0.00912 0.79979 0.08477
 C827 C 0.49297 0.22777 0.59573
 H828 H 0.48276 0.23823 0.59277
 C829 C 0.49508 0.21282 0.58377
 H830 H 0.48655 0.21208 0.57149
 C831 C 0.51691 0.21657 0.61502
 H832 H 0.52541 0.21814 0.62721
 C833 C 0.51934 0.20126 0.60354
 H834 H 0.52956 0.19103 0.60724
 N835 N 0.50384 0.22939 0.61097
 C836 C 0.47881 0.25715 0.65755
 H837 H 0.48959 0.26695 0.66082
 C838 C 0.46399 0.25484 0.66964
 H839 H 0.46373 0.26276 0.68233
 C840 C 0.46661 0.23455 0.63727
 H841 H 0.46770 0.22665 0.62465
 C842 C 0.45137 0.23201 0.64883
 H843 H 0.44076 0.22234 0.64471
 Zn844 Zn 0.50071 0.25032 0.62624
 N845 N 0.47992 0.24699 0.64177
 C846 C 0.48423 0.28405 0.61575
 N847 N 0.49700 0.27117 0.61098
 C848 C 0.50688 0.27265 0.59507
 C849 C 0.50386 0.28740 0.58307
 C850 C 0.48095 0.29914 0.60429
 C851 C 0.52365 0.24392 0.65698
 C852 C 0.53859 0.24692 0.66884
 C853 C 0.55012 0.26974 0.64753
 C854 C 0.53480 0.26653 0.63624
 N855 N 0.52192 0.25383 0.64115
 H856 H 0.47655 0.28264 0.62847
 H857 H 0.51691 0.26217 0.59155
 H858 H 0.51151 0.28796 0.57023
 H859 H 0.47092 0.30935 0.60855
 H860 H 0.51320 0.23391 0.66058
 H861 H 0.53926 0.23930 0.68167
 H862 H 0.56031 0.27971 0.64313
 H863 H 0.53320 0.27422 0.62358
 C864 C 0.44993 0.24216 0.66536
 C865 C 0.50837 0.19924 0.58761
 C866 C 0.55210 0.26005 0.66423
 C867 C 0.49069 0.30091 0.58757
 C868 C 0.50835 0.72552 0.90329
 H869 H 0.52080 0.73366 0.90458
 C870 C 0.50561 0.71040 0.91485
 H871 H 0.51633 0.70677 0.92461
 C872 C 0.47951 0.72040 0.88872
 H873 H 0.46930 0.72444 0.87861
 C874 C 0.47603 0.70538 0.90023
 H875 H 0.46300 0.69821 0.89890
 N876 N 0.49553 0.73002 0.89033
 C877 C 0.52209 0.75789 0.84427
 H878 H 0.51200 0.76862 0.84189
 C879 C 0.53678 0.75564 0.83200
 H880 H 0.53766 0.76458 0.82009
 C881 C 0.53256 0.73282 0.86233
 H882 H 0.53083 0.72379 0.87402
 C883 C 0.54764 0.73026 0.85058
 H884 H 0.55751 0.71953 0.85377
 Zn885 Zn 0.49976 0.75071 0.87501
 N886 N 0.52028 0.74664 0.85916
 C887 C 0.51679 0.78437 0.88530
 N888 N 0.50423 0.77141 0.89034
 C889 C 0.49478 0.77281 0.90652
 C890 C 0.49793 0.78763 0.91846
 C891 C 0.52024 0.79950 0.89673
 C892 C 0.47637 0.74450 0.84475
 C893 C 0.46147 0.74766 0.83292
 C894 C 0.45143 0.77217 0.85321
 C895 C 0.46669 0.76872 0.86449
 N896 N 0.47877 0.75507 0.86010
 H897 H 0.52414 0.78305 0.87239
 H898 H 0.48487 0.76229 0.91023
 H899 H 0.49056 0.78821 0.93146
 H900 H 0.53007 0.80980 0.89226
 H901 H 0.48624 0.73377 0.84155
 H902 H 0.46021 0.73943 0.82049
 H903 H 0.44182 0.78288 0.85719
 H904 H 0.46885 0.77692 0.87679
 C905 C 0.54995 0.74176 0.83513
 C906 C 0.48924 0.70005 0.91346
 C907 C 0.44870 0.76168 0.83705
 C908 C 0.51085 0.80125 0.91365
 C909 C 0.11188 0.22568 0.28555
 C910 C 0.11960 0.24111 0.27645
 C911 C 0.13477 0.23883 0.26455
 C912 C 0.14277 0.22140 0.26194
 C913 C 0.13533 0.20623 0.27130
 C914 C 0.12009 0.20829 0.28290
 C915 C 0.09553 0.22864 0.29793
 C916 C 0.08611 0.21406 0.30661
 C917 C 0.07115 0.21751 0.31824
 C918 C 0.06520 0.23560 0.32177
 C919 C 0.07431 0.25021 0.31286
 C920 C 0.08918 0.24685 0.30083
 C921 C 0.11233 0.25874 0.27951
 C922 C 0.09762 0.26157 0.29164
 H923 H 0.11827 0.27058 0.27262
 H924 H 0.09267 0.27551 0.29371
 H925 H 0.14060 0.25071 0.25764
 H926 H 0.14116 0.19262 0.26952
 H927 H 0.06411 0.20586 0.32433
 H928 H 0.07003 0.26428 0.31544
 H929 H 0.11509 0.19610 0.28976
 H930 H 0.08993 0.19986 0.30448
 C931 C 0.61216 0.73196 0.78499
 C932 C 0.61916 0.71386 0.78288
 C933 C 0.63416 0.71051 0.77103
 C934 C 0.64213 0.72489 0.76085
 C935 C 0.63496 0.74273 0.76273
 C936 C 0.62023 0.74627 0.77464
 C937 C 0.59629 0.73500 0.79796
 C938 C 0.58896 0.75258 0.80176
 C939 C 0.57411 0.75469 0.81387
 C940 C 0.56597 0.73936 0.82242
 C941 C 0.57332 0.72179 0.81881
 C942 C 0.58847 0.71954 0.80690
 C943 C 0.61101 0.69920 0.79242
 C944 C 0.59589 0.70195 0.80401
 H945 H 0.61631 0.68533 0.79076
 H946 H 0.59000 0.69011 0.81096
 H947 H 0.63937 0.69660 0.76946
 H948 H 0.64087 0.75412 0.75513
 H949 H 0.56917 0.76848 0.81670
 H950 H 0.56715 0.70975 0.82510
 H951 H 0.61533 0.76027 0.77542
 H952 H 0.59458 0.76492 0.79571
 C953 C 0.38684 0.77602 0.78747
 C954 C 0.37956 0.76075 0.77767
 C955 C 0.36485 0.76319 0.76525
 C956 C 0.35695 0.78063 0.76257
 C957 C 0.36398 0.79568 0.77252
 C958 C 0.37874 0.79346 0.78476
 C959 C 0.40275 0.77284 0.80040
 C960 C 0.41154 0.78719 0.81017
 C961 C 0.42637 0.78353 0.82195
 C962 C 0.43279 0.76546 0.82452
 C963 C 0.42408 0.75108 0.81483
 C964 C 0.40935 0.75464 0.80270
 C965 C 0.38688 0.74311 0.78042
 C966 C 0.40134 0.74010 0.79278
 H967 H 0.38127 0.73141 0.77297
 H968 H 0.40645 0.72617 0.79446
 H969 H 0.35937 0.75137 0.75790
 H970 H 0.35823 0.80932 0.77070
 H971 H 0.43300 0.79501 0.82885
 H972 H 0.42865 0.73700 0.81678
 H973 H 0.38352 0.80557 0.79198
 H974 H 0.40735 0.80137 0.80876
 C975 C -0.11433 0.27354 0.28807
 C976 C -0.11511 0.26355 0.27128
 C977 C -0.13002 0.26604 0.25907
 C978 C -0.14415 0.27880 0.26300
 C979 C -0.14298 0.28896 0.27957
 C980 C -0.12840 0.28635 0.29191
 C981 C -0.09837 0.27026 0.30088
 C982 C -0.09696 0.27861 0.31842
 C983 C -0.08177 0.27521 0.32979
 C984 C -0.06739 0.26357 0.32398
 C985 C -0.06881 0.25504 0.30656
 C986 C -0.08424 0.25806 0.29516
 C987 C -0.10087 0.25133 0.26662
 C988 C -0.08566 0.24883 0.27819
 H989 H -0.10137 0.24371 0.25372
 H990 H -0.07492 0.23935 0.27385
 H991 H -0.13025 0.25820 0.24632
 H992 H -0.15341 0.29891 0.28336
 H993 H -0.08147 0.28160 0.34332
 H994 H -0.05783 0.24613 0.30169
 H995 H -0.12837 0.29464 0.30429
 H996 H -0.10751 0.28763 0.32376
 C997 C -0.11318 0.73221 0.21340
 C998 C -0.11998 0.71406 0.21555
 C999 C -0.13482 0.71058 0.22756
 C1000 C -0.14285 0.72491 0.23784
 C1001 C -0.13588 0.74282 0.23591
 C1002 C -0.12131 0.74647 0.22384
 C1003 C -0.09744 0.73537 0.20030
 C1004 C -0.09023 0.75299 0.19654
 C1005 C -0.07541 0.75519 0.18442
 C1006 C -0.06720 0.73991 0.17578
 C1007 C -0.07447 0.72230 0.17927
 C1008 C -0.08956 0.71996 0.19125
 C1009 C -0.11179 0.69945 0.20588
 C1010 C -0.09680 0.70231 0.19414
 H1011 H -0.11693 0.68553 0.20756
 H1012 H -0.09086 0.69051 0.18712
 H1013 H -0.13986 0.69663 0.22914
 H1014 H -0.14185 0.75417 0.24358
 H1015 H -0.07049 0.76900 0.18169
 H1016 H -0.06824 0.71030 0.17288
 H1017 H -0.11658 0.76052 0.22301
 H1018 H -0.09590 0.76529 0.20268
 C1019 C 0.38829 0.23149 0.71599
 C1020 C 0.37989 0.21390 0.71623
 C1021 C 0.36483 0.21046 0.72800
 C1022 C 0.35828 0.22413 0.74021
 C1023 C 0.36718 0.24136 0.74030
 C1024 C 0.38182 0.24503 0.72834
 C1025 C 0.40396 0.23478 0.70286
 C1026 C 0.41223 0.25217 0.70051
 C1027 C 0.42690 0.25451 0.68824
 C1028 C 0.43393 0.23958 0.67807
 C1029 C 0.42555 0.22223 0.68014
 C1030 C 0.41052 0.21981 0.69217
 C1031 C 0.38677 0.19976 0.70496
 C1032 C 0.40193 0.20256 0.69342
 H1033 H 0.38049 0.18621 0.70525
 H1034 H 0.40685 0.19110 0.68516
 H1035 H 0.35864 0.19689 0.72789
 H1036 H 0.36270 0.25237 0.74933
 H1037 H 0.43260 0.26819 0.68659
 H1038 H 0.43080 0.21048 0.67252
 H1039 H 0.38797 0.25854 0.72912
 H1040 H 0.40745 0.26422 0.70781
 C1041 C 0.61404 0.27465 0.71368
 C1042 C 0.62007 0.25999 0.72501
 C1043 C 0.63472 0.26263 0.73750
 C1044 C 0.64412 0.27960 0.73850
 C1045 C 0.63837 0.29391 0.72674
 C1046 C 0.62352 0.29155 0.71465
 C1047 C 0.59804 0.27140 0.70089
 C1048 C 0.59011 0.28546 0.69010
 C1049 C 0.57524 0.28174 0.67838
 C1050 C 0.56795 0.26386 0.67686
 C1051 C 0.57571 0.24980 0.68771
 C1052 C 0.59042 0.25349 0.69986
 C1053 C 0.61166 0.24266 0.72361
 C1054 C 0.59735 0.23941 0.71111
 H1055 H 0.61636 0.23134 0.73216
 H1056 H 0.59145 0.22570 0.71043
 H1057 H 0.63905 0.25116 0.74600
 H1058 H 0.64502 0.30724 0.72701
 H1059 H 0.56928 0.29304 0.67069
 H1060 H 0.57041 0.23588 0.68668
 H1061 H 0.61982 0.30311 0.70608
 H1062 H 0.59495 0.29949 0.69069
 C1063 C 0.11312 0.76898 0.21454
 C1064 C 0.11987 0.78716 0.21676
 C1065 C 0.13478 0.79068 0.22871
 C1066 C 0.14289 0.77638 0.23889
 C1067 C 0.13600 0.75843 0.23686
 C1068 C 0.12138 0.75473 0.22484
 C1069 C 0.09729 0.76577 0.20153
 C1070 C 0.09016 0.74812 0.19766
 C1071 C 0.07532 0.74587 0.18554
 C1072 C 0.06699 0.76113 0.17702
 C1073 C 0.07413 0.77878 0.18071
 C1074 C 0.08927 0.78116 0.19264
 C1075 C 0.11154 0.80175 0.20726
 C1076 C 0.09646 0.79884 0.19561
 H1077 H 0.11664 0.81568 0.20899
 H1078 H 0.09042 0.81063 0.18870
 H1079 H 0.13979 0.80465 0.23038
 H1080 H 0.14205 0.74709 0.24445
 H1081 H 0.07052 0.73204 0.18267
 H1082 H 0.06781 0.79078 0.17448
 H1083 H 0.11671 0.74066 0.22395
 H1084 H 0.09592 0.73583 0.20369
 C1085 C 0.28584 0.11229 0.23038
 C1086 C 0.28395 0.11933 0.21224
 C1087 C 0.27214 0.13429 0.20883
 C1088 C 0.26179 0.14221 0.22319
 C1089 C 0.26342 0.13498 0.24108
 C1090 C 0.27529 0.12027 0.24468
 C1091 C 0.29881 0.09648 0.23349
 C1092 C 0.30237 0.08909 0.25113
 C1093 C 0.31443 0.07426 0.25329
 C1094 C 0.32319 0.06622 0.23795
 C1095 C 0.31988 0.07366 0.22033
 C1096 C 0.30798 0.08877 0.21803
 C1097 C 0.29369 0.11127 0.19758
 C1098 C 0.30529 0.09621 0.20038
 H1099 H 0.29219 0.11660 0.18367
 H1100 H 0.31239 0.09039 0.18855
 H1101 H 0.27076 0.13953 0.19488
 H1102 H 0.25566 0.14084 0.25245
 H1103 H 0.31703 0.06922 0.26713
 H1104 H 0.32636 0.06756 0.20829
 H1105 H 0.27590 0.11534 0.25871
 H1106 H 0.29613 0.09462 0.26348
 C1107 C 0.78307 0.61253 0.72844
 C1108 C 0.78945 0.62732 0.71744
 C1109 C 0.77798 0.64257 0.71410
 C1110 C 0.76021 0.64354 0.72182
 C1111 C 0.75404 0.62894 0.73288
 C1112 C 0.76525 0.61366 0.73615
 C1113 C 0.79570 0.59644 0.73159
 C1114 C 0.79037 0.58072 0.74163
 C1115 C 0.80265 0.56614 0.74428
 C1116 C 0.82067 0.56684 0.73717
 C1117 C 0.82604 0.58243 0.72700
 C1118 C 0.81369 0.59705 0.72400
 C1119 C 0.80731 0.62690 0.71002
 C1120 C 0.81922 0.61219 0.71337
 H1121 H 0.81223 0.63822 0.70160
 H1122 H 0.83295 0.61261 0.70743
 H1123 H 0.78307 0.65383 0.70572
 H1124 H 0.74040 0.62916 0.73896
 H1125 H 0.79785 0.55417 0.75175
 H1126 H 0.83994 0.58334 0.72154
 H1127 H 0.75970 0.60297 0.74484
 H1128 H 0.77674 0.57926 0.74742
 C1129 C 0.78825 0.38661 0.77297
 C1130 C 0.77030 0.38700 0.76522
 C1131 C 0.75813 0.37218 0.76801
 C1132 C 0.76345 0.35694 0.77869
 C1133 C 0.78121 0.35669 0.78646
 C1134 C 0.79345 0.37126 0.78365
 C1135 C 0.80083 0.40268 0.76965
 C1136 C 0.81916 0.40331 0.77615
 C1137 C 0.83025 0.41866 0.77288
 C1138 C 0.82341 0.43397 0.76321
 C1139 C 0.80518 0.43336 0.75651
 C1140 C 0.79398 0.41785 0.75947
 C1141 C 0.76450 0.40228 0.75494
 C1142 C 0.77603 0.41743 0.75226
 H1143 H 0.75076 0.40261 0.74900
 H1144 H 0.77082 0.42896 0.74433
 H1145 H 0.74440 0.37272 0.76211
 H1146 H 0.78583 0.34513 0.79466
 H1147 H 0.84437 0.41841 0.77782
 H1148 H 0.79955 0.44508 0.74916
 H1149 H 0.80684 0.37023 0.79009
 H1150 H 0.82529 0.39205 0.78366
 C1151 C 0.28714 -0.11480 0.27225
 C1152 C 0.26987 -0.11526 0.26312
 C1153 C 0.25778 -0.13018 0.26581
 C1154 C 0.26232 -0.14457 0.27803
 C1155 C 0.27935 -0.14369 0.28740
 C1156 C 0.29156 -0.12914 0.28452
 C1157 C 0.29980 -0.09884 0.26878
 C1158 C 0.31777 -0.09783 0.27614
 C1159 C 0.32894 -0.08256 0.27277
 C1160 C 0.32251 -0.06772 0.26213
 C1161 C 0.30470 -0.06879 0.25442
 C1162 C 0.29347 -0.08430 0.25743
 C1163 C 0.26463 -0.10065 0.25162
 C1164 C 0.27605 -0.08538 0.24906
 H1165 H 0.25136 -0.10088 0.24468
 H1166 H 0.27123 -0.07434 0.24023
 H1167 H 0.24466 -0.13019 0.25864
 H1168 H 0.28361 -0.15434 0.29690
 H1169 H 0.34279 -0.08253 0.27840
 H1170 H 0.29942 -0.05749 0.24621
 H1171 H 0.30431 -0.12935 0.29222
 H1172 H 0.32360 -0.10875 0.28436
 C1173 C 0.21260 -0.11405 0.72461
 C1174 C 0.22987 -0.11432 0.73373
 C1175 C 0.24196 -0.12927 0.73126
 C1176 C 0.23747 -0.14391 0.71925
 C1177 C 0.22049 -0.14319 0.70978
 C1178 C 0.20823 -0.12860 0.71248
 C1179 C 0.19988 -0.09808 0.72802
 C1180 C 0.18182 -0.09724 0.72083
 C1181 C 0.17053 -0.08204 0.72436
 C1182 C 0.17695 -0.06709 0.73494
 C1183 C 0.19493 -0.06794 0.74228
 C1184 C 0.20622 -0.08338 0.73920
 C1185 C 0.23514 -0.09952 0.74503
 C1186 C 0.22370 -0.08426 0.74746
 H1187 H 0.24843 -0.09962 0.75192
 H1188 H 0.22852 -0.07307 0.75617
 H1189 H 0.25507 -0.12911 0.73845
 H1190 H 0.21632 -0.15404 0.70041
 H1191 H 0.15660 -0.08220 0.71895
 H1192 H 0.20028 -0.05653 0.75033
 H1193 H 0.19547 -0.12892 0.70478
 H1194 H 0.17601 -0.10828 0.71270
 C1195 C 0.71375 0.38780 0.23102
 C1196 C 0.71551 0.38055 0.21291
 C1197 C 0.72741 0.36564 0.20952
 C1198 C 0.73786 0.35788 0.22388
 C1199 C 0.73626 0.36525 0.24175
 C1200 C 0.72437 0.37996 0.24531
 C1201 C 0.70077 0.40362 0.23409
 C1202 C 0.69759 0.41144 0.25164
 C1203 C 0.68551 0.42626 0.25377
 C1204 C 0.67630 0.43382 0.23848
 C1205 C 0.67923 0.42599 0.22094
 C1206 C 0.69125 0.41096 0.21866
 C1207 C 0.70552 0.38831 0.19828
 C1208 C 0.69375 0.40325 0.20107
 H1209 H 0.70691 0.38281 0.18440
 H1210 H 0.68642 0.40880 0.18926
 H1211 H 0.72871 0.36028 0.19559
 H1212 H 0.74405 0.35950 0.25314
 H1213 H 0.68324 0.43169 0.26754
 H1214 H 0.67238 0.43176 0.20895
 H1215 H 0.72377 0.38497 0.25934
 H1216 H 0.70419 0.40629 0.26396
 C1217 C 0.71685 0.61132 0.27029
 C1218 C 0.71047 0.62642 0.28093
 C1219 C 0.72203 0.64163 0.28412
 C1220 C 0.73990 0.64228 0.27662
 C1221 C 0.74605 0.62744 0.26580
 C1222 C 0.73475 0.61216 0.26269
 C1223 C 0.70414 0.59524 0.26741
 C1224 C 0.70946 0.57914 0.25791
 C1225 C 0.69707 0.56461 0.25547
 C1226 C 0.67892 0.56572 0.26223
 C1227 C 0.67358 0.58166 0.27191
 C1228 C 0.68605 0.59623 0.27474
 C1229 C 0.69253 0.62636 0.28814
 C1230 C 0.68052 0.61169 0.28494
 H1231 H 0.68762 0.63793 0.29625
 H1232 H 0.66672 0.61240 0.29070
 H1233 H 0.71693 0.65311 0.29223
 H1234 H 0.75975 0.62749 0.25984
 H1235 H 0.70187 0.55235 0.24841
 H1236 H 0.65961 0.58291 0.27711
 H1237 H 0.74026 0.60124 0.25421
 H1238 H 0.72318 0.57738 0.25240
 C1239 C 0.21796 0.11098 0.77029
 C1240 C 0.21148 0.12604 0.78092
 C1241 C 0.22294 0.14132 0.78413
 C1242 C 0.24083 0.14206 0.77670
 C1243 C 0.24708 0.12726 0.76587
 C1244 C 0.23585 0.11193 0.76271
 C1245 C 0.20536 0.09481 0.76744
 C1246 C 0.21078 0.07876 0.75790
 C1247 C 0.19852 0.06411 0.75555
 C1248 C 0.18042 0.06505 0.76245
 C1249 C 0.17496 0.08096 0.77212
 C1250 C 0.18729 0.09565 0.77483
 C1251 C 0.19354 0.12587 0.78814
 C1252 C 0.18165 0.11109 0.78501
 H1253 H 0.18855 0.13741 0.79625
 H1254 H 0.16786 0.11170 0.79080
 H1255 H 0.21774 0.15275 0.79224
 H1256 H 0.26079 0.12736 0.75994
 H1257 H 0.20338 0.05189 0.74846
 H1258 H 0.16100 0.08205 0.77740
 H1259 H 0.24144 0.10104 0.75424
 H1260 H 0.22448 0.07713 0.75231
 C1261 C 0.22952 0.28415 0.11101
 C1262 C 0.21783 0.28991 0.12559
 C1263 C 0.21463 0.27825 0.14074
 C1264 C 0.22300 0.26083 0.14173
 C1265 C 0.23462 0.25521 0.12726
 C1266 C 0.23785 0.26665 0.11213
 C1267 C 0.23257 0.29701 0.09508
 C1268 C 0.24371 0.29249 0.07976
 C1269 C 0.24611 0.30493 0.06528
 C1270 C 0.23762 0.32231 0.06567
 C1271 C 0.22647 0.32693 0.08089
 C1272 C 0.22381 0.31444 0.09545
 C1273 C 0.20946 0.30729 0.12504
 C1274 C 0.21244 0.31931 0.11034
 H1275 H 0.20050 0.31171 0.13620
 H1276 H 0.20566 0.33262 0.11060
 H1277 H 0.20576 0.28292 0.15185
 H1278 H 0.24119 0.24183 0.12745
 H1279 H 0.25450 0.30078 0.05361
 H1280 H 0.21999 0.34037 0.08155
 H1281 H 0.24693 0.26150 0.10150
 H1282 H 0.25062 0.27939 0.07859
 C1283 C 0.72584 0.78738 0.61061
 C1284 C 0.74131 0.77824 0.61829
 C1285 C 0.73902 0.76623 0.63336
 C1286 C 0.72154 0.76358 0.64129
 C1287 C 0.70632 0.77293 0.63385
 C1288 C 0.70838 0.78461 0.61872
 C1289 C 0.72880 0.79993 0.59444
 C1290 C 0.71418 0.80871 0.58512
 C1291 C 0.71763 0.82055 0.57037
 C1292 C 0.73576 0.82418 0.56452
 C1293 C 0.75042 0.81516 0.57351
 C1294 C 0.74706 0.80294 0.58819
 C1295 C 0.75899 0.78141 0.61112
 C1296 C 0.76183 0.79368 0.59657
 H1297 H 0.77087 0.77450 0.61702
 H1298 H 0.77581 0.79583 0.59170
 H1299 H 0.75094 0.75932 0.63919
 H1300 H 0.69266 0.77110 0.63961
 H1301 H 0.70595 0.82674 0.56339
 H1302 H 0.76452 0.81779 0.56927
 H1303 H 0.69615 0.79147 0.61375
 H1304 H 0.69994 0.80651 0.58885
 C1305 C 0.76924 0.78610 0.38822
 C1306 C 0.78051 0.79202 0.37340
 C1307 C 0.78374 0.78032 0.35825
 C1308 C 0.77572 0.76272 0.35742
 C1309 C 0.76435 0.75700 0.37202
 C1310 C 0.76115 0.76847 0.38721
 C1311 C 0.76630 0.79895 0.40423
 C1312 C 0.75598 0.79410 0.41998
 C1313 C 0.75360 0.80657 0.43450
 C1314 C 0.76126 0.82433 0.43372
 C1315 C 0.77168 0.82923 0.41809
 C1316 C 0.77441 0.81667 0.40353
 C1317 C 0.78838 0.80965 0.37370
 C1318 C 0.78527 0.82175 0.38836
 H1319 H 0.79700 0.81421 0.36235
 H1320 H 0.79160 0.83527 0.38786
 H1321 H 0.79233 0.78509 0.34698
 H1322 H 0.75801 0.74351 0.37189
 H1323 H 0.74590 0.80213 0.44651
 H1324 H 0.77756 0.84291 0.41710
 H1325 H 0.75225 0.76326 0.39793
 H1326 H 0.74975 0.78070 0.42149
 C1327 C 0.26806 0.28707 -0.11271
 C1328 C 0.28629 0.28460 -0.11933
 C1329 C 0.28967 0.27294 -0.13447
 C1330 C 0.27519 0.26319 -0.14291
 C1331 C 0.25722 0.26526 -0.13602
 C1332 C 0.25365 0.27708 -0.12119
 C1333 C 0.26500 0.29997 -0.09677
 C1334 C 0.24731 0.30446 -0.09005
 C1335 C 0.24518 0.31653 -0.07515
 C1336 C 0.26061 0.32432 -0.06628
 C1337 C 0.27830 0.31999 -0.07303
 C1338 C 0.28057 0.30823 -0.08832
 C1339 C 0.30107 0.29355 -0.11062
 C1340 C 0.29830 0.30488 -0.09528
 H1341 H 0.31504 0.29159 -0.11560
 H1342 H 0.31022 0.31133 -0.08893
 H1343 H 0.30367 0.27115 -0.13942
 H1344 H 0.24580 0.25790 -0.14227
 H1345 H 0.23131 0.31993 -0.07077
 H1346 H 0.29044 0.32562 -0.06634
 H1347 H 0.23955 0.27806 -0.11649
 H1348 H 0.23491 0.29901 -0.09626
 C1349 C 0.73212 0.21156 -0.11430
 C1350 C 0.71392 0.21378 -0.12111
 C1351 C 0.71048 0.22572 -0.13600
 C1352 C 0.72487 0.23590 -0.14398
 C1353 C 0.74282 0.23390 -0.13698
 C1354 C 0.74644 0.22188 -0.12241
 C1355 C 0.73526 0.19855 -0.09852
 C1356 C 0.75294 0.19465 -0.09142
 C1357 C 0.75515 0.18266 -0.07654
 C1358 C 0.73982 0.17431 -0.06813
 C1359 C 0.72214 0.17791 -0.07533
 C1360 C 0.71980 0.18973 -0.09052
 C1361 C 0.69925 0.20430 -0.11284
 C1362 C 0.70209 0.19271 -0.09775
 H1363 H 0.68530 0.20604 -0.11798
 H1364 H 0.69025 0.18586 -0.09173
 H1365 H 0.69649 0.22738 -0.14107
 H1366 H 0.75421 0.24152 -0.14291
 H1367 H 0.76901 0.17981 -0.07172
 H1368 H 0.71011 0.17173 -0.06898
 H1369 H 0.76052 0.22104 -0.11764
 H1370 H 0.76529 0.20057 -0.09721
 C1371 C 0.23165 0.71269 0.38730
 C1372 C 0.21347 0.71507 0.38050
 C1373 C 0.21018 0.72674 0.36538
 C1374 C 0.22471 0.73648 0.35710
 C1375 C 0.24265 0.73435 0.36408
 C1376 C 0.24612 0.72259 0.37892
 C1377 C 0.23462 0.69991 0.40331
 C1378 C 0.25225 0.69580 0.41043
 C1379 C 0.25428 0.68383 0.42537
 C1380 C 0.23883 0.67575 0.43382
 C1381 C 0.22120 0.67974 0.42672
 C1382 C 0.21902 0.69147 0.41146
 C1383 C 0.19866 0.70601 0.38897
 C1384 C 0.20135 0.69464 0.40424
 H1385 H 0.18473 0.70788 0.38382
 H1386 H 0.18941 0.68806 0.41038
 H1387 H 0.19620 0.72852 0.36033
 H1388 H 0.25413 0.74163 0.35792
 H1389 H 0.26811 0.68071 0.43011
 H1390 H 0.20905 0.67385 0.43314
 H1391 H 0.26020 0.72158 0.38365
 H1392 H 0.26468 0.70147 0.40456
 C1393 C 0.27338 0.70947 0.61415
 C1394 C 0.26473 0.72695 0.61385
 C1395 C 0.26722 0.73931 0.62863
 C1396 C 0.27842 0.73465 0.64377
 C1397 C 0.28711 0.71738 0.64393
 C1398 C 0.28464 0.70495 0.62938
 C1399 C 0.27024 0.69663 0.59816
 C1400 C 0.27772 0.67873 0.59738
 C1401 C 0.27442 0.66731 0.58218
 C1402 C 0.26371 0.67340 0.56720
 C1403 C 0.25614 0.69123 0.56790
 C1404 C 0.25917 0.70274 0.58324
 C1405 C 0.25376 0.73208 0.59875
 C1406 C 0.25113 0.72028 0.58374
 H1407 H 0.24715 0.74547 0.59849
 H1408 H 0.24257 0.72495 0.57237
 H1409 H 0.26061 0.75268 0.62813
 H1410 H 0.29575 0.71330 0.65542
 H1411 H 0.28013 0.65353 0.58232
 H1412 H 0.24803 0.69630 0.55639
 H1413 H 0.29173 0.69193 0.63034
 H1414 H 0.28605 0.67319 0.60841
 C1415 C 0.77219 0.21746 0.10991
 C1416 C 0.78315 0.21130 0.12489
 C1417 C 0.78631 0.22288 0.14017
 C1418 C 0.77847 0.24055 0.14096
 C1419 C 0.76746 0.24653 0.12617
 C1420 C 0.76437 0.23521 0.11086
 C1421 C 0.76923 0.20471 0.09382
 C1422 C 0.75913 0.20975 0.07796
 C1423 C 0.75666 0.19734 0.06340
 C1424 C 0.76404 0.17948 0.06423
 C1425 C 0.77424 0.17439 0.07996
 C1426 C 0.77703 0.18685 0.09458
 C1427 C 0.79074 0.19356 0.12464
 C1428 C 0.78763 0.18155 0.10988
 H1429 H 0.79912 0.18881 0.13610
 H1430 H 0.79371 0.16793 0.11042
 H1431 H 0.79463 0.21795 0.15159
 H1432 H 0.76131 0.26011 0.12626
 H1433 H 0.74911 0.20190 0.05132
 H1434 H 0.77988 0.16060 0.08098
 H1435 H 0.75574 0.24061 0.10000
 H1436 H 0.75313 0.22325 0.07641
 C1437 C 0.47618 0.36213 0.53761
 C1438 C 0.49128 0.36886 0.52719
 C1439 C 0.48879 0.38358 0.51487
 C1440 C 0.47146 0.39202 0.51289
 C1441 C 0.45657 0.38544 0.52336
 C1442 C 0.45884 0.37069 0.53550
 C1443 C 0.47940 0.34631 0.55054
 C1444 C 0.46520 0.33822 0.56106
 C1445 C 0.46891 0.32355 0.57293
 C1446 C 0.48689 0.31657 0.57482
 C1447 C 0.50113 0.32452 0.56433
 C1448 C 0.49751 0.33914 0.55216
 C1449 C 0.50881 0.36098 0.52927
 C1450 C 0.51188 0.34653 0.54156
 H1451 H 0.52039 0.36613 0.52133
 H1452 H 0.52573 0.34099 0.54271
 H1453 H 0.50048 0.38868 0.50707
 H1454 H 0.44301 0.39156 0.52205
 H1455 H 0.45752 0.31748 0.58045
 H1456 H 0.51514 0.31947 0.56574
 H1457 H 0.44684 0.36629 0.54312
 H1458 H 0.45109 0.34288 0.56023
 C1459 C -0.02061 0.86049 0.03342
 C1460 C -0.03114 0.87564 0.03981
 C1461 C -0.03426 0.89084 0.02822
 C1462 C -0.02674 0.89140 0.01034
 C1463 C -0.01614 0.87643 0.00414
 C1464 C -0.01312 0.86119 0.01546
 C1465 C -0.01766 0.84450 0.04618
 C1466 C -0.00814 0.82842 0.04085
 C1467 C -0.00558 0.81399 0.05329
 C1468 C -0.01223 0.81518 0.07150
 C1469 C -0.02193 0.83110 0.07685
 C1470 C -0.02487 0.84557 0.06433
 C1471 C -0.03829 0.87566 0.05780
 C1472 C -0.03506 0.86104 0.06985
 H1473 H -0.04635 0.88725 0.06272
 H1474 H -0.04075 0.86181 0.08369
 H1475 H -0.04225 0.90239 0.03332
 H1476 H -0.01022 0.87635 -0.00958
 H1477 H 0.00148 0.80174 0.04849
 H1478 H -0.02705 0.83239 0.09087
 H1479 H -0.00476 0.85022 0.00990
 H1480 H -0.00270 0.82660 0.02710
 C1481 C 0.01788 0.63708 0.03586
 C1482 C 0.03582 0.62942 0.03469
 C1483 C 0.03927 0.61453 0.02276
 C1484 C 0.02518 0.60729 0.01158
 C1485 C 0.00749 0.61507 0.01253
 C1486 C 0.00383 0.62971 0.02455
 C1487 C 0.01475 0.65289 0.04891
 C1488 C -0.00270 0.66100 0.05167
 C1489 C -0.00486 0.67580 0.06384
 C1490 C 0.01031 0.68305 0.07352
 C1491 C 0.02773 0.67492 0.07098
 C1492 C 0.03002 0.65987 0.05895
 C1493 C 0.05027 0.63680 0.04524
 C1494 C 0.04747 0.65180 0.05698
 H1495 H 0.06403 0.63100 0.04429
 H1496 H 0.05915 0.65708 0.06473
 H1497 H 0.05308 0.60885 0.02190
 H1498 H -0.00365 0.60971 0.00411
 H1499 H -0.01856 0.68144 0.06579
 H1500 H 0.03965 0.68044 0.07817
 H1501 H -0.01004 0.63509 0.02464
 H1502 H -0.01491 0.65607 0.04470
 C1503 C 0.51831 0.13751 0.53704
 C1504 C 0.53644 0.13051 0.53498
 C1505 C 0.53986 0.11579 0.52281
 C1506 C 0.52550 0.10809 0.51229
 C1507 C 0.50761 0.11523 0.51417
 C1508 C 0.50401 0.12968 0.52639
 C1509 C 0.51521 0.15314 0.55028
 C1510 C 0.49760 0.16055 0.55389
 C1511 C 0.49545 0.17529 0.56611
 C1512 C 0.51077 0.18317 0.57501
 C1513 C 0.52836 0.17568 0.57170
 C1514 C 0.53065 0.16069 0.55959
 C1515 C 0.55109 0.13838 0.54489
 C1516 C 0.54828 0.15325 0.55679
 H1517 H 0.56498 0.13308 0.54328
 H1518 H 0.56010 0.15896 0.56401
 H1519 H 0.55380 0.11060 0.52126
 H1520 H 0.49623 0.10950 0.50634
 H1521 H 0.48165 0.18040 0.56871
 H1522 H 0.54038 0.18167 0.57832
 H1523 H 0.48998 0.13455 0.52715
 H1524 H 0.48526 0.15514 0.54754
 C1525 C -0.02243 0.14020 0.46653
 C1526 C -0.03316 0.12518 0.46011
 C1527 C -0.03626 0.10988 0.47160
 C1528 C -0.02857 0.10913 0.48942
 C1529 C -0.01790 0.12404 0.49566
 C1530 C -0.01487 0.13934 0.48445
 C1531 C -0.01939 0.15625 0.45385
 C1532 C -0.00938 0.17206 0.45913
 C1533 C -0.00672 0.18654 0.44677
 C1534 C -0.01383 0.18570 0.42872
 C1535 C -0.02401 0.17006 0.42340
 C1536 C -0.02694 0.15548 0.43582
 C1537 C -0.04053 0.12543 0.44220
 C1538 C -0.03738 0.14018 0.43028
 H1539 H -0.04875 0.11395 0.43725
 H1540 H -0.04329 0.13962 0.41651
 H1541 H -0.04437 0.09841 0.46649
 H1542 H -0.01190 0.12404 0.50936
 H1543 H 0.00078 0.19856 0.45149
 H1544 H -0.02946 0.16906 0.40948
 H1545 H -0.00646 0.15024 0.49008
 H1546 H -0.00356 0.17362 0.47277
 C1547 C 0.47624 0.63704 0.96154
 C1548 C 0.48436 0.63757 0.97935
 C1549 C 0.48174 0.62288 0.99168
 C1550 C 0.47084 0.60766 0.98670
 C1551 C 0.46264 0.60730 0.96912
 C1552 C 0.46530 0.62173 0.95670
 C1553 C 0.47946 0.65295 0.94874
 C1554 C 0.47271 0.65338 0.93047
 C1555 C 0.47601 0.66854 0.91912
 C1556 C 0.48595 0.68384 0.92565
 C1557 C 0.49280 0.68347 0.94385
 C1558 C 0.48986 0.66813 0.95527
 C1559 C 0.49485 0.65285 0.98483
 C1560 C 0.49739 0.66787 0.97312
 H1561 H 0.50108 0.65328 0.99845
 H1562 H 0.50550 0.67941 0.97809
 H1563 H 0.48797 0.62349 1.00529
 H1564 H 0.45426 0.59574 0.96478
 H1565 H 0.47091 0.66810 0.90505
 H1566 H 0.50030 0.69520 0.94927
 H1567 H 0.45857 0.62062 0.94345
 H1568 H 0.46501 0.64209 0.92458
 C1569 C 0.52557 0.86309 0.96297
 C1570 C 0.51050 0.86999 0.97335
 C1571 C 0.51305 0.88484 0.98557
 C1572 C 0.53041 0.89322 0.98749
 C1573 C 0.54527 0.88649 0.97705
 C1574 C 0.54294 0.87162 0.96500
 C1575 C 0.52228 0.84712 0.95018
 C1576 C 0.53645 0.83889 0.93968
 C1577 C 0.53269 0.82406 0.92796
 C1578 C 0.51470 0.81704 0.92624
 C1579 C 0.50050 0.82513 0.93670
 C1580 C 0.50417 0.83994 0.94869
 C1581 C 0.49294 0.86214 0.97136
 C1582 C 0.48982 0.84753 0.95922
 H1583 H 0.48138 0.86745 0.97926
 H1584 H 0.47595 0.84201 0.95814
 H1585 H 0.50138 0.89006 0.99334
 H1586 H 0.55885 0.89257 0.97833
 H1587 H 0.54402 0.81790 0.92040
 H1588 H 0.48649 0.82004 0.93539
 H1589 H 0.55491 0.86710 0.95739
 H1590 H 0.55056 0.84356 0.94039
 C1591 C 0.01910 0.36331 0.46301
 C1592 C 0.03728 0.37011 0.46533
 C1593 C 0.04070 0.38483 0.47752
 C1594 C 0.02630 0.39269 0.48784
 C1595 C 0.00838 0.38568 0.48578
 C1596 C 0.00478 0.37124 0.47353
 C1597 C 0.01598 0.34774 0.44971
 C1598 C -0.00169 0.34069 0.44567
 C1599 C -0.00386 0.32596 0.43344
 C1600 C 0.01149 0.31766 0.42498
 C1601 C 0.02914 0.32486 0.42864
 C1602 C 0.03146 0.33988 0.44072
 C1603 C 0.05196 0.36200 0.45568
 C1604 C 0.04914 0.34709 0.44381
 H1605 H 0.06590 0.36714 0.45750
 H1606 H 0.06100 0.34119 0.43684
 H1607 H 0.05467 0.38992 0.47923
 H1608 H -0.00303 0.39150 0.49349
 H1609 H -0.01771 0.32116 0.43053
 H1610 H 0.04118 0.31861 0.42234
 H1611 H -0.00928 0.36645 0.47264
 H1612 H -0.01405 0.34641 0.45167
 C1613 C 0.36400 0.53558 0.48029
 C1614 C 0.37122 0.53386 0.46218
 C1615 C 0.38617 0.52199 0.45872
 C1616 C 0.39386 0.51141 0.47301
 C1617 C 0.38646 0.51291 0.49086
 C1618 C 0.37179 0.52483 0.49450
 C1619 C 0.34819 0.54855 0.48345
 C1620 C 0.34065 0.55193 0.50108
 C1621 C 0.32576 0.56393 0.50329
 C1622 C 0.31780 0.57281 0.48800
 C1623 C 0.32544 0.56973 0.47039
 C1624 C 0.34061 0.55789 0.46805
 C1625 C 0.36333 0.54380 0.44759
 C1626 C 0.34824 0.55540 0.45043
 H1627 H 0.36879 0.54244 0.43370
 H1628 H 0.34254 0.56264 0.43864
 H1629 H 0.39155 0.52073 0.44480
 H1630 H 0.39214 0.50500 0.50218
 H1631 H 0.32059 0.56637 0.51712
 H1632 H 0.31943 0.57634 0.45839
 H1633 H 0.36670 0.52529 0.50849
 H1634 H 0.34610 0.54559 0.51339
 C1635 C 0.86301 0.03443 -0.01990
 C1636 C 0.87713 0.03999 -0.03221
 C1637 C 0.89239 0.02848 -0.03543
 C1638 C 0.89403 0.01144 -0.02640
 C1639 C 0.88008 0.00608 -0.01407
 C1640 C 0.86481 0.01736 -0.01085
 C1641 C 0.84689 0.04708 -0.01693
 C1642 C 0.83182 0.04255 -0.00552
 C1643 C 0.81718 0.05482 -0.00313
 C1644 C 0.81717 0.07209 -0.01186
 C1645 C 0.83212 0.07666 -0.02336
 C1646 C 0.84678 0.06428 -0.02610
 C1647 C 0.87602 0.05706 -0.04112
 C1648 C 0.86126 0.06900 -0.03802
 H1649 H 0.88681 0.06133 -0.05056
 H1650 H 0.86112 0.08210 -0.04518
 H1651 H 0.90311 0.03299 -0.04482
 H1652 H 0.88080 -0.00697 -0.00692
 H1653 H 0.80570 0.05059 0.00543
 H1654 H 0.83252 0.08998 -0.03008
 H1655 H 0.85464 0.01245 -0.00117
 H1656 H 0.83094 0.02954 0.00158
 C1657 C 0.63976 0.03571 0.02493
 C1658 C 0.63212 0.02635 0.00953
 C1659 C 0.61707 0.01436 0.01194
 C1660 C 0.60912 0.01192 0.02945
 C1661 C 0.61649 0.02151 0.04460
 C1662 C 0.63162 0.03319 0.04243
 C1663 C 0.65595 0.04820 0.02183
 C1664 C 0.66527 0.05718 0.03638
 C1665 C 0.68011 0.06887 0.03280
 C1666 C 0.68602 0.07218 0.01461
 C1667 C 0.67697 0.06302 0.00003
 C1668 C 0.66224 0.05092 0.00352
 C1669 C 0.63931 0.02925 -0.00820
 C1670 C 0.65387 0.04146 -0.01117
 H1671 H 0.63342 0.02216 -0.02002
 H1672 H 0.65878 0.04339 -0.02519
 H1673 H 0.61128 0.00728 0.00007
 H1674 H 0.61068 0.01986 0.05828
 H1675 H 0.68710 0.07517 0.04443
 H1676 H 0.68121 0.06544 -0.01412
 H1677 H 0.63657 0.04023 0.05460
 H1678 H 0.66148 0.05523 0.05065
 C1679 C 0.13591 0.53681 0.52203
 C1680 C 0.13576 0.51940 0.51317
 C1681 C 0.12087 0.50727 0.51585
 C1682 C 0.10611 0.51211 0.52748
 C1683 C 0.10642 0.52934 0.53631
 C1684 C 0.12106 0.54151 0.53366
 C1685 C 0.15202 0.54937 0.51882
 C1686 C 0.15313 0.56719 0.52648
 C1687 C 0.16848 0.57831 0.52326
 C1688 C 0.18331 0.57198 0.51249
 C1689 C 0.18222 0.55429 0.50460
 C1690 C 0.16668 0.54308 0.50753
 C1691 C 0.15055 0.51413 0.50185
 C1692 C 0.16573 0.52565 0.49921
 H1693 H 0.15046 0.50082 0.49504
 H1694 H 0.17687 0.52087 0.49043
 H1695 H 0.12098 0.49395 0.50908
 H1696 H 0.09526 0.53363 0.54526
 H1697 H 0.16858 0.59204 0.52912
 H1698 H 0.19357 0.54907 0.49637
 H1699 H 0.12046 0.55445 0.54096
 H1700 H 0.14227 0.57292 0.53489
 C1701 C 0.13838 0.46657 -0.02061
 C1702 C 0.12392 0.46081 -0.03246
 C1703 C 0.10878 0.47245 -0.03576
 C1704 C 0.10763 0.48988 -0.02733
 C1705 C 0.12202 0.49550 -0.01557
 C1706 C 0.13714 0.48406 -0.01224
 C1707 C 0.15427 0.45370 -0.01741
 C1708 C 0.16952 0.45828 -0.00620
 C1709 C 0.18392 0.44580 -0.00357
 C1710 C 0.18353 0.42830 -0.01187
 C1711 C 0.16842 0.42365 -0.02316
 C1712 C 0.15394 0.43620 -0.02608
 C1713 C 0.12456 0.44340 -0.04083
 C1714 C 0.13919 0.43134 -0.03764
 H1715 H 0.11352 0.43898 -0.04994
 H1716 H 0.13898 0.41799 -0.04439
 H1717 H 0.09783 0.46775 -0.04481
 H1718 H 0.12172 0.50881 -0.00885
 H1719 H 0.19555 0.45002 0.00485
 H1720 H 0.16776 0.41014 -0.02954
 H1721 H 0.14764 0.48920 -0.00300
 H1722 H 0.17070 0.47146 0.00059
 C1723 C 0.63895 0.96875 0.47720
 C1724 C 0.62441 0.96275 0.46557
 C1725 C 0.60908 0.97419 0.46242
 C1726 C 0.60780 0.99160 0.47085
 C1727 C 0.62223 0.99743 0.48244
 C1728 C 0.63756 0.98623 0.48559
 C1729 C 0.65505 0.95610 0.48026
 C1730 C 0.67045 0.96099 0.49113
 C1731 C 0.68498 0.94864 0.49375
 C1732 C 0.68456 0.93098 0.48578
 C1733 C 0.66934 0.92608 0.47474
 C1734 C 0.65475 0.93850 0.47181
 C1735 C 0.62515 0.94530 0.45731
 C1736 C 0.63992 0.93339 0.46046
 H1737 H 0.61405 0.94069 0.44837
 H1738 H 0.63975 0.91998 0.45384
 H1739 H 0.59802 0.96932 0.45358
 H1740 H 0.62181 1.01077 0.48912
 H1741 H 0.69669 0.95309 0.50192
 H1742 H 0.66866 0.91247 0.46861
 H1743 H 0.64808 0.99151 0.49472
 H1744 H 0.67165 0.97430 0.49765
 C1745 C 0.86495 0.96208 0.52306
 C1746 C 0.86722 0.97734 0.51113
 C1747 C 0.88196 0.98966 0.51381
 C1748 C 0.89470 0.98703 0.52823
 C1749 C 0.89242 0.97178 0.53993
 C1750 C 0.87782 0.95950 0.53742
 C1751 C 0.84894 0.94935 0.51985
 C1752 C 0.84525 0.93401 0.53118
 C1753 C 0.83005 0.92269 0.52773
 C1754 C 0.81814 0.92623 0.51284
 C1755 C 0.82180 0.94142 0.50140
 C1756 C 0.83694 0.95301 0.50486
 C1757 C 0.85478 0.98022 0.49658
 C1758 C 0.84002 0.96828 0.49347
 H1759 H 0.85650 0.99189 0.48742
 H1760 H 0.83080 0.97113 0.48202
 H1761 H 0.88341 1.00130 0.50460
 H1762 H 0.90193 0.96914 0.55113
 H1763 H 0.82744 0.91129 0.53700
 H1764 H 0.81291 0.94420 0.48967
 H1765 H 0.87694 0.94808 0.54687
 H1766 H 0.85379 0.93056 0.54289
 C1767 C 0.36046 0.46673 0.02104
 C1768 C 0.37524 0.46057 0.03226
 C1769 C 0.39061 0.47200 0.03535
 C1770 C 0.39167 0.48951 0.02721
 C1771 C 0.37709 0.49544 0.01591
 C1772 C 0.36172 0.48427 0.01285
 C1773 C 0.34420 0.45422 0.01826
 C1774 C 0.32847 0.45939 0.00804
 C1775 C 0.31372 0.44724 0.00577
 C1776 C 0.31422 0.42951 0.01347
 C1777 C 0.32980 0.42431 0.02383
 C1778 C 0.34462 0.43653 0.02642
 C1779 C 0.37469 0.44298 0.04016
 C1780 C 0.35979 0.43117 0.03717
 H1781 H 0.38602 0.43821 0.04869
 H1782 H 0.36009 0.41765 0.04351
 H1783 H 0.40186 0.46708 0.04390
 H1784 H 0.37739 0.50888 0.00947
 H1785 H 0.30176 0.45190 -0.00189
 H1786 H 0.33053 0.41062 0.02974
 H1787 H 0.35107 0.48962 0.00395
 H1788 H 0.32716 0.47280 0.00180
 C1789 C 0.53776 0.47541 0.36253
 C1790 C 0.52757 0.49043 0.36976
 C1791 C 0.51545 0.48777 0.38468
 C1792 C 0.51351 0.47035 0.39285
 C1793 C 0.52382 0.45556 0.38583
 C1794 C 0.53574 0.45800 0.37087
 C1795 C 0.55042 0.47880 0.34648
 C1796 C 0.56054 0.46466 0.33778
 C1797 C 0.57224 0.46853 0.32296
 C1798 C 0.57437 0.48661 0.31644
 C1799 C 0.56418 0.50077 0.32493
 C1800 C 0.55215 0.49699 0.33969
 C1801 C 0.52968 0.50805 0.36219
 C1802 C 0.54182 0.51129 0.34760
 H1803 H 0.52192 0.51957 0.36774
 H1804 H 0.54304 0.52520 0.34234
 H1805 H 0.50779 0.49939 0.39015
 H1806 H 0.52255 0.44195 0.39176
 H1807 H 0.57946 0.45719 0.31645
 H1808 H 0.56573 0.51485 0.32022
 H1809 H 0.54327 0.44608 0.36615
 H1810 H 0.55952 0.45049 0.34206
 C1811 C 0.03684 -0.02383 0.86105
 C1812 C 0.02804 -0.00842 0.86922
 C1813 C 0.01594 -0.01087 0.88421
 C1814 C 0.01285 -0.02846 0.89158
 C1815 C 0.02187 -0.04364 0.88367
 C1816 C 0.03364 -0.04141 0.86860
 C1817 C 0.04950 -0.02068 0.84498
 C1818 C 0.05790 -0.03518 0.83514
 C1819 C 0.06983 -0.03158 0.82047
 C1820 C 0.07399 -0.01341 0.81526
 C1821 C 0.06536 0.00114 0.82479
 C1822 C 0.05301 -0.00236 0.83935
 C1823 C 0.03166 0.00935 0.86263
 C1824 C 0.04407 0.01233 0.84820
 H1825 H 0.02500 0.02118 0.86892
 H1826 H 0.04658 0.02637 0.84379
 H1827 H 0.00930 0.00100 0.89042
 H1828 H 0.01970 -0.05738 0.88901
 H1829 H 0.07565 -0.04317 0.81307
 H1830 H 0.06839 0.01527 0.82108
 H1831 H 0.04024 -0.05361 0.86324
 H1832 H 0.05531 -0.04943 0.83838
 C1833 C 0.03716 0.02521 0.63857
 C1834 C 0.02825 0.00981 0.63048
 C1835 C 0.01620 0.01225 0.61545
 C1836 C 0.01325 0.02982 0.60795
 C1837 C 0.02242 0.04497 0.61572
 C1838 C 0.03417 0.04276 0.63084
 C1839 C 0.04969 0.02208 0.65475
 C1840 C 0.05816 0.03658 0.66454
 C1841 C 0.06995 0.03298 0.67934
 C1842 C 0.07388 0.01481 0.68473
 C1843 C 0.06520 0.00027 0.67523
 C1844 C 0.05298 0.00377 0.66055
 C1845 C 0.03167 -0.00793 0.63723
 C1846 C 0.04397 -0.01091 0.65176
 H1847 H 0.02492 -0.01975 0.63101
 H1848 H 0.04632 -0.02493 0.65631
 H1849 H 0.00946 0.00038 0.60934
 H1850 H 0.02037 0.05869 0.61024
 H1851 H 0.07586 0.04456 0.68670
 H1852 H 0.06807 -0.01386 0.67908
 H1853 H 0.04087 0.05494 0.63611
 H1854 H 0.05572 0.05083 0.66116
 C1855 C 0.53556 0.52527 0.13804
 C1856 C 0.52638 0.50992 0.13017
 C1857 C 0.51437 0.51235 0.11510
 C1858 C 0.51168 0.52985 0.10736
 C1859 C 0.52105 0.54497 0.11498
 C1860 C 0.53278 0.54277 0.13013
 C1861 C 0.54812 0.52213 0.15423
 C1862 C 0.55698 0.53659 0.16373
 C1863 C 0.56877 0.53297 0.17853
 C1864 C 0.57228 0.51482 0.18424
 C1865 C 0.56322 0.50032 0.17504
 C1866 C 0.55105 0.50385 0.16032
 C1867 C 0.52950 0.49221 0.13717
 C1868 C 0.54174 0.48921 0.15175
 H1869 H 0.52254 0.48043 0.13112
 H1870 H 0.54384 0.47522 0.15650
 H1871 H 0.50744 0.50050 0.10915
 H1872 H 0.51919 0.55865 0.10936
 H1873 H 0.57502 0.54453 0.18565
 H1874 H 0.56578 0.48620 0.17915
 H1875 H 0.53963 0.55492 0.13528
 H1876 H 0.55488 0.55083 0.16009
 C1877 C 0.46379 -0.01953 0.13659
 C1878 C 0.46596 -0.03762 0.12955
 C1879 C 0.47776 -0.04090 0.11448
 C1880 C 0.48787 -0.02646 0.10654
 C1881 C 0.48593 -0.00863 0.11374
 C1882 C 0.47404 -0.00516 0.12851
 C1883 C 0.45088 -0.01656 0.15253
 C1884 C 0.44697 0.00101 0.15985
 C1885 C 0.43490 0.00307 0.17474
 C1886 C 0.42651 -0.01231 0.18295
 C1887 C 0.43028 -0.02989 0.17565
 C1888 C 0.44212 -0.03207 0.16042
 C1889 C 0.45657 -0.05235 0.13776
 C1890 C 0.44508 -0.04966 0.15299
 H1891 H 0.45828 -0.06621 0.13244
 H1892 H 0.43826 -0.06154 0.15893
 H1893 H 0.47939 -0.05480 0.10923
 H1894 H 0.49349 0.00279 0.10784
 H1895 H 0.43196 0.01686 0.17963
 H1896 H 0.42414 -0.04197 0.18188
 H1897 H 0.47322 0.00884 0.13344
 H1898 H 0.45288 0.01339 0.15416
 C1899 C 0.96190 0.48197 0.63628
 C1900 C 0.96435 0.46370 0.62983
 C1901 C 0.97612 0.46012 0.61481
 C1902 C 0.98595 0.47445 0.60635
 C1903 C 0.98378 0.49248 0.61298
 C1904 C 0.97188 0.49624 0.62768
 C1905 C 0.94903 0.48524 0.65219
 C1906 C 0.94477 0.50297 0.65890
 C1907 C 0.93278 0.50529 0.67383
 C1908 C 0.92484 0.49003 0.68270
 C1909 C 0.92894 0.47230 0.67597
 C1910 C 0.94066 0.46984 0.66070
 C1911 C 0.95529 0.44909 0.63859
 C1912 C 0.94390 0.45207 0.65384
 H1913 H 0.95722 0.43509 0.63373
 H1914 H 0.93736 0.44027 0.66024
 H1915 H 0.97795 0.44609 0.61001
 H1916 H 0.99114 0.50381 0.60667
 H1917 H 0.92957 0.51917 0.67826
 H1918 H 0.92317 0.46029 0.68269
 H1919 H 0.97086 0.51037 0.63218
 H1920 H 0.95035 0.51526 0.65271
 C1921 C 0.96361 0.51907 0.86262
 C1922 C 0.96703 0.53734 0.86858
 C1923 C 0.97886 0.54069 0.88362
 C1924 C 0.98762 0.52609 0.89283
 C1925 C 0.98441 0.50802 0.88671
 C1926 C 0.97258 0.50452 0.87185
 C1927 C 0.95070 0.51610 0.84663
 C1928 C 0.94577 0.49848 0.84009
 C1929 C 0.93365 0.49645 0.82520
 C1930 C 0.92622 0.51191 0.81621
 C1931 C 0.93107 0.52954 0.82268
 C1932 C 0.94299 0.53172 0.83786
 C1933 C 0.95875 0.55219 0.85945
 C1934 C 0.94710 0.54945 0.84434
 H1935 H 0.96137 0.56618 0.86399
 H1936 H 0.94110 0.56141 0.83771
 H1937 H 0.98140 0.55475 0.88794
 H1938 H 0.99088 0.49644 0.89352
 H1939 H 0.92992 0.48266 0.82090
 H1940 H 0.92572 0.54166 0.81582
 H1941 H 0.97072 0.49034 0.86782
 H1942 H 0.95095 0.48606 0.84638
 C1943 C 0.46033 0.02269 0.36336
 C1944 C 0.47788 0.01410 0.36324
 C1945 C 0.49021 0.01689 0.37802
 C1946 C 0.48545 0.02840 0.39289
 C1947 C 0.46812 0.03704 0.39283
 C1948 C 0.45573 0.03425 0.37833
 C1949 C 0.44751 0.01926 0.34742
 C1950 C 0.42950 0.02656 0.34661
 C1951 C 0.41814 0.02311 0.33141
 C1952 C 0.42438 0.01244 0.31646
 C1953 C 0.44227 0.00493 0.31725
 C1954 C 0.45374 0.00811 0.33262
 C1955 C 0.48310 0.00295 0.34830
 C1956 C 0.47136 0.00014 0.33326
 H1957 H 0.49654 -0.00361 0.34815
 H1958 H 0.47611 -0.00850 0.32199
 H1959 H 0.50364 0.01032 0.37774
 H1960 H 0.46395 0.04589 0.40413
 H1961 H 0.40428 0.02870 0.33152
 H1962 H 0.44744 -0.00320 0.30579
 H1963 H 0.44269 0.04135 0.37912
 H1964 H 0.42382 0.03485 0.35760
   
