data_POSCAR
  _audit_creation_date              2014-09-24
  _audit_creation_method            'ToBaCCo'
  _symmetry_space_group_name_H-M    'P1'
  _symmetry_Int_Tables_number       1
  _symmetry_cell_setting            triclinic
  loop_
  _symmetry_equiv_pos_as_xyz
 x,y,z
_cell_length_a 46.9771
_cell_length_b 46.7428
_cell_length_c 32.9411
_cell_angle_alpha 90.245500
_cell_angle_beta 90.354400
_cell_angle_gamma 89.659200
loop_
  _atom_site_label
  _atom_site_type_symbol
  _atom_site_fract_x
  _atom_site_fract_y
  _atom_site_fract_z
Zr1 Zr -0.05134 0.00094 -0.00027
 O2 O -0.08461 -0.01956 -0.03264
 O3 O -0.07406 0.02445 0.04339
 O4 O -0.07285 -0.02910 0.03617
 O5 O -0.04373 0.05664 -0.06790
 O6 O -0.03692 -0.05604 0.06323
 O7 O -0.07648 0.03038 -0.03358
 O8 O -0.03914 0.04607 0.08061
 O9 O -0.02537 -0.00357 0.05128
 O10 O -0.02715 0.03826 0.00393
 O11 O -0.02682 -0.03614 -0.01083
 O12 O -0.02952 0.00410 -0.05603
 Zr13 Zr 0.04799 0.00048 -0.00972
 Zr14 Zr 0.00063 -0.03913 0.03928
 Zr15 Zr -0.00387 0.04044 -0.04951
 Zr16 Zr -0.00041 0.03316 0.05376
 O17 O -0.00564 0.04187 -0.11367
 O18 O 0.00163 0.02047 0.11543
 O19 O 0.02378 0.03795 0.00066
 O20 O 0.02590 -0.00264 0.04546
 O21 O 0.02425 -0.03717 -0.01415
 O22 O 0.02175 0.00481 -0.06086
 C23 C -0.06547 0.04109 0.07212
 C24 C -0.06949 0.05059 -0.05806
 C25 C -0.06344 -0.04990 0.05821
 O26 O 0.00552 -0.04090 0.10311
 O27 O 0.04025 -0.05808 0.05285
 O28 O 0.07301 -0.03042 0.02094
 C29 C 0.06600 -0.05177 0.04335
 O30 O -0.04174 -0.04474 -0.09162
 Zr31 Zr -0.00291 -0.03185 -0.06381
 O32 O 0.07073 -0.02346 -0.05265
 O33 O -0.00149 -0.08352 0.02673
 O34 O -0.00424 -0.07717 -0.06187
 O35 O -0.00227 -0.02142 -0.12639
 O36 O 0.03599 -0.04777 -0.08665
 C37 C 0.06227 -0.04208 -0.07884
 O38 O 0.08116 0.01994 0.02412
 O39 O -0.00480 0.08494 -0.03734
 O40 O 0.06977 0.03154 -0.04394
 O41 O 0.03397 0.05967 -0.06887
 O42 O -0.00166 0.07853 0.05392
 O43 O 0.03810 0.04998 0.07796
 C44 C 0.06048 0.05324 -0.06425
 H45 H -0.03876 0.05585 0.00713
 H46 H 0.03923 -0.00435 0.06874
 H47 H 0.03260 0.00714 -0.08628
 H48 H -0.03908 -0.05321 -0.01344
 H49 H -0.00330 0.03741 0.13221
 H50 H 0.00520 -0.06140 0.11062
 H51 H 0.00064 -0.09356 0.05302
 H52 H -0.00007 -0.08438 -0.08955
 H53 H -0.00548 0.08489 0.08212
 H54 H -0.00660 0.09474 -0.06387
 H55 H -0.00536 0.06235 -0.12129
 H56 H 0.00234 -0.03922 -0.14151
 H57 H 0.03407 0.06023 0.10367
 H58 H 0.09941 0.01380 0.01172
 H59 H -0.10281 -0.01332 -0.02019
 H60 H -0.03771 -0.05884 -0.11339
 Zr61 Zr 0.54796 0.50044 0.49023
 O62 O 0.58109 0.52003 0.52398
 O63 O 0.57074 0.47633 0.44753
 O64 O 0.57293 0.46966 0.52123
 O65 O 0.53409 0.55938 0.43048
 O66 O 0.54012 0.44218 0.55333
 O67 O 0.56981 0.53130 0.45577
 O68 O 0.53602 0.45195 0.41358
 O69 O 0.52422 0.46278 0.48607
 O70 O 0.52178 0.50457 0.43899
 O71 O 0.52580 0.49759 0.54538
 O72 O 0.52377 0.53798 0.50020
 Zr73 Zr 0.44863 0.50099 0.49943
 Zr74 Zr 0.50053 0.46108 0.53946
 Zr75 Zr 0.49617 0.54028 0.44994
 Zr76 Zr 0.49710 0.46791 0.43631
 O77 O 0.49526 0.58483 0.46175
 O78 O 0.49581 0.42260 0.43865
 O79 O 0.47051 0.50391 0.44370
 O80 O 0.47314 0.46386 0.48926
 O81 O 0.47454 0.49672 0.55108
 O82 O 0.47282 0.53834 0.50335
 C83 C 0.56230 0.45767 0.42139
 C84 C 0.56058 0.55292 0.43523
 C85 C 0.56589 0.44843 0.54384
 O86 O 0.49840 0.41664 0.52731
 O87 O 0.46294 0.44432 0.56351
 O88 O 0.42706 0.47113 0.53609
 C89 C 0.43644 0.45044 0.55837
 O90 O 0.53800 0.55037 0.57737
 Zr91 Zr 0.49951 0.53345 0.55328
 O92 O 0.42587 0.52469 0.54284
 O93 O 0.50534 0.45960 0.60332
 O94 O 0.50151 0.52105 0.61507
 O95 O 0.49823 0.57881 0.55303
 O96 O 0.46075 0.54643 0.57997
 C97 C 0.43443 0.54142 0.57148
 O98 O 0.41539 0.48036 0.46719
 O99 O 0.49449 0.54145 0.38577
 O100 O 0.42354 0.53025 0.46573
 O101 O 0.45633 0.55640 0.43130
 O102 O 0.49775 0.47807 0.37363
 O103 O 0.45829 0.45488 0.40856
 C104 C 0.43055 0.55034 0.44107
 H105 H 0.53265 0.50679 0.41357
 H106 H 0.46087 0.44678 0.48678
 H107 H 0.46119 0.55593 0.50636
 H108 H 0.53910 0.49598 0.56870
 H109 H 0.50001 0.41527 0.41104
 H110 H 0.50049 0.40672 0.55370
 H111 H 0.50500 0.43914 0.61102
 H112 H 0.49658 0.53807 0.63168
 H113 H 0.50235 0.46021 0.35866
 H114 H 0.49479 0.56190 0.37799
 H115 H 0.49349 0.59451 0.43514
 H116 H 0.49438 0.58529 0.58117
 H117 H 0.46235 0.44066 0.38697
 H118 H 0.39717 0.48666 0.47954
 H119 H 0.59936 0.51383 0.51169
 H120 H 0.53395 0.56077 0.60297
 Zr121 Zr 0.55108 -0.00208 0.49124
 O122 O 0.58261 0.02115 0.45987
 O123 O 0.57609 -0.02974 0.52677
 O124 O 0.57494 0.02472 0.53030
 O125 O 0.53937 -0.05118 0.41414
 O126 O 0.54123 0.04797 0.56785
 O127 O 0.57391 -0.02786 0.45000
 O128 O 0.54337 -0.05281 0.56555
 O129 O 0.52835 -0.00234 0.54575
 O130 O 0.52699 -0.03956 0.49073
 O131 O 0.52647 0.03561 0.49068
 O132 O 0.52618 -0.00035 0.43768
 Zr133 Zr 0.45162 -0.00080 0.49185
 Zr134 Zr 0.50209 0.03398 0.54363
 Zr135 Zr 0.50069 -0.03705 0.43973
 Zr136 Zr 0.50324 -0.03896 0.54365
 O137 O 0.49821 -0.03276 0.37590
 O138 O 0.50363 -0.03209 0.60732
 O139 O 0.47603 -0.03890 0.49261
 O140 O 0.47685 -0.00276 0.54488
 O141 O 0.47550 0.03687 0.49262
 O142 O 0.47484 -0.00063 0.43791
 C143 C 0.56907 -0.04761 0.55449
 C144 C 0.56563 -0.04565 0.42246
 C145 C 0.56723 0.04260 0.55811
 O146 O 0.50064 0.02991 0.60753
 O147 O 0.46346 0.05125 0.56490
 O148 O 0.42877 0.02699 0.53069
 C149 C 0.43717 0.04589 0.55669
 O150 O 0.53712 0.05093 0.41107
 Zr151 Zr 0.49967 0.03599 0.43977
 O152 O 0.42667 0.02700 0.45625
 O153 O 0.50412 0.07908 0.53952
 O154 O 0.50175 0.08078 0.44988
 O155 O 0.49513 0.03146 0.37597
 O156 O 0.45991 0.05400 0.42429
 C157 C 0.43404 0.04787 0.43331
 O158 O 0.42018 -0.02305 0.52476
 O159 O 0.50239 -0.08225 0.44318
 O160 O 0.42771 -0.02875 0.45438
 O161 O 0.46164 -0.05497 0.42148
 O162 O 0.50528 -0.08394 0.53524
 O163 O 0.46601 -0.05844 0.56697
 C164 C 0.43555 -0.04892 0.42994
 H165 H 0.53872 -0.05720 0.48946
 H166 H 0.46486 -0.00326 0.56948
 H167 H 0.46248 -0.00068 0.41345
 H168 H 0.53871 0.05277 0.49023
 H169 H 0.50939 -0.05034 0.62028
 H170 H 0.50166 0.04952 0.61896
 H171 H 0.50358 0.08662 0.56767
 H172 H 0.49634 0.09033 0.42414
 H173 H 0.51070 -0.09253 0.56166
 H174 H 0.50254 -0.08958 0.41490
 H175 H 0.49751 -0.05240 0.36453
 H176 H 0.49015 0.05056 0.36498
 H177 H 0.47130 -0.07119 0.58976
 H178 H 0.40136 -0.01584 0.51540
 H179 H 0.60145 0.01389 0.46911
 H180 H 0.53216 0.06678 0.39243
 Zr181 Zr -0.04850 0.49899 -0.01193
 O182 O -0.08008 0.47690 0.02090
 O183 O -0.07332 0.52660 -0.04804
 O184 O -0.07149 0.52695 0.02654
 O185 O -0.03834 0.44430 -0.08126
 O186 O -0.03687 0.55140 0.06063
 O187 O -0.07227 0.47096 -0.04944
 O188 O -0.04005 0.55313 -0.08034
 O189 O -0.02464 0.53668 -0.01148
 O190 O -0.02511 0.49877 -0.06570
 O191 O -0.02343 0.49735 0.04128
 O192 O -0.02413 0.46088 -0.01046
 Zr193 Zr 0.05092 0.49767 -0.01191
 Zr194 Zr 0.00182 0.53407 0.03973
 Zr195 Zr 0.00071 0.46234 -0.06318
 Zr196 Zr -0.00031 0.53540 -0.06416
 O197 O 0.00235 0.41717 -0.05916
 O198 O 0.00159 0.58025 -0.05457
 O199 O 0.02619 0.49903 -0.06562
 O200 O 0.02634 0.53536 -0.01309
 O201 O 0.02806 0.49776 0.04249
 O202 O 0.02686 0.46018 -0.01203
 C203 C -0.06607 0.54727 -0.07154
 C204 C -0.06457 0.45048 -0.07353
 C205 C -0.06314 0.54595 0.05243
 O206 O 0.00386 0.57915 0.03503
 O207 O 0.04089 0.54818 0.06403
 O208 O 0.07470 0.52464 0.02703
 C209 C 0.06692 0.54269 0.05458
 O210 O -0.03431 0.44186 0.06426
 Zr211 Zr 0.00296 0.46113 0.04073
 O212 O 0.07585 0.47017 0.02397
 O213 O 0.00018 0.53044 0.10367
 O214 O 0.00327 0.46845 0.10430
 O215 O 0.00492 0.41611 0.03285
 O216 O 0.04304 0.44735 0.06290
 C217 C 0.06877 0.45244 0.05183
 O218 O 0.08258 0.52074 -0.04326
 O219 O -0.00156 0.46615 -0.12708
 O220 O 0.07381 0.47178 -0.05289
 O221 O 0.03950 0.44795 -0.08821
 O222 O -0.00453 0.53048 -0.12795
 O223 O 0.03722 0.55023 -0.09277
 C224 C 0.06583 0.45355 -0.08012
 H225 H -0.03738 0.49855 -0.09025
 H226 H 0.03860 0.55251 -0.01368
 H227 H 0.03859 0.44254 -0.01304
 H228 H -0.03549 0.49699 0.06581
 H229 H -0.00384 0.58963 -0.08043
 H230 H 0.00322 0.58686 0.06308
 H231 H 0.00119 0.55013 0.11485
 H232 H 0.00902 0.45029 0.11753
 H233 H -0.00948 0.54951 -0.13922
 H234 H -0.00229 0.44642 -0.13814
 H235 H 0.00258 0.40966 -0.08734
 H236 H 0.01032 0.40767 0.05937
 H237 H 0.03231 0.56607 -0.11147
 H238 H 0.10139 0.51349 -0.03386
 H239 H -0.09886 0.48406 0.01129
 H240 H -0.02904 0.42924 0.08721
 Zr241 Zr 0.04877 0.50531 0.50124
 O242 O 0.08345 0.48459 0.53047
 O243 O 0.06971 0.53304 0.46154
 O244 O 0.07212 0.47922 0.46112
 O245 O 0.03906 0.55336 0.58006
 O246 O 0.03835 0.45308 0.42782
 O247 O 0.07225 0.53363 0.53786
 O248 O 0.03324 0.55608 0.42923
 O249 O 0.02302 0.50386 0.44921
 O250 O 0.02242 0.54140 0.50418
 O251 O 0.02689 0.46634 0.50503
 O252 O 0.02752 0.50251 0.55741
 Zr253 Zr -0.04987 0.49879 0.51108
 Zr254 Zr -0.00042 0.46609 0.45458
 Zr255 Zr -0.00027 0.53778 0.55798
 Zr256 Zr -0.00431 0.53909 0.45391
 O257 O 0.00091 0.53368 0.62190
 O258 O -0.00636 0.53189 0.39037
 O259 O -0.02809 0.53804 0.50775
 O260 O -0.02806 0.50146 0.45557
 O261 O -0.02376 0.46238 0.50822
 O262 O -0.02370 0.50016 0.56262
 C263 C 0.05989 0.55160 0.43627
 C264 C 0.06479 0.55011 0.56735
 C265 C 0.06440 0.45995 0.43534
 O266 O -0.00539 0.46971 0.39095
 O267 O -0.03908 0.44666 0.43769
 O268 O -0.07310 0.46967 0.47492
 C269 C -0.06508 0.45089 0.44853
 O270 O 0.04307 0.45202 0.58360
 Zr271 Zr 0.00323 0.46487 0.55852
 O272 O -0.07084 0.46998 0.54911
 O273 O 0.00429 0.42115 0.45888
 O274 O 0.00763 0.42019 0.54866
 O275 O 0.00208 0.46979 0.62253
 O276 O -0.03434 0.44484 0.57799
 C277 C -0.06099 0.44961 0.57137
 O278 O -0.08457 0.51902 0.48126
 O279 O -0.00117 0.58298 0.55445
 O280 O -0.07327 0.52605 0.55020
 O281 O -0.03918 0.55390 0.57974
 O282 O -0.00569 0.58415 0.46162
 O283 O -0.04422 0.55574 0.43408
 C284 C -0.06530 0.54674 0.57363
 H285 H 0.03294 0.55968 0.50408
 H286 H -0.04145 0.50111 0.43224
 H287 H -0.03467 0.49976 0.58819
 H288 H 0.04023 0.44986 0.50466
 H289 H -0.00276 0.55044 0.37692
 H290 H -0.00387 0.45007 0.37970
 H291 H 0.00265 0.41338 0.43092
 H292 H 0.00427 0.41056 0.57493
 H293 H -0.00286 0.59290 0.43459
 H294 H 0.00017 0.59034 0.58265
 H295 H -0.00018 0.55332 0.63324
 H296 H -0.00120 0.45060 0.63423
 H297 H -0.04134 0.56810 0.41013
 H298 H -0.10229 0.51093 0.49262
 H299 H 0.10122 0.49261 0.51915
 H300 H 0.04013 0.43621 0.60302
 Zr301 Zr 0.45019 -0.00122 0.01093
 O302 O 0.41553 0.01900 -0.01902
 O303 O 0.42916 -0.03010 0.04883
 O304 O 0.42705 -0.03033 -0.02535
 O305 O 0.46069 0.05390 0.07963
 O306 O 0.46114 -0.05332 -0.06247
 O307 O 0.42668 0.02602 0.04996
 O308 O 0.46563 -0.05519 0.07786
 O309 O 0.47633 -0.03761 0.00817
 O310 O 0.47624 0.00017 0.06259
 O311 O 0.47211 0.00146 -0.04449
 O312 O 0.47195 0.03804 0.00769
 Zr313 Zr 0.54883 0.00536 0.00149
 Zr314 Zr 0.49977 -0.03390 -0.04538
 Zr315 Zr 0.49966 0.03780 0.05804
 Zr316 Zr 0.50321 -0.03510 0.05859
 O317 O 0.49873 0.08300 0.05453
 O318 O 0.50769 -0.07978 0.04878
 O319 O 0.52748 0.00255 0.05757
 O320 O 0.52698 -0.03363 0.00519
 O321 O 0.52321 0.00389 -0.05067
 O322 O 0.52245 0.04143 0.00434
 C323 C 0.43900 -0.05047 0.07110
 C324 C 0.43460 0.04673 0.07342
 C325 C 0.43512 -0.04909 -0.05172
 O326 O 0.50444 -0.07884 -0.04105
 O327 O 0.53863 -0.04697 -0.07186
 O328 O 0.57230 -0.02074 -0.03849
 C329 C 0.56466 -0.04008 -0.06420
 O330 O 0.45598 0.05568 -0.06617
 Zr331 Zr 0.49585 0.03911 -0.04606
 O332 O 0.56985 0.03316 -0.03804
 O333 O 0.49499 -0.03027 -0.10903
 O334 O 0.49405 0.03189 -0.10961
 O335 O 0.49432 0.08416 -0.03834
 O336 O 0.53345 0.05624 -0.07043
 C337 C 0.56008 0.05179 -0.06324
 O338 O 0.58347 -0.01534 0.03086
 O339 O 0.50072 0.03368 0.12197
 O340 O 0.57222 0.03367 0.03820
 O341 O 0.53894 0.05342 0.08026
 O342 O 0.50190 -0.03019 0.12259
 O343 O 0.54302 -0.04789 0.08385
 C344 C 0.56470 0.05017 0.06764
 H345 H 0.46521 -0.00025 0.08810
 H346 H 0.54032 -0.05010 0.00490
 H347 H 0.53295 0.05972 0.00430
 H348 H 0.45878 0.00111 -0.06788
 H349 H 0.50430 -0.08941 0.07504
 H350 H 0.50287 -0.08661 -0.06902
 H351 H 0.49654 -0.04991 -0.12028
 H352 H 0.49768 0.05044 -0.12303
 H353 H 0.49862 -0.04939 0.13427
 H354 H 0.49959 0.05332 0.13330
 H355 H 0.50002 0.09036 0.08274
 H356 H 0.49720 0.09292 -0.06535
 H357 H 0.54006 -0.06370 0.10327
 H358 H 0.60126 -0.00731 0.01963
 H359 H 0.39779 0.01089 -0.00773
 H360 H 0.45891 0.06800 -0.09014
 Zr361 Zr 0.44983 0.49574 0.00326
 O362 O 0.41824 0.51672 0.03825
 O363 O 0.42499 0.47073 -0.03635
 O364 O 0.42494 0.52431 -0.03203
 O365 O 0.46359 0.44285 0.07386
 O366 O 0.45806 0.55093 -0.06489
 O367 O 0.42797 0.46720 0.04137
 O368 O 0.45806 0.44825 -0.07581
 O369 O 0.47207 0.49876 -0.05145
 O370 O 0.47479 0.45865 -0.00117
 O371 O 0.47382 0.53345 0.00841
 O372 O 0.47542 0.49492 0.05633
 Zr373 Zr 0.54944 0.49815 0.00033
 Zr374 Zr 0.49757 0.53509 -0.04506
 Zr375 Zr 0.50166 0.45878 0.04938
 Zr376 Zr 0.49797 0.46239 -0.05431
 O377 O 0.50389 0.45957 0.11355
 O378 O 0.49577 0.47265 -0.11689
 O379 O 0.52577 0.45997 -0.00410
 O380 O 0.52352 0.49889 -0.05196
 O381 O 0.52483 0.53545 0.00530
 O382 O 0.52692 0.49514 0.05479
 C383 C 0.43222 0.45337 -0.06496
 C384 C 0.43708 0.44827 0.06676
 C385 C 0.43221 0.54469 -0.05605
 O386 O 0.49763 0.53451 -0.10927
 O387 O 0.53533 0.55402 -0.06505
 O388 O 0.57123 0.52871 -0.03500
 C389 C 0.56186 0.54900 -0.05802
 O390 O 0.46430 0.54554 0.08947
 Zr391 Zr 0.50139 0.53141 0.05846
 O392 O 0.57419 0.52432 0.03823
 O393 O 0.49518 0.57985 -0.03547
 O394 O 0.49956 0.57659 0.05323
 O395 O 0.50552 0.52270 0.12137
 O396 O 0.54127 0.54763 0.07712
 C397 C 0.56698 0.54262 0.06560
 O398 O 0.58086 0.47845 -0.03636
 O399 O 0.50172 0.41397 0.04002
 O400 O 0.57424 0.46802 0.03306
 O401 O 0.54130 0.44151 0.06685
 O402 O 0.49784 0.41708 -0.05123
 O403 O 0.53536 0.44517 -0.08128
 C404 C 0.56707 0.44780 0.05746
 H405 H 0.46349 0.44085 -0.00178
 H406 H 0.53513 0.50001 -0.07689
 H407 H 0.53951 0.49389 0.07893
 H408 H 0.46132 0.55044 0.01144
 H409 H 0.49040 0.45499 -0.13175
 H410 H 0.49627 0.55470 -0.11818
 H411 H 0.49518 0.58896 -0.06258
 H412 H 0.50540 0.58481 0.07976
 H413 H 0.49253 0.40972 -0.07849
 H414 H 0.50160 0.40505 0.06725
 H415 H 0.50516 0.43940 0.12256
 H416 H 0.51071 0.54086 0.13511
 H417 H 0.53009 0.43393 -0.10571
 H418 H 0.59965 0.48523 -0.02645
 H419 H 0.39946 0.50984 0.02848
 H420 H 0.46953 0.56055 0.10944
 Zr421 Zr 0.04939 -0.00154 0.50054
 O422 O 0.08090 -0.02119 0.46396
 O423 O 0.07405 0.02481 0.53832
 O424 O 0.07104 0.02900 0.46497
 O425 O 0.04145 -0.05805 0.56735
 O426 O 0.03501 0.05402 0.43475
 O427 O 0.07429 -0.03153 0.53337
 O428 O 0.04105 0.04809 0.57711
 O429 O 0.02463 0.03568 0.50532
 O430 O 0.02690 -0.00449 0.55503
 O431 O 0.02345 -0.00106 0.44827
 O432 O 0.02586 -0.03982 0.49636
 Zr433 Zr -0.05023 -0.00434 0.50353
 Zr434 Zr -0.00265 0.03505 0.45499
 Zr435 Zr 0.00175 -0.04095 0.54985
 Zr436 Zr 0.00123 0.03169 0.55852
 O437 O 0.00197 -0.08580 0.54076
 O438 O -0.00076 0.07685 0.55303
 O439 O -0.02462 -0.00490 0.55660
 O440 O -0.02637 0.03347 0.50848
 O441 O -0.02801 -0.00139 0.44880
 O442 O -0.02512 -0.04134 0.49931
 C443 C 0.06678 0.04314 0.56562
 C444 C 0.06719 -0.05172 0.55787
 C445 C 0.06156 0.04914 0.44175
 O446 O -0.00516 0.07983 0.46434
 O447 O -0.04221 0.05072 0.43513
 O448 O -0.07523 0.02409 0.46816
 C449 C -0.06803 0.04445 0.44406
 O450 O 0.03551 -0.05481 0.41928
 Zr451 Zr -0.00195 -0.03766 0.44615
 O452 O -0.07496 -0.02959 0.46406
 O453 O -0.00267 0.03429 0.39077
 O454 O -0.00420 -0.02759 0.38351
 O455 O -0.00189 -0.08296 0.44951
 O456 O -0.04179 -0.05203 0.42473
 C457 C -0.06765 -0.04700 0.43555
 O458 O -0.08191 0.01659 0.53842
 O459 O 0.00401 -0.03997 0.61402
 O460 O -0.07196 -0.03285 0.54183
 O461 O -0.03625 -0.05698 0.57443
 O462 O 0.00538 0.02315 0.62148
 O463 O -0.03590 0.04580 0.58947
 C464 C -0.06278 -0.05168 0.56731
 H465 H 0.03949 -0.00564 0.57918
 H466 H -0.03893 0.05043 0.51143
 H467 H -0.03635 -0.05919 0.49881
 H468 H 0.03503 0.00003 0.42333
 H469 H 0.00507 0.08516 0.57950
 H470 H -0.00521 0.08887 0.43718
 H471 H -0.00410 0.05444 0.38175
 H472 H -0.00948 -0.04532 0.36875
 H473 H 0.01052 0.04135 0.63513
 H474 H 0.00536 -0.06011 0.62315
 H475 H 0.00190 -0.09463 0.56805
 H476 H -0.00717 -0.09043 0.42229
 H477 H -0.03071 0.06087 0.60936
 H478 H -0.10067 0.00960 0.52867
 H479 H 0.09966 -0.01430 0.47384
 H480 H 0.03028 -0.06614 0.39491
 Zr481 Zr 0.75179 0.19898 0.25571
 O482 O 0.72825 0.16754 0.28698
 O483 O 0.77894 0.17353 0.21999
 O484 O 0.72525 0.17515 0.21677
 O485 O 0.79852 0.21059 0.33524
 O486 O 0.70245 0.20879 0.17826
 O487 O 0.77703 0.17581 0.29747
 O488 O 0.80482 0.20633 0.18516
 O489 O 0.75311 0.22162 0.20098
 O490 O 0.78918 0.22292 0.25761
 O491 O 0.71443 0.22401 0.25465
 O492 O 0.74909 0.22409 0.30903
 Zr493 Zr 0.75114 0.29869 0.25435
 Zr494 Zr 0.71704 0.24825 0.20140
 Zr495 Zr 0.78579 0.24941 0.30831
 Zr496 Zr 0.78966 0.24668 0.20450
 O497 O 0.78037 0.25259 0.37188
 O498 O 0.78399 0.24506 0.14063
 O499 O 0.78885 0.27401 0.25536
 O500 O 0.75379 0.27338 0.20147
 O501 O 0.71351 0.27502 0.25222
 O502 O 0.74979 0.27569 0.30852
 C503 C 0.79850 0.18046 0.19473
 C504 C 0.79365 0.18419 0.32636
 C505 C 0.70734 0.18275 0.18906
 O506 O 0.72256 0.24884 0.13773
 O507 O 0.70066 0.28727 0.17874
 O508 O 0.72312 0.32166 0.21627
 C509 C 0.70512 0.31353 0.18898
 O510 O 0.69739 0.21364 0.33371
 Zr511 Zr 0.71319 0.25104 0.30534
 O512 O 0.72364 0.32416 0.28917
 O513 O 0.67205 0.24711 0.20355
 O514 O 0.66879 0.24923 0.29357
 O515 O 0.71664 0.25583 0.36923
 O516 O 0.69525 0.29128 0.31949
 C517 C 0.70216 0.31717 0.31091
 O518 O 0.77351 0.32994 0.22110
 O519 O 0.83080 0.24687 0.30714
 O520 O 0.77883 0.32265 0.29193
 O521 O 0.80393 0.28846 0.32631
 O522 O 0.83426 0.24548 0.21484
 O523 O 0.80916 0.28396 0.18092
 C524 C 0.79849 0.31466 0.31701
 H525 H 0.80663 0.21104 0.25977
 H526 H 0.75474 0.28544 0.17688
 H527 H 0.74959 0.28824 0.33281
 H528 H 0.69722 0.21189 0.25477
 H529 H 0.80243 0.23919 0.12865
 H530 H 0.70327 0.24799 0.12547
 H531 H 0.66513 0.24745 0.17507
 H532 H 0.65888 0.25491 0.31885
 H533 H 0.84346 0.24013 0.18887
 H534 H 0.83745 0.24681 0.33575
 H535 H 0.79970 0.25310 0.38405
 H536 H 0.69752 0.26120 0.37939
 H537 H 0.82185 0.27854 0.15823
 H538 H 0.76638 0.34894 0.23015
 H539 H 0.73543 0.14851 0.27810
 H540 H 0.68152 0.21889 0.35198
 Zr541 Zr 0.74796 0.80183 0.75273
 O542 O 0.76937 0.83474 0.78476
 O543 O 0.72349 0.82521 0.71114
 O544 O 0.77696 0.82362 0.71497
 O545 O 0.69557 0.79438 0.82529
 O546 O 0.80256 0.78750 0.68582
 O547 O 0.71926 0.82699 0.78682
 O548 O 0.70076 0.79091 0.67394
 O549 O 0.75062 0.77623 0.70055
 O550 O 0.71049 0.77793 0.75058
 O551 O 0.78491 0.77687 0.76076
 O552 O 0.74630 0.77963 0.80844
 Zr553 Zr 0.74797 0.70198 0.76099
 Zr554 Zr 0.78609 0.74969 0.71015
 Zr555 Zr 0.70978 0.75417 0.80392
 Zr556 Zr 0.71379 0.75153 0.70001
 O557 O 0.71022 0.75453 0.86815
 O558 O 0.72450 0.74953 0.63763
 O559 O 0.71061 0.72681 0.75315
 O560 O 0.74941 0.72466 0.70592
 O561 O 0.78564 0.72562 0.76342
 O562 O 0.74535 0.72797 0.81271
 C563 C 0.70619 0.81721 0.68300
 C564 C 0.70094 0.82015 0.81402
 C565 C 0.79693 0.81417 0.69164
 O566 O 0.78581 0.74530 0.64620
 O567 O 0.80417 0.70986 0.69486
 O568 O 0.77749 0.67683 0.72798
 C569 C 0.79807 0.68394 0.70439
 O570 O 0.79589 0.79134 0.84114
 Zr571 Zr 0.78201 0.75258 0.81371
 O572 O 0.77340 0.67858 0.80193
 O573 O 0.83062 0.75129 0.72007
 O574 O 0.82702 0.75371 0.80940
 O575 O 0.77343 0.75146 0.87682
 O576 O 0.79835 0.71334 0.83503
 C577 C 0.79274 0.68697 0.82709
 O578 O 0.72735 0.66900 0.72802
 O579 O 0.66521 0.75639 0.79449
 O580 O 0.71783 0.68010 0.79655
 O581 O 0.69057 0.71604 0.82309
 O582 O 0.66871 0.75346 0.70252
 O583 O 0.69580 0.71318 0.67664
 C584 C 0.69666 0.68938 0.81771
 H585 H 0.69302 0.78979 0.74859
 H586 H 0.75027 0.71143 0.68240
 H587 H 0.74374 0.71679 0.83804
 H588 H 0.80205 0.78904 0.76253
 H589 H 0.70722 0.75482 0.62189
 H590 H 0.80595 0.74560 0.63745
 H591 H 0.83977 0.74933 0.69316
 H592 H 0.83494 0.74940 0.83667
 H593 H 0.66162 0.75767 0.67477
 H594 H 0.65639 0.75800 0.82166
 H595 H 0.69008 0.75461 0.87692
 H596 H 0.79153 0.74662 0.89088
 H597 H 0.68481 0.71751 0.65164
 H598 H 0.73374 0.65052 0.73981
 H599 H 0.76299 0.85320 0.77293
 H600 H 0.81032 0.78705 0.86233
 Zr601 Zr 0.25277 0.29877 0.74248
 O602 O 0.23271 0.33017 0.70580
 O603 O 0.27725 0.32415 0.78223
 O604 O 0.22398 0.32432 0.77608
 O605 O 0.30669 0.28376 0.67469
 O606 O 0.19563 0.29175 0.80723
 O607 O 0.28199 0.32007 0.70501
 O608 O 0.29812 0.29133 0.82408
 O609 O 0.24819 0.27723 0.79762
 O610 O 0.28940 0.27364 0.74970
 O611 O 0.21527 0.27476 0.73582
 O612 O 0.25480 0.27229 0.69028
 Zr613 Zr 0.24987 0.19879 0.74810
 Zr614 Zr 0.21208 0.25170 0.78987
 Zr615 Zr 0.29047 0.24597 0.70008
 Zr616 Zr 0.28416 0.25108 0.80326
 O617 O 0.29137 0.24175 0.63612
 O618 O 0.27229 0.25446 0.86510
 O619 O 0.28779 0.22248 0.75411
 O620 O 0.24782 0.22558 0.79951
 O621 O 0.21296 0.22354 0.74044
 O622 O 0.25439 0.22058 0.69318
 C623 C 0.29381 0.31714 0.81190
 C624 C 0.30124 0.31050 0.68070
 C625 C 0.20279 0.31755 0.79871
 O626 O 0.21088 0.25290 0.85404
 O627 O 0.19299 0.21404 0.81049
 O628 O 0.21891 0.17748 0.78306
 C629 C 0.19834 0.18728 0.80498
 O630 O 0.20584 0.28312 0.65349
 Zr631 Zr 0.21846 0.24626 0.68679
 O632 O 0.22439 0.17352 0.71019
 O633 O 0.16784 0.25370 0.77751
 O634 O 0.17341 0.24894 0.68920
 O635 O 0.22865 0.24061 0.62462
 O636 O 0.20200 0.20599 0.66929
 C637 C 0.20647 0.18035 0.68218
 O638 O 0.26896 0.16773 0.78631
 O639 O 0.33488 0.24695 0.71124
 O640 O 0.27986 0.17318 0.71648
 O641 O 0.30904 0.20599 0.68729
 O642 O 0.32930 0.25067 0.80247
 O643 O 0.30018 0.21390 0.83273
 C644 C 0.30184 0.18012 0.69541
 H645 H 0.30716 0.28492 0.75078
 H646 H 0.24607 0.21432 0.82475
 H647 H 0.25624 0.20752 0.66959
 H648 H 0.19855 0.28739 0.73147
 H649 H 0.28948 0.25997 0.88077
 H650 H 0.19055 0.25433 0.86171
 H651 H 0.15802 0.25414 0.80406
 H652 H 0.16590 0.24269 0.66244
 H653 H 0.33605 0.25643 0.82986
 H654 H 0.34434 0.24626 0.68444
 H655 H 0.31168 0.24033 0.62837
 H656 H 0.21087 0.23525 0.61021
 H657 H 0.31091 0.21958 0.85742
 H658 H 0.26229 0.14873 0.77681
 H659 H 0.23947 0.34913 0.71536
 H660 H 0.19152 0.27768 0.63271
 Zr661 Zr 0.24468 0.69867 0.25250
 O662 O 0.26631 0.66330 0.22637
 O663 O 0.21658 0.67851 0.29233
 O664 O 0.26994 0.67666 0.29569
 O665 O 0.19761 0.70599 0.17179
 O666 O 0.29502 0.71224 0.32672
 O667 O 0.21735 0.67384 0.21588
 O668 O 0.19311 0.71580 0.32215
 O669 O 0.24522 0.72615 0.30286
 O670 O 0.20856 0.72475 0.24704
 O671 O 0.28324 0.72105 0.24838
 O672 O 0.24792 0.71864 0.19523
 Zr673 Zr 0.25042 0.79773 0.23723
 Zr674 Zr 0.28255 0.75000 0.29701
 Zr675 Zr 0.21257 0.74620 0.19212
 Zr676 Zr 0.20995 0.75303 0.29576
 O677 O 0.21743 0.74339 0.12842
 O678 O 0.21637 0.75680 0.35932
 O679 O 0.21152 0.77551 0.24070
 O680 O 0.24717 0.77733 0.29379
 O681 O 0.28682 0.77196 0.24227
 O682 O 0.24981 0.77002 0.18717
 C683 C 0.19781 0.68889 0.31664
 C684 C 0.20106 0.68042 0.18568
 C685 C 0.28851 0.68576 0.32160
 O686 O 0.27828 0.75713 0.36015
 O687 O 0.30184 0.78918 0.31187
 O688 O 0.27918 0.82233 0.27247
 C689 C 0.29782 0.81498 0.29947
 O690 O 0.29882 0.70294 0.17119
 Zr691 Zr 0.28513 0.74342 0.19358
 O692 O 0.27899 0.81801 0.19832
 O693 O 0.32732 0.74507 0.29432
 O694 O 0.32949 0.73989 0.20497
 O695 O 0.28083 0.74260 0.12945
 O696 O 0.30474 0.78089 0.17214
 C697 C 0.29953 0.80778 0.17699
 O698 O 0.22983 0.83320 0.26478
 O699 O 0.16755 0.74677 0.19449
 O700 O 0.22342 0.81986 0.19644
 O701 O 0.19638 0.78464 0.16789
 O702 O 0.16523 0.75379 0.28656
 O703 O 0.19271 0.79340 0.31302
 C704 C 0.20318 0.81109 0.17295
 H705 H 0.19048 0.71399 0.24719
 H706 H 0.24721 0.79142 0.31633
 H707 H 0.25035 0.78032 0.16099
 H708 H 0.29974 0.70783 0.25015
 H709 H 0.19780 0.75337 0.37250
 H710 H 0.29768 0.75592 0.37202
 H711 H 0.33472 0.74753 0.32235
 H712 H 0.33939 0.74278 0.17883
 H713 H 0.15616 0.75144 0.31343
 H714 H 0.16055 0.74468 0.16619
 H715 H 0.19801 0.74411 0.11653
 H716 H 0.29998 0.74588 0.11796
 H717 H 0.18009 0.79095 0.33670
 H718 H 0.23785 0.85075 0.25256
 H719 H 0.25825 0.64572 0.23842
 H720 H 0.31476 0.70561 0.15206
 Zr721 Zr 0.25109 0.79881 0.75431
 O722 O 0.27341 0.83008 0.72104
 O723 O 0.22363 0.82427 0.78921
 O724 O 0.22305 0.82180 0.71631
 O725 O 0.30400 0.78856 0.82608
 O726 O 0.20050 0.78743 0.67885
 O727 O 0.27885 0.82276 0.79182
 O728 O 0.19527 0.79139 0.81956
 O729 O 0.21346 0.77515 0.75227
 O730 O 0.24982 0.77580 0.80847
 O731 O 0.25366 0.77353 0.70141
 O732 O 0.28881 0.77414 0.75518
 Zr733 Zr 0.25175 0.69910 0.75560
 Zr734 Zr 0.21691 0.74839 0.70142
 Zr735 Zr 0.28582 0.74952 0.80812
 Zr736 Zr 0.21321 0.75115 0.80537
 O737 O 0.33082 0.74697 0.80683
 O738 O 0.16880 0.74931 0.79374
 O739 O 0.24913 0.72419 0.80894
 O740 O 0.21439 0.72413 0.75466
 O741 O 0.25298 0.72177 0.70087
 O742 O 0.28914 0.72306 0.75739
 C743 C 0.20216 0.81728 0.81098
 C744 C 0.29856 0.81476 0.81681
 C745 C 0.20501 0.81369 0.68908
 O746 O 0.17193 0.74724 0.70372
 O747 O 0.20231 0.70893 0.67827
 O748 O 0.22517 0.67528 0.71669
 C749 C 0.20722 0.68288 0.68902
 O750 O 0.30900 0.78413 0.68071
 Zr751 Zr 0.28954 0.74683 0.70430
 O752 O 0.27886 0.67367 0.71975
 O753 O 0.22232 0.74902 0.63774
 O754 O 0.28377 0.74525 0.64045
 O755 O 0.33415 0.74562 0.71449
 O756 O 0.30465 0.70650 0.68486
 C757 C 0.29836 0.68062 0.69443
 O758 O 0.22827 0.66764 0.78691
 O759 O 0.28048 0.75269 0.87171
 O760 O 0.27708 0.67592 0.79725
 O761 O 0.29860 0.71070 0.83498
 O762 O 0.21675 0.75594 0.86925
 O763 O 0.19747 0.71374 0.83379
 C764 C 0.29375 0.68430 0.82609
 H765 H 0.24965 0.78834 0.83277
 H766 H 0.19718 0.71201 0.75482
 H767 H 0.30659 0.71118 0.75948
 H768 H 0.25457 0.78559 0.67682
 H769 H 0.15892 0.75498 0.81905
 H770 H 0.16496 0.74760 0.67526
 H771 H 0.20301 0.74817 0.62554
 H772 H 0.30219 0.73940 0.62840
 H773 H 0.19765 0.76131 0.87947
 H774 H 0.29983 0.75319 0.88383
 H775 H 0.33752 0.74692 0.83543
 H776 H 0.34330 0.74029 0.68848
 H777 H 0.18163 0.71898 0.85212
 H778 H 0.23544 0.64862 0.77800
 H779 H 0.26630 0.84907 0.73012
 H780 H 0.32165 0.77872 0.65797
 Zr781 Zr 0.24709 0.20205 0.25930
 O782 O 0.22670 0.16905 0.22608
 O783 O 0.27217 0.17870 0.30074
 O784 O 0.27685 0.17688 0.22676
 O785 O 0.18926 0.21613 0.32055
 O786 O 0.30374 0.20988 0.19396
 O787 O 0.21677 0.18018 0.29455
 O788 O 0.29637 0.21353 0.33481
 O789 O 0.28475 0.22568 0.26228
 O790 O 0.24406 0.22812 0.31090
 O791 O 0.24890 0.22469 0.20423
 O792 O 0.20977 0.22686 0.25086
 Zr793 Zr 0.24711 0.30189 0.25089
 Zr794 Zr 0.28555 0.24972 0.20896
 Zr795 Zr 0.20855 0.25426 0.30156
 Zr796 Zr 0.28071 0.25271 0.31243
 O797 O 0.16406 0.25649 0.29137
 O798 O 0.32576 0.25336 0.30864
 O799 O 0.24504 0.27973 0.30658
 O800 O 0.28401 0.27696 0.25950
 O801 O 0.25015 0.27625 0.19881
 O802 O 0.20964 0.27800 0.24824
 C803 C 0.29088 0.18714 0.32680
 C804 C 0.19545 0.18947 0.31542
 C805 C 0.29758 0.18396 0.20342
 O806 O 0.33001 0.25135 0.21950
 O807 O 0.30217 0.28751 0.18478
 O808 O 0.27632 0.32365 0.21343
 C809 C 0.29646 0.31418 0.19041
 O810 O 0.19554 0.21321 0.17405
 Zr811 Zr 0.21331 0.25156 0.19776
 O812 O 0.22287 0.32526 0.20903
 O813 O 0.28573 0.24527 0.14503
 O814 O 0.22448 0.24961 0.13554
 O815 O 0.16821 0.25341 0.19967
 O816 O 0.20038 0.29094 0.17155
 C817 C 0.20572 0.31724 0.18071
 O818 O 0.26836 0.33483 0.28310
 O819 O 0.20841 0.25462 0.36580
 O820 O 0.21827 0.32709 0.28472
 O821 O 0.19430 0.29447 0.32283
 O822 O 0.27158 0.25217 0.37540
 O823 O 0.29475 0.29147 0.33973
 C824 C 0.19982 0.32024 0.31174
 H825 H 0.24224 0.21701 0.33627
 H826 H 0.30114 0.28912 0.26148
 H827 H 0.19219 0.28988 0.24604
 H828 H 0.24993 0.21145 0.18074
 H829 H 0.33348 0.24901 0.33602
 H830 H 0.33935 0.24937 0.19273
 H831 H 0.30593 0.24558 0.13656
 H832 H 0.20732 0.25490 0.11955
 H833 H 0.28951 0.24733 0.38989
 H834 H 0.18820 0.25472 0.37421
 H835 H 0.15502 0.25814 0.31838
 H836 H 0.16130 0.25764 0.17184
 H837 H 0.30917 0.28714 0.36093
 H838 H 0.26205 0.35328 0.27117
 H839 H 0.23299 0.15058 0.23799
 H840 H 0.18471 0.21755 0.14891
 Zr841 Zr 0.75059 0.69791 0.24754
 O842 O 0.76991 0.66672 0.28530
 O843 O 0.72484 0.67278 0.20982
 O844 O 0.71977 0.67651 0.28272
 O845 O 0.80925 0.70530 0.18581
 O846 O 0.69413 0.71303 0.31076
 O847 O 0.78031 0.67239 0.21526
 O848 O 0.70215 0.70541 0.16949
 O849 O 0.71365 0.72273 0.24064
 O850 O 0.75469 0.71990 0.19271
 O851 O 0.74897 0.72453 0.29917
 O852 O 0.78857 0.72156 0.25310
 Zr853 Zr 0.75351 0.79791 0.24251
 Zr854 Zr 0.71320 0.75072 0.29028
 Zr855 Zr 0.79084 0.74524 0.19920
 Zr856 Zr 0.71873 0.74562 0.18706
 O857 O 0.83533 0.74613 0.20969
 O858 O 0.67371 0.74827 0.19025
 O859 O 0.75512 0.77161 0.19012
 O860 O 0.71594 0.77395 0.23633
 O861 O 0.74937 0.77619 0.29758
 O862 O 0.79019 0.77275 0.24902
 C863 C 0.70674 0.67972 0.18211
 C864 C 0.80210 0.67940 0.19385
 C865 C 0.69933 0.68628 0.30493
 O866 O 0.66887 0.75299 0.27870
 O867 O 0.69713 0.79073 0.30847
 O868 O 0.72496 0.82340 0.27662
 C869 C 0.70410 0.81656 0.29984
 O870 O 0.80165 0.71272 0.33142
 Zr871 Zr 0.78535 0.75001 0.30250
 O872 O 0.77819 0.82315 0.28216
 O873 O 0.71251 0.75151 0.35449
 O874 O 0.77398 0.75310 0.36457
 O875 O 0.83049 0.74965 0.30097
 O876 O 0.79941 0.79020 0.32345
 C877 C 0.79492 0.81606 0.31158
 O878 O 0.73323 0.82943 0.20628
 O879 O 0.79125 0.74126 0.13520
 O880 O 0.78250 0.81933 0.20482
 O881 O 0.80691 0.78310 0.17382
 O882 O 0.72842 0.74021 0.12468
 O883 O 0.70583 0.78260 0.15425
 C884 C 0.80155 0.80982 0.18014
 H885 H 0.75635 0.70693 0.16899
 H886 H 0.69920 0.78662 0.23237
 H887 H 0.80794 0.78403 0.24992
 H888 H 0.74740 0.71317 0.32434
 H889 H 0.66598 0.74211 0.16357
 H890 H 0.65928 0.75333 0.30541
 H891 H 0.69225 0.75300 0.36250
 H892 H 0.79130 0.75857 0.38000
 H893 H 0.71052 0.73492 0.11052
 H894 H 0.81149 0.73985 0.12712
 H895 H 0.84458 0.74553 0.18274
 H896 H 0.83744 0.75535 0.32828
 H897 H 0.69133 0.77724 0.13369
 H898 H 0.74005 0.84836 0.21585
 H899 H 0.76315 0.64776 0.27577
 H900 H 0.81261 0.71832 0.35594
 Zr901 Zr 0.75043 0.29854 0.73889
 O902 O 0.72991 0.33403 0.76647
 O903 O 0.77888 0.31875 0.69970
 O904 O 0.77926 0.32323 0.77384
 O905 O 0.69607 0.28531 0.67011
 O906 O 0.80256 0.29010 0.81258
 O907 O 0.72326 0.32058 0.69822
 O908 O 0.80447 0.28157 0.67337
 O909 O 0.78685 0.27278 0.74363
 O910 O 0.74959 0.27073 0.68894
 O911 O 0.74751 0.27824 0.79558
 O912 O 0.71156 0.27631 0.74285
 Zr913 Zr 0.74481 0.19953 0.75457
 Zr914 Zr 0.78292 0.25093 0.79851
 Zr915 Zr 0.71237 0.24693 0.69436
 Zr916 Zr 0.78493 0.24415 0.69507
 O917 O 0.66737 0.24749 0.69719
 O918 O 0.82936 0.24060 0.70603
 O919 O 0.74774 0.21938 0.69720
 O920 O 0.78335 0.22188 0.74999
 O921 O 0.74562 0.22708 0.80484
 O922 O 0.70865 0.22558 0.74939
 C923 C 0.79932 0.30846 0.67822
 C924 C 0.70292 0.31177 0.67495
 C925 C 0.79829 0.31589 0.80028
 O926 O 0.82766 0.24577 0.79545
 O927 O 0.79543 0.21322 0.82836
 O928 O 0.77017 0.17761 0.79769
 C929 C 0.78884 0.18673 0.82343
 O930 O 0.69319 0.29432 0.81543
 Zr931 Zr 0.71029 0.25392 0.79803
 O932 O 0.71686 0.17940 0.79465
 O933 O 0.77901 0.25841 0.86161
 O934 O 0.71707 0.25769 0.86152
 O935 O 0.66552 0.25475 0.78933
 O936 O 0.69350 0.21671 0.82459
 C937 C 0.69817 0.18979 0.81906
 O938 O 0.76639 0.16414 0.72841
 O939 O 0.71690 0.24401 0.63061
 O940 O 0.71737 0.17460 0.71829
 O941 O 0.69736 0.20666 0.67431
 O942 O 0.78034 0.24326 0.63099
 O943 O 0.79847 0.20362 0.67266
 C944 C 0.70094 0.18112 0.68822
 H945 H 0.75001 0.28100 0.66272
 H946 H 0.79985 0.20865 0.75165
 H947 H 0.69058 0.21482 0.74974
 H948 H 0.74767 0.29237 0.81805
 H949 H 0.83912 0.24344 0.67977
 H950 H 0.83520 0.24834 0.82338
 H951 H 0.79847 0.25716 0.87328
 H952 H 0.69857 0.25427 0.87490
 H953 H 0.79944 0.24650 0.61931
 H954 H 0.69743 0.24468 0.61892
 H955 H 0.66023 0.24533 0.66897
 H956 H 0.65660 0.25245 0.81630
 H957 H 0.81433 0.20624 0.65338
 H958 H 0.75839 0.14657 0.74058
 H959 H 0.73785 0.35157 0.75412
 H960 H 0.68074 0.29190 0.83931
 C961 C 0.12766 0.40401 0.86250
 C962 C 0.13614 0.42624 0.88847
 C963 C 0.11549 0.44341 0.90704
 C964 C 0.08621 0.43872 0.89962
 C965 C 0.07895 0.41688 0.87179
 N966 N 0.09946 0.40015 0.85493
 C967 C 0.14809 0.38295 0.84585
 N968 N 0.13896 0.35570 0.83991
 C969 C 0.15618 0.33471 0.82538
 C970 C 0.18451 0.34063 0.81522
 C971 C 0.19439 0.36871 0.82039
 C972 C 0.17629 0.38992 0.83604
 H973 H 0.12260 0.45988 0.92794
 H974 H 0.05696 0.41222 0.86441
 H975 H 0.14752 0.31348 0.82131
 H976 H 0.21607 0.37416 0.81267
 H977 H 0.15836 0.42957 0.89583
 H978 H 0.18412 0.41151 0.83976
 C979 C 0.36522 0.60602 0.39617
 C980 C 0.39373 0.61460 0.39548
 C981 C 0.41489 0.59609 0.40922
 C982 C 0.40785 0.56897 0.42412
 C983 C 0.37903 0.56094 0.42380
 N984 N 0.35865 0.57937 0.40971
 C985 C 0.34271 0.62583 0.38204
 N986 N 0.32204 0.61658 0.35603
 C987 C 0.30315 0.63500 0.33827
 C988 C 0.30492 0.66459 0.34588
 C989 C 0.32507 0.67410 0.37450
 C990 C 0.34390 0.65487 0.39251
 H991 H 0.43675 0.60331 0.40890
 H992 H 0.37273 0.54015 0.43479
 H993 H 0.28773 0.62667 0.31680
 H994 H 0.32710 0.69660 0.38190
 H995 H 0.39965 0.63545 0.38415
 H996 H 0.35984 0.66275 0.41360
 C997 C 0.87606 0.89387 0.62318
 C998 C 0.90523 0.88820 0.62799
 C999 C 0.92506 0.90647 0.61088
 C1000 C 0.91604 0.93050 0.58873
 C1001 C 0.88660 0.93604 0.58586
 N1002 N 0.86758 0.91781 0.60292
 C1003 C 0.85478 0.87344 0.63846
 N1004 N 0.83055 0.88297 0.65678
 C1005 C 0.81123 0.86465 0.67303
 C1006 C 0.81585 0.83489 0.67115
 C1007 C 0.84024 0.82488 0.65096
 C1008 C 0.85963 0.84396 0.63478
 H1009 H 0.94746 0.90132 0.61421
 H1010 H 0.87870 0.95448 0.56944
 H1011 H 0.79261 0.87332 0.68797
 H1012 H 0.84480 0.80221 0.64837
 H1013 H 0.91266 0.86963 0.64461
 H1014 H 0.87835 0.83569 0.61957
 C1015 C 0.62936 0.10154 0.12165
 C1016 C 0.60721 0.09130 0.14593
 C1017 C 0.58593 0.07448 0.12842
 C1018 C 0.58717 0.06735 0.08711
 C1019 C 0.60992 0.07768 0.06405
 N1020 N 0.62996 0.09466 0.08151
 C1021 C 0.65114 0.12086 0.13838
 N1022 N 0.65898 0.14420 0.11666
 C1023 C 0.67771 0.16376 0.13150
 C1024 C 0.68986 0.16014 0.17017
 C1025 C 0.68290 0.13560 0.19231
 C1026 C 0.66336 0.11605 0.17668
 H1027 H 0.56862 0.06698 0.14707
 H1028 H 0.61135 0.07290 0.03192
 H1029 H 0.68270 0.18234 0.11342
 H1030 H 0.69167 0.13210 0.22238
 H1031 H 0.60593 0.09693 0.17779
 H1032 H 0.65772 0.09747 0.19438
 C1033 C 0.86784 0.10135 0.39906
 C1034 C 0.89649 0.10933 0.39851
 C1035 C 0.91720 0.09034 0.41211
 C1036 C 0.90960 0.06329 0.42674
 C1037 C 0.88064 0.05580 0.42613
 N1038 N 0.86067 0.07475 0.41219
 C1039 C 0.84590 0.12185 0.38532
 N1040 N 0.82568 0.11367 0.35793
 C1041 C 0.80755 0.13289 0.34037
 C1042 C 0.80965 0.16224 0.34969
 C1043 C 0.82938 0.17066 0.37954
 C1044 C 0.84746 0.15060 0.39730
 H1045 H 0.93918 0.09720 0.41200
 H1046 H 0.87391 0.03508 0.43689
 H1047 H 0.79240 0.12539 0.31790
 H1048 H 0.83166 0.19291 0.38815
 H1049 H 0.90284 0.13014 0.38752
 H1050 H 0.86317 0.15761 0.41934
 C1051 C 0.37706 0.39229 0.61030
 C1052 C 0.40634 0.38683 0.61333
 C1053 C 0.42551 0.40628 0.59750
 C1054 C 0.41575 0.43133 0.57839
 C1055 C 0.38623 0.43652 0.57716
 N1056 N 0.36783 0.41713 0.59301
 C1057 C 0.35647 0.37113 0.62538
 N1058 N 0.33267 0.37999 0.64533
 C1059 C 0.31419 0.36112 0.66214
 C1060 C 0.31933 0.33148 0.65939
 C1061 C 0.34319 0.32208 0.63752
 C1062 C 0.36171 0.34175 0.62059
 H1063 H 0.44801 0.40129 0.59956
 H1064 H 0.37778 0.45567 0.56306
 H1065 H 0.29589 0.36932 0.67834
 H1066 H 0.34800 0.29950 0.63423
 H1067 H 0.41441 0.36765 0.62783
 H1068 H 0.38011 0.33402 0.60411
 C1069 C 0.62831 0.90645 0.88252
 C1070 C 0.63408 0.92064 0.91917
 C1071 C 0.61378 0.93922 0.93544
 C1072 C 0.58750 0.94328 0.91569
 C1073 C 0.58285 0.92921 0.87851
 N1074 N 0.60316 0.91145 0.86294
 C1075 C 0.64845 0.88513 0.86601
 N1076 N 0.65454 0.88506 0.82566
 C1077 C 0.67222 0.86520 0.80879
 C1078 C 0.68402 0.84330 0.83270
 C1079 C 0.67781 0.84285 0.87423
 C1080 C 0.66037 0.86398 0.89111
 H1081 H 0.61820 0.94950 0.96431
 H1082 H 0.56293 0.93192 0.86223
 H1083 H 0.67620 0.86587 0.77650
 H1084 H 0.68638 0.82612 0.89349
 H1085 H 0.65398 0.91714 0.93522
 H1086 H 0.65547 0.86327 0.92318
 C1087 C 0.12889 0.59471 0.11428
 C1088 C 0.10539 0.58479 0.13611
 C1089 C 0.08543 0.56728 0.11685
 C1090 C 0.08920 0.55905 0.07623
 C1091 C 0.11346 0.56869 0.05583
 N1092 N 0.13218 0.58647 0.07486
 C1093 C 0.14897 0.61537 0.13261
 N1094 N 0.15799 0.63801 0.11031
 C1095 C 0.17502 0.65873 0.12626
 C1096 C 0.18422 0.65716 0.16685
 C1097 C 0.17585 0.63351 0.18995
 C1098 C 0.15806 0.61274 0.17308
 H1099 H 0.06690 0.56042 0.13352
 H1100 H 0.11689 0.56307 0.02432
 H1101 H 0.18120 0.67650 0.10735
 H1102 H 0.18237 0.63152 0.22143
 H1103 H 0.10189 0.59141 0.16723
 H1104 H 0.15144 0.59485 0.19146
 C1105 C 0.37970 0.88885 0.11622
 C1106 C 0.40898 0.88385 0.12100
 C1107 C 0.42825 0.90411 0.10748
 C1108 C 0.41851 0.92940 0.08910
 C1109 C 0.38898 0.93401 0.08606
 N1110 N 0.37055 0.91391 0.09960
 C1111 C 0.35871 0.86752 0.12926
 N1112 N 0.33329 0.87648 0.14445
 C1113 C 0.31363 0.85783 0.15858
 C1114 C 0.31915 0.82823 0.15783
 C1115 C 0.34480 0.81859 0.14080
 C1116 C 0.36458 0.83811 0.12655
 H1117 H 0.45079 0.89963 0.11069
 H1118 H 0.38052 0.95331 0.07237
 H1119 H 0.29401 0.86619 0.17108
 H1120 H 0.34994 0.79600 0.13935
 H1121 H 0.41698 0.86454 0.13518
 H1122 H 0.38424 0.83023 0.11357
 C1123 C 0.62560 0.40466 0.36684
 C1124 C 0.63392 0.43020 0.38591
 C1125 C 0.61318 0.44817 0.40258
 C1126 C 0.58427 0.44083 0.39992
 C1127 C 0.57689 0.41564 0.37920
 N1128 N 0.59746 0.39827 0.36397
 C1129 C 0.64640 0.38320 0.35270
 N1130 N 0.63872 0.35522 0.35336
 C1131 C 0.65640 0.33392 0.34106
 C1132 C 0.68360 0.34029 0.32642
 C1133 C 0.69196 0.36907 0.32513
 C1134 C 0.67347 0.39061 0.33844
 H1135 H 0.61983 0.46737 0.41842
 H1136 H 0.55490 0.40906 0.37651
 H1137 H 0.64889 0.31209 0.34212
 H1138 H 0.71268 0.37494 0.31370
 H1139 H 0.65614 0.43565 0.38959
 H1140 H 0.68006 0.41271 0.33674
 C1141 C 0.87126 0.60283 0.88645
 C1142 C 0.89969 0.60748 0.87624
 C1143 C 0.92051 0.58829 0.88900
 C1144 C 0.91332 0.56436 0.91272
 C1145 C 0.88414 0.55992 0.92075
 N1146 N 0.86414 0.57904 0.90763
 C1147 C 0.84949 0.62421 0.87548
 N1148 N 0.82504 0.61611 0.85635
 C1149 C 0.80578 0.63565 0.84228
 C1150 C 0.81088 0.66512 0.84705
 C1151 C 0.83537 0.67359 0.86848
 C1152 C 0.85468 0.65327 0.88252
 H1153 H 0.94236 0.59289 0.88109
 H1154 H 0.87717 0.54169 0.93818
 H1155 H 0.78703 0.62818 0.82630
 H1156 H 0.84024 0.69598 0.87314
 H1157 H 0.90578 0.62604 0.85878
 H1158 H 0.87384 0.66019 0.89807
 C1159 C 0.13092 0.09558 0.61829
 C1160 C 0.10844 0.08604 0.64250
 C1161 C 0.08756 0.06859 0.62544
 C1162 C 0.08947 0.06015 0.58469
 C1163 C 0.11264 0.06959 0.56175
 N1164 N 0.13231 0.08726 0.57871
 C1165 C 0.15199 0.11589 0.63437
 N1166 N 0.15993 0.13847 0.61116
 C1167 C 0.17788 0.15899 0.62531
 C1168 C 0.18906 0.15718 0.66480
 C1169 C 0.18186 0.13354 0.68868
 C1170 C 0.16316 0.11298 0.67369
 H1171 H 0.06988 0.06180 0.64395
 H1172 H 0.11455 0.06376 0.53002
 H1173 H 0.18314 0.17681 0.60591
 H1174 H 0.18992 0.13147 0.71942
 H1175 H 0.10651 0.09282 0.67384
 H1176 H 0.15737 0.09509 0.69265
 C1177 C 0.12778 0.40667 0.38111
 C1178 C 0.13373 0.42071 0.41782
 C1179 C 0.11351 0.43925 0.43442
 C1180 C 0.08715 0.44340 0.41493
 C1181 C 0.08233 0.42949 0.37766
 N1182 N 0.10255 0.41177 0.36179
 C1183 C 0.14778 0.38533 0.36434
 N1184 N 0.15375 0.38534 0.32396
 C1185 C 0.17128 0.36544 0.30686
 C1186 C 0.18302 0.34341 0.33058
 C1187 C 0.17692 0.34286 0.37214
 C1188 C 0.15964 0.36403 0.38925
 H1189 H 0.11805 0.44940 0.46333
 H1190 H 0.06236 0.43228 0.36157
 H1191 H 0.17519 0.36620 0.27455
 H1192 H 0.18547 0.32604 0.39126
 H1193 H 0.15368 0.41713 0.43369
 H1194 H 0.15483 0.36325 0.42133
 C1195 C 0.36814 0.60159 0.89877
 C1196 C 0.39678 0.60966 0.89854
 C1197 C 0.41748 0.59067 0.91222
 C1198 C 0.40987 0.56356 0.92662
 C1199 C 0.38094 0.55600 0.92570
 N1200 N 0.36098 0.57493 0.91168
 C1201 C 0.34619 0.62206 0.88494
 N1202 N 0.32601 0.61384 0.85752
 C1203 C 0.30783 0.63303 0.83997
 C1204 C 0.30982 0.66237 0.84936
 C1205 C 0.32952 0.67082 0.87925
 C1206 C 0.34766 0.65080 0.89698
 H1207 H 0.43944 0.59758 0.91235
 H1208 H 0.37422 0.53523 0.93627
 H1209 H 0.29271 0.62550 0.81747
 H1210 H 0.33172 0.69307 0.88792
 H1211 H 0.40312 0.63051 0.88773
 H1212 H 0.36332 0.65785 0.91907
 C1213 C 0.62911 0.09487 0.61746
 C1214 C 0.60581 0.08470 0.63950
 C1215 C 0.58591 0.06706 0.62037
 C1216 C 0.58954 0.05896 0.57968
 C1217 C 0.61362 0.06882 0.55908
 N1218 N 0.63228 0.08672 0.57799
 C1219 C 0.64907 0.11570 0.63564
 N1220 N 0.65782 0.13841 0.61326
 C1221 C 0.67474 0.15928 0.62907
 C1222 C 0.68411 0.15778 0.66957
 C1223 C 0.67602 0.13407 0.69277
 C1224 C 0.65833 0.11316 0.67604
 H1225 H 0.56750 0.06003 0.63718
 H1226 H 0.61693 0.06331 0.52750
 H1227 H 0.68072 0.17708 0.61009
 H1228 H 0.68268 0.13214 0.72418
 H1229 H 0.60240 0.09124 0.67067
 H1230 H 0.65193 0.09521 0.69449
 C1231 C 0.87721 0.89174 0.10972
 C1232 C 0.90648 0.88610 0.11227
 C1233 C 0.92564 0.90560 0.09657
 C1234 C 0.91590 0.93088 0.07806
 C1235 C 0.88640 0.93623 0.07728
 N1236 N 0.86800 0.91678 0.09301
 C1237 C 0.85661 0.87058 0.12474
 N1238 N 0.83301 0.87940 0.14520
 C1239 C 0.81457 0.86051 0.16202
 C1240 C 0.81953 0.83086 0.15876
 C1241 C 0.84316 0.82150 0.13635
 C1242 C 0.86165 0.84121 0.11941
 H1243 H 0.94813 0.90048 0.09825
 H1244 H 0.87796 0.95555 0.06366
 H1245 H 0.79644 0.86868 0.17865
 H1246 H 0.84783 0.79893 0.13266
 H1247 H 0.91454 0.86675 0.12630
 H1248 H 0.87988 0.83350 0.10252
 C1249 C 0.86532 0.10675 0.89788
 C1250 C 0.89387 0.11518 0.89705
 C1251 C 0.91497 0.09651 0.91053
 C1252 C 0.90784 0.06938 0.92529
 C1253 C 0.87898 0.06151 0.92514
 N1254 N 0.85865 0.08009 0.91129
 C1255 C 0.84288 0.12667 0.88386
 N1256 N 0.82204 0.11748 0.85810
 C1257 C 0.80321 0.13597 0.84036
 C1258 C 0.80523 0.16557 0.84772
 C1259 C 0.82556 0.17505 0.87610
 C1260 C 0.84432 0.15575 0.89411
 H1261 H 0.93686 0.10362 0.91010
 H1262 H 0.87261 0.04071 0.93604
 H1263 H 0.78764 0.12766 0.81909
 H1264 H 0.82777 0.19756 0.88330
 H1265 H 0.89987 0.13601 0.88579
 H1266 H 0.86039 0.16359 0.91501
 C1267 C 0.12944 0.60153 0.62140
 C1268 C 0.10732 0.59121 0.64568
 C1269 C 0.08607 0.57436 0.62815
 C1270 C 0.08729 0.56727 0.58682
 C1271 C 0.11001 0.57766 0.56376
 N1272 N 0.13003 0.59467 0.58124
 C1273 C 0.15117 0.62089 0.63817
 N1274 N 0.15893 0.64430 0.61653
 C1275 C 0.17759 0.66391 0.63144
 C1276 C 0.18977 0.66027 0.67009
 C1277 C 0.18289 0.63565 0.69214
 C1278 C 0.16341 0.61606 0.67644
 H1279 H 0.06878 0.56681 0.64681
 H1280 H 0.11143 0.57292 0.53163
 H1281 H 0.18251 0.68253 0.61341
 H1282 H 0.19168 0.63213 0.72219
 H1283 H 0.10605 0.59680 0.67755
 H1284 H 0.15784 0.59744 0.69408
 C1285 C 0.62898 0.90295 0.36399
 C1286 C 0.63745 0.92735 0.38582
 C1287 C 0.61678 0.94473 0.40403
 C1288 C 0.58774 0.93802 0.40016
 C1289 C 0.58026 0.91397 0.37688
 N1290 N 0.60075 0.89714 0.36019
 C1291 C 0.64958 0.88191 0.34772
 N1292 N 0.64124 0.85418 0.34490
 C1293 C 0.65848 0.83320 0.33042
 C1294 C 0.68600 0.83960 0.31694
 C1295 C 0.69510 0.86814 0.31909
 C1296 C 0.67701 0.88937 0.33475
 H1297 H 0.62355 0.96301 0.42186
 H1298 H 0.55822 0.90784 0.37312
 H1299 H 0.65038 0.81159 0.32887
 H1300 H 0.71612 0.87400 0.30879
 H1301 H 0.65972 0.93231 0.39029
 H1302 H 0.68419 0.91131 0.33586
 C1303 C 0.37578 0.39386 0.12237
 C1304 C 0.40494 0.38823 0.12742
 C1305 C 0.42481 0.40649 0.11038
 C1306 C 0.41585 0.43047 0.08808
 C1307 C 0.38641 0.43598 0.08500
 N1308 N 0.36734 0.41776 0.10197
 C1309 C 0.35447 0.37343 0.13756
 N1310 N 0.33014 0.38296 0.15561
 C1311 C 0.31077 0.36464 0.17175
 C1312 C 0.31545 0.33489 0.17005
 C1313 C 0.33996 0.32487 0.15014
 C1314 C 0.35939 0.34395 0.13405
 H1315 H 0.44720 0.40137 0.11390
 H1316 H 0.37854 0.45438 0.06846
 H1317 H 0.29206 0.37331 0.18647
 H1318 H 0.34457 0.30220 0.14770
 H1319 H 0.41233 0.36970 0.14416
 H1320 H 0.37818 0.33568 0.11905
 C1321 C 0.63116 0.59497 0.11828
 C1322 C 0.60875 0.58534 0.14254
 C1323 C 0.58786 0.56789 0.12548
 C1324 C 0.58971 0.55955 0.08469
 C1325 C 0.61282 0.56907 0.06170
 N1326 N 0.63249 0.58674 0.07867
 C1327 C 0.65219 0.61531 0.13435
 N1328 N 0.66001 0.63797 0.11121
 C1329 C 0.67794 0.65850 0.12536
 C1330 C 0.68925 0.65660 0.16476
 C1331 C 0.68218 0.63289 0.18857
 C1332 C 0.66348 0.61233 0.17359
 H1333 H 0.57023 0.56103 0.14403
 H1334 H 0.61467 0.56332 0.02994
 H1335 H 0.68310 0.67638 0.10602
 H1336 H 0.69035 0.63075 0.21924
 H1337 H 0.60687 0.59204 0.17392
 H1338 H 0.65780 0.59436 0.19249
 C1339 C 0.12558 0.90483 0.86671
 C1340 C 0.13389 0.93040 0.88572
 C1341 C 0.11316 0.94840 0.90232
 C1342 C 0.08424 0.94108 0.89966
 C1343 C 0.07686 0.91586 0.87899
 N1344 N 0.09743 0.89846 0.86383
 C1345 C 0.14638 0.88335 0.85265
 N1346 N 0.13872 0.85536 0.85338
 C1347 C 0.15640 0.83405 0.84114
 C1348 C 0.18360 0.84041 0.82647
 C1349 C 0.19195 0.86920 0.82511
 C1350 C 0.17345 0.89074 0.83837
 H1351 H 0.11981 0.96761 0.91813
 H1352 H 0.05487 0.90929 0.87631
 H1353 H 0.14889 0.81222 0.84226
 H1354 H 0.21267 0.87506 0.81366
 H1355 H 0.15611 0.93584 0.88941
 H1356 H 0.18003 0.91284 0.83661
 C1357 C 0.36927 0.10513 0.39184
 C1358 C 0.39787 0.11335 0.39073
 C1359 C 0.41889 0.09429 0.40317
 C1360 C 0.41159 0.06700 0.41711
 C1361 C 0.38270 0.05929 0.41697
 N1362 N 0.36245 0.07829 0.40425
 C1363 C 0.34686 0.12552 0.37963
 N1364 N 0.32548 0.11708 0.35428
 C1365 C 0.30625 0.13606 0.33870
 C1366 C 0.30832 0.16536 0.34814
 C1367 C 0.32934 0.17401 0.37599
 C1368 C 0.34858 0.15423 0.39169
 H1369 H 0.44084 0.10123 0.40273
 H1370 H 0.37622 0.03836 0.42719
 H1371 H 0.29017 0.12841 0.31770
 H1372 H 0.33164 0.19626 0.38467
 H1373 H 0.40392 0.13437 0.38022
 H1374 H 0.36510 0.16140 0.41236
 C1375 C 0.87961 0.38921 0.61695
 C1376 C 0.90889 0.38403 0.62141
 C1377 C 0.92821 0.40420 0.60774
 C1378 C 0.91851 0.42957 0.58952
 C1379 C 0.88900 0.43435 0.58679
 N1380 N 0.87052 0.41433 0.60047
 C1381 C 0.85858 0.36797 0.63012
 N1382 N 0.83327 0.37705 0.64557
 C1383 C 0.81358 0.35848 0.65982
 C1384 C 0.81893 0.32886 0.65891
 C1385 C 0.84444 0.31911 0.64160
 C1386 C 0.86426 0.33855 0.62724
 H1387 H 0.95075 0.39959 0.61071
 H1388 H 0.88058 0.45371 0.57324
 H1389 H 0.79406 0.36692 0.67254
 H1390 H 0.84946 0.29649 0.64002
 H1391 H 0.91685 0.36466 0.63547
 H1392 H 0.88383 0.33057 0.61404
 C1393 C 0.87511 0.59633 0.11673
 C1394 C 0.86584 0.57318 0.09279
 C1395 C 0.88587 0.55659 0.07168
 C1396 C 0.91504 0.56291 0.07457
 C1397 C 0.92327 0.58610 0.09913
 N1398 N 0.90344 0.60201 0.11889
 C1399 C 0.85533 0.61616 0.13779
 N1400 N 0.86474 0.64300 0.14622
 C1401 C 0.84830 0.66303 0.16473
 C1402 C 0.82037 0.65660 0.17633
 C1403 C 0.81029 0.62880 0.16906
 C1404 C 0.82767 0.60852 0.14961
 H1405 H 0.87852 0.53896 0.05301
 H1406 H 0.94543 0.59194 0.10231
 H1407 H 0.85712 0.68405 0.17013
 H1408 H 0.78888 0.62297 0.17760
 H1409 H 0.84346 0.56835 0.08939
 H1410 H 0.81958 0.58721 0.14428
 C1411 C 0.63027 0.39358 0.59415
 C1412 C 0.63821 0.42013 0.57798
 C1413 C 0.61736 0.43804 0.56094
 C1414 C 0.58869 0.42966 0.56034
 C1415 C 0.58184 0.40280 0.57640
 N1416 N 0.60245 0.38575 0.59243
 C1417 C 0.65088 0.37341 0.61285
 N1418 N 0.64391 0.34522 0.61401
 C1419 C 0.66054 0.32529 0.63255
 C1420 C 0.68581 0.33334 0.65242
 C1421 C 0.69360 0.36232 0.65148
 C1422 C 0.67626 0.38240 0.63162
 H1423 H 0.62361 0.45852 0.54869
 H1424 H 0.56011 0.39523 0.57620
 H1425 H 0.65354 0.30327 0.63250
 H1426 H 0.71285 0.36953 0.66648
 H1427 H 0.66020 0.42688 0.57793
 H1428 H 0.68225 0.40471 0.63224
 C1429 C 0.11976 0.10758 0.38713
 C1430 C 0.09036 0.11109 0.38151
 C1431 C 0.07170 0.09176 0.39879
 C1432 C 0.08202 0.06866 0.42186
 C1433 C 0.11170 0.06539 0.42592
 N1434 N 0.12962 0.08466 0.40862
 C1435 C 0.13974 0.12882 0.37042
 N1436 N 0.16506 0.12024 0.35434
 C1437 C 0.18336 0.13906 0.33689
 C1438 C 0.17652 0.16839 0.33512
 C1439 C 0.15083 0.17757 0.35256
 C1440 C 0.13251 0.15798 0.37012
 H1441 H 0.04909 0.09520 0.39433
 H1442 H 0.12063 0.04779 0.44314
 H1443 H 0.20310 0.13108 0.32429
 H1444 H 0.14463 0.19992 0.35232
 H1445 H 0.08180 0.12862 0.36376
 H1446 H 0.11288 0.16564 0.38348
 C1447 C 0.37250 0.89747 0.89195
 C1448 C 0.36372 0.92260 0.91189
 C1449 C 0.38407 0.94011 0.93051
 C1450 C 0.41310 0.93278 0.92888
 C1451 C 0.42088 0.90752 0.90849
 N1452 N 0.40070 0.89070 0.89116
 C1453 C 0.35219 0.87726 0.87316
 N1454 N 0.35981 0.84920 0.87093
 C1455 C 0.34290 0.82911 0.85358
 C1456 C 0.31657 0.83685 0.83631
 C1457 C 0.30829 0.86575 0.83779
 C1458 C 0.32597 0.88602 0.85641
 H1459 H 0.37711 0.95936 0.94604
 H1460 H 0.44295 0.90087 0.90673
 H1461 H 0.35033 0.80715 0.85282
 H1462 H 0.28819 0.87264 0.82472
 H1463 H 0.34143 0.92835 0.91398
 H1464 H 0.31945 0.90826 0.85682
 C1465 C 0.13087 0.89656 0.61469
 C1466 C 0.10785 0.90691 0.63743
 C1467 C 0.08727 0.92401 0.61875
 C1468 C 0.08989 0.93142 0.57777
 C1469 C 0.11361 0.92128 0.55624
 N1470 N 0.13304 0.90387 0.57481
 C1471 C 0.15174 0.87669 0.63312
 N1472 N 0.15953 0.85253 0.61269
 C1473 C 0.17691 0.83235 0.62955
 C1474 C 0.18768 0.83612 0.66908
 C1475 C 0.18059 0.86132 0.69010
 C1476 C 0.16246 0.88150 0.67238
 H1477 H 0.06921 0.93142 0.63629
 H1478 H 0.11614 0.92639 0.52445
 H1479 H 0.18212 0.81331 0.61224
 H1480 H 0.18835 0.86500 0.72071
 H1481 H 0.10532 0.90106 0.66897
 H1482 H 0.15670 0.90060 0.68925
 C1483 C 0.62059 0.60844 0.37876
 C1484 C 0.59161 0.61577 0.37937
 C1485 C 0.57225 0.59756 0.39755
 C1486 C 0.58148 0.57184 0.41525
 C1487 C 0.61063 0.56487 0.41317
 N1488 N 0.62923 0.58310 0.39515
 C1489 C 0.64157 0.62834 0.36134
 N1490 N 0.66424 0.61821 0.33986
 C1491 C 0.68327 0.63605 0.32191
 C1492 C 0.67996 0.66591 0.32524
 C1493 C 0.65711 0.67651 0.34827
 C1494 C 0.63805 0.65793 0.36626
 H1495 H 0.55003 0.60384 0.39796
 H1496 H 0.61862 0.54508 0.42594
 H1497 H 0.70070 0.62693 0.30477
 H1498 H 0.65369 0.69928 0.35225
 H1499 H 0.58389 0.63540 0.36574
 H1500 H 0.62075 0.66672 0.38403
 C1501 C 0.37192 0.09891 0.13293
 C1502 C 0.36340 0.07316 0.11440
 C1503 C 0.38374 0.05581 0.09515
 C1504 C 0.41251 0.06394 0.09465
 C1505 C 0.42003 0.08963 0.11412
 N1506 N 0.39988 0.10622 0.13204
 C1507 C 0.35164 0.11950 0.15139
 N1508 N 0.35935 0.14748 0.15319
 C1509 C 0.34248 0.16809 0.16957
 C1510 C 0.31594 0.16110 0.18608
 C1511 C 0.30760 0.13227 0.18527
 C1512 C 0.32532 0.11141 0.16775
 H1513 H 0.37695 0.03622 0.08042
 H1514 H 0.44184 0.09696 0.11448
 H1515 H 0.35001 0.18993 0.16985
 H1516 H 0.28736 0.12590 0.19782
 H1517 H 0.34128 0.06687 0.11364
 H1518 H 0.31866 0.08929 0.16771
 C1519 C 0.87380 0.39942 0.87076
 C1520 C 0.86515 0.42303 0.89418
 C1521 C 0.88570 0.44029 0.91298
 C1522 C 0.91503 0.43442 0.90806
 C1523 C 0.92247 0.41073 0.88345
 N1524 N 0.90206 0.39405 0.86634
 C1525 C 0.85332 0.37903 0.85254
 N1526 N 0.86128 0.35110 0.84923
 C1527 C 0.84404 0.33085 0.83285
 C1528 C 0.81699 0.33828 0.81775
 C1529 C 0.80843 0.36709 0.82004
 C1530 C 0.82644 0.38751 0.83778
 H1531 H 0.87848 0.45813 0.93141
 H1532 H 0.94450 0.40489 0.87830
 H1533 H 0.85166 0.30897 0.83128
 H1534 H 0.78776 0.37371 0.80864
 H1535 H 0.84281 0.42762 0.89899
 H1536 H 0.81962 0.40964 0.83922
 C1537 C 0.61968 0.10974 0.88602
 C1538 C 0.59044 0.11489 0.88121
 C1539 C 0.57104 0.09533 0.89628
 C1540 C 0.58064 0.07064 0.91635
 C1541 C 0.61014 0.06574 0.91921
 N1542 N 0.62871 0.08515 0.90410
 C1543 C 0.64066 0.13068 0.87188
 N1544 N 0.66533 0.12140 0.85471
 C1545 C 0.68465 0.13987 0.83914
 C1546 C 0.67951 0.16953 0.84043
 C1547 C 0.65475 0.17944 0.85966
 C1548 C 0.63531 0.16013 0.87530
 H1549 H 0.54853 0.10002 0.89319
 H1550 H 0.61846 0.04685 0.93415
 H1551 H 0.70361 0.13132 0.82494
 H1552 H 0.64990 0.20208 0.86155
 H1553 H 0.58261 0.13390 0.86603
 H1554 H 0.61620 0.16817 0.88970
 C1555 C 0.37192 0.59318 0.63042
 C1556 C 0.36314 0.56854 0.60942
 C1557 C 0.38357 0.55083 0.59134
 C1558 C 0.41264 0.55746 0.59465
 C1559 C 0.42045 0.58162 0.61750
 N1560 N 0.40019 0.59881 0.63393
 C1561 C 0.35159 0.61464 0.64598
 N1562 N 0.35974 0.64249 0.64641
 C1563 C 0.34274 0.66378 0.66056
 C1564 C 0.31582 0.65752 0.67634
 C1565 C 0.30690 0.62888 0.67639
 C1566 C 0.32466 0.60737 0.66091
 H1567 H 0.37660 0.53245 0.57388
 H1568 H 0.44255 0.58767 0.62079
 H1569 H 0.35066 0.68547 0.66036
 H1570 H 0.28635 0.62314 0.68853
 H1571 H 0.34079 0.56372 0.60535
 H1572 H 0.31770 0.58534 0.66162
 C1573 C 0.13296 0.40066 0.10634
 C1574 C 0.11155 0.41262 0.13071
 C1575 C 0.09064 0.42988 0.11301
 C1576 C 0.09161 0.43582 0.07143
 C1577 C 0.11379 0.42405 0.04826
 N1578 N 0.13343 0.40653 0.06593
 C1579 C 0.15394 0.38067 0.12371
 N1580 N 0.15865 0.35496 0.10530
 C1581 C 0.17596 0.33468 0.12199
 C1582 C 0.18973 0.33995 0.15921
 C1583 C 0.18606 0.36688 0.17759
 C1584 C 0.16796 0.38714 0.16018
 H1585 H 0.07370 0.43850 0.13167
 H1586 H 0.11488 0.42794 0.01592
 H1587 H 0.17846 0.31430 0.10665
 H1588 H 0.19631 0.37194 0.20623
 H1589 H 0.11049 0.40787 0.16282
 H1590 H 0.16466 0.40752 0.17524
 C1591 C 0.86799 0.90121 0.38106
 C1592 C 0.86003 0.92728 0.39915
 C1593 C 0.88102 0.94471 0.41645
 C1594 C 0.90979 0.93637 0.41497
 C1595 C 0.91675 0.91055 0.39546
 N1596 N 0.89597 0.89374 0.37981
 C1597 C 0.84708 0.88050 0.36543
 N1598 N 0.85357 0.85222 0.36857
 C1599 C 0.83655 0.83150 0.35318
 C1600 C 0.81156 0.83876 0.33196
 C1601 C 0.80423 0.86785 0.32853
 C1602 C 0.82184 0.88882 0.34560
 H1603 H 0.87477 0.96445 0.43135
 H1604 H 0.93858 0.90313 0.39386
 H1605 H 0.84322 0.80942 0.35634
 H1606 H 0.78517 0.87434 0.31227
 H1607 H 0.83787 0.93358 0.40123
 H1608 H 0.81634 0.91120 0.34202
 C1609 C 0.87218 0.59891 0.63341
 C1610 C 0.86362 0.57315 0.61498
 C1611 C 0.88392 0.55580 0.59563
 C1612 C 0.91267 0.56395 0.59496
 C1613 C 0.92023 0.58966 0.61435
 N1614 N 0.90013 0.60625 0.63235
 C1615 C 0.85194 0.61950 0.65195
 N1616 N 0.85963 0.64749 0.65362
 C1617 C 0.84280 0.66810 0.67009
 C1618 C 0.81635 0.66109 0.68686
 C1619 C 0.80804 0.63225 0.68618
 C1620 C 0.82570 0.61139 0.66855
 H1621 H 0.87710 0.53620 0.58098
 H1622 H 0.94204 0.59700 0.61456
 H1623 H 0.85031 0.68994 0.67026
 H1624 H 0.78786 0.62588 0.69893
 H1625 H 0.84150 0.56684 0.61436
 H1626 H 0.81907 0.58927 0.66862
 C1627 C 0.63076 0.39613 0.11440
 C1628 C 0.60759 0.40626 0.13702
 C1629 C 0.58698 0.42331 0.11829
 C1630 C 0.58973 0.43088 0.07738
 C1631 C 0.61357 0.42092 0.05598
 N1632 N 0.63303 0.40356 0.07459
 C1633 C 0.65170 0.37635 0.13289
 N1634 N 0.65968 0.35226 0.11243
 C1635 C 0.67713 0.33216 0.12934
 C1636 C 0.68777 0.33593 0.16893
 C1637 C 0.68050 0.36107 0.18998
 C1638 C 0.66229 0.38117 0.17222
 H1639 H 0.56883 0.43058 0.13575
 H1640 H 0.61621 0.42616 0.02425
 H1641 H 0.68248 0.31317 0.11201
 H1642 H 0.68815 0.36474 0.22065
 H1643 H 0.60498 0.40030 0.16851
 H1644 H 0.65638 0.40020 0.18911
 C1645 C 0.37267 0.89838 0.37215
 C1646 C 0.36436 0.92492 0.38863
 C1647 C 0.38474 0.94227 0.40772
 C1648 C 0.41334 0.93337 0.40996
 C1649 C 0.42063 0.90678 0.39280
 N1650 N 0.40044 0.89019 0.37503
 C1651 C 0.35224 0.87814 0.35338
 N1652 N 0.35868 0.84975 0.35445
 C1653 C 0.34161 0.82952 0.33769
 C1654 C 0.31629 0.83736 0.31763
 C1655 C 0.30931 0.86660 0.31551
 C1656 C 0.32713 0.88705 0.33358
 H1657 H 0.37816 0.96259 0.42061
 H1658 H 0.44233 0.89887 0.39403
 H1659 H 0.34808 0.80731 0.33976
 H1660 H 0.29005 0.87361 0.30020
 H1661 H 0.34238 0.93192 0.38775
 H1662 H 0.32157 0.90949 0.33130
 C1663 C 0.12012 0.10923 0.87943
 C1664 C 0.09111 0.11641 0.88020
 C1665 C 0.07189 0.09806 0.89837
 C1666 C 0.08128 0.07233 0.91589
 C1667 C 0.11045 0.06552 0.91369
 N1668 N 0.12892 0.08388 0.89568
 C1669 C 0.14095 0.12922 0.86187
 N1670 N 0.16366 0.11916 0.84041
 C1671 C 0.18255 0.13705 0.82230
 C1672 C 0.17905 0.16690 0.82540
 C1673 C 0.15615 0.17744 0.84837
 C1674 C 0.13724 0.15880 0.86656
 H1675 H 0.04964 0.10423 0.89887
 H1676 H 0.11856 0.04573 0.92633
 H1677 H 0.20003 0.12796 0.80521
 H1678 H 0.15260 0.20020 0.85218
 H1679 H 0.08325 0.13601 0.86666
 H1680 H 0.11991 0.16755 0.88431
 C1681 C 0.13050 0.89316 0.09282
 C1682 C 0.13839 0.91982 0.07697
 C1683 C 0.11750 0.93781 0.06021
 C1684 C 0.08884 0.92939 0.05957
 C1685 C 0.08204 0.90242 0.07529
 N1686 N 0.10269 0.88529 0.09105
 C1687 C 0.15115 0.87292 0.11125
 N1688 N 0.14426 0.84470 0.11203
 C1689 C 0.16092 0.82471 0.13038
 C1690 C 0.18611 0.83272 0.15047
 C1691 C 0.19383 0.86173 0.14989
 C1692 C 0.17648 0.88187 0.13020
 H1693 H 0.12370 0.95837 0.04821
 H1694 H 0.06032 0.89482 0.07503
 H1695 H 0.15398 0.80267 0.13005
 H1696 H 0.21303 0.86891 0.16508
 H1697 H 0.16036 0.92660 0.07697
 H1698 H 0.18240 0.90419 0.13113
 C1699 C 0.87228 0.39740 0.39236
 C1700 C 0.86350 0.42256 0.41223
 C1701 C 0.88386 0.44009 0.43082
 C1702 C 0.91288 0.43274 0.42924
 C1703 C 0.92066 0.40745 0.40893
 N1704 N 0.90048 0.39061 0.39162
 C1705 C 0.85199 0.37718 0.37355
 N1706 N 0.85963 0.34912 0.37137
 C1707 C 0.84275 0.32902 0.35396
 C1708 C 0.81646 0.33676 0.33658
 C1709 C 0.80816 0.36566 0.33803
 C1710 C 0.82580 0.38593 0.35672
 H1711 H 0.87691 0.45937 0.44628
 H1712 H 0.94272 0.40078 0.40721
 H1713 H 0.85019 0.30707 0.35323
 H1714 H 0.78809 0.37254 0.32487
 H1715 H 0.84121 0.42833 0.41426
 H1716 H 0.81928 0.40817 0.35708
 C1717 C 0.37534 0.09652 0.62041
 C1718 C 0.36612 0.07330 0.59658
 C1719 C 0.38619 0.05659 0.57577
 C1720 C 0.41536 0.06285 0.57884
 C1721 C 0.42356 0.08608 0.60334
 N1722 N 0.40369 0.10213 0.62281
 C1723 C 0.35548 0.11651 0.64099
 N1724 N 0.36481 0.14344 0.64901
 C1725 C 0.34823 0.16361 0.66698
 C1726 C 0.32024 0.15724 0.67841
 C1727 C 0.31026 0.12936 0.67156
 C1728 C 0.32778 0.10893 0.65267
 H1729 H 0.37886 0.03894 0.55713
 H1730 H 0.44573 0.09186 0.60664
 H1731 H 0.35698 0.18470 0.67209
 H1732 H 0.28882 0.12355 0.67999
 H1733 H 0.34374 0.06853 0.59300
 H1734 H 0.31975 0.08756 0.64766
 C1735 C 0.62050 0.60751 0.88847
 C1736 C 0.59112 0.61140 0.88312
 C1737 C 0.57231 0.59204 0.90001
 C1738 C 0.58245 0.56855 0.92243
 C1739 C 0.61211 0.56494 0.92624
 N1740 N 0.63018 0.58423 0.90932
 C1741 C 0.64066 0.62873 0.87215
 N1742 N 0.66581 0.62007 0.85561
 C1743 C 0.68423 0.63888 0.83842
 C1744 C 0.67770 0.66831 0.83738
 C1745 C 0.65221 0.67756 0.85534
 C1746 C 0.63377 0.65796 0.87264
 H1747 H 0.54971 0.59577 0.89578
 H1748 H 0.62090 0.54704 0.94297
 H1749 H 0.70381 0.63083 0.82539
 H1750 H 0.64625 0.69997 0.85568
 H1751 H 0.58269 0.62924 0.86586
 H1752 H 0.61429 0.66568 0.88637
 C1753 C 0.36747 0.40207 0.88059
 C1754 C 0.35972 0.42826 0.89848
 C1755 C 0.38086 0.44555 0.91574
 C1756 C 0.40956 0.43693 0.91438
 C1757 C 0.41630 0.41101 0.89500
 N1758 N 0.39539 0.39434 0.87942
 C1759 C 0.34638 0.38147 0.86517
 N1760 N 0.35255 0.35316 0.86884
 C1761 C 0.33536 0.33250 0.85369
 C1762 C 0.31052 0.33984 0.83216
 C1763 C 0.30350 0.36897 0.82821
 C1764 C 0.32128 0.38990 0.84506
 H1765 H 0.37477 0.46538 0.93052
 H1766 H 0.43807 0.40339 0.89350
 H1767 H 0.34179 0.31038 0.85726
 H1768 H 0.28457 0.37553 0.81168
 H1769 H 0.33762 0.43477 0.90048
 H1770 H 0.31603 0.41230 0.84109
 C1771 C 0.87206 0.09287 0.13108
 C1772 C 0.86325 0.06828 0.11001
 C1773 C 0.88368 0.05054 0.09195
 C1774 C 0.91276 0.05710 0.09536
 C1775 C 0.92058 0.08121 0.11830
 N1776 N 0.90034 0.09844 0.13470
 C1777 C 0.85174 0.11438 0.14657
 N1778 N 0.85994 0.14222 0.14704
 C1779 C 0.84294 0.16354 0.16111
 C1780 C 0.81597 0.15733 0.17673
 C1781 C 0.80700 0.12871 0.17674
 C1782 C 0.82476 0.10716 0.16137
 H1783 H 0.87669 0.03220 0.07442
 H1784 H 0.94269 0.08721 0.12167
 H1785 H 0.85090 0.18522 0.16094
 H1786 H 0.78641 0.12301 0.18877
 H1787 H 0.84091 0.06352 0.10584
 H1788 H 0.81776 0.08515 0.16204
 C1789 C 0.63337 0.90065 0.60878
 C1790 C 0.61203 0.91265 0.63324
 C1791 C 0.59109 0.92989 0.61560
 C1792 C 0.59195 0.93578 0.57399
 C1793 C 0.61407 0.92398 0.55074
 N1794 N 0.63375 0.90648 0.56836
 C1795 C 0.65437 0.88066 0.62610
 N1796 N 0.65894 0.85489 0.60778
 C1797 C 0.67625 0.83460 0.62445
 C1798 C 0.69017 0.83992 0.66155
 C1799 C 0.68664 0.86690 0.67982
 C1800 C 0.66854 0.88717 0.66244
 H1801 H 0.57419 0.93854 0.63431
 H1802 H 0.61508 0.92782 0.51839
 H1803 H 0.67864 0.81418 0.60918
 H1804 H 0.69703 0.87200 0.70835
 H1805 H 0.61106 0.90795 0.66536
 H1806 H 0.66535 0.90760 0.67743
 C1807 C 0.11940 0.60908 0.38432
 C1808 C 0.09015 0.61424 0.37963
 C1809 C 0.07077 0.59483 0.39513
 C1810 C 0.08041 0.57028 0.41550
 C1811 C 0.10991 0.56534 0.41822
 N1812 N 0.12846 0.58461 0.40269
 C1813 C 0.14033 0.62993 0.36985
 N1814 N 0.16494 0.62058 0.35255
 C1815 C 0.18422 0.63899 0.33677
 C1816 C 0.17913 0.66865 0.33801
 C1817 C 0.15444 0.67863 0.35735
 C1818 C 0.13503 0.65938 0.37318
 H1819 H 0.04826 0.59953 0.39212
 H1820 H 0.11825 0.54655 0.43337
 H1821 H 0.20313 0.63039 0.32248
 H1822 H 0.14962 0.70128 0.35922
 H1823 H 0.08230 0.63316 0.36423
 H1824 H 0.11598 0.66748 0.38769
   
