data_POSCAR
  _audit_creation_date              2014-09-24
  _audit_creation_method            'ToBaCCo'
  _symmetry_space_group_name_H-M    'P1'
  _symmetry_Int_Tables_number       1
  _symmetry_cell_setting            triclinic
  loop_
  _symmetry_equiv_pos_as_xyz
 x,y,z
_cell_length_a 44.8608
_cell_length_b 45.1080
_cell_length_c 43.0783
_cell_angle_alpha 89.932700
_cell_angle_beta 89.878500
_cell_angle_gamma 90.030400
loop_
  _atom_site_label
  _atom_site_type_symbol
  _atom_site_fract_x
  _atom_site_fract_y
  _atom_site_fract_z
O1 O 0.33537 0.38164 0.02610
 O2 O 0.37692 0.34098 -0.03386
 O3 O 0.33354 0.37943 -0.03426
 O4 O 0.37737 0.34206 0.02696
 O5 O 0.34351 0.30654 0.02865
 O6 O 0.30037 0.34376 -0.03221
 O7 O 0.34327 0.30528 -0.03214
 O8 O 0.30173 0.34595 0.02795
 Cu9 Cu 0.35921 0.36459 -0.00399
 Cu10 Cu 0.31897 0.32172 -0.00179
 C11 C 0.31173 0.37064 0.03753
 C12 C 0.36684 0.31643 -0.04365
 C13 C 0.30947 0.36780 -0.04414
 C14 C 0.36735 0.31819 0.03873
 O15 O 0.65225 0.61589 0.03050
 O16 O 0.61307 0.65285 -0.03397
 O17 O 0.65427 0.61143 -0.02971
 O18 O 0.61155 0.65664 0.02609
 O19 O 0.64661 0.69090 0.02431
 O20 O 0.68856 0.64612 -0.03222
 O21 O 0.64815 0.68702 -0.03569
 O22 O 0.68771 0.64987 0.02785
 Cu23 Cu 0.62928 0.63072 -0.00173
 Cu24 Cu 0.67126 0.67190 -0.00407
 C25 C 0.67676 0.62662 0.03994
 C26 C 0.62381 0.67640 -0.04573
 C27 C 0.67907 0.62068 -0.04021
 C28 C 0.62161 0.68171 0.03441
 O29 O 0.67358 0.37190 0.96934
 O30 O 0.62955 0.33407 1.02938
 O31 O 0.67202 0.37284 1.02969
 O32 O 0.63089 0.33136 0.96961
 O33 O 0.66479 0.29604 0.97164
 O34 O 0.70538 0.33731 1.03144
 O35 O 0.66318 0.29844 1.03164
 O36 O 0.70704 0.33616 0.97124
 Cu37 Cu 0.64820 0.35622 0.99897
 Cu38 Cu 0.68852 0.31346 1.00143
 C39 C 0.69830 0.36096 0.96073
 C40 C 0.63897 0.31000 1.04103
 C41 C 0.69553 0.36182 1.04152
 C42 C 0.64027 0.30596 0.96137
 O43 O 0.34617 0.61111 0.97595
 O44 O 0.39134 0.65287 1.03237
 O45 O 0.34782 0.61461 1.03620
 O46 O 0.39013 0.64915 0.97189
 O47 O 0.35707 0.68524 0.97006
 O48 O 0.31667 0.65223 1.03584
 O49 O 0.35943 0.69014 1.02967
 O50 O 0.31310 0.64725 0.97564
 Cu51 Cu 0.37212 0.62823 1.00416
 Cu52 Cu 0.33322 0.67229 1.00247
 C53 C 0.32152 0.62174 0.96678
 C54 C 0.38311 0.67870 1.04035
 C55 C 0.32532 0.62791 1.04763
 C56 C 0.38102 0.67342 0.96033
 O57 O 0.02788 0.34551 0.38817
 O58 O -0.02874 0.38978 0.34715
 O59 O -0.02977 0.34819 0.39002
 O60 O 0.02938 0.38677 0.34604
 O61 O 0.02732 0.35199 0.31012
 O62 O -0.03305 0.31496 0.35312
 O63 O -0.03057 0.35590 0.31030
 O64 O 0.02453 0.31084 0.35227
 Cu65 Cu -0.00021 0.37108 0.37143
 Cu66 Cu -0.00331 0.33009 0.32774
 C67 C 0.03542 0.32033 0.37757
 C68 C -0.03887 0.38064 0.32137
 C69 C -0.04120 0.32450 0.37961
 C70 C 0.03887 0.37553 0.32087
 O71 O 0.02887 0.65953 0.61414
 O72 O -0.03133 0.62268 0.65770
 O73 O -0.02879 0.66204 0.61388
 O74 O 0.02671 0.62004 0.65883
 O75 O 0.02838 0.65616 0.69340
 O76 O -0.02747 0.69752 0.64854
 O77 O -0.02966 0.65817 0.69283
 O78 O 0.03015 0.69515 0.64930
 Cu79 Cu -0.00116 0.63739 0.63269
 Cu80 Cu 0.00042 0.68028 0.67459
 C81 C 0.03937 0.68386 0.62411
 C82 C -0.04104 0.63436 0.68254
 C83 C -0.03749 0.68727 0.62309
 C84 C 0.03691 0.63098 0.68380
 O85 O 1.02459 0.61891 0.34170
 O86 O 0.97027 0.66418 0.38470
 O87 O 0.96665 0.62314 0.34251
 O88 O 1.02778 0.66005 0.38427
 O89 O 1.02968 0.69431 0.34829
 O90 O 0.96943 0.65715 0.30577
 O91 O 0.97207 0.69809 0.34767
 O92 O 1.02704 0.65327 0.30532
 Cu93 Cu 0.99720 0.63806 0.36691
 Cu94 Cu 0.99996 0.67911 0.32307
 C95 C 1.03470 0.62813 0.31589
 C96 C 0.96205 0.68891 0.37352
 C97 C 0.95739 0.63408 0.31711
 C98 C 1.03878 0.68405 0.37413
 O99 O 0.97555 0.33314 0.61570
 O100 O 1.02825 0.38250 0.65619
 O101 O 1.03326 0.33770 0.61831
 O102 O 0.97026 0.37862 0.65289
 O103 O 0.97012 0.34748 0.69247
 O104 O 1.03431 0.30818 0.65887
 O105 O 1.02752 0.35264 0.69670
 O106 O 0.97664 0.30252 0.65565
 Cu107 Cu 1.00179 0.36108 0.63176
 Cu108 Cu 1.00221 0.32465 0.67990
 C109 C 0.96751 0.30909 0.62865
 C110 C 1.03652 0.37625 0.68362
 C111 C 1.04501 0.31610 0.63284
 C112 C 0.95922 0.36973 0.67843
 O113 O 0.38354 0.02745 0.34173
 O114 O 0.33944 -0.02814 0.38434
 O115 O 0.38101 -0.03024 0.34244
 O116 O 0.34228 0.02958 0.38473
 O117 O 0.30794 0.03111 0.34819
 O118 O 0.34637 -0.02872 0.30618
 O119 O 0.30475 -0.02616 0.34798
 O120 O 0.34917 0.02872 0.30520
 Cu121 Cu 0.36506 -0.00036 0.36698
 Cu122 Cu 0.32365 0.00152 0.32319
 C123 C 0.37415 0.03710 0.31585
 C124 C 0.31460 -0.03650 0.37335
 C125 C 0.37001 -0.03998 0.31728
 C126 C 0.31814 0.04011 0.37402
 O127 O 0.65845 -0.02723 0.61350
 O128 O 0.61468 0.02878 0.65546
 O129 O 0.65829 0.03066 0.61574
 O130 O 0.61513 -0.02882 0.65430
 O131 O 0.64753 -0.02897 0.69290
 O132 O 0.69106 0.02930 0.65386
 O133 O 0.64762 0.02821 0.69347
 O134 O 0.69086 -0.02847 0.65195
 Cu135 Cu 0.63343 0.00081 0.63082
 Cu136 Cu 0.67266 -0.00023 0.67678
 C137 C 0.68230 -0.03713 0.62539
 C138 C 0.62353 0.03784 0.68176
 C139 C 0.68179 0.04048 0.62861
 C140 C 0.62370 -0.03842 0.68055
 O141 O 0.37094 0.97084 0.66987
 O142 O 0.33231 1.02678 0.62248
 O143 O 0.37338 1.02881 0.66508
 O144 O 0.33038 0.96935 0.62703
 O145 O 0.29531 0.97373 0.66260
 O146 O 0.33859 1.03224 0.70115
 O147 O 0.29781 1.03108 0.65875
 O148 O 0.33628 0.97486 0.70583
 Cu149 Cu 0.35534 0.99857 0.64257
 Cu150 Cu 0.31355 1.00327 0.68573
 C151 C 0.35997 0.96286 0.69579
 C152 C 0.30861 1.03874 0.63267
 C153 C 0.36301 1.04102 0.68938
 C154 C 0.30548 0.96130 0.63837
 O155 O 0.62321 0.97629 0.33839
 O156 O 0.67047 1.03325 0.37494
 O157 O 0.62457 1.03427 0.33792
 O158 O 0.66845 0.97607 0.37691
 O159 O 0.69908 0.97456 0.33679
 O160 O 0.65566 1.03289 0.29814
 O161 O 0.70094 1.03162 0.33520
 O162 O 0.65405 0.97509 0.29845
 Cu163 Cu 0.64343 1.00503 0.36097
 Cu164 Cu 0.68035 1.00327 0.31303
 C165 C 0.63051 0.96621 0.31194
 C166 C 0.69438 1.04186 0.36168
 C167 C 0.63306 1.04390 0.31164
 C168 C 0.69182 0.96612 0.36390
 C169 C 0.81101 0.81400 0.51563
 C170 C 0.81102 0.81507 0.48395
 C171 C 0.83083 0.79554 0.46533
 C172 C 0.79319 0.83732 0.46651
 C173 C 0.79038 0.83243 0.53440
 C174 C 0.83309 0.79584 0.53287
 C175 C 0.85078 0.80817 0.44390
 C176 C 0.87173 0.79050 0.42868
 C177 C 0.87298 0.76001 0.43473
 C178 C 0.85234 0.74708 0.45510
 C179 C 0.83115 0.76469 0.47008
 C180 C 0.79546 0.86769 0.47339
 C181 C 0.77921 0.88848 0.45642
 C182 C 0.76116 0.87938 0.43161
 C183 C 0.75878 0.84908 0.42473
 C184 C 0.77481 0.82822 0.44195
 C185 C 0.75955 0.83234 0.52866
 C186 C 0.74094 0.85247 0.54389
 C187 C 0.75292 0.87265 0.56523
 C188 C 0.78336 0.87155 0.57236
 C189 C 0.80197 0.85154 0.55707
 C190 C 0.82340 0.77446 0.55435
 C191 C 0.84404 0.75612 0.56923
 C192 C 0.87454 0.75909 0.56283
 C193 C 0.88435 0.78108 0.54221
 C194 C 0.86378 0.79953 0.52754
 H195 H 0.85086 0.83187 0.43984
 H196 H 0.88752 0.80067 0.41287
 H197 H 0.85301 0.72349 0.45976
 H198 H 0.81562 0.75445 0.48611
 H199 H 0.81001 0.87531 0.49176
 H200 H 0.78105 0.91176 0.46226
 H201 H 0.77292 0.80494 0.43614
 H202 H 0.75012 0.81739 0.51165
 H203 H 0.71739 0.85294 0.53842
 H204 H 0.79283 0.88693 0.58892
 H205 H 0.82565 0.85186 0.56194
 H206 H 0.79983 0.77150 0.55895
 H207 H 0.83627 0.73928 0.58527
 H208 H 0.90790 0.78371 0.53730
 H209 H 0.87173 0.81634 0.51157
 H210 H 0.74485 0.84167 0.40575
 C211 C 0.18570 0.18681 0.51338
 C212 C 0.18652 0.18857 0.48181
 C213 C 0.16478 0.20715 0.46478
 C214 C 0.20782 0.17063 0.46322
 C215 C 0.20370 0.16462 0.53056
 C216 C 0.16652 0.20681 0.53216
 C217 C 0.13410 0.20188 0.46806
 C218 C 0.11349 0.22075 0.45406
 C219 C 0.12324 0.24536 0.43685
 C220 C 0.15393 0.24987 0.43238
 C221 C 0.17460 0.23080 0.44621
 C222 C 0.19706 0.15078 0.44083
 C223 C 0.21644 0.13093 0.42624
 C224 C 0.24686 0.13074 0.43374
 C225 C 0.25797 0.15180 0.45469
 C226 C 0.23859 0.17165 0.46932
 C227 C 0.22335 0.17396 0.55386
 C228 C 0.24130 0.15340 0.56925
 C229 C 0.23984 0.12321 0.56153
 C230 C 0.21947 0.11370 0.53898
 C231 C 0.20145 0.13426 0.52365
 C232 C 0.16957 0.23773 0.52998
 C233 C 0.15147 0.25638 0.54779
 C234 C 0.13021 0.24440 0.56823
 C235 C 0.12696 0.21348 0.57011
 C236 C 0.14522 0.19483 0.55251
 H237 H 0.12618 0.18341 0.48190
 H238 H 0.08990 0.21652 0.45712
 H239 H 0.16182 0.26851 0.41879
 H240 H 0.19821 0.23500 0.44330
 H241 H 0.17345 0.14972 0.43572
 H242 H 0.20757 0.11499 0.40990
 H243 H 0.24738 0.18712 0.48618
 H244 H 0.22516 0.19724 0.55972
 H245 H 0.25648 0.16100 0.58707
 H246 H 0.21776 0.09043 0.53308
 H247 H 0.18593 0.12655 0.50621
 H248 H 0.18607 0.24738 0.51460
 H249 H 0.15418 0.28017 0.54582
 H250 H 0.11031 0.20382 0.58531
 H251 H 0.14247 0.17104 0.55440
 H252 H 0.28147 0.15220 0.46040
 C253 C 0.18951 0.81076 0.48258
 C254 C 0.18979 0.81061 0.51426
 C255 C 0.17086 0.78985 0.53243
 C256 C 0.20699 0.83281 0.53228
 C257 C 0.20918 0.83085 0.46446
 C258 C 0.16801 0.79234 0.46487
 C259 C 0.15082 0.80119 0.55449
 C260 C 0.13061 0.78243 0.56938
 C261 C 0.13023 0.75212 0.56244
 C262 C 0.15099 0.74043 0.54143
 C263 C 0.17143 0.75916 0.52671
 C264 C 0.20197 0.86331 0.52815
 C265 C 0.21755 0.88400 0.54597
 C266 C 0.23803 0.87448 0.56843
 C267 C 0.24331 0.84402 0.57227
 C268 C 0.22765 0.82332 0.55456
 C269 C 0.23998 0.83217 0.47025
 C270 C 0.25758 0.85364 0.45568
 C271 C 0.24466 0.87382 0.43489
 C272 C 0.21434 0.87115 0.42747
 C273 C 0.19669 0.84991 0.44226
 C274 C 0.17830 0.77218 0.44248
 C275 C 0.15826 0.75341 0.42728
 C276 C 0.12777 0.75467 0.43435
 C277 C 0.11733 0.77556 0.45582
 C278 C 0.13727 0.79447 0.47076
 H279 H 0.15004 0.82474 0.55928
 H280 H 0.11466 0.79165 0.58562
 H281 H 0.15092 0.71699 0.53601
 H282 H 0.18704 0.74992 0.51014
 H283 H 0.18578 0.87102 0.51138
 H284 H 0.21331 0.90742 0.54261
 H285 H 0.23171 0.79989 0.55809
 H286 H 0.25018 0.81716 0.48673
 H287 H 0.28107 0.85507 0.46124
 H288 H 0.20419 0.88613 0.41091
 H289 H 0.17306 0.84907 0.43721
 H290 H 0.20190 0.77047 0.43742
 H291 H 0.16653 0.73751 0.41052
 H292 H 0.09377 0.77697 0.46117
 H293 H 0.12882 0.81036 0.48741
 H294 H 0.25934 0.83631 0.58922
 C295 C 0.81276 0.18866 0.48471
 C296 C 0.81357 0.18690 0.51630
 C297 C 0.83640 0.20351 0.53421
 C298 C 0.79299 0.16718 0.53403
 C299 C 0.79521 0.16752 0.46582
 C300 C 0.83165 0.21018 0.46758
 C301 C 0.86684 0.19986 0.52751
 C302 C 0.88827 0.21620 0.54350
 C303 C 0.87973 0.23571 0.56723
 C304 C 0.84935 0.23910 0.57429
 C305 C 0.82782 0.22298 0.55799
 C306 C 0.80442 0.14769 0.55651
 C307 C 0.78547 0.12839 0.57257
 C308 C 0.75475 0.12839 0.56657
 C309 C 0.74318 0.14799 0.54437
 C310 C 0.76210 0.16746 0.52846
 C311 C 0.77470 0.17804 0.44385
 C312 C 0.75830 0.15812 0.42583
 C313 C 0.76262 0.12753 0.42931
 C314 C 0.78330 0.11698 0.45100
 C315 C 0.79957 0.13685 0.46908
 C316 C 0.82827 0.24080 0.47218
 C317 C 0.84799 0.26077 0.45811
 C318 C 0.87184 0.25032 0.43997
 C319 C 0.87439 0.21975 0.43442
 C320 C 0.85431 0.19986 0.44791
 H321 H 0.87399 0.18447 0.50973
 H322 H 0.91157 0.21355 0.53748
 H323 H 0.84235 0.25419 0.59243
 H324 H 0.80446 0.22595 0.56359
 H325 H 0.82811 0.14705 0.56124
 H326 H 0.79475 0.11331 0.58958
 H327 H 0.75266 0.18266 0.51167
 H328 H 0.77126 0.20164 0.44088
 H329 H 0.74248 0.16649 0.40902
 H330 H 0.78693 0.09338 0.45372
 H331 H 0.81571 0.12835 0.48550
 H332 H 0.81068 0.24913 0.48706
 H333 H 0.84515 0.28432 0.46201
 H334 H 0.89238 0.21123 0.42020
 H335 H 0.85719 0.17631 0.44407
 H336 H 0.71949 0.14833 0.53956
 C337 C 0.51228 0.80725 0.80457
 C338 C 0.48186 0.80691 0.80531
 C339 C 0.46390 0.83024 0.78988
 C340 C 0.46526 0.78477 0.82433
 C341 C 0.52959 0.78805 0.82595
 C342 C 0.52938 0.82824 0.78452
 C343 C 0.46869 0.86036 0.79655
 C344 C 0.45116 0.88214 0.78253
 C345 C 0.42828 0.87408 0.76206
 C346 C 0.42359 0.84400 0.75527
 C347 C 0.44108 0.82222 0.76934
 C348 C 0.44538 0.79454 0.84735
 C349 C 0.43218 0.77429 0.86770
 C350 C 0.43859 0.74395 0.86534
 C351 C 0.45728 0.73391 0.84141
 C352 C 0.47047 0.75419 0.82097
 C353 C 0.54975 0.76714 0.81415
 C354 C 0.56447 0.74773 0.83427
 C355 C 0.55916 0.74904 0.86639
 C356 C 0.53981 0.77065 0.87823
 C357 C 0.52524 0.79010 0.85818
 C358 C 0.52224 0.83221 0.75299
 C359 C 0.53675 0.85394 0.73530
 C360 C 0.55887 0.87177 0.74873
 C361 C 0.56736 0.86646 0.77960
 C362 C 0.55264 0.84505 0.79737
 H363 H 0.48587 0.86694 0.81278
 H364 H 0.45513 0.90525 0.78792
 H365 H 0.40624 0.83745 0.73923
 H366 H 0.43699 0.79910 0.76406
 H367 H 0.44099 0.81798 0.85033
 H368 H 0.41760 0.78235 0.88590
 H369 H 0.48538 0.74615 0.80306
 H370 H 0.55355 0.76547 0.78938
 H371 H 0.57987 0.73157 0.82485
 H372 H 0.53582 0.77226 0.90298
 H373 H 0.51016 0.80650 0.86772
 H374 H 0.50501 0.81893 0.74226
 H375 H 0.53024 0.85731 0.71136
 H376 H 0.58489 0.87950 0.79017
 H377 H 0.55885 0.84223 0.82147
 H378 H 0.46213 0.71050 0.83905
 C379 C 0.51231 0.18849 0.18604
 C380 C 0.48194 0.18900 0.18631
 C381 C 0.46501 0.16692 0.20465
 C382 C 0.46435 0.21033 0.16736
 C383 C 0.53003 0.20764 0.16498
 C384 C 0.52952 0.16781 0.20608
 C385 C 0.46762 0.13660 0.19797
 C386 C 0.45354 0.11566 0.21680
 C387 C 0.43698 0.12476 0.24278
 C388 C 0.43336 0.15515 0.24868
 C389 C 0.44722 0.17613 0.22962
 C390 C 0.44151 0.19973 0.14808
 C391 C 0.42551 0.21917 0.12919
 C392 C 0.43197 0.24958 0.12933
 C393 C 0.45448 0.26040 0.14881
 C394 C 0.47032 0.24096 0.16801
 C395 C 0.55293 0.22528 0.17721
 C396 C 0.57015 0.24307 0.15767
 C397 C 0.56457 0.24362 0.12565
 C398 C 0.54213 0.22549 0.11328
 C399 C 0.52506 0.20749 0.13280
 C400 C 0.52569 0.16752 0.23848
 C401 C 0.54241 0.14820 0.25694
 C402 C 0.56356 0.12938 0.24329
 C403 C 0.56733 0.12958 0.21097
 C404 C 0.55052 0.14871 0.19252
 H405 H 0.48095 0.12922 0.17846
 H406 H 0.45587 0.09233 0.21141
 H407 H 0.42026 0.16255 0.26834
 H408 H 0.44488 0.19949 0.23489
 H409 H 0.43645 0.17626 0.14719
 H410 H 0.40821 0.21051 0.11421
 H411 H 0.48741 0.24975 0.18314
 H412 H 0.55738 0.22531 0.20191
 H413 H 0.58786 0.25643 0.16746
 H414 H 0.53791 0.22529 0.08854
 H415 H 0.50805 0.19338 0.12284
 H416 H 0.50999 0.18244 0.24946
 H417 H 0.53928 0.14829 0.28188
 H418 H 0.58348 0.11504 0.20011
 H419 H 0.55383 0.14861 0.16761
 H420 H 0.45961 0.28386 0.14927
 C421 C 0.48480 0.19050 0.80839
 C422 C 0.51516 0.19018 0.80917
 C423 C 0.53235 0.16969 0.78906
 C424 C 0.53262 0.20825 0.83156
 C425 C 0.46681 0.21087 0.82791
 C426 C 0.46793 0.16887 0.78934
 C427 C 0.55160 0.14893 0.80265
 C428 C 0.56617 0.12799 0.78427
 C429 C 0.56163 0.12758 0.75210
 C430 C 0.54333 0.14902 0.73828
 C431 C 0.52885 0.17006 0.75665
 C432 C 0.52632 0.20734 0.86351
 C433 C 0.54381 0.22329 0.88443
 C434 C 0.56856 0.23955 0.87391
 C435 C 0.57474 0.24071 0.84200
 C436 C 0.55698 0.22509 0.82101
 C437 C 0.47214 0.24159 0.82805
 C438 C 0.45552 0.26017 0.84745
 C439 C 0.43301 0.24831 0.86641
 C440 C 0.42744 0.21775 0.86599
 C441 C 0.44411 0.19920 0.84681
 C442 C 0.44970 0.17889 0.76512
 C443 C 0.43289 0.15875 0.74783
 C444 C 0.43330 0.12840 0.75522
 C445 C 0.45205 0.11833 0.77906
 C446 C 0.46922 0.13843 0.79604
 H447 H 0.55466 0.14840 0.82758
 H448 H 0.58043 0.11166 0.79518
 H449 H 0.53996 0.14912 0.71339
 H450 H 0.51448 0.18628 0.74573
 H451 H 0.50814 0.19394 0.87232
 H452 H 0.53850 0.22240 0.90895
 H453 H 0.56236 0.22591 0.79650
 H454 H 0.48925 0.25109 0.81332
 H455 H 0.46002 0.28376 0.84756
 H456 H 0.41024 0.20830 0.88066
 H457 H 0.43964 0.17560 0.84712
 H458 H 0.44857 0.20230 0.75961
 H459 H 0.41904 0.16687 0.72910
 H460 H 0.45290 0.09499 0.78493
 H461 H 0.48310 0.13038 0.81477
 H462 H 0.59365 0.25325 0.83345
 C463 C 0.48742 0.81064 0.19286
 C464 C 0.51774 0.81198 0.19123
 C465 C 0.53519 0.83276 0.21073
 C466 C 0.53439 0.79399 0.16819
 C467 C 0.47035 0.78943 0.17344
 C468 C 0.46996 0.83212 0.21156
 C469 C 0.55502 0.85273 0.19660
 C470 C 0.56987 0.87394 0.21435
 C471 C 0.56511 0.87548 0.24648
 C472 C 0.54620 0.85484 0.26088
 C473 C 0.53141 0.83353 0.24313
 C474 C 0.52995 0.79849 0.13628
 C475 C 0.54356 0.77984 0.11464
 C476 C 0.56147 0.75614 0.12458
 C477 C 0.56690 0.75245 0.15646
 C478 C 0.55353 0.77134 0.17812
 C479 C 0.47645 0.75887 0.17441
 C480 C 0.46334 0.73972 0.15290
 C481 C 0.44378 0.75087 0.13038
 C482 C 0.43619 0.78105 0.13076
 C483 C 0.44944 0.80021 0.15207
 C484 C 0.45086 0.82195 0.23508
 C485 C 0.43416 0.84207 0.25260
 C486 C 0.43565 0.87260 0.24623
 C487 C 0.45495 0.88276 0.22283
 C488 C 0.47190 0.86267 0.20554
 H489 H 0.55834 0.85245 0.17169
 H490 H 0.58462 0.88958 0.20297
 H491 H 0.54269 0.85552 0.28576
 H492 H 0.51664 0.81794 0.25455
 H493 H 0.51551 0.81613 0.12824
 H494 H 0.53973 0.78357 0.09013
 H495 H 0.55727 0.76770 0.20266
 H496 H 0.49211 0.75006 0.19113
 H497 H 0.46909 0.71641 0.15322
 H498 H 0.42063 0.78988 0.11393
 H499 H 0.44431 0.82365 0.15106
 H500 H 0.44916 0.79847 0.24004
 H501 H 0.41983 0.83385 0.27096
 H502 H 0.45660 0.90622 0.21771
 H503 H 0.48635 0.87089 0.18728
 H504 H 0.58100 0.73458 0.16457
 C505 C 0.81105 0.51546 0.80703
 C506 C 0.81244 0.48531 0.80671
 C507 C 0.79503 0.46708 0.82905
 C508 C 0.83297 0.46897 0.78558
 C509 C 0.83222 0.53376 0.78891
 C510 C 0.79015 0.53161 0.82773
 C511 C 0.79738 0.47201 0.86114
 C512 C 0.78205 0.45395 0.88205
 C513 C 0.76505 0.42995 0.87131
 C514 C 0.76255 0.42505 0.83927
 C515 C 0.77755 0.44342 0.81828
 C516 C 0.85220 0.44743 0.79791
 C517 C 0.87108 0.43127 0.77850
 C518 C 0.87095 0.43622 0.74636
 C519 C 0.85203 0.45792 0.73390
 C520 C 0.83294 0.47401 0.75335
 C521 C 0.82154 0.55370 0.76658
 C522 C 0.84143 0.57110 0.74949
 C523 C 0.87220 0.56939 0.75518
 C524 C 0.88284 0.54943 0.77758
 C525 C 0.86297 0.53179 0.79440
 C526 C 0.75919 0.52754 0.82547
 C527 C 0.73998 0.54147 0.84654
 C528 C 0.75153 0.55911 0.87057
 C529 C 0.78243 0.56388 0.87209
 C530 C 0.80153 0.55043 0.85074
 H531 H 0.81142 0.48956 0.87003
 H532 H 0.78389 0.45831 0.90669
 H533 H 0.74935 0.40675 0.83059
 H534 H 0.77571 0.43910 0.79363
 H535 H 0.85266 0.44317 0.82266
 H536 H 0.88574 0.41476 0.78850
 H537 H 0.81796 0.49014 0.74325
 H538 H 0.79785 0.55544 0.76213
 H539 H 0.83288 0.58597 0.73188
 H540 H 0.90651 0.54767 0.78212
 H541 H 0.87152 0.51670 0.81182
 H542 H 0.75000 0.51336 0.80761
 H543 H 0.71616 0.53809 0.84450
 H544 H 0.79179 0.57765 0.89021
 H545 H 0.82534 0.55388 0.85281
 H546 H 0.85171 0.46200 0.70913
 C547 C 0.18613 0.51761 0.18774
 C548 C 0.18554 0.48741 0.18735
 C549 C 0.20456 0.47016 0.16570
 C550 C 0.16524 0.47026 0.20805
 C551 C 0.16397 0.53463 0.20591
 C552 C 0.20824 0.53497 0.16952
 C553 C 0.20441 0.47619 0.13369
 C554 C 0.22282 0.46024 0.11360
 C555 C 0.24137 0.43779 0.12515
 C556 C 0.24061 0.43091 0.15693
 C557 C 0.22242 0.44706 0.17708
 C558 C 0.14596 0.44896 0.19536
 C559 C 0.12657 0.43296 0.21451
 C560 C 0.12632 0.43785 0.24667
 C561 C 0.14560 0.45903 0.25945
 C562 C 0.16516 0.47488 0.24033
 C563 C 0.17333 0.55291 0.23032
 C564 C 0.15233 0.56710 0.24912
 C565 C 0.12173 0.56339 0.24351
 C566 C 0.11247 0.54630 0.21807
 C567 C 0.13344 0.53182 0.19954
 C568 C 0.23900 0.53048 0.17343
 C569 C 0.25954 0.54674 0.15580
 C570 C 0.24963 0.56785 0.13416
 C571 C 0.21886 0.57205 0.13008
 C572 C 0.19837 0.55604 0.14789
 H573 H 0.19009 0.49329 0.12429
 H574 H 0.22273 0.46548 0.08906
 H575 H 0.25429 0.41317 0.16610
 H576 H 0.22248 0.44177 0.20161
 H577 H 0.14570 0.44500 0.17057
 H578 H 0.11170 0.41678 0.20430
 H579 H 0.18026 0.49074 0.25071
 H580 H 0.19684 0.55541 0.23537
 H581 H 0.15989 0.58058 0.26834
 H582 H 0.08899 0.54387 0.21285
 H583 H 0.12592 0.51814 0.18045
 H584 H 0.24704 0.51443 0.19013
 H585 H 0.28316 0.54301 0.15916
 H586 H 0.21075 0.58781 0.11310
 H587 H 0.17474 0.55968 0.14441
 H588 H 0.14570 0.46301 0.28424
 C589 C 0.80945 0.48839 0.19126
 C590 C 0.80808 0.51858 0.19148
 C591 C 0.78677 0.53557 0.17185
 C592 C 0.82942 0.53621 0.21016
 C593 C 0.83027 0.47203 0.21194
 C594 C 0.79185 0.47023 0.16919
 C595 C 0.79723 0.55954 0.15406
 C596 C 0.77793 0.57527 0.13479
 C597 C 0.74773 0.56741 0.13288
 C598 C 0.73708 0.54366 0.15088
 C599 C 0.75632 0.52821 0.17064
 C600 C 0.86018 0.53436 0.20440
 C601 C 0.88017 0.55110 0.22194
 C602 C 0.86967 0.57012 0.24527
 C603 C 0.83893 0.57169 0.25126
 C604 C 0.81890 0.55514 0.23352
 C605 C 0.83003 0.47651 0.24424
 C606 C 0.85106 0.46243 0.26308
 C607 C 0.87234 0.44345 0.24989
 C608 C 0.87187 0.43805 0.21786
 C609 C 0.85100 0.45225 0.19901
 C610 C 0.77388 0.44714 0.18049
 C611 C 0.75811 0.42909 0.15998
 C612 C 0.76047 0.43356 0.12783
 C613 C 0.77817 0.45681 0.11646
 C614 C 0.79397 0.47490 0.13700
 H615 H 0.82055 0.56576 0.15461
 H616 H 0.78664 0.59343 0.12101
 H617 H 0.71394 0.53695 0.14942
 H618 H 0.74752 0.51027 0.18465
 H619 H 0.86862 0.52002 0.18625
 H620 H 0.90383 0.54946 0.21714
 H621 H 0.79523 0.55676 0.23825
 H622 H 0.81383 0.49121 0.25475
 H623 H 0.85095 0.46648 0.28785
 H624 H 0.88804 0.42327 0.20742
 H625 H 0.85148 0.44837 0.17421
 H626 H 0.77209 0.44313 0.20522
 H627 H 0.74432 0.41137 0.16910
 H628 H 0.78018 0.46055 0.09170
 H629 H 0.80812 0.49229 0.12782
 H630 H 0.83048 0.58589 0.26952
 C631 C 0.18433 0.49073 0.81251
 C632 C 0.18625 0.52083 0.81311
 C633 C 0.20604 0.53596 0.83554
 C634 C 0.16748 0.53976 0.79286
 C635 C 0.16252 0.47493 0.79263
 C636 C 0.20356 0.47213 0.83251
 C637 C 0.20081 0.53336 0.86755
 C638 C 0.22032 0.54640 0.88871
 C639 C 0.24554 0.56192 0.87818
 C640 C 0.25022 0.56529 0.84612
 C641 C 0.23053 0.55243 0.82492
 C642 C 0.14844 0.56086 0.80632
 C643 C 0.12805 0.57634 0.78800
 C644 C 0.12659 0.57103 0.75601
 C645 C 0.14646 0.55098 0.74223
 C646 C 0.16697 0.53560 0.76053
 C647 C 0.17258 0.45382 0.77114
 C648 C 0.15237 0.43927 0.75178
 C649 C 0.12179 0.44559 0.75367
 C650 C 0.11163 0.46616 0.77573
 C651 C 0.13184 0.48070 0.79510
 C652 C 0.23452 0.47124 0.82793
 C653 C 0.25237 0.45335 0.84681
 C654 C 0.23945 0.43618 0.87051
 C655 C 0.20856 0.43788 0.87561
 C656 C 0.19070 0.45535 0.85644
 H657 H 0.18171 0.52107 0.87606
 H658 H 0.21592 0.54421 0.91334
 H659 H 0.26933 0.57753 0.83758
 H660 H 0.23472 0.55474 0.80027
 H661 H 0.14850 0.56441 0.83118
 H662 H 0.11277 0.59178 0.79885
 H663 H 0.18178 0.51972 0.74966
 H664 H 0.19613 0.44891 0.76909
 H665 H 0.16056 0.42317 0.73520
 H666 H 0.08804 0.47079 0.77803
 H667 H 0.12359 0.49646 0.81200
 H668 H 0.24475 0.48416 0.80956
 H669 H 0.27618 0.45257 0.84270
 H670 H 0.19827 0.42527 0.89418
 H671 H 0.16686 0.45608 0.86044
 H672 H 0.14552 0.54675 0.71751
 C673 C 0.24713 0.40497 0.07975
 C674 C 0.26405 0.38833 0.05906
 C675 C 0.29514 0.38704 0.06168
 C676 C 0.30940 0.40226 0.08638
 C677 C 0.29219 0.41987 0.10699
 C678 C 0.26075 0.42088 0.10373
 C679 C 0.30716 0.43622 0.12999
 N680 N 0.33710 0.43366 0.13316
 N681 N 0.35307 0.41596 0.11486
 C682 C 0.34030 0.40011 0.09171
 H683 H 0.22313 0.40544 0.07704
 H684 H 0.25274 0.37679 0.04043
 H685 H 0.29545 0.45111 0.14540
 H686 H 0.35443 0.38570 0.07815
 C687 C 0.73713 0.58338 0.07919
 C688 C 0.72010 0.59767 0.05677
 C689 C 0.69331 0.61151 0.06474
 C690 C 0.68359 0.61137 0.09601
 C691 C 0.70122 0.59730 0.11906
 C692 C 0.72811 0.58286 0.11039
 C693 C 0.69172 0.59908 0.15014
 N694 N 0.66596 0.61326 0.15732
 N695 N 0.64921 0.62603 0.13560
 C696 C 0.65717 0.62567 0.10523
 H697 H 0.75758 0.57254 0.07209
 H698 H 0.72780 0.59775 0.03290
 H699 H 0.70465 0.58974 0.16888
 H700 H 0.64294 0.63677 0.08864
 C701 C 0.71847 0.40823 0.89190
 C702 C 0.70245 0.39199 0.91375
 C703 C 0.71694 0.37745 0.93821
 C704 C 0.74849 0.37945 0.94065
 C705 C 0.76486 0.39516 0.91768
 C706 C 0.74954 0.41033 0.89368
 C707 C 0.79619 0.39511 0.91949
 N708 N 0.80998 0.38187 0.94377
 N709 N 0.79460 0.36864 0.96631
 C710 C 0.76442 0.36712 0.96572
 H711 H 0.70645 0.41975 0.87374
 H712 H 0.67842 0.39086 0.91155
 H713 H 0.80989 0.40532 0.90179
 H714 H 0.75344 0.35671 0.98517
 C715 C 0.27039 0.60626 0.89962
 C716 C 0.28820 0.62062 0.92132
 C717 C 0.30255 0.60476 0.94498
 C718 C 0.29854 0.57351 0.94680
 C719 C 0.28109 0.55880 0.92402
 C720 C 0.26638 0.57551 0.90072
 C721 C 0.27910 0.52767 0.92524
 N722 N 0.29219 0.51257 0.94876
 N723 N 0.30715 0.52646 0.97107
 C724 C 0.31065 0.55632 0.97103
 H725 H 0.25928 0.61937 0.88201
 H726 H 0.29089 0.64443 0.91949
 H727 H 0.26743 0.51514 0.90767
 H728 H 0.32243 0.56614 0.99025
 C729 C 0.10054 0.26937 0.39100
 C730 C 0.07901 0.28695 0.37681
 C731 C 0.05742 0.30190 0.39443
 C732 C 0.05758 0.29880 0.42729
 C733 C 0.08005 0.28147 0.44175
 C734 C 0.10122 0.26613 0.42330
 C735 C 0.08064 0.28019 0.47441
 N736 N 0.05914 0.29390 0.49122
 N737 N 0.03719 0.30887 0.47764
 C738 C 0.03558 0.31169 0.44636
 H739 H 0.11653 0.25777 0.37658
 H740 H 0.07927 0.28894 0.35174
 H741 H 0.09802 0.26856 0.48677
 H742 H 0.01687 0.32358 0.43691
 C743 C 0.11135 0.72273 0.60654
 C744 C 0.08927 0.70631 0.62143
 C745 C 0.06252 0.69956 0.60631
 C746 C 0.05778 0.70970 0.57554
 C747 C 0.08018 0.72665 0.56051
 C748 C 0.10710 0.73305 0.57626
 C749 C 0.07451 0.73745 0.53046
 N750 N 0.04813 0.73146 0.51648
 N751 N 0.02704 0.71558 0.53058
 C752 C 0.03089 0.70460 0.55962
 H753 H 0.13173 0.72785 0.61889
 H754 H 0.09300 0.69896 0.64507
 H755 H 0.09074 0.75064 0.51800
 H756 H 0.01277 0.69233 0.57004
 C757 C 0.89325 0.73376 0.38921
 C758 C 0.91490 0.71675 0.37445
 C759 C 0.94027 0.70718 0.39049
 C760 C 0.94436 0.71568 0.42189
 C761 C 0.92234 0.73315 0.43685
 C762 C 0.89651 0.74183 0.42034
 C763 C 0.92730 0.74202 0.46770
 N764 N 0.95269 0.73388 0.48244
 N765 N 0.97345 0.71758 0.46839
 C766 C 0.97023 0.70828 0.43866
 H767 H 0.87373 0.74061 0.37629
 H768 H 0.91164 0.71067 0.35037
 H769 H 0.91134 0.75551 0.48015
 H770 H 0.98814 0.69566 0.42835
 C771 C 0.90126 0.28413 0.58205
 C772 C 0.92286 0.30173 0.59609
 C773 C 0.94661 0.28896 0.61245
 C774 C 0.94891 0.25756 0.61397
 C775 C 0.92635 0.23968 0.60046
 C776 C 0.90260 0.25317 0.58399
 C777 C 0.92821 0.20873 0.60417
 N778 N 0.95200 0.19656 0.61874
 N779 N 0.97398 0.21322 0.62991
 C780 C 0.97335 0.24320 0.62792
 H781 H 0.88339 0.29478 0.56934
 H782 H 0.92072 0.32561 0.59456
 H783 H 0.91097 0.19406 0.59578
 H784 H 0.99227 0.25530 0.63678
 C785 C 0.39159 0.10344 0.26630
 C786 C 0.37653 0.08204 0.28346
 C787 C 0.39194 0.05884 0.29797
 C788 C 0.42347 0.05722 0.29492
 C789 C 0.43889 0.07964 0.27815
 C790 C 0.42261 0.10247 0.26315
 C791 C 0.47024 0.07850 0.27712
 N792 N 0.48491 0.05549 0.29037
 N793 N 0.47038 0.03362 0.30463
 C794 C 0.44026 0.03360 0.30724
 H795 H 0.37883 0.12071 0.25495
 H796 H 0.35250 0.08367 0.28547
 H797 H 0.48328 0.09571 0.26608
 H798 H 0.42993 0.01484 0.31851
 C799 C 0.60691 0.10508 0.72998
 C800 C 0.62174 0.08330 0.71321
 C801 C 0.60603 0.06013 0.69903
 C802 C 0.57454 0.05861 0.70247
 C803 C 0.55944 0.08099 0.71948
 C804 C 0.57590 0.10438 0.73312
 C805 C 0.52834 0.07867 0.72317
 N806 N 0.51350 0.05538 0.71072
 N807 N 0.52765 0.03418 0.69508
 C808 C 0.55758 0.03488 0.69066
 H809 H 0.61974 0.12269 0.74063
 H810 H 0.64577 0.08467 0.71113
 H811 H 0.51570 0.09490 0.73612
 H812 H 0.56767 0.01651 0.67855
 C813 C 0.42345 0.91752 0.72757
 C814 C 0.40684 0.93849 0.71146
 C815 C 0.37568 0.93986 0.71440
 C816 C 0.36106 0.91935 0.73459
 C817 C 0.37826 0.89834 0.75148
 C818 C 0.40957 0.89711 0.74728
 C819 C 0.36354 0.87923 0.77234
 N820 N 0.33348 0.88012 0.77500
 N821 N 0.31718 0.89886 0.75829
 C822 C 0.32983 0.91833 0.73820
 H823 H 0.44739 0.91689 0.72420
 H824 H 0.41860 0.95386 0.69645
 H825 H 0.37561 0.86369 0.78670
 H826 H 0.31506 0.93237 0.72529
 C827 C 0.61121 0.89748 0.26721
 C828 C 0.62687 0.91945 0.28285
 C829 C 0.61201 0.94343 0.29658
 C830 C 0.58048 0.94539 0.29413
 C831 C 0.56450 0.92280 0.27829
 C832 C 0.58016 0.89874 0.26480
 C833 C 0.53338 0.92564 0.27550
 N834 N 0.51933 0.94954 0.28773
 N835 N 0.53429 0.97089 0.30226
 C836 C 0.56431 0.96975 0.30572
 H837 H 0.62345 0.87935 0.25675
 H838 H 0.65092 0.91768 0.28427
 H839 H 0.52009 0.90932 0.26344
 H840 H 0.57510 0.98819 0.31701
 C841 C 0.42985 0.28094 0.91231
 C842 C 0.41380 0.29723 0.93412
 C843 C 0.38286 0.30061 0.93139
 C844 C 0.36808 0.28867 0.90511
 C845 C 0.38441 0.27194 0.88304
 C846 C 0.41541 0.26763 0.88715
 C847 C 0.36920 0.26056 0.85711
 N848 N 0.33967 0.26586 0.85357
 N849 N 0.32440 0.28191 0.87405
 C850 C 0.33759 0.29359 0.89955
 H851 H 0.45360 0.27795 0.91558
 H852 H 0.42551 0.30653 0.95382
 H853 H 0.38057 0.24790 0.83938
 H854 H 0.32426 0.30711 0.91479
 C855 C 0.59416 0.74156 0.90961
 C856 C 0.60998 0.72398 0.93027
 C857 C 0.60733 0.69296 0.92993
 C858 C 0.58837 0.67948 0.90755
 C859 C 0.57152 0.69764 0.88705
 C860 C 0.57491 0.72887 0.88791
 C861 C 0.55148 0.68387 0.86654
 N862 N 0.54971 0.65391 0.86545
 N863 N 0.56660 0.63682 0.88346
 C864 C 0.58593 0.64851 0.90429
 H865 H 0.59696 0.76541 0.91057
 H866 H 0.62414 0.73491 0.94709
 H867 H 0.53713 0.69661 0.85144
 H868 H 0.59947 0.63332 0.91748
 C869 C 0.41320 0.70738 0.11572
 C870 C 0.39847 0.68993 0.09392
 C871 C 0.40125 0.69594 0.06218
 C872 C 0.42018 0.71912 0.05204
 C873 C 0.43568 0.73647 0.07415
 C874 C 0.43123 0.73114 0.10629
 C875 C 0.45542 0.75842 0.06324
 N876 N 0.45858 0.76306 0.03229
 N877 N 0.44340 0.74724 0.01156
 C878 C 0.42428 0.72551 0.02037
 H879 H 0.40976 0.70291 0.14019
 H880 H 0.38404 0.67220 0.10188
 H881 H 0.46868 0.77163 0.07894
 H882 H 0.41259 0.71332 0.00259
 C883 C 0.60020 0.24761 0.08226
 C884 C 0.61878 0.26355 0.06252
 C885 C 0.62094 0.29447 0.06474
 C886 C 0.60461 0.30953 0.08820
 C887 C 0.58506 0.29330 0.10782
 C888 C 0.58317 0.26206 0.10489
 C889 C 0.56775 0.30901 0.12954
 N890 N 0.57113 0.33873 0.13251
 N891 N 0.59056 0.35378 0.11521
 C892 C 0.60748 0.34024 0.09330
 H893 H 0.59913 0.22372 0.07990
 H894 H 0.63113 0.25159 0.04491
 H895 H 0.55148 0.29804 0.14411
 H896 H 0.62331 0.35363 0.08061
 C897 C 0.24482 0.07984 0.59608
 C898 C 0.26145 0.06000 0.61367
 C899 C 0.29270 0.06114 0.61379
 C900 C 0.30745 0.08311 0.59568
 C901 C 0.29040 0.10281 0.57707
 C902 C 0.25885 0.10147 0.57792
 C903 C 0.30559 0.12321 0.55802
 N904 N 0.33574 0.12480 0.55889
 N905 N 0.35168 0.10741 0.57750
 C906 C 0.33864 0.08679 0.59601
 H907 H 0.22071 0.07856 0.59697
 H908 H 0.24972 0.04344 0.62725
 H909 H 0.29382 0.13781 0.54235
 H910 H 0.35288 0.07398 0.61105
 C911 C 0.71725 0.09867 0.41909
 C912 C 0.70116 0.07744 0.40294
 C913 C 0.71304 0.06286 0.37667
 C914 C 0.74297 0.07028 0.36715
 C915 C 0.75895 0.09253 0.38375
 C916 C 0.74597 0.10634 0.40989
 C917 C 0.78789 0.10025 0.37397
 N918 N 0.80065 0.08598 0.34979
 N919 N 0.78650 0.06441 0.33488
 C920 C 0.75848 0.05592 0.34272
 H921 H 0.70725 0.10904 0.43927
 H922 H 0.67884 0.07271 0.41123
 H923 H 0.80056 0.11746 0.38541
 H924 H 0.74971 0.03758 0.32987
 C925 C 0.72771 0.89431 0.61080
 C926 C 0.71099 0.91629 0.62527
 C927 C 0.70021 0.94064 0.60846
 C928 C 0.70708 0.94317 0.57634
 C929 C 0.72391 0.92057 0.56157
 C930 C 0.73409 0.89597 0.57906
 C931 C 0.73084 0.92384 0.52986
 N932 N 0.72163 0.94822 0.51418
 N933 N 0.70623 0.96965 0.52810
 C934 C 0.69881 0.96809 0.55859
 H935 H 0.73574 0.87578 0.62445
 H936 H 0.70618 0.91412 0.64983
 H937 H 0.74376 0.90745 0.51743
 H938 H 0.68708 0.98666 0.56858
 C939 C 0.28749 0.89005 0.40281
 C940 C 0.30434 0.91172 0.38782
 C941 C 0.29670 0.94167 0.39040
 C942 C 0.27219 0.95017 0.40905
 C943 C 0.25547 0.92822 0.42494
 C944 C 0.26277 0.89784 0.42100
 C945 C 0.23231 0.93758 0.44475
 N946 N 0.22589 0.96685 0.44742
 N947 N 0.24110 0.98738 0.43179
 C948 C 0.26400 0.98005 0.41270
 H949 H 0.29346 0.86697 0.39976
 H950 H 0.32315 0.90506 0.37363
 H951 H 0.21951 0.92202 0.45845
 H952 H 0.27566 0.99762 0.40069
 C953 C 0.09906 0.39850 0.73675
 C954 C 0.07823 0.38204 0.72029
 C955 C 0.05762 0.39581 0.70049
 C956 C 0.05824 0.42724 0.69741
 C957 C 0.08029 0.44389 0.71347
 C958 C 0.10029 0.42936 0.73388
 C959 C 0.08179 0.47465 0.70831
 N960 N 0.06148 0.48802 0.68974
 N961 N 0.03974 0.47276 0.67615
 C962 C 0.03727 0.44296 0.67950
 H963 H 0.11419 0.38703 0.75224
 H964 H 0.07832 0.35815 0.72302
 H965 H 0.09898 0.48818 0.71869
 H966 H 0.01862 0.43222 0.66848
 C967 C 0.10086 0.60917 0.26612
 C968 C 0.07963 0.62469 0.28312
 C969 C 0.05611 0.60990 0.29801
 C970 C 0.05395 0.57853 0.29542
 C971 C 0.07624 0.56264 0.27892
 C972 C 0.09944 0.57829 0.26355
 C973 C 0.07465 0.53147 0.27853
 N974 N 0.05127 0.51741 0.29202
 N975 N 0.02946 0.53236 0.30595
 C976 C 0.02989 0.56235 0.30800
 H977 H 0.11839 0.62147 0.25449
 H978 H 0.08168 0.64857 0.28471
 H979 H 0.09180 0.51811 0.26781
 H980 H 0.01114 0.57303 0.31898
 C981 C 0.89335 0.39838 0.27372
 C982 C 0.91487 0.38334 0.29077
 C983 C 0.93901 0.39845 0.30402
 C984 C 0.94164 0.42959 0.29949
 C985 C 0.91944 0.44493 0.28231
 C986 C 0.89519 0.42905 0.26942
 C987 C 0.92282 0.47564 0.27770
 N988 N 0.94693 0.48989 0.28934
 N989 N 0.96798 0.47550 0.30501
 C990 C 0.96629 0.44590 0.31032
 H991 H 0.87507 0.38595 0.26370
 H992 H 0.91257 0.35959 0.29374
 H993 H 0.90672 0.48842 0.26468
 H994 H 0.98456 0.43554 0.32243
 C995 C 0.91507 0.57267 0.71939
 C996 C 0.93547 0.58830 0.70138
 C997 C 0.93494 0.61935 0.70019
 C998 C 0.91249 0.63491 0.71688
 C999 C 0.89226 0.61895 0.73603
 C1000 C 0.89345 0.58753 0.73691
 C1001 C 0.87171 0.63510 0.75403
 N1002 N 0.87032 0.66501 0.75142
 N1003 N 0.88812 0.67985 0.73214
 C1004 C 0.90902 0.66589 0.71471
 H1005 H 0.91616 0.54867 0.71965
 H1006 H 0.95219 0.57593 0.68866
 H1007 H 0.85682 0.62433 0.77025
 H1008 H 0.92216 0.67920 0.69899
 C1009 C 0.73333 0.60393 0.89729
 C1010 C 0.71631 0.61865 0.91937
 C1011 C 0.69621 0.60342 0.93885
 C1012 C 0.69479 0.57172 0.93653
 C1013 C 0.71261 0.55677 0.91391
 C1014 C 0.73163 0.57320 0.89392
 C1015 C 0.71197 0.52555 0.91308
 N1016 N 0.69471 0.51027 0.93332
 N1017 N 0.67848 0.52399 0.95477
 C1018 C 0.67816 0.55392 0.95736
 H1019 H 0.74803 0.61681 0.88251
 H1020 H 0.71841 0.64256 0.92041
 H1021 H 0.72549 0.51298 0.89705
 H1022 H 0.66574 0.56289 0.97653
 C1023 C 0.28171 0.42928 0.90655
 C1024 C 0.29881 0.41249 0.92688
 C1025 C 0.29276 0.38223 0.93231
 C1026 C 0.26984 0.36829 0.91412
 C1027 C 0.25280 0.38572 0.89294
 C1028 C 0.25819 0.41656 0.89012
 C1029 C 0.23139 0.37152 0.87423
 N1030 N 0.22692 0.34197 0.87672
 N1031 N 0.24271 0.32552 0.89628
 C1032 C 0.26399 0.33743 0.91473
 H1033 H 0.28642 0.45276 0.90426
 H1034 H 0.31615 0.42396 0.93958
 H1035 H 0.21857 0.38343 0.85708
 H1036 H 0.27631 0.32199 0.92861
 C1037 C 0.29167 0.56930 0.09676
 C1038 C 0.31053 0.58400 0.07614
 C1039 C 0.30932 0.61501 0.07255
 C1040 C 0.29086 0.63158 0.09335
 C1041 C 0.27166 0.61639 0.11439
 C1042 C 0.27129 0.58496 0.11509
 C1043 C 0.25414 0.63322 0.13502
 N1044 N 0.25596 0.66318 0.13487
 N1045 N 0.27446 0.67746 0.11588
 C1046 C 0.29213 0.66281 0.09548
 H1047 H 0.29214 0.54529 0.09747
 H1048 H 0.32477 0.57061 0.06142
 H1049 H 0.23957 0.62291 0.15187
 H1050 H 0.30780 0.67590 0.08232
 C1051 C 0.72141 0.42567 0.08846
 C1052 C 0.70496 0.40796 0.06840
 C1053 C 0.71103 0.37746 0.06500
 C1054 C 0.73347 0.36452 0.08444
 C1055 C 0.75092 0.38308 0.10399
 C1056 C 0.74450 0.41372 0.10614
 C1057 C 0.77440 0.37031 0.12103
 N1058 N 0.77870 0.34063 0.12045
 N1059 N 0.76103 0.32286 0.10413
 C1060 C 0.73850 0.33362 0.08648
 H1061 H 0.71607 0.44904 0.09018
 H1062 H 0.68790 0.41872 0.05464
 H1063 H 0.78935 0.38361 0.13490
 H1064 H 0.72433 0.31753 0.07548
 C1065 C 0.90664 0.74585 0.60684
 C1066 C 0.92854 0.72879 0.62089
 C1067 C 0.94140 0.70404 0.60591
 C1068 C 0.93178 0.69733 0.57483
 C1069 C 0.90852 0.71447 0.56119
 C1070 C 0.89641 0.73897 0.57726
 C1071 C 0.89810 0.70683 0.53147
 N1072 N 0.91103 0.68438 0.51561
 N1073 N 0.93385 0.66933 0.52733
 C1074 C 0.94485 0.67513 0.55598
 H1075 H 0.89763 0.76476 0.61918
 H1076 H 0.93505 0.73508 0.64418
 H1077 H 0.87992 0.71864 0.52058
 H1078 H 0.96418 0.66267 0.56262
 C1079 C 0.89842 0.27013 0.39430
 C1080 C 0.91959 0.28790 0.37995
 C1081 C 0.93714 0.30825 0.39677
 C1082 C 0.93283 0.30990 0.42986
 C1083 C 0.91162 0.29068 0.44446
 C1084 C 0.89406 0.27109 0.42634
 C1085 C 0.90953 0.29067 0.47712
 N1086 N 0.92663 0.30922 0.49410
 N1087 N 0.94603 0.32752 0.48075
 C1088 C 0.94987 0.32841 0.44956
 H1089 H 0.88532 0.25520 0.38010
 H1090 H 0.92177 0.28585 0.35499
 H1091 H 0.89494 0.27572 0.48951
 H1092 H 0.96665 0.34341 0.44136
 C1093 C 0.09314 0.28483 0.57105
 C1094 C 0.07290 0.30264 0.58684
 C1095 C 0.06906 0.30039 0.61924
 C1096 C 0.08888 0.28145 0.63615
 C1097 C 0.10938 0.26308 0.61972
 C1098 C 0.11072 0.26422 0.58685
 C1099 C 0.12888 0.24492 0.63684
 N1100 N 0.12827 0.24539 0.66825
 N1101 N 0.10985 0.26313 0.68373
 C1102 C 0.09051 0.28134 0.66891
 H1103 H 0.09440 0.28647 0.54600
 H1104 H 0.05898 0.31720 0.57305
 H1105 H 0.14517 0.23088 0.62565
 H1106 H 0.07781 0.29631 0.68320
 C1107 C 0.09761 0.74003 0.38934
 C1108 C 0.07554 0.72323 0.37527
 C1109 C 0.06109 0.69967 0.39090
 C1110 C 0.06993 0.69340 0.42238
 C1111 C 0.09335 0.71030 0.43607
 C1112 C 0.10651 0.73408 0.41960
 C1113 C 0.10299 0.70313 0.46622
 N1114 N 0.08922 0.68137 0.48242
 N1115 N 0.06630 0.66655 0.47061
 C1116 C 0.05600 0.67190 0.44157
 H1117 H 0.10753 0.75828 0.37659
 H1118 H 0.06986 0.72902 0.35159
 H1119 H 0.12132 0.71469 0.47712
 H1120 H 0.03667 0.65951 0.43490
 C1121 C 0.58815 0.88904 0.70310
 C1122 C 0.60386 0.91069 0.68663
 C1123 C 0.60533 0.93985 0.69758
 C1124 C 0.58955 0.94771 0.72487
 C1125 C 0.57292 0.92591 0.74117
 C1126 C 0.57314 0.89607 0.73073
 C1127 C 0.55609 0.93494 0.76711
 N1128 N 0.55679 0.96361 0.77651
 N1129 N 0.57300 0.98390 0.76165
 C1130 C 0.58937 0.97696 0.73620
 H1131 H 0.58832 0.86644 0.69462
 H1132 H 0.61567 0.90446 0.66566
 H1133 H 0.54201 0.91966 0.77975
 H1134 H 0.60183 0.99441 0.72493
 C1135 C 0.43235 0.91641 0.28065
 C1136 C 0.41660 0.93702 0.29827
 C1137 C 0.38541 0.93592 0.30026
 C1138 C 0.36990 0.91281 0.28476
 C1139 C 0.38591 0.89237 0.26598
 C1140 C 0.41747 0.89402 0.26431
 C1141 C 0.36960 0.87119 0.24907
 N1142 N 0.33960 0.86942 0.25242
 N1143 N 0.32479 0.88746 0.27138
 C1144 C 0.33885 0.90896 0.28773
 H1145 H 0.45644 0.91796 0.27972
 H1146 H 0.42890 0.95440 0.30996
 H1147 H 0.38029 0.85611 0.23309
 H1148 H 0.32559 0.92239 0.30321
 C1149 C 0.56829 0.08603 0.27816
 C1150 C 0.58510 0.06545 0.29475
 C1151 C 0.61622 0.06791 0.29628
 C1152 C 0.63050 0.09264 0.28227
 C1153 C 0.61337 0.11348 0.26527
 C1154 C 0.58213 0.10965 0.26269
 C1155 C 0.62809 0.13791 0.25186
 N1156 N 0.65792 0.14119 0.25545
 N1157 N 0.67397 0.12183 0.27170
 C1158 C 0.66132 0.09780 0.28534
 H1159 H 0.54438 0.08303 0.27660
 H1160 H 0.57380 0.04688 0.30558
 H1161 H 0.61615 0.15468 0.23895
 H1162 H 0.67546 0.08342 0.29892
 C1163 C 0.42777 0.08338 0.72283
 C1164 C 0.41093 0.06274 0.70641
 C1165 C 0.37983 0.06527 0.70460
 C1166 C 0.36558 0.08991 0.71886
 C1167 C 0.38264 0.11027 0.73662
 C1168 C 0.41409 0.10715 0.73817
 C1169 C 0.36744 0.13286 0.75269
 N1170 N 0.33759 0.13606 0.74928
 N1171 N 0.32188 0.11814 0.73105
 C1172 C 0.33480 0.09531 0.71565
 H1173 H 0.45176 0.08071 0.72370
 H1174 H 0.42227 0.04422 0.69560
 H1175 H 0.37886 0.14792 0.76809
 H1176 H 0.32087 0.08208 0.70068
 C1177 C 0.60631 0.73313 0.10133
 C1178 C 0.62070 0.71566 0.07931
 C1179 C 0.60455 0.70031 0.05659
 C1180 C 0.57293 0.70293 0.05609
 C1181 C 0.55822 0.71996 0.07928
 C1182 C 0.57522 0.73576 0.10159
 C1183 C 0.52683 0.72037 0.07949
 N1184 N 0.51141 0.70635 0.05683
 N1185 N 0.52520 0.69188 0.03405
 C1186 C 0.55533 0.68980 0.03279
 H1187 H 0.61965 0.74503 0.11815
 H1188 H 0.64478 0.71402 0.08016
 H1189 H 0.51436 0.73152 0.09751
 H1190 H 0.56500 0.67831 0.01328
 C1191 C 0.42984 0.28213 0.08306
 C1192 C 0.41423 0.29878 0.06117
 C1193 C 0.38351 0.30355 0.06439
 C1194 C 0.36865 0.29297 0.09136
 C1195 C 0.38451 0.27582 0.11345
 C1196 C 0.41516 0.26982 0.10876
 C1197 C 0.36918 0.26553 0.13987
 N1198 N 0.34001 0.27235 0.14394
 N1199 N 0.32521 0.28884 0.12349
 C1200 C 0.33850 0.29948 0.09746
 H1201 H 0.45335 0.27789 0.07935
 H1202 H 0.42598 0.30698 0.04090
 H1203 H 0.38020 0.25250 0.15754
 H1204 H 0.32548 0.31337 0.08221
 C1205 C 0.59116 0.28594 0.89367
 C1206 C 0.60803 0.30193 0.91500
 C1207 C 0.62230 0.28767 0.93979
 C1208 C 0.61905 0.25644 0.94328
 C1209 C 0.60272 0.24009 0.92088
 C1210 C 0.58808 0.25514 0.89634
 C1211 C 0.60173 0.20900 0.92370
 N1212 N 0.61451 0.19550 0.94842
 N1213 N 0.62827 0.21094 0.97044
 C1214 C 0.63085 0.24084 0.96884
 H1215 H 0.58011 0.29777 0.87506
 H1216 H 0.61007 0.32570 0.91201
 H1217 H 0.59109 0.19523 0.90646
 H1218 H 0.64168 0.25190 0.98789
 C1219 C 0.39493 0.71934 0.88887
 C1220 C 0.38125 0.70236 0.91178
 C1221 C 0.39795 0.68854 0.93520
 C1222 C 0.42957 0.69170 0.93499
 C1223 C 0.44350 0.70900 0.91138
 C1224 C 0.42586 0.72309 0.88841
 C1225 C 0.47466 0.71265 0.91230
 N1226 N 0.49074 0.69981 0.93524
 N1227 N 0.47779 0.68383 0.95748
 C1228 C 0.44788 0.67948 0.95827
 H1229 H 0.38117 0.73015 0.87159
 H1230 H 0.35718 0.70038 0.91148
 H1231 H 0.48642 0.72581 0.89523
 H1232 H 0.43899 0.66697 0.97749
 C1233 C 0.71354 0.90024 0.41261
 C1234 C 0.69687 0.92141 0.39673
 C1235 C 0.71084 0.94461 0.38065
 C1236 C 0.74247 0.94671 0.38106
 C1237 C 0.75944 0.92466 0.39656
 C1238 C 0.74473 0.90160 0.41294
 C1239 C 0.79074 0.92637 0.39496
 N1240 N 0.80401 0.94955 0.38042
 N1241 N 0.78812 0.97108 0.36731
 C1242 C 0.75791 0.97055 0.36725
 H1243 H 0.70198 0.88281 0.42510
 H1244 H 0.67279 0.91954 0.39685
 H1245 H 0.80484 0.90947 0.40498
 H1246 H 0.74645 0.98902 0.35682
 C1247 C 0.27296 0.91663 0.57282
 C1248 C 0.28953 0.93703 0.58978
 C1249 C 0.28790 0.93796 0.62232
 C1250 C 0.26914 0.91728 0.63802
 C1251 C 0.25172 0.89695 0.62055
 C1252 C 0.25413 0.89640 0.58774
 C1253 C 0.23210 0.87794 0.63658
 N1254 N 0.23123 0.87817 0.66800
 N1255 N 0.24856 0.89618 0.68447
 C1256 C 0.26748 0.91557 0.67063
 H1257 H 0.27503 0.91648 0.54775
 H1258 H 0.30355 0.95253 0.57722
 H1259 H 0.21733 0.86297 0.62449
 H1260 H 0.28119 0.92899 0.68544
 C1261 C 0.27142 0.10806 0.38821
 C1262 C 0.28853 0.08620 0.37400
 C1263 C 0.30146 0.06323 0.39134
 C1264 C 0.29672 0.06236 0.42404
 C1265 C 0.27934 0.08485 0.43851
 C1266 C 0.26667 0.10781 0.42029
 C1267 C 0.27425 0.08295 0.47072
 N1268 N 0.28581 0.06014 0.48725
 N1269 N 0.30184 0.03894 0.47374
 C1270 C 0.30753 0.03913 0.44282
 H1271 H 0.26163 0.12531 0.37398
 H1272 H 0.29164 0.08721 0.34906
 H1273 H 0.26090 0.09911 0.48293
 H1274 H 0.31989 0.02072 0.43342
 C1275 C 0.72131 0.08469 0.56667
 C1276 C 0.70363 0.06361 0.58163
 C1277 C 0.69885 0.06486 0.61378
 C1278 C 0.71105 0.08889 0.63092
 C1279 C 0.72928 0.11018 0.61567
 C1280 C 0.73479 0.10766 0.58340
 C1281 C 0.74087 0.13381 0.63319
 N1282 N 0.73439 0.13603 0.66384
 N1283 N 0.71695 0.11636 0.67809
 C1284 C 0.70495 0.09303 0.66272
 H1285 H 0.72512 0.08267 0.54191
 H1286 H 0.69429 0.04567 0.56807
 H1287 H 0.75467 0.15079 0.62276
 H1288 H 0.69031 0.07843 0.67547
 C1289 C 0.91274 0.57275 0.28082
 C1290 C 0.93343 0.58812 0.29864
 C1291 C 0.93304 0.61917 0.30003
 C1292 C 0.91054 0.63497 0.28377
 C1293 C 0.88998 0.61929 0.26489
 C1294 C 0.89101 0.58788 0.26373
 C1295 C 0.86931 0.63574 0.24736
 N1296 N 0.86822 0.66564 0.25012
 N1297 N 0.88644 0.68022 0.26907
 C1298 C 0.90743 0.66597 0.28604
 H1299 H 0.91376 0.54875 0.28024
 H1300 H 0.95036 0.57563 0.31089
 H1301 H 0.85411 0.62521 0.23138
 H1302 H 0.92105 0.67906 0.30144
 C1303 C 0.91442 0.43296 0.71102
 C1304 C 0.93569 0.41685 0.69450
 C1305 C 0.93394 0.38587 0.69258
 C1306 C 0.90906 0.37106 0.70585
 C1307 C 0.88752 0.38746 0.72279
 C1308 C 0.89079 0.41855 0.72605
 C1309 C 0.86305 0.37218 0.73558
 N1310 N 0.86039 0.34251 0.73144
 N1311 N 0.88041 0.32714 0.71526
 C1312 C 0.90454 0.34036 0.70223
 H1313 H 0.91706 0.45676 0.71312
 H1314 H 0.95440 0.42856 0.68429
 H1315 H 0.84578 0.38357 0.74841
 H1316 H 0.91953 0.32680 0.68866
 C1317 C 0.10867 0.61313 0.72448
 C1318 C 0.08687 0.62764 0.70720
 C1319 C 0.05909 0.61437 0.70199
 C1320 C 0.05289 0.58615 0.71499
 C1321 C 0.07498 0.57155 0.73283
 C1322 C 0.10308 0.58517 0.73730
 C1323 C 0.06798 0.54391 0.74613
 N1324 N 0.04055 0.53195 0.74190
 N1325 N 0.01975 0.54570 0.72523
 C1326 C 0.02495 0.57235 0.71165
 H1327 H 0.13001 0.62385 0.72803
 H1328 H 0.09178 0.64932 0.69760
 H1329 H 0.08398 0.53179 0.75996
 H1330 H 0.00710 0.58262 0.69873
 C1331 C 0.08255 0.43625 0.28163
 C1332 C 0.06160 0.42123 0.29967
 C1333 C 0.06316 0.39039 0.30351
 C1334 C 0.08735 0.37461 0.29005
 C1335 C 0.10855 0.38994 0.27149
 C1336 C 0.10570 0.42092 0.26688
 C1337 C 0.13241 0.37379 0.25870
 N1338 N 0.13488 0.34433 0.26436
 N1339 N 0.11525 0.33000 0.28209
 C1340 C 0.09172 0.34409 0.29523
 H1341 H 0.08029 0.45997 0.27853
 H1342 H 0.04349 0.43371 0.30999
 H1343 H 0.14937 0.38434 0.24465
 H1344 H 0.07715 0.33133 0.31009
   
