data_POSCAR
  _audit_creation_date              2014-09-24
  _audit_creation_method            'ToBaCCo'
  _symmetry_space_group_name_H-M    'P1'
  _symmetry_Int_Tables_number       1
  _symmetry_cell_setting            triclinic
  loop_
  _symmetry_equiv_pos_as_xyz
 x,y,z
_cell_length_a 41.7979
_cell_length_b 42.2952
_cell_length_c 43.1256
_cell_angle_alpha 92.259900
_cell_angle_beta 91.222100
_cell_angle_gamma 90.837200
loop_
  _atom_site_label
  _atom_site_type_symbol
  _atom_site_fract_x
  _atom_site_fract_y
  _atom_site_fract_z
C1 C 0.72567 0.65592 0.97133
 H2 H 0.74815 0.65321 0.95960
 C3 C 0.69954 0.66901 0.95588
 H4 H 0.70223 0.67629 0.93231
 C5 C 0.69390 0.64621 1.01487
 H6 H 0.69119 0.63625 1.03731
 C7 C 0.66737 0.65932 1.00044
 H8 H 0.64485 0.65987 1.01239
 N9 N 0.72212 0.64390 0.99988
 C10 C 0.81168 0.62148 1.04725
 H11 H 0.80526 0.59750 1.05274
 C12 C 0.84161 0.63390 1.05634
 H13 H 0.85775 0.61951 1.06952
 C14 C 0.79829 0.66896 1.02292
 H15 H 0.78149 0.68216 1.00931
 C16 C 0.82814 0.68240 1.03164
 H17 H 0.83410 0.70608 1.02475
 Zn18 Zn 0.75400 0.61663 1.01500
 N19 N 0.79101 0.63877 1.03033
 C20 C 0.79690 0.59023 0.97202
 N21 N 0.76583 0.58999 0.98080
 C22 C 0.74274 0.57453 0.96310
 C23 C 0.75049 0.55926 0.93492
 C24 C 0.80564 0.57537 0.94412
 C25 C 0.73299 0.60997 1.07511
 C26 C 0.71839 0.59582 1.09990
 C27 C 0.71384 0.54714 1.06891
 C28 C 0.72842 0.56245 1.04457
 N29 N 0.73704 0.59349 1.04789
 H30 H 0.81493 0.60297 0.98598
 H31 H 0.71809 0.57527 0.97021
 H32 H 0.73167 0.54795 0.92063
 H33 H 0.83048 0.57618 0.93755
 H34 H 0.74061 0.63453 1.07733
 H35 H 0.71636 0.61000 1.12114
 H36 H 0.70607 0.52294 1.06428
 H37 H 0.73205 0.54968 1.02276
 C38 C 0.85054 0.66445 1.04788
 C39 C 0.66960 0.66970 0.97006
 C40 C 0.70775 0.56388 1.09730
 C41 C 0.78221 0.56027 0.92478
 C42 C 0.70489 0.33463 0.52863
 H43 H 0.72269 0.34541 0.54436
 C44 C 0.67985 0.31694 0.54056
 H45 H 0.67829 0.31489 0.56541
 C46 C 0.68352 0.32657 0.47756
 H47 H 0.68442 0.33106 0.45316
 C48 C 0.65802 0.30881 0.48853
 H49 H 0.63943 0.29987 0.47248
 N50 N 0.70549 0.34031 0.49779
 C51 C 0.77939 0.38059 0.44143
 H52 H 0.77039 0.40444 0.44225
 C53 C 0.80516 0.37316 0.42283
 H54 H 0.81523 0.39143 0.40895
 C55 C 0.77661 0.32813 0.45865
 H56 H 0.76547 0.31090 0.47303
 C57 C 0.80297 0.31974 0.44066
 H58 H 0.81205 0.29597 0.44163
 Zn59 Zn 0.73251 0.37333 0.48425
 N60 N 0.76569 0.35826 0.45887
 C61 C 0.78362 0.39556 0.52331
 N62 N 0.75120 0.39551 0.51955
 C63 C 0.73232 0.40967 0.54124
 C64 C 0.74605 0.42530 0.56754
 C65 C 0.79824 0.41050 0.54942
 C66 C 0.69995 0.38994 0.43035
 C67 C 0.68227 0.40847 0.41041
 C68 C 0.68115 0.44942 0.45094
 C69 C 0.69907 0.43014 0.47009
 N70 N 0.70767 0.40073 0.45974
 H71 H 0.79826 0.38373 0.50623
 H72 H 0.70657 0.40851 0.53827
 H73 H 0.73087 0.43655 0.58461
 H74 H 0.82407 0.41046 0.55211
 H75 H 0.70822 0.36710 0.42206
 H76 H 0.67709 0.39947 0.38697
 H77 H 0.67412 0.47253 0.45982
 H78 H 0.70608 0.43887 0.49308
 C79 C 0.81783 0.34257 0.42260
 C80 C 0.65555 0.30476 0.52046
 C81 C 0.67237 0.43859 0.42067
 C82 C 0.77937 0.42571 0.57169
 C83 C 0.23822 -0.15029 0.01933
 H84 H 0.26268 -0.15062 0.02803
 C85 C 0.21430 -0.16683 0.03433
 H86 H 0.22071 -0.18044 0.05422
 C87 C 0.20003 -0.13086 -0.01628
 H88 H 0.19441 -0.11603 -0.03542
 C89 C 0.17536 -0.14686 -0.00189
 H90 H 0.15102 -0.14393 -0.01020
 N91 N 0.23062 -0.13233 -0.00513
 C92 C 0.31668 -0.10800 -0.05442
 H93 H 0.31293 -0.08276 -0.05494
 C94 C 0.34280 -0.12126 -0.06922
 H95 H 0.35922 -0.10590 -0.08086
 C96 C 0.29984 -0.15829 -0.03800
 H97 H 0.28282 -0.17256 -0.02596
 C98 C 0.32601 -0.17261 -0.05234
 H99 H 0.32889 -0.19793 -0.05128
 Zn100 Zn 0.26196 -0.10454 -0.02001
 N101 N 0.29597 -0.12644 -0.03902
 C102 C 0.31000 -0.07893 0.02165
 N103 N 0.27808 -0.07972 0.01472
 C104 C 0.25691 -0.06516 0.03385
 C105 C 0.26765 -0.04853 0.06081
 C106 C 0.32173 -0.06279 0.04848
 C107 C 0.24103 -0.09134 -0.07992
 C108 C 0.22656 -0.07455 -0.10350
 C109 C 0.21509 -0.03299 -0.06557
 C110 C 0.23047 -0.05034 -0.04292
 N111 N 0.24285 -0.07907 -0.05035
 H112 H 0.32645 -0.09150 0.00685
 H113 H 0.23154 -0.06699 0.02847
 H114 H 0.25034 -0.03687 0.07547
 H115 H 0.34706 -0.06343 0.05390
 H116 H 0.25053 -0.11454 -0.08518
 H117 H 0.22486 -0.08611 -0.12627
 H118 H 0.20626 -0.00995 -0.05858
 H119 H 0.23231 -0.04076 -0.01938
 C120 C 0.34794 -0.15395 -0.06817
 C121 C 0.18222 -0.16456 0.02427
 C122 C 0.21274 -0.04478 -0.09676
 C123 C 0.30049 -0.04731 0.06856
 C124 C 0.20886 0.17165 0.47437
 H125 H 0.23346 0.17007 0.46723
 C126 C 0.18854 0.19327 0.46058
 H127 H 0.19778 0.20863 0.44325
 C128 C 0.16610 0.15183 0.50353
 H129 H 0.15690 0.13489 0.51926
 C130 C 0.14515 0.17326 0.49066
 H131 H 0.12017 0.17233 0.49678
 N132 N 0.19715 0.15080 0.49473
 C133 C 0.27416 0.10733 0.54703
 H134 H 0.26358 0.08391 0.54774
 C135 C 0.30252 0.11426 0.56356
 H136 H 0.31358 0.09589 0.57669
 C137 C 0.27168 0.15984 0.53012
 H138 H 0.25954 0.17757 0.51717
 C139 C 0.30023 0.16783 0.54635
 H140 H 0.30999 0.19159 0.54518
 Zn141 Zn 0.22205 0.11618 0.50779
 N142 N 0.25960 0.12978 0.53027
 C143 C 0.25284 0.06532 0.47632
 N144 N 0.23391 0.09086 0.47239
 C145 C 0.22444 0.09920 0.44347
 C146 C 0.23551 0.08287 0.41719
 C147 C 0.26402 0.04795 0.45062
 C148 C 0.19194 0.10488 0.56332
 C149 C 0.17265 0.08910 0.58389
 C150 C 0.16494 0.04673 0.54506
 C151 C 0.18437 0.06340 0.52516
 N152 N 0.19721 0.09199 0.53454
 H153 H 0.25969 0.05861 0.49937
 H154 H 0.20855 0.11875 0.44054
 H155 H 0.22829 0.09032 0.39438
 H156 H 0.27973 0.02822 0.45417
 H157 H 0.20253 0.12766 0.57013
 H158 H 0.16906 0.09969 0.60679
 H159 H 0.15453 0.02418 0.53712
 H160 H 0.18874 0.05375 0.50207
 C161 C 0.31625 0.14472 0.56306
 C162 C 0.15605 0.19371 0.46822
 C163 C 0.15865 0.05971 0.57479
 C164 C 0.25587 0.05714 0.42060
 C165 C 0.16792 0.47291 0.21058
 H166 H 0.17059 0.46037 0.23186
 C167 C 0.17994 0.45996 0.18293
 H168 H 0.19140 0.43735 0.18345
 C169 C 0.14767 0.51669 0.18429
 H170 H 0.13517 0.53885 0.18482
 C171 C 0.15955 0.50481 0.15629
 H172 H 0.15601 0.51812 0.13558
 N173 N 0.15091 0.50007 0.21049
 C174 C 0.18024 0.55072 0.27427
 H175 H 0.18021 0.56196 0.25217
 C176 C 0.19911 0.56337 0.29902
 H177 H 0.21371 0.58430 0.29579
 C178 C 0.16048 0.51044 0.30566
 H179 H 0.14544 0.48980 0.30828
 C180 C 0.17917 0.52206 0.33087
 H181 H 0.17756 0.51057 0.35279
 Zn182 Zn 0.12948 0.51395 0.24678
 N183 N 0.16015 0.52572 0.27849
 C184 C 0.08521 0.48796 0.28662
 N185 N 0.10164 0.48173 0.26026
 C186 C 0.09727 0.45393 0.24368
 C187 C 0.07673 0.43056 0.25424
 C188 C 0.06486 0.46508 0.29830
 C189 C 0.10862 0.57817 0.25007
 C190 C 0.09075 0.60354 0.23999
 C191 C 0.06022 0.56726 0.20583
 C192 C 0.07899 0.54263 0.21625
 N193 N 0.10325 0.54859 0.23730
 H194 H 0.08853 0.51057 0.29898
 H195 H 0.10937 0.44986 0.22207
 H196 H 0.07350 0.40869 0.24057
 H197 H 0.05329 0.47024 0.32007
 H198 H 0.12712 0.58240 0.26760
 H199 H 0.09601 0.62715 0.24956
 H200 H 0.04190 0.56231 0.18811
 H201 H 0.07498 0.51881 0.20675
 C202 C 0.19796 0.54953 0.32805
 C203 C 0.17494 0.47549 0.15504
 C204 C 0.06661 0.59827 0.21720
 C205 C 0.06048 0.43575 0.28216
 C206 C -0.14669 0.02973 0.22852
 H207 H -0.15050 0.03958 0.25166
 C208 C -0.16334 0.04187 0.20319
 H209 H -0.17924 0.06128 0.20790
 C210 C -0.11934 -0.00579 0.19523
 H211 H -0.10204 -0.02424 0.19190
 C212 C -0.13603 0.00489 0.16950
 H213 H -0.13182 -0.00686 0.14732
 N214 N -0.12407 0.00732 0.22399
 C215 C -0.09917 -0.04580 0.30546
 H216 H -0.07363 -0.04669 0.30224
 C217 C -0.11299 -0.06408 0.32791
 H218 H -0.09781 -0.07830 0.34228
 C219 C -0.14987 -0.02646 0.29042
 H220 H -0.16414 -0.01199 0.27556
 C221 C -0.16469 -0.04405 0.31305
 H222 H -0.19038 -0.04293 0.31554
 Zn223 Zn -0.09581 -0.00492 0.25662
 N224 N -0.11759 -0.02754 0.28715
 C225 C -0.08195 0.06088 0.26828
 N226 N -0.07480 0.03096 0.27634
 C227 C -0.05332 0.02584 0.29972
 C228 C -0.03939 0.05127 0.31698
 C229 C -0.06908 0.08696 0.28532
 C230 C -0.07334 -0.06329 0.23517
 C231 C -0.05202 -0.08468 0.22208
 C232 C -0.01416 -0.04159 0.21663
 C233 C -0.03612 -0.02100 0.23033
 N234 N -0.06500 -0.03221 0.23932
 H235 H -0.09797 0.06477 0.24895
 H236 H -0.04733 0.00198 0.30535
 H237 H -0.02293 0.04677 0.33598
 H238 H -0.07561 0.11060 0.27906
 H239 H -0.09676 -0.07142 0.24185
 H240 H -0.05922 -0.10930 0.21873
 H241 H 0.00875 -0.03249 0.20942
 H242 H -0.03029 0.00394 0.23349
 C243 C -0.14614 -0.06336 0.33193
 C244 C -0.15732 0.03034 0.17265
 C245 C -0.02200 -0.07391 0.21265
 C246 C -0.04797 0.08224 0.31034
 C247 C 0.34524 0.52001 0.71992
 H248 H 0.34224 0.52874 0.74358
 C249 C 0.33215 0.53673 0.69542
 H250 H 0.31895 0.55809 0.70048
 C251 C 0.36908 0.48379 0.68441
 H252 H 0.38422 0.46373 0.67996
 C253 C 0.35620 0.49948 0.65940
 H254 H 0.36101 0.49077 0.63607
 N255 N 0.36478 0.49511 0.71396
 C256 C 0.38702 0.44128 0.79551
 H257 H 0.41161 0.43660 0.78987
 C258 C 0.37379 0.42725 0.82095
 H259 H 0.38878 0.41245 0.83492
 C260 C 0.33817 0.46644 0.78409
 H261 H 0.32440 0.48169 0.76958
 C262 C 0.32391 0.45296 0.80971
 H263 H 0.29914 0.45790 0.81457
 Zn264 Zn 0.39219 0.47922 0.74533
 N265 N 0.36940 0.46073 0.77782
 C266 C 0.41514 0.54292 0.75359
 N267 N 0.41859 0.51277 0.76302
 C268 C 0.43935 0.50634 0.78661
 C269 C 0.45593 0.53084 0.80297
 C270 C 0.43077 0.56816 0.76966
 C271 C 0.40501 0.41775 0.72342
 C272 C 0.42250 0.39330 0.70975
 C273 C 0.46584 0.43055 0.70244
 C274 C 0.44770 0.45425 0.71682
 N275 N 0.41791 0.44741 0.72701
 H276 H 0.39976 0.54773 0.73404
 H277 H 0.44248 0.48227 0.79336
 H278 H 0.47150 0.52536 0.82236
 H279 H 0.42696 0.59207 0.76242
 H280 H 0.38102 0.41311 0.73118
 H281 H 0.41181 0.36985 0.70703
 H282 H 0.48952 0.43623 0.69437
 H283 H 0.45721 0.47813 0.71956
 C284 C 0.34194 0.43323 0.82868
 C285 C 0.33903 0.52732 0.66472
 C286 C 0.45331 0.39958 0.69906
 C287 C 0.45085 0.56228 0.79516
 C288 C 0.67722 0.95093 0.71442
 H289 H 0.66301 0.93386 0.72621
 C290 C 0.69457 0.94087 0.68867
 H291 H 0.69231 0.91647 0.68043
 C292 C 0.69471 1.00384 0.70884
 H293 H 0.69435 1.02843 0.71644
 C294 C 0.71259 0.99477 0.68308
 H295 H 0.72544 1.01258 0.67069
 N296 N 0.67602 0.98224 0.72282
 C297 C 0.64065 1.04341 0.79625
 H298 H 0.61799 1.04815 0.78493
 C299 C 0.64818 1.05813 0.82493
 H300 H 0.63072 1.07399 0.83475
 C301 C 0.68843 1.01416 0.79778
 H302 H 0.70350 0.99630 0.78730
 C303 C 0.69696 1.02829 0.82673
 H304 H 0.71948 1.02175 0.83720
 Zn305 Zn 0.64333 0.99678 0.74962
 N306 N 0.66033 1.02145 0.78358
 C307 C 0.62081 0.95882 0.79694
 N308 N 0.62057 0.96181 0.76563
 C309 C 0.60433 0.94059 0.74639
 C310 C 0.58691 0.91567 0.75854
 C311 C 0.60378 0.93432 0.81003
 C312 C 0.62679 1.05065 0.71705
 C313 C 0.60767 1.07035 0.69955
 C314 C 0.56412 1.03266 0.70297
 C315 C 0.58407 1.01373 0.72054
 N316 N 0.61506 1.02261 0.72670
 H317 H 0.63401 0.97557 0.81199
 H318 H 0.60458 0.94325 0.72154
 H319 H 0.57353 0.89949 0.74291
 H320 H 0.60446 0.93248 0.83500
 H321 H 0.65090 1.05814 0.72344
 H322 H 0.61755 1.09268 0.69253
 H323 H 0.53976 1.02477 0.69780
 H324 H 0.57460 0.99200 0.72913
 C325 C 0.67614 1.04992 0.84154
 C326 C 0.71156 0.96315 0.67205
 C327 C 0.57595 1.06127 0.69191
 C328 C 0.58610 0.91261 0.79083
 C329 C 0.01662 0.22258 -0.15982
 H330 H 0.02470 0.24641 -0.16403
 C331 C 0.03191 0.19678 -0.17423
 H332 H 0.05153 0.20101 -0.18958
 C333 C -0.01626 0.18787 -0.13225
 H334 H -0.03415 0.18398 -0.11514
 C335 C -0.00197 0.16167 -0.14624
 H336 H -0.00971 0.13823 -0.14011
 N337 N -0.00612 0.21769 -0.13824
 C338 C -0.06161 0.30128 -0.11348
 H339 H -0.06451 0.29573 -0.08945
 C340 C -0.07760 0.32693 -0.12527
 H341 H -0.09213 0.34113 -0.10979
 C342 C -0.03878 0.28950 -0.16228
 H343 H -0.02361 0.27480 -0.17658
 C344 C -0.05439 0.31523 -0.17513
 H345 H -0.05122 0.31987 -0.19938
 Zn346 Zn -0.02078 0.25090 -0.11094
 N347 N -0.04230 0.28338 -0.13178
 C348 C 0.00844 0.29281 -0.06613
 N349 N 0.01437 0.26927 -0.08753
 C350 C 0.04474 0.25930 -0.09234
 C351 C 0.07057 0.27371 -0.07599
 C352 C 0.03350 0.30754 -0.04892
 C353 C -0.07925 0.22395 -0.09589
 C354 C -0.10077 0.20690 -0.07857
 C355 C -0.06304 0.21052 -0.03535
 C356 C -0.04206 0.22722 -0.05376
 N357 N -0.05022 0.23294 -0.08364
 H358 H -0.01583 0.30006 -0.06216
 H359 H 0.04918 0.24022 -0.10892
 H360 H 0.09448 0.26589 -0.08110
 H361 H 0.02800 0.32588 -0.03174
 H362 H -0.08526 0.22922 -0.11965
 H363 H -0.12368 0.20092 -0.08948
 H364 H -0.05475 0.20512 -0.01227
 H365 H -0.01870 0.23441 -0.04455
 C366 C -0.07392 0.33455 -0.15640
 C367 C 0.02344 0.16589 -0.16639
 C368 C -0.09270 0.19878 -0.04786
 C369 C 0.06521 0.29826 -0.05388
 C370 C 0.46996 0.22214 0.18313
 H371 H 0.47465 0.24402 0.19627
 C372 C 0.45749 0.19589 0.19807
 H373 H 0.45249 0.19789 0.22259
 C374 C 0.47159 0.19213 0.13567
 H375 H 0.47771 0.19044 0.11146
 C376 C 0.45946 0.16557 0.14955
 H377 H 0.45549 0.14406 0.13547
 N378 N 0.47641 0.21984 0.15229
 C379 C 0.54094 0.29874 0.14187
 H380 H 0.55409 0.28591 0.12429
 C381 C 0.55207 0.32858 0.15232
 H382 H 0.57408 0.33803 0.14333
 C383 C 0.49473 0.30385 0.17250
 H384 H 0.47138 0.29512 0.17863
 C385 C 0.50542 0.33362 0.18413
 H386 H 0.49063 0.34723 0.19988
 Zn387 Zn 0.49436 0.25199 0.12811
 N388 N 0.51242 0.28717 0.15153
 C389 C 0.46173 0.29959 0.09740
 N390 N 0.46252 0.26775 0.10073
 C391 C 0.44106 0.24807 0.08520
 C392 C 0.41765 0.26031 0.06561
 C393 C 0.43877 0.31279 0.07812
 C394 C 0.55176 0.22034 0.12221
 C395 C 0.57540 0.20265 0.10762
 C396 C 0.54743 0.20873 0.05867
 C397 C 0.52467 0.22694 0.07414
 N398 N 0.52702 0.23195 0.10542
 H399 H 0.47900 0.31498 0.10960
 H400 H 0.44194 0.22287 0.08786
 H401 H 0.40097 0.24426 0.05327
 H402 H 0.43841 0.33824 0.07634
 H403 H 0.55287 0.22460 0.14711
 H404 H 0.59504 0.19424 0.12162
 H405 H 0.54433 0.20400 0.03394
 H406 H 0.50457 0.23610 0.06133
 C407 C 0.53388 0.34659 0.17314
 C408 C 0.45242 0.16705 0.18119
 C409 C 0.57313 0.19592 0.07545
 C410 C 0.41636 0.29309 0.06181
 C411 C 0.96229 0.70076 0.65531
 H412 H 0.95451 0.72488 0.65880
 C413 C 0.94486 0.67596 0.66800
 H414 H 0.92388 0.68165 0.68107
 C415 C 0.99802 0.66434 0.63238
 H416 H 1.01801 0.65936 0.61774
 C417 C 0.98182 0.63914 0.64503
 H418 H 0.99084 0.61554 0.64078
 N419 N 0.98805 0.69452 0.63739
 C420 C 1.05708 0.76444 0.64958
 H421 H 1.07391 0.74778 0.64031
 C422 C 1.06882 0.79142 0.66586
 H423 H 1.09440 0.79412 0.66962
 C424 C 1.00388 0.78163 0.65536
 H425 H 0.97858 0.77812 0.65038
 C426 C 1.01470 0.80957 0.67090
 H427 H 0.99734 0.82716 0.67753
 Zn428 Zn 1.00907 0.72735 0.61610
 N429 N 1.02509 0.76013 0.64420
 C430 C 0.98595 0.77550 0.57910
 N431 N 0.97912 0.74611 0.58906
 C432 C 0.95082 0.73127 0.58139
 C433 C 0.92770 0.74644 0.56368
 C434 C 0.96335 0.79171 0.56177
 C435 C 1.06736 0.69511 0.60724
 C436 C 1.09138 0.68017 0.59047
 C437 C 1.06439 0.69427 0.54308
 C438 C 1.04117 0.70954 0.56083
 N439 N 1.04287 0.70950 0.59236
 H440 H 1.00863 0.78682 0.58557
 H441 H 0.94602 0.70775 0.58925
 H442 H 0.90545 0.73405 0.55774
 H443 H 0.96888 0.81561 0.55555
 H444 H 1.06780 0.69444 0.63230
 H445 H 1.11074 0.66952 0.60317
 H446 H 1.06189 0.69379 0.51804
 H447 H 1.02131 0.72066 0.54934
 C448 C 1.04775 0.81519 0.67563
 C449 C 0.95410 0.64443 0.66224
 C450 C 1.08989 0.67903 0.55784
 C451 C 0.93353 0.77738 0.55407
 C452 C 0.51359 0.73879 0.34328
 H453 H 0.49923 0.75365 0.32883
 C454 C 0.52761 0.71139 0.33038
 H455 H 0.52398 0.70530 0.30593
 C456 C 0.53446 0.72742 0.39308
 H457 H 0.53672 0.73362 0.41762
 C458 C 0.54873 0.70026 0.38134
 H459 H 0.56228 0.68596 0.39707
 N460 N 0.51716 0.74598 0.37424
 C461 C 0.44236 0.81252 0.38496
 H462 H 0.43418 0.80216 0.40592
 C463 C 0.42298 0.83410 0.37023
 H464 H 0.40045 0.83964 0.38083
 C465 C 0.48329 0.81990 0.34883
 H466 H 0.50708 0.81454 0.34097
 C467 C 0.46465 0.84178 0.33327
 H468 H 0.47433 0.85213 0.31288
 Zn469 Zn 0.49774 0.77879 0.39773
 N470 N 0.47180 0.80564 0.37407
 C471 C 0.52380 0.82418 0.44228
 N472 N 0.53041 0.80377 0.41817
 C473 C 0.56049 0.80165 0.40691
 C474 C 0.58551 0.81984 0.42039
 C475 C 0.54830 0.84270 0.45671
 C476 C 0.44805 0.73931 0.41097
 C477 C 0.42864 0.71948 0.42767
 C478 C 0.45845 0.73581 0.47432
 C479 C 0.47722 0.75575 0.45664
 N480 N 0.47173 0.75696 0.42550
 H481 H 0.49954 0.82601 0.45033
 H482 H 0.56514 0.78602 0.38716
 H483 H 0.60932 0.81728 0.41132
 H484 H 0.54278 0.85872 0.47599
 H485 H 0.44452 0.74042 0.38611
 H486 H 0.40969 0.70614 0.41541
 H487 H 0.46361 0.73441 0.49893
 H488 H 0.49678 0.76928 0.46760
 C489 C 0.43383 0.84947 0.34389
 C490 C 0.54497 0.69146 0.34975
 C491 C 0.43408 0.71693 0.45970
 C492 C 0.57963 0.84070 0.44565
 C493 C 0.34443 0.00103 0.21272
 C494 C 0.35674 0.01506 0.24054
 C495 C 0.37513 0.04298 0.24002
 C496 C 0.38219 0.05623 0.21167
 C497 C 0.36947 0.04226 0.18392
 C498 C 0.35023 0.01473 0.18416
 C499 C 0.35189 -0.00059 0.26997
 C500 C 0.36735 -0.02900 0.27551
 C501 C 0.36289 -0.04432 0.30336
 C502 C 0.34275 -0.03073 0.32578
 C503 C 0.32660 -0.00236 0.32038
 C504 C 0.33158 0.01256 0.29222
 H505 H 0.33075 -0.02088 0.21345
 H506 H 0.38521 0.05347 0.26147
 H507 H 0.38274 -0.03923 0.25799
 H508 H 0.31920 0.03412 0.28711
 H509 H 0.37437 0.05324 0.16227
 H510 H 0.34040 -0.04200 0.34771
 C511 C 0.10588 1.00953 0.70351
 C512 C 0.10131 0.99351 0.73098
 C513 C 0.09252 0.96130 0.72931
 C514 C 0.08815 0.94520 0.70042
 C515 C 0.09227 0.96169 0.67317
 C516 C 0.10182 0.99368 0.67442
 C517 C 0.10736 1.01030 0.76130
 C518 C 0.09224 1.03906 0.76824
 C519 C 0.09825 1.05534 0.79677
 C520 C 0.12075 1.04330 0.81768
 C521 C 0.13598 1.01441 0.81136
 C522 C 0.12868 0.99784 0.78309
 H523 H 0.11401 1.03399 0.70497
 H524 H 0.08941 0.94869 0.75047
 H525 H 0.07489 1.04800 0.75190
 H526 H 0.13957 0.97529 0.77771
 H527 H 0.08775 0.94981 0.65084
 H528 H 0.12642 1.05671 0.83903
 C529 C 0.62652 0.52502 0.21976
 C530 C 0.60579 0.51234 0.24126
 C531 C 0.58756 0.48515 0.23307
 C532 C 0.59007 0.47004 0.20366
 C533 C 0.61136 0.48285 0.18237
 C534 C 0.62980 0.51029 0.19019
 C535 C 0.60546 0.52543 0.27345
 C536 C 0.59568 0.55657 0.28019
 C537 C 0.59530 0.56843 0.31116
 C538 C 0.60603 0.54894 0.33488
 C539 C 0.61555 0.51780 0.32844
 C540 C 0.61500 0.50615 0.29759
 H541 H 0.64118 0.54554 0.22671
 H542 H 0.57145 0.47580 0.24992
 H543 H 0.58750 0.57092 0.26144
 H544 H 0.62280 0.48229 0.29212
 H545 H 0.61389 0.47131 0.15978
 H546 H 0.60664 0.55787 0.35876
 C547 C 0.83837 0.48232 0.70733
 C548 C 0.85349 0.49920 0.73234
 C549 C 0.87168 0.52658 0.72698
 C550 C 0.87520 0.53690 0.69665
 C551 C 0.85869 0.52056 0.67209
 C552 C 0.84057 0.49311 0.67708
 C553 C 0.85095 0.48773 0.76405
 C554 C 0.86480 0.45892 0.77177
 C555 C 0.86322 0.44833 0.80221
 C556 C 0.84671 0.46657 0.82449
 C557 C 0.83206 0.49485 0.81679
 C558 C 0.83485 0.50570 0.78666
 H559 H 0.82450 0.46115 0.71158
 H560 H 0.88420 0.53890 0.74624
 H561 H 0.87707 0.44511 0.75413
 H562 H 0.82416 0.52792 0.78070
 H563 H 0.86070 0.52869 0.64870
 H564 H 0.84653 0.45948 0.84829
 C565 C 0.20423 0.36305 -0.01151
 C566 C 0.23118 0.37996 0.00030
 C567 C 0.22831 0.40116 0.02588
 C568 C 0.19842 0.40616 0.03934
 C569 C 0.17157 0.38905 0.02728
 C570 C 0.17432 0.36720 0.00215
 C571 C 0.26266 0.37469 -0.01345
 C572 C 0.26915 0.38539 -0.04311
 C573 C 0.29943 0.38085 -0.05592
 C574 C 0.32269 0.36470 -0.03891
 C575 C 0.31652 0.35391 -0.00924
 C576 C 0.28637 0.35925 0.00344
 H577 H 0.20667 0.34651 -0.03112
 H578 H 0.24929 0.41406 0.03496
 H579 H 0.25071 0.39742 -0.05592
 H580 H 0.28119 0.35193 0.02652
 H581 H 0.14863 0.39182 0.03820
 H582 H 0.34606 0.36086 -0.04864
 C583 C 0.70323 0.12353 1.02906
 C584 C 0.72943 0.11106 1.01318
 C585 C 0.72517 0.09853 0.98270
 C586 C 0.69502 0.09865 0.96780
 C587 C 0.66922 0.11202 0.98367
 C588 C 0.67308 0.12459 1.01414
 C589 C 0.76195 0.11334 1.02713
 C590 C 0.76959 0.09858 1.05483
 C591 C 0.80134 0.09888 1.06633
 C592 C 0.82503 0.11532 1.05046
 C593 C 0.81770 0.12986 1.02253
 C594 C 0.78597 0.12897 1.01128
 H595 H 0.70670 0.13384 1.05231
 H596 H 0.74559 0.08929 0.97044
 H597 H 0.75118 0.08558 1.06653
 H598 H 0.77974 0.14050 0.99003
 H599 H 0.64578 0.11226 0.97245
 H600 H 0.84933 0.11637 1.05942
 C601 C 0.22603 0.62729 0.51033
 C602 C 0.25512 0.61935 0.49662
 C603 C 0.25528 0.60914 0.46524
 C604 C 0.22675 0.60722 0.44757
 C605 C 0.19789 0.61582 0.46135
 C606 C 0.19737 0.62587 0.49273
 C607 C 0.28539 0.62202 0.51495
 C608 C 0.28832 0.60772 0.54370
 C609 C 0.31748 0.60928 0.56056
 C610 C 0.34318 0.62688 0.54915
 C611 C 0.34062 0.64086 0.52033
 C612 C 0.31178 0.63815 0.50322
 H613 H 0.22583 0.63541 0.53448
 H614 H 0.27755 0.60225 0.45466
 H615 H 0.26842 0.59397 0.55202
 H616 H 0.30976 0.64896 0.48090
 H617 H 0.17563 0.61349 0.44812
 H618 H 0.36563 0.62880 0.56212
 C619 C 0.72371 0.87904 0.49112
 C620 C 0.75374 0.88434 0.50577
 C621 C 0.75561 0.89996 0.53508
 C622 C 0.72784 0.91109 0.54928
 C623 C 0.69794 0.90543 0.53441
 C624 C 0.69559 0.88939 0.50533
 C625 C 0.78319 0.87506 0.48956
 C626 C 0.78760 0.88396 0.45900
 C627 C 0.81578 0.87655 0.44333
 C628 C 0.83923 0.85880 0.45850
 C629 C 0.83503 0.84917 0.48906
 C630 C 0.80703 0.85797 0.50456
 H631 H 0.72234 0.86634 0.46881
 H632 H 0.77879 0.90468 0.54619
 H633 H 0.76909 0.89722 0.44759
 H634 H 0.80362 0.85159 0.52835
 H635 H 0.67641 0.91371 0.54546
 H636 H 0.86081 0.85256 0.44659
 C637 C -0.01021 0.22531 0.36309
 C638 C 0.00368 0.25460 0.37257
 C639 C 0.03307 0.25551 0.38890
 C640 C 0.04829 0.22739 0.39598
 C641 C 0.03395 0.19820 0.38697
 C642 C 0.00472 0.19679 0.37017
 C643 C -0.01249 0.28422 0.36498
 C644 C -0.04454 0.28870 0.37280
 C645 C -0.06009 0.31670 0.36552
 C646 C -0.04331 0.33978 0.34947
 C647 C -0.01091 0.33609 0.34196
 C648 C 0.00420 0.30797 0.34998
 H649 H -0.03228 0.22502 0.34948
 H650 H 0.04393 0.27805 0.39637
 H651 H -0.05688 0.27074 0.38542
 H652 H 0.02888 0.30401 0.34468
 H653 H 0.04539 0.17659 0.39358
 H654 H -0.05595 0.36054 0.34244
 C655 C 1.02347 0.72445 0.14095
 C656 C 1.01254 0.74531 0.11888
 C657 C 0.98639 0.73678 0.09939
 C658 C 0.97163 0.70690 0.10134
 C659 C 0.98350 0.68569 0.12300
 C660 C 1.00932 0.69432 0.14323
 C661 C 1.02866 0.77622 0.11695
 C662 C 1.05480 0.77968 0.09753
 C663 C 1.07266 0.80806 0.09841
 C664 C 1.06361 0.83325 0.11838
 C665 C 1.03775 0.82979 0.13832
 C666 C 1.02026 0.80114 0.13727
 H667 H 1.04304 0.73205 0.15649
 H668 H 0.97774 0.75325 0.08262
 H669 H 1.06193 0.75991 0.08261
 H670 H 1.00020 0.79797 0.15240
 H671 H 0.97236 0.66253 0.12406
 H672 H 1.07681 0.85542 0.11870
 C673 C 0.50997 0.18267 0.62706
 C674 C 0.49103 0.20734 0.61662
 C675 C 0.45845 0.20181 0.60957
 C676 C 0.44458 0.17166 0.61292
 C677 C 0.46382 0.14743 0.62421
 C678 C 0.49649 0.15259 0.63116
 C679 C 0.50545 0.23903 0.61331
 C680 C 0.53095 0.24312 0.59321
 C681 C 0.54463 0.27321 0.58983
 C682 C 0.53361 0.29898 0.60796
 C683 C 0.50866 0.29514 0.62894
 C684 C 0.49415 0.26505 0.63077
 H685 H 0.53499 0.18731 0.63286
 H686 H 0.44435 0.22084 0.60064
 H687 H 0.53948 0.22302 0.57955
 H688 H 0.47427 0.26154 0.64602
 H689 H 0.45339 0.12423 0.62738
 H690 H 0.54521 0.32190 0.60628
 C691 C 0.50147 0.70111 0.85568
 C692 C 0.51773 0.72767 0.86910
 C693 C 0.54536 0.72368 0.88744
 C694 C 0.55625 0.69326 0.89331
 C695 C 0.53971 0.66684 0.87984
 C696 C 0.51238 0.67037 0.86074
 C697 C 0.50519 0.75967 0.86492
 C698 C 0.47498 0.76767 0.87632
 C699 C 0.46360 0.79862 0.87411
 C700 C 0.48253 0.82101 0.85936
 C701 C 0.51268 0.81338 0.84781
 C702 C 0.52399 0.78258 0.85084
 H703 H 0.48068 0.70474 0.84094
 H704 H 0.55750 0.74423 0.89821
 H705 H 0.46077 0.74989 0.88738
 H706 H 0.54749 0.77637 0.84284
 H707 H 0.54813 0.64338 0.88449
 H708 H 0.47405 0.84493 0.85734
 C709 C 0.42820 -0.10507 0.30985
 C710 C 0.41480 -0.12758 0.32923
 C711 C 0.38132 -0.12544 0.33383
 C712 C 0.36397 -0.09921 0.32405
 C713 C 0.37931 -0.07448 0.30900
 C714 C 0.41089 -0.07931 0.30007
 C715 C 0.43907 -0.05736 0.30312
 C716 C 0.45814 -0.08529 0.31397
 H717 H 0.36823 -0.14340 0.34566
 H718 H 0.33885 -0.09770 0.32949
 H719 H 0.43619 -0.03846 0.32147
 H720 H 0.44666 -0.04897 0.28026
 H721 H 0.46636 -0.08262 0.33865
 H722 H 0.47690 -0.09263 0.29741
 C723 C 0.88249 0.37454 0.84544
 C724 C 0.91039 0.36323 0.83178
 C725 C 0.92440 0.38206 0.80918
 C726 C 0.90922 0.40966 0.79923
 C727 C 0.87967 0.41914 0.81165
 C728 C 0.86767 0.40158 0.83573
 C729 C 0.83502 0.38770 0.83949
 C730 C 0.85128 0.35798 0.85012
 H731 H 0.94706 0.37565 0.79923
 H732 H 0.92070 0.42350 0.78192
 H733 H 0.82162 0.38420 0.81703
 H734 H 0.82174 0.40021 0.85823
 H735 H 0.84737 0.33716 0.83384
 H736 H 0.84730 0.35341 0.87496
 C737 C 0.05486 1.13347 0.79442
 C738 C 0.04282 1.13824 0.82410
 C739 C 0.05034 1.11466 0.84547
 C740 C 0.06846 1.08793 0.83661
 C741 C 0.07974 1.08368 0.80600
 C742 C 0.07189 1.10742 0.78572
 C743 C 0.07531 1.11762 0.75327
 C744 C 0.05588 1.14692 0.76307
 H745 H 0.04245 1.11690 0.86919
 H746 H 0.07316 1.07038 0.85368
 H747 H 0.06240 1.10157 0.73606
 H748 H 0.10058 1.12323 0.74781
 H749 H 0.03178 1.14749 0.75172
 H750 H 0.06996 1.16941 0.76304
 C751 C 0.55911 0.63558 0.35831
 C752 C 0.55824 0.66084 0.33843
 C753 C 0.57251 0.65634 0.30921
 C754 C 0.58502 0.62653 0.29996
 C755 C 0.58328 0.60058 0.31969
 C756 C 0.57106 0.60653 0.34926
 C757 C 0.54588 0.58907 0.36608
 C758 C 0.53279 0.62110 0.37609
 H759 H 0.57390 0.67567 0.29354
 H760 H 0.59575 0.62387 0.27741
 H761 H 0.55601 0.57595 0.38576
 H762 H 0.52941 0.57501 0.35012
 H763 H 0.53551 0.62642 0.40147
 H764 H 0.50868 0.62569 0.36599
 C765 C 0.54710 0.39094 0.21177
 C766 C 0.54319 0.37977 0.18102
 C767 C 0.54909 0.40117 0.15749
 C768 C 0.56249 0.43137 0.16477
 C769 C 0.57101 0.44058 0.19576
 C770 C 0.56091 0.42046 0.21894
 C771 C 0.57886 0.40847 0.24630
 C772 C 0.56367 0.37619 0.23841
 H773 H 0.54466 0.39401 0.13337
 H774 H 0.56736 0.44673 0.14592
 H775 H 0.57056 0.41920 0.26860
 H776 H 0.60523 0.40913 0.24332
 H777 H 0.54656 0.36847 0.25610
 H778 H 0.58120 0.35807 0.23087
 C779 C 0.09080 0.85756 0.67968
 C780 C 0.06053 0.84643 0.68806
 C781 C 0.04227 0.86729 0.70684
 C782 C 0.05207 0.89921 0.71234
 C783 C 0.08002 0.91103 0.69881
 C784 C 0.10005 0.88891 0.68449
 C785 C 0.11883 0.88888 0.65539
 C786 C 0.10868 0.85439 0.65011
 H787 H 0.01967 0.85961 0.71598
 H788 H 0.03668 0.91509 0.72524
 H789 H 0.14493 0.89213 0.66015
 H790 H 0.10871 0.90384 0.63719
 H791 H 0.12905 0.83791 0.65185
 H792 H 0.09255 0.85010 0.62947
 C793 C 0.91970 0.61622 0.70124
 C794 C 0.93503 0.61670 0.67251
 C795 C 0.93386 0.58827 0.65408
 C796 C 0.91585 0.56195 0.66276
 C797 C 0.89779 0.56311 0.68999
 C798 C 0.90198 0.58991 0.70988
 C799 C 0.87762 0.60949 0.72595
 C800 C 0.89636 0.63832 0.71611
 H801 H 0.94557 0.58664 0.63195
 H802 H 0.91514 0.54108 0.64739
 H803 H 0.87832 0.60658 0.75146
 H804 H 0.85347 0.60698 0.71471
 H805 H 0.90727 0.65241 0.73602
 H806 H 0.88267 0.65215 0.69907
 C807 C 0.41532 0.13982 0.21747
 C808 C 0.44000 0.13837 0.19596
 C809 C 0.45033 0.10799 0.18619
 C810 C 0.43260 0.08078 0.19315
 C811 C 0.40463 0.08334 0.21058
 C812 C 0.39806 0.11281 0.22474
 C813 C 0.36734 0.13026 0.22624
 C814 C 0.38617 0.15979 0.21826
 H815 H 0.47054 0.10537 0.17106
 H816 H 0.43940 0.05808 0.18304
 H817 H 0.35780 0.13151 0.25011
 H818 H 0.34981 0.12212 0.20775
 H819 H 0.38741 0.17803 0.23753
 H820 H 0.37960 0.16878 0.19512
 C821 C 0.34087 0.39143 -0.13199
 C822 C 0.32880 0.41972 -0.14283
 C823 C 0.30734 0.43640 -0.12356
 C824 C 0.29704 0.42367 -0.09557
 C825 C 0.30796 0.39397 -0.08619
 C826 C 0.33081 0.37900 -0.10461
 C827 C 0.33113 0.34588 -0.11785
 C828 C 0.34217 0.35954 -0.14796
 H829 H 0.29879 0.45937 -0.12981
 H830 H 0.28090 0.43727 -0.08119
 H831 H 0.30682 0.33483 -0.11971
 H832 H 0.34963 0.33143 -0.10643
 H833 H 0.32429 0.35645 -0.16735
 H834 H 0.36702 0.35292 -0.15385
 C835 C 0.81559 0.93085 0.37535
 C836 C 0.83900 0.91787 0.35625
 C837 C 0.84955 0.88720 0.36262
 C838 C 0.84038 0.87248 0.38990
 C839 C 0.82077 0.88832 0.41162
 C840 C 0.80685 0.91655 0.40237
 C841 C 0.80395 0.94769 0.41961
 C842 C 0.81351 0.96330 0.38997
 H843 H 0.86634 0.87536 0.34750
 H844 H 0.85007 0.84954 0.39460
 H845 H 0.82202 0.95104 0.43880
 H846 H 0.77887 0.95260 0.42613
 H847 H 0.83713 0.97575 0.39195
 H848 H 0.79391 0.97708 0.37945
 C849 C 0.84154 0.03846 1.11615
 C850 C 0.82903 0.04423 1.14592
 C851 C 0.80286 0.06535 1.14735
 C852 C 0.79330 0.08256 1.12134
 C853 C 0.80993 0.07982 1.09331
 C854 C 0.83271 0.05602 1.09100
 C855 C 0.86537 0.05507 1.07770
 C856 C 0.87518 0.03573 1.10512
 H857 H 0.78977 0.06930 1.16843
 H858 H 0.77392 0.09915 1.12365
 H859 H 0.87809 0.07829 1.07832
 H860 H 0.86576 0.04146 1.05514
 H861 H 0.89288 0.04810 1.12115
 H862 H 0.88131 0.01104 1.09801
 C863 C 0.35468 0.55325 0.61610
 C864 C 0.33205 0.54817 0.63869
 C865 C 0.30327 0.56526 0.63574
 C866 C 0.29821 0.58558 0.61054
 C867 C 0.32219 0.59000 0.58820
 C868 C 0.35028 0.57337 0.59271
 C869 C 0.38204 0.56662 0.57906
 C870 C 0.38722 0.54414 0.60581
 H871 H 0.28457 0.56261 0.65248
 H872 H 0.27574 0.59785 0.60871
 H873 H 0.39853 0.58749 0.58048
 H874 H 0.37978 0.55426 0.55587
 H875 H 0.40627 0.55233 0.62276
 H876 H 0.38844 0.51892 0.59777
 C877 C 0.21366 0.59796 0.36073
 C878 C 0.21397 0.56500 0.35582
 C879 C 0.22652 0.54717 0.38017
 C880 C 0.23312 0.56157 0.40971
 C881 C 0.22688 0.59389 0.41548
 C882 C 0.21959 0.61202 0.38989
 C883 C 0.19553 0.63718 0.38490
 C884 C 0.18891 0.62165 0.35292
 H885 H 0.22893 0.52179 0.37712
 H886 H 0.24032 0.54693 0.42861
 H887 H 0.20690 0.66103 0.38399
 H888 H 0.17465 0.63579 0.40028
 H889 H 0.19636 0.63666 0.33368
 H890 H 0.16450 0.61094 0.35017
 C891 C 0.66345 0.08661 0.88518
 C892 C 0.68145 0.06147 0.87270
 C893 C 0.70248 0.04665 0.89378
 C894 C 0.70667 0.05827 0.92473
 C895 C 0.69016 0.08512 0.93573
 C896 C 0.66764 0.09794 0.91563
 C897 C 0.66360 0.13152 0.90732
 C898 C 0.65923 0.11938 0.87391
 H899 H 0.71551 0.02570 0.88707
 H900 H 0.72299 0.04623 0.93994
 H901 H 0.68576 0.14607 0.91156
 H902 H 0.64151 0.14184 0.91713
 H903 H 0.67889 0.12678 0.85867
 H904 H 0.63468 0.12322 0.86452
 C905 C 0.74534 0.93195 0.63390
 C906 C 0.72243 0.95502 0.64046
 C907 C 0.70723 0.96893 0.61499
 C908 C 0.71074 0.95607 0.58469
 C909 C 0.72992 0.92934 0.57925
 C910 C 0.74938 0.91987 0.60391
 C911 C 0.75746 0.88783 0.61468
 C912 C 0.75316 0.90105 0.64769
 H913 H 0.69026 0.98774 0.61878
 H914 H 0.69668 0.96560 0.56596
 H915 H 0.78261 0.88154 0.60968
 H916 H 0.73919 0.86955 0.60722
 H917 H 0.77589 0.90237 0.66156
 H918 H 0.73279 0.88966 0.65922
 C919 C 0.21259 0.44624 0.11856
 C920 C 0.18321 0.46085 0.12436
 C921 C 0.16155 0.46260 0.09886
 C922 C 0.16738 0.44658 0.07038
 C923 C 0.19521 0.42854 0.06642
 C924 C 0.21862 0.43116 0.09013
 C925 C 0.23866 0.40655 0.10436
 C926 C 0.23171 0.42252 0.13564
 H927 H 0.13899 0.47457 0.10147
 H928 H 0.14926 0.44694 0.05207
 H929 H 0.26418 0.40867 0.09788
 H930 H 0.22795 0.38238 0.10116
 H931 H 0.25335 0.43330 0.14745
 H932 H 0.21707 0.40691 0.15002
 C933 C -0.13139 0.35976 0.39776
 C934 C -0.15311 0.33549 0.40428
 C935 C -0.14605 0.30474 0.39253
 C936 C -0.11644 0.29848 0.37844
 C937 C -0.09328 0.32285 0.37568
 C938 C -0.10249 0.35366 0.38387
 C939 C -0.08525 0.37875 0.40328
 C940 C -0.11696 0.38547 0.41859
 H941 H -0.16277 0.28530 0.39507
 H942 H -0.11133 0.27444 0.37081
 H943 H -0.07663 0.39849 0.38921
 H944 H -0.06702 0.36896 0.41926
 H945 H -0.12645 0.40913 0.41338
 H946 H -0.11719 0.37958 0.44350
 C947 C 0.38916 0.84576 0.89077
 C948 C 0.37665 0.83231 0.91710
 C949 C 0.39435 0.80798 0.93058
 C950 C 0.42233 0.79640 0.91652
 C951 C 0.43317 0.80876 0.88854
 C952 C 0.41643 0.83431 0.87693
 C953 C 0.40319 0.83889 0.84503
 C954 C 0.37323 0.85150 0.86025
 H955 H 0.38680 0.79806 0.95204
 H956 H 0.43549 0.77806 0.92777
 H957 H 0.39911 0.81616 0.83158
 H958 H 0.41674 0.85726 0.83279
 H959 H 0.35171 0.83612 0.85565
 H960 H 0.36960 0.87711 0.85679
 C961 C 1.15846 0.82060 0.07482
 C962 C 1.15593 0.82173 0.04244
 C963 C 1.12634 0.81186 0.02844
 C964 C 1.09941 0.80609 0.04674
 C965 C 1.10141 0.81062 0.07929
 C966 C 1.13193 0.81557 0.09275
 C967 C 1.14450 0.83745 0.11838
 C968 C 1.17364 0.84292 0.09863
 H969 H 1.12344 0.81027 0.00343
 H970 H 1.07662 0.80020 0.03537
 H971 H 1.15014 0.82476 0.13986
 H972 H 1.13034 0.85923 0.12182
 H973 H 1.19598 0.83337 0.10879
 H974 H 1.17569 0.86748 0.09048
 C975 C 0.62291 0.26446 0.54820
 C976 C 0.62531 0.29296 0.53293
 C977 C 0.59774 0.31164 0.53117
 C978 C 0.57058 0.30432 0.54840
 C979 C 0.57033 0.27786 0.56731
 C980 C 0.59584 0.25688 0.56462
 C981 C 0.61491 0.24095 0.58894
 C982 C 0.64464 0.24924 0.57093
 H983 H 0.59815 0.33328 0.51855
 H984 H 0.55060 0.32034 0.54836
 H985 H 0.60972 0.21509 0.58888
 H986 H 0.61391 0.25347 0.61206
 H987 H 0.65650 0.22812 0.56054
 H988 H 0.66088 0.26630 0.58392
 C989 C 0.37011 0.12785 0.58210
 C990 C 0.34740 0.15161 0.57942
 C991 C 0.35548 0.18171 0.59296
 C992 C 0.38663 0.18822 0.60521
 C993 C 0.41046 0.16481 0.60403
 C994 C 0.40064 0.13424 0.59395
 C995 C 0.41541 0.11164 0.57114
 C996 C 0.38187 0.10462 0.55816
 H997 H 0.33818 0.20051 0.59327
 H998 H 0.39216 0.21180 0.61462
 H999 H 0.42622 0.09112 0.58255
 H1000 H 0.43114 0.12368 0.55464
 H1001 H 0.37344 0.08010 0.56216
 H1002 H 0.37808 0.11257 0.53410
 C1003 C 0.88926 0.70882 0.06354
 C1004 C 0.88336 0.67688 0.05525
 C1005 C 0.90992 0.65658 0.05526
 C1006 C 0.93962 0.66695 0.06820
 C1007 C 0.94351 0.69791 0.08121
 C1008 C 0.91864 0.71909 0.07620
 C1009 C 0.90341 0.74207 0.09827
 C1010 C 0.87125 0.73083 0.08443
 H1011 H 0.90731 0.63215 0.04702
 H1012 H 0.95885 0.65017 0.06977
 H1013 H 0.90939 0.76699 0.09315
 H1014 H 0.90702 0.73593 0.12293
 H1015 H 0.85874 0.74930 0.07136
 H1016 H 0.85618 0.71815 0.10103
 C1017 C 0.63863 0.70147 0.93121
 C1018 C 0.64011 0.67737 0.95236
 C1019 C 0.61167 0.65901 0.95491
 C1020 C 0.58417 0.66452 0.93622
 C1021 C 0.58405 0.68873 0.91444
 C1022 C 0.61193 0.70715 0.91371
 C1023 C 0.62787 0.73236 0.89621
 C1024 C 0.65801 0.72615 0.91610
 H1025 H 0.61090 0.63959 0.97050
 H1026 H 0.56319 0.64958 0.93865
 H1027 H 0.61747 0.75604 0.90100
 H1028 H 0.63040 0.72543 0.87126
 H1029 H 0.66491 0.74616 0.93248
 H1030 H 0.67782 0.71604 0.90229
 C1031 C 0.13428 0.21358 0.41812
 C1032 C 0.13279 0.21246 0.45050
 C1033 C 0.10539 0.22523 0.46467
 C1034 C 0.07845 0.23315 0.44653
 C1035 C 0.07853 0.22832 0.41406
 C1036 C 0.10766 0.22107 0.40030
 C1037 C 0.11569 0.19772 0.37490
 C1038 C 0.14481 0.18934 0.39449
 H1039 H 0.10362 0.22627 0.48970
 H1040 H 0.05664 0.23993 0.45799
 H1041 H 0.12197 0.20944 0.35319
 H1042 H 0.09802 0.17793 0.37187
 H1043 H 0.16782 0.19612 0.38395
 H1044 H 0.14373 0.16487 0.40301
 C1045 C 0.52209 0.08226 0.67682
 C1046 C 0.55523 0.08151 0.67279
 C1047 C 0.56793 0.10087 0.64991
 C1048 C 0.54865 0.12316 0.63520
 C1049 C 0.51619 0.12651 0.64291
 C1050 C 0.50313 0.10411 0.66228
 C1051 C 0.48256 0.10865 0.68991
 C1052 C 0.50337 0.08472 0.70589
 H1053 H 0.59298 0.09976 0.64420
 H1054 H 0.55949 0.13850 0.61874
 H1055 H 0.45763 0.09998 0.68521
 H1056 H 0.48474 0.13294 0.70067
 H1057 H 0.49035 0.06231 0.71040
 H1058 H 0.51766 0.09509 0.72594
 C1059 C 1.06710 0.65234 0.19614
 C1060 C 1.04989 0.62530 0.20384
 C1061 C 1.01689 0.62412 0.19635
 C1062 C 1.00294 0.64752 0.17821
 C1063 C 1.02189 0.67221 0.16654
 C1064 C 1.05357 0.67501 0.17786
 C1065 C 1.08400 0.67992 0.16097
 C1066 C 1.09879 0.65510 0.18112
 H1067 H 1.00224 0.60437 0.20319
 H1068 H 0.97771 0.64529 0.17232
 H1069 H 1.09454 0.70395 0.16572
 H1070 H 1.08190 0.67238 0.13600
 H1071 H 1.11763 0.66490 0.19751
 H1072 H 1.10534 0.63313 0.16786
 C1073 C 1.01672 0.91093 0.17111
 C1074 C 1.00043 0.90362 0.19800
 C1075 C 1.00375 0.87282 0.20890
 C1076 C 1.01821 0.84909 0.19051
 C1077 C 1.02943 0.85566 0.16077
 C1078 C 1.03090 0.88747 0.15289
 C1079 C 1.02116 0.90250 0.12348
 C1080 C 1.00561 0.92818 0.14342
 H1081 H 0.99313 0.86649 0.23053
 H1082 H 1.01859 0.82522 0.19870
 H1083 H 1.00368 0.88773 0.10927
 H1084 H 1.04213 0.91124 0.11071
 H1085 H 0.97908 0.92833 0.14081
 H1086 H 1.01762 0.95169 0.14210
 C1087 C 0.48917 0.37878 0.65726
 C1088 C 0.47205 0.37392 0.68422
 C1089 C 0.47230 0.34329 0.69599
 C1090 C 0.48558 0.31784 0.67887
 C1091 C 0.49849 0.32231 0.64929
 C1092 C 0.50192 0.35365 0.64020
 C1093 C 0.49363 0.36802 0.61005
 C1094 C 0.47970 0.39555 0.62877
 H1095 H 0.46096 0.33871 0.71774
 H1096 H 0.48451 0.29456 0.68837
 H1097 H 0.47534 0.35388 0.59622
 H1098 H 0.51527 0.37477 0.59715
 H1099 H 0.45331 0.39744 0.62581
 H1100 H 0.49338 0.41808 0.62669
 C1101 C 0.49676 0.58744 0.82585
 C1102 C 0.46532 0.58878 0.81436
 C1103 C 0.44755 0.61577 0.82275
 C1104 C 0.46227 0.64188 0.83895
 C1105 C 0.49531 0.64185 0.84673
 C1106 C 0.51139 0.61332 0.84135
 C1107 C 0.54267 0.60717 0.82629
 C1108 C 0.52659 0.57880 0.80937
 H1109 H 0.42248 0.61705 0.81611
 H1110 H 0.44783 0.66225 0.84452
 H1111 H 0.56150 0.60042 0.84326
 H1112 H 0.54974 0.62621 0.81062
 H1113 H 0.53610 0.55578 0.81670
 H1114 H 0.52435 0.58130 0.78384
 C1115 C -0.00351 0.11162 0.33951
 C1116 C -0.03565 0.10939 0.32994
 C1117 C -0.05593 0.13400 0.33973
 C1118 C -0.04324 0.16172 0.35477
 C1119 C -0.00987 0.16569 0.35984
 C1120 C 0.00909 0.13911 0.35391
 C1121 C 0.03988 0.13609 0.33717
 C1122 C 0.02601 0.10601 0.32138
 H1123 H -0.08139 0.13241 0.33460
 H1124 H -0.05952 0.18044 0.36103
 H1125 H 0.06036 0.13158 0.35317
 H1126 H 0.04385 0.15550 0.32095
 H1127 H 0.03851 0.08429 0.32832
 H1128 H 0.02185 0.10793 0.29597
 C1129 C 0.04556 0.37847 0.28805
 C1130 C 0.03956 0.41053 0.29441
 C1131 C 0.01376 0.41763 0.31392
 C1132 C -0.00241 0.39357 0.32926
 C1133 C 0.00634 0.36146 0.32538
 C1134 C 0.02983 0.35463 0.30332
 C1135 C 0.05988 0.33575 0.30502
 C1136 C 0.07652 0.36154 0.28768
 H1137 H 0.00667 0.44185 0.31840
 H1138 H -0.02070 0.40062 0.34539
 H1139 H 0.05775 0.31292 0.29140
 H1140 H 0.06975 0.33415 0.32904
 H1141 H 0.08325 0.35377 0.26380
 H1142 H 0.09569 0.37432 0.30163
 C1143 C 0.56083 0.85812 0.78951
 C1144 C 0.56590 0.88783 0.80448
 C1145 C 0.55046 0.89354 0.83288
 C1146 C 0.53372 0.86917 0.84705
 C1147 C 0.53189 0.83833 0.83332
 C1148 C 0.54453 0.83388 0.80364
 C1149 C 0.56687 0.80957 0.79086
 C1150 C 0.58427 0.83612 0.77511
 H1151 H 0.55180 0.91666 0.84456
 H1152 H 0.52295 0.87428 0.86928
 H1153 H 0.55461 0.79246 0.77419
 H1154 H 0.58198 0.79879 0.80901
 H1155 H 0.58163 0.83456 0.74939
 H1156 H 0.60911 0.84049 0.78419
 C1157 C 0.67964 0.56860 0.14602
 C1158 C 0.69224 0.55020 0.12122
 C1159 C 0.68784 0.51688 0.12303
 C1160 C 0.66886 0.50373 0.14608
 C1161 C 0.65313 0.52321 0.16804
 C1162 C 0.66071 0.55550 0.16846
 C1163 C 0.63897 0.58305 0.17016
 C1164 C 0.65929 0.59753 0.14554
 H1165 H 0.69895 0.50038 0.10700
 H1166 H 0.66601 0.47826 0.14608
 H1167 H 0.64087 0.59615 0.19300
 H1168 H 0.61417 0.57691 0.16195
 H1169 H 0.67241 0.61923 0.15434
 H1170 H 0.64629 0.59986 0.12299
 C1171 C 0.13825 1.00944 0.59700
 C1172 C 0.13805 1.04249 0.59635
 C1173 C 0.11868 1.05866 0.61805
 C1174 C 0.10459 1.04249 0.64238
 C1175 C 0.10951 1.00981 0.64547
 C1176 C 0.12434 0.99351 0.62090
 C1177 C 0.15039 0.96973 0.62144
 C1178 C 0.16565 0.98724 0.59531
 H1179 H 0.11593 1.08403 0.61738
 H1180 H 0.09158 1.05594 0.65973
 H1181 H 0.14161 0.94563 0.61403
 H1182 H 0.16479 0.97110 0.64345
 H1183 H 0.16563 0.97318 0.57298
 H1184 H 0.18890 0.99891 0.60214
 C1185 C 0.17623 0.99635 0.88849
 C1186 C 0.19758 0.97189 0.88084
 C1187 C 0.20221 0.96591 0.84855
 C1188 C 0.18357 0.98080 0.82592
 C1189 C 0.15908 1.00177 0.83452
 C1190 C 0.15746 1.01046 0.86610
 C1191 C 0.12906 1.01233 0.88639
 C1192 C 0.14930 0.99685 0.91093
 H1193 H 0.22032 0.94992 0.84018
 H1194 H 0.18796 0.97506 0.80174
 H1195 H 0.10868 0.99720 0.87737
 H1196 H 0.12291 1.03716 0.89293
 H1197 H 0.14065 0.97271 0.91626
 H1198 H 0.15443 1.01283 0.93157
 C1199 C 0.65645 0.49186 0.40215
 C1200 C 0.65357 0.45882 0.39980
 C1201 C 0.63257 0.44574 0.37639
 C1202 C 0.61900 0.46494 0.35376
 C1203 C 0.62595 0.49771 0.35412
 C1204 C 0.64297 0.51075 0.37997
 C1205 C 0.67077 0.53334 0.38156
 C1206 C 0.68560 0.51262 0.40586
 H1207 H 0.62762 0.42053 0.37470
 H1208 H 0.60414 0.45393 0.33538
 H1209 H 0.66409 0.55710 0.39105
 H1210 H 0.68420 0.53338 0.35957
 H1211 H 0.68749 0.52451 0.42928
 H1212 H 0.70764 0.50058 0.39800
 C1213 C 0.79739 0.47532 0.60016
 C1214 C 0.79485 0.44235 0.59870
 C1215 C 0.81106 0.42563 0.62172
 C1216 C 0.82594 0.44195 0.64743
 C1217 C 0.82541 0.47532 0.65019
 C1218 C 0.81240 0.49135 0.62519
 C1219 C 0.78883 0.51749 0.62494
 C1220 C 0.77227 0.49985 0.59753
 H1221 H 0.81135 0.40002 0.62029
 H1222 H 0.83755 0.42849 0.66518
 H1223 H 0.80002 0.54031 0.61870
 H1224 H 0.77417 0.51865 0.64617
 H1225 H 0.77387 0.51257 0.57553
 H1226 H 0.74797 0.49087 0.60290
 C1227 C 0.34182 -0.01506 0.10025
 C1228 C 0.31232 -0.03095 0.09784
 C1229 C 0.29441 -0.03083 0.12544
 C1230 C 0.30640 -0.01574 0.15341
 C1231 C 0.33668 -0.00005 0.15480
 C1232 C 0.35304 -0.00006 0.12694
 C1233 C 0.38363 0.00990 0.11283
 C1234 C 0.37090 -0.00683 0.08264
 H1235 H 0.27144 -0.04294 0.12577
 H1236 H 0.29183 -0.01635 0.17383
 H1237 H 0.40469 -0.00180 0.12327
 H1238 H 0.38590 0.03596 0.11106
 H1239 H 0.38512 -0.02784 0.07574
 H1240 H 0.36557 0.00962 0.06380
 C1241 C 0.28063 0.05826 0.36838
 C1242 C 0.26933 0.04088 0.39291
 C1243 C 0.27212 0.00772 0.39044
 C1244 C 0.28922 -0.00675 0.36600
 C1245 C 0.30458 0.01171 0.34382
 C1246 C 0.29792 0.04414 0.34466
 C1247 C 0.31995 0.07216 0.34319
 C1248 C 0.30091 0.08761 0.36915
 H1249 H 0.26218 -0.00692 0.40801
 H1250 H 0.29128 -0.03222 0.36535
 H1251 H 0.31735 0.08431 0.32091
 H1252 H 0.34497 0.06676 0.35023
 H1253 H 0.28728 0.10848 0.36173
 H1254 H 0.31487 0.09124 0.39128
 C1255 C 0.77623 0.51880 0.88138
 C1256 C 0.79081 0.54660 0.89386
 C1257 C 0.81473 0.56072 0.87599
 C1258 C 0.82679 0.54465 0.84955
 C1259 C 0.81550 0.51401 0.84071
 C1260 C 0.78855 0.50266 0.85585
 C1261 C 0.77978 0.47117 0.86806
 C1262 C 0.76629 0.48901 0.89612
 H1263 H 0.82533 0.58338 0.88328
 H1264 H 0.84654 0.55514 0.83752
 H1265 H 0.80064 0.45667 0.87438
 H1266 H 0.76106 0.45860 0.85340
 H1267 H 0.77978 0.48515 0.91812
 H1268 H 0.73985 0.48666 0.89752
 C1269 C 0.12071 0.66905 0.50871
 C1270 C 0.11426 0.66153 0.53939
 C1271 C 0.13194 0.63652 0.55188
 C1272 C 0.15821 0.62369 0.53609
 C1273 C 0.16690 0.63491 0.50710
 C1274 C 0.14621 0.65590 0.49291
 C1275 C 0.15359 0.68595 0.47737
 C1276 C 0.12575 0.70045 0.49472
 H1277 H 0.12658 0.62768 0.57440
 H1278 H 0.17256 0.60607 0.54717
 H1279 H 0.14925 0.68367 0.45185
 H1280 H 0.17725 0.69637 0.48474
 H1281 H 0.10551 0.70668 0.47911
 H1282 H 0.13324 0.71927 0.51223
 C1283 C 0.60147 0.17637 1.02760
 C1284 C 0.59667 0.17501 1.05959
 C1285 C 0.61438 0.15221 1.07564
 C1286 C 0.63882 0.13506 1.06086
 C1287 C 0.64565 0.13975 1.02953
 C1288 C 0.62513 0.15911 1.01299
 C1289 C 0.63291 0.18514 0.99193
 C1290 C 0.60707 0.20420 1.00800
 H1291 H 0.61018 0.14809 1.09981
 H1292 H 0.65288 0.11884 1.07414
 H1293 H 0.62681 0.17859 0.96728
 H1294 H 0.65744 0.19514 0.99620
 H1295 H 0.58623 0.20875 0.99246
 H1296 H 0.61656 0.22525 1.02168
 C1297 C 0.89152 0.17701 1.00107
 C1298 C 0.88783 0.17966 0.96864
 C1299 C 0.86347 0.16009 0.95405
 C1300 C 0.84184 0.14273 0.97145
 C1301 C 0.84326 0.14440 1.00410
 C1302 C 0.86978 0.16002 1.01819
 C1303 C 0.87113 0.18348 1.04485
 C1304 C 0.89472 0.20231 1.02635
 H1305 H 0.86079 0.15748 0.92912
 H1306 H 0.82339 0.12869 0.95915
 H1307 H 0.88205 0.17352 1.06599
 H1308 H 0.84799 0.19562 1.04839
 H1309 H 0.91907 0.20342 1.03724
 H1310 H 0.88532 0.22543 1.01916
 C1311 C 0.40766 0.69979 0.50858
 C1312 C 0.41492 0.69405 0.47728
 C1313 C 0.40232 0.66587 0.46273
 C1314 C 0.37915 0.64759 0.47737
 C1315 C 0.36865 0.65661 0.50716
 C1316 C 0.38517 0.68138 0.52325
 C1317 C 0.37253 0.70922 0.54113
 C1318 C 0.39710 0.72940 0.52508
 H1319 H 0.40891 0.65878 0.43937
 H1320 H 0.36825 0.62738 0.46480
 H1321 H 0.37731 0.70776 0.56648
 H1322 H 0.34738 0.71455 0.53448
 H1323 H 0.41596 0.73959 0.54123
 H1324 H 0.38624 0.74643 0.50907
 C1325 C 0.60861 0.86492 0.49267
 C1326 C 0.60623 0.85986 0.46042
 C1327 C 0.63140 0.87183 0.44273
 C1328 C 0.65989 0.88352 0.45731
 C1329 C 0.66384 0.88347 0.48989
 C1330 C 0.63670 0.87642 0.50703
 C1331 C 0.63306 0.85541 0.53378
 C1332 C 0.60230 0.84279 0.51804
 H1333 H 0.62993 0.87036 0.41762
 H1334 H 0.67938 0.89083 0.44295
 H1335 H 0.62895 0.86908 0.55584
 H1336 H 0.65218 0.83746 0.53499
 H1337 H 0.58051 0.84920 0.53106
 H1338 H 0.60354 0.81751 0.51010
 C1339 C 0.08969 0.34533 -0.02409
 C1340 C 0.09226 0.31419 -0.03609
 C1341 C 0.12156 0.29886 -0.03043
 C1342 C 0.14816 0.31576 -0.01726
 C1343 C 0.14600 0.34824 -0.00901
 C1344 C 0.11575 0.36179 -0.01076
 C1345 C 0.10589 0.39217 -0.02427
 C1346 C 0.07733 0.37415 -0.03899
 H1347 H 0.12445 0.27415 -0.03703
 H1348 H 0.17061 0.30364 -0.01439
 H1349 H 0.12311 0.40075 -0.04148
 H1350 H 0.09910 0.41003 -0.00608
 H1351 H 0.07796 0.37222 -0.06476
 H1352 H 0.05412 0.38181 -0.02933
 C1353 C 0.36122 0.29325 0.03720
 C1354 C 0.39196 0.30666 0.04086
 C1355 C 0.39854 0.33402 0.02426
 C1356 C 0.37401 0.34922 0.00804
 C1357 C 0.34214 0.33765 0.00805
 C1358 C 0.33684 0.30848 0.02163
 C1359 C 0.31251 0.29786 0.04414
 C1360 C 0.33924 0.28082 0.06074
 H1361 H 0.42239 0.34436 0.02460
 H1362 H 0.37978 0.37086 -0.00339
 H1363 H 0.29424 0.28149 0.03302
 H1364 H 0.30287 0.31749 0.05885
 H1365 H 0.33663 0.25462 0.05872
 H1366 H 0.34474 0.29073 0.08455
 C1367 C 0.91530 0.81735 0.51533
 C1368 C 0.90830 0.79481 0.53713
 C1369 C 0.87523 0.78993 0.54252
 C1370 C 0.85142 0.80718 0.52674
 C1371 C 0.85968 0.83002 0.50490
 C1372 C 0.89239 0.83352 0.49979
 C1373 C 0.91626 0.85202 0.48247
 C1374 C 0.94209 0.83371 0.49985
 H1375 H 0.86755 0.77332 0.55940
 H1376 H 0.82659 0.80238 0.53166
 H1377 H 0.91603 0.87768 0.48912
 H1378 H 0.91545 0.84620 0.45712
 H1379 H 0.95680 0.84922 0.51611
 H1380 H 0.95575 0.81727 0.48456
   
