data_POSCAR
  _audit_creation_date              2014-09-24
  _audit_creation_method            'ToBaCCo'
  _symmetry_space_group_name_H-M    'P1'
  _symmetry_Int_Tables_number       1
  _symmetry_cell_setting            triclinic
  loop_
  _symmetry_equiv_pos_as_xyz
 x,y,z
_cell_length_a 57.2221
_cell_length_b 56.1766
_cell_length_c 58.7550
_cell_angle_alpha 90.397300
_cell_angle_beta 88.977000
_cell_angle_gamma 90.904000
loop_
  _atom_site_label
  _atom_site_type_symbol
  _atom_site_fract_x
  _atom_site_fract_y
  _atom_site_fract_z
C1 C 0.38500 1.37713 0.32821
 N2 N 0.36361 1.38512 0.33490
 C3 C 0.35291 1.37697 0.35431
 N4 N 0.36363 1.35997 0.36668
 C5 C 0.38527 1.35232 0.36042
 N6 N 0.39585 1.36116 0.34142
 C7 C 0.36069 0.87808 0.83678
 N8 N 0.37637 0.86271 0.84534
 C9 C 0.37181 0.85167 0.86548
 N10 N 0.35169 0.85633 0.87722
 C11 C 0.33592 0.87167 0.86886
 N12 N 0.34047 0.88214 0.84847
 C13 C 0.87303 1.35791 0.83554
 N14 N 0.85182 1.36562 0.84395
 C15 C 0.84368 1.35754 0.86471
 N16 N 0.85606 1.34083 0.87566
 C17 C 0.87635 1.33249 0.86715
 N18 N 0.88497 1.34148 0.84745
 C19 C 0.84883 0.84913 0.33608
 N20 N 0.83170 0.85866 0.34952
 C21 C 0.82225 0.84628 0.36724
 N22 N 0.82982 0.82412 0.37154
 C23 C 0.84681 0.81424 0.35839
 N24 N 0.85634 0.82672 0.34062
 C25 C 0.65084 0.63957 0.32212
 N26 N 0.64280 0.65965 0.33261
 C27 C 0.65234 0.66720 0.35262
 N28 N 0.66982 0.65445 0.36198
 C29 C 0.67723 0.63402 0.35188
 N30 N 0.66782 0.62688 0.33199
 C31 C 0.64045 0.14148 0.82919
 N32 N 0.65564 0.12558 0.83786
 C33 C 0.66806 0.13099 0.85682
 N34 N 0.66429 0.15210 0.86764
 C35 C 0.64876 0.16782 0.85963
 N36 N 0.63727 0.16262 0.84018
 C37 C 1.14813 0.63561 0.82284
 N38 N 1.13426 0.65345 0.83065
 C39 C 1.14159 0.66823 0.84752
 N40 N 1.16289 0.66505 0.85666
 C41 C 1.17671 0.64705 0.84945
 N42 N 1.16934 0.63235 0.83245
 C43 C 1.18054 0.16168 0.29459
 N44 N 1.20098 0.15493 0.30368
 C45 C 1.20817 0.16385 0.32402
 N46 N 1.19498 0.18060 0.33491
 C47 C 1.17509 0.18848 0.32529
 N48 N 1.16782 0.17860 0.30546
 C49 C 0.62367 1.38705 0.65563
 N50 N 0.64483 1.39452 0.64737
 C51 C 0.65619 1.38196 0.63075
 N52 N 0.64622 1.36141 0.62282
 C53 C 0.62481 1.35408 0.63069
 N54 N 0.61368 1.36700 0.64704
 C55 C 0.61037 0.88328 1.16220
 N56 N 0.63328 0.88959 1.15949
 C57 C 0.64588 0.88215 1.14107
 N58 N 0.63569 0.86719 1.12577
 C59 C 0.61282 0.86062 1.12835
 N60 N 0.60022 0.86900 1.14637
 C61 C 1.13648 1.36215 1.16318
 N62 N 1.13013 1.34234 1.15123
 C63 C 1.13982 1.33760 1.13052
 N64 N 1.15665 1.35238 1.12205
 C65 C 1.16355 1.37217 1.13370
 N66 N 1.15303 1.37724 1.15411
 C67 C 1.12869 0.87380 0.66306
 N68 N 1.11653 0.85396 0.65683
 C69 C 1.12424 0.84002 0.63949
 N70 N 1.14459 0.84578 0.62852
 C71 C 1.15681 0.86591 0.63413
 N72 N 1.14864 0.87998 0.65145
 C73 C 0.34640 0.64494 0.69079
 N74 N 0.35288 0.66692 0.68351
 C75 C 0.34315 0.67631 0.66472
 N76 N 0.32652 0.66354 0.65332
 C77 C 0.32021 0.64122 0.66041
 N78 N 0.33034 0.63220 0.67910
 C79 C 0.34871 0.14287 1.18211
 N80 N 0.33154 0.13193 1.17024
 C81 C 0.32382 0.14070 1.15035
 N82 N 0.33343 0.16142 1.14226
 C83 C 0.35113 0.17260 1.15371
 N84 N 0.35876 0.16310 1.17356
 C85 C 0.87213 0.61197 1.16492
 N86 N 0.88645 0.63011 1.15783
 C87 C 0.88099 0.64307 1.13931
 N88 N 0.86132 0.63762 1.12768
 C89 C 0.84705 0.61943 1.13443
 N90 N 0.85229 0.60691 1.15331
 C91 C 0.86861 0.12460 0.67408
 N92 N 0.84923 0.11312 0.66625
 C93 C 0.83615 0.12277 0.64963
 N94 N 0.84248 0.14453 0.64114
 C95 C 0.86188 0.15604 0.64886
 N96 N 0.87483 0.14596 0.66512
 C97 C 1.37237 0.37035 0.67238
 N98 N 1.37650 0.34991 0.66069
 C99 C 1.36172 0.34165 0.64462
 N100 N 1.34209 0.35398 0.64051
 C101 C 1.33776 0.37484 0.65159
 N102 N 1.35308 0.38317 0.66740
 C103 C 1.36394 0.86964 1.17110
 N104 N 1.37004 0.85033 1.15829
 C105 C 1.35588 0.84229 1.14139
 N106 N 1.33588 0.85404 1.13728
 C107 C 1.33006 0.87379 1.14931
 N108 N 1.34404 0.88143 1.16634
 C109 C 0.85548 0.36321 1.17114
 N110 N 0.83505 0.36954 1.16125
 C111 C 0.82583 0.35576 1.14428
 N112 N 0.83732 0.33603 1.13705
 C113 C 0.85793 0.33012 1.14625
 N114 N 0.86671 0.34361 1.16327
 C115 C 0.84124 0.84830 0.67874
 N116 N 0.85561 0.83096 0.67064
 C117 C 0.85139 0.82008 0.65038
 N118 N 0.83303 0.82708 0.63792
 C119 C 0.81865 0.84448 0.64555
 N120 N 0.82258 0.85487 0.66619
 C121 C 0.66151 0.64699 0.67450
 N122 N 0.64648 0.66148 0.66356
 C123 C 0.65152 0.66878 0.64191
 N124 N 0.67162 0.66184 0.63149
 C125 C 0.68661 0.64757 0.64222
 N126 N 0.68152 0.64006 0.66364
 C127 C 0.63682 1.15214 1.17721
 N128 N 0.65438 1.13739 1.17085
 C129 C 0.66613 1.14038 1.15088
 N130 N 0.66042 1.15848 1.13699
 C131 C 0.64298 1.17365 1.14295
 N132 N 0.63118 1.17031 1.16313
 C133 C 0.12791 0.62820 1.16856
 N134 N 0.12038 0.64951 1.16148
 C135 C 0.13131 0.66152 1.14434
 N136 N 0.15003 0.65145 1.13348
 C137 C 0.15788 0.62986 1.14043
 N138 N 0.14697 0.61859 1.15821
 C139 C 0.13007 1.11812 0.66606
 N140 N 0.12228 1.14009 0.66115
 C141 C 0.13036 1.15213 0.64261
 N142 N 0.14725 1.14210 0.62915
 C143 C 0.15555 1.12015 0.63420
 N144 N 0.14670 1.10820 0.65251
 C145 C 1.36365 0.62607 0.32876
 N146 N 1.37564 0.64583 0.33604
 C147 C 1.36995 0.65609 0.35653
 N148 N 1.35302 0.64591 0.36997
 C149 C 1.34202 0.62561 0.36324
 N150 N 1.34702 0.61620 0.34257
 C151 C 1.34273 1.15141 0.82559
 N152 N 1.35740 1.16641 0.83723
 C153 C 1.35098 1.17496 0.85820
 N154 N 1.32984 1.16861 0.86719
 C155 C 1.31502 1.15430 0.85565
 N156 N 1.32146 1.14566 0.83496
 C157 C 0.88562 0.61763 0.83312
 N158 N 0.89615 0.63673 0.84295
 C159 C 0.88568 0.64834 0.86060
 N160 N 0.86437 0.64072 0.86847
 C161 C 0.85357 0.62169 0.85852
 N162 N 0.86417 0.61045 0.84072
 C163 C 0.82120 1.16377 0.30144
 N164 N 0.79914 1.15921 0.30926
 C165 C 0.78882 1.17337 0.32499
 N166 N 0.80045 1.19282 0.33263
 C167 C 0.82271 1.19776 0.32550
 N168 N 0.83338 1.18276 0.31024
 C169 C 0.63898 0.37163 0.31896
 N170 N 0.65886 0.37961 0.32887
 C171 C 0.66738 0.36893 0.34744
 N172 N 0.65611 0.34949 0.35612
 C173 C 0.63576 0.34140 0.34686
 N174 N 0.62716 0.35279 0.32839
 C175 C 0.63417 0.88376 0.83116
 N176 N 0.65231 0.89343 0.84282
 C177 C 0.65875 0.88409 0.86294
 N178 N 0.64717 0.86470 0.87118
 C179 C 0.62886 0.85497 0.85989
 N180 N 0.62229 0.86459 0.83985
 C181 C 0.14477 0.36080 0.82603
 N182 N 0.13016 0.34355 0.83434
 C183 C 0.13634 0.32996 0.85223
 N184 N 0.15726 0.33436 0.86233
 C185 C 0.17174 0.35218 0.85469
 N186 N 0.16552 0.36503 0.83631
 C187 C 0.13845 0.85437 0.32796
 N188 N 0.13501 0.83329 0.33891
 C189 C 0.14863 0.82724 0.35660
 N190 N 0.16619 0.84217 0.36305
 C191 C 0.16968 0.86341 0.35252
 N192 N 0.15563 0.86953 0.33518
 O193 O 0.96860 0.90271 0.89168
 O194 O 0.96890 0.87290 0.86707
 C195 C 0.96030 0.89228 0.87426
 C196 C 0.94057 0.90306 0.86228
 C197 C 0.93388 0.89498 0.84067
 H198 H 0.94292 0.88008 0.83299
 O199 O 1.00811 1.07969 0.88840
 O200 O 1.00506 1.10744 0.86227
 C201 C 1.01423 1.08846 0.86935
 C202 C 1.03281 1.07686 0.85580
 C203 C 1.04029 1.08629 0.83487
 H204 H 1.03118 1.10123 0.82784
 O205 O 0.87921 0.96119 0.92695
 O206 O 0.85037 0.95922 0.90257
 C207 C 0.85992 0.95221 0.92071
 C208 C 0.84852 0.93345 0.93472
 C209 C 0.82625 0.92475 0.92930
 H210 H 0.81775 0.93156 0.91443
 O211 O 1.10097 1.02167 0.91351
 O212 O 1.12762 1.02310 0.88592
 C213 C 1.11963 1.03052 0.90499
 C214 C 1.13240 1.04942 0.91741
 C215 C 1.15518 1.05567 0.91059
 H216 H 1.16313 1.04680 0.89603
 O217 O 0.91483 0.87384 0.99106
 O218 O 0.88902 0.84429 0.99292
 C219 C 0.90745 0.85361 0.98425
 C220 C 0.92036 0.84082 0.96602
 C221 C 0.91476 0.81697 0.96097
 H222 H 0.90064 0.80821 0.97030
 O223 O 1.07164 1.11491 0.97728
 O224 O 1.09811 1.14381 0.97557
 C225 C 1.07907 1.13447 0.96889
 C226 C 1.06651 1.14607 0.95022
 C227 C 1.07637 1.16644 0.94020
 H228 H 1.09150 1.17482 0.94789
 O229 O 0.90811 1.00794 0.89345
 O230 O 0.87972 1.00599 0.86856
 C231 C 0.89875 1.01533 0.87553
 C232 C 0.90941 1.03564 0.86316
 C233 C 0.90099 1.04182 0.84190
 H234 H 0.88833 1.03013 0.83384
 O235 O 1.07125 0.97314 0.88308
 O236 O 1.09749 0.97458 0.85516
 C237 C 1.07927 0.96524 0.86426
 C238 C 1.06750 0.94452 0.85344
 C239 C 1.07552 0.93508 0.83253
 H240 H 1.09035 0.94337 0.82386
 O241 O 1.01865 0.87756 0.92108
 O242 O 1.01898 0.84775 0.89646
 C243 C 1.02766 0.85848 0.91349
 C244 C 1.04883 0.84904 0.92414
 C245 C 1.06044 0.82953 0.91425
 H246 H 1.05367 0.82121 0.89899
 O247 O 0.96393 1.10879 0.92388
 O248 O 0.96074 1.13702 0.89828
 C249 C 0.95442 1.12760 0.91707
 C250 C 0.93541 1.13813 0.93096
 C251 C 0.92644 1.16041 0.92544
 H252 H 0.93365 1.16988 0.91088
 O253 O 0.87355 1.06569 0.98800
 O254 O 0.84525 1.09185 0.98942
 C255 C 0.85408 1.07308 0.98105
 C256 C 0.84213 1.06098 0.96196
 C257 C 0.82159 1.07058 0.95362
 H258 H 0.81314 1.08467 0.96318
 O259 O 1.11383 0.91882 0.97584
 O260 O 1.14222 0.89272 0.97437
 C261 C 1.13251 0.91105 0.96662
 C262 C 1.14237 0.92298 0.94615
 C263 C 1.16321 0.91510 0.93564
 H264 H 1.17234 0.90029 0.94284
 O265 O 0.96314 1.07770 0.89124
 O266 O 0.95970 1.10556 0.86531
 C267 C 0.95357 1.08546 0.87346
 C268 C 0.93519 1.07073 0.86239
 C269 C 0.92570 1.07726 0.84141
 H270 H 0.93152 1.09364 0.83336
 O271 O 1.01367 0.90798 0.88887
 O272 O 1.01413 0.87828 0.86412
 C273 C 1.02105 0.89891 0.87031
 C274 C 1.03860 0.91219 0.85639
 C275 C 1.04637 0.90331 0.83529
 H276 H 1.03800 0.88752 0.82835
 O277 O 1.10431 0.97597 0.91275
 O278 O 1.13058 0.97742 0.88482
 C279 C 1.12361 0.96937 0.90395
 C280 C 1.13788 0.95174 0.91573
 C281 C 1.15919 0.94452 0.90610
 H282 H 1.16585 0.95349 0.89105
 O283 O 0.87491 1.00710 0.92395
 O284 O 0.84644 1.00535 0.89915
 C285 C 0.85530 1.01426 0.91698
 C286 C 0.84311 1.03342 0.92968
 C287 C 0.82325 1.04443 0.92076
 H288 H 0.81677 1.03890 0.90432
 O289 O 0.90396 1.10102 0.98661
 O290 O 0.87539 1.12692 0.98819
 C291 C 0.89474 1.12009 0.97978
 C292 C 0.90636 1.13441 0.96167
 C293 C 0.89807 1.15707 0.95637
 H294 H 0.88395 1.16450 0.96651
 O295 O 1.08265 0.88517 0.97867
 O296 O 1.11116 0.85919 0.97729
 C297 C 1.09147 0.86622 0.97058
 C298 C 1.07953 0.85267 0.95235
 C299 C 1.09044 0.83280 0.94260
 H300 H 1.10648 0.82644 0.94975
 O301 O 1.06941 1.01963 0.88272
 O302 O 1.09580 1.02124 0.85493
 C303 C 1.07683 1.02832 0.86399
 C304 C 1.06365 1.04746 0.85318
 C305 C 1.07130 1.05743 0.83244
 H306 H 1.08675 1.05057 0.82392
 O307 O 0.90648 0.96146 0.89133
 O308 O 0.87803 0.95927 0.86655
 C309 C 0.89760 0.95230 0.87351
 C310 C 0.91010 0.93290 0.86147
 C311 C 0.90377 0.92493 0.83958
 H312 H 0.88991 0.93376 0.83079
 O313 O 1.00939 1.11289 0.91883
 O314 O 1.00670 1.14092 0.89298
 C315 C 1.01648 1.13257 0.91040
 C316 C 1.03675 1.14517 0.92084
 C317 C 1.04784 1.16504 0.91025
 H318 H 1.04139 1.17167 0.89432
 O319 O 0.97333 0.87459 0.92622
 O320 O 0.97365 0.84453 0.90187
 C321 C 0.96653 0.85385 0.92049
 C322 C 0.94968 0.84075 0.93535
 C323 C 0.94457 0.81664 0.93121
 H324 H 0.95445 0.80734 0.91814
 O325 O 1.10435 1.08341 0.97581
 O326 O 1.13088 1.11226 0.97351
 C327 C 1.12271 1.09232 0.96666
 C328 C 1.13426 1.07947 0.94761
 C329 C 1.15719 1.08549 0.94052
 H330 H 1.16686 1.09929 0.94945
 O331 O 0.88141 0.90444 0.99188
 O332 O 0.85550 0.87497 0.99332
 C333 C 0.86267 0.89460 0.98495
 C334 C 0.84950 0.90575 0.96650
 C335 C 0.82687 0.89764 0.96117
 H336 H 0.81845 0.88406 0.97158
 Cu337 Cu 0.99343 0.89367 0.90943
 Cu338 Cu 0.99384 0.85779 0.87997
 Cu339 Cu 0.98642 1.09212 0.90826
 Cu340 Cu 0.98267 1.12569 0.87720
 Cu341 Cu 0.89500 0.98458 0.91130
 Cu342 Cu 0.86086 0.98221 0.88169
 Cu343 Cu 1.08364 0.99735 0.90065
 Cu344 Cu 1.11546 0.99928 0.86732
 C345 C 0.92862 0.92199 0.87243
 H346 H 0.93357 0.92803 0.88925
 C347 C 0.91583 0.90609 0.82881
 C348 C 1.04430 1.05719 0.86461
 H349 H 1.03870 1.04998 0.88090
 C350 C 1.05973 1.07693 0.82318
 C351 C 0.86001 0.92393 0.95341
 H352 H 0.87745 0.93024 0.95742
 C353 C 0.81502 0.90714 0.94261
 C354 C 1.12210 1.06120 0.93609
 H355 H 1.10438 1.05651 0.94134
 C356 C 1.16784 1.07336 0.92217
 C357 C 0.93784 0.85259 0.95313
 H358 H 0.94173 0.87120 0.95650
 C359 C 0.92686 0.80458 0.94368
 C360 C 1.04646 1.13577 0.94071
 H361 H 1.03886 1.11993 0.94843
 C362 C 1.06815 1.17540 0.91966
 C363 C 0.92678 1.04992 0.87315
 H364 H 0.93335 1.04512 0.88965
 C365 C 0.90847 1.06282 0.83103
 C366 C 1.04896 0.93302 0.86508
 H367 H 1.04314 0.93980 0.88148
 C368 C 1.06508 0.91436 0.82332
 C369 C 1.05855 0.86055 0.94319
 H370 H 1.05015 0.87605 0.95048
 C371 C 1.08147 0.82152 0.92320
 C372 C 0.92530 1.12528 0.94915
 H373 H 0.93173 1.10778 0.95314
 C374 C 0.90786 1.17020 0.93817
 C375 C 0.85252 1.04205 0.95017
 H376 H 0.86844 1.03459 0.95658
 C377 C 0.81267 1.06351 0.93247
 C378 C 1.12983 0.94123 0.93598
 H379 H 1.11337 0.94683 0.94349
 C380 C 1.17178 0.92576 0.91545
 O381 O 1.02625 0.91303 1.12021
 O382 O 1.02963 0.88510 1.14607
 C383 C 1.03565 0.90530 1.13807
 C384 C 1.05408 0.91991 1.14915
 C385 C 1.06129 0.91510 1.17141
 H386 H 1.05238 0.90117 1.18096
 O387 O 0.97235 1.07796 1.12011
 O388 O 0.97219 1.10710 1.14545
 C389 C 0.96516 1.08666 1.13894
 C390 C 0.94795 1.07334 1.15322
 C391 C 0.94047 1.08285 1.17415
 H392 H 0.94779 1.09971 1.17985
 O393 O 0.88177 1.01094 1.09905
 O394 O 0.85553 1.01079 1.12701
 C395 C 0.86300 1.01877 1.10797
 C396 C 0.85017 1.03763 1.09608
 C397 C 0.83133 1.04938 1.10686
 H398 H 0.82570 1.04446 1.12392
 O399 O 1.11562 0.98087 1.08249
 O400 O 1.14384 0.98274 1.10755
 C401 C 1.13515 0.97386 1.08956
 C402 C 1.14732 0.95461 1.07708
 C403 C 1.16723 0.94412 1.08616
 H404 H 1.17399 0.95058 1.10219
 O405 O 1.08506 0.88639 1.02300
 O406 O 1.11332 0.86015 1.02127
 C407 C 1.09438 0.86758 1.03020
 C408 C 1.08324 0.85407 1.04911
 C409 C 1.09159 0.83156 1.05458
 H410 H 1.10656 0.82479 1.04525
 O411 O 0.90542 1.10133 1.03072
 O412 O 0.87663 1.12702 1.03177
 C413 C 0.89627 1.12018 1.03869
 C414 C 0.90794 1.13392 1.05684
 C415 C 0.89739 1.15436 1.06579
 H416 H 0.88163 1.16088 1.05822
 O417 O 0.91524 0.96539 1.12811
 O418 O 0.88880 0.96380 1.15581
 C419 C 0.90769 0.95641 1.14665
 C420 C 0.92102 0.93687 1.15711
 C421 C 0.91273 0.92508 1.17683
 H422 H 0.89634 0.93042 1.18466
 O423 O 1.08274 1.02519 1.11521
 O424 O 1.11100 1.02796 1.14016
 C425 C 1.09125 1.03444 1.13306
 C426 C 1.07839 1.05361 1.14498
 C427 C 1.08725 1.06440 1.16475
 H428 H 1.10274 1.05730 1.17233
 O429 O 0.98104 0.87755 1.09150
 O430 O 0.98406 0.84927 1.11708
 C431 C 0.97436 0.85762 1.09961
 C432 C 0.95448 0.84470 1.08905
 C433 C 0.94569 0.82324 1.09835
 H434 H 0.95397 0.81548 1.11293
 O435 O 1.01392 1.11254 1.08426
 O436 O 1.01315 1.14156 1.10972
 C437 C 1.02111 1.13277 1.09123
 C438 C 1.03997 1.14568 1.07869
 C439 C 1.04978 1.16637 1.08822
 H440 H 1.04198 1.17393 1.10352
 O441 O 0.88240 0.90528 1.03641
 O442 O 0.85606 0.87618 1.03754
 C443 C 0.86373 0.89611 1.04476
 C444 C 0.85086 0.90878 1.06305
 C445 C 0.82715 0.90376 1.06737
 H446 H 0.81842 0.89012 1.05738
 O447 O 1.10775 1.08547 1.02015
 O448 O 1.13396 1.11457 1.01754
 C449 C 1.12688 1.09519 1.02637
 C450 C 1.14056 1.08464 1.04481
 C451 C 1.16172 1.09536 1.05146
 H452 H 1.16895 1.10989 1.04147
 O453 O 1.01766 1.08214 1.11668
 O454 O 1.01725 1.11130 1.14203
 C455 C 1.02611 1.09229 1.13415
 C456 C 1.04675 1.08222 1.14509
 C457 C 1.05626 1.09326 1.16435
 H458 H 1.04828 1.10926 1.17101
 O459 O 0.98078 0.90931 1.12326
 O460 O 0.98403 0.88114 1.14892
 C461 C 0.97418 0.89978 1.14190
 C462 C 0.95407 0.90975 1.15493
 C463 C 0.94595 0.89875 1.17496
 H464 H 0.95582 0.88429 1.18188
 O465 O 1.11367 1.02710 1.08267
 O466 O 1.14217 1.02945 1.10739
 C467 C 1.13260 1.03669 1.08941
 C468 C 1.14314 1.05673 1.07625
 C469 C 1.16381 1.06835 1.08330
 H470 H 1.17203 1.06260 1.09871
 O471 O 0.88225 0.96509 1.09858
 O472 O 0.85517 0.96443 1.12577
 C473 C 0.86308 0.95693 1.10670
 C474 C 0.85030 0.93848 1.09355
 C475 C 0.82638 0.93356 1.09750
 H476 H 0.81689 0.94363 1.11033
 O477 O 1.07377 1.11540 1.02171
 O478 O 1.10014 1.14442 1.01997
 C479 C 1.08184 1.13512 1.02902
 C480 C 1.07019 1.14677 1.04877
 C481 C 1.08012 1.16721 1.05898
 H482 H 1.09613 1.17495 1.05200
 O483 O 0.91655 0.87542 1.03527
 O484 O 0.89032 0.84628 1.03703
 C485 C 0.90932 0.85583 1.04367
 C486 C 0.92270 0.84421 1.06173
 C487 C 0.91440 0.82280 1.07110
 H488 H 0.89891 0.81427 1.06423
 O489 O 1.08519 0.97898 1.11540
 O490 O 1.11315 0.98154 1.14070
 C491 C 1.09434 0.97192 1.13364
 C492 C 1.08301 0.95228 1.14666
 C493 C 1.09055 0.94670 1.16852
 H494 H 1.10523 0.95655 1.17541
 O495 O 0.91465 1.01188 1.12855
 O496 O 0.88878 1.01113 1.15679
 C497 C 0.90715 1.02000 1.14747
 C498 C 0.91954 1.04071 1.15782
 C499 C 0.91226 1.05052 1.17887
 H500 H 0.89824 1.04195 1.18853
 O501 O 0.96829 1.10911 1.08802
 O502 O 0.96765 1.13815 1.11347
 C503 C 0.95928 1.12801 1.09598
 C504 C 0.93845 1.13780 1.08510
 C505 C 0.92740 1.15806 1.09415
 H506 H 0.93446 1.16695 1.10899
 O507 O 1.02648 0.88092 1.08796
 O508 O 1.02974 0.85258 1.11342
 C509 C 1.03588 0.86187 1.09452
 C510 C 1.05447 0.85080 1.08018
 C511 C 1.06250 0.82778 1.08482
 H512 H 1.05402 0.81758 1.09825
 O513 O 1.11603 0.92052 1.02054
 O514 O 1.14419 0.89418 1.01888
 C515 C 1.13557 0.91304 1.02728
 C516 C 1.14773 0.92539 1.04612
 C517 C 1.16801 0.91565 1.05504
 H518 H 1.17596 0.90058 1.04652
 O519 O 0.87555 1.06662 1.03312
 O520 O 0.84705 1.09259 1.03387
 C521 C 0.85682 1.07451 1.04210
 C522 C 0.84696 1.06397 1.06329
 C523 C 0.82814 1.07514 1.07423
 H524 H 0.81976 1.08997 1.06616
 Cu525 Cu 1.00348 0.89801 1.10318
 Cu526 Cu 1.00739 0.86420 1.13394
 Cu527 Cu 0.99300 1.09254 1.09964
 Cu528 Cu 0.99245 1.12751 1.13016
 Cu529 Cu 0.90135 0.89277 1.01349
 Cu530 Cu 0.87013 0.85746 1.01539
 Cu531 Cu 1.09664 0.90551 0.99968
 Cu532 Cu 1.13060 0.87399 0.99787
 Cu533 Cu 0.89240 1.08085 1.00931
 Cu534 Cu 0.85803 1.11197 1.01080
 Cu535 Cu 1.08676 1.09686 0.99896
 Cu536 Cu 1.11832 1.13173 0.99633
 Cu537 Cu 0.90118 0.98836 1.11094
 Cu538 Cu 0.86953 0.98736 1.14430
 Cu539 Cu 1.09651 1.00283 1.09643
 Cu540 Cu 1.13043 1.00563 1.12646
 C541 C 1.06475 0.93882 1.13715
 H542 H 1.05919 0.94275 1.12007
 C543 C 1.07949 0.92856 1.18143
 C544 C 0.93768 1.05211 1.14537
 H545 H 0.94316 1.04502 1.12897
 C546 C 0.92271 1.07170 1.18718
 C547 C 0.85781 1.04508 1.07424
 H548 H 0.87269 1.03670 1.06605
 C549 C 0.82065 1.06850 1.09610
 C550 C 1.13774 0.94514 1.05702
 H551 H 1.12191 0.95255 1.05036
 C552 C 1.17753 0.92438 1.07539
 C553 C 1.06467 0.86358 1.06195
 H554 H 1.05854 0.88122 1.05809
 C555 C 1.08113 0.81788 1.07201
 C556 C 0.92860 1.12589 1.06639
 H557 H 0.93666 1.10995 1.05963
 C558 C 0.90671 1.16634 1.08465
 C559 C 0.94170 0.92899 1.14636
 H560 H 0.94789 0.93746 1.13083
 C561 C 0.92503 0.90580 1.18586
 C562 C 1.05787 1.06236 1.13558
 H563 H 1.05094 1.05419 1.12031
 C564 C 1.07640 1.08445 1.17450
 C565 C 0.94290 0.85495 1.07064
 H566 H 0.94920 0.87170 1.06366
 C567 C 0.92543 0.81242 1.08961
 C568 C 1.05008 1.13616 1.05878
 H569 H 1.04276 1.11996 1.05154
 C570 C 1.07017 1.17685 1.07897
 C571 C 0.86223 0.92617 1.07612
 H572 H 0.88063 0.92989 1.07290
 C573 C 0.81451 0.91645 1.08412
 C574 C 1.13167 1.06511 1.05703
 H575 H 1.11533 1.05685 1.05191
 C576 C 1.17337 1.08781 1.07097
 O577 O 0.99314 0.40608 0.38169
 O578 O 0.99670 0.37857 0.35496
 C579 C 0.98689 0.39717 0.36278
 C580 C 0.96721 0.40787 0.35040
 C581 C 0.96069 0.39920 0.32887
 H582 H 0.97167 0.38621 0.32050
 O583 O 1.03461 0.57121 0.38528
 O584 O 1.03663 0.59804 0.35806
 C585 C 1.04438 0.57947 0.36736
 C586 C 1.06515 0.56743 0.35758
 C587 C 1.07435 0.57372 0.33602
 H588 H 1.06632 0.58790 0.32673
 O589 O 0.89130 0.46152 0.40937
 O590 O 0.86591 0.46031 0.38158
 C591 C 0.87317 0.45249 0.40040
 C592 C 0.86126 0.43199 0.41164
 C593 C 0.84047 0.42204 0.40308
 H594 H 0.83247 0.42994 0.38844
 O595 O 1.12861 0.51577 0.42669
 O596 O 1.15823 0.51823 0.40225
 C597 C 1.14749 0.52575 0.41996
 C598 C 1.15643 0.54688 0.43241
 C599 C 1.17755 0.55806 0.42568
 H600 H 1.18774 0.55077 0.41165
 O601 O 0.92618 0.36733 0.46796
 O602 O 0.90042 0.33783 0.46598
 C603 C 0.91941 0.34772 0.45922
 C604 C 0.93329 0.33691 0.44033
 C605 C 0.92476 0.31673 0.42866
 H606 H 0.90867 0.30814 0.43444
 O607 O 1.08303 0.61255 0.48108
 O608 O 1.10905 0.64189 0.48245
 C609 C 1.09124 0.63217 0.47350
 C610 C 1.08021 0.64320 0.45365
 C611 C 1.08592 0.66664 0.44681
 H612 H 1.09813 0.67733 0.45656
 O613 O 0.92569 0.50741 0.37945
 O614 O 0.90105 0.50614 0.35101
 C615 C 0.91954 0.51443 0.35999
 C616 C 0.93405 0.53261 0.34801
 C617 C 0.93025 0.53810 0.32508
 H618 H 0.91704 0.52826 0.31579
 O619 O 1.10260 0.46759 0.39303
 O620 O 1.13180 0.46997 0.36805
 C621 C 1.11233 0.46092 0.37455
 C622 C 1.10034 0.44301 0.36025
 C623 C 1.10760 0.43904 0.33766
 H624 H 1.12307 0.44826 0.33125
 O625 O 1.03767 0.37682 0.41591
 O626 O 1.04166 0.34936 0.38920
 C627 C 1.04744 0.35815 0.40838
 C628 C 1.06611 0.34691 0.42176
 C629 C 1.07624 0.32556 0.41419
 H630 H 1.06951 0.31674 0.39917
 O631 O 0.98522 0.60222 0.41224
 O632 O 0.98701 0.62918 0.38512
 C633 C 0.97779 0.62117 0.40343
 C634 C 0.95823 0.63396 0.41459
 C635 C 0.95151 0.65623 0.40660
 H636 H 0.96075 0.66411 0.39219
 O637 O 0.88952 0.57156 0.46826
 O638 O 0.86193 0.59849 0.46735
 C639 C 0.87102 0.57958 0.45960
 C640 C 0.86031 0.56757 0.43973
 C641 C 0.84141 0.57809 0.42907
 H642 H 0.83400 0.59425 0.43611
 O643 O 1.12843 0.41028 0.48508
 O644 O 1.15532 0.38277 0.48753
 C645 C 1.14826 0.40203 0.47916
 C646 C 1.16250 0.41429 0.46137
 C647 C 1.18439 0.40563 0.45426
 H648 H 1.19192 0.39159 0.46406
 O649 O 0.98895 0.56908 0.38153
 O650 O 0.99106 0.59586 0.35427
 C651 C 0.98268 0.57653 0.36224
 C652 C 0.96510 0.56285 0.34919
 C653 C 0.96084 0.56842 0.32642
 H654 H 0.97071 0.58278 0.31842
 O655 O 1.03887 0.40823 0.38371
 O656 O 1.04237 0.38097 0.35671
 C657 C 1.04873 0.40062 0.36556
 C658 C 1.06839 0.41440 0.35534
 C659 C 1.07534 0.41112 0.33247
 H660 H 1.06514 0.39927 0.32181
 O661 O 1.13268 0.46933 0.42534
 O662 O 1.16212 0.47138 0.40069
 C663 C 1.15261 0.46240 0.41836
 C664 C 1.16430 0.44327 0.43083
 C665 C 1.18552 0.43355 0.42297
 H666 H 1.19318 0.44036 0.40736
 O667 O 0.89115 0.50824 0.40860
 O668 O 0.86619 0.50758 0.38046
 C669 C 0.87313 0.51636 0.39921
 C670 C 0.86094 0.53682 0.41002
 C671 C 0.84186 0.54775 0.39953
 H672 H 0.83513 0.54070 0.38370
 O673 O 0.92143 0.60459 0.47053
 O674 O 0.89388 0.63149 0.46896
 C675 C 0.91346 0.62347 0.46206
 C676 C 0.92688 0.63545 0.44343
 C677 C 0.92026 0.65772 0.43505
 H678 H 0.90562 0.66690 0.44283
 O679 O 1.09425 0.37959 0.48115
 O680 O 1.12129 0.35219 0.48309
 C681 C 1.10335 0.36056 0.47365
 C682 C 1.09337 0.34823 0.45348
 C683 C 1.10344 0.32713 0.44531
 H684 H 1.11838 0.32002 0.45387
 O685 O 1.09990 0.51311 0.39331
 O686 O 1.12945 0.51541 0.36872
 C687 C 1.10910 0.52150 0.37520
 C688 C 1.09624 0.53866 0.36148
 C689 C 1.10431 0.54411 0.33949
 H690 H 1.11872 0.53413 0.33236
 O691 O 0.92594 0.46159 0.38081
 O692 O 0.90087 0.46008 0.35273
 C693 C 0.91940 0.45284 0.36194
 C694 C 0.93356 0.43414 0.35062
 C695 C 0.92664 0.42432 0.32972
 H696 H 0.91035 0.42996 0.32266
 O697 O 1.03016 0.60469 0.41542
 O698 O 1.03190 0.63167 0.38829
 C699 C 1.03793 0.62440 0.40771
 C700 C 1.05414 0.63903 0.42141
 C701 C 1.05981 0.66236 0.41492
 H702 H 1.05217 0.66962 0.39978
 O703 O 0.99233 0.37282 0.41193
 O704 O 0.99625 0.34530 0.38525
 C705 C 0.98604 0.35308 0.40309
 C706 C 0.96593 0.33957 0.41298
 C707 C 0.95704 0.31946 0.40153
 H708 H 0.96551 0.31343 0.38594
 O709 O 1.11572 0.58111 0.48400
 O710 O 1.14165 0.61053 0.48544
 C711 C 1.13511 0.59044 0.47765
 C712 C 1.15013 0.57835 0.46061
 C713 C 1.17146 0.58896 0.45396
 H714 H 1.17741 0.60513 0.46233
 O715 O 0.89258 0.39777 0.46699
 O716 O 0.86674 0.36827 0.46553
 C717 C 0.87438 0.38831 0.45851
 C718 C 0.86220 0.40046 0.44001
 C719 C 0.84132 0.39093 0.43147
 H720 H 0.83350 0.37527 0.43932
 Cu721 Cu 1.01519 0.39379 0.40092
 Cu722 Cu 1.01969 0.36079 0.36890
 Cu723 Cu 1.00956 0.58394 0.40122
 Cu724 Cu 1.01182 0.61630 0.36860
 Cu725 Cu 0.91081 0.48491 0.39751
 Cu726 Cu 0.88081 0.48345 0.36373
 Cu727 Cu 1.11319 0.49113 0.41231
 Cu728 Cu 1.14859 0.49400 0.38261
 C729 C 0.95378 0.42571 0.36087
 H730 H 0.95877 0.43266 0.37736
 C731 C 0.94015 0.40700 0.31836
 C732 C 1.07636 0.54997 0.37024
 H733 H 1.06994 0.54556 0.38718
 C734 C 1.09394 0.56195 0.32666
 C735 C 0.87185 0.42114 0.43022
 H736 H 0.88813 0.42837 0.43664
 C737 C 0.83034 0.40147 0.41296
 C738 C 1.14285 0.55714 0.45000
 H739 H 1.12622 0.54905 0.45493
 C740 C 1.18509 0.57922 0.43633
 C741 C 0.95405 0.34805 0.43247
 H742 H 0.96052 0.36391 0.44103
 C743 C 0.93631 0.30813 0.40900
 C744 C 1.06418 0.62970 0.44091
 H745 H 1.05991 0.61158 0.44586
 C746 C 1.07540 0.67644 0.42760
 C747 C 0.95174 0.54484 0.35977
 H748 H 0.95470 0.54079 0.37748
 C749 C 0.94365 0.55599 0.31406
 C750 C 1.08076 0.43063 0.36892
 H751 H 1.07533 0.43334 0.38650
 C752 C 1.09491 0.42358 0.32331
 C753 C 1.07465 0.35798 0.44162
 H754 H 1.06711 0.37452 0.44753
 C755 C 1.09506 0.31560 0.42572
 C756 C 0.94600 0.62386 0.43315
 H757 H 0.95106 0.60657 0.43926
 C758 C 0.93270 0.66832 0.41675
 C759 C 0.86984 0.54685 0.43022
 H760 H 0.88474 0.53896 0.43822
 C761 C 0.83230 0.56864 0.40891
 C762 C 1.15306 0.43349 0.44999
 H763 H 1.13629 0.44029 0.45557
 C764 C 1.19610 0.41470 0.43466
 O765 O 1.01924 0.40504 0.61340
 O766 O 1.01847 0.37683 0.63931
 C767 C 1.02626 0.39682 0.63208
 C768 C 1.04381 0.41059 0.64532
 C769 C 1.04935 0.40379 0.66749
 H770 H 1.04079 0.38824 0.67482
 O771 O 0.97015 0.57387 0.61055
 O772 O 0.96602 0.60080 0.63777
 C773 C 0.96001 0.58109 0.62861
 C774 C 0.94089 0.56645 0.63878
 C775 C 0.93163 0.57206 0.66040
 H776 H 0.93859 0.58721 0.66971
 O777 O 0.88350 0.50476 0.57099
 O778 O 0.85363 0.50413 0.59522
 C779 C 0.86368 0.51243 0.57745
 C780 C 0.85230 0.53168 0.56480
 C781 C 0.82981 0.53879 0.57139
 H782 H 0.82071 0.52964 0.58518
 O783 O 1.11424 0.47326 0.58983
 O784 O 1.13930 0.47493 0.61787
 C785 C 1.13284 0.46617 0.59899
 C786 C 1.14639 0.44685 0.58792
 C787 C 1.16646 0.43776 0.59813
 H788 H 1.17272 0.44550 0.61386
 O789 O 1.09009 0.37767 0.52573
 O790 O 1.11701 0.35011 0.52737
 C791 C 1.09727 0.35811 0.53358
 C792 C 1.08283 0.34434 0.55019
 C793 C 1.08912 0.32106 0.55546
 H794 H 1.10452 0.31362 0.54737
 O795 O 0.91725 0.60530 0.51520
 O796 O 0.88948 0.63196 0.51355
 C797 C 0.90780 0.62426 0.52264
 C798 C 0.91731 0.63692 0.54277
 C799 C 0.90637 0.65747 0.55117
 H800 H 0.89241 0.66513 0.54157
 O801 O 0.91210 0.45966 0.60587
 O802 O 0.88211 0.45941 0.62998
 C803 C 0.90202 0.45180 0.62383
 C804 C 0.91328 0.43322 0.63742
 C805 C 0.90350 0.42597 0.65832
 H806 H 0.88836 0.43516 0.66505
 O807 O 1.07742 0.51730 0.61925
 O808 O 1.10232 0.51891 0.64747
 C809 C 1.08365 0.52578 0.63837
 C810 C 1.06947 0.54440 0.64967
 C811 C 1.07467 0.55233 0.67176
 H812 H 1.08815 0.54353 0.68110
 O813 O 0.97742 0.37071 0.57910
 O814 O 0.97635 0.34213 0.60466
 C815 C 0.96974 0.35060 0.58582
 C816 C 0.95282 0.33716 0.57160
 C817 C 0.94534 0.31403 0.57761
 H818 H 0.95231 0.30567 0.59254
 O819 O 1.01636 0.61038 0.58412
 O820 O 1.01293 0.63771 0.61104
 C821 C 1.02284 0.63002 0.59295
 C822 C 1.04260 0.64331 0.58217
 C823 C 1.05240 0.66381 0.59245
 H824 H 1.04498 0.67072 0.60820
 O825 O 0.88920 0.39690 0.51105
 O826 O 0.86341 0.36735 0.50956
 C827 C 0.87005 0.38728 0.51774
 C828 C 0.85586 0.39926 0.53565
 C829 C 0.83314 0.39115 0.54146
 H830 H 0.82542 0.37678 0.53165
 O831 O 1.11104 0.58163 0.52811
 O832 O 1.13725 0.61081 0.52931
 C833 C 1.12901 0.59120 0.53691
 C834 C 1.14009 0.58009 0.55672
 C835 C 1.15966 0.59115 0.56630
 H836 H 1.16750 0.60653 0.55798
 O837 O 1.01518 0.57779 0.61501
 O838 O 1.01125 0.60485 0.64212
 C839 C 1.02087 0.58621 0.63431
 C840 C 1.03910 0.57431 0.64755
 C841 C 1.04492 0.58242 0.66945
 H842 H 1.03596 0.59763 0.67664
 O843 O 0.97366 0.40072 0.61260
 O844 O 0.97244 0.37261 0.63857
 C845 C 0.96436 0.39163 0.63044
 C846 C 0.94361 0.40338 0.64098
 C847 C 0.93331 0.39596 0.66189
 H848 H 0.94077 0.38131 0.67101
 O849 O 1.11100 0.51976 0.58923
 O850 O 1.13604 0.52188 0.61727
 C851 C 1.12864 0.52957 0.59841
 C852 C 1.14001 0.55052 0.58716
 C853 C 1.15930 0.56247 0.59693
 H854 H 1.16626 0.55621 0.61278
 O855 O 0.88373 0.45802 0.57187
 O856 O 0.85381 0.45767 0.59604
 C857 C 0.86409 0.44941 0.57844
 C858 C 0.85328 0.42943 0.56562
 C859 C 0.83103 0.42052 0.57182
 H860 H 0.82220 0.42816 0.58649
 O861 O 1.07891 0.61330 0.52571
 O862 O 1.10526 0.64234 0.52677
 C863 C 1.08618 0.63304 0.53384
 C864 C 1.07320 0.64472 0.55268
 C865 C 1.08253 0.66522 0.56293
 H866 H 1.09812 0.67360 0.55568
 O867 O 0.92340 0.36734 0.51258
 O868 O 0.89782 0.33765 0.51063
 C869 C 0.91564 0.34737 0.51964
 C870 C 0.92690 0.33556 0.53892
 C871 C 0.91985 0.31246 0.54512
 H872 H 0.90668 0.30312 0.53532
 O873 O 1.07882 0.47102 0.61777
 O874 O 1.10355 0.47252 0.64612
 C875 C 1.08560 0.46332 0.63677
 C876 C 1.07267 0.44318 0.64773
 C877 C 1.07765 0.43629 0.67006
 H878 H 1.09039 0.44644 0.67967
 O879 O 0.91201 0.50603 0.60478
 O880 O 0.88211 0.50545 0.62902
 C881 C 0.90182 0.51397 0.62258
 C882 C 0.91269 0.53352 0.63581
 C883 C 0.90388 0.53921 0.65754
 H884 H 0.88985 0.52848 0.66495
 O885 O 0.97117 0.60781 0.58113
 O886 O 0.96722 0.63507 0.60805
 C887 C 0.96147 0.62645 0.58887
 C888 C 0.94294 0.63776 0.57557
 C889 C 0.93122 0.65790 0.58409
 H890 H 0.93595 0.66528 0.60047
 O891 O 1.02258 0.37204 0.58248
 O892 O 1.02181 0.34342 0.60799
 C893 C 1.03058 0.35271 0.59003
 C894 C 1.05047 0.34133 0.57781
 C895 C 1.05690 0.31776 0.58260
 H896 H 1.04674 0.30747 0.59487
 O897 O 1.12114 0.41176 0.52905
 O898 O 1.14799 0.38420 0.53133
 C899 C 1.13903 0.40350 0.53849
 C900 C 1.14913 0.41609 0.55836
 C901 C 1.16911 0.40737 0.56872
 H902 H 1.17783 0.39208 0.56137
 O903 O 0.88711 0.57036 0.51264
 O904 O 0.85919 0.59692 0.51162
 C905 C 0.86732 0.57771 0.51945
 C906 C 0.85398 0.56391 0.53694
 C907 C 0.83146 0.57087 0.54405
 H908 H 0.82343 0.58609 0.53632
 Cu909 Cu 0.99828 0.38998 0.59446
 Cu910 Cu 0.99722 0.35595 0.62526
 Cu911 Cu 0.99366 0.58980 0.59499
 Cu912 Cu 0.98891 0.62237 0.62746
 Cu913 Cu 0.91047 0.38525 0.48981
 Cu914 Cu 0.87963 0.34968 0.48777
 Cu915 Cu 1.10583 0.39761 0.50503
 Cu916 Cu 1.13798 0.36452 0.50764
 Cu917 Cu 0.90667 0.58537 0.49182
 Cu918 Cu 0.87340 0.61742 0.49032
 Cu919 Cu 1.09438 0.59432 0.50444
 Cu920 Cu 1.12592 0.62932 0.50610
 Cu921 Cu 0.90082 0.48208 0.58589
 Cu922 Cu 0.86485 0.48168 0.61491
 Cu923 Cu 1.09299 0.49518 0.60118
 Cu924 Cu 1.12288 0.49719 0.63493
 C925 C 1.05550 0.43038 0.63564
 H926 H 1.05159 0.43552 0.61840
 C927 C 1.06603 0.41665 0.68015
 C928 C 0.93139 0.54703 0.62664
 H929 H 0.93815 0.54278 0.60978
 C930 C 0.91322 0.55841 0.66996
 C931 C 0.86418 0.54413 0.54734
 H932 H 0.88168 0.53889 0.54236
 C933 C 0.81926 0.55828 0.56122
 C934 C 1.13804 0.43599 0.56794
 H935 H 1.12237 0.44255 0.56022
 C936 C 1.17773 0.41781 0.58875
 C937 C 1.06337 0.35431 0.56128
 H938 H 1.05867 0.37244 0.55748
 C939 C 1.07614 0.30736 0.57122
 C940 C 0.93583 0.62743 0.55490
 H941 H 0.94421 0.61147 0.54859
 C942 C 0.91272 0.66782 0.57209
 C943 C 0.93337 0.42205 0.62908
 H944 H 0.94076 0.42761 0.61284
 C945 C 0.91305 0.40723 0.67072
 C946 C 1.05143 0.55524 0.63788
 H947 H 1.04744 0.54926 0.62080
 C948 C 1.06263 0.57148 0.68184
 C949 C 0.94359 0.34769 0.55209
 H950 H 0.94890 0.36565 0.54750
 C951 C 0.92892 0.30157 0.56436
 C952 C 1.05306 0.63409 0.56219
 H953 H 1.04606 0.61800 0.55446
 C954 C 1.07266 0.67459 0.58301
 C955 C 0.86551 0.41869 0.54754
 H956 H 0.88292 0.42513 0.54307
 C957 C 0.82041 0.40168 0.55960
 C958 C 1.13052 0.55961 0.56705
 H959 H 1.11527 0.55109 0.55972
 C960 C 1.16905 0.58304 0.58665
 O961 O 0.46707 0.91516 0.39047
 O962 O 0.46458 0.88853 0.36284
 C963 C 0.45851 0.90826 0.37168
 C964 C 0.44119 0.92330 0.36018
 C965 C 0.43114 0.91588 0.33952
 H966 H 0.43607 0.89907 0.33184
 O967 O 0.52580 1.09408 0.39175
 O968 O 0.52846 1.12196 0.36554
 C969 C 0.53464 1.10196 0.37327
 C970 C 0.55252 1.08767 0.36110
 C971 C 0.56380 1.09616 0.34118
 H972 H 0.55940 1.11349 0.33474
 O973 O 0.38293 0.98880 0.42076
 O974 O 0.35571 0.99096 0.39479
 C975 C 0.36352 0.98166 0.41272
 C976 C 0.35050 0.96160 0.42371
 C977 C 0.33133 0.95068 0.41276
 H978 H 0.32549 0.95741 0.39662
 O979 O 0.60849 1.02048 0.42078
 O980 O 0.63551 1.01866 0.39360
 C981 C 0.62805 1.02726 0.41232
 C982 C 0.64195 1.04611 0.42358
 C983 C 0.66294 1.05408 0.41341
 H984 H 0.66934 1.04564 0.39792
 O985 O 0.40382 0.88804 0.48079
 O986 O 0.37363 0.86316 0.48135
 C987 C 0.39358 0.86934 0.47336
 C988 C 0.40481 0.85521 0.45477
 C989 C 0.39538 0.83316 0.44758
 H990 H 0.38054 0.82568 0.45686
 O991 O 0.58841 1.12065 0.48223
 O992 O 0.61836 1.14585 0.48203
 C993 C 0.59842 1.13953 0.47482
 C994 C 0.58728 1.15363 0.45685
 C995 C 0.59737 1.17520 0.44926
 H996 H 0.61209 1.18256 0.45836
 O997 O 0.41797 1.03419 0.38962
 O998 O 0.39076 1.03631 0.36365
 C999 C 0.41029 1.04322 0.37143
 C1000 C 0.42385 1.06264 0.35992
 C1001 C 0.41776 1.07093 0.33822
 H1002 H 0.40401 1.06176 0.32911
 O1003 O 0.57269 0.97665 0.38943
 O1004 O 0.60008 0.97545 0.36257
 C1005 C 0.58057 0.96829 0.37073
 C1006 C 0.56776 0.94922 0.35864
 C1007 C 0.57620 0.94125 0.33755
 H1008 H 0.59082 0.95052 0.32941
 O1009 O 0.51058 0.87844 0.41904
 O1010 O 0.50816 0.85170 0.39153
 C1011 C 0.51726 0.85905 0.40993
 C1012 C 0.53625 0.84531 0.42054
 C1013 C 0.54384 0.82375 0.41085
 H1014 H 0.53550 0.81711 0.39564
 O1015 O 0.48319 1.12918 0.42394
 O1016 O 0.48475 1.15721 0.39786
 C1017 C 0.47629 1.14893 0.41639
 C1018 C 0.45762 1.16160 0.42910
 C1019 C 0.44802 1.18271 0.42079
 H1020 H 0.45490 1.19052 0.40520
 O1021 O 0.39152 1.09653 0.48553
 O1022 O 0.36584 1.12539 0.48702
 C1023 C 0.37318 1.10608 0.47821
 C1024 C 0.36071 1.09509 0.45877
 C1025 C 0.34114 1.10623 0.44979
 H1026 H 0.33512 1.12269 0.45739
 O1027 O 0.60395 0.90654 0.47735
 O1028 O 0.63046 0.87853 0.47519
 C1029 C 0.62243 0.89823 0.46839
 C1030 C 0.63414 0.91139 0.44945
 C1031 C 0.65442 0.90239 0.43877
 H1032 H 0.66181 0.88594 0.44462
 O1033 O 0.48061 1.09670 0.39271
 O1034 O 0.48291 1.12443 0.36634
 C1035 C 0.47353 1.10549 0.37427
 C1036 C 0.45422 1.09357 0.36192
 C1037 C 0.44728 1.10219 0.34081
 H1038 H 0.45572 1.11815 0.33428
 O1039 O 0.51199 0.91227 0.38945
 O1040 O 0.50990 0.88579 0.36164
 C1041 C 0.51905 0.90447 0.37026
 C1042 C 0.53834 0.91732 0.35833
 C1043 C 0.54738 0.90923 0.33724
 H1044 H 0.54003 0.89347 0.32920
 O1045 O 0.60470 0.97388 0.42012
 O1046 O 0.63175 0.97279 0.39294
 C1047 C 0.62305 0.96477 0.41143
 C1048 C 0.63428 0.94413 0.42213
 C1049 C 0.65475 0.93510 0.41219
 H1050 H 0.66295 0.94431 0.39793
 O1051 O 0.38757 1.03533 0.42313
 O1052 O 0.36026 1.03751 0.39728
 C1053 C 0.36919 1.04479 0.41581
 C1054 C 0.35862 1.06505 0.42847
 C1055 C 0.33869 1.07615 0.42016
 H1056 H 0.33013 1.06870 0.40539
 O1057 O 0.42411 1.12889 0.48594
 O1058 O 0.39831 1.15763 0.48796
 C1059 C 0.41664 1.14879 0.47915
 C1060 C 0.42861 1.16133 0.46012
 C1061 C 0.41942 1.18243 0.45174
 H1062 H 0.40453 1.19041 0.46032
 O1063 O 0.57233 0.87315 0.47707
 O1064 O 0.59844 0.84475 0.47540
 C1065 C 0.57973 0.85384 0.46831
 C1066 C 0.56676 0.84255 0.44914
 C1067 C 0.57386 0.82076 0.43935
 H1068 H 0.58819 0.81134 0.44675
 O1069 O 0.57705 1.02341 0.38960
 O1070 O 0.60438 1.02141 0.36274
 C1071 C 0.58628 1.03112 0.37113
 C1072 C 0.57686 1.05236 0.35979
 C1073 C 0.58708 1.06054 0.33936
 H1074 H 0.60001 1.04963 0.33083
 O1075 O 0.41610 0.98738 0.39041
 O1076 O 0.38886 0.98957 0.36446
 C1077 C 0.40702 0.97982 0.37213
 C1078 C 0.41678 0.95873 0.36020
 C1079 C 0.40733 0.95117 0.33950
 H1080 H 0.39427 0.96192 0.33151
 O1081 O 0.52856 1.12634 0.42307
 O1082 O 0.53062 1.15452 0.39714
 C1083 C 0.53804 1.14524 0.41524
 C1084 C 0.55822 1.15607 0.42714
 C1085 C 0.56921 1.17698 0.41903
 H1086 H 0.56277 1.18495 0.40371
 O1087 O 0.46480 0.88181 0.42076
 O1088 O 0.46206 0.85494 0.39339
 C1089 C 0.45495 0.86348 0.41234
 C1090 C 0.43469 0.85254 0.42464
 C1091 C 0.42459 0.83100 0.41718
 H1092 H 0.43177 0.82249 0.40211
 O1093 O 0.61571 1.08425 0.47988
 O1094 O 0.64569 1.10942 0.47911
 C1095 C 0.63520 1.09105 0.47140
 C1096 C 0.64537 1.07772 0.45202
 C1097 C 0.66622 1.08567 0.44140
 H1098 H 0.67540 1.10125 0.44785
 O1099 O 0.37745 0.92532 0.48083
 O1100 O 0.34730 0.90040 0.48099
 C1101 C 0.35792 0.91862 0.47292
 C1102 C 0.34789 0.93115 0.45332
 C1103 C 0.32867 0.92092 0.44231
 H1104 H 0.32038 0.90499 0.44921
 Cu1105 Cu 0.48882 0.89944 0.40778
 Cu1106 Cu 0.48588 0.86741 0.37470
 Cu1107 Cu 0.50433 1.10886 0.41054
 Cu1108 Cu 0.50687 1.14240 0.37910
 Cu1109 Cu 0.40385 1.01133 0.40854
 Cu1110 Cu 0.37122 1.01387 0.37747
 Cu1111 Cu 0.58790 0.99880 0.40769
 Cu1112 Cu 0.62062 0.99687 0.37527
 C1113 C 0.43392 0.94483 0.37032
 H1114 H 0.44108 0.95041 0.38647
 C1115 C 0.41397 0.92962 0.32922
 C1116 C 0.55930 1.06582 0.37029
 H1117 H 0.55138 1.05957 0.38608
 C1118 C 0.58135 1.08277 0.33019
 C1119 C 0.35866 0.95164 0.44401
 H1120 H 0.37384 0.95937 0.45218
 C1121 C 0.32075 0.92999 0.42175
 C1122 C 0.63342 1.05779 0.44308
 H1123 H 0.61701 1.05190 0.45080
 C1124 C 0.67499 1.07393 0.42202
 C1125 C 0.42471 0.86441 0.44344
 H1126 H 0.43206 0.88137 0.44886
 C1127 C 0.40506 0.82081 0.42866
 C1128 C 0.56740 1.14458 0.44603
 H1129 H 0.55953 1.12800 0.45185
 C1130 C 0.58879 1.18702 0.43004
 C1131 C 0.44243 1.07380 0.37132
 H1132 H 0.44734 1.06749 0.38792
 C1133 C 0.42949 1.09079 0.32833
 C1134 C 0.54864 0.93740 0.36883
 H1135 H 0.54228 0.94343 0.38533
 C1136 C 0.56661 0.92104 0.32699
 C1137 C 0.54775 0.85441 0.43974
 H1138 H 0.54228 0.87124 0.44701
 C1139 C 0.56248 0.81107 0.42016
 C1140 C 0.44788 1.15124 0.44891
 H1141 H 0.45476 1.13472 0.45519
 C1142 C 0.42869 1.19306 0.43196
 C1143 C 0.36932 1.07448 0.44800
 H1144 H 0.38481 1.06619 0.45442
 C1145 C 0.33002 1.09701 0.43044
 C1146 C 0.62417 0.93232 0.44096
 H1147 H 0.60820 0.93907 0.44857
 C1148 C 0.66463 0.91406 0.41992
 O1149 O 0.51481 0.91192 0.61068
 O1150 O 0.51243 0.88515 0.63797
 C1151 C 0.52189 0.90376 0.62939
 C1152 C 0.54111 0.91621 0.64141
 C1153 C 0.54595 0.91046 0.66400
 H1154 H 0.53598 0.89633 0.67225
 O1155 O 0.48288 1.08918 0.62095
 O1156 O 0.48535 1.11624 0.64822
 C1157 C 0.47566 1.09777 0.63981
 C1158 C 0.45553 1.08644 0.65186
 C1159 C 0.44825 1.09485 0.67329
 H1160 H 0.45752 1.10979 0.68083
 O1161 O 0.38583 1.03301 0.58975
 O1162 O 0.35836 1.03371 0.61654
 C1163 C 0.36716 1.04171 0.59802
 C1164 C 0.35609 1.06161 0.58599
 C1165 C 0.33407 1.07025 0.59289
 H1166 H 0.32464 1.06207 0.60703
 O1167 O 0.61185 0.97076 0.57954
 O1168 O 0.63892 0.96855 0.60562
 C1169 C 0.62982 0.96089 0.58735
 C1170 C 0.63972 0.93945 0.57608
 C1171 C 0.65817 0.92781 0.58640
 H1172 H 0.66602 0.93544 0.60149
 O1173 O 0.57240 0.87295 0.52160
 O1174 O 0.59871 0.84471 0.52053
 C1175 C 0.58019 0.85356 0.52914
 C1176 C 0.56796 0.84224 0.54887
 C1177 C 0.57764 0.82292 0.56041
 H1178 H 0.59374 0.81511 0.55416
 O1179 O 0.42523 1.12659 0.53025
 O1180 O 0.39964 1.15553 0.53202
 C1181 C 0.41832 1.14612 0.53881
 C1182 C 0.43190 1.15756 0.55722
 C1183 C 0.42699 1.18081 0.56465
 H1184 H 0.41399 1.19093 0.55591
 O1185 O 0.41524 0.98470 0.61869
 O1186 O 0.38847 0.98521 0.64617
 C1187 C 0.40694 0.97656 0.63727
 C1188 C 0.41889 0.95664 0.64826
 C1189 C 0.41495 0.95147 0.67142
 H1190 H 0.40333 0.96247 0.68157
 O1191 O 0.58455 1.01911 0.61321
 O1192 O 0.61173 1.01621 0.63916
 C1193 C 0.59340 1.02583 0.63195
 C1194 C 0.58243 1.04508 0.64551
 C1195 C 0.59003 1.05026 0.66758
 H1196 H 0.60434 1.04029 0.67433
 O1197 O 0.46608 0.88195 0.58185
 O1198 O 0.46360 0.85478 0.60872
 C1199 C 0.45622 0.86359 0.59037
 C1200 C 0.43556 0.85304 0.57897
 C1201 C 0.42550 0.83126 0.58607
 H1202 H 0.43350 0.82139 0.59957
 O1203 O 0.53101 1.11942 0.59003
 O1204 O 0.53357 1.14650 0.61726
 C1205 C 0.54057 1.13807 0.59828
 C1206 C 0.56026 1.14968 0.58573
 C1207 C 0.57031 1.17126 0.59336
 H1208 H 0.56340 1.17992 0.60851
 O1209 O 0.37596 0.92488 0.52556
 O1210 O 0.34537 0.90053 0.52572
 C1211 C 0.35594 0.91883 0.53352
 C1212 C 0.34525 0.93278 0.55250
 C1213 C 0.32189 0.92845 0.55954
 H1214 H 0.31127 0.91591 0.55003
 O1215 O 0.61776 1.08303 0.52401
 O1216 O 0.64768 1.10826 0.52325
 C1217 C 0.63782 1.08949 0.53094
 C1218 C 0.64946 1.07592 0.54897
 C1219 C 0.67055 1.08454 0.55776
 H1220 H 0.67924 1.09951 0.54955
 O1221 O 0.52812 1.08513 0.61931
 O1222 O 0.53071 1.11189 0.64684
 C1223 C 0.53678 1.09217 0.63796
 C1224 C 0.55452 1.07734 0.64883
 C1225 C 0.56185 1.08190 0.67120
 H1226 H 0.55348 1.09580 0.68108
 O1227 O 0.46969 0.91527 0.61256
 O1228 O 0.46753 0.88816 0.63954
 C1229 C 0.46169 0.90817 0.63170
 C1230 C 0.44565 0.92328 0.64524
 C1231 C 0.44158 0.91843 0.66833
 H1232 H 0.45009 0.90348 0.67604
 O1233 O 0.61622 1.01772 0.58114
 O1234 O 0.64336 1.01553 0.60716
 C1235 C 0.63555 1.02489 0.58923
 C1236 C 0.64841 1.04494 0.57802
 C1237 C 0.66905 1.05474 0.58736
 H1238 H 0.67592 1.04729 0.60276
 O1239 O 0.38315 0.98677 0.58832
 O1240 O 0.35601 0.98725 0.61544
 C1241 C 0.36362 0.97942 0.59639
 C1242 C 0.34944 0.96174 0.58353
 C1243 C 0.32642 0.95656 0.59064
 H1244 H 0.31960 0.96512 0.60586
 O1245 O 0.58881 1.11790 0.52659
 O1246 O 0.61875 1.14313 0.52628
 C1247 C 0.59927 1.13604 0.53469
 C1248 C 0.58890 1.14858 0.55446
 C1249 C 0.59876 1.17001 0.56229
 H1250 H 0.61348 1.17795 0.55311
 O1251 O 0.40429 0.88923 0.52507
 O1252 O 0.37387 0.86463 0.52557
 C1253 C 0.39382 0.87085 0.53289
 C1254 C 0.40492 0.85681 0.55085
 C1255 C 0.39509 0.83505 0.55809
 H1256 H 0.37924 0.82836 0.55033
 O1257 O 0.58007 0.97299 0.61143
 O1258 O 0.60702 0.97046 0.63766
 C1259 C 0.58728 0.96412 0.62980
 C1260 C 0.57269 0.94601 0.64186
 C1261 C 0.57686 0.94045 0.66471
 H1262 H 0.59023 0.95030 0.67375
 O1263 O 0.41705 1.03105 0.62115
 O1264 O 0.38985 1.03174 0.64819
 C1265 C 0.40934 1.03913 0.64008
 C1266 C 0.42307 1.05772 0.65229
 C1267 C 0.41620 1.06608 0.67407
 H1268 H 0.40117 1.05805 0.68263
 O1269 O 0.48568 1.12106 0.58971
 O1270 O 0.48797 1.14838 0.61675
 C1271 C 0.47932 1.14076 0.59821
 C1272 C 0.46148 1.15470 0.58648
 C1273 C 0.45587 1.17760 0.59412
 H1274 H 0.46455 1.18480 0.60893
 O1275 O 0.51175 0.87794 0.58090
 O1276 O 0.50938 0.85111 0.60809
 C1277 C 0.51827 0.85846 0.58944
 C1278 C 0.53733 0.84488 0.57832
 C1279 C 0.54712 0.82558 0.58950
 H1280 H 0.53944 0.81945 0.60544
 O1281 O 0.60609 0.90421 0.52164
 O1282 O 0.63256 0.87614 0.51998
 C1283 C 0.62493 0.89534 0.52873
 C1284 C 0.63748 0.90713 0.54788
 C1285 C 0.65606 0.89570 0.55875
 H1286 H 0.66192 0.87849 0.55274
 O1287 O 0.39074 1.09587 0.53015
 O1288 O 0.36505 1.12471 0.53153
 C1289 C 0.37215 1.10480 0.53847
 C1290 C 0.35879 1.09231 0.55671
 C1291 C 0.33692 1.10071 0.56388
 H1292 H 0.32943 1.11575 0.55534
 Cu1293 Cu 0.49071 0.89932 0.59363
 Cu1294 Cu 0.48795 0.86696 0.62618
 Cu1295 Cu 0.50679 1.10097 0.60231
 Cu1296 Cu 0.50966 1.13349 0.63501
 Cu1297 Cu 0.39337 0.90934 0.50306
 Cu1298 Cu 0.35689 0.87987 0.50349
 Cu1299 Cu 0.58607 0.89190 0.49960
 Cu1300 Cu 0.61767 0.85821 0.49752
 Cu1301 Cu 0.41048 1.10907 0.50789
 Cu1302 Cu 0.37957 1.14363 0.50991
 Cu1303 Cu 0.59961 1.09899 0.50317
 Cu1304 Cu 0.63564 1.12919 0.50263
 Cu1305 Cu 0.40307 1.00890 0.60185
 Cu1306 Cu 0.37042 1.00944 0.63429
 Cu1307 Cu 0.59559 0.99546 0.59360
 Cu1308 Cu 0.62817 0.99232 0.62480
 C1309 C 0.55452 0.93405 0.63048
 H1310 H 0.55109 0.93834 0.61291
 C1311 C 0.56346 0.92275 0.67604
 C1312 C 0.44295 1.06782 0.64158
 H1313 H 0.44832 1.06159 0.62483
 C1314 C 0.42884 1.08466 0.68483
 C1315 C 0.36815 1.07266 0.56772
 H1316 H 0.38521 1.06636 0.56242
 C1317 C 0.32446 1.08992 0.58191
 C1318 C 0.62953 0.92907 0.55672
 H1319 H 0.61490 0.93772 0.54897
 C1320 C 0.66610 0.90582 0.57833
 C1321 C 0.54762 0.85280 0.55787
 H1322 H 0.54033 0.86802 0.54947
 C1323 C 0.56742 0.81475 0.58097
 C1324 C 0.44946 1.14484 0.56798
 H1325 H 0.45333 1.12691 0.56233
 C1326 C 0.43893 1.19105 0.58314
 C1327 C 0.43448 0.94259 0.63538
 H1328 H 0.43753 0.94636 0.61750
 C1329 C 0.42661 0.93258 0.68166
 C1330 C 0.56464 1.05863 0.63633
 H1331 H 0.55909 1.05496 0.61912
 C1332 C 0.57961 1.06830 0.68087
 C1333 C 0.42522 0.86550 0.56124
 H1334 H 0.43269 0.88242 0.55585
 C1335 C 0.40530 0.82203 0.57558
 C1336 C 0.56959 1.13864 0.56616
 H1337 H 0.56212 1.12190 0.56030
 C1338 C 0.58963 1.18148 0.58169
 C1339 C 0.35871 0.94983 0.56438
 H1340 H 0.37666 0.95337 0.55909
 C1341 C 0.31222 0.94035 0.57861
 C1342 C 0.63872 1.05585 0.55891
 H1343 H 0.62236 1.04920 0.55219
 C1344 C 0.68008 1.07488 0.57748
 O1345 O 0.48984 0.42937 0.87939
 O1346 O 0.49094 0.40390 0.85066
 C1347 C 0.48286 0.42264 0.85993
 C1348 C 0.46474 0.43656 0.84846
 C1349 C 0.45944 0.43271 0.82534
 H1350 H 0.46946 0.42004 0.81540
 O1351 O 0.53644 0.60048 0.89303
 O1352 O 0.53790 0.62896 0.86735
 C1353 C 0.54519 0.60935 0.87485
 C1354 C 0.56412 0.59691 0.86233
 C1355 C 0.57027 0.60365 0.84005
 H1356 H 0.56103 0.61801 0.83214
 O1357 O 0.39036 0.48709 0.91183
 O1358 O 0.36620 0.48926 0.88312
 C1359 C 0.37237 0.47952 0.90144
 C1360 C 0.35918 0.45851 0.91024
 C1361 C 0.33902 0.44994 0.89935
 H1362 H 0.33203 0.46006 0.88550
 O1363 O 0.62877 0.53474 0.92233
 O1364 O 0.65729 0.53667 0.89663
 C1365 C 0.64850 0.54297 0.91568
 C1366 C 0.66096 0.56046 0.93011
 C1367 C 0.68433 0.56687 0.92545
 H1368 H 0.69369 0.55775 0.91190
 O1369 O 0.42057 0.38883 0.96429
 O1370 O 0.39307 0.36124 0.96052
 C1371 C 0.41285 0.37020 0.95451
 C1372 C 0.42689 0.35949 0.93561
 C1373 C 0.41962 0.33823 0.92482
 H1374 H 0.40362 0.32940 0.93050
 O1375 O 0.59526 0.62563 0.98522
 O1376 O 0.62316 0.65295 0.98819
 C1377 C 0.60442 0.64535 0.97911
 C1378 C 0.59323 0.65918 0.96097
 C1379 C 0.60236 0.68140 0.95411
 H1380 H 0.61697 0.68911 0.96316
 O1381 O 0.42692 0.53565 0.88774
 O1382 O 0.40244 0.53790 0.85929
 C1383 C 0.42090 0.54499 0.86915
 C1384 C 0.43512 0.56454 0.85890
 C1385 C 0.42966 0.57292 0.83724
 H1386 H 0.41613 0.56391 0.82766
 O1387 O 0.59676 0.49203 0.88672
 O1388 O 0.62508 0.49404 0.86079
 C1389 C 0.60556 0.48552 0.86774
 C1390 C 0.59333 0.46735 0.85393
 C1391 C 0.60169 0.46157 0.83208
 H1392 H 0.61636 0.47153 0.82486
 O1393 O 0.53338 0.39509 0.91011
 O1394 O 0.53466 0.36943 0.88157
 C1395 C 0.54173 0.37647 0.90094
 C1396 C 0.56042 0.36331 0.91248
 C1397 C 0.57002 0.34307 0.90217
 H1398 H 0.56253 0.33621 0.88660
 O1399 O 0.48915 0.63230 0.92331
 O1400 O 0.49121 0.66088 0.89780
 C1401 C 0.48155 0.65164 0.91528
 C1402 C 0.46045 0.66266 0.92560
 C1403 C 0.45060 0.68299 0.91582
 H1404 H 0.45904 0.69143 0.90126
 O1405 O 0.38692 0.59616 0.97580
 O1406 O 0.35979 0.62359 0.97558
 C1407 C 0.36823 0.60433 0.96778
 C1408 C 0.35682 0.59110 0.94898
 C1409 C 0.33399 0.59615 0.94198
 H1410 H 0.32405 0.60989 0.95059
 O1411 O 0.62440 0.42176 0.97417
 O1412 O 0.65137 0.39420 0.97404
 C1413 C 0.64353 0.41354 0.96627
 C1414 C 0.65600 0.42633 0.94724
 C1415 C 0.67575 0.41659 0.93590
 H1416 H 0.68253 0.39975 0.94144
 O1417 O 0.49093 0.59898 0.89303
 O1418 O 0.49257 0.62743 0.86733
 C1419 C 0.48402 0.60778 0.87457
 C1420 C 0.46556 0.59536 0.86156
 C1421 C 0.45919 0.60399 0.84022
 H1422 H 0.46783 0.61977 0.83345
 O1423 O 0.53527 0.42909 0.88035
 O1424 O 0.53632 0.40348 0.85174
 C1425 C 0.54396 0.42226 0.86137
 C1426 C 0.56343 0.43613 0.85075
 C1427 C 0.57221 0.43034 0.82889
 H1428 H 0.56448 0.41568 0.81944
 O1429 O 0.62692 0.48849 0.91863
 O1430 O 0.65524 0.49039 0.89273
 C1431 C 0.64591 0.48063 0.91021
 C1432 C 0.65688 0.45938 0.92016
 C1433 C 0.67673 0.44971 0.90959
 H1434 H 0.68483 0.45898 0.89534
 O1435 O 0.39142 0.53364 0.91608
 O1436 O 0.36695 0.53542 0.88756
 C1437 C 0.37330 0.54213 0.90720
 C1438 C 0.35957 0.56022 0.91963
 C1439 C 0.33684 0.56526 0.91301
 H1440 H 0.32925 0.55547 0.89892
 O1441 O 0.42075 0.62727 0.97727
 O1442 O 0.39397 0.65506 0.97675
 C1443 C 0.41336 0.64679 0.96967
 C1444 C 0.42705 0.65982 0.95202
 C1445 C 0.41781 0.68021 0.94233
 H1446 H 0.40130 0.68698 0.94871
 O1447 O 0.59140 0.39017 0.97189
 O1448 O 0.61808 0.36230 0.97197
 C1449 C 0.59992 0.37129 0.96344
 C1450 C 0.58902 0.36055 0.94290
 C1451 C 0.59871 0.34051 0.93194
 H1452 H 0.61395 0.33226 0.93893
 O1453 O 0.59813 0.53818 0.89023
 O1454 O 0.62640 0.54009 0.86425
 C1455 C 0.60706 0.54747 0.87233
 C1456 C 0.59465 0.56698 0.86097
 C1457 C 0.60059 0.57398 0.83855
 H1458 H 0.61434 0.56486 0.82925
 O1459 O 0.42628 0.48952 0.88439
 O1460 O 0.40200 0.49210 0.85579
 C1461 C 0.42007 0.48336 0.86453
 C1462 C 0.43389 0.46597 0.85123
 C1463 C 0.42849 0.46152 0.82847
 H1464 H 0.41379 0.47047 0.82123
 O1465 O 0.53509 0.63100 0.92631
 O1466 O 0.53716 0.65944 0.90066
 C1467 C 0.54419 0.65026 0.91900
 C1468 C 0.56371 0.66153 0.93156
 C1469 C 0.57356 0.68329 0.92440
 H1470 H 0.56658 0.69183 0.90959
 O1471 O 0.48769 0.39470 0.90835
 O1472 O 0.48896 0.36904 0.87981
 C1473 C 0.48002 0.37597 0.89863
 C1474 C 0.46004 0.36238 0.90875
 C1475 C 0.45289 0.34082 0.89878
 H1476 H 0.46320 0.33345 0.88488
 O1477 O 0.62668 0.59295 0.98554
 O1478 O 0.65482 0.61995 0.98894
 C1479 C 0.64662 0.60126 0.97960
 C1480 C 0.66002 0.58922 0.96131
 C1481 C 0.68322 0.59598 0.95610
 H1482 H 0.69141 0.61026 0.96570
 O1483 O 0.38634 0.41867 0.96368
 O1484 O 0.35871 0.39112 0.96048
 C1485 C 0.36783 0.41078 0.95431
 C1486 C 0.35724 0.42447 0.93577
 C1487 C 0.33741 0.41577 0.92434
 H1488 H 0.32974 0.39880 0.92928
 Cu1489 Cu 0.51144 0.41465 0.89738
 Cu1490 Cu 0.51280 0.38377 0.86319
 Cu1491 Cu 0.51280 0.61299 0.91163
 Cu1492 Cu 0.51490 0.64712 0.88082
 Cu1493 Cu 0.41106 0.51127 0.90303
 Cu1494 Cu 0.38193 0.51399 0.86860
 Cu1495 Cu 0.60981 0.51335 0.90709
 Cu1496 Cu 0.64393 0.51559 0.87607
 C1497 C 0.45212 0.45356 0.86108
 H1498 H 0.45604 0.45670 0.87883
 C1499 C 0.44136 0.44541 0.81508
 C1500 C 0.57626 0.57846 0.87257
 H1501 H 0.57161 0.57329 0.88982
 C1502 C 0.58816 0.59209 0.82780
 C1503 C 0.36785 0.44586 0.92864
 H1504 H 0.38344 0.45234 0.93702
 C1505 C 0.32804 0.42836 0.90603
 C1506 C 0.64912 0.57141 0.94829
 H1507 H 0.63104 0.56656 0.95189
 C1508 C 0.69566 0.58479 0.93826
 C1509 C 0.44717 0.37140 0.92739
 H1510 H 0.45260 0.38814 0.93505
 C1511 C 0.43256 0.32877 0.90630
 C1512 C 0.57365 0.64965 0.94986
 H1513 H 0.56651 0.63252 0.95504
 C1514 C 0.59279 0.69360 0.93564
 C1515 C 0.45340 0.57561 0.87084
 H1516 H 0.45772 0.56928 0.88760
 C1517 C 0.44121 0.59294 0.82794
 C1518 C 0.57403 0.45477 0.86302
 H1519 H 0.56769 0.45904 0.88002
 C1520 C 0.59144 0.44299 0.81947
 C1521 C 0.56983 0.37174 0.93299
 H1522 H 0.56261 0.38753 0.94090
 C1523 C 0.58942 0.33178 0.91140
 C1524 C 0.44853 0.65129 0.94376
 H1525 H 0.45558 0.63529 0.95099
 C1526 C 0.42904 0.69156 0.92390
 C1527 C 0.36930 0.57296 0.93776
 H1528 H 0.38698 0.56912 0.94275
 C1529 C 0.32376 0.58287 0.92420
 C1530 C 0.64679 0.44773 0.93908
 H1531 H 0.63132 0.45509 0.94715
 C1532 C 0.68607 0.42810 0.91676
 O1533 O 0.51487 0.41259 1.10289
 O1534 O 0.51274 0.38404 1.12847
 C1535 C 0.52112 0.40386 1.12172
 C1536 C 0.53831 0.41677 1.13594
 C1537 C 0.54326 0.40857 1.15784
 H1538 H 0.53475 0.39242 1.16387
 O1539 O 0.47516 0.58937 1.10788
 O1540 O 0.47361 0.61556 1.13601
 C1541 C 0.46615 0.59656 1.12651
 C1542 C 0.44730 0.58249 1.13776
 C1543 C 0.44214 0.58671 1.16068
 H1544 H 0.45131 0.60102 1.16936
 O1545 O 0.38001 0.52881 1.07437
 O1546 O 0.35210 0.52704 1.10065
 C1547 C 0.36106 0.53666 1.08301
 C1548 C 0.35007 0.55778 1.07278
 C1549 C 0.32933 0.56757 1.08193
 H1550 H 0.32061 0.55918 1.09635
 O1551 O 0.61104 0.47907 1.08378
 O1552 O 0.63532 0.47717 1.11242
 C1553 C 0.62922 0.47061 1.09261
 C1554 C 0.64359 0.45313 1.07975
 C1555 C 0.66586 0.44743 1.08738
 H1556 H 0.67240 0.45580 1.10272
 O1557 O 0.58883 0.38780 1.01635
 O1558 O 0.61591 0.36040 1.01720
 C1559 C 0.59640 0.36844 1.02431
 C1560 C 0.58254 0.35571 1.04244
 C1561 C 0.59203 0.33638 1.05434
 H1562 H 0.60950 0.33041 1.05016
 O1563 O 0.41759 0.62777 1.02112
 O1564 O 0.39154 0.65629 1.02096
 C1565 C 0.41006 0.64747 1.02876
 C1566 C 0.42311 0.65961 1.04716
 C1567 C 0.41830 0.68316 1.05399
 H1568 H 0.40522 0.69308 1.04516
 O1569 O 0.41142 0.47996 1.10135
 O1570 O 0.38342 0.47826 1.12761
 C1571 C 0.40250 0.47062 1.11918
 C1572 C 0.41390 0.45031 1.13014
 C1573 C 0.40577 0.44269 1.15149
 H1574 H 0.39230 0.45272 1.16028
 O1575 O 0.57764 0.52443 1.11565
 O1576 O 0.60183 0.52237 1.14434
 C1577 C 0.58424 0.53157 1.13515
 C1578 C 0.57168 0.55127 1.14675
 C1579 C 0.57750 0.55878 1.16892
 H1580 H 0.59077 0.54952 1.17816
 O1581 O 0.47177 0.37955 1.06852
 O1582 O 0.46999 0.35107 1.09412
 C1583 C 0.46308 0.35992 1.07569
 C1584 C 0.44400 0.34800 1.06294
 C1585 C 0.43396 0.32627 1.07032
 H1586 H 0.44154 0.31719 1.08454
 O1587 O 0.52381 0.62407 1.08270
 O1588 O 0.52225 0.65043 1.11065
 C1589 C 0.53156 0.64288 1.09226
 C1590 C 0.55207 0.65544 1.08210
 C1591 C 0.55985 0.67771 1.09044
 H1592 H 0.55036 0.68649 1.10415
 O1593 O 0.38614 0.41984 1.00815
 O1594 O 0.35816 0.39265 1.00504
 C1595 C 0.36626 0.41168 1.01421
 C1596 C 0.35279 0.42392 1.03265
 C1597 C 0.33062 0.41527 1.03912
 H1598 H 0.32271 0.40140 1.02885
 O1599 O 0.62214 0.59044 1.02975
 O1600 O 0.65016 0.61752 1.03340
 C1601 C 0.64040 0.59806 1.03957
 C1602 C 0.64973 0.58429 1.05877
 C1603 C 0.67061 0.59124 1.06946
 H1604 H 0.68045 0.60661 1.06334
 O1605 O 0.52025 0.58987 1.11221
 O1606 O 0.51850 0.61626 1.14015
 C1607 C 0.52649 0.59709 1.13178
 C1608 C 0.54341 0.58330 1.14488
 C1609 C 0.54920 0.59035 1.16706
 H1610 H 0.54093 0.60574 1.17471
 O1611 O 0.46965 0.41315 1.09910
 O1612 O 0.46775 0.38490 1.12497
 C1613 C 0.46061 0.40455 1.11722
 C1614 C 0.44162 0.41760 1.12925
 C1615 C 0.43284 0.40998 1.15064
 H1616 H 0.43985 0.39429 1.15846
 O1617 O 0.61177 0.52529 1.08624
 O1618 O 0.63603 0.52327 1.11490
 C1619 C 0.63010 0.53250 1.09621
 C1620 C 0.64443 0.55215 1.08634
 C1621 C 0.66537 0.55916 1.09657
 H1622 H 0.67155 0.54927 1.11097
 O1623 O 0.38087 0.48212 1.06978
 O1624 O 0.35275 0.47994 1.09584
 C1625 C 0.36183 0.47285 1.07707
 C1626 C 0.35071 0.45314 1.06381
 C1627 C 0.32920 0.44293 1.07096
 H1628 H 0.32091 0.44951 1.08638
 O1629 O 0.59137 0.62344 1.02894
 O1630 O 0.61924 0.65079 1.03213
 C1631 C 0.59929 0.64243 1.03794
 C1632 C 0.58533 0.65478 1.05556
 C1633 C 0.59290 0.67680 1.06407
 H1634 H 0.60867 0.68513 1.05714
 O1635 O 0.41378 0.38346 1.00824
 O1636 O 0.38615 0.35597 1.00489
 C1637 C 0.40448 0.36371 1.01441
 C1638 C 0.41491 0.35009 1.03317
 C1639 C 0.40480 0.32854 1.04096
 H1640 H 0.38920 0.32165 1.03291
 O1641 O 0.57535 0.47783 1.11216
 O1642 O 0.59952 0.47594 1.14088
 C1643 C 0.58121 0.46867 1.13087
 C1644 C 0.56703 0.44887 1.14073
 C1645 C 0.57097 0.44106 1.16298
 H1646 H 0.58313 0.45101 1.17340
 O1647 O 0.41215 0.52621 1.10484
 O1648 O 0.38458 0.52440 1.13150
 C1649 C 0.40401 0.53286 1.12407
 C1650 C 0.41730 0.55103 1.13734
 C1651 C 0.41282 0.55509 1.16079
 H1652 H 0.39983 0.54432 1.16974
 O1653 O 0.47826 0.62467 1.07997
 O1654 O 0.47690 0.65099 1.10799
 C1655 C 0.47023 0.64370 1.08866
 C1656 C 0.45273 0.65741 1.07636
 C1657 C 0.44747 0.68059 1.08328
 H1658 H 0.45635 0.68817 1.09781
 O1659 O 0.51790 0.38303 1.06876
 O1660 O 0.51613 0.35475 1.09455
 C1661 C 0.52586 0.36406 1.07699
 C1662 C 0.54751 0.35339 1.06722
 C1663 C 0.55694 0.33370 1.07797
 H1664 H 0.54703 0.32511 1.09157
 O1665 O 0.62042 0.42124 1.01896
 O1666 O 0.64791 0.39422 1.01935
 C1667 C 0.63877 0.41301 1.02759
 C1668 C 0.64874 0.42514 1.04792
 C1669 C 0.67102 0.41950 1.05604
 H1670 H 0.68163 0.40661 1.04698
 O1671 O 0.38542 0.59482 1.02001
 O1672 O 0.35904 0.62301 1.02017
 C1673 C 0.36638 0.60335 1.02760
 C1674 C 0.35299 0.59050 1.04562
 C1675 C 0.33227 0.59989 1.05476
 H1676 H 0.32544 0.61607 1.04770
 Cu1677 Cu 0.49366 0.39980 1.08216
 Cu1678 Cu 0.49142 0.36569 1.11287
 Cu1679 Cu 0.49966 0.60446 1.09276
 Cu1680 Cu 0.49757 0.63598 1.12650
 Cu1681 Cu 0.40442 0.40529 0.98636
 Cu1682 Cu 0.37138 0.37253 0.98253
 Cu1683 Cu 0.60372 0.40797 0.99538
 Cu1684 Cu 0.63599 0.37504 0.99576
 Cu1685 Cu 0.40523 0.60864 0.99861
 Cu1686 Cu 0.37336 0.64231 0.99831
 Cu1687 Cu 0.60617 0.60527 1.00696
 Cu1688 Cu 0.63975 0.63800 1.01097
 Cu1689 Cu 0.39877 0.50464 1.08489
 Cu1690 Cu 0.36531 0.50225 1.11642
 Cu1691 Cu 0.59139 0.50176 1.09670
 Cu1692 Cu 0.62056 0.49933 1.13102
 C1693 C 0.55029 0.43692 1.12751
 H1694 H 0.54708 0.44289 1.11037
 C1695 C 0.55939 0.42067 1.17174
 C1696 C 0.43496 0.56456 1.12618
 H1697 H 0.43882 0.56149 1.10829
 C1698 C 0.42574 0.57266 1.17273
 C1699 C 0.36156 0.56936 1.05455
 H1700 H 0.37770 0.56222 1.04767
 C1701 C 0.32039 0.58881 1.07307
 C1702 C 0.63531 0.44215 1.05986
 H1703 H 0.61806 0.44646 1.05397
 C1704 C 0.67984 0.43095 1.07560
 C1705 C 0.56030 0.36416 1.04925
 H1706 H 0.55322 0.37958 1.04101
 C1707 C 0.57946 0.32567 1.07254
 C1708 C 0.44064 0.64712 1.05823
 H1709 H 0.44446 0.62899 1.05319
 C1710 C 0.43069 0.69393 1.07201
 C1711 C 0.43199 0.43785 1.11918
 H1712 H 0.43825 0.44366 1.10259
 C1713 C 0.41477 0.42245 1.16181
 C1714 C 0.55449 0.56358 1.13501
 H1715 H 0.55017 0.55822 1.11782
 C1716 C 0.56616 0.57825 1.17926
 C1717 C 0.43455 0.35945 1.04419
 H1718 H 0.44212 0.37625 1.03856
 C1719 C 0.41422 0.31628 1.05953
 C1720 C 0.56482 0.64430 1.06449
 H1721 H 0.55916 0.62704 1.05814
 C1722 C 0.58040 0.68833 1.08149
 C1723 C 0.36248 0.44326 1.04476
 H1724 H 0.37956 0.45019 1.03974
 C1725 C 0.31891 0.42385 1.05876
 C1726 C 0.63686 0.56464 1.06731
 H1727 H 0.62055 0.55940 1.05951
 C1728 C 0.67848 0.57876 1.08848
 C1729 C 1.14815 1.15181 1.26970
 C1730 C 1.13888 1.13854 1.25166
 C1731 C 1.15382 1.12494 1.23747
 C1732 C 1.17772 1.12414 1.24216
 C1733 C 1.18663 1.13627 1.26105
 C1734 C 1.17199 1.15036 1.27499
 C1735 C 1.14453 1.11196 1.21917
 C1736 C 1.12033 1.11145 1.21566
 C1737 C 1.10533 1.12410 1.23062
 C1738 C 1.11473 1.13801 1.24817
 C1739 C 1.08112 1.12246 1.22794
 C1740 C 1.07180 1.10878 1.21033
 C1741 C 1.08650 1.09707 1.19452
 C1742 C 1.11086 1.09839 1.19750
 H1743 H 1.13642 1.16216 1.28041
 H1744 H 1.18942 1.11366 1.23158
 H1745 H 1.20507 1.13479 1.26453
 H1746 H 1.15603 1.10185 1.20801
 H1747 H 1.10320 1.14800 1.25941
 H1748 H 1.06936 1.13165 1.23956
 H1749 H 1.05297 1.10751 1.20909
 H1750 H 1.12257 1.08974 1.18548
 C1751 C 1.11741 0.62081 0.79610
 C1752 C 1.11087 0.60959 0.77571
 C1753 C 1.12807 0.59878 0.76170
 C1754 C 1.15133 0.59851 0.76881
 C1755 C 1.15767 0.60958 0.78921
 C1756 C 1.14091 0.62130 0.80280
 C1757 C 1.12183 0.58883 0.74065
 C1758 C 1.09855 0.58934 0.73352
 C1759 C 1.08122 0.59934 0.74793
 C1760 C 1.08748 0.60947 0.76889
 C1761 C 1.05791 0.59929 0.74099
 C1762 C 1.05186 0.58983 0.71981
 C1763 C 1.06902 0.58052 0.70491
 C1764 C 1.09240 0.58027 0.71208
 H1765 H 1.10425 0.62958 0.80653
 H1766 H 1.16471 0.59015 0.75836
 H1767 H 1.17588 0.60970 0.79392
 H1768 H 1.13512 0.58093 0.72971
 H1769 H 1.07423 0.61754 0.77974
 H1770 H 1.04435 0.60662 0.75194
 H1771 H 1.03364 0.58976 0.71515
 H1772 H 1.10600 0.57356 0.70081
 C1773 C 0.62895 1.11357 0.79895
 C1774 C 0.61784 1.10893 0.77823
 C1775 C 0.60713 1.12764 0.76654
 C1776 C 0.60659 1.15039 0.77638
 C1777 C 0.61693 1.15472 0.79739
 C1778 C 0.62875 1.13655 0.80875
 C1779 C 0.59722 1.12333 0.74518
 C1780 C 0.59725 1.10035 0.73567
 C1781 C 0.60678 1.08139 0.74799
 C1782 C 0.61729 1.08584 0.76902
 C1783 C 0.60577 1.05828 0.73902
 C1784 C 0.59607 1.05402 0.71774
 C1785 C 0.58775 1.07288 0.70456
 C1786 C 0.58809 1.09604 0.71394
 H1787 H 0.63751 1.09915 0.80751
 H1788 H 0.59821 1.16490 0.76780
 H1789 H 0.61627 1.17263 0.80431
 H1790 H 0.58952 1.13784 0.73598
 H1791 H 0.62508 1.07134 0.77817
 H1792 H 0.61254 1.04345 0.74845
 H1793 H 0.59523 1.03584 0.71159
 H1794 H 0.58190 1.11088 0.70418
 C1795 C 0.61981 0.63035 1.29319
 C1796 C 0.61359 0.62060 1.27188
 C1797 C 0.63132 0.61356 1.25621
 C1798 C 0.65482 0.61637 1.26196
 C1799 C 0.66079 0.62544 1.28323
 C1800 C 0.64347 0.63235 1.29908
 C1801 C 0.62538 0.60348 1.23515
 C1802 C 0.60190 0.60001 1.22948
 C1803 C 0.58410 0.60691 1.24507
 C1804 C 0.59003 0.61723 1.26613
 C1805 C 0.56063 0.60340 1.23927
 C1806 C 0.55488 0.59355 1.21813
 C1807 C 0.57244 0.58688 1.20239
 C1808 C 0.59598 0.58994 1.20834
 H1809 H 0.60638 0.63539 1.30545
 H1810 H 0.66861 0.61109 1.25018
 H1811 H 0.67912 0.62689 1.28744
 H1812 H 0.63906 0.59817 1.22323
 H1813 H 0.57635 0.62248 1.27807
 H1814 H 0.54671 0.60847 1.25098
 H1815 H 0.53660 0.59121 1.21402
 H1816 H 0.60967 0.58517 1.19624
 C1817 C 0.87213 0.85140 1.30052
 C1818 C 0.88004 0.86436 1.28137
 C1819 C 0.87477 0.88877 1.27955
 C1820 C 0.86117 0.89966 1.29655
 C1821 C 0.85261 0.88651 1.31506
 C1822 C 0.85800 0.86222 1.31745
 C1823 C 0.88290 0.90185 1.26063
 C1824 C 0.89559 0.89065 1.24305
 C1825 C 0.90018 0.86606 1.24452
 C1826 C 0.89272 0.85316 1.26378
 C1827 C 0.91199 0.85467 1.22657
 C1828 C 0.91944 0.86750 1.20746
 C1829 C 0.91584 0.89221 1.20602
 C1830 C 0.90366 0.90362 1.22397
 H1831 H 0.87633 0.83271 1.30174
 H1832 H 0.85684 0.91832 1.29539
 H1833 H 0.84192 0.89562 1.32767
 H1834 H 0.87904 0.92064 1.25943
 H1835 H 0.89649 0.83435 1.26493
 H1836 H 0.91531 0.83575 1.22722
 H1837 H 0.92795 0.85788 1.19370
 H1838 H 0.90073 0.92260 1.22330
 C1839 C 0.87012 0.37533 0.79691
 C1840 C 0.88102 0.38027 0.77555
 C1841 C 0.90549 0.37772 0.77278
 C1842 C 0.91859 0.36981 0.79095
 C1843 C 0.90764 0.36367 0.81144
 C1844 C 0.88327 0.36615 0.81489
 C1845 C 0.91658 0.38254 0.75175
 C1846 C 0.90349 0.38900 0.73292
 C1847 C 0.87894 0.39083 0.73532
 C1848 C 0.86790 0.38688 0.75665
 C1849 C 0.86582 0.39642 0.71624
 C1850 C 0.87690 0.40067 0.69522
 C1851 C 0.90145 0.39994 0.69273
 C1852 C 0.91460 0.39366 0.71174
 H1853 H 0.85136 0.37711 0.79896
 H1854 H 0.93733 0.36772 0.78914
 H1855 H 0.91858 0.35713 0.82482
 H1856 H 0.93537 0.38079 0.74993
 H1857 H 0.84909 0.38850 0.75842
 H1858 H 0.84696 0.39754 0.71757
 H1859 H 0.86611 0.40474 0.68085
 H1860 H 0.93348 0.39302 0.71026
 C1861 C 0.38735 0.89100 0.80470
 C1862 C 0.39093 0.90096 0.78304
 C1863 C 0.37161 0.90895 0.77066
 C1864 C 0.34914 0.90751 0.78043
 C1865 C 0.34575 0.89785 0.80207
 C1866 C 0.36473 0.88922 0.81429
 C1867 C 0.37500 0.91795 0.74862
 C1868 C 0.39748 0.91908 0.73878
 C1869 C 0.41688 0.91176 0.75144
 C1870 C 0.41349 0.90277 0.77348
 C1871 C 0.43935 0.91309 0.74167
 C1872 C 0.44250 0.92072 0.71927
 C1873 C 0.42326 0.92713 0.70618
 C1874 C 0.40081 0.92681 0.71626
 H1875 H 0.40214 0.88464 0.81406
 H1876 H 0.33414 0.91364 0.77124
 H1877 H 0.32812 0.89668 0.80904
 H1878 H 0.36011 0.92370 0.73902
 H1879 H 0.42836 0.89684 0.78302
 H1880 H 0.45444 0.90781 0.75119
 H1881 H 0.46004 0.92130 0.71203
 H1882 H 0.38585 0.93159 0.70630
 C1883 C 0.38151 0.39346 1.28995
 C1884 C 0.39095 0.39702 1.26799
 C1885 C 0.41485 0.39259 1.26349
 C1886 C 0.42874 0.38398 1.28089
 C1887 C 0.41893 0.37914 1.30233
 C1888 C 0.39519 0.38378 1.30719
 C1889 C 0.42435 0.39636 1.24158
 C1890 C 0.41001 0.40359 1.22386
 C1891 C 0.38588 0.40698 1.22821
 C1892 C 0.37661 0.40411 1.25027
 C1893 C 0.37135 0.41319 1.21040
 C1894 C 0.38069 0.41687 1.18863
 C1895 C 0.40486 0.41493 1.18425
 C1896 C 0.41939 0.40768 1.20190
 H1897 H 0.36312 0.39681 1.29311
 H1898 H 0.44707 0.38035 1.27776
 H1899 H 0.43008 0.37184 1.31516
 H1900 H 0.44278 0.39333 1.23825
 H1901 H 0.35816 0.40704 1.25358
 H1902 H 0.35275 0.41542 1.21333
 H1903 H 0.36897 0.42174 1.17522
 H1904 H 0.43803 0.40607 1.19878
 C1905 C 0.86991 1.09989 0.70789
 C1906 C 0.88045 1.09448 0.72852
 C1907 C 0.90324 1.10315 0.73305
 C1908 C 0.91482 1.11773 0.71710
 C1909 C 0.90351 1.12456 0.69739
 C1910 C 0.88087 1.11583 0.69259
 C1911 C 0.91369 1.09788 0.75379
 C1912 C 0.90101 1.08541 0.77065
 C1913 C 0.87778 1.07782 0.76645
 C1914 C 0.86793 1.08172 0.74520
 C1915 C 0.86453 1.06691 0.78375
 C1916 C 0.87426 1.06317 0.80493
 C1917 C 0.89780 1.06931 0.80905
 C1918 C 0.91101 1.08073 0.79178
 H1919 H 0.85233 1.09329 0.70475
 H1920 H 0.93224 1.12467 0.72032
 H1921 H 0.91256 1.13669 0.68588
 H1922 H 0.93131 1.10423 0.75713
 H1923 H 0.85021 1.07561 0.74198
 H1924 H 0.84652 1.06152 0.78100
 H1925 H 0.86322 1.05530 0.81810
 H1926 H 0.92912 1.08565 0.79457
 C1927 C 0.89992 0.59833 0.19433
 C1928 C 0.90433 0.58808 0.21550
 C1929 C 0.88552 0.57900 0.22895
 C1930 C 0.86276 0.57938 0.22053
 C1931 C 0.85857 0.58932 0.19930
 C1932 C 0.87700 0.59933 0.18625
 C1933 C 0.88969 0.57010 0.25072
 C1934 C 0.91247 0.56997 0.25914
 C1935 C 0.93138 0.57812 0.24530
 C1936 C 0.92719 0.58718 0.22360
 C1937 C 0.95416 0.57743 0.25354
 C1938 C 0.95815 0.56947 0.27555
 C1939 C 0.93942 0.56234 0.28994
 C1940 C 0.91659 0.56228 0.28138
 H1941 H 0.91429 0.60576 0.18425
 H1942 H 0.84816 0.57234 0.23052
 H1943 H 0.84074 0.58991 0.19345
 H1944 H 0.87519 0.56359 0.26121
 H1945 H 0.94166 0.59387 0.21318
 H1946 H 0.96890 0.58327 0.24304
 H1947 H 0.97598 0.56907 0.28137
 H1948 H 0.90191 0.55705 0.29222
 C1949 C 0.37667 1.13915 0.21332
 C1950 C 0.38291 1.12852 0.23399
 C1951 C 0.36672 1.11343 0.24559
 C1952 C 0.34519 1.10807 0.23578
 C1953 C 0.33971 1.11739 0.21466
 C1954 C 0.35511 1.13338 0.20323
 C1955 C 0.37241 1.10356 0.26663
 C1956 C 0.39466 1.10740 0.27570
 C1957 C 0.41140 1.12116 0.26339
 C1958 C 0.40526 1.13216 0.24297
 C1959 C 0.43411 1.12344 0.27159
 C1960 C 0.44009 1.11266 0.29198
 C1961 C 0.42325 1.10020 0.30536
 C1962 C 0.40049 1.09749 0.29677
 H1963 H 0.38901 1.15097 0.20467
 H1964 H 0.33268 1.09631 0.24428
 H1965 H 0.32291 1.11254 0.20763
 H1966 H 0.35971 1.09247 0.27570
 H1967 H 0.41802 1.14313 0.23384
 H1968 H 0.44739 1.13335 0.26210
 H1969 H 0.45810 1.11422 0.29713
 H1970 H 0.38708 1.08808 0.30651
 C1971 C 0.37858 0.63894 0.71819
 C1972 C 0.38662 0.62974 0.73871
 C1973 C 0.37070 0.61797 0.75372
 C1974 C 0.34729 0.61491 0.74771
 C1975 C 0.33964 0.62341 0.72698
 C1976 C 0.35512 0.63563 0.71223
 C1977 C 0.37843 0.60922 0.77442
 C1978 C 0.40202 0.61130 0.78002
 C1979 C 0.41817 0.62231 0.76480
 C1980 C 0.41030 0.63182 0.74435
 C1981 C 0.44191 0.62343 0.77029
 C1982 C 0.44954 0.61365 0.79063
 C1983 C 0.43349 0.60300 0.80604
 C1984 C 0.40968 0.60223 0.80061
 H1985 H 0.39057 0.64817 0.70667
 H1986 H 0.33494 0.60581 0.75896
 H1987 H 0.32144 0.62085 0.72265
 H1988 H 0.36613 0.60045 0.78601
 H1989 H 0.42260 0.64053 0.73273
 H1990 H 0.45459 0.63162 0.75876
 H1991 H 0.46804 0.61424 0.79416
 H1992 H 0.39693 0.59472 0.81249
 C1993 C 1.11250 0.87311 0.70236
 C1994 C 1.10559 0.88423 0.72268
 C1995 C 1.10711 0.90928 0.72474
 C1996 C 1.11636 0.92266 0.70645
 C1997 C 1.12383 0.91128 0.68632
 C1998 C 1.12157 0.88646 0.68406
 C1999 C 1.09942 0.92036 0.74501
 C2000 C 1.09076 0.90657 0.76332
 C2001 C 1.09011 0.88146 0.76129
 C2002 C 1.09729 0.87051 0.74097
 C2003 C 1.08227 0.86758 0.77963
 C2004 C 1.07471 0.87838 0.79978
 C2005 C 1.07432 0.90334 0.80193
 C2006 C 1.08267 0.91737 0.78360
 H2007 H 1.11118 0.85388 0.70091
 H2008 H 1.11788 0.94187 0.70773
 H2009 H 1.13092 0.92184 0.67240
 H2010 H 1.10024 0.93960 0.74657
 H2011 H 1.09648 0.85125 0.73941
 H2012 H 1.08204 0.84832 0.77843
 H2013 H 1.06924 0.86704 0.81377
 H2014 H 1.08250 0.93661 0.78493
 C2015 C 1.13126 0.38755 0.19701
 C2016 C 1.12243 0.39086 0.21927
 C2017 C 1.10968 0.37226 0.23012
 C2018 C 1.10497 0.35114 0.21820
 C2019 C 1.11318 0.34822 0.19588
 C2020 C 1.12689 0.36611 0.18510
 C2021 C 1.10188 0.37501 0.25273
 C2022 C 1.10604 0.39642 0.26446
 C2023 C 1.11775 0.41546 0.25324
 C2024 C 1.12615 0.41247 0.23084
 C2025 C 1.12087 0.43719 0.26464
 C2026 C 1.11285 0.43995 0.28706
 C2027 C 1.10215 0.42081 0.29889
 C2028 C 1.09868 0.39907 0.28725
 H2029 H 1.14140 0.40176 0.18902
 H2030 H 1.09500 0.33681 0.22616
 H2031 H 1.10930 0.33148 0.18738
 H2032 H 1.09251 0.36052 0.26116
 H2033 H 1.13554 0.42695 0.22243
 H2034 H 1.12940 0.45213 0.25617
 H2035 H 1.11504 0.45723 0.29504
 H2036 H 1.09068 0.38401 0.29594
 C2037 C 0.61054 0.89585 0.20187
 C2038 C 0.59902 0.89824 0.22292
 C2039 C 0.57444 0.89559 0.22447
 C2040 C 0.56190 0.88965 0.20491
 C2041 C 0.57369 0.88581 0.18418
 C2042 C 0.59816 0.88891 0.18240
 C2043 C 0.56293 0.89857 0.24558
 C2044 C 0.57586 0.90328 0.26523
 C2045 C 0.60058 0.90460 0.26368
 C2046 C 0.61193 0.90248 0.24254
 C2047 C 0.61364 0.90832 0.28329
 C2048 C 0.60236 0.91200 0.30412
 C2049 C 0.57781 0.91243 0.30570
 C2050 C 0.56458 0.90722 0.28634
 H2051 H 0.62942 0.89791 0.20109
 H2052 H 0.54307 0.88738 0.20575
 H2053 H 0.56357 0.88052 0.16953
 H2054 H 0.54403 0.89709 0.24673
 H2055 H 0.63084 0.90396 0.24139
 H2056 H 0.63257 0.90891 0.28244
 H2057 H 0.61287 0.91541 0.31898
 H2058 H 0.54565 0.90742 0.28748
 C2059 C 0.62708 0.40710 0.69334
 C2060 C 0.61709 0.41408 0.71426
 C2061 C 0.59250 0.41361 0.71728
 C2062 C 0.57835 0.40625 0.69922
 C2063 C 0.58849 0.39846 0.67873
 C2064 C 0.61290 0.39860 0.67573
 C2065 C 0.58254 0.41974 0.73849
 C2066 C 0.59688 0.42563 0.75689
 C2067 C 0.62147 0.42592 0.75382
 C2068 C 0.63139 0.42048 0.73248
 C2069 C 0.63581 0.43131 0.77225
 C2070 C 0.62596 0.43643 0.79355
 C2071 C 0.60155 0.43654 0.79684
 C2072 C 0.58708 0.43101 0.77838
 H2073 H 0.64595 0.40683 0.69128
 H2074 H 0.55949 0.40573 0.70121
 H2075 H 0.57729 0.39186 0.66535
 H2076 H 0.56369 0.41935 0.74081
 H2077 H 0.65025 0.42063 0.73022
 H2078 H 0.65468 0.43141 0.77024
 H2079 H 0.63753 0.44017 0.80757
 H2080 H 0.56824 0.43119 0.78067
 C2081 C 1.29127 1.13919 1.12330
 C2082 C 1.27186 1.12666 1.11437
 C2083 C 1.26819 1.10236 1.11980
 C2084 C 1.28341 1.09114 1.13444
 C2085 C 1.30165 1.10395 1.14430
 C2086 C 1.30592 1.12814 1.13900
 C2087 C 1.24894 1.08974 1.11115
 C2088 C 1.23239 1.10136 1.09815
 C2089 C 1.23547 1.12583 1.09332
 C2090 C 1.25547 1.13820 1.10094
 C2091 C 1.21819 1.13764 1.08141
 C2092 C 1.19801 1.12542 1.07454
 C2093 C 1.19492 1.10083 1.07868
 C2094 C 1.21249 1.08896 1.09043
 H2095 H 1.29398 1.15783 1.11921
 H2096 H 1.28081 1.07257 1.13884
 H2097 H 1.31265 1.09463 1.15599
 H2098 H 1.24639 1.07106 1.11523
 H2099 H 1.25786 1.15694 1.09708
 H2100 H 1.22001 1.15649 1.07784
 H2101 H 1.18468 1.13550 1.06628
 H2102 H 1.21078 1.07005 1.09364
 C2103 C 1.28547 0.63870 0.63664
 C2104 C 1.26610 0.62541 0.62892
 C2105 C 1.26480 0.60055 0.63262
 C2106 C 1.28248 0.58950 0.64455
 C2107 C 1.30084 0.60300 0.65345
 C2108 C 1.30260 0.62776 0.64971
 C2109 C 1.24555 0.58722 0.62492
 C2110 C 1.22695 0.59856 0.61453
 C2111 C 1.22778 0.62356 0.61173
 C2112 C 1.24753 0.63674 0.61845
 C2113 C 1.20871 0.63505 0.60243
 C2114 C 1.18927 0.62188 0.59540
 C2115 C 1.18869 0.59683 0.59689
 C2116 C 1.20750 0.58532 0.60693
 H2117 H 1.28625 0.65776 0.63388
 H2118 H 1.28175 0.57050 0.64764
 H2119 H 1.31381 0.59387 0.66320
 H2120 H 1.24479 0.56811 0.62749
 H2121 H 1.24820 0.65587 0.61603
 H2122 H 1.20881 0.65423 0.60058
 H2123 H 1.17472 0.63138 0.58849
 H2124 H 1.20731 0.56609 0.60828
 C2125 C 0.79919 1.12252 0.62919
 C2126 C 0.77876 1.11061 0.62218
 C2127 C 0.77556 1.08608 0.62664
 C2128 C 0.79238 1.07414 0.63908
 C2129 C 0.81213 1.08637 0.64701
 C2130 C 0.81604 1.11063 0.64189
 C2131 C 0.75553 1.07397 0.61879
 C2132 C 0.73819 1.08635 0.60733
 C2133 C 0.74090 1.11118 0.60411
 C2134 C 0.76129 1.12304 0.61112
 C2135 C 0.72311 1.12388 0.59397
 C2136 C 0.70311 1.11209 0.58642
 C2137 C 0.70068 1.08712 0.58798
 C2138 C 0.71820 1.07440 0.59900
 H2139 H 0.80148 1.14129 0.62541
 H2140 H 0.79015 1.05539 0.64290
 H2141 H 0.82463 1.07654 0.65671
 H2142 H 0.75335 1.05503 0.62179
 H2143 H 0.76344 1.14200 0.60818
 H2144 H 0.72463 1.14301 0.59192
 H2145 H 0.68953 1.12271 0.57916
 H2146 H 0.71662 1.05524 0.60063
 C2147 C 0.80484 0.60776 1.13420
 C2148 C 0.78374 0.60432 1.12277
 C2149 C 0.78319 0.60683 1.09884
 C2150 C 0.80369 0.61333 1.08685
 C2151 C 0.82448 0.61742 1.09847
 C2152 C 0.82525 0.61448 1.12216
 C2153 C 0.76216 0.60290 1.08733
 C2154 C 0.74161 0.59692 1.09952
 C2155 C 0.74210 0.59515 1.12352
 C2156 C 0.76316 0.59869 1.13495
 C2157 C 0.72153 0.58969 1.13574
 C2158 C 0.70077 0.58528 1.12430
 C2159 C 0.70016 0.58601 1.10039
 C2160 C 0.72061 0.59233 1.08809
 H2161 H 0.80526 0.60588 1.15255
 H2162 H 0.80359 0.61547 1.06854
 H2163 H 0.84007 0.62267 1.08891
 H2164 H 0.76181 0.60450 1.06896
 H2165 H 0.76353 0.59705 1.15333
 H2166 H 0.72154 0.58857 1.15415
 H2167 H 0.68514 0.58102 1.13422
 H2168 H 0.72038 0.59289 1.06966
 C2169 C 1.29623 0.88680 0.86939
 C2170 C 1.27504 0.89118 0.88080
 C2171 C 1.27258 0.88618 0.90425
 C2172 C 1.29102 0.87547 0.91555
 C2173 C 1.31176 0.87002 0.90377
 C2174 C 1.31484 0.87613 0.88066
 C2175 C 1.25172 0.89190 0.91590
 C2176 C 1.23301 0.90163 0.90409
 C2177 C 1.23512 0.90506 0.88032
 C2178 C 1.25621 0.90027 0.86893
 C2179 C 1.21609 0.91325 0.86823
 C2180 C 1.19534 0.91881 0.87960
 C2181 C 1.19336 0.91724 0.90350
 C2182 C 1.21227 0.90811 0.91560
 H2183 H 1.29789 0.89113 0.85146
 H2184 H 1.28937 0.87119 0.93347
 H2185 H 1.32563 0.86172 0.91300
 H2186 H 1.25001 0.88867 0.93404
 H2187 H 1.25793 0.90351 0.85078
 H2188 H 1.21723 0.91534 0.84991
 H2189 H 1.18085 0.92451 0.86951
 H2190 H 1.21118 0.90658 0.93395
 C2191 C 1.31770 0.37527 0.37896
 C2192 C 1.29652 0.38520 0.38664
 C2193 C 1.28941 0.40728 0.37796
 C2194 C 1.30281 0.41832 0.36075
 C2195 C 1.32323 0.40780 0.35239
 C2196 C 1.33135 0.38645 0.36173
 C2197 C 1.26892 0.41787 0.38647
 C2198 C 1.25472 0.40605 0.40269
 C2199 C 1.26106 0.38329 0.41025
 C2200 C 1.28218 0.37325 0.40265
 C2201 C 1.24601 0.37077 0.42505
 C2202 C 1.22490 0.38066 0.43238
 C2203 C 1.21867 0.40393 0.42608
 C2204 C 1.23408 0.41649 0.41116
 H2205 H 1.32324 0.35857 0.38611
 H2206 H 1.29745 0.43509 0.35366
 H2207 H 1.33311 0.41700 0.33914
 H2208 H 1.26380 0.43508 0.38014
 H2209 H 1.28724 0.35599 0.40890
 H2210 H 1.25031 0.35304 0.43059
 H2211 H 1.21349 0.36959 0.44278
 H2212 H 1.23036 0.43446 0.40607
 C2213 C 0.78409 0.86655 0.36954
 C2214 C 0.76415 0.87357 0.38186
 C2215 C 0.76315 0.87089 0.40579
 C2216 C 0.78201 0.86069 0.41689
 C2217 C 0.80145 0.85290 0.40435
 C2218 C 0.80263 0.85590 0.38066
 C2219 C 0.74322 0.87810 0.41812
 C2220 C 0.72405 0.88735 0.40673
 C2221 C 0.72489 0.88928 0.38272
 C2222 C 0.74500 0.88266 0.37049
 C2223 C 0.70558 0.89783 0.37124
 C2224 C 0.68580 0.90500 0.38341
 C2225 C 0.68502 0.90415 0.40734
 C2226 C 0.70410 0.89486 0.41891
 H2227 H 0.78478 0.86842 0.35118
 H2228 H 0.78153 0.85834 0.43519
 H2229 H 0.81561 0.84453 0.41312
 H2230 H 0.74255 0.87631 0.43649
 H2231 H 0.74565 0.88439 0.35211
 H2232 H 0.70581 0.89908 0.35283
 H2233 H 0.67109 0.91146 0.37403
 H2234 H 0.70369 0.89409 0.43735
 C2235 C 0.80569 0.37883 0.86477
 C2236 C 0.78515 0.38570 0.87687
 C2237 C 0.78288 0.38102 0.90047
 C2238 C 0.80047 0.36900 0.91147
 C2239 C 0.82006 0.36138 0.89938
 C2240 C 0.82327 0.36613 0.87588
 C2241 C 0.76295 0.38813 0.91285
 C2242 C 0.74462 0.39929 0.90194
 C2243 C 0.74627 0.40322 0.87820
 C2244 C 0.76661 0.39673 0.86586
 C2245 C 0.72749 0.41357 0.86722
 C2246 C 0.70767 0.42057 0.87966
 C2247 C 0.70623 0.41788 0.90353
 C2248 C 0.72473 0.40670 0.91445
 H2249 H 0.80749 0.38251 0.84673
 H2250 H 0.79898 0.36519 0.92951
 H2251 H 0.83304 0.35202 0.90893
 H2252 H 0.76162 0.38475 0.93099
 H2253 H 0.76790 0.40006 0.84772
 H2254 H 0.72814 0.41637 0.84899
 H2255 H 0.69346 0.42835 0.87051
 H2256 H 0.72400 0.40441 0.93275
 C2257 C 0.68205 0.88885 1.11716
 C2258 C 0.70582 0.89515 1.11490
 C2259 C 0.71882 0.90107 1.13445
 C2260 C 0.70763 0.90118 1.15587
 C2261 C 0.68386 0.89534 1.15793
 C2262 C 0.67091 0.88890 1.13866
 C2263 C 0.74275 0.90673 1.13228
 C2264 C 0.75379 0.90688 1.11075
 C2265 C 0.74058 0.90160 1.09118
 C2266 C 0.71676 0.89564 1.09338
 C2267 C 0.75142 0.90228 1.06966
 C2268 C 0.77522 0.90765 1.06750
 C2269 C 0.78885 0.91215 1.08683
 C2270 C 0.77786 0.91204 1.10846
 H2271 H 0.67216 0.88418 1.10217
 H2272 H 0.71726 0.90577 1.17104
 H2273 H 0.67570 0.89546 1.17470
 H2274 H 0.75276 0.91098 1.14732
 H2275 H 0.70676 0.89135 1.07834
 H2276 H 0.74149 0.89860 1.05446
 H2277 H 0.78296 0.90831 1.05056
 H2278 H 0.78809 0.91540 1.12353
 C2279 C 0.69227 0.37533 0.60833
 C2280 C 0.71424 0.38349 0.60022
 C2281 C 0.72161 0.40711 0.60494
 C2282 C 0.70742 0.42185 0.61839
 C2283 C 0.68612 0.41333 0.62722
 C2284 C 0.67803 0.39009 0.62213
 C2285 C 0.74323 0.41556 0.59651
 C2286 C 0.75819 0.40034 0.58435
 C2287 C 0.75134 0.37644 0.58039
 C2288 C 0.72918 0.36828 0.58790
 C2289 C 0.76698 0.36104 0.56936
 C2290 C 0.78931 0.36911 0.56266
 C2291 C 0.79629 0.39303 0.56615
 C2292 C 0.78017 0.40860 0.57662
 H2293 H 0.68666 0.35725 0.60444
 H2294 H 0.71293 0.43994 0.62234
 H2295 H 0.67576 0.42530 0.63766
 H2296 H 0.74869 0.43379 0.59994
 H2297 H 0.72379 0.35000 0.58461
 H2298 H 0.76216 0.34255 0.56641
 H2299 H 0.80120 0.35637 0.55518
 H2300 H 0.78463 0.42724 0.57896
 C2301 C 0.18913 0.89386 0.62546
 C2302 C 0.21059 0.89903 0.61441
 C2303 C 0.22182 0.88126 0.60127
 C2304 C 0.21078 0.85906 0.59834
 C2305 C 0.18902 0.85433 0.60860
 C2306 C 0.17810 0.87141 0.62276
 C2307 C 0.24389 0.88593 0.59131
 C2308 C 0.25457 0.90844 0.59370
 C2309 C 0.24267 0.92663 0.60570
 C2310 C 0.22095 0.92173 0.61626
 C2311 C 0.25276 0.94942 0.60706
 C2312 C 0.27477 0.95401 0.59732
 C2313 C 0.28760 0.93574 0.58658
 C2314 C 0.27704 0.91301 0.58449
 H2315 H 0.18091 0.90750 0.63585
 H2316 H 0.21899 0.84531 0.58809
 H2317 H 0.18117 0.83688 0.60598
 H2318 H 0.25273 0.87207 0.58170
 H2319 H 0.21214 0.93558 0.62590
 H2320 H 0.24366 0.96373 0.61573
 H2321 H 0.28180 0.97196 0.59844
 H2322 H 0.28649 0.89862 0.57635
 C2323 C 0.19744 0.37633 1.10845
 C2324 C 0.21777 0.38845 1.10140
 C2325 C 0.22273 0.41151 1.10990
 C2326 C 0.20755 0.42157 1.12623
 C2327 C 0.18796 0.40866 1.13434
 C2328 C 0.18255 0.38593 1.12538
 C2329 C 0.24306 0.42371 1.10233
 C2330 C 0.25910 0.41241 1.08754
 C2331 C 0.25456 0.38876 1.08033
 C2332 C 0.23367 0.37725 1.08668
 C2333 C 0.27124 0.37665 1.06730
 C2334 C 0.29223 0.38784 1.06119
 C2335 C 0.29665 0.41194 1.06679
 C2336 C 0.27981 0.42409 1.08019
 H2337 H 0.19405 0.35867 1.10156
 H2338 H 0.21114 0.43914 1.13316
 H2339 H 0.17692 0.41663 1.14737
 H2340 H 0.24672 0.44162 1.10846
 H2341 H 0.23012 0.35924 1.08074
 H2342 H 0.26828 0.35827 1.06225
 H2343 H 0.30504 0.37721 1.05221
 H2344 H 0.28259 0.44256 1.08488
 C2345 C 0.70220 1.12436 0.87998
 C2346 C 0.72066 1.11015 0.88674
 C2347 C 0.72189 1.08622 0.87938
 C2348 C 0.70499 1.07730 0.86438
 C2349 C 0.68726 1.09204 0.85665
 C2350 C 0.68546 1.11571 0.86459
 C2351 C 0.74016 1.07186 0.88691
 C2352 C 0.75771 1.08159 0.90086
 C2353 C 0.75693 1.10599 0.90693
 C2354 C 0.73823 1.11990 0.90031
 C2355 C 0.77497 1.11633 0.91944
 C2356 C 0.79335 1.10257 0.92660
 C2357 C 0.79376 1.07785 0.92232
 C2358 C 0.77604 1.06753 0.90885
 H2359 H 0.70160 1.14263 0.88602
 H2360 H 0.70571 1.05907 0.85831
 H2361 H 0.67474 1.08473 0.84477
 H2362 H 0.74088 1.05332 0.88171
 H2363 H 0.73755 1.13847 0.90544
 H2364 H 0.77494 1.13515 0.92363
 H2365 H 0.80729 1.11147 0.93572
 H2366 H 0.77621 1.04864 0.90502
 C2367 C 0.71778 0.62986 0.36635
 C2368 C 0.73635 0.61539 0.37284
 C2369 C 0.73262 0.59060 0.37557
 C2370 C 0.71047 0.58065 0.37140
 C2371 C 0.69235 0.59503 0.36420
 C2372 C 0.69582 0.61967 0.36171
 C2373 C 0.75111 0.57611 0.38214
 C2374 C 0.77342 0.58603 0.38573
 C2375 C 0.77723 0.61075 0.38246
 C2376 C 0.75870 0.62525 0.37616
 C2377 C 0.79948 0.62070 0.38587
 C2378 C 0.81758 0.60654 0.39332
 C2379 C 0.81388 0.58214 0.39743
 C2380 C 0.79188 0.57179 0.39305
 H2381 H 0.72063 0.64881 0.36393
 H2382 H 0.70728 0.56169 0.37326
 H2383 H 0.67556 0.58688 0.36042
 H2384 H 0.74813 0.55716 0.38446
 H2385 H 0.76167 0.64421 0.37385
 H2386 H 0.80277 0.63954 0.38329
 H2387 H 0.83445 0.61481 0.39654
 H2388 H 0.78889 0.55302 0.39635
 C2389 C 0.23296 1.15805 0.35714
 C2390 C 0.25197 1.14675 0.36710
 C2391 C 0.26762 1.13353 0.35327
 C2392 C 0.26379 1.13135 0.32992
 C2393 C 0.24425 1.14151 0.32036
 C2394 C 0.22851 1.15495 0.33376
 C2395 C 0.28651 1.12209 0.36304
 C2396 C 0.28940 1.12270 0.38665
 C2397 C 0.27344 1.13530 0.40065
 C2398 C 0.25509 1.14767 0.39075
 C2399 C 0.27594 1.13497 0.42433
 C2400 C 0.29400 1.12222 0.43403
 C2401 C 0.31025 1.10994 0.42023
 C2402 C 0.30783 1.11051 0.39645
 H2403 H 0.22095 1.16803 0.36787
 H2404 H 0.27558 1.12120 0.31911
 H2405 H 0.24163 1.13890 0.30229
 H2406 H 0.29858 1.11213 0.35233
 H2407 H 0.24291 1.15745 0.40149
 H2408 H 0.26375 1.14431 0.43538
 H2409 H 0.29509 1.12185 0.45239
 H2410 H 0.32040 1.10165 0.38545
 C2411 C 0.20713 0.62103 0.86579
 C2412 C 0.22803 0.61823 0.87763
 C2413 C 0.24191 0.63846 0.88317
 C2414 C 0.23436 0.66117 0.87726
 C2415 C 0.21320 0.66384 0.86613
 C2416 C 0.19953 0.64383 0.86018
 C2417 C 0.26304 0.63567 0.89459
 C2418 C 0.27035 0.61293 0.90081
 C2419 C 0.25605 0.59282 0.89587
 C2420 C 0.23509 0.59558 0.88425
 C2421 C 0.26316 0.57015 0.90230
 C2422 C 0.28467 0.56725 0.91261
 C2423 C 0.29954 0.58692 0.91672
 C2424 C 0.29198 0.60986 0.91136
 H2425 H 0.19641 0.60558 0.86160
 H2426 H 0.24467 0.67688 0.88147
 H2427 H 0.20752 0.68158 0.86204
 H2428 H 0.27383 0.65116 0.89852
 H2429 H 0.22433 0.58008 0.88025
 H2430 H 0.25233 0.55458 0.89887
 H2431 H 0.29002 0.54944 0.91687
 H2432 H 0.30340 0.62511 0.91436
 C2433 C 1.12357 1.29620 1.12888
 C2434 C 1.11624 1.27605 1.11660
 C2435 C 1.11728 1.27617 1.09253
 C2436 C 1.12638 1.29624 1.08119
 C2437 C 1.13408 1.31609 1.09359
 C2438 C 1.13244 1.31634 1.11748
 C2439 C 1.10908 1.25631 1.08023
 C2440 C 1.10006 1.23629 1.09175
 C2441 C 1.09981 1.23598 1.11584
 C2442 C 1.10780 1.25586 1.12808
 C2443 C 1.09130 1.21587 1.12738
 C2444 C 1.08241 1.19648 1.11524
 C2445 C 1.08157 1.19689 1.09132
 C2446 C 1.09093 1.21670 1.07962
 H2447 H 1.12256 1.29614 1.14733
 H2448 H 1.12746 1.29662 1.06277
 H2449 H 1.14088 1.33147 1.08446
 H2450 H 1.10953 1.25653 1.06177
 H2451 H 1.10726 1.25568 1.14655
 H2452 H 1.09130 1.21521 1.14581
 H2453 H 1.07599 1.18114 1.12466
 H2454 H 1.09044 1.21719 1.06120
 C2455 C 1.12279 0.79760 0.62690
 C2456 C 1.11024 0.77675 0.62149
 C2457 C 1.08551 0.77681 0.62175
 C2458 C 1.07378 0.79758 0.62822
 C2459 C 1.08643 0.81810 0.63420
 C2460 C 1.11098 0.81834 0.63329
 C2461 C 1.07297 0.75619 0.61542
 C2462 C 1.08488 0.73545 0.60907
 C2463 C 1.10960 0.73524 0.60974
 C2464 C 1.12209 0.75586 0.61585
 C2465 C 1.12154 0.71450 0.60383
 C2466 C 1.10924 0.69448 0.59626
 C2467 C 1.08478 0.69481 0.59432
 C2468 C 1.07258 0.71512 0.60145
 H2469 H 1.14175 0.79761 0.62654
 H2470 H 1.05485 0.79795 0.62868
 H2471 H 1.07703 0.83395 0.63917
 H2472 H 1.05403 0.75636 0.61518
 H2473 H 1.14105 0.75574 0.61596
 H2474 H 1.14043 0.71393 0.60456
 H2475 H 1.11895 0.67881 0.59133
 H2476 H 1.05372 0.71547 0.60005
 C2477 C 0.62805 1.31230 0.61620
 C2478 C 0.61774 1.29018 0.61082
 C2479 C 0.59310 1.28751 0.61133
 C2480 C 0.57921 1.30696 0.61732
 C2481 C 0.58961 1.32872 0.62319
 C2482 C 0.61406 1.33156 0.62275
 C2483 C 0.58274 1.26540 0.60613
 C2484 C 0.59670 1.24581 0.60069
 C2485 C 0.62135 1.24842 0.60043
 C2486 C 0.63170 1.27059 0.60539
 C2487 C 0.63525 1.22879 0.59512
 C2488 C 0.62488 1.20690 0.58965
 C2489 C 0.60041 1.20422 0.58939
 C2490 C 0.58641 1.22370 0.59525
 H2491 H 0.64693 1.31428 0.61612
 H2492 H 0.56032 1.30524 0.61783
 H2493 H 0.57851 1.34337 0.62818
 H2494 H 0.56385 1.26341 0.60642
 H2495 H 0.65059 1.27257 0.60513
 H2496 H 0.65415 1.23041 0.59499
 H2497 H 0.63602 1.19203 0.58547
 H2498 H 0.56753 1.22184 0.59490
 C2499 C 0.61716 0.82004 1.11268
 C2500 C 0.60705 0.79823 1.10625
 C2501 C 0.58298 0.79682 1.10123
 C2502 C 0.56949 0.81745 1.10266
 C2503 C 0.57951 0.83890 1.11021
 C2504 C 0.60332 0.84023 1.11551
 C2505 C 0.57270 0.77471 1.09572
 C2506 C 0.58608 0.75396 1.09583
 C2507 C 0.61010 0.75551 1.10116
 C2508 C 0.62046 0.77763 1.10603
 C2509 C 0.62346 0.73489 1.10157
 C2510 C 0.61334 0.71293 1.09617
 C2511 C 0.58969 0.71119 1.09026
 C2512 C 0.57596 0.73169 1.09053
 H2513 H 0.63541 0.82080 1.11736
 H2514 H 0.55101 0.81673 1.09899
 H2515 H 0.56852 0.85427 1.11266
 H2516 H 0.55426 0.77358 1.09180
 H2517 H 0.63886 0.77873 1.11013
 H2518 H 0.64182 0.73577 1.10577
 H2519 H 0.62413 0.69726 1.09611
 H2520 H 0.55776 0.73039 1.08580
 C2521 C 0.87394 1.29601 0.89077
 C2522 C 0.88378 1.27545 0.89956
 C2523 C 0.90800 1.27155 0.89663
 C2524 C 0.92189 1.28830 0.88474
 C2525 C 0.91175 1.30840 0.87534
 C2526 C 0.88771 1.31236 0.87826
 C2527 C 0.91773 1.25066 0.90503
 C2528 C 0.90336 1.23327 0.91548
 C2529 C 0.87910 1.23711 0.91805
 C2530 C 0.86955 1.25836 0.91049
 C2531 C 0.86464 1.21937 0.92763
 C2532 C 0.87400 1.19776 0.93419
 C2533 C 0.89814 1.19365 0.93188
 C2534 C 0.91275 1.21178 0.92282
 H2535 H 0.85529 1.29871 0.89281
 H2536 H 0.94046 1.28557 0.88225
 H2537 H 0.92265 1.32080 0.86572
 H2538 H 0.93631 1.24762 0.90281
 H2539 H 0.85092 1.26129 0.91248
 H2540 H 0.84598 1.22197 0.92951
 H2541 H 0.86215 1.18407 0.94057
 H2542 H 0.93143 1.20916 0.92124
 C2543 C 0.87777 0.78444 0.36579
 C2544 C 0.88418 0.76223 0.37445
 C2545 C 0.86665 0.74507 0.38007
 C2546 C 0.84311 0.75030 0.37682
 C2547 C 0.83689 0.77262 0.36893
 C2548 C 0.85408 0.78989 0.36356
 C2549 C 0.87283 0.72321 0.38942
 C2550 C 0.89629 0.71838 0.39369
 C2551 C 0.91384 0.73549 0.38811
 C2552 C 0.90770 0.75722 0.37836
 C2553 C 0.93726 0.73062 0.39251
 C2554 C 0.94326 0.70897 0.40219
 C2555 C 0.92598 0.69177 0.40768
 C2556 C 0.90246 0.69669 0.40349
 H2557 H 0.89104 0.79790 0.36201
 H2558 H 0.82947 0.73739 0.38103
 H2559 H 0.81852 0.77661 0.36736
 H2560 H 0.85935 0.71013 0.39374
 H2561 H 0.92117 0.77036 0.37419
 H2562 H 0.95095 0.74353 0.38844
 H2563 H 0.96149 0.70565 0.40544
 H2564 H 0.88904 0.68343 0.40741
 C2565 C 0.38390 1.31430 0.38227
 C2566 C 0.39532 1.29455 0.39115
 C2567 C 0.42004 1.29432 0.39156
 C2568 C 0.43291 1.31389 0.38319
 C2569 C 0.42144 1.33312 0.37376
 C2570 C 0.39692 1.33339 0.37302
 C2571 C 0.43152 1.27432 0.39979
 C2572 C 0.41862 1.25432 0.40720
 C2573 C 0.39390 1.25455 0.40670
 C2574 C 0.38242 1.27470 0.39888
 C2575 C 0.38102 1.23450 0.41388
 C2576 C 0.39245 1.21448 0.42165
 C2577 C 0.41700 1.21410 0.42252
 C2578 C 0.43002 1.23405 0.41505
 H2579 H 0.36498 1.31424 0.38144
 H2580 H 0.45184 1.31405 0.38336
 H2581 H 0.43178 1.34769 0.36669
 H2582 H 0.45047 1.27418 0.40007
 H2583 H 0.36347 1.27478 0.39846
 H2584 H 0.36209 1.23429 0.41347
 H2585 H 0.38205 1.19917 0.42698
 H2586 H 0.44894 1.23395 0.41577
 C2587 C 0.37573 0.81027 0.87846
 C2588 C 0.38908 0.79078 0.88461
 C2589 C 0.41364 0.79319 0.88600
 C2590 C 0.42445 0.81503 0.88022
 C2591 C 0.41097 0.83424 0.87331
 C2592 C 0.38653 0.83202 0.87280
 C2593 C 0.42684 0.77376 0.89313
 C2594 C 0.41571 0.75193 0.89846
 C2595 C 0.39121 0.74949 0.89598
 C2596 C 0.37810 0.76891 0.88926
 C2597 C 0.38004 0.72772 0.90060
 C2598 C 0.39274 0.70874 0.90861
 C2599 C 0.41685 0.71116 0.91246
 C2600 C 0.42845 0.73262 0.90669
 H2601 H 0.35687 0.80839 0.87754
 H2602 H 0.44327 0.81720 0.88093
 H2603 H 0.41954 0.85089 0.86872
 H2604 H 0.44563 0.77566 0.89467
 H2605 H 0.35928 0.76705 0.88779
 H2606 H 0.36136 0.72548 0.89840
 H2607 H 0.38355 0.69217 0.91231
 H2608 H 0.44706 0.73459 0.90945
 C2609 C 1.13769 0.70846 0.86490
 C2610 C 1.12422 0.72718 0.87344
 C2611 C 1.09956 0.72546 0.87309
 C2612 C 1.08885 0.70522 0.86345
 C2613 C 1.10247 0.68673 0.85461
 C2614 C 1.12697 0.68807 0.85562
 C2615 C 1.08611 0.74390 0.88252
 C2616 C 1.09710 0.76408 0.89203
 C2617 C 1.12179 0.76597 0.89162
 C2618 C 1.13516 0.74751 0.88244
 C2619 C 1.13282 0.78627 0.90055
 C2620 C 1.11959 0.80438 0.91030
 C2621 C 1.09506 0.80245 0.91166
 C2622 C 1.08388 0.78232 0.90214
 H2623 H 1.15660 0.70981 0.86543
 H2624 H 1.06997 0.70362 0.86287
 H2625 H 1.09386 0.67114 0.84749
 H2626 H 1.06719 0.74248 0.88257
 H2627 H 1.15410 0.74888 0.88246
 H2628 H 1.15170 0.78813 0.90006
 H2629 H 1.12867 0.82000 0.91678
 H2630 H 1.06500 0.78059 0.90306
 C2631 C 1.16015 0.21229 0.35879
 C2632 C 1.14726 0.23152 0.36761
 C2633 C 1.13684 0.24760 0.35252
 C2634 C 1.13888 0.24390 0.32901
 C2635 C 1.15114 0.22448 0.32043
 C2636 C 1.16201 0.20863 0.33515
 C2637 C 1.12448 0.26712 0.36109
 C2638 C 1.12189 0.27060 0.38462
 C2639 C 1.13162 0.25420 0.39978
 C2640 C 1.14444 0.23487 0.39120
 C2641 C 1.12841 0.25751 0.42329
 C2642 C 1.11602 0.27705 0.43168
 C2643 C 1.10684 0.29390 0.41675
 C2644 C 1.10980 0.29036 0.39316
 H2645 H 1.16831 0.19999 0.37023
 H2646 H 1.13092 0.25597 0.31722
 H2647 H 1.15245 0.22208 0.30215
 H2648 H 1.11678 0.27956 0.34945
 H2649 H 1.15213 0.22244 0.40285
 H2650 H 1.13550 0.24500 0.43520
 H2651 H 1.11365 0.27896 0.44991
 H2652 H 1.10321 0.30329 0.38137
 C2653 C 0.62123 0.69683 0.36347
 C2654 C 0.61421 0.71782 0.37487
 C2655 C 0.63103 0.73223 0.38603
 C2656 C 0.65440 0.72513 0.38611
 C2657 C 0.66109 0.70396 0.37535
 C2658 C 0.64471 0.68967 0.36380
 C2659 C 0.62423 0.75339 0.39708
 C2660 C 0.60067 0.76014 0.39764
 C2661 C 0.58377 0.74537 0.38707
 C2662 C 0.59064 0.72449 0.37556
 C2663 C 0.56020 0.75171 0.38824
 C2664 C 0.55341 0.77260 0.39943
 C2665 C 0.57003 0.78802 0.40944
 C2666 C 0.59375 0.78141 0.40858
 H2667 H 0.60839 0.68580 0.35485
 H2668 H 0.66752 0.73586 0.39467
 H2669 H 0.67926 0.69889 0.37582
 H2670 H 0.63724 0.76451 0.40538
 H2671 H 0.57762 0.71335 0.36730
 H2672 H 0.54693 0.74045 0.38053
 H2673 H 0.53497 0.77660 0.40028
 H2674 H 0.60693 0.79300 0.41597
 C2675 C 0.63637 0.21033 0.86099
 C2676 C 0.63051 0.23100 0.87324
 C2677 C 0.63166 0.23123 0.89727
 C2678 C 0.63961 0.21107 0.90855
 C2679 C 0.64586 0.19072 0.89619
 C2680 C 0.64387 0.19001 0.87238
 C2681 C 0.62456 0.25145 0.90962
 C2682 C 0.61661 0.27156 0.89820
 C2683 C 0.61648 0.27162 0.87412
 C2684 C 0.62330 0.25134 0.86182
 C2685 C 0.60920 0.29187 0.86268
 C2686 C 0.60131 0.31160 0.87490
 C2687 C 0.60014 0.31144 0.89886
 C2688 C 0.60838 0.29146 0.91043
 H2689 H 0.63506 0.21003 0.84260
 H2690 H 0.64078 0.21095 0.92694
 H2691 H 0.65158 0.17525 0.90534
 H2692 H 0.62499 0.25143 0.92807
 H2693 H 0.62274 0.25130 0.84337
 H2694 H 0.60936 0.29237 0.84424
 H2695 H 0.59588 0.32701 0.86549
 H2696 H 0.60765 0.29104 0.92887
 C2697 C 0.88159 0.68566 1.12935
 C2698 C 0.89328 0.70709 1.12445
 C2699 C 0.91798 0.70792 1.12326
 C2700 C 0.93052 0.68727 1.12800
 C2701 C 0.91863 0.66601 1.13356
 C2702 C 0.89411 0.66505 1.13381
 C2703 C 0.92956 0.72930 1.11725
 C2704 C 0.91666 0.74979 1.11271
 C2705 C 0.89198 0.74894 1.11493
 C2706 C 0.88050 0.72764 1.12069
 C2707 C 0.87901 0.76932 1.11092
 C2708 C 0.89021 0.79015 1.10372
 C2709 C 0.91457 0.79101 1.10021
 C2710 C 0.92786 0.77096 1.10540
 H2711 H 0.86263 0.68509 1.13006
 H2712 H 0.94946 0.68756 1.12742
 H2713 H 0.92852 0.65025 1.13721
 H2714 H 0.94849 0.72991 1.11586
 H2715 H 0.86156 0.72698 1.12196
 H2716 H 0.86014 0.76902 1.11290
 H2717 H 0.87969 0.80557 1.10038
 H2718 H 0.94666 0.77152 1.10282
 C2719 C 0.87336 0.18479 0.61831
 C2720 C 0.88287 0.20702 0.61191
 C2721 C 0.88643 0.22493 0.62865
 C2722 C 0.88048 0.22034 0.65142
 C2723 C 0.87178 0.19799 0.65772
 C2724 C 0.86828 0.18012 0.64129
 C2725 C 0.89638 0.24694 0.62249
 C2726 C 0.90325 0.25122 0.59988
 C2727 C 0.89988 0.23333 0.58314
 C2728 C 0.88956 0.21140 0.58922
 C2729 C 0.90694 0.23770 0.56057
 C2730 C 0.91693 0.25967 0.55460
 C2731 C 0.92008 0.27766 0.57108
 C2732 C 0.91337 0.27320 0.59376
 H2733 H 0.87104 0.17079 0.60572
 H2734 H 0.88316 0.23381 0.66446
 H2735 H 0.86805 0.19449 0.67554
 H2736 H 0.89905 0.26062 0.63535
 H2737 H 0.88700 0.19768 0.57638
 H2738 H 0.90460 0.22419 0.54752
 H2739 H 0.92213 0.26268 0.53703
 H2740 H 0.91543 0.28707 0.60652
 C2741 C 0.35128 0.70639 0.63398
 C2742 C 0.36100 0.72836 0.62691
 C2743 C 0.36971 0.74464 0.64331
 C2744 C 0.36852 0.73877 0.66642
 C2745 C 0.35938 0.71675 0.67324
 C2746 C 0.35085 0.70028 0.65715
 C2747 C 0.37988 0.76634 0.63637
 C2748 C 0.38185 0.77189 0.61320
 C2749 C 0.37319 0.75566 0.59676
 C2750 C 0.36268 0.73408 0.60371
 C2751 C 0.37535 0.76125 0.57360
 C2752 C 0.38595 0.78268 0.56678
 C2753 C 0.39456 0.79901 0.58297
 C2754 C 0.39244 0.79342 0.60621
 H2755 H 0.34496 0.69371 0.62144
 H2756 H 0.37508 0.75103 0.67921
 H2757 H 0.35912 0.71250 0.69120
 H2758 H 0.38656 0.77875 0.64900
 H2759 H 0.35612 0.72162 0.59107
 H2760 H 0.36892 0.74900 0.56074
 H2761 H 0.38761 0.78640 0.54876
 H2762 H 0.39873 0.80598 0.61888
 C2763 C 0.36087 0.20155 1.12193
 C2764 C 0.37138 0.22295 1.11407
 C2765 C 0.38241 0.23855 1.12969
 C2766 C 0.38312 0.23235 1.15273
 C2767 C 0.37310 0.21091 1.16030
 C2768 C 0.36175 0.19529 1.14512
 C2769 C 0.39267 0.26004 1.12207
 C2770 C 0.39250 0.26604 1.09889
 C2771 C 0.38191 0.25026 1.08318
 C2772 C 0.37126 0.22894 1.09087
 C2773 C 0.38225 0.25605 1.06000
 C2774 C 0.39288 0.27724 1.05242
 C2775 C 0.40321 0.29341 1.06784
 C2776 C 0.40285 0.28753 1.09118
 H2777 H 0.35238 0.18961 1.10997
 H2778 H 0.39156 0.24405 1.16493
 H2779 H 0.37400 0.20670 1.17822
 H2780 H 0.40096 0.27201 1.13416
 H2781 H 0.36302 0.21695 1.07877
 H2782 H 0.37441 0.24408 1.04766
 H2783 H 0.39323 0.28078 1.03433
 H2784 H 0.41032 0.29977 1.10348
 C2785 C 1.11121 1.11919 0.70446
 C2786 C 1.10292 1.10804 0.72426
 C2787 C 1.10421 1.08304 0.72626
 C2788 C 1.11421 1.06968 0.70843
 C2789 C 1.12283 1.08103 0.68882
 C2790 C 1.12123 1.10584 0.68664
 C2791 C 1.09560 1.07190 0.74606
 C2792 C 1.08615 1.08555 0.76398
 C2793 C 1.08534 1.11061 0.76203
 C2794 C 1.09354 1.12166 0.74214
 C2795 C 1.07646 1.12429 0.78008
 C2796 C 1.06835 1.11330 0.79994
 C2797 C 1.06861 1.08837 0.80200
 C2798 C 1.07760 1.07459 0.78388
 H2799 H 1.11016 1.13838 0.70310
 H2800 H 1.11545 1.05051 0.70968
 H2801 H 1.13047 1.07039 0.67526
 H2802 H 1.09642 1.05270 0.74759
 H2803 H 1.09276 1.14087 0.74062
 H2804 H 1.07596 1.14353 0.77894
 H2805 H 1.06212 1.12442 0.81382
 H2806 H 1.07775 1.05536 0.78516
 C2807 C 1.12905 0.60225 0.20163
 C2808 C 1.11899 0.59490 0.22243
 C2809 C 1.09549 0.60049 0.22780
 C2810 C 1.08272 0.61407 0.21268
 C2811 C 1.09346 0.62304 0.19301
 C2812 C 1.11674 0.61731 0.18725
 C2813 C 1.08548 0.59344 0.24867
 C2814 C 1.09921 0.58262 0.26503
 C2815 C 1.12303 0.57818 0.26012
 C2816 C 1.13253 0.58349 0.23857
 C2817 C 1.13718 0.56928 0.27711
 C2818 C 1.12790 0.56488 0.29879
 C2819 C 1.10391 0.56808 0.30372
 C2820 C 1.08968 0.57692 0.28651
 H2821 H 1.14713 0.59807 0.19772
 H2822 H 1.06477 0.61868 0.21659
 H2823 H 1.08339 0.63439 0.18216
 H2824 H 1.06737 0.59746 0.25261
 H2825 H 1.15076 0.57983 0.23478
 H2826 H 1.15561 0.56631 0.27383
 H2827 H 1.13978 0.55916 0.31170
 H2828 H 1.07118 0.57941 0.28967
 C2829 C 0.63419 1.13274 0.21417
 C2830 C 0.62215 1.12748 0.23449
 C2831 C 0.59974 1.13689 0.23869
 C2832 C 0.59049 1.15276 0.22295
 C2833 C 0.60306 1.15869 0.20299
 C2834 C 0.62477 1.14816 0.19800
 C2835 C 0.58707 1.13015 0.25846
 C2836 C 0.59698 1.11476 0.27434
 C2837 C 0.62004 1.10674 0.27060
 C2838 C 0.63230 1.11284 0.25062
 C2839 C 0.63056 1.09263 0.28687
 C2840 C 0.61821 1.08580 0.30642
 C2841 C 0.59466 1.09211 0.30988
 C2842 C 0.58429 1.10709 0.29381
 H2843 H 0.65117 1.12489 0.21114
 H2844 H 0.57348 1.16048 0.22600
 H2845 H 0.59531 1.17076 0.19109
 H2846 H 0.56961 1.13684 0.26146
 H2847 H 0.64976 1.10611 0.24760
 H2848 H 0.64845 1.08689 0.28451
 H2849 H 0.62731 1.07546 0.31884
 H2850 H 0.56628 1.11238 0.29609
 C2851 C 0.63350 0.63639 0.70658
 C2852 C 0.62909 0.62753 0.72865
 C2853 C 0.64800 0.62156 0.74260
 C2854 C 0.67093 0.62424 0.73417
 C2855 C 0.67514 0.63256 0.71211
 C2856 C 0.65656 0.63878 0.69808
 C2857 C 0.64372 0.61294 0.76472
 C2858 C 0.62072 0.60991 0.77304
 C2859 C 0.60182 0.61545 0.75891
 C2860 C 0.60610 0.62432 0.73690
 C2861 C 0.57887 0.61216 0.76709
 C2862 C 0.57463 0.60396 0.78917
 C2863 C 0.59321 0.59900 0.80371
 C2864 C 0.61630 0.60166 0.79533
 H2865 H 0.61901 0.64089 0.69586
 H2866 H 0.68564 0.61973 0.74458
 H2867 H 0.69307 0.63430 0.70604
 H2868 H 0.65827 0.60858 0.77542
 H2869 H 0.59155 0.62870 0.72620
 H2870 H 0.56416 0.61608 0.75644
 H2871 H 0.55667 0.60159 0.79495
 H2872 H 0.63079 0.59800 0.80634
 C2873 C 0.86887 0.86042 0.70953
 C2874 C 0.87352 0.87038 0.73102
 C2875 C 0.85501 0.87935 0.74464
 C2876 C 0.83223 0.87889 0.73611
 C2877 C 0.82780 0.86932 0.71448
 C2878 C 0.84599 0.85967 0.70112
 C2879 C 0.85958 0.88850 0.76653
 C2880 C 0.88252 0.88912 0.77481
 C2881 C 0.90104 0.88084 0.76075
 C2882 C 0.89643 0.87142 0.73908
 C2883 C 0.92397 0.88201 0.76860
 C2884 C 0.92859 0.89076 0.79036
 C2885 C 0.91038 0.89822 0.80506
 C2886 C 0.88729 0.89766 0.79693
 H2887 H 0.88312 0.85331 0.69929
 H2888 H 0.81780 0.88581 0.74621
 H2889 H 0.81003 0.86896 0.70843
 H2890 H 0.84532 0.89506 0.77711
 H2891 H 0.91068 0.86480 0.72852
 H2892 H 0.93841 0.87609 0.75791
 H2893 H 0.94661 0.89170 0.79564
 H2894 H 0.87299 0.90330 0.80793
 C2895 C 0.88268 0.36533 0.20258
 C2896 C 0.89141 0.37642 0.22211
 C2897 C 0.88313 0.39896 0.22883
 C2898 C 0.86551 0.40959 0.21618
 C2899 C 0.85604 0.39784 0.19721
 C2900 C 0.86467 0.37564 0.19000
 C2901 C 0.89230 0.41016 0.24830
 C2902 C 0.90870 0.39844 0.26168
 C2903 C 0.91606 0.37542 0.25534
 C2904 C 0.90785 0.36483 0.23533
 C2905 C 0.93113 0.36307 0.26937
 C2906 C 0.93869 0.37322 0.28973
 C2907 C 0.93223 0.39646 0.29617
 C2908 C 0.91742 0.40907 0.28160
 H2909 H 0.88946 0.34805 0.19780
 H2910 H 0.85876 0.42679 0.22119
 H2911 H 0.84223 0.40633 0.18804
 H2912 H 0.88620 0.42762 0.25338
 H2913 H 0.91379 0.34726 0.23037
 H2914 H 0.93657 0.34522 0.26491
 H2915 H 0.94922 0.36240 0.30056
 H2916 H 0.91245 0.42714 0.28563
 C2917 C 0.36595 0.88733 0.20997
 C2918 C 0.37794 0.89289 0.22993
 C2919 C 0.40207 0.88825 0.23130
 C2920 C 0.41364 0.87759 0.21265
 C2921 C 0.40137 0.87153 0.19295
 C2922 C 0.37746 0.87653 0.19140
 C2923 C 0.41409 0.89421 0.25129
 C2924 C 0.40211 0.90438 0.26999
 C2925 C 0.37781 0.90837 0.26861
 C2926 C 0.36597 0.90277 0.24860
 C2927 C 0.36565 0.91799 0.28727
 C2928 C 0.37744 0.92418 0.30701
 C2929 C 0.40172 0.92118 0.30849
 C2930 C 0.41394 0.91084 0.28998
 H2931 H 0.34740 0.89085 0.20915
 H2932 H 0.43211 0.87375 0.21339
 H2933 H 0.41057 0.86309 0.17888
 H2934 H 0.43266 0.89089 0.25231
 H2935 H 0.34738 0.90606 0.24758
 H2936 H 0.34699 0.92084 0.28657
 H2937 H 0.36747 0.93146 0.32119
 H2938 H 0.43265 0.90839 0.29092
 C2939 C 0.38656 0.39967 0.70039
 C2940 C 0.40041 0.40513 0.71934
 C2941 C 0.41394 0.38719 0.72923
 C2942 C 0.41506 0.36477 0.71890
 C2943 C 0.40225 0.35981 0.69945
 C2944 C 0.38710 0.37682 0.69041
 C2945 C 0.42588 0.39182 0.74946
 C2946 C 0.42519 0.41447 0.75953
 C2947 C 0.41346 0.43299 0.74849
 C2948 C 0.40082 0.42815 0.72869
 C2949 C 0.41415 0.45598 0.75773
 C2950 C 0.42499 0.46025 0.77845
 C2951 C 0.43458 0.44148 0.79090
 C2952 C 0.43544 0.41873 0.78078
 H2953 H 0.37557 0.41326 0.69338
 H2954 H 0.42570 0.35094 0.72597
 H2955 H 0.40339 0.34205 0.69225
 H2956 H 0.43545 0.37773 0.75749
 H2957 H 0.39110 0.44219 0.72076
 H2958 H 0.40592 0.47058 0.74916
 H2959 H 0.42510 0.47827 0.78511
 H2960 H 0.44292 0.40405 0.78985
 C2961 C 1.12662 0.88272 1.29900
 C2962 C 1.11521 0.88762 1.27865
 C2963 C 1.10302 0.86922 1.26715
 C2964 C 1.10107 0.84664 1.27704
 C2965 C 1.11181 0.84207 1.29771
 C2966 C 1.12543 0.85978 1.30859
 C2967 C 1.09320 0.87364 1.24587
 C2968 C 1.09483 0.89647 1.23630
 C2969 C 1.10565 0.91519 1.24861
 C2970 C 1.11603 0.91061 1.26953
 C2971 C 1.10609 0.93822 1.23972
 C2972 C 1.09667 0.94258 1.21846
 C2973 C 1.08728 0.92388 1.20515
 C2974 C 1.08607 0.90083 1.21452
 H2975 H 1.13648 0.89686 1.30729
 H2976 H 1.09146 0.83241 1.26865
 H2977 H 1.11025 0.82426 1.30457
 H2978 H 1.08444 0.85934 1.23673
 H2979 H 1.12490 0.92489 1.27862
 H2980 H 1.11378 0.95290 1.24919
 H2981 H 1.09692 0.96074 1.21246
 H2982 H 1.07897 0.88609 1.20474
 C2983 C 1.11552 0.37358 0.79755
 C2984 C 1.11000 0.38390 0.77668
 C2985 C 1.12791 0.39443 0.76306
 C2986 C 1.15088 0.39527 0.77098
 C2987 C 1.15620 0.38510 0.79187
 C2988 C 1.13870 0.37374 0.80513
 C2989 C 1.12264 0.40357 0.74161
 C2990 C 1.09965 0.40240 0.73366
 C2991 C 1.08164 0.39262 0.74766
 C2992 C 1.08691 0.38340 0.76905
 C2993 C 1.05864 0.39189 0.73989
 C2994 C 1.05357 0.40023 0.71824
 C2995 C 1.07142 0.40923 0.70375
 C2996 C 1.09446 0.41051 0.71179
 H2997 H 1.10180 0.36509 0.80772
 H2998 H 1.16480 0.40342 0.76085
 H2999 H 1.17420 0.38547 0.79727
 H3000 H 1.13645 0.41128 0.73100
 H3001 H 1.07313 0.37553 0.77959
 H3002 H 1.04457 0.38473 0.75050
 H3003 H 1.03559 0.39959 0.71282
 H3004 H 1.10848 0.41718 0.70084
 C3005 C 0.60647 0.89075 0.79939
 C3006 C 0.60214 0.89830 0.77713
 C3007 C 0.62081 0.90718 0.76335
 C3008 C 0.64325 0.90926 0.77232
 C3009 C 0.64729 0.90225 0.79461
 C3010 C 0.62908 0.89261 0.80821
 C3011 C 0.61680 0.91373 0.74080
 C3012 C 0.59426 0.91205 0.73194
 C3013 C 0.57542 0.90411 0.74597
 C3014 C 0.57950 0.89705 0.76840
 C3015 C 0.55279 0.90330 0.73729
 C3016 C 0.54890 0.90991 0.71483
 C3017 C 0.56762 0.91697 0.70036
 C3018 C 0.59030 0.91812 0.70922
 H3019 H 0.59229 0.88354 0.80986
 H3020 H 0.65771 0.91617 0.76206
 H3021 H 0.66490 0.90374 0.80101
 H3022 H 0.63123 0.92014 0.73015
 H3023 H 0.56509 0.89057 0.77902
 H3024 H 0.53808 0.89761 0.74789
 H3025 H 0.53112 0.90953 0.70885
 H3026 H 0.60501 0.92325 0.69838
 C3027 C 0.60989 0.37674 1.28900
 C3028 C 0.60359 0.38691 1.26817
 C3029 C 0.61972 0.40193 1.25642
 C3030 C 0.64120 0.40765 1.26612
 C3031 C 0.64698 0.39828 1.28710
 C3032 C 0.63175 0.38223 1.29864
 C3033 C 0.61421 0.41108 1.23512
 C3034 C 0.59236 0.40623 1.22568
 C3035 C 0.57564 0.39237 1.23787
 C3036 C 0.58148 0.38243 1.25889
 C3037 C 0.55338 0.38877 1.22880
 C3038 C 0.54787 0.39852 1.20776
 C3039 C 0.56475 0.41146 1.19490
 C3040 C 0.58704 0.41514 1.20419
 H3041 H 0.59769 0.36480 1.29770
 H3042 H 0.65361 0.41939 1.25746
 H3043 H 0.66392 0.40311 1.29381
 H3044 H 0.62687 0.42216 1.22597
 H3045 H 0.56882 0.37135 1.26802
 H3046 H 0.54014 0.37856 1.23807
 H3047 H 0.53028 0.39590 1.20167
 H3048 H 0.60059 0.42456 1.19464
 C3049 C 0.85505 1.14794 1.27993
 C3050 C 0.86405 1.13161 1.26381
 C3051 C 0.84858 1.11660 1.25156
 C3052 C 0.82461 1.11730 1.25624
 C3053 C 0.81591 1.13267 1.27286
 C3054 C 0.83084 1.14844 1.28481
 C3055 C 0.85721 1.10104 1.23481
 C3056 C 0.88126 1.09971 1.23046
 C3057 C 0.89692 1.11372 1.24346
 C3058 C 0.88824 1.12979 1.25987
 C3059 C 0.92102 1.11164 1.23954
 C3060 C 0.92942 1.09673 1.22221
 C3061 C 0.91391 1.08387 1.20818
 C3062 C 0.88981 1.08497 1.21291
 H3063 H 0.86693 1.15958 1.28911
 H3064 H 0.81254 1.10580 1.24713
 H3065 H 0.79718 1.13247 1.27591
 H3066 H 0.84518 1.09000 1.22512
 H3067 H 0.90026 1.14088 1.26949
 H3068 H 0.93336 1.12187 1.24958
 H3069 H 0.94813 1.09578 1.21937
 H3070 H 0.87758 1.07535 1.20223
 C3071 C 0.88141 0.59700 0.79583
 C3072 C 0.89074 0.58956 0.77485
 C3073 C 0.91514 0.59116 0.77072
 C3074 C 0.92978 0.60014 0.78773
 C3075 C 0.92024 0.60822 0.80836
 C3076 C 0.89600 0.60689 0.81247
 C3077 C 0.92440 0.58443 0.74944
 C3078 C 0.90949 0.57683 0.73208
 C3079 C 0.88508 0.57537 0.73622
 C3080 C 0.87590 0.58142 0.75768
 C3081 C 0.87019 0.56828 0.71869
 C3082 C 0.87935 0.56290 0.69715
 C3083 C 0.90358 0.56422 0.69284
 C3084 C 0.91857 0.57106 0.71048
 H3085 H 0.86265 0.59622 0.79875
 H3086 H 0.94851 0.60153 0.78485
 H3087 H 0.93177 0.61579 0.82101
 H3088 H 0.94311 0.58571 0.74622
 H3089 H 0.85717 0.58038 0.76082
 H3090 H 0.85144 0.56722 0.72154
 H3091 H 0.86740 0.55802 0.68376
 H3092 H 0.93731 0.57183 0.70744
 C3093 C 0.37281 1.14161 0.79674
 C3094 C 0.37926 1.13004 0.77627
 C3095 C 0.36187 1.11950 0.76249
 C3096 C 0.33847 1.11991 0.76975
 C3097 C 0.33231 1.13035 0.79057
 C3098 C 0.34929 1.14150 0.80435
 C3099 C 0.36814 1.10843 0.74181
 C3100 C 0.39172 1.10692 0.73510
 C3101 C 0.40918 1.11650 0.74938
 C3102 C 0.40286 1.12835 0.76965
 C3103 C 0.43275 1.11403 0.74318
 C3104 C 0.43898 1.10276 0.72277
 C3105 C 0.42181 1.09421 0.70772
 C3106 C 0.39811 1.09605 0.71429
 H3107 H 0.38627 1.14970 0.80715
 H3108 H 0.32492 1.11179 0.75948
 H3109 H 0.31402 1.12995 0.79566
 H3110 H 0.35471 1.10074 0.73110
 H3111 H 0.41630 1.13599 0.78038
 H3112 H 0.44640 1.12086 0.75411
 H3113 H 0.45739 1.10094 0.71871
 H3114 H 0.38459 1.08967 0.70299
 C3115 C 0.38869 0.61846 1.29522
 C3116 C 0.39197 0.60718 1.27395
 C3117 C 0.37290 0.59558 1.26329
 C3118 C 0.35138 0.59379 1.27480
 C3119 C 0.34876 0.60332 1.29662
 C3120 C 0.36714 0.61625 1.30695
 C3121 C 0.37568 0.58571 1.24142
 C3122 C 0.39767 0.58598 1.23057
 C3123 C 0.41717 0.59563 1.24217
 C3124 C 0.41411 0.60674 1.26344
 C3125 C 0.43943 0.59413 1.23221
 C3126 C 0.44222 0.58459 1.21042
 C3127 C 0.42270 0.57732 1.19761
 C3128 C 0.40049 0.57714 1.20822
 H3129 H 0.40322 0.62774 1.30313
 H3130 H 0.33666 0.58467 1.26708
 H3131 H 0.33186 0.60131 1.30506
 H3132 H 0.36081 0.57763 1.23296
 H3133 H 0.42899 0.61481 1.27190
 H3134 H 0.45469 0.60067 1.24112
 H3135 H 0.45974 0.58381 1.20321
 H3136 H 0.38531 0.57125 1.19882
 C3137 C 1.13044 1.29193 0.87179
 C3138 C 1.11607 1.27227 0.87750
 C3139 C 1.09196 1.27245 0.87266
 C3140 C 1.08295 1.29177 0.86088
 C3141 C 1.09767 1.31055 0.85385
 C3142 C 1.12153 1.31112 0.85954
 C3143 C 1.07739 1.25322 0.87943
 C3144 C 1.08690 1.23325 0.88995
 C3145 C 1.11136 1.23251 0.89311
 C3146 C 1.12563 1.25214 0.88741
 C3147 C 1.12126 1.21212 0.90204
 C3148 C 1.10708 1.19310 0.90894
 C3149 C 1.08252 1.19427 0.90799
 C3150 C 1.07252 1.21414 0.89762
 H3151 H 1.14885 1.29162 0.87585
 H3152 H 1.06458 1.29216 0.85672
 H3153 H 1.09014 1.32497 0.84443
 H3154 H 1.05878 1.25371 0.87633
 H3155 H 1.14426 1.25164 0.89047
 H3156 H 1.14002 1.21096 0.90394
 H3157 H 1.11543 1.17761 0.91580
 H3158 H 1.05369 1.21515 0.89635
 C3159 C 1.12123 0.79616 0.37209
 C3160 C 1.11677 0.77515 0.38430
 C3161 C 1.13558 0.76212 0.39292
 C3162 C 1.15852 0.77084 0.38980
 C3163 C 1.16276 0.79214 0.37813
 C3164 C 1.14420 0.80478 0.36895
 C3165 C 1.13115 0.74060 0.40439
 C3166 C 1.10810 0.73209 0.40753
 C3167 C 1.08931 0.74568 0.39960
 C3168 C 1.09376 0.76703 0.38800
 C3169 C 1.06631 0.73746 0.40297
 C3170 C 1.06192 0.71548 0.41316
 C3171 C 1.08042 0.70121 0.42014
 C3172 C 1.10351 0.70994 0.41788
 H3173 H 1.10679 0.80606 0.36539
 H3174 H 1.17317 0.76121 0.39641
 H3175 H 1.18061 0.79855 0.37596
 H3176 H 1.14560 0.73038 0.41063
 H3177 H 1.07932 0.77718 0.38164
 H3178 H 1.05171 0.74777 0.39726
 H3179 H 1.04397 0.70930 0.41509
 H3180 H 1.11789 0.69904 0.42315
 C3181 C 0.63506 1.30659 0.37184
 C3182 C 0.62355 1.28636 0.38079
 C3183 C 0.60008 1.28142 0.37507
 C3184 C 0.58890 1.29620 0.35967
 C3185 C 0.60082 1.31567 0.34999
 C3186 C 0.62393 1.32141 0.35618
 C3187 C 0.58832 1.26161 0.38458
 C3188 C 0.60010 1.24600 0.39885
 C3189 C 0.62390 1.25033 0.40360
 C3190 C 0.63532 1.27074 0.39500
 C3191 C 0.63602 1.23396 0.41659
 C3192 C 0.62476 1.21342 0.42476
 C3193 C 0.60077 1.20912 0.42100
 C3194 C 0.58857 1.22588 0.40808
 H3195 H 0.65299 1.31026 0.37659
 H3196 H 0.57099 1.29253 0.35489
 H3197 H 0.59162 1.32656 0.33804
 H3198 H 0.57018 1.25806 0.38047
 H3199 H 0.65350 1.27421 0.39899
 H3200 H 0.65441 1.23676 0.42001
 H3201 H 0.63521 1.20078 0.43371
 H3202 H 0.57007 1.22348 0.40512
 C3203 C 0.63080 0.81697 0.88108
 C3204 C 0.62051 0.79621 0.89000
 C3205 C 0.59635 0.79174 0.88720
 C3206 C 0.58308 0.80788 0.87487
 C3207 C 0.59365 0.82831 0.86552
 C3208 C 0.61750 0.83314 0.86883
 C3209 C 0.58598 0.77116 0.89661
 C3210 C 0.59964 0.75467 0.90810
 C3211 C 0.62392 0.75889 0.91023
 C3212 C 0.63413 0.77979 0.90148
 C3213 C 0.63768 0.74198 0.92082
 C3214 C 0.62759 0.72088 0.92903
 C3215 C 0.60337 0.71650 0.92742
 C3216 C 0.58949 0.73382 0.91715
 H3217 H 0.64931 0.82038 0.88338
 H3218 H 0.56458 0.80466 0.87240
 H3219 H 0.58313 0.84058 0.85612
 H3220 H 0.56740 0.76779 0.89467
 H3221 H 0.65273 0.78311 0.90333
 H3222 H 0.65636 0.74483 0.92235
 H3223 H 0.63897 0.70781 0.93619
 H3224 H 0.57075 0.73115 0.91609
 C3225 C 0.85825 1.28875 1.13060
 C3226 C 0.87027 1.26828 1.12379
 C3227 C 0.89500 1.26824 1.12401
 C3228 C 0.90723 1.28850 1.13159
 C3229 C 0.89510 1.30859 1.13891
 C3230 C 0.87058 1.30893 1.13830
 C3231 C 0.90706 1.24796 1.11672
 C3232 C 0.89470 1.22758 1.10958
 C3233 C 0.86997 1.22742 1.11003
 C3234 C 0.85792 1.24781 1.11697
 C3235 C 0.85765 1.20689 1.10340
 C3236 C 0.86967 1.18687 1.09584
 C3237 C 0.89426 1.18707 1.09449
 C3238 C 0.90668 1.20742 1.10176
 H3239 H 0.83930 1.28881 1.13042
 H3240 H 0.92616 1.28876 1.13200
 H3241 H 0.90491 1.32401 1.14481
 H3242 H 0.92602 1.24805 1.11661
 H3243 H 0.83896 1.24773 1.11706
 H3244 H 0.83871 1.20634 1.10393
 H3245 H 0.85967 1.17120 1.09092
 H3246 H 0.92562 1.20783 1.10073
 C3247 C 0.85592 0.78230 0.62839
 C3248 C 0.86927 0.76320 0.62035
 C3249 C 0.89325 0.76212 0.62556
 C3250 C 0.90324 0.77995 0.63935
 C3251 C 0.88962 0.79869 0.64776
 C3252 C 0.86594 0.80016 0.64211
 C3253 C 0.90671 0.74323 0.61696
 C3254 C 0.89632 0.72518 0.60365
 C3255 C 0.87215 0.72604 0.59915
 C3256 C 0.85887 0.74511 0.60731
 C3257 C 0.86153 0.70774 0.58660
 C3258 C 0.87470 0.68883 0.57828
 C3259 C 0.89895 0.68797 0.58182
 C3260 C 0.90962 0.70625 0.59477
 H3261 H 0.83756 0.78306 0.62424
 H3262 H 0.92155 0.77937 0.64367
 H3263 H 0.89769 0.81225 0.65834
 H3264 H 0.92518 0.74251 0.62071
 H3265 H 0.84039 0.74581 0.60359
 H3266 H 0.84296 0.70795 0.58333
 H3267 H 0.86570 0.67470 0.56918
 H3268 H 0.92825 0.70597 0.59769
 C3269 C 0.38932 1.31092 0.63377
 C3270 C 0.39478 1.28985 0.62222
 C3271 C 0.37728 1.27731 0.61019
 C3272 C 0.35487 1.28692 0.60888
 C3273 C 0.34977 1.30855 0.61969
 C3274 C 0.36679 1.32053 0.63273
 C3275 C 0.38254 1.25544 0.59974
 C3276 C 0.40528 1.24646 0.60061
 C3277 C 0.42302 1.25985 0.61150
 C3278 C 0.41759 1.28125 0.62252
 C3279 C 0.44594 1.25157 0.61138
 C3280 C 0.45117 1.22978 0.60124
 C3281 C 0.43349 1.21543 0.59159
 C3282 C 0.41056 1.22419 0.59100
 H3283 H 0.40293 1.32005 0.64321
 H3284 H 0.34129 1.27772 0.59949
 H3285 H 0.33228 1.31545 0.61841
 H3286 H 0.36900 1.24546 0.59098
 H3287 H 0.43113 1.29119 0.63135
 H3288 H 0.45982 1.26189 0.61922
 H3289 H 0.46916 1.22409 0.60118
 H3290 H 0.39663 1.21346 0.58375
 C3291 C 0.38391 0.81234 1.12839
 C3292 C 0.38903 0.79188 1.11548
 C3293 C 0.37101 0.77977 1.10371
 C3294 C 0.34852 0.78916 1.10385
 C3295 C 0.34381 0.81016 1.11575
 C3296 C 0.36125 0.82176 1.12864
 C3297 C 0.37573 0.75846 1.09204
 C3298 C 0.39847 0.74953 1.09129
 C3299 C 0.41678 0.76256 1.10171
 C3300 C 0.41191 0.78342 1.11403
 C3301 C 0.43968 0.75435 1.09988
 C3302 C 0.44425 0.73283 1.08888
 C3303 C 0.42596 0.71864 1.08004
 C3304 C 0.40312 0.72756 1.08070
 H3305 H 0.39775 0.82124 1.13772
 H3306 H 0.33456 0.78031 1.09469
 H3307 H 0.32615 0.81680 1.11543
 H3308 H 0.36173 0.74883 1.08361
 H3309 H 0.42590 0.79300 1.12253
 H3310 H 0.45402 0.76440 1.10724
 H3311 H 0.46219 0.72701 1.08780
 H3312 H 0.38880 0.71701 1.07392
 C3313 C 0.89261 0.67908 0.89095
 C3314 C 0.90086 0.70175 0.89750
 C3315 C 0.91159 0.71685 0.88105
 C3316 C 0.91496 0.70871 0.85871
 C3317 C 0.90729 0.68600 0.85249
 C3318 C 0.89567 0.67121 0.86837
 C3319 C 0.91860 0.73995 0.88707
 C3320 C 0.91568 0.74802 0.90949
 C3321 C 0.90610 0.73265 0.92627
 C3322 C 0.89845 0.70966 0.92013
 C3323 C 0.90425 0.74065 0.94887
 C3324 C 0.91154 0.76374 0.95468
 C3325 C 0.92026 0.77952 0.93790
 C3326 C 0.92218 0.77134 0.91529
 H3327 H 0.88382 0.66763 0.90329
 H3328 H 0.92332 0.71999 0.84597
 H3329 H 0.90969 0.68033 0.83496
 H3330 H 0.92635 0.75164 0.87429
 H3331 H 0.89062 0.69800 0.93288
 H3332 H 0.89727 0.72902 0.96206
 H3333 H 0.91036 0.76915 0.97236
 H3334 H 0.92828 0.78321 0.90193
 C3335 C 0.85904 0.21905 0.33577
 C3336 C 0.87005 0.23701 0.34883
 C3337 C 0.85632 0.25437 0.36012
 C3338 C 0.83204 0.25357 0.35836
 C3339 C 0.82123 0.23513 0.34647
 C3340 C 0.83443 0.21740 0.33527
 C3341 C 0.86691 0.27190 0.37363
 C3342 C 0.89104 0.27191 0.37684
 C3343 C 0.90494 0.25452 0.36589
 C3344 C 0.89441 0.23737 0.35165
 C3345 C 0.92910 0.25452 0.36962
 C3346 C 0.93928 0.27158 0.38401
 C3347 C 0.92553 0.28901 0.39484
 C3348 C 0.90139 0.28902 0.39105
 H3349 H 0.86954 0.20553 0.32746
 H3350 H 0.82131 0.26678 0.36685
 H3351 H 0.80230 0.23483 0.34614
 H3352 H 0.85625 0.28516 0.38218
 H3353 H 0.90506 0.22400 0.34326
 H3354 H 0.94008 0.24131 0.36148
 H3355 H 0.95794 0.27111 0.38670
 H3356 H 0.89063 0.30266 0.39884
 C3357 C 0.36760 0.69526 0.37662
 C3358 C 0.37765 0.71669 0.38441
 C3359 C 0.40160 0.72158 0.38002
 C3360 C 0.41483 0.70526 0.36715
 C3361 C 0.40448 0.68418 0.35895
 C3362 C 0.38091 0.67883 0.36394
 C3363 C 0.41185 0.74268 0.38851
 C3364 C 0.39826 0.75926 0.40073
 C3365 C 0.37414 0.75468 0.40433
 C3366 C 0.36406 0.73331 0.39643
 C3367 C 0.36041 0.77163 0.41563
 C3368 C 0.37039 0.79301 0.42330
 C3369 C 0.39452 0.79775 0.42044
 C3370 C 0.40834 0.78046 0.40921
 H3371 H 0.34927 0.69146 0.38025
 H3372 H 0.43316 0.70880 0.36345
 H3373 H 0.41502 0.67178 0.34920
 H3374 H 0.43030 0.74631 0.38541
 H3375 H 0.34559 0.72970 0.39949
 H3376 H 0.34182 0.76853 0.41825
 H3377 H 0.35896 0.80598 0.43114
 H3378 H 0.42700 0.78331 0.40709
 C3379 C 0.38060 0.20697 0.85910
 C3380 C 0.39042 0.22646 0.87096
 C3381 C 0.38624 0.22893 0.89468
 C3382 C 0.37226 0.21212 0.90612
 C3383 C 0.36124 0.19391 0.89402
 C3384 C 0.36489 0.19128 0.87033
 C3385 C 0.39508 0.24878 0.90646
 C3386 C 0.40683 0.26704 0.89465
 C3387 C 0.41064 0.26489 0.87087
 C3388 C 0.40300 0.24433 0.85928
 C3389 C 0.42138 0.28371 0.85897
 C3390 C 0.42806 0.30449 0.87044
 C3391 C 0.42476 0.30672 0.89419
 C3392 C 0.41420 0.28772 0.90618
 H3393 H 0.38340 0.20545 0.84085
 H3394 H 0.36888 0.21373 0.92428
 H3395 H 0.34961 0.18191 0.90333
 H3396 H 0.39184 0.25054 0.92464
 H3397 H 0.40591 0.24277 0.84104
 H3398 H 0.42418 0.28256 0.84071
 H3399 H 0.43557 0.31898 0.86055
 H3400 H 0.41169 0.28899 0.92447
 C3401 C 1.12812 0.69516 1.11789
 C3402 C 1.11854 0.71747 1.11292
 C3403 C 1.10588 0.72997 1.12999
 C3404 C 1.10196 0.71964 1.15125
 C3405 C 1.11010 0.69697 1.15557
 C3406 C 1.12349 0.68443 1.13914
 C3407 C 1.09679 0.75241 1.12546
 C3408 C 1.09890 0.76205 1.10363
 C3409 C 1.11035 0.74907 1.08614
 C3410 C 1.12066 0.72717 1.09100
 C3411 C 1.11096 0.75808 1.06400
 C3412 C 1.10064 0.77983 1.05933
 C3413 C 1.09027 0.79364 1.07684
 C3414 C 1.08943 0.78437 1.09902
 H3415 H 1.13800 0.68569 1.10487
 H3416 H 1.09212 0.72887 1.16444
 H3417 H 1.10634 0.68955 1.17223
 H3418 H 1.08751 0.76208 1.13878
 H3419 H 1.12979 0.71743 1.07764
 H3420 H 1.11917 0.74817 1.05022
 H3421 H 1.10084 0.78574 1.04184
 H3422 H 1.08177 0.79457 1.11288
 C3423 C 1.12384 0.18502 0.61621
 C3424 C 1.11317 0.20680 0.61144
 C3425 C 1.10107 0.21921 0.62893
 C3426 C 1.09893 0.20920 0.65059
 C3427 C 1.10844 0.18702 0.65489
 C3428 C 1.12123 0.17467 0.63790
 C3429 C 1.09104 0.24129 0.62446
 C3430 C 1.09213 0.25076 0.60245
 C3431 C 1.10313 0.23775 0.58469
 C3432 C 1.11394 0.21610 0.58935
 C3433 C 1.10319 0.24663 0.56251
 C3434 C 1.09324 0.26859 0.55809
 C3435 C 1.08355 0.28253 0.57582
 C3436 C 1.08258 0.27314 0.59796
 H3437 H 1.13321 0.17570 0.60274
 H3438 H 1.08956 0.21835 0.66415
 H3439 H 1.10609 0.17980 0.67184
 H3440 H 1.08221 0.25098 0.63804
 H3441 H 1.12273 0.20639 0.57575
 H3442 H 1.11108 0.23668 0.54858
 H3443 H 1.09351 0.27484 0.54070
 H3444 H 1.07518 0.28353 0.61184
 C3445 C 0.62689 0.70513 0.63958
 C3446 C 0.61577 0.72216 0.62625
 C3447 C 0.61295 0.71801 0.60265
 C3448 C 0.62101 0.69682 0.59284
 C3449 C 0.63264 0.68037 0.60604
 C3450 C 0.63594 0.68449 0.62938
 C3451 C 0.60276 0.73536 0.58908
 C3452 C 0.59568 0.75705 0.59869
 C3453 C 0.59839 0.76116 0.62230
 C3454 C 0.60825 0.74366 0.63594
 C3455 C 0.59137 0.78284 0.63188
 C3456 C 0.58165 0.80023 0.61829
 C3457 C 0.57873 0.79634 0.59482
 C3458 C 0.58598 0.77474 0.58506
 H3459 H 0.62975 0.70856 0.65751
 H3460 H 0.61900 0.69331 0.57482
 H3461 H 0.63958 0.66457 0.59788
 H3462 H 0.60073 0.73215 0.57099
 H3463 H 0.61046 0.74696 0.65399
 H3464 H 0.59341 0.78637 0.64990
 H3465 H 0.57645 0.81688 0.62614
 H3466 H 0.58368 0.77157 0.56701
 C3467 C 0.62410 0.21188 1.13647
 C3468 C 0.61949 0.23122 1.12225
 C3469 C 0.62717 0.23090 1.09925
 C3470 C 0.64042 0.21174 1.09121
 C3471 C 0.64596 0.19311 1.10574
 C3472 C 0.63757 0.19266 1.12848
 C3473 C 0.62156 0.24975 1.08475
 C3474 C 0.60904 0.26934 1.09320
 C3475 C 0.60270 0.27018 1.11659
 C3476 C 0.60760 0.25103 1.13082
 C3477 C 0.59134 0.29012 1.12544
 C3478 C 0.58525 0.30858 1.11115
 C3479 C 0.58974 0.30735 1.08751
 C3480 C 0.60241 0.28794 1.07871
 H3481 H 0.61782 0.21226 1.15400
 H3482 H 0.64670 0.21125 1.07370
 H3483 H 0.65638 0.17873 1.09887
 H3484 H 0.62694 0.24917 1.06696
 H3485 H 0.60219 0.25159 1.14861
 H3486 H 0.58687 0.29133 1.14341
 H3487 H 0.57639 0.32372 1.11862
 H3488 H 0.60629 0.28687 1.06061
 C3489 C 1.28464 1.12486 0.86782
 C3490 C 1.26351 1.11936 0.87915
 C3491 C 1.24922 1.13792 0.88755
 C3492 C 1.25664 1.16166 0.88502
 C3493 C 1.27809 1.16693 0.87445
 C3494 C 1.29205 1.14860 0.86567
 C3495 C 1.22787 1.13247 0.89848
 C3496 C 1.22084 1.10869 0.90151
 C3497 C 1.23553 1.09015 0.89381
 C3498 C 1.25667 1.09559 0.88252
 C3499 C 1.22869 1.06641 0.89728
 C3500 C 1.20712 1.06105 0.90751
 C3501 C 1.19191 1.07931 0.91430
 C3502 C 1.19913 1.10314 0.91173
 H3503 H 1.29570 1.11074 0.86138
 H3504 H 1.24602 1.17610 0.89149
 H3505 H 1.28380 1.18534 0.87300
 H3506 H 1.21676 1.14670 0.90461
 H3507 H 1.26777 1.08136 0.87636
 H3508 H 1.23986 1.05199 0.89176
 H3509 H 1.20209 1.04253 0.90974
 H3510 H 1.18748 1.11733 0.91679
 C3511 C 1.30581 0.62714 0.38709
 C3512 C 1.28661 0.61538 0.39733
 C3513 C 1.28639 0.59024 0.39901
 C3514 C 1.30542 0.57731 0.39057
 C3515 C 1.32398 0.58908 0.37958
 C3516 C 1.32413 0.61396 0.37757
 C3517 C 1.26677 0.57834 0.40820
 C3518 C 1.24699 0.59116 0.41489
 C3519 C 1.24719 0.61627 0.41319
 C3520 C 1.26715 0.62826 0.40481
 C3521 C 1.22716 0.62896 0.41933
 C3522 C 1.20701 0.61686 0.42675
 C3523 C 1.20662 0.59189 0.42852
 C3524 C 1.22679 0.57916 0.42271
 H3525 H 1.30581 0.64633 0.38517
 H3526 H 1.30553 0.55806 0.39168
 H3527 H 1.33807 0.57873 0.37223
 H3528 H 1.26657 0.55907 0.40936
 H3529 H 1.26722 0.64750 0.40335
 H3530 H 1.22694 0.64818 0.41799
 H3531 H 1.19157 0.62708 0.43075
 H3532 H 1.22675 0.55994 0.42423
 C3533 C 0.76535 1.14066 0.34196
 C3534 C 0.74795 1.13246 0.35702
 C3535 C 0.73174 1.14861 0.36658
 C3536 C 0.73347 1.17283 0.36097
 C3537 C 0.75160 1.18104 0.34664
 C3538 C 0.76765 1.16499 0.33713
 C3539 C 0.71451 1.14032 0.38196
 C3540 C 0.71372 1.11625 0.38824
 C3541 C 0.73033 1.10031 0.37898
 C3542 C 0.74717 1.10847 0.36327
 C3543 C 0.72974 1.07637 0.38545
 C3544 C 0.71236 1.06805 0.40039
 C3545 C 0.69532 1.08353 0.40911
 C3546 C 0.69637 1.10774 0.40334
 H3547 H 0.77805 1.12827 0.33512
 H3548 H 0.72129 1.18549 0.36822
 H3549 H 0.75336 1.19992 0.34328
 H3550 H 0.70191 1.15260 0.38920
 H3551 H 0.75982 1.09621 0.35609
 H3552 H 0.74246 1.06400 0.37864
 H3553 H 0.71186 1.04934 0.40478
 H3554 H 0.68308 1.11971 0.40979
 C3555 C 0.82117 0.61748 0.88757
 C3556 C 0.79801 0.61102 0.89338
 C3557 C 0.78280 0.60263 0.87625
 C3558 C 0.79109 0.60020 0.85382
 C3559 C 0.81424 0.60604 0.84832
 C3560 C 0.82940 0.61489 0.86504
 C3561 C 0.75958 0.59662 0.88178
 C3562 C 0.75147 0.59815 0.90435
 C3563 C 0.76675 0.60583 0.92165
 C3564 C 0.78986 0.61255 0.91602
 C3565 C 0.75865 0.60647 0.94429
 C3566 C 0.73568 0.59946 0.94974
 C3567 C 0.72020 0.59214 0.93259
 C3568 C 0.72831 0.59182 0.90986
 H3569 H 0.83285 0.62413 0.90056
 H3570 H 0.77969 0.59370 0.84054
 H3571 H 0.82018 0.60408 0.83081
 H3572 H 0.74791 0.59043 0.86856
 H3573 H 0.80154 0.61869 0.92924
 H3574 H 0.77015 0.61210 0.95783
 H3575 H 0.73018 0.59950 0.96746
 H3576 H 0.71659 0.58679 0.89631
 C3577 C 1.29049 0.87455 1.13258
 C3578 C 1.27108 0.88680 1.12495
 C3579 C 1.26985 0.91173 1.12807
 C3580 C 1.28776 0.92379 1.13967
 C3581 C 1.30704 0.91135 1.14744
 C3582 C 1.30877 0.88674 1.14349
 C3583 C 1.25096 0.92413 1.11922
 C3584 C 1.23327 0.91182 1.10748
 C3585 C 1.23422 0.88677 1.10519
 C3586 C 1.25311 0.87446 1.11386
 C3587 C 1.21636 0.87437 1.09405
 C3588 C 1.19788 0.88664 1.08480
 C3589 C 1.19705 0.91165 1.08611
 C3590 C 1.21474 0.92412 1.09779
 H3591 H 1.29153 0.85550 1.12973
 H3592 H 1.28706 0.94286 1.14239
 H3593 H 1.32096 0.92110 1.15581
 H3594 H 1.25016 0.94331 1.12124
 H3595 H 1.25398 0.85529 1.11173
 H3596 H 1.21667 0.85514 1.09247
 H3597 H 1.18412 0.87642 1.07669
 H3598 H 1.21438 0.94337 1.09897
 C3599 C 1.29626 0.37451 0.63982
 C3600 C 1.27595 0.38605 0.63336
 C3601 C 1.27527 0.41119 0.63350
 C3602 C 1.29481 0.42429 0.64108
 C3603 C 1.31501 0.41255 0.64777
 C3604 C 1.31604 0.38760 0.64669
 C3605 C 1.25527 0.42268 0.62571
 C3606 C 1.23602 0.40925 0.61786
 C3607 C 1.23662 0.38408 0.61858
 C3608 C 1.25650 0.37270 0.62633
 C3609 C 1.21749 0.37057 0.61106
 C3610 C 1.19822 0.38175 0.60208
 C3611 C 1.19764 0.40667 0.60031
 C3612 C 1.21641 0.42042 0.60878
 H3613 H 1.29677 0.35522 0.63928
 H3614 H 1.29461 0.44357 0.64150
 H3615 H 1.33006 0.42297 0.65307
 H3616 H 1.25486 0.44197 0.62538
 H3617 H 1.25701 0.35340 0.62647
 H3618 H 1.21758 0.35129 0.61178
 H3619 H 1.18373 0.37081 0.59624
 H3620 H 1.21612 0.43966 0.60753
 C3621 C 0.77758 0.85852 0.64016
 C3622 C 0.75920 0.86467 0.62577
 C3623 C 0.76299 0.86521 0.60190
 C3624 C 0.78486 0.85899 0.59280
 C3625 C 0.80279 0.85230 0.60713
 C3626 C 0.79943 0.85216 0.63090
 C3627 C 0.74492 0.87202 0.58752
 C3628 C 0.72297 0.87811 0.59665
 C3629 C 0.71899 0.87679 0.62047
 C3630 C 0.73710 0.87016 0.63485
 C3631 C 0.69707 0.88263 0.62964
 C3632 C 0.67959 0.89077 0.61555
 C3633 C 0.68358 0.89322 0.59199
 C3634 C 0.70512 0.88617 0.58248
 H3635 H 0.77474 0.85813 0.65845
 H3636 H 0.78808 0.85918 0.57457
 H3637 H 0.81948 0.84745 0.59961
 H3638 H 0.74802 0.87279 0.56927
 H3639 H 0.73404 0.86951 0.65311
 H3640 H 0.69362 0.88152 0.64780
 H3641 H 0.66303 0.89591 0.62319
 H3642 H 0.70835 0.88810 0.56435
 C3643 C 0.79560 0.38470 1.13137
 C3644 C 0.77461 0.38931 1.12012
 C3645 C 0.76067 0.37012 1.11202
 C3646 C 0.76800 0.34673 1.11506
 C3647 C 0.78904 0.34233 1.12576
 C3648 C 0.80307 0.36117 1.13401
 C3649 C 0.73967 0.37455 1.10091
 C3650 C 0.73241 0.39797 1.09757
 C3651 C 0.74651 0.41719 1.10532
 C3652 C 0.76745 0.41276 1.11658
 C3653 C 0.73929 0.44058 1.10189
 C3654 C 0.71803 0.44490 1.09149
 C3655 C 0.70352 0.42596 1.08425
 C3656 C 0.71108 0.40248 1.08695
 H3657 H 0.80641 0.39935 1.13746
 H3658 H 0.75758 0.33181 1.10896
 H3659 H 0.79434 0.32403 1.12766
 H3660 H 0.72896 0.35977 1.09491
 H3661 H 0.77813 0.42754 1.12262
 H3662 H 0.74991 0.45555 1.10754
 H3663 H 0.71274 0.46316 1.08933
 H3664 H 0.69996 0.38775 1.08159
 C3665 C 0.70705 1.13390 1.13765
 C3666 C 0.72592 1.11884 1.13312
 C3667 C 0.72285 1.09388 1.13497
 C3668 C 0.70110 1.08449 1.14215
 C3669 C 0.68262 1.09969 1.14737
 C3670 C 0.68541 1.12441 1.14485
 C3671 C 0.74150 1.07877 1.12955
 C3672 C 0.76326 1.08835 1.12258
 C3673 C 0.76648 1.11339 1.12172
 C3674 C 0.74781 1.12842 1.12689
 C3675 C 0.78820 1.12305 1.11510
 C3676 C 0.80622 1.10815 1.10817
 C3677 C 0.80289 1.08331 1.10772
 C3678 C 0.78163 1.07340 1.11570
 H3679 H 0.70933 1.15304 1.13615
 H3680 H 0.69844 1.06545 1.14387
 H3681 H 0.66602 1.09216 1.15312
 H3682 H 0.73901 1.05962 1.13050
 H3683 H 0.75025 1.14758 1.12580
 H3684 H 0.79105 1.14216 1.11460
 H3685 H 0.82261 1.11607 1.10228
 H3686 H 0.77899 1.05424 1.11532
 C3687 C 0.71193 0.61650 0.62507
 C3688 C 0.73170 0.60993 0.61217
 C3689 C 0.74832 0.62752 0.60534
 C3690 C 0.74454 0.65146 0.61102
 C3691 C 0.72444 0.65791 0.62323
 C3692 C 0.70822 0.64047 0.63048
 C3693 C 0.76836 0.62094 0.59289
 C3694 C 0.77184 0.59703 0.58690
 C3695 C 0.75483 0.57958 0.59309
 C3696 C 0.73494 0.58612 0.60578
 C3697 C 0.75818 0.55577 0.58683
 C3698 C 0.77864 0.54911 0.57538
 C3699 C 0.79616 0.56610 0.57002
 C3700 C 0.79236 0.59018 0.57531
 H3701 H 0.69909 0.60314 0.63033
 H3702 H 0.75698 0.66519 0.60579
 H3703 H 0.72154 0.67652 0.62712
 H3704 H 0.78127 0.63437 0.58796
 H3705 H 0.72207 0.57267 0.61076
 H3706 H 0.74522 0.54222 0.59121
 H3707 H 0.78106 0.53049 0.57119
 H3708 H 0.80584 0.60339 0.57143
 C3709 C 0.19526 1.12520 0.61657
 C3710 C 0.21665 1.11533 0.60957
 C3711 C 0.21853 1.09036 0.60703
 C3712 C 0.19889 1.07572 0.61129
 C3713 C 0.17794 1.08562 0.61905
 C3714 C 0.17604 1.11035 0.62203
 C3715 C 0.24014 1.08039 0.60101
 C3716 C 0.26005 1.09502 0.59798
 C3717 C 0.25811 1.11999 0.60051
 C3718 C 0.23642 1.12998 0.60607
 C3719 C 0.27797 1.13461 0.59761
 C3720 C 0.29953 1.12466 0.59207
 C3721 C 0.30170 1.09991 0.58931
 C3722 C 0.28188 1.08512 0.59250
 H3723 H 0.19405 1.14425 0.61929
 H3724 H 0.19998 1.05657 0.60946
 H3725 H 0.16333 1.07388 0.62332
 H3726 H 0.24157 1.06124 0.59914
 H3727 H 0.23505 1.14912 0.60815
 H3728 H 0.27683 1.15375 0.59958
 H3729 H 0.31461 1.13637 0.58988
 H3730 H 0.28338 1.06604 0.59022
 C3731 C 0.19789 0.63220 1.12204
 C3732 C 0.21818 0.62095 1.11370
 C3733 C 0.21867 0.59581 1.11201
 C3734 C 0.19898 0.58237 1.11885
 C3735 C 0.17918 0.59362 1.12770
 C3736 C 0.17841 0.61857 1.12942
 C3737 C 0.23890 0.58449 1.10383
 C3738 C 0.25890 0.59791 1.09768
 C3739 C 0.25852 0.62302 1.09971
 C3740 C 0.23816 0.63437 1.10752
 C3741 C 0.27856 0.63640 1.09391
 C3742 C 0.29867 0.62514 1.08584
 C3743 C 0.29921 0.60022 1.08318
 C3744 C 0.27924 0.58667 1.08945
 H3745 H 0.19757 0.65143 1.12362
 H3746 H 0.19903 0.56311 1.11773
 H3747 H 0.16439 0.58276 1.13328
 H3748 H 0.23915 0.56523 1.10245
 H3749 H 0.23794 0.65363 1.10898
 H3750 H 0.27869 0.65563 1.09557
 H3751 H 0.31391 0.63603 1.08165
 H3752 H 0.27935 0.56748 1.08743
 C3753 C 0.69257 0.87905 0.88848
 C3754 C 0.71270 0.88792 0.89902
 C3755 C 0.71892 0.91227 0.89680
 C3756 C 0.70502 0.92725 0.88392
 C3757 C 0.68539 0.91809 0.87289
 C3758 C 0.67903 0.89397 0.87508
 C3759 C 0.73928 0.92109 0.90694
 C3760 C 0.75404 0.90567 0.91836
 C3761 C 0.74798 0.88128 0.92036
 C3762 C 0.72708 0.87264 0.91109
 C3763 C 0.76332 0.86582 0.93099
 C3764 C 0.78490 0.87424 0.93870
 C3765 C 0.79126 0.89842 0.93647
 C3766 C 0.77525 0.91413 0.92697
 H3767 H 0.68792 0.86033 0.89002
 H3768 H 0.70959 0.94593 0.88198
 H3769 H 0.67510 0.92988 0.86272
 H3770 H 0.74409 0.93976 0.90519
 H3771 H 0.72243 0.85392 0.91258
 H3772 H 0.75899 0.84705 0.93260
 H3773 H 0.79689 0.86163 0.94569
 H3774 H 0.77954 0.93294 0.92568
 C3775 C 0.70595 0.36431 0.36632
 C3776 C 0.72690 0.37437 0.37442
 C3777 C 0.72993 0.39943 0.37496
 C3778 C 0.71215 0.41399 0.36724
 C3779 C 0.69174 0.40386 0.35859
 C3780 C 0.68849 0.37903 0.35801
 C3781 C 0.75081 0.40959 0.38284
 C3782 C 0.76901 0.39504 0.38969
 C3783 C 0.76620 0.36999 0.38884
 C3784 C 0.74508 0.35981 0.38143
 C3785 C 0.78463 0.35555 0.39530
 C3786 C 0.80557 0.36579 0.40270
 C3787 C 0.80843 0.39070 0.40402
 C3788 C 0.79003 0.40521 0.39734
 H3789 H 0.70361 0.34513 0.36563
 H3790 H 0.71419 0.43320 0.36749
 H3791 H 0.67841 0.41549 0.35231
 H3792 H 0.75302 0.42880 0.38333
 H3793 H 0.74291 0.34059 0.38085
 H3794 H 0.78289 0.33632 0.39458
 H3795 H 0.81961 0.35417 0.40732
 H3796 H 0.79190 0.42441 0.39847
 C3797 C 0.20988 0.86909 0.36719
 C3798 C 0.22853 0.88361 0.37426
 C3799 C 0.22647 0.90865 0.37404
 C3800 C 0.20596 0.91869 0.36582
 C3801 C 0.18758 0.90403 0.35834
 C3802 C 0.18926 0.87914 0.35938
 C3803 C 0.24480 0.92312 0.38226
 C3804 C 0.26516 0.91277 0.39054
 C3805 C 0.26738 0.88770 0.38982
 C3806 C 0.24910 0.87334 0.38174
 C3807 C 0.28769 0.87723 0.39767
 C3808 C 0.30528 0.89129 0.40711
 C3809 C 0.30293 0.91611 0.40904
 C3810 C 0.28309 0.92689 0.40008
 H3811 H 0.21146 0.84988 0.36766
 H3812 H 0.20409 0.93784 0.36533
 H3813 H 0.17183 0.91212 0.35226
 H3814 H 0.24308 0.94232 0.38252
 H3815 H 0.25074 0.85412 0.38162
 H3816 H 0.28979 0.85810 0.39693
 H3817 H 0.32068 0.88266 0.41337
 H3818 H 0.28121 0.94602 0.40141
 C3819 C 0.21142 0.37190 0.85583
 C3820 C 0.23134 0.37951 0.86771
 C3821 C 0.23345 0.37384 0.89097
 C3822 C 0.21598 0.35993 0.90172
 C3823 C 0.19633 0.35217 0.88970
 C3824 C 0.19363 0.35841 0.86678
 C3825 C 0.25286 0.38236 0.90313
 C3826 C 0.27038 0.39616 0.89222
 C3827 C 0.26859 0.40109 0.86876
 C3828 C 0.24905 0.39289 0.85670
 C3829 C 0.28638 0.41419 0.85770
 C3830 C 0.30567 0.42263 0.86974
 C3831 C 0.30748 0.41863 0.89329
 C3832 C 0.28965 0.40517 0.90436
 H3833 H 0.20970 0.37667 0.83810
 H3834 H 0.21736 0.35526 0.91950
 H3835 H 0.18291 0.34188 0.89858
 H3836 H 0.25429 0.37829 0.92107
 H3837 H 0.24759 0.39701 0.83878
 H3838 H 0.28546 0.41783 0.83965
 H3839 H 0.31931 0.43212 0.86040
 H3840 H 0.29049 0.40197 0.92248
   
