data_POSCAR
  _audit_creation_date              2014-09-24
  _audit_creation_method            'ToBaCCo'
  _symmetry_space_group_name_H-M    'P1'
  _symmetry_Int_Tables_number       1
  _symmetry_cell_setting            triclinic
  loop_
  _symmetry_equiv_pos_as_xyz
 x,y,z
_cell_length_a 45.7910
_cell_length_b 45.4709
_cell_length_c 41.4713
_cell_angle_alpha 90.416300
_cell_angle_beta 90.467600
_cell_angle_gamma 90.423700
loop_
  _atom_site_label
  _atom_site_type_symbol
  _atom_site_fract_x
  _atom_site_fract_y
  _atom_site_fract_z
C1 C 0.36242 0.00374 0.25125
 C2 C 0.13071 -0.00796 0.74868
 C3 C 0.63312 0.49477 0.24986
 C4 C 0.86515 0.50726 0.75215
 C5 C 0.25422 0.38640 0.99469
 C6 C 0.74830 0.11255 1.00180
 C7 C 0.24709 0.61103 0.49835
 C8 C 0.74803 0.89251 0.49250
 C9 C 0.00566 0.24857 0.37282
 C10 C -0.00083 0.75386 0.12678
 C11 C 0.49795 0.25408 0.63012
 C12 C 0.50295 0.75007 0.87373
 C13 C -0.24528 0.60879 0.99350
 C14 C -0.25282 0.38798 0.50754
 C15 C 0.24592 -0.11182 0.00974
 C16 C 0.24901 1.10657 0.48696
 C17 C 0.13645 0.50231 0.25857
 C18 C -0.13691 0.99627 0.24475
 C19 C 0.36305 0.49449 -0.25231
 C20 C 0.63165 0.00454 -0.24684
 C21 C 0.00017 0.25228 0.87177
 C22 C 0.50384 0.25027 0.12848
 C23 C 0.00106 0.74864 0.62923
 C24 C 0.50191 0.75056 0.37578
 B25 B -0.01716 0.02080 1.02729
 B26 B -0.03484 0.01379 0.99282
 B27 B -0.00667 0.03724 0.99351
 B28 B 0.01870 0.02511 1.01985
 B29 B 0.00538 -0.00706 1.03532
 B30 B -0.02828 -0.01378 1.01859
 B31 B 0.01167 -0.01443 0.97053
 B32 B 0.02937 -0.00741 1.00498
 B33 B 0.00120 -0.03087 1.00435
 B34 B -0.02417 -0.01875 0.97797
 B35 B -0.01084 0.01344 0.96248
 B36 B 0.02281 0.02016 0.97922
 B37 B 0.48414 0.51873 0.53051
 B38 B 0.46538 0.51197 0.49673
 B39 B 0.49318 0.53584 0.49664
 B40 B 0.51963 0.52370 0.52163
 B41 B 0.50736 0.49110 0.53705
 B42 B 0.47324 0.48411 0.52165
 B43 B 0.51136 0.48484 0.47183
 B44 B 0.53022 0.49158 0.50562
 B45 B 0.50242 0.46769 0.50577
 B46 B 0.47593 0.47984 0.48079
 B47 B 0.48820 0.51248 0.46540
 B48 B 0.52231 0.51944 0.48076
 B49 B 0.51614 0.98726 0.52581
 B50 B 0.53261 0.99543 0.49133
 B51 B 0.50558 0.97069 0.49176
 B52 B 0.48034 0.98132 0.51880
 B53 B 0.49255 1.01393 0.53503
 B54 B 0.52540 1.02238 0.51796
 B55 B 0.48423 1.02162 0.47058
 B56 B 0.46776 1.01345 0.50502
 B57 B 0.49480 1.03817 0.50467
 B58 B 0.52001 1.02755 0.47760
 B59 B 0.50780 0.99493 0.46134
 B60 B 0.47495 0.98648 0.47838
 B61 B 0.02195 0.48536 1.02846
 B62 B 0.03975 0.49247 0.99446
 B63 B 0.01238 0.46808 0.99440
 B64 B -0.01367 0.47968 1.02000
 B65 B -0.00158 0.51251 1.03578
 B66 B 0.03197 0.52014 1.01995
 B67 B -0.00750 0.51880 0.97091
 B68 B -0.02527 0.51164 1.00477
 B69 B 0.00210 0.53599 1.00494
 B70 B 0.02810 0.52443 0.97927
 B71 B 0.01600 0.49161 0.96343
 B72 B -0.01753 0.48397 0.97924
 B73 B 0.01372 0.51216 0.47894
 B74 B 0.03279 0.50462 0.51215
 B75 B 0.00580 0.52897 0.51352
 B76 B -0.02139 0.51762 0.48860
 B77 B -0.01040 0.48505 0.47188
 B78 B 0.02366 0.47730 0.48647
 B79 B -0.01378 0.47789 0.53686
 B80 B -0.03277 0.48546 0.50362
 B81 B -0.00575 0.46111 0.50223
 B82 B 0.02140 0.47245 0.52722
 B83 B 0.01040 0.50506 0.54397
 B84 B -0.02366 0.51282 0.52933
 B85 B 0.51060 0.01469 -0.02435
 B86 B 0.53055 0.00793 0.00849
 B87 B 0.50330 0.03203 0.01016
 B88 B 0.47567 0.01998 -0.01379
 B89 B 0.48663 -0.01277 -0.03014
 B90 B 0.52110 -0.01993 -0.01636
 B91 B 0.48479 -0.01891 0.03502
 B92 B 0.46497 -0.01203 0.00217
 B93 B 0.49221 -0.03615 0.00048
 B94 B 0.51981 -0.02412 0.02452
 B95 B 0.50884 0.00863 0.04093
 B96 B 0.47437 0.01582 0.02711
 B97 B 0.49054 0.47804 -0.03695
 B98 B 0.47401 0.48608 -0.00247
 B99 B 0.50092 0.46163 -0.00305
 B100 B 0.52629 0.47250 -0.02986
 B101 B 0.51427 0.50500 -0.04568
 B102 B 0.48138 0.51310 -0.02866
 B103 B 0.52241 0.51278 0.01902
 B104 B 0.53897 0.50479 -0.01555
 B105 B 0.51204 0.52929 -0.01488
 B106 B 0.48664 0.51834 0.01187
 B107 B 0.49867 0.48590 0.02760
 B108 B 0.53152 0.47777 0.01060
 B109 B -0.01826 0.97859 0.46820
 B110 B -0.03285 0.98697 0.50375
 B111 B -0.00638 0.96202 0.50147
 B112 B 0.01771 0.97246 0.47307
 B113 B 0.00543 1.00512 0.45800
 B114 B -0.02636 1.01384 0.47705
 B115 B 0.01701 1.01287 0.52203
 B116 B 0.03161 1.00452 0.48652
 B117 B 0.00520 1.02946 0.48882
 B118 B -0.01892 1.01906 0.51717
 B119 B -0.00665 0.98639 0.53222
 B120 B 0.02513 0.97770 0.51316
 B121 B 0.76976 0.23197 0.22377
 B122 B 0.76401 0.21548 0.25888
 B123 B 0.78787 0.24324 0.25658
 B124 B 0.77523 0.26820 0.23008
 B125 B 0.74226 0.25504 0.21621
 B126 B 0.73562 0.22190 0.23405
 B127 B 0.73821 0.26372 0.28109
 B128 B 0.74393 0.28021 0.24598
 B129 B 0.72004 0.25245 0.24826
 B130 B 0.73270 0.22749 0.27474
 B131 B 0.76568 0.24062 0.28857
 B132 B 0.77232 0.27376 0.27073
 B133 B 0.73362 0.77099 0.71674
 B134 B 0.73922 0.78862 0.75164
 B135 B 0.71553 0.76058 0.74951
 B136 B 0.72849 0.73491 0.72380
 B137 B 0.76137 0.74791 0.71036
 B138 B 0.76771 0.78165 0.72756
 B139 B 0.76543 0.74126 0.77541
 B140 B 0.75990 0.72369 0.74053
 B141 B 0.78355 0.75169 0.74272
 B142 B 0.77062 0.77734 0.76840
 B143 B 0.73776 0.76434 0.78183
 B144 B 0.73142 0.73062 0.76458
 B145 B 0.25931 0.26047 0.77117
 B146 B 0.25440 0.27746 0.73612
 B147 B 0.27772 0.24961 0.73881
 B148 B 0.26427 0.22432 0.76441
 B149 B 0.23135 0.23737 0.77730
 B150 B 0.22554 0.27076 0.75978
 B151 B 0.22806 0.22952 0.71211
 B152 B 0.23298 0.21255 0.74722
 B153 B 0.20960 0.24041 0.74454
 B154 B 0.22311 0.26572 0.71894
 B155 B 0.25604 0.25270 0.70612
 B156 B 0.26185 0.21929 0.72359
 B157 B 0.23032 0.73815 0.28498
 B158 B 0.23724 0.72112 0.25025
 B159 B 0.21400 0.74916 0.25120
 B160 B 0.22615 0.77434 0.27838
 B161 B 0.25810 0.76098 0.29410
 B162 B 0.26463 0.72754 0.27662
 B163 B 0.26532 0.76870 0.22955
 B164 B 0.25851 0.78574 0.26432
 B165 B 0.28168 0.75766 0.26334
 B166 B 0.26954 0.73255 0.23618
 B167 B 0.23760 0.74587 0.22048
 B168 B 0.23106 0.77933 0.23796
 B169 B 0.26450 0.72866 0.72826
 B170 B 0.25923 0.71145 0.76308
 B171 B 0.28316 0.73923 0.76107
 B172 B 0.27013 0.76474 0.73542
 B173 B 0.23698 0.75196 0.72187
 B174 B 0.23050 0.71848 0.73896
 B175 B 0.23378 0.75931 0.78691
 B176 B 0.23906 0.77649 0.75212
 B177 B 0.21515 0.74877 0.75409
 B178 B 0.22813 0.72323 0.77978
 B179 B 0.26133 0.73603 0.79337
 B180 B 0.26778 0.76949 0.77621
 B181 B 0.23611 0.26968 0.21837
 B182 B 0.24290 0.28620 0.25366
 B183 B 0.21885 0.25850 0.25138
 B184 B 0.23067 0.23348 0.22433
 B185 B 0.26329 0.24647 0.21010
 B186 B 0.27058 0.27964 0.22828
 B187 B 0.26916 0.23782 0.27472
 B188 B 0.26234 0.22135 0.23946
 B189 B 0.28642 0.24900 0.24177
 B190 B 0.27462 0.27404 0.26883
 B191 B 0.24201 0.26102 0.28306
 B192 B 0.23471 0.22790 0.26484
 B193 B 0.76468 0.76222 0.27387
 B194 B 0.75831 0.77850 0.23874
 B195 B 0.78209 0.75099 0.24100
 B196 B 0.76986 0.72600 0.26765
 B197 B 0.73727 0.73886 0.28165
 B198 B 0.73042 0.77187 0.26374
 B199 B 0.73175 0.72987 0.21687
 B200 B 0.73816 0.71355 0.25205
 B201 B 0.71433 0.74111 0.24984
 B202 B 0.72661 0.76610 0.22316
 B203 B 0.75923 0.75324 0.20916
 B204 B 0.76609 0.72022 0.22703
 B205 B 0.72644 0.24759 0.79442
 B206 B 0.73166 0.22678 0.76182
 B207 B 0.70886 0.25516 0.76016
 B208 B 0.72244 0.28284 0.78330
 B209 B 0.75485 0.27067 0.79906
 B210 B 0.76020 0.23547 0.78577
 B211 B 0.75949 0.27121 0.73364
 B212 B 0.75429 0.29201 0.76626
 B213 B 0.77707 0.26358 0.76783
 B214 B 0.76345 0.23596 0.74475
 B215 B 0.73113 0.24812 0.72903
 B216 B 0.72573 0.28331 0.74227
 C217 C 0.44084 1.04535 0.38752
 C218 C 0.45608 1.03771 0.35919
 C219 C 0.44033 1.03130 0.33038
 C220 C 0.40949 1.03271 0.33020
 C221 C 0.39450 1.04316 0.35770
 C222 C 0.41034 1.04958 0.38650
 C223 C 0.39510 1.05951 0.41397
 C224 C 0.36494 1.06329 0.41289
 C225 C 0.34933 1.05670 0.38483
 C226 C 0.36382 1.04674 0.35742
 C227 C 0.45592 1.02284 0.30252
 C228 C 0.48628 1.02079 0.30318
 C229 C 0.50171 1.02709 0.33143
 C230 C 0.48689 1.03544 0.35921
 C231 C 0.39325 1.02206 0.30236
 C232 C 0.37968 1.01317 0.27926
 C233 C 0.45560 1.04262 0.41824
 C234 C 0.46821 1.03620 0.44264
 H235 H 0.40644 1.06479 0.43633
 H236 H 0.35361 1.07127 0.43397
 H237 H 0.32587 1.05929 0.38433
 H238 H 0.35082 1.04210 0.33605
 H239 H 0.44484 1.01785 0.28000
 H240 H 0.49788 1.01427 0.28168
 H241 H 0.52528 1.02550 0.33184
 H242 H 0.49979 1.04035 0.38059
 C243 C -0.05063 0.54065 0.88711
 C244 C -0.08018 0.54937 0.88613
 C245 C -0.09697 0.54468 0.85758
 C246 C -0.08415 0.53070 0.83059
 C247 C -0.05413 0.52358 0.83102
 C248 C -0.03725 0.52881 0.85931
 C249 C -0.00734 0.52106 0.85947
 C250 C 0.00543 0.50834 0.83243
 C251 C -0.01117 0.50305 0.80475
 C252 C -0.04061 0.51059 0.80392
 C253 C -0.12653 0.55351 0.85707
 C254 C -0.13922 0.56627 0.88421
 C255 C -0.12288 0.57038 0.91235
 C256 C -0.09365 0.56207 0.91341
 C257 C -0.10202 0.52220 0.80307
 C258 C -0.11672 0.51496 0.78013
 C259 C -0.03546 0.53862 0.91763
 C260 C -0.02279 0.53282 0.94218
 H261 H 0.00647 0.52483 0.88042
 H262 H 0.02831 0.50251 0.83303
 H263 H -0.00124 0.49302 0.78384
 H264 H -0.05265 0.50607 0.78189
 H265 H -0.14006 0.55070 0.83573
 H266 H -0.16187 0.57291 0.88340
 H267 H -0.13282 0.58013 0.93344
 H268 H -0.08167 0.56586 0.93568
 C269 C 0.05094 -0.03872 0.88526
 C270 C 0.03517 -0.03005 0.85745
 C271 C 0.05010 -0.02544 0.82803
 C272 C 0.08060 -0.02982 0.82664
 C273 C 0.09587 -0.04103 0.85368
 C274 C 0.08098 -0.04529 0.88318
 C275 C 0.09676 -0.05542 0.91029
 C276 C 0.12643 -0.06170 0.90821
 C277 C 0.14101 -0.05783 0.87924
 C278 C 0.12604 -0.04751 0.85222
 C279 C 0.03411 -0.01590 0.80075
 C280 C 0.00413 -0.01116 0.80250
 C281 C -0.01052 -0.01572 0.83129
 C282 C 0.00473 -0.02502 0.85856
 C283 C 0.09663 -0.02136 0.79819
 C284 C 0.11113 -0.01456 0.77531
 C285 C 0.03745 -0.03563 0.91652
 C286 C 0.02611 -0.02918 0.94160
 H287 H 0.08619 -0.05876 0.93317
 H288 H 0.13814 -0.06963 0.92917
 H289 H 0.16405 -0.06277 0.87769
 H290 H 0.13829 -0.04484 0.83022
 H291 H 0.04458 -0.01214 0.77782
 H292 H -0.00780 -0.00391 0.78140
 H293 H -0.03381 -0.01204 0.83253
 H294 H -0.00759 -0.02843 0.88040
 C295 C 0.54698 0.46832 0.38319
 C296 C 0.54112 0.49301 0.36356
 C297 C 0.55731 0.49746 0.33496
 C298 C 0.57933 0.47730 0.32635
 C299 C 0.58396 0.45175 0.34501
 C300 C 0.56725 0.44698 0.37322
 C301 C 0.57163 0.42109 0.39119
 C302 C 0.59225 0.40048 0.38166
 C303 C 0.60937 0.40556 0.35468
 C304 C 0.60540 0.43092 0.33653
 C305 C 0.55141 0.52248 0.31590
 C306 C 0.53010 0.54257 0.32493
 C307 C 0.51426 0.53827 0.35296
 C308 C 0.51960 0.51382 0.37212
 C309 C 0.59776 0.48347 0.29898
 C310 C 0.61341 0.48888 0.27658
 C311 C 0.53483 0.46751 0.41525
 C312 C 0.52468 0.47147 0.44153
 H313 H 0.55897 0.41646 0.41252
 H314 H 0.59493 0.38055 0.39536
 H315 H 0.62572 0.38974 0.34769
 H316 H 0.61926 0.43405 0.31586
 H317 H 0.56313 0.52675 0.29384
 H318 H 0.52586 0.56158 0.31008
 H319 H 0.49770 0.55393 0.35987
 H320 H 0.50648 0.51131 0.39350
 C321 C 0.56813 0.52579 0.10277
 C322 C 0.56257 0.54474 0.12912
 C323 C 0.57426 0.53816 0.16007
 C324 C 0.59176 0.51289 0.16422
 C325 C 0.59766 0.49415 0.13773
 C326 C 0.58588 0.50065 0.10689
 C327 C 0.59168 0.48126 0.08083
 C328 C 0.60826 0.45604 0.08526
 C329 C 0.61984 0.44972 0.11545
 C330 C 0.61478 0.46853 0.14144
 C331 C 0.56765 0.55688 0.18635
 C332 C 0.55017 0.58155 0.18209
 C333 C 0.53906 0.58818 0.15171
 C334 C 0.54508 0.57000 0.12542
 C335 C 0.60452 0.50641 0.19537
 C336 C 0.61655 0.50081 0.22047
 C337 C 0.55226 0.52887 0.07270
 C338 C 0.53877 0.52605 0.04789
 H339 H 0.58352 0.48532 0.05675
 H340 H 0.61215 0.44134 0.06514
 H341 H 0.63278 0.43013 0.11878
 H342 H 0.62421 0.46258 0.16448
 H343 H 0.57572 0.55255 0.21043
 H344 H 0.54528 0.59564 0.20247
 H345 H 0.52563 0.60744 0.14852
 H346 H 0.53600 0.57593 0.10220
 C347 C 0.06733 1.02796 0.60226
 C348 C 0.05963 1.04405 0.63012
 C349 C 0.07172 1.03632 0.66052
 C350 C 0.09152 1.01262 0.66264
 C351 C 0.10059 0.99772 0.63441
 C352 C 0.08853 1.00551 0.60408
 C353 C 0.09755 0.99001 0.57614
 C354 C 0.11777 0.96734 0.57824
 C355 C 0.12957 0.95971 0.60797
 C356 C 0.12123 0.97471 0.63579
 C357 C 0.06328 1.05234 0.68825
 C358 C 0.04365 1.07553 0.68590
 C359 C 0.03188 1.08311 0.65610
 C360 C 0.03962 1.06752 0.62843
 C361 C 0.10331 1.00404 0.69362
 C362 C 0.11456 0.99762 0.71890
 C363 C 0.04987 1.02997 0.57321
 C364 C 0.03502 1.02637 0.54951
 H365 H 0.08926 0.99536 0.55240
 H366 H 0.12432 0.95566 0.55668
 H367 H 0.14530 0.94211 0.60950
 H368 H 0.13111 0.96810 0.65833
 H369 H 0.07179 1.04719 0.71195
 H370 H 0.03754 1.08767 0.70732
 H371 H 0.01666 1.10115 0.65441
 H372 H 0.03008 1.07419 0.60567
 C373 C -0.05471 0.45839 0.62185
 C374 C -0.03948 0.46932 0.64928
 C375 C -0.05524 0.47820 0.67696
 C376 C -0.08600 0.47547 0.67716
 C377 C -0.10089 0.46165 0.65100
 C378 C -0.08514 0.45333 0.62307
 C379 C -0.10045 0.44076 0.59656
 C380 C -0.13051 0.43602 0.59787
 C381 C -0.14593 0.44380 0.62536
 C382 C -0.13140 0.45658 0.65168
 C383 C -0.03972 0.49031 0.70360
 C384 C -0.00942 0.49330 0.70301
 C385 C 0.00605 0.48436 0.67599
 C386 C -0.00872 0.47257 0.64931
 C387 C -0.10242 0.48782 0.70360
 C388 C -0.11656 0.49760 0.72549
 C389 C -0.04021 0.45886 0.59106
 C390 C -0.02819 0.46390 0.56607
 H391 H -0.08927 0.43427 0.57476
 H392 H -0.14193 0.42632 0.57741
 H393 H -0.16928 0.44005 0.62622
 H394 H -0.14428 0.46231 0.67255
 H395 H -0.05085 0.49755 0.72510
 H396 H 0.00211 0.50262 0.72359
 H397 H 0.02959 0.48664 0.67566
 H398 H 0.00418 0.46579 0.62883
 C399 C 0.44601 -0.03953 0.12129
 C400 C 0.46014 -0.02580 0.14794
 C401 C 0.44397 -0.01873 0.17593
 C402 C 0.41387 -0.02577 0.17715
 C403 C 0.40047 -0.04213 0.15179
 C404 C 0.41662 -0.04892 0.12364
 C405 C 0.40267 -0.06433 0.09803
 C406 C 0.37354 -0.07316 0.10031
 C407 C 0.35774 -0.06673 0.12796
 C408 C 0.37091 -0.05130 0.15346
 C409 C 0.45824 -0.00398 0.20183
 C410 C 0.48776 0.00349 0.20011
 C411 C 0.50365 -0.00353 0.17273
 C412 C 0.49010 -0.01799 0.14684
 C413 C 0.39642 -0.01473 0.20350
 C414 C 0.38152 -0.00565 0.22514
 C415 C 0.45985 -0.03827 0.09012
 C416 C 0.47122 -0.03284 0.06482
 H417 H 0.41428 -0.06995 0.07624
 H418 H 0.36319 -0.08507 0.08055
 H419 H 0.33513 -0.07367 0.12965
 H420 H 0.35778 -0.04676 0.17447
 H421 H 0.44678 0.00184 0.22363
 H422 H 0.49835 0.01480 0.22011
 H423 H 0.52658 0.00229 0.17151
 H424 H 0.50335 -0.02316 0.12609
 C425 C 0.38880 0.45490 0.00802
 C426 C 0.38437 0.42694 0.02201
 C427 C 0.35592 0.41435 0.02239
 C428 C 0.33217 0.42979 0.00869
 C429 C 0.33659 0.45786 -0.00503
 C430 C 0.36504 0.47045 -0.00542
 C431 C 0.36915 0.49816 -0.02011
 C432 C 0.34579 0.51295 -0.03415
 C433 C 0.31792 0.50064 -0.03371
 C434 C 0.31322 0.47346 -0.01927
 C435 C 0.35204 0.38614 0.03601
 C436 C 0.37565 0.37076 0.04872
 C437 C 0.40351 0.38308 0.04830
 C438 C 0.40796 0.41086 0.03518
 C439 C 0.30386 0.41561 0.00590
 C440 C 0.28091 0.40300 0.00187
 C441 C 0.41805 0.46678 0.00569
 C442 C 0.44256 0.47592 0.00285
 H443 H 0.39044 0.50860 -0.02108
 H444 H 0.34933 0.53405 -0.04544
 H445 H 0.29983 0.51220 -0.04465
 H446 H 0.29115 0.46479 -0.01953
 H447 H 0.33076 0.37567 0.03694
 H448 H 0.37231 0.34916 0.05893
 H449 H 0.42178 0.37105 0.05820
 H450 H 0.43004 0.41951 0.03541
 C451 C -0.11875 0.95970 0.51953
 C452 C -0.12402 0.93029 0.52882
 C453 C -0.15275 0.91847 0.52676
 C454 C -0.17592 0.93624 0.51555
 C455 C -0.17106 0.96636 0.50912
 C456 C -0.14232 0.97818 0.51121
 C457 C -0.13783 1.00834 0.50461
 C458 C -0.16121 1.02636 0.49641
 C459 C -0.18932 1.01471 0.49407
 C460 C -0.19431 0.98502 0.50025
 C461 C -0.15752 0.88883 0.53564
 C462 C -0.13458 0.87154 0.54674
 C463 C -0.10652 0.88323 0.54910
 C464 C -0.10109 0.91217 0.53993
 C465 C -0.20400 0.92284 0.50836
 C466 C -0.22637 0.91015 0.50145
 C467 C -0.08902 0.97003 0.51583
 C468 C -0.06427 0.97786 0.51132
 H469 H -0.11632 1.01831 0.50601
 H470 H -0.15744 1.04943 0.49158
 H471 H -0.20736 1.02877 0.48750
 H472 H -0.21656 0.97693 0.49839
 H473 H -0.17903 0.87885 0.53449
 H474 H -0.13861 0.84899 0.55366
 H475 H -0.08887 0.86980 0.55809
 H476 H -0.07887 0.92030 0.54211
 C477 C -0.11808 0.04865 0.98120
 C478 C -0.12221 0.07728 0.99386
 C479 C -0.15045 0.08981 0.99345
 C480 C -0.17438 0.07348 0.98059
 C481 C -0.17004 0.04538 0.96676
 C482 C -0.14171 0.03290 0.96702
 C483 C -0.13781 0.00462 0.95333
 C484 C -0.16130 -0.01084 0.93972
 C485 C -0.18905 0.00138 0.93952
 C486 C -0.19351 0.02918 0.95291
 C487 C -0.15416 0.11844 1.00647
 C488 C -0.13060 0.13415 1.01953
 C489 C -0.10294 0.12181 1.02001
 C490 C -0.09867 0.09370 1.00743
 C491 C -0.20349 0.08498 0.98435
 C492 C -0.22643 0.09632 0.99048
 C493 C -0.08969 0.03525 0.98398
 C494 C -0.06576 0.02506 0.98736
 H495 H -0.11661 -0.00574 0.95293
 H496 H -0.15795 -0.03243 0.92929
 H497 H -0.20722 -0.01072 0.92892
 H498 H -0.21543 0.03791 0.95214
 H499 H -0.17521 0.12908 1.00659
 H500 H -0.13385 0.15599 1.02936
 H501 H -0.08468 0.13405 1.03021
 H502 H -0.07674 0.08505 1.00849
 C503 C 0.38193 0.54641 0.48691
 C504 C 0.35778 0.52975 0.47536
 C505 C 0.32973 0.54275 0.47396
 C506 C 0.32621 0.57229 0.48393
 C507 C 0.35062 0.58931 0.49422
 C508 C 0.37856 0.57621 0.49606
 C509 C 0.40256 0.59332 0.50739
 C510 C 0.39906 0.62268 0.51625
 C511 C 0.37174 0.63564 0.51404
 C512 C 0.34773 0.61927 0.50316
 C513 C 0.30571 0.52566 0.46277
 C514 C 0.30940 0.49651 0.45311
 C515 C 0.33690 0.48378 0.45441
 C516 C 0.36091 0.50011 0.46543
 C517 C 0.29736 0.58465 0.48631
 C518 C 0.27402 0.59589 0.49047
 C519 C 0.41026 0.53303 0.48979
 C520 C 0.43425 0.52294 0.49266
 H521 H 0.42426 0.58425 0.50956
 H522 H 0.41765 0.63543 0.52482
 H523 H 0.36910 0.65847 0.52090
 H524 H 0.32695 0.63038 0.50172
 H525 H 0.28395 0.53469 0.46123
 H526 H 0.29082 0.48374 0.44455
 H527 H 0.33965 0.46114 0.44686
 H528 H 0.38188 0.48928 0.46604
 C529 C 0.11949 0.53257 0.51421
 C530 C 0.13407 0.53315 0.48427
 C531 C 0.16235 0.54591 0.48237
 C532 C 0.17579 0.55778 0.51048
 C533 C 0.16173 0.55599 0.54065
 C534 C 0.13340 0.54332 0.54253
 C535 C 0.11946 0.54210 0.57283
 C536 C 0.13325 0.55304 0.60055
 C537 C 0.16097 0.56555 0.59870
 C538 C 0.17516 0.56709 0.56914
 C539 C 0.17634 0.54693 0.45206
 C540 C 0.16282 0.53543 0.42447
 C541 C 0.13524 0.52264 0.42639
 C542 C 0.12085 0.52160 0.45584
 C543 C 0.20251 0.57454 0.50761
 C544 C 0.22353 0.59011 0.50410
 C545 C 0.08963 0.52235 0.51536
 C546 C 0.06461 0.51435 0.51501
 H547 H 0.09785 0.53266 0.57541
 H548 H 0.12229 0.55195 0.62354
 H549 H 0.17156 0.57411 0.62026
 H550 H 0.19675 0.57692 0.56888
 H551 H 0.19791 0.55643 0.44942
 H552 H 0.17383 0.53634 0.40150
 H553 H 0.12491 0.51355 0.40494
 H554 H 0.09936 0.51156 0.45606
 C555 C 0.61688 0.03805 0.01072
 C556 C 0.63084 0.04266 -0.01917
 C557 C 0.65914 0.05558 -0.01980
 C558 C 0.67341 0.06338 0.00949
 C559 C 0.65986 0.05785 0.03939
 C560 C 0.63143 0.04518 0.04002
 C561 C 0.61812 0.04012 0.07016
 C562 C 0.63258 0.04728 0.09890
 C563 C 0.66039 0.05972 0.09828
 C564 C 0.67398 0.06503 0.06892
 C565 C 0.67244 0.06068 -0.04999
 C566 C 0.65834 0.05279 -0.07870
 C567 C 0.63088 0.03966 -0.07804
 C568 C 0.61706 0.03480 -0.04873
 C569 C 0.70104 0.07895 0.00852
 C570 C 0.72312 0.09325 0.00635
 C571 C 0.58720 0.02698 0.01112
 C572 C 0.56235 0.01828 0.01062
 H573 H 0.59647 0.03058 0.07185
 H574 H 0.62210 0.04325 0.12176
 H575 H 0.67151 0.06529 0.12067
 H576 H 0.69565 0.07469 0.06963
 H577 H 0.69390 0.07063 -0.05176
 H578 H 0.66887 0.05672 -0.10156
 H579 H 0.62026 0.03313 -0.10037
 H580 H 0.59561 0.02466 -0.04951
 C581 C 0.61801 0.96656 0.47760
 C582 C 0.64151 0.98043 0.49421
 C583 C 0.66960 0.96741 0.49394
 C584 C 0.67389 0.94064 0.47713
 C585 C 0.65079 0.92769 0.45897
 C586 C 0.62275 0.94079 0.45909
 C587 C 0.59989 0.92744 0.44090
 C588 C 0.60465 0.90184 0.42307
 C589 C 0.63204 0.88885 0.42321
 C590 C 0.65493 0.90152 0.44093
 C591 C 0.69275 0.98139 0.51106
 C592 C 0.68828 1.00759 0.52787
 C593 C 0.66081 1.02037 0.52808
 C594 C 0.63758 1.00702 0.51154
 C595 C 0.70112 0.92506 0.48092
 C596 C 0.72294 0.91104 0.48545
 C597 C 0.58865 0.97757 0.48135
 C598 C 0.56408 0.98592 0.48528
 H599 H 0.57817 0.93665 0.44020
 H600 H 0.58692 0.89188 0.40934
 H601 H 0.63556 0.86884 0.40953
 H602 H 0.67590 0.89072 0.44015
 H603 H 0.71455 0.97234 0.51142
 H604 H 0.70626 1.01806 0.54073
 H605 H 0.65753 1.04080 0.54106
 H606 H 0.61663 1.01785 0.51225
 C607 C 0.12545 0.46262 0.98557
 C608 C 0.14430 0.46524 1.01269
 C609 C 0.17262 0.45288 1.01169
 C610 C 0.18176 0.43762 0.98374
 C611 C 0.16329 0.43567 0.95629
 C612 C 0.13497 0.44820 0.95721
 C613 C 0.11658 0.44548 0.92974
 C614 C 0.12596 0.43081 0.90211
 C615 C 0.15372 0.41863 0.90118
 C616 C 0.17227 0.42096 0.92791
 C617 C 0.19105 0.45560 1.03918
 C618 C 0.18160 0.46987 1.06698
 C619 C 0.15374 0.48167 1.06809
 C620 C 0.13526 0.47953 1.04130
 C621 C 0.20863 0.42114 0.98496
 C622 C 0.22999 0.40619 0.98822
 C623 C 0.09592 0.47364 0.98751
 C624 C 0.07129 0.48232 0.99004
 H625 H 0.09482 0.45460 0.92934
 H626 H 0.11163 0.42890 0.88130
 H627 H 0.16093 0.40732 0.87964
 H628 H 0.19370 0.41121 0.92609
 H629 H 0.21294 0.44679 1.03948
 H630 H 0.19595 0.47173 1.08777
 H631 H 0.14649 0.49253 1.08984
 H632 H 0.11382 0.48905 1.04319
 C633 C -0.01223 0.37540 0.46596
 C634 C -0.02122 0.37397 0.43318
 C635 C -0.01843 0.34726 0.41539
 C636 C -0.00639 0.32212 0.43032
 C637 C 0.00173 0.32327 0.46334
 C638 C -0.00122 0.34997 0.48120
 C639 C 0.00735 0.35064 0.51403
 C640 C 0.01845 0.32565 0.52890
 C641 C 0.02128 0.29958 0.51149
 C642 C 0.01307 0.29828 0.47907
 C643 C -0.02753 0.34648 0.38268
 C644 C -0.03893 0.37135 0.36790
 C645 C -0.04144 0.39749 0.38518
 C646 C -0.03269 0.39893 0.41741
 C647 C -0.00171 0.29549 0.41130
 C648 C 0.00193 0.27399 0.39449
 C649 C -0.01195 0.40371 0.48268
 C650 C -0.01040 0.42831 0.49382
 H651 H 0.00545 0.37041 0.52854
 H652 H 0.02488 0.32651 0.55407
 H653 H 0.02990 0.28023 0.52317
 H654 H 0.01564 0.27751 0.46653
 H655 H -0.02601 0.32667 0.36819
 H656 H -0.04583 0.37033 0.34289
 H657 H -0.05034 0.41675 0.37360
 H658 H -0.03515 0.41978 0.42980
 C659 C 0.48700 -0.12365 -0.03145
 C660 C 0.46465 -0.13251 -0.05337
 C661 C 0.46736 -0.15920 -0.07130
 C662 C 0.49240 -0.17698 -0.06724
 C663 C 0.51412 -0.16876 -0.04433
 C664 C 0.51145 -0.14206 -0.02646
 C665 C 0.53380 -0.13413 -0.00422
 C666 C 0.55805 -0.15204 0.00031
 C667 C 0.56060 -0.17814 -0.01706
 C668 C 0.53895 -0.18653 -0.03914
 C669 C 0.44492 -0.16726 -0.09339
 C670 C 0.42046 -0.14959 -0.09760
 C671 C 0.41779 -0.12359 -0.08004
 C672 C 0.43964 -0.11496 -0.05829
 C673 C 0.49635 -0.20302 -0.08747
 C674 C 0.49961 -0.22432 -0.10472
 C675 C 0.48655 -0.09432 -0.01690
 C676 C 0.48777 -0.06922 -0.00707
 H677 H 0.53273 -0.11409 0.00996
 H678 H 0.57495 -0.14563 0.01741
 H679 H 0.57947 -0.19197 -0.01345
 H680 H 0.54188 -0.20706 -0.05205
 H681 H 0.44600 -0.18730 -0.10756
 H682 H 0.40352 -0.15610 -0.11462
 H683 H 0.39871 -0.10999 -0.08334
 H684 H 0.43670 -0.09447 -0.04535
 C685 C 0.00683 -0.11800 1.03589
 C686 C -0.01797 -0.13670 1.03329
 C687 C -0.01871 -0.16384 1.05020
 C688 C 0.00553 -0.17238 1.06931
 C689 C 0.03092 -0.15439 1.07056
 C690 C 0.03135 -0.12690 1.05435
 C691 C 0.05640 -0.10866 1.05743
 C692 C 0.08082 -0.11781 1.07481
 C693 C 0.08070 -0.14500 1.08991
 C694 C 0.05600 -0.16307 1.08811
 C695 C -0.04403 -0.18178 1.04776
 C696 C -0.06791 -0.17325 1.02910
 C697 C -0.06715 -0.14681 1.01250
 C698 C -0.04254 -0.12865 1.01450
 C699 C 0.00371 -0.19878 1.08896
 C700 C 0.00178 -0.22031 1.10581
 C701 C 0.00616 -0.08875 1.02177
 C702 C 0.00471 -0.06379 1.01210
 H703 H 0.05737 -0.08720 1.04644
 H704 H 0.09994 -0.10372 1.07652
 H705 H 0.09978 -0.15207 1.10325
 H706 H 0.05686 -0.18398 1.10037
 H707 H -0.04561 -0.20260 1.06013
 H708 H -0.08709 -0.18726 1.02748
 H709 H -0.08574 -0.14032 0.99800
 H710 H -0.04297 -0.10831 1.00111
 C711 C 0.51058 0.38109 0.53777
 C712 C 0.49188 0.35800 0.52714
 C713 C 0.49032 0.33131 0.54485
 C714 C 0.50746 0.32785 0.57315
 C715 C 0.52714 0.35044 0.58295
 C716 C 0.52873 0.37709 0.56521
 C717 C 0.54830 0.39947 0.57581
 C718 C 0.56571 0.39567 0.60317
 C719 C 0.56417 0.36964 0.62046
 C720 C 0.54516 0.34721 0.61058
 C721 C 0.47119 0.30872 0.53390
 C722 C 0.45409 0.31235 0.50628
 C723 C 0.45559 0.33842 0.48903
 C724 C 0.47423 0.36107 0.49924
 C725 C 0.50414 0.30160 0.59282
 C726 C 0.50131 0.28009 0.60955
 C727 C 0.50897 0.40994 0.52281
 C728 C 0.50673 0.43477 0.51294
 H729 H 0.55042 0.42006 0.56306
 H730 H 0.58044 0.41302 0.61104
 H731 H 0.57776 0.36682 0.64168
 H732 H 0.54478 0.32735 0.62481
 H733 H 0.46931 0.28804 0.54649
 H734 H 0.43958 0.29483 0.49822
 H735 H 0.44226 0.34111 0.46759
 H736 H 0.47477 0.38090 0.48497
 C737 C 0.49131 1.12420 0.53989
 C738 C 0.46610 1.14189 0.54244
 C739 C 0.46740 1.16884 0.56012
 C740 C 0.49397 1.17810 0.57491
 C741 C 0.51924 1.16052 0.57211
 C742 C 0.51789 1.13349 0.55466
 C743 C 0.54338 1.11607 0.55277
 C744 C 0.56936 1.12509 0.56764
 C745 C 0.57068 1.15157 0.58455
 C746 C 0.54601 1.16919 0.58679
 C747 C 0.44176 1.18583 0.56286
 C748 C 0.41562 1.17654 0.54849
 C749 C 0.41445 1.15036 0.53097
 C750 C 0.43933 1.13311 0.52795
 C751 C 0.49524 1.20522 0.59376
 C752 C 0.49655 1.22744 0.60990
 C753 C 0.48981 1.09549 0.52422
 C754 C 0.49049 1.07077 0.51346
 H755 H 0.54355 1.09532 0.53982
 H756 H 0.58859 1.11148 0.56599
 H757 H 0.59094 1.15850 0.59602
 H758 H 0.54817 1.18961 0.60019
 H759 H 0.44163 1.20641 0.57613
 H760 H 0.39617 1.18974 0.55094
 H761 H 0.39411 1.14328 0.51980
 H762 H 0.43736 1.11284 0.51421
 C763 C -0.00356 0.62176 1.04038
 C764 C 0.01632 0.62694 1.06627
 C765 C 0.01616 0.65432 1.08308
 C766 C -0.00395 0.67639 1.07409
 C767 C -0.02406 0.67107 1.04850
 C768 C -0.02379 0.64371 1.03154
 C769 C -0.04411 0.63888 1.00615
 C770 C -0.06434 0.66035 0.99788
 C771 C -0.06466 0.68704 1.01447
 C772 C -0.04474 0.69249 1.03946
 C773 C 0.03618 0.65889 1.10890
 C774 C 0.05564 0.63702 1.11804
 C775 C 0.05572 0.61024 1.10174
 C776 C 0.03644 0.60514 1.07609
 C777 C -0.00388 0.70429 1.09158
 C778 C -0.00288 0.72694 1.10703
 C779 C -0.00360 0.59333 1.02403
 C780 C -0.00224 0.56873 1.01306
 H781 H -0.04473 0.61842 0.99265
 H782 H -0.07989 0.65623 0.97853
 H783 H -0.08043 0.70362 1.00794
 H784 H -0.04581 0.71356 1.05167
 H785 H 0.03697 0.67932 1.12241
 H786 H 0.07069 0.64087 1.13793
 H787 H 0.07079 0.59330 1.10906
 H788 H 0.03746 0.58392 1.06420
 C789 C 0.51468 0.61676 -0.04534
 C790 C 0.53929 0.63578 -0.04554
 C791 C 0.53756 0.66360 -0.06103
 C792 C 0.51107 0.67242 -0.07589
 C793 C 0.48633 0.65357 -0.07527
 C794 C 0.48811 0.62571 -0.05999
 C795 C 0.46306 0.60723 -0.06000
 C796 C 0.43711 0.61592 -0.07478
 C797 C 0.43541 0.64309 -0.08977
 C798 C 0.45962 0.66180 -0.09002
 C799 C 0.56265 0.68192 -0.06149
 C800 C 0.58866 0.67317 -0.04687
 C801 C 0.59023 0.64618 -0.03140
 C802 C 0.56591 0.62758 -0.03073
 C803 C 0.50923 0.70045 -0.09257
 C804 C 0.50675 0.72319 -0.10725
 C805 C 0.51667 0.58731 -0.03187
 C806 C 0.51629 0.56217 -0.02262
 H807 H 0.46320 0.58590 -0.04861
 H808 H 0.41821 0.60148 -0.07458
 H809 H 0.41522 0.64972 -0.10126
 H810 H 0.45714 0.68274 -0.10193
 H811 H 0.56243 0.70313 -0.07316
 H812 H 0.60769 0.68742 -0.04750
 H813 H 0.61048 0.63952 -0.02005
 H814 H 0.56819 0.60672 -0.01857
 C815 C 0.01399 1.11477 0.45323
 C816 C 0.02626 1.13983 0.46876
 C817 C 0.02606 1.16758 0.45299
 C818 C 0.01382 1.17005 0.42164
 C819 C 0.00266 1.14469 0.40560
 C820 C 0.00254 1.11708 0.42149
 C821 C -0.00919 1.09220 0.40500
 C822 C -0.02026 1.09450 0.37373
 C823 C -0.01983 1.12142 0.35812
 C824 C -0.00852 1.14627 0.37373
 C825 C 0.03828 1.19232 0.46912
 C826 C 0.05060 1.18972 0.49981
 C827 C 0.05096 1.16259 0.51509
 C828 C 0.03889 1.13786 0.49988
 C829 C 0.01197 1.19854 0.40588
 C830 C 0.00951 1.22152 0.39159
 C831 C 0.01277 1.08648 0.46943
 C832 C 0.01042 1.06200 0.48027
 H833 H -0.00987 1.07070 0.41596
 H834 H -0.02910 1.07525 0.36152
 H835 H -0.02826 1.12306 0.33374
 H836 H -0.00842 1.16663 0.36043
 H837 H 0.03860 1.21383 0.45810
 H838 H 0.05998 1.20885 0.51177
 H839 H 0.06063 1.16069 0.53889
 H840 H 0.03968 1.11719 0.51265
 C841 C 0.77684 0.69623 0.85971
 C842 C 0.80095 0.68175 0.87375
 C843 C 0.79692 0.66443 0.90176
 C844 C 0.76877 0.66170 0.91535
 C845 C 0.74465 0.67624 0.90139
 C846 C 0.74871 0.69378 0.87364
 C847 C 0.72419 0.70830 0.86022
 C848 C 0.69653 0.70520 0.87357
 C849 C 0.69253 0.68768 0.90047
 C850 C 0.71624 0.67341 0.91441
 C851 C 0.82129 0.64991 0.91534
 C852 C 0.84882 0.65231 0.90146
 C853 C 0.85272 0.66927 0.87404
 C854 C 0.82912 0.68397 0.86029
 C855 C 0.76426 0.64341 0.94323
 C856 C 0.75990 0.62799 0.96613
 C857 C 0.77980 0.71234 0.82993
 C858 C 0.77746 0.72561 0.80508
 H859 H 0.72601 0.72225 0.83935
 H860 H 0.67811 0.71649 0.86298
 H861 H 0.67096 0.68519 0.91067
 H862 H 0.71201 0.66012 0.93543
 H863 H 0.81932 0.63655 0.93672
 H864 H 0.86721 0.64099 0.91208
 H865 H 0.87415 0.67108 0.86340
 H866 H 0.83311 0.69710 0.83910
 C867 C 0.29056 0.18943 0.35524
 C868 C 0.28779 0.20326 0.38569
 C869 C 0.28106 0.18617 0.41320
 C870 C 0.27714 0.15540 0.40995
 C871 C 0.28253 0.14129 0.38004
 C872 C 0.28932 0.15844 0.35258
 C873 C 0.29396 0.14410 0.32269
 C874 C 0.29204 0.11357 0.32002
 C875 C 0.28537 0.09677 0.34689
 C876 C 0.28064 0.11035 0.37664
 C877 C 0.27776 0.20053 0.44334
 C878 C 0.28104 0.23094 0.44615
 C879 C 0.28754 0.24767 0.41917
 C880 C 0.29085 0.23410 0.38919
 C881 C 0.26649 0.13849 0.43695
 C882 C 0.25787 0.12435 0.45946
 C883 C 0.28855 0.20699 0.32637
 C884 C 0.28289 0.22119 0.30284
 H885 H 0.29933 0.15637 0.30128
 H886 H 0.29571 0.10290 0.29701
 H887 H 0.28385 0.07307 0.34467
 H888 H 0.27563 0.09636 0.39690
 H889 H 0.27277 0.18841 0.46500
 H890 H 0.27851 0.24157 0.46939
 H891 H 0.29005 0.27128 0.42148
 H892 H 0.29611 0.24792 0.36887
 C893 C 0.72699 0.30889 0.36570
 C894 C 0.70296 0.32311 0.37997
 C895 C 0.70680 0.33837 0.40974
 C896 C 0.73472 0.33958 0.42466
 C897 C 0.75882 0.32557 0.41027
 C898 C 0.75496 0.31006 0.38074
 C899 C 0.77950 0.29619 0.36677
 C900 C 0.80696 0.29785 0.38141
 C901 C 0.81070 0.31316 0.41026
 C902 C 0.78698 0.32684 0.42468
 C903 C 0.68247 0.35228 0.42385
 C904 C 0.65515 0.35120 0.40888
 C905 C 0.65145 0.33651 0.37957
 C906 C 0.67506 0.32259 0.36513
 C907 C 0.73896 0.35599 0.45431
 C908 C 0.74282 0.37006 0.47863
 C909 C 0.72392 0.29341 0.33526
 C910 C 0.72620 0.28012 0.31028
 H911 H 0.77790 0.28396 0.34441
 H912 H 0.82543 0.28719 0.37028
 H913 H 0.83207 0.31442 0.42156
 H914 H 0.79099 0.33841 0.44719
 H915 H 0.68426 0.36404 0.44658
 H916 H 0.63681 0.36181 0.42023
 H917 H 0.63018 0.33584 0.36798
 H918 H 0.67125 0.31143 0.34231
 C919 C 0.22253 0.80696 0.87004
 C920 C 0.20147 0.80483 0.89463
 C921 C 0.20601 0.82010 0.92428
 C922 C 0.23140 0.83766 0.92883
 C923 C 0.25240 0.83993 0.90414
 C924 C 0.24808 0.82435 0.87473
 C925 C 0.26983 0.82637 0.85068
 C926 C 0.29484 0.84354 0.85542
 C927 C 0.29888 0.85902 0.88410
 C928 C 0.27801 0.85732 0.90827
 C929 C 0.18503 0.81713 0.94891
 C930 C 0.16021 0.79959 0.94428
 C931 C 0.15564 0.78491 0.91513
 C932 C 0.17599 0.78741 0.89047
 C933 C 0.23594 0.85399 0.95849
 C934 C 0.24044 0.86874 0.98222
 C935 C 0.21979 0.78958 0.84084
 C936 C 0.22213 0.77547 0.81641
 H937 H 0.26775 0.81493 0.82786
 H938 H 0.31112 0.84485 0.83669
 H939 H 0.31834 0.87236 0.88770
 H940 H 0.28228 0.86969 0.93022
 H941 H 0.18771 0.82807 0.97200
 H942 H 0.14446 0.79734 0.96345
 H943 H 0.13629 0.77141 0.91164
 H944 H 0.17162 0.77555 0.86820
 C945 C 0.28688 0.81453 0.14789
 C946 C 0.28808 0.79928 0.11810
 C947 C 0.28121 0.81418 0.08909
 C948 C 0.27353 0.84423 0.09021
 C949 C 0.27536 0.86017 0.11958
 C950 C 0.28152 0.84512 0.14864
 C951 C 0.28127 0.86101 0.17806
 C952 C 0.27645 0.89123 0.17865
 C953 C 0.27120 0.90614 0.15007
 C954 C 0.27039 0.89086 0.12080
 C955 C 0.28168 0.79838 0.05959
 C956 C 0.28881 0.76863 0.05884
 C957 C 0.29551 0.75403 0.08728
 C958 C 0.29513 0.76908 0.11668
 C959 C 0.26257 0.85852 0.06160
 C960 C 0.25395 0.87122 0.03809
 C961 C 0.28528 0.79803 0.17747
 C962 C 0.27967 0.78457 0.20146
 H963 H 0.28480 0.85020 0.20080
 H964 H 0.27672 0.90308 0.20139
 H965 H 0.26748 0.92962 0.15059
 H966 H 0.26601 0.90333 0.09919
 H967 H 0.27671 0.80887 0.03686
 H968 H 0.28912 0.75684 0.03607
 H969 H 0.30103 0.73093 0.08657
 H970 H 0.30063 0.75693 0.13822
 C971 C 0.77339 0.30535 0.64401
 C972 C 0.74688 0.30112 0.62658
 C973 C 0.74198 0.31668 0.59756
 C974 C 0.76367 0.33611 0.58606
 C975 C 0.79085 0.33894 0.60237
 C976 C 0.79571 0.32348 0.63155
 C977 C 0.82283 0.32676 0.64770
 C978 C 0.84475 0.34469 0.63517
 C979 C 0.84005 0.35980 0.60661
 C980 C 0.81339 0.35718 0.59036
 C981 C 0.71508 0.31272 0.58090
 C982 C 0.69363 0.29383 0.59263
 C983 C 0.69843 0.27847 0.62099
 C984 C 0.72470 0.28194 0.63782
 C985 C 0.75751 0.35398 0.55819
 C986 C 0.75233 0.36915 0.53525
 C987 C 0.77561 0.29336 0.67613
 C988 C 0.77242 0.28341 0.70264
 H989 H 0.82743 0.31518 0.66985
 H990 H 0.86557 0.34677 0.64754
 H991 H 0.85723 0.37348 0.59690
 H992 H 0.81075 0.36933 0.56819
 H993 H 0.71036 0.32410 0.55865
 H994 H 0.67321 0.29107 0.57961
 H995 H 0.68173 0.26376 0.63000
 H996 H 0.72741 0.26927 0.65957
 C997 C 0.21897 0.18805 0.62453
 C998 C 0.19612 0.17194 0.60939
 C999 C 0.20145 0.15656 0.58005
 C1000 C 0.22966 0.15735 0.56624
 C1001 C 0.25235 0.17399 0.58101
 C1002 C 0.24694 0.18962 0.61006
 C1003 C 0.27002 0.20638 0.62418
 C1004 C 0.29757 0.20736 0.61022
 C1005 C 0.30295 0.19164 0.58210
 C1006 C 0.28067 0.17517 0.56749
 C1007 C 0.17831 0.14045 0.56536
 C1008 C 0.15070 0.13959 0.57926
 C1009 C 0.14553 0.15464 0.60795
 C1010 C 0.16795 0.17067 0.62297
 C1011 C 0.23588 0.14019 0.53760
 C1012 C 0.24183 0.12546 0.51436
 C1013 C 0.21500 0.20188 0.65579
 C1014 C 0.21659 0.21391 0.68170
 H1015 H 0.26709 0.21906 0.64600
 H1016 H 0.31482 0.22041 0.62132
 H1017 H 0.32446 0.19230 0.57145
 H1018 H 0.28592 0.16347 0.54550
 H1019 H 0.18130 0.12844 0.54300
 H1020 H 0.13321 0.12720 0.56769
 H1021 H 0.12403 0.15393 0.61857
 H1022 H 0.16298 0.18217 0.64518
 C1023 C 0.71757 0.68912 0.12963
 C1024 C 0.70182 0.66321 0.12163
 C1025 C 0.70842 0.64757 0.09283
 C1026 C 0.73082 0.65796 0.07241
 C1027 C 0.74544 0.68475 0.07950
 C1028 C 0.73867 0.70049 0.10811
 C1029 C 0.75379 0.72717 0.11486
 C1030 C 0.77509 0.73780 0.09407
 C1031 C 0.78180 0.72228 0.06615
 C1032 C 0.76720 0.69606 0.05880
 C1033 C 0.69259 0.62151 0.08542
 C1034 C 0.67084 0.61124 0.10589
 C1035 C 0.66444 0.62656 0.13407
 C1036 C 0.67975 0.65228 0.14199
 C1037 C 0.73951 0.64075 0.04466
 C1038 C 0.74681 0.62642 0.02162
 C1039 C 0.71563 0.70213 0.16152
 C1040 C 0.71893 0.71389 0.18738
 H1041 H 0.74920 0.74022 0.13610
 H1042 H 0.78642 0.75821 0.09967
 H1043 H 0.79838 0.73061 0.05008
 H1044 H 0.77313 0.68483 0.03674
 H1045 H 0.69676 0.60890 0.06372
 H1046 H 0.65886 0.59131 0.09982
 H1047 H 0.64748 0.61851 0.14979
 H1048 H 0.67397 0.66374 0.16394
 C1049 C 0.20852 0.63453 0.23932
 C1050 C 0.18381 0.62745 0.22010
 C1051 C 0.17095 0.59907 0.22218
 C1052 C 0.18356 0.57774 0.24265
 C1053 C 0.20950 0.58423 0.26011
 C1054 C 0.22191 0.61287 0.25866
 C1055 C 0.24720 0.61934 0.27733
 C1056 C 0.25986 0.59804 0.29687
 C1057 C 0.24777 0.56994 0.29816
 C1058 C 0.22289 0.56297 0.28002
 C1059 C 0.14530 0.59290 0.20402
 C1060 C 0.13338 0.61381 0.18343
 C1061 C 0.14645 0.64136 0.18078
 C1062 C 0.17121 0.64835 0.19913
 C1063 C 0.16861 0.55006 0.24762
 C1064 C 0.15494 0.52786 0.25242
 C1065 C 0.21868 0.66460 0.24135
 C1066 C 0.22681 0.68961 0.24439
 H1067 H 0.25742 0.64087 0.27705
 H1068 H 0.27914 0.60338 0.31107
 H1069 H 0.25768 0.55347 0.31337
 H1070 H 0.21423 0.54084 0.28183
 H1071 H 0.13421 0.57194 0.20559
 H1072 H 0.11385 0.60864 0.16955
 H1073 H 0.13706 0.65759 0.16487
 H1074 H 0.18041 0.67020 0.19661
 C1075 C 0.69791 0.14147 0.75664
 C1076 C 0.66824 0.13714 0.76463
 C1077 C 0.65520 0.10899 0.76032
 C1078 C 0.67247 0.08496 0.75023
 C1079 C 0.70225 0.08920 0.74269
 C1080 C 0.71498 0.11767 0.74564
 C1081 C 0.74475 0.12155 0.73771
 C1082 C 0.76149 0.09790 0.72727
 C1083 C 0.74905 0.07000 0.72450
 C1084 C 0.71975 0.06556 0.73209
 C1085 C 0.62498 0.10560 0.76635
 C1086 C 0.60843 0.12908 0.77760
 C1087 C 0.62153 0.15631 0.78323
 C1088 C 0.65109 0.16043 0.77687
 C1089 C 0.65981 0.05572 0.74958
 C1090 C 0.64806 0.03200 0.75044
 C1091 C 0.71041 0.17068 0.75863
 C1092 C 0.72014 0.19524 0.76007
 H1093 H 0.75541 0.14283 0.73960
 H1094 H 0.78425 0.10123 0.72134
 H1095 H 0.76215 0.05169 0.71640
 H1096 H 0.71096 0.04351 0.72941
 H1097 H 0.61381 0.08483 0.76231
 H1098 H 0.58538 0.12603 0.78227
 H1099 H 0.60869 0.17442 0.79232
 H1100 H 0.66027 0.18209 0.78143
 C1101 C 0.79718 0.13076 0.26482
 C1102 C 0.82315 0.12616 0.24726
 C1103 C 0.83483 0.09747 0.24473
 C1104 C 0.82046 0.07359 0.25981
 C1105 C 0.79478 0.07827 0.27777
 C1106 C 0.78306 0.10701 0.28026
 C1107 C 0.75722 0.11125 0.29811
 C1108 C 0.74339 0.08769 0.31314
 C1109 C 0.75491 0.05956 0.31074
 C1110 C 0.78034 0.05476 0.29327
 C1111 C 0.86071 0.09333 0.22678
 C1112 C 0.87443 0.11681 0.21155
 C1113 C 0.86293 0.14490 0.21397
 C1114 C 0.83764 0.14967 0.23162
 C1115 C 0.83247 0.04444 0.25642
 C1116 C 0.84480 0.02152 0.25202
 C1117 C 0.78446 0.15972 0.26537
 C1118 C 0.77474 0.18413 0.26386
 H1119 H 0.74751 0.13277 0.30068
 H1120 H 0.72363 0.09130 0.32673
 H1121 H 0.74409 0.04134 0.32246
 H1122 H 0.78854 0.03252 0.29205
 H1123 H 0.87066 0.07196 0.22427
 H1124 H 0.89409 0.11315 0.19781
 H1125 H 0.87364 0.16311 0.20212
 H1126 H 0.82953 0.17194 0.23266
 C1127 C 0.29366 0.62715 0.76775
 C1128 C 0.31905 0.62303 0.74906
 C1129 C 0.33217 0.59492 0.74753
 C1130 C 0.31970 0.57111 0.76460
 C1131 C 0.29453 0.57529 0.78356
 C1132 C 0.28140 0.60346 0.78509
 C1133 C 0.25603 0.60717 0.80389
 C1134 C 0.24403 0.58365 0.82077
 C1135 C 0.25698 0.55611 0.81937
 C1136 C 0.28197 0.55184 0.80100
 C1137 C 0.35758 0.59129 0.72863
 C1138 C 0.36973 0.61481 0.71198
 C1139 C 0.35697 0.64237 0.71365
 C1140 C 0.33175 0.64650 0.73161
 C1141 C 0.33270 0.54236 0.76154
 C1142 C 0.34532 0.51969 0.75666
 C1143 C 0.28013 0.65574 0.76834
 C1144 C 0.27006 0.68002 0.76718
 H1145 H 0.24525 0.62821 0.80571
 H1146 H 0.22458 0.58682 0.83501
 H1147 H 0.24759 0.53793 0.83254
 H1148 H 0.29134 0.53006 0.80063
 H1149 H 0.36843 0.57033 0.72659
 H1150 H 0.38918 0.61163 0.69774
 H1151 H 0.36665 0.66066 0.70095
 H1152 H 0.32255 0.66835 0.73189
 C1153 C 0.29071 0.36162 0.73101
 C1154 C 0.28324 0.38302 0.70783
 C1155 C 0.29666 0.41129 0.70915
 C1156 C 0.31719 0.41795 0.73383
 C1157 C 0.32450 0.39658 0.75720
 C1158 C 0.31155 0.36818 0.75547
 C1159 C 0.31977 0.34691 0.77856
 C1160 C 0.33943 0.35380 0.80332
 C1161 C 0.35173 0.38177 0.80538
 C1162 C 0.34460 0.40291 0.78254
 C1163 C 0.28904 0.43233 0.68566
 C1164 C 0.26862 0.42564 0.66154
 C1165 C 0.25543 0.39801 0.66029
 C1166 C 0.26257 0.37684 0.68312
 C1167 C 0.33137 0.44649 0.73543
 C1168 C 0.34476 0.46912 0.73929
 C1169 C 0.27672 0.33298 0.73048
 C1170 C 0.26604 0.30880 0.73180
 H1171 H 0.31104 0.32478 0.77783
 H1172 H 0.34516 0.33732 0.82094
 H1173 H 0.36699 0.38709 0.82467
 H1174 H 0.35495 0.42425 0.78512
 H1175 H 0.29873 0.45412 0.68573
 H1176 H 0.26299 0.44200 0.64375
 H1177 H 0.23958 0.39293 0.64152
 H1178 H 0.25181 0.35562 0.68118
 C1179 C 0.79395 0.86235 0.22763
 C1180 C 0.77895 0.88635 0.21390
 C1181 C 0.79235 0.91462 0.21361
 C1182 C 0.82064 0.91854 0.22691
 C1183 C 0.83611 0.89425 0.23950
 C1184 C 0.82263 0.86609 0.24006
 C1185 C 0.83822 0.84224 0.25345
 C1186 C 0.86650 0.84603 0.26545
 C1187 C 0.87979 0.87358 0.26475
 C1188 C 0.86485 0.89750 0.25205
 C1189 C 0.77688 0.93846 0.20018
 C1190 C 0.74892 0.93443 0.18728
 C1191 C 0.73581 0.90675 0.18751
 C1192 C 0.75055 0.88289 0.20068
 C1193 C 0.83339 0.94762 0.22996
 C1194 C 0.84572 0.97065 0.23510
 C1195 C 0.77986 0.83390 0.22997
 C1196 C 0.76937 0.80981 0.23309
 H1197 H 0.82879 0.82041 0.25476
 H1198 H 0.87811 0.82751 0.27544
 H1199 H 0.90173 0.87648 0.27420
 H1200 H 0.87617 0.91846 0.25207
 H1201 H 0.78629 0.96035 0.19941
 H1202 H 0.73737 0.95288 0.17705
 H1203 H 0.71409 0.90373 0.17746
 H1204 H 0.73950 0.86176 0.20033
 C1205 C 0.70531 0.87312 0.75902
 C1206 C 0.68103 0.87870 0.73872
 C1207 C 0.66778 0.90678 0.73923
 C1208 C 0.67886 0.92904 0.76016
 C1209 C 0.70319 0.92351 0.78037
 C1210 C 0.71649 0.89539 0.77980
 C1211 C 0.74079 0.89024 0.80021
 C1212 C 0.75164 0.91232 0.82061
 C1213 C 0.73862 0.93986 0.82114
 C1214 C 0.71463 0.94551 0.80128
 C1215 C 0.64352 0.91189 0.71861
 C1216 C 0.63250 0.88978 0.69844
 C1217 C 0.64528 0.86221 0.69824
 C1218 C 0.66945 0.85667 0.71781
 C1219 C 0.66467 0.95733 0.76067
 C1220 C 0.65087 0.97966 0.75879
 C1221 C 0.71852 0.84437 0.75821
 C1222 C 0.72836 0.82003 0.75618
 H1223 H 0.75162 0.86917 0.80060
 H1224 H 0.77025 0.90805 0.83609
 H1225 H 0.74714 0.95693 0.83701
 H1226 H 0.70520 0.96725 0.80245
 H1227 H 0.63276 0.93295 0.71785
 H1228 H 0.61388 0.89400 0.68297
 H1229 H 0.63626 0.84496 0.68303
 H1230 H 0.67869 0.83486 0.71655
 C1231 C 0.20759 0.36956 0.26658
 C1232 C 0.22176 0.39337 0.28251
 C1233 C 0.20794 0.42120 0.28414
 C1234 C 0.18003 0.42488 0.26994
 C1235 C 0.16551 0.40080 0.25480
 C1236 C 0.17941 0.37309 0.25297
 C1237 C 0.16469 0.34944 0.23724
 C1238 C 0.13694 0.35302 0.22397
 C1239 C 0.12326 0.38011 0.22589
 C1240 C 0.13727 0.40381 0.24105
 C1241 C 0.22256 0.44483 0.29986
 C1242 C 0.25010 0.44102 0.31371
 C1243 C 0.26362 0.41376 0.31217
 C1244 C 0.24972 0.39011 0.29674
 C1245 C 0.16662 0.45357 0.26904
 C1246 C 0.15392 0.47645 0.26582
 C1247 C 0.22183 0.34143 0.26355
 C1248 C 0.23219 0.31746 0.25986
 H1249 H 0.17440 0.32790 0.23502
 H1250 H 0.12601 0.33467 0.21214
 H1251 H 0.10169 0.38277 0.21556
 H1252 H 0.12566 0.42441 0.24197
 H1253 H 0.21283 0.46639 0.30169
 H1254 H 0.26100 0.45931 0.32570
 H1255 H 0.28500 0.41092 0.32298
 H1256 H 0.26106 0.36932 0.29612
 C1257 C 0.12285 0.23913 0.77425
 C1258 C 0.11282 0.26698 0.78476
 C1259 C 0.08677 0.26909 0.80308
 C1260 C 0.07069 0.24336 0.81072
 C1261 C 0.08006 0.21563 0.79904
 C1262 C 0.10626 0.21353 0.78089
 C1263 C 0.11549 0.18556 0.77013
 C1264 C 0.09921 0.16033 0.77677
 C1265 C 0.07355 0.16239 0.79434
 C1266 C 0.06401 0.18967 0.80547
 C1267 C 0.07761 0.29715 0.81381
 C1268 C 0.09369 0.32238 0.80672
 C1269 C 0.11909 0.32034 0.78876
 C1270 C 0.12863 0.29304 0.77783
 C1271 C 0.04530 0.24551 0.83163
 C1272 C 0.02472 0.24817 0.84953
 C1273 C 0.15164 0.23691 0.75973
 C1274 C 0.17657 0.23695 0.75044
 H1275 H 0.13529 0.18300 0.75643
 H1276 H 0.10655 0.13910 0.76823
 H1277 H 0.06097 0.14273 0.79942
 H1278 H 0.04394 0.19019 0.81906
 H1279 H 0.05795 0.29989 0.82773
 H1280 H 0.08642 0.34364 0.81519
 H1281 H 0.13146 0.34002 0.78325
 H1282 H 0.14847 0.29264 0.76384
 C1283 C 0.62991 0.73919 0.28639
 C1284 C 0.60395 0.72655 0.27353
 C1285 C 0.57743 0.72821 0.29120
 C1286 C 0.57691 0.74282 0.32149
 C1287 C 0.60283 0.75574 0.33422
 C1288 C 0.62937 0.75385 0.31673
 C1289 C 0.65496 0.76690 0.33018
 C1290 C 0.65431 0.78149 0.35983
 C1291 C 0.62837 0.78339 0.37683
 C1292 C 0.60288 0.77069 0.36432
 C1293 C 0.55187 0.71514 0.27793
 C1294 C 0.55238 0.70102 0.24800
 C1295 C 0.57819 0.69967 0.23064
 C1296 C 0.60377 0.71224 0.24317
 C1297 C 0.54984 0.74484 0.33965
 C1298 C 0.52791 0.74711 0.35554
 C1299 C 0.65741 0.73734 0.26903
 C1300 C 0.68163 0.73750 0.25764
 H1301 H 0.67573 0.76609 0.31799
 H1302 H 0.67405 0.79143 0.36964
 H1303 H 0.62797 0.79479 0.39985
 H1304 H 0.58327 0.77279 0.37850
 H1305 H 0.53126 0.71573 0.29050
 H1306 H 0.53261 0.69115 0.23818
 H1307 H 0.57836 0.68884 0.20732
 H1308 H 0.62334 0.71075 0.22882
 C1309 C 0.63262 0.25928 0.21923
 C1310 C 0.62434 0.28319 0.19955
 C1311 C 0.59718 0.28237 0.18260
 C1312 C 0.57845 0.25756 0.18522
 C1313 C 0.58631 0.23410 0.20578
 C1314 C 0.61341 0.23501 0.22288
 C1315 C 0.62087 0.21114 0.24295
 C1316 C 0.60216 0.18704 0.24607
 C1317 C 0.57574 0.18611 0.22933
 C1318 C 0.56780 0.20930 0.20938
 C1319 C 0.58965 0.30641 0.16283
 C1320 C 0.60825 0.33065 0.16001
 C1321 C 0.63478 0.33142 0.17654
 C1322 C 0.64294 0.30790 0.19588
 C1323 C 0.55179 0.25551 0.16577
 C1324 C 0.52999 0.25333 0.14919
 C1325 C 0.66203 0.25826 0.23284
 C1326 C 0.68712 0.25650 0.24177
 H1327 H 0.64117 0.21090 0.25650
 H1328 H 0.60821 0.16897 0.26156
 H1329 H 0.56131 0.16731 0.23180
 H1330 H 0.54701 0.20757 0.19688
 H1331 H 0.56936 0.30668 0.14935
 H1332 H 0.60215 0.34885 0.14476
 H1333 H 0.64920 0.35025 0.17423
 H1334 H 0.66395 0.30932 0.20789
 C1335 C 0.12845 0.75396 0.72264
 C1336 C 0.11391 0.78066 0.71598
 C1337 C 0.08728 0.78034 0.69794
 C1338 C 0.07527 0.75331 0.68668
 C1339 C 0.08957 0.72658 0.69379
 C1340 C 0.11615 0.72689 0.71183
 C1341 C 0.13013 0.69984 0.71822
 C1342 C 0.11832 0.67332 0.70700
 C1343 C 0.09242 0.67303 0.68931
 C1344 C 0.07807 0.69926 0.68281
 C1345 C 0.07345 0.80735 0.69121
 C1346 C 0.08550 0.83393 0.70199
 C1347 C 0.11141 0.83423 0.71972
 C1348 C 0.12560 0.80797 0.72663
 C1349 C 0.04874 0.75279 0.66697
 C1350 C 0.02704 0.75136 0.65017
 C1351 C 0.15737 0.75422 0.73762
 C1352 C 0.18225 0.75292 0.74743
 H1353 H 0.15027 0.69886 0.73199
 H1354 H 0.12933 0.65286 0.71208
 H1355 H 0.08335 0.65237 0.68058
 H1356 H 0.05792 0.69784 0.66908
 H1357 H 0.05321 0.80820 0.67759
 H1358 H 0.07465 0.85440 0.69657
 H1359 H 0.12062 0.85494 0.72808
 H1360 H 0.14575 0.80929 0.74041
 C1361 C 0.87130 0.74452 0.71606
 C1362 C 0.88891 0.77026 0.71588
 C1363 C 0.91630 0.77018 0.69987
 C1364 C 0.92604 0.74434 0.68411
 C1365 C 0.90903 0.71822 0.68555
 C1366 C 0.88153 0.71837 0.70135
 C1367 C 0.86460 0.69223 0.70161
 C1368 C 0.87473 0.66648 0.68729
 C1369 C 0.90170 0.66625 0.67211
 C1370 C 0.91869 0.69180 0.67107
 C1371 C 0.93325 0.79633 0.69969
 C1372 C 0.92346 0.82184 0.71481
 C1373 C 0.89670 0.82194 0.73038
 C1374 C 0.87953 0.79651 0.73100
 C1375 C 0.95278 0.74511 0.66525
 C1376 C 0.97469 0.74641 0.64916
 C1377 C 0.84170 0.74574 0.72867
 C1378 C 0.81653 0.74764 0.73692
 H1379 H 0.84340 0.69144 0.71286
 H1380 H 0.86155 0.64663 0.68792
 H1381 H 0.90946 0.64621 0.66098
 H1382 H 0.93948 0.69058 0.65891
 H1383 H 0.95426 0.79734 0.68796
 H1384 H 0.93673 0.84164 0.71443
 H1385 H 0.88920 0.84182 0.74207
 H1386 H 0.85892 0.79765 0.74352
 C1387 C 0.37374 0.24051 0.21381
 C1388 C 0.39516 0.26153 0.22333
 C1389 C 0.42270 0.26230 0.20765
 C1390 C 0.42879 0.24191 0.18265
 C1391 C 0.40796 0.21988 0.17435
 C1392 C 0.38031 0.21931 0.18979
 C1393 C 0.35959 0.19759 0.18035
 C1394 C 0.36617 0.17665 0.15688
 C1395 C 0.39326 0.17705 0.14200
 C1396 C 0.41396 0.19844 0.15044
 C1397 C 0.44351 0.28386 0.21723
 C1398 C 0.43737 0.30404 0.24166
 C1399 C 0.41051 0.30324 0.25702
 C1400 C 0.38954 0.28230 0.24804
 C1401 C 0.45574 0.24453 0.16437
 C1402 C 0.47767 0.24704 0.14853
 C1403 C 0.34423 0.24230 0.22651
 C1404 C 0.31918 0.24461 0.23504
 H1405 H 0.33815 0.19648 0.19107
 H1406 H 0.35013 0.16005 0.15018
 H1407 H 0.39825 0.16076 0.12374
 H1408 H 0.43471 0.19789 0.13815
 H1409 H 0.46475 0.28528 0.20606
 H1410 H 0.45357 0.32037 0.24872
 H1411 H 0.40588 0.31894 0.27601
 H1412 H 0.36899 0.28248 0.26074
 C1413 C 0.36936 0.76012 0.29311
 C1414 C 0.38390 0.78619 0.30336
 C1415 C 0.41226 0.78470 0.31758
 C1416 C 0.42557 0.75704 0.32249
 C1417 C 0.41110 0.73096 0.31212
 C1418 C 0.38303 0.73251 0.29724
 C1419 C 0.36899 0.70607 0.28733
 C1420 C 0.38218 0.67890 0.29214
 C1421 C 0.40953 0.67740 0.30679
 C1422 C 0.42394 0.70305 0.31665
 C1423 C 0.42648 0.81115 0.32707
 C1424 C 0.41295 0.83826 0.32303
 C1425 C 0.38501 0.83965 0.30978
 C1426 C 0.37051 0.81395 0.30018
 C1427 C 0.45319 0.75516 0.34002
 C1428 C 0.47555 0.75317 0.35555
 C1429 C 0.33968 0.76130 0.28024
 C1430 C 0.31454 0.76092 0.27118
 H1431 H 0.34768 0.70606 0.27585
 H1432 H 0.37109 0.65891 0.28448
 H1433 H 0.41965 0.65624 0.31053
 H1434 H 0.44523 0.70073 0.32783
 H1435 H 0.44818 0.81114 0.33759
 H1436 H 0.42415 0.85828 0.33044
 H1437 H 0.37448 0.86072 0.30695
 H1438 H 0.34866 0.81601 0.29047
 C1439 C 0.86562 0.26465 0.79346
 C1440 C 0.88187 0.29051 0.80065
 C1441 C 0.91030 0.28849 0.81460
 C1442 C 0.92210 0.26058 0.82196
 C1443 C 0.90603 0.23468 0.81430
 C1444 C 0.87780 0.23671 0.79993
 C1445 C 0.86213 0.21046 0.79279
 C1446 C 0.87395 0.18304 0.79971
 C1447 C 0.90149 0.18107 0.81379
 C1448 C 0.91746 0.20651 0.82101
 C1449 C 0.92615 0.31469 0.82125
 C1450 C 0.91423 0.34212 0.81448
 C1451 C 0.88630 0.34408 0.80130
 C1452 C 0.87017 0.31864 0.79459
 C1453 C 0.95008 0.25838 0.83872
 C1454 C 0.97290 0.25589 0.85330
 C1455 C 0.83567 0.26654 0.78160
 C1456 C 0.81023 0.26660 0.77368
 H1457 H 0.84063 0.21082 0.78178
 H1458 H 0.86164 0.16321 0.79410
 H1459 H 0.91057 0.15972 0.81914
 H1460 H 0.93884 0.20380 0.83184
 H1461 H 0.94790 0.31425 0.83165
 H1462 H 0.92668 0.36195 0.81964
 H1463 H 0.87705 0.36543 0.79628
 H1464 H 0.84843 0.32118 0.78472
 C1465 C 0.56525 0.97257 0.60642
 C1466 C 0.58383 0.99748 0.60997
 C1467 C 0.59686 1.00397 0.64032
 C1468 C 0.59142 0.98536 0.66682
 C1469 C 0.57395 0.95973 0.66291
 C1470 C 0.56087 0.95327 0.63247
 C1471 C 0.54330 0.92775 0.62898
 C1472 C 0.53879 0.90899 0.65494
 C1473 C 0.55145 0.91535 0.68482
 C1474 C 0.56879 0.94046 0.68892
 C1475 C 0.61474 1.02941 0.64356
 C1476 C 0.61940 1.04801 0.61752
 C1477 C 0.60660 1.04168 0.58777
 C1478 C 0.58919 1.01666 0.58383
 C1479 C 0.60417 0.99259 0.69787
 C1480 C 0.61583 0.99855 0.72318
 C1481 C 0.54751 0.97019 0.57757
 C1482 C 0.53290 0.97365 0.55377
 H1483 H 0.53312 0.92198 0.60612
 H1484 H 0.52538 0.88944 0.65187
 H1485 H 0.54785 0.90075 0.70492
 H1486 H 0.57810 0.94456 0.71261
 H1487 H 0.62518 1.03530 0.66623
 H1488 H 0.63300 1.06744 0.62044
 H1489 H 0.61021 1.05619 0.56759
 H1490 H 0.58012 1.01252 0.56007
 C1491 C 0.06600 0.47339 1.11328
 C1492 C 0.08425 0.49844 1.11787
 C1493 C 0.09885 0.50290 1.14776
 C1494 C 0.09351 0.48355 1.17362
 C1495 C 0.07497 0.45876 1.16924
 C1496 C 0.06151 0.45341 1.13873
 C1497 C 0.04331 0.42840 1.13466
 C1498 C 0.03829 0.40929 1.16020
 C1499 C 0.05113 0.41473 1.19018
 C1500 C 0.06933 0.43914 1.19478
 C1501 C 0.11835 0.52707 1.15120
 C1502 C 0.12229 0.54704 1.12628
 C1503 C 0.10699 0.54343 1.09748
 C1504 C 0.08812 0.51953 1.09323
 C1505 C 0.10699 0.48967 1.20463
 C1506 C 0.11943 0.49552 1.22954
 C1507 C 0.05014 0.47029 1.08316
 C1508 C 0.03718 0.47275 1.05805
 H1509 H 0.03279 0.42342 1.11178
 H1510 H 0.02427 0.39024 1.15673
 H1511 H 0.04700 0.39993 1.20999
 H1512 H 0.07882 0.44252 1.21850
 H1513 H 0.13090 0.53062 1.17305
 H1514 H 0.13722 0.56543 1.12938
 H1515 H 0.10990 0.55909 1.07821
 H1516 H 0.07696 0.51771 1.07028
 C1517 C -0.05568 0.04073 1.11372
 C1518 C -0.08483 0.04991 1.11767
 C1519 C -0.10012 0.04241 1.14615
 C1520 C -0.08604 0.02563 1.17032
 C1521 C -0.05609 0.01881 1.16761
 C1522 C -0.04081 0.02650 1.13923
 C1523 C -0.01099 0.01890 1.13663
 C1524 C 0.00330 0.00415 1.16144
 C1525 C -0.01170 -0.00340 1.18923
 C1526 C -0.04108 0.00377 1.19241
 C1527 C -0.12950 0.05137 1.14936
 C1528 C -0.14326 0.06745 1.12515
 C1529 C -0.12827 0.07465 1.09721
 C1530 C -0.09938 0.06593 1.09336
 C1531 C -0.10270 0.01421 1.19705
 C1532 C -0.11738 0.00512 1.21884
 C1533 C -0.04279 0.04025 1.08199
 C1534 C -0.03164 0.03513 1.05645
 H1535 H 0.00162 0.02451 1.11555
 H1536 H 0.02613 -0.00143 1.15909
 H1537 H -0.00051 -0.01486 1.20844
 H1538 H -0.05183 -0.00247 1.21450
 H1539 H -0.14205 0.04620 1.17060
 H1540 H -0.16569 0.07428 1.12806
 H1541 H -0.13907 0.08706 1.07845
 H1542 H -0.08837 0.07212 1.07142
 C1543 C 0.44351 0.53923 0.61585
 C1544 C 0.41328 0.54505 0.61714
 C1545 C 0.39736 0.53794 0.64532
 C1546 C 0.41182 0.52456 0.67169
 C1547 C 0.44252 0.52133 0.67146
 C1548 C 0.45843 0.52881 0.64343
 C1549 C 0.48905 0.52475 0.64332
 C1550 C 0.50354 0.51371 0.67026
 C1551 C 0.48795 0.50644 0.69773
 C1552 C 0.45777 0.51012 0.69846
 C1553 C 0.36707 0.54384 0.64607
 C1554 C 0.35290 0.55612 0.61953
 C1555 C 0.36844 0.56254 0.59173
 C1556 C 0.39832 0.55714 0.59044
 C1557 C 0.39508 0.51290 0.69828
 C1558 C 0.38097 0.50358 0.72043
 C1559 C 0.45799 0.53803 0.58503
 C1560 C 0.46990 0.53268 0.55999
 H1561 H 0.50207 0.53033 0.62253
 H1562 H 0.52697 0.51082 0.66981
 H1563 H 0.49933 0.49792 0.71858
 H1564 H 0.44658 0.50429 0.72040
 H1565 H 0.35414 0.53916 0.66718
 H1566 H 0.32973 0.56058 0.62049
 H1567 H 0.35732 0.57187 0.57110
 H1568 H 0.40968 0.56275 0.56853
 C1569 C 0.44455 0.45399 -0.11889
 C1570 C 0.45925 0.45889 -0.14824
 C1571 C 0.44297 0.46519 -0.17658
 C1572 C 0.41216 0.46643 -0.17526
 C1573 C 0.39742 0.45847 -0.14668
 C1574 C 0.41375 0.45233 -0.11830
 C1575 C 0.39874 0.44528 -0.08967
 C1576 C 0.36833 0.44380 -0.08927
 C1577 C 0.35230 0.44969 -0.11708
 C1578 C 0.36656 0.45709 -0.14551
 C1579 C 0.45810 0.47071 -0.20555
 C1580 C 0.48852 0.46997 -0.20642
 C1581 C 0.50446 0.46389 -0.17861
 C1582 C 0.49009 0.45846 -0.14975
 C1583 C 0.39573 0.47714 -0.20267
 C1584 C 0.38153 0.48579 -0.22520
 C1585 C 0.46071 0.45686 -0.08897
 C1586 C 0.47418 0.46333 -0.06497
 H1587 H 0.41039 0.44043 -0.06753
 H1588 H 0.35715 0.43794 -0.06734
 H1589 H 0.32868 0.44852 -0.11662
 H1590 H 0.35320 0.46144 -0.16656
 H1591 H 0.44660 0.47541 -0.22779
 H1592 H 0.49979 0.47408 -0.22877
 H1593 H 0.52807 0.46334 -0.17941
 H1594 H 0.50334 0.45359 -0.12874
 C1595 C -0.06974 0.95956 0.38897
 C1596 C -0.09391 0.97877 0.38781
 C1597 C -0.10748 0.98504 0.35779
 C1598 C -0.09690 0.97189 0.32921
 C1599 C -0.07441 0.95076 0.33074
 C1600 C -0.06070 0.94464 0.36079
 C1601 C -0.03778 0.92402 0.36180
 C1602 C -0.02883 0.90956 0.33385
 C1603 C -0.04235 0.91543 0.30444
 C1604 C -0.06485 0.93586 0.30274
 C1605 C -0.13113 1.00495 0.35705
 C1606 C -0.14094 1.01839 0.38519
 C1607 C -0.12756 1.01234 0.41455
 C1608 C -0.10440 0.99270 0.41606
 C1609 C -0.10906 0.98061 0.29844
 C1610 C -0.12055 0.98815 0.27367
 C1611 C -0.05146 0.95980 0.41759
 C1612 C -0.03635 0.96467 0.44089
 H1613 H -0.02684 0.91868 0.38424
 H1614 H -0.01135 0.89370 0.33501
 H1615 H -0.03534 0.90411 0.28282
 H1616 H -0.07473 0.93975 0.27937
 H1617 H -0.14229 1.01035 0.33480
 H1618 H -0.15898 1.03361 0.38419
 H1619 H -0.13514 1.02301 0.43623
 H1620 H -0.09492 0.98847 0.43955
 C1621 C 0.05094 0.53056 0.39179
 C1622 C 0.07379 0.55026 0.38431
 C1623 C 0.08982 0.54625 0.35544
 C1624 C 0.08297 0.52228 0.33462
 C1625 C 0.05890 0.50367 0.34118
 C1626 C 0.04272 0.50791 0.36982
 C1627 C 0.01896 0.48872 0.37621
 C1628 C 0.01155 0.46595 0.35496
 C1629 C 0.02746 0.46177 0.32694
 C1630 C 0.05086 0.48037 0.31997
 C1631 C 0.11276 0.56613 0.34846
 C1632 C 0.11959 0.58931 0.36949
 C1633 C 0.10418 0.59291 0.39797
 C1634 C 0.08149 0.57365 0.40544
 C1635 C 0.10158 0.51554 0.30757
 C1636 C 0.11716 0.50931 0.28535
 C1637 C 0.03823 0.53055 0.42354
 C1638 C 0.02749 0.52597 0.44932
 H1639 H 0.00574 0.49117 0.39755
 H1640 H -0.00663 0.45149 0.36027
 H1641 H 0.02163 0.44405 0.31049
 H1642 H 0.06249 0.47632 0.29778
 H1643 H 0.12543 0.56413 0.32664
 H1644 H 0.13683 0.60464 0.36365
 H1645 H 0.10977 0.61081 0.41429
 H1646 H 0.06993 0.57733 0.42777
 C1647 C 0.54504 0.02844 -0.11359
 C1648 C 0.56407 0.05040 -0.12507
 C1649 C 0.58056 0.04503 -0.15330
 C1650 C 0.57706 0.01813 -0.17036
 C1651 C 0.55650 -0.00304 -0.16007
 C1652 C 0.54040 0.00212 -0.13153
 C1653 C 0.52026 -0.01962 -0.12129
 C1654 C 0.51626 -0.04568 -0.13870
 C1655 C 0.53208 -0.05070 -0.16664
 C1656 C 0.55200 -0.02968 -0.17733
 C1657 C 0.60082 0.06662 -0.16337
 C1658 C 0.60388 0.09314 -0.14669
 C1659 C 0.58703 0.09875 -0.11961
 C1660 C 0.56754 0.07751 -0.10856
 C1661 C 0.59530 0.01199 -0.19785
 C1662 C 0.61127 0.00778 -0.22026
 C1663 C 0.53310 0.03056 -0.08155
 C1664 C 0.52327 0.02755 -0.05503
 H1665 H 0.50721 -0.01665 -0.09991
 H1666 H 0.50077 -0.06204 -0.13049
 H1667 H 0.52891 -0.07098 -0.18010
 H1668 H 0.56379 -0.03453 -0.19923
 H1669 H 0.61454 0.06319 -0.18410
 H1670 H 0.61943 0.10931 -0.15500
 H1671 H 0.58915 0.11956 -0.10696
 H1672 H 0.55509 0.08257 -0.08717
 C1673 C 0.62514 0.53330 -0.02657
 C1674 C 0.63141 0.55824 -0.04559
 C1675 C 0.65977 0.57102 -0.04454
 C1676 C 0.68161 0.55870 -0.02451
 C1677 C 0.67581 0.53277 -0.00699
 C1678 C 0.64745 0.51997 -0.00806
 C1679 C 0.64199 0.49422 0.00997
 C1680 C 0.66400 0.48151 0.02851
 C1681 C 0.69173 0.49413 0.02965
 C1682 C 0.69770 0.51949 0.01215
 C1683 C 0.66547 0.59632 -0.06323
 C1684 C 0.64375 0.60854 -0.08257
 C1685 C 0.61601 0.59593 -0.08373
 C1686 C 0.60975 0.57112 -0.06540
 C1687 C 0.70884 0.57441 -0.01941
 C1688 C 0.73038 0.58900 -0.01406
 C1689 C 0.59539 0.52269 -0.02416
 C1690 C 0.57057 0.51448 -0.02105
 H1691 H 0.62079 0.48354 0.00971
 H1692 H 0.65956 0.46173 0.04201
 H1693 H 0.70873 0.48417 0.04410
 H1694 H 0.71964 0.52843 0.01361
 H1695 H 0.68677 0.60680 -0.06326
 H1696 H 0.64847 0.62790 -0.09670
 H1697 H 0.59918 0.60555 -0.09869
 H1698 H 0.58782 0.56214 -0.06698
 C1699 C 0.11637 1.03519 0.47094
 C1700 C 0.14101 1.01834 0.47968
 C1701 C 0.16931 1.03133 0.47915
 C1702 C 0.17266 1.06111 0.47016
 C1703 C 0.14811 1.07764 0.46031
 C1704 C 0.11985 1.06459 0.46058
 C1705 C 0.09554 1.08160 0.45097
 C1706 C 0.09906 1.11074 0.44151
 C1707 C 0.12669 1.12358 0.44143
 C1708 C 0.15102 1.10732 0.45066
 C1709 C 0.19365 1.01422 0.48830
 C1710 C 0.19011 0.98508 0.49780
 C1711 C 0.16240 0.97240 0.49844
 C1712 C 0.13804 0.98875 0.48954
 C1713 C 0.20073 1.07563 0.47403
 C1714 C 0.22322 1.08886 0.47889
 C1715 C 0.08730 1.02314 0.47484
 C1716 C 0.06292 1.01415 0.47919
 H1717 H 0.07363 1.07254 0.45054
 H1718 H 0.08026 1.12341 0.43414
 H1719 H 0.12932 1.14624 0.43410
 H1720 H 0.17209 1.11824 0.45005
 H1721 H 0.21563 1.02314 0.48811
 H1722 H 0.20896 0.97228 0.50470
 H1723 H 0.15976 0.94977 0.50587
 H1724 H 0.11692 0.97794 0.49041
 C1725 C 0.11246 -0.04277 1.01617
 C1726 C 0.11596 -0.07179 1.00442
 C1727 C 0.14377 -0.08524 1.00603
 C1728 C 0.16791 -0.06941 1.01910
 C1729 C 0.16429 -0.04061 1.03142
 C1730 C 0.13639 -0.02721 1.02996
 C1731 C 0.13321 0.00169 1.04222
 C1732 C 0.15697 0.01691 1.05559
 C1733 C 0.18427 0.00377 1.05703
 C1734 C 0.18802 -0.02467 1.04509
 C1735 C 0.14677 -0.11434 0.99416
 C1736 C 0.12297 -0.12962 0.98102
 C1737 C 0.09578 -0.11639 0.97929
 C1738 C 0.09221 -0.08782 0.99076
 C1739 C 0.19657 -0.08252 1.01817
 C1740 C 0.21957 -0.09484 1.01551
 C1741 C 0.08423 -0.02899 1.01343
 C1742 C 0.06034 -0.01869 1.01026
 H1743 H 0.11238 0.01279 1.04161
 H1744 H 0.15418 0.03901 1.06488
 H1745 H 0.20265 0.01568 1.06746
 H1746 H 0.20964 -0.03405 1.04678
 H1747 H 0.16745 -0.12563 0.99501
 H1748 H 0.12562 -0.15183 0.97211
 H1749 H 0.07734 -0.12832 0.96902
 H1750 H 0.07061 -0.07847 0.98875
 C1751 C 0.61553 0.46071 0.51189
 C1752 C 0.62878 0.45399 0.54186
 C1753 C 0.65682 0.44091 0.54261
 C1754 C 0.67125 0.43457 0.51338
 C1755 C 0.65832 0.44199 0.48342
 C1756 C 0.63044 0.45537 0.48270
 C1757 C 0.61806 0.46304 0.45253
 C1758 C 0.63287 0.45758 0.42391
 C1759 C 0.65990 0.44392 0.42454
 C1760 C 0.67260 0.43618 0.45389
 C1761 C 0.66971 0.43424 0.57279
 C1762 C 0.65529 0.44052 0.60147
 C1763 C 0.62786 0.45341 0.60075
 C1764 C 0.61457 0.45999 0.57134
 C1765 C 0.69879 0.41927 0.51373
 C1766 C 0.72114 0.40567 0.51216
 C1767 C 0.58619 0.47209 0.51085
 C1768 C 0.56162 0.48101 0.50913
 H1769 H 0.59698 0.47355 0.45073
 H1770 H 0.62334 0.46399 0.40111
 H1771 H 0.67117 0.43946 0.40220
 H1772 H 0.69377 0.42579 0.45312
 H1773 H 0.69105 0.42427 0.57452
 H1774 H 0.66547 0.43537 0.62437
 H1775 H 0.61676 0.45826 0.62309
 H1776 H 0.59317 0.46991 0.57197
 C1777 C -0.11942 0.45765 0.49689
 C1778 C -0.12767 0.43541 0.47454
 C1779 C -0.15653 0.42389 0.47484
 C1780 C -0.17676 0.43465 0.49760
 C1781 C -0.16873 0.45745 0.51937
 C1782 C -0.13989 0.46905 0.51899
 C1783 C -0.13205 0.49151 0.54132
 C1784 C -0.15218 0.50209 0.56351
 C1785 C -0.18044 0.49070 0.56390
 C1786 C -0.18876 0.46865 0.54210
 C1787 C -0.16431 0.40134 0.45257
 C1788 C -0.14403 0.39042 0.43074
 C1789 C -0.11573 0.40168 0.43050
 C1790 C -0.10753 0.42396 0.45205
 C1791 C -0.20481 0.42026 0.50051
 C1792 C -0.22717 0.40662 0.50341
 C1793 C -0.08950 0.46772 0.49830
 C1794 C -0.06453 0.47571 0.50016
 H1795 H -0.11030 0.50098 0.54202
 H1796 H -0.14578 0.51910 0.58060
 H1797 H -0.19598 0.49894 0.58124
 H1798 H -0.21100 0.46051 0.54324
 H1799 H -0.18610 0.39196 0.45173
 H1800 H -0.15032 0.37314 0.41393
 H1801 H -0.10008 0.39308 0.41352
 H1802 H -0.08530 0.43209 0.45091
 C1803 C 0.37959 -0.04370 -0.00311
 C1804 C 0.37547 -0.07383 0.00387
 C1805 C 0.34690 -0.08602 0.00357
 C1806 C 0.32265 -0.06782 -0.00323
 C1807 C 0.32680 -0.03777 -0.01050
 C1808 C 0.35545 -0.02566 -0.01057
 C1809 C 0.35923 0.00446 -0.01790
 C1810 C 0.33527 0.02213 -0.02485
 C1811 C 0.30718 0.01028 -0.02463
 C1812 C 0.30286 -0.01935 -0.01755
 C1813 C 0.34328 -0.11632 0.01045
 C1814 C 0.36723 -0.13393 0.01758
 C1815 C 0.39519 -0.12188 0.01813
 C1816 C 0.39939 -0.09220 0.01144
 C1817 C 0.29361 -0.08014 -0.00094
 C1818 C 0.27082 -0.09289 0.00279
 C1819 C 0.40871 -0.03143 -0.00201
 C1820 C 0.43332 -0.02230 -0.00051
 H1821 H 0.38067 0.01463 -0.01833
 H1822 H 0.33852 0.04515 -0.03040
 H1823 H 0.28865 0.02411 -0.02997
 H1824 H 0.28065 -0.02765 -0.01771
 H1825 H 0.32199 -0.12679 0.01034
 H1826 H 0.36404 -0.15702 0.02277
 H1827 H 0.41375 -0.13559 0.02377
 H1828 H 0.42158 -0.08387 0.01235
 C1829 C 0.38090 1.03914 0.51236
 C1830 C 0.36101 1.02630 0.48996
 C1831 C 0.33205 1.03704 0.48774
 C1832 C 0.32333 1.06067 0.50773
 C1833 C 0.34292 1.07285 0.53089
 C1834 C 0.37185 1.06199 0.53325
 C1835 C 0.39128 1.07478 0.55617
 C1836 C 0.38234 1.09771 0.57620
 C1837 C 0.35407 1.10846 0.57379
 C1838 C 0.33447 1.09623 0.55146
 C1839 C 0.31265 1.02434 0.46471
 C1840 C 0.32172 1.00179 0.44427
 C1841 C 0.35012 0.99134 0.44635
 C1842 C 0.36961 1.00331 0.46893
 C1843 C 0.29559 1.07474 0.50185
 C1844 C 0.27367 1.08807 0.49571
 C1845 C 0.41111 1.03014 0.51218
 C1846 C 0.43616 1.02274 0.51028
 H1847 H 0.41354 1.06726 0.55878
 H1848 H 0.39751 1.10735 0.59350
 H1849 H 0.34728 1.12638 0.58928
 H1850 H 0.31267 1.10523 0.55057
 H1851 H 0.29035 1.03176 0.46221
 H1852 H 0.30667 0.99244 0.42667
 H1853 H 0.35711 0.97390 0.43034
 H1854 H 0.39148 0.99445 0.46958
 C1855 C -0.11047 0.54292 1.00961
 C1856 C -0.13318 0.52759 0.99318
 C1857 C -0.16164 0.53970 0.99197
 C1858 C -0.16709 0.56710 1.00703
 C1859 C -0.14436 0.58246 1.02343
 C1860 C -0.11592 0.57028 1.02479
 C1861 C -0.09341 0.58609 1.04106
 C1862 C -0.09887 0.61325 1.05550
 C1863 C -0.12666 0.62526 1.05403
 C1864 C -0.14925 0.61011 1.03828
 C1865 C -0.18402 0.52413 0.97522
 C1866 C -0.17835 0.49741 0.95994
 C1867 C -0.15045 0.48560 0.96102
 C1868 C -0.12804 0.50041 0.97743
 C1869 C -0.19552 0.58047 1.00375
 C1870 C -0.21855 0.59254 0.99988
 C1871 C -0.08120 0.53124 1.00953
 C1872 C -0.05671 0.52206 1.00841
 H1873 H -0.07139 0.57772 1.04273
 H1874 H -0.08140 0.62509 1.06778
 H1875 H -0.13076 0.64642 1.06516
 H1876 H -0.17053 0.62031 1.03787
 H1877 H -0.20608 0.53241 0.97376
 H1878 H -0.19570 0.48580 0.94721
 H1879 H -0.14615 0.46484 0.94911
 H1880 H -0.10670 0.49033 0.97762
 C1881 C 0.01261 0.61730 0.54234
 C1882 C 0.03644 0.62771 0.56130
 C1883 C 0.03468 0.65540 0.57746
 C1884 C 0.00909 0.67259 0.57457
 C1885 C -0.01416 0.66278 0.55437
 C1886 C -0.01238 0.63512 0.53822
 C1887 C -0.03607 0.62573 0.51846
 C1888 C -0.06076 0.64314 0.51469
 C1889 C -0.06249 0.67015 0.53046
 C1890 C -0.03954 0.67995 0.55013
 C1891 C 0.05868 0.66516 0.59650
 C1892 C 0.08373 0.64814 0.59948
 C1893 C 0.08547 0.62114 0.58367
 C1894 C 0.06213 0.61088 0.56484
 C1895 C 0.00625 0.69975 0.59319
 C1896 C 0.00378 0.72198 0.60915
 C1897 C 0.01247 0.58732 0.52965
 C1898 C 0.01074 0.56195 0.52089
 H1899 H -0.03569 0.60495 0.50558
 H1900 H -0.07863 0.63564 0.49941
 H1901 H -0.08172 0.68359 0.52744
 H1902 H -0.04188 0.70114 0.56185
 H1903 H 0.05841 0.68608 0.60909
 H1904 H 0.10193 0.65599 0.61407
 H1905 H 0.10505 0.60814 0.58594
 H1906 H 0.06451 0.58978 0.55290
 C1907 C 0.51294 0.12017 0.03919
 C1908 C 0.49165 0.14132 0.03088
 C1909 C 0.49090 0.16884 0.04747
 C1910 C 0.51142 0.17512 0.07236
 C1911 C 0.53357 0.15454 0.07964
 C1912 C 0.53439 0.12706 0.06295
 C1913 C 0.55661 0.10682 0.07091
 C1914 C 0.57734 0.11347 0.09472
 C1915 C 0.57645 0.14023 0.11109
 C1916 C 0.55488 0.16062 0.10373
 C1917 C 0.46918 0.18942 0.03896
 C1918 C 0.44874 0.18303 0.01479
 C1919 C 0.44945 0.15616 -0.00139
 C1920 C 0.47060 0.13546 0.00646
 C1921 C 0.50900 0.20206 0.09142
 C1922 C 0.50675 0.22402 0.10784
 C1923 C 0.51099 0.09041 0.02588
 C1924 C 0.50836 0.06512 0.01702
 H1925 H 0.55827 0.08576 0.05875
 H1926 H 0.59418 0.09778 0.10053
 H1927 H 0.59257 0.14525 0.12960
 H1928 H 0.55515 0.18118 0.11706
 H1929 H 0.46780 0.21065 0.05081
 H1930 H 0.43227 0.19903 0.00858
 H1931 H 0.43353 0.15133 -0.02016
 H1932 H 0.47039 0.11492 -0.00690
 C1933 C -0.01168 0.12471 0.96314
 C1934 C 0.01270 0.14366 0.96774
 C1935 C 0.01441 0.17068 0.95070
 C1936 C -0.00833 0.17870 0.92922
 C1937 C -0.03344 0.16049 0.92595
 C1938 C -0.03503 0.13333 0.94277
 C1939 C -0.05998 0.11516 0.93837
 C1940 C -0.08300 0.12378 0.91849
 C1941 C -0.08157 0.15041 0.90228
 C1942 C -0.05709 0.16859 0.90579
 C1943 C 0.03923 0.18900 0.95538
 C1944 C 0.06170 0.18091 0.97630
 C1945 C 0.06003 0.15452 0.99293
 C1946 C 0.03588 0.13601 0.98877
 C1947 C -0.00532 0.20496 0.90950
 C1948 C -0.00271 0.22643 0.89267
 C1949 C -0.01142 0.09528 0.97681
 C1950 C -0.01014 0.07020 0.98606
 H1951 H -0.06199 0.09418 0.95031
 H1952 H -0.10202 0.10969 0.91562
 H1953 H -0.09951 0.15700 0.88684
 H1954 H -0.05698 0.18910 0.89271
 H1955 H 0.04148 0.20978 0.94305
 H1956 H 0.08051 0.19520 0.97963
 H1957 H 0.07754 0.14836 1.00916
 H1958 H 0.03551 0.11576 1.00232
 C1959 C 0.48727 0.62348 0.46738
 C1960 C 0.51023 0.64355 0.47462
 C1961 C 0.51248 0.67048 0.45748
 C1962 C 0.49164 0.67730 0.43329
 C1963 C 0.46777 0.65796 0.42730
 C1964 C 0.46564 0.63094 0.44429
 C1965 C 0.44198 0.61168 0.43729
 C1966 C 0.42077 0.61904 0.41451
 C1967 C 0.42276 0.64549 0.39802
 C1968 C 0.44597 0.66478 0.40419
 C1969 C 0.53596 0.68988 0.46476
 C1970 C 0.55658 0.68296 0.48836
 C1971 C 0.55434 0.65669 0.50514
 C1972 C 0.53150 0.63712 0.49843
 C1973 C 0.49542 0.70349 0.41365
 C1974 C 0.49857 0.72488 0.39681
 C1975 C 0.48769 0.59401 0.48092
 C1976 C 0.48920 0.56885 0.48987
 H1977 H 0.43955 0.59083 0.44942
 H1978 H 0.40274 0.60411 0.40960
 H1979 H 0.40625 0.65109 0.38030
 H1980 H 0.44657 0.68510 0.39077
 H1981 H 0.53857 0.71061 0.45241
 H1982 H 0.57439 0.69807 0.49366
 H1983 H 0.57040 0.65145 0.52348
 H1984 H 0.53058 0.61701 0.51221
 C1985 C 0.50941 0.88333 0.46034
 C1986 C 0.48382 0.87416 0.44350
 C1987 C 0.48290 0.84632 0.42768
 C1988 C 0.50766 0.82783 0.42849
 C1989 C 0.53308 0.83678 0.44577
 C1990 C 0.53384 0.86449 0.46202
 C1991 C 0.55927 0.87277 0.47949
 C1992 C 0.58347 0.85436 0.48061
 C1993 C 0.58293 0.82751 0.46433
 C1994 C 0.55805 0.81868 0.44711
 C1995 C 0.45704 0.83769 0.41105
 C1996 C 0.43285 0.85607 0.40994
 C1997 C 0.43378 0.88333 0.42526
 C1998 C 0.45888 0.89238 0.44189
 C1999 C 0.50687 0.80000 0.41089
 C2000 C 0.50511 0.77739 0.39547
 C2001 C 0.51074 0.91279 0.47423
 C2002 C 0.50994 0.93793 0.48371
 H2003 H 0.56073 0.89354 0.49234
 H2004 H 0.60283 0.86110 0.49396
 H2005 H 0.60186 0.81342 0.46509
 H2006 H 0.55858 0.79756 0.43493
 H2007 H 0.45517 0.81667 0.39882
 H2008 H 0.41327 0.84909 0.39714
 H2009 H 0.41493 0.89753 0.42433
 H2010 H 0.45841 0.91374 0.45353
 C2011 C 0.02033 0.38191 0.96035
 C2012 C 0.02831 0.38037 0.92744
 C2013 C 0.02521 0.35342 0.91005
 C2014 C 0.01473 0.32793 0.92579
 C2015 C 0.00824 0.32913 0.95914
 C2016 C 0.01095 0.35622 0.97641
 C2017 C 0.00388 0.35697 1.00953
 C2018 C -0.00549 0.33166 1.02526
 C2019 C -0.00807 0.30519 1.00843
 C2020 C -0.00133 0.30381 0.97574
 C2021 C 0.03237 0.35279 0.87691
 C2022 C 0.04257 0.37793 0.86148
 C2023 C 0.04600 0.40414 0.87858
 C2024 C 0.03896 0.40549 0.91116
 C2025 C 0.00985 0.30085 0.90743
 C2026 C 0.00554 0.27875 0.89162
 C2027 C 0.01913 0.41051 0.97630
 C2028 C 0.01699 0.43525 0.98673
 H2029 H 0.00571 0.37706 1.02360
 H2030 H -0.01073 0.33258 1.05066
 H2031 H -0.01534 0.28560 1.02078
 H2032 H -0.00365 0.28272 0.96368
 H2033 H 0.03007 0.33293 0.86259
 H2034 H 0.04781 0.37709 0.83610
 H2035 H 0.05405 0.42357 0.86651
 H2036 H 0.04206 0.42638 0.92342
 C2037 C 0.49520 0.37814 0.03690
 C2038 C 0.47913 0.35305 0.02656
 C2039 C 0.48004 0.32674 0.04500
 C2040 C 0.49671 0.32579 0.07392
 C2041 C 0.51185 0.35129 0.08488
 C2042 C 0.51143 0.37736 0.06616
 C2043 C 0.52728 0.40235 0.07748
 C2044 C 0.54262 0.40173 0.10661
 C2045 C 0.54255 0.37642 0.12516
 C2046 C 0.52743 0.35143 0.11451
 C2047 C 0.46390 0.30192 0.03406
 C2048 C 0.44711 0.30311 0.00591
 C2049 C 0.44608 0.32887 -0.01194
 C2050 C 0.46195 0.35360 -0.00190
 C2051 C 0.49866 0.29869 0.09240
 C2052 C 0.50086 0.27663 0.10836
 C2053 C 0.49485 0.40522 0.01836
 C2054 C 0.49624 0.42916 0.00602
 H2055 H 0.52792 0.42268 0.06411
 H2056 H 0.55446 0.42108 0.11494
 H2057 H 0.55418 0.37617 0.14798
 H2058 H 0.52779 0.33238 0.12994
 H2059 H 0.46395 0.28144 0.04721
 H2060 H 0.43479 0.28395 -0.00206
 H2061 H 0.43294 0.32968 -0.03372
 H2062 H 0.46049 0.37317 -0.01651
 C2063 C -0.00792 0.87699 0.53840
 C2064 C -0.02731 0.85343 0.53117
 C2065 C -0.02555 0.82676 0.54890
 C2066 C -0.00418 0.82364 0.57355
 C2067 C 0.01563 0.84702 0.58032
 C2068 C 0.01374 0.87372 0.56277
 C2069 C 0.03375 0.89677 0.57021
 C2070 C 0.05497 0.89355 0.59418
 C2071 C 0.05679 0.86746 0.61130
 C2072 C 0.03742 0.84440 0.60455
 C2073 C -0.04551 0.80374 0.54152
 C2074 C -0.06651 0.80689 0.51729
 C2075 C -0.06804 0.83284 0.49983
 C2076 C -0.04868 0.85592 0.50657
 C2077 C -0.00267 0.79668 0.59234
 C2078 C -0.00107 0.77476 0.60863
 C2079 C -0.01039 0.90502 0.52180
 C2080 C -0.01045 0.92943 0.51047
 H2081 H 0.03333 0.91750 0.55758
 H2082 H 0.07010 0.91139 0.59947
 H2083 H 0.07332 0.86504 0.62989
 H2084 H 0.03978 0.82453 0.61850
 H2085 H -0.04508 0.78311 0.55437
 H2086 H -0.08164 0.78906 0.51200
 H2087 H -0.08440 0.83516 0.48105
 H2088 H -0.05077 0.87575 0.49247
 C2089 C 0.21675 0.30970 0.13213
 C2090 C 0.22877 0.29387 0.10592
 C2091 C 0.23492 0.30851 0.07662
 C2092 C 0.22876 0.33880 0.07366
 C2093 C 0.21452 0.35401 0.09893
 C2094 C 0.20861 0.33938 0.12834
 C2095 C 0.19517 0.35509 0.15365
 C2096 C 0.18742 0.38446 0.14994
 C2097 C 0.19303 0.39879 0.12110
 C2098 C 0.20650 0.38387 0.09582
 C2099 C 0.24775 0.29250 0.05106
 C2100 C 0.25426 0.26278 0.05437
 C2101 C 0.24818 0.24840 0.08304
 C2102 C 0.23560 0.26366 0.10861
 C2103 C 0.23828 0.35459 0.04537
 C2104 C 0.24611 0.36832 0.02222
 C2105 C 0.21770 0.29676 0.16391
 C2106 C 0.22267 0.28527 0.18937
 H2107 H 0.19033 0.34469 0.17636
 H2108 H 0.17698 0.39612 0.16952
 H2109 H 0.18694 0.42158 0.11831
 H2110 H 0.21043 0.39590 0.07384
 H2111 H 0.25281 0.30273 0.02827
 H2112 H 0.26405 0.25085 0.03458
 H2113 H 0.25322 0.22531 0.08549
 H2114 H 0.23112 0.25150 0.13037
 C2115 C 0.72149 0.81047 0.62914
 C2116 C 0.74935 0.81060 0.61438
 C2117 C 0.75347 0.82558 0.58487
 C2118 C 0.72981 0.84047 0.57040
 C2119 C 0.70171 0.83930 0.58436
 C2120 C 0.69751 0.82408 0.61380
 C2121 C 0.66930 0.82297 0.62727
 C2122 C 0.64582 0.83675 0.61215
 C2123 C 0.64995 0.85185 0.58347
 C2124 C 0.67755 0.85318 0.56961
 C2125 C 0.78148 0.82552 0.57059
 C2126 C 0.80481 0.81112 0.58514
 C2127 C 0.80087 0.79656 0.61411
 C2128 C 0.77355 0.79620 0.62862
 C2129 C 0.73505 0.85819 0.54217
 C2130 C 0.74061 0.87339 0.51938
 C2131 C 0.71870 0.79726 0.66067
 C2132 C 0.72134 0.78583 0.68660
 H2133 H 0.66515 0.81128 0.64941
 H2134 H 0.62430 0.83567 0.62270
 H2135 H 0.63165 0.86250 0.57183
 H2136 H 0.67972 0.86500 0.54719
 H2137 H 0.78564 0.83642 0.54796
 H2138 H 0.82603 0.81120 0.57385
 H2139 H 0.81905 0.78539 0.62537
 H2140 H 0.77173 0.78435 0.65099
 C2141 C 0.27336 0.68718 0.64106
 C2142 C 0.24550 0.68866 0.62590
 C2143 C 0.24043 0.67387 0.59614
 C2144 C 0.26320 0.65775 0.58171
 C2145 C 0.29107 0.65640 0.59670
 C2146 C 0.29620 0.67132 0.62645
 C2147 C 0.32415 0.66984 0.64101
 C2148 C 0.34648 0.65387 0.62664
 C2149 C 0.34147 0.63913 0.59760
 C2150 C 0.31409 0.64024 0.58273
 C2151 C 0.21238 0.67535 0.58156
 C2152 C 0.18991 0.69098 0.59606
 C2153 C 0.19481 0.70552 0.62519
 C2154 C 0.22220 0.70449 0.63998
 C2155 C 0.25754 0.64198 0.55190
 C2156 C 0.25249 0.62846 0.52745
 C2157 C 0.27734 0.70105 0.67233
 C2158 C 0.27581 0.71313 0.69813
 H2159 H 0.32897 0.68113 0.66351
 H2160 H 0.36779 0.65294 0.63804
 H2161 H 0.35892 0.62687 0.58650
 H2162 H 0.31114 0.62831 0.56027
 H2163 H 0.20745 0.66443 0.55888
 H2164 H 0.16860 0.69182 0.58462
 H2165 H 0.17731 0.71768 0.63639
 H2166 H 0.22478 0.71627 0.66252
 C2167 C 0.79024 0.18365 0.14256
 C2168 C 0.78343 0.15328 0.14376
 C2169 C 0.77722 0.13755 0.11484
 C2170 C 0.77725 0.15255 0.08512
 C2171 C 0.78682 0.18216 0.08362
 C2172 C 0.79340 0.19778 0.11254
 C2173 C 0.80221 0.22759 0.11074
 C2174 C 0.80464 0.24154 0.08104
 C2175 C 0.79827 0.22621 0.05267
 C2176 C 0.78940 0.19685 0.05380
 C2177 C 0.77039 0.10719 0.11652
 C2178 C 0.76967 0.09283 0.14610
 C2179 C 0.77528 0.10837 0.17451
 C2180 C 0.78182 0.13832 0.17347
 C2181 C 0.76598 0.13817 0.05640
 C2182 C 0.75700 0.12658 0.03210
 C2183 C 0.78838 0.20117 0.17165
 C2184 C 0.78295 0.21539 0.19534
 H2185 H 0.80753 0.24026 0.13223
 H2186 H 0.81153 0.26433 0.08005
 H2187 H 0.80021 0.23711 0.02965
 H2188 H 0.78479 0.18577 0.03112
 H2189 H 0.76576 0.09428 0.09502
 H2190 H 0.76459 0.06956 0.14699
 H2191 H 0.77450 0.09721 0.19747
 H2192 H 0.78572 0.14966 0.19606
 C2193 C 0.71110 0.21115 0.88276
 C2194 C 0.73511 0.21790 0.90333
 C2195 C 0.74149 0.19944 0.92984
 C2196 C 0.72378 0.17447 0.93553
 C2197 C 0.69825 0.16934 0.91678
 C2198 C 0.69183 0.18792 0.89032
 C2199 C 0.66640 0.18249 0.87166
 C2200 C 0.64756 0.15943 0.87923
 C2201 C 0.65403 0.14088 0.90485
 C2202 C 0.67911 0.14565 0.92345
 C2203 C 0.76600 0.20610 0.94968
 C2204 C 0.78371 0.23042 0.94345
 C2205 C 0.77751 0.24850 0.91742
 C2206 C 0.75353 0.24240 0.89749
 C2207 C 0.73273 0.15319 0.95929
 C2208 C 0.74019 0.13503 0.97856
 C2209 C 0.70981 0.22473 0.85140
 C2210 C 0.71345 0.23531 0.82529
 H2211 H 0.66063 0.19635 0.85150
 H2212 H 0.62780 0.15614 0.86519
 H2213 H 0.63957 0.12279 0.91055
 H2214 H 0.68314 0.13083 0.94328
 H2215 H 0.77163 0.19270 0.97022
 H2216 H 0.80233 0.23526 0.95890
 H2217 H 0.79131 0.26738 0.91266
 H2218 H 0.74943 0.25723 0.87771
 C2219 C 0.20583 0.69379 0.36677
 C2220 C 0.21230 0.70861 0.39608
 C2221 C 0.21880 0.69219 0.42416
 C2222 C 0.21869 0.66112 0.42257
 C2223 C 0.20943 0.64638 0.39404
 C2224 C 0.20280 0.66288 0.36604
 C2225 C 0.19387 0.64790 0.33760
 C2226 C 0.19136 0.61735 0.33696
 C2227 C 0.19832 0.60109 0.36419
 C2228 C 0.20723 0.61533 0.39252
 C2229 C 0.22600 0.70740 0.45307
 C2230 C 0.22667 0.73805 0.45415
 C2231 C 0.22034 0.75414 0.42660
 C2232 C 0.21328 0.73969 0.39779
 C2233 C 0.22931 0.64434 0.44966
 C2234 C 0.23800 0.62983 0.47183
 C2235 C 0.20880 0.70955 0.33686
 C2236 C 0.21543 0.72250 0.31286
 H2237 H 0.18828 0.65971 0.31585
 H2238 H 0.18366 0.60625 0.31536
 H2239 H 0.19642 0.57735 0.36347
 H2240 H 0.21208 0.60181 0.41322
 H2241 H 0.23103 0.69579 0.47510
 H2242 H 0.23215 0.74937 0.47646
 H2243 H 0.22088 0.77793 0.42755
 H2244 H 0.20830 0.75305 0.37698
 C2245 C 0.78033 0.80694 0.35856
 C2246 C 0.79563 0.83371 0.36352
 C2247 C 0.79007 0.85099 0.39147
 C2248 C 0.76911 0.84134 0.41409
 C2249 C 0.75463 0.81399 0.40972
 C2250 C 0.76035 0.79667 0.38193
 C2251 C 0.74526 0.76954 0.37781
 C2252 C 0.72506 0.75994 0.40043
 C2253 C 0.71942 0.77696 0.42759
 C2254 C 0.73399 0.80367 0.43234
 C2255 C 0.80538 0.87789 0.39579
 C2256 C 0.82555 0.88747 0.37306
 C2257 C 0.83086 0.87059 0.34564
 C2258 C 0.81612 0.84397 0.34082
 C2259 C 0.76174 0.85973 0.44142
 C2260 C 0.75528 0.87464 0.46435
 C2261 C 0.78143 0.79183 0.32780
 C2262 C 0.77767 0.77875 0.30282
 H2263 H 0.74896 0.75540 0.35719
 H2264 H 0.71369 0.73921 0.39681
 H2265 H 0.70367 0.76944 0.44508
 H2266 H 0.72886 0.81609 0.45389
 H2267 H 0.80194 0.89175 0.41673
 H2268 H 0.83709 0.90811 0.37672
 H2269 H 0.84651 0.87815 0.32807
 H2270 H 0.82104 0.83138 0.31933
 C2271 C 0.27889 0.30845 0.85361
 C2272 C 0.26781 0.33743 0.85310
 C2273 C 0.26428 0.35320 0.88244
 C2274 C 0.27127 0.33960 0.91208
 C2275 C 0.28372 0.31122 0.91247
 C2276 C 0.28768 0.29562 0.88305
 C2277 C 0.29982 0.26713 0.88391
 C2278 C 0.30787 0.25440 0.91311
 C2279 C 0.30395 0.26964 0.94194
 C2280 C 0.29200 0.29774 0.94177
 C2281 C 0.25320 0.38219 0.88140
 C2282 C 0.24571 0.39515 0.85217
 C2283 C 0.24878 0.37955 0.82347
 C2284 C 0.25946 0.35095 0.82382
 C2285 C 0.26491 0.35467 0.94201
 C2286 C 0.25961 0.36823 0.96625
 C2287 C 0.27711 0.29070 0.82459
 C2288 C 0.27206 0.27660 0.80054
 H2289 H 0.30334 0.25454 0.86206
 H2290 H 0.31718 0.23259 0.91337
 H2291 H 0.31020 0.25964 0.96455
 H2292 H 0.28939 0.30878 0.96477
 H2293 H 0.25028 0.39516 0.90310
 H2294 H 0.23733 0.41735 0.85181
 H2295 H 0.24279 0.38961 0.80080
 H2296 H 0.26120 0.33965 0.80090
 C2297 C 0.79018 0.37642 0.76679
 C2298 C 0.77727 0.40068 0.78261
 C2299 C 0.79107 0.42872 0.78165
 C2300 C 0.81767 0.43214 0.76497
 C2301 C 0.83064 0.40781 0.74924
 C2302 C 0.81675 0.37987 0.75002
 C2303 C 0.82998 0.35585 0.73400
 C2304 C 0.85658 0.35922 0.71839
 C2305 C 0.87018 0.38659 0.71749
 C2306 C 0.85743 0.41069 0.73259
 C2307 C 0.77783 0.45276 0.79749
 C2308 C 0.75161 0.44915 0.81390
 C2309 C 0.73810 0.42168 0.81489
 C2310 C 0.75069 0.39762 0.79946
 C2311 C 0.83191 0.46052 0.76327
 C2312 C 0.84578 0.48277 0.75966
 C2313 C 0.77646 0.34776 0.76775
 C2314 C 0.76606 0.32345 0.76769
 H2315 H 0.82015 0.33414 0.73370
 H2316 H 0.86671 0.34046 0.70697
 H2317 H 0.89074 0.38918 0.70509
 H2318 H 0.86894 0.43148 0.73119
 H2319 H 0.78758 0.47451 0.79736
 H2320 H 0.74172 0.46775 0.82590
 H2321 H 0.71774 0.41898 0.82767
 H2322 H 0.73939 0.37669 0.80085
 C2323 C 0.29411 0.86994 0.27183
 C2324 C 0.28089 0.89383 0.28798
 C2325 C 0.29340 0.92241 0.28583
 C2326 C 0.31897 0.92674 0.26756
 C2327 C 0.33250 0.90272 0.25186
 C2328 C 0.32006 0.87418 0.25408
 C2329 C 0.33375 0.85051 0.23789
 C2330 C 0.35893 0.85495 0.21992
 C2331 C 0.37111 0.88292 0.21770
 C2332 C 0.35821 0.90656 0.23350
 C2333 C 0.27979 0.94609 0.30193
 C2334 C 0.25446 0.94162 0.31971
 C2335 C 0.24221 0.91363 0.32184
 C2336 C 0.25517 0.88991 0.30617
 C2337 C 0.33156 0.95577 0.26421
 C2338 C 0.34418 0.97858 0.25948
 C2339 C 0.28044 0.84122 0.27181
 C2340 C 0.26998 0.81698 0.26985
 H2341 H 0.32505 0.82834 0.23871
 H2342 H 0.36900 0.83661 0.20762
 H2343 H 0.39066 0.88633 0.20366
 H2344 H 0.36865 0.92783 0.23106
 H2345 H 0.28857 0.96823 0.30092
 H2346 H 0.24429 0.95997 0.33190
 H2347 H 0.22255 0.91027 0.33570
 H2348 H 0.24490 0.86853 0.30853
 C2349 C 0.20601 0.86127 0.74361
 C2350 C 0.21030 0.88131 0.76953
 C2351 C 0.19686 0.90930 0.76866
 C2352 C 0.17927 0.91703 0.74185
 C2353 C 0.17490 0.89695 0.71598
 C2354 C 0.18834 0.86894 0.71686
 C2355 C 0.18326 0.84895 0.69105
 C2356 C 0.16521 0.85641 0.66518
 C2357 C 0.15201 0.88383 0.66434
 C2358 C 0.15677 0.90397 0.68936
 C2359 C 0.20093 0.92879 0.79515
 C2360 C 0.21773 0.92074 0.82178
 C2361 C 0.23094 0.89334 0.82260
 C2362 C 0.22739 0.87379 0.79680
 C2363 C 0.16372 0.94457 0.74235
 C2364 C 0.14963 0.96672 0.74430
 C2365 C 0.21848 0.83223 0.74536
 C2366 C 0.22818 0.80787 0.74768
 H2367 H 0.19290 0.82729 0.69074
 H2368 H 0.16132 0.84076 0.64580
 H2369 H 0.13792 0.88950 0.64427
 H2370 H 0.14598 0.92497 0.68774
 H2371 H 0.19113 0.95037 0.79563
 H2372 H 0.22051 0.93586 0.84188
 H2373 H 0.24396 0.88721 0.84335
 H2374 H 0.23806 0.85273 0.79850
 C2375 C 0.70739 0.36336 0.23865
 C2376 C 0.72086 0.38820 0.22462
 C2377 C 0.70631 0.41568 0.22486
 C2378 C 0.67828 0.41790 0.23869
 C2379 C 0.66431 0.39271 0.25148
 C2380 C 0.67927 0.36555 0.25234
 C2381 C 0.66559 0.34107 0.26705
 C2382 C 0.63748 0.34314 0.27941
 C2383 C 0.62240 0.36946 0.27743
 C2384 C 0.63556 0.39403 0.26369
 C2385 C 0.72027 0.44039 0.21112
 C2386 C 0.74785 0.43796 0.19740
 C2387 C 0.76206 0.41104 0.19708
 C2388 C 0.74882 0.38635 0.21053
 C2389 C 0.66412 0.44614 0.24131
 C2390 C 0.65105 0.46880 0.24470
 C2391 C 0.72214 0.33540 0.23925
 C2392 C 0.73288 0.31146 0.24109
 H2393 H 0.67632 0.32003 0.26899
 H2394 H 0.62730 0.32416 0.29036
 H2395 H 0.60044 0.37092 0.28676
 H2396 H 0.62288 0.41397 0.26251
 H2397 H 0.70998 0.46174 0.21069
 H2398 H 0.75822 0.45707 0.18692
 H2399 H 0.78346 0.40927 0.18639
 H2400 H 0.76069 0.36587 0.20978
 C2401 C 0.70352 0.62915 0.26211
 C2402 C 0.67625 0.62466 0.24651
 C2403 C 0.66300 0.59637 0.24650
 C2404 C 0.67714 0.57273 0.26213
 C2405 C 0.70415 0.57733 0.27823
 C2406 C 0.71740 0.60570 0.27825
 C2407 C 0.74446 0.60986 0.29438
 C2408 C 0.75807 0.58659 0.31006
 C2409 C 0.74512 0.55882 0.30999
 C2410 C 0.71845 0.55411 0.29428
 C2411 C 0.63582 0.59236 0.23043
 C2412 C 0.62226 0.61561 0.21475
 C2413 C 0.63528 0.64325 0.21469
 C2414 C 0.66187 0.64792 0.23047
 C2415 C 0.66390 0.54373 0.26049
 C2416 C 0.65107 0.52072 0.25697
 C2417 C 0.71732 0.65781 0.26052
 C2418 C 0.72740 0.68212 0.25768
 H2419 H 0.75531 0.63108 0.29507
 H2420 H 0.77876 0.59013 0.32233
 H2421 H 0.75580 0.54083 0.32218
 H2422 H 0.70916 0.53217 0.29486
 H2423 H 0.62478 0.57126 0.22968
 H2424 H 0.60166 0.61215 0.20234
 H2425 H 0.62491 0.66107 0.20197
 H2426 H 0.67105 0.66990 0.22968
 C2427 C 0.19855 0.12783 0.75611
 C2428 C 0.17400 0.12112 0.73639
 C2429 C 0.16092 0.09279 0.73776
 C2430 C 0.17276 0.07123 0.75853
 C2431 C 0.19720 0.07798 0.77835
 C2432 C 0.21011 0.10646 0.77722
 C2433 C 0.23452 0.11281 0.79728
 C2434 C 0.24589 0.09156 0.81782
 C2435 C 0.23330 0.06366 0.81884
 C2436 C 0.20920 0.05682 0.79938
 C2437 C 0.13617 0.08667 0.71802
 C2438 C 0.12471 0.10794 0.69759
 C2439 C 0.13758 0.13563 0.69621
 C2440 C 0.16208 0.14221 0.71510
 C2441 C 0.15995 0.04203 0.75843
 C2442 C 0.14774 0.01861 0.75573
 C2443 C 0.21173 0.15678 0.75439
 C2444 C 0.22173 0.18115 0.75188
 H2445 H 0.24503 0.13421 0.79727
 H2446 H 0.26458 0.09677 0.83302
 H2447 H 0.24223 0.04723 0.83481
 H2448 H 0.20008 0.03486 0.80100
 H2449 H 0.12534 0.06548 0.71819
 H2450 H 0.10575 0.10291 0.68275
 H2451 H 0.12847 0.15216 0.68051
 H2452 H 0.17137 0.16406 0.71300
 C2453 C 0.29557 0.13689 0.22906
 C2454 C 0.32513 0.13371 0.23852
 C2455 C 0.33778 0.10536 0.23909
 C2456 C 0.32060 0.08037 0.23077
 C2457 C 0.29127 0.08360 0.22061
 C2458 C 0.27870 0.11205 0.21967
 C2459 C 0.24923 0.11485 0.20975
 C2460 C 0.23266 0.09018 0.20097
 C2461 C 0.24498 0.06233 0.20193
 C2462 C 0.27397 0.05894 0.21164
 C2463 C 0.36744 0.10268 0.24865
 C2464 C 0.38398 0.12731 0.25754
 C2465 C 0.37146 0.15504 0.25734
 C2466 C 0.34236 0.15831 0.24813
 C2467 C 0.33284 0.05146 0.23523
 C2468 C 0.34499 0.02878 0.24120
 C2469 C 0.28242 0.16564 0.23069
 C2470 C 0.27272 0.18996 0.23356
 H2471 H 0.23875 0.13608 0.20863
 H2472 H 0.21014 0.09268 0.19341
 H2473 H 0.23202 0.04324 0.19510
 H2474 H 0.28269 0.03688 0.21194
 H2475 H 0.37821 0.08159 0.24928
 H2476 H 0.40660 0.12484 0.26474
 H2477 H 0.38433 0.17413 0.26439
 H2478 H 0.33358 0.18031 0.24869
 C2479 C 0.79639 0.64037 0.73386
 C2480 C 0.82199 0.63650 0.75267
 C2481 C 0.83564 0.60863 0.75342
 C2482 C 0.82347 0.58484 0.73549
 C2483 C 0.79836 0.58891 0.71602
 C2484 C 0.78475 0.61685 0.71519
 C2485 C 0.75956 0.62051 0.69570
 C2486 C 0.74816 0.59715 0.67751
 C2487 C 0.76150 0.56979 0.67834
 C2488 C 0.78634 0.56558 0.69736
 C2489 C 0.86126 0.60519 0.77240
 C2490 C 0.87319 0.62874 0.78981
 C2491 C 0.85995 0.65610 0.78884
 C2492 C 0.83443 0.65998 0.77091
 C2493 C 0.83645 0.55613 0.73843
 C2494 C 0.84860 0.53322 0.74326
 C2495 C 0.78203 0.66854 0.73434
 C2496 C 0.77126 0.69247 0.73612
 H2497 H 0.74848 0.64141 0.69429
 H2498 H 0.72888 0.60031 0.66270
 H2499 H 0.75256 0.55172 0.66417
 H2500 H 0.79604 0.54394 0.69721
 H2501 H 0.87251 0.58441 0.77385
 H2502 H 0.89285 0.62575 0.80405
 H2503 H 0.86951 0.67442 0.80205
 H2504 H 0.82484 0.68166 0.77123
 C2505 C 0.86931 0.76028 0.21292
 C2506 C 0.87643 0.78304 0.19113
 C2507 C 0.90392 0.78307 0.17533
 C2508 C 0.92401 0.76010 0.18104
 C2509 C 0.91735 0.73801 0.20380
 C2510 C 0.88998 0.73815 0.21983
 C2511 C 0.88376 0.71566 0.24221
 C2512 C 0.90397 0.69365 0.24860
 C2513 C 0.93068 0.69348 0.23292
 C2514 C 0.93741 0.71534 0.21075
 C2515 C 0.91048 0.80607 0.15369
 C2516 C 0.89049 0.82843 0.14783
 C2517 C 0.86355 0.82826 0.16306
 C2518 C 0.85641 0.80576 0.18428
 C2519 C 0.95083 0.75839 0.16244
 C2520 C 0.97279 0.75651 0.14655
 C2521 C 0.83990 0.75818 0.22585
 C2522 C 0.81488 0.75562 0.23446
 H2523 H 0.86330 0.71493 0.25507
 H2524 H 0.89887 0.67663 0.26583
 H2525 H 0.94629 0.67632 0.23797
 H2526 H 0.95851 0.71432 0.19922
 H2527 H 0.93112 0.80709 0.14121
 H2528 H 0.89591 0.84592 0.13130
 H2529 H 0.84807 0.84561 0.15836
 H2530 H 0.83510 0.80644 0.19530
 C2531 C 0.36481 0.25459 0.71032
 C2532 C 0.37232 0.23208 0.68809
 C2533 C 0.39983 0.23289 0.67243
 C2534 C 0.41991 0.25602 0.67930
 C2535 C 0.41249 0.27838 0.70171
 C2536 C 0.38485 0.27769 0.71719
 C2537 C 0.37779 0.30048 0.73910
 C2538 C 0.39743 0.32337 0.74554
 C2539 C 0.42446 0.32401 0.73051
 C2540 C 0.43205 0.30180 0.70886
 C2541 C 0.40651 0.21048 0.64980
 C2542 C 0.38664 0.18791 0.64286
 C2543 C 0.35988 0.18696 0.65837
 C2544 C 0.35268 0.20870 0.68074
 C2545 C 0.44790 0.25672 0.66290
 C2546 C 0.47074 0.25616 0.64849
 C2547 C 0.33572 0.25466 0.72423
 C2548 C 0.31071 0.25349 0.73314
 H2549 H 0.35707 0.30079 0.75144
 H2550 H 0.39167 0.34070 0.76230
 H2551 H 0.43964 0.34183 0.73564
 H2552 H 0.45331 0.30323 0.69772
 H2553 H 0.42708 0.21016 0.63714
 H2554 H 0.39207 0.17105 0.62537
 H2555 H 0.34454 0.16934 0.65294
 H2556 H 0.33155 0.20696 0.69209
 C2557 C 0.37099 0.73748 0.78949
 C2558 C 0.38386 0.76547 0.79555
 C2559 C 0.41147 0.76767 0.81145
 C2560 C 0.42642 0.74188 0.82074
 C2561 C 0.41381 0.71388 0.81424
 C2562 C 0.38589 0.71169 0.79895
 C2563 C 0.37326 0.68354 0.79399
 C2564 C 0.38796 0.65819 0.80325
 C2565 C 0.41540 0.66029 0.81778
 C2566 C 0.42827 0.68777 0.82329
 C2567 C 0.42334 0.79592 0.81820
 C2568 C 0.40844 0.82128 0.80945
 C2569 C 0.38165 0.81915 0.79357
 C2570 C 0.36940 0.79165 0.78663
 C2571 C 0.45397 0.74433 0.83841
 C2572 C 0.47638 0.74683 0.85385
 C2573 C 0.34144 0.73562 0.77619
 C2574 C 0.31622 0.73575 0.76732
 H2575 H 0.35186 0.68089 0.78312
 H2576 H 0.37798 0.63681 0.79919
 H2577 H 0.42672 0.64055 0.82498
 H2578 H 0.44961 0.68832 0.83474
 H2579 H 0.44419 0.79875 0.83036
 H2580 H 0.41777 0.84269 0.81502
 H2581 H 0.37025 0.83893 0.78663
 H2582 H 0.34849 0.79118 0.77427
 C2583 C 0.87553 0.23864 0.28491
 C2584 C 0.89185 0.26523 0.28573
 C2585 C 0.91925 0.26653 0.30216
 C2586 C 0.93032 0.24117 0.31753
 C2587 C 0.91444 0.21432 0.31579
 C2588 C 0.88691 0.21311 0.29961
 C2589 C 0.87108 0.18627 0.29903
 C2590 C 0.88232 0.16115 0.31347
 C2591 C 0.90928 0.16227 0.32910
 C2592 C 0.92520 0.18852 0.33041
 C2593 C 0.93480 0.29355 0.30320
 C2594 C 0.92368 0.31855 0.28842
 C2595 C 0.89697 0.31725 0.27229
 C2596 C 0.88114 0.29097 0.27089
 C2597 C 0.95731 0.24316 0.33633
 C2598 C 0.97934 0.24539 0.35248
 C2599 C 0.84596 0.23841 0.27176
 C2600 C 0.82078 0.23946 0.26304
 H2601 H 0.84987 0.18446 0.28754
 H2602 H 0.86997 0.14076 0.31261
 H2603 H 0.91784 0.14274 0.34043
 H2604 H 0.94595 0.18841 0.34301
 H2605 H 0.95570 0.29566 0.31541
 H2606 H 0.93587 0.33903 0.28947
 H2607 H 0.88844 0.33673 0.26080
 H2608 H 0.86049 0.29106 0.25802
 C2609 C 0.13199 0.26377 0.28150
 C2610 C 0.12294 0.28750 0.30127
 C2611 C 0.09598 0.28575 0.31805
 C2612 C 0.07847 0.25999 0.31559
 C2613 C 0.08697 0.23676 0.29482
 C2614 C 0.11370 0.23871 0.27765
 C2615 C 0.12177 0.21508 0.25728
 C2616 C 0.10399 0.19021 0.25396
 C2617 C 0.07793 0.18827 0.27079
 C2618 C 0.06941 0.21120 0.29102
 C2619 C 0.08736 0.30988 0.33740
 C2620 C 0.10488 0.33499 0.34019
 C2621 C 0.13140 0.33652 0.32416
 C2622 C 0.14052 0.31301 0.30511
 C2623 C 0.05254 0.25671 0.33549
 C2624 C 0.03130 0.25330 0.35228
 C2625 C 0.16119 0.26380 0.26778
 C2626 C 0.18611 0.26250 0.25853
 H2627 H 0.14180 0.21562 0.24361
 H2628 H 0.11048 0.17236 0.23823
 H2629 H 0.06422 0.16889 0.26815
 H2630 H 0.04889 0.20870 0.30351
 H2631 H 0.06697 0.30964 0.35041
 H2632 H 0.09791 0.35330 0.35500
 H2633 H 0.14501 0.35600 0.32652
 H2634 H 0.16144 0.31506 0.29341
 C2635 C 0.62953 0.76130 0.78186
 C2636 C 0.62272 0.73565 0.79966
 C2637 C 0.59628 0.73398 0.81739
 C2638 C 0.57665 0.75793 0.81728
 C2639 C 0.58328 0.78342 0.79921
 C2640 C 0.60977 0.78511 0.78148
 C2641 C 0.61604 0.81095 0.76404
 C2642 C 0.59677 0.83455 0.76410
 C2643 C 0.57091 0.83291 0.78136
 C2644 C 0.56411 0.80767 0.79873
 C2645 C 0.59026 0.70827 0.83533
 C2646 C 0.60980 0.68493 0.83588
 C2647 C 0.63559 0.68652 0.81855
 C2648 C 0.64208 0.71149 0.80060
 C2649 C 0.55013 0.75638 0.83647
 C2650 C 0.52859 0.75409 0.85301
 C2651 C 0.65791 0.76366 0.76632
 C2652 C 0.68260 0.76382 0.75620
 H2653 H 0.63586 0.81312 0.75024
 H2654 H 0.60192 0.85424 0.75073
 H2655 H 0.55605 0.85132 0.78135
 H2656 H 0.54375 0.80740 0.81182
 H2657 H 0.57048 0.70592 0.84921
 H2658 H 0.60489 0.66552 0.84986
 H2659 H 0.65072 0.66834 0.81909
 H2660 H 0.66247 0.71161 0.78761
 C2661 C 0.62224 0.24852 0.72814
 C2662 C 0.60438 0.27383 0.72843
 C2663 C 0.57807 0.27429 0.70991
 C2664 C 0.56951 0.24931 0.69144
 C2665 C 0.58667 0.22351 0.69232
 C2666 C 0.61328 0.22326 0.71032
 C2667 C 0.63067 0.19769 0.70955
 C2668 C 0.62162 0.17271 0.69244
 C2669 C 0.59537 0.17275 0.67535
 C2670 C 0.57808 0.19786 0.67506
 C2671 C 0.56103 0.30014 0.71001
 C2672 C 0.56964 0.32479 0.72794
 C2673 C 0.59527 0.32430 0.74611
 C2674 C 0.61253 0.29918 0.74644
 C2675 C 0.54391 0.25068 0.67036
 C2676 C 0.52302 0.25216 0.65240
 C2677 C 0.65108 0.24956 0.74328
 C2678 C 0.67591 0.25132 0.75326
 H2679 H 0.65139 0.19672 0.72218
 H2680 H 0.63506 0.15322 0.69245
 H2681 H 0.58843 0.15329 0.66211
 H2682 H 0.55791 0.19691 0.66131
 H2683 H 0.54088 0.30157 0.69630
 H2684 H 0.55634 0.34438 0.72773
 H2685 H 0.60184 0.34349 0.76004
 H2686 H 0.63226 0.29984 0.76098
 C2687 C 0.12726 0.74734 0.21868
 C2688 C 0.11823 0.77406 0.20439
 C2689 C 0.09124 0.77533 0.18722
 C2690 C 0.07346 0.74983 0.18406
 C2691 C 0.08205 0.72336 0.19917
 C2692 C 0.10888 0.72220 0.21677
 C2693 C 0.11676 0.69566 0.23198
 C2694 C 0.09873 0.67087 0.22983
 C2695 C 0.07281 0.67182 0.21218
 C2696 C 0.06444 0.69772 0.19700
 C2697 C 0.08273 0.80232 0.17329
 C2698 C 0.10039 0.82730 0.17610
 C2699 C 0.12684 0.82602 0.19265
 C2700 C 0.13577 0.79979 0.20668
 C2701 C 0.04684 0.75082 0.16457
 C2702 C 0.02514 0.75211 0.14780
 C2703 C 0.15628 0.74558 0.23321
 C2704 C 0.18119 0.74581 0.24308
 H2705 H 0.13684 0.69384 0.24576
 H2706 H 0.10508 0.65072 0.24164
 H2707 H 0.05906 0.65240 0.21030
 H2708 H 0.04399 0.69746 0.18372
 H2709 H 0.06231 0.80447 0.16025
 H2710 H 0.09347 0.84778 0.16542
 H2711 H 0.14050 0.84549 0.19474
 H2712 H 0.15646 0.80000 0.21946
   
