data_POSCAR
  _audit_creation_date              2014-09-24
  _audit_creation_method            'ToBaCCo'
  _symmetry_space_group_name_H-M    'P1'
  _symmetry_Int_Tables_number       1
  _symmetry_cell_setting            triclinic
  loop_
  _symmetry_equiv_pos_as_xyz
 x,y,z
_cell_length_a 63.0286
_cell_length_b 63.0811
_cell_length_c 63.2399
_cell_angle_alpha 89.980100
_cell_angle_beta 90.010300
_cell_angle_gamma 89.978600
loop_
  _atom_site_label
  _atom_site_type_symbol
  _atom_site_fract_x
  _atom_site_fract_y
  _atom_site_fract_z
C1 C 0.34076 1.36905 0.34039
 C2 C 0.34976 1.37788 0.32211
 C3 C 0.36783 1.36871 0.31297
 C4 C 0.37710 1.35070 0.32212
 C5 C 0.36830 1.34167 0.34040
 C6 C 0.35004 1.35086 0.34959
 C7 C 0.32249 1.37792 0.34947
 C8 C 0.31344 1.36878 0.36756
 C9 C 0.32268 1.35078 0.37675
 C10 C 0.34094 1.34172 0.36787
 C11 C 0.35010 1.32351 0.37676
 C12 C 0.36814 1.31439 0.36758
 C13 C 0.37725 1.32346 0.34951
 H14 H 0.34261 1.39177 0.31490
 H15 H 0.39103 1.34362 0.31493
 H16 H 0.31522 1.39180 0.34238
 H17 H 0.31555 1.34372 0.39070
 H18 H 0.34312 1.31631 0.39070
 H19 H 0.39117 1.31622 0.34247
 C20 C 0.34024 0.86886 0.84091
 C21 C 0.34925 0.87776 0.82267
 C22 C 0.36729 0.86860 0.81351
 C23 C 0.37654 0.85055 0.82257
 C24 C 0.36774 0.84145 0.84081
 C25 C 0.34949 0.85061 0.85004
 C26 C 0.32198 0.87771 0.85003
 C27 C 0.31291 0.86850 0.86807
 C28 C 0.32212 0.85045 0.87719
 C29 C 0.34038 0.84140 0.86827
 C30 C 0.34952 0.82314 0.87708
 C31 C 0.36756 0.81404 0.86786
 C32 C 0.37668 0.82319 0.84983
 H33 H 0.34216 0.89167 0.81548
 H34 H 0.39045 0.84353 0.81529
 H35 H 0.31473 0.89164 0.84299
 H36 H 0.31498 0.84334 0.89110
 H37 H 0.34254 0.81589 0.89099
 H38 H 0.39059 0.81597 0.84275
 C39 C 0.84075 1.36861 0.83970
 C40 C 0.84963 1.37752 0.82140
 C41 C 0.86767 1.36842 0.81213
 C42 C 0.87702 1.35040 0.82117
 C43 C 0.86834 1.34128 0.83947
 C44 C 0.85012 1.35040 0.84879
 C45 C 0.82252 1.37741 0.84893
 C46 C 0.81362 1.36820 0.86703
 C47 C 0.82292 1.35020 0.87611
 C48 C 0.84114 1.34119 0.86709
 C49 C 0.85040 1.32299 0.87589
 C50 C 0.86842 1.31393 0.86658
 C51 C 0.87740 1.32307 0.84848
 H52 H 0.84241 1.39143 0.81428
 H53 H 0.89093 1.34337 0.81388
 H54 H 0.81514 1.39130 0.84197
 H55 H 0.81585 1.34313 0.89008
 H56 H 0.84352 1.31574 0.88985
 H57 H 0.89130 1.31588 0.84135
 C58 C 0.84152 0.86902 0.34044
 C59 C 0.85048 0.87789 0.32216
 C60 C 0.86848 0.86869 0.31292
 C61 C 0.87773 0.85062 0.32198
 C62 C 0.86897 0.84156 0.34026
 C63 C 0.85078 0.85077 0.34955
 C64 C 0.82331 0.87791 0.34961
 C65 C 0.81431 0.86873 0.36768
 C66 C 0.82350 0.85068 0.37678
 C67 C 0.84170 0.84159 0.36782
 C68 C 0.85083 0.82332 0.37661
 C69 C 0.86882 0.81417 0.36734
 C70 C 0.87789 0.82328 0.34927
 H71 H 0.84334 0.89183 0.31502
 H72 H 0.89161 0.84352 0.31470
 H73 H 0.81602 0.89183 0.34263
 H74 H 0.81634 0.84364 0.39071
 H75 H 0.84387 0.81610 0.39055
 H76 H 0.89177 0.81602 0.34216
 C77 C 0.65857 0.63155 0.33985
 C78 C 0.64947 0.62276 0.32161
 C79 C 0.63136 0.63197 0.31257
 C80 C 0.62216 0.64997 0.32179
 C81 C 0.63107 0.65896 0.34003
 C82 C 0.64936 0.64974 0.34912
 C83 C 0.67688 0.62265 0.34884
 C84 C 0.68603 0.63175 0.36688
 C85 C 0.67688 0.64974 0.37613
 C86 C 0.65858 0.65885 0.36735
 C87 C 0.64948 0.67705 0.37631
 C88 C 0.63139 0.68620 0.36722
 C89 C 0.62218 0.67716 0.34919
 H90 H 0.65657 0.60888 0.31435
 H91 H 0.60820 0.65708 0.31467
 H92 H 0.68413 0.60878 0.34174
 H93 H 0.68414 0.65672 0.39004
 H94 H 0.65655 0.68422 0.39022
 H95 H 0.60823 0.68443 0.34223
 C96 C 0.65949 0.13139 0.84108
 C97 C 0.65055 0.12246 0.82281
 C98 C 0.63244 0.13150 0.81365
 C99 C 0.62305 0.14946 0.82274
 C100 C 0.63178 0.15858 0.84100
 C101 C 0.65009 0.14954 0.85023
 C102 C 0.67781 0.12266 0.85020
 C103 C 0.68680 0.13189 0.86827
 C104 C 0.67745 0.14986 0.87741
 C105 C 0.65913 0.15878 0.86848
 C106 C 0.64983 0.17695 0.87731
 C107 C 0.63173 0.18593 0.86809
 C108 C 0.62269 0.17675 0.85004
 H109 H 0.65775 0.10862 0.81560
 H110 H 0.60908 0.15639 0.81548
 H111 H 0.68518 0.10880 0.84315
 H112 H 0.68452 0.15699 0.89134
 H113 H 0.65676 0.18422 0.89123
 H114 H 0.60873 0.18388 0.84296
 C115 C 1.15927 0.63125 0.84060
 C116 C 1.15020 0.62243 0.82235
 C117 C 1.13211 0.63160 0.81329
 C118 C 1.12286 0.64958 0.82246
 C119 C 1.13173 0.65861 0.84070
 C120 C 1.15002 0.64944 0.84983
 C121 C 1.17758 0.62239 0.84962
 C122 C 1.18671 0.63153 0.86766
 C123 C 1.17751 0.64953 0.87688
 C124 C 1.15920 0.65859 0.86806
 C125 C 1.15005 0.67680 0.87697
 C126 C 1.13196 0.68590 0.86783
 C127 C 1.12279 0.67682 0.84981
 H128 H 1.15728 0.60856 0.81508
 H129 H 1.10891 0.65662 0.81527
 H130 H 1.18483 0.60850 0.84250
 H131 H 1.18469 0.65659 0.89080
 H132 H 1.15708 0.68401 0.89087
 H133 H 1.10884 0.68404 0.84281
 C134 C 1.15956 0.13132 0.33986
 C135 C 1.15059 0.12245 0.32158
 C136 C 1.13245 0.13153 0.31245
 C137 C 1.12309 0.14947 0.32163
 C138 C 1.13185 0.15853 0.33990
 C139 C 1.15017 0.14945 0.34908
 C140 C 1.17789 0.12256 0.34894
 C141 C 1.18690 0.13174 0.36703
 C142 C 1.17756 0.14968 0.37623
 C143 C 1.15923 0.15863 0.36735
 C144 C 1.14996 0.17677 0.37625
 C145 C 1.13186 0.18579 0.36707
 C146 C 1.12279 0.17668 0.34901
 H147 H 1.15782 0.10862 0.31436
 H148 H 1.10910 0.15648 0.31445
 H149 H 1.18524 0.10872 0.34185
 H150 H 1.18465 0.15676 0.39018
 H151 H 1.15691 0.18400 0.39018
 H152 H 1.10882 0.18384 0.34198
 C153 C 0.65977 1.36856 0.65975
 C154 C 0.65066 1.37731 0.67802
 C155 C 0.63262 1.36804 0.68708
 C156 C 0.62347 1.35003 0.67788
 C157 C 0.63236 1.34108 0.65962
 C158 C 0.65060 1.35035 0.65049
 C159 C 0.67802 1.37753 0.65073
 C160 C 0.68716 1.36847 0.63265
 C161 C 0.67804 1.35044 0.62341
 C162 C 0.65980 1.34128 0.63223
 C163 C 0.65073 1.32305 0.62330
 C164 C 0.63269 1.31385 0.63243
 C165 C 0.62350 1.32286 0.65048
 H166 H 0.65768 1.39120 0.68532
 H167 H 0.60956 1.34292 0.68507
 H168 H 0.68519 1.39143 0.65786
 H169 H 0.68524 1.34344 0.60947
 H170 H 0.65777 1.31590 0.60937
 H171 H 0.60959 1.31556 0.65748
 C172 C 0.65862 0.86863 1.16037
 C173 C 0.64955 0.87739 1.17864
 C174 C 0.63151 0.86812 1.18774
 C175 C 0.62235 0.85008 1.17856
 C176 C 0.63123 0.84112 1.16029
 C177 C 0.64946 0.85040 1.15114
 C178 C 0.67686 0.87759 1.15132
 C179 C 0.68597 0.86852 1.13325
 C180 C 0.67687 0.85050 1.12403
 C181 C 0.65864 0.84133 1.13287
 C182 C 0.64959 0.82310 1.12394
 C183 C 0.63157 0.81388 1.13308
 C184 C 0.62239 0.82289 1.15115
 H185 H 0.65661 0.89131 1.18587
 H186 H 0.60844 0.84293 1.18572
 H187 H 0.68408 0.89149 1.15839
 H188 H 0.68410 0.84355 1.11009
 H189 H 0.65663 0.81596 1.11001
 H190 H 0.60849 0.81558 1.15815
 C191 C 1.15882 1.36908 1.15848
 C192 C 1.14977 1.37785 1.17677
 C193 C 1.13175 1.36860 1.18587
 C194 C 1.12254 1.35061 1.17670
 C195 C 1.13137 1.34163 1.15842
 C196 C 1.14960 1.35088 1.14925
 C197 C 1.17707 1.37800 1.14942
 C198 C 1.18618 1.36889 1.13135
 C199 C 1.17701 1.35088 1.12213
 C200 C 1.15876 1.34177 1.13098
 C201 C 1.14966 1.32354 1.12209
 C202 C 1.13164 1.31437 1.13127
 C203 C 1.12248 1.32341 1.14932
 H204 H 1.15684 1.39172 1.18404
 H205 H 1.10864 1.34351 1.18393
 H206 H 1.18429 1.39188 1.15654
 H207 H 1.18418 1.34385 1.10819
 H208 H 1.15668 1.31636 1.10817
 H209 H 1.10859 1.31612 1.15636
 C210 C 1.15943 0.86856 0.65928
 C211 C 1.15027 0.87732 0.67752
 C212 C 1.13223 0.86803 0.68655
 C213 C 1.12313 0.84999 0.67736
 C214 C 1.13207 0.84102 0.65913
 C215 C 1.15032 0.85032 0.65002
 C216 C 1.17768 0.87755 0.65028
 C217 C 1.18688 0.86848 0.63224
 C218 C 1.17782 0.85043 0.62300
 C219 C 1.15957 0.84124 0.63180
 C220 C 1.15056 0.82299 0.62286
 C221 C 1.13252 0.81376 0.63196
 C222 C 1.12328 0.82277 0.64998
 H223 H 1.15725 0.89123 0.68480
 H224 H 1.10922 0.84286 0.68453
 H225 H 1.18481 0.89148 0.65742
 H226 H 1.18506 0.84343 0.60908
 H227 H 1.15765 0.81583 0.60896
 H228 H 1.10936 0.81546 0.65696
 C229 C 0.34247 0.63032 0.65797
 C230 C 0.35147 0.62147 0.67624
 C231 C 0.36944 0.63069 0.68546
 C232 C 0.37864 0.64876 0.67642
 C233 C 0.36985 0.65783 0.65815
 C234 C 0.35167 0.64860 0.64886
 C235 C 0.32426 0.62143 0.64881
 C236 C 0.31520 0.63063 0.63078
 C237 C 0.32433 0.64869 0.62167
 C238 C 0.34255 0.65779 0.63062
 C239 C 0.35161 0.67609 0.62184
 C240 C 0.36958 0.68526 0.63112
 C241 C 0.37872 0.67614 0.64916
 H242 H 0.34440 0.60754 0.68342
 H243 H 0.39250 0.65585 0.68374
 H244 H 0.31700 0.60750 0.65580
 H245 H 0.31713 0.65574 0.60777
 H246 H 0.34461 0.68333 0.60794
 H247 H 0.39257 0.68342 0.65628
 C248 C 0.34165 0.13093 1.15972
 C249 C 0.35064 0.12210 1.17801
 C250 C 0.36864 0.13133 1.18722
 C251 C 0.37784 0.14940 1.17813
 C252 C 0.36905 0.15843 1.15984
 C253 C 0.35086 0.14918 1.15058
 C254 C 0.32344 0.12202 1.15056
 C255 C 0.31440 0.13117 1.13249
 C256 C 0.32355 0.14921 1.12336
 C257 C 0.34175 0.15833 1.13230
 C258 C 0.35084 0.17659 1.12347
 C259 C 0.36882 0.18577 1.13273
 C260 C 0.37793 0.17670 1.15080
 H261 H 0.34353 0.10817 1.18518
 H262 H 0.39172 0.15652 1.18538
 H263 H 0.31617 0.10811 1.15757
 H264 H 0.31638 0.15623 1.10942
 H265 H 0.34385 0.18379 1.10954
 H266 H 0.39180 0.18398 1.15789
 C267 C 0.84240 0.63018 1.15793
 C268 C 0.85145 0.62130 1.17616
 C269 C 0.86948 0.63048 1.18530
 C270 C 0.87869 0.64853 1.17623
 C271 C 0.86984 0.65763 1.15800
 C272 C 0.85160 0.64844 1.14879
 C273 C 0.82412 0.62134 1.14885
 C274 C 0.81500 0.63057 1.13086
 C275 C 0.82414 0.64862 1.12172
 C276 C 0.84241 0.65767 1.13060
 C277 C 0.85148 0.67595 1.12180
 C278 C 0.86952 0.68507 1.13100
 C279 C 0.87871 0.67592 1.14899
 H280 H 0.84439 0.60738 1.18336
 H281 H 0.89259 0.65558 1.18349
 H282 H 0.81686 0.60743 1.15586
 H283 H 0.81689 0.65570 1.10786
 H284 H 0.84443 0.68323 1.10793
 H285 H 0.89261 0.68317 1.15606
 C286 C 0.83990 0.13198 0.66069
 C287 C 0.84892 0.12313 0.67897
 C288 C 0.86698 0.13231 0.68813
 C289 C 0.87621 0.15034 0.67899
 C290 C 0.86740 0.15938 0.66072
 C291 C 0.84916 0.15019 0.65151
 C292 C 0.82166 0.12310 0.65157
 C293 C 0.81261 0.13224 0.63348
 C294 C 0.82182 0.15026 0.62431
 C295 C 0.84005 0.15934 0.63324
 C296 C 0.84921 0.17755 0.62436
 C297 C 0.86724 0.18667 0.63355
 C298 C 0.87634 0.17760 0.65163
 H299 H 0.84180 0.10922 0.68615
 H300 H 0.89014 0.15741 0.68619
 H301 H 0.81442 0.10919 0.65864
 H302 H 0.81470 0.15731 0.61036
 H303 H 0.84224 0.18474 0.61041
 H304 H 0.89026 0.18483 0.65868
 C305 C 1.36857 0.34018 0.66042
 C306 C 1.37741 0.34918 0.67871
 C307 C 1.36822 0.36725 0.68783
 C308 C 1.35021 0.37650 0.67866
 C309 C 1.34118 0.36771 0.66039
 C310 C 1.35037 0.34946 0.65120
 C311 C 1.37745 0.32192 0.65132
 C312 C 1.36830 0.31289 0.63322
 C313 C 1.35029 0.32213 0.62403
 C314 C 1.34123 0.34038 0.63293
 C315 C 1.32302 0.34955 0.62403
 C316 C 1.31390 0.36758 0.63321
 C317 C 1.32297 0.37667 0.65128
 H318 H 1.39130 0.34204 0.68592
 H319 H 1.34312 0.39043 0.68584
 H320 H 1.39134 0.31465 0.65842
 H321 H 1.34324 0.31503 0.61008
 H322 H 1.31582 0.34258 0.61009
 H323 H 1.31573 0.39059 0.65831
 C324 C 1.36920 0.84064 1.15906
 C325 C 1.37810 0.84971 1.17727
 C326 C 1.36890 0.86774 1.18639
 C327 C 1.35082 0.87692 1.17732
 C328 C 1.34171 0.86807 1.15912
 C329 C 1.35091 0.84983 1.14992
 C330 C 1.37809 0.82239 1.14998
 C331 C 1.36887 0.81327 1.13197
 C332 C 1.35078 0.82242 1.12284
 C333 C 1.34169 0.84066 1.13173
 C334 C 1.32339 0.84975 1.12292
 C335 C 1.31426 0.86778 1.13211
 C336 C 1.32341 0.87694 1.15010
 H337 H 1.39204 0.84267 1.18447
 H338 H 1.34377 0.89083 1.18456
 H339 H 1.39204 0.81519 1.15702
 H340 H 1.34366 0.81524 1.10895
 H341 H 1.31613 0.84272 1.10904
 H342 H 1.31617 0.89085 1.15715
 C343 C 0.86909 0.34076 1.15885
 C344 C 0.87797 0.34992 1.17703
 C345 C 0.86874 0.36797 1.18608
 C346 C 0.85065 0.37709 1.17697
 C347 C 0.84156 0.36815 1.15880
 C348 C 0.85079 0.34989 1.14968
 C349 C 0.87800 0.32249 1.14985
 C350 C 0.86879 0.31327 1.13189
 C351 C 0.85068 0.32235 1.12272
 C352 C 0.84157 0.34062 1.13153
 C353 C 0.82325 0.34964 1.12269
 C354 C 0.81410 0.36770 1.13181
 C355 C 0.82325 0.37695 1.14976
 H356 H 0.89192 0.34292 1.18426
 H357 H 0.84357 0.39101 1.18416
 H358 H 0.89196 0.31534 1.15693
 H359 H 0.84357 0.31509 1.10887
 H360 H 0.81598 0.34254 1.10885
 H361 H 0.81599 0.39088 1.15676
 C362 C 0.86974 0.84182 0.65844
 C363 C 0.87861 0.85086 0.67668
 C364 C 0.86937 0.86884 0.68585
 C365 C 0.85127 0.87801 0.67680
 C366 C 0.84219 0.86919 0.65857
 C367 C 0.85143 0.85100 0.64933
 C368 C 0.87865 0.82361 0.64933
 C369 C 0.86945 0.81452 0.63132
 C370 C 0.85135 0.82363 0.62221
 C371 C 0.84223 0.84184 0.63112
 C372 C 0.82390 0.85089 0.62234
 C373 C 0.81472 0.86887 0.63157
 C374 C 0.82386 0.87803 0.64958
 H375 H 0.89257 0.84382 0.68387
 H376 H 0.84418 0.89188 0.68408
 H377 H 0.89261 0.81638 0.65632
 H378 H 0.84428 0.81641 0.60833
 H379 H 0.81664 0.84386 0.60845
 H380 H 0.81658 0.89190 0.65666
 C381 C 0.63094 0.65828 0.65908
 C382 C 0.62218 0.64916 0.67732
 C383 C 0.63148 0.63114 0.68637
 C384 C 0.64953 0.62202 0.67719
 C385 C 0.65850 0.63093 0.65894
 C386 C 0.64920 0.64916 0.64982
 C387 C 0.62197 0.67653 0.65008
 C388 C 0.63105 0.68570 0.63205
 C389 C 0.64910 0.67664 0.62280
 C390 C 0.65828 0.65839 0.63159
 C391 C 0.67655 0.64938 0.62266
 C392 C 0.68579 0.63136 0.63177
 C393 C 0.67677 0.62212 0.64980
 H394 H 0.60827 0.65616 0.68461
 H395 H 0.65666 0.60812 0.68438
 H396 H 0.60805 0.68372 0.65717
 H397 H 0.65606 0.68392 0.60889
 H398 H 0.68371 0.65647 0.60875
 H399 H 0.68410 0.60823 0.65678
 C400 C 0.63070 1.15925 1.15908
 C401 C 0.62188 1.15012 1.17729
 C402 C 0.63114 1.13208 1.18635
 C403 C 0.64920 1.12294 1.17720
 C404 C 0.65823 1.13187 1.15899
 C405 C 0.64897 1.15012 1.14986
 C406 C 0.62176 1.17751 1.15008
 C407 C 0.63090 1.18672 1.13208
 C408 C 0.64898 1.17764 1.12286
 C409 C 0.65812 1.15937 1.13167
 C410 C 0.67641 1.15034 1.12278
 C411 C 0.68559 1.13229 1.13190
 C412 C 0.67651 1.12305 1.14990
 H413 H 0.60795 1.15712 1.18455
 H414 H 0.65630 1.10903 1.18439
 H415 H 0.60782 1.18467 1.15719
 H416 H 0.65604 1.18488 1.10898
 H417 H 0.68362 1.15742 1.10891
 H418 H 0.68379 1.10913 1.15689
 C419 C 0.13125 0.65983 1.16034
 C420 C 0.12248 0.65071 1.17859
 C421 C 0.13175 0.63264 1.18764
 C422 C 0.14979 0.62351 1.17842
 C423 C 0.15876 0.63243 1.16017
 C424 C 0.14948 0.65068 1.15107
 C425 C 0.12227 0.67809 1.15133
 C426 C 0.13134 0.68724 1.13326
 C427 C 0.14939 0.67814 1.12401
 C428 C 0.15856 0.65989 1.13282
 C429 C 0.17679 0.65083 1.12386
 C430 C 0.18600 0.63279 1.13295
 C431 C 0.17700 0.62358 1.15100
 H432 H 0.10856 0.65776 1.18585
 H433 H 0.15694 0.60957 1.18553
 H434 H 0.10836 0.68525 1.15847
 H435 H 0.15638 0.68534 1.11008
 H436 H 0.18394 0.65789 1.10993
 H437 H 0.18430 0.60966 1.15796
 C438 C 0.13047 1.15793 0.65979
 C439 C 0.12176 1.14885 0.67809
 C440 C 0.13108 1.13082 0.68715
 C441 C 0.14910 1.12167 0.67789
 C442 C 0.15800 1.13055 0.65959
 C443 C 0.14867 1.14877 0.65048
 C444 C 0.12147 1.17617 0.65079
 C445 C 0.13050 1.18530 0.63270
 C446 C 0.14849 1.17620 0.62340
 C447 C 0.15769 1.15797 0.63220
 C448 C 0.17592 1.14893 0.62321
 C449 C 0.18518 1.13093 0.63232
 C450 C 0.17623 1.12172 0.65040
 H451 H 0.10787 1.15592 0.68538
 H452 H 0.15630 1.10777 0.68503
 H453 H 0.10759 1.18340 0.65792
 H454 H 0.15542 1.18345 0.60946
 H455 H 0.18303 1.15599 0.60927
 H456 H 0.18358 1.10784 0.65738
 C457 C 1.36851 0.66042 0.33964
 C458 C 1.37727 0.65138 0.32134
 C459 C 1.36807 0.63328 0.31232
 C460 C 1.35012 0.62403 0.32160
 C461 C 1.34117 0.63287 0.33989
 C462 C 1.35037 0.65116 0.34897
 C463 C 1.37741 0.67871 0.34864
 C464 C 1.36836 0.68779 0.36675
 C465 C 1.35040 0.67857 0.37606
 C466 C 1.34131 0.66029 0.36727
 C467 C 1.32316 0.65113 0.37629
 C468 C 1.31403 0.63305 0.36721
 C469 C 1.32303 0.62392 0.34912
 H470 H 1.39112 0.65851 0.31404
 H471 H 1.34302 0.61007 0.31450
 H472 H 1.39126 0.68597 0.34146
 H473 H 1.34342 0.68571 0.39003
 H474 H 1.31603 0.65812 0.39025
 H475 H 1.31578 0.60997 0.34217
 C476 C 1.36863 1.15987 0.84078
 C477 C 1.37739 1.15083 0.82249
 C478 C 1.36819 1.13276 0.81345
 C479 C 1.35024 1.12352 0.82269
 C480 C 1.34127 1.13234 0.84098
 C481 C 1.35048 1.15061 0.85009
 C482 C 1.37753 1.17815 0.84979
 C483 C 1.36845 1.18723 0.86790
 C484 C 1.35048 1.17801 0.87718
 C485 C 1.34140 1.15974 0.86837
 C486 C 1.32323 1.15058 0.87736
 C487 C 1.31409 1.13252 0.86825
 C488 C 1.32311 1.12340 0.85017
 H489 H 1.39124 1.15792 0.81516
 H490 H 1.34318 1.10958 0.81552
 H491 H 1.39139 1.18541 0.84263
 H492 H 1.34348 1.18515 0.89114
 H493 H 1.31607 1.15758 0.89130
 H494 H 1.31586 1.10947 0.84318
 C495 C 0.86870 0.65869 0.84059
 C496 C 0.87755 0.64969 0.82232
 C497 C 0.86841 0.63161 0.81324
 C498 C 0.85043 0.62232 0.82240
 C499 C 0.84138 0.63112 0.84066
 C500 C 0.85052 0.64939 0.84982
 C501 C 0.87752 0.67698 0.84964
 C502 C 0.86836 0.68602 0.86770
 C503 C 0.85039 0.67679 0.87691
 C504 C 0.84136 0.65851 0.86807
 C505 C 0.82316 0.64932 0.87698
 C506 C 0.81409 0.63125 0.86782
 C507 C 0.82319 0.62214 0.84978
 H508 H 0.89141 0.65681 0.81506
 H509 H 0.84342 0.60839 0.81519
 H510 H 0.89139 0.68430 0.84257
 H511 H 0.84336 0.68397 0.89084
 H512 H 0.81594 0.65631 0.89090
 H513 H 0.81598 0.60821 0.84276
 C514 C 0.86923 1.15830 0.34038
 C515 C 0.87805 1.14927 0.32212
 C516 C 0.86887 1.13119 0.31303
 C517 C 0.85088 1.12194 0.32222
 C518 C 0.84186 1.13077 0.34049
 C519 C 0.85105 1.14904 0.34963
 C520 C 0.87809 1.17658 0.34942
 C521 C 0.86895 1.18565 0.36747
 C522 C 0.85097 1.17645 0.37671
 C523 C 0.84190 1.15818 0.36788
 C524 C 0.82370 1.14904 0.37681
 C525 C 0.81458 1.13098 0.36767
 C526 C 0.82366 1.12184 0.34962
 H527 H 0.89193 1.15641 0.31487
 H528 H 0.84379 1.10801 0.31506
 H529 H 0.89196 1.18387 0.34234
 H530 H 0.84396 1.18365 0.39063
 H531 H 0.81650 1.15605 0.39072
 H532 H 0.81642 1.10791 0.34262
 C533 C 0.63056 0.34175 0.34084
 C534 C 0.62156 0.35071 0.32262
 C535 C 0.63065 0.36876 0.31338
 C536 C 0.64872 0.37805 0.32239
 C537 C 0.65791 0.36928 0.34061
 C538 C 0.64882 0.35104 0.34989
 C539 C 0.62180 0.32348 0.35001
 C540 C 0.63111 0.31446 0.36800
 C541 C 0.64917 0.32369 0.37705
 C542 C 0.65814 0.34195 0.36809
 C543 C 0.67642 0.35113 0.37683
 C544 C 0.68544 0.36916 0.36755
 C545 C 0.67620 0.37825 0.34955
 H546 H 0.60763 0.34354 0.31552
 H547 H 0.65573 0.39197 0.31512
 H548 H 0.60788 0.31616 0.34306
 H549 H 0.65631 0.31653 0.39093
 H550 H 0.68375 0.34415 0.39070
 H551 H 0.68337 0.39216 0.34244
 C552 C 0.63037 0.84182 0.84173
 C553 C 0.62140 0.85081 0.82351
 C554 C 0.63049 0.86886 0.81434
 C555 C 0.64853 0.87816 0.82337
 C556 C 0.65770 0.86938 0.84159
 C557 C 0.64861 0.85111 0.85083
 C558 C 0.62161 0.82353 0.85084
 C559 C 0.63091 0.81448 0.86883
 C560 C 0.64894 0.82370 0.87793
 C561 C 0.65791 0.84200 0.86903
 C562 C 0.67618 0.85116 0.87779
 C563 C 0.68520 0.86922 0.86856
 C564 C 0.67597 0.87834 0.85057
 H565 H 0.60750 0.84368 0.81633
 H566 H 0.65550 0.89208 0.81608
 H567 H 0.60771 0.81621 0.84386
 H568 H 0.65607 0.81651 0.89180
 H569 H 0.68350 0.84417 0.89166
 H570 H 0.68314 0.89226 0.84348
 C571 C 0.13075 0.34040 0.84108
 C572 C 0.12180 0.34937 0.82283
 C573 C 0.13088 0.36745 0.81367
 C574 C 0.14888 0.37676 0.82274
 C575 C 0.15804 0.36800 0.84097
 C576 C 0.14896 0.34972 0.85020
 C577 C 0.12198 0.32211 0.85019
 C578 C 0.13125 0.31308 0.86823
 C579 C 0.14927 0.32236 0.87735
 C580 C 0.15823 0.34064 0.86843
 C581 C 0.17646 0.34986 0.87723
 C582 C 0.18547 0.36793 0.86801
 C583 C 0.17626 0.37701 0.84998
 H584 H 0.10791 0.34223 0.81564
 H585 H 0.15584 0.39070 0.81547
 H586 H 0.10808 0.31481 0.84316
 H587 H 0.15642 0.31524 0.89126
 H588 H 0.18376 0.34291 0.89113
 H589 H 0.18341 0.39095 0.84290
 C590 C 0.13162 0.83983 0.33970
 C591 C 0.12263 0.84881 0.32148
 C592 C 0.13167 0.86693 0.31232
 C593 C 0.14969 0.87625 0.32139
 C594 C 0.15887 0.86747 0.33960
 C595 C 0.14983 0.84917 0.34882
 C596 C 0.12288 0.82153 0.34882
 C597 C 0.13216 0.81250 0.36685
 C598 C 0.15019 0.82179 0.37596
 C599 C 0.15912 0.84009 0.36704
 C600 C 0.17733 0.84933 0.37585
 C601 C 0.18631 0.86743 0.36664
 C602 C 0.17708 0.87650 0.34863
 H603 H 0.10873 0.84162 0.31434
 H604 H 0.15666 0.89023 0.31418
 H605 H 0.10898 0.81422 0.34179
 H606 H 0.15735 0.81468 0.38987
 H607 H 0.18465 0.84238 0.38975
 H608 H 0.18420 0.89047 0.34157
 O609 O 1.07655 1.02039 1.10559
 O610 O 1.10126 1.02034 1.13027
 C611 C 1.08403 1.02763 1.12278
 C612 C 1.07284 1.04505 1.13384
 C613 C 1.07997 1.05229 1.15360
 H614 H 1.09320 1.04444 1.16124
 O615 O 0.92333 0.97955 1.10565
 O616 O 0.89865 0.97958 1.13037
 C617 C 0.91589 0.97231 1.12287
 C618 C 0.92717 0.95493 1.13394
 C619 C 0.92016 0.94767 1.15375
 H620 H 0.90660 0.95511 1.16121
 O621 O 1.02093 1.10547 1.07652
 O622 O 1.02104 1.13031 1.10105
 C623 C 1.02822 1.12274 1.08386
 C624 C 1.04555 1.13379 1.07250
 C625 C 1.05276 1.15371 1.07935
 H626 H 1.04533 1.16125 1.09283
 O627 O 0.97914 0.89453 1.07658
 O628 O 0.97900 0.86967 1.10111
 C629 C 0.97185 0.87725 1.08390
 C630 C 0.95457 0.86619 1.07250
 C631 C 0.94742 0.84622 1.07927
 H632 H 0.95487 0.83866 1.09275
 O633 O 1.10587 1.07611 1.02076
 O634 O 1.13076 1.10068 1.02082
 C635 C 1.12317 1.08346 1.02801
 C636 C 1.13423 1.07210 1.04531
 C637 C 1.15412 1.07904 1.05259
 H638 H 1.16164 1.09260 1.04521
 O639 O 0.89428 0.92390 1.02076
 O640 O 0.86942 0.89931 1.02077
 C641 C 0.87699 0.91652 1.02799
 C642 C 0.86590 0.92780 1.04532
 C643 C 0.84603 0.92077 1.05254
 H644 H 0.83833 0.90756 1.04475
 O645 O 0.97953 1.07657 1.10554
 O646 O 0.97959 1.10125 1.13023
 C647 C 0.97232 1.08402 1.12275
 C648 C 0.95496 1.07276 1.13386
 C649 C 0.94782 1.07976 1.15370
 H650 H 0.95570 1.09295 1.16136
 O651 O 1.02052 0.92333 1.10570
 O652 O 1.02044 0.89864 1.13039
 C653 C 1.02773 0.91587 1.12292
 C654 C 1.04508 0.92712 1.13403
 C655 C 1.05238 0.92004 1.15380
 H656 H 1.04496 0.90645 1.16122
 O657 O 1.10545 0.97892 1.07665
 O658 O 1.13031 0.97883 1.10120
 C659 C 1.12274 0.97164 1.08401
 C660 C 1.13383 0.95432 1.07268
 C661 C 1.15371 0.94704 1.07962
 H662 H 1.16120 0.95441 1.09317
 O663 O 0.89440 1.02100 1.07667
 O664 O 0.86957 1.02109 1.10123
 C665 C 0.87713 1.02828 1.08403
 C666 C 0.86604 1.04561 1.07269
 C667 C 0.84616 1.05291 1.07963
 H668 H 0.83867 1.04554 1.09318
 O669 O 0.92364 1.10575 1.02078
 O670 O 0.89901 1.13059 1.02082
 C671 C 0.91625 1.12302 1.02802
 C672 C 0.92757 1.13408 1.04534
 C673 C 0.92055 1.15394 1.05255
 H674 H 0.90732 1.16164 1.04477
 O675 O 1.07622 0.89419 1.02081
 O676 O 1.10088 0.86937 1.02082
 C677 C 1.08364 0.87692 1.02804
 C678 C 1.07237 0.86585 1.04538
 C679 C 1.07942 0.84602 1.05265
 H680 H 1.09266 0.83832 1.04488
 O681 O 0.92345 1.02090 1.10564
 O682 O 0.89878 1.02100 1.13035
 C683 C 0.91606 1.02816 1.12286
 C684 C 0.92746 1.04544 1.13394
 C685 C 0.92053 1.05268 1.15378
 H686 H 0.90694 1.04530 1.16125
 O687 O 1.07645 0.97902 1.10567
 O688 O 1.10118 0.97893 1.13035
 C689 C 1.08389 0.97176 1.12288
 C690 C 1.07257 0.95445 1.13398
 C691 C 1.07963 0.94717 1.15376
 H692 H 1.09292 0.95491 1.16140
 O693 O 1.02051 0.89438 1.07668
 O694 O 1.02042 0.86954 1.10124
 C695 C 1.02769 0.87707 1.08406
 C696 C 1.04500 0.86591 1.07277
 C697 C 1.05228 0.84608 1.07982
 H698 H 1.04491 0.83868 1.09342
 O699 O 0.97955 1.10564 1.07661
 O700 O 0.97960 1.13046 1.10116
 C701 C 0.97233 1.12293 1.08398
 C702 C 0.95500 1.13407 1.07269
 C703 C 0.94774 1.15393 1.07969
 H704 H 0.95515 1.16136 1.09325
 O705 O 0.89454 1.07678 1.02075
 O706 O 0.86978 1.10149 1.02078
 C707 C 0.87728 1.08423 1.02798
 C708 C 0.86614 1.07297 1.04529
 C709 C 0.84626 1.08002 1.05244
 H710 H 0.83859 1.09323 1.04461
 O711 O 1.10530 0.92318 1.02079
 O712 O 1.13008 0.89849 1.02079
 C713 C 1.12257 0.91573 1.02800
 C714 C 1.13372 0.92698 1.04529
 C715 C 1.15361 0.91994 1.05244
 H716 H 1.16128 0.90672 1.04462
 O717 O 0.97914 0.92352 1.10557
 O718 O 0.97900 0.89881 1.13024
 C719 C 0.97184 0.91609 1.12276
 C720 C 0.95452 0.92742 1.13384
 C721 C 0.94730 0.92041 1.15365
 H722 H 0.95508 0.90715 1.16130
 O723 O 1.02092 1.07656 1.10560
 O724 O 1.02104 1.10124 1.13028
 C725 C 1.02821 1.08397 1.12280
 C726 C 1.04554 1.07260 1.13389
 C727 C 1.05292 1.07964 1.15364
 H728 H 1.04561 1.09329 1.16106
 O729 O 0.89434 0.97965 1.07664
 O730 O 0.86951 0.97967 1.10121
 C731 C 0.87704 0.97245 1.08401
 C732 C 0.86589 0.95516 1.07270
 C733 C 0.84603 0.94789 1.07970
 H734 H 0.83860 0.95527 1.09327
 O735 O 1.10555 1.02026 1.07659
 O736 O 1.13039 1.02020 1.10115
 C737 C 1.12286 1.02744 1.08396
 C738 C 1.13404 1.04472 1.07267
 C739 C 1.15393 1.05186 1.07970
 H740 H 1.16156 1.04404 1.09292
 O741 O 0.92331 0.89483 1.02070
 O742 O 0.89857 0.87011 1.02070
 C743 C 0.91586 0.87756 1.02789
 C744 C 0.92717 0.86636 1.04513
 C745 C 0.92026 0.84639 1.05211
 H746 H 0.90709 0.83871 1.04423
 O747 O 1.07685 1.10519 1.02074
 O748 O 1.10160 1.12990 1.02078
 C749 C 1.08431 1.12243 1.02795
 C750 C 1.07299 1.13361 1.04519
 C751 C 1.07996 1.15353 1.05224
 H752 H 1.09318 1.16119 1.04440
 Cu753 Cu 1.08852 0.99965 1.08867
 Cu754 Cu 1.11827 0.99957 1.11822
 Cu755 Cu 0.91135 1.00027 1.08869
 Cu756 Cu 0.88164 1.00034 1.11827
 Cu757 Cu 1.00023 1.08859 1.08861
 Cu758 Cu 1.00032 1.11830 1.11816
 Cu759 Cu 0.99984 0.91142 1.08867
 Cu760 Cu 0.99970 0.88168 1.11822
 C761 C 1.05549 1.05518 1.12422
 H762 H 1.05009 1.04986 1.10886
 C763 C 1.07013 1.06958 1.16362
 C764 C 0.94448 0.94482 1.12422
 H765 H 0.94979 0.95013 1.10882
 C766 C 0.93013 0.93042 1.16373
 C767 C 1.05565 1.12398 1.05529
 H768 H 1.05036 1.10848 1.05011
 C769 C 1.06996 1.16371 1.06931
 C770 C 0.94446 0.87603 1.05529
 H771 H 0.94969 0.89156 1.05017
 C772 C 0.93029 0.83619 1.06916
 C773 C 1.12443 1.05481 1.05534
 H774 H 1.10896 1.04956 1.05002
 C775 C 1.16408 1.06902 1.06979
 C776 C 0.87559 0.94512 1.05538
 H777 H 0.89104 0.95044 1.05008
 C778 C 0.83597 0.93071 1.06972
 C779 C 0.94480 1.05547 1.12422
 H780 H 0.95004 1.05017 1.10879
 C781 C 0.93062 1.06983 1.16379
 C782 C 1.05517 0.94445 1.12436
 H783 H 1.04982 0.94980 1.10897
 C784 C 1.06964 0.92997 1.16380
 C785 C 1.12407 0.94431 1.05539
 H786 H 1.10860 0.94965 1.05014
 C787 C 1.16373 0.92985 1.06960
 C788 C 0.87579 1.05563 1.05539
 H789 H 0.89125 1.05029 1.05014
 C790 C 0.83614 1.07010 1.06960
 C791 C 0.94493 1.12438 1.05538
 H792 H 0.95024 1.10894 1.05008
 C793 C 0.93052 1.16399 1.06972
 C794 C 1.05503 0.87556 1.05543
 H795 H 1.04969 0.89099 1.05009
 C796 C 1.06948 0.83600 1.06986
 O797 O 1.07643 0.97917 0.89468
 O798 O 1.10113 0.97909 0.86999
 C799 C 1.08386 0.97191 0.87747
 C800 C 1.07256 0.95459 0.86638
 C801 C 1.07960 0.94737 0.84659
 H802 H 1.09284 0.95518 0.83893
 O803 O 0.92348 1.02111 0.89461
 O804 O 0.89880 1.02118 0.86989
 C805 C 0.91605 1.02838 0.87739
 C806 C 0.92737 1.04573 0.86633
 C807 C 0.92030 1.05310 0.84658
 H808 H 0.90668 1.04574 0.83915
 O809 O 0.97951 1.10579 0.92380
 O810 O 0.97959 1.13063 0.89926
 C811 C 0.97232 1.12309 0.91643
 C812 C 0.95501 1.13424 0.92772
 C813 C 0.94776 1.15410 0.92071
 H814 H 0.95518 1.16153 0.90715
 O815 O 1.02047 0.89433 0.92364
 O816 O 1.02041 0.86953 0.89907
 C817 C 1.02766 0.87704 0.91627
 C818 C 1.04495 0.86587 0.92759
 C819 C 1.05222 0.84602 0.92060
 H820 H 1.04485 0.83859 0.90702
 O821 O 1.10526 0.92321 0.97953
 O822 O 1.13004 0.89852 0.97950
 C823 C 1.12253 0.91577 0.97230
 C824 C 1.13367 0.92705 0.95501
 C825 C 1.15355 0.92001 0.94785
 H826 H 1.16122 0.90678 0.95566
 O827 O 0.89449 1.07689 0.97948
 O828 O 0.86972 1.10159 0.97948
 C829 C 0.87722 1.08435 0.97226
 C830 C 0.86610 1.07308 0.95494
 C831 C 0.84625 1.08015 0.94765
 H832 H 0.83880 1.09373 0.95504
 O833 O 1.02079 1.07661 0.89485
 O834 O 1.02091 1.10131 0.87016
 C835 C 1.02806 1.08402 0.87764
 C836 C 1.04535 1.07266 0.86653
 C837 C 1.05253 1.07962 0.84669
 H838 H 1.04474 1.09287 0.83903
 O839 O 0.97922 0.92356 0.89470
 O840 O 0.97908 0.89892 0.86997
 C841 C 0.97195 0.91620 0.87747
 C842 C 0.95471 0.92766 0.86636
 C843 C 0.94756 0.92083 0.84646
 H844 H 0.95497 0.90727 0.83898
 O845 O 1.10558 1.02041 0.92368
 O846 O 1.13040 1.02037 0.89910
 C847 C 1.12289 1.02759 0.91630
 C848 C 1.13408 1.04485 0.92759
 C849 C 1.15397 1.05202 0.92058
 H850 H 1.16160 1.04423 0.90735
 O851 O 0.89442 0.97979 0.92360
 O852 O 0.86959 0.97980 0.89903
 C853 C 0.87712 0.97259 0.91623
 C854 C 0.86595 0.95532 0.92757
 C855 C 0.84604 0.94814 0.92063
 H856 H 0.83858 0.95555 0.90707
 O857 O 1.07690 1.10525 0.97950
 O858 O 1.10165 1.12995 0.97950
 C859 C 1.08437 1.12250 0.97230
 C860 C 1.07308 1.13369 0.95504
 C861 C 1.08012 1.15357 0.94791
 H862 H 1.09339 1.16119 0.95571
 O863 O 0.92322 0.89481 0.97945
 O864 O 0.89847 0.87011 0.97943
 C865 C 0.91574 0.87757 0.97222
 C866 C 0.92700 0.86640 0.95494
 C867 C 0.91996 0.84653 0.94781
 H868 H 0.90672 0.83888 0.95563
 O869 O 0.92354 0.97974 0.89470
 O870 O 0.89885 0.97977 0.86999
 C871 C 0.91611 0.97252 0.87749
 C872 C 0.92740 0.95519 0.86639
 C873 C 0.92048 0.94815 0.84648
 H874 H 0.90734 0.95607 0.83877
 O875 O 1.07652 1.02053 0.89472
 O876 O 1.10120 1.02050 0.87000
 C877 C 1.08396 1.02776 0.87750
 C878 C 1.07267 1.04513 0.86643
 C879 C 1.07964 1.05234 0.84659
 H880 H 1.09317 1.04487 0.83911
 O881 O 0.97909 0.89452 0.92364
 O882 O 0.97896 0.86972 0.89907
 C883 C 0.97178 0.87728 0.91626
 C884 C 0.95442 0.86624 0.92759
 C885 C 0.94714 0.84637 0.92068
 H886 H 0.95454 0.83886 0.90716
 O887 O 1.02090 1.10564 0.92379
 O888 O 1.02103 1.13048 0.89925
 C889 C 1.02822 1.12289 0.91643
 C890 C 1.04560 1.13391 0.92775
 C891 C 1.05288 1.15379 0.92084
 H892 H 1.04545 1.16132 0.90734
 O893 O 0.89432 0.92400 0.97949
 O894 O 0.86944 0.89943 0.97947
 C895 C 0.87702 0.91665 0.97227
 C896 C 0.86593 0.92797 0.95497
 C897 C 0.84601 0.92103 0.94782
 H898 H 0.83828 0.90785 0.95564
 O899 O 1.10588 1.07613 0.97951
 O900 O 1.13077 1.10070 0.97952
 C901 C 1.12319 1.08349 0.97230
 C902 C 1.13426 1.07217 0.95500
 C903 C 1.15414 1.07913 0.94775
 H904 H 1.16165 1.09267 0.95515
 O905 O 1.02058 0.92333 0.89464
 O906 O 1.02051 0.89868 0.86992
 C907 C 1.02779 0.91590 0.87742
 C908 C 1.04514 0.92719 0.86633
 C909 C 1.05242 0.92017 0.84653
 H910 H 1.04502 0.90659 0.83909
 O911 O 0.97940 1.07686 0.89476
 O912 O 0.97948 1.10156 0.87008
 C913 C 0.97219 1.08434 0.87754
 C914 C 0.95480 1.07313 0.86644
 C915 C 0.94752 1.08026 0.84668
 H916 H 0.95530 1.09353 0.83906
 O917 O 0.89455 1.02113 0.92367
 O918 O 0.86973 1.02119 0.89909
 C919 C 0.87727 1.02839 0.91628
 C920 C 0.86617 1.04573 0.92756
 C921 C 0.84632 1.05300 0.92052
 H922 H 0.83866 1.04524 0.90729
 O923 O 1.10542 0.97907 0.92370
 O924 O 1.13026 0.97899 0.89914
 C925 C 1.12270 0.97179 0.91633
 C926 C 1.13377 0.95445 0.92765
 C927 C 1.15365 0.94717 0.92071
 H928 H 1.16114 0.95456 0.90717
 O929 O 1.07618 0.89421 0.97954
 O930 O 1.10084 0.86939 0.97952
 C931 C 1.08359 0.87694 0.97232
 C932 C 1.07230 0.86585 0.95500
 C933 C 1.07934 0.84600 0.94781
 H934 H 1.09256 0.83830 0.95561
 O935 O 0.92362 1.10584 0.97952
 O936 O 0.89898 1.13067 0.97952
 C937 C 0.91623 1.12313 0.97231
 C938 C 0.92755 1.13424 0.95502
 C939 C 0.92053 1.15410 0.94779
 H940 H 0.90728 1.16179 0.95554
 Cu941 Cu 1.08851 0.99980 0.91165
 Cu942 Cu 1.11823 0.99973 0.88208
 Cu943 Cu 0.91148 1.00044 0.91160
 Cu944 Cu 0.88176 1.00048 0.88202
 Cu945 Cu 1.08890 1.08820 1.00012
 Cu946 Cu 1.11869 1.11778 1.00016
 Cu947 Cu 1.08827 0.91117 1.00017
 Cu948 Cu 1.11794 0.88145 1.00016
 Cu949 Cu 0.91154 1.08884 1.00013
 Cu950 Cu 0.88189 1.11857 1.00015
 Cu951 Cu 0.91126 0.91185 1.00010
 Cu952 Cu 0.88148 0.88227 1.00009
 Cu953 Cu 1.00014 1.08875 0.91176
 Cu954 Cu 1.00027 1.11849 0.88221
 Cu955 Cu 0.99985 0.91140 0.91162
 Cu956 Cu 0.99973 0.88172 0.88203
 C957 C 1.05520 0.94452 0.87602
 H958 H 1.04987 0.94983 0.89142
 C959 C 1.06965 0.93017 0.83654
 C960 C 0.94474 1.05573 0.87602
 H961 H 0.95009 1.05034 0.89139
 C962 C 0.93028 1.07035 0.83662
 C963 C 0.94492 1.12455 0.94501
 H964 H 0.95023 1.10910 0.95032
 C965 C 0.93054 1.16416 0.93065
 C966 C 1.05497 0.87555 0.94492
 H967 H 1.04965 0.89099 0.95021
 C968 C 1.06941 0.83596 0.93061
 C969 C 1.12401 0.94440 0.94493
 H970 H 1.10855 0.94973 0.95019
 C971 C 1.16367 0.92996 0.93072
 C972 C 0.87582 1.05575 0.94490
 H973 H 0.89125 1.05040 0.95023
 C974 C 0.83624 1.07020 0.93044
 C975 C 1.05540 1.05528 0.87616
 H976 H 1.05012 1.05000 0.89159
 C977 C 1.06966 1.06958 0.83659
 C978 C 0.94465 0.94497 0.87609
 H979 H 0.94988 0.95014 0.89157
 C980 C 0.93046 0.93098 0.83639
 C981 C 1.12447 1.05490 0.94494
 H982 H 1.10900 1.04964 0.95025
 C983 C 1.16412 1.06915 0.93055
 C984 C 0.87566 0.94525 0.94487
 H985 H 0.89115 0.95050 0.95012
 C986 C 0.83594 0.93100 0.93066
 C987 C 1.05569 1.12410 0.94498
 H988 H 1.05035 1.10864 0.95021
 C989 C 1.07013 1.16375 0.93083
 C990 C 0.94437 0.87602 0.94485
 H991 H 0.94970 0.89148 0.95008
 C992 C 0.92993 0.83638 0.93070
 O993 O 0.97953 0.42326 0.39456
 O994 O 0.97946 0.39858 0.36987
 C995 C 0.97229 0.41585 0.37734
 C996 C 0.95502 0.42721 0.36619
 C997 C 0.94788 0.42022 0.34634
 H998 H 0.95570 0.40698 0.33872
 O999 O 1.02153 0.57627 0.39437
 O1000 O 1.02162 0.60088 0.36959
 C1001 C 1.02880 0.58363 0.37713
 C1002 C 1.04610 0.57224 0.36607
 C1003 C 1.05340 0.57920 0.34626
 H1004 H 1.04604 0.59281 0.33881
 O1005 O 0.89465 0.47942 0.42320
 O1006 O 0.86990 0.47945 0.39854
 C1007 C 0.87736 0.47223 0.41578
 C1008 C 0.86614 0.45499 0.42710
 C1009 C 0.84623 0.44783 0.42011
 H1010 H 0.83882 0.45525 0.40654
 O1011 O 1.10615 0.52013 0.42356
 O1012 O 1.13099 0.51999 0.39900
 C1013 C 1.12346 0.52729 0.41616
 C1014 C 1.13462 0.54463 0.42737
 C1015 C 1.15445 0.55186 0.42028
 H1016 H 1.16210 0.54406 0.40706
 O1017 O 0.92331 0.39454 0.47920
 O1018 O 0.89856 0.36984 0.47912
 C1019 C 0.91586 0.37730 0.47196
 C1020 C 0.92719 0.36613 0.45472
 C1021 C 0.92020 0.34623 0.44760
 H1022 H 0.90694 0.33858 0.45537
 O1023 O 1.07732 0.60523 0.47901
 O1024 O 1.10209 0.62990 0.47905
 C1025 C 1.08483 0.62246 0.47181
 C1026 C 1.07359 0.63360 0.45448
 C1027 C 1.08069 0.65343 0.44725
 H1028 H 1.09395 0.66107 0.45503
 O1029 O 0.92394 0.52062 0.39429
 O1030 O 0.89936 0.52071 0.36947
 C1031 C 0.91662 0.52786 0.37703
 C1032 C 0.92808 0.54509 0.36594
 C1033 C 0.92126 0.55223 0.34602
 H1034 H 0.90771 0.54482 0.33852
 O1035 O 1.07694 0.47884 0.39469
 O1036 O 1.10166 0.47866 0.37001
 C1037 C 1.08436 0.47154 0.37750
 C1038 C 1.07301 0.45425 0.36641
 C1039 C 1.07997 0.44709 0.34657
 H1040 H 1.09321 0.45489 0.33891
 O1041 O 1.02075 0.39405 0.42359
 O1042 O 1.02074 0.36925 0.39902
 C1043 C 1.02795 0.37675 0.41622
 C1044 C 1.04522 0.36558 0.42756
 C1045 C 1.05244 0.34570 0.42059
 H1046 H 1.04504 0.33827 0.40703
 O1047 O 0.98015 0.60540 0.42324
 O1048 O 0.98019 0.63014 0.39858
 C1049 C 0.97293 0.62266 0.41578
 C1050 C 0.95556 0.63381 0.42697
 C1051 C 0.94839 0.65367 0.41990
 H1052 H 0.95626 0.66131 0.40672
 O1053 O 0.89484 0.57665 0.47872
 O1054 O 0.87011 0.60139 0.47864
 C1055 C 0.87759 0.58412 0.47147
 C1056 C 0.86645 0.57284 0.45418
 C1057 C 0.84658 0.57988 0.44698
 H1058 H 0.83890 0.59312 0.45475
 O1059 O 1.10564 0.42290 0.47942
 O1060 O 1.13038 0.39816 0.47949
 C1061 C 1.12292 0.41542 0.47226
 C1062 C 1.13412 0.42669 0.45500
 C1063 C 1.15403 0.41967 0.44790
 H1064 H 1.16168 0.40642 0.45571
 O1065 O 0.98014 0.57631 0.39436
 O1066 O 0.98020 0.60091 0.36957
 C1067 C 0.97294 0.58369 0.37711
 C1068 C 0.95561 0.57240 0.36600
 C1069 C 0.94857 0.57929 0.34608
 H1070 H 0.95649 0.59243 0.33838
 O1071 O 1.02090 0.42307 0.39461
 O1072 O 1.02089 0.39841 0.36990
 C1073 C 1.02815 0.41564 0.37740
 C1074 C 1.04551 0.42692 0.36633
 C1075 C 1.05273 0.41996 0.34649
 H1076 H 1.04527 0.40643 0.33901
 O1077 O 1.10599 0.47878 0.42366
 O1078 O 1.13084 0.47860 0.39912
 C1079 C 1.12326 0.47145 0.41632
 C1080 C 1.13430 0.45412 0.42767
 C1081 C 1.15421 0.44686 0.42079
 H1082 H 1.16174 0.45428 0.40729
 O1083 O 0.89472 0.52076 0.42307
 O1084 O 0.86998 0.52086 0.39841
 C1085 C 0.87748 0.52806 0.41562
 C1086 C 0.86637 0.54541 0.42688
 C1087 C 0.84650 0.55268 0.41989
 H1088 H 0.83903 0.54527 0.40635
 O1089 O 0.92398 0.60560 0.47872
 O1090 O 0.89938 0.63047 0.47863
 C1091 C 0.91662 0.62289 0.47146
 C1092 C 0.92803 0.63395 0.45420
 C1093 C 0.92107 0.65381 0.44688
 H1094 H 0.90746 0.66131 0.45420
 O1095 O 1.07652 0.39394 0.47940
 O1096 O 1.10113 0.36907 0.47947
 C1097 C 1.08391 0.37664 0.47223
 C1098 C 1.07261 0.36555 0.45493
 C1099 C 1.07960 0.34567 0.44776
 H1100 H 1.09282 0.33796 0.45555
 O1101 O 1.07717 0.52020 0.39453
 O1102 O 1.10188 0.52005 0.36984
 C1103 C 1.08465 0.52737 0.37730
 C1104 C 1.07344 0.54474 0.36617
 C1105 C 1.08050 0.55191 0.34636
 H1106 H 1.09373 0.54407 0.33872
 O1107 O 0.92372 0.47928 0.39427
 O1108 O 0.89912 0.47931 0.36946
 C1109 C 0.91633 0.47205 0.37703
 C1110 C 0.92766 0.45469 0.36600
 C1111 C 0.92073 0.44746 0.34616
 H1112 H 0.90720 0.45490 0.33865
 O1113 O 1.02155 0.60537 0.42325
 O1114 O 1.02164 0.63011 0.39861
 C1115 C 1.02883 0.62261 0.41583
 C1116 C 1.04618 0.63370 0.42712
 C1117 C 1.05351 0.65353 0.42011
 H1118 H 1.04613 0.66098 0.40653
 O1119 O 0.97937 0.39426 0.42355
 O1120 O 0.97930 0.36943 0.39900
 C1121 C 0.97208 0.37701 0.41617
 C1122 C 0.95470 0.36596 0.42747
 C1123 C 0.94747 0.34607 0.42056
 H1124 H 0.95493 0.33856 0.40707
 O1125 O 1.10628 0.57610 0.47909
 O1126 O 1.13119 0.60064 0.47913
 C1127 C 1.12361 0.58344 0.47190
 C1128 C 1.13471 0.57208 0.45464
 C1129 C 1.15455 0.57910 0.44732
 H1130 H 1.16200 0.59272 0.45464
 O1131 O 0.89434 0.42367 0.47911
 O1132 O 0.86946 0.39911 0.47904
 C1133 C 0.87706 0.41632 0.47184
 C1134 C 0.86602 0.42764 0.45451
 C1135 C 0.84611 0.42072 0.44731
 H1136 H 0.83835 0.40756 0.45512
 Cu1137 Cu 1.00015 0.41113 0.41154
 Cu1138 Cu 1.00009 0.38143 0.38197
 Cu1139 Cu 1.00084 0.58838 0.41128
 Cu1140 Cu 1.00092 0.61799 0.38161
 Cu1141 Cu 0.91172 0.50001 0.41118
 Cu1142 Cu 0.88211 0.50009 0.38148
 Cu1143 Cu 1.08909 0.49950 0.41157
 Cu1144 Cu 1.11883 0.49930 0.38202
 C1145 C 0.94494 0.44458 0.37578
 H1146 H 0.95018 0.44987 0.39122
 C1147 C 0.93075 0.43023 0.33621
 C1148 C 1.05610 0.55488 0.37579
 H1149 H 1.05075 0.54962 0.39119
 C1150 C 1.07058 0.56913 0.33627
 C1151 C 0.87580 0.44491 0.44443
 H1152 H 0.89128 0.45015 0.44971
 C1153 C 0.83609 0.43071 0.43012
 C1154 C 1.12499 0.55472 0.44468
 H1155 H 1.10956 0.54941 0.45005
 C1156 C 1.16454 0.56909 0.43014
 C1157 C 0.94458 0.37576 0.44468
 H1158 H 0.94988 0.39122 0.44991
 C1159 C 0.93024 0.33608 0.43053
 C1160 C 1.05621 0.62398 0.44443
 H1161 H 1.05084 0.60856 0.44974
 C1162 C 1.07075 0.66352 0.43008
 C1163 C 0.94539 0.55516 0.37570
 H1164 H 0.95055 0.54993 0.39118
 C1165 C 0.93142 0.56932 0.33596
 C1166 C 1.05564 0.44419 0.37606
 H1167 H 1.05036 0.44946 0.39149
 C1168 C 1.06995 0.42995 0.33648
 C1169 C 1.05528 0.37527 0.44486
 H1170 H 1.04999 0.39073 0.45013
 C1171 C 1.06962 0.33562 0.43059
 C1172 C 0.94540 0.62419 0.44425
 H1173 H 0.95067 0.60875 0.44960
 C1174 C 0.93115 0.66379 0.42974
 C1175 C 0.87611 0.55547 0.44415
 H1176 H 0.89156 0.55014 0.44944
 C1177 C 0.83647 0.56990 0.42985
 C1178 C 1.12449 0.44405 0.44491
 H1179 H 1.10901 0.44938 0.45011
 C1180 C 1.16421 0.42966 0.43082
 O1181 O 1.02038 0.42324 0.60524
 O1182 O 1.02032 0.39862 0.63000
 C1183 C 1.02759 0.41583 0.62248
 C1184 C 1.04492 0.42713 0.63358
 C1185 C 1.05210 0.42018 0.65344
 H1186 H 1.04463 0.40665 0.66090
 O1187 O 0.97966 0.57657 0.60475
 O1188 O 0.97965 0.60125 0.62944
 C1189 C 0.97240 0.58402 0.62195
 C1190 C 0.95502 0.57277 0.63304
 C1191 C 0.94789 0.57978 0.65288
 H1192 H 0.95576 0.59297 0.66054
 O1193 O 0.89452 0.52085 0.57591
 O1194 O 0.86967 0.52106 0.60045
 C1195 C 0.87725 0.52819 0.58324
 C1196 C 0.86621 0.54551 0.57185
 C1197 C 0.84629 0.55278 0.57871
 H1198 H 0.83876 0.54539 0.59223
 O1199 O 1.10561 0.47879 0.57631
 O1200 O 1.13038 0.47873 0.60095
 C1201 C 1.12287 0.47152 0.58375
 C1202 C 1.13398 0.45417 0.57251
 C1203 C 1.15384 0.44689 0.57953
 H1204 H 1.16129 0.45430 0.59307
 O1205 O 1.07639 0.39403 0.52065
 O1206 O 1.10099 0.36915 0.52076
 C1207 C 1.08374 0.37674 0.52791
 C1208 C 1.07235 0.36568 0.54518
 C1209 C 1.07926 0.34577 0.55237
 H1210 H 1.09248 0.33803 0.54462
 O1211 O 0.92396 0.60561 0.51996
 O1212 O 0.89936 0.63048 0.51992
 C1213 C 0.91659 0.62291 0.52714
 C1214 C 0.92792 0.63402 0.54441
 C1215 C 0.92099 0.65395 0.55151
 H1216 H 0.90779 0.66166 0.54368
 O1217 O 0.92331 0.47944 0.60509
 O1218 O 0.89861 0.47960 0.62978
 C1219 C 0.91583 0.47227 0.62232
 C1220 C 0.92706 0.45489 0.63344
 C1221 C 0.91996 0.44762 0.65322
 H1222 H 0.90638 0.45507 0.66062
 O1223 O 1.07662 0.52031 0.60510
 O1224 O 1.10127 0.52027 0.62986
 C1225 C 1.08405 0.52755 0.62232
 C1226 C 1.07281 0.54495 0.63335
 C1227 C 1.07983 0.55213 0.65316
 H1228 H 1.09301 0.54426 0.66086
 O1229 O 0.97896 0.39430 0.57627
 O1230 O 0.97885 0.36953 0.60088
 C1231 C 0.97167 0.37706 0.58367
 C1232 C 0.95431 0.36600 0.57236
 C1233 C 0.94695 0.34619 0.57938
 H1234 H 0.95431 0.33874 0.59297
 O1235 O 1.02121 0.60547 0.57591
 O1236 O 1.02124 0.63029 0.60045
 C1237 C 1.02849 0.62273 0.58329
 C1238 C 1.04589 0.63377 0.57202
 C1239 C 1.05319 0.65362 0.57899
 H1240 H 1.04576 0.66112 0.59250
 O1241 O 0.89424 0.42366 0.52038
 O1242 O 0.86936 0.39909 0.52035
 C1243 C 0.87693 0.41629 0.52758
 C1244 C 0.86583 0.42759 0.54489
 C1245 C 0.84600 0.42054 0.55217
 H1246 H 0.83832 0.40729 0.54444
 O1247 O 1.10612 0.57603 0.52032
 O1248 O 1.13105 0.60054 0.52042
 C1249 C 1.12342 0.58333 0.52759
 C1250 C 1.13445 0.57192 0.54487
 C1251 C 1.15441 0.57872 0.55205
 H1252 H 1.16199 0.59222 0.54463
 O1253 O 1.02104 0.57650 0.60492
 O1254 O 1.02109 0.60117 0.62962
 C1255 C 1.02827 0.58390 0.62216
 C1256 C 1.04552 0.57250 0.63330
 C1257 C 1.05278 0.57948 0.65312
 H1258 H 1.04543 0.59311 0.66053
 O1259 O 0.97900 0.42338 0.60516
 O1260 O 0.97889 0.39874 0.62991
 C1261 C 0.97171 0.41600 0.62238
 C1262 C 0.95437 0.42735 0.63343
 C1263 C 0.94707 0.42033 0.65321
 H1264 H 0.95480 0.40705 0.66087
 O1265 O 1.10567 0.52014 0.57614
 O1266 O 1.13044 0.52010 0.60077
 C1267 C 1.12297 0.52731 0.58354
 C1268 C 1.13420 0.54454 0.57224
 C1269 C 1.15416 0.55156 0.57918
 H1270 H 1.16181 0.54369 0.59237
 O1271 O 0.89431 0.47950 0.57607
 O1272 O 0.86947 0.47965 0.60062
 C1273 C 0.87700 0.47234 0.58346
 C1274 C 0.86584 0.45502 0.57221
 C1275 C 0.84601 0.44773 0.57928
 H1276 H 0.83860 0.45512 0.59286
 O1277 O 1.07721 0.60521 0.52026
 O1278 O 1.10200 0.62988 0.52036
 C1279 C 1.08469 0.62244 0.52751
 C1280 C 1.07339 0.63360 0.54476
 C1281 C 1.08044 0.65345 0.55193
 H1282 H 1.09372 0.66108 0.54417
 O1283 O 0.92318 0.39451 0.52045
 O1284 O 0.89843 0.36981 0.52041
 C1285 C 0.91569 0.37727 0.52766
 C1286 C 0.92691 0.36612 0.54499
 C1287 C 0.91979 0.34631 0.55223
 H1288 H 0.90652 0.33868 0.54446
 O1289 O 1.07644 0.47895 0.60515
 O1290 O 1.10108 0.47888 0.62992
 C1291 C 1.08381 0.47171 0.62240
 C1292 C 1.07243 0.45445 0.63351
 C1293 C 1.07937 0.44728 0.65337
 H1294 H 1.09261 0.45507 0.66105
 O1295 O 0.92353 0.52080 0.60492
 O1296 O 0.89883 0.52102 0.62962
 C1297 C 0.91613 0.52813 0.62211
 C1298 C 0.92753 0.54543 0.63316
 C1299 C 0.92061 0.55269 0.65299
 H1300 H 0.90703 0.54531 0.66047
 O1301 O 0.97982 0.60560 0.57580
 O1302 O 0.97980 0.63043 0.60034
 C1303 C 0.97260 0.62290 0.58314
 C1304 C 0.95533 0.63405 0.57177
 C1305 C 0.94815 0.65397 0.57866
 H1306 H 0.95558 0.66145 0.59218
 O1307 O 1.02035 0.39421 0.57629
 O1308 O 1.02029 0.36944 0.60091
 C1309 C 1.02755 0.37693 0.58371
 C1310 C 1.04486 0.36575 0.57244
 C1311 C 1.05200 0.34584 0.57942
 H1312 H 1.04452 0.33841 0.59294
 O1313 O 1.10557 0.42291 0.52066
 O1314 O 1.13030 0.39818 0.52078
 C1315 C 1.12281 0.41545 0.52793
 C1316 C 1.13393 0.42673 0.54522
 C1317 C 1.15379 0.41969 0.55245
 H1318 H 1.16147 0.40643 0.54470
 O1319 O 0.89483 0.57666 0.51998
 O1320 O 0.87009 0.60140 0.51994
 C1321 C 0.87756 0.58414 0.52717
 C1322 C 0.86638 0.57288 0.54446
 C1323 C 0.84646 0.57991 0.55154
 H1324 H 0.83880 0.59312 0.54369
 Cu1325 Cu 0.99968 0.41125 0.58827
 Cu1326 Cu 0.99958 0.38160 0.61791
 Cu1327 Cu 1.00044 0.58857 0.58788
 Cu1328 Cu 1.00044 0.61827 0.61744
 Cu1329 Cu 0.91125 0.41156 0.49979
 Cu1330 Cu 0.88145 0.38199 0.49972
 Cu1331 Cu 1.08856 0.41092 0.50002
 Cu1332 Cu 1.11818 0.38115 0.50014
 Cu1333 Cu 0.91187 0.58865 0.49935
 Cu1334 Cu 0.88225 0.61842 0.49928
 Cu1335 Cu 1.08925 0.58818 0.49966
 Cu1336 Cu 1.11908 0.61772 0.49975
 Cu1337 Cu 0.91139 0.50013 0.58804
 Cu1338 Cu 0.88165 0.50036 0.61759
 Cu1339 Cu 1.08861 0.49955 0.58821
 Cu1340 Cu 1.11827 0.49949 0.61786
 C1341 C 1.05507 0.44440 0.62385
 H1342 H 1.04981 0.44966 0.60841
 C1343 C 1.06931 0.43016 0.66346
 C1344 C 0.94487 0.55546 0.62341
 H1345 H 0.95011 0.55015 0.60799
 C1346 C 0.93069 0.56985 0.66298
 C1347 C 0.87602 0.55555 0.55459
 H1348 H 0.89150 0.55023 0.54940
 C1349 C 0.83629 0.56995 0.56864
 C1350 C 1.12426 0.44410 0.55522
 H1351 H 1.10882 0.44944 0.54991
 C1352 C 1.16387 0.42966 0.56959
 C1353 C 1.05502 0.37543 0.55519
 H1354 H 1.04979 0.39091 0.54991
 C1355 C 1.06918 0.33572 0.56948
 C1356 C 0.94523 0.62431 0.55452
 H1357 H 0.95049 0.60882 0.54931
 C1358 C 0.93099 0.66405 0.56862
 C1359 C 0.94440 0.44476 0.62379
 H1360 H 0.94977 0.45008 0.60841
 C1361 C 0.92987 0.43035 0.66323
 C1362 C 1.05552 0.55511 0.62365
 H1363 H 1.05021 0.54982 0.60824
 C1364 C 1.06993 0.56939 0.66318
 C1365 C 0.94431 0.37572 0.55504
 H1366 H 0.94970 0.39113 0.54973
 C1367 C 0.92971 0.33621 0.56941
 C1368 C 1.05597 0.62400 0.55478
 H1369 H 1.05062 0.60856 0.54951
 C1370 C 1.07046 0.66359 0.56904
 C1371 C 0.87551 0.44496 0.55489
 H1372 H 0.89094 0.45030 0.54954
 C1373 C 0.83596 0.43049 0.56936
 C1374 C 1.12458 0.55470 0.55494
 H1375 H 1.10906 0.54955 0.54968
 C1376 C 1.16439 0.56863 0.56920
 O1377 O 0.57646 1.02078 0.60549
 O1378 O 0.60105 1.02068 0.63030
 C1379 C 0.58384 1.02798 0.62274
 C1380 C 0.57253 1.04533 0.63380
 C1381 C 0.57950 1.05256 0.65362
 H1382 H 0.59306 1.04511 0.66109
 O1383 O 0.42305 0.97977 0.60531
 O1384 O 0.39835 0.97982 0.63000
 C1385 C 0.41560 0.97255 0.62253
 C1386 C 0.42688 0.95520 0.63364
 C1387 C 0.41985 0.94796 0.65345
 H1388 H 0.40628 0.95540 0.66088
 O1389 O 0.52073 1.10581 0.57636
 O1390 O 0.52077 1.13060 0.60094
 C1391 C 0.52801 1.12305 0.58377
 C1392 C 0.54542 1.13410 0.57253
 C1393 C 0.55276 1.15392 0.57953
 H1394 H 0.54533 1.16142 0.59304
 O1395 O 0.47890 0.89478 0.57635
 O1396 O 0.47878 0.86996 0.60091
 C1397 C 0.47163 0.87751 0.58369
 C1398 C 0.45437 0.86639 0.57230
 C1399 C 0.44725 0.84643 0.57910
 H1400 H 0.45470 0.83891 0.59259
 O1401 O 0.60599 1.07649 0.52098
 O1402 O 0.63083 1.10110 0.52100
 C1403 C 0.62327 1.08389 0.52822
 C1404 C 0.63431 1.07259 0.54558
 C1405 C 0.65410 1.07966 0.55301
 H1406 H 0.66158 1.09328 0.54571
 O1407 O 0.39409 0.92397 0.52046
 O1408 O 0.36926 0.89935 0.52047
 C1409 C 0.37681 0.91657 0.52769
 C1410 C 0.36571 0.92784 0.54501
 C1411 C 0.34587 0.92077 0.55226
 H1412 H 0.33820 0.90753 0.54450
 O1413 O 0.47922 1.07683 0.60521
 O1414 O 0.47924 1.10148 0.62993
 C1415 C 0.47197 1.08426 0.62242
 C1416 C 0.45457 1.07303 0.63348
 C1417 C 0.44734 1.08010 0.65326
 H1418 H 0.45519 1.09331 0.66092
 O1419 O 0.52024 0.92369 0.60542
 O1420 O 0.52017 0.89904 0.63016
 C1421 C 0.52743 0.91627 0.62267
 C1422 C 0.54473 0.92758 0.63380
 C1423 C 0.55185 0.92066 0.65369
 H1424 H 0.54436 0.90714 0.66116
 O1425 O 0.60543 0.97935 0.57660
 O1426 O 0.63019 0.97920 0.60124
 C1427 C 0.62267 0.97204 0.58402
 C1428 C 0.63377 0.95471 0.57271
 C1429 C 0.65369 0.94749 0.57963
 H1430 H 0.66119 0.95491 0.59314
 O1431 O 0.39415 1.02114 0.57621
 O1432 O 0.36928 1.02123 0.60073
 C1433 C 0.37686 1.02841 0.58354
 C1434 C 0.36576 1.04571 0.57217
 C1435 C 0.34581 1.05288 0.57901
 H1436 H 0.33828 1.04543 0.59250
 O1437 O 0.42332 1.10615 0.52055
 O1438 O 0.39870 1.13099 0.52054
 C1439 C 0.41592 1.12342 0.52779
 C1440 C 0.42723 1.13446 0.54514
 C1441 C 0.42013 1.15422 0.55257
 H1442 H 0.40649 1.16169 0.54528
 O1443 O 0.57619 0.89451 0.52079
 O1444 O 0.60081 0.86966 0.52088
 C1445 C 0.58356 0.87723 0.52804
 C1446 C 0.57220 0.86615 0.54531
 C1447 C 0.57915 0.84626 0.55249
 H1448 H 0.59236 0.83853 0.54471
 O1449 O 0.42312 1.02112 0.60526
 O1450 O 0.39840 1.02124 0.62994
 C1451 C 0.41569 1.02841 0.62246
 C1452 C 0.42705 1.04572 0.63353
 C1453 C 0.42003 1.05304 0.65332
 H1454 H 0.40641 1.04569 0.66075
 O1455 O 0.57629 0.97944 0.60546
 O1456 O 0.60090 0.97930 0.63025
 C1457 C 0.58364 0.97217 0.62270
 C1458 C 0.57223 0.95490 0.63378
 C1459 C 0.57910 0.94778 0.65367
 H1460 H 0.59231 0.95559 0.66138
 O1461 O 0.52026 0.89464 0.57650
 O1462 O 0.52020 0.86985 0.60109
 C1463 C 0.52746 0.87735 0.58391
 C1464 C 0.54477 0.86619 0.57263
 C1465 C 0.55196 0.84629 0.57961
 H1466 H 0.54451 0.83885 0.59314
 O1467 O 0.47931 1.10587 0.57625
 O1468 O 0.47932 1.13063 0.60086
 C1469 C 0.47208 1.12313 0.58366
 C1470 C 0.45470 1.13428 0.57244
 C1471 C 0.44740 1.15404 0.57962
 H1472 H 0.45520 1.16163 0.59287
 O1473 O 0.39434 1.07706 0.52043
 O1474 O 0.36956 1.10175 0.52041
 C1475 C 0.37705 1.08449 0.52761
 C1476 C 0.36587 1.07315 0.54485
 C1477 C 0.34591 1.08008 0.55190
 H1478 H 0.33822 1.09328 0.54408
 O1479 O 0.60528 0.92348 0.52085
 O1480 O 0.63004 0.89876 0.52094
 C1481 C 0.62254 0.91602 0.52811
 C1482 C 0.63368 0.92731 0.54539
 C1483 C 0.65359 0.92032 0.55251
 H1484 H 0.66128 0.90712 0.54469
 O1485 O 0.47886 0.92377 0.60533
 O1486 O 0.47873 0.89910 0.63004
 C1487 C 0.47156 0.91636 0.62253
 C1488 C 0.45423 0.92770 0.63359
 C1489 C 0.44699 0.92070 0.65340
 H1490 H 0.45476 0.90745 0.66106
 O1491 O 0.52062 1.07675 0.60531
 O1492 O 0.52066 1.10141 0.63002
 C1493 C 0.52786 1.08415 0.62254
 C1494 C 0.54517 1.07281 0.63367
 C1495 C 0.55235 1.07980 0.65350
 H1496 H 0.54456 1.09305 0.66114
 O1497 O 0.39407 0.97979 0.57629
 O1498 O 0.36922 0.97982 0.60083
 C1499 C 0.37677 0.97257 0.58366
 C1500 C 0.36566 0.95523 0.57237
 C1501 C 0.34582 0.94792 0.57940
 H1502 H 0.33838 0.95529 0.59297
 O1503 O 0.60561 1.02070 0.57664
 O1504 O 0.63033 1.02060 0.60133
 C1505 C 0.62289 1.02787 0.58412
 C1506 C 0.63409 1.04520 0.57293
 C1507 C 0.65387 1.05247 0.58012
 H1508 H 0.66144 1.04469 0.59340
 O1509 O 0.42312 0.89490 0.52043
 O1510 O 0.39842 0.87014 0.52044
 C1511 C 0.41569 0.87763 0.52764
 C1512 C 0.42700 0.86647 0.54490
 C1513 C 0.42012 0.84650 0.55191
 H1514 H 0.40696 0.83879 0.54403
 O1515 O 0.57687 1.10546 0.52089
 O1516 O 0.60157 1.13020 0.52090
 C1517 C 0.58430 1.12272 0.52808
 C1518 C 0.57297 1.13389 0.54532
 C1519 C 0.58006 1.15372 0.55252
 H1520 H 0.59337 1.16132 0.54479
 Cu1521 Cu 0.58848 1.00008 0.58857
 Cu1522 Cu 0.61810 0.99993 0.61827
 Cu1523 Cu 0.41108 1.00045 0.58831
 Cu1524 Cu 0.38132 1.00054 0.61785
 Cu1525 Cu 0.49998 1.08885 0.58831
 Cu1526 Cu 0.50000 1.11851 0.61791
 Cu1527 Cu 0.49958 0.91170 0.58844
 Cu1528 Cu 0.49946 0.88200 0.61803
 C1529 C 0.55523 1.05544 0.62406
 H1530 H 0.54995 1.05014 0.60864
 C1531 C 0.56951 1.06978 0.66361
 C1532 C 0.44420 0.94508 0.62395
 H1533 H 0.44952 0.95038 0.60854
 C1534 C 0.42981 0.93071 0.66345
 C1535 C 0.55552 1.12432 0.55529
 H1536 H 0.55015 1.10890 0.55000
 C1537 C 0.57007 1.16386 0.56962
 C1538 C 0.44427 0.87619 0.55506
 H1539 H 0.44948 0.89171 0.54992
 C1540 C 0.43015 0.83635 0.56899
 C1541 C 0.62455 1.05523 0.55553
 H1542 H 0.60916 1.04989 0.55008
 C1543 C 0.66399 1.06970 0.57029
 C1544 C 0.37536 0.94521 0.55504
 H1545 H 0.39079 0.95056 0.54972
 C1546 C 0.33580 0.93070 0.56945
 C1547 C 0.44444 1.05571 0.62385
 H1548 H 0.44975 1.05035 0.60846
 C1549 C 0.43008 1.07022 0.66331
 C1550 C 0.55490 0.94484 0.62408
 H1551 H 0.54970 0.95007 0.60861
 C1552 C 0.56903 0.93066 0.66375
 C1553 C 0.62400 0.94464 0.55546
 H1554 H 0.60851 0.94993 0.55023
 C1555 C 0.66373 0.93031 0.56961
 C1556 C 0.37556 1.05583 0.55495
 H1557 H 0.39108 1.05058 0.54978
 C1558 C 0.33575 1.07004 0.56897
 C1559 C 0.44464 1.12472 0.55507
 H1560 H 0.45001 1.10935 0.54964
 C1561 C 0.43011 1.16413 0.56982
 C1562 C 0.55488 0.87588 0.55535
 H1563 H 0.54962 0.89135 0.55008
 C1564 C 0.56914 0.83620 0.56963
 O1565 O 0.57670 0.97929 0.39489
 O1566 O 0.60141 0.97923 0.37021
 C1567 C 0.58414 0.97205 0.37768
 C1568 C 0.57281 0.95475 0.36657
 C1569 C 0.57985 0.94754 0.34677
 H1570 H 0.59313 0.95531 0.33914
 O1571 O 0.42346 1.02111 0.39461
 O1572 O 0.39886 1.02122 0.36980
 C1573 C 0.41611 1.02838 0.37736
 C1574 C 0.42752 1.04567 0.36630
 C1575 C 0.42062 1.05293 0.34646
 H1576 H 0.40704 1.04555 0.33897
 O1577 O 0.47960 1.10581 0.42376
 O1578 O 0.47972 1.13060 0.39916
 C1579 C 0.47243 1.12310 0.41634
 C1580 C 0.45509 1.13428 0.42755
 C1581 C 0.44793 1.15414 0.42048
 H1582 H 0.45580 1.16177 0.40729
 O1583 O 0.52049 0.89458 0.42367
 O1584 O 0.52051 0.86980 0.39908
 C1585 C 0.52771 0.87730 0.41629
 C1586 C 0.54500 0.86614 0.42763
 C1587 C 0.55225 0.84627 0.42067
 H1588 H 0.54486 0.83884 0.40710
 O1589 O 0.60542 0.92343 0.47961
 O1590 O 0.63017 0.89871 0.47966
 C1591 C 0.62271 0.91597 0.47244
 C1592 C 0.63391 0.92725 0.45520
 C1593 C 0.65383 0.92024 0.44811
 H1594 H 0.66149 0.90701 0.45593
 O1595 O 0.39433 1.07722 0.47918
 O1596 O 0.36956 1.10192 0.47909
 C1597 C 0.37708 1.08467 0.47190
 C1598 C 0.36599 1.07338 0.45457
 C1599 C 0.34619 1.08046 0.44718
 H1600 H 0.33874 1.09409 0.45448
 O1601 O 0.52094 1.07666 0.39484
 O1602 O 0.52109 1.10132 0.37012
 C1603 C 0.52823 1.08405 0.37763
 C1604 C 0.54551 1.07265 0.36654
 C1605 C 0.55270 1.07955 0.34667
 H1606 H 0.54528 1.09310 0.33919
 O1607 O 0.47926 0.92376 0.39464
 O1608 O 0.47921 0.89913 0.36990
 C1609 C 0.47202 0.91639 0.37740
 C1610 C 0.45474 0.92778 0.36629
 C1611 C 0.44755 0.92086 0.34643
 H1612 H 0.45497 0.90730 0.33898
 O1613 O 0.60580 1.02058 0.42388
 O1614 O 0.63065 1.02056 0.39933
 C1615 C 0.62311 1.02778 0.41652
 C1616 C 0.63428 1.04503 0.42785
 C1617 C 0.65419 1.05221 0.42091
 H1618 H 0.66164 1.04480 0.40736
 O1619 O 0.39420 0.97983 0.42346
 O1620 O 0.36946 0.97988 0.39880
 C1621 C 0.37693 0.97262 0.41601
 C1622 C 0.36576 0.95529 0.42725
 C1623 C 0.34597 0.94794 0.42012
 H1624 H 0.33858 0.95530 0.40651
 O1625 O 0.57695 1.10545 0.47965
 O1626 O 0.60165 1.13020 0.47962
 C1627 C 0.58439 1.12270 0.47242
 C1628 C 0.57308 1.13384 0.45514
 C1629 C 0.58005 1.15375 0.44804
 H1630 H 0.59327 1.16143 0.45586
 O1631 O 0.42308 0.89489 0.47918
 O1632 O 0.39837 0.87015 0.47915
 C1633 C 0.41564 0.87764 0.47195
 C1634 C 0.42693 0.86650 0.45466
 C1635 C 0.41985 0.84668 0.44742
 H1636 H 0.40656 0.83903 0.45515
 O1637 O 0.42342 0.97976 0.39465
 O1638 O 0.39881 0.97983 0.36986
 C1639 C 0.41603 0.97256 0.37740
 C1640 C 0.42734 0.95523 0.36632
 C1641 C 0.42038 0.94809 0.34646
 H1642 H 0.40718 0.95594 0.33877
 O1643 O 0.57674 1.02064 0.39493
 O1644 O 0.60144 1.02062 0.37024
 C1645 C 0.58418 1.02786 0.37772
 C1646 C 0.57289 1.04519 0.36661
 C1647 C 0.57985 1.05230 0.34674
 H1648 H 0.59303 1.04443 0.33906
 O1649 O 0.47911 0.89469 0.42355
 O1650 O 0.47906 0.86991 0.39896
 C1651 C 0.47182 0.87745 0.41614
 C1652 C 0.45443 0.86639 0.42739
 C1653 C 0.44711 0.84657 0.42037
 H1654 H 0.45453 0.83911 0.40683
 O1655 O 0.52100 1.10565 0.42384
 O1656 O 0.52115 1.13045 0.39926
 C1657 C 0.52831 1.12289 0.41647
 C1658 C 0.54564 1.13396 0.42781
 C1659 C 0.55285 1.15387 0.42092
 H1660 H 0.54541 1.16138 0.40742
 O1661 O 0.39410 0.92400 0.47918
 O1662 O 0.36926 0.89938 0.47916
 C1663 C 0.37682 0.91661 0.47195
 C1664 C 0.36574 0.92789 0.45461
 C1665 C 0.34595 0.92079 0.44727
 H1666 H 0.33828 0.90752 0.45500
 O1667 O 0.60592 1.07633 0.47972
 O1668 O 0.63076 1.10095 0.47969
 C1669 C 0.62321 1.08371 0.47250
 C1670 C 0.63431 1.07239 0.45522
 C1671 C 0.65422 1.07934 0.44806
 H1672 H 0.66195 1.09252 0.45587
 O1673 O 0.52064 0.92358 0.39468
 O1674 O 0.52065 0.89895 0.36995
 C1675 C 0.52791 0.91616 0.37747
 C1676 C 0.54530 0.92744 0.36643
 C1677 C 0.55258 0.92044 0.34663
 H1678 H 0.54514 0.90689 0.33916
 O1679 O 0.47956 1.07679 0.39480
 O1680 O 0.47967 1.10145 0.37008
 C1681 C 0.47237 1.08423 0.37757
 C1682 C 0.45502 1.07300 0.36643
 C1683 C 0.44789 1.08002 0.34658
 H1684 H 0.45577 1.09322 0.33894
 O1685 O 0.39442 1.02120 0.42357
 O1686 O 0.36968 1.02130 0.39890
 C1687 C 0.37719 1.02850 0.41611
 C1688 C 0.36609 1.04590 0.42730
 C1689 C 0.34629 1.05319 0.42016
 H1690 H 0.33865 1.04539 0.40695
 O1691 O 0.60570 0.97924 0.42390
 O1692 O 0.63056 0.97918 0.39936
 C1693 C 0.62299 0.97198 0.41654
 C1694 C 0.63407 0.95466 0.42788
 C1695 C 0.65399 0.94743 0.42100
 H1696 H 0.66151 0.95485 0.40749
 O1697 O 0.57626 0.89451 0.47954
 O1698 O 0.60088 0.86966 0.47959
 C1699 C 0.58366 0.87723 0.47234
 C1700 C 0.57238 0.86614 0.45503
 C1701 C 0.57939 0.84627 0.44785
 H1702 H 0.59261 0.83856 0.45566
 O1703 O 0.42351 1.10610 0.47930
 O1704 O 0.39890 1.13096 0.47921
 C1705 C 0.41616 1.12339 0.47206
 C1706 C 0.42757 1.13446 0.45480
 C1707 C 0.42063 1.15432 0.44749
 H1708 H 0.40703 1.16183 0.45480
 Cu1709 Cu 0.58876 0.99994 0.41186
 Cu1710 Cu 0.61850 0.99990 0.38230
 Cu1711 Cu 0.41133 1.00046 0.41155
 Cu1712 Cu 0.38172 1.00056 0.38186
 Cu1713 Cu 0.58896 1.08846 0.50032
 Cu1714 Cu 0.61870 1.11809 0.50030
 Cu1715 Cu 0.58832 0.91146 0.50019
 Cu1716 Cu 0.61795 0.88170 0.50028
 Cu1717 Cu 0.41134 1.08917 0.49987
 Cu1718 Cu 0.38170 1.11890 0.49981
 Cu1719 Cu 0.41107 0.91191 0.49981
 Cu1720 Cu 0.38134 0.88228 0.49981
 Cu1721 Cu 0.50027 1.08875 0.41178
 Cu1722 Cu 0.50042 1.11845 0.38218
 Cu1723 Cu 0.49988 0.91162 0.41160
 Cu1724 Cu 0.49985 0.88196 0.38199
 C1725 C 0.55540 0.94472 0.37616
 H1726 H 0.55007 0.95002 0.39156
 C1727 C 0.56985 0.93039 0.33667
 C1728 C 0.44486 1.05569 0.37606
 H1729 H 0.45008 1.05037 0.39149
 C1730 C 0.43071 1.07009 0.33647
 C1731 C 0.44493 1.12468 0.44485
 H1732 H 0.45019 1.10923 0.45020
 C1733 C 0.43071 1.16428 0.43033
 C1734 C 0.55505 0.87584 0.44494
 H1735 H 0.54974 0.89129 0.45021
 C1736 C 0.56943 0.83621 0.43068
 C1737 C 0.62427 0.94459 0.44511
 H1738 H 0.60878 0.94990 0.45031
 C1739 C 0.66400 0.93024 0.43103
 C1740 C 0.37571 1.05597 0.44464
 H1741 H 0.39111 1.05061 0.45004
 C1742 C 0.33622 1.07047 0.42997
 C1743 C 0.55559 1.05534 0.37628
 H1744 H 0.55032 1.05013 0.39173
 C1745 C 0.56985 1.06946 0.33664
 C1746 C 0.44466 0.94509 0.37600
 H1747 H 0.44993 0.95033 0.39144
 C1748 C 0.43038 0.93093 0.33638
 C1749 C 0.62458 1.05510 0.44514
 H1750 H 0.60909 1.04985 0.45040
 C1751 C 0.66429 1.06935 0.43092
 C1752 C 0.37541 0.94527 0.44462
 H1753 H 0.39080 0.95065 0.45001
 C1754 C 0.33594 0.93069 0.43003
 C1755 C 0.55574 1.12418 0.44505
 H1756 H 0.55046 1.10870 0.45027
 C1757 C 0.57004 1.16390 0.43095
 C1758 C 0.44435 0.87612 0.44466
 H1759 H 0.44971 0.89154 0.44998
 C1760 C 0.42984 0.83658 0.43029
 O1761 O 0.47896 0.42331 0.89486
 O1762 O 0.47894 0.39857 0.87023
 C1763 C 0.47173 0.41585 0.87766
 C1764 C 0.45439 0.42711 0.86650
 C1765 C 0.44714 0.41998 0.84676
 H1766 H 0.45494 0.40669 0.83918
 O1767 O 0.52087 0.57620 0.89479
 O1768 O 0.52104 0.60080 0.87000
 C1769 C 0.52819 0.58355 0.87757
 C1770 C 0.54550 0.57213 0.86655
 C1771 C 0.55275 0.57899 0.84668
 H1772 H 0.54536 0.59254 0.83916
 O1773 O 0.39412 0.47941 0.92354
 O1774 O 0.36932 0.47943 0.89894
 C1775 C 0.37681 0.47222 0.91616
 C1776 C 0.36562 0.45498 0.92752
 C1777 C 0.34576 0.44772 0.92052
 H1778 H 0.33834 0.45505 0.90691
 O1779 O 0.60560 0.52015 0.92416
 O1780 O 0.63048 0.52005 0.89964
 C1781 C 0.62292 0.52733 0.91679
 C1782 C 0.63405 0.54465 0.92807
 C1783 C 0.65394 0.55187 0.92108
 H1784 H 0.66141 0.54443 0.90756
 O1785 O 0.42289 0.39474 0.97971
 O1786 O 0.39814 0.37004 0.97973
 C1787 C 0.41542 0.37749 0.97252
 C1788 C 0.42670 0.36631 0.95525
 C1789 C 0.41965 0.34644 0.94811
 H1790 H 0.40639 0.33880 0.95589
 O1791 O 0.57655 0.60520 0.97968
 O1792 O 0.60129 0.62992 0.97965
 C1793 C 0.58403 0.62244 0.97244
 C1794 C 0.57276 0.63356 0.95513
 C1795 C 0.57972 0.65347 0.94804
 H1796 H 0.59289 0.66118 0.95591
 O1797 O 0.42338 0.52055 0.89455
 O1798 O 0.39875 0.52066 0.86977
 C1799 C 0.41603 0.52780 0.87730
 C1800 C 0.42749 0.54504 0.86621
 C1801 C 0.42066 0.55221 0.84630
 H1802 H 0.40711 0.54480 0.83879
 O1803 O 0.57649 0.47882 0.89524
 O1804 O 0.60125 0.47868 0.87060
 C1805 C 0.58395 0.47153 0.87806
 C1806 C 0.57263 0.45422 0.86696
 C1807 C 0.57972 0.44697 0.84720
 H1808 H 0.59302 0.45472 0.83959
 O1809 O 0.52020 0.39421 0.92401
 O1810 O 0.52021 0.36935 0.89951
 C1811 C 0.52741 0.37689 0.91670
 C1812 C 0.54466 0.36574 0.92809
 C1813 C 0.55193 0.34587 0.92114
 H1814 H 0.54457 0.33843 0.90755
 O1815 O 0.47947 0.60539 0.92355
 O1816 O 0.47958 0.63012 0.89889
 C1817 C 0.47229 0.62266 0.91609
 C1818 C 0.45494 0.63385 0.92727
 C1819 C 0.44777 0.65370 0.92019
 H1820 H 0.45561 0.66132 0.90698
 O1821 O 0.39440 0.57671 0.97915
 O1822 O 0.36966 0.60144 0.97902
 C1823 C 0.37715 0.58416 0.97187
 C1824 C 0.36603 0.57287 0.95457
 C1825 C 0.34616 0.57992 0.94736
 H1826 H 0.33849 0.59317 0.95513
 O1827 O 0.60508 0.42301 0.98002
 O1828 O 0.62980 0.39825 0.98013
 C1829 C 0.62237 0.41551 0.97288
 C1830 C 0.63360 0.42675 0.95562
 C1831 C 0.65349 0.41968 0.94851
 H1832 H 0.66112 0.40642 0.95632
 O1833 O 0.47949 0.57625 0.89472
 O1834 O 0.47962 0.60084 0.86993
 C1835 C 0.47232 0.58364 0.87745
 C1836 C 0.45500 0.57235 0.86631
 C1837 C 0.44797 0.57928 0.84641
 H1838 H 0.45589 0.59243 0.83872
 O1839 O 0.52037 0.42318 0.89499
 O1840 O 0.52040 0.39846 0.87034
 C1841 C 0.52766 0.41570 0.87782
 C1842 C 0.54509 0.42693 0.86679
 C1843 C 0.55243 0.41988 0.84703
 H1844 H 0.54500 0.40633 0.83956
 O1845 O 0.60549 0.47880 0.92426
 O1846 O 0.63038 0.47866 0.89975
 C1847 C 0.62278 0.47150 0.91693
 C1848 C 0.63382 0.45417 0.92829
 C1849 C 0.65371 0.44687 0.92140
 H1850 H 0.66123 0.45427 0.90788
 O1851 O 0.39425 0.52075 0.92341
 O1852 O 0.36946 0.52085 0.89880
 C1853 C 0.37700 0.52806 0.91600
 C1854 C 0.36593 0.54544 0.92726
 C1855 C 0.34607 0.55273 0.92027
 H1856 H 0.33859 0.54533 0.90673
 O1857 O 0.42346 0.60574 0.97914
 O1858 O 0.39885 0.63059 0.97901
 C1859 C 0.41609 0.62301 0.97186
 C1860 C 0.42748 0.63405 0.95457
 C1861 C 0.42052 0.65390 0.94725
 H1862 H 0.40693 0.66141 0.95458
 O1863 O 0.57587 0.39414 0.98000
 O1864 O 0.60046 0.36926 0.98011
 C1865 C 0.58326 0.37683 0.97284
 C1866 C 0.57199 0.36573 0.95553
 C1867 C 0.57901 0.34586 0.94837
 H1868 H 0.59222 0.33816 0.95619
 O1869 O 0.57661 0.52016 0.89514
 O1870 O 0.60136 0.52006 0.87048
 C1871 C 0.58410 0.52734 0.87791
 C1872 C 0.57285 0.54465 0.86674
 C1873 C 0.57987 0.55172 0.84688
 H1874 H 0.59307 0.54382 0.83925
 O1875 O 0.42312 0.47921 0.89454
 O1876 O 0.39848 0.47924 0.86978
 C1877 C 0.41569 0.47196 0.87732
 C1878 C 0.42698 0.45455 0.86631
 C1879 C 0.41993 0.44716 0.84655
 H1880 H 0.40633 0.45453 0.83908
 O1881 O 0.52085 0.60525 0.92372
 O1882 O 0.52101 0.63000 0.89908
 C1883 C 0.52814 0.62250 0.91633
 C1884 C 0.54542 0.63361 0.92770
 C1885 C 0.55262 0.65353 0.92082
 H1886 H 0.54522 0.66102 0.90728
 O1887 O 0.47882 0.39442 0.92396
 O1888 O 0.47878 0.36954 0.89947
 C1889 C 0.47154 0.37715 0.91663
 C1890 C 0.45416 0.36613 0.92794
 C1891 C 0.44688 0.34626 0.92102
 H1892 H 0.45429 0.33876 0.90750
 O1893 O 0.60556 0.57613 0.97977
 O1894 O 0.63043 0.60070 0.97973
 C1895 C 0.62287 0.58348 0.97256
 C1896 C 0.63399 0.57212 0.95532
 C1897 C 0.65388 0.57910 0.94813
 H1898 H 0.66157 0.59235 0.95588
 O1899 O 0.39392 0.42387 0.97962
 O1900 O 0.36905 0.39929 0.97965
 C1901 C 0.37663 0.41648 0.97240
 C1902 C 0.36556 0.42773 0.95503
 C1903 C 0.34570 0.42071 0.94782
 H1904 H 0.33798 0.40753 0.95565
 Cu1905 Cu 0.49959 0.41126 0.91191
 Cu1906 Cu 0.49958 0.38149 0.88241
 Cu1907 Cu 0.50016 0.58831 0.91166
 Cu1908 Cu 0.50033 0.61792 0.88199
 Cu1909 Cu 0.41118 0.49997 0.91147
 Cu1910 Cu 0.38152 0.50006 0.88184
 Cu1911 Cu 0.58857 0.49949 0.91216
 Cu1912 Cu 0.61836 0.49935 0.88264
 C1913 C 0.44434 0.44453 0.87604
 H1914 H 0.44967 0.44994 0.89140
 C1915 C 0.42991 0.42987 0.83666
 C1916 C 0.55553 0.55483 0.87634
 H1917 H 0.55021 0.54965 0.89178
 C1918 C 0.56992 0.56887 0.83672
 C1919 C 0.37529 0.44500 0.94491
 H1920 H 0.39074 0.45032 0.95020
 C1921 C 0.33567 0.43058 0.93057
 C1922 C 0.62432 0.55476 0.94531
 H1923 H 0.60885 0.54947 0.95059
 C1924 C 0.66398 0.56909 0.93102
 C1925 C 0.44409 0.37591 0.94519
 H1926 H 0.44944 0.39136 0.95043
 C1927 C 0.42964 0.33628 0.93101
 C1928 C 0.55547 0.62386 0.94498
 H1929 H 0.55020 0.60838 0.95019
 C1930 C 0.56976 0.66359 0.93090
 C1931 C 0.44479 0.55510 0.87598
 H1932 H 0.44995 0.54985 0.89146
 C1933 C 0.43082 0.56931 0.83627
 C1934 C 0.55518 0.44423 0.87652
 H1935 H 0.54981 0.44956 0.89189
 C1936 C 0.56974 0.42980 0.83711
 C1937 C 0.55468 0.37544 0.94541
 H1938 H 0.54936 0.39089 0.95067
 C1939 C 0.56909 0.33581 0.93118
 C1940 C 0.44481 0.62426 0.94460
 H1941 H 0.45008 0.60882 0.94996
 C1942 C 0.43057 0.66386 0.93007
 C1943 C 0.37568 0.55549 0.94455
 H1944 H 0.39112 0.55015 0.94984
 C1945 C 0.33605 0.56996 0.93022
 C1946 C 0.62400 0.44413 0.94553
 H1947 H 0.60853 0.44948 0.95074
 C1948 C 0.66368 0.42965 0.93142
 O1949 O 0.51996 0.42357 1.10605
 O1950 O 0.51985 0.39895 1.13082
 C1951 C 0.52714 0.41616 1.12330
 C1952 C 0.54448 0.42745 1.13439
 C1953 C 0.55170 0.42049 1.15424
 H1954 H 0.54424 0.40696 1.16172
 O1955 O 0.47906 0.57692 1.10552
 O1956 O 0.47908 0.60166 1.13015
 C1957 C 0.47181 0.58442 1.12270
 C1958 C 0.45440 0.57324 1.13379
 C1959 C 0.44712 0.58040 1.15352
 H1960 H 0.45495 0.59365 1.16113
 O1961 O 0.39412 0.52129 1.07654
 O1962 O 0.36922 0.52143 1.10103
 C1963 C 0.37682 0.52858 1.08384
 C1964 C 0.36575 0.54588 1.07243
 C1965 C 0.34590 0.55324 1.07937
 H1966 H 0.33842 0.54593 1.09296
 O1967 O 0.60506 0.47902 1.07698
 O1968 O 0.62987 0.47897 1.10158
 C1969 C 0.62232 0.47174 1.08439
 C1970 C 0.63340 0.45437 1.07313
 C1971 C 0.65328 0.44709 1.08010
 H1972 H 0.66078 0.45449 1.09362
 O1973 O 0.57577 0.39422 1.02127
 O1974 O 0.60037 0.36935 1.02141
 C1975 C 0.58313 0.37695 1.02856
 C1976 C 0.57180 0.36593 1.04589
 C1977 C 0.57880 0.34608 1.05314
 H1978 H 0.59200 0.33834 1.04536
 O1979 O 0.42346 0.60576 1.02041
 O1980 O 0.39884 0.63061 1.02031
 C1981 C 0.41606 0.62306 1.02757
 C1982 C 0.42735 0.63417 1.04488
 C1983 C 0.42034 0.65406 1.05201
 H1984 H 0.40713 0.66176 1.04418
 O1985 O 0.42297 0.47991 1.10571
 O1986 O 0.39821 0.48001 1.13034
 C1987 C 0.41547 0.47272 1.12291
 C1988 C 0.42666 0.45534 1.13406
 C1989 C 0.41958 0.44819 1.15387
 H1990 H 0.40637 0.45608 1.16150
 O1991 O 0.57611 0.52059 1.10573
 O1992 O 0.60078 0.52058 1.13047
 C1993 C 0.58355 0.52785 1.12293
 C1994 C 0.57232 0.54528 1.13394
 C1995 C 0.57936 0.55253 1.15372
 H1996 H 0.59257 0.54469 1.16142
 O1997 O 0.47858 0.39471 1.07698
 O1998 O 0.47842 0.36992 1.10157
 C1999 C 0.47128 0.37746 1.08434
 C2000 C 0.45401 0.36637 1.07295
 C2001 C 0.44683 0.34644 1.07980
 H2002 H 0.45425 0.33894 1.09333
 O2003 O 0.52058 0.60573 1.07655
 O2004 O 0.52063 0.63061 1.10104
 C2005 C 0.52786 0.62300 1.08389
 C2006 C 0.54524 0.63403 1.07259
 C2007 C 0.55252 0.65390 1.07951
 H2008 H 0.54508 0.66142 1.09301
 O2009 O 0.39389 0.42395 1.02089
 O2010 O 0.36901 0.39938 1.02096
 C2011 C 0.37659 0.41661 1.02813
 C2012 C 0.36549 0.42800 1.04539
 C2013 C 0.34560 0.42105 1.05264
 H2014 H 0.33811 0.40748 1.04527
 O2015 O 0.60548 0.57617 1.02101
 O2016 O 0.63039 0.60072 1.02101
 C2017 C 0.62279 0.58351 1.02822
 C2018 C 0.63388 0.57213 1.04548
 C2019 C 0.65385 0.57895 1.05262
 H2020 H 0.66141 0.59245 1.04518
 O2021 O 0.52045 0.57674 1.10554
 O2022 O 0.52052 0.60146 1.13018
 C2023 C 0.52770 0.58417 1.12275
 C2024 C 0.54500 0.57281 1.13388
 C2025 C 0.55229 0.57984 1.15367
 H2026 H 0.54493 0.59348 1.16106
 O2027 O 0.47858 0.42372 1.10595
 O2028 O 0.47840 0.39909 1.13071
 C2029 C 0.47126 0.41635 1.12316
 C2030 C 0.45395 0.42778 1.13420
 C2031 C 0.44663 0.42085 1.15401
 H2032 H 0.45396 0.40724 1.16149
 O2033 O 0.60518 0.52036 1.07681
 O2034 O 0.62998 0.52035 1.10141
 C2035 C 0.62249 0.52754 1.08419
 C2036 C 0.63370 0.54477 1.07286
 C2037 C 0.65368 0.55179 1.07976
 H2038 H 0.66136 0.54392 1.09293
 O2039 O 0.39405 0.47994 1.07662
 O2040 O 0.36915 0.48003 1.10112
 C2041 C 0.37673 0.47276 1.08397
 C2042 C 0.36559 0.45543 1.07270
 C2043 C 0.34570 0.44827 1.07970
 H2044 H 0.33802 0.45611 1.09288
 O2045 O 0.57656 0.60535 1.02092
 O2046 O 0.60133 0.63004 1.02093
 C2047 C 0.58404 0.62261 1.02812
 C2048 C 0.57274 0.63381 1.04534
 C2049 C 0.57979 0.65368 1.05247
 H2050 H 0.59307 0.66130 1.04470
 O2051 O 0.42286 0.39481 1.02098
 O2052 O 0.39812 0.37010 1.02103
 C2053 C 0.41539 0.37758 1.02822
 C2054 C 0.42666 0.36644 1.04553
 C2055 C 0.41972 0.34650 1.05259
 H2056 H 0.40655 0.33880 1.04473
 O2057 O 0.57597 0.47923 1.10589
 O2058 O 0.60063 0.47918 1.13063
 C2059 C 0.58336 0.47202 1.12314
 C2060 C 0.57199 0.45477 1.13428
 C2061 C 0.57896 0.44760 1.15413
 H2062 H 0.59221 0.45539 1.16178
 O2063 O 0.42302 0.52128 1.10566
 O2064 O 0.39826 0.52143 1.13029
 C2065 C 0.41556 0.52859 1.12284
 C2066 C 0.42689 0.54593 1.13390
 C2067 C 0.41982 0.55333 1.15363
 H2068 H 0.40617 0.54602 1.16106
 O2069 O 0.47920 0.60578 1.07639
 O2070 O 0.47919 0.63066 1.10088
 C2071 C 0.47198 0.62309 1.08369
 C2072 C 0.45470 0.63421 1.07231
 C2073 C 0.44745 0.65410 1.07922
 H2074 H 0.45483 0.66156 1.09278
 O2075 O 0.51994 0.39452 1.07714
 O2076 O 0.51985 0.36974 1.10175
 C2077 C 0.52712 0.37723 1.08456
 C2078 C 0.54443 0.36603 1.07328
 C2079 C 0.55167 0.34618 1.08032
 H2080 H 0.54428 0.33878 1.09391
 O2081 O 0.60491 0.42315 1.02126
 O2082 O 0.62963 0.39840 1.02140
 C2083 C 0.62215 0.41568 1.02854
 C2084 C 0.63328 0.42696 1.04582
 C2085 C 0.65316 0.41991 1.05299
 H2086 H 0.66082 0.40668 1.04520
 O2087 O 0.39429 0.57685 1.02042
 O2088 O 0.36955 0.60158 1.02033
 C2089 C 0.37703 0.58434 1.02760
 C2090 C 0.36587 0.57315 1.04495
 C2091 C 0.34601 0.58026 1.05210
 H2092 H 0.33836 0.59348 1.04425
 Cu2093 Cu 0.49928 0.41160 1.08907
 Cu2094 Cu 0.49911 0.38194 1.11869
 Cu2095 Cu 0.49982 0.58881 1.08855
 Cu2096 Cu 0.49986 0.61859 1.11803
 Cu2097 Cu 0.41087 0.41181 1.00030
 Cu2098 Cu 0.38108 0.38223 1.00035
 Cu2099 Cu 0.58794 0.41111 1.00062
 Cu2100 Cu 0.61754 0.38131 1.00077
 Cu2101 Cu 0.41137 0.58878 0.99979
 Cu2102 Cu 0.38174 0.61854 0.99966
 Cu2103 Cu 0.58856 0.58825 1.00035
 Cu2104 Cu 0.61836 0.61782 1.00033
 Cu2105 Cu 0.41103 0.50060 1.08869
 Cu2106 Cu 0.38122 0.50074 1.11816
 Cu2107 Cu 0.58811 0.49980 1.08889
 Cu2108 Cu 0.61780 0.49977 1.11851
 C2109 C 0.55461 0.44472 1.12465
 H2110 H 0.54933 0.44998 1.10922
 C2111 C 0.56893 0.43048 1.16423
 C2112 C 0.44431 0.55587 1.12422
 H2113 H 0.44966 0.55045 1.10887
 C2114 C 0.42984 0.57057 1.16357
 C2115 C 0.37550 0.55583 1.05509
 H2116 H 0.39095 0.55044 1.04984
 C2117 C 0.33590 0.57041 1.06930
 C2118 C 0.62364 0.44432 1.05586
 H2119 H 0.60818 0.44966 1.05059
 C2120 C 0.66328 0.42986 1.07012
 C2121 C 0.55448 0.37568 1.05594
 H2122 H 0.54919 0.39112 1.05061
 C2123 C 0.56885 0.33608 1.07035
 C2124 C 0.44466 0.62448 1.05500
 H2125 H 0.44997 0.60902 1.04977
 C2126 C 0.43028 0.66415 1.06917
 C2127 C 0.44399 0.44515 1.12446
 H2128 H 0.44935 0.45039 1.10905
 C2129 C 0.42945 0.43097 1.16398
 C2130 C 0.55500 0.55540 1.12425
 H2131 H 0.54966 0.55008 1.10886
 C2132 C 0.56946 0.56980 1.16371
 C2133 C 0.44394 0.37613 1.05568
 H2134 H 0.44920 0.39163 1.05050
 C2135 C 0.42971 0.33637 1.06971
 C2136 C 0.55533 0.62423 1.05538
 H2137 H 0.54999 0.60877 1.05014
 C2138 C 0.56978 0.66386 1.06955
 C2139 C 0.37526 0.44532 1.05541
 H2140 H 0.39073 0.45057 1.05012
 C2141 C 0.33558 0.43109 1.06978
 C2142 C 0.62404 0.55491 1.05559
 H2143 H 0.60851 0.54975 1.05036
 C2144 C 0.66388 0.56887 1.06975
 C2145 C 1.10787 1.08663 1.20718
 C2146 C 1.09372 1.09283 1.22307
 C2147 C 1.07184 1.09135 1.21960
 C2148 C 1.06413 1.08374 1.20030
 C2149 C 1.12417 1.12320 1.29437
 C2150 C 1.10021 1.07902 1.18789
 C2151 C 1.10173 1.10091 1.24280
 C2152 C 1.10864 1.10780 1.25920
 C2153 C 1.11694 1.11601 1.27824
 C2154 C 1.07824 1.07749 1.18422
 H2155 H 1.12484 1.08780 1.20966
 H2156 H 1.06074 1.09608 1.23180
 H2157 H 1.04714 1.08254 1.19801
 H2158 H 1.11147 1.07464 1.17572
 C2159 C 1.07126 0.59102 0.71920
 C2160 C 1.09313 0.59254 0.72279
 C2161 C 1.10738 0.58639 0.70698
 C2162 C 1.09984 0.57880 0.68764
 C2163 C 1.12329 0.62285 0.79420
 C2164 C 1.06368 0.58344 0.69984
 C2165 C 1.10100 0.60062 0.74257
 C2166 C 1.10783 0.60750 0.75899
 C2167 C 1.11607 0.61570 0.77806
 C2168 C 1.07790 0.57725 0.68384
 H2169 H 1.06009 0.59573 0.73134
 H2170 H 1.12433 0.58759 0.70956
 H2171 H 1.11118 0.57446 0.67552
 H2172 H 1.04671 0.58222 0.69746
 C2173 C 0.59120 1.07094 0.71964
 C2174 C 0.59295 1.09276 0.72321
 C2175 C 0.58688 1.10706 0.70740
 C2176 C 0.57914 1.09960 0.68808
 C2177 C 0.62373 1.12265 0.79455
 C2178 C 0.58348 1.06343 0.70030
 C2179 C 0.60121 1.10055 0.74296
 C2180 C 0.60822 1.10730 0.75936
 C2181 C 0.61654 1.11546 0.77841
 C2182 C 0.57739 1.07769 0.68429
 H2183 H 0.59584 1.05973 0.73177
 H2184 H 0.58825 1.12399 0.70997
 H2185 H 0.57489 1.11097 0.67596
 H2186 H 0.58210 1.04649 0.69793
 C2187 C 0.57086 0.59160 1.21967
 C2188 C 0.59272 0.59316 1.22322
 C2189 C 0.60696 0.58698 1.20741
 C2190 C 0.59940 0.57930 1.18811
 C2191 C 0.62298 0.62370 1.29450
 C2192 C 0.56326 0.58394 1.20035
 C2193 C 0.60062 0.60133 1.24296
 C2194 C 0.60746 0.60827 1.25936
 C2195 C 0.61573 0.61652 1.27839
 C2196 C 0.57746 0.57771 1.18434
 H2197 H 0.55970 0.59633 1.23181
 H2198 H 0.62392 0.58821 1.20996
 H2199 H 0.61073 0.57494 1.17599
 H2200 H 0.54628 0.58268 1.19800
 C2201 C 0.90859 0.92908 1.21981
 C2202 C 0.90692 0.90723 1.22335
 C2203 C 0.91292 0.89299 1.20748
 C2204 C 0.92052 0.90053 1.18813
 C2205 C 0.87670 0.87704 1.29481
 C2206 C 0.91619 0.93666 1.20045
 C2207 C 0.89885 0.89936 1.24314
 C2208 C 0.89199 0.89252 1.25957
 C2209 C 0.88382 0.88427 1.27865
 C2210 C 0.92224 0.92245 1.18439
 H2211 H 0.90401 0.94024 1.23200
 H2212 H 0.91160 0.87606 1.21001
 H2213 H 0.92474 0.88920 1.17597
 H2214 H 0.91754 0.95361 1.19811
 C2215 C 0.90802 0.42897 0.71919
 C2216 C 0.90631 0.40712 0.72270
 C2217 C 0.91238 0.39289 0.70685
 C2218 C 0.92011 0.40044 0.68755
 C2219 C 0.87585 0.37683 0.79403
 C2220 C 0.91574 0.43656 0.69988
 C2221 C 0.89813 0.39923 0.74244
 C2222 C 0.89120 0.39238 0.75884
 C2223 C 0.88298 0.38410 0.77789
 C2224 C 0.92186 0.42237 0.68384
 H2225 H 0.90338 0.44012 0.73136
 H2226 H 0.91104 0.37595 0.70936
 H2227 H 0.92439 0.38912 0.67541
 H2228 H 0.91711 0.45351 0.69757
 C2229 C 0.40816 0.92943 0.71949
 C2230 C 0.40647 0.90759 0.72304
 C2231 C 0.41251 0.89333 0.70720
 C2232 C 0.42016 0.90085 0.68786
 C2233 C 0.37603 0.87745 0.79442
 C2234 C 0.41581 0.93699 0.70014
 C2235 C 0.39834 0.89973 0.74281
 C2236 C 0.39142 0.89292 0.75922
 C2237 C 0.38319 0.88468 0.77828
 C2238 C 0.42189 0.92277 0.68410
 H2239 H 0.40355 0.94060 0.73165
 H2240 H 0.41118 0.87640 0.70974
 H2241 H 0.42441 0.88951 0.67572
 H2242 H 0.41717 0.95394 0.69779
 C2243 C 0.42804 0.40931 1.22001
 C2244 C 0.40618 0.40775 1.22356
 C2245 C 0.39194 0.41393 1.20774
 C2246 C 0.39950 0.42158 1.18841
 C2247 C 0.37612 0.37703 1.29488
 C2248 C 0.43564 0.41695 1.20068
 C2249 C 0.39829 0.39955 1.24330
 C2250 C 0.39149 0.39257 1.25970
 C2251 C 0.38330 0.38426 1.27874
 C2252 C 0.42145 0.42315 1.18465
 H2253 H 0.43920 0.40459 1.23216
 H2254 H 0.37498 0.41270 1.21028
 H2255 H 0.38817 0.42593 1.17628
 H2256 H 0.45262 0.41819 1.19833
 C2257 C 0.90823 1.07189 0.78073
 C2258 C 0.90653 1.09375 0.77727
 C2259 C 0.91275 1.10794 0.79310
 C2260 C 0.92059 1.10034 0.81234
 C2261 C 0.87533 1.12395 0.70618
 C2262 C 0.91605 1.06425 0.79998
 C2263 C 0.89816 1.10167 0.75761
 C2264 C 0.89105 1.10850 0.74127
 C2265 C 0.88262 1.11673 0.72228
 C2266 C 0.92229 1.07840 0.81602
 H2267 H 0.90348 1.06077 0.76857
 H2268 H 0.91142 1.12488 0.79062
 H2269 H 0.92496 1.11162 0.82448
 H2270 H 0.91739 1.04729 0.80226
 C2271 C 0.91459 0.60641 0.29179
 C2272 C 0.90858 0.59204 0.27604
 C2273 C 0.91018 0.57023 0.27977
 C2274 C 0.91769 0.56280 0.29922
 C2275 C 0.87823 0.62170 0.20442
 C2276 C 0.92212 0.59903 0.31122
 C2277 C 0.90050 0.59976 0.25619
 C2278 C 0.89362 0.60645 0.23971
 C2279 C 0.88540 0.61456 0.22059
 C2280 C 0.92372 0.57713 0.31518
 H2281 H 0.91333 0.62333 0.28909
 H2282 H 0.90558 0.55897 0.26768
 H2283 H 0.91897 0.54587 0.30173
 H2284 H 0.92633 0.61044 0.32330
 C2285 C 0.41364 1.10743 0.29257
 C2286 C 0.40754 1.09315 0.27678
 C2287 C 0.40917 1.07132 0.28039
 C2288 C 0.41680 1.06378 0.29975
 C2289 C 0.37691 1.12304 0.20534
 C2290 C 0.42127 1.09994 0.31193
 C2291 C 0.39936 1.10097 0.25700
 C2292 C 0.39240 1.10772 0.24057
 C2293 C 0.38411 1.11588 0.22149
 C2294 C 0.42291 1.07802 0.31576
 H2295 H 0.41235 1.12436 0.28998
 H2296 H 0.40451 1.06013 0.26825
 H2297 H 0.41809 1.04684 0.30215
 H2298 H 0.42555 1.11129 0.32404
 C2299 C 0.41409 0.60649 0.79212
 C2300 C 0.40811 0.59215 0.77633
 C2301 C 0.40967 0.57033 0.78004
 C2302 C 0.41712 0.56286 0.79950
 C2303 C 0.37812 0.62193 0.70461
 C2304 C 0.42155 0.59906 0.81157
 C2305 C 0.40013 0.59990 0.75646
 C2306 C 0.39333 0.60664 0.73996
 C2307 C 0.38521 0.61478 0.72081
 C2308 C 0.42313 0.57716 0.81549
 H2309 H 0.41285 0.62341 0.78945
 H2310 H 0.40510 0.55909 0.76792
 H2311 H 0.41838 0.54592 0.80198
 H2312 H 0.42575 0.61046 0.82367
 C2313 C 1.07108 0.90855 0.78050
 C2314 C 1.09295 0.90694 0.77699
 C2315 C 1.10717 0.91301 0.79285
 C2316 C 1.09960 0.92062 0.81218
 C2317 C 1.12333 0.87672 0.70563
 C2318 C 1.06346 0.91616 0.79984
 C2319 C 1.10086 0.89887 0.75722
 C2320 C 1.10774 0.89200 0.74081
 C2321 C 1.11605 0.88383 0.72176
 C2322 C 1.07765 0.92228 0.81590
 H2323 H 1.05993 0.90392 0.76832
 H2324 H 1.12413 0.91174 0.79033
 H2325 H 1.11092 0.92490 0.82433
 H2326 H 1.04649 0.91746 0.80217
 C2327 C 1.07112 0.40870 0.28031
 C2328 C 1.09297 0.40707 0.27670
 C2329 C 1.10727 0.41298 0.29256
 C2330 C 1.09979 0.42047 0.31197
 C2331 C 1.12298 0.37726 0.20503
 C2332 C 1.06359 0.41618 0.29973
 C2333 C 1.10080 0.39913 0.25685
 C2334 C 1.10759 0.39238 0.24036
 C2335 C 1.11580 0.38431 0.22122
 C2336 C 1.07786 0.42215 0.31578
 H2337 H 1.05991 0.40418 0.26813
 H2338 H 1.12422 0.41169 0.28997
 H2339 H 1.11116 0.42463 0.32411
 H2340 H 1.04663 0.41751 0.30213
 C2341 C 0.57117 0.90875 0.28064
 C2342 C 0.59303 0.90702 0.27713
 C2343 C 0.60729 0.91306 0.29298
 C2344 C 0.59976 0.92075 0.31229
 C2345 C 0.62315 0.87638 0.20582
 C2346 C 0.56360 0.91643 0.29997
 C2347 C 0.60089 0.89882 0.25739
 C2348 C 0.60770 0.89185 0.24099
 C2349 C 0.61593 0.88357 0.22195
 C2350 C 0.57782 0.92250 0.31602
 H2351 H 0.55999 0.90414 0.26847
 H2352 H 0.62424 0.91169 0.29046
 H2353 H 0.61110 0.92498 0.32444
 H2354 H 0.54663 0.91782 0.30229
 C2355 C 0.57134 0.40831 0.78103
 C2356 C 0.59322 0.40666 0.77760
 C2357 C 0.60740 0.41261 0.79355
 C2358 C 0.59976 0.42017 0.81287
 C2359 C 0.62376 0.37671 0.70618
 C2360 C 0.56366 0.41586 0.80037
 C2361 C 0.60120 0.39866 0.75782
 C2362 C 0.60812 0.39188 0.74140
 C2363 C 0.61647 0.38378 0.72233
 C2364 C 0.57780 0.42189 0.81650
 H2365 H 0.56023 0.40376 0.76878
 H2366 H 0.62436 0.41130 0.79110
 H2367 H 0.61104 0.42437 0.82509
 H2368 H 0.54669 0.41721 0.80262
 C2369 C 1.20786 1.08608 1.10728
 C2370 C 1.22384 1.09207 1.09314
 C2371 C 1.22036 1.09045 1.07134
 C2372 C 1.20096 1.08290 1.06370
 C2373 C 1.29532 1.12236 1.12360
 C2374 C 1.18847 1.07852 1.09969
 C2375 C 1.24366 1.10013 1.10108
 C2376 C 1.26010 1.10699 1.10798
 C2377 C 1.27918 1.11519 1.11631
 C2378 C 1.18479 1.07685 1.07781
 H2379 H 1.21034 1.08736 1.12419
 H2380 H 1.23264 1.09504 1.06025
 H2381 H 1.19867 1.08159 1.04678
 H2382 H 1.17623 1.07430 1.11094
 C2383 C 1.22079 0.58976 0.57031
 C2384 C 1.22441 0.59145 0.59208
 C2385 C 1.20852 0.58553 0.60635
 C2386 C 1.18905 0.57802 0.59892
 C2387 C 1.29608 0.62184 0.62195
 C2388 C 1.20131 0.58225 0.56283
 C2389 C 1.24428 0.59953 0.59984
 C2390 C 1.26078 0.60642 0.60659
 C2391 C 1.27991 0.61466 0.61476
 C2392 C 1.18521 0.57632 0.57706
 H2393 H 1.23300 0.59428 0.55912
 H2394 H 1.21112 0.58687 0.62324
 H2395 H 1.17687 0.57388 0.61026
 H2396 H 1.19890 0.58090 0.54593
 C2397 C 0.70736 1.08704 0.60815
 C2398 C 0.72340 1.09320 0.59415
 C2399 C 0.72010 1.09158 0.57232
 C2400 C 0.70081 1.08389 0.56452
 C2401 C 0.79457 1.12387 0.62503
 C2402 C 0.68809 1.07934 0.60040
 C2403 C 0.74311 1.10138 0.60225
 C2404 C 0.75947 1.10834 0.60925
 C2405 C 0.77847 1.11664 0.61768
 C2406 C 0.68458 1.07768 0.57849
 H2407 H 0.70971 1.08832 0.62508
 H2408 H 0.73242 1.09629 0.56133
 H2409 H 0.69866 1.08259 0.54758
 H2410 H 0.67580 1.07500 0.61155
 C2411 C 0.70812 0.58573 1.10678
 C2412 C 0.72398 0.59163 1.09246
 C2413 C 0.72029 0.58996 1.07070
 C2414 C 0.70078 0.58247 1.06327
 C2415 C 0.79583 0.62184 1.12210
 C2416 C 0.68862 0.57824 1.09940
 C2417 C 0.74390 0.59966 1.10017
 C2418 C 0.76043 0.60651 1.10687
 C2419 C 0.77961 0.61469 1.11497
 C2420 C 0.68472 0.57655 1.07755
 H2421 H 0.71078 0.58706 1.12365
 H2422 H 0.73247 0.59446 1.05948
 H2423 H 0.69832 0.58113 1.04638
 H2424 H 0.67647 0.57411 1.11077
 C2425 C 1.20754 0.89255 0.91349
 C2426 C 1.22341 0.90681 0.90741
 C2427 C 1.21986 0.92865 0.90910
 C2428 C 1.20048 0.93621 0.91678
 C2429 C 1.29483 0.87682 0.87646
 C2430 C 1.18817 0.90007 0.92118
 C2431 C 1.24319 0.89897 0.89916
 C2432 C 1.25962 0.89218 0.89213
 C2433 C 1.27868 0.88400 0.88375
 C2434 C 1.18440 0.92200 0.92288
 H2435 H 1.21009 0.87562 0.91216
 H2436 H 1.23205 0.93982 0.90445
 H2437 H 1.19812 0.95316 0.91812
 H2438 H 1.17600 0.88874 0.92545
 C2439 C 1.22040 0.42855 0.40918
 C2440 C 1.22399 0.40673 0.40737
 C2441 C 1.20818 0.39241 0.41347
 C2442 C 1.18881 0.39985 0.42125
 C2443 C 1.29535 0.37709 0.37595
 C2444 C 1.20102 0.43603 0.41695
 C2445 C 1.24375 0.39898 0.39897
 C2446 C 1.26016 0.39229 0.39182
 C2447 C 1.27921 0.38421 0.38331
 C2448 C 1.18498 0.42176 0.42302
 H2449 H 1.23255 0.43977 0.40454
 H2450 H 1.21076 0.37549 0.41205
 H2451 H 1.17667 0.38848 0.42549
 H2452 H 1.19863 0.45297 0.41835
 C2453 C 0.72023 0.92910 0.40952
 C2454 C 0.72383 0.90728 0.40776
 C2455 C 0.70799 0.89297 0.41381
 C2456 C 0.68860 0.90042 0.42151
 C2457 C 0.79523 0.87752 0.37659
 C2458 C 0.70083 0.93660 0.41720
 C2459 C 0.74361 0.89951 0.39946
 C2460 C 0.76004 0.89279 0.39237
 C2461 C 0.77910 0.88467 0.38393
 C2462 C 0.68477 0.92233 0.42325
 H2463 H 0.73239 0.94032 0.40489
 H2464 H 0.71058 0.87604 0.41243
 H2465 H 0.67645 0.88906 0.42574
 H2466 H 0.69843 0.95354 0.41858
 C2467 C 0.70754 0.39230 0.91399
 C2468 C 0.72336 0.40658 0.90785
 C2469 C 0.71983 0.42841 0.90967
 C2470 C 0.70049 0.43594 0.91749
 C2471 C 0.79455 0.37693 0.87605
 C2472 C 0.68820 0.39979 0.92182
 C2473 C 0.74307 0.39880 0.89937
 C2474 C 0.75944 0.39210 0.89213
 C2475 C 0.77845 0.38403 0.88351
 C2476 C 0.68443 0.42170 0.92360
 H2477 H 0.71008 0.37537 0.91257
 H2478 H 0.73198 0.43961 0.90499
 H2479 H 0.69813 0.45288 0.91889
 H2480 H 0.67605 0.38844 0.92610
 C2481 C 0.77988 0.92939 1.09164
 C2482 C 0.77634 0.90755 1.09332
 C2483 C 0.79218 0.89330 1.08712
 C2484 C 0.81151 0.90082 1.07934
 C2485 C 0.70505 0.87743 1.12443
 C2486 C 0.79923 0.93696 1.08386
 C2487 C 0.75660 0.89970 1.10166
 C2488 C 0.74020 0.89289 1.10874
 C2489 C 0.72117 0.88467 1.11715
 C2490 C 0.81527 0.92275 1.07765
 H2491 H 0.76772 0.94056 1.09637
 H2492 H 0.78964 0.87636 1.08845
 H2493 H 0.82366 0.88949 1.07499
 H2494 H 0.80157 0.95391 1.08253
 C2495 C 0.77993 0.42905 0.59144
 C2496 C 0.77644 0.40720 0.59315
 C2497 C 0.79231 0.39298 0.58693
 C2498 C 0.81160 0.40055 0.57909
 C2499 C 0.70522 0.37691 0.62431
 C2500 C 0.79923 0.43666 0.58361
 C2501 C 0.75672 0.39930 0.60151
 C2502 C 0.74035 0.39245 0.60861
 C2503 C 0.72133 0.38418 0.61702
 C2504 C 0.81531 0.42248 0.57737
 H2505 H 0.76775 0.44019 0.59618
 H2506 H 0.78981 0.37604 0.58827
 H2507 H 0.82377 0.38925 0.57473
 H2508 H 0.80153 0.45361 0.58226
 C2509 C 0.27972 0.92919 0.59138
 C2510 C 0.27624 0.90734 0.59305
 C2511 C 0.29213 0.89314 0.58686
 C2512 C 0.31145 0.90073 0.57909
 C2513 C 0.20495 0.87694 0.62394
 C2514 C 0.29904 0.93682 0.58362
 C2515 C 0.25650 0.89941 0.60133
 C2516 C 0.24011 0.89254 0.60836
 C2517 C 0.22107 0.88424 0.61671
 C2518 C 0.31514 0.92266 0.57741
 H2519 H 0.26751 0.94032 0.59610
 H2520 H 0.28964 0.87619 0.58817
 H2521 H 0.32363 0.88944 0.57474
 H2522 H 0.30133 0.95378 0.58230
 C2523 C 0.27934 0.40951 1.07115
 C2524 C 0.27579 0.40788 1.09294
 C2525 C 0.29169 0.41397 1.10714
 C2526 C 0.31108 0.42160 1.09961
 C2527 C 0.20428 0.37725 1.12303
 C2528 C 0.29875 0.41713 1.06358
 C2529 C 0.25598 0.39973 1.10080
 C2530 C 0.23953 0.39278 1.10761
 C2531 C 0.22044 0.38449 1.11582
 C2532 C 0.31485 0.42325 1.07774
 H2533 H 0.26713 0.40486 1.06002
 H2534 H 0.28915 0.41268 1.12403
 H2535 H 0.32327 0.42587 1.11091
 H2536 H 0.30110 0.41843 1.04667
 C2537 C 0.79250 1.08747 0.89296
 C2538 C 0.77654 1.09353 0.90711
 C2539 C 0.78003 1.09190 0.92891
 C2540 C 0.79943 1.08427 0.93654
 C2541 C 0.70495 1.12370 0.87668
 C2542 C 0.81187 1.07984 0.90055
 C2543 C 0.75672 1.10160 0.89918
 C2544 C 0.74025 1.10845 0.89229
 C2545 C 0.72113 1.11660 0.88397
 C2546 C 0.81557 1.07816 0.92243
 H2547 H 0.79000 1.08876 0.87606
 H2548 H 0.76778 1.09652 0.94001
 H2549 H 0.80172 1.08295 0.95346
 H2550 H 0.82409 1.07557 0.88929
 C2551 C 0.79255 0.60725 0.41253
 C2552 C 0.77671 0.59297 0.40643
 C2553 C 0.78029 0.57114 0.40815
 C2554 C 0.79968 0.56360 0.41586
 C2555 C 0.70517 0.62292 0.37563
 C2556 C 0.81193 0.59975 0.42025
 C2557 C 0.75690 0.60079 0.39819
 C2558 C 0.74045 0.60756 0.39117
 C2559 C 0.72135 0.61573 0.38285
 C2560 C 0.81573 0.57784 0.42197
 H2561 H 0.78998 0.62418 0.41118
 H2562 H 0.76811 0.55995 0.40350
 H2563 H 0.80205 0.54665 0.41722
 H2564 H 0.82409 0.61110 0.42452
 C2565 C 0.29264 1.08755 0.39221
 C2566 C 0.27661 1.09366 0.40625
 C2567 C 0.28002 1.09218 0.42808
 C2568 C 0.29939 1.08462 0.43584
 C2569 C 0.20504 1.12353 0.37543
 C2570 C 0.31199 1.07999 0.39992
 C2571 C 0.25680 1.10162 0.39818
 C2572 C 0.24034 1.10839 0.39119
 C2573 C 0.22123 1.11646 0.38277
 C2574 C 0.31559 1.07843 0.42183
 H2575 H 0.29021 1.08872 0.37529
 H2576 H 0.26771 1.09685 0.43909
 H2577 H 0.30162 1.08340 0.45277
 H2578 H 0.32426 1.07566 0.38874
 C2579 C 0.27987 0.57131 0.90851
 C2580 C 0.27633 0.59315 0.90681
 C2581 C 0.29220 0.60739 0.91291
 C2582 C 0.31157 0.59986 0.92062
 C2583 C 0.20484 0.62319 0.87598
 C2584 C 0.29925 0.56373 0.91622
 C2585 C 0.25654 0.60100 0.89856
 C2586 C 0.24010 0.60780 0.89155
 C2587 C 0.22101 0.61600 0.88322
 C2588 C 0.31533 0.57794 0.92233
 H2589 H 0.26768 0.56014 0.90385
 H2590 H 0.28966 0.62433 0.91157
 H2591 H 0.32374 0.61119 0.92490
 H2592 H 0.30160 0.54678 0.91756
 C2593 C 1.07109 1.22002 1.09048
 C2594 C 1.09293 1.22363 1.09214
 C2595 C 1.10725 1.20776 1.08621
 C2596 C 1.09978 1.18831 1.07870
 C2597 C 1.12285 1.29525 1.12248
 C2598 C 1.06358 1.20057 1.08297
 C2599 C 1.10073 1.24349 1.10020
 C2600 C 1.10749 1.25997 1.10708
 C2601 C 1.11567 1.27908 1.11529
 C2602 C 1.07785 1.18449 1.07702
 H2603 H 1.05987 1.23222 1.09501
 H2604 H 1.12419 1.21035 1.08753
 H2605 H 1.11116 1.17614 1.07454
 H2606 H 1.04662 1.19816 1.08164
 C2607 C 1.07184 0.71976 0.59059
 C2608 C 1.09370 0.72326 0.59231
 C2609 C 1.10795 0.70736 0.58628
 C2610 C 1.10039 0.68800 0.57862
 C2611 C 1.12377 0.79466 0.62308
 C2612 C 1.06425 0.70039 0.58294
 C2613 C 1.10158 0.74304 0.60050
 C2614 C 1.10839 0.75946 0.60748
 C2615 C 1.11659 0.77852 0.61582
 C2616 C 1.07845 0.68428 0.57689
 H2617 H 1.06068 0.73198 0.59519
 H2618 H 1.12490 0.70986 0.58763
 H2619 H 1.11172 0.67580 0.57440
 H2620 H 1.04728 0.69808 0.58158
 C2621 C 0.57163 1.22002 0.59120
 C2622 C 0.59351 1.22345 0.59292
 C2623 C 0.60770 1.20748 0.58692
 C2624 C 0.60008 1.18815 0.57928
 C2625 C 0.62387 1.29478 0.62355
 C2626 C 0.56397 1.20067 0.58356
 C2627 C 0.60146 1.24321 0.60107
 C2628 C 0.60834 1.25961 0.60802
 C2629 C 0.61663 1.27866 0.61631
 C2630 C 0.57812 1.18451 0.57752
 H2631 H 0.56051 1.23228 0.59578
 H2632 H 0.62466 1.20993 0.58828
 H2633 H 0.61137 1.17591 0.57506
 H2634 H 0.54700 1.19842 0.58218
 C2635 C 0.57105 0.72001 1.09116
 C2636 C 0.59290 0.72353 1.09296
 C2637 C 0.60718 0.70766 1.08690
 C2638 C 0.59967 0.68832 1.07916
 C2639 C 0.62278 0.79481 1.12418
 C2640 C 0.56350 0.70066 1.08343
 C2641 C 0.60072 0.74327 1.10129
 C2642 C 0.60748 0.75966 1.10839
 C2643 C 0.61563 0.77869 1.11684
 C2644 C 0.57774 0.68458 1.07738
 H2645 H 0.55986 0.73219 1.09579
 H2646 H 0.62413 0.71019 1.08831
 H2647 H 0.61102 0.67615 1.07493
 H2648 H 0.54654 0.69833 1.08203
 C2649 C 0.92931 1.22017 0.90861
 C2650 C 0.90746 1.22372 0.90682
 C2651 C 0.89317 1.20793 0.91302
 C2652 C 0.90066 1.18863 0.92090
 C2653 C 0.87740 1.29488 0.87539
 C2654 C 0.93685 1.20086 0.91649
 C2655 C 0.89965 1.24342 0.89837
 C2656 C 0.89287 1.25979 0.89120
 C2657 C 0.88466 1.27879 0.88270
 C2658 C 0.92260 1.18485 0.92268
 H2659 H 0.94052 1.23229 0.90388
 H2660 H 0.87623 1.21048 0.91162
 H2661 H 0.88930 1.17651 0.92524
 H2662 H 0.95381 1.19850 0.91788
 C2663 C 0.91417 0.70759 0.39222
 C2664 C 0.90806 0.72352 0.40636
 C2665 C 0.90959 0.72001 0.42816
 C2666 C 0.91716 0.70061 0.43581
 C2667 C 0.87766 0.79504 0.37610
 C2668 C 0.92175 0.68821 0.39982
 C2669 C 0.89998 0.74333 0.39843
 C2670 C 0.89309 0.75978 0.39156
 C2671 C 0.88486 0.77888 0.38331
 C2672 C 0.92331 0.68449 0.42170
 H2673 H 0.91295 0.71011 0.37531
 H2674 H 0.90492 0.73224 0.43925
 H2675 H 0.91840 0.69829 0.45273
 H2676 H 0.92605 0.67601 0.38857
 C2677 C 0.41366 1.20801 0.39277
 C2678 C 0.40756 1.22396 0.40688
 C2679 C 0.40913 1.22049 0.42869
 C2680 C 0.41672 1.20111 0.43636
 C2681 C 0.37702 1.29532 0.37644
 C2682 C 0.42127 1.18865 0.40039
 C2683 C 0.39944 1.24374 0.39892
 C2684 C 0.39252 1.26015 0.39202
 C2685 C 0.38425 1.27920 0.38371
 C2686 C 0.42287 1.18497 0.42228
 H2687 H 0.41242 1.21049 0.37586
 H2688 H 0.40446 1.23273 0.43976
 H2689 H 0.41798 1.19882 0.45328
 H2690 H 0.42556 1.17643 0.38915
 C2691 C 0.41340 0.70762 0.89259
 C2692 C 0.40728 0.72353 0.90674
 C2693 C 0.40892 0.72004 0.92854
 C2694 C 0.41658 0.70067 0.93616
 C2695 C 0.37645 0.79494 0.87663
 C2696 C 0.42106 0.68827 0.90016
 C2697 C 0.39907 0.74331 0.89884
 C2698 C 0.39207 0.75973 0.89202
 C2699 C 0.38372 0.77879 0.88381
 C2700 C 0.42272 0.68456 0.92205
 H2701 H 0.41210 0.71013 0.87568
 H2702 H 0.40424 0.73225 0.93964
 H2703 H 0.41788 0.69836 0.95308
 H2704 H 0.42536 0.67607 0.88890
 C2705 C 1.10695 0.79219 0.91344
 C2706 C 1.09273 0.77632 0.90730
 C2707 C 1.07086 0.77985 0.90888
 C2708 C 1.06324 0.79921 0.91653
 C2709 C 1.12308 0.70497 0.87667
 C2710 C 1.09937 0.81153 0.92110
 C2711 C 1.10064 0.75654 0.89913
 C2712 C 1.10751 0.74013 0.89218
 C2713 C 1.11581 0.72108 0.88390
 C2714 C 1.07742 0.81528 0.92271
 H2715 H 1.12391 0.78965 0.91219
 H2716 H 1.05971 0.76766 0.90419
 H2717 H 1.04626 0.80156 0.91780
 H2718 H 1.11069 0.82370 0.92542
 C2719 C 1.10699 0.29179 0.41323
 C2720 C 1.09271 0.27599 0.40707
 C2721 C 1.07085 0.27956 0.40877
 C2722 C 1.06331 0.29891 0.41653
 C2723 C 1.12288 0.20480 0.37593
 C2724 C 1.09949 0.31113 0.42100
 C2725 C 1.10054 0.25625 0.39874
 C2726 C 1.10734 0.23987 0.39165
 C2727 C 1.11560 0.22087 0.38323
 C2728 C 1.07756 0.31492 0.42270
 H2729 H 1.12394 0.28923 0.41189
 H2730 H 1.05966 0.26742 0.40406
 H2731 H 1.04635 0.30128 0.41786
 H2732 H 1.11085 0.32325 0.42532
 C2733 C 0.57070 0.78012 0.40890
 C2734 C 0.59255 0.77654 0.40724
 C2735 C 0.60683 0.79236 0.41340
 C2736 C 0.59932 0.81170 0.42113
 C2737 C 0.62257 0.70526 0.37613
 C2738 C 0.56314 0.79948 0.41663
 C2739 C 0.60039 0.75679 0.39894
 C2740 C 0.60718 0.74040 0.39187
 C2741 C 0.61537 0.72137 0.38345
 C2742 C 0.57738 0.81550 0.42280
 H2743 H 0.55951 0.76797 0.40420
 H2744 H 0.62378 0.78979 0.41208
 H2745 H 0.61067 0.82383 0.42545
 H2746 H 0.54618 0.80185 0.41794
 C2747 C 0.60658 0.29202 0.91394
 C2748 C 0.59234 0.27618 0.90775
 C2749 C 0.57048 0.27973 0.90936
 C2750 C 0.56288 0.29908 0.91708
 C2751 C 0.62272 0.20495 0.87687
 C2752 C 0.59903 0.31135 0.92167
 C2753 C 0.60023 0.25644 0.89948
 C2754 C 0.60709 0.24006 0.89246
 C2755 C 0.61540 0.22104 0.88411
 C2756 C 0.57708 0.31512 0.92329
 H2757 H 0.62354 0.28947 0.91267
 H2758 H 0.55931 0.26757 0.90463
 H2759 H 0.54591 0.30143 0.91836
 H2760 H 0.61036 0.32349 0.92602
 C2761 C 0.92950 0.77982 1.09024
 C2762 C 0.90768 0.77608 1.09191
 C2763 C 0.89327 0.79186 1.08597
 C2764 C 0.90061 0.81136 1.07846
 C2765 C 0.87826 0.70425 1.12229
 C2766 C 0.93689 0.79932 1.08273
 C2767 C 0.90003 0.75618 1.10000
 C2768 C 0.89338 0.73965 1.10690
 C2769 C 0.88535 0.72048 1.11513
 C2770 C 0.92251 0.81533 1.07679
 H2771 H 0.94080 0.76770 1.09478
 H2772 H 0.87634 0.78916 1.08729
 H2773 H 0.88916 0.82346 1.07430
 H2774 H 0.95383 0.80184 1.08141
 C2775 C 0.92821 0.28021 0.59144
 C2776 C 0.90634 0.27676 0.59318
 C2777 C 0.89213 0.29262 0.58694
 C2778 C 0.89971 0.31189 0.57908
 C2779 C 0.87615 0.20570 0.62466
 C2780 C 0.93584 0.29949 0.58359
 C2781 C 0.89844 0.25709 0.60161
 C2782 C 0.89162 0.24075 0.60879
 C2783 C 0.88338 0.22178 0.61730
 C2784 C 0.92166 0.31557 0.57736
 H2785 H 0.93936 0.26803 0.59620
 H2786 H 0.87517 0.29015 0.58830
 H2787 H 0.88841 0.32406 0.57472
 H2788 H 0.95281 0.30177 0.58224
 C2789 C 0.42945 0.78003 0.59022
 C2790 C 0.40764 0.77625 0.59189
 C2791 C 0.39319 0.79199 0.58589
 C2792 C 0.40050 0.81148 0.57832
 C2793 C 0.37832 0.70444 0.62242
 C2794 C 0.43680 0.79953 0.58265
 C2795 C 0.40001 0.75636 0.60003
 C2796 C 0.39340 0.73984 0.60698
 C2797 C 0.38539 0.72067 0.61524
 C2798 C 0.42240 0.81549 0.57666
 H2799 H 0.44077 0.76794 0.59480
 H2800 H 0.37627 0.78926 0.58721
 H2801 H 0.38903 0.82355 0.57412
 H2802 H 0.45374 0.80207 0.58134
 C2803 C 0.42886 0.28016 1.09121
 C2804 C 0.40704 0.27645 1.09291
 C2805 C 0.39264 0.29219 1.08680
 C2806 C 0.40000 0.31161 1.07912
 C2807 C 0.37759 0.20490 1.12393
 C2808 C 0.43627 0.29959 1.08353
 C2809 C 0.39937 0.25663 1.10120
 C2810 C 0.39273 0.24017 1.10826
 C2811 C 0.38469 0.22107 1.11666
 C2812 C 0.42191 0.31556 1.07745
 H2813 H 0.44015 0.26807 1.09587
 H2814 H 0.37571 0.28951 1.08814
 H2815 H 0.38856 0.32369 1.07485
 H2816 H 0.45321 0.30208 1.08221
 C2817 C 1.09106 1.07071 0.78047
 C2818 C 1.09277 1.09253 0.77686
 C2819 C 1.08683 1.10683 0.79270
 C2820 C 1.07924 1.09938 0.81208
 C2821 C 1.12292 1.12248 0.70528
 C2822 C 1.08348 1.06320 0.79986
 C2823 C 1.10083 1.10033 0.75704
 C2824 C 1.10768 1.10710 0.74058
 C2825 C 1.11583 1.11528 0.72147
 C2826 C 1.07750 1.07747 0.81589
 H2827 H 1.09560 1.05949 0.76830
 H2828 H 1.08818 1.12376 0.79011
 H2829 H 1.07507 1.11074 0.82421
 H2830 H 1.08211 1.04626 0.80225
 C2831 C 1.10799 0.58649 0.29255
 C2832 C 1.09371 0.59273 0.27679
 C2833 C 1.07186 0.59103 0.28034
 C2834 C 1.06431 0.58323 0.29962
 C2835 C 1.12349 0.62420 0.20569
 C2836 C 1.10048 0.57868 0.31183
 C2837 C 1.10153 0.60114 0.25711
 C2838 C 1.10826 0.60830 0.24077
 C2839 C 1.11637 0.61682 0.22178
 C2840 C 1.07855 0.57701 0.31561
 H2841 H 1.12494 0.58782 0.29000
 H2842 H 1.06066 0.59579 0.26823
 H2843 H 1.04734 0.58191 0.30198
 H2844 H 1.11184 0.57431 0.32393
 C2845 C 0.60706 1.08649 0.29264
 C2846 C 0.59271 1.09254 0.27687
 C2847 C 0.57087 1.09089 0.28053
 C2848 C 0.56340 1.08329 0.29993
 C2849 C 0.62240 1.12324 0.20543
 C2850 C 0.59963 1.07888 0.31203
 C2851 C 0.60046 1.10070 0.25708
 C2852 C 0.60717 1.10767 0.24064
 C2853 C 0.61528 1.11599 0.22157
 C2854 C 0.57771 1.07723 0.31591
 H2855 H 0.62400 1.08779 0.29001
 H2856 H 0.55963 1.09552 0.26842
 H2857 H 0.54645 1.08199 0.30237
 H2858 H 0.61104 1.07463 0.32412
 C2859 C 0.60727 0.58576 0.79278
 C2860 C 0.59297 0.59179 0.77696
 C2861 C 0.57113 0.59019 0.78057
 C2862 C 0.56359 0.58265 0.79996
 C2863 C 0.62278 0.62231 0.70548
 C2864 C 0.59978 0.57821 0.81217
 C2865 C 0.60079 0.59990 0.75716
 C2866 C 0.60754 0.60682 0.74072
 C2867 C 0.61566 0.61509 0.72164
 C2868 C 0.57785 0.57660 0.81599
 H2869 H 0.62422 0.58703 0.79019
 H2870 H 0.55992 0.59480 0.76841
 H2871 H 0.54663 0.58137 0.80236
 H2872 H 0.61115 0.57397 0.82430
 C2873 C 0.92958 0.90967 0.78025
 C2874 C 0.90775 0.90807 0.77651
 C2875 C 0.89336 0.91413 0.79223
 C2876 C 0.90074 0.92169 0.81165
 C2877 C 0.87815 0.87759 0.70496
 C2878 C 0.93700 0.91722 0.79968
 C2879 C 0.90005 0.89995 0.75668
 C2880 C 0.89336 0.89302 0.74022
 C2881 C 0.88527 0.88477 0.72112
 C2882 C 0.92265 0.92328 0.81561
 H2883 H 0.94086 0.90504 0.76817
 H2884 H 0.87643 0.91286 0.78954
 H2885 H 0.88931 0.92593 0.82371
 H2886 H 0.95395 0.91848 0.80218
 C2887 C 0.90941 0.42892 0.28005
 C2888 C 0.90775 0.40708 0.27652
 C2889 C 0.91369 0.39283 0.29242
 C2890 C 0.92123 0.40036 0.31179
 C2891 C 0.87751 0.37684 0.20513
 C2892 C 0.91695 0.43649 0.29944
 C2893 C 0.89971 0.39921 0.25673
 C2894 C 0.89286 0.39237 0.24030
 C2895 C 0.88467 0.38410 0.22125
 C2896 C 0.92294 0.42228 0.31552
 H2897 H 0.90487 0.44009 0.26784
 H2898 H 0.91236 0.37590 0.28989
 H2899 H 0.92540 0.38903 0.32396
 H2900 H 0.91830 0.45344 0.30178
 C2901 C 0.42933 0.90927 0.28037
 C2902 C 0.40749 0.90757 0.27673
 C2903 C 0.39315 0.91369 0.29247
 C2904 C 0.40059 0.92141 0.31181
 C2905 C 0.37772 0.87656 0.20545
 C2906 C 0.43681 0.91697 0.29972
 C2907 C 0.39974 0.89928 0.25699
 C2908 C 0.39302 0.89223 0.24059
 C2909 C 0.38489 0.88384 0.22156
 C2910 C 0.42251 0.92310 0.31568
 H2911 H 0.44057 0.90459 0.26828
 H2912 H 0.37622 0.91236 0.28985
 H2913 H 0.38919 0.92569 0.32389
 H2914 H 0.45376 0.91831 0.30214
 C2915 C 0.40826 0.42807 0.78062
 C2916 C 0.40670 0.40620 0.77723
 C2917 C 0.41277 0.39209 0.79320
 C2918 C 0.42036 0.39979 0.81249
 C2919 C 0.37652 0.37557 0.70592
 C2920 C 0.41584 0.43581 0.79992
 C2921 C 0.39866 0.39815 0.75749
 C2922 C 0.39183 0.39120 0.74109
 C2923 C 0.38366 0.38284 0.72205
 C2924 C 0.42198 0.42174 0.81608
 H2925 H 0.40361 0.43913 0.76835
 H2926 H 0.41153 0.37513 0.79079
 H2927 H 0.42465 0.38856 0.82472
 H2928 H 0.41711 0.45279 0.80214
 C2929 C 1.10715 0.91240 1.20737
 C2930 C 1.09291 0.90625 1.22319
 C2931 C 1.07105 0.90800 1.21971
 C2932 C 1.06345 0.91581 1.20044
 C2933 C 1.12321 0.87523 1.29429
 C2934 C 1.09959 0.92021 1.18811
 C2935 C 1.10080 0.89792 1.24288
 C2936 C 1.10764 0.89086 1.25923
 C2937 C 1.11592 0.88248 1.27821
 C2938 C 1.07764 0.92198 1.18440
 H2939 H 1.12410 0.91102 1.20986
 H2940 H 1.05989 0.90331 1.23186
 H2941 H 1.04648 0.91719 1.19813
 H2942 H 1.11091 0.92453 1.17597
 C2943 C 1.10652 0.41285 0.70738
 C2944 C 1.09217 0.40684 0.72316
 C2945 C 1.07033 0.40860 0.71953
 C2946 C 1.06286 0.41628 0.70016
 C2947 C 1.12201 0.37616 0.79458
 C2948 C 1.09909 0.42054 0.68802
 C2949 C 1.09992 0.39862 0.74294
 C2950 C 1.10666 0.39164 0.75937
 C2951 C 1.11482 0.38335 0.77844
 C2952 C 1.07717 0.42231 0.68417
 H2953 H 1.12345 0.41147 0.70999
 H2954 H 1.05909 0.40401 0.73165
 H2955 H 1.04591 0.41767 0.69774
 H2956 H 1.11050 0.42475 0.67592
 C2957 C 0.60615 0.91360 0.70782
 C2958 C 0.59177 0.90768 0.72361
 C2959 C 0.56994 0.90937 0.71992
 C2960 C 0.56250 0.91691 0.70048
 C2961 C 0.62164 0.87754 0.79523
 C2962 C 0.59875 0.92114 0.68840
 C2963 C 0.59951 0.89964 0.74346
 C2964 C 0.60625 0.89280 0.75994
 C2965 C 0.61443 0.88464 0.77906
 C2966 C 0.57684 0.92287 0.68450
 H2967 H 0.62308 0.91226 0.71048
 H2968 H 0.55868 0.90484 0.73205
 H2969 H 0.54555 0.91827 0.69802
 H2970 H 0.61018 0.92530 0.67630
 C2971 C 0.60629 0.41328 1.20806
 C2972 C 0.59200 0.40730 1.22391
 C2973 C 0.57015 0.40901 1.22034
 C2974 C 0.56260 0.41661 1.20096
 C2975 C 0.62221 0.37698 1.29532
 C2976 C 0.59879 0.42089 1.18870
 C2977 C 0.59984 0.39920 1.24370
 C2978 C 0.60666 0.39232 1.26013
 C2979 C 0.61493 0.38412 1.27919
 C2980 C 0.57685 0.42263 1.18492
 H2981 H 0.62323 0.41194 1.21062
 H2982 H 0.55895 0.40444 1.23251
 H2983 H 0.54564 0.41798 1.19859
 H2984 H 0.61015 0.42509 1.17656
 C2985 C 0.91362 1.10718 1.20766
 C2986 C 0.90755 1.09291 1.22348
 C2987 C 0.90913 1.07107 1.21988
 C2988 C 0.91671 1.06353 1.20050
 C2989 C 0.87715 1.12290 1.29493
 C2990 C 0.92121 1.09968 1.18830
 C2991 C 0.89945 1.10074 1.24327
 C2992 C 0.89255 1.10753 1.25970
 C2993 C 0.88433 1.11571 1.27878
 C2994 C 0.92281 1.07776 1.18448
 H2995 H 0.91237 1.12411 1.21025
 H2996 H 0.90449 1.05988 1.23203
 H2997 H 0.91798 1.04658 1.19811
 H2998 H 0.92548 1.11103 1.17617
 C2999 C 0.91369 0.60721 0.70685
 C3000 C 0.90762 0.59294 0.72267
 C3001 C 0.90923 0.57110 0.71908
 C3002 C 0.91680 0.56356 0.69970
 C3003 C 0.87718 0.62287 0.79412
 C3004 C 0.92127 0.59971 0.68748
 C3005 C 0.89952 0.60077 0.74246
 C3006 C 0.89261 0.60754 0.75889
 C3007 C 0.88437 0.61571 0.77797
 C3008 C 0.92289 0.57779 0.68368
 H3009 H 0.91242 0.62414 0.70942
 H3010 H 0.90459 0.55992 0.73123
 H3011 H 0.91808 0.54661 0.69732
 H3012 H 0.92553 0.61105 0.67535
 C3013 C 0.40846 1.07176 0.71935
 C3014 C 0.40695 1.09361 0.72287
 C3015 C 0.41306 1.10780 0.70698
 C3016 C 0.42063 1.10020 0.68765
 C3017 C 0.37688 1.12396 0.79432
 C3018 C 0.41603 1.06411 0.70001
 C3019 C 0.39892 1.10156 0.74265
 C3020 C 0.39211 1.10844 0.75908
 C3021 C 0.38398 1.11672 0.77816
 C3022 C 0.42220 1.07826 0.68394
 H3023 H 0.40379 1.06063 0.73155
 H3024 H 0.41186 1.12475 0.70950
 H3025 H 0.42494 1.11148 0.67549
 H3026 H 0.41726 1.04715 0.69769
 C3027 C 0.41270 0.60836 1.20702
 C3028 C 0.40653 0.59425 1.22295
 C3029 C 0.40804 0.57238 1.21954
 C3030 C 0.41566 0.56463 1.20026
 C3031 C 0.37631 0.62490 1.29423
 C3032 C 0.42032 0.60066 1.18775
 C3033 C 0.39846 0.60229 1.24268
 C3034 C 0.39160 0.60925 1.25907
 C3035 C 0.38344 0.61761 1.27810
 C3036 C 0.42189 0.57870 1.18414
 H3037 H 0.41150 0.62532 1.20946
 H3038 H 0.40332 0.56131 1.23178
 H3039 H 0.41689 0.54766 1.19802
 H3040 H 0.42468 0.61189 1.17555
 C3041 C 1.10750 1.20764 0.91362
 C3042 C 1.09322 1.22351 0.90759
 C3043 C 1.07137 1.21996 0.90933
 C3044 C 1.06382 1.20057 0.91699
 C3045 C 1.12301 1.29497 0.87663
 C3046 C 1.10001 1.18826 0.92129
 C3047 C 1.10103 1.24330 0.89934
 C3048 C 1.10777 1.25973 0.89231
 C3049 C 1.11589 1.27881 0.88393
 C3050 C 1.07807 1.18449 0.92303
 H3051 H 1.12445 1.21019 0.91226
 H3052 H 1.06016 1.23215 0.90472
 H3053 H 1.04686 1.19822 0.91836
 H3054 H 1.11136 1.17609 0.92552
 C3055 C 1.10825 0.70725 0.41270
 C3056 C 1.09400 0.72310 0.40651
 C3057 C 1.07214 0.71959 0.40820
 C3058 C 1.06455 0.70026 0.41597
 C3059 C 1.12392 0.79440 0.37528
 C3060 C 1.10070 0.68793 0.42048
 C3061 C 1.10187 0.74283 0.39817
 C3062 C 1.10865 0.75922 0.39107
 C3063 C 1.11679 0.77826 0.38262
 C3064 C 1.07875 0.68420 0.42216
 H3065 H 1.12520 0.70977 0.41137
 H3066 H 1.06097 0.73176 0.40348
 H3067 H 1.04758 0.69794 0.41730
 H3068 H 1.11203 0.67578 0.42482
 C3069 C 0.60724 1.20796 0.41383
 C3070 C 0.59289 1.22378 0.40780
 C3071 C 0.57105 1.22013 0.40952
 C3072 C 0.56359 1.20071 0.41715
 C3073 C 0.62243 1.29533 0.37689
 C3074 C 0.59982 1.18854 0.42147
 C3075 C 0.60062 1.24359 0.39958
 C3076 C 0.60730 1.26005 0.39256
 C3077 C 0.61536 1.27916 0.38419
 C3078 C 0.57790 1.18468 0.42318
 H3079 H 0.62417 1.21058 0.41248
 H3080 H 0.55980 1.23228 0.40491
 H3081 H 0.54663 1.19828 0.41850
 H3082 H 0.61122 1.17641 0.42569
 C3083 C 0.60696 0.70775 0.91405
 C3084 C 0.59261 0.72356 0.90802
 C3085 C 0.57077 0.71987 0.90960
 C3086 C 0.56330 0.70040 0.91712
 C3087 C 0.62224 0.79531 0.87763
 C3088 C 0.59954 0.68829 0.92158
 C3089 C 0.60036 0.74344 0.89995
 C3090 C 0.60707 0.75994 0.89306
 C3091 C 0.61515 0.77910 0.88483
 C3092 C 0.57761 0.68438 0.92317
 H3093 H 0.62390 0.71040 0.91279
 H3094 H 0.55953 0.73202 0.90499
 H3095 H 0.54635 0.69794 0.91838
 H3096 H 0.61094 0.67617 0.92581
 C3097 C 0.89308 1.20783 1.08696
 C3098 C 0.90734 1.22368 1.09306
 C3099 C 0.92920 1.22011 1.09143
 C3100 C 0.93678 1.20074 1.08376
 C3101 C 0.87717 1.29516 1.12361
 C3102 C 0.90061 1.18846 1.07928
 C3103 C 0.89948 1.24348 1.10123
 C3104 C 0.89265 1.25992 1.10817
 C3105 C 0.88441 1.27900 1.11643
 C3106 C 0.92256 1.18468 1.07762
 H3107 H 0.87613 1.21039 1.08825
 H3108 H 0.94038 1.23228 1.09609
 H3109 H 0.95375 1.19837 1.08246
 H3110 H 0.88927 1.17632 1.07499
 C3111 C 0.89376 0.70811 0.58571
 C3112 C 0.90810 0.72391 0.59176
 C3113 C 0.92994 0.72026 0.59009
 C3114 C 0.93742 0.70083 0.58247
 C3115 C 0.87826 0.79542 0.62249
 C3116 C 0.90120 0.68870 0.57808
 C3117 C 0.90034 0.74373 0.59995
 C3118 C 0.89360 0.76019 0.60693
 C3119 C 0.88544 0.77927 0.61525
 C3120 C 0.92312 0.68482 0.57640
 H3121 H 0.87682 0.71074 0.58702
 H3122 H 0.94118 0.73239 0.59471
 H3123 H 0.95438 0.69839 0.58115
 H3124 H 0.88980 0.67658 0.57384
 C3125 C 0.41293 1.20748 0.60774
 C3126 C 0.40679 1.22354 0.59376
 C3127 C 0.40830 1.22024 0.57192
 C3128 C 0.41590 1.20094 0.56409
 C3129 C 0.37662 1.29483 0.62480
 C3130 C 0.42054 1.18819 0.59995
 C3131 C 0.39876 1.24329 0.60190
 C3132 C 0.39193 1.25968 0.60895
 C3133 C 0.38378 1.27871 0.61743
 C3134 C 0.42212 1.18470 0.57803
 H3135 H 0.41173 1.20982 0.62467
 H3136 H 0.40360 1.23258 0.56095
 H3137 H 0.41713 1.19879 0.54714
 H3138 H 0.42488 1.17589 0.61109
 C3139 C 0.39290 0.70806 1.08637
 C3140 C 0.40719 0.72386 1.09254
 C3141 C 0.42904 0.72027 1.09088
 C3142 C 0.43659 0.70090 1.08317
 C3143 C 0.37722 0.79520 1.12360
 C3144 C 0.40040 0.68870 1.07865
 C3145 C 0.39937 0.74362 1.10083
 C3146 C 0.39259 0.76003 1.10790
 C3147 C 0.38441 0.77907 1.11630
 C3148 C 0.42234 0.68488 1.07700
 H3149 H 0.37596 0.71064 1.08768
 H3150 H 0.44024 0.73241 1.09559
 H3151 H 0.45355 0.69851 1.08187
 H3152 H 0.38904 0.67658 1.07433
 C3153 C 0.92873 0.78020 0.90915
 C3154 C 0.90688 0.77662 0.90744
 C3155 C 0.89258 0.79245 0.91352
 C3156 C 0.90006 0.81183 0.92120
 C3157 C 0.87711 0.70515 0.87651
 C3158 C 0.93625 0.79958 0.91682
 C3159 C 0.89908 0.75684 0.89918
 C3160 C 0.89235 0.74040 0.89214
 C3161 C 0.88424 0.72132 0.88377
 C3162 C 0.92199 0.81563 0.92290
 H3163 H 0.93994 0.76804 0.90451
 H3164 H 0.87564 0.78988 0.91217
 H3165 H 0.88869 0.82397 0.92546
 H3166 H 0.95321 0.80196 0.91817
 C3167 C 0.89301 0.29210 0.41324
 C3168 C 0.90735 0.27628 0.40723
 C3169 C 0.92919 0.27988 0.40902
 C3170 C 0.93666 0.29928 0.41672
 C3171 C 0.87772 0.20478 0.37627
 C3172 C 0.90044 0.31148 0.42095
 C3173 C 0.89961 0.25648 0.39895
 C3174 C 0.89292 0.24004 0.39190
 C3175 C 0.88484 0.22095 0.38353
 C3176 C 0.92236 0.31532 0.42273
 H3177 H 0.87608 0.28950 0.41183
 H3178 H 0.94043 0.26773 0.40444
 H3179 H 0.95361 0.30168 0.41813
 H3180 H 0.88904 0.32362 0.42515
 C3181 C 0.42853 0.78056 0.40832
 C3182 C 0.40668 0.77706 0.40650
 C3183 C 0.39241 0.79289 0.41267
 C3184 C 0.39993 0.81218 0.42054
 C3185 C 0.37673 0.70587 0.37509
 C3186 C 0.43609 0.79985 0.41618
 C3187 C 0.39885 0.75736 0.39807
 C3188 C 0.39209 0.74100 0.39090
 C3189 C 0.38392 0.72198 0.38241
 C3190 C 0.42187 0.81591 0.42234
 H3191 H 0.43972 0.76840 0.40362
 H3192 H 0.37546 0.79038 0.41125
 H3193 H 0.38858 0.82433 0.42485
 H3194 H 0.45306 0.80217 0.41759
 C3195 C 0.42844 0.28017 0.90930
 C3196 C 0.40660 0.27662 0.90750
 C3197 C 0.39229 0.29244 0.91361
 C3198 C 0.39977 0.31178 0.92139
 C3199 C 0.37679 0.20532 0.87623
 C3200 C 0.43597 0.29951 0.91707
 C3201 C 0.39881 0.25689 0.89912
 C3202 C 0.39208 0.24049 0.89199
 C3203 C 0.38396 0.22145 0.88354
 C3204 C 0.42171 0.31556 0.92316
 H3205 H 0.43966 0.26801 0.90464
 H3206 H 0.37535 0.28990 0.91220
 H3207 H 0.38841 0.32392 0.92566
 H3208 H 0.45293 0.30187 0.91847
 C3209 C 1.10696 0.79229 1.08740
 C3210 C 1.09270 0.77648 1.09366
 C3211 C 1.07085 0.78002 1.09196
 C3212 C 1.06326 0.79932 1.08411
 C3213 C 1.12290 0.70530 1.12493
 C3214 C 1.09942 0.81158 1.07954
 C3215 C 1.10057 0.75678 1.10205
 C3216 C 1.10739 0.74041 1.10918
 C3217 C 1.11563 0.72140 1.11763
 C3218 C 1.07747 0.81534 1.07784
 H3219 H 1.12391 0.78975 1.08872
 H3220 H 1.05967 0.76788 1.09673
 H3221 H 1.04629 0.80167 1.08278
 H3222 H 1.11075 0.82370 1.07515
 C3223 C 1.07007 0.27959 0.59120
 C3224 C 1.09189 0.27591 0.59299
 C3225 C 1.10628 0.29166 0.58692
 C3226 C 1.09891 0.31106 0.57916
 C3227 C 1.12161 0.20441 0.62395
 C3228 C 1.06265 0.29900 0.58345
 C3229 C 1.09960 0.25610 0.60129
 C3230 C 1.10629 0.23965 0.60834
 C3231 C 1.11442 0.22057 0.61671
 C3232 C 1.07700 0.31496 0.57738
 H3233 H 1.05879 0.26749 0.59584
 H3234 H 1.12321 0.28901 0.58832
 H3235 H 1.11034 0.32314 0.57491
 H3236 H 1.04570 0.30146 0.58205
 C3237 C 0.57025 0.78002 0.59121
 C3238 C 0.59210 0.77639 0.59288
 C3239 C 0.60642 0.79221 0.58683
 C3240 C 0.59896 0.81162 0.57919
 C3241 C 0.62215 0.70482 0.62333
 C3242 C 0.56275 0.79944 0.58358
 C3243 C 0.59990 0.75655 0.60102
 C3244 C 0.60669 0.74009 0.60794
 C3245 C 0.61491 0.72098 0.61617
 C3246 C 0.57703 0.81546 0.57750
 H3247 H 0.55903 0.76787 0.59583
 H3248 H 0.62336 0.78960 0.58815
 H3249 H 0.61034 0.82374 0.57494
 H3250 H 0.54579 0.80186 0.58225
 C3251 C 0.57023 0.27994 1.09206
 C3252 C 0.59210 0.27637 1.09362
 C3253 C 0.60634 0.29224 1.08751
 C3254 C 0.59878 0.31162 1.07990
 C3255 C 0.62249 0.20483 1.12383
 C3256 C 0.56263 0.29934 1.08445
 C3257 C 0.60000 0.25655 1.10168
 C3258 C 0.60688 0.24009 1.10854
 C3259 C 0.61520 0.22099 1.11670
 C3260 C 0.57683 0.31540 1.07828
 H3261 H 0.55907 0.26776 1.09673
 H3262 H 0.62329 0.28968 1.08875
 H3263 H 0.61011 0.32378 1.07559
 H3264 H 0.54566 0.30171 1.08319
 C3265 C 1.22031 1.09082 0.92916
 C3266 C 1.22380 1.09259 0.90737
 C3267 C 1.20788 1.08653 0.89318
 C3268 C 1.18853 1.07880 0.90071
 C3269 C 1.29506 1.12364 0.87716
 C3270 C 1.20095 1.08310 0.93673
 C3271 C 1.24355 1.10087 0.89951
 C3272 C 1.25995 1.10793 0.89268
 C3273 C 1.27897 1.11633 0.88443
 C3274 C 1.18483 1.07703 0.92258
 H3275 H 1.23254 1.09545 0.94028
 H3276 H 1.21038 1.08792 0.87628
 H3277 H 1.17633 1.07456 0.88942
 H3278 H 1.19864 1.08171 0.95364
 C3279 C 1.22060 0.59112 0.42850
 C3280 C 1.22401 0.59280 0.40669
 C3281 C 1.20810 0.58656 0.39257
 C3282 C 1.18882 0.57875 0.40019
 C3283 C 1.29504 0.62412 0.37619
 C3284 C 1.20130 0.58331 0.43616
 C3285 C 1.24370 0.60117 0.39874
 C3286 C 1.26003 0.60829 0.39184
 C3287 C 1.27900 0.61677 0.38351
 C3288 C 1.18518 0.57706 0.42208
 H3289 H 1.23282 0.59588 0.43957
 H3290 H 1.21054 0.58789 0.37566
 H3291 H 1.17662 0.57437 0.38896
 H3292 H 1.19905 0.58199 0.45308
 C3293 C 0.72046 1.07044 0.40923
 C3294 C 0.72409 1.09226 0.40754
 C3295 C 0.70828 1.10658 0.41366
 C3296 C 0.68889 1.09914 0.42137
 C3297 C 0.79551 1.12213 0.37653
 C3298 C 0.70106 1.06295 0.41693
 C3299 C 0.74388 1.10003 0.39926
 C3300 C 0.76031 1.10678 0.39222
 C3301 C 0.77938 1.11494 0.38383
 C3302 C 0.68504 1.07723 0.42306
 H3303 H 0.73260 1.05922 0.40455
 H3304 H 0.71089 1.12350 0.41232
 H3305 H 0.67677 1.11052 0.42566
 H3306 H 0.69864 1.04601 0.41826
 C3307 C 0.70780 0.60646 0.91363
 C3308 C 0.72368 0.59219 0.90758
 C3309 C 0.72015 0.57036 0.90932
 C3310 C 0.70077 0.56281 0.91703
 C3311 C 0.79503 0.62235 0.87667
 C3312 C 0.68844 0.59895 0.92135
 C3313 C 0.74346 0.60004 0.89932
 C3314 C 0.75987 0.60685 0.89230
 C3315 C 0.77892 0.61509 0.88394
 C3316 C 0.68469 0.57703 0.92311
 H3317 H 0.71033 0.62339 0.91226
 H3318 H 0.73234 0.55918 0.90469
 H3319 H 0.69843 0.54586 0.91841
 H3320 H 0.67626 0.61029 0.92560
 C3321 C 1.21996 0.92850 1.09116
 C3322 C 1.22353 0.90666 1.09279
 C3323 C 1.20765 0.89242 1.08670
 C3324 C 1.18826 0.89995 1.07906
 C3325 C 1.29511 0.87659 1.12335
 C3326 C 1.20055 0.93608 1.08354
 C3327 C 1.24335 0.89880 1.10094
 C3328 C 1.25981 0.89200 1.10789
 C3329 C 1.27893 0.88379 1.11615
 C3330 C 1.18447 0.92188 1.07742
 H3331 H 1.23215 0.93967 1.09582
 H3332 H 1.21022 0.87548 1.08798
 H3333 H 1.17609 0.88863 1.07478
 H3334 H 1.19819 0.95304 1.08224
 C3335 C 1.21999 0.42837 0.59141
 C3336 C 1.22353 0.40653 0.59318
 C3337 C 1.20767 0.39227 0.58707
 C3338 C 1.18833 0.39979 0.57929
 C3339 C 1.29483 0.37647 0.62434
 C3340 C 1.20064 0.43593 0.58364
 C3341 C 1.24328 0.39870 0.60151
 C3342 C 1.25968 0.39191 0.60860
 C3343 C 1.27872 0.38370 0.61703
 C3344 C 1.18457 0.42171 0.57752
 H3345 H 1.23217 0.43955 0.59608
 H3346 H 1.21021 0.37534 0.58846
 H3347 H 1.17617 0.38845 0.57500
 H3348 H 1.19830 0.45288 0.58225
 C3349 C 0.70785 0.89308 0.58662
 C3350 C 0.72371 0.90739 0.59260
 C3351 C 0.72005 0.92922 0.59094
 C3352 C 0.70058 0.93671 0.58339
 C3353 C 0.79552 0.87763 0.62287
 C3354 C 0.68839 0.90052 0.57906
 C3355 C 0.74359 0.89963 0.60067
 C3356 C 0.76011 0.89290 0.60754
 C3357 C 0.77929 0.88477 0.61574
 C3358 C 0.68452 0.92243 0.57738
 H3359 H 0.71049 0.87615 0.58792
 H3360 H 0.73222 0.94044 0.59551
 H3361 H 0.69814 0.95365 0.58206
 H3362 H 0.67625 0.88914 0.57486
 C3363 C 0.70721 0.39239 1.08710
 C3364 C 0.72315 0.40661 1.09307
 C3365 C 0.71959 0.42846 1.09146
 C3366 C 0.70015 0.43606 1.08396
 C3367 C 0.79491 0.37645 1.12308
 C3368 C 0.68777 0.39995 1.07959
 C3369 C 0.74302 0.39872 1.10105
 C3370 C 0.75953 0.39188 1.10784
 C3371 C 0.77869 0.38365 1.11597
 C3372 C 0.68401 0.42188 1.07794
 H3373 H 0.70975 0.37545 1.08838
 H3374 H 0.73184 0.43961 1.09602
 H3375 H 0.69780 0.45302 1.08266
 H3376 H 0.67556 0.38863 1.07539
 C3377 C 0.79224 1.10759 1.08660
 C3378 C 0.77634 1.09338 1.09268
 C3379 C 0.77989 1.07153 1.09110
 C3380 C 0.79931 1.06392 1.08353
 C3381 C 0.70474 1.12352 1.12309
 C3382 C 0.81164 1.10003 1.07901
 C3383 C 0.75651 1.10127 1.10077
 C3384 C 0.74004 1.10810 1.10767
 C3385 C 0.72092 1.11633 1.11590
 C3386 C 0.81541 1.07810 1.07741
 H3387 H 0.78969 1.12454 1.08784
 H3388 H 0.76768 1.06038 1.09575
 H3389 H 0.80166 1.04696 1.08227
 H3390 H 0.82383 1.11134 1.07474
 C3391 C 0.79226 0.60725 0.58575
 C3392 C 0.77642 0.59295 0.59183
 C3393 C 0.78004 0.57112 0.59013
 C3394 C 0.79945 0.56361 0.58247
 C3395 C 0.70492 0.62264 0.62288
 C3396 C 0.81166 0.59978 0.57808
 C3397 C 0.75662 0.60073 0.60010
 C3398 C 0.74018 0.60744 0.60715
 C3399 C 0.72108 0.61553 0.61557
 C3400 C 0.81550 0.57787 0.57640
 H3401 H 0.78966 0.62418 0.58708
 H3402 H 0.76788 0.55992 0.59478
 H3403 H 0.80185 0.54667 0.58115
 H3404 H 0.82381 0.61115 0.57383
 C3405 C 0.29158 1.10713 0.58614
 C3406 C 0.27580 1.09275 0.59217
 C3407 C 0.27948 1.07094 0.59040
 C3408 C 0.29892 1.06353 0.58272
 C3409 C 0.20429 1.12220 0.62339
 C3410 C 0.31102 1.09975 0.57846
 C3411 C 0.25598 1.10044 0.60048
 C3412 C 0.23953 1.10709 0.60758
 C3413 C 0.22044 1.11512 0.61603
 C3414 C 0.31493 1.07786 0.57671
 H3415 H 0.28893 1.12404 0.58754
 H3416 H 0.26736 1.05968 0.59500
 H3417 H 0.30139 1.04659 0.58134
 H3418 H 0.32313 1.11117 0.57425
 C3419 C 0.29216 0.60801 1.08652
 C3420 C 0.27629 0.59382 1.09275
 C3421 C 0.27978 0.57196 1.09114
 C3422 C 0.29911 0.56432 1.08340
 C3423 C 0.20507 0.62398 1.12401
 C3424 C 0.31148 0.60041 1.07877
 C3425 C 0.25657 0.60174 1.10108
 C3426 C 0.24019 0.60856 1.10819
 C3427 C 0.22117 0.61678 1.11665
 C3428 C 0.31520 0.57847 1.07716
 H3429 H 0.28966 0.62495 1.08779
 H3430 H 0.26760 0.56084 1.09590
 H3431 H 0.30143 0.54736 1.08213
 H3432 H 0.32366 0.61169 1.07439
 C3433 C 0.79187 0.89376 0.91361
 C3434 C 0.77604 0.90807 0.90753
 C3435 C 0.77969 0.92990 0.90913
 C3436 C 0.79914 0.93740 0.91672
 C3437 C 0.70435 0.87809 0.87724
 C3438 C 0.81131 0.90121 0.92121
 C3439 C 0.75617 0.90029 0.89944
 C3440 C 0.73968 0.89352 0.89256
 C3441 C 0.72054 0.88532 0.88437
 C3442 C 0.81517 0.92312 0.92283
 H3443 H 0.78925 0.87684 0.91235
 H3444 H 0.76753 0.94112 0.90449
 H3445 H 0.80157 0.95434 0.91800
 H3446 H 0.82344 0.88984 0.92548
 C3447 C 0.77992 0.42971 0.40840
 C3448 C 0.77623 0.40790 0.40678
 C3449 C 0.79201 0.39355 0.41292
 C3450 C 0.81143 0.40097 0.42060
 C3451 C 0.70459 0.37804 0.37623
 C3452 C 0.79934 0.43717 0.41608
 C3453 C 0.75639 0.40015 0.39859
 C3454 C 0.73991 0.39341 0.39164
 C3455 C 0.72078 0.38525 0.38338
 C3456 C 0.81533 0.42287 0.42224
 H3457 H 0.76779 0.44096 0.40371
 H3458 H 0.78936 0.37663 0.41164
 H3459 H 0.82353 0.38957 0.42492
 H3460 H 0.80180 0.45411 0.41737
 C3461 C 0.29245 0.89299 0.41250
 C3462 C 0.27653 0.90713 0.40626
 C3463 C 0.27993 0.92900 0.40790
 C3464 C 0.29922 0.93670 0.41570
 C3465 C 0.20535 0.87644 0.37542
 C3466 C 0.31173 0.90065 0.42030
 C3467 C 0.25681 0.89913 0.39799
 C3468 C 0.24045 0.89219 0.39098
 C3469 C 0.22144 0.88380 0.38265
 C3470 C 0.31534 0.92260 0.42197
 H3471 H 0.29002 0.87604 0.41121
 H3472 H 0.26770 0.94009 0.40314
 H3473 H 0.30146 0.95367 0.41700
 H3474 H 0.32394 0.88940 0.42469
 C3475 C 0.27954 0.42915 0.90876
 C3476 C 0.27599 0.40730 0.90724
 C3477 C 0.29185 0.39308 0.91346
 C3478 C 0.31122 0.40065 0.92112
 C3479 C 0.20456 0.37688 0.87675
 C3480 C 0.29891 0.43676 0.91641
 C3481 C 0.25619 0.39938 0.89909
 C3482 C 0.23976 0.39251 0.89216
 C3483 C 0.22069 0.38419 0.88392
 C3484 C 0.31498 0.42258 0.92267
 H3485 H 0.26735 0.44029 0.90400
 H3486 H 0.28931 0.37614 0.91226
 H3487 H 0.32338 0.38934 0.92550
 H3488 H 0.30127 0.45372 0.91763
   
