data_POSCAR
  _audit_creation_date              2014-09-24
  _audit_creation_method            'ToBaCCo'
  _symmetry_space_group_name_H-M    'P1'
  _symmetry_Int_Tables_number       1
  _symmetry_cell_setting            triclinic
  loop_
  _symmetry_equiv_pos_as_xyz
 x,y,z
_cell_length_a 93.3330
_cell_length_b 93.2110
_cell_length_c 93.2542
_cell_angle_alpha 90.072100
_cell_angle_beta 90.010600
_cell_angle_gamma 90.032700
loop_
  _atom_site_label
  _atom_site_type_symbol
  _atom_site_fract_x
  _atom_site_fract_y
  _atom_site_fract_z
N1 N 0.31029 0.42959 0.89987
 N2 N 0.32034 0.43946 0.89987
 C3 C 0.31784 0.44868 0.88902
 C4 C 0.30552 0.44438 0.88192
 C5 C 0.30104 0.43221 0.88913
 H6 H 0.32436 0.45797 0.88662
 H7 H 0.29180 0.42566 0.88669
 Cu8 Cu 0.33551 0.43943 0.91424
 Cu9 Cu 0.30975 0.41413 0.91384
 Cu10 Cu 0.33635 0.41391 0.93974
 N11 N 0.35000 0.43947 0.92932
 N12 N 0.35051 0.42921 0.93895
 C13 C 0.36154 0.43165 0.94790
 C14 C 0.36834 0.44426 0.94382
 C15 C 0.36062 0.44891 0.93194
 H16 H 0.36412 0.42488 0.95693
 H17 H 0.36262 0.45835 0.92555
 N18 N 0.32105 0.39937 0.93881
 N19 N 0.31099 0.39939 0.92887
 C20 C 0.30195 0.38839 0.93132
 C21 C 0.30647 0.38116 0.94345
 C22 C 0.31862 0.38842 0.94790
 H23 H 0.29253 0.38605 0.92500
 H24 H 0.32517 0.38594 0.95713
 H25 H 0.32009 0.42538 0.92996
 H26 H 0.33146 0.41387 0.91814
 N27 N 0.42985 0.85069 0.43976
 N28 N 0.44041 0.84990 0.43049
 C29 C 0.44982 0.86052 0.43318
 C30 C 0.44486 0.86855 0.44473
 C31 C 0.43205 0.86196 0.44853
 H32 H 0.45951 0.86226 0.42710
 H33 H 0.42509 0.86474 0.45735
 Cu34 Cu 0.44095 0.83497 0.41587
 Cu35 Cu 0.41478 0.83624 0.44072
 Cu36 Cu 0.41653 0.80845 0.41603
 N37 N 0.44155 0.81944 0.40188
 N38 N 0.43207 0.80902 0.40215
 C39 C 0.43502 0.79962 0.39160
 C40 C 0.44698 0.80440 0.38423
 C41 C 0.45082 0.81705 0.39106
 H42 H 0.42877 0.79011 0.38932
 H43 H 0.45979 0.82390 0.38844
 N44 N 0.40156 0.80975 0.43084
 N45 N 0.40068 0.82048 0.44004
 C46 C 0.38948 0.81816 0.44886
 C47 C 0.38305 0.80530 0.44509
 C48 C 0.39099 0.80031 0.43359
 H49 H 0.38650 0.82508 0.45766
 H50 H 0.38922 0.79049 0.42768
 H51 H 0.42695 0.81994 0.43202
 H52 H 0.41544 0.83037 0.41939
 N53 N 0.92918 0.90019 0.81029
 N54 N 0.93965 0.90064 0.81971
 C55 C 0.94873 0.88971 0.81711
 C56 C 0.94375 0.88209 0.80536
 C57 C 0.93131 0.88907 0.80132
 H58 H 0.95840 0.88761 0.82314
 H59 H 0.92429 0.88628 0.79253
 Cu60 Cu 0.94059 0.91558 0.83429
 Cu61 Cu 0.91380 0.91426 0.81000
 Cu62 Cu 0.91578 0.94168 0.83494
 N63 N 0.94017 0.93000 0.84945
 N64 N 0.93016 0.93988 0.84992
 C65 C 0.93241 0.94842 0.86135
 C66 C 0.94465 0.94377 0.86845
 C67 C 0.94923 0.93199 0.86052
 H68 H 0.92583 0.95760 0.86393
 H69 H 0.95843 0.92528 0.86261
 N70 N 0.90022 0.94019 0.82075
 N71 N 0.89937 0.92961 0.81138
 C72 C 0.88786 0.93173 0.80294
 C73 C 0.88116 0.94430 0.80714
 C74 C 0.88929 0.94934 0.81851
 H75 H 0.88485 0.92490 0.79407
 H76 H 0.88743 0.95900 0.82464
 H77 H 0.92590 0.93045 0.81846
 H78 H 0.91502 0.91984 0.83151
 N79 N 0.43068 -0.09852 0.30920
 N80 N 0.44027 -0.09876 0.31951
 C81 C 0.44968 -0.10939 0.31690
 C82 C 0.44582 -0.11612 0.30423
 C83 C 0.43369 -0.10892 0.29966
 H84 H 0.45884 -0.11186 0.32355
 H85 H 0.42746 -0.11112 0.29013
 Cu86 Cu 0.43999 -0.08484 0.33507
 Cu87 Cu 0.41518 -0.08464 0.30876
 Cu88 Cu 0.41470 -0.05899 0.33560
 N89 N 0.43992 -0.06977 0.34950
 N90 N 0.42988 -0.05989 0.34983
 C91 C 0.43246 -0.05087 0.36081
 C92 C 0.44485 -0.05523 0.36767
 C93 C 0.44931 -0.06726 0.36018
 H94 H 0.42600 -0.04159 0.36338
 H95 H 0.45867 -0.07372 0.36238
 N96 N 0.40027 -0.05983 0.32024
 N97 N 0.40035 -0.06971 0.31011
 C98 C 0.38935 -0.06729 0.30109
 C99 C 0.38205 -0.05522 0.30570
 C100 C 0.38928 -0.05079 0.31788
 H101 H 0.38705 -0.07359 0.29163
 H102 H 0.38672 -0.04163 0.32452
 H103 H 0.42645 -0.06879 0.31953
 H104 H 0.41457 -0.08057 0.33056
 N105 N 0.80946 0.31990 0.34921
 N106 N 0.81920 0.30973 0.34888
 C107 C 0.81650 0.30031 0.35949
 C108 C 0.80448 0.30489 0.36691
 C109 C 0.80033 0.31739 0.36009
 H110 H 0.82282 0.29085 0.36171
 H111 H 0.79114 0.32398 0.36261
 Cu112 Cu 0.83418 0.30981 0.33435
 Cu113 Cu 0.80880 0.33525 0.33510
 Cu114 Cu 0.83540 0.33546 0.30912
 N115 N 0.84922 0.31005 0.31989
 N116 N 0.84950 0.32005 0.30996
 C117 C 0.86050 0.31752 0.30099
 C118 C 0.86758 0.30529 0.30554
 C119 C 0.86014 0.30087 0.31761
 H120 H 0.86317 0.32412 0.29185
 H121 H 0.86231 0.29147 0.32403
 N122 N 0.82015 0.35008 0.31013
 N123 N 0.80994 0.34986 0.31992
 C124 C 0.80078 0.36072 0.31740
 C125 C 0.80546 0.36819 0.30548
 C126 C 0.81781 0.36118 0.30119
 H127 H 0.79138 0.36303 0.32374
 H128 H 0.82436 0.36374 0.29199
 H129 H 0.81897 0.32421 0.31875
 H130 H 0.83050 0.33542 0.33067
 N131 N -0.18021 0.84957 0.80963
 N132 N -0.18980 0.84988 0.81993
 C133 C -0.19872 0.86103 0.81773
 C134 C -0.19463 0.86803 0.80522
 C135 C -0.18279 0.86037 0.80043
 H136 H -0.20770 0.86360 0.82457
 H137 H -0.17640 0.86245 0.79100
 Cu138 Cu -0.19015 0.83510 0.83465
 Cu139 Cu -0.16503 0.83520 0.80887
 Cu140 Cu -0.16510 0.80927 0.83549
 N141 N -0.19020 0.82041 0.84946
 N142 N -0.18028 0.81042 0.84978
 C143 C -0.18295 0.80142 0.86073
 C144 C -0.19528 0.80593 0.86763
 C145 C -0.19959 0.81805 0.86019
 H146 H -0.17665 0.79201 0.86317
 H147 H -0.20886 0.82462 0.86242
 N148 N -0.15067 0.80988 0.82008
 N149 N -0.15058 0.81979 0.80998
 C150 C -0.13950 0.81728 0.80107
 C151 C -0.13231 0.80515 0.80572
 C152 C -0.13972 0.80077 0.81780
 H153 H -0.13698 0.82365 0.79174
 H154 H -0.13724 0.79165 0.82450
 H155 H -0.17638 0.81917 0.81916
 H156 H -0.16478 0.83087 0.83057
 N157 N 0.94149 0.34765 0.43190
 N158 N 0.93032 0.34886 0.44038
 C159 C 0.93251 0.35985 0.44952
 C160 C 0.94587 0.36586 0.44670
 C161 C 0.95121 0.35772 0.43540
 H162 H 0.92496 0.36306 0.45769
 H163 H 0.96126 0.35913 0.42985
 Cu164 Cu 0.91397 0.33593 0.43883
 Cu165 Cu 0.94241 0.33355 0.41654
 Cu166 Cu 0.91536 0.30838 0.41529
 N167 N 0.90039 0.32005 0.43951
 N168 N 0.90104 0.30937 0.43032
 C169 C 0.89075 0.29977 0.43343
 C170 C 0.88318 0.30464 0.44522
 C171 C 0.88958 0.31760 0.44877
 H172 H 0.88893 0.28995 0.42752
 H173 H 0.88681 0.32457 0.45762
 N174 N 0.93085 0.30911 0.40107
 N175 N 0.94141 0.31850 0.40173
 C176 C 0.95065 0.31588 0.39095
 C177 C 0.94563 0.30431 0.38309
 C178 C 0.93303 0.30033 0.38981
 H179 H 0.96026 0.32201 0.38889
 H180 H 0.92613 0.29148 0.38690
 H181 H 0.92066 0.32999 0.41425
 H182 H 0.93033 0.31886 0.42794
 N183 N 0.43953 0.42986 0.84956
 N184 N 0.42912 0.43934 0.84995
 C185 C 0.43152 0.44854 0.86083
 C186 C 0.44415 0.44468 0.86757
 C187 C 0.44894 0.43276 0.86012
 H188 H 0.42476 0.45759 0.86345
 H189 H 0.45851 0.42660 0.86225
 Cu190 Cu 0.41373 0.43925 0.83590
 Cu191 Cu 0.44019 0.41460 0.83533
 Cu192 Cu 0.41359 0.41454 0.80946
 N193 N 0.39942 0.43941 0.82074
 N194 N 0.39930 0.42966 0.81056
 C195 C 0.38841 0.43240 0.80151
 C196 C 0.38137 0.44461 0.80620
 C197 C 0.38867 0.44876 0.81845
 H198 H 0.38602 0.42617 0.79202
 H199 H 0.38631 0.45789 0.82519
 N200 N 0.42897 0.40012 0.81010
 N201 N 0.43902 0.40004 0.82004
 C202 C 0.44800 0.38902 0.81749
 C203 C 0.44344 0.38187 0.80529
 C204 C 0.43133 0.38922 0.80091
 H205 H 0.45737 0.38656 0.82384
 H206 H 0.42471 0.38678 0.79172
 H207 H 0.42954 0.42616 0.81970
 H208 H 0.41847 0.41393 0.83109
 N209 N 0.80986 0.90067 0.93004
 N210 N 0.81965 0.90106 0.94016
 C211 C 0.81709 0.89043 0.94958
 C212 C 0.80503 0.88298 0.94512
 C213 C 0.80078 0.88977 0.93265
 H214 H 0.82353 0.88821 0.95895
 H215 H 0.79156 0.88718 0.92612
 Cu216 Cu 0.83480 0.91542 0.94017
 Cu217 Cu 0.80907 0.91472 0.91466
 Cu218 Cu 0.83547 0.94055 0.91410
 N219 N 0.84960 0.93012 0.93940
 N220 N 0.84974 0.93988 0.92924
 C221 C 0.86078 0.94889 0.93146
 C222 C 0.86801 0.94455 0.94364
 C223 C 0.86065 0.93255 0.94838
 H224 H 0.86335 0.95793 0.92470
 H225 H 0.86298 0.92628 0.95783
 N226 N 0.82017 0.93958 0.89970
 N227 N 0.80998 0.92979 0.90000
 C228 C 0.80071 0.93234 0.88924
 C229 C 0.80532 0.94432 0.88177
 C230 C 0.81772 0.94858 0.88870
 H231 H 0.79127 0.92599 0.88704
 H232 H 0.82425 0.95782 0.88618
 H233 H 0.83099 0.91867 0.91466
 H234 H 0.81944 0.93076 0.92595
 N235 N 0.30938 0.84858 0.31867
 N236 N 0.31984 0.84883 0.30925
 C237 C 0.31830 0.86047 0.30085
 C238 C 0.30610 0.86780 0.30513
 C239 C 0.30081 0.85997 0.31655
 H240 H 0.32532 0.86320 0.29204
 H241 H 0.29111 0.86208 0.32252
 Cu242 Cu 0.33334 0.83298 0.30746
 Cu243 Cu 0.30676 0.83279 0.33198
 Cu244 Cu 0.33501 0.80916 0.33485
 N245 N 0.34892 0.81923 0.30929
 N246 N 0.34955 0.81003 0.31993
 C247 C 0.36069 0.80111 0.31782
 C248 C 0.36744 0.80489 0.30517
 C249 C 0.35975 0.81656 0.30013
 H250 H 0.36333 0.79215 0.32465
 H251 H 0.36176 0.82250 0.29039
 N252 N 0.31920 0.80977 0.34874
 N253 N 0.30820 0.81852 0.34738
 C254 C 0.29881 0.81596 0.35802
 C255 C 0.30411 0.80499 0.36650
 C256 C 0.31709 0.80136 0.36028
 H257 H 0.28887 0.82172 0.35951
 H258 H 0.32427 0.79290 0.36363
 H259 H 0.32858 0.83058 0.33287
 H260 H 0.31878 0.81671 0.32202
 N261 N 0.80910 0.40135 0.43089
 N262 N 0.81898 0.40176 0.44092
 C263 C 0.81652 0.39114 0.45039
 C264 C 0.80448 0.38361 0.44602
 C265 C 0.80009 0.39039 0.43356
 H266 H 0.82300 0.38903 0.45975
 H267 H 0.79084 0.38776 0.42708
 Cu268 Cu 0.83378 0.41646 0.44083
 Cu269 Cu 0.80828 0.41540 0.41542
 Cu270 Cu 0.83467 0.44164 0.41517
 N271 N 0.84853 0.43122 0.44062
 N272 N 0.84866 0.44115 0.43063
 C273 C 0.85936 0.45045 0.43330
 C274 C 0.86637 0.44612 0.44563
 C275 C 0.85924 0.43383 0.44996
 H276 H 0.86183 0.45970 0.42677
 H277 H 0.86142 0.42753 0.45942
 N278 N 0.81957 0.44037 0.40049
 N279 N 0.80936 0.43057 0.40072
 C280 C 0.80028 0.43303 0.38976
 C281 C 0.80504 0.44491 0.38224
 C282 C 0.81733 0.44923 0.38932
 H283 H 0.79087 0.42668 0.38742
 H284 H 0.82389 0.45843 0.38676
 H285 H 0.82990 0.41997 0.41525
 H286 H 0.81828 0.43182 0.42647
 N287 N 0.92893 0.84989 -0.06069
 N288 N 0.93978 0.84905 -0.06963
 C289 C 0.94929 0.85944 -0.06650
 C290 C 0.94415 0.86721 -0.05493
 C291 C 0.93117 0.86084 -0.05153
 H292 H 0.95929 0.86113 -0.07209
 H293 H 0.92380 0.86402 -0.04317
 Cu294 Cu 0.94037 0.83438 -0.08440
 Cu295 Cu 0.91250 0.83698 -0.06203
 Cu296 Cu 0.91838 0.80623 -0.08235
 N297 N 0.93987 0.82003 -0.09948
 N298 N 0.93114 0.80900 -0.09868
 C299 C 0.93355 0.80020 -0.10987
 C300 C 0.94444 0.80601 -0.11812
 C301 C 0.94816 0.81863 -0.11121
 H302 H 0.92817 0.79005 -0.11153
 H303 H 0.95645 0.82610 -0.11434
 N304 N 0.90251 0.80810 -0.06855
 N305 N 0.90008 0.81988 -0.06109
 C306 C 0.88852 0.81780 -0.05271
 C307 C 0.88340 0.80402 -0.05499
 C308 C 0.89256 0.79822 -0.06516
 H309 H 0.88438 0.82566 -0.04526
 H310 H 0.89199 0.78763 -0.06985
 H311 H 0.92617 0.82088 -0.06708
 H312 H 0.91520 0.82766 -0.08236
 N313 N 0.31115 0.35090 0.82085
 N314 N 0.32089 0.35029 0.81068
 C315 C 0.31864 0.36108 0.80135
 C316 C 0.30687 0.36890 0.80592
 C317 C 0.30244 0.36213 0.81837
 H318 H 0.32505 0.36306 0.79191
 H319 H 0.29328 0.36488 0.82491
 Cu320 Cu 0.33521 0.33512 0.81045
 Cu321 Cu 0.30987 0.33655 0.83602
 Cu322 Cu 0.33501 0.30914 0.83527
 N323 N 0.34961 0.32001 0.81041
 N324 N 0.34930 0.30978 0.82009
 C325 C 0.36004 0.30051 0.81754
 C326 C 0.36755 0.30516 0.80563
 C327 C 0.36063 0.31761 0.80140
 H328 H 0.36226 0.29114 0.82398
 H329 H 0.36328 0.32427 0.79230
 N330 N 0.31977 0.31037 0.84980
 N331 N 0.31037 0.32093 0.85030
 C332 C 0.30139 0.31865 0.86139
 C333 C 0.30527 0.30599 0.86811
 C334 C 0.31698 0.30107 0.86046
 H335 H 0.29246 0.32549 0.86417
 H336 H 0.32305 0.29143 0.86257
 H337 H 0.33125 0.33101 0.83595
 H338 H 0.31903 0.32011 0.82443
 N339 N 0.14939 0.57080 0.56069
 N340 N 0.15010 0.56043 0.57021
 C341 C 0.13928 0.55114 0.56787
 C342 C 0.13136 0.55594 0.55625
 C343 C 0.13809 0.56849 0.55201
 H344 H 0.13736 0.54156 0.57407
 H345 H 0.13528 0.57520 0.54299
 Cu346 Cu 0.16544 0.55998 0.58434
 Cu347 Cu 0.16376 0.58597 0.55953
 Cu348 Cu 0.19156 0.58465 0.58422
 N349 N 0.18079 0.55952 0.59848
 N350 N 0.19108 0.56914 0.59819
 C351 C 0.20053 0.56632 0.60870
 C352 C 0.19593 0.55428 0.61607
 C353 C 0.18331 0.55029 0.60930
 H354 H 0.20999 0.57265 0.61091
 H355 H 0.17662 0.54119 0.61190
 N356 N 0.19012 0.59952 0.56930
 N357 N 0.17940 0.60023 0.56009
 C358 C 0.18155 0.61147 0.55128
 C359 C 0.19429 0.61810 0.55506
 C360 C 0.19939 0.61023 0.56654
 H361 H 0.17459 0.61440 0.54250
 H362 H 0.20916 0.61219 0.57246
 H363 H 0.18029 0.57415 0.56821
 H364 H 0.16970 0.58550 0.58083
 N365 N 0.59980 0.68018 0.05991
 N366 N 0.59910 0.69059 0.06940
 C367 C 0.60993 0.69985 0.06705
 C368 C 0.61784 0.69500 0.05546
 C369 C 0.61110 0.68244 0.05123
 H370 H 0.61192 0.70940 0.07333
 H371 H 0.61396 0.67564 0.04229
 Cu372 Cu 0.58404 0.69120 0.08378
 Cu373 Cu 0.58554 0.66493 0.05900
 Cu374 Cu 0.55888 0.66539 0.08486
 N375 N 0.56930 0.69095 0.09852
 N376 N 0.55969 0.68067 0.09906
 C377 C 0.55089 0.68301 0.11025
 C378 C 0.55516 0.69550 0.11707
 C379 C 0.56689 0.70025 0.10932
 H380 H 0.54187 0.67629 0.11303
 H381 H 0.57325 0.70970 0.11147
 N382 N 0.55984 0.65083 0.06958
 N383 N 0.57010 0.65051 0.05985
 C384 C 0.56753 0.63963 0.05069
 C385 C 0.55498 0.63284 0.05477
 C386 C 0.55044 0.64023 0.06682
 H387 H 0.57402 0.63712 0.04142
 H388 H 0.54091 0.63810 0.07304
 H389 H 0.56903 0.67630 0.06839
 H390 H 0.58064 0.66547 0.08059
 N391 N 0.68053 0.19062 0.65100
 N392 N 0.69056 0.18074 0.65130
 C393 C 0.69987 0.18317 0.64054
 C394 C 0.69537 0.19517 0.63303
 C395 C 0.68304 0.19959 0.63998
 H396 H 0.70917 0.17665 0.63826
 H397 H 0.67647 0.20877 0.63737
 Cu398 Cu 0.69049 0.16564 0.66574
 Cu399 Cu 0.66524 0.19145 0.66512
 Cu400 Cu 0.66494 0.16518 0.69131
 N401 N 0.69051 0.15145 0.68105
 N402 N 0.68032 0.15111 0.69077
 C403 C 0.68288 0.14030 0.69996
 C404 C 0.69544 0.13353 0.69589
 C405 C 0.69999 0.14092 0.68384
 H406 H 0.67626 0.13775 0.70912
 H407 H 0.70947 0.13873 0.67754
 N408 N 0.65036 0.18039 0.69013
 N409 N 0.65063 0.19054 0.68029
 C410 C 0.63987 0.19981 0.68281
 C411 C 0.63243 0.19529 0.69481
 C412 C 0.63935 0.18290 0.69913
 H413 H 0.63765 0.20922 0.67643
 H414 H 0.63684 0.17646 0.70843
 H415 H 0.67656 0.18127 0.68136
 H416 H 0.66497 0.16977 0.66969
 N417 N 1.09767 0.06788 0.19185
 N418 N 1.09827 0.05873 0.18112
 C419 C 1.10962 0.05001 0.18300
 C420 C 1.11642 0.05382 0.19566
 C421 C 1.10853 0.06524 0.20095
 H422 H 1.11243 0.04121 0.17598
 H423 H 1.11043 0.07111 0.21078
 Cu424 Cu 1.08339 0.05852 0.16647
 Cu425 Cu 1.08226 0.08185 0.19375
 Cu426 Cu 1.05735 0.08336 0.16625
 N427 N 1.06858 0.05851 0.15177
 N428 N 1.05841 0.06825 0.15187
 C429 C 1.04917 0.06556 0.14114
 C430 C 1.05376 0.05347 0.13386
 C431 C 1.06617 0.04930 0.14087
 H432 H 1.03975 0.07191 0.13887
 H433 H 1.07270 0.04003 0.13847
 N434 N 1.05812 0.09754 0.18191
 N435 N 1.06765 0.09707 0.19235
 C436 C 1.06520 0.10805 0.20144
 C437 C 1.05344 0.11567 0.19658
 C438 C 1.04926 0.10871 0.18416
 H439 H 1.07128 0.11013 0.21109
 H440 H 1.04040 0.11156 0.17728
 H441 H 1.06656 0.07122 0.18195
 H442 H 1.07882 0.08354 0.17202
 N443 N 0.06936 0.15118 1.05868
 N444 N 0.05917 0.15153 1.06840
 C445 C 0.04984 0.14080 1.06578
 C446 C 0.05450 0.13329 1.05383
 C447 C 0.06695 0.14017 1.04965
 H448 H 0.04037 0.13859 1.07209
 H449 H 0.07355 0.13763 1.04047
 Cu450 Cu 0.05907 0.16631 1.08318
 Cu451 Cu 0.08453 0.16551 1.05784
 Cu452 Cu 0.08424 0.19200 1.08402
 N453 N 0.05900 0.18107 1.09798
 N454 N 0.06880 0.19119 1.09808
 C455 C 0.06605 0.20040 1.10885
 C456 C 0.05387 0.19580 1.11596
 C457 C 0.04971 0.18345 1.10880
 H458 H 0.07245 0.20975 1.11132
 H459 H 0.04042 0.17691 1.11107
 N460 N 0.09892 0.19095 1.06884
 N461 N 0.09892 0.18095 1.05880
 C462 C 0.10977 0.18351 1.04964
 C463 C 0.11699 0.19568 1.05413
 C464 C 0.10985 0.20006 1.06638
 H465 H 0.11223 0.17703 1.04035
 H466 H 0.11220 0.20945 1.07277
 H467 H 0.08459 0.17035 1.07946
 H468 H 0.07323 0.18185 1.06770
 N469 N 0.15139 0.69131 0.68045
 N470 N 0.15124 0.68119 0.69024
 C471 C 0.14048 0.68379 0.69951
 C472 C 0.13357 0.69626 0.69535
 C473 C 0.14081 0.70072 0.68319
 H474 H 0.13804 0.67727 0.70878
 H475 H 0.13853 0.71008 0.67676
 Cu476 Cu 0.16544 0.66589 0.69035
 Cu477 Cu 0.16549 0.69177 0.66511
 Cu478 Cu 0.19162 0.66544 0.66542
 N479 N 0.18067 0.65162 0.69063
 N480 N 0.19072 0.65137 0.68077
 C481 C 0.19983 0.64055 0.68357
 C482 C 0.19534 0.63367 0.69593
 C483 C 0.18313 0.64101 0.70012
 H484 H 0.20921 0.63807 0.67724
 H485 H 0.17649 0.63874 0.70934
 N486 N 0.19075 0.68060 0.65075
 N487 N 0.18065 0.69049 0.65050
 C488 C 0.18305 0.69935 0.63935
 C489 C 0.19532 0.69491 0.63231
 C490 C 0.19991 0.68298 0.63984
 H491 H 0.17658 0.70861 0.63678
 H492 H 0.20924 0.67652 0.63753
 H493 H 0.16997 0.67004 0.66490
 H494 H 0.18136 0.68153 0.67675
 N495 N 1.18078 0.15114 0.19089
 N496 N 1.19013 0.15066 0.18037
 C497 C 1.19930 0.13976 0.18275
 C498 C 1.19553 0.13312 0.19551
 C499 C 1.18369 0.14064 0.20032
 H500 H 1.20828 0.13709 0.17593
 H501 H 1.17764 0.13867 0.21000
 Cu502 Cu 1.18994 0.16470 0.16488
 Cu503 Cu 1.16585 0.16555 0.19193
 Cu504 Cu 1.16650 0.19231 0.16640
 N505 N 1.19057 0.18056 0.15128
 N506 N 1.18156 0.19136 0.15206
 C507 C 1.18465 0.20089 0.14169
 C508 C 1.19626 0.19584 0.13394
 C509 C 1.19971 0.18287 0.14034
 H510 H 1.17880 0.21073 0.13988
 H511 H 1.20839 0.17578 0.13741
 N512 N 1.15203 0.19145 0.18171
 N513 N 1.15162 0.18106 0.19129
 C514 C 1.14061 0.18341 0.20031
 C515 C 1.13380 0.19595 0.19628
 C516 C 1.14133 0.20075 0.18444
 H517 H 1.13794 0.17669 0.20935
 H518 H 1.13912 0.21027 0.17822
 H519 H 1.16501 0.17053 0.17030
 H520 H 1.17803 0.18093 0.18153
 N521 N 0.65248 1.05821 0.56835
 N522 N 0.65226 1.06846 0.55870
 C523 C 0.64101 1.06638 0.54991
 C524 C 0.63380 1.05415 0.55429
 C525 C 0.64138 1.04929 0.56608
 H526 H 0.63830 1.07321 0.54095
 H527 H 0.63926 1.03972 0.57226
 Cu528 Cu 0.66694 1.08328 0.55817
 Cu529 Cu 0.66783 1.05654 0.58228
 Cu530 Cu 0.69081 1.08557 0.58532
 N531 N 0.68079 1.09882 0.55942
 N532 N 0.68976 1.09991 0.57022
 C533 C 0.69820 1.11145 0.56822
 C534 C 0.69436 1.11794 0.55543
 C535 C 0.68322 1.10963 0.55018
 H536 H 0.70684 1.11456 0.57529
 H537 H 0.67736 1.11128 0.54032
 N538 N 0.69033 1.06973 0.59928
 N539 N 0.68183 1.05851 0.59788
 C540 C 0.68471 1.04908 0.60841
 C541 C 0.69562 1.05458 0.61683
 C542 C 0.69887 1.06773 0.61075
 H543 H 0.67930 1.03892 0.60979
 H544 H 0.70722 1.07504 0.61410
 H545 H 0.66972 1.07855 0.58367
 H546 H 0.68365 1.06922 0.57270
 N547 N 0.56947 0.55968 0.15079
 N548 N 0.56028 0.57034 0.15018
 C549 C 0.55111 0.56798 0.13926
 C550 C 0.55470 0.55510 0.13273
 C551 C 0.56643 0.55017 0.14035
 H552 H 0.54226 0.57492 0.13651
 H553 H 0.57234 0.54038 0.13848
 Cu554 Cu 0.56063 0.58600 0.16404
 Cu555 Cu 0.58438 0.55865 0.16530
 Cu556 Cu 0.58410 0.58477 0.19159
 N557 N 0.56027 0.60001 0.17958
 N558 N 0.56931 0.59935 0.19035
 C559 C 0.56644 0.61000 0.19966
 C560 C 0.55495 0.61783 0.19448
 C561 C 0.55133 0.61117 0.18167
 H562 H 0.57235 0.61196 0.20943
 H563 H 0.54267 0.61406 0.17455
 N564 N 0.59830 0.56922 0.19106
 N565 N 0.59858 0.55938 0.18089
 C566 C 0.60948 0.55028 0.18347
 C567 C 0.61636 0.55454 0.19592
 C568 C 0.60896 0.56660 0.20042
 H569 H 0.61206 0.54105 0.17693
 H570 H 0.61126 0.57305 0.20978
 H571 H 0.57238 0.56948 0.18048
 H572 H 0.58550 0.58035 0.16986
 N573 N 0.64998 0.67966 0.18961
 N574 N 0.65052 0.68999 0.18004
 C575 C 0.63973 0.69927 0.18251
 C576 C 0.63197 0.69446 0.19423
 C577 C 0.63877 0.68195 0.19841
 H578 H 0.63769 0.70884 0.17631
 H579 H 0.63608 0.67527 0.20749
 Cu580 Cu 0.66563 0.69044 0.16563
 Cu581 Cu 0.66451 0.66468 0.19079
 Cu582 Cu 0.69191 0.66594 0.16567
 N583 N 0.68068 0.69071 0.15116
 N584 N 0.69106 0.68120 0.15146
 C585 C 0.70030 0.68390 0.14073
 C586 C 0.69546 0.69573 0.13321
 C587 C 0.68293 0.69976 0.14012
 H588 H 0.70976 0.67760 0.13848
 H589 H 0.67613 0.70874 0.13744
 N590 N 0.69086 0.65130 0.18082
 N591 N 0.68031 0.65062 0.19021
 C592 C 0.68278 0.63960 0.19922
 C593 C 0.69555 0.63310 0.19537
 C594 C 0.70034 0.64080 0.18364
 H595 H 0.67601 0.63678 0.20818
 H596 H 0.71003 0.63888 0.17760
 H597 H 0.68080 0.67655 0.18172
 H598 H 0.67009 0.66497 0.16939
 N599 N 0.15104 0.06899 1.05930
 N600 N 0.15164 0.05876 1.06897
 C601 C 0.14098 0.04932 1.06651
 C602 C 0.13323 0.05393 1.05471
 C603 C 0.13992 0.06649 1.05046
 H604 H 0.13900 0.03979 1.07280
 H605 H 0.13720 0.07308 1.04133
 Cu606 Cu 0.16671 0.05855 1.08337
 Cu607 Cu 0.16531 0.08426 1.05822
 Cu608 Cu 0.19265 0.08341 1.08346
 N609 N 0.18179 0.05836 1.09778
 N610 N 0.19203 0.06804 1.09757
 C611 C 0.20134 0.06533 1.10824
 C612 C 0.19672 0.05328 1.11558
 C613 C 0.18425 0.04915 1.10864
 H614 H 0.21073 0.07172 1.11052
 H615 H 0.17759 0.04000 1.11118
 N616 N 0.19137 0.09811 1.06836
 N617 N 0.18084 0.09862 1.05892
 C618 C 0.18316 0.10969 1.04994
 C619 C 0.19582 0.11640 1.05384
 C620 C 0.20068 0.10878 1.06559
 H621 H 0.17639 0.11241 1.04094
 H622 H 0.21033 0.11084 1.07165
 H623 H 0.18175 0.07266 1.06734
 H624 H 0.17085 0.08409 1.07962
 N625 N 0.59962 0.19061 0.56986
 N626 N 0.60008 0.18012 0.56046
 C627 C 0.61119 0.18234 0.55150
 C628 C 0.61802 0.19494 0.55546
 C629 C 0.61037 0.19986 0.56720
 H630 H 0.61387 0.17549 0.54252
 H631 H 0.61241 0.20948 0.57334
 Cu632 Cu 0.58579 0.16485 0.56027
 Cu633 Cu 0.58492 0.19183 0.58456
 Cu634 Cu 0.55798 0.16645 0.58338
 N635 N 0.56988 0.15131 0.55939
 N636 N 0.55902 0.15214 0.56831
 C637 C 0.54941 0.14188 0.56505
 C638 C 0.55448 0.13414 0.55345
 C639 C 0.56755 0.14041 0.55016
 H640 H 0.53950 0.14014 0.57078
 H641 H 0.57467 0.13746 0.54151
 N642 N 0.55871 0.18171 0.59791
 N643 N 0.56908 0.19130 0.59850
 C644 C 0.56650 0.20034 0.60948
 C645 C 0.55382 0.19630 0.61606
 C646 C 0.54921 0.18442 0.60843
 H647 H 0.57317 0.20940 0.61229
 H648 H 0.53967 0.17818 0.61044
 H649 H 0.57980 0.17028 0.58519
 H650 H 0.56967 0.18165 0.57211
 N651 N 0.09885 0.56879 0.69068
 N652 N 0.09854 0.55886 0.68067
 C653 C 0.10923 0.54944 0.68305
 C654 C 0.11666 0.55374 0.69518
 C655 C 0.10977 0.56610 0.69970
 H656 H 0.11146 0.54017 0.67645
 H657 H 0.11227 0.57245 0.70908
 Cu658 Cu 0.08394 0.55916 0.66579
 Cu659 Cu 0.08462 0.58404 0.69178
 Cu660 Cu 0.05840 0.58447 0.66537
 N661 N 0.06935 0.55948 0.65090
 N662 N 0.05929 0.56934 0.65092
 C663 C 0.05025 0.56687 0.63994
 C664 C 0.05491 0.55482 0.63259
 C665 C 0.06710 0.55045 0.63984
 H666 H 0.04098 0.57337 0.63750
 H667 H 0.07362 0.54117 0.63745
 N668 N 0.05937 0.59879 0.68095
 N669 N 0.06927 0.59854 0.69105
 C670 C 0.06672 0.60924 0.70041
 C671 C 0.05466 0.61664 0.69600
 C672 C 0.05032 0.60974 0.68358
 H673 H 0.07317 0.61150 0.70978
 H674 H 0.04103 0.61228 0.67715
 H675 H 0.06834 0.57303 0.68150
 H676 H 0.07998 0.58464 0.67012
 N677 N 0.65083 0.55942 0.06930
 N678 N 0.65101 0.56936 0.05932
 C679 C 0.64026 0.56683 0.05000
 C680 C 0.63293 0.55469 0.05443
 C681 C 0.63992 0.55032 0.06676
 H682 H 0.63795 0.57331 0.04068
 H683 H 0.63751 0.54099 0.07319
 Cu684 Cu 0.66560 0.58428 0.05931
 Cu685 Cu 0.66527 0.55846 0.08436
 Cu686 Cu 0.69143 0.58493 0.08438
 N687 N 0.68011 0.59927 0.05953
 N688 N 0.69033 0.59929 0.06923
 C689 C 0.69933 0.61026 0.06661
 C690 C 0.69448 0.61757 0.05465
 C691 C 0.68222 0.61032 0.05047
 H692 H 0.70869 0.61275 0.07298
 H693 H 0.67557 0.61271 0.04128
 N694 N 0.69067 0.56945 0.09877
 N695 N 0.68079 0.55931 0.09866
 C696 C 0.68348 0.55003 0.10938
 C697 C 0.69561 0.55454 0.11664
 C698 C 0.69984 0.56693 0.10964
 H699 H 0.67709 0.54066 0.11175
 H700 H 0.70913 0.57341 0.11208
 H701 H 0.66984 0.58016 0.08477
 H702 H 0.68139 0.56871 0.07312
 N703 N 0.06972 0.69020 0.59956
 N704 N 0.05972 0.68027 0.59917
 C705 C 0.05021 0.68278 0.60973
 C706 C 0.05450 0.69491 0.61718
 C707 C 0.06697 0.69930 0.61043
 H708 H 0.04087 0.67627 0.61187
 H709 H 0.07337 0.70862 0.61299
 Cu710 Cu 0.06004 0.66535 0.58460
 Cu711 Cu 0.08517 0.69106 0.58552
 Cu712 Cu 0.08557 0.66456 0.55932
 N713 N 0.06035 0.65042 0.57004
 N714 N 0.07028 0.65031 0.56005
 C715 C 0.06779 0.63934 0.55100
 C716 C 0.05566 0.63211 0.55558
 C717 C 0.05124 0.63944 0.56773
 H718 H 0.07435 0.63680 0.54179
 H719 H 0.04192 0.63713 0.57419
 N720 N 0.10007 0.67991 0.56045
 N721 N 0.09985 0.69005 0.57035
 C722 C 0.11079 0.69917 0.56796
 C723 C 0.11828 0.69455 0.55602
 C724 C 0.11120 0.68228 0.55157
 H725 H 0.11314 0.70849 0.57445
 H726 H 0.11376 0.67576 0.54233
 H727 H 0.07422 0.68089 0.56914
 H728 H 0.08555 0.66939 0.58093
 N729 N 0.56886 1.05939 0.65090
 N730 N 0.55860 1.06901 0.65156
 C731 C 0.54918 1.06653 0.64089
 C732 C 0.55380 1.05473 0.63301
 C733 C 0.56643 1.05059 0.63971
 H734 H 0.53969 1.07290 0.63904
 H735 H 0.57315 1.04153 0.63706
 Cu736 Cu 0.55851 1.08356 0.66659
 Cu737 Cu 0.58401 1.05820 0.66525
 Cu738 Cu 0.58358 1.08372 0.69237
 N739 N 0.55858 1.09817 0.68157
 N740 N 0.56823 1.09787 0.69182
 C741 C 0.56558 1.10853 0.70118
 C742 C 0.55363 1.11611 0.69656
 C743 C 0.54955 1.10920 0.68397
 H744 H 0.57203 1.11061 0.71057
 H745 H 0.54050 1.11174 0.67722
 N746 N 0.59823 1.06854 0.69106
 N747 N 0.59834 1.05877 0.68080
 C748 C 0.60923 1.04961 0.68318
 C749 C 0.61638 1.05384 0.69548
 C750 C 0.60913 1.06591 0.70015
 H751 H 0.61179 1.04050 0.67646
 H752 H 0.61142 1.07210 0.70969
 H753 H 0.57259 1.06760 0.68174
 H754 H 0.58400 1.07969 0.67059
 N755 N 0.44045 0.34933 0.93077
 N756 N 0.42919 0.35074 0.93910
 C757 C 0.43135 0.36189 0.94806
 C758 C 0.44477 0.36777 0.94527
 C759 C 0.45019 0.35939 0.93420
 H760 H 0.42373 0.36528 0.95610
 H761 H 0.46031 0.36065 0.92873
 Cu762 Cu 0.41282 0.33782 0.93759
 Cu763 Cu 0.44144 0.33502 0.91564
 Cu764 Cu 0.41452 0.30968 0.91471
 N765 N 0.39927 0.32192 0.93851
 N766 N 0.40007 0.31097 0.92966
 C767 C 0.38971 0.30147 0.93291
 C768 C 0.38193 0.30671 0.94441
 C769 C 0.38830 0.31977 0.94766
 H770 H 0.38794 0.29149 0.92724
 H771 H 0.38537 0.32702 0.95623
 N772 N 0.43016 0.31022 0.90055
 N773 N 0.44057 0.31978 0.90106
 C774 C 0.44982 0.31718 0.89029
 C775 C 0.44502 0.30543 0.88258
 C776 C 0.43248 0.30132 0.88940
 H777 H 0.45930 0.32348 0.88813
 H778 H 0.42568 0.29236 0.88659
 H779 H 0.41966 0.33122 0.91322
 H780 H 0.42925 0.32048 0.92726
 N781 N 0.94004 0.42999 0.34959
 N782 N 0.93058 0.44040 0.34897
 C783 C 0.93352 0.45006 0.35933
 C784 C 0.94541 0.44537 0.36700
 C785 C 0.94916 0.43252 0.36047
 H786 H 0.92733 0.45967 0.36120
 H787 H 0.95814 0.42569 0.36306
 Cu788 Cu 0.91530 0.44023 0.33471
 Cu789 Cu 0.94058 0.41452 0.33560
 Cu790 Cu 0.91437 0.41455 0.30930
 N791 N 0.90066 0.44010 0.31979
 N792 N 0.90047 0.43008 0.30986
 C793 C 0.88958 0.43263 0.30076
 C794 C 0.88249 0.44489 0.30521
 C795 C 0.88981 0.44932 0.31737
 H796 H 0.88697 0.42597 0.29163
 H797 H 0.88755 0.45870 0.32381
 N798 N 0.92937 0.39975 0.31053
 N799 N 0.93942 0.39982 0.32048
 C800 C 0.94851 0.38888 0.31802
 C801 C 0.94393 0.38152 0.30598
 C802 C 0.93173 0.38866 0.30155
 H803 H 0.95783 0.38648 0.32445
 H804 H 0.92532 0.38624 0.29220
 H805 H 0.93069 0.42581 0.31928
 H806 H 0.91893 0.41457 0.33095
 N807 N 0.30957 0.93078 0.40109
 N808 N 0.31993 0.94032 0.40067
 C809 C 0.31759 0.94929 0.38959
 C810 C 0.30504 0.94518 0.38276
 C811 C 0.30028 0.93337 0.39038
 H812 H 0.32438 0.95827 0.38684
 H813 H 0.29083 0.92701 0.38821
 Cu814 Cu 0.33519 0.94026 0.41494
 Cu815 Cu 0.30885 0.91563 0.41536
 Cu816 Cu 0.33639 0.91453 0.44022
 N817 N 0.35025 0.93981 0.42941
 N818 N 0.35087 0.92949 0.43896
 C819 C 0.36208 0.93178 0.44773
 C820 C 0.36887 0.94439 0.44363
 C821 C 0.36100 0.94914 0.43189
 H822 H 0.36470 0.92500 0.45674
 H823 H 0.36288 0.95868 0.42559
 N824 N 0.32068 0.90043 0.43982
 N825 N 0.31001 0.90107 0.43057
 C826 C 0.30058 0.89056 0.43354
 C827 C 0.30555 0.88290 0.44522
 C828 C 0.31835 0.88943 0.44889
 H829 H 0.29080 0.88861 0.42764
 H830 H 0.32523 0.88665 0.45778
 H831 H 0.32007 0.92648 0.43122
 H832 H 0.33068 0.91481 0.41886
 O833 O 0.21124 0.51699 0.74830
 O834 O 0.21583 0.51537 0.77362
 O835 O 0.24834 0.53893 0.73286
 O836 O 0.27219 0.53575 0.73335
 O837 O 0.23272 0.50143 0.71115
 O838 O 0.23485 0.47613 0.71578
 O839 O 0.28665 0.49948 0.76986
 O840 O 0.28214 0.52467 0.76745
 O841 O 0.25132 0.48039 0.78656
 O842 O 0.22488 0.48139 0.78099
 O843 O 0.27019 0.46368 0.75095
 O844 O 0.26898 0.46918 0.72460
 O845 O 0.28800 0.48317 0.75178
 O846 O 0.28369 0.48525 0.72543
 O847 O 0.25217 0.46230 0.76726
 O848 O 0.22588 0.46638 0.76523
 O849 O 0.26760 0.49849 0.78775
 O850 O 0.26467 0.52464 0.78371
 O851 O 0.21242 0.50044 0.73037
 O852 O 0.21845 0.47513 0.73149
 O853 O 0.24893 0.51963 0.71226
 O854 O 0.27471 0.51769 0.71818
 O855 O 0.23027 0.53764 0.74918
 O856 O 0.23136 0.53185 0.77451
 Zr857 Zr 0.23180 0.51673 0.75761
 O858 O 0.24443 0.50413 0.77142
 Zr859 Zr 0.25762 0.51836 0.73310
 O860 O 0.27153 0.50600 0.74593
 Zr861 Zr 0.23338 0.49219 0.73173
 O862 O 0.24623 0.47854 0.74431
 Zr863 Zr 0.26617 0.50856 0.76765
 O864 O 0.25350 0.52245 0.75497
 Zr865 Zr 0.24198 0.48237 0.76610
 O866 O 0.22787 0.49485 0.75347
 Zr867 Zr 0.26789 0.48414 0.74168
 O868 O 0.25512 0.49658 0.72764
 O869 O 0.23605 0.51388 0.73597
 O870 O 0.26363 0.48681 0.76338
 C871 C 0.20578 0.51014 0.73761
 C872 C 0.23756 0.54432 0.73956
 C873 C 0.23931 0.51224 0.70567
 C874 C 0.29316 0.48954 0.76287
 C875 C 0.26130 0.48741 0.79298
 C876 C 0.26326 0.45717 0.76092
 H877 H 0.24169 0.50600 0.78148
 H878 H 0.24441 0.46844 0.74164
 H879 H 0.22987 0.51998 0.72989
 H880 H 0.28160 0.50878 0.74419
 H881 H 0.27776 0.53325 0.76299
 H882 H 0.28060 0.53277 0.73907
 H883 H 0.22761 0.46047 0.75659
 H884 H 0.21329 0.47552 0.74076
 H885 H 0.25626 0.52252 0.78979
 H886 H 0.24062 0.53702 0.77419
 H887 H 0.26108 0.46222 0.72583
 H888 H 0.24456 0.47696 0.71158
 H889 H 0.21179 0.50557 0.77298
 H890 H 0.22620 0.48922 0.78803
 H891 H 0.27343 0.50888 0.71237
 H892 H 0.28963 0.49385 0.72728
 O893 O 0.24879 0.03857 0.23256
 O894 O 0.27404 0.03380 0.23392
 O895 O 0.23259 0.00128 0.21147
 O896 O 0.23285 -0.02254 0.21495
 O897 O 0.21183 0.01787 0.24892
 O898 O 0.21664 0.01588 0.27416
 O899 O 0.27002 -0.03682 0.25088
 O900 O 0.26718 -0.03269 0.22572
 O901 O 0.28716 -0.00120 0.26920
 O902 O 0.28186 0.02512 0.26814
 O903 O 0.25159 -0.01968 0.28668
 O904 O 0.22536 -0.01853 0.28155
 O905 O 0.25217 -0.03785 0.26741
 O906 O 0.22572 -0.03330 0.26553
 O907 O 0.26812 -0.00181 0.28759
 O908 O 0.26615 0.02457 0.28315
 O909 O 0.28797 -0.01782 0.25137
 O910 O 0.28348 -0.01522 0.22518
 O911 O 0.23120 0.03785 0.24945
 O912 O 0.23266 0.03206 0.27489
 O913 O 0.21228 0.00115 0.23113
 O914 O 0.21806 -0.02472 0.23333
 O915 O 0.24916 0.01919 0.21227
 O916 O 0.27457 0.01792 0.21772
 Zr917 Zr 0.25789 0.01792 0.23305
 O918 O 0.27175 0.00536 0.24565
 Zr919 Zr 0.23308 -0.00772 0.23214
 O920 O 0.24603 -0.02159 0.24445
 Zr921 Zr 0.23243 0.01696 0.25796
 O922 O 0.24503 0.00412 0.27159
 Zr923 Zr 0.26774 -0.01644 0.24156
 O924 O 0.25492 -0.00386 0.22769
 Zr925 Zr 0.26676 0.00817 0.26743
 O926 O 0.25414 0.02224 0.25491
 Zr927 Zr 0.24215 -0.01764 0.26631
 O928 O 0.22803 -0.00484 0.25396
 O929 O 0.23628 0.01391 0.23627
 O930 O 0.26382 -0.01356 0.26331
 C931 C 0.23830 0.04425 0.23950
 C932 C 0.23935 0.01191 0.20583
 C933 C 0.20603 0.01112 0.23837
 C934 C 0.26313 -0.04318 0.26097
 C935 C 0.29341 -0.01134 0.26226
 C936 C 0.26171 -0.01275 0.29297
 H937 H 0.28179 0.00800 0.24360
 H938 H 0.24252 0.00610 0.28169
 H939 H 0.23018 0.02007 0.23017
 H940 H 0.24417 -0.03170 0.24183
 H941 H 0.26255 -0.02843 0.21717
 H942 H 0.23861 -0.03093 0.21791
 H943 H 0.25775 0.02281 0.28936
 H944 H 0.24189 0.03726 0.27420
 H945 H 0.28977 -0.00692 0.22720
 H946 H 0.27401 0.00862 0.21263
 H947 H 0.22648 -0.01026 0.28811
 H948 H 0.21232 0.00620 0.27349
 H949 H 0.27358 0.03803 0.24365
 H950 H 0.28849 0.02391 0.25996
 H951 H 0.21238 -0.02321 0.24216
 H952 H 0.22754 -0.03952 0.25713
 O953 O 0.49874 0.76900 0.28782
 O954 O 0.52399 0.76793 0.28283
 O955 O 0.48170 0.78879 0.25038
 O956 O 0.48215 0.78487 0.22655
 O957 O 0.46182 0.75144 0.26769
 O958 O 0.46721 0.72620 0.26637
 O959 O 0.51925 0.74956 0.21247
 O960 O 0.51634 0.77465 0.21637
 O961 O 0.53764 0.73233 0.24850
 O962 O 0.53239 0.73376 0.27477
 O963 O 0.50180 0.71337 0.23093
 O964 O 0.47564 0.71819 0.23208
 O965 O 0.50203 0.73231 0.21220
 O966 O 0.47560 0.73382 0.21697
 O967 O 0.51903 0.71353 0.24814
 O968 O 0.51700 0.71837 0.27458
 O969 O 0.53753 0.74931 0.23105
 O970 O 0.53287 0.77565 0.23354
 O971 O 0.48150 0.75172 0.28763
 O972 O 0.48329 0.72627 0.28242
 O973 O 0.46195 0.76892 0.25070
 O974 O 0.46745 0.76618 0.22492
 O975 O 0.49874 0.78892 0.26783
 O976 O 0.52413 0.78380 0.26669
 Zr977 Zr 0.50769 0.76819 0.26708
 O978 O 0.52167 0.75560 0.25461
 Zr979 Zr 0.48264 0.76799 0.24171
 O980 O 0.49561 0.75557 0.22797
 Zr981 Zr 0.48266 0.74278 0.26691
 O982 O 0.49545 0.72908 0.25428
 Zr983 Zr 0.51730 0.75905 0.23279
 O984 O 0.50441 0.77297 0.24524
 Zr985 Zr 0.51718 0.73378 0.25792
 O986 O 0.50440 0.74636 0.27185
 Zr987 Zr 0.49219 0.73373 0.23246
 O988 O 0.47798 0.74616 0.24510
 O989 O 0.48610 0.76447 0.26338
 O990 O 0.51385 0.73729 0.23617
 C991 C 0.48848 0.76194 0.29377
 C992 C 0.48859 0.79490 0.26066
 C993 C 0.45583 0.76176 0.26078
 C994 C 0.51260 0.73907 0.20649
 C995 C 0.54344 0.73890 0.23786
 C996 C 0.51236 0.70761 0.23763
 H997 H 0.53171 0.75791 0.25706
 H998 H 0.49317 0.71898 0.25651
 H999 H 0.47995 0.77059 0.26947
 H1000 H 0.49356 0.75792 0.21784
 H1001 H 0.51166 0.78322 0.22057
 H1002 H 0.48772 0.78171 0.21810
 H1003 H 0.50888 0.71178 0.27285
 H1004 H 0.49271 0.72704 0.28724
 H1005 H 0.53963 0.77358 0.24144
 H1006 H 0.52366 0.78842 0.25715
 H1007 H 0.47681 0.71199 0.24060
 H1008 H 0.46269 0.72662 0.25678
 H1009 H 0.52366 0.75832 0.28731
 H1010 H 0.53876 0.74213 0.27342
 H1011 H 0.46202 0.75722 0.22659
 H1012 H 0.47723 0.74206 0.21050
 O1013 O 0.00157 0.71130 0.73311
 O1014 O -0.02371 0.71587 0.73482
 O1015 O 0.01697 0.74850 0.71130
 O1016 O 0.01641 0.77238 0.71451
 O1017 O 0.03875 0.73289 0.74864
 O1018 O 0.03417 0.73488 0.77393
 O1019 O -0.02004 0.78670 0.75107
 O1020 O -0.01766 0.78233 0.72585
 O1021 O -0.03658 0.75124 0.76997
 O1022 O -0.03094 0.72477 0.76884
 O1023 O -0.00101 0.77024 0.78656
 O1024 O 0.02534 0.76905 0.78101
 O1025 O -0.00188 0.78810 0.76725
 O1026 O 0.02444 0.78384 0.76501
 O1027 O -0.01724 0.75211 0.78798
 O1028 O -0.01519 0.72583 0.78383
 O1029 O -0.03786 0.76755 0.75193
 O1030 O -0.03383 0.76476 0.72577
 O1031 O 0.01955 0.71247 0.74956
 O1032 O 0.01850 0.71846 0.77491
 O1033 O 0.03757 0.74917 0.73052
 O1034 O 0.03160 0.77495 0.73255
 O1035 O 0.00067 0.73038 0.71258
 O1036 O -0.02463 0.73146 0.71841
 Zr1037 Zr -0.00772 0.73188 0.73348
 O1038 O -0.02150 0.74446 0.74617
 Zr1039 Zr 0.01674 0.75778 0.73187
 O1040 O 0.00392 0.77166 0.74430
 Zr1041 Zr 0.01820 0.73345 0.75791
 O1042 O 0.00566 0.74627 0.77165
 Zr1043 Zr -0.01778 0.76625 0.74183
 O1044 O -0.00512 0.75362 0.72784
 Zr1045 Zr -0.01612 0.74196 0.76789
 O1046 O -0.00351 0.72789 0.75532
 Zr1047 Zr 0.00824 0.76798 0.76612
 O1048 O 0.02225 0.75524 0.75360
 O1049 O 0.01391 0.73617 0.73627
 O1050 O -0.01345 0.76365 0.76352
 C1051 C 0.01227 0.70584 0.73988
 C1052 C 0.01028 0.73769 0.70590
 C1053 C 0.04420 0.73955 0.73786
 C1054 C -0.01303 0.79322 0.76100
 C1055 C -0.04305 0.76121 0.76300
 C1056 C -0.01094 0.76326 0.79308
 H1057 H -0.03156 0.74170 0.74432
 H1058 H 0.00835 0.74443 0.78172
 H1059 H 0.01999 0.73001 0.73015
 H1060 H 0.00563 0.78176 0.74157
 H1061 H -0.01318 0.77802 0.71723
 H1062 H 0.01072 0.78080 0.71754
 H1063 H -0.00651 0.72755 0.78967
 H1064 H 0.00925 0.71327 0.77453
 H1065 H -0.03988 0.75631 0.72785
 H1066 H -0.02430 0.74073 0.71325
 H1067 H 0.02408 0.76118 0.78800
 H1068 H 0.03831 0.74463 0.77317
 H1069 H -0.02305 0.71179 0.74459
 H1070 H -0.03802 0.72611 0.76107
 H1071 H 0.03742 0.77368 0.74134
 H1072 H 0.02255 0.78982 0.75647
 O1073 O 0.03831 0.01703 0.00184
 O1074 O 0.03375 0.01563 -0.02342
 O1075 O 0.00094 0.03790 0.01788
 O1076 O -0.02286 0.03448 0.01705
 O1077 O 0.01716 0.00063 0.03885
 O1078 O 0.01567 -0.02458 0.03399
 O1079 O -0.03677 -0.00174 -0.01979
 O1080 O -0.03267 0.02343 -0.01735
 O1081 O -0.00124 -0.02035 -0.03657
 O1082 O 0.02514 -0.01881 -0.03128
 O1083 O -0.01966 -0.03739 -0.00112
 O1084 O -0.01874 -0.03212 0.02510
 O1085 O -0.03785 -0.01826 -0.00192
 O1086 O -0.03349 -0.01610 0.02456
 O1087 O -0.00161 -0.03845 -0.01743
 O1088 O 0.02472 -0.03366 -0.01536
 O1089 O -0.01772 -0.00244 -0.03774
 O1090 O -0.01511 0.02383 -0.03347
 O1091 O 0.03747 0.00029 0.01957
 O1092 O 0.03187 -0.02519 0.01810
 O1093 O 0.00054 0.01845 0.03800
 O1094 O -0.02524 0.01613 0.03194
 O1095 O 0.01878 0.03735 0.00125
 O1096 O 0.01778 0.03164 -0.02422
 Zr1097 Zr 0.01773 0.01644 -0.00742
 O1098 O 0.00538 0.00361 -0.02135
 Zr1099 Zr -0.00808 0.01728 0.01714
 O1100 O -0.02177 0.00483 0.00413
 Zr1101 Zr 0.01667 -0.00839 0.01817
 O1102 O 0.00400 -0.02218 0.00555
 Zr1103 Zr -0.01643 0.00762 -0.01757
 O1104 O -0.00406 0.02167 -0.00469
 Zr1105 Zr 0.00819 -0.01815 -0.01620
 O1106 O 0.02207 -0.00541 -0.00353
 Zr1107 Zr -0.01776 -0.01697 0.00823
 O1108 O -0.00514 -0.00447 0.02238
 O1109 O 0.01357 0.01327 0.01419
 O1110 O -0.01353 -0.01410 -0.01345
 C1111 C 0.04392 0.01018 0.01242
 C1112 C 0.01151 0.04366 0.01116
 C1113 C 0.01033 0.01121 0.04447
 C1114 C -0.04312 -0.01184 -0.01291
 C1115 C -0.01133 -0.01349 -0.04295
 C1116 C -0.01262 -0.04378 -0.01109
 H1117 H 0.00807 0.00559 -0.03139
 H1118 H 0.00600 -0.03225 0.00814
 H1119 H 0.01965 0.01941 0.02035
 H1120 H -0.03188 0.00743 0.00590
 H1121 H -0.02850 0.03204 -0.01272
 H1122 H -0.03118 0.03145 0.01122
 H1123 H 0.02295 -0.03984 -0.00693
 H1124 H 0.03716 -0.02446 0.00893
 H1125 H -0.00686 0.02171 -0.03976
 H1126 H 0.00846 0.03668 -0.02376
 H1127 H -0.01050 -0.03870 0.02405
 H1128 H 0.00591 -0.02412 0.03811
 H1129 H 0.03776 0.00580 -0.02313
 H1130 H 0.02371 -0.01089 -0.03818
 H1131 H -0.02375 0.00738 0.03776
 H1132 H -0.03980 -0.00782 0.02256
 O1133 O -0.01900 0.46196 0.49838
 O1134 O -0.01782 0.46712 0.52373
 O1135 O -0.03817 0.49968 0.48121
 O1136 O -0.03386 0.52352 0.48178
 O1137 O -0.00115 0.48167 0.46143
 O1138 O 0.02417 0.48278 0.46695
 O1139 O 0.00149 0.53729 0.51858
 O1140 O -0.02364 0.53366 0.51564
 O1141 O 0.01801 0.50092 0.53740
 O1142 O 0.01612 0.47456 0.53211
 O1143 O 0.03743 0.51798 0.50155
 O1144 O 0.03261 0.51660 0.47520
 O1145 O 0.01904 0.53689 0.50169
 O1146 O 0.01744 0.53224 0.47525
 O1147 O 0.03687 0.50096 0.51895
 O1148 O 0.03178 0.47460 0.51697
 O1149 O 0.00143 0.51876 0.53704
 O1150 O -0.02483 0.51677 0.53240
 O1151 O -0.00170 0.46189 0.48116
 O1152 O 0.02373 0.46662 0.48298
 O1153 O -0.01836 0.49895 0.46160
 O1154 O -0.01524 0.52465 0.46684
 O1155 O -0.03859 0.48231 0.49834
 O1156 O -0.03354 0.48338 0.52370
 Zr1157 Zr -0.01789 0.48275 0.50733
 O1158 O -0.00519 0.49516 0.52131
 Zr1159 Zr -0.01727 0.50806 0.48221
 O1160 O -0.00461 0.52165 0.49510
 Zr1161 Zr 0.00753 0.48244 0.48232
 O1162 O 0.02139 0.49485 0.49518
 Zr1163 Zr -0.00827 0.51704 0.51681
 O1164 O -0.02234 0.50468 0.50398
 Zr1165 Zr 0.01655 0.49143 0.51693
 O1166 O 0.00385 0.47764 0.50409
 Zr1167 Zr 0.01713 0.51671 0.49180
 O1168 O 0.00449 0.50429 0.47758
 O1169 O -0.01407 0.48633 0.48573
 O1170 O 0.01341 0.51322 0.51347
 C1171 C -0.01201 0.45591 0.48811
 C1172 C -0.04443 0.48952 0.48814
 C1173 C -0.01144 0.48870 0.45550
 C1174 C 0.01227 0.54290 0.51209
 C1175 C 0.01164 0.51176 0.54307
 C1176 C 0.04298 0.51134 0.51227
 H1177 H -0.00758 0.49282 0.53135
 H1178 H 0.03146 0.49243 0.49296
 H1179 H -0.02028 0.48030 0.47960
 H1180 H -0.00676 0.53182 0.49299
 H1181 H -0.03224 0.52952 0.51098
 H1182 H -0.03042 0.53208 0.48702
 H1183 H 0.03836 0.47613 0.50880
 H1184 H 0.02302 0.46199 0.49250
 H1185 H -0.02307 0.50871 0.53904
 H1186 H -0.03790 0.49305 0.52332
 H1187 H 0.03889 0.50818 0.47667
 H1188 H 0.02375 0.49230 0.46227
 H1189 H -0.00836 0.46233 0.52328
 H1190 H 0.00788 0.47620 0.53858
 H1191 H -0.00619 0.52292 0.46159
 H1192 H 0.00923 0.53877 0.47676
 O1193 O 0.53781 0.01931 0.50121
 O1194 O 0.53317 0.01775 0.47589
 O1195 O 0.50031 0.03895 0.51772
 O1196 O 0.47646 0.03485 0.51694
 O1197 O 0.51773 0.00206 0.53815
 O1198 O 0.51653 -0.02326 0.53313
 O1199 O 0.46323 -0.00137 0.47991
 O1200 O 0.46653 0.02386 0.48283
 O1201 O 0.49940 -0.01828 0.46237
 O1202 O 0.52553 -0.01668 0.46784
 O1203 O 0.48159 -0.03695 0.49825
 O1204 O 0.48236 -0.03178 0.52431
 O1205 O 0.46270 -0.01813 0.49759
 O1206 O 0.46730 -0.01608 0.52414
 O1207 O 0.49888 -0.03678 0.48110
 O1208 O 0.52534 -0.03178 0.48353
 O1209 O 0.48216 -0.00109 0.46185
 O1210 O 0.48389 0.02510 0.46655
 O1211 O 0.53786 0.00202 0.51842
 O1212 O 0.53266 -0.02346 0.51717
 O1213 O 0.50058 0.01940 0.53759
 O1214 O 0.47487 0.01633 0.53194
 O1215 O 0.51786 0.03895 0.50078
 O1216 O 0.51690 0.03351 0.47539
 Zr1217 Zr 0.51728 0.01813 0.49203
 O1218 O 0.50512 0.00522 0.47808
 Zr1219 Zr 0.49173 0.01808 0.51685
 O1220 O 0.47824 0.00535 0.50388
 Zr1221 Zr 0.51714 -0.00696 0.51740
 O1222 O 0.50473 -0.02093 0.50466
 Zr1223 Zr 0.48326 0.00859 0.48217
 O1224 O 0.49540 0.02281 0.49504
 Zr1225 Zr 0.50856 -0.01650 0.48291
 O1226 O 0.52223 -0.00362 0.49565
 Zr1227 Zr 0.48286 -0.01641 0.50762
 O1228 O 0.49526 -0.00368 0.52180
 O1229 O 0.51344 0.01464 0.51364
 O1230 O 0.48677 -0.01311 0.48593
 C1231 C 0.54383 0.01233 0.51146
 C1232 C 0.51062 0.04501 0.51085
 C1233 C 0.51069 0.01246 0.54389
 C1234 C 0.45721 -0.01173 0.48669
 C1235 C 0.48903 -0.01163 0.45622
 C1236 C 0.48839 -0.04273 0.48774
 H1237 H 0.50767 0.00743 0.46804
 H1238 H 0.50702 -0.03099 0.50708
 H1239 H 0.51945 0.02088 0.51977
 H1240 H 0.46808 0.00764 0.50577
 H1241 H 0.47047 0.03252 0.48756
 H1242 H 0.46800 0.03146 0.51152
 H1243 H 0.52335 -0.03851 0.49148
 H1244 H 0.53752 -0.02290 0.50775
 H1245 H 0.49226 0.02346 0.46027
 H1246 H 0.50745 0.03829 0.47592
 H1247 H 0.49106 -0.03776 0.52347
 H1248 H 0.50689 -0.02281 0.53754
 H1249 H 0.53779 0.00821 0.47644
 H1250 H 0.52429 -0.00832 0.46145
 H1251 H 0.47660 0.00747 0.53752
 H1252 H 0.46067 -0.00804 0.52221
 O1253 O 0.53753 0.51914 0.00079
 O1254 O 0.53245 0.51801 -0.02443
 O1255 O 0.50029 0.53824 0.01841
 O1256 O 0.47653 0.53413 0.01822
 O1257 O 0.51843 0.50112 0.03762
 O1258 O 0.51710 0.47590 0.03232
 O1259 O 0.46262 0.49859 -0.01957
 O1260 O 0.46589 0.52372 -0.01624
 O1261 O 0.49846 0.48197 -0.03793
 O1262 O 0.52454 0.48340 -0.03309
 O1263 O 0.48138 0.46270 -0.00193
 O1264 O 0.48235 0.46736 0.02393
 O1265 O 0.46244 0.48146 -0.00223
 O1266 O 0.46759 0.48338 0.02452
 O1267 O 0.49827 0.46315 -0.01946
 O1268 O 0.52487 0.46828 -0.01740
 O1269 O 0.48115 0.49909 -0.03788
 O1270 O 0.48310 0.52536 -0.03271
 O1271 O 0.53798 0.50147 0.01760
 O1272 O 0.53277 0.47592 0.01586
 O1273 O 0.50096 0.51812 0.03801
 O1274 O 0.47510 0.51526 0.03258
 O1275 O 0.51743 0.53868 0.00106
 O1276 O 0.51601 0.53359 -0.02445
 Zr1277 Zr 0.51682 0.51798 -0.00803
 O1278 O 0.50444 0.50525 -0.02197
 Zr1279 Zr 0.49178 0.51737 0.01733
 O1280 O 0.47804 0.50493 0.00432
 Zr1281 Zr 0.51727 0.49242 0.01681
 O1282 O 0.50456 0.47866 0.00416
 Zr1283 Zr 0.48266 0.50852 -0.01743
 O1284 O 0.49499 0.52252 -0.00447
 Zr1285 Zr 0.50799 0.48345 -0.01757
 O1286 O 0.52191 0.49618 -0.00495
 Zr1287 Zr 0.48273 0.48312 0.00761
 O1288 O 0.49547 0.49554 0.02177
 O1289 O 0.51343 0.51408 0.01358
 O1290 O 0.48625 0.48677 -0.01408
 C1291 C 0.54378 0.51198 0.01078
 C1292 C 0.51039 0.54450 0.01140
 C1293 C 0.51136 0.51119 0.04385
 C1294 C 0.45675 0.48805 -0.01293
 C1295 C 0.48794 0.48864 -0.04378
 C1296 C 0.48796 0.45707 -0.01264
 H1297 H 0.50680 0.50762 -0.03202
 H1298 H 0.50690 0.46857 0.00638
 H1299 H 0.51952 0.52024 0.01971
 H1300 H 0.46790 0.50717 0.00643
 H1301 H 0.46988 0.53229 -0.01139
 H1302 H 0.46811 0.53103 0.01258
 H1303 H 0.52292 0.46128 -0.00968
 H1304 H 0.53760 0.47685 0.00646
 H1305 H 0.49112 0.52360 -0.03941
 H1306 H 0.50659 0.53839 -0.02359
 H1307 H 0.49139 0.46186 0.02329
 H1308 H 0.50759 0.47629 0.03701
 H1309 H 0.53705 0.50844 -0.02420
 H1310 H 0.52342 0.49209 -0.03904
 H1311 H 0.47701 0.50639 0.03809
 H1312 H 0.46054 0.49103 0.02247
 O1313 O 0.75167 0.26874 0.46230
 O1314 O 0.72641 0.26796 0.46774
 O1315 O 0.76981 0.28755 0.49964
 O1316 O 0.76951 0.28331 0.52346
 O1317 O 0.78841 0.25025 0.48121
 O1318 O 0.78268 0.22500 0.48243
 O1319 O 0.73224 0.24835 0.53774
 O1320 O 0.73544 0.27343 0.53420
 O1321 O 0.71270 0.23214 0.50153
 O1322 O 0.71743 0.23372 0.47539
 O1323 O 0.74871 0.21212 0.51802
 O1324 O 0.77490 0.21669 0.51656
 O1325 O 0.74881 0.23051 0.53707
 O1326 O 0.77529 0.23197 0.53210
 O1327 O 0.73100 0.21295 0.50133
 O1328 O 0.73269 0.21825 0.47484
 O1329 O 0.71350 0.24868 0.51943
 O1330 O 0.71858 0.27496 0.51745
 O1331 O 0.76842 0.25101 0.46185
 O1332 O 0.76631 0.22556 0.46664
 O1333 O 0.78910 0.26716 0.49880
 O1334 O 0.78395 0.26438 0.52456
 O1335 O 0.75229 0.28829 0.48267
 O1336 O 0.72686 0.28357 0.48415
 Zr1337 Zr 0.74300 0.26770 0.48318
 O1338 O 0.72904 0.25514 0.49570
 Zr1339 Zr 0.76852 0.26665 0.50806
 O1340 O 0.75560 0.25419 0.52182
 Zr1341 Zr 0.76751 0.24183 0.48241
 O1342 O 0.75472 0.22815 0.49500
 Zr1343 Zr 0.73388 0.25812 0.51752
 O1344 O 0.74677 0.27204 0.50506
 Zr1345 Zr 0.73304 0.23331 0.49186
 O1346 O 0.74577 0.24589 0.47793
 Zr1347 Zr 0.75852 0.23238 0.51681
 O1348 O 0.77269 0.24479 0.50417
 O1349 O 0.76457 0.26352 0.48641
 O1350 O 0.73685 0.23637 0.51361
 C1351 C 0.76165 0.26152 0.45605
 C1352 C 0.76275 0.29396 0.48966
 C1353 C 0.79479 0.26021 0.48832
 C1354 C 0.73862 0.23744 0.54323
 C1355 C 0.70724 0.23858 0.51243
 C1356 C 0.73786 0.20669 0.51150
 H1357 H 0.71900 0.25767 0.49349
 H1358 H 0.75678 0.21805 0.49252
 H1359 H 0.77072 0.26963 0.48032
 H1360 H 0.75787 0.25631 0.53195
 H1361 H 0.74021 0.28198 0.53007
 H1362 H 0.76415 0.28006 0.53201
 H1363 H 0.74055 0.21133 0.47644
 H1364 H 0.75682 0.22655 0.46199
 H1365 H 0.71175 0.27325 0.50952
 H1366 H 0.72756 0.28800 0.49378
 H1367 H 0.77354 0.21071 0.50790
 H1368 H 0.78760 0.22541 0.49183
 H1369 H 0.72660 0.25848 0.46295
 H1370 H 0.71155 0.24244 0.47673
 H1371 H 0.78904 0.25523 0.52278
 H1372 H 0.77374 0.23997 0.53889
 O1373 O 0.76947 0.78800 -0.00053
 O1374 O 0.76862 0.78248 0.02464
 O1375 O 0.78774 0.75084 -0.01914
 O1376 O 0.78334 0.72709 -0.01928
 O1377 O 0.75055 0.76979 -0.03741
 O1378 O 0.72546 0.76868 -0.03174
 O1379 O 0.74841 0.71273 0.01839
 O1380 O 0.77343 0.71600 0.01512
 O1381 O 0.73253 0.74883 0.03810
 O1382 O 0.73406 0.77482 0.03369
 O1383 O 0.71242 0.73249 0.00200
 O1384 O 0.71673 0.73405 -0.02406
 O1385 O 0.73083 0.71330 0.00154
 O1386 O 0.73225 0.71883 -0.02499
 O1387 O 0.71335 0.74908 0.01985
 O1388 O 0.71884 0.77572 0.01815
 O1389 O 0.74895 0.73087 0.03719
 O1390 O 0.77530 0.73282 0.03196
 O1391 O 0.75151 0.78895 -0.01701
 O1392 O 0.72598 0.78409 -0.01503
 O1393 O 0.76725 0.75205 -0.03841
 O1394 O 0.76431 0.72614 -0.03344
 O1395 O 0.78866 0.76764 -0.00143
 O1396 O 0.78398 0.76578 0.02409
 Zr1397 Zr 0.76814 0.76713 0.00794
 O1398 O 0.75549 0.75462 0.02181
 Zr1399 Zr 0.76680 0.74254 -0.01790
 O1400 O 0.75438 0.72871 -0.00501
 Zr1401 Zr 0.74222 0.76836 -0.01650
 O1402 O 0.72851 0.75561 -0.00389
 Zr1403 Zr 0.75835 0.73285 0.01678
 O1404 O 0.77231 0.74527 0.00389
 Zr1405 Zr 0.73370 0.75857 0.01783
 O1406 O 0.74640 0.77257 0.00529
 Zr1407 Zr 0.73262 0.73377 -0.00787
 O1408 O 0.74499 0.74660 -0.02194
 O1409 O 0.76386 0.76418 -0.01368
 O1410 O 0.73664 0.73682 0.01384
 C1411 C 0.76220 0.79451 -0.01028
 C1412 C 0.79424 0.76073 -0.01200
 C1413 C 0.76038 0.76266 -0.04395
 C1414 C 0.73764 0.70717 0.01184
 C1415 C 0.73891 0.73789 0.04351
 C1416 C 0.70704 0.73895 0.01292
 H1417 H 0.75805 0.75675 0.03187
 H1418 H 0.71843 0.75813 -0.00591
 H1419 H 0.76998 0.77030 -0.01979
 H1420 H 0.75646 0.71858 -0.00738
 H1421 H 0.78196 0.72004 0.01026
 H1422 H 0.78023 0.71861 -0.01373
 H1423 H 0.71163 0.77394 0.01058
 H1424 H 0.72713 0.78876 -0.00555
 H1425 H 0.77352 0.74055 0.03902
 H1426 H 0.78852 0.75624 0.02306
 H1427 H 0.71107 0.74294 -0.02286
 H1428 H 0.72560 0.75922 -0.03657
 H1429 H 0.75918 0.78732 0.02453
 H1430 H 0.74301 0.77372 0.03925
 H1431 H 0.75530 0.72815 -0.03866
 H1432 H 0.74004 0.71182 -0.02338
 O1433 O 1.03790 0.23140 0.24857
 O1434 O 1.03272 0.23241 0.27385
 O1435 O 1.00050 0.21205 0.23105
 O1436 O 0.97671 0.21613 0.23143
 O1437 O 1.01850 0.24919 0.21173
 O1438 O 1.01710 0.27447 0.21707
 O1439 O 0.96263 0.25151 0.26867
 O1440 O 0.96626 0.22641 0.26567
 O1441 O 0.99880 0.26832 0.28735
 O1442 O 1.02497 0.26672 0.28238
 O1443 O 0.98174 0.28757 0.25140
 O1444 O 0.98288 0.28277 0.22530
 O1445 O 0.96291 0.26903 0.25175
 O1446 O 0.96765 0.26716 0.22514
 O1447 O 0.99870 0.28714 0.26887
 O1448 O 1.02516 0.28205 0.26695
 O1449 O 0.98135 0.25132 0.28726
 O1450 O 0.98325 0.22510 0.28228
 O1451 O 1.03804 0.24889 0.23156
 O1452 O 1.03301 0.27434 0.23335
 O1453 O 1.00106 0.23212 0.21142
 O1454 O 0.97530 0.23490 0.21685
 O1455 O 1.01772 0.21166 0.24834
 O1456 O 1.01645 0.21669 0.27376
 Zr1457 Zr 1.01713 0.23236 0.25740
 O1458 O 1.00470 0.24504 0.27135
 Zr1459 Zr 0.99198 0.23290 0.23212
 O1460 O 0.97829 0.24540 0.24510
 Zr1461 Zr 1.01742 0.25790 0.23252
 O1462 O 1.00486 0.27167 0.24526
 Zr1463 Zr 0.98288 0.24180 0.26684
 O1464 O 0.99526 0.22781 0.25393
 Zr1465 Zr 1.00830 0.26683 0.26698
 O1466 O 1.02218 0.25417 0.25427
 Zr1467 Zr 0.98305 0.26720 0.24181
 O1468 O 0.99565 0.25472 0.22762
 O1469 O 1.01364 0.23623 0.23580
 O1470 O 0.98655 0.26354 0.26351
 C1471 C 1.04400 0.23854 0.23845
 C1472 C 1.01062 0.20581 0.23805
 C1473 C 1.01143 0.23907 0.20553
 C1474 C 0.95696 0.26225 0.26217
 C1475 C 0.98823 0.26170 0.29319
 C1476 C 0.98836 0.29320 0.26211
 H1477 H 1.00707 0.24267 0.28140
 H1478 H 1.00722 0.28176 0.24304
 H1479 H 1.01972 0.23008 0.22966
 H1480 H 0.96815 0.24317 0.24297
 H1481 H 0.97035 0.21785 0.26089
 H1482 H 0.96824 0.21934 0.23693
 H1483 H 1.02342 0.28884 0.25900
 H1484 H 1.03778 0.27351 0.24279
 H1485 H 0.99140 0.22678 0.28885
 H1486 H 1.00691 0.21209 0.27313
 H1487 H 0.99160 0.28870 0.22636
 H1488 H 1.00763 0.27397 0.21233
 H1489 H 1.03736 0.24196 0.27357
 H1490 H 1.02361 0.25823 0.28858
 H1491 H 0.97704 0.24391 0.21152
 H1492 H 0.96084 0.25925 0.22699
 O1493 O 0.71153 1.01755 0.74818
 O1494 O 0.71628 1.01659 0.77344
 O1495 O 0.74883 1.03791 0.73145
 O1496 O 0.77264 1.03436 0.73210
 O1497 O 0.73201 1.00043 0.71144
 O1498 O 0.73375 0.97524 0.71654
 O1499 O 0.78667 0.99881 0.76958
 O1500 O 0.78279 1.02392 0.76660
 O1501 O 0.75094 0.98102 0.78707
 O1502 O 0.72478 0.98212 0.78182
 O1503 O 0.76935 0.96296 0.75174
 O1504 O 0.76812 0.96758 0.72541
 O1505 O 0.78753 0.98196 0.75197
 O1506 O 0.78290 0.98364 0.72542
 O1507 O 0.75150 0.96232 0.76831
 O1508 O 0.72503 0.96708 0.76605
 O1509 O 0.76775 0.99866 0.78762
 O1510 O 0.76530 1.02489 0.78279
 O1511 O 0.71207 1.00033 0.73086
 O1512 O 0.71765 0.97485 0.73265
 O1513 O 0.74894 1.01799 0.71165
 O1514 O 0.77474 1.01570 0.71748
 O1515 O 0.73122 1.03776 0.74833
 O1516 O 0.73233 1.03252 0.77386
 Zr1517 Zr 0.73217 1.01701 0.75730
 O1518 O 0.74459 1.00443 0.77132
 Zr1519 Zr 0.75775 1.01724 0.73246
 O1520 O 0.77151 1.00501 0.74557
 Zr1521 Zr 0.73287 0.99166 0.73217
 O1522 O 0.74560 0.97807 0.74492
 Zr1523 Zr 0.76640 1.00826 0.76727
 O1524 O 0.75397 1.02209 0.75425
 Zr1525 Zr 0.74162 0.98257 0.76662
 O1526 O 0.72767 0.99510 0.75386
 Zr1527 Zr 0.76736 0.98314 0.74195
 O1528 O 0.75466 0.99539 0.72768
 O1529 O 0.73612 1.01339 0.73573
 O1530 O 0.76333 0.98648 0.76360
 C1531 C 0.70577 1.01046 0.73782
 C1532 C 0.73841 1.04386 0.73824
 C1533 C 0.73887 1.01081 0.70550
 C1534 C 0.79290 0.98851 0.76285
 C1535 C 0.76117 0.98792 0.79322
 C1536 C 0.76246 0.95686 0.76199
 H1537 H 0.74200 1.00664 0.78135
 H1538 H 0.74355 0.96794 0.74255
 H1539 H 0.73000 1.01945 0.72955
 H1540 H 0.78163 1.00752 0.74367
 H1541 H 0.77867 1.03244 0.76177
 H1542 H 0.78104 1.03138 0.73782
 H1543 H 0.72699 0.96046 0.75799
 H1544 H 0.71251 0.97572 0.74189
 H1545 H 0.75711 1.02294 0.78922
 H1546 H 0.74167 1.03753 0.77323
 H1547 H 0.75981 0.96111 0.72662
 H1548 H 0.74344 0.97570 0.71227
 H1549 H 0.71204 1.00685 0.77319
 H1550 H 0.72585 0.99058 0.78814
 H1551 H 0.77315 1.00682 0.71187
 H1552 H 0.78936 0.99185 0.72728
 O1553 O 0.74937 0.53788 0.23101
 O1554 O 0.77451 0.53228 0.23210
 O1555 O 0.73095 0.50090 0.21212
 O1556 O 0.73083 0.47710 0.21623
 O1557 O 0.71224 0.51949 0.24924
 O1558 O 0.71764 0.51821 0.27445
 O1559 O 0.76774 0.46227 0.25139
 O1560 O 0.76505 0.46593 0.22643
 O1561 O 0.78745 0.49825 0.26814
 O1562 O 0.78319 0.52426 0.26677
 O1563 O 0.75114 0.48183 0.28747
 O1564 O 0.72510 0.48361 0.28288
 O1565 O 0.75096 0.46298 0.26902
 O1566 O 0.72444 0.46841 0.26724
 O1567 O 0.76877 0.49864 0.28719
 O1568 O 0.76742 0.52526 0.28167
 O1569 O 0.78666 0.48039 0.25154
 O1570 O 0.78190 0.48272 0.22509
 O1571 O 0.73263 0.53869 0.24873
 O1572 O 0.73427 0.53366 0.27423
 O1573 O 0.71146 0.50186 0.23237
 O1574 O 0.71642 0.47597 0.23507
 O1575 O 0.74868 0.51767 0.21155
 O1576 O 0.77414 0.51572 0.21657
 Zr1577 Zr 0.75779 0.51696 0.23221
 O1578 O 0.77147 0.50432 0.24495
 Zr1579 Zr 0.73196 0.49240 0.23297
 O1580 O 0.74464 0.47846 0.24543
 Zr1581 Zr 0.73304 0.51803 0.25783
 O1582 O 0.74545 0.50517 0.27161
 Zr1583 Zr 0.76645 0.48258 0.24179
 O1584 O 0.75379 0.49515 0.22777
 Zr1585 Zr 0.76723 0.50811 0.26675
 O1586 O 0.75487 0.52223 0.25400
 Zr1587 Zr 0.74150 0.48339 0.26721
 O1588 O 0.72761 0.49631 0.25477
 O1589 O 0.73613 0.51401 0.23618
 O1590 O 0.76325 0.48640 0.26352
 C1591 C 0.73952 0.54434 0.23820
 C1592 C 0.73815 0.51084 0.20580
 C1593 C 0.70582 0.51240 0.23929
 C1594 C 0.76118 0.45677 0.26217
 C1595 C 0.79288 0.48732 0.26173
 C1596 C 0.76184 0.48835 0.29319
 H1597 H 0.78155 0.50644 0.24254
 H1598 H 0.74330 0.50762 0.28169
 H1599 H 0.73010 0.52019 0.23005
 H1600 H 0.74227 0.46835 0.24323
 H1601 H 0.76031 0.47007 0.21787
 H1602 H 0.73633 0.46859 0.21934
 H1603 H 0.75965 0.52357 0.28868
 H1604 H 0.74374 0.53833 0.27326
 H1605 H 0.78902 0.49030 0.22716
 H1606 H 0.77319 0.50619 0.21196
 H1607 H 0.72636 0.49236 0.28876
 H1608 H 0.71277 0.50878 0.27412
 H1609 H 0.77430 0.53703 0.24160
 H1610 H 0.78880 0.52325 0.25783
 H1611 H 0.71113 0.47785 0.24407
 H1612 H 0.72620 0.46141 0.25945
 O1613 O 0.50130 0.21122 0.73252
 O1614 O 0.47598 0.21576 0.73423
 O1615 O 0.51671 0.24870 0.71114
 O1616 O 0.51619 0.27252 0.71457
 O1617 O 0.53832 0.23276 0.74852
 O1618 O 0.53356 0.23452 0.77380
 O1619 O 0.47963 0.28660 0.75085
 O1620 O 0.48209 0.28224 0.72563
 O1621 O 0.46288 0.25097 0.76953
 O1622 O 0.46846 0.22453 0.76826
 O1623 O 0.49839 0.26975 0.78654
 O1624 O 0.52469 0.26871 0.78110
 O1625 O 0.49760 0.28782 0.76725
 O1626 O 0.52394 0.28353 0.76518
 O1627 O 0.48210 0.25167 0.78769
 O1628 O 0.48417 0.22540 0.78329
 O1629 O 0.46174 0.26745 0.75163
 O1630 O 0.46580 0.26480 0.72552
 O1631 O 0.51922 0.21237 0.74905
 O1632 O 0.51786 0.21805 0.77448
 O1633 O 0.53723 0.24913 0.73048
 O1634 O 0.53127 0.27491 0.73270
 O1635 O 0.50043 0.23055 0.71215
 O1636 O 0.47509 0.23148 0.71792
 Zr1637 Zr 0.49195 0.23180 0.73306
 O1638 O 0.47810 0.24432 0.74576
 Zr1639 Zr 0.51640 0.25776 0.73180
 O1640 O 0.50352 0.27154 0.74427
 Zr1641 Zr 0.51771 0.23322 0.75765
 O1642 O 0.50509 0.24594 0.77141
 Zr1643 Zr 0.48184 0.26615 0.74160
 O1644 O 0.49457 0.25360 0.72761
 Zr1645 Zr 0.48333 0.24168 0.76750
 O1646 O 0.49601 0.22769 0.75489
 Zr1647 Zr 0.50770 0.26769 0.76609
 O1648 O 0.52179 0.25505 0.75355
 O1649 O 0.51355 0.23611 0.73600
 O1650 O 0.48603 0.26341 0.76332
 C1651 C 0.51203 0.20578 0.73926
 C1652 C 0.51004 0.23796 0.70559
 C1653 C 0.54381 0.23946 0.73779
 C1654 C 0.48658 0.29305 0.76087
 C1655 C 0.45648 0.26103 0.76261
 C1656 C 0.48842 0.26273 0.79297
 H1657 H 0.46805 0.24158 0.74384
 H1658 H 0.50773 0.24402 0.78149
 H1659 H 0.51967 0.23002 0.72984
 H1660 H 0.50526 0.28165 0.74160
 H1661 H 0.48654 0.27791 0.71701
 H1662 H 0.51043 0.28088 0.71762
 H1663 H 0.49282 0.22706 0.78920
 H1664 H 0.50863 0.21283 0.77394
 H1665 H 0.45978 0.25630 0.72748
 H1666 H 0.47540 0.24082 0.71288
 H1667 H 0.52350 0.26068 0.78793
 H1668 H 0.53772 0.24427 0.77314
 H1669 H 0.47662 0.21161 0.74397
 H1670 H 0.46147 0.22589 0.76040
 H1671 H 0.53705 0.27355 0.74149
 H1672 H 0.52211 0.28957 0.75666
 O1673 O 0.28778 0.75131 0.48073
 O1674 O 0.28253 0.72601 0.48198
 O1675 O 0.25039 0.76898 0.46196
 O1676 O 0.22658 0.76854 0.46633
 O1677 O 0.26876 0.78837 0.49892
 O1678 O 0.26785 0.78298 0.52418
 O1679 O 0.21271 0.73172 0.50190
 O1680 O 0.21608 0.73454 0.47678
 O1681 O 0.24891 0.71279 0.51831
 O1682 O 0.27516 0.71759 0.51630
 O1683 O 0.23238 0.74883 0.53772
 O1684 O 0.23376 0.77502 0.53288
 O1685 O 0.21331 0.74869 0.51941
 O1686 O 0.21823 0.77519 0.51762
 O1687 O 0.24927 0.73130 0.53711
 O1688 O 0.27565 0.73305 0.53165
 O1689 O 0.23127 0.71296 0.50152
 O1690 O 0.23289 0.71777 0.47533
 O1691 O 0.28841 0.76825 0.49832
 O1692 O 0.28366 0.76672 0.52378
 O1693 O 0.25123 0.78852 0.48196
 O1694 O 0.22552 0.78332 0.48509
 O1695 O 0.26751 0.75161 0.46138
 O1696 O 0.26603 0.72614 0.46642
 Zr1697 Zr 0.26703 0.74253 0.48207
 O1698 O 0.25469 0.72869 0.49492
 Zr1699 Zr 0.24206 0.76792 0.48291
 O1700 O 0.22846 0.75510 0.49563
 Zr1701 Zr 0.26784 0.76752 0.50758
 O1702 O 0.25538 0.75487 0.52153
 Zr1703 Zr 0.23286 0.73332 0.49197
 O1704 O 0.24514 0.74609 0.47778
 Zr1705 Zr 0.25859 0.73310 0.51667
 O1706 O 0.27238 0.74571 0.50380
 Zr1707 Zr 0.23354 0.75843 0.51736
 O1708 O 0.24604 0.77249 0.50467
 O1709 O 0.26374 0.76418 0.48598
 O1710 O 0.23683 0.73669 0.51366
 C1711 C 0.29411 0.76135 0.48781
 C1712 C 0.26046 0.76198 0.45562
 C1713 C 0.26161 0.79447 0.48882
 C1714 C 0.20720 0.73831 0.51268
 C1715 C 0.23821 0.70701 0.51182
 C1716 C 0.23901 0.73812 0.54329
 H1717 H 0.25695 0.71862 0.49253
 H1718 H 0.25788 0.75710 0.53158
 H1719 H 0.26978 0.77029 0.47978
 H1720 H 0.21831 0.75729 0.49353
 H1721 H 0.22011 0.73924 0.46816
 H1722 H 0.21806 0.76323 0.46973
 H1723 H 0.27407 0.74104 0.53845
 H1724 H 0.28827 0.75719 0.52301
 H1725 H 0.24107 0.71122 0.47686
 H1726 H 0.25645 0.72686 0.46191
 H1727 H 0.24238 0.77372 0.53890
 H1728 H 0.25835 0.78769 0.52390
 H1729 H 0.28731 0.72635 0.49145
 H1730 H 0.27359 0.71133 0.50787
 H1731 H 0.22737 0.78862 0.49411
 H1732 H 0.21145 0.77351 0.50964
 O1733 O 0.24949 0.21189 1.01880
 O1734 O 0.27468 0.21715 1.01781
 O1735 O 0.23165 0.24900 1.03810
 O1736 O 0.23188 0.27282 1.03416
 O1737 O 0.21261 0.23099 1.00081
 O1738 O 0.21799 0.23240 0.97562
 O1739 O 0.26929 0.28719 0.99881
 O1740 O 0.26616 0.28366 1.02391
 O1741 O 0.28798 0.25149 0.98188
 O1742 O 0.28338 0.22526 0.98334
 O1743 O 0.25200 0.26830 0.96278
 O1744 O 0.22600 0.26699 0.96746
 O1745 O 0.25211 0.28716 0.98154
 O1746 O 0.22556 0.28201 0.98325
 O1747 O 0.26949 0.25137 0.96308
 O1748 O 0.26774 0.22478 0.96821
 O1749 O 0.28781 0.26880 0.99905
 O1750 O 0.28280 0.26660 1.02531
 O1751 O 0.23268 0.21147 1.00112
 O1752 O 0.23438 0.21671 0.97568
 O1753 O 0.21213 0.24846 1.01786
 O1754 O 0.21748 0.27432 1.01532
 O1755 O 0.24907 0.23193 1.03849
 O1756 O 0.27455 0.23353 1.03351
 Zr1757 Zr 0.25820 0.23269 1.01783
 O1758 O 0.27208 0.24522 1.00520
 Zr1759 Zr 0.23277 0.25765 1.01730
 O1760 O 0.24568 0.27150 1.00494
 Zr1761 Zr 0.23341 0.23222 0.99221
 O1762 O 0.24601 0.24501 0.97855
 Zr1763 Zr 0.26743 0.26700 1.00854
 O1764 O 0.25456 0.25452 1.02246
 Zr1765 Zr 0.26774 0.24170 0.98338
 O1766 O 0.25517 0.22766 0.99600
 Zr1767 Zr 0.24242 0.26681 0.98312
 O1768 O 0.22834 0.25399 0.99546
 O1769 O 0.23659 0.23600 1.01390
 O1770 O 0.26411 0.26343 0.98679
 C1771 C 0.23953 0.20563 1.01157
 C1772 C 0.23869 0.23891 1.04433
 C1773 C 0.20633 0.23807 1.01084
 C1774 C 0.26266 0.29299 0.98823
 C1775 C 0.29373 0.26210 0.98855
 C1776 C 0.26267 0.26173 0.95708
 H1777 H 0.28214 0.24292 1.00757
 H1778 H 0.24382 0.24267 0.96844
 H1779 H 0.23047 0.22985 1.01999
 H1780 H 0.24350 0.28162 1.00722
 H1781 H 0.26141 0.27955 1.03246
 H1782 H 0.23746 0.28130 1.03110
 H1783 H 0.25991 0.22658 0.96129
 H1784 H 0.24382 0.21195 0.97656
 H1785 H 0.28955 0.25864 1.02348
 H1786 H 0.27371 0.24299 1.03826
 H1787 H 0.22702 0.25821 0.96159
 H1788 H 0.21325 0.24189 0.97604
 H1789 H 0.27452 0.21262 1.00820
 H1790 H 0.28941 0.22651 0.99198
 H1791 H 0.21210 0.27253 1.00635
 H1792 H 0.22738 0.28886 0.99115
 C1793 C 0.28730 0.40530 0.78514
 C1794 C 0.28459 0.40235 0.79969
 C1795 C 0.29090 0.39054 0.80640
 C1796 C 0.30018 0.38144 0.79878
 C1797 C 0.30294 0.38439 0.78426
 C1798 C 0.29653 0.39614 0.77751
 C1799 C 0.28072 0.41801 0.77809
 C1800 C 0.28853 0.42617 0.76810
 C1801 C 0.28263 0.43856 0.76207
 C1802 C 0.26882 0.44315 0.76596
 C1803 C 0.26087 0.43480 0.77566
 C1804 C 0.26672 0.42235 0.78160
 H1805 H 0.28867 0.38869 0.81763
 H1806 H 0.30988 0.37752 0.77800
 H1807 H 0.28912 0.44482 0.75475
 H1808 H 0.25018 0.43799 0.77887
 H1809 H 0.29870 0.39795 0.76625
 H1810 H 0.29940 0.42327 0.76529
 H1811 H 0.27777 0.40932 0.80599
 H1812 H 0.26030 0.41618 0.78903
 C1813 C 0.28625 -0.09581 0.28461
 C1814 C 0.29608 -0.10449 0.27716
 C1815 C 0.30260 -0.11618 0.28389
 C1816 C 0.29936 -0.11960 0.29818
 C1817 C 0.28928 -0.11117 0.30556
 C1818 C 0.28286 -0.09937 0.29888
 C1819 C 0.27993 -0.08286 0.27771
 C1820 C 0.26584 -0.07854 0.28087
 C1821 C 0.26025 -0.06587 0.27515
 C1822 C 0.26853 -0.05728 0.26595
 C1823 C 0.28247 -0.06180 0.26243
 C1824 C 0.28812 -0.07439 0.26828
 H1825 H 0.30998 -0.12270 0.27777
 H1826 H 0.28645 -0.11354 0.31656
 H1827 H 0.24947 -0.06272 0.27805
 H1828 H 0.28922 -0.05535 0.25552
 H1829 H 0.27549 -0.09285 0.30504
 H1830 H 0.25911 -0.08493 0.28784
 H1831 H 0.29871 -0.10234 0.26607
 H1832 H 0.29908 -0.07722 0.26576
 C1833 C 0.78591 0.90440 0.78575
 C1834 C 0.78150 0.89968 0.79936
 C1835 C 0.78777 0.88763 0.80571
 C1836 C 0.79883 0.88005 0.79873
 C1837 C 0.80315 0.88477 0.78504
 C1838 C 0.79670 0.89666 0.77862
 C1839 C 0.77959 0.91753 0.77916
 C1840 C 0.78809 0.92669 0.77072
 C1841 C 0.78235 0.93916 0.76478
 C1842 C 0.76800 0.94295 0.76728
 C1843 C 0.75944 0.93384 0.77567
 C1844 C 0.76513 0.92121 0.78144
 H1845 H 0.78408 0.88457 0.81626
 H1846 H 0.81138 0.87923 0.77905
 H1847 H 0.78933 0.94609 0.75860
 H1848 H 0.74834 0.93649 0.77781
 H1849 H 0.80016 0.89973 0.76798
 H1850 H 0.79934 0.92446 0.76900
 H1851 H 0.77341 0.90548 0.80533
 H1852 H 0.75817 0.91433 0.78768
 C1853 C 0.46643 0.84808 0.28356
 C1854 C 0.46860 0.85078 0.29825
 C1855 C 0.46206 0.86251 0.30491
 C1856 C 0.45309 0.87171 0.29708
 C1857 C 0.45101 0.86911 0.28239
 C1858 C 0.45767 0.85747 0.27569
 C1859 C 0.47280 0.83518 0.27666
 C1860 C 0.46502 0.82738 0.26636
 C1861 C 0.47049 0.81467 0.26064
 C1862 C 0.48382 0.80935 0.26520
 C1863 C 0.49182 0.81735 0.27516
 C1864 C 0.48640 0.83016 0.28077
 H1865 H 0.46377 0.86413 0.31628
 H1866 H 0.44434 0.87612 0.27601
 H1867 H 0.46396 0.80870 0.25310
 H1868 H 0.50215 0.81357 0.27886
 H1869 H 0.45596 0.85587 0.26432
 H1870 H 0.45442 0.83078 0.26309
 H1871 H 0.47504 0.84363 0.30471
 H1872 H 0.49281 0.83603 0.28848
 C1873 C -0.03686 0.84532 0.78509
 C1874 C -0.03359 0.84886 0.79940
 C1875 C -0.03981 0.86083 0.80595
 C1876 C -0.04957 0.86945 0.79840
 C1877 C -0.05288 0.86591 0.78414
 C1878 C -0.04654 0.85404 0.77753
 C1879 C -0.03038 0.83244 0.77819
 C1880 C -0.03840 0.82400 0.76858
 C1881 C -0.03255 0.81159 0.76256
 C1882 C -0.01857 0.80722 0.76608
 C1883 C -0.01045 0.81579 0.77547
 C1884 C -0.01625 0.82828 0.78138
 H1885 H -0.03716 0.86315 0.81700
 H1886 H -0.06022 0.87243 0.77796
 H1887 H -0.03919 0.80515 0.75552
 H1888 H 0.00035 0.81273 0.77842
 H1889 H -0.04913 0.85181 0.76644
 H1890 H -0.04939 0.82671 0.76605
 H1891 H -0.02642 0.84223 0.80566
 H1892 H -0.00966 0.83465 0.78852
 C1893 C -0.03595 -0.09639 -0.03452
 C1894 C -0.03256 -0.10007 -0.04875
 C1895 C -0.03892 -0.11196 -0.05531
 C1896 C -0.04896 -0.12035 -0.04787
 C1897 C -0.05237 -0.11672 -0.03366
 C1898 C -0.04586 -0.10495 -0.02702
 C1899 C -0.02952 -0.08344 -0.02771
 C1900 C -0.03763 -0.07493 -0.01826
 C1901 C -0.03191 -0.06237 -0.01244
 C1902 C -0.01798 -0.05789 -0.01604
 C1903 C -0.00976 -0.06650 -0.02527
 C1904 C -0.01542 -0.07918 -0.03096
 H1905 H -0.03618 -0.11437 -0.06633
 H1906 H -0.05993 -0.12309 -0.02759
 H1907 H -0.03862 -0.05590 -0.00550
 H1908 H 0.00101 -0.06336 -0.02825
 H1909 H -0.04854 -0.10263 -0.01597
 H1910 H -0.04860 -0.07769 -0.01570
 H1911 H -0.02523 -0.09359 -0.05498
 H1912 H -0.00876 -0.08559 -0.03798
 C1913 C -0.03456 0.40214 0.46638
 C1914 C -0.02698 0.39367 0.45649
 C1915 C -0.03338 0.38173 0.45007
 C1916 C -0.04754 0.37772 0.45349
 C1917 C -0.05497 0.38599 0.46374
 C1918 C -0.04861 0.39807 0.47000
 C1919 C -0.02804 0.41545 0.47245
 C1920 C -0.03118 0.42000 0.48651
 C1921 C -0.02569 0.43296 0.49179
 C1922 C -0.01677 0.44155 0.48322
 C1923 C -0.01331 0.43680 0.46933
 C1924 C -0.01895 0.42400 0.46399
 H1925 H -0.02705 0.37567 0.44249
 H1926 H -0.06587 0.38347 0.46675
 H1927 H -0.02854 0.43631 0.50254
 H1928 H -0.00666 0.44327 0.46234
 H1929 H -0.05489 0.40444 0.47740
 H1930 H -0.03793 0.41359 0.49343
 H1931 H -0.01603 0.39624 0.45367
 H1932 H -0.01652 0.42106 0.45302
 C1933 C 0.46482 -0.09540 0.46442
 C1934 C 0.47216 -0.10367 0.45417
 C1935 C 0.46556 -0.11544 0.44761
 C1936 C 0.45150 -0.11951 0.45131
 C1937 C 0.44427 -0.11136 0.46180
 C1938 C 0.45079 -0.09942 0.46814
 C1939 C 0.47161 -0.08239 0.47086
 C1940 C 0.46854 -0.07819 0.48504
 C1941 C 0.47425 -0.06550 0.49070
 C1942 C 0.48338 -0.05685 0.48241
 C1943 C 0.48683 -0.06129 0.46843
 C1944 C 0.48094 -0.07381 0.46269
 H1945 H 0.47172 -0.12142 0.43982
 H1946 H 0.43341 -0.11387 0.46494
 H1947 H 0.47143 -0.06240 0.50154
 H1948 H 0.49371 -0.05481 0.46169
 H1949 H 0.44465 -0.09316 0.47575
 H1950 H 0.46167 -0.08466 0.49178
 H1951 H 0.48309 -0.10115 0.45124
 H1952 H 0.48337 -0.07648 0.45166
 C1953 C 0.46449 0.40410 -0.03532
 C1954 C 0.47213 0.39537 -0.04493
 C1955 C 0.46567 0.38342 -0.05128
 C1956 C 0.45138 0.37969 -0.04808
 C1957 C 0.44385 0.38829 -0.03818
 C1958 C 0.45027 0.40037 -0.03200
 C1959 C 0.47118 0.41724 -0.02911
 C1960 C 0.46794 0.42171 -0.01507
 C1961 C 0.47366 0.43445 -0.00955
 C1962 C 0.48292 0.44293 -0.01789
 C1963 C 0.48648 0.43826 -0.03177
 C1964 C 0.48062 0.42564 -0.03734
 H1965 H 0.47208 0.37710 -0.05858
 H1966 H 0.43283 0.38602 -0.03541
 H1967 H 0.47073 0.43772 0.00120
 H1968 H 0.49344 0.44461 -0.03855
 H1969 H 0.44395 0.40698 -0.02485
 H1970 H 0.46093 0.41539 -0.00832
 H1971 H 0.48320 0.39770 -0.04751
 H1972 H 0.48318 0.42271 -0.04828
 C1973 C 0.78498 0.34718 0.46678
 C1974 C 0.78229 0.35011 0.45223
 C1975 C 0.78851 0.36199 0.44555
 C1976 C 0.79770 0.37116 0.45320
 C1977 C 0.80039 0.36827 0.46774
 C1978 C 0.79406 0.35646 0.47447
 C1979 C 0.77869 0.33425 0.47373
 C1980 C 0.78667 0.32624 0.48370
 C1981 C 0.78119 0.31352 0.48942
 C1982 C 0.76764 0.30841 0.48521
 C1983 C 0.75946 0.31666 0.47562
 C1984 C 0.76488 0.32945 0.47001
 H1985 H 0.78634 0.36379 0.43429
 H1986 H 0.80727 0.37521 0.47400
 H1987 H 0.78784 0.30738 0.49668
 H1988 H 0.74896 0.31308 0.47220
 H1989 H 0.79620 0.35468 0.48573
 H1990 H 0.79740 0.32949 0.48668
 H1991 H 0.77561 0.34304 0.44588
 H1992 H 0.75831 0.33550 0.46260
 C1993 C 0.78483 0.84718 -0.03383
 C1994 C 0.78215 0.84999 -0.04841
 C1995 C 0.78860 0.86167 -0.05523
 C1996 C 0.79800 0.87071 -0.04767
 C1997 C 0.80063 0.86795 -0.03311
 C1998 C 0.79409 0.85637 -0.02626
 C1999 C 0.77841 0.83444 -0.02670
 C2000 C 0.78634 0.82649 -0.01665
 C2001 C 0.78075 0.81392 -0.01073
 C2002 C 0.76714 0.80891 -0.01483
 C2003 C 0.75899 0.81712 -0.02447
 C2004 C 0.76453 0.82978 -0.03028
 H2005 H 0.78642 0.86342 -0.06650
 H2006 H 0.80763 0.87483 -0.02692
 H2007 H 0.78738 0.80783 -0.00341
 H2008 H 0.74843 0.81362 -0.02779
 H2009 H 0.79622 0.85470 -0.01498
 H2010 H 0.79712 0.82965 -0.01375
 H2011 H 0.77530 0.84298 -0.05466
 H2012 H 0.75799 0.83582 -0.03772
 C2013 C 0.78402 0.28458 0.40299
 C2014 C 0.79257 0.27657 0.39349
 C2015 C 0.79925 0.28316 0.38181
 C2016 C 0.79739 0.29788 0.37925
 C2017 C 0.78867 0.30586 0.38858
 C2018 C 0.78213 0.29932 0.40036
 C2019 C 0.77758 0.27777 0.41591
 C2020 C 0.76414 0.28220 0.42114
 C2021 C 0.75867 0.27657 0.43392
 C2022 C 0.76644 0.26626 0.44167
 C2023 C 0.77960 0.26143 0.43615
 C2024 C 0.78513 0.26716 0.42348
 H2025 H 0.80573 0.27667 0.37470
 H2026 H 0.78714 0.31726 0.38699
 H2027 H 0.74849 0.28050 0.43786
 H2028 H 0.78597 0.25361 0.44191
 H2029 H 0.77588 0.30591 0.40759
 H2030 H 0.75790 0.29015 0.41545
 H2031 H 0.79406 0.26515 0.39502
 H2032 H 0.79560 0.26364 0.41995
 C2033 C 0.78355 0.78566 -0.09665
 C2034 C 0.77597 0.79491 -0.10583
 C2035 C 0.78285 0.80153 -0.11738
 C2036 C 0.79743 0.79896 -0.12011
 C2037 C 0.80497 0.78959 -0.11107
 C2038 C 0.79814 0.78308 -0.09943
 C2039 C 0.77647 0.77912 -0.08393
 C2040 C 0.78022 0.76526 -0.07930
 C2041 C 0.77454 0.75964 -0.06662
 C2042 C 0.76485 0.76768 -0.05834
 C2043 C 0.76058 0.78126 -0.06332
 C2044 C 0.76636 0.78693 -0.07592
 H2045 H 0.77667 0.80852 -0.12427
 H2046 H 0.81624 0.78747 -0.11278
 H2047 H 0.77801 0.74912 -0.06314
 H2048 H 0.75322 0.78781 -0.05717
 H2049 H 0.80441 0.77629 -0.09243
 H2050 H 0.78772 0.75881 -0.08537
 H2051 H 0.76468 0.79698 -0.10416
 H2052 H 0.76333 0.79769 -0.07904
 C2053 C 0.28529 0.46399 0.84526
 C2054 C 0.29972 0.46690 0.84855
 C2055 C 0.30625 0.46067 0.86051
 C2056 C 0.29855 0.45126 0.86940
 C2057 C 0.28412 0.44837 0.86615
 C2058 C 0.27756 0.45470 0.85427
 C2059 C 0.27843 0.47037 0.83234
 C2060 C 0.26861 0.46239 0.82412
 C2061 C 0.26262 0.46814 0.81166
 C2062 C 0.26639 0.48198 0.80702
 C2063 C 0.27601 0.49007 0.81536
 C2064 C 0.28190 0.48437 0.82790
 H2065 H 0.31741 0.46300 0.86261
 H2066 H 0.27781 0.44134 0.87287
 H2067 H 0.25540 0.46153 0.80540
 H2068 H 0.27915 0.50077 0.81211
 H2069 H 0.26637 0.45241 0.85223
 H2070 H 0.26586 0.45150 0.82706
 H2071 H 0.30609 0.47378 0.84171
 H2072 H 0.28922 0.49092 0.83409
 C2073 C 0.28517 -0.03575 0.34564
 C2074 C 0.29961 -0.03295 0.34893
 C2075 C 0.30602 -0.03902 0.36103
 C2076 C 0.29818 -0.04815 0.37007
 C2077 C 0.28374 -0.05095 0.36682
 C2078 C 0.27730 -0.04479 0.35478
 C2079 C 0.27845 -0.02948 0.33260
 C2080 C 0.26859 -0.03748 0.32444
 C2081 C 0.26276 -0.03183 0.31185
 C2082 C 0.26673 -0.01810 0.30705
 C2083 C 0.27637 -0.01000 0.31534
 C2084 C 0.28210 -0.01559 0.32800
 H2085 H 0.31720 -0.03675 0.36311
 H2086 H 0.27731 -0.05778 0.37364
 H2087 H 0.25550 -0.03844 0.30564
 H2088 H 0.27965 0.00062 0.31197
 H2089 H 0.26610 -0.04700 0.35273
 H2090 H 0.26569 -0.04829 0.32752
 H2091 H 0.30609 -0.02628 0.34198
 H2092 H 0.28944 -0.00903 0.33416
 C2093 C -0.03549 -0.03753 -0.09495
 C2094 C -0.04904 -0.03286 -0.09959
 C2095 C -0.05555 -0.03896 -0.11164
 C2096 C -0.04881 -0.05010 -0.11933
 C2097 C -0.03530 -0.05487 -0.11454
 C2098 C -0.02871 -0.04859 -0.10263
 C2099 C -0.02860 -0.03108 -0.08203
 C2100 C -0.02025 -0.03956 -0.07277
 C2101 C -0.01417 -0.03366 -0.06041
 C2102 C -0.01645 -0.01918 -0.05686
 C2103 C -0.02464 -0.01063 -0.06616
 C2104 C -0.03054 -0.01648 -0.07866
 H2105 H -0.06600 -0.03500 -0.11468
 H2106 H -0.02955 -0.06326 -0.12009
 H2107 H -0.00813 -0.04060 -0.05334
 H2108 H -0.02659 0.00056 -0.06372
 H2109 H -0.01816 -0.05232 -0.09957
 H2110 H -0.01874 -0.05089 -0.07480
 H2111 H -0.05478 -0.02462 -0.09377
 H2112 H -0.03665 -0.00954 -0.08566
 C2113 C -0.03430 0.46568 0.40248
 C2114 C -0.03059 0.45163 0.39846
 C2115 C -0.03709 0.44503 0.38667
 C2116 C -0.04774 0.45217 0.37868
 C2117 C -0.05139 0.46628 0.38271
 C2118 C -0.04465 0.47297 0.39431
 C2119 C -0.02787 0.47247 0.41548
 C2120 C -0.03608 0.48172 0.42410
 C2121 C -0.03044 0.48750 0.43670
 C2122 C -0.01650 0.48399 0.44119
 C2123 C -0.00814 0.47496 0.43251
 C2124 C -0.01371 0.46936 0.41973
 H2125 H -0.03398 0.43414 0.38419
 H2126 H -0.05929 0.47237 0.37682
 H2127 H -0.03727 0.49424 0.44324
 H2128 H 0.00264 0.47207 0.43568
 H2129 H -0.04757 0.48392 0.39683
 H2130 H -0.04710 0.48414 0.42143
 H2131 H -0.02291 0.44552 0.40464
 H2132 H -0.00695 0.46251 0.41325
 C2133 C 0.46540 -0.03523 0.40389
 C2134 C 0.45065 -0.03334 0.40139
 C2135 C 0.44402 -0.03974 0.38958
 C2136 C 0.45193 -0.04836 0.38010
 C2137 C 0.46664 -0.05032 0.38258
 C2138 C 0.47332 -0.04376 0.39430
 C2139 C 0.47235 -0.02860 0.41665
 C2140 C 0.48313 -0.03595 0.42420
 C2141 C 0.48903 -0.03012 0.43668
 C2142 C 0.48417 -0.01688 0.44202
 C2143 C 0.47371 -0.00932 0.43425
 C2144 C 0.46794 -0.01508 0.42168
 H2145 H 0.43264 -0.03818 0.38806
 H2146 H 0.47306 -0.05675 0.37536
 H2147 H 0.49704 -0.03625 0.44241
 H2148 H 0.46977 0.00093 0.43802
 H2149 H 0.48473 -0.04526 0.39574
 H2150 H 0.48668 -0.04646 0.42076
 H2151 H 0.44414 -0.02712 0.40872
 H2152 H 0.45990 -0.00897 0.41597
 C2153 C 0.46425 0.46526 -0.09623
 C2154 C 0.44950 0.46696 -0.09883
 C2155 C 0.44301 0.46041 -0.11066
 C2156 C 0.45108 0.45184 -0.12006
 C2157 C 0.46581 0.45016 -0.11752
 C2158 C 0.47234 0.45686 -0.10581
 C2159 C 0.47104 0.47183 -0.08336
 C2160 C 0.48191 0.46452 -0.07590
 C2161 C 0.48780 0.47030 -0.06341
 C2162 C 0.48287 0.48345 -0.05792
 C2163 C 0.47222 0.49093 -0.06551
 C2164 C 0.46644 0.48522 -0.07813
 H2165 H 0.43161 0.46180 -0.11223
 H2166 H 0.47236 0.44379 -0.12468
 H2167 H 0.49591 0.46419 -0.05779
 H2168 H 0.46818 0.50109 -0.06160
 H2169 H 0.48376 0.45552 -0.10432
 H2170 H 0.48556 0.45408 -0.07944
 H2171 H 0.44286 0.47310 -0.09156
 H2172 H 0.45829 0.49128 -0.08372
 C2173 C 0.46676 0.78450 0.34743
 C2174 C 0.45806 0.77648 0.35677
 C2175 C 0.45169 0.78292 0.36871
 C2176 C 0.45398 0.79752 0.37172
 C2177 C 0.46287 0.80550 0.36256
 C2178 C 0.46913 0.79910 0.35052
 C2179 C 0.47292 0.77784 0.33428
 C2180 C 0.48649 0.78197 0.32915
 C2181 C 0.49179 0.77644 0.31625
 C2182 C 0.48372 0.76653 0.30823
 C2183 C 0.47040 0.76201 0.31362
 C2184 C 0.46504 0.76764 0.32643
 H2185 H 0.44507 0.77640 0.37565
 H2186 H 0.46475 0.81681 0.36446
 H2187 H 0.50212 0.78012 0.31244
 H2188 H 0.46381 0.75451 0.30766
 H2189 H 0.47553 0.80569 0.34345
 H2190 H 0.49299 0.78958 0.33505
 H2191 H 0.45620 0.76517 0.35490
 H2192 H 0.45446 0.76436 0.32989
 C2193 C -0.03524 0.78713 0.84495
 C2194 C -0.02796 0.79727 0.85342
 C2195 C -0.03461 0.80350 0.86531
 C2196 C -0.04865 0.79962 0.86911
 C2197 C -0.05593 0.78944 0.86072
 C2198 C -0.04934 0.78333 0.84873
 C2199 C -0.02825 0.78068 0.83214
 C2200 C -0.03092 0.76633 0.82828
 C2201 C -0.02494 0.76052 0.81584
 C2202 C -0.01600 0.76885 0.80704
 C2203 C -0.01295 0.78305 0.81111
 C2204 C -0.01907 0.78892 0.82347
 H2205 H -0.02863 0.81116 0.87166
 H2206 H -0.06681 0.78635 0.86329
 H2207 H -0.02749 0.74954 0.81301
 H2208 H -0.00627 0.78984 0.80447
 H2209 H -0.05540 0.77580 0.84229
 H2210 H -0.03770 0.75959 0.83485
 H2211 H -0.01701 0.80026 0.85101
 H2212 H -0.01694 0.80007 0.82595
 C2213 C 0.40268 0.78355 0.28418
 C2214 C 0.40027 0.78163 0.29896
 C2215 C 0.38878 0.78843 0.30580
 C2216 C 0.37952 0.79743 0.29802
 C2217 C 0.38172 0.79906 0.28323
 C2218 C 0.39310 0.79217 0.27638
 C2219 C 0.41552 0.77722 0.27711
 C2220 C 0.42302 0.78496 0.26656
 C2221 C 0.43574 0.77960 0.26075
 C2222 C 0.44136 0.76642 0.26543
 C2223 C 0.43361 0.75844 0.27560
 C2224 C 0.42081 0.76375 0.28132
 H2225 H 0.38735 0.78685 0.31721
 H2226 H 0.37453 0.80555 0.27686
 H2227 H 0.44145 0.78610 0.25301
 H2228 H 0.43759 0.74821 0.27939
 H2229 H 0.39438 0.79363 0.26494
 H2230 H 0.41938 0.79545 0.26316
 H2231 H 0.40752 0.77521 0.30536
 H2232 H 0.41516 0.75736 0.28917
 C2233 C -0.09534 0.78503 0.78655
 C2234 C -0.09869 0.79944 0.78356
 C2235 C -0.11071 0.80594 0.78972
 C2236 C -0.11960 0.79824 0.79912
 C2237 C -0.11624 0.78387 0.80216
 C2238 C -0.10430 0.77732 0.79591
 C2239 C -0.08243 0.77818 0.78014
 C2240 C -0.07414 0.76843 0.78812
 C2241 C -0.06166 0.76249 0.78234
 C2242 C -0.05709 0.76623 0.76847
 C2243 C -0.06552 0.77574 0.76037
 C2244 C -0.07807 0.78158 0.76611
 H2245 H -0.11286 0.81708 0.78729
 H2246 H -0.12294 0.77756 0.80923
 H2247 H -0.05534 0.75534 0.78894
 H2248 H -0.06233 0.77884 0.74965
 H2249 H -0.10219 0.76616 0.79828
 H2250 H -0.07703 0.76573 0.79902
 H2251 H -0.09188 0.80580 0.77665
 H2252 H -0.08432 0.78882 0.75955
 C2253 C 0.84754 0.28361 0.46578
 C2254 C 0.85700 0.27584 0.45699
 C2255 C 0.86858 0.28265 0.45038
 C2256 C 0.87105 0.29739 0.45248
 C2257 C 0.86175 0.30512 0.46145
 C2258 C 0.85010 0.29833 0.46797
 C2259 C 0.83477 0.27655 0.47221
 C2260 C 0.82990 0.28048 0.48592
 C2261 C 0.81723 0.27471 0.49145
 C2262 C 0.80919 0.26477 0.48343
 C2263 C 0.81439 0.26037 0.46998
 C2264 C 0.82699 0.26623 0.46441
 H2265 H 0.87564 0.27631 0.44371
 H2266 H 0.86325 0.31650 0.46318
 H2267 H 0.81356 0.27830 0.50187
 H2268 H 0.80840 0.25285 0.46344
 H2269 H 0.84288 0.30471 0.47444
 H2270 H 0.83578 0.28818 0.49233
 H2271 H 0.85549 0.26445 0.45525
 H2272 H 0.83030 0.26308 0.45374
 C2273 C 0.84716 0.78356 -0.03477
 C2274 C 0.84937 0.79842 -0.03340
 C2275 C 0.86113 0.80503 -0.03989
 C2276 C 0.87097 0.79696 -0.04797
 C2277 C 0.86879 0.78209 -0.04929
 C2278 C 0.85704 0.77547 -0.04276
 C2279 C 0.83435 0.77667 -0.02826
 C2280 C 0.82680 0.76593 -0.03569
 C2281 C 0.81413 0.76024 -0.03008
 C2282 C 0.80867 0.76521 -0.01692
 C2283 C 0.81650 0.77556 -0.00924
 C2284 C 0.82921 0.78120 -0.01483
 H2285 H 0.86234 0.81652 -0.03873
 H2286 H 0.87619 0.77547 -0.05528
 H2287 H 0.80833 0.75236 -0.03635
 H2288 H 0.81265 0.77961 0.00094
 H2289 H 0.85576 0.76398 -0.04388
 H2290 H 0.83036 0.76231 -0.04613
 H2291 H 0.84182 0.80503 -0.02756
 H2292 H 0.83491 0.78925 -0.00869
 C2293 C -0.09538 -0.03532 -0.03669
 C2294 C -0.10414 -0.02762 -0.04623
 C2295 C -0.11595 -0.03418 -0.05271
 C2296 C -0.11938 -0.04853 -0.04966
 C2297 C -0.11068 -0.05622 -0.04009
 C2298 C -0.09880 -0.04971 -0.03372
 C2299 C -0.08251 -0.02854 -0.03017
 C2300 C -0.07827 -0.03197 -0.01611
 C2301 C -0.06568 -0.02626 -0.01034
 C2302 C -0.05713 -0.01685 -0.01842
 C2303 C -0.06157 -0.01312 -0.03233
 C2304 C -0.07407 -0.01895 -0.03815
 H2305 H -0.12250 -0.02790 -0.05994
 H2306 H -0.11289 -0.06735 -0.03769
 H2307 H -0.06255 -0.02938 0.00040
 H2308 H -0.05513 -0.00608 -0.03894
 H2309 H -0.09214 -0.05608 -0.02668
 H2310 H -0.08463 -0.03914 -0.00958
 H2311 H -0.10197 -0.01646 -0.04860
 H2312 H -0.07684 -0.01628 -0.04910
 C2313 C -0.09767 0.46681 0.46597
 C2314 C -0.10064 0.45224 0.46853
 C2315 C -0.11241 0.44557 0.46209
 C2316 C -0.12139 0.45327 0.45279
 C2317 C -0.11852 0.46785 0.45029
 C2318 C -0.10685 0.47456 0.45687
 C2319 C -0.08475 0.47372 0.47231
 C2320 C -0.07679 0.48378 0.46439
 C2321 C -0.06407 0.48947 0.46987
 C2322 C -0.05891 0.48513 0.48335
 C2323 C -0.06710 0.47544 0.49148
 C2324 C -0.07991 0.46987 0.48606
 H2325 H -0.11426 0.43429 0.46412
 H2326 H -0.12536 0.47415 0.44336
 H2327 H -0.05798 0.49681 0.46326
 H2328 H -0.06345 0.47192 0.50193
 H2329 H -0.10506 0.48586 0.45485
 H2330 H -0.08005 0.48684 0.45369
 H2331 H -0.09366 0.44585 0.47524
 H2332 H -0.08592 0.46239 0.49259
 C2333 C 0.40500 -0.03576 0.46312
 C2334 C 0.39717 -0.02867 0.45238
 C2335 C 0.38537 -0.03523 0.44590
 C2336 C 0.38082 -0.04900 0.45015
 C2337 C 0.38854 -0.05596 0.46113
 C2338 C 0.40050 -0.04948 0.46743
 C2339 C 0.41801 -0.02903 0.46950
 C2340 C 0.42171 -0.03136 0.48395
 C2341 C 0.43429 -0.02552 0.48967
 C2342 C 0.44334 -0.01704 0.48114
 C2343 C 0.43951 -0.01445 0.46680
 C2344 C 0.42708 -0.02046 0.46103
 H2345 H 0.37974 -0.02927 0.43770
 H2346 H 0.38564 -0.06658 0.46475
 H2347 H 0.43697 -0.02771 0.50076
 H2348 H 0.44638 -0.00818 0.45986
 H2349 H 0.40639 -0.05540 0.47548
 H2350 H 0.41490 -0.03770 0.49088
 H2351 H 0.40009 -0.01795 0.44901
 H2352 H 0.42482 -0.01869 0.44979
 C2353 C 0.40452 0.46410 -0.03667
 C2354 C 0.39997 0.45039 -0.03236
 C2355 C 0.38799 0.44393 -0.03865
 C2356 C 0.38030 0.45089 -0.04964
 C2357 C 0.38490 0.46463 -0.05393
 C2358 C 0.39672 0.47117 -0.04745
 C2359 C 0.41754 0.47082 -0.03024
 C2360 C 0.42661 0.47945 -0.03864
 C2361 C 0.43903 0.48542 -0.03282
 C2362 C 0.44288 0.48274 -0.01850
 C2363 C 0.43383 0.47419 -0.01003
 C2364 C 0.42124 0.46841 -0.01579
 H2365 H 0.38508 0.43332 -0.03502
 H2366 H 0.37930 0.47057 -0.06215
 H2367 H 0.44591 0.49174 -0.03972
 H2368 H 0.43652 0.47195 0.00104
 H2369 H 0.39967 0.48187 -0.05086
 H2370 H 0.42435 0.48130 -0.04987
 H2371 H 0.40585 0.44445 -0.02431
 H2372 H 0.41442 0.46204 -0.00890
 C2373 C 0.34512 0.46545 0.78661
 C2374 C 0.34825 0.45100 0.78357
 C2375 C 0.36005 0.44428 0.78986
 C2376 C 0.36892 0.45178 0.79945
 C2377 C 0.36580 0.46621 0.80252
 C2378 C 0.35407 0.47298 0.79613
 C2379 C 0.33238 0.47250 0.78011
 C2380 C 0.32409 0.48224 0.78810
 C2381 C 0.31168 0.48825 0.78227
 C2382 C 0.30720 0.48458 0.76835
 C2383 C 0.31567 0.47512 0.76022
 C2384 C 0.32815 0.46921 0.76601
 H2385 H 0.36204 0.43311 0.78739
 H2386 H 0.37252 0.47236 0.80971
 H2387 H 0.30531 0.49535 0.78890
 H2388 H 0.31255 0.47208 0.74945
 H2389 H 0.35212 0.48417 0.79854
 H2390 H 0.32689 0.48485 0.79906
 H2391 H 0.34142 0.44478 0.77654
 H2392 H 0.33443 0.46198 0.75945
 C2393 C 0.34566 -0.03505 0.28574
 C2394 C 0.34883 -0.04955 0.28305
 C2395 C 0.36068 -0.05607 0.28945
 C2396 C 0.36956 -0.04829 0.29881
 C2397 C 0.36643 -0.03379 0.30149
 C2398 C 0.35467 -0.02723 0.29497
 C2399 C 0.33279 -0.02822 0.27926
 C2400 C 0.32467 -0.01825 0.28713
 C2401 C 0.31220 -0.01234 0.28136
 C2402 C 0.30746 -0.01635 0.26762
 C2403 C 0.31571 -0.02610 0.25962
 C2404 C 0.32828 -0.03191 0.26534
 H2405 H 0.36272 -0.06730 0.28727
 H2406 H 0.37317 -0.02743 0.30848
 H2407 H 0.30601 -0.00500 0.28790
 H2408 H 0.31236 -0.02942 0.24900
 H2409 H 0.35271 -0.01598 0.29709
 H2410 H 0.32766 -0.01534 0.29796
 H2411 H 0.34197 -0.05599 0.27622
 H2412 H 0.33440 -0.03935 0.25887
 C2413 C 0.15278 0.53290 0.71502
 C2414 C 0.14988 0.54748 0.71766
 C2415 C 0.13812 0.55419 0.71130
 C2416 C 0.12903 0.54655 0.70203
 C2417 C 0.13189 0.53199 0.69938
 C2418 C 0.14358 0.52522 0.70585
 C2419 C 0.16561 0.52593 0.72144
 C2420 C 0.17367 0.51595 0.71351
 C2421 C 0.18634 0.51026 0.71908
 C2422 C 0.19134 0.51450 0.73267
 C2423 C 0.18302 0.52407 0.74081
 C2424 C 0.17027 0.52967 0.73529
 H2425 H 0.13633 0.56547 0.71344
 H2426 H 0.12499 0.52573 0.69244
 H2427 H 0.19254 0.50300 0.71245
 H2428 H 0.18652 0.52753 0.75134
 H2429 H 0.14535 0.51394 0.70375
 H2430 H 0.17051 0.51295 0.70275
 H2431 H 0.15690 0.55382 0.72441
 H2432 H 0.16418 0.53709 0.74182
 C2433 C 0.15294 0.03352 0.21538
 C2434 C 0.15028 0.03189 0.20061
 C2435 C 0.13838 0.03838 0.19423
 C2436 C 0.12893 0.04677 0.20243
 C2437 C 0.13152 0.04834 0.21719
 C2438 C 0.14333 0.04173 0.22360
 C2439 C 0.16594 0.02712 0.22206
 C2440 C 0.17343 0.03459 0.23282
 C2441 C 0.18608 0.02905 0.23855
 C2442 C 0.19167 0.01594 0.23359
 C2443 C 0.18402 0.00828 0.22309
 C2444 C 0.17127 0.01377 0.21745
 H2445 H 0.13676 0.03705 0.18281
 H2446 H 0.12434 0.05454 0.22387
 H2447 H 0.19177 0.03534 0.24650
 H2448 H 0.18802 -0.00185 0.21904
 H2449 H 0.14487 0.04301 0.23503
 H2450 H 0.16981 0.04500 0.23647
 H2451 H 0.15758 0.02587 0.19389
 H2452 H 0.16565 0.00760 0.20937
 C2453 C 0.59566 0.71475 0.21440
 C2454 C 0.59814 0.69996 0.21607
 C2455 C 0.60996 0.69341 0.20960
 C2456 C 0.61949 0.70144 0.20116
 C2457 C 0.61705 0.71621 0.19947
 C2458 C 0.60532 0.72280 0.20608
 C2459 C 0.58283 0.72165 0.22097
 C2460 C 0.57540 0.73253 0.21363
 C2461 C 0.56296 0.73851 0.21941
 C2462 C 0.55752 0.73370 0.23262
 C2463 C 0.56510 0.72305 0.24012
 C2464 C 0.57764 0.71715 0.23439
 H2465 H 0.61146 0.68198 0.21099
 H2466 H 0.62431 0.72274 0.19322
 H2467 H 0.55735 0.74660 0.21327
 H2468 H 0.56123 0.71909 0.25032
 H2469 H 0.60392 0.73425 0.20476
 H2470 H 0.57892 0.73611 0.20318
 H2471 H 0.59079 0.69336 0.22215
 H2472 H 0.58322 0.70899 0.24047
 C2473 C 0.09743 0.71685 0.71552
 C2474 C 0.10049 0.70232 0.71819
 C2475 C 0.11229 0.69569 0.71178
 C2476 C 0.12125 0.70338 0.70243
 C2477 C 0.11827 0.71792 0.69983
 C2478 C 0.10655 0.72459 0.70635
 C2479 C 0.08449 0.72372 0.72186
 C2480 C 0.07639 0.73361 0.71386
 C2481 C 0.06367 0.73927 0.71936
 C2482 C 0.05864 0.73510 0.73294
 C2483 C 0.06695 0.72558 0.74114
 C2484 C 0.07975 0.72001 0.73569
 H2485 H 0.11419 0.68444 0.71391
 H2486 H 0.12506 0.72422 0.69285
 H2487 H 0.05749 0.74649 0.71269
 H2488 H 0.06343 0.72218 0.75166
 H2489 H 0.10468 0.73586 0.70424
 H2490 H 0.07957 0.73657 0.70311
 H2491 H 0.09357 0.69594 0.72497
 H2492 H 0.08586 0.71266 0.74226
 C2493 C 0.65462 0.21504 0.53554
 C2494 C 0.65147 0.20050 0.53298
 C2495 C 0.63955 0.19401 0.53934
 C2496 C 0.63054 0.20187 0.54851
 C2497 C 0.63363 0.21641 0.55102
 C2498 C 0.64548 0.22293 0.54458
 C2499 C 0.66758 0.22182 0.52915
 C2500 C 0.67565 0.23185 0.53703
 C2501 C 0.68821 0.23770 0.53136
 C2502 C 0.69311 0.23358 0.51770
 C2503 C 0.68490 0.22379 0.50969
 C2504 C 0.67225 0.21803 0.51532
 H2505 H 0.63757 0.18276 0.53726
 H2506 H 0.62683 0.22286 0.55786
 H2507 H 0.69434 0.24508 0.53792
 H2508 H 0.68834 0.22040 0.49912
 H2509 H 0.64741 0.23421 0.54660
 H2510 H 0.67253 0.23485 0.54781
 H2511 H 0.65840 0.19401 0.52630
 H2512 H 0.66617 0.21055 0.50884
 C2513 C 0.65466 0.71521 0.03618
 C2514 C 0.65160 0.70066 0.03355
 C2515 C 0.63964 0.69412 0.03975
 C2516 C 0.63050 0.70194 0.04882
 C2517 C 0.63355 0.71647 0.05147
 C2518 C 0.64546 0.72304 0.04519
 C2519 C 0.66756 0.72207 0.02980
 C2520 C 0.67569 0.73200 0.03773
 C2521 C 0.68821 0.73790 0.03203
 C2522 C 0.69296 0.73394 0.01827
 C2523 C 0.68467 0.72427 0.01020
 C2524 C 0.67209 0.71845 0.01587
 H2525 H 0.63772 0.68288 0.03761
 H2526 H 0.62665 0.72288 0.05825
 H2527 H 0.69441 0.74520 0.03861
 H2528 H 0.68800 0.72102 -0.00044
 H2529 H 0.64736 0.73431 0.04728
 H2530 H 0.67264 0.73487 0.04856
 H2531 H 0.65862 0.69423 0.02690
 H2532 H 0.66594 0.71105 0.00936
 C2533 C 0.09697 0.03318 0.03487
 C2534 C 0.10630 0.02542 0.04380
 C2535 C 0.11804 0.03215 0.05026
 C2536 C 0.12080 0.04677 0.04785
 C2537 C 0.11159 0.05450 0.03879
 C2538 C 0.09978 0.04781 0.03244
 C2539 C 0.08409 0.02623 0.02850
 C2540 C 0.07927 0.03008 0.01474
 C2541 C 0.06652 0.02443 0.00925
 C2542 C 0.05833 0.01470 0.01734
 C2543 C 0.06346 0.01039 0.03085
 C2544 C 0.07615 0.01612 0.03638
 H2545 H 0.12503 0.02582 0.05701
 H2546 H 0.11331 0.06581 0.03682
 H2547 H 0.06291 0.02794 -0.00121
 H2548 H 0.05738 0.00301 0.03743
 H2549 H 0.09267 0.05420 0.02587
 H2550 H 0.08527 0.03760 0.00825
 H2551 H 0.10460 0.01410 0.04574
 H2552 H 0.07942 0.01304 0.04707
 C2553 C 0.09491 0.53550 0.53635
 C2554 C 0.09778 0.55014 0.53404
 C2555 C 0.10961 0.55674 0.54046
 C2556 C 0.11880 0.54892 0.54946
 C2557 C 0.11594 0.53431 0.55181
 C2558 C 0.10418 0.52767 0.54529
 C2559 C 0.08215 0.52856 0.52971
 C2560 C 0.07422 0.51822 0.53730
 C2561 C 0.06184 0.51222 0.53138
 C2562 C 0.05699 0.51647 0.51775
 C2563 C 0.06507 0.52657 0.51002
 C2564 C 0.07753 0.53248 0.51589
 H2565 H 0.11139 0.56805 0.53853
 H2566 H 0.12288 0.52790 0.55853
 H2567 H 0.05579 0.50461 0.53773
 H2568 H 0.06165 0.53008 0.49949
 H2569 H 0.10245 0.51634 0.54714
 H2570 H 0.07730 0.51510 0.54804
 H2571 H 0.09073 0.55659 0.52746
 H2572 H 0.08352 0.54020 0.50962
 C2573 C 0.59705 0.03451 0.53435
 C2574 C 0.60043 0.03162 0.54877
 C2575 C 0.61241 0.03792 0.55521
 C2576 C 0.62118 0.04738 0.54745
 C2577 C 0.61784 0.05025 0.53306
 C2578 C 0.60598 0.04382 0.52656
 C2579 C 0.58399 0.02825 0.52764
 C2580 C 0.57587 0.03633 0.51785
 C2581 C 0.56318 0.03085 0.51213
 C2582 C 0.55817 0.01722 0.51618
 C2583 C 0.56641 0.00898 0.52571
 C2584 C 0.57923 0.01440 0.53130
 H2585 H 0.61462 0.03559 0.56636
 H2586 H 0.62449 0.05733 0.52671
 H2587 H 0.55701 0.03757 0.50495
 H2588 H 0.56286 -0.00157 0.52901
 H2589 H 0.60388 0.04609 0.51537
 H2590 H 0.57902 0.04712 0.51497
 H2591 H 0.59366 0.02474 0.55520
 H2592 H 0.58534 0.00776 0.53859
 C2593 C 0.59681 0.53445 0.03386
 C2594 C 0.60606 0.54346 0.02605
 C2595 C 0.61774 0.55006 0.03274
 C2596 C 0.62056 0.54768 0.04734
 C2597 C 0.61147 0.53853 0.05510
 C2598 C 0.59969 0.53206 0.04847
 C2599 C 0.58392 0.52803 0.02696
 C2600 C 0.57899 0.51433 0.03094
 C2601 C 0.56623 0.50884 0.02529
 C2602 C 0.55817 0.51686 0.01541
 C2603 C 0.56340 0.53029 0.01099
 C2604 C 0.57606 0.53584 0.01674
 H2605 H 0.62465 0.55688 0.02640
 H2606 H 0.61326 0.53659 0.06640
 H2607 H 0.56254 0.49844 0.02890
 H2608 H 0.55742 0.53683 0.00350
 H2609 H 0.59266 0.52543 0.05490
 H2610 H 0.58491 0.50789 0.03856
 H2611 H 0.60434 0.54535 0.01474
 H2612 H 0.57937 0.54650 0.01356
 C2613 C 0.03317 0.03330 0.09772
 C2614 C 0.04771 0.03069 0.10070
 C2615 C 0.05436 0.03709 0.11252
 C2616 C 0.04666 0.04636 0.12155
 C2617 C 0.03210 0.04888 0.11866
 C2618 C 0.02542 0.04238 0.10693
 C2619 C 0.02628 0.02703 0.08476
 C2620 C 0.01639 0.03508 0.07674
 C2621 C 0.01067 0.02964 0.06401
 C2622 C 0.01479 0.01605 0.05893
 C2623 C 0.02433 0.00780 0.06717
 C2624 C 0.02995 0.01320 0.07997
 H2625 H 0.06562 0.03502 0.11437
 H2626 H 0.02578 0.05578 0.12552
 H2627 H 0.00347 0.03635 0.05786
 H2628 H 0.02770 -0.00272 0.06358
 H2629 H 0.01415 0.04443 0.10512
 H2630 H 0.01347 0.04585 0.07997
 H2631 H 0.05409 0.02397 0.09369
 H2632 H 0.03732 0.00660 0.08603
 C2633 C 0.03522 0.53491 0.59575
 C2634 C 0.02728 0.54403 0.60477
 C2635 C 0.03368 0.55051 0.61668
 C2636 C 0.04813 0.54791 0.61997
 C2637 C 0.05604 0.53864 0.61110
 C2638 C 0.04968 0.53228 0.59909
 C2639 C 0.02857 0.52853 0.58269
 C2640 C 0.03236 0.51469 0.57798
 C2641 C 0.02661 0.50904 0.56532
 C2642 C 0.01680 0.51704 0.55715
 C2643 C 0.01275 0.53073 0.56205
 C2644 C 0.01861 0.53642 0.57460
 H2645 H 0.02721 0.55742 0.62340
 H2646 H 0.06723 0.53651 0.61324
 H2647 H 0.02996 0.49847 0.56185
 H2648 H 0.00539 0.53729 0.55593
 H2649 H 0.05621 0.52554 0.59225
 H2650 H 0.03982 0.50821 0.58406
 H2651 H 0.01606 0.54610 0.60270
 H2652 H 0.01564 0.54720 0.57770
 C2653 C 0.53354 0.03522 0.59704
 C2654 C 0.52650 0.04588 0.60505
 C2655 C 0.53319 0.05237 0.61681
 C2656 C 0.54705 0.04820 0.62112
 C2657 C 0.55395 0.03730 0.61323
 C2658 C 0.54735 0.03101 0.60131
 C2659 C 0.52673 0.02889 0.58400
 C2660 C 0.52938 0.01456 0.57996
 C2661 C 0.52381 0.00902 0.56716
 C2662 C 0.51525 0.01759 0.55822
 C2663 C 0.51215 0.03171 0.56250
 C2664 C 0.51790 0.03732 0.57514
 H2665 H 0.52727 0.06050 0.62258
 H2666 H 0.56464 0.03376 0.61594
 H2667 H 0.52637 -0.00191 0.56416
 H2668 H 0.50576 0.03868 0.55576
 H2669 H 0.55328 0.02308 0.59526
 H2670 H 0.53585 0.00763 0.58663
 H2671 H 0.51573 0.04921 0.60232
 H2672 H 0.51581 0.04846 0.57767
 C2673 C 0.53398 0.53445 0.09684
 C2674 C 0.53193 0.54917 0.09952
 C2675 C 0.53852 0.55583 0.11124
 C2676 C 0.54742 0.54798 0.12049
 C2677 C 0.54939 0.53326 0.11790
 C2678 C 0.54270 0.52657 0.10627
 C2679 C 0.52750 0.52752 0.08397
 C2680 C 0.53511 0.51700 0.07628
 C2681 C 0.52953 0.51120 0.06364
 C2682 C 0.51624 0.51586 0.05826
 C2683 C 0.50841 0.52603 0.06617
 C2684 C 0.51394 0.53174 0.07890
 H2685 H 0.53687 0.56722 0.11284
 H2686 H 0.55601 0.52683 0.12492
 H2687 H 0.53593 0.50349 0.05778
 H2688 H 0.49813 0.52984 0.06237
 H2689 H 0.54433 0.51517 0.10471
 H2690 H 0.54566 0.51362 0.07971
 H2691 H 0.52552 0.55566 0.09236
 H2692 H 0.50765 0.53959 0.08469
 C2693 C 0.21637 0.53442 0.65246
 C2694 C 0.22416 0.54341 0.64322
 C2695 C 0.21754 0.54981 0.63140
 C2696 C 0.20299 0.54728 0.62846
 C2697 C 0.19523 0.53811 0.63755
 C2698 C 0.20182 0.53181 0.64944
 C2699 C 0.22322 0.52816 0.66545
 C2700 C 0.21947 0.51436 0.67026
 C2701 C 0.22512 0.50894 0.68303
 C2702 C 0.23475 0.51714 0.69126
 C2703 C 0.23892 0.53071 0.68617
 C2704 C 0.23318 0.53617 0.67346
 H2705 H 0.22389 0.55665 0.62452
 H2706 H 0.18397 0.53604 0.63569
 H2707 H 0.22170 0.49844 0.68661
 H2708 H 0.24620 0.53738 0.69229
 H2709 H 0.19540 0.52517 0.65647
 H2710 H 0.21204 0.50779 0.66422
 H2711 H 0.23543 0.54547 0.64506
 H2712 H 0.23617 0.54691 0.67022
 C2713 C 0.21683 0.03364 0.15226
 C2714 C 0.20238 0.03083 0.14900
 C2715 C 0.19591 0.03705 0.13701
 C2716 C 0.20368 0.04635 0.12806
 C2717 C 0.21815 0.04907 0.13124
 C2718 C 0.22466 0.04274 0.14315
 C2719 C 0.22354 0.02751 0.16538
 C2720 C 0.23333 0.03565 0.17348
 C2721 C 0.23896 0.03030 0.18628
 C2722 C 0.23485 0.01672 0.19138
 C2723 C 0.22538 0.00840 0.18309
 C2724 C 0.21985 0.01371 0.17021
 H2725 H 0.18471 0.03482 0.13496
 H2726 H 0.22452 0.05600 0.12447
 H2727 H 0.24611 0.03707 0.19245
 H2728 H 0.22201 -0.00211 0.18669
 H2729 H 0.23587 0.04496 0.14517
 H2730 H 0.23626 0.04641 0.17024
 H2731 H 0.19594 0.02410 0.15591
 H2732 H 0.21256 0.00703 0.16411
 C2733 C 0.71506 0.21434 0.59587
 C2734 C 0.72305 0.20548 0.60509
 C2735 C 0.71666 0.19924 0.61713
 C2736 C 0.70218 0.20182 0.62030
 C2737 C 0.69422 0.21076 0.61118
 C2738 C 0.70056 0.21689 0.59907
 C2739 C 0.72173 0.22065 0.58281
 C2740 C 0.71785 0.23443 0.57806
 C2741 C 0.72360 0.24006 0.56541
 C2742 C 0.73348 0.23209 0.55729
 C2743 C 0.73762 0.21846 0.56221
 C2744 C 0.73177 0.21279 0.57478
 H2745 H 0.72314 0.19255 0.62403
 H2746 H 0.68299 0.21284 0.61320
 H2747 H 0.72017 0.25059 0.56193
 H2748 H 0.74505 0.21193 0.55612
 H2749 H 0.69400 0.22341 0.59207
 H2750 H 0.71033 0.24089 0.58410
 H2751 H 0.73430 0.20347 0.60311
 H2752 H 0.73482 0.20205 0.57795
 C2753 C 0.71530 0.71506 0.09622
 C2754 C 0.72335 0.70659 0.10573
 C2755 C 0.71691 0.70035 0.11772
 C2756 C 0.70229 0.70253 0.12058
 C2757 C 0.69426 0.71114 0.11121
 C2758 C 0.70067 0.71727 0.09913
 C2759 C 0.72205 0.72133 0.08319
 C2760 C 0.71798 0.73497 0.07823
 C2761 C 0.72378 0.74054 0.06559
 C2762 C 0.73388 0.73266 0.05765
 C2763 C 0.73826 0.71919 0.06282
 C2764 C 0.73237 0.71358 0.07540
 H2765 H 0.72346 0.69395 0.12484
 H2766 H 0.68294 0.71290 0.11301
 H2767 H 0.72016 0.75095 0.06194
 H2768 H 0.74591 0.71276 0.05692
 H2769 H 0.69407 0.72351 0.09190
 H2770 H 0.71025 0.74135 0.08409
 H2771 H 0.73469 0.70487 0.10398
 H2772 H 0.73561 0.70295 0.07877
 C2773 C 0.53580 0.71547 0.15395
 C2774 C 0.54422 0.72355 0.14441
 C2775 C 0.55055 0.71705 0.13247
 C2776 C 0.54850 0.70237 0.12974
 C2777 C 0.54002 0.69431 0.13920
 C2778 C 0.53380 0.70077 0.15120
 C2779 C 0.52938 0.72225 0.16689
 C2780 C 0.51578 0.71802 0.17183
 C2781 C 0.51013 0.72378 0.18446
 C2782 C 0.51787 0.73402 0.19238
 C2783 C 0.53127 0.73858 0.18720
 C2784 C 0.53698 0.73273 0.17465
 H2785 H 0.55688 0.72360 0.12529
 H2786 H 0.53838 0.68294 0.13750
 H2787 H 0.49976 0.72005 0.18812
 H2788 H 0.53759 0.74635 0.19309
 H2789 H 0.52764 0.69415 0.15849
 H2790 H 0.50952 0.71018 0.16598
 H2791 H 0.54580 0.73493 0.14606
 H2792 H 0.54756 0.73609 0.17128
 C2793 C 0.03339 0.71492 0.65308
 C2794 C 0.04797 0.71753 0.65032
 C2795 C 0.05478 0.71112 0.63861
 C2796 C 0.04722 0.70184 0.62947
 C2797 C 0.03264 0.69923 0.63219
 C2798 C 0.02579 0.70575 0.64382
 C2799 C 0.02632 0.72138 0.66584
 C2800 C 0.02998 0.73527 0.67048
 C2801 C 0.02429 0.74084 0.68318
 C2802 C 0.01471 0.73270 0.69148
 C2803 C 0.01054 0.71907 0.68651
 C2804 C 0.01632 0.71346 0.67387
 H2805 H 0.06606 0.71323 0.63693
 H2806 H 0.02645 0.69228 0.62525
 H2807 H 0.02769 0.75139 0.68666
 H2808 H 0.00328 0.71245 0.69269
 H2809 H 0.01450 0.70366 0.64550
 H2810 H 0.03741 0.74178 0.66440
 H2811 H 0.05424 0.72428 0.65739
 H2812 H 0.01339 0.70267 0.67073
 C2813 C 0.53527 0.65481 0.21414
 C2814 C 0.53302 0.65173 0.19954
 C2815 C 0.53928 0.63967 0.19319
 C2816 C 0.54804 0.63046 0.20125
 C2817 C 0.55024 0.63348 0.21586
 C2818 C 0.54389 0.64547 0.22223
 C2819 C 0.52896 0.66789 0.22080
 C2820 C 0.53673 0.67580 0.23103
 C2821 C 0.53111 0.68841 0.23686
 C2822 C 0.51761 0.69350 0.23252
 C2823 C 0.50972 0.68547 0.22248
 C2824 C 0.51530 0.67279 0.21674
 H2825 H 0.53747 0.63776 0.18188
 H2826 H 0.55676 0.62653 0.22245
 H2827 H 0.53757 0.69441 0.24443
 H2828 H 0.49928 0.68908 0.21891
 H2829 H 0.54566 0.64735 0.23355
 H2830 H 0.54738 0.67251 0.23424
 H2831 H 0.52666 0.65882 0.19291
 H2832 H 0.50891 0.66683 0.20908
 C2833 C 0.03468 0.65274 0.71691
 C2834 C 0.03206 0.64984 0.70233
 C2835 C 0.03844 0.63807 0.69558
 C2836 C 0.04771 0.62899 0.70321
 C2837 C 0.05029 0.63183 0.71778
 C2838 C 0.04381 0.64352 0.72457
 C2839 C 0.02830 0.66560 0.72391
 C2840 C 0.03624 0.67362 0.73393
 C2841 C 0.03072 0.68632 0.73968
 C2842 C 0.01717 0.69137 0.73546
 C2843 C 0.00901 0.68309 0.72584
 C2844 C 0.01449 0.67033 0.72019
 H2845 H 0.03634 0.63629 0.68431
 H2846 H 0.05721 0.62494 0.72403
 H2847 H 0.03735 0.69247 0.74697
 H2848 H -0.00149 0.68663 0.72241
 H2849 H 0.04588 0.64527 0.73586
 H2850 H 0.04698 0.67042 0.73692
 H2851 H 0.02533 0.65686 0.69601
 H2852 H 0.00795 0.66426 0.71275
 C2853 C 0.03439 0.09694 0.03348
 C2854 C 0.02632 0.10648 0.04195
 C2855 C 0.03285 0.11824 0.04860
 C2856 C 0.04756 0.12084 0.04679
 C2857 C 0.05559 0.11147 0.03816
 C2858 C 0.04911 0.09962 0.03165
 C2859 C 0.02764 0.08395 0.02705
 C2860 C 0.03213 0.07867 0.01364
 C2861 C 0.02655 0.06584 0.00818
 C2862 C 0.01622 0.05809 0.01593
 C2863 C 0.01133 0.06366 0.02907
 C2864 C 0.01702 0.07637 0.03459
 H2865 H 0.02632 0.12537 0.05501
 H2866 H 0.06698 0.11309 0.03667
 H2867 H 0.03052 0.06186 -0.00199
 H2868 H 0.00351 0.05790 0.03543
 H2869 H 0.05573 0.09236 0.02547
 H2870 H 0.04009 0.08436 0.00741
 H2871 H 0.01492 0.10491 0.04340
 H2872 H 0.01346 0.07995 0.04504
 C2873 C 0.03577 0.59530 0.53588
 C2874 C 0.04489 0.60431 0.52793
 C2875 C 0.05136 0.61621 0.53433
 C2876 C 0.04875 0.61951 0.54880
 C2877 C 0.03949 0.61066 0.55671
 C2878 C 0.03313 0.59865 0.55035
 C2879 C 0.02934 0.58229 0.52920
 C2880 C 0.01548 0.57770 0.53296
 C2881 C 0.00976 0.56510 0.52716
 C2882 C 0.01770 0.55689 0.51733
 C2883 C 0.03142 0.56165 0.51332
 C2884 C 0.03719 0.57414 0.51924
 H2885 H 0.05827 0.62293 0.52787
 H2886 H 0.03736 0.61282 0.56791
 H2887 H -0.00084 0.56173 0.53048
 H2888 H 0.03793 0.55547 0.50595
 H2889 H 0.02639 0.59183 0.55688
 H2890 H 0.00904 0.58383 0.54042
 H2891 H 0.04696 0.60223 0.51669
 H2892 H 0.04800 0.57716 0.51630
 C2893 C 0.53384 0.09816 0.53296
 C2894 C 0.52588 0.10792 0.54125
 C2895 C 0.53257 0.11962 0.54782
 C2896 C 0.54737 0.12191 0.54618
 C2897 C 0.55530 0.11232 0.53770
 C2898 C 0.54863 0.10054 0.53122
 C2899 C 0.52688 0.08526 0.52660
 C2900 C 0.53125 0.07996 0.51317
 C2901 C 0.52553 0.06720 0.50775
 C2902 C 0.51521 0.05949 0.51557
 C2903 C 0.51040 0.06511 0.52871
 C2904 C 0.51621 0.07780 0.53419
 H2905 H 0.52609 0.12691 0.55410
 H2906 H 0.56673 0.11369 0.53634
 H2907 H 0.52945 0.06320 0.49757
 H2908 H 0.50257 0.05939 0.53510
 H2909 H 0.55515 0.09310 0.52515
 H2910 H 0.53924 0.08558 0.50691
 H2911 H 0.51444 0.10657 0.54262
 H2912 H 0.51271 0.08144 0.54464
 C2913 C 0.53380 0.59733 0.03402
 C2914 C 0.52612 0.60672 0.04299
 C2915 C 0.53300 0.61822 0.04972
 C2916 C 0.54768 0.62071 0.04753
 C2917 C 0.55532 0.61151 0.03838
 C2918 C 0.54848 0.59992 0.03176
 C2919 C 0.52670 0.58459 0.02751
 C2920 C 0.53066 0.57966 0.01381
 C2921 C 0.52491 0.56695 0.00828
 C2922 C 0.51495 0.55895 0.01626
 C2923 C 0.51049 0.56422 0.02966
 C2924 C 0.51634 0.57684 0.03525
 H2925 H 0.52674 0.62523 0.05653
 H2926 H 0.56667 0.61305 0.03657
 H2927 H 0.52854 0.56323 -0.00211
 H2928 H 0.50293 0.55827 0.03616
 H2929 H 0.55481 0.59277 0.02516
 H2930 H 0.53837 0.58552 0.00742
 H2931 H 0.51476 0.60523 0.04478
 H2932 H 0.51315 0.58018 0.04590
 C2933 C 0.71421 0.15448 0.53524
 C2934 C 0.71643 0.15167 0.54989
 C2935 C 0.71001 0.13982 0.55644
 C2936 C 0.70114 0.13054 0.54852
 C2937 C 0.69892 0.13335 0.53388
 C2938 C 0.70542 0.14514 0.52731
 C2939 C 0.72076 0.16729 0.52837
 C2940 C 0.71305 0.17526 0.51816
 C2941 C 0.71886 0.18773 0.51226
 C2942 C 0.73248 0.19261 0.51649
 C2943 C 0.74034 0.18446 0.52643
 C2944 C 0.73457 0.17191 0.53225
 H2945 H 0.71184 0.13808 0.56776
 H2946 H 0.69232 0.12636 0.52739
 H2947 H 0.71244 0.19382 0.50475
 H2948 H 0.75088 0.18788 0.52989
 H2949 H 0.70365 0.14686 0.51597
 H2950 H 0.70231 0.17214 0.51508
 H2951 H 0.72292 0.15878 0.55638
 H2952 H 0.74091 0.16588 0.53987
 C2953 C 0.71394 0.65443 0.03468
 C2954 C 0.72215 0.64494 0.04303
 C2955 C 0.71582 0.63302 0.04953
 C2956 C 0.70117 0.63017 0.04768
 C2957 C 0.69297 0.63947 0.03914
 C2958 C 0.69926 0.65151 0.03278
 C2959 C 0.72056 0.66751 0.02833
 C2960 C 0.71609 0.67275 0.01491
 C2961 C 0.72187 0.68543 0.00934
 C2962 C 0.73237 0.69308 0.01699
 C2963 C 0.73709 0.68765 0.03023
 C2964 C 0.73121 0.67509 0.03586
 H2965 H 0.72248 0.62594 0.05586
 H2966 H 0.68162 0.63764 0.03761
 H2967 H 0.71801 0.68931 -0.00090
 H2968 H 0.74504 0.69333 0.03651
 H2969 H 0.69254 0.65870 0.02664
 H2970 H 0.70809 0.66707 0.00869
 H2971 H 0.73353 0.64665 0.04449
 H2972 H 0.73473 0.67157 0.04634
 C2973 C 0.21511 0.59747 0.71680
 C2974 C 0.21788 0.60046 0.70228
 C2975 C 0.21156 0.61225 0.69556
 C2976 C 0.20219 0.62128 0.70314
 C2977 C 0.19941 0.61834 0.71765
 C2978 C 0.20585 0.60662 0.72442
 C2979 C 0.22147 0.58459 0.72376
 C2980 C 0.21349 0.57647 0.73364
 C2981 C 0.21901 0.56376 0.73932
 C2982 C 0.23261 0.55878 0.73517
 C2983 C 0.24081 0.56715 0.72570
 C2984 C 0.23534 0.57993 0.72012
 H2985 H 0.21381 0.61410 0.68433
 H2986 H 0.19240 0.62519 0.72386
 H2987 H 0.21235 0.55753 0.74650
 H2988 H 0.25136 0.56367 0.72232
 H2989 H 0.20364 0.60480 0.73567
 H2990 H 0.20271 0.57961 0.73656
 H2991 H 0.22470 0.59349 0.69598
 H2992 H 0.24191 0.58607 0.71279
 C2993 C 0.21586 0.09718 0.21627
 C2994 C 0.21815 0.09988 0.20161
 C2995 C 0.21169 0.11162 0.19490
 C2996 C 0.20269 0.12087 0.20266
 C2997 C 0.20050 0.11826 0.21734
 C2998 C 0.20704 0.10660 0.22407
 C2999 C 0.22224 0.08433 0.22326
 C3000 C 0.21441 0.07650 0.23349
 C3001 C 0.21995 0.06386 0.23930
 C3002 C 0.23341 0.05867 0.23495
 C3003 C 0.24145 0.06675 0.22509
 C3004 C 0.23595 0.07946 0.21936
 H3005 H 0.21351 0.11325 0.18355
 H3006 H 0.19381 0.12528 0.22371
 H3007 H 0.21340 0.05784 0.24677
 H3008 H 0.25187 0.06309 0.22153
 H3009 H 0.20524 0.10500 0.23543
 H3010 H 0.20374 0.07981 0.23661
 H3011 H 0.22465 0.09271 0.19520
 H3012 H 0.24239 0.08537 0.21173
 C3013 C 0.71563 1.09713 0.71597
 C3014 C 0.72362 1.10657 0.70733
 C3015 C 0.71708 1.11837 0.70081
 C3016 C 0.70243 1.12112 0.70291
 C3017 C 0.69448 1.11184 0.71171
 C3018 C 0.70098 1.09996 0.71810
 C3019 C 0.72239 1.08414 0.72234
 C3020 C 0.71809 1.07901 0.73586
 C3021 C 0.72365 1.06619 0.74130
 C3022 C 0.73376 1.05827 0.73341
 C3023 C 0.73846 1.06368 0.72015
 C3024 C 0.73280 1.07640 0.71465
 H3025 H 0.72355 1.12542 0.69425
 H3026 H 0.68314 1.11356 0.71342
 H3027 H 0.71983 1.06235 0.75157
 H3028 H 0.74612 1.05779 0.71370
 H3029 H 0.69441 1.09279 0.72443
 H3030 H 0.71031 1.08482 0.74221
 H3031 H 0.73497 1.10489 0.70565
 H3032 H 0.73621 1.07986 0.70412
 C3033 C 0.71645 0.59726 0.21571
 C3034 C 0.72422 0.60670 0.20691
 C3035 C 0.71744 0.61832 0.20032
 C3036 C 0.70275 0.62085 0.20247
 C3037 C 0.69501 0.61154 0.21142
 C3038 C 0.70176 0.59986 0.21792
 C3039 C 0.72346 0.58447 0.22216
 C3040 C 0.71949 0.57959 0.23585
 C3041 C 0.72517 0.56687 0.24136
 C3042 C 0.73506 0.55879 0.23335
 C3043 C 0.73952 0.56401 0.21994
 C3044 C 0.73376 0.57666 0.21439
 H3045 H 0.72378 0.62538 0.19365
 H3046 H 0.68366 0.61308 0.21319
 H3047 H 0.72154 0.56319 0.25175
 H3048 H 0.74703 0.55801 0.21341
 H3049 H 0.69537 0.59265 0.22439
 H3050 H 0.71182 0.58550 0.24226
 H3051 H 0.73558 0.60517 0.20515
 H3052 H 0.73695 0.57999 0.20374
 C3053 C 0.53436 0.15237 0.71655
 C3054 C 0.54513 0.14450 0.72355
 C3055 C 0.55148 0.13263 0.71697
 C3056 C 0.54709 0.12804 0.70324
 C3057 C 0.53604 0.13573 0.69639
 C3058 C 0.52987 0.14778 0.70289
 C3059 C 0.52821 0.16555 0.72324
 C3060 C 0.51384 0.16948 0.72090
 C3061 C 0.50840 0.18232 0.72646
 C3062 C 0.51714 0.19143 0.73471
 C3063 C 0.53135 0.18729 0.73746
 C3064 C 0.53684 0.17459 0.73172
 H3065 H 0.55971 0.12701 0.72287
 H3066 H 0.53231 0.13278 0.68582
 H3067 H 0.49740 0.18521 0.72416
 H3068 H 0.53845 0.19417 0.74358
 H3069 H 0.52181 0.15369 0.69701
 H3070 H 0.50677 0.16268 0.71468
 H3071 H 0.54866 0.14746 0.73421
 H3072 H 0.54803 0.17214 0.73355
 C3073 C 1.03325 0.15236 0.21612
 C3074 C 1.02553 0.14333 0.20681
 C3075 C 1.03211 0.13147 0.20044
 C3076 C 1.04650 0.12822 0.20338
 C3077 C 1.05418 0.13707 0.21285
 C3078 C 1.04766 0.14905 0.21908
 C3079 C 1.02646 0.16541 0.22233
 C3080 C 1.03010 0.17021 0.23617
 C3081 C 1.02454 0.18306 0.24153
 C3082 C 1.01508 0.19134 0.23324
 C3083 C 1.01099 0.18626 0.21965
 C3084 C 1.01667 0.17351 0.21423
 H3085 H 1.02582 0.12475 0.19336
 H3086 H 1.06533 0.13493 0.21522
 H3087 H 1.02787 0.18665 0.25207
 H3088 H 1.00384 0.19245 0.21290
 H3089 H 1.05404 0.15590 0.22595
 H3090 H 1.03737 0.16410 0.24284
 H3091 H 1.01436 0.14537 0.20447
 H3092 H 1.01377 0.17031 0.20345
 C3093 C 0.21434 0.65462 0.53507
 C3094 C 0.22246 0.64490 0.54323
 C3095 C 0.21594 0.63308 0.54973
 C3096 C 0.20118 0.63062 0.54812
 C3097 C 0.19307 0.64022 0.53983
 C3098 C 0.19956 0.65212 0.53344
 C3099 C 0.22118 0.66750 0.52858
 C3100 C 0.21670 0.67265 0.51514
 C3101 C 0.22255 0.68524 0.50947
 C3102 C 0.23310 0.69290 0.51704
 C3103 C 0.23790 0.68750 0.53026
 C3104 C 0.23197 0.67500 0.53599
 H3105 H 0.22254 0.62578 0.55586
 H3106 H 0.18165 0.63872 0.53851
 H3107 H 0.21863 0.68907 0.49923
 H3108 H 0.24591 0.69319 0.53646
 H3109 H 0.19293 0.65953 0.52747
 H3110 H 0.20861 0.66701 0.50902
 H3111 H 0.23390 0.64634 0.54450
 H3112 H 0.23552 0.67148 0.54646
 C3113 C 0.21642 0.15244 1.03353
 C3114 C 0.20173 0.14978 1.03139
 C3115 C 0.19507 0.13802 1.03787
 C3116 C 0.20290 0.12871 1.04673
 C3117 C 0.21760 0.13129 1.04878
 C3118 C 0.22429 0.14296 1.04220
 C3119 C 0.22335 0.16535 1.02721
 C3120 C 0.23370 0.17305 1.03502
 C3121 C 0.23947 0.18575 1.02960
 C3122 C 0.23494 0.19116 1.01628
 C3123 C 0.22494 0.18323 1.00824
 C3124 C 0.21926 0.17044 1.01362
 H3125 H 0.18371 0.13642 1.03617
 H3126 H 0.22401 0.12422 1.05536
 H3127 H 0.24705 0.19163 1.03615
 H3128 H 0.22125 0.18706 0.99793
 H3129 H 0.23566 0.14452 1.04388
 H3130 H 0.23696 0.16958 1.04560
 H3131 H 0.19527 0.15699 1.02500
 H3132 H 0.21153 0.16463 1.00719
 C3133 C 0.21545 0.71471 0.59575
 C3134 C 0.22343 0.70606 0.60517
 C3135 C 0.21688 0.69957 0.61698
 C3136 C 0.20224 0.70171 0.61975
 C3137 C 0.19429 0.71046 0.61044
 C3138 C 0.20079 0.71682 0.59854
 C3139 C 0.22228 0.72123 0.58288
 C3140 C 0.21808 0.73487 0.57799
 C3141 C 0.22384 0.74057 0.56539
 C3142 C 0.23406 0.73284 0.55744
 C3143 C 0.23861 0.71942 0.56258
 C3144 C 0.23275 0.71366 0.57510
 H3145 H 0.22336 0.69306 0.62406
 H3146 H 0.18295 0.71219 0.61218
 H3147 H 0.22011 0.75095 0.56176
 H3148 H 0.24636 0.71311 0.55668
 H3149 H 0.19423 0.72316 0.59137
 H3150 H 0.21026 0.74112 0.58385
 H3151 H 0.23478 0.70440 0.60350
 H3152 H 0.23609 0.70305 0.57840
 C3153 C 0.21647 0.21611 1.09761
 C3154 C 0.21854 0.20142 1.10037
 C3155 C 0.21213 0.19489 1.11224
 C3156 C 0.20338 0.20284 1.12157
 C3157 C 0.20139 0.21755 1.11889
 C3158 C 0.20789 0.22411 1.10710
 C3159 C 0.22280 0.22291 1.08463
 C3160 C 0.21509 0.23330 1.07689
 C3161 C 0.22057 0.23898 1.06416
 C3162 C 0.23385 0.23433 1.05877
 C3163 C 0.24177 0.22427 1.06671
 C3164 C 0.23634 0.21868 1.07952
 H3165 H 0.21378 0.18352 1.11388
 H3166 H 0.19488 0.22406 1.12595
 H3167 H 0.21411 0.24661 1.05827
 H3168 H 0.25205 0.22048 1.06290
 H3169 H 0.20625 0.23549 1.10546
 H3170 H 0.20455 0.23667 1.08036
 H3171 H 0.22484 0.19486 1.09316
 H3172 H 0.24270 0.21092 1.08534
 C3173 C 0.71583 0.53395 0.15273
 C3174 C 0.70683 0.52615 0.14347
 C3175 C 0.70028 0.53284 0.13178
 C3176 C 0.70268 0.54744 0.12896
 C3177 C 0.71186 0.55520 0.13805
 C3178 C 0.71829 0.54856 0.14984
 C3179 C 0.72219 0.52704 0.16564
 C3180 C 0.73589 0.53098 0.17057
 C3181 C 0.74135 0.52530 0.18332
 C3182 C 0.73331 0.51543 0.19138
 C3183 C 0.71987 0.51104 0.18614
 C3184 C 0.71436 0.51682 0.17349
 H3185 H 0.69344 0.52649 0.12487
 H3186 H 0.71383 0.56650 0.13627
 H3187 H 0.75176 0.52889 0.18702
 H3188 H 0.71330 0.50356 0.19213
 H3189 H 0.72492 0.55499 0.15688
 H3190 H 0.74236 0.53859 0.16466
 H3191 H 0.70489 0.51484 0.14519
 H3192 H 0.70369 0.51368 0.17017
 C3193 C 0.71619 1.03421 0.65282
 C3194 C 0.70820 1.02610 0.64293
 C3195 C 0.70151 1.03271 0.63129
 C3196 C 0.70273 1.04759 0.62919
 C3197 C 0.71086 1.05569 0.63896
 C3198 C 0.71746 1.04909 0.65067
 C3199 C 0.72273 1.02730 0.66560
 C3200 C 0.73603 1.03196 0.67095
 C3201 C 0.74161 1.02618 0.68360
 C3202 C 0.73407 1.01553 0.69113
 C3203 C 0.72104 1.01048 0.68547
 C3204 C 0.71542 1.01633 0.67290
 H3205 H 0.69552 1.02610 0.62387
 H3206 H 0.71191 1.06719 0.63774
 H3207 H 0.75168 1.03031 0.68765
 H3208 H 0.71484 1.00240 0.69106
 H3209 H 0.72330 1.05572 0.65822
 H3210 H 0.74207 1.04020 0.66544
 H3211 H 0.70719 1.01459 0.64413
 H3212 H 0.70505 1.01262 0.66923
 C3213 C 0.53296 0.21610 0.65226
 C3214 C 0.54757 0.21857 0.64952
 C3215 C 0.55431 0.21227 0.63771
 C3216 C 0.54662 0.20324 0.62841
 C3217 C 0.53199 0.20083 0.63107
 C3218 C 0.52523 0.20723 0.64282
 C3219 C 0.52598 0.22234 0.66518
 C3220 C 0.51590 0.21434 0.67305
 C3221 C 0.51018 0.21972 0.68581
 C3222 C 0.51448 0.23320 0.69108
 C3223 C 0.52414 0.24142 0.68296
 C3224 C 0.52978 0.23608 0.67014
 H3225 H 0.56561 0.21424 0.63607
 H3226 H 0.52569 0.19411 0.62401
 H3227 H 0.50284 0.21305 0.69183
 H3228 H 0.52764 0.25187 0.68666
 H3229 H 0.51391 0.20527 0.64446
 H3230 H 0.51285 0.20366 0.66966
 H3231 H 0.55394 0.22511 0.65672
 H3232 H 0.53727 0.24265 0.66420
 C3233 C 1.03361 0.21604 0.15228
 C3234 C 1.04247 0.22396 0.14301
 C3235 C 1.04901 0.21740 0.13123
 C3236 C 1.04673 0.20278 0.12833
 C3237 C 1.03765 0.19490 0.13739
 C3238 C 1.03124 0.20143 0.14928
 C3239 C 1.02731 0.22284 0.16530
 C3240 C 1.01368 0.21879 0.17031
 C3241 C 1.00825 0.22445 0.18311
 C3242 C 1.01627 0.23440 0.19112
 C3243 C 1.02967 0.23884 0.18585
 C3244 C 1.03514 0.23308 0.17315
 H3245 H 1.05576 0.22384 0.12434
 H3246 H 1.03577 0.18359 0.13552
 H3247 H 0.99789 0.22081 0.18685
 H3248 H 1.03622 0.24635 0.19181
 H3249 H 1.02470 0.19491 0.15631
 H3250 H 1.00722 0.21114 0.16442
 H3251 H 1.04433 0.23529 0.14480
 H3252 H 1.04577 0.23629 0.16978
 C3253 C 0.59660 0.21623 0.71512
 C3254 C 0.59935 0.20160 0.71756
 C3255 C 0.61103 0.19483 0.71105
 C3256 C 0.62015 0.20249 0.70185
 C3257 C 0.61745 0.21712 0.69945
 C3258 C 0.60586 0.22393 0.70606
 C3259 C 0.58383 0.22327 0.72159
 C3260 C 0.57591 0.23342 0.71374
 C3261 C 0.56330 0.23923 0.71933
 C3262 C 0.55821 0.23495 0.73286
 C3263 C 0.56639 0.22519 0.74093
 C3264 C 0.57907 0.21947 0.73538
 H3265 H 0.61271 0.18351 0.71301
 H3266 H 0.62438 0.22340 0.69260
 H3267 H 0.55723 0.24663 0.71276
 H3268 H 0.56281 0.22170 0.75140
 H3269 H 0.60422 0.23526 0.70413
 H3270 H 0.57913 0.23647 0.70302
 H3271 H 0.59229 0.19526 0.72423
 H3272 H 0.58506 0.21192 0.74184
 C3273 C 1.09733 0.21591 0.21640
 C3274 C 1.10014 0.20122 0.21839
 C3275 C 1.11204 0.19478 0.21197
 C3276 C 1.12133 0.20284 0.20328
 C3277 C 1.11859 0.21752 0.20133
 C3278 C 1.10679 0.22400 0.20788
 C3279 C 1.08431 0.22261 0.22271
 C3280 C 1.07660 0.23299 0.21500
 C3281 C 1.06386 0.23862 0.22044
 C3282 C 1.05841 0.23391 0.23368
 C3283 C 1.06630 0.22382 0.24160
 C3284 C 1.07914 0.21828 0.23621
 H3285 H 1.11375 0.18341 0.21356
 H3286 H 1.12566 0.22407 0.19488
 H3287 H 1.05799 0.24626 0.21397
 H3288 H 1.06243 0.21999 0.25185
 H3289 H 1.10511 0.23538 0.20630
 H3290 H 1.08010 0.23641 0.20448
 H3291 H 1.09295 0.19459 0.22463
 H3292 H 1.08495 0.21051 0.24256
 C3293 C 0.15496 0.71459 0.53632
 C3294 C 0.14590 0.72245 0.54546
 C3295 C 0.13405 0.71594 0.55189
 C3296 C 0.13089 0.70144 0.54924
 C3297 C 0.13985 0.69359 0.54002
 C3298 C 0.15178 0.70007 0.53369
 C3299 C 0.16785 0.72138 0.52983
 C3300 C 0.17235 0.71766 0.51592
 C3301 C 0.18491 0.72345 0.51016
 C3302 C 0.19319 0.73322 0.51813
 C3303 C 0.18848 0.73726 0.53187
 C3304 C 0.17600 0.73137 0.53767
 H3305 H 0.12727 0.72235 0.55879
 H3306 H 0.13783 0.68236 0.53788
 H3307 H 0.18823 0.72013 0.49954
 H3308 H 0.19468 0.74463 0.53837
 H3309 H 0.15867 0.69360 0.52695
 H3310 H 0.16619 0.71021 0.50948
 H3311 H 0.14787 0.73371 0.54754
 H3312 H 0.17301 0.73432 0.54849
 C3313 C 0.15317 0.21582 1.03367
 C3314 C 0.14394 0.20680 1.02586
 C3315 C 0.13223 0.20026 1.03250
 C3316 C 0.12935 0.20270 1.04709
 C3317 C 0.13840 0.21190 1.05487
 C3318 C 0.15022 0.21832 1.04826
 C3319 C 0.16609 0.22217 1.02681
 C3320 C 0.17100 0.23590 1.03075
 C3321 C 0.18379 0.24133 1.02515
 C3322 C 0.19189 0.23323 1.01535
 C3323 C 0.18668 0.21978 1.01095
 C3324 C 0.17399 0.21429 1.01666
 H3325 H 0.12535 0.19340 1.02614
 H3326 H 0.13656 0.21390 1.06615
 H3327 H 0.18747 0.25176 1.02873
 H3328 H 0.19271 0.21318 1.00353
 H3329 H 0.15723 0.22497 1.05470
 H3330 H 0.16504 0.24239 1.03831
 H3331 H 0.14571 0.20483 1.01455
 H3332 H 0.17068 0.20360 1.01352
 C3333 C 0.65273 0.53476 0.21641
 C3334 C 0.64977 0.53221 0.20183
 C3335 C 0.63791 0.53851 0.19523
 C3336 C 0.62879 0.54765 0.20299
 C3337 C 0.63169 0.55018 0.21756
 C3338 C 0.64348 0.54376 0.22421
 C3339 C 0.66566 0.52844 0.22328
 C3340 C 0.67363 0.53636 0.23335
 C3341 C 0.68632 0.53085 0.23907
 C3342 C 0.69143 0.51733 0.23476
 C3343 C 0.68323 0.50920 0.22505
 C3344 C 0.67047 0.51466 0.21943
 H3345 H 0.63608 0.53646 0.18395
 H3346 H 0.62479 0.55700 0.22391
 H3347 H 0.69242 0.53746 0.24643
 H3348 H 0.68682 0.49872 0.22154
 H3349 H 0.64529 0.54579 0.23550
 H3350 H 0.67038 0.54708 0.23643
 H3351 H 0.65682 0.52559 0.19541
 H3352 H 0.66445 0.50814 0.21194
 C3353 C 0.65268 1.03332 0.71538
 C3354 C 0.64356 1.02558 0.70618
 C3355 C 0.63183 1.03225 0.69968
 C3356 C 0.62882 1.04677 0.70236
 C3357 C 0.63780 1.05447 0.71170
 C3358 C 0.64962 1.04785 0.71807
 C3359 C 0.66560 1.02643 0.72175
 C3360 C 0.67035 1.03021 0.73556
 C3361 C 0.68312 1.02461 0.74104
 C3362 C 0.69136 1.01496 0.73290
 C3363 C 0.68631 1.01072 0.71933
 C3364 C 0.67363 1.01644 0.71380
 H3365 H 0.62502 1.02595 0.69270
 H3366 H 0.63588 1.06572 0.71387
 H3367 H 0.68668 1.02806 0.75155
 H3368 H 0.69246 1.00344 0.71269
 H3369 H 0.65656 1.05424 0.72485
 H3370 H 0.66429 1.03764 0.74211
 H3371 H 0.64542 1.01431 0.70405
 H3372 H 0.67044 1.01342 0.70305
 C3373 C 0.84551 0.46432 0.28539
 C3374 C 0.85445 0.45501 0.27757
 C3375 C 0.86643 0.44875 0.28400
 C3376 C 0.86987 0.45172 0.29837
 C3377 C 0.86109 0.46117 0.30615
 C3378 C 0.84902 0.46734 0.29976
 C3379 C 0.83245 0.47058 0.27869
 C3380 C 0.82792 0.48455 0.28217
 C3381 C 0.81528 0.49014 0.27638
 C3382 C 0.80693 0.48196 0.26685
 C3383 C 0.81163 0.46814 0.26308
 C3384 C 0.82419 0.46250 0.26897
 H3385 H 0.87306 0.44168 0.27763
 H3386 H 0.86335 0.46359 0.31728
 H3387 H 0.81198 0.50084 0.27950
 H3388 H 0.80537 0.46146 0.25593
 H3389 H 0.84226 0.47424 0.30620
 H3390 H 0.83413 0.49118 0.28940
 H3391 H 0.85225 0.45264 0.26642
 H3392 H 0.82718 0.45162 0.26623
 C3393 C 0.84460 0.96444 0.78730
 C3394 C 0.84742 0.94977 0.78513
 C3395 C 0.85926 0.94325 0.79157
 C3396 C 0.86851 0.95119 0.80044
 C3397 C 0.86567 0.96583 0.80267
 C3398 C 0.85389 0.97239 0.79613
 C3399 C 0.83188 0.97133 0.78058
 C3400 C 0.82395 0.98172 0.78810
 C3401 C 0.81163 0.98772 0.78208
 C3402 C 0.80685 0.98339 0.76845
 C3403 C 0.81493 0.97321 0.76080
 C3404 C 0.82733 0.96730 0.76677
 H3405 H 0.86102 0.93192 0.78975
 H3406 H 0.87265 0.97233 0.80928
 H3407 H 0.80557 0.99539 0.78836
 H3408 H 0.81157 0.96964 0.75027
 H3409 H 0.85218 0.98374 0.79787
 H3410 H 0.82700 0.98491 0.79884
 H3411 H 0.84034 0.94325 0.77863
 H3412 H 0.83332 0.95952 0.76057
 C3413 C 0.40428 0.28496 0.78616
 C3414 C 0.40110 0.29944 0.78339
 C3415 C 0.38914 0.30597 0.78961
 C3416 C 0.38014 0.29821 0.79886
 C3417 C 0.38330 0.28374 0.80163
 C3418 C 0.39519 0.27718 0.79532
 C3419 C 0.41717 0.27809 0.77974
 C3420 C 0.42535 0.26821 0.78767
 C3421 C 0.43780 0.26223 0.78188
 C3422 C 0.44244 0.26607 0.76807
 C3423 C 0.43412 0.27572 0.76003
 C3424 C 0.42160 0.28160 0.76577
 H3425 H 0.38712 0.31717 0.78737
 H3426 H 0.37650 0.27737 0.80854
 H3427 H 0.44405 0.25498 0.78845
 H3428 H 0.43738 0.27891 0.74935
 H3429 H 0.39717 0.26595 0.79751
 H3430 H 0.42239 0.26542 0.79854
 H3431 H 0.40802 0.30585 0.77662
 H3432 H 0.41543 0.28897 0.75927
 C3433 C 0.90443 0.28545 0.28591
 C3434 C 0.89549 0.29464 0.27799
 C3435 C 0.88356 0.30107 0.28437
 C3436 C 0.88017 0.29834 0.29878
 C3437 C 0.88893 0.28898 0.30666
 C3438 C 0.90097 0.28267 0.30033
 C3439 C 0.91749 0.27910 0.27926
 C3440 C 0.92212 0.26522 0.28295
 C3441 C 0.93475 0.25958 0.27716
 C3442 C 0.94296 0.26761 0.26741
 C3443 C 0.93817 0.28135 0.26347
 C3444 C 0.92565 0.28705 0.26938
 H3445 H 0.87692 0.30805 0.27792
 H3446 H 0.88670 0.28675 0.31782
 H3447 H 0.93814 0.24896 0.28042
 H3448 H 0.94433 0.28793 0.25616
 H3449 H 0.90773 0.27586 0.30684
 H3450 H 0.91600 0.25870 0.29034
 H3451 H 0.89763 0.29681 0.26679
 H3452 H 0.92261 0.29787 0.26648
 C3453 C 0.34692 0.78464 0.46521
 C3454 C 0.34958 0.79934 0.46739
 C3455 C 0.36135 0.80602 0.46095
 C3456 C 0.37068 0.79819 0.45209
 C3457 C 0.36807 0.78348 0.44996
 C3458 C 0.35637 0.77678 0.45648
 C3459 C 0.33409 0.77767 0.47163
 C3460 C 0.32630 0.76734 0.46387
 C3461 C 0.31369 0.76152 0.46944
 C3462 C 0.30847 0.76598 0.48287
 C3463 C 0.31650 0.77595 0.49085
 C3464 C 0.32919 0.78168 0.48532
 H3465 H 0.36294 0.81738 0.46272
 H3466 H 0.37513 0.77706 0.44337
 H3467 H 0.30772 0.75396 0.46294
 H3468 H 0.31283 0.77958 0.50126
 H3469 H 0.35479 0.76541 0.45475
 H3470 H 0.32964 0.76413 0.45322
 H3471 H 0.34238 0.80579 0.47381
 H3472 H 0.33508 0.78939 0.49171
 C3473 C 0.34583 0.28648 0.96505
 C3474 C 0.34825 0.30130 0.96658
 C3475 C 0.36004 0.30785 0.96002
 C3476 C 0.36962 0.29975 0.95167
 C3477 C 0.36726 0.28493 0.95021
 C3478 C 0.35556 0.27837 0.95687
 C3479 C 0.33300 0.27958 0.97161
 C3480 C 0.32565 0.26861 0.96431
 C3481 C 0.31324 0.26255 0.97011
 C3482 C 0.30777 0.26741 0.98330
 C3483 C 0.31525 0.27819 0.99074
 C3484 C 0.32775 0.28416 0.98500
 H3485 H 0.36146 0.31931 0.96125
 H3486 H 0.37452 0.27832 0.94403
 H3487 H 0.30769 0.25439 0.96398
 H3488 H 0.31134 0.28218 1.00092
 H3489 H 0.35420 0.26689 0.95567
 H3490 H 0.32921 0.26497 0.95388
 H3491 H 0.34085 0.30794 0.97257
 H3492 H 0.33326 0.29241 0.99103
 C3493 C 0.78526 0.46510 0.34575
 C3494 C 0.79998 0.46687 0.34846
 C3495 C 0.80638 0.46037 0.36035
 C3496 C 0.79824 0.45183 0.36970
 C3497 C 0.78355 0.45006 0.36702
 C3498 C 0.77711 0.45669 0.35524
 C3499 C 0.77855 0.47163 0.33283
 C3500 C 0.76785 0.46421 0.32523
 C3501 C 0.76204 0.46994 0.31269
 C3502 C 0.76689 0.48317 0.30732
 C3503 C 0.77738 0.49075 0.31506
 C3504 C 0.78308 0.48509 0.32771
 H3505 H 0.81776 0.46183 0.36203
 H3506 H 0.77695 0.44371 0.37415
 H3507 H 0.75408 0.46373 0.30695
 H3508 H 0.78132 0.50099 0.31124
 H3509 H 0.76570 0.45531 0.35365
 H3510 H 0.76426 0.45373 0.32869
 H3511 H 0.80666 0.47302 0.34124
 H3512 H 0.79110 0.49123 0.33343
 C3513 C 0.78494 0.96452 0.84555
 C3514 C 0.77710 0.95551 0.85475
 C3515 C 0.78372 0.94892 0.86646
 C3516 C 0.79830 0.95130 0.86936
 C3517 C 0.80611 0.96045 0.86029
 C3518 C 0.79953 0.96692 0.84849
 C3519 C 0.77806 0.97105 0.83272
 C3520 C 0.78199 0.98483 0.82800
 C3521 C 0.77617 0.99054 0.81542
 C3522 C 0.76618 0.98266 0.80734
 C3523 C 0.76191 0.96907 0.81230
 C3524 C 0.76783 0.96332 0.82478
 H3525 H 0.77734 0.94210 0.87334
 H3526 H 0.81739 0.96240 0.86213
 H3527 H 0.77968 1.00104 0.81191
 H3528 H 0.75437 0.96262 0.80625
 H3529 H 0.80599 0.97356 0.84150
 H3530 H 0.78964 0.99120 0.83398
 H3531 H 0.76580 0.95361 0.85298
 H3532 H 0.76472 0.95258 0.82792
 C3533 C 0.28365 0.78500 0.40288
 C3534 C 0.29844 0.78333 0.40049
 C3535 C 0.30508 0.78981 0.38872
 C3536 C 0.29711 0.79820 0.37908
 C3537 C 0.28235 0.79993 0.38149
 C3538 C 0.27569 0.79337 0.39320
 C3539 C 0.27667 0.77840 0.41563
 C3540 C 0.26599 0.78584 0.42323
 C3541 C 0.26019 0.78016 0.43582
 C3542 C 0.26499 0.76691 0.44119
 C3543 C 0.27526 0.75919 0.43330
 C3544 C 0.28100 0.76485 0.42065
 H3545 H 0.31651 0.78843 0.38733
 H3546 H 0.27585 0.80620 0.37422
 H3547 H 0.25238 0.78646 0.44166
 H3548 H 0.27915 0.74893 0.43708
 H3549 H 0.26426 0.79474 0.39458
 H3550 H 0.26249 0.79636 0.41978
 H3551 H 0.30497 0.77723 0.40789
 H3552 H 0.28896 0.75867 0.41490
 C3553 C 0.28549 0.28573 0.90460
 C3554 C 0.29383 0.27771 0.89494
 C3555 C 0.30022 0.28429 0.88311
 C3556 C 0.29833 0.29902 0.88057
 C3557 C 0.28983 0.30702 0.89009
 C3558 C 0.28354 0.30047 0.90201
 C3559 C 0.27915 0.27885 0.91752
 C3560 C 0.26559 0.28300 0.92258
 C3561 C 0.26002 0.27712 0.93518
 C3562 C 0.26784 0.26685 0.94296
 C3563 C 0.28121 0.26237 0.93766
 C3564 C 0.28682 0.26834 0.92513
 H3565 H 0.30651 0.27776 0.87587
 H3566 H 0.28828 0.31842 0.88852
 H3567 H 0.24967 0.28079 0.93894
 H3568 H 0.28759 0.25459 0.94344
 H3569 H 0.27740 0.30703 0.90936
 H3570 H 0.25928 0.29087 0.91685
 H3571 H 0.29534 0.26630 0.89646
 H3572 H 0.29739 0.26503 0.92167
 C3573 C 0.46493 0.28600 0.84560
 C3574 C 0.47283 0.29497 0.85480
 C3575 C 0.46637 0.30127 0.86677
 C3576 C 0.45187 0.29867 0.86991
 C3577 C 0.44399 0.28960 0.86081
 C3578 C 0.45042 0.28339 0.84877
 C3579 C 0.47168 0.27963 0.83260
 C3580 C 0.46793 0.26576 0.82796
 C3581 C 0.47369 0.26010 0.81533
 C3582 C 0.48343 0.26811 0.80708
 C3583 C 0.48749 0.28181 0.81192
 C3584 C 0.48165 0.28752 0.82450
 H3585 H 0.47283 0.30804 0.87364
 H3586 H 0.43277 0.28749 0.86280
 H3587 H 0.47034 0.24950 0.81193
 H3588 H 0.49484 0.28836 0.80576
 H3589 H 0.44392 0.27676 0.84178
 H3590 H 0.46049 0.25928 0.83406
 H3591 H 0.48408 0.29703 0.85284
 H3592 H 0.48462 0.29831 0.82761
 C3593 C 0.96516 0.28459 0.34613
 C3594 C 0.97341 0.29275 0.35577
 C3595 C 0.96707 0.29919 0.36773
 C3596 C 0.95236 0.29751 0.37041
 C3597 C 0.94412 0.28923 0.36088
 C3598 C 0.95043 0.28290 0.34885
 C3599 C 0.97177 0.27819 0.33308
 C3600 C 0.96719 0.26478 0.32785
 C3601 C 0.97282 0.25921 0.31512
 C3602 C 0.98326 0.26684 0.30739
 C3603 C 0.98815 0.28003 0.31285
 C3604 C 0.98243 0.28566 0.32549
 H3605 H 0.97375 0.30534 0.37496
 H3606 H 0.93273 0.28785 0.36254
 H3607 H 0.96883 0.24900 0.31123
 H3608 H 0.99607 0.28627 0.30711
 H3609 H 0.94368 0.27694 0.34151
 H3610 H 0.95919 0.25862 0.33355
 H3611 H 0.98482 0.29407 0.35415
 H3612 H 0.98605 0.29611 0.32906
 C3613 C 0.46304 0.34532 0.78480
 C3614 C 0.46590 0.34851 0.79928
 C3615 C 0.45962 0.36041 0.80590
 C3616 C 0.45022 0.36933 0.79825
 C3617 C 0.44735 0.36617 0.78379
 C3618 C 0.45373 0.35435 0.77713
 C3619 C 0.46950 0.33247 0.77786
 C3620 C 0.46157 0.32425 0.76799
 C3621 C 0.46734 0.31177 0.76203
 C3622 C 0.48115 0.30713 0.76588
 C3623 C 0.48921 0.31551 0.77549
 C3624 C 0.48348 0.32806 0.78135
 H3625 H 0.46194 0.36243 0.81709
 H3626 H 0.44031 0.37292 0.77752
 H3627 H 0.46077 0.30549 0.75479
 H3628 H 0.49988 0.31226 0.77866
 H3629 H 0.45147 0.35238 0.76592
 H3630 H 0.45070 0.32718 0.76522
 H3631 H 0.47278 0.34164 0.80561
 H3632 H 0.48999 0.33427 0.78869
 C3633 C 0.96430 0.34531 0.28577
 C3634 C 0.97222 0.35474 0.29449
 C3635 C 0.96559 0.36644 0.30110
 C3636 C 0.95093 0.36909 0.29901
 C3637 C 0.94303 0.35980 0.29016
 C3638 C 0.94962 0.34799 0.28368
 C3639 C 0.97123 0.33253 0.27919
 C3640 C 0.96711 0.32768 0.26551
 C3641 C 0.97300 0.31516 0.25973
 C3642 C 0.98326 0.30727 0.26744
 C3643 C 0.98772 0.31238 0.28092
 C3644 C 0.98173 0.32480 0.28675
 H3645 H 0.97203 0.37353 0.30767
 H3646 H 0.93168 0.36147 0.28846
 H3647 H 0.96934 0.31154 0.24932
 H3648 H 0.99549 0.30650 0.28722
 H3649 H 0.94312 0.34081 0.27728
 H3650 H 0.95925 0.33351 0.25928
 H3651 H 0.98359 0.35317 0.29613
 H3652 H 0.98500 0.32807 0.29740
 C3653 C 0.28498 0.84719 0.46609
 C3654 C 0.29976 0.84961 0.46780
 C3655 C 0.30642 0.86126 0.46112
 C3656 C 0.29847 0.87068 0.45248
 C3657 C 0.28370 0.86832 0.45082
 C3658 C 0.27702 0.85677 0.45760
 C3659 C 0.27804 0.83442 0.47265
 C3660 C 0.26736 0.82687 0.46515
 C3661 C 0.26153 0.81429 0.47077
 C3662 C 0.26633 0.80884 0.48398
 C3663 C 0.27669 0.81662 0.49171
 C3664 C 0.28242 0.82930 0.48614
 H3665 H 0.31784 0.86268 0.46249
 H3666 H 0.27723 0.87549 0.44440
 H3667 H 0.25368 0.80851 0.46444
 H3668 H 0.28059 0.81274 0.50193
 H3669 H 0.26559 0.85538 0.45624
 H3670 H 0.26387 0.83035 0.45464
 H3671 H 0.30629 0.84231 0.47401
 H3672 H 0.29043 0.83500 0.49233
 C3673 C 0.28628 0.34497 0.96387
 C3674 C 0.28369 0.34800 0.94933
 C3675 C 0.29017 0.35979 0.94272
 C3676 C 0.29950 0.36874 0.95046
 C3677 C 0.30207 0.36575 0.96500
 C3678 C 0.29548 0.35407 0.97164
 C3679 C 0.27975 0.33216 0.97080
 C3680 C 0.28755 0.32418 0.98093
 C3681 C 0.28173 0.31179 0.98700
 C3682 C 0.26804 0.30697 0.98298
 C3683 C 0.26012 0.31506 0.97304
 C3684 C 0.26588 0.32756 0.96708
 H3685 H 0.28807 0.36171 0.93148
 H3686 H 0.30903 0.37255 0.97133
 H3687 H 0.28822 0.30572 0.99446
 H3688 H 0.24953 0.31164 0.96972
 H3689 H 0.29751 0.35224 0.98292
 H3690 H 0.29835 0.32722 0.98386
 H3691 H 0.27689 0.34109 0.94293
 H3692 H 0.25947 0.33357 0.95951
 C3693 C 0.78514 0.40456 0.28559
 C3694 C 0.79983 0.40190 0.28352
 C3695 C 0.80641 0.39004 0.28988
 C3696 C 0.79849 0.38066 0.29859
 C3697 C 0.78381 0.38329 0.30066
 C3698 C 0.77720 0.39505 0.29418
 C3699 C 0.77822 0.41737 0.27910
 C3700 C 0.76773 0.42510 0.28669
 C3701 C 0.76176 0.43755 0.28092
 C3702 C 0.76622 0.44267 0.26747
 C3703 C 0.77644 0.43476 0.25971
 C3704 C 0.78232 0.42223 0.26543
 H3705 H 0.81776 0.38839 0.28821
 H3706 H 0.77735 0.37615 0.30714
 H3707 H 0.75400 0.44344 0.28725
 H3708 H 0.78010 0.43837 0.24931
 H3709 H 0.76582 0.39662 0.29581
 H3710 H 0.76446 0.42180 0.29733
 H3711 H 0.80634 0.40914 0.27721
 H3712 H 0.79016 0.41639 0.25917
   
