data_POSCAR
  _audit_creation_date              2014-09-24
  _audit_creation_method            'ToBaCCo'
  _symmetry_space_group_name_H-M    'P1'
  _symmetry_Int_Tables_number       1
  _symmetry_cell_setting            triclinic
  loop_
  _symmetry_equiv_pos_as_xyz
 x,y,z
_cell_length_a 55.3645
_cell_length_b 61.3517
_cell_length_c 60.3679
_cell_angle_alpha 89.956500
_cell_angle_beta 90.104300
_cell_angle_gamma 89.811100
loop_
  _atom_site_label
  _atom_site_type_symbol
  _atom_site_fract_x
  _atom_site_fract_y
  _atom_site_fract_z
C1 C 0.30813 0.30922 -0.01395
 C2 C 0.30568 0.30875 0.00852
 C3 C 0.29154 0.32574 0.02023
 C4 C 0.31838 0.29257 0.02271
 C5 C 0.32513 0.29461 -0.02612
 C6 C 0.29411 0.32508 -0.02749
 C7 C 0.29911 0.34754 0.01985
 C8 C 0.28642 0.36339 0.03172
 C9 C 0.26584 0.35771 0.04397
 C10 C 0.25810 0.33592 0.04409
 C11 C 0.27104 0.32000 0.03250
 C12 C 0.33320 0.29993 0.04001
 C13 C 0.34644 0.28518 0.05278
 C14 C 0.34498 0.26266 0.04871
 C15 C 0.32959 0.25523 0.03176
 C16 C 0.31631 0.27006 0.01893
 C17 C 0.31756 0.28436 -0.04564
 C18 C 0.33332 0.27105 -0.05764
 C19 C 0.35726 0.26711 -0.05025
 C20 C 0.36466 0.27774 -0.03053
 C21 C 0.34906 0.29164 -0.01906
 C22 C 0.26876 0.32519 -0.02706
 C23 C 0.25575 0.34038 -0.03961
 C24 C 0.26786 0.35569 -0.05289
 C25 C 0.29327 0.35533 -0.05344
 C26 C 0.30624 0.34009 -0.04094
 H27 H 0.31505 0.35218 0.01063
 H28 H 0.29265 0.38010 0.03134
 H29 H 0.24240 0.33116 0.05360
 H30 H 0.26509 0.30321 0.03305
 H31 H 0.33513 0.31721 0.04318
 H32 H 0.35840 0.29148 0.06543
 H33 H 0.30468 0.26403 0.00587
 H34 H 0.29921 0.28645 -0.05155
 H35 H 0.32591 0.26291 -0.07198
 H36 H 0.38302 0.27666 -0.02449
 H37 H 0.35586 0.30028 -0.00474
 H38 H 0.25908 0.31347 -0.01704
 H39 H 0.23621 0.33998 -0.03911
 H40 H 0.30315 0.36707 -0.06325
 H41 H 0.32579 0.34023 -0.04147
 H42 H 0.32785 0.23797 0.02842
 C43 C 0.69660 0.69313 -0.00901
 C44 C 0.69470 0.69302 0.01349
 C45 C 0.70857 0.67714 0.02709
 C46 C 0.67797 0.70780 0.02559
 C47 C 0.68305 0.70881 -0.02312
 C48 C 0.71064 0.67609 -0.02072
 C49 C 0.69623 0.66244 0.04073
 C50 C 0.70895 0.64696 0.05311
 C51 C 0.73432 0.64603 0.05227
 C52 C 0.74667 0.66106 0.03884
 C53 C 0.73390 0.67650 0.02639
 C54 C 0.65343 0.70930 0.01976
 C55 C 0.63795 0.72322 0.03136
 C56 C 0.64656 0.73533 0.04943
 C57 C 0.67093 0.73339 0.05563
 C58 C 0.68650 0.71979 0.04377
 C59 C 0.68471 0.73141 -0.01981
 C60 C 0.67054 0.74575 -0.03241
 C61 C 0.65466 0.73771 -0.04868
 C62 C 0.65358 0.71510 -0.05228
 C63 C 0.66769 0.70084 -0.03972
 C64 C 0.73096 0.68179 -0.03325
 C65 C 0.74386 0.66580 -0.04477
 C66 C 0.73627 0.64398 -0.04429
 C67 C 0.71587 0.63834 -0.03176
 C68 C 0.70322 0.65426 -0.01998
 H69 H 0.67668 0.66268 0.04144
 H70 H 0.69887 0.63543 0.06301
 H71 H 0.76621 0.66102 0.03811
 H72 H 0.74374 0.68795 0.01619
 H73 H 0.64621 0.69963 0.00631
 H74 H 0.61912 0.72418 0.02655
 H75 H 0.70528 0.71869 0.04871
 H76 H 0.69672 0.73790 -0.00728
 H77 H 0.67200 0.76310 -0.02946
 H78 H 0.64127 0.70834 -0.06440
 H79 H 0.66603 0.68347 -0.04250
 H80 H 0.73679 0.69861 -0.03407
 H81 H 0.75941 0.67053 -0.05450
 H82 H 0.70975 0.62160 -0.03110
 H83 H 0.68742 0.64966 -0.01053
 H84 H 0.67794 0.74259 0.06952
 C85 C 0.69338 0.31193 1.01132
 C86 C 0.69462 0.31233 0.98884
 C87 C 0.70839 0.32936 0.97700
 C88 C 0.68044 0.29701 0.97501
 C89 C 0.67626 0.29733 1.02282
 C90 C 0.70742 0.32727 1.02530
 C91 C 0.70130 0.35129 0.97836
 C92 C 0.71374 0.36721 0.96646
 C93 C 0.73361 0.36144 0.95324
 C94 C 0.74081 0.33950 0.95209
 C95 C 0.72809 0.32353 0.96369
 C96 C 0.66362 0.30522 0.95973
 C97 C 0.64934 0.29105 0.94730
 C98 C 0.65175 0.26835 0.94975
 C99 C 0.66897 0.26015 0.96479
 C100 C 0.68324 0.27437 0.97726
 C101 C 0.68490 0.27999 1.03576
 C102 C 0.66870 0.26611 1.04648
 C103 C 0.64371 0.26977 1.04482
 C104 C 0.63514 0.28730 1.03203
 C105 C 0.65131 0.30089 1.02097
 C106 C 0.73257 0.32885 1.02337
 C107 C 0.74544 0.34394 1.03606
 C108 C 0.73351 0.35781 1.05128
 C109 C 0.70817 0.35565 1.05330
 C110 C 0.69542 0.34059 1.04056
 H111 H 0.68595 0.35598 0.98841
 H112 H 0.70794 0.38405 0.96761
 H113 H 0.75596 0.33470 0.94184
 H114 H 0.73363 0.30663 0.96239
 H115 H 0.66112 0.32264 0.95782
 H116 H 0.63601 0.29790 0.93612
 H117 H 0.69641 0.26774 0.98874
 H118 H 0.70414 0.27712 1.03735
 H119 H 0.67565 0.25278 1.05642
 H120 H 0.61593 0.29035 1.03051
 H121 H 0.64442 0.31430 1.01111
 H122 H 0.74228 0.31831 1.01205
 H123 H 0.76487 0.34399 1.03435
 H124 H 0.69769 0.36626 1.06388
 H125 H 0.67596 0.33978 1.04219
 H126 H 0.67150 0.24276 0.96680
 C127 C 0.31091 0.68457 1.01115
 C128 C 0.30931 0.68510 0.98861
 C129 C 0.29543 0.66839 0.97634
 C130 C 0.32259 0.70123 0.97493
 C131 C 0.32716 0.69936 1.02382
 C132 C 0.29672 0.66862 1.02430
 C133 C 0.30269 0.64647 0.97679
 C134 C 0.28997 0.63087 0.96467
 C135 C 0.26964 0.63695 0.95212
 C136 C 0.26231 0.65888 0.95183
 C137 C 0.27529 0.67454 0.96365
 C138 C 0.33833 0.69379 0.95838
 C139 C 0.35209 0.70849 0.94616
 C140 C 0.35026 0.73103 0.95003
 C141 C 0.33402 0.73853 0.96625
 C142 C 0.32020 0.72375 0.97853
 C143 C 0.31840 0.71015 1.04264
 C144 C 0.33336 0.72389 1.05493
 C145 C 0.35750 0.72758 1.04848
 C146 C 0.36623 0.71646 1.02964
 C147 C 0.35144 0.70217 1.01784
 C148 C 0.27149 0.66779 1.02270
 C149 C 0.25837 0.65266 1.03509
 C150 C 0.27013 0.63802 1.04972
 C151 C 0.29559 0.63930 1.05131
 C152 C 0.30861 0.65439 1.03883
 H153 H 0.31835 0.64153 0.98636
 H154 H 0.29588 0.61403 0.96518
 H155 H 0.24682 0.66394 0.94210
 H156 H 0.26958 0.69143 0.96305
 H157 H 0.34052 0.67649 0.95538
 H158 H 0.36469 0.70213 0.93406
 H159 H 0.30789 0.72984 0.99102
 H160 H 0.29978 0.70813 1.04772
 H161 H 0.32548 0.73237 1.06888
 H162 H 0.38488 0.71790 1.02450
 H163 H 0.35905 0.69323 1.00405
 H164 H 0.26190 0.67906 1.01198
 H165 H 0.23891 0.65326 1.03373
 H166 H 0.30590 0.62807 1.06142
 H167 H 0.32811 0.65472 1.04023
 H168 H 0.33196 0.75580 0.96941
 C169 C -0.01225 0.31744 0.31754
 C170 C 0.01231 0.31576 0.31643
 C171 C 0.02584 0.30181 0.33221
 C172 C 0.02696 0.32872 0.30062
 C173 C -0.02602 0.33384 0.30435
 C174 C -0.02642 0.30301 0.33246
 C175 C 0.02578 0.30668 0.35491
 C176 C 0.03844 0.29348 0.36980
 C177 C 0.05108 0.27507 0.36222
 C178 C 0.05113 0.27022 0.33949
 C179 C 0.03883 0.28369 0.32454
 C180 C 0.04549 0.34208 0.30868
 C181 C 0.05833 0.35559 0.29434
 C182 C 0.05310 0.35586 0.27154
 C183 C 0.03502 0.34192 0.26337
 C184 C 0.02214 0.32840 0.27777
 C185 C -0.04679 0.32754 0.29272
 C186 C -0.05960 0.34260 0.27987
 C187 C -0.05167 0.36438 0.27793
 C188 C -0.03109 0.37067 0.29017
 C189 C -0.01884 0.35574 0.30358
 C190 C -0.02429 0.28029 0.33109
 C191 C -0.03686 0.26685 0.34573
 C192 C -0.05234 0.27575 0.36204
 C193 C -0.05491 0.29869 0.36269
 C194 C -0.04212 0.31207 0.34812
 H195 H 0.01594 0.32073 0.36103
 H196 H 0.03813 0.29744 0.38728
 H197 H 0.06091 0.25618 0.33332
 H198 H 0.03909 0.27981 0.30704
 H199 H 0.04948 0.34262 0.32625
 H200 H 0.07187 0.36633 0.30124
 H201 H 0.00814 0.31794 0.27117
 H202 H -0.05285 0.31077 0.29322
 H203 H -0.07495 0.33673 0.27052
 H204 H -0.02488 0.38738 0.29017
 H205 H -0.00360 0.36132 0.31328
 H206 H -0.01285 0.27292 0.31862
 H207 H -0.03497 0.24944 0.34355
 H208 H -0.06581 0.30665 0.37515
 H209 H -0.04403 0.32960 0.34943
 H210 H 0.03083 0.34150 0.24585
 C211 C -0.01285 0.68276 0.68211
 C212 C 0.01183 0.68344 0.68192
 C213 C 0.02534 0.69723 0.66591
 C214 C 0.02663 0.66996 0.69731
 C215 C -0.02636 0.66677 0.69592
 C216 C -0.02758 0.69770 0.66805
 C217 C 0.02022 0.69649 0.64311
 C218 C 0.03243 0.71012 0.62839
 C219 C 0.05054 0.72415 0.63612
 C220 C 0.05638 0.72426 0.65875
 C221 C 0.04381 0.71097 0.67354
 C222 C 0.04401 0.65563 0.68871
 C223 C 0.05704 0.64185 0.70277
 C224 C 0.05314 0.64228 0.72577
 C225 C 0.03623 0.65717 0.73443
 C226 C 0.02317 0.67096 0.72033
 C227 C -0.04608 0.67374 0.70865
 C228 C -0.05876 0.65902 0.72188
 C229 C -0.05173 0.63690 0.72309
 C230 C -0.03217 0.62996 0.70986
 C231 C -0.02009 0.64458 0.69609
 C232 C -0.02418 0.72032 0.66871
 C233 C -0.03699 0.73401 0.65433
 C234 C -0.05394 0.72549 0.63909
 C235 C -0.05782 0.70271 0.63929
 C236 C -0.04484 0.68909 0.65356
 H237 H 0.00664 0.68549 0.63672
 H238 H 0.02794 0.70956 0.61093
 H239 H 0.07032 0.73497 0.66502
 H240 H 0.04824 0.71163 0.69101
 H241 H 0.04695 0.65464 0.67100
 H242 H 0.06968 0.63040 0.69553
 H243 H 0.01012 0.68219 0.72731
 H244 H -0.05142 0.69074 0.70866
 H245 H -0.07327 0.66537 0.73201
 H246 H -0.02673 0.61302 0.70932
 H247 H -0.00574 0.63853 0.68558
 H248 H -0.01139 0.72737 0.68023
 H249 H -0.03396 0.75135 0.65581
 H250 H -0.06987 0.69495 0.62762
 H251 H -0.04771 0.67165 0.65276
 H252 H 0.03312 0.65815 0.75210
 C253 C 1.01627 0.68113 0.31807
 C254 C 0.99158 0.68109 0.31720
 C255 C 0.97686 0.69663 0.33044
 C256 C 0.97796 0.66515 0.30344
 C257 C 1.03090 0.66712 0.30307
 C258 C 1.02981 0.69480 0.33427
 C259 C 0.95922 0.68863 0.34493
 C260 C 0.94611 0.70287 0.35838
 C261 C 0.95022 0.72546 0.35746
 C262 C 0.96745 0.73351 0.34247
 C263 C 0.98058 0.71922 0.32899
 C264 C 0.98305 0.64271 0.30455
 C265 C 0.97053 0.62802 0.29114
 C266 C 0.95213 0.63542 0.27697
 C267 C 0.94639 0.65771 0.27644
 C268 C 0.95927 0.67246 0.28949
 C269 C 1.02745 0.66766 0.28007
 C270 C 1.04002 0.65328 0.26630
 C271 C 1.05676 0.63810 0.27512
 C272 C 1.06078 0.63844 0.29828
 C273 C 1.04804 0.65275 0.31198
 C274 C 1.04967 0.70713 0.32724
 C275 C 1.06217 0.72041 0.34213
 C276 C 1.05481 0.72210 0.36445
 C277 C 1.03522 0.70918 0.37148
 C278 C 1.02332 0.69536 0.35673
 H279 H 0.95608 0.67126 0.34627
 H280 H 0.93321 0.69612 0.36993
 H281 H 0.97074 0.75084 0.34112
 H282 H 0.99384 0.72574 0.31763
 H283 H 0.99678 0.63656 0.31574
 H284 H 0.97496 0.61083 0.29204
 H285 H 0.95485 0.68965 0.28853
 H286 H 1.01476 0.67908 0.27279
 H287 H 1.03695 0.65466 0.24866
 H288 H 1.07270 0.62687 0.30628
 H289 H 1.05096 0.65206 0.32971
 H290 H 1.05521 0.70682 0.31004
 H291 H 1.07676 0.73024 0.33569
 H292 H 1.02955 0.70898 0.38863
 H293 H 1.00887 0.68517 0.36288
 H294 H 0.93224 0.66373 0.26562
 C295 C 1.00774 0.31741 0.68300
 C296 C 0.98324 0.31635 0.68500
 C297 C 0.96849 0.30033 0.67256
 C298 C 0.96992 0.33230 0.69878
 C299 C 1.02200 0.33259 0.69696
 C300 C 1.02138 0.30377 0.66686
 C301 C 0.94987 0.30777 0.65868
 C302 C 0.93721 0.29319 0.64531
 C303 C 0.94274 0.27080 0.64572
 C304 C 0.96078 0.26326 0.66030
 C305 C 0.97347 0.27790 0.67369
 C306 C 0.96958 0.35444 0.69295
 C307 C 0.95710 0.36949 0.70600
 C308 C 0.94505 0.36264 0.72522
 C309 C 0.94540 0.34046 0.73102
 C310 C 0.95751 0.32535 0.71772
 C311 C 1.02108 0.33126 0.72015
 C312 C 1.03392 0.34603 0.73320
 C313 C 1.04807 0.36234 0.72329
 C314 C 1.04933 0.36332 0.70004
 C315 C 1.03648 0.34852 0.68701
 C316 C 1.04219 0.29256 0.67373
 C317 C 1.05493 0.27934 0.65895
 C318 C 1.04697 0.27666 0.63688
 C319 C 1.02629 0.28839 0.63002
 C320 C 1.01404 0.30212 0.64466
 H321 H 0.94577 0.32501 0.65754
 H322 H 0.92366 0.29957 0.63408
 H323 H 0.96517 0.24608 0.66124
 H324 H 0.98753 0.27181 0.68457
 H325 H 0.97897 0.36000 0.67828
 H326 H 0.95714 0.38653 0.70130
 H327 H 0.95757 0.30829 0.72236
 H328 H 1.01036 0.31879 0.72813
 H329 H 1.03295 0.34458 0.75105
 H330 H 1.05986 0.37582 0.69191
 H331 H 1.03744 0.34975 0.66913
 H332 H 1.04833 0.29369 0.69074
 H333 H 1.07031 0.27038 0.66533
 H334 H 1.02000 0.28778 0.61305
 H335 H 0.99873 0.31140 0.63863
 H336 H 0.93608 0.33485 0.74570
 C337 C 0.30418 -0.00838 0.31009
 C338 C 0.30579 0.01372 0.30970
 C339 C 0.32316 0.02493 0.29504
 C340 C 0.29179 0.02757 0.32522
 C341 C 0.28975 -0.01972 0.32718
 C342 C 0.31855 -0.02236 0.29491
 C343 C 0.34809 0.02272 0.29864
 C344 C 0.36444 0.03363 0.28502
 C345 C 0.35609 0.04664 0.26744
 C346 C 0.33114 0.04868 0.26376
 C347 C 0.31476 0.03810 0.27766
 C348 C 0.30400 0.04139 0.33992
 C349 C 0.29118 0.05377 0.35535
 C350 C 0.26582 0.05277 0.35625
 C351 C 0.25359 0.03922 0.34116
 C352 C 0.26647 0.02674 0.32578
 C353 C 0.27001 -0.03257 0.32093
 C354 C 0.25697 -0.04405 0.33692
 C355 C 0.26388 -0.04320 0.35930
 C356 C 0.28368 -0.03030 0.36550
 C357 C 0.29646 -0.01856 0.34957
 C358 C 0.31736 -0.01968 0.27188
 C359 C 0.33168 -0.03249 0.25791
 C360 C 0.34738 -0.04862 0.26661
 C361 C 0.34790 -0.05140 0.28986
 C362 C 0.33370 -0.03849 0.30372
 H363 H 0.35479 0.01269 0.31210
 H364 H 0.38363 0.03184 0.28810
 H365 H 0.32435 0.05880 0.25040
 H366 H 0.29555 0.04000 0.27478
 H367 H 0.32354 0.04217 0.33982
 H368 H 0.30119 0.06374 0.36693
 H369 H 0.25672 0.01637 0.31437
 H370 H 0.26477 -0.03373 0.30368
 H371 H 0.24190 -0.05406 0.33176
 H372 H 0.28926 -0.02936 0.38268
 H373 H 0.31184 -0.00887 0.35459
 H374 H 0.30527 -0.00770 0.26468
 H375 H 0.32961 -0.03013 0.24026
 H376 H 0.36015 -0.06276 0.29776
 H377 H 0.33504 -0.04074 0.32148
 H378 H 0.23407 0.03835 0.34115
 C379 C 0.69220 -0.01362 0.68879
 C380 C 0.69457 0.00848 0.68897
 C381 C 0.68169 0.02260 0.70507
 C382 C 0.70887 0.01986 0.67176
 C383 C 0.70603 -0.02711 0.67278
 C384 C 0.67552 -0.02544 0.70395
 C385 C 0.66661 0.03930 0.69717
 C386 C 0.65325 0.05204 0.71185
 C387 C 0.65485 0.04852 0.73481
 C388 C 0.67044 0.03212 0.74278
 C389 C 0.68385 0.01933 0.72802
 C390 C 0.70150 0.01939 0.64951
 C391 C 0.71431 0.03101 0.63350
 C392 C 0.73482 0.04310 0.63946
 C393 C 0.74237 0.04328 0.66168
 C394 C 0.72931 0.03192 0.67776
 C395 C 0.73137 -0.02689 0.67268
 C396 C 0.74419 -0.03934 0.65726
 C397 C 0.73189 -0.05228 0.64170
 C398 C 0.70648 -0.05263 0.64207
 C399 C 0.69370 -0.04025 0.65755
 C400 C 0.68364 -0.04417 0.71503
 C401 C 0.66821 -0.05584 0.72892
 C402 C 0.64418 -0.04890 0.73244
 C403 C 0.63613 -0.03004 0.72115
 C404 C 0.65142 -0.01881 0.70674
 H405 H 0.66461 0.04206 0.67954
 H406 H 0.64113 0.06426 0.70514
 H407 H 0.67228 0.02922 0.76039
 H408 H 0.69567 0.00672 0.73445
 H409 H 0.68560 0.01031 0.64467
 H410 H 0.70822 0.03059 0.61645
 H411 H 0.73511 0.03254 0.69490
 H412 H 0.74119 -0.01709 0.68456
 H413 H 0.76374 -0.03901 0.65768
 H414 H 0.69645 -0.06217 0.63014
 H415 H 0.67414 -0.04060 0.65741
 H416 H 0.70212 -0.04971 0.71309
 H417 H 0.67564 -0.06978 0.73759
 H418 H 0.61763 -0.02448 0.72246
 H419 H 0.64429 -0.00503 0.69761
 H420 H 0.75799 0.05266 0.66668
 C421 C 0.30388 1.01182 0.69451
 C422 C 0.30340 0.98967 0.69309
 C423 C 0.31871 0.97603 0.70785
 C424 C 0.28872 0.97792 0.67624
 C425 C 0.28864 1.02600 0.68025
 C426 C 0.32144 1.02299 0.70914
 C427 C 0.33582 0.96183 0.69862
 C428 C 0.35076 0.94929 0.71227
 C429 C 0.34872 0.95057 0.73546
 C430 C 0.33125 0.96457 0.74465
 C431 C 0.31633 0.97715 0.73096
 C432 C 0.28987 0.98345 0.65365
 C433 C 0.27647 0.97181 0.63801
 C434 C 0.26235 0.95400 0.64457
 C435 C 0.26154 0.94820 0.66705
 C436 C 0.27452 0.96012 0.68274
 C437 C 0.26342 1.02372 0.67953
 C438 C 0.24960 1.03649 0.66502
 C439 C 0.26077 1.05183 0.65109
 C440 C 0.28598 1.05431 0.65224
 C441 C 0.29972 1.04164 0.66675
 C442 C 0.31331 1.03534 0.72720
 C443 C 0.32984 1.04630 0.74071
 C444 C 0.35465 1.04546 0.73597
 C445 C 0.36272 1.03312 0.71783
 C446 C 0.34625 1.02185 0.70460
 H447 H 0.33790 0.96077 0.68081
 H448 H 0.36426 0.93892 0.70468
 H449 H 0.32897 0.96565 0.76243
 H450 H 0.30293 0.98776 0.73835
 H451 H 0.30139 0.99656 0.64806
 H452 H 0.27766 0.97631 0.62069
 H453 H 0.27356 0.95539 0.70001
 H454 H 0.25452 1.01191 0.69003
 H455 H 0.23019 1.03440 0.66474
 H456 H 0.29522 1.06567 0.64148
 H457 H 0.31915 1.04359 0.66694
 H458 H 0.29419 1.03643 0.73083
 H459 H 0.32324 1.05587 0.75451
 H460 H 0.38179 1.03223 0.71392
 H461 H 0.35276 1.01251 0.69060
 H462 H 0.25077 0.93449 0.67245
 C463 C 0.69567 1.01329 0.30708
 C464 C 0.69347 0.99120 0.30751
 C465 C 0.67655 0.97928 0.29271
 C466 C 0.70727 0.97787 0.32374
 C467 C 0.70977 1.02478 0.32431
 C468 C 0.68248 1.02718 0.29091
 C469 C 0.65210 0.98535 0.29105
 C470 C 0.63637 0.97370 0.27739
 C471 C 0.64462 0.95537 0.26568
 C472 C 0.66891 0.94904 0.26768
 C473 C 0.68474 0.96092 0.28102
 C474 C 0.69488 0.96491 0.33909
 C475 C 0.70761 0.95234 0.35450
 C476 C 0.73302 0.95231 0.35472
 C477 C 0.74538 0.96519 0.33916
 C478 C 0.73261 0.97782 0.32379
 C479 C 0.73165 1.03480 0.31895
 C480 C 0.74468 1.04608 0.33512
 C481 C 0.73567 1.04821 0.35691
 C482 C 0.71353 1.03797 0.36200
 C483 C 0.70091 1.02624 0.34594
 C484 C 0.68438 1.02364 0.26799
 C485 C 0.67077 1.03622 0.25313
 C486 C 0.65519 1.05266 0.26094
 C487 C 0.65382 1.05644 0.28387
 C488 C 0.66740 1.04392 0.29865
 H489 H 0.64513 0.99897 0.30050
 H490 H 0.61760 0.97865 0.27639
 H491 H 0.67567 0.93497 0.25878
 H492 H 0.70344 0.95580 0.28223
 H493 H 0.67532 0.96477 0.33929
 H494 H 0.69754 0.94287 0.36645
 H495 H 0.74247 0.98744 0.31180
 H496 H 0.73859 1.03391 0.30221
 H497 H 0.76117 1.05408 0.33007
 H498 H 0.70618 1.03831 0.37859
 H499 H 0.68403 1.01847 0.35031
 H500 H 0.69618 1.01100 0.26165
 H501 H 0.67244 1.03311 0.23555
 H502 H 0.64170 1.06868 0.29049
 H503 H 0.66554 1.04689 0.31625
 H504 H 0.76493 0.96524 0.33865
 O505 O 0.87260 0.83610 0.47583
 O506 O 0.84104 0.86774 0.51893
 O507 O 0.87200 0.83560 0.51900
 O508 O 0.84150 0.86826 0.47583
 O509 O 0.81150 0.84471 0.47534
 O510 O 0.84207 0.81199 0.51813
 O511 O 0.81122 0.84399 0.51846
 O512 O 0.84240 0.81276 0.47504
 Cu513 Cu 0.85981 0.85429 0.49745
 Cu514 Cu 0.82380 0.82601 0.49667
 C515 C 0.86287 0.81900 0.46805
 C516 C 0.82073 0.86124 0.52611
 C517 C 0.86224 0.81816 0.52593
 C518 C 0.82122 0.86209 0.46825
 O519 O 0.12713 0.16310 0.47945
 O520 O 0.15569 0.13108 0.52418
 O521 O 0.12483 0.16352 0.52235
 O522 O 0.15787 0.13097 0.48095
 O523 O 0.18743 0.15497 0.48152
 O524 O 0.15561 0.18623 0.52455
 O525 O 0.18604 0.15428 0.52486
 O526 O 0.15655 0.18719 0.48171
 Cu527 Cu 0.13840 0.14474 0.50164
 Cu528 Cu 0.17451 0.17293 0.50322
 C529 C 0.13678 0.18084 0.47324
 C530 C 0.17576 0.13728 0.53220
 C531 C 0.13463 0.18040 0.53054
 C532 C 0.17816 0.13760 0.47390
 O533 O 0.15646 0.87081 0.47814
 O534 O 0.12645 0.83854 0.52148
 O535 O 0.15645 0.87148 0.52136
 O536 O 0.12669 0.83784 0.47884
 O537 O 0.15834 0.81584 0.47834
 O538 O 0.18663 0.84791 0.52278
 O539 O 0.15704 0.81537 0.52151
 O540 O 0.18801 0.84878 0.47978
 Cu541 Cu 0.13846 0.85704 0.49989
 Cu542 Cu 0.17561 0.82969 0.50060
 C543 C 0.17751 0.86546 0.47176
 C544 C 0.13646 0.82126 0.52865
 C545 C 0.17650 0.86527 0.52952
 C546 C 0.13744 0.82108 0.47138
 O547 O 0.87265 0.16213 0.52196
 O548 O 0.84307 0.13084 0.47745
 O549 O 0.87292 0.16355 0.47882
 O550 O 0.84262 0.12951 0.52070
 O551 O 0.81170 0.15230 0.52082
 O552 O 0.84221 0.18653 0.47944
 O553 O 0.81219 0.15369 0.47823
 O554 O 0.84163 0.18476 0.52265
 Cu555 Cu 0.86092 0.14422 0.49967
 Cu556 Cu 0.82392 0.17170 0.50028
 C557 C 0.86211 0.17876 0.52999
 C558 C 0.82243 0.13682 0.47044
 C559 C 0.86277 0.18092 0.47201
 C560 C 0.82187 0.13502 0.52778
 O561 O 0.52336 0.84416 0.87603
 O562 O 0.47497 0.87311 0.84585
 O563 O 0.47620 0.84268 0.87614
 O564 O 0.52169 0.87451 0.84539
 O565 O 0.52315 0.84874 0.81989
 O566 O 0.47674 0.81784 0.84975
 O567 O 0.47621 0.84809 0.81965
 O568 O 0.52383 0.81884 0.85011
 Cu569 Cu 0.49900 0.86111 0.86353
 Cu570 Cu 0.50004 0.83083 0.83229
 C571 C 0.53188 0.82652 0.86819
 C572 C 0.46749 0.86565 0.82745
 C573 C 0.46853 0.82488 0.86804
 C574 C 0.53014 0.86700 0.82737
 O575 O 0.52197 0.15703 0.12220
 O576 O 0.47762 0.12496 0.15415
 O577 O 0.47496 0.15493 0.12344
 O578 O 0.52462 0.12647 0.15226
 O579 O 0.52547 0.15254 0.17739
 O580 O 0.47369 0.17932 0.15025
 O581 O 0.47899 0.14959 0.18075
 O582 O 0.52020 0.18287 0.14757
 Cu583 Cu 0.49980 0.13830 0.13538
 Cu584 Cu 0.49956 0.16860 0.16658
 C585 C 0.52830 0.17565 0.12933
 C586 C 0.47113 0.13169 0.17315
 C587 C 0.46574 0.17194 0.13198
 C588 C 0.53364 0.13470 0.16970
 O589 O 0.52751 0.12551 0.84409
 O590 O 0.48099 0.15648 0.87437
 O591 O 0.48032 0.12566 0.84420
 O592 O 0.52769 0.15638 0.87382
 O593 O 0.52649 0.18158 0.84775
 O594 O 0.48134 0.14986 0.81716
 O595 O 0.47944 0.18049 0.84713
 O596 O 0.52807 0.15100 0.81830
 Cu597 Cu 0.50408 0.13846 0.86175
 Cu598 Cu 0.50372 0.16823 0.82995
 C599 C 0.53598 0.13312 0.82614
 C600 C 0.47235 0.17380 0.86593
 C601 C 0.47312 0.13234 0.82536
 C602 C 0.53500 0.17439 0.86589
 O603 O 0.51904 0.87538 0.15721
 O604 O 0.47424 0.84318 0.12623
 O605 O 0.47207 0.87372 0.15654
 O606 O 0.52075 0.84485 0.12689
 O607 O 0.52129 0.81964 0.15299
 O608 O 0.47343 0.84888 0.18294
 O609 O 0.47430 0.81853 0.15293
 O610 O 0.52038 0.84988 0.18300
 Cu611 Cu 0.49643 0.86186 0.13913
 Cu612 Cu 0.49741 0.83173 0.17060
 C613 C 0.52745 0.86807 0.17537
 C614 C 0.46675 0.82530 0.13427
 C615 C 0.46455 0.86631 0.17494
 C616 C 0.52910 0.82715 0.13476
 O617 O 0.84088 0.48120 0.87000
 O618 O 0.87262 0.52248 0.83681
 O619 O 0.84223 0.52381 0.87004
 O620 O 0.87087 0.48027 0.83712
 O621 O 0.84094 0.48223 0.81300
 O622 O 0.81111 0.52388 0.84715
 O623 O 0.84127 0.52465 0.81424
 O624 O 0.81061 0.48182 0.84616
 Cu625 Cu 0.85971 0.50192 0.85590
 Cu626 Cu 0.82294 0.50322 0.82774
 C627 C 0.82038 0.47435 0.86366
 C628 C 0.86233 0.53062 0.81989
 C629 C 0.82156 0.53102 0.86440
 C630 C 0.86090 0.47400 0.81927
 O631 O 0.12866 0.51913 0.16336
 O632 O 0.15870 0.47681 0.12978
 O633 O 0.12793 0.47664 0.16244
 O634 O 0.15940 0.51933 0.13062
 O635 O 0.18923 0.51871 0.15487
 O636 O 0.15858 0.47521 0.18579
 O637 O 0.18932 0.47658 0.15323
 O638 O 0.15862 0.51771 0.18744
 Cu639 Cu 0.14062 0.49808 0.14416
 Cu640 Cu 0.17691 0.49694 0.17276
 C641 C 0.13850 0.52562 0.18120
 C642 C 0.17929 0.46964 0.13568
 C643 C 0.13799 0.46851 0.17950
 C644 C 0.17972 0.52634 0.13733
 O645 O 0.84106 0.52178 0.13178
 O646 O 0.87227 0.47934 0.16433
 O647 O 0.84102 0.47915 0.13177
 O648 O 0.87245 0.52131 0.16417
 O649 O 0.84256 0.52148 0.18833
 O650 O 0.81103 0.47960 0.15576
 O651 O 0.84196 0.47901 0.18808
 O652 O 0.81143 0.52210 0.15615
 Cu653 Cu 0.85962 0.50037 0.14549
 Cu654 Cu 0.82372 0.50057 0.17446
 C655 C 0.82098 0.52935 0.13852
 C656 C 0.86246 0.47203 0.18182
 C657 C 0.82067 0.47210 0.13827
 C658 C 0.86298 0.52843 0.18191
 O659 O 0.12743 0.47886 0.83421
 O660 O 0.15931 0.52022 0.86730
 O661 O 0.12811 0.52123 0.83500
 O662 O 0.15876 0.47773 0.86661
 O663 O 0.18814 0.47723 0.84199
 O664 O 0.15834 0.52162 0.81127
 O665 O 0.18957 0.51944 0.84358
 O666 O 0.15700 0.47918 0.80979
 Cu667 Cu 0.14041 0.49949 0.85322
 Cu668 Cu 0.17622 0.49939 0.82421
 C669 C 0.13669 0.47203 0.81625
 C670 C 0.18000 0.52676 0.86118
 C671 C 0.13806 0.52894 0.81776
 C672 C 0.17869 0.47000 0.85967
 C673 C 0.22875 0.40565 0.08266
 C674 C 0.25393 0.40347 0.08463
 C675 C 0.26596 0.38791 0.07169
 C676 C 0.25295 0.37436 0.05718
 C677 C 0.22770 0.37663 0.05550
 C678 C 0.21551 0.39241 0.06810
 C679 C 0.21603 0.42207 0.09618
 C680 C 0.19090 0.42452 0.09398
 C681 C 0.17892 0.44027 0.10680
 C682 C 0.19187 0.45319 0.12198
 C683 C 0.21704 0.45038 0.12405
 C684 C 0.22923 0.43497 0.11106
 C685 C 0.19037 0.39526 0.06643
 C686 C 0.17829 0.41111 0.07909
 C687 C 0.26654 0.41680 0.09957
 C688 C 0.25438 0.43223 0.11264
 H689 H 0.17995 0.38520 0.05522
 H690 H 0.15891 0.41280 0.07726
 H691 H 0.28595 0.41524 0.10126
 H692 H 0.26477 0.44213 0.12403
 H693 H 0.28538 0.38603 0.07318
 H694 H 0.21767 0.36630 0.04422
 H695 H 0.15953 0.44226 0.10518
 H696 H 0.22717 0.46036 0.13557
 C697 C 0.77217 0.59695 0.08939
 C698 C 0.75219 0.60752 0.09888
 C699 C 0.74013 0.62376 0.08679
 C700 C 0.74775 0.62933 0.06525
 C701 C 0.76793 0.61860 0.05605
 C702 C 0.78023 0.60241 0.06807
 C703 C 0.78480 0.57972 0.10198
 C704 C 0.80481 0.56914 0.09253
 C705 C 0.81672 0.55273 0.10458
 C706 C 0.80858 0.54677 0.12585
 C707 C 0.78844 0.55758 0.13502
 C708 C 0.77655 0.57410 0.12320
 C709 C 0.80031 0.59146 0.05915
 C710 C 0.81242 0.57514 0.07119
 C711 C 0.74459 0.60156 0.12022
 C712 C 0.75653 0.58510 0.13216
 H713 H 0.80672 0.59553 0.04271
 H714 H 0.82782 0.56710 0.06369
 H715 H 0.72919 0.60961 0.12772
 H716 H 0.75002 0.58093 0.14854
 H717 H 0.72488 0.63212 0.09419
 H718 H 0.77377 0.62252 0.03939
 H719 H 0.83214 0.54450 0.09733
 H720 H 0.78208 0.55322 0.15140
 C721 C 0.77068 0.40970 0.91526
 C722 C 0.74544 0.40810 0.91368
 C723 C 0.73338 0.39244 0.92640
 C724 C 0.74645 0.37822 0.94028
 C725 C 0.77176 0.37990 0.94157
 C726 C 0.78397 0.39577 0.92922
 C727 C 0.78345 0.42623 0.90201
 C728 C 0.80864 0.42810 0.90389
 C729 C 0.82066 0.44400 0.89140
 C730 C 0.80768 0.45766 0.87683
 C731 C 0.78245 0.45540 0.87499
 C732 C 0.77021 0.43983 0.88771
 C733 C 0.80918 0.39805 0.93055
 C734 C 0.82129 0.41401 0.91817
 C735 C 0.73279 0.42212 0.89932
 C736 C 0.74498 0.43766 0.88648
 H737 H 0.81962 0.38744 0.94129
 H738 H 0.84074 0.41526 0.91973
 H739 H 0.71332 0.42101 0.89792
 H740 H 0.73457 0.44810 0.87554
 H741 H 0.71390 0.39101 0.92525
 H742 H 0.78181 0.36903 0.95238
 H743 H 0.84010 0.44557 0.89280
 H744 H 0.77232 0.46596 0.86394
 C745 C 0.23137 0.58972 0.91370
 C746 C 0.21850 0.60336 0.92820
 C747 C 0.23111 0.61889 0.94070
 C748 C 0.25640 0.62051 0.93901
 C749 C 0.26904 0.60655 0.92459
 C750 C 0.25658 0.59124 0.91173
 C751 C 0.21818 0.57358 0.90028
 C752 C 0.23099 0.56026 0.88545
 C753 C 0.21834 0.54510 0.87255
 C754 C 0.19313 0.54296 0.87468
 C755 C 0.18059 0.55631 0.88980
 C756 C 0.19302 0.57180 0.90250
 C757 C 0.26879 0.57751 0.89685
 C758 C 0.25620 0.56234 0.88386
 C759 C 0.19332 0.60118 0.92989
 C760 C 0.18080 0.58560 0.91733
 H761 H 0.28823 0.57856 0.89515
 H762 H 0.26628 0.55212 0.87251
 H763 H 0.18320 0.61158 0.94105
 H764 H 0.16139 0.58442 0.91917
 H765 H 0.22138 0.62953 0.95193
 H766 H 0.28849 0.60793 0.92312
 H767 H 0.22815 0.53478 0.86107
 H768 H 0.16117 0.55484 0.89145
 C769 C 0.08855 0.23456 0.40864
 C770 C 0.09326 0.25704 0.40816
 C771 C 0.08087 0.27023 0.39293
 C772 C 0.06422 0.26100 0.37805
 C773 C 0.05992 0.23841 0.37851
 C774 C 0.07188 0.22512 0.39396
 C775 C 0.10117 0.22068 0.42493
 C776 C 0.09599 0.19830 0.42584
 C777 C 0.10770 0.18526 0.44169
 C778 C 0.12476 0.19443 0.45626
 C779 C 0.12999 0.21685 0.45488
 C780 C 0.11806 0.23009 0.43939
 C781 C 0.06737 0.20262 0.39520
 C782 C 0.07914 0.18946 0.41093
 C783 C 0.11023 0.26586 0.42294
 C784 C 0.12250 0.25260 0.43823
 H785 H 0.05452 0.19515 0.38400
 H786 H 0.07502 0.17221 0.41143
 H787 H 0.11406 0.28317 0.42268
 H788 H 0.13546 0.26005 0.44934
 H789 H 0.08429 0.28762 0.39246
 H790 H 0.04693 0.23135 0.36715
 H791 H 0.10367 0.16801 0.44259
 H792 H 0.14294 0.22406 0.46616
 C793 C 0.08726 0.76633 0.59107
 C794 C 0.10076 0.75251 0.60497
 C795 C 0.08864 0.73888 0.61989
 C796 C 0.06325 0.73874 0.62059
 C797 C 0.04996 0.75255 0.60646
 C798 C 0.06190 0.76656 0.59178
 C799 C 0.09991 0.78074 0.57540
 C800 C 0.08642 0.79478 0.56173
 C801 C 0.09854 0.80840 0.54680
 C802 C 0.12390 0.80767 0.54517
 C803 C 0.13714 0.79345 0.55895
 C804 C 0.12523 0.78008 0.57426
 C805 C 0.04902 0.78078 0.57781
 C806 C 0.06109 0.79473 0.56311
 C807 C 0.12609 0.75251 0.60354
 C808 C 0.13812 0.76598 0.58836
 H809 H 0.02946 0.78115 0.57826
 H810 H 0.05048 0.80546 0.55262
 H811 H 0.13670 0.74190 0.61414
 H812 H 0.15766 0.76537 0.58768
 H813 H 0.09886 0.72812 0.63068
 H814 H 0.03039 0.75257 0.60715
 H815 H 0.08824 0.81917 0.53610
 H816 H 0.15668 0.79289 0.55784
 C817 C 0.91230 0.76711 0.40272
 C818 C 0.89991 0.75009 0.39217
 C819 C 0.91225 0.73687 0.37700
 C820 C 0.93690 0.74040 0.37250
 C821 C 0.94898 0.75773 0.38305
 C822 C 0.93675 0.77114 0.39819
 C823 C 0.89952 0.78076 0.41907
 C824 C 0.91195 0.79768 0.42977
 C825 C 0.89979 0.81039 0.44556
 C826 C 0.87546 0.80611 0.45083
 C827 C 0.86329 0.78913 0.43980
 C828 C 0.87521 0.77644 0.42389
 C829 C 0.94856 0.78829 0.40915
 C830 C 0.93635 0.80135 0.42464
 C831 C 0.87548 0.74646 0.39721
 C832 C 0.86335 0.75939 0.41283
 H833 H 0.96742 0.79157 0.40581
 H834 H 0.94616 0.81434 0.43279
 H835 H 0.86572 0.73340 0.38916
 H836 H 0.84457 0.75594 0.41637
 H837 H 0.90270 0.72378 0.36874
 H838 H 0.96801 0.76042 0.37995
 H839 H 0.90937 0.82336 0.45398
 H840 H 0.84455 0.78573 0.44363
 C841 C 0.90763 0.22929 0.59861
 C842 C 0.93226 0.22613 0.60323
 C843 C 0.94354 0.23936 0.61910
 C844 C 0.93034 0.25567 0.63028
 C845 C 0.90551 0.25824 0.62575
 C846 C 0.89411 0.24520 0.60983
 C847 C 0.89588 0.21597 0.58139
 C848 C 0.87139 0.21951 0.57642
 C849 C 0.86044 0.20720 0.55965
 C850 C 0.87375 0.19134 0.54796
 C851 C 0.89823 0.18780 0.55338
 C852 C 0.90943 0.20018 0.57000
 C853 C 0.86955 0.24803 0.60464
 C854 C 0.85840 0.23543 0.58818
 C855 C 0.94520 0.21008 0.59158
 C856 C 0.93397 0.19729 0.57528
 H857 H 0.85893 0.26025 0.61321
 H858 H 0.83947 0.23826 0.58454
 H859 H 0.96422 0.20748 0.59499
 H860 H 0.94463 0.18518 0.56662
 H861 H 0.96271 0.23744 0.62221
 H862 H 0.89512 0.27052 0.63447
 H863 H 0.84157 0.20999 0.55572
 H864 H 0.90866 0.17569 0.54444
 C865 C 0.40576 0.08197 0.22702
 C866 C 0.38883 0.06817 0.21689
 C867 C 0.37248 0.05666 0.23019
 C868 C 0.37338 0.05861 0.25341
 C869 C 0.39066 0.07227 0.26330
 C870 C 0.40675 0.08418 0.25016
 C871 C 0.42267 0.09447 0.21313
 C872 C 0.43911 0.10871 0.22327
 C873 C 0.45481 0.12088 0.21000
 C874 C 0.45449 0.11860 0.18680
 C875 C 0.43817 0.10397 0.17688
 C876 C 0.42199 0.09203 0.19000
 C877 C 0.42366 0.09839 0.25969
 C878 C 0.43950 0.11054 0.24646
 C879 C 0.38862 0.06621 0.19369
 C880 C 0.40500 0.07785 0.18048
 H881 H 0.42456 0.10026 0.27752
 H882 H 0.45216 0.12144 0.25445
 H883 H 0.37571 0.05557 0.18568
 H884 H 0.40424 0.07585 0.16266
 H885 H 0.35924 0.04602 0.22259
 H886 H 0.39120 0.07392 0.28117
 H887 H 0.46748 0.13197 0.21775
 H888 H 0.43776 0.10224 0.15901
 C889 C 0.60753 0.08551 0.77661
 C890 C 0.61166 0.06340 0.78135
 C891 C 0.62777 0.05148 0.76808
 C892 C 0.63962 0.06155 0.75015
 C893 C 0.63572 0.08392 0.74608
 C894 C 0.61956 0.09592 0.75912
 C895 C 0.58982 0.09788 0.78985
 C896 C 0.58519 0.11981 0.78465
 C897 C 0.56774 0.13129 0.79677
 C898 C 0.55503 0.12105 0.81406
 C899 C 0.56023 0.09914 0.81934
 C900 C 0.57750 0.08742 0.80715
 C901 C 0.61480 0.11801 0.75472
 C902 C 0.59786 0.12974 0.76724
 C903 C 0.59917 0.05355 0.79894
 C904 C 0.58243 0.06537 0.81166
 H905 H 0.62401 0.12622 0.74128
 H906 H 0.59451 0.14668 0.76312
 H907 H 0.60221 0.03650 0.80279
 H908 H 0.57306 0.05710 0.82496
 H909 H 0.63040 0.03423 0.77120
 H910 H 0.64503 0.09191 0.73256
 H911 H 0.56400 0.14817 0.79265
 H912 H 0.55049 0.09108 0.83256
 C913 C 0.39729 0.91346 0.77622
 C914 C 0.39113 0.93481 0.78245
 C915 C 0.37498 0.94678 0.76924
 C916 C 0.36502 0.93754 0.74991
 C917 C 0.37117 0.91597 0.74412
 C918 C 0.38738 0.90391 0.75715
 C919 C 0.41473 0.90099 0.78973
 C920 C 0.42122 0.87980 0.78325
 C921 C 0.43826 0.86821 0.79583
 C922 C 0.44875 0.87764 0.81482
 C923 C 0.44173 0.89882 0.82126
 C924 C 0.42482 0.91061 0.80869
 C925 C 0.39408 0.88255 0.75136
 C926 C 0.41075 0.87071 0.76417
 C927 C 0.40148 0.94384 0.80162
 C928 C 0.41801 0.93193 0.81454
 H929 H 0.38653 0.87499 0.73670
 H930 H 0.41558 0.85436 0.75903
 H931 H 0.39687 0.96029 0.80662
 H932 H 0.42567 0.93953 0.82913
 H933 H 0.37063 0.96345 0.77370
 H934 H 0.36334 0.90858 0.72949
 H935 H 0.44345 0.85191 0.79075
 H936 H 0.44974 0.90627 0.83578
 C937 C 0.59557 0.91810 0.22619
 C938 C 0.61040 0.90746 0.24173
 C939 C 0.62664 0.91974 0.25440
 C940 C 0.62778 0.94253 0.25188
 C941 C 0.61269 0.95298 0.23633
 C942 C 0.59666 0.94080 0.22330
 C943 C 0.57845 0.90525 0.21283
 C944 C 0.56379 0.91583 0.19712
 C945 C 0.54745 0.90352 0.18453
 C946 C 0.54542 0.88087 0.18791
 C947 C 0.56026 0.87055 0.20376
 C948 C 0.57694 0.88264 0.21615
 C949 C 0.58168 0.95082 0.20744
 C950 C 0.56559 0.93853 0.19452
 C951 C 0.60857 0.88478 0.24439
 C952 C 0.59204 0.87258 0.23188
 H953 H 0.58239 0.96830 0.20501
 H954 H 0.55435 0.94690 0.18249
 H955 H 0.61989 0.87639 0.25634
 H956 H 0.59108 0.85514 0.23455
 H957 H 0.63806 0.91169 0.26653
 H958 H 0.61367 0.97051 0.23426
 H959 H 0.53597 0.91160 0.17248
 H960 H 0.55891 0.85311 0.20637
 C961 C 0.40474 0.22648 0.91451
 C962 C 0.38596 0.23711 0.90323
 C963 C 0.36982 0.25031 0.91512
 C964 C 0.37265 0.25374 0.93827
 C965 C 0.39209 0.24287 0.94907
 C966 C 0.40780 0.22908 0.93739
 C967 C 0.42167 0.21249 0.90206
 C968 C 0.44008 0.20137 0.91348
 C969 C 0.45615 0.18813 0.90158
 C970 C 0.45436 0.18659 0.87837
 C971 C 0.43592 0.19795 0.86714
 C972 C 0.41927 0.21069 0.87897
 C973 C 0.42650 0.21773 0.94824
 C974 C 0.44226 0.20400 0.93651
 C975 C 0.38389 0.23462 0.88014
 C976 C 0.40037 0.22178 0.86820
 H977 H 0.42898 0.21946 0.96596
 H978 H 0.45642 0.19555 0.94551
 H979 H 0.36953 0.24284 0.87118
 H980 H 0.39826 0.22048 0.85040
 H981 H 0.35611 0.25896 0.90578
 H982 H 0.39442 0.24393 0.96684
 H983 H 0.47052 0.17960 0.91024
 H984 H 0.43446 0.19670 0.84927
 C985 C 0.60530 0.77825 0.91503
 C986 C 0.60990 0.78286 0.93742
 C987 C 0.62664 0.76999 0.94910
 C988 C 0.63865 0.75259 0.93852
 C989 C 0.63424 0.74862 0.91588
 C990 C 0.61746 0.76127 0.90411
 C991 C 0.58700 0.79111 0.90290
 C992 C 0.58197 0.78605 0.88069
 C993 C 0.56405 0.79784 0.86942
 C994 C 0.55126 0.81468 0.88014
 C995 C 0.55683 0.81979 0.90233
 C996 C 0.57459 0.80793 0.91385
 C997 C 0.61225 0.75698 0.88176
 C998 C 0.59476 0.76913 0.87026
 C999 C 0.59727 0.79995 0.94777
 C1000 C 0.57996 0.81230 0.93617
 H1001 H 0.62155 0.74394 0.87316
 H1002 H 0.59109 0.76514 0.85310
 H1003 H 0.60065 0.80370 0.96503
 H1004 H 0.57053 0.82523 0.94482
 H1005 H 0.62966 0.77303 0.96657
 H1006 H 0.64366 0.73551 0.90749
 H1007 H 0.56004 0.79386 0.85232
 H1008 H 0.54705 0.83267 0.91075
 C1009 C 0.40266 0.77024 0.08474
 C1010 C 0.40563 0.76838 0.06176
 C1011 C 0.39084 0.75402 0.04985
 C1012 C 0.37256 0.74193 0.06061
 C1013 C 0.36969 0.74446 0.08377
 C1014 C 0.38490 0.75827 0.09590
 C1015 C 0.41862 0.78487 0.09742
 C1016 C 0.41635 0.78600 0.12056
 C1017 C 0.43212 0.79937 0.13261
 C1018 C 0.44956 0.81196 0.12156
 C1019 C 0.45121 0.81106 0.09832
 C1020 C 0.43602 0.79725 0.08618
 C1021 C 0.38289 0.76012 0.11903
 C1022 C 0.39847 0.77363 0.13117
 C1023 C 0.42330 0.78098 0.05109
 C1024 C 0.43814 0.79528 0.06308
 H1025 H 0.36931 0.75089 0.12786
 H1026 H 0.39647 0.77441 0.14901
 H1027 H 0.42569 0.77979 0.03332
 H1028 H 0.45154 0.80469 0.05422
 H1029 H 0.39300 0.75308 0.03204
 H1030 H 0.35646 0.73491 0.09269
 H1031 H 0.43077 0.80011 0.15051
 H1032 H 0.46483 0.82055 0.08981
 C1033 C 0.59413 0.22941 0.08015
 C1034 C 0.59324 0.25213 0.08291
 C1035 C 0.60937 0.26524 0.07107
 C1036 C 0.62658 0.25574 0.05691
 C1037 C 0.62742 0.23294 0.05444
 C1038 C 0.61103 0.21967 0.06589
 C1039 C 0.57712 0.21556 0.09252
 C1040 C 0.57769 0.19285 0.08951
 C1041 C 0.56139 0.17977 0.10131
 C1042 C 0.54505 0.18928 0.11636
 C1043 C 0.54484 0.21206 0.11921
 C1044 C 0.56067 0.22529 0.10719
 C1045 C 0.61114 0.19690 0.06338
 C1046 C 0.59467 0.18373 0.07491
 C1047 C 0.57634 0.26127 0.09756
 C1048 C 0.56040 0.24807 0.10958
 H1049 H 0.62403 0.18919 0.05238
 H1050 H 0.59535 0.16624 0.07247
 H1051 H 0.57552 0.27878 0.09985
 H1052 H 0.54773 0.25575 0.12081
 H1053 H 0.60886 0.28279 0.07311
 H1054 H 0.64060 0.22564 0.04341
 H1055 H 0.56172 0.16224 0.09914
 H1056 H 0.53216 0.21951 0.13062
 C1057 C 0.22209 0.08897 0.60228
 C1058 C 0.24064 0.09888 0.61449
 C1059 C 0.25261 0.08686 0.63093
 C1060 C 0.24649 0.06494 0.63497
 C1061 C 0.22753 0.05536 0.62279
 C1062 C 0.21526 0.06733 0.60642
 C1063 C 0.20987 0.10139 0.58456
 C1064 C 0.19136 0.09150 0.57224
 C1065 C 0.17999 0.10335 0.55524
 C1066 C 0.18732 0.12480 0.55035
 C1067 C 0.20591 0.13442 0.56292
 C1068 C 0.21716 0.12284 0.58009
 C1069 C 0.19659 0.05800 0.59382
 C1070 C 0.18479 0.06990 0.57707
 C1071 C 0.24715 0.12050 0.60977
 C1072 C 0.23564 0.13226 0.59282
 H1073 H 0.19112 0.04132 0.59685
 H1074 H 0.17055 0.06207 0.56770
 H1075 H 0.26143 0.12831 0.61910
 H1076 H 0.24136 0.14883 0.58957
 H1077 H 0.26686 0.09453 0.64044
 H1078 H 0.22285 0.03844 0.62556
 H1079 H 0.16575 0.09580 0.54562
 H1080 H 0.21156 0.15097 0.55942
 C1081 C 0.77276 0.08567 0.40499
 C1082 C 0.74748 0.08456 0.40556
 C1083 C 0.73535 0.07184 0.38984
 C1084 C 0.74818 0.06059 0.37308
 C1085 C 0.77370 0.06222 0.37276
 C1086 C 0.78602 0.07446 0.38881
 C1087 C 0.78559 0.09886 0.42167
 C1088 C 0.81096 0.09947 0.42154
 C1089 C 0.82306 0.11179 0.43768
 C1090 C 0.80988 0.12386 0.45341
 C1091 C 0.78447 0.12329 0.45309
 C1092 C 0.77223 0.11060 0.43743
 C1093 C 0.81138 0.07560 0.38908
 C1094 C 0.82364 0.08778 0.40525
 C1095 C 0.73475 0.09639 0.42171
 C1096 C 0.74691 0.10929 0.43730
 H1097 H 0.82186 0.06694 0.37674
 H1098 H 0.84320 0.08814 0.40493
 H1099 H 0.71521 0.09575 0.42226
 H1100 H 0.73642 0.11823 0.44943
 H1101 H 0.71579 0.07169 0.39014
 H1102 H 0.78418 0.05327 0.36065
 H1103 H 0.84263 0.11227 0.43781
 H1104 H 0.77426 0.13238 0.46533
 C1105 C 0.77047 0.91048 0.59300
 C1106 C 0.74995 0.90153 0.60310
 C1107 C 0.73757 0.91367 0.61917
 C1108 C 0.74544 0.93473 0.62504
 C1109 C 0.76613 0.94342 0.61473
 C1110 C 0.77873 0.93134 0.59874
 C1111 C 0.78348 0.89782 0.57601
 C1112 C 0.80403 0.90675 0.56592
 C1113 C 0.81629 0.89466 0.54971
 C1114 C 0.80799 0.87384 0.54346
 C1115 C 0.78732 0.86517 0.55378
 C1116 C 0.77505 0.87706 0.57011
 C1117 C 0.79936 0.93975 0.58827
 C1118 C 0.81181 0.92764 0.57217
 C1119 C 0.74217 0.88063 0.59688
 C1120 C 0.75448 0.86862 0.58063
 H1121 H 0.80592 0.95582 0.59255
 H1122 H 0.82763 0.93473 0.56450
 H1123 H 0.72636 0.87354 0.60456
 H1124 H 0.74782 0.85260 0.57624
 H1125 H 0.72192 0.90667 0.62721
 H1126 H 0.77217 0.95970 0.61886
 H1127 H 0.83212 0.90153 0.54184
 H1128 H 0.78082 0.84915 0.54918
 C1129 C 0.22688 0.91809 0.40733
 C1130 C 0.25218 0.91707 0.40605
 C1131 C 0.26418 0.93004 0.39047
 C1132 C 0.25102 0.94365 0.37603
 C1133 C 0.22566 0.94439 0.37741
 C1134 C 0.21348 0.93176 0.39320
 C1135 C 0.21417 0.90456 0.42376
 C1136 C 0.18890 0.90584 0.42533
 C1137 C 0.17694 0.89307 0.44115
 C1138 C 0.19007 0.87885 0.45504
 C1139 C 0.21539 0.87764 0.45307
 C1140 C 0.22755 0.89059 0.43759
 C1141 C 0.18820 0.93250 0.39517
 C1142 C 0.17613 0.91983 0.41103
 C1143 C 0.26495 0.90301 0.42026
 C1144 C 0.25283 0.88993 0.43571
 H1145 H 0.17767 0.94301 0.38440
 H1146 H 0.15663 0.92094 0.41205
 H1147 H 0.28447 0.90206 0.41939
 H1148 H 0.26335 0.87926 0.44633
 H1149 H 0.28371 0.92927 0.38926
 H1150 H 0.21552 0.95497 0.36638
 H1151 H 0.15744 0.89403 0.44250
 H1152 H 0.22565 0.86686 0.46381
 C1153 C 0.08605 0.40886 0.76320
 C1154 C 0.06263 0.40255 0.76925
 C1155 C 0.05031 0.38731 0.75616
 C1156 C 0.06128 0.37836 0.73716
 C1157 C 0.08484 0.38487 0.73139
 C1158 C 0.09729 0.40014 0.74433
 C1159 C 0.09905 0.42496 0.77685
 C1160 C 0.12243 0.43135 0.77073
 C1161 C 0.13467 0.44674 0.78369
 C1162 C 0.12371 0.45569 0.80271
 C1163 C 0.10025 0.44900 0.80862
 C1164 C 0.08782 0.43368 0.79572
 C1165 C 0.12075 0.40688 0.73879
 C1166 C 0.13310 0.42224 0.75175
 C1167 C 0.05197 0.41165 0.78824
 C1168 C 0.06436 0.42693 0.80126
 H1169 H 0.12962 0.40026 0.72428
 H1170 H 0.15114 0.42702 0.74687
 H1171 H 0.03389 0.40692 0.79307
 H1172 H 0.05549 0.43355 0.81577
 H1173 H 0.03207 0.38267 0.76057
 H1174 H 0.09357 0.37788 0.71699
 H1175 H 0.15271 0.45171 0.77898
 H1176 H 0.09161 0.45578 0.82318
 C1177 C 0.09194 0.59123 0.23464
 C1178 C 0.10302 0.59813 0.25430
 C1179 C 0.09149 0.61381 0.26749
 C1180 C 0.06881 0.62275 0.26130
 C1181 C 0.05823 0.61559 0.24117
 C1182 C 0.06964 0.59987 0.22792
 C1183 C 0.10389 0.57451 0.22087
 C1184 C 0.09269 0.56743 0.20128
 C1185 C 0.10407 0.55144 0.18832
 C1186 C 0.12649 0.54254 0.19486
 C1187 C 0.13744 0.54990 0.21458
 C1188 C 0.12622 0.56586 0.22763
 C1189 C 0.05899 0.59239 0.20818
 C1190 C 0.07032 0.57646 0.19509
 C1191 C 0.12546 0.58919 0.26045
 C1192 C 0.13686 0.57333 0.24735
 H1193 H 0.04172 0.59889 0.20282
 H1194 H 0.06147 0.57115 0.18002
 H1195 H 0.13425 0.59443 0.27558
 H1196 H 0.15411 0.56681 0.25273
 H1197 H 0.10079 0.61945 0.28217
 H1198 H 0.04053 0.62131 0.23615
 H1199 H 0.09545 0.54593 0.17320
 H1200 H 0.15468 0.54322 0.21980
 C1201 C 0.91195 0.40941 0.23637
 C1202 C 0.89871 0.39309 0.24713
 C1203 C 0.91086 0.37799 0.26062
 C1204 C 0.93611 0.37946 0.26406
 C1205 C 0.94893 0.39628 0.25320
 C1206 C 0.93703 0.41103 0.23915
 C1207 C 0.89928 0.42519 0.22200
 C1208 C 0.91263 0.44116 0.21076
 C1209 C 0.90049 0.45610 0.19709
 C1210 C 0.87517 0.45553 0.19523
 C1211 C 0.86201 0.43954 0.20673
 C1212 C 0.87404 0.42411 0.21992
 C1213 C 0.94977 0.42729 0.22771
 C1214 C 0.93779 0.44202 0.21364
 C1215 C 0.87351 0.39232 0.24438
 C1216 C 0.86136 0.40767 0.23113
 H1217 H 0.96917 0.42863 0.22961
 H1218 H 0.94829 0.45430 0.20510
 H1219 H 0.86306 0.37985 0.25267
 H1220 H 0.84190 0.40662 0.22961
 H1221 H 0.90035 0.36578 0.26923
 H1222 H 0.96838 0.39742 0.25480
 H1223 H 0.91062 0.46856 0.18842
 H1224 H 0.84251 0.43902 0.20521
 C1225 C 0.91197 0.59252 0.76507
 C1226 C 0.89897 0.60963 0.75522
 C1227 C 0.91113 0.62453 0.74163
 C1228 C 0.93609 0.62208 0.73717
 C1229 C 0.94866 0.60448 0.74715
 C1230 C 0.93679 0.58992 0.76130
 C1231 C 0.89929 0.57691 0.77952
 C1232 C 0.91243 0.56013 0.78987
 C1233 C 0.90029 0.54535 0.80360
 C1234 C 0.87512 0.54692 0.80641
 C1235 C 0.86217 0.56372 0.79580
 C1236 C 0.87424 0.57898 0.78256
 C1237 C 0.94932 0.57286 0.77187
 C1238 C 0.93738 0.55830 0.78603
 C1239 C 0.87398 0.61137 0.75893
 C1240 C 0.86179 0.59621 0.77224
 H1241 H 0.96854 0.57076 0.76920
 H1242 H 0.94771 0.54539 0.79386
 H1243 H 0.86371 0.62447 0.75134
 H1244 H 0.84248 0.59803 0.77451
 H1245 H 0.90077 0.63737 0.73371
 H1246 H 0.96794 0.60257 0.74476
 H1247 H 0.91026 0.53228 0.81159
 H1248 H 0.84279 0.56501 0.79805
 C1249 C 0.77294 0.59570 0.91716
 C1250 C 0.74773 0.59779 0.91550
 C1251 C 0.73585 0.61349 0.92837
 C1252 C 0.74904 0.62724 0.94254
 C1253 C 0.77433 0.62507 0.94391
 C1254 C 0.78637 0.60915 0.93136
 C1255 C 0.78549 0.57912 0.90372
 C1256 C 0.81066 0.57674 0.90560
 C1257 C 0.82247 0.56083 0.89285
 C1258 C 0.80928 0.54768 0.87804
 C1259 C 0.78408 0.55043 0.87629
 C1260 C 0.77207 0.56600 0.88921
 C1261 C 0.81154 0.60637 0.93273
 C1262 C 0.82346 0.59038 0.92014
 C1263 C 0.73491 0.58424 0.90092
 C1264 C 0.74690 0.56866 0.88792
 H1265 H 0.82211 0.61661 0.94366
 H1266 H 0.84288 0.58875 0.92173
 H1267 H 0.71547 0.58574 0.89947
 H1268 H 0.73636 0.55858 0.87682
 H1269 H 0.71641 0.61530 0.92712
 H1270 H 0.78449 0.63557 0.95493
 H1271 H 0.84188 0.55887 0.89422
 H1272 H 0.77376 0.54027 0.86507
 C1273 C 0.22878 0.40351 0.90932
 C1274 C 0.24920 0.39342 0.90007
 C1275 C 0.26173 0.37764 0.91241
 C1276 C 0.25411 0.37203 0.93393
 C1277 C 0.23350 0.38229 0.94290
 C1278 C 0.22075 0.39802 0.93065
 C1279 C 0.21567 0.42027 0.89648
 C1280 C 0.19528 0.43042 0.90574
 C1281 C 0.18302 0.44649 0.89353
 C1282 C 0.19116 0.45256 0.87229
 C1283 C 0.21161 0.44211 0.86327
 C1284 C 0.22390 0.42593 0.87527
 C1285 C 0.20025 0.40850 0.93934
 C1286 C 0.18771 0.42440 0.92709
 C1287 C 0.25675 0.39939 0.87871
 C1288 C 0.24434 0.41540 0.86654
 H1289 H 0.19386 0.40441 0.95578
 H1290 H 0.17202 0.43211 0.93443
 H1291 H 0.27247 0.39171 0.87139
 H1292 H 0.25084 0.41961 0.85017
 H1293 H 0.27732 0.36964 0.90519
 H1294 H 0.22765 0.37833 0.95954
 H1295 H 0.16736 0.45446 0.90067
 H1296 H 0.21802 0.44657 0.84693
 C1297 C 0.23104 0.59145 0.08732
 C1298 C 0.22124 0.59929 0.06742
 C1299 C 0.23411 0.61479 0.05509
 C1300 C 0.25688 0.62256 0.06240
 C1301 C 0.26615 0.61438 0.08270
 C1302 C 0.25340 0.59891 0.09509
 C1303 C 0.21768 0.57501 0.10024
 C1304 C 0.22756 0.56715 0.12015
 C1305 C 0.21495 0.55138 0.13226
 C1306 C 0.19258 0.54339 0.12461
 C1307 C 0.18287 0.55158 0.10464
 C1308 C 0.19538 0.56737 0.09238
 C1309 C 0.26261 0.59077 0.11518
 C1310 C 0.24992 0.57515 0.12749
 C1311 C 0.19883 0.59129 0.06009
 C1312 C 0.18612 0.57562 0.07236
 H1313 H 0.27985 0.59645 0.12141
 H1314 H 0.25773 0.56924 0.14284
 H1315 H 0.19106 0.59717 0.04472
 H1316 H 0.16894 0.56988 0.06609
 H1317 H 0.22666 0.61992 0.03934
 H1318 H 0.28289 0.62051 0.08950
 H1319 H 0.22263 0.54525 0.14758
 H1320 H 0.16571 0.54557 0.09856
 C1321 C 0.77120 0.40558 0.08857
 C1322 C 0.74948 0.39710 0.09671
 C1323 C 0.73728 0.38114 0.08448
 C1324 C 0.74641 0.37353 0.06395
 C1325 C 0.76857 0.38229 0.05630
 C1326 C 0.78091 0.39825 0.06847
 C1327 C 0.78396 0.42255 0.10131
 C1328 C 0.80565 0.43114 0.09311
 C1329 C 0.81766 0.44733 0.10526
 C1330 C 0.80804 0.45497 0.12544
 C1331 C 0.78625 0.44611 0.13338
 C1332 C 0.77416 0.42990 0.12140
 C1333 C 0.80268 0.40724 0.06080
 C1334 C 0.81485 0.42338 0.07291
 C1335 C 0.74033 0.40476 0.11698
 C1336 C 0.75244 0.42090 0.12910
 H1337 H 0.81038 0.40176 0.04527
 H1338 H 0.83157 0.42986 0.06638
 H1339 H 0.72359 0.39830 0.12348
 H1340 H 0.74471 0.42640 0.14460
 H1341 H 0.72107 0.37425 0.09156
 H1342 H 0.77587 0.37760 0.04038
 H1343 H 0.83440 0.45401 0.09896
 H1344 H 0.77868 0.45179 0.14889
 C1345 C 0.90984 0.76566 0.59225
 C1346 C 0.89898 0.74629 0.59938
 C1347 C 0.91085 0.73322 0.61507
 C1348 C 0.93367 0.73923 0.62379
 C1349 C 0.94400 0.75909 0.61647
 C1350 C 0.93225 0.77222 0.60071
 C1351 C 0.89756 0.77927 0.57546
 C1352 C 0.90856 0.79854 0.56811
 C1353 C 0.89692 0.81130 0.55197
 C1354 C 0.87442 0.80486 0.54318
 C1355 C 0.86364 0.78550 0.55087
 C1356 C 0.87514 0.77264 0.56697
 C1357 C 0.94268 0.79166 0.59300
 C1358 C 0.93104 0.80460 0.57698
 C1359 C 0.87642 0.74029 0.59062
 C1360 C 0.86470 0.75324 0.57469
 H1361 H 0.96003 0.79691 0.59935
 H1362 H 0.93974 0.81943 0.57147
 H1363 H 0.86779 0.72539 0.59604
 H1364 H 0.84738 0.74796 0.56830
 H1365 H 0.90173 0.71874 0.62088
 H1366 H 0.96176 0.76399 0.62204
 H1367 H 0.90540 0.82615 0.54621
 H1368 H 0.84635 0.78035 0.54428
 C1369 C 0.91120 0.23522 0.40812
 C1370 C 0.93295 0.22807 0.39871
 C1371 C 0.94483 0.24144 0.38337
 C1372 C 0.93530 0.26210 0.37734
 C1373 C 0.91326 0.26883 0.38716
 C1374 C 0.90121 0.25549 0.40243
 C1375 C 0.89869 0.22124 0.42433
 C1376 C 0.87685 0.22836 0.43368
 C1377 C 0.86507 0.21504 0.44915
 C1378 C 0.87507 0.19477 0.45539
 C1379 C 0.89701 0.18791 0.44579
 C1380 C 0.90886 0.20106 0.43023
 C1381 C 0.87926 0.26204 0.41209
 C1382 C 0.86729 0.24870 0.42743
 C1383 C 0.94255 0.20774 0.40500
 C1384 C 0.93073 0.19448 0.42050
 H1385 H 0.87129 0.27763 0.40779
 H1386 H 0.85044 0.25439 0.43451
 H1387 H 0.95939 0.20204 0.39790
 H1388 H 0.93878 0.17895 0.42490
 H1389 H 0.96208 0.23596 0.37702
 H1390 H 0.90478 0.28405 0.38243
 H1391 H 0.84824 0.22054 0.45643
 H1392 H 0.90488 0.17235 0.45040
 C1393 C 0.08393 0.23475 0.59261
 C1394 C 0.09695 0.24574 0.60909
 C1395 C 0.08460 0.25935 0.62392
 C1396 C 0.05935 0.26261 0.62207
 C1397 C 0.04673 0.25148 0.60509
 C1398 C 0.05885 0.23736 0.59059
 C1399 C 0.09684 0.22033 0.57705
 C1400 C 0.08374 0.20893 0.56085
 C1401 C 0.09615 0.19531 0.54604
 C1402 C 0.12149 0.19361 0.54699
 C1403 C 0.13435 0.20520 0.56329
 C1404 C 0.12207 0.21839 0.57854
 C1405 C 0.04635 0.22573 0.57413
 C1406 C 0.05857 0.21166 0.55960
 C1407 C 0.12215 0.24312 0.61028
 C1408 C 0.13452 0.22979 0.59517
 H1409 H 0.02695 0.22750 0.57248
 H1410 H 0.04826 0.20300 0.54715
 H1411 H 0.13243 0.25159 0.62288
 H1412 H 0.15398 0.22837 0.59653
 H1413 H 0.09499 0.26816 0.63619
 H1414 H 0.02728 0.25295 0.60367
 H1415 H 0.08622 0.18657 0.53337
 H1416 H 0.15386 0.20382 0.56415
 C1417 C 0.08984 0.76491 0.40905
 C1418 C 0.06501 0.76105 0.41129
 C1419 C 0.05359 0.74661 0.39668
 C1420 C 0.06660 0.73642 0.37935
 C1421 C 0.09155 0.74096 0.37722
 C1422 C 0.10327 0.75485 0.39222
 C1423 C 0.10203 0.77969 0.42472
 C1424 C 0.12708 0.78286 0.42306
 C1425 C 0.13869 0.79644 0.43842
 C1426 C 0.12525 0.80725 0.45488
 C1427 C 0.10009 0.80428 0.45601
 C1428 C 0.08843 0.79022 0.44118
 C1429 C 0.12825 0.75869 0.39086
 C1430 C 0.13998 0.77233 0.40612
 C1431 C 0.05202 0.77181 0.42804
 C1432 C 0.06351 0.78627 0.44264
 H1433 H 0.13886 0.75096 0.37800
 H1434 H 0.15929 0.77469 0.40460
 H1435 H 0.03280 0.76907 0.42986
 H1436 H 0.05283 0.79425 0.45530
 H1437 H 0.03431 0.74416 0.39831
 H1438 H 0.10223 0.73293 0.36461
 H1439 H 0.15806 0.79879 0.43747
 H1440 H 0.08975 0.81240 0.46884
 C1441 C 0.59710 0.91572 0.77434
 C1442 C 0.59453 0.93841 0.77263
 C1443 C 0.61000 0.95006 0.75858
 C1444 C 0.62852 0.93931 0.74662
 C1445 C 0.63094 0.91644 0.74903
 C1446 C 0.61512 0.90461 0.76253
 C1447 C 0.58043 0.90331 0.78857
 C1448 C 0.58235 0.88050 0.78948
 C1449 C 0.56590 0.86871 0.80238
 C1450 C 0.54804 0.87963 0.81472
 C1451 C 0.54673 0.90254 0.81412
 C1452 C 0.56267 0.91446 0.80075
 C1453 C 0.61675 0.88180 0.76419
 C1454 C 0.60054 0.86993 0.77732
 C1455 C 0.57653 0.94901 0.78506
 C1456 C 0.56098 0.93726 0.79898
 H1457 H 0.63053 0.87301 0.75509
 H1458 H 0.60226 0.85235 0.77795
 H1459 H 0.57444 0.96654 0.78400
 H1460 H 0.54734 0.94606 0.80824
 H1461 H 0.60812 0.96762 0.75776
 H1462 H 0.64429 0.90753 0.73954
 H1463 H 0.56702 0.85107 0.80292
 H1464 H 0.53282 0.91097 0.82342
 C1465 C 0.39431 0.91403 0.22598
 C1466 C 0.38632 0.93449 0.21858
 C1467 C 0.37036 0.94662 0.23181
 C1468 C 0.36245 0.93860 0.25260
 C1469 C 0.37050 0.91765 0.25933
 C1470 C 0.38640 0.90545 0.24621
 C1471 C 0.41162 0.90149 0.21244
 C1472 C 0.41983 0.88114 0.22003
 C1473 C 0.43678 0.86955 0.20746
 C1474 C 0.44565 0.87819 0.18743
 C1475 C 0.43693 0.89851 0.17988
 C1476 C 0.41995 0.91025 0.19238
 C1477 C 0.39471 0.88485 0.25307
 C1478 C 0.41116 0.87291 0.24022
 C1479 C 0.39485 0.94263 0.19828
 C1480 C 0.41137 0.93073 0.18541
 H1481 H 0.38865 0.87799 0.26864
 H1482 H 0.41731 0.85719 0.24623
 H1483 H 0.38885 0.95843 0.19236
 H1484 H 0.41762 0.93768 0.16995
 H1485 H 0.36531 0.96278 0.22625
 H1486 H 0.36401 0.91036 0.27451
 H1487 H 0.44329 0.85393 0.21344
 H1488 H 0.44361 0.90534 0.16452
 C1489 C 0.60710 0.08881 0.21885
 C1490 C 0.61913 0.09951 0.23617
 C1491 C 0.63555 0.08780 0.24931
 C1492 C 0.63969 0.06543 0.24551
 C1493 C 0.62784 0.05507 0.22772
 C1494 C 0.61149 0.06669 0.21436
 C1495 C 0.58908 0.10084 0.20555
 C1496 C 0.57672 0.09006 0.18847
 C1497 C 0.55905 0.10140 0.17634
 C1498 C 0.55346 0.12326 0.18145
 C1499 C 0.56629 0.13387 0.19847
 C1500 C 0.58414 0.12276 0.21055
 C1501 C 0.59898 0.05653 0.19694
 C1502 C 0.58194 0.06802 0.18418
 C1503 C 0.61409 0.12159 0.24034
 C1504 C 0.59685 0.13300 0.22778
 H1505 H 0.60222 0.03948 0.19327
 H1506 H 0.57254 0.05951 0.17104
 H1507 H 0.62330 0.13003 0.25365
 H1508 H 0.59326 0.14993 0.23173
 H1509 H 0.64484 0.09603 0.26271
 H1510 H 0.63064 0.03782 0.22479
 H1511 H 0.54923 0.09304 0.16334
 H1512 H 0.56222 0.15071 0.20248
 C1513 C 0.40496 0.08238 0.77444
 C1514 C 0.38912 0.06804 0.78523
 C1515 C 0.37248 0.05607 0.77260
 C1516 C 0.37205 0.05809 0.74937
 C1517 C 0.38819 0.07238 0.73882
 C1518 C 0.40455 0.08472 0.75129
 C1519 C 0.42231 0.09519 0.78760
 C1520 C 0.43777 0.10983 0.77680
 C1521 C 0.45409 0.12210 0.78937
 C1522 C 0.45538 0.11954 0.81253
 C1523 C 0.43990 0.10462 0.82311
 C1524 C 0.42313 0.09255 0.81071
 C1525 C 0.42043 0.09942 0.74108
 C1526 C 0.43669 0.11184 0.75364
 C1527 C 0.39033 0.06595 0.80840
 C1528 C 0.40712 0.07791 0.82091
 H1529 H 0.42024 0.10140 0.72325
 H1530 H 0.44858 0.12305 0.74513
 H1531 H 0.37826 0.05492 0.81693
 H1532 H 0.40751 0.07575 0.83872
 H1533 H 0.36012 0.04497 0.78072
 H1534 H 0.38771 0.07410 0.72095
 H1535 H 0.46609 0.13339 0.78106
 H1536 H 0.44073 0.10263 0.84094
 C1537 C 0.59813 0.77605 0.08602
 C1538 C 0.59927 0.77812 0.06287
 C1539 C 0.61516 0.76472 0.05093
 C1540 C 0.63004 0.74961 0.06206
 C1541 C 0.62892 0.74795 0.08529
 C1542 C 0.61281 0.76100 0.09735
 C1543 C 0.58103 0.78971 0.09861
 C1544 C 0.57935 0.78713 0.12167
 C1545 C 0.56251 0.79964 0.13347
 C1546 C 0.54768 0.81485 0.12240
 C1547 C 0.54997 0.81758 0.09933
 C1548 C 0.56645 0.80485 0.08730
 C1549 C 0.61088 0.75914 0.12048
 C1550 C 0.59435 0.77192 0.13242
 C1551 C 0.58443 0.79348 0.05214
 C1552 C 0.56837 0.80668 0.06416
 H1553 H 0.62209 0.74758 0.12940
 H1554 H 0.59326 0.76983 0.15021
 H1555 H 0.58520 0.79529 0.03430
 H1556 H 0.55719 0.81828 0.05525
 H1557 H 0.61614 0.76612 0.03305
 H1558 H 0.64021 0.73618 0.09387
 H1559 H 0.56091 0.79753 0.15124
 H1560 H 0.53846 0.82911 0.09068
 C1561 C 0.39257 0.22072 0.08538
 C1562 C 0.38040 0.23765 0.09636
 C1563 C 0.36412 0.25074 0.08447
 C1564 C 0.36025 0.24726 0.06166
 C1565 C 0.37222 0.22986 0.05103
 C1566 C 0.38844 0.21656 0.06282
 C1567 C 0.41048 0.20750 0.09760
 C1568 C 0.42300 0.19083 0.08654
 C1569 C 0.44059 0.17878 0.09805
 C1570 C 0.44595 0.18358 0.12036
 C1571 C 0.43296 0.20018 0.13125
 C1572 C 0.41519 0.21217 0.11996
 C1573 C 0.40108 0.19954 0.05239
 C1574 C 0.41803 0.18686 0.06406
 C1575 C 0.38519 0.24150 0.11888
 C1576 C 0.40233 0.22901 0.13047
 H1577 H 0.39805 0.19613 0.03500
 H1578 H 0.42755 0.17403 0.05533
 H1579 H 0.37587 0.25450 0.12754
 H1580 H 0.40573 0.23271 0.14774
 H1581 H 0.35473 0.26385 0.09290
 H1582 H 0.36963 0.22719 0.03344
 H1583 H 0.45054 0.16610 0.08947
 H1584 H 0.43685 0.20395 0.14843
 C1585 C 0.60426 0.22654 0.91322
 C1586 C 0.61001 0.22135 0.93527
 C1587 C 0.62591 0.23484 0.94705
 C1588 C 0.63599 0.25341 0.93691
 C1589 C 0.63031 0.25810 0.91464
 C1590 C 0.61436 0.24480 0.90277
 C1591 C 0.58702 0.21279 0.90094
 C1592 C 0.58092 0.21826 0.87905
 C1593 C 0.56409 0.20548 0.86763
 C1594 C 0.55339 0.18728 0.87790
 C1595 C 0.55998 0.18184 0.89979
 C1596 C 0.57671 0.19463 0.91144
 C1597 C 0.60807 0.24956 0.88073
 C1598 C 0.59160 0.23653 0.86908
 C1599 C 0.59945 0.20297 0.94517
 C1600 C 0.58312 0.18981 0.93345
 H1601 H 0.61578 0.26360 0.87248
 H1602 H 0.58708 0.24088 0.85217
 H1603 H 0.60375 0.19878 0.96217
 H1604 H 0.57530 0.17586 0.94174
 H1605 H 0.62991 0.23123 0.96425
 H1606 H 0.63825 0.27213 0.90658
 H1607 H 0.55924 0.20977 0.85077
 H1608 H 0.55182 0.16792 0.90789
 C1609 C 0.39797 0.77333 0.91437
 C1610 C 0.39316 0.77758 0.93679
 C1611 C 0.37701 0.76407 0.94828
 C1612 C 0.36579 0.74641 0.93748
 C1613 C 0.37043 0.74279 0.91483
 C1614 C 0.38663 0.75607 0.90325
 C1615 C 0.41559 0.78694 0.90241
 C1616 C 0.42082 0.78231 0.88016
 C1617 C 0.43804 0.79488 0.86902
 C1618 C 0.44995 0.81210 0.87991
 C1619 C 0.44422 0.81674 0.90217
 C1620 C 0.42715 0.80409 0.91355
 C1621 C 0.39203 0.75218 0.88087
 C1622 C 0.40888 0.76505 0.86953
 C1623 C 0.40495 0.79498 0.94734
 C1624 C 0.42161 0.80804 0.93591
 H1625 H 0.38336 0.73892 0.87211
 H1626 H 0.41270 0.76137 0.85233
 H1627 H 0.40140 0.79845 0.96463
 H1628 H 0.43038 0.82121 0.94471
 H1629 H 0.37381 0.76687 0.96576
 H1630 H 0.36161 0.72949 0.90625
 H1631 H 0.44218 0.79124 0.85187
 H1632 H 0.45332 0.82990 0.91073
 C1633 C 0.77143 0.91350 0.40246
 C1634 C 0.78004 0.93433 0.39709
 C1635 C 0.76750 0.94694 0.38141
 C1636 C 0.74651 0.93881 0.37108
 C1637 C 0.73829 0.91777 0.37660
 C1638 C 0.75061 0.90509 0.39232
 C1639 C 0.78437 0.90026 0.41912
 C1640 C 0.77559 0.87952 0.42464
 C1641 C 0.78778 0.86710 0.44067
 C1642 C 0.80870 0.87523 0.45110
 C1643 C 0.81736 0.89603 0.44521
 C1644 C 0.80519 0.90865 0.42928
 C1645 C 0.74249 0.88419 0.39816
 C1646 C 0.75475 0.87164 0.41408
 C1647 C 0.80095 0.94217 0.40760
 C1648 C 0.81333 0.92954 0.42340
 H1649 H 0.72646 0.87752 0.39044
 H1650 H 0.74781 0.85564 0.41817
 H1651 H 0.80779 0.95823 0.40360
 H1652 H 0.82936 0.93621 0.43112
 H1653 H 0.77383 0.96320 0.37753
 H1654 H 0.72241 0.91119 0.36852
 H1655 H 0.78098 0.85111 0.44499
 H1656 H 0.83338 0.90248 0.45315
 C1657 C 0.22469 0.91619 0.59616
 C1658 C 0.22098 0.93884 0.59692
 C1659 C 0.23347 0.95123 0.61274
 C1660 C 0.24915 0.94099 0.62793
 C1661 C 0.25244 0.91826 0.62711
 C1662 C 0.24043 0.90578 0.61110
 C1663 C 0.21198 0.90312 0.57931
 C1664 C 0.21625 0.88058 0.57816
 C1665 C 0.20455 0.86830 0.56181
 C1666 C 0.18834 0.87834 0.54695
 C1667 C 0.18391 0.90091 0.54856
 C1668 C 0.19594 0.91344 0.56458
 C1669 C 0.24400 0.88315 0.60961
 C1670 C 0.23220 0.87078 0.59334
 C1671 C 0.20486 0.94860 0.58185
 C1672 C 0.19246 0.93610 0.56602
 H1673 H 0.25614 0.87496 0.62101
 H1674 H 0.23559 0.85339 0.59265
 H1675 H 0.20178 0.96604 0.58230
 H1676 H 0.18018 0.94427 0.55473
 H1677 H 0.23084 0.96873 0.61345
 H1678 H 0.26469 0.91040 0.63868
 H1679 H 0.20790 0.85091 0.56074
 H1680 H 0.17159 0.90875 0.53706
 C1681 C 0.22781 0.08925 0.40593
 C1682 C 0.21985 0.06825 0.40036
 C1683 C 0.23219 0.05646 0.38397
 C1684 C 0.25230 0.06557 0.37310
 C1685 C 0.25982 0.08680 0.37878
 C1686 C 0.24772 0.09865 0.39525
 C1687 C 0.21512 0.10160 0.42337
 C1688 C 0.22325 0.12251 0.42910
 C1689 C 0.21121 0.13414 0.44577
 C1690 C 0.19103 0.12508 0.45656
 C1691 C 0.18308 0.10409 0.45052
 C1692 C 0.19513 0.09225 0.43399
 C1693 C 0.25523 0.11967 0.40134
 C1694 C 0.24323 0.13138 0.41801
 C1695 C 0.19982 0.05941 0.41140
 C1696 C 0.18763 0.07122 0.42789
 H1697 H 0.27058 0.12710 0.39321
 H1698 H 0.24965 0.14751 0.42225
 H1699 H 0.19350 0.04322 0.40726
 H1700 H 0.17225 0.06381 0.43598
 H1701 H 0.22645 0.04005 0.38002
 H1702 H 0.27501 0.09413 0.37032
 H1703 H 0.21742 0.15030 0.45020
 H1704 H 0.16763 0.09693 0.45873
 C1705 C 0.77211 0.08162 0.59137
 C1706 C 0.74688 0.08328 0.59314
 C1707 C 0.73478 0.07036 0.60870
 C1708 C 0.74777 0.05614 0.62266
 C1709 C 0.77308 0.05474 0.62077
 C1710 C 0.78534 0.06734 0.60499
 C1711 C 0.78492 0.09519 0.57502
 C1712 C 0.81012 0.09334 0.57301
 C1713 C 0.82219 0.10625 0.55735
 C1714 C 0.80924 0.12119 0.54411
 C1715 C 0.78399 0.12290 0.54648
 C1716 C 0.77172 0.10982 0.56178
 C1717 C 0.81055 0.06599 0.60255
 C1718 C 0.82271 0.07870 0.58677
 C1719 C 0.73428 0.09796 0.57945
 C1720 C 0.74651 0.11107 0.56409
 H1721 H 0.82096 0.05500 0.61292
 H1722 H 0.84215 0.07713 0.58541
 H1723 H 0.71482 0.09941 0.58069
 H1724 H 0.73613 0.12225 0.55391
 H1725 H 0.71532 0.07165 0.61029
 H1726 H 0.78310 0.04370 0.63142
 H1727 H 0.84163 0.10491 0.55569
 H1728 H 0.77386 0.13422 0.53623
 C1729 C 0.91402 0.59039 0.23584
 C1730 C 0.93937 0.59099 0.23506
 C1731 C 0.95177 0.60566 0.24874
 C1732 C 0.93895 0.61989 0.26274
 C1733 C 0.91355 0.61927 0.26314
 C1734 C 0.90097 0.60436 0.24987
 C1735 C 0.90089 0.57475 0.22176
 C1736 C 0.87559 0.57373 0.22297
 C1737 C 0.86323 0.55852 0.20987
 C1738 C 0.87599 0.54472 0.19536
 C1739 C 0.90133 0.54620 0.19411
 C1740 C 0.91391 0.56103 0.20746
 C1741 C 0.87565 0.60304 0.25043
 C1742 C 0.86318 0.58791 0.23729
 C1743 C 0.95176 0.57694 0.22062
 C1744 C 0.93924 0.56228 0.20698
 H1745 H 0.86539 0.61371 0.26121
 H1746 H 0.84366 0.58732 0.23832
 H1747 H 0.97131 0.57730 0.21983
 H1748 H 0.94949 0.55175 0.19605
 H1749 H 0.97134 0.60627 0.24831
 H1750 H 0.90369 0.63014 0.27405
 H1751 H 0.84371 0.55753 0.21083
 H1752 H 0.91128 0.53548 0.18311
 C1753 C 0.90838 0.40944 0.76555
 C1754 C 0.90323 0.40843 0.74278
 C1755 C 0.91537 0.39310 0.72963
 C1756 C 0.93220 0.37865 0.73920
 C1757 C 0.93695 0.37967 0.76209
 C1758 C 0.92524 0.39521 0.77533
 C1759 C 0.89599 0.42579 0.77939
 C1760 C 0.90158 0.42717 0.80204
 C1761 C 0.89005 0.44302 0.81504
 C1762 C 0.87277 0.45715 0.80558
 C1763 C 0.86715 0.45533 0.78290
 C1764 C 0.87889 0.43981 0.76966
 C1765 C 0.93017 0.39694 0.79810
 C1766 C 0.91861 0.41272 0.81121
 C1767 C 0.88608 0.42279 0.73364
 C1768 C 0.87403 0.43815 0.74688
 H1769 H 0.94317 0.38609 0.80582
 H1770 H 0.92304 0.41359 0.82868
 H1771 H 0.88191 0.42213 0.71611
 H1772 H 0.86091 0.44890 0.73918
 H1773 H 0.91160 0.39221 0.71203
 H1774 H 0.95007 0.36867 0.76943
 H1775 H 0.89437 0.44424 0.83251
 H1776 H 0.85400 0.46625 0.77547
 C1777 C 0.09013 0.59571 0.76674
 C1778 C 0.10268 0.60614 0.74956
 C1779 C 0.09067 0.62174 0.73658
 C1780 C 0.06619 0.62679 0.74050
 C1781 C 0.05397 0.61632 0.75799
 C1782 C 0.06586 0.60077 0.77115
 C1783 C 0.10255 0.57894 0.78013
 C1784 C 0.08996 0.56839 0.79720
 C1785 C 0.10176 0.55224 0.80968
 C1786 C 0.12589 0.54647 0.80502
 C1787 C 0.13824 0.55732 0.78787
 C1788 C 0.12667 0.57360 0.77541
 C1789 C 0.05389 0.58993 0.78844
 C1790 C 0.06575 0.57405 0.80127
 C1791 C 0.12691 0.60055 0.74554
 C1792 C 0.13869 0.58453 0.75822
 H1793 H 0.03516 0.59367 0.79202
 H1794 H 0.05583 0.56602 0.81439
 H1795 H 0.13679 0.60850 0.73234
 H1796 H 0.15733 0.58059 0.75445
 H1797 H 0.10034 0.62989 0.72339
 H1798 H 0.03505 0.61983 0.76096
 H1799 H 0.09204 0.54397 0.82278
 H1800 H 0.15683 0.55310 0.78419
 C1801 C 0.08989 0.40207 0.23033
 C1802 C 0.10285 0.39068 0.24669
 C1803 C 0.09088 0.37515 0.25966
 C1804 C 0.06603 0.37115 0.25660
 C1805 C 0.05339 0.38255 0.23989
 C1806 C 0.06525 0.39803 0.22671
 C1807 C 0.10228 0.41879 0.21700
 C1808 C 0.08932 0.43031 0.20073
 C1809 C 0.10114 0.44639 0.18828
 C1810 C 0.12567 0.45115 0.19222
 C1811 C 0.13838 0.43936 0.20859
 C1812 C 0.12680 0.42313 0.22097
 C1813 C 0.05289 0.40982 0.21021
 C1814 C 0.06473 0.42564 0.19741
 C1815 C 0.12744 0.39527 0.24996
 C1816 C 0.13920 0.41125 0.23735
 H1817 H 0.03388 0.40687 0.20724
 H1818 H 0.05451 0.43441 0.18492
 H1819 H 0.13764 0.38657 0.26252
 H1820 H 0.15814 0.41441 0.24053
 H1821 H 0.10087 0.36627 0.27222
 H1822 H 0.03422 0.37985 0.23757
 H1823 H 0.09116 0.45539 0.17579
 H1824 H 0.15727 0.44279 0.21170
   
