data_POSCAR
  _audit_creation_date              2014-09-24
  _audit_creation_method            'ToBaCCo'
  _symmetry_space_group_name_H-M    'P1'
  _symmetry_Int_Tables_number       1
  _symmetry_cell_setting            triclinic
  loop_
  _symmetry_equiv_pos_as_xyz
 x,y,z
_cell_length_a 73.2941
_cell_length_b 72.7373
_cell_length_c 72.8880
_cell_angle_alpha 90.272900
_cell_angle_beta 89.036300
_cell_angle_gamma 89.339600
loop_
  _atom_site_label
  _atom_site_type_symbol
  _atom_site_fract_x
  _atom_site_fract_y
  _atom_site_fract_z
C1 C 0.21356 0.20572 0.22390
 C2 C 0.19766 0.20870 0.23454
 C3 C 0.18578 0.22350 0.23076
 C4 C 0.19006 0.23538 0.21617
 C5 C 0.20587 0.23254 0.20538
 C6 C 0.21768 0.21766 0.20925
 C7 C 0.22536 0.19093 0.22764
 C8 C 0.24122 0.18780 0.21686
 C9 C 0.24519 0.19978 0.20226
 C10 C 0.23359 0.21469 0.19843
 C11 C 0.23760 0.22663 0.18389
 C12 C 0.22590 0.24150 0.17996
 C13 C 0.21005 0.24435 0.19079
 H14 H 0.19437 0.19931 0.24557
 H15 H 0.18114 0.24697 0.21332
 H16 H 0.22230 0.18198 0.23910
 H17 H 0.25721 0.19735 0.19367
 H18 H 0.24972 0.22421 0.17545
 H19 H 0.20107 0.25590 0.18796
 C20 C 0.71808 0.70523 0.72926
 C21 C 0.70340 0.70867 0.74143
 C22 C 0.69158 0.72379 0.73885
 C23 C 0.69463 0.73551 0.72382
 C24 C 0.70919 0.73219 0.71147
 C25 C 0.72099 0.71703 0.71421
 C26 C 0.72988 0.69018 0.73189
 C27 C 0.74458 0.68670 0.71965
 C28 C 0.74734 0.69851 0.70466
 C29 C 0.73571 0.71364 0.70189
 C30 C 0.73854 0.72540 0.68696
 C31 C 0.72686 0.74055 0.68412
 C32 C 0.71219 0.74384 0.69644
 H33 H 0.70102 0.69940 0.75280
 H34 H 0.68579 0.74735 0.72185
 H35 H 0.72777 0.68131 0.74362
 H36 H 0.75845 0.69580 0.69498
 H37 H 0.74973 0.72265 0.67739
 H38 H 0.70324 0.75560 0.69443
 C39 C 0.29091 0.80134 0.72490
 C40 C 0.30634 0.79792 0.73554
 C41 C 0.31768 0.78255 0.73195
 C42 C 0.31337 0.77051 0.71755
 C43 C 0.29796 0.77375 0.70682
 C44 C 0.28665 0.78919 0.71054
 C45 C 0.27967 0.81672 0.72849
 C46 C 0.26406 0.82038 0.71790
 C47 C 0.25999 0.80795 0.70358
 C48 C 0.27112 0.79251 0.69987
 C49 C 0.26707 0.78045 0.68545
 C50 C 0.27835 0.76510 0.68156
 C51 C 0.29375 0.76183 0.69236
 H52 H 0.30945 0.80713 0.74677
 H53 H 0.32216 0.75876 0.71454
 H54 H 0.28290 0.82538 0.74008
 H55 H 0.24863 0.81056 0.69463
 H56 H 0.25529 0.78316 0.67703
 H57 H 0.30237 0.74989 0.68961
 C58 C 0.79394 0.31046 0.22817
 C59 C 0.80978 0.30837 0.23850
 C60 C 0.82170 0.29314 0.23580
 C61 C 0.81708 0.27987 0.22245
 C62 C 0.80131 0.28188 0.21195
 C63 C 0.78970 0.29724 0.21479
 C64 C 0.78224 0.32562 0.23110
 C65 C 0.76649 0.32802 0.22055
 C66 C 0.76246 0.31481 0.20707
 C67 C 0.77388 0.29941 0.20422
 C68 C 0.76980 0.28622 0.19084
 C69 C 0.78134 0.27088 0.18787
 C70 C 0.79707 0.26882 0.19850
 H71 H 0.81234 0.31842 0.24913
 H72 H 0.82612 0.26833 0.21948
 H73 H 0.78535 0.33551 0.24172
 H74 H 0.75056 0.31663 0.19861
 H75 H 0.75778 0.28802 0.18255
 H76 H 0.80591 0.25692 0.19641
 C77 C 0.78320 0.70403 0.26596
 C78 C 0.79837 0.70740 0.25455
 C79 C 0.80973 0.72268 0.25756
 C80 C 0.80526 0.73462 0.27238
 C81 C 0.79021 0.73127 0.28400
 C82 C 0.77910 0.71595 0.28077
 C83 C 0.77205 0.68883 0.26275
 C84 C 0.75697 0.68521 0.27431
 C85 C 0.75303 0.69715 0.28914
 C86 C 0.76396 0.71250 0.29241
 C87 C 0.76012 0.72432 0.30728
 C88 C 0.77127 0.73951 0.31073
 C89 C 0.78625 0.74292 0.29898
 H90 H 0.80083 0.69836 0.24291
 H91 H 0.81394 0.74610 0.27559
 H92 H 0.77507 0.67987 0.25115
 H93 H 0.74163 0.69434 0.29832
 H94 H 0.74865 0.72151 0.31640
 H95 H 0.79476 0.75473 0.30146
 C96 C 0.28804 0.19887 -0.23174
 C97 C 0.30366 0.20075 -0.24294
 C98 C 0.31704 0.21403 -0.23905
 C99 C 0.31433 0.22524 -0.22328
 C100 C 0.29875 0.22351 -0.21198
 C101 C 0.28550 0.21040 -0.21631
 C102 C 0.27497 0.18552 -0.23570
 C103 C 0.25927 0.18369 -0.22453
 C104 C 0.25668 0.19549 -0.20936
 C105 C 0.26970 0.20876 -0.20515
 C106 C 0.26722 0.22030 -0.18984
 C107 C 0.28048 0.23329 -0.18521
 C108 C 0.29623 0.23478 -0.19642
 H109 H 0.30555 0.19125 -0.25431
 H110 H 0.32382 0.23603 -0.22007
 H111 H 0.27692 0.17664 -0.24757
 H112 H 0.24472 0.19403 -0.20056
 H113 H 0.25484 0.21922 -0.18160
 H114 H 0.30671 0.24450 -0.19289
 C115 C 0.71469 0.28813 -0.21453
 C116 C 0.69908 0.28538 -0.22501
 C117 C 0.68677 0.27106 -0.22092
 C118 C 0.69065 0.25955 -0.20584
 C119 C 0.70627 0.26212 -0.19530
 C120 C 0.71835 0.27644 -0.19967
 C121 C 0.72667 0.30251 -0.21867
 C122 C 0.74232 0.30533 -0.20816
 C123 C 0.74592 0.29352 -0.19341
 C124 C 0.73408 0.27910 -0.18913
 C125 C 0.73771 0.26736 -0.17442
 C126 C 0.72580 0.25298 -0.17001
 C127 C 0.71008 0.25047 -0.18051
 H128 H 0.69625 0.29505 -0.23587
 H129 H 0.68202 0.24799 -0.20262
 H130 H 0.72394 0.31138 -0.23024
 H131 H 0.75781 0.29572 -0.18507
 H132 H 0.74970 0.26955 -0.16622
 H133 H 0.70093 0.23929 -0.17727
 C134 C 0.19615 0.79999 0.28083
 C135 C 0.18096 0.79735 0.26972
 C136 C 0.16850 0.78327 0.27353
 C137 C 0.17145 0.77167 0.28859
 C138 C 0.18654 0.77423 0.29990
 C139 C 0.19890 0.78850 0.29605
 C140 C 0.20852 0.81406 0.27696
 C141 C 0.22369 0.81717 0.28824
 C142 C 0.22614 0.80560 0.30357
 C143 C 0.21398 0.79129 0.30742
 C144 C 0.21672 0.77969 0.32248
 C145 C 0.20452 0.76539 0.32639
 C146 C 0.18943 0.76279 0.31503
 H147 H 0.17891 0.80615 0.25795
 H148 H 0.16183 0.76086 0.29168
 H149 H 0.20569 0.82307 0.26555
 H150 H 0.23793 0.80708 0.31218
 H151 H 0.22824 0.78192 0.33133
 H152 H 0.18006 0.75170 0.31785
 C153 C 0.45379 0.45292 0.48229
 C154 C 0.45548 0.43735 0.49343
 C155 C 0.46920 0.42409 0.48985
 C156 C 0.48119 0.42644 0.47479
 C157 C 0.47966 0.44192 0.46348
 C158 C 0.46600 0.45528 0.46733
 C159 C 0.44006 0.46614 0.48583
 C160 C 0.43838 0.48174 0.47462
 C161 C 0.45078 0.48410 0.45992
 C162 C 0.46451 0.47098 0.45619
 C163 C 0.47662 0.47325 0.44133
 C164 C 0.49001 0.45981 0.43704
 C165 C 0.49146 0.44418 0.44829
 H166 H 0.44627 0.43569 0.50509
 H167 H 0.49162 0.41611 0.47180
 H168 H 0.43072 0.46434 0.49735
 H169 H 0.44943 0.49594 0.45104
 H170 H 0.47561 0.48561 0.43315
 H171 H 0.50156 0.43361 0.44508
 C172 C -0.04559 -0.04695 0.98012
 C173 C -0.04433 -0.06322 0.99029
 C174 C -0.03050 -0.07628 0.98640
 C175 C -0.01788 -0.07295 0.97210
 C176 C -0.01897 -0.05673 0.96179
 C177 C -0.03281 -0.04362 0.96592
 C178 C -0.05947 -0.03400 0.98398
 C179 C -0.06098 -0.01754 0.97382
 C180 C -0.04780 -0.01434 0.95983
 C181 C -0.03390 -0.02723 0.95580
 C182 C -0.02125 -0.02406 0.94156
 C183 C -0.00766 -0.03721 0.93698
 C184 C -0.00659 -0.05350 0.94729
 H185 H -0.05401 -0.06565 1.00140
 H186 H -0.00733 -0.08309 0.96887
 H187 H -0.06868 -0.03665 0.99541
 H188 H -0.04877 -0.00228 0.95124
 H189 H -0.02199 -0.01125 0.93405
 H190 H 0.00364 -0.06387 0.94382
 C191 C 1.05604 0.54256 0.96025
 C192 C 1.05312 0.55780 0.97187
 C193 C 1.03906 0.57079 0.96855
 C194 C 1.02800 0.56801 0.95309
 C195 C 1.03071 0.55276 0.94148
 C196 C 1.04471 0.53993 0.94511
 C197 C 1.07018 0.52991 0.96362
 C198 C 1.07317 0.51435 0.95220
 C199 C 1.06140 0.51181 0.93723
 C200 C 1.04734 0.52447 0.93360
 C201 C 1.03596 0.52198 0.91849
 C202 C 1.02200 0.53477 0.91475
 C203 C 1.01946 0.55010 0.92636
 H204 H 1.06241 0.55982 0.98308
 H205 H 1.01664 0.57718 0.95038
 H206 H 1.07832 0.53193 0.97571
 H207 H 1.06356 0.50046 0.92775
 H208 H 1.03810 0.51021 0.90949
 H209 H 1.00853 0.55986 0.92373
 C210 C 0.54875 0.04396 0.47409
 C211 C 0.54730 0.05959 0.48543
 C212 C 0.53281 0.07225 0.48346
 C213 C 0.51971 0.06909 0.46996
 C214 C 0.52097 0.05354 0.45857
 C215 C 0.53552 0.04090 0.46065
 C216 C 0.56320 0.03134 0.47607
 C217 C 0.56476 0.01545 0.46483
 C218 C 0.55129 0.01267 0.45145
 C219 C 0.53682 0.02521 0.44930
 C220 C 0.52364 0.02230 0.43587
 C221 C 0.50912 0.03486 0.43367
 C222 C 0.50789 0.05045 0.44512
 H223 H 0.55759 0.06205 0.49563
 H224 H 0.50835 0.07862 0.46851
 H225 H 0.57272 0.03367 0.48701
 H226 H 0.55232 0.00115 0.44202
 H227 H 0.52455 0.01011 0.42727
 H228 H 0.49688 0.06033 0.44338
 C229 C -0.05511 0.04641 0.52193
 C230 C -0.05042 0.06077 0.51003
 C231 C -0.03509 0.07167 0.51339
 C232 C -0.02446 0.06807 0.52887
 C233 C -0.02896 0.05375 0.54087
 C234 C -0.04433 0.04286 0.53740
 C235 C -0.07040 0.03555 0.51859
 C236 C -0.07513 0.02116 0.53054
 C237 C -0.06427 0.01769 0.54591
 C238 C -0.04893 0.02842 0.54941
 C239 C -0.03813 0.02497 0.56475
 C240 C -0.02282 0.03581 0.56836
 C241 C -0.01838 0.05023 0.55634
 H242 H -0.05858 0.06334 0.49802
 H243 H -0.01277 0.07658 0.53168
 H244 H -0.07853 0.03816 0.50658
 H245 H -0.06795 0.00681 0.55534
 H246 H -0.04154 0.01367 0.57378
 H247 H -0.00681 0.05888 0.55914
 C248 C 0.45553 0.54823 0.01123
 C249 C 0.45917 0.56316 -0.00035
 C250 C 0.47491 0.57398 0.00188
 C251 C 0.48685 0.56940 0.01623
 C252 C 0.48329 0.55459 0.02795
 C253 C 0.46764 0.54391 0.02542
 C254 C 0.43996 0.53750 0.00876
 C255 C 0.43623 0.52257 0.02039
 C256 C 0.44840 0.51839 0.03454
 C257 C 0.46406 0.52894 0.03713
 C258 C 0.47614 0.52482 0.05131
 C259 C 0.49169 0.53559 0.05412
 C260 C 0.49511 0.55048 0.04234
 H261 H 0.45000 0.56576 -0.01156
 H262 H 0.49862 0.57778 0.01894
 H263 H 0.43081 0.54068 -0.00235
 H264 H 0.44552 0.50711 0.04377
 H265 H 0.47349 0.51312 0.06007
 H266 H 0.50684 0.55909 0.04453
 C267 C 0.55453 -0.04724 0.03961
 C268 C 0.55272 -0.06194 0.02730
 C269 C 0.53719 -0.07311 0.02794
 C270 C 0.52340 -0.06943 0.04116
 C271 C 0.52503 -0.05479 0.05361
 C272 C 0.54065 -0.04363 0.05282
 C273 C 0.56997 -0.03604 0.03887
 C274 C 0.57179 -0.02129 0.05121
 C275 C 0.55794 -0.01781 0.06438
 C276 C 0.54238 -0.02883 0.06522
 C277 C 0.52848 -0.02521 0.07821
 C278 C 0.51286 -0.03623 0.07908
 C279 C 0.51127 -0.05105 0.06678
 H280 H 0.56328 -0.06452 0.01698
 H281 H 0.51147 -0.07810 0.04187
 H282 H 0.58069 -0.03891 0.02879
 H283 H 0.55914 -0.00630 0.07378
 H284 H 0.52991 -0.01392 0.08783
 H285 H 0.49918 -0.05950 0.06729
 C286 C 1.04476 0.46788 0.51474
 C287 C 1.04276 0.45317 0.50245
 C288 C 1.02817 0.44071 0.50433
 C289 C 1.01554 0.44355 0.51900
 C290 C 1.01736 0.45825 0.53134
 C291 C 1.03200 0.47047 0.52920
 C292 C 1.05947 0.47997 0.51285
 C293 C 1.06157 0.49466 0.52523
 C294 C 1.04868 0.49722 0.53953
 C295 C 1.03393 0.48527 0.54158
 C296 C 1.02117 0.48780 0.55592
 C297 C 1.00647 0.47573 0.55813
 C298 C 1.00467 0.46097 0.54579
 H299 H 1.05319 0.45111 0.49192
 H300 H 1.00375 0.43484 0.52056
 H301 H 1.06920 0.47805 0.50162
 H302 H 1.05030 0.50836 0.54928
 H303 H 1.02281 0.49904 0.56556
 H304 H 0.99328 0.45169 0.54733
 C305 C 0.39364 0.00161 0.23168
 H306 H 0.39580 0.01385 0.23981
 C307 C 0.40495 -0.00223 0.21652
 H308 H 0.41589 0.00710 0.21314
 C309 C 0.37725 -0.02583 0.22684
 H310 H 0.36660 -0.03512 0.23105
 C311 C 0.38822 -0.03019 0.21155
 H312 H 0.38565 -0.04269 0.20395
 N313 N 0.38007 -0.01009 0.23650
 C314 C 0.33860 0.02099 0.26749
 H315 H 0.33755 0.01268 0.27972
 C316 C 0.32693 0.03610 0.26528
 H317 H 0.31700 0.03949 0.27597
 C318 C 0.35282 0.02660 0.23864
 H319 H 0.36269 0.02269 0.22814
 C320 C 0.34154 0.04191 0.23595
 H321 H 0.34286 0.04965 0.22335
 Zn322 Zn 0.36618 -0.00448 0.25796
 N323 N 0.35128 0.01659 0.25430
 C324 C 0.38205 0.01536 0.28731
 N325 N 0.38287 -0.00028 0.27700
 C326 C 0.39620 -0.01314 0.27948
 C327 C 0.40926 -0.01068 0.29295
 C328 C 0.39481 0.01835 0.30099
 C329 C 0.33637 -0.02758 0.25297
 C330 C 0.32452 -0.04202 0.25678
 C331 C 0.34235 -0.04936 0.28339
 C332 C 0.35377 -0.03470 0.27915
 N333 N 0.35075 -0.02431 0.26401
 H334 H 0.37159 0.02560 0.28488
 H335 H 0.39666 -0.02534 0.27093
 H336 H 0.41963 -0.02119 0.29486
 H337 H 0.39406 0.03094 0.30897
 H338 H 0.33412 -0.01893 0.24117
 H339 H 0.31304 -0.04423 0.24792
 H340 H 0.34530 -0.05773 0.29525
 H341 H 0.36509 -0.03174 0.28793
 C342 C 0.32837 0.04681 0.24935
 C343 C 0.40234 -0.01835 0.20624
 C344 C 0.32750 -0.05324 0.27212
 C345 C 0.40866 0.00523 0.30393
 C346 C 0.09359 -0.00644 0.71915
 H347 H 0.09204 -0.01888 0.72709
 C348 C 0.08287 -0.00360 0.70376
 H349 H 0.07316 -0.01396 0.69985
 C350 C 0.10831 0.02203 0.71448
 H351 H 0.11812 0.03208 0.71878
 C352 C 0.09797 0.02536 0.69889
 H353 H 0.09987 0.03801 0.69137
 N354 N 0.10599 0.00632 0.72426
 C355 C 0.14589 -0.02523 0.75567
 H356 H 0.14715 -0.01692 0.76786
 C357 C 0.15656 -0.04118 0.75367
 H358 H 0.16555 -0.04520 0.76462
 C359 C 0.13315 -0.02989 0.72641
 H360 H 0.12450 -0.02524 0.71551
 C361 C 0.14353 -0.04593 0.72386
 H362 H 0.14257 -0.05345 0.71106
 Zn363 Zn 0.12030 0.00208 0.74542
 N364 N 0.13426 -0.02000 0.74226
 C365 C 0.11247 -0.00092 0.78356
 N366 N 0.10483 0.00042 0.76672
 C367 C 0.08637 0.00069 0.76496
 C368 C 0.07492 -0.00119 0.78030
 C369 C 0.10150 -0.00257 0.79933
 C370 C 0.15160 0.02200 0.73676
 C371 C 0.16434 0.03602 0.73820
 C372 C 0.14625 0.04922 0.76308
 C373 C 0.13385 0.03491 0.76117
 N374 N 0.13678 0.02164 0.74821
 H375 H 0.12709 -0.00034 0.78488
 H376 H 0.08036 0.00229 0.75167
 H377 H 0.06032 -0.00154 0.77836
 H378 H 0.10793 -0.00332 0.81257
 H379 H 0.15351 0.01134 0.72648
 H380 H 0.17597 0.03615 0.72885
 H381 H 0.14383 0.05951 0.77364
 H382 H 0.12186 0.03446 0.76999
 C383 C 0.15539 -0.05180 0.73761
 C384 C 0.08501 0.01247 0.69341
 C385 C 0.16177 0.04987 0.75153
 C386 C 0.08242 -0.00293 0.79782
 C387 C 0.59203 0.49155 0.21876
 H388 H 0.59303 0.47898 0.22652
 C389 C 0.58083 0.49227 0.20345
 H390 H 0.57343 0.48016 0.19940
 C391 C 0.60011 0.52274 0.21472
 H392 H 0.60723 0.53475 0.21939
 C393 C 0.58931 0.52397 0.19917
 H394 H 0.58833 0.53690 0.19193
 N395 N 0.60134 0.50668 0.22415
 C396 C 0.64971 0.48638 0.23891
 H397 H 0.65537 0.49975 0.23647
 C398 C 0.66101 0.47089 0.23698
 H399 H 0.67506 0.47271 0.23262
 C400 C 0.62463 0.46775 0.24709
 H401 H 0.61045 0.46662 0.25121
 C402 C 0.63550 0.45190 0.24557
 H403 H 0.62953 0.43872 0.24868
 Zn404 Zn 0.61570 0.50524 0.24559
 N405 N 0.63178 0.48458 0.24359
 C406 C 0.60791 0.49819 0.28281
 N407 N 0.60022 0.50153 0.26629
 C408 C 0.58180 0.50177 0.26440
 C409 C 0.57034 0.49848 0.27947
 C410 C 0.59694 0.49519 0.29834
 C411 C 0.64059 0.53297 0.23496
 C412 C 0.65085 0.54888 0.23702
 C413 C 0.63641 0.55378 0.26668
 C414 C 0.62654 0.53769 0.26412
 N415 N 0.62898 0.52745 0.24857
 H416 H 0.62262 0.49802 0.28392
 H417 H 0.57592 0.50443 0.25117
 H418 H 0.55575 0.49828 0.27745
 H419 H 0.60341 0.49309 0.31142
 H420 H 0.64186 0.52501 0.22242
 H421 H 0.66008 0.55299 0.22607
 H422 H 0.63455 0.56153 0.27931
 H423 H 0.61696 0.53343 0.27463
 C424 C 0.65395 0.45331 0.24027
 C425 C 0.57943 0.50864 0.19346
 C426 C 0.64891 0.55943 0.25312
 C427 C 0.57783 0.49523 0.29682
 C428 C 0.89740 0.50059 0.72110
 H429 H 0.89938 0.51248 0.72978
 C430 C 0.90833 0.49796 0.70541
 H431 H 0.91880 0.50786 0.70218
 C432 C 0.88175 0.47290 0.71524
 H433 H 0.87156 0.46303 0.71923
 C434 C 0.89238 0.46973 0.69944
 H435 H 0.88997 0.45757 0.69123
 N436 N 0.88431 0.48823 0.72560
 C437 C 0.84353 0.51761 0.75908
 H438 H 0.84293 0.50875 0.77095
 C439 C 0.83183 0.53284 0.75804
 H440 H 0.82238 0.53578 0.76928
 C441 C 0.85658 0.52448 0.72998
 H442 H 0.86598 0.52100 0.71891
 C443 C 0.84521 0.53991 0.72842
 H444 H 0.84602 0.54818 0.71612
 Zn445 Zn 0.87053 0.49248 0.74743
 N446 N 0.85567 0.51380 0.74523
 C447 C 0.88709 0.51074 0.77733
 N448 N 0.88728 0.49533 0.76669
 C449 C 0.89997 0.48179 0.76902
 C450 C 0.91293 0.48328 0.78276
 C451 C 0.89981 0.51280 0.79122
 C452 C 0.84096 0.46971 0.74040
 C453 C 0.82885 0.45528 0.74323
 C454 C 0.84539 0.44701 0.77043
 C455 C 0.85713 0.46165 0.76713
 N456 N 0.85487 0.47249 0.75217
 H457 H 0.87713 0.52151 0.77506
 H458 H 0.90003 0.46984 0.76013
 H459 H 0.92301 0.47242 0.78430
 H460 H 0.89926 0.52504 0.79973
 H461 H 0.83934 0.47870 0.72874
 H462 H 0.81803 0.45309 0.73355
 H463 H 0.84734 0.43856 0.78245
 H464 H 0.86796 0.46434 0.77659
 C465 C 0.83263 0.54425 0.74256
 C466 C 0.90587 0.48236 0.69433
 C467 C 0.83107 0.44364 0.75836
 C468 C 0.91295 0.49894 0.79409
 C469 C 0.23399 0.41015 0.00373
 H470 H 0.24308 0.41187 0.01514
 C471 C 0.21948 0.42247 0.00135
 H472 H 0.21737 0.43354 0.01117
 C473 C 0.22554 0.39329 -0.02263
 H474 H 0.22785 0.38180 -0.03185
 C475 C 0.21094 0.40535 -0.02559
 H476 H 0.20242 0.40319 -0.03738
 N477 N 0.23676 0.39594 -0.00821
 C478 C 0.26443 0.35235 0.02207
 H479 H 0.27732 0.35104 0.01471
 C480 C 0.26078 0.34095 0.03702
 H481 H 0.27091 0.33084 0.04095
 C482 C 0.23535 0.36663 0.02537
 H483 H 0.22538 0.37654 0.02073
 C484 C 0.23116 0.35556 0.04042
 H485 H 0.21808 0.35733 0.04738
 Zn486 Zn 0.25684 0.37990 -0.00431
 N487 N 0.25177 0.36489 0.01651
 C488 C 0.28799 0.39223 0.01508
 N489 N 0.27776 0.39458 -0.00017
 C490 C 0.28197 0.40779 -0.01266
 C491 C 0.29732 0.41873 -0.01045
 C492 C 0.30352 0.40279 0.01777
 C493 C 0.26048 0.34615 -0.02411
 C494 C 0.26348 0.33500 -0.03953
 C495 C 0.26641 0.36230 -0.05796
 C496 C 0.26370 0.37293 -0.04211
 N497 N 0.26084 0.36479 -0.02555
 H498 H 0.28418 0.38225 0.02529
 H499 H 0.27331 0.41000 -0.02428
 H500 H 0.30059 0.42893 -0.02072
 H501 H 0.31149 0.40067 0.02998
 H502 H 0.25779 0.33977 -0.01105
 H503 H 0.26361 0.32023 -0.03782
 H504 H 0.26814 0.36917 -0.07100
 H505 H 0.26339 0.38771 -0.04318
 C506 C 0.24393 0.34245 0.04641
 C507 C 0.20773 0.42021 -0.01352
 C508 C 0.26642 0.34302 -0.05682
 C509 C 0.30844 0.41615 0.00484
 C510 C 0.73040 0.08823 0.00727
 H511 H 0.73976 0.08682 -0.00430
 C512 C 0.71550 0.07659 0.00884
 H513 H 0.71361 0.06607 -0.00150
 C514 C 0.72180 0.10354 0.03491
 H515 H 0.72434 0.11406 0.04503
 C516 C 0.70665 0.09218 0.03701
 H517 H 0.69748 0.09426 0.04866
 N518 N 0.73310 0.10157 0.02002
 C519 C 0.76129 0.14481 -0.00981
 H520 H 0.77375 0.14595 -0.00215
 C521 C 0.75810 0.15653 -0.02458
 H522 H 0.76815 0.16674 -0.02818
 C523 C 0.73274 0.13054 -0.01394
 H524 H 0.72274 0.12061 -0.00963
 C525 C 0.72899 0.14196 -0.02875
 H526 H 0.71628 0.14037 -0.03591
 Zn527 Zn 0.75331 0.11696 0.01569
 N528 N 0.74875 0.13203 -0.00490
 C529 C 0.78401 0.10244 -0.00441
 N530 N 0.77380 0.10138 0.01130
 C531 C 0.77742 0.08849 0.02423
 C532 C 0.79199 0.07616 0.02177
 C533 C 0.79875 0.09039 -0.00742
 C534 C 0.74480 0.14585 0.04019
 C535 C 0.74791 0.15852 0.05423
 C536 C 0.77708 0.14378 0.05933
 C537 C 0.77343 0.13144 0.04518
 N538 N 0.75749 0.13264 0.03596
 H539 H 0.78066 0.11247 -0.01472
 H540 H 0.76893 0.08782 0.03649
 H541 H 0.79479 0.06616 0.03234
 H542 H 0.80661 0.09128 -0.02008
 H543 H 0.73240 0.14674 0.03239
 H544 H 0.73783 0.16919 0.05712
 H545 H 0.78981 0.14250 0.06655
 H546 H 0.78353 0.12112 0.04142
 C547 C 0.74174 0.15519 -0.03425
 C548 C 0.70323 0.07862 0.02373
 C549 C 0.76431 0.15767 0.06393
 C550 C 0.80288 0.07701 0.00577
 C551 C 0.22935 0.59303 0.49120
 H552 H 0.23875 0.59162 0.47966
 C553 C 0.21455 0.58123 0.49283
 H554 H 0.21251 0.57089 0.48235
 C555 C 0.22066 0.60831 0.51884
 H556 H 0.22327 0.61868 0.52908
 C557 C 0.20560 0.59685 0.52096
 H558 H 0.19671 0.59851 0.53289
 N559 N 0.23207 0.60630 0.50403
 C560 C 0.26336 0.64887 0.47628
 H561 H 0.27526 0.64955 0.48483
 C562 C 0.26143 0.66105 0.46164
 H563 H 0.27191 0.67112 0.45905
 C564 C 0.23488 0.63540 0.46983
 H565 H 0.22442 0.62560 0.47319
 C566 C 0.23241 0.64728 0.45508
 H567 H 0.22019 0.64616 0.44702
 Zn568 Zn 0.25301 0.62094 0.50070
 N569 N 0.25022 0.63632 0.48002
 C570 C 0.28477 0.60569 0.48282
 N571 N 0.27306 0.60457 0.49743
 C572 C 0.27491 0.59116 0.51022
 C573 C 0.28914 0.57832 0.50876
 C574 C 0.29930 0.59318 0.48089
 C575 C 0.24442 0.64987 0.52523
 C576 C 0.24728 0.66205 0.53976
 C577 C 0.27555 0.64603 0.54595
 C578 C 0.27216 0.63419 0.53134
 N579 N 0.25677 0.63624 0.52135
 H580 H 0.28285 0.61622 0.47261
 H581 H 0.26529 0.59050 0.52162
 H582 H 0.29052 0.56789 0.51922
 H583 H 0.30847 0.59418 0.46914
 H584 H 0.23246 0.65141 0.51684
 H585 H 0.23746 0.67302 0.54244
 H586 H 0.28782 0.64406 0.55381
 H587 H 0.28200 0.62352 0.52787
 C588 C 0.24574 0.66038 0.45086
 C589 C 0.20244 0.58306 0.50787
 C590 C 0.26309 0.66028 0.55027
 C591 C 0.30159 0.57927 0.49398
 C592 C 0.72495 0.90678 0.50731
 H593 H 0.73317 0.90706 0.51949
 C594 C 0.71081 0.91958 0.50526
 H595 H 0.70807 0.92954 0.51607
 C596 C 0.71853 0.89330 0.47850
 H597 H 0.72176 0.88321 0.46799
 C598 C 0.70423 0.90583 0.47590
 H599 H 0.69660 0.90527 0.46332
 N600 N 0.72841 0.89386 0.49412
 C601 C 0.75496 0.84802 0.52179
 H602 H 0.76714 0.84638 0.51332
 C603 C 0.75191 0.83625 0.53657
 H604 H 0.76176 0.82544 0.53930
 C605 C 0.72714 0.86388 0.52817
 H606 H 0.71743 0.87456 0.52479
 C607 C 0.72354 0.85242 0.54308
 H608 H 0.71123 0.85468 0.55123
 Zn609 Zn 0.74809 0.87733 0.49799
 N610 N 0.74279 0.86169 0.51806
 C611 C 0.77864 0.88910 0.51842
 N612 N 0.76892 0.89163 0.50288
 C613 C 0.77351 0.90485 0.49056
 C614 C 0.78871 0.91584 0.49339
 C615 C 0.79398 0.89974 0.52176
 C616 C 0.73948 0.84985 0.47245
 C617 C 0.74230 0.83807 0.45745
 C618 C 0.77172 0.85191 0.45224
 C619 C 0.76837 0.86337 0.46736
 N620 N 0.75239 0.86227 0.47704
 H621 H 0.77453 0.87887 0.52830
 H622 H 0.76539 0.90674 0.47844
 H623 H 0.79236 0.92604 0.48324
 H624 H 0.80152 0.89757 0.53422
 H625 H 0.72703 0.84903 0.48058
 H626 H 0.73196 0.82810 0.45420
 H627 H 0.78441 0.85324 0.44457
 H628 H 0.77863 0.87304 0.47138
 C629 C 0.73608 0.83846 0.54755
 C630 C 0.70019 0.91918 0.48940
 C631 C 0.75861 0.83900 0.44711
 C632 C 0.79924 0.91326 0.50911
 C633 C 0.00715 0.22747 0.40082
 H634 H 0.01913 0.23570 0.40302
 C635 C 0.00315 0.21295 0.41265
 H636 H 0.01209 0.21013 0.42399
 C637 C -0.01944 0.22168 0.38378
 H638 H -0.02838 0.22527 0.37270
 C639 C -0.02397 0.20707 0.39526
 H640 H -0.03618 0.19933 0.39261
 N641 N -0.00404 0.23147 0.38666
 C642 C 0.02836 0.26048 0.34547
 H643 H 0.01984 0.27255 0.34359
 C644 C 0.04425 0.25806 0.33485
 H645 H 0.04800 0.26846 0.32494
 C646 C 0.03380 0.23232 0.36077
 H647 H 0.02953 0.22217 0.37066
 C648 C 0.04985 0.22940 0.35051
 H649 H 0.05779 0.21697 0.35263
 Zn650 Zn 0.00158 0.25196 0.37175
 N651 N 0.02354 0.24778 0.35823
 C652 C 0.01929 0.28272 0.38743
 N653 N 0.00383 0.27255 0.38751
 C654 C -0.01019 0.27635 0.39943
 C655 C -0.00919 0.29116 0.41162
 C656 C 0.02089 0.29765 0.39941
 C657 C -0.01920 0.24323 0.34114
 C658 C -0.03324 0.24499 0.32855
 C659 C -0.04282 0.27315 0.34376
 C660 C -0.02851 0.27091 0.35599
 N661 N -0.01728 0.25593 0.35470
 H662 H 0.03050 0.27921 0.37822
 H663 H -0.02222 0.26786 0.39940
 H664 H -0.02065 0.29414 0.42076
 H665 H 0.03338 0.30545 0.39927
 H666 H -0.00990 0.23159 0.34028
 H667 H -0.03452 0.23472 0.31786
 H668 H -0.05197 0.28484 0.34545
 H669 H -0.02661 0.28103 0.36664
 C670 C 0.05526 0.24238 0.33736
 C671 C -0.01264 0.20256 0.40996
 C672 C -0.04545 0.26000 0.32989
 C673 C 0.00650 0.30207 0.41168
 C674 C -0.00609 0.71580 0.09487
 H675 H -0.01801 0.72444 0.09294
 C676 C -0.00245 0.70113 0.08288
 H677 H -0.01183 0.69840 0.07191
 C678 C 0.02053 0.70890 0.11163
 H679 H 0.02965 0.71216 0.12262
 C680 C 0.02472 0.69413 0.09994
 H681 H 0.03707 0.68620 0.10211
 N682 N 0.00522 0.71926 0.10904
 C683 C -0.02673 0.74821 0.15139
 H684 H -0.01791 0.75975 0.15390
 C685 C -0.04238 0.74581 0.16227
 H686 H -0.04538 0.75552 0.17324
 C687 C -0.03288 0.72109 0.13460
 H688 H -0.02902 0.71131 0.12401
 C689 C -0.04875 0.71826 0.14502
 H690 H -0.05710 0.70649 0.14196
 Zn691 Zn -0.00028 0.73968 0.12447
 N692 N -0.02231 0.73596 0.13784
 C693 C -0.01725 0.77175 0.10998
 N694 N -0.00222 0.76062 0.10929
 C695 C 0.01175 0.76379 0.09725
 C696 C 0.01110 0.77885 0.08548
 C697 C -0.01846 0.78701 0.09847
 C698 C 0.02056 0.72976 0.15478
 C699 C 0.03411 0.73143 0.16790
 C700 C 0.04285 0.76025 0.15417
 C701 C 0.02912 0.75805 0.14133
 N702 N 0.01846 0.74287 0.14172
 H703 H -0.02832 0.76886 0.11945
 H704 H 0.02342 0.75454 0.09681
 H705 H 0.02229 0.78101 0.07588
 H706 H -0.03038 0.79590 0.09947
 H707 H 0.01169 0.71798 0.15495
 H708 H 0.03550 0.72090 0.17825
 H709 H 0.05144 0.77223 0.15337
 H710 H 0.02705 0.76847 0.13105
 C711 C -0.05366 0.73064 0.15916
 C712 C 0.01313 0.69005 0.08535
 C713 C 0.04553 0.74680 0.16767
 C714 C -0.00414 0.79074 0.08602
 C715 C 0.50107 0.22293 0.60778
 H716 H 0.48910 0.23166 0.60664
 C717 C 0.50341 0.20776 0.59613
 H718 H 0.49304 0.20475 0.58619
 C719 C 0.52911 0.21630 0.62219
 H720 H 0.53928 0.21985 0.63210
 C721 C 0.53196 0.20095 0.61089
 H722 H 0.54432 0.19281 0.61226
 N723 N 0.51374 0.22680 0.62061
 C724 C 0.48459 0.25816 0.66336
 H725 H 0.49286 0.27036 0.66399
 C726 C 0.46954 0.25633 0.67520
 H727 H 0.46615 0.26734 0.68476
 C728 C 0.47897 0.22904 0.65003
 H729 H 0.48286 0.21827 0.64045
 C730 C 0.46381 0.22666 0.66158
 H731 H 0.45618 0.21403 0.66073
 Zn732 Zn 0.50964 0.24793 0.63549
 N733 N 0.48888 0.24471 0.65095
 C734 C 0.49099 0.27896 0.62053
 N735 N 0.50617 0.26804 0.61945
 C736 C 0.51929 0.27078 0.60638
 C737 C 0.51766 0.28523 0.59396
 C738 C 0.48883 0.29362 0.60840
 C739 C 0.53402 0.23935 0.66357
 C740 C 0.54912 0.24161 0.67478
 C741 C 0.55508 0.27050 0.65974
 C742 C 0.53991 0.26766 0.64880
 N743 N 0.52993 0.25211 0.65066
 H744 H 0.48054 0.27638 0.63077
 H745 H 0.53106 0.26168 0.60563
 H746 H 0.52821 0.28706 0.58358
 H747 H 0.47684 0.30239 0.60973
 H748 H 0.52569 0.22723 0.66494
 H749 H 0.55246 0.23102 0.68459
 H750 H 0.56283 0.28298 0.65806
 H751 H 0.53617 0.27792 0.63885
 C752 C 0.45886 0.24045 0.67433
 C753 C 0.51900 0.19650 0.59766
 C754 C 0.55999 0.25728 0.67281
 C755 C 0.50231 0.29696 0.59493
 C756 C 0.50749 0.73544 0.89594
 H757 H 0.51916 0.74399 0.89854
 C758 C 0.50424 0.72002 0.90680
 H759 H 0.51344 0.71690 0.91785
 C760 C 0.48090 0.72975 0.87888
 H761 H 0.47166 0.73370 0.86818
 C762 C 0.47720 0.71415 0.88932
 H763 H 0.46532 0.70607 0.88620
 N764 N 0.49594 0.73994 0.88222
 C765 C 0.52639 0.77208 0.84200
 H766 H 0.51777 0.78423 0.84138
 C767 C 0.54152 0.77026 0.83020
 H768 H 0.54461 0.78120 0.82065
 C769 C 0.53268 0.74299 0.85513
 H770 H 0.52899 0.73223 0.86460
 C771 C 0.54801 0.74066 0.84367
 H772 H 0.55598 0.72808 0.84444
 Zn773 Zn 0.50081 0.76157 0.86870
 N774 N 0.52229 0.75856 0.85416
 C775 C 0.51874 0.79129 0.88609
 N776 N 0.50340 0.78096 0.88583
 C777 C 0.48964 0.78371 0.89832
 C778 C 0.49081 0.79757 0.91155
 C779 C 0.52050 0.80529 0.89912
 C780 C 0.47868 0.75481 0.83853
 C781 C 0.46446 0.75778 0.82635
 C782 C 0.45651 0.78566 0.84292
 C783 C 0.47087 0.78214 0.85480
 N784 N 0.48142 0.76675 0.85260
 H785 H 0.52966 0.78869 0.87626
 H786 H 0.47773 0.77506 0.89800
 H787 H 0.47977 0.79944 0.92146
 H788 H 0.53269 0.81356 0.89895
 H789 H 0.48750 0.74287 0.83688
 H790 H 0.46249 0.74810 0.81525
 H791 H 0.44800 0.79776 0.84515
 H792 H 0.47348 0.79169 0.86580
 C793 C 0.55252 0.75436 0.83092
 C794 C 0.48891 0.70911 0.90355
 C795 C 0.45306 0.77331 0.82855
 C796 C 0.50640 0.80860 0.91205
 C797 C 0.13655 0.23446 0.24397
 C798 C 0.13633 0.23224 0.26328
 C799 C 0.15286 0.22678 0.27161
 C800 C 0.16887 0.22407 0.26102
 C801 C 0.16884 0.22647 0.24195
 C802 C 0.15252 0.23161 0.23358
 C803 C 0.15341 0.22405 0.29050
 C804 C 0.13786 0.22639 0.30141
 C805 C 0.12101 0.23180 0.29388
 C806 C 0.12031 0.23512 0.27453
 C807 C 0.10369 0.24138 0.26713
 C808 C 0.08822 0.24407 0.27809
 C809 C 0.08855 0.24051 0.29684
 C810 C 0.10486 0.23419 0.30505
 C811 C 0.10422 0.23042 0.32412
 C812 C 0.08818 0.23305 0.33446
 C813 C 0.07223 0.23953 0.32627
 C814 C 0.07254 0.24321 0.30742
 H815 H 0.12461 0.23813 0.23635
 H816 H 0.18146 0.22026 0.26769
 H817 H 0.15199 0.23319 0.21883
 H818 H 0.16603 0.21994 0.29695
 H819 H 0.13961 0.22404 0.31585
 H820 H 0.10215 0.24459 0.25284
 H821 H 0.07580 0.24895 0.27176
 H822 H 0.11579 0.22529 0.33151
 H823 H 0.08833 0.23018 0.34902
 H824 H 0.06017 0.24794 0.30089
 C825 C 0.66349 0.72773 0.78296
 C826 C 0.64612 0.73340 0.77670
 C827 C 0.64425 0.73632 0.75759
 C828 C 0.65901 0.73315 0.74541
 C829 C 0.67602 0.72728 0.75183
 C830 C 0.67810 0.72475 0.77072
 C831 C 0.62763 0.74235 0.75067
 C832 C 0.61274 0.74572 0.76226
 C833 C 0.61377 0.74295 0.78138
 C834 C 0.63064 0.73633 0.78868
 C835 C 0.63137 0.73259 0.80765
 C836 C 0.61629 0.73535 0.81915
 C837 C 0.59991 0.74215 0.81234
 C838 C 0.59841 0.74629 0.79342
 C839 C 0.58157 0.75367 0.78742
 C840 C 0.56688 0.75639 0.79960
 C841 C 0.56836 0.75187 0.81817
 C842 C 0.58497 0.74481 0.82444
 H843 H 0.66638 0.72568 0.79723
 H844 H 0.65716 0.73502 0.73080
 H845 H 0.69118 0.72064 0.77614
 H846 H 0.62611 0.74456 0.73607
 H847 H 0.60046 0.75021 0.75565
 H848 H 0.64337 0.72717 0.81411
 H849 H 0.61750 0.73214 0.83359
 H850 H 0.57926 0.75764 0.77343
 H851 H 0.55416 0.76181 0.79439
 H852 H 0.58634 0.74157 0.83886
 C853 C 0.35352 0.75807 0.76006
 C854 C 0.36512 0.77258 0.76530
 C855 C 0.36073 0.79051 0.75907
 C856 C 0.34538 0.79361 0.74819
 C857 C 0.33403 0.77911 0.74325
 C858 C 0.33830 0.76134 0.74923
 C859 C 0.37162 0.80533 0.76374
 C860 C 0.38678 0.80289 0.77463
 C861 C 0.39175 0.78539 0.78137
 C862 C 0.38081 0.76995 0.77654
 C863 C 0.38587 0.75243 0.78314
 C864 C 0.40092 0.75003 0.79420
 C865 C 0.41160 0.76490 0.79917
 C866 C 0.40727 0.78281 0.79283
 C867 C 0.41865 0.79738 0.79839
 C868 C 0.43346 0.79423 0.80980
 C869 C 0.43754 0.77652 0.81608
 C870 C 0.42657 0.76191 0.81060
 H871 H 0.35568 0.74403 0.76413
 H872 H 0.34234 0.80739 0.74339
 H873 H 0.32963 0.74992 0.74578
 H874 H 0.36834 0.81905 0.75896
 H875 H 0.39432 0.81514 0.77752
 H876 H 0.37846 0.74015 0.78006
 H877 H 0.40420 0.73631 0.79898
 H878 H 0.41654 0.81142 0.79426
 H879 H 0.44186 0.80574 0.81362
 H880 H 0.42946 0.74817 0.81557
 C881 C -0.13727 0.30519 0.26317
 C882 C -0.12958 0.28778 0.26716
 C883 C -0.13870 0.27207 0.26058
 C884 C -0.15453 0.27389 0.25009
 C885 C -0.16211 0.29130 0.24616
 C886 C -0.15314 0.30686 0.25298
 C887 C -0.13212 0.25452 0.26466
 C888 C -0.11686 0.25214 0.27545
 C889 C -0.10731 0.26732 0.28245
 C890 C -0.11340 0.28543 0.27771
 C891 C -0.10305 0.30057 0.28353
 C892 C -0.08766 0.29821 0.29413
 C893 C -0.08206 0.28074 0.29961
 C894 C -0.09178 0.26502 0.29395
 C895 C -0.08571 0.24767 0.30035
 C896 C -0.07067 0.24613 0.31177
 C897 C -0.06106 0.26172 0.31720
 C898 C -0.06680 0.27899 0.31090
 H899 H -0.13152 0.31789 0.26787
 H900 H -0.16139 0.26151 0.24583
 H901 H -0.15787 0.32064 0.24992
 H902 H -0.13896 0.24243 0.25958
 H903 H -0.11274 0.23811 0.27782
 H904 H -0.10630 0.31455 0.27991
 H905 H -0.08017 0.31027 0.29827
 H906 H -0.09251 0.23503 0.29720
 H907 H -0.06684 0.23264 0.31672
 H908 H -0.05938 0.29116 0.31481
 C909 C -0.15294 0.74679 0.23180
 C910 C -0.14348 0.73210 0.22294
 C911 C -0.14979 0.71407 0.22627
 C912 C -0.16526 0.71111 0.23745
 C913 C -0.17473 0.72582 0.24610
 C914 C -0.16812 0.74369 0.24315
 C915 C -0.14057 0.69898 0.21856
 C916 C -0.12499 0.70129 0.20778
 C917 C -0.11811 0.71894 0.20397
 C918 C -0.12787 0.73463 0.21115
 C919 C -0.12186 0.75230 0.20607
 C920 C -0.10666 0.75461 0.19473
 C921 C -0.09657 0.73950 0.18827
 C922 C -0.10197 0.72144 0.19296
 C923 C -0.09079 0.70664 0.18660
 C924 C -0.07525 0.70971 0.17577
 C925 C -0.07024 0.72756 0.17078
 C926 C -0.08103 0.74240 0.17714
 H927 H -0.14886 0.76091 0.23045
 H928 H -0.16928 0.69707 0.24006
 H929 H -0.17505 0.75561 0.24900
 H930 H -0.14537 0.68514 0.22098
 H931 H -0.11888 0.68887 0.20228
 H932 H -0.12887 0.76474 0.21032
 H933 H -0.10266 0.76845 0.19112
 H934 H -0.09339 0.69253 0.19007
 H935 H -0.06694 0.69798 0.17156
 H936 H -0.07743 0.75629 0.17332
 C937 C 0.34735 0.21356 0.71896
 C938 C 0.36389 0.22069 0.72554
 C939 C 0.36445 0.22556 0.74435
 C940 C 0.34912 0.22325 0.75593
 C941 C 0.33266 0.21614 0.74927
 C942 C 0.33219 0.21134 0.73054
 C943 C 0.38036 0.23270 0.75164
 C944 C 0.39576 0.23531 0.74067
 C945 C 0.39596 0.23079 0.72181
 C946 C 0.37980 0.22319 0.71414
 C947 C 0.38012 0.21829 0.69536
 C948 C 0.39553 0.22079 0.68441
 C949 C 0.41129 0.22830 0.69160
 C950 C 0.41180 0.23350 0.71036
 C951 C 0.42818 0.24124 0.71679
 C952 C 0.44329 0.24352 0.70512
 C953 C 0.44270 0.23820 0.68666
 C954 C 0.42659 0.23063 0.68001
 H955 H 0.34547 0.20976 0.70484
 H956 H 0.35046 0.22642 0.77036
 H957 H 0.31980 0.20656 0.72433
 H958 H 0.38092 0.23640 0.76605
 H959 H 0.40737 0.24087 0.74753
 H960 H 0.36865 0.21234 0.68859
 H961 H 0.39509 0.21677 0.67008
 H962 H 0.42985 0.24572 0.73075
 H963 H 0.45561 0.24925 0.71067
 H964 H 0.42587 0.22674 0.66567
 C965 C 0.63954 0.25788 0.76542
 C966 C 0.63897 0.26338 0.74684
 C967 C 0.65492 0.27125 0.73917
 C968 C 0.67054 0.27370 0.74979
 C969 C 0.67095 0.26836 0.76835
 C970 C 0.65515 0.26029 0.77585
 C971 C 0.65535 0.27665 0.72085
 C972 C 0.64026 0.27446 0.70986
 C973 C 0.62394 0.26678 0.71678
 C974 C 0.62322 0.26129 0.73563
 C975 C 0.60675 0.25401 0.74265
 C976 C 0.59157 0.25205 0.73172
 C977 C 0.59211 0.25714 0.71331
 C978 C 0.60828 0.26451 0.70550
 C979 C 0.60806 0.26925 0.68667
 C980 C 0.59246 0.26689 0.67625
 C981 C 0.57649 0.25975 0.68410
 C982 C 0.57646 0.25487 0.70268
 H983 H 0.62814 0.25170 0.77245
 H984 H 0.68263 0.27913 0.74314
 H985 H 0.65432 0.25645 0.79016
 H986 H 0.66753 0.28268 0.71489
 H987 H 0.64188 0.27911 0.69595
 H988 H 0.60502 0.24976 0.75669
 H989 H 0.57924 0.24643 0.73777
 H990 H 0.61971 0.27467 0.67943
 H991 H 0.59301 0.27044 0.66184
 H992 H 0.56414 0.24950 0.70897
 C993 C 0.12727 0.79395 0.24467
 C994 C 0.12208 0.77636 0.23830
 C995 C 0.13256 0.76097 0.24405
 C996 C 0.14743 0.76326 0.25575
 C997 C 0.15240 0.78079 0.26174
 C998 C 0.14216 0.79605 0.25614
 C999 C 0.12831 0.74337 0.23798
 C1000 C 0.11407 0.74061 0.22599
 C1001 C 0.10332 0.75543 0.21964
 C1002 C 0.10710 0.77355 0.22626
 C1003 C 0.09578 0.78825 0.22063
 C1004 C 0.08159 0.78551 0.20861
 C1005 C 0.07812 0.76810 0.20155
 C1006 C 0.08887 0.75276 0.20692
 C1007 C 0.08479 0.73545 0.19909
 C1008 C 0.07072 0.73357 0.18655
 C1009 C 0.06019 0.74880 0.18134
 C1010 C 0.06394 0.76601 0.18902
 H1011 H 0.12032 0.80645 0.24090
 H1012 H 0.15544 0.75139 0.25984
 H1013 H 0.14563 0.80974 0.26072
 H1014 H 0.13620 0.73156 0.24242
 H1015 H 0.11179 0.72656 0.22207
 H1016 H 0.09739 0.80216 0.22537
 H1017 H 0.07332 0.79725 0.20466
 H1018 H 0.09236 0.72308 0.20206
 H1019 H 0.06833 0.72016 0.18062
 H1020 H 0.05573 0.77787 0.18529
 C1021 C 0.28427 0.15904 0.22262
 C1022 C 0.27738 0.14159 0.22755
 C1023 C 0.25819 0.13991 0.22949
 C1024 C 0.24655 0.15492 0.22595
 C1025 C 0.25360 0.17199 0.22077
 C1026 C 0.27257 0.17389 0.21931
 C1027 C 0.25064 0.12325 0.23488
 C1028 C 0.26169 0.10815 0.23860
 C1029 C 0.28088 0.10898 0.23676
 C1030 C 0.28883 0.12586 0.23072
 C1031 C 0.30790 0.12633 0.22771
 C1032 C 0.31888 0.11100 0.23067
 C1033 C 0.31143 0.09464 0.23701
 C1034 C 0.29237 0.09340 0.24044
 C1035 C 0.28569 0.07660 0.24749
 C1036 C 0.29739 0.06166 0.25051
 C1037 C 0.31609 0.06287 0.24660
 C1038 C 0.32302 0.07946 0.23993
 H1039 H 0.29864 0.16182 0.22145
 H1040 H 0.23189 0.15319 0.22700
 H1041 H 0.27846 0.18703 0.21580
 H1042 H 0.23598 0.12187 0.23632
 H1043 H 0.25466 0.09584 0.24254
 H1044 H 0.31483 0.13830 0.22265
 H1045 H 0.33343 0.11201 0.22799
 H1046 H 0.27154 0.07453 0.25100
 H1047 H 0.29170 0.04898 0.25568
 H1048 H 0.33755 0.08061 0.23719
 C1049 C 0.78767 0.65745 0.72160
 C1050 C 0.78102 0.64002 0.72692
 C1051 C 0.76199 0.63852 0.73039
 C1052 C 0.75025 0.65370 0.72805
 C1053 C 0.75706 0.67074 0.72245
 C1054 C 0.77588 0.67246 0.71942
 C1055 C 0.75471 0.62184 0.73609
 C1056 C 0.76585 0.60653 0.73854
 C1057 C 0.78486 0.60718 0.73515
 C1058 C 0.79253 0.62413 0.72894
 C1059 C 0.81139 0.62454 0.72468
 C1060 C 0.82243 0.60907 0.72652
 C1061 C 0.81526 0.59257 0.73285
 C1062 C 0.79644 0.59137 0.73748
 C1063 C 0.79006 0.57434 0.74430
 C1064 C 0.80182 0.55923 0.74604
 C1065 C 0.82028 0.56046 0.74106
 C1066 C 0.82691 0.57723 0.73454
 H1067 H 0.80193 0.66010 0.71919
 H1068 H 0.73570 0.65215 0.73032
 H1069 H 0.78159 0.68556 0.71551
 H1070 H 0.74018 0.62060 0.73873
 H1071 H 0.75899 0.59424 0.74286
 H1072 H 0.81811 0.63659 0.71955
 H1073 H 0.83681 0.61005 0.72294
 H1074 H 0.77611 0.57220 0.74853
 H1075 H 0.79634 0.54640 0.75106
 H1076 H 0.84127 0.57840 0.73097
 C1077 C 0.78565 0.33253 0.78471
 C1078 C 0.77896 0.35028 0.78022
 C1079 C 0.75978 0.35270 0.77914
 C1080 C 0.74798 0.33804 0.78284
 C1081 C 0.75486 0.32068 0.78755
 C1082 C 0.77378 0.31808 0.78831
 C1083 C 0.75240 0.36974 0.77447
 C1084 C 0.76359 0.38457 0.77077
 C1085 C 0.78278 0.38302 0.77176
 C1086 C 0.79059 0.36564 0.77678
 C1087 C 0.80973 0.36426 0.77842
 C1088 C 0.82089 0.37921 0.77520
 C1089 C 0.81354 0.39613 0.77007
 C1090 C 0.79442 0.39832 0.76810
 C1091 C 0.78783 0.41577 0.76249
 C1092 C 0.79970 0.43033 0.75930
 C1093 C 0.81851 0.42809 0.76157
 C1094 C 0.82533 0.41090 0.76691
 H1095 H 0.79997 0.32923 0.78544
 H1096 H 0.73334 0.34027 0.78236
 H1097 H 0.77949 0.30470 0.79154
 H1098 H 0.73775 0.37166 0.77364
 H1099 H 0.75666 0.39719 0.76737
 H1100 H 0.81662 0.35181 0.78243
 H1101 H 0.83549 0.37748 0.77674
 H1102 H 0.77360 0.41871 0.76036
 H1103 H 0.79408 0.44351 0.75526
 H1104 H 0.83992 0.40895 0.76839
 C1105 C 0.25104 -0.14815 0.26217
 C1106 C 0.26055 -0.13905 0.27620
 C1107 C 0.25733 -0.14481 0.29449
 C1108 C 0.24550 -0.15942 0.29835
 C1109 C 0.23605 -0.16840 0.28428
 C1110 C 0.23906 -0.16241 0.26615
 C1111 C 0.26574 -0.13582 0.30896
 C1112 C 0.27706 -0.12096 0.30575
 C1113 C 0.28073 -0.11465 0.28779
 C1114 C 0.27287 -0.12427 0.27273
 C1115 C 0.27777 -0.11896 0.25471
 C1116 C 0.28952 -0.10448 0.25147
 C1117 C 0.29663 -0.09444 0.26597
 C1118 C 0.29222 -0.09920 0.28435
 C1119 C 0.29935 -0.08810 0.29849
 C1120 C 0.31063 -0.07326 0.29448
 C1121 C 0.31528 -0.06892 0.27630
 C1122 C 0.30817 -0.07963 0.26212
 H1123 H 0.25229 -0.14447 0.24792
 H1124 H 0.24301 -0.16304 0.31256
 H1125 H 0.23268 -0.16913 0.25469
 H1126 H 0.26341 -0.14020 0.32299
 H1127 H 0.28304 -0.11494 0.31772
 H1128 H 0.27304 -0.12598 0.24269
 H1129 H 0.29295 -0.10098 0.23740
 H1130 H 0.29619 -0.09024 0.31280
 H1131 H 0.31550 -0.06497 0.30572
 H1132 H 0.31177 -0.07656 0.24799
 C1133 C 0.24921 -0.13230 0.73288
 C1134 C 0.23050 -0.13189 0.72846
 C1135 C 0.22318 -0.14789 0.72041
 C1136 C 0.23421 -0.16352 0.71705
 C1137 C 0.25286 -0.16383 0.72148
 C1138 C 0.26006 -0.14788 0.72949
 C1139 C 0.20483 -0.14833 0.71575
 C1140 C 0.19352 -0.13314 0.71865
 C1141 C 0.20009 -0.11676 0.72647
 C1142 C 0.21886 -0.11617 0.73164
 C1143 C 0.22534 -0.09992 0.73983
 C1144 C 0.21407 -0.08469 0.74264
 C1145 C 0.19588 -0.08492 0.73744
 C1146 C 0.18855 -0.10092 0.72930
 C1147 C 0.16997 -0.10026 0.72421
 C1148 C 0.15933 -0.08443 0.72703
 C1149 C 0.16670 -0.06870 0.73502
 C1150 C 0.18500 -0.06910 0.74027
 H1151 H 0.25609 -0.12074 0.73876
 H1152 H 0.22785 -0.17569 0.71159
 H1153 H 0.27441 -0.14689 0.73251
 H1154 H 0.19912 -0.16058 0.70967
 H1155 H 0.17958 -0.13479 0.71460
 H1156 H 0.23916 -0.09843 0.74431
 H1157 H 0.21971 -0.07252 0.74893
 H1158 H 0.16318 -0.11166 0.71793
 H1159 H 0.14516 -0.08456 0.72304
 H1160 H 0.19093 -0.05691 0.74623
 C1161 C 0.75063 0.37689 0.23089
 C1162 C 0.73141 0.37564 0.23010
 C1163 C 0.72397 0.35840 0.22530
 C1164 C 0.73538 0.34297 0.22238
 C1165 C 0.75439 0.34437 0.22358
 C1166 C 0.76184 0.36155 0.22764
 C1167 C 0.70517 0.35661 0.22343
 C1168 C 0.69353 0.37166 0.22580
 C1169 C 0.70022 0.38913 0.23065
 C1170 C 0.71937 0.39094 0.23360
 C1171 C 0.72582 0.40787 0.24031
 C1172 C 0.71410 0.42271 0.24346
 C1173 C 0.69558 0.42148 0.23965
 C1174 C 0.68836 0.40478 0.23298
 C1175 C 0.66961 0.40459 0.22863
 C1176 C 0.65858 0.42022 0.23106
 C1177 C 0.66572 0.43658 0.23803
 C1178 C 0.68427 0.43699 0.24240
 H1179 H 0.75751 0.38962 0.23353
 H1180 H 0.72937 0.32978 0.21933
 H1181 H 0.77649 0.36326 0.22807
 H1182 H 0.69939 0.34344 0.21987
 H1183 H 0.67922 0.36902 0.22418
 H1184 H 0.73987 0.40999 0.24376
 H1185 H 0.71967 0.43539 0.24871
 H1186 H 0.66312 0.39276 0.22280
 H1187 H 0.64444 0.41956 0.22705
 H1188 H 0.69001 0.44944 0.24801
 C1189 C 0.74293 0.63664 0.26224
 C1190 C 0.72368 0.63742 0.26423
 C1191 C 0.71564 0.65431 0.27011
 C1192 C 0.72648 0.66979 0.27327
 C1193 C 0.74550 0.66882 0.27098
 C1194 C 0.75356 0.65206 0.26558
 C1195 C 0.69681 0.65573 0.27284
 C1196 C 0.68569 0.64067 0.27015
 C1197 C 0.69295 0.62352 0.26428
 C1198 C 0.71220 0.62201 0.26077
 C1199 C 0.71930 0.60524 0.25370
 C1200 C 0.70814 0.59032 0.25056
 C1201 C 0.68950 0.59134 0.25453
 C1202 C 0.68159 0.60785 0.26160
 C1203 C 0.66264 0.60786 0.26588
 C1204 C 0.65214 0.59223 0.26307
 C1205 C 0.66004 0.57609 0.25584
 C1206 C 0.67874 0.57579 0.25156
 H1207 H 0.75031 0.62428 0.25846
 H1208 H 0.72004 0.68270 0.27733
 H1209 H 0.76825 0.65074 0.26416
 H1210 H 0.69058 0.66863 0.27726
 H1211 H 0.67132 0.64307 0.27251
 H1212 H 0.73349 0.60323 0.25009
 H1213 H 0.71423 0.57776 0.24506
 H1214 H 0.65552 0.61960 0.27167
 H1215 H 0.63770 0.59281 0.26646
 H1216 H 0.68503 0.56323 0.24627
 C1217 C 0.21419 0.15935 0.77009
 C1218 C 0.21971 0.14107 0.76577
 C1219 C 0.23872 0.13733 0.76424
 C1220 C 0.25146 0.15130 0.76706
 C1221 C 0.24572 0.16921 0.77160
 C1222 C 0.22700 0.17308 0.77298
 C1223 C 0.24499 0.11962 0.76012
 C1224 C 0.23287 0.10533 0.75770
 C1225 C 0.21381 0.10817 0.75929
 C1226 C 0.20710 0.12640 0.76313
 C1227 C 0.18803 0.12933 0.76425
 C1228 C 0.17592 0.11501 0.76201
 C1229 C 0.18221 0.09715 0.75863
 C1230 C 0.20122 0.09340 0.75718
 C1231 C 0.20676 0.07494 0.75383
 C1232 C 0.19399 0.06099 0.75198
 C1233 C 0.17526 0.06483 0.75341
 C1234 C 0.16949 0.08299 0.75671
 H1235 H 0.20012 0.16355 0.77155
 H1236 H 0.26594 0.14811 0.76619
 H1237 H 0.22220 0.18687 0.77626
 H1238 H 0.25950 0.11670 0.75885
 H1239 H 0.23899 0.09215 0.75456
 H1240 H 0.18189 0.14262 0.76683
 H1241 H 0.16140 0.11797 0.76304
 H1242 H 0.22085 0.07068 0.75272
 H1243 H 0.19885 0.04703 0.74971
 H1244 H 0.15501 0.08617 0.75762
 C1245 C 0.25208 0.27216 0.14714
 C1246 C 0.23844 0.27809 0.13487
 C1247 C 0.22051 0.27143 0.13777
 C1248 C 0.21653 0.25964 0.15247
 C1249 C 0.23019 0.25402 0.16450
 C1250 C 0.24797 0.26034 0.16164
 C1251 C 0.20659 0.27650 0.12597
 C1252 C 0.21000 0.28794 0.11116
 C1253 C 0.22757 0.29498 0.10757
 C1254 C 0.24197 0.29024 0.11982
 C1255 C 0.25935 0.29791 0.11668
 C1256 C 0.26269 0.30957 0.10202
 C1257 C 0.24896 0.31398 0.08975
 C1258 C 0.23122 0.30672 0.09223
 C1259 C 0.21792 0.31147 0.07912
 C1260 C 0.22209 0.32300 0.06442
 C1261 C 0.23960 0.33025 0.06217
 C1262 C 0.25296 0.32565 0.07495
 H1263 H 0.26611 0.27624 0.14592
 H1264 H 0.20278 0.25457 0.15440
 H1265 H 0.25876 0.25629 0.17081
 H1266 H 0.19285 0.27149 0.12816
 H1267 H 0.19839 0.29116 0.10288
 H1268 H 0.27076 0.29535 0.12545
 H1269 H 0.27626 0.31513 0.10023
 H1270 H 0.20420 0.30635 0.07961
 H1271 H 0.21158 0.32599 0.05457
 H1272 H 0.26652 0.33132 0.07348
 C1273 C 0.75084 0.76999 0.64863
 C1274 C 0.73634 0.77602 0.63744
 C1275 C 0.71850 0.77007 0.64214
 C1276 C 0.71548 0.75874 0.65743
 C1277 C 0.73002 0.75289 0.66825
 C1278 C 0.74768 0.75863 0.66370
 C1279 C 0.70373 0.77534 0.63151
 C1280 C 0.70618 0.78629 0.61615
 C1281 C 0.72362 0.79258 0.61077
 C1282 C 0.73893 0.78757 0.62176
 C1283 C 0.75628 0.79436 0.61674
 C1284 C 0.75870 0.80546 0.60149
 C1285 C 0.74404 0.81019 0.59049
 C1286 C 0.72628 0.80381 0.59485
 C1287 C 0.71197 0.80892 0.58300
 C1288 C 0.71521 0.82002 0.56773
 C1289 C 0.73276 0.82642 0.56365
 C1290 C 0.74711 0.82138 0.57512
 H1291 H 0.76485 0.77362 0.64611
 H1292 H 0.70179 0.75415 0.66071
 H1293 H 0.75914 0.75442 0.67196
 H1294 H 0.69006 0.77088 0.63507
 H1295 H 0.69397 0.78970 0.60884
 H1296 H 0.76839 0.79149 0.62440
 H1297 H 0.77229 0.81035 0.59824
 H1298 H 0.69812 0.80450 0.58497
 H1299 H 0.70391 0.82343 0.55894
 H1300 H 0.76072 0.82642 0.57223
 C1301 C 0.74603 0.76912 0.34604
 C1302 C 0.76023 0.77503 0.35757
 C1303 C 0.77818 0.76864 0.35337
 C1304 C 0.78165 0.75722 0.33809
 C1305 C 0.76745 0.75167 0.32678
 C1306 C 0.74964 0.75764 0.33097
 C1307 C 0.79265 0.77362 0.36443
 C1308 C 0.78978 0.78472 0.37975
 C1309 C 0.77222 0.79153 0.38460
 C1310 C 0.75725 0.78691 0.37312
 C1311 C 0.73987 0.79451 0.37744
 C1312 C 0.73712 0.80604 0.39249
 C1313 C 0.75144 0.81032 0.40403
 C1314 C 0.76917 0.80301 0.40042
 C1315 C 0.78307 0.80746 0.41290
 C1316 C 0.77955 0.81897 0.42795
 C1317 C 0.76211 0.82648 0.43120
 C1318 C 0.74808 0.82198 0.41919
 H1319 H 0.73194 0.77295 0.34833
 H1320 H 0.79544 0.75238 0.33514
 H1321 H 0.73843 0.75356 0.32240
 H1322 H 0.80640 0.76881 0.36124
 H1323 H 0.80179 0.78794 0.38737
 H1324 H 0.72804 0.79206 0.36927
 H1325 H 0.72355 0.81163 0.39515
 H1326 H 0.79680 0.80214 0.41164
 H1327 H 0.79055 0.82180 0.43725
 H1328 H 0.73454 0.82778 0.42146
 C1329 C 0.26649 0.24921 -0.13725
 C1330 C 0.27201 0.26779 -0.13701
 C1331 C 0.28127 0.27456 -0.15277
 C1332 C 0.28381 0.26341 -0.16843
 C1333 C 0.27786 0.24514 -0.16860
 C1334 C 0.26946 0.23815 -0.15272
 C1335 C 0.28796 0.29243 -0.15284
 C1336 C 0.28602 0.30368 -0.13745
 C1337 C 0.27673 0.29767 -0.12149
 C1338 C 0.26890 0.27973 -0.12159
 C1339 C 0.25783 0.27452 -0.10650
 C1340 C 0.25492 0.28616 -0.09158
 C1341 C 0.26332 0.30324 -0.09080
 C1342 C 0.27461 0.30914 -0.10556
 C1343 C 0.28352 0.32619 -0.10359
 C1344 C 0.28093 0.33699 -0.08784
 C1345 C 0.26926 0.33137 -0.07355
 C1346 C 0.26046 0.31442 -0.07525
 H1347 H 0.26030 0.24264 -0.12553
 H1348 H 0.29029 0.26911 -0.18057
 H1349 H 0.26533 0.22392 -0.15210
 H1350 H 0.29498 0.29774 -0.16487
 H1351 H 0.29149 0.31730 -0.13872
 H1352 H 0.25069 0.26166 -0.10605
 H1353 H 0.24616 0.28163 -0.08040
 H1354 H 0.29301 0.33134 -0.11373
 H1355 H 0.28840 0.34970 -0.08678
 H1356 H 0.25121 0.30989 -0.06448
 C1357 C 0.75146 0.22255 -0.13693
 C1358 C 0.73770 0.21752 -0.12407
 C1359 C 0.71979 0.22445 -0.12685
 C1360 C 0.71598 0.23579 -0.14189
 C1361 C 0.72979 0.24065 -0.15439
 C1362 C 0.74752 0.23391 -0.15176
 C1363 C 0.70573 0.22014 -0.11458
 C1364 C 0.70896 0.20916 -0.09945
 C1365 C 0.72651 0.20191 -0.09595
 C1366 C 0.74109 0.20598 -0.10858
 C1367 C 0.75853 0.19832 -0.10534
 C1368 C 0.76171 0.18716 -0.09031
 C1369 C 0.74775 0.18324 -0.07779
 C1370 C 0.72996 0.19060 -0.08030
 C1371 C 0.71639 0.18630 -0.06697
 C1372 C 0.72031 0.17500 -0.05211
 C1373 C 0.73784 0.16757 -0.04989
 C1374 C 0.75152 0.17187 -0.06275
 H1375 H 0.76545 0.21808 -0.13596
 H1376 H 0.70226 0.24115 -0.14368
 H1377 H 0.75841 0.23734 -0.16133
 H1378 H 0.69201 0.22537 -0.11667
 H1379 H 0.69724 0.20653 -0.09081
 H1380 H 0.77013 0.20053 -0.11426
 H1381 H 0.77532 0.18156 -0.08846
 H1382 H 0.70260 0.19150 -0.06748
 H1383 H 0.70956 0.17220 -0.04217
 H1384 H 0.76511 0.16607 -0.06125
 C1385 C 0.19554 0.73666 0.36876
 C1386 C 0.21309 0.72952 0.37281
 C1387 C 0.22782 0.73454 0.36107
 C1388 C 0.22497 0.74628 0.34611
 C1389 C 0.20751 0.75317 0.34234
 C1390 C 0.19288 0.74824 0.35380
 C1391 C 0.24534 0.72778 0.36422
 C1392 C 0.24869 0.71596 0.37870
 C1393 C 0.23455 0.71043 0.39080
 C1394 C 0.21649 0.71752 0.38795
 C1395 C 0.20246 0.71240 0.40035
 C1396 C 0.20579 0.70061 0.41484
 C1397 C 0.22317 0.69333 0.41760
 C1398 C 0.23786 0.69808 0.40569
 C1399 C 0.25520 0.69012 0.40919
 C1400 C 0.25771 0.67805 0.42381
 C1401 C 0.24311 0.67343 0.43547
 C1402 C 0.22589 0.68123 0.43228
 H1403 H 0.18351 0.73355 0.37676
 H1404 H 0.23635 0.74982 0.33715
 H1405 H 0.17927 0.75352 0.35130
 H1406 H 0.25666 0.73162 0.35531
 H1407 H 0.26264 0.71147 0.38005
 H1408 H 0.18862 0.71734 0.39935
 H1409 H 0.19454 0.69708 0.42396
 H1410 H 0.26712 0.69273 0.40083
 H1411 H 0.27112 0.67204 0.42580
 H1412 H 0.21453 0.67800 0.44138
 C1413 C 0.25233 0.73506 0.64858
 C1414 C 0.26627 0.72841 0.63648
 C1415 C 0.28433 0.73438 0.63956
 C1416 C 0.28811 0.74626 0.65421
 C1417 C 0.27417 0.75258 0.66608
 C1418 C 0.25627 0.74693 0.66307
 C1419 C 0.29859 0.72850 0.62803
 C1420 C 0.29545 0.71676 0.61341
 C1421 C 0.27779 0.71030 0.60968
 C1422 C 0.26296 0.71612 0.62148
 C1423 C 0.24536 0.70936 0.61797
 C1424 C 0.24229 0.69738 0.60350
 C1425 C 0.25653 0.69167 0.59183
 C1426 C 0.27448 0.69810 0.59464
 C1427 C 0.28835 0.69199 0.58220
 C1428 C 0.28455 0.67988 0.56791
 C1429 C 0.26685 0.67339 0.56539
 C1430 C 0.25287 0.67947 0.57737
 H1431 H 0.23822 0.73143 0.64729
 H1432 H 0.30198 0.75081 0.65624
 H1433 H 0.24526 0.75152 0.67214
 H1434 H 0.31241 0.73302 0.63034
 H1435 H 0.30733 0.71291 0.60535
 H1436 H 0.23355 0.71294 0.62625
 H1437 H 0.22855 0.69251 0.60142
 H1438 H 0.30230 0.69633 0.58298
 H1439 H 0.29555 0.67573 0.55863
 H1440 H 0.23914 0.67444 0.57563
 C1441 C 0.75514 0.23779 0.15810
 C1442 C 0.76889 0.23055 0.14611
 C1443 C 0.78689 0.23714 0.14817
 C1444 C 0.79082 0.25016 0.16178
 C1445 C 0.77706 0.25707 0.17355
 C1446 C 0.75922 0.25080 0.17153
 C1447 C 0.80093 0.23076 0.13663
 C1448 C 0.79761 0.21801 0.12292
 C1449 C 0.77998 0.21096 0.12020
 C1450 C 0.76542 0.21714 0.13215
 C1451 C 0.74793 0.20960 0.12982
 C1452 C 0.74468 0.19664 0.11626
 C1453 C 0.75861 0.19072 0.10433
 C1454 C 0.77645 0.19782 0.10601
 C1455 C 0.78998 0.19150 0.09330
 C1456 C 0.78595 0.17858 0.07980
 C1457 C 0.76837 0.17145 0.07838
 C1458 C 0.75474 0.17766 0.09070
 H1459 H 0.74107 0.23381 0.15748
 H1460 H 0.80462 0.25516 0.16304
 H1461 H 0.74835 0.25584 0.18054
 H1462 H 0.81472 0.23572 0.13818
 H1463 H 0.80933 0.21384 0.11478
 H1464 H 0.73635 0.21329 0.13840
 H1465 H 0.73102 0.19123 0.11507
 H1466 H 0.80379 0.19635 0.09321
 H1467 H 0.79667 0.17437 0.07021
 H1468 H 0.74110 0.17215 0.08982
 C1469 C 0.45731 0.38310 0.51948
 C1470 C 0.47458 0.37718 0.52583
 C1471 C 0.49010 0.38717 0.51991
 C1472 C 0.48827 0.40220 0.50803
 C1473 C 0.47108 0.40785 0.50196
 C1474 C 0.45567 0.39817 0.50781
 C1475 C 0.50739 0.38223 0.52596
 C1476 C 0.50973 0.36771 0.53801
 C1477 C 0.49478 0.35734 0.54445
 C1478 C 0.47696 0.36189 0.53794
 C1479 C 0.46214 0.35095 0.54368
 C1480 C 0.46452 0.33630 0.55556
 C1481 C 0.48167 0.33200 0.56241
 C1482 C 0.49707 0.34247 0.55707
 C1483 C 0.51408 0.33766 0.56477
 C1484 C 0.51567 0.32300 0.57696
 C1485 C 0.50045 0.31258 0.58198
 C1486 C 0.48347 0.31722 0.57462
 H1487 H 0.44474 0.37658 0.52340
 H1488 H 0.50025 0.40980 0.50379
 H1489 H 0.44223 0.40221 0.50322
 H1490 H 0.51930 0.38976 0.52141
 H1491 H 0.52359 0.36487 0.54185
 H1492 H 0.44842 0.35319 0.53907
 H1493 H 0.45272 0.32829 0.55952
 H1494 H 0.52644 0.34505 0.56192
 H1495 H 0.52889 0.32000 0.58272
 H1496 H 0.47160 0.30916 0.57824
 C1497 C -0.04406 0.88093 0.01249
 C1498 C -0.02721 0.87449 0.01943
 C1499 C -0.01136 0.88468 0.01499
 C1500 C -0.01247 0.90045 0.00398
 C1501 C -0.02928 0.90664 -0.00261
 C1502 C -0.04500 0.89672 0.00172
 C1503 C 0.00553 0.87923 0.02171
 C1504 C 0.00711 0.86403 0.03304
 C1505 C -0.00822 0.85348 0.03805
 C1506 C -0.02560 0.85852 0.03076
 C1507 C -0.04076 0.84740 0.03498
 C1508 C -0.03915 0.83214 0.04622
 C1509 C -0.02249 0.82738 0.05388
 C1510 C -0.00676 0.83796 0.05001
 C1511 C 0.00972 0.83262 0.05849
 C1512 C 0.01048 0.81740 0.07006
 C1513 C -0.00507 0.80692 0.07366
 C1514 C -0.02152 0.81203 0.06547
 H1515 H -0.05685 0.87430 0.01530
 H1516 H -0.00025 0.90820 0.00090
 H1517 H -0.05815 0.90116 -0.00332
 H1518 H 0.01771 0.88690 0.01828
 H1519 H 0.02070 0.86084 0.03750
 H1520 H -0.05415 0.84996 0.02966
 H1521 H -0.05119 0.82404 0.04904
 H1522 H 0.02226 0.84002 0.05674
 H1523 H 0.02331 0.81400 0.07647
 H1524 H -0.03362 0.80392 0.06797
 C1525 C 0.02485 0.61757 -0.01438
 C1526 C 0.02911 0.61683 0.00446
 C1527 C 0.03694 0.60029 0.01104
 C1528 C 0.04043 0.58533 -0.00084
 C1529 C 0.03599 0.58613 -0.01956
 C1530 C 0.02817 0.60259 -0.02603
 C1531 C 0.04110 0.59859 0.02955
 C1532 C 0.03749 0.61287 0.04182
 C1533 C 0.02962 0.62964 0.03603
 C1534 C 0.02571 0.63180 0.01696
 C1535 C 0.01861 0.64886 0.01104
 C1536 C 0.01514 0.66319 0.02326
 C1537 C 0.01841 0.66116 0.04191
 C1538 C 0.02562 0.64437 0.04865
 C1539 C 0.02836 0.64305 0.06780
 C1540 C 0.02430 0.65780 0.07956
 C1541 C 0.01736 0.67439 0.07275
 C1542 C 0.01446 0.67593 0.05387
 H1543 H 0.01881 0.62949 -0.02066
 H1544 H 0.04577 0.57272 0.00494
 H1545 H 0.02512 0.60438 -0.04039
 H1546 H 0.04715 0.58600 0.03468
 H1547 H 0.04123 0.61032 0.05580
 H1548 H 0.01570 0.65173 -0.00309
 H1549 H 0.00971 0.67603 0.01803
 H1550 H 0.03340 0.63076 0.07426
 H1551 H 0.02636 0.65608 0.09413
 H1552 H 0.00929 0.68877 0.04839
 C1553 C 0.52416 0.12127 0.49957
 C1554 C 0.52723 0.12022 0.51868
 C1555 C 0.53276 0.10297 0.52583
 C1556 C 0.53467 0.08750 0.51432
 C1557 C 0.53125 0.08875 0.49551
 C1558 C 0.52612 0.10580 0.48828
 C1559 C 0.53627 0.10117 0.54446
 C1560 C 0.53444 0.11609 0.55630
 C1561 C 0.52883 0.13356 0.54999
 C1562 C 0.52499 0.13563 0.53089
 C1563 C 0.51884 0.15295 0.52468
 C1564 C 0.51655 0.16775 0.53659
 C1565 C 0.52040 0.16604 0.55515
 C1566 C 0.52673 0.14901 0.56217
 C1567 C 0.53071 0.14824 0.58112
 C1568 C 0.52826 0.16361 0.59248
 C1569 C 0.52176 0.18027 0.58547
 C1570 C 0.51791 0.18137 0.56675
 H1571 H 0.52032 0.13381 0.49279
 H1572 H 0.53851 0.07433 0.52011
 H1573 H 0.52376 0.10725 0.47372
 H1574 H 0.54049 0.08801 0.55000
 H1575 H 0.53736 0.11334 0.57045
 H1576 H 0.51541 0.15556 0.51063
 H1577 H 0.51170 0.18074 0.53116
 H1578 H 0.53580 0.13603 0.58767
 H1579 H 0.53124 0.16236 0.60693
 H1580 H 0.51316 0.19431 0.56112
 C1581 C -0.00731 0.10400 0.48370
 C1582 C -0.02076 0.11614 0.47674
 C1583 C -0.03916 0.11319 0.48222
 C1584 C -0.04371 0.09870 0.49404
 C1585 C -0.03021 0.08687 0.50077
 C1586 C -0.01201 0.08968 0.49549
 C1587 C -0.05298 0.12473 0.47595
 C1588 C -0.04905 0.13926 0.46434
 C1589 C -0.03100 0.14289 0.45843
 C1590 C -0.01662 0.13106 0.46463
 C1591 C 0.00139 0.13451 0.45847
 C1592 C 0.00529 0.14898 0.44677
 C1593 C -0.00850 0.16070 0.44074
 C1594 C -0.02685 0.15791 0.44647
 C1595 C -0.04024 0.17037 0.43996
 C1596 C -0.03556 0.18473 0.42823
 C1597 C -0.01744 0.18729 0.42254
 C1598 C -0.00396 0.17521 0.42892
 H1599 H 0.00699 0.10513 0.48039
 H1600 H -0.05782 0.09679 0.49827
 H1601 H -0.00133 0.08061 0.50035
 H1602 H -0.06706 0.12252 0.48008
 H1603 H -0.06063 0.14737 0.46020
 H1604 H 0.01292 0.12620 0.46237
 H1605 H 0.01934 0.15103 0.44242
 H1606 H -0.05447 0.16955 0.44370
 H1607 H -0.04622 0.19405 0.42378
 H1608 H 0.01009 0.17695 0.42445
 C1609 C 0.50036 0.60952 0.97500
 C1610 C 0.48618 0.61961 0.96663
 C1611 C 0.46801 0.61421 0.97047
 C1612 C 0.46440 0.59906 0.98181
 C1613 C 0.47861 0.58907 0.99010
 C1614 C 0.49663 0.59468 0.98647
 C1615 C 0.45344 0.62405 0.96314
 C1616 C 0.45643 0.63938 0.95229
 C1617 C 0.47425 0.64541 0.94805
 C1618 C 0.48938 0.63500 0.95484
 C1619 C 0.50718 0.64020 0.94946
 C1620 C 0.51017 0.65526 0.93824
 C1621 C 0.49563 0.66597 0.93214
 C1622 C 0.47746 0.66136 0.93705
 C1623 C 0.46328 0.67309 0.93091
 C1624 C 0.46706 0.68845 0.92015
 C1625 C 0.48503 0.69272 0.91505
 C1626 C 0.49924 0.68136 0.92113
 H1627 H 0.51455 0.61281 0.97317
 H1628 H 0.45030 0.59576 0.98485
 H1629 H 0.50818 0.58722 0.99190
 H1630 H 0.43950 0.61994 0.96595
 H1631 H 0.44437 0.64605 0.94715
 H1632 H 0.51922 0.63269 0.95342
 H1633 H 0.52409 0.65865 0.93443
 H1634 H 0.44914 0.67106 0.93446
 H1635 H 0.45581 0.69722 0.91607
 H1636 H 0.51321 0.68439 0.91717
 C1637 C 0.54886 0.88585 0.99751
 C1638 C 0.53223 0.88254 0.98849
 C1639 C 0.51709 0.89408 0.99311
 C1640 C 0.51874 0.90831 1.00606
 C1641 C 0.53536 0.91149 1.01467
 C1642 C 0.55033 0.90007 1.01031
 C1643 C 0.50038 0.89149 0.98472
 C1644 C 0.49824 0.87774 0.97170
 C1645 C 0.51285 0.86590 0.96646
 C1646 C 0.53013 0.86830 0.97504
 C1647 C 0.54472 0.85643 0.96983
 C1648 C 0.54263 0.84278 0.95671
 C1649 C 0.52597 0.84032 0.94817
 C1650 C 0.51079 0.85177 0.95289
 C1651 C 0.49421 0.84854 0.94374
 C1652 C 0.49287 0.83462 0.93060
 C1653 C 0.50794 0.82340 0.92603
 C1654 C 0.52446 0.82637 0.93491
 H1655 H 0.56106 0.87779 0.99505
 H1656 H 0.50711 0.91721 1.00918
 H1657 H 0.56327 0.90206 1.01696
 H1658 H 0.48876 0.90026 0.98822
 H1659 H 0.48485 0.87681 0.96598
 H1660 H 0.55809 0.85730 0.97562
 H1661 H 0.55427 0.83405 0.95317
 H1662 H 0.48197 0.85652 0.94631
 H1663 H 0.48000 0.83278 0.92379
 H1664 H 0.53615 0.81760 0.93166
 C1665 C 0.03149 0.41201 0.46150
 C1666 C 0.02285 0.39553 0.46679
 C1667 C 0.01595 0.39449 0.48502
 C1668 C 0.01764 0.40936 0.49723
 C1669 C 0.02632 0.42573 0.49187
 C1670 C 0.03319 0.42668 0.47374
 C1671 C 0.00750 0.37852 0.49112
 C1672 C 0.00573 0.36345 0.47958
 C1673 C 0.01235 0.36370 0.46128
 C1674 C 0.02090 0.38008 0.45471
 C1675 C 0.02719 0.38047 0.43629
 C1676 C 0.02536 0.36543 0.42472
 C1677 C 0.01730 0.34933 0.43094
 C1678 C 0.01067 0.34814 0.44929
 C1679 C 0.00272 0.33134 0.45484
 C1680 C 0.00139 0.31656 0.44266
 C1681 C 0.00791 0.31788 0.42455
 C1682 C 0.01584 0.33437 0.41882
 H1683 H 0.03711 0.41416 0.44795
 H1684 H 0.01282 0.40765 0.51123
 H1685 H 0.03935 0.43908 0.46851
 H1686 H 0.00217 0.37763 0.50505
 H1687 H -0.00103 0.35179 0.48551
 H1688 H 0.03359 0.39227 0.43024
 H1689 H 0.03041 0.36642 0.41069
 H1690 H -0.00251 0.32902 0.46851
 H1691 H -0.00454 0.30389 0.44757
 H1692 H 0.02074 0.33565 0.40477
 C1693 C 0.41242 0.52703 0.47817
 C1694 C 0.39428 0.52140 0.48185
 C1695 C 0.39123 0.50230 0.48404
 C1696 C 0.40566 0.48954 0.48200
 C1697 C 0.42339 0.49535 0.47784
 C1698 C 0.42663 0.51421 0.47617
 C1699 C 0.37376 0.49596 0.48805
 C1700 C 0.35911 0.50810 0.48993
 C1701 C 0.36128 0.52723 0.48768
 C1702 C 0.37913 0.53398 0.48338
 C1703 C 0.38118 0.55304 0.48047
 C1704 C 0.36643 0.56512 0.48180
 C1705 C 0.34903 0.55882 0.48622
 C1706 C 0.34615 0.53983 0.48937
 C1707 C 0.32821 0.53432 0.49415
 C1708 C 0.31390 0.54709 0.49556
 C1709 C 0.31685 0.56577 0.49225
 C1710 C 0.33448 0.57152 0.48754
 H1711 H 0.41618 0.54122 0.47679
 H1712 H 0.40296 0.47496 0.48319
 H1713 H 0.44029 0.51910 0.47334
 H1714 H 0.37136 0.48138 0.48974
 H1715 H 0.34614 0.50191 0.49293
 H1716 H 0.39405 0.55915 0.47688
 H1717 H 0.36870 0.57961 0.47936
 H1718 H 0.32471 0.52029 0.49701
 H1719 H 0.30037 0.54229 0.49911
 H1720 H 0.33694 0.58600 0.48523
 C1721 C 0.91209 0.02659 -0.02359
 C1722 C 0.89504 0.02089 -0.01638
 C1723 C 0.89315 0.00203 -0.01212
 C1724 C 0.90765 -0.01046 -0.01521
 C1725 C 0.92452 -0.00473 -0.02264
 C1726 C 0.92641 0.01407 -0.02667
 C1727 C 0.87671 -0.00443 -0.00493
 C1728 C 0.86200 0.00738 -0.00181
 C1729 C 0.86305 0.02631 -0.00586
 C1730 C 0.87984 0.03319 -0.01331
 C1731 C 0.88083 0.05209 -0.01756
 C1732 C 0.86604 0.06387 -0.01463
 C1733 C 0.84964 0.05742 -0.00735
 C1734 C 0.84785 0.03858 -0.00279
 C1735 C 0.83086 0.03287 0.00466
 C1736 C 0.81643 0.04532 0.00738
 C1737 C 0.81831 0.06388 0.00280
 C1738 C 0.83499 0.06981 -0.00459
 H1739 H 0.91497 0.04067 -0.02692
 H1740 H 0.90526 -0.02487 -0.01256
 H1741 H 0.93923 0.01953 -0.03162
 H1742 H 0.87518 -0.01886 -0.00164
 H1743 H 0.84990 0.00111 0.00376
 H1744 H 0.89287 0.05831 -0.02329
 H1745 H 0.86747 0.07826 -0.01814
 H1746 H 0.82817 0.01891 0.00856
 H1747 H 0.80362 0.04032 0.01290
 H1748 H 0.83666 0.08420 -0.00796
 C1749 C 0.61216 0.00735 0.06529
 C1750 C 0.61911 0.01374 0.04824
 C1751 C 0.60990 0.00833 0.03215
 C1752 C 0.59465 -0.00314 0.03323
 C1753 C 0.58805 -0.00935 0.05020
 C1754 C 0.59690 -0.00396 0.06618
 C1755 C 0.61587 0.01442 0.01502
 C1756 C 0.63075 0.02592 0.01336
 C1757 C 0.64045 0.03179 0.02888
 C1758 C 0.63473 0.02534 0.04659
 C1759 C 0.64492 0.03057 0.06200
 C1760 C 0.66004 0.04178 0.06028
 C1761 C 0.66557 0.04845 0.04321
 C1762 C 0.65580 0.04371 0.02726
 C1763 C 0.66182 0.05123 0.01035
 C1764 C 0.67704 0.06253 0.00937
 C1765 C 0.68685 0.06684 0.02511
 C1766 C 0.68092 0.05982 0.04203
 H1767 H 0.61804 0.01091 0.07824
 H1768 H 0.58768 -0.00700 0.02080
 H1769 H 0.59210 -0.00866 0.07947
 H1770 H 0.60892 0.01027 0.00268
 H1771 H 0.63443 0.02978 -0.00043
 H1772 H 0.64173 0.02603 0.07571
 H1773 H 0.66747 0.04533 0.07252
 H1774 H 0.65502 0.04887 -0.00240
 H1775 H 0.68102 0.06813 -0.00383
 H1776 H 0.68845 0.06298 0.05431
 C1777 C 0.08983 0.53801 0.52469
 C1778 C 0.10767 0.53122 0.52069
 C1779 C 0.10984 0.51202 0.51778
 C1780 C 0.09482 0.50026 0.51919
 C1781 C 0.07733 0.50721 0.52339
 C1782 C 0.07501 0.52618 0.52602
 C1783 C 0.12699 0.50456 0.51354
 C1784 C 0.14215 0.51570 0.51196
 C1785 C 0.14084 0.53491 0.51472
 C1786 C 0.12335 0.54277 0.51942
 C1787 C 0.12217 0.56188 0.52285
 C1788 C 0.13739 0.57299 0.52151
 C1789 C 0.15442 0.56563 0.51660
 C1790 C 0.15645 0.54651 0.51304
 C1791 C 0.17405 0.53988 0.50782
 C1792 C 0.18882 0.55173 0.50626
 C1793 C 0.18670 0.57055 0.50987
 C1794 C 0.16944 0.57739 0.51512
 H1795 H 0.08675 0.55238 0.52673
 H1796 H 0.09682 0.48557 0.51731
 H1797 H 0.06158 0.53196 0.52894
 H1798 H 0.12872 0.48988 0.51135
 H1799 H 0.15481 0.50869 0.50870
 H1800 H 0.10963 0.56878 0.52679
 H1801 H 0.13578 0.58758 0.52430
 H1802 H 0.17693 0.52567 0.50467
 H1803 H 0.20207 0.54607 0.50234
 H1804 H 0.16762 0.59199 0.51770
 C1805 C 0.10059 0.47057 -0.04607
 C1806 C 0.11668 0.47612 -0.03725
 C1807 C 0.11806 0.49490 -0.03234
 C1808 C 0.10370 0.50733 -0.03569
 C1809 C 0.08763 0.50167 -0.04435
 C1810 C 0.08648 0.48306 -0.04956
 C1811 C 0.13387 0.50133 -0.02422
 C1812 C 0.14851 0.48959 -0.02101
 C1813 C 0.14787 0.47073 -0.02558
 C1814 C 0.13148 0.46377 -0.03335
 C1815 C 0.13037 0.44468 -0.03673
 C1816 C 0.14483 0.43285 -0.03308
 C1817 C 0.16111 0.43950 -0.02618
 C1818 C 0.16299 0.45853 -0.02245
 C1819 C 0.18003 0.46454 -0.01595
 C1820 C 0.19437 0.45214 -0.01307
 C1821 C 0.19233 0.43332 -0.01650
 C1822 C 0.17558 0.42713 -0.02303
 H1823 H 0.09845 0.45667 -0.05063
 H1824 H 0.10558 0.52167 -0.03225
 H1825 H 0.07432 0.47771 -0.05577
 H1826 H 0.13500 0.51569 -0.02038
 H1827 H 0.16007 0.49575 -0.01458
 H1828 H 0.11833 0.43830 -0.04195
 H1829 H 0.14329 0.41830 -0.03584
 H1830 H 0.18293 0.47877 -0.01328
 H1831 H 0.20727 0.45742 -0.00845
 H1832 H 0.17370 0.41258 -0.02557
 C1833 C 0.59187 0.97139 0.46401
 C1834 C 0.60891 0.97680 0.47093
 C1835 C 0.61085 0.99551 0.47592
 C1836 C 0.59635 1.00811 0.47391
 C1837 C 0.57943 1.00264 0.46691
 C1838 C 0.57755 0.98401 0.46203
 C1839 C 0.62732 1.00168 0.48282
 C1840 C 0.64197 0.98970 0.48505
 C1841 C 0.64081 0.97089 0.48037
 C1842 C 0.62402 0.96434 0.47310
 C1843 C 0.62293 0.94557 0.46820
 C1844 C 0.63758 0.93359 0.47040
 C1845 C 0.65394 0.93969 0.47757
 C1846 C 0.65587 0.95840 0.48269
 C1847 C 0.67283 0.96375 0.48997
 C1848 C 0.68707 0.95107 0.49206
 C1849 C 0.68503 0.93263 0.48698
 C1850 C 0.66840 0.92708 0.47970
 H1851 H 0.58896 0.95745 0.46012
 H1852 H 0.59874 1.02241 0.47716
 H1853 H 0.56471 0.97870 0.45734
 H1854 H 0.62892 1.01599 0.48662
 H1855 H 0.65409 0.99573 0.49048
 H1856 H 0.61090 0.93959 0.46252
 H1857 H 0.63605 0.91931 0.46644
 H1858 H 0.67562 0.97760 0.49424
 H1859 H 0.69986 0.95579 0.49751
 H1860 H 0.66658 0.91278 0.47595
 C1861 C 0.87685 1.00752 0.51798
 C1862 C 0.87710 0.98821 0.52056
 C1863 C 0.89359 0.98003 0.52660
 C1864 C 0.90905 0.99077 0.52968
 C1865 C 0.90854 1.00984 0.52703
 C1866 C 0.89230 1.01805 0.52117
 C1867 C 0.89462 0.96115 0.52957
 C1868 C 0.87961 0.95008 0.52687
 C1869 C 0.86282 0.95746 0.52092
 C1870 C 0.86161 0.97681 0.51747
 C1871 C 0.84500 0.98409 0.51095
 C1872 C 0.83004 0.97299 0.50807
 C1873 C 0.83090 0.95420 0.51163
 C1874 C 0.84722 0.94611 0.51820
 C1875 C 0.84715 0.92699 0.52183
 C1876 C 0.83163 0.91649 0.51891
 C1877 C 0.81564 0.92457 0.51227
 C1878 C 0.81540 0.94347 0.50868
 H1879 H 0.86493 1.01502 0.51371
 H1880 H 0.92161 0.98422 0.53402
 H1881 H 0.89141 1.03280 0.51931
 H1882 H 0.90722 0.95482 0.53412
 H1883 H 0.88174 0.93567 0.52946
 H1884 H 0.84307 0.99840 0.50776
 H1885 H 0.81761 0.97923 0.50302
 H1886 H 0.85878 0.91964 0.52702
 H1887 H 0.83224 0.90187 0.52166
 H1888 H 0.80299 0.94992 0.50380
 C1889 C 0.38722 0.50961 0.01113
 C1890 C 0.38755 0.49022 0.01297
 C1891 C 0.40438 0.48175 0.01757
 C1892 C 0.42013 0.49229 0.01982
 C1893 C 0.41956 0.51145 0.01783
 C1894 C 0.40294 0.51995 0.01353
 C1895 C 0.40547 0.46278 0.01993
 C1896 C 0.39017 0.45190 0.01806
 C1897 C 0.37305 0.45957 0.01351
 C1898 C 0.37180 0.47900 0.01054
 C1899 C 0.35492 0.48653 0.00504
 C1900 C 0.33972 0.47560 0.00278
 C1901 C 0.34058 0.45676 0.00606
 C1902 C 0.35718 0.44844 0.01163
 C1903 C 0.35708 0.42930 0.01521
 C1904 C 0.34131 0.41899 0.01306
 C1905 C 0.32508 0.42728 0.00727
 C1906 C 0.32484 0.44620 0.00381
 H1907 H 0.37502 0.51731 0.00813
 H1908 H 0.43294 0.48551 0.02297
 H1909 H 0.40199 0.53476 0.01230
 H1910 H 0.41831 0.45622 0.02337
 H1911 H 0.39235 0.43740 0.02005
 H1912 H 0.35298 0.50090 0.00209
 H1913 H 0.32709 0.48203 -0.00154
 H1914 H 0.36888 0.42183 0.01985
 H1915 H 0.34188 0.40436 0.01574
 H1916 H 0.31224 0.45280 -0.00038
 C1917 C 0.53214 0.45878 0.40579
 C1918 C 0.52580 0.46738 0.38967
 C1919 C 0.50741 0.47360 0.38963
 C1920 C 0.49582 0.47058 0.40479
 C1921 C 0.50230 0.46213 0.42072
 C1922 C 0.52060 0.45632 0.42102
 C1923 C 0.50063 0.48294 0.37450
 C1924 C 0.51186 0.48683 0.35955
 C1925 C 0.53030 0.48102 0.35890
 C1926 C 0.53712 0.47032 0.37377
 C1927 C 0.55484 0.46263 0.37207
 C1928 C 0.56569 0.46563 0.35658
 C1929 C 0.55962 0.47693 0.34247
 C1930 C 0.54202 0.48516 0.34362
 C1931 C 0.53700 0.49747 0.32956
 C1932 C 0.54869 0.50083 0.31470
 C1933 C 0.56574 0.49196 0.31311
 C1934 C 0.57111 0.48006 0.32719
 H1935 H 0.54611 0.45433 0.40730
 H1936 H 0.48164 0.47489 0.40413
 H1937 H 0.52619 0.45019 0.43324
 H1938 H 0.48652 0.48757 0.37432
 H1939 H 0.50549 0.49398 0.34839
 H1940 H 0.56055 0.45369 0.38228
 H1941 H 0.57911 0.45923 0.35576
 H1942 H 0.52434 0.50516 0.32991
 H1943 H 0.54437 0.51068 0.30451
 H1944 H 0.58420 0.47301 0.32624
 C1945 C 0.03538 -0.03699 0.90710
 C1946 C 0.02946 -0.02810 0.89096
 C1947 C 0.01110 -0.02179 0.89059
 C1948 C -0.00087 -0.02505 0.90542
 C1949 C 0.00515 -0.03402 0.92125
 C1950 C 0.02343 -0.03981 0.92193
 C1951 C 0.00471 -0.01224 0.87543
 C1952 C 0.01620 -0.00847 0.86064
 C1953 C 0.03457 -0.01453 0.86022
 C1954 C 0.04111 -0.02512 0.87530
 C1955 C 0.05889 -0.03276 0.87401
 C1956 C 0.06998 -0.02997 0.85866
 C1957 C 0.06407 -0.01906 0.84420
 C1958 C 0.04646 -0.01080 0.84494
 C1959 C 0.04157 0.00099 0.83039
 C1960 C 0.05334 0.00372 0.81544
 C1961 C 0.07037 -0.00520 0.81431
 C1962 C 0.07569 -0.01645 0.82892
 H1963 H 0.04927 -0.04154 0.90890
 H1964 H -0.01501 -0.02068 0.90451
 H1965 H 0.02866 -0.04633 0.93412
 H1966 H -0.00935 -0.00748 0.87503
 H1967 H 0.01005 -0.00120 0.84944
 H1968 H 0.06449 -0.04149 0.88446
 H1969 H 0.08342 -0.03636 0.85817
 H1970 H 0.02890 0.00864 0.83030
 H1971 H 0.04907 0.01305 0.80475
 H1972 H 0.08880 -0.02350 0.82831
 C1973 C -0.00908 0.02400 0.61691
 C1974 C 0.01019 0.02523 0.61607
 C1975 C 0.01833 0.03034 0.59908
 C1976 C 0.00757 0.03354 0.58363
 C1977 C -0.01148 0.03213 0.58470
 C1978 C -0.01965 0.02740 0.60151
 C1979 C 0.03718 0.03228 0.59754
 C1980 C 0.04825 0.02958 0.61257
 C1981 C 0.04090 0.02451 0.62983
 C1982 C 0.02161 0.02179 0.63147
 C1983 C 0.01442 0.01548 0.64837
 C1984 C 0.02556 0.01227 0.66325
 C1985 C 0.04424 0.01546 0.66207
 C1986 C 0.05222 0.02182 0.64544
 C1987 C 0.07119 0.02540 0.64527
 C1988 C 0.08170 0.02243 0.66080
 C1989 C 0.07376 0.01577 0.67701
 C1990 C 0.05500 0.01234 0.67753
 H1991 H -0.01652 0.02078 0.62932
 H1992 H 0.01410 0.03700 0.57067
 H1993 H -0.03435 0.02663 0.60287
 H1994 H 0.04348 0.03608 0.58456
 H1995 H 0.06264 0.03128 0.61006
 H1996 H 0.00019 0.01252 0.65051
 H1997 H 0.01941 0.00733 0.67591
 H1998 H 0.07836 0.03071 0.63346
 H1999 H 0.09619 0.02517 0.66006
 H2000 H 0.04869 0.00750 0.69015
 C2001 C 0.53493 0.53098 0.08177
 C2002 C 0.52825 0.52573 0.09929
 C2003 C 0.50926 0.52259 0.10126
 C2004 C 0.49748 0.52573 0.08656
 C2005 C 0.50426 0.53156 0.06947
 C2006 C 0.52313 0.53379 0.06719
 C2007 C 0.50206 0.51649 0.11794
 C2008 C 0.51327 0.51331 0.13278
 C2009 C 0.53221 0.51658 0.13169
 C2010 C 0.53972 0.52344 0.11484
 C2011 C 0.55831 0.52833 0.11425
 C2012 C 0.56925 0.52645 0.12950
 C2013 C 0.56230 0.51923 0.14581
 C2014 C 0.54381 0.51376 0.14706
 C2015 C 0.53776 0.50562 0.16368
 C2016 C 0.54942 0.50372 0.17853
 C2017 C 0.56740 0.50991 0.17740
 C2018 C 0.57379 0.51753 0.16095
 H2019 H 0.54923 0.53274 0.07874
 H2020 H 0.48292 0.52397 0.08859
 H2021 H 0.52888 0.53765 0.05400
 H2022 H 0.48755 0.51409 0.11954
 H2023 H 0.50651 0.50881 0.14517
 H2024 H 0.56476 0.53425 0.10232
 H2025 H 0.58337 0.53067 0.12847
 H2026 H 0.52419 0.50037 0.16562
 H2027 H 0.54424 0.49767 0.19111
 H2028 H 0.58784 0.52200 0.15989
 C2029 C 0.47915 -0.01000 0.10954
 C2030 C 0.47130 -0.02405 0.12040
 C2031 C 0.47731 -0.04239 0.11702
 C2032 C 0.49052 -0.04631 0.10332
 C2033 C 0.49828 -0.03218 0.09292
 C2034 C 0.49240 -0.01405 0.09611
 C2035 C 0.47030 -0.05674 0.12747
 C2036 C 0.45773 -0.05335 0.14157
 C2037 C 0.45148 -0.03535 0.14574
 C2038 C 0.45799 -0.02051 0.13465
 C2039 C 0.45099 -0.00265 0.13817
 C2040 C 0.43855 0.00077 0.15237
 C2041 C 0.43265 -0.01337 0.16375
 C2042 C 0.43895 -0.03165 0.16065
 C2043 C 0.43262 -0.04539 0.17284
 C2044 C 0.42068 -0.04106 0.18740
 C2045 C 0.41456 -0.02296 0.19037
 C2046 C 0.42053 -0.00922 0.17835
 H2047 H 0.47564 0.00432 0.11120
 H2048 H 0.49517 -0.06036 0.10109
 H2049 H 0.49807 -0.00290 0.08812
 H2050 H 0.47474 -0.07080 0.12486
 H2051 H 0.45309 -0.06528 0.14889
 H2052 H 0.45474 0.00912 0.13011
 H2053 H 0.43365 0.01474 0.15458
 H2054 H 0.43687 -0.05957 0.17181
 H2055 H 0.41654 -0.05192 0.19664
 H2056 H 0.41571 0.00481 0.18037
 C2057 C 0.97448 0.49896 0.59264
 C2058 C 0.96858 0.48412 0.60370
 C2059 C 0.97527 0.46629 0.59908
 C2060 C 0.98732 0.46361 0.58408
 C2061 C 0.99315 0.47850 0.57348
 C2062 C 0.98655 0.49613 0.57786
 C2063 C 0.97009 0.45119 0.60954
 C2064 C 0.95861 0.45332 0.62475
 C2065 C 0.95171 0.47077 0.63014
 C2066 C 0.95651 0.48639 0.61925
 C2067 C 0.94912 0.50375 0.62428
 C2068 C 0.93777 0.50591 0.63957
 C2069 C 0.93333 0.49096 0.65057
 C2070 C 0.94017 0.47315 0.64607
 C2071 C 0.93527 0.45852 0.65789
 C2072 C 0.92414 0.46155 0.67336
 C2073 C 0.91747 0.47918 0.67769
 C2074 C 0.92210 0.49381 0.66614
 H2075 H 0.97024 0.51299 0.59507
 H2076 H 0.99254 0.44992 0.58093
 H2077 H 0.99070 0.50785 0.56974
 H2078 H 0.97509 0.43751 0.60601
 H2079 H 0.95536 0.44088 0.63196
 H2080 H 0.95177 0.51608 0.61664
 H2081 H 0.93249 0.51954 0.64289
 H2082 H 0.93996 0.44458 0.65577
 H2083 H 0.92101 0.45003 0.68219
 H2084 H 0.91683 0.50749 0.66922
 C2085 C 0.99353 0.54506 0.87306
 C2086 C 0.98575 0.52780 0.86899
 C2087 C 0.99064 0.51268 0.88019
 C2088 C 1.00267 0.51495 0.89482
 C2089 C 1.00996 0.53220 0.89879
 C2090 C 1.00536 0.54715 0.88770
 C2091 C 0.98338 0.49539 0.87689
 C2092 C 0.97111 0.49268 0.86286
 C2093 C 0.96556 0.50726 0.85143
 C2094 C 0.97318 0.52507 0.85439
 C2095 C 0.96792 0.53957 0.84271
 C2096 C 0.95548 0.53694 0.82885
 C2097 C 0.94768 0.51981 0.82600
 C2098 C 0.95259 0.50467 0.83715
 C2099 C 0.94415 0.48762 0.83357
 C2100 C 0.93144 0.48582 0.81963
 C2101 C 0.92664 0.50087 0.80875
 C2102 C 0.93491 0.51782 0.81200
 H2103 H 0.99071 0.55732 0.86536
 H2104 H 1.00601 0.50332 0.90345
 H2105 H 1.01101 0.56059 0.89032
 H2106 H 0.98714 0.48377 0.88535
 H2107 H 0.96623 0.47887 0.86138
 H2108 H 0.97317 0.55327 0.84386
 H2109 H 0.95184 0.54853 0.82030
 H2110 H 0.94687 0.47538 0.84135
 H2111 H 0.92511 0.47261 0.81756
 H2112 H 0.93150 0.52951 0.80349
 C2113 C 0.46366 0.03244 0.40973
 C2114 C 0.46869 0.02627 0.39186
 C2115 C 0.48748 0.02271 0.38821
 C2116 C 0.50050 0.02551 0.40183
 C2117 C 0.49526 0.03177 0.41937
 C2118 C 0.47673 0.03513 0.42316
 C2119 C 0.49325 0.01642 0.37097
 C2120 C 0.48083 0.01344 0.35716
 C2121 C 0.46196 0.01677 0.35997
 C2122 C 0.45581 0.02348 0.37756
 C2123 C 0.43701 0.02731 0.38021
 C2124 C 0.42461 0.02457 0.36632
 C2125 C 0.43032 0.01783 0.34923
 C2126 C 0.44904 0.01372 0.34576
 C2127 C 0.45396 0.00667 0.32818
 C2128 C 0.44089 0.00396 0.31476
 C2129 C 0.42247 0.00817 0.31827
 C2130 C 0.41731 0.01513 0.33557
 H2131 H 0.44974 0.03521 0.41392
 H2132 H 0.51484 0.02305 0.39867
 H2133 H 0.47226 0.03966 0.43670
 H2134 H 0.50760 0.01372 0.36810
 H2135 H 0.48657 0.00863 0.34431
 H2136 H 0.43133 0.03262 0.39290
 H2137 H 0.41032 0.02776 0.36902
 H2138 H 0.46776 0.00300 0.32429
 H2139 H 0.44527 -0.00128 0.30144
 H2140 H 0.40304 0.01818 0.33852
   
