data_POSCAR
  _audit_creation_date              2014-09-24
  _audit_creation_method            'ToBaCCo'
  _symmetry_space_group_name_H-M    'P1'
  _symmetry_Int_Tables_number       1
  _symmetry_cell_setting            triclinic
  loop_
  _symmetry_equiv_pos_as_xyz
 x,y,z
_cell_length_a 42.0770
_cell_length_b 41.3398
_cell_length_c 53.3810
_cell_angle_alpha 90.320500
_cell_angle_beta 89.862200
_cell_angle_gamma 89.898200
loop_
  _atom_site_label
  _atom_site_type_symbol
  _atom_site_fract_x
  _atom_site_fract_y
  _atom_site_fract_z
Zr1 Zr 0.24357 0.25549 0.29724
 O2 O 0.26354 0.28465 0.32588
 O3 O 0.21502 0.22402 0.31811
 O4 O 0.20813 0.28255 0.31613
 O5 O 0.30790 0.20362 0.29086
 O6 O 0.18216 0.30868 0.28472
 O7 O 0.27631 0.22973 0.31935
 O8 O 0.18913 0.19502 0.28804
 O9 O 0.20304 0.25258 0.27475
 O10 O 0.24786 0.21242 0.27673
 O11 O 0.24401 0.29768 0.27544
 O12 O 0.28703 0.25892 0.27757
 Zr13 Zr 0.25044 0.25503 0.21008
 Zr14 Zr 0.20480 0.29325 0.25161
 Zr15 Zr 0.28936 0.21662 0.25556
 Zr16 Zr 0.20840 0.21057 0.25346
 O17 O 0.33924 0.22311 0.25583
 O18 O 0.15833 0.21548 0.25111
 O19 O 0.25008 0.21222 0.23160
 O20 O 0.20742 0.25103 0.22993
 O21 O 0.24639 0.29823 0.23040
 O22 O 0.29069 0.25748 0.23291
 C23 C 0.19473 0.20260 0.31109
 C24 C 0.29984 0.21114 0.31351
 C25 C 0.18647 0.30189 0.30797
 O26 O 0.15527 0.28621 0.24753
 O27 O 0.19009 0.31107 0.21666
 O28 O 0.22116 0.28505 0.18790
 C29 C 0.19896 0.30520 0.19397
 O30 O 0.30334 0.31987 0.28792
 Zr31 Zr 0.28575 0.29952 0.25404
 O32 O 0.28004 0.28597 0.18955
 O33 O 0.20546 0.34440 0.25339
 O34 O 0.27472 0.34956 0.25301
 O35 O 0.33607 0.29663 0.25495
 O36 O 0.30315 0.31732 0.21963
 C37 C 0.29882 0.30878 0.19664
 O38 O 0.22782 0.22817 0.18134
 O39 O 0.28814 0.16553 0.25752
 O40 O 0.28292 0.22509 0.19094
 O41 O 0.30764 0.19659 0.22184
 O42 O 0.21741 0.16021 0.25602
 O43 O 0.19383 0.18687 0.21998
 C44 C 0.30285 0.20367 0.19863
 H45 H 0.24895 0.19302 0.28748
 H46 H 0.18919 0.24929 0.21830
 H47 H 0.31090 0.25787 0.22340
 H48 H 0.24235 0.31726 0.28613
 H49 H 0.14888 0.19441 0.25579
 H50 H 0.14529 0.30794 0.24781
 H51 H 0.18318 0.35177 0.25147
 H52 H 0.29463 0.36125 0.24906
 H53 H 0.19695 0.14951 0.25996
 H54 H 0.31048 0.15817 0.25897
 H55 H 0.34885 0.20121 0.25594
 H56 H 0.34447 0.31839 0.25097
 H57 H 0.17668 0.17129 0.22386
 H58 H 0.23634 0.23602 0.16513
 H59 H 0.25532 0.27650 0.34210
 H60 H 0.31611 0.33933 0.28408
 Zr61 Zr 0.76327 0.75775 0.28898
 O62 O 0.74272 0.72663 0.31591
 O63 O 0.78960 0.78934 0.31184
 O64 O 0.79768 0.73038 0.30782
 O65 O 0.69479 0.80276 0.28209
 O66 O 0.83005 0.71048 0.27695
 O67 O 0.72833 0.78133 0.31112
 O68 O 0.81351 0.82270 0.28371
 O69 O 0.80481 0.76542 0.26811
 O70 O 0.75646 0.80119 0.27000
 O71 O 0.76809 0.71696 0.26541
 O72 O 0.72156 0.75089 0.26777
 Zr73 Zr 0.76127 0.76301 0.20188
 Zr74 Zr 0.80833 0.72609 0.24329
 Zr75 Zr 0.71670 0.79387 0.24746
 Zr76 Zr 0.79686 0.80792 0.24820
 O77 O 0.66771 0.78238 0.24599
 O78 O 0.84723 0.80797 0.24673
 O79 O 0.75650 0.80407 0.22514
 O80 O 0.80289 0.76918 0.22318
 O81 O 0.76842 0.71917 0.22057
 O82 O 0.72027 0.75467 0.22294
 C83 C 0.80832 0.81280 0.30619
 C84 C 0.70291 0.79671 0.30477
 C85 C 0.82168 0.71372 0.30012
 O86 O 0.85702 0.73825 0.24080
 O87 O 0.82484 0.71049 0.20760
 O88 O 0.79432 0.73802 0.17954
 C89 C 0.81653 0.71788 0.18503
 O90 O 0.70964 0.68883 0.27477
 Zr91 Zr 0.72810 0.71219 0.24250
 O92 O 0.73826 0.72935 0.17881
 O93 O 0.81269 0.67508 0.24330
 O94 O 0.74373 0.66342 0.24093
 O95 O 0.67781 0.71013 0.24046
 O96 O 0.71671 0.69381 0.20659
 C97 C 0.72273 0.70354 0.18417
 O98 O 0.78230 0.79433 0.17536
 O99 O 0.71282 0.84468 0.25141
 O100 O 0.72640 0.79051 0.18292
 O101 O 0.69752 0.81328 0.21461
 O102 O 0.78375 0.85711 0.25312
 O103 O 0.81010 0.83486 0.21603
 C104 C 0.70364 0.80862 0.19126
 H105 H 0.75323 0.81985 0.28144
 H106 H 0.82146 0.77325 0.21221
 H107 H 0.70092 0.75254 0.21255
 H108 H 0.77061 0.69691 0.27527
 H109 H 0.85449 0.82960 0.25238
 H110 H 0.86889 0.71754 0.24035
 H111 H 0.83565 0.67011 0.24159
 H112 H 0.72536 0.65003 0.23570
 H113 H 0.80323 0.86924 0.25762
 H114 H 0.68983 0.84975 0.25248
 H115 H 0.65585 0.80310 0.24678
 H116 H 0.67206 0.68795 0.23500
 H117 H 0.82579 0.85159 0.22083
 H118 H 0.77556 0.78679 0.15851
 H119 H 0.74947 0.73443 0.33269
 H120 H 0.69838 0.66885 0.26964
 Zr121 Zr 0.74027 0.25364 -0.30083
 O122 O 0.71527 0.27676 -0.33011
 O123 O 0.77264 0.22538 -0.32108
 O124 O 0.77033 0.28463 -0.32119
 O125 O 0.68433 0.19383 -0.29116
 O126 O 0.79234 0.31750 -0.29139
 O127 O 0.71204 0.22058 -0.32137
 O128 O 0.80315 0.20240 -0.29078
 O129 O 0.78142 0.25819 -0.27909
 O130 O 0.74246 0.21216 -0.27874
 O131 O 0.73479 0.29700 -0.28047
 O132 O 0.69712 0.25283 -0.28070
 Zr133 Zr 0.73516 0.25878 -0.21348
 Zr134 Zr 0.77468 0.29987 -0.25712
 Zr135 Zr 0.70119 0.21262 -0.25710
 Zr136 Zr 0.78232 0.21745 -0.25631
 O137 O 0.65088 0.21258 -0.25740
 O138 O 0.83123 0.22954 -0.25480
 O139 O 0.74115 0.21504 -0.23372
 O140 O 0.77799 0.25918 -0.23407
 O141 O 0.73321 0.30058 -0.23544
 O142 O 0.69463 0.25448 -0.23579
 C143 C 0.79592 0.20758 -0.31393
 C144 C 0.69142 0.19946 -0.31418
 C145 C 0.78813 0.30835 -0.31426
 O146 O 0.82489 0.29969 -0.25522
 O147 O 0.78899 0.32078 -0.22274
 O148 O 0.76214 0.29270 -0.19278
 C149 C 0.78201 0.31466 -0.19969
 O150 O 0.67235 0.30887 -0.29299
 Zr151 Zr 0.69369 0.29492 -0.25865
 O152 O 0.70275 0.28849 -0.19384
 O153 O 0.76677 0.35035 -0.25893
 O154 O 0.69758 0.34597 -0.26093
 O155 O 0.64417 0.28551 -0.25735
 O156 O 0.67631 0.31462 -0.22500
 C157 C 0.68221 0.30917 -0.20180
 O158 O 0.76066 0.23673 -0.18396
 O159 O 0.70920 0.16208 -0.25657
 O160 O 0.70667 0.22611 -0.19294
 O161 O 0.68519 0.19350 -0.22298
 O162 O 0.78035 0.16619 -0.25722
 O163 O 0.80054 0.19821 -0.22240
 C164 C 0.68907 0.20223 -0.20003
 H165 H 0.74395 0.19193 -0.28868
 H166 H 0.79661 0.26051 -0.22282
 H167 H 0.67471 0.25323 -0.22594
 H168 H 0.73327 0.31583 -0.29178
 H169 H 0.84347 0.20975 -0.25905
 H170 H 0.83176 0.32258 -0.25600
 H171 H 0.78792 0.36081 -0.25811
 H172 H 0.67630 0.35524 -0.25736
 H173 H 0.80201 0.15821 -0.26121
 H174 H 0.68807 0.15161 -0.25763
 H175 H 0.64406 0.18968 -0.25654
 H176 H 0.63323 0.30641 -0.25423
 H177 H 0.81969 0.18503 -0.22608
 H178 H 0.75139 0.24477 -0.16797
 H179 H 0.72427 0.26858 -0.34614
 H180 H 0.65656 0.32620 -0.28979
 Zr181 Zr 0.25146 0.73888 -0.29222
 O182 O 0.27694 0.71260 -0.31998
 O183 O 0.22076 0.76711 -0.31468
 O184 O 0.22278 0.70675 -0.31259
 O185 O 0.30991 0.79680 -0.28369
 O186 O 0.19730 0.67713 -0.28286
 O187 O 0.28322 0.76722 -0.31284
 O188 O 0.18960 0.79220 -0.28569
 O189 O 0.20890 0.73722 -0.27204
 O190 O 0.24928 0.78223 -0.27209
 O191 O 0.25509 0.69723 -0.26992
 O192 O 0.29333 0.74005 -0.27041
 Zr193 Zr 0.25034 0.74108 -0.20504
 Zr194 Zr 0.21331 0.69705 -0.24862
 Zr195 Zr 0.28927 0.78264 -0.24911
 Zr196 Zr 0.20801 0.77963 -0.25065
 O197 O 0.33939 0.78121 -0.24618
 O198 O 0.15854 0.76985 -0.25018
 O199 O 0.24770 0.78315 -0.22714
 O200 O 0.20912 0.73945 -0.22712
 O201 O 0.25297 0.69749 -0.22504
 O202 O 0.29288 0.74268 -0.22537
 C203 C 0.19744 0.78596 -0.30853
 C204 C 0.30475 0.78779 -0.30658
 C205 C 0.20387 0.68402 -0.30583
 O206 O 0.16307 0.69868 -0.24821
 O207 O 0.19750 0.67836 -0.21424
 O208 O 0.22192 0.70861 -0.18422
 C209 C 0.20304 0.68560 -0.19112
 O210 O 0.31869 0.68268 -0.27853
 Zr211 Zr 0.29457 0.70011 -0.24612
 O212 O 0.27891 0.71223 -0.18238
 O213 O 0.21988 0.64629 -0.24887
 O214 O 0.28969 0.64906 -0.24672
 O215 O 0.34401 0.70888 -0.24257
 O216 O 0.30801 0.68259 -0.21037
 C217 C 0.29907 0.68996 -0.18791
 O218 O 0.22262 0.76608 -0.17799
 O219 O 0.28339 0.83329 -0.25244
 O220 O 0.27778 0.77499 -0.18472
 O221 O 0.30121 0.80562 -0.21509
 O222 O 0.21131 0.83065 -0.25374
 O223 O 0.18906 0.80181 -0.21783
 C224 C 0.29519 0.79885 -0.19202
 H225 H 0.24917 0.80147 -0.28305
 H226 H 0.18973 0.73925 -0.21658
 H227 H 0.31179 0.74438 -0.21445
 H228 H 0.25701 0.67750 -0.28041
 H229 H 0.14736 0.78997 -0.25505
 H230 H 0.15567 0.67594 -0.24838
 H231 H 0.19844 0.63642 -0.24821
 H232 H 0.31027 0.63970 -0.24136
 H233 H 0.18992 0.83888 -0.25817
 H234 H 0.30499 0.84280 -0.25264
 H235 H 0.34675 0.80396 -0.24622
 H236 H 0.35408 0.68828 -0.23743
 H237 H 0.17072 0.81562 -0.22237
 H238 H 0.23024 0.75921 -0.16126
 H239 H 0.26923 0.71974 -0.33663
 H240 H 0.33413 0.66576 -0.27364
 Zr241 Zr 1.27181 1.26472 0.78897
 O242 O 1.24970 1.23928 0.81862
 O243 O 1.30608 1.29216 0.80846
 O244 O 1.30242 1.23138 0.80626
 O245 O 1.21133 1.32113 0.78567
 O246 O 1.32554 1.20358 0.77396
 O247 O 1.24430 1.29483 0.81265
 O248 O 1.33132 1.31955 0.77734
 O249 O 1.31127 1.26379 0.76501
 O250 O 1.27030 1.30801 0.76904
 O251 O 1.26599 1.22307 0.76652
 O252 O 1.22709 1.26517 0.77101
 Zr253 Zr 1.26012 1.26728 0.70225
 Zr254 Zr 1.30445 1.22360 0.74153
 Zr255 Zr 1.22728 1.30767 0.74975
 Zr256 Zr 1.30830 1.30629 0.74412
 O257 O 1.17707 1.30544 0.75156
 O258 O 1.35755 1.29715 0.73922
 O259 O 1.26536 1.30930 0.72432
 O260 O 1.30441 1.26624 0.72040
 O261 O 1.26150 1.22346 0.72173
 O262 O 1.22088 1.26775 0.72625
 C263 C 1.32731 1.31204 0.80043
 C264 C 1.22108 1.31418 0.80784
 C265 C 1.32093 1.20917 0.79750
 O266 O 1.35432 1.22627 0.73700
 O267 O 1.31607 1.20592 0.70542
 O268 O 1.28654 1.23656 0.67867
 C269 C 1.30707 1.21429 0.68328
 O270 O 1.20469 1.20699 0.78078
 Zr271 Zr 1.22329 1.22521 0.74661
 O272 O 1.22860 1.23804 0.68206
 O273 O 1.29887 1.17275 0.74129
 O274 O 1.22935 1.17427 0.74584
 O275 O 1.17348 1.23298 0.74802
 O276 O 1.20473 1.20786 0.71231
 C277 C 1.20963 1.21558 0.68926
 O278 O 1.28283 1.29292 0.67300
 O279 O 1.23272 1.35841 0.75292
 O280 O 1.22951 1.30091 0.68492
 O281 O 1.20907 1.33006 0.71757
 O282 O 1.30447 1.35725 0.74792
 O283 O 1.32197 1.32875 0.71003
 C284 C 1.21208 1.32384 0.69403
 H285 H 1.27176 1.32735 0.78000
 H286 H 1.32219 1.26664 0.70822
 H287 H 1.20042 1.26914 0.71720
 H288 H 1.26581 1.20319 0.77677
 H289 H 1.36903 1.31744 0.74322
 H290 H 1.36217 1.20368 0.73608
 H291 H 1.32029 1.16332 0.73861
 H292 H 1.20830 1.16452 0.74237
 H293 H 1.32623 1.36590 0.75023
 H294 H 1.21114 1.36759 0.75527
 H295 H 1.16926 1.32805 0.75254
 H296 H 1.16311 1.21221 0.74364
 H297 H 1.34079 1.34258 0.71298
 H298 H 1.27282 1.28607 0.65701
 H299 H 1.25985 1.24637 0.83449
 H300 H 1.18913 1.18966 0.77713
 Zr301 Zr 0.74771 0.74680 0.79355
 O302 O 0.77894 0.76557 0.82104
 O303 O 0.71424 0.72301 0.81569
 O304 O 0.72439 0.78185 0.81625
 O305 O 0.79377 0.67935 0.78000
 O306 O 0.70431 0.81746 0.78790
 O307 O 0.77261 0.70968 0.81185
 O308 O 0.67796 0.70452 0.78744
 O309 O 0.70550 0.75768 0.77483
 O310 O 0.73728 0.70625 0.77140
 O311 O 0.75767 0.78886 0.77316
 O312 O 0.78786 0.73924 0.77038
 Zr313 Zr 0.74375 0.75206 0.70634
 Zr314 Zr 0.71624 0.79800 0.75284
 Zr315 Zr 0.77556 0.70018 0.74694
 Zr316 Zr 0.69626 0.71781 0.75190
 O317 O 0.82505 0.69215 0.74329
 O318 O 0.64972 0.73730 0.75456
 O319 O 0.73389 0.70932 0.72652
 O320 O 0.70408 0.75882 0.72984
 O321 O 0.75464 0.79271 0.72818
 O322 O 0.78560 0.74091 0.72555
 C323 C 0.68848 0.70811 0.80998
 C324 C 0.78957 0.68603 0.80341
 C325 C 0.70924 0.80792 0.81042
 O326 O 0.66653 0.80582 0.75379
 O327 O 0.70222 0.82215 0.72033
 O328 O 0.72031 0.79077 0.68810
 C329 C 0.70536 0.81569 0.69689
 O330 O 0.82222 0.79127 0.78098
 Zr331 Zr 0.79533 0.78050 0.74833
 O332 O 0.77842 0.77506 0.68433
 O333 O 0.73181 0.84659 0.75513
 O334 O 0.79915 0.83159 0.75040
 O335 O 0.84250 0.76310 0.74414
 O336 O 0.81215 0.79653 0.71337
 C337 C 0.80310 0.79151 0.69067
 O338 O 0.71161 0.73524 0.67873
 O339 O 0.76021 0.65149 0.74720
 O340 O 0.76404 0.71569 0.68365
 O341 O 0.78415 0.67908 0.71129
 O342 O 0.69090 0.66680 0.75169
 O343 O 0.67134 0.70276 0.71927
 C344 C 0.77869 0.68918 0.68886
 H345 H 0.73405 0.68629 0.78123
 H346 H 0.68470 0.76339 0.71999
 H347 H 0.80388 0.73645 0.71435
 H348 H 0.76309 0.80711 0.78445
 H349 H 0.63532 0.71946 0.75944
 H350 H 0.66318 0.82947 0.75544
 H351 H 0.71252 0.86037 0.75572
 H352 H 0.82100 0.83740 0.74514
 H353 H 0.66883 0.66202 0.75702
 H354 H 0.77964 0.63792 0.74661
 H355 H 0.82816 0.66844 0.74199
 H356 H 0.85616 0.78187 0.74006
 H357 H 0.65096 0.69267 0.72422
 H358 H 0.72005 0.74204 0.66220
 H359 H 0.77056 0.75884 0.83761
 H360 H 0.83974 0.80618 0.77662
 Zr361 Zr 1.24974 0.74857 0.20555
 O362 O 1.22661 0.77622 0.17773
 O363 O 1.27945 0.71907 0.18399
 O364 O 1.28273 0.77792 0.18658
 O365 O 1.18887 0.69315 0.21174
 O366 O 1.30896 0.80486 0.21768
 O367 O 1.22011 0.71914 0.18324
 O368 O 1.30708 0.69044 0.21311
 O369 O 1.29098 0.74706 0.22737
 O370 O 1.24764 0.70536 0.22560
 O371 O 1.24845 0.79066 0.22782
 O372 O 1.20645 0.75052 0.22546
 Zr373 Zr 1.24457 0.74683 0.29237
 Zr374 Zr 1.28834 0.78751 0.25114
 Zr375 Zr 1.20617 0.70805 0.24694
 Zr376 Zr 1.28764 0.70466 0.24815
 O377 O 1.15616 0.71332 0.24573
 O378 O 1.33750 0.71141 0.25028
 O379 O 1.24607 0.70432 0.27033
 O380 O 1.28748 0.74485 0.27213
 O381 O 1.24688 0.79057 0.27286
 O382 O 1.20391 0.74867 0.27005
 C383 C 1.30062 0.69830 0.19033
 C384 C 1.19778 0.69927 0.18916
 C385 C 1.30370 0.79829 0.19440
 O386 O 1.33821 0.78209 0.25384
 O387 O 1.30344 0.80463 0.28657
 O388 O 1.27411 0.77598 0.31474
 C389 C 1.29555 0.79691 0.30914
 O390 O 1.18815 0.81093 0.21616
 Zr391 Zr 1.20711 0.79100 0.24957
 O392 O 1.21501 0.77714 0.31377
 O393 O 1.28568 0.83861 0.25091
 O394 O 1.21655 0.84133 0.25114
 O395 O 1.15686 0.78704 0.24939
 O396 O 1.19005 0.80789 0.28445
 C397 C 1.19530 0.79936 0.30724
 O398 O 1.26780 0.71950 0.32036
 O399 O 1.20918 0.65698 0.24577
 O400 O 1.21265 0.71648 0.31144
 O401 O 1.18700 0.68903 0.28036
 O402 O 1.28126 0.65396 0.24462
 O403 O 1.30308 0.68114 0.28128
 C404 C 1.19191 0.69591 0.30362
 H405 H 1.24750 0.68580 0.21483
 H406 H 1.30598 0.74340 0.28350
 H407 H 1.18378 0.74869 0.27966
 H408 H 1.24902 0.81038 0.21740
 H409 H 1.34769 0.69075 0.24522
 H410 H 1.34730 0.80418 0.25404
 H411 H 1.30775 0.84668 0.25254
 H412 H 1.19636 0.85238 0.25555
 H413 H 1.30231 0.64435 0.24071
 H414 H 1.18713 0.64885 0.24414
 H415 H 1.14709 0.69120 0.24558
 H416 H 1.14804 0.80863 0.25368
 H417 H 1.32123 0.66672 0.27726
 H418 H 1.25945 0.72691 0.33683
 H419 H 1.23503 0.76887 0.16128
 H420 H 1.17513 0.83020 0.22035
 Zr421 Zr 0.74302 1.24820 0.21104
 O422 O 0.76370 1.22452 0.17965
 O423 O 0.71073 1.28004 0.19350
 O424 O 0.71073 1.21895 0.19116
 O425 O 0.80527 1.30208 0.21860
 O426 O 0.68603 1.18940 0.22136
 O427 O 0.77297 1.27804 0.18980
 O428 O 0.68581 1.30474 0.22639
 O429 O 0.70323 1.24664 0.23451
 O430 O 0.74580 1.28916 0.23401
 O431 O 0.74718 1.20414 0.23033
 O432 O 0.78743 1.24481 0.22932
 Zr433 Zr 0.75313 1.24086 0.29774
 Zr434 Zr 0.70837 1.20388 0.25485
 Zr435 Zr 0.78844 1.28501 0.25345
 Zr436 Zr 0.70742 1.28644 0.25857
 O437 O 0.83854 1.28085 0.25180
 O438 O 0.65776 1.27896 0.26207
 O439 O 0.75007 1.28533 0.27874
 O440 O 0.70927 1.24376 0.27923
 O441 O 0.75079 1.19952 0.27503
 O442 O 0.79284 1.24255 0.27412
 C443 C 0.69024 1.30001 0.20286
 C444 C 0.79629 1.29653 0.19590
 C445 C 0.69072 1.19739 0.19838
 O446 O 0.65866 1.20808 0.26002
 O447 O 0.69602 1.18185 0.28868
 O448 O 0.72637 1.20674 0.31837
 C449 C 0.70533 1.18587 0.31139
 O450 O 0.80777 1.18601 0.21582
 Zr451 Zr 0.78959 1.20232 0.25087
 O452 O 0.78401 1.20955 0.31592
 O453 O 0.71184 1.15310 0.25035
 O454 O 0.78135 1.15179 0.24885
 O455 O 0.83959 1.20855 0.24961
 O456 O 0.80820 1.18171 0.28419
 C457 C 0.80308 1.18775 0.30761
 O458 O 0.73001 1.26341 0.32849
 O459 O 0.78491 1.33608 0.25407
 O460 O 0.78439 1.27141 0.31782
 O461 O 0.80646 1.30300 0.28747
 O462 O 0.71348 1.33737 0.25894
 O463 O 0.69378 1.30542 0.29410
 C464 C 0.80269 1.29454 0.31048
 H465 H 0.74541 1.30962 0.22447
 H466 H 0.69137 1.24327 0.29130
 H467 H 0.81323 1.24235 0.28333
 H468 H 0.74656 1.18550 0.21861
 H469 H 0.64714 1.30012 0.25961
 H470 H 0.64984 1.18591 0.25887
 H471 H 0.69008 1.14427 0.25226
 H472 H 0.80191 1.14081 0.25197
 H473 H 0.69216 1.34733 0.25716
 H474 H 0.80686 1.34455 0.25268
 H475 H 0.84714 1.30312 0.25275
 H476 H 0.84942 1.18716 0.25278
 H477 H 0.67554 1.32032 0.29203
 H478 H 0.73946 1.25430 0.34393
 H479 H 0.75416 1.23390 0.16431
 H480 H 0.82235 1.16754 0.21856
 O481 O 0.47645 1.05941 0.02959
 O482 O 0.51456 0.94935 0.03067
 O483 O 0.43976 0.98946 0.03048
 O484 O 0.54926 1.01975 0.03175
 O485 O 0.46022 0.94433 0.01916
 O486 O 0.53008 1.06464 0.01929
 O487 O 0.55710 0.96607 0.01462
 O488 O 0.43365 1.04322 0.01369
 C489 C 0.44746 1.05646 0.03155
 C490 C 0.54371 0.95176 0.03201
 C491 C 0.44498 0.96057 0.03503
 C492 C 0.54381 1.04870 0.03594
 O493 O 0.51490 1.05850 -0.03121
 O494 O 0.47747 0.94811 -0.03057
 O495 O 0.44161 1.01919 -0.03319
 O496 O 0.55117 0.98876 -0.03165
 O497 O 0.53103 0.94382 -0.01959
 O498 O 0.46073 1.06405 -0.02050
 O499 O 0.55744 1.04312 -0.01457
 O500 O 0.43397 0.96538 -0.01607
 Co501 Co 0.49554 1.05639 -0.00077
 Co502 Co 0.49579 0.95185 -0.00006
 Co503 Co 0.44314 1.00437 -0.00125
 Co504 Co 0.54771 1.00451 -0.00002
 O505 O 0.49550 1.00427 -0.00055
 C506 C 0.54411 1.05715 -0.03213
 C507 C 0.44841 0.94987 -0.03257
 C508 C 0.44776 1.04794 -0.03752
 C509 C 0.54730 0.95930 -0.03516
 O510 O 0.96326 0.54874 0.53351
 O511 O 1.02056 0.46186 0.53799
 O512 O 0.92777 0.47329 0.51044
 O513 O 1.06034 0.52510 0.51570
 O514 O 0.96461 0.46666 0.53713
 O515 O 1.02311 0.55592 0.53261
 O516 O 1.05739 0.46562 0.51153
 O517 O 0.92685 0.53158 0.50827
 C518 C 0.93473 0.54355 0.52918
 C519 C 1.04920 0.46036 0.53345
 C520 C 0.93592 0.46709 0.53245
 C521 C 1.05072 0.54447 0.53256
 O522 O 1.02053 0.56947 0.48508
 O523 O 0.96220 0.43545 0.49220
 O524 O 0.95313 0.52810 0.46140
 O525 O 1.03640 0.47039 0.46510
 O526 O 1.01947 0.43360 0.49067
 O527 O 0.96160 0.56790 0.48589
 O528 O 1.04798 0.53040 0.46748
 O529 O 0.95729 0.47118 0.46428
 Co530 Co 0.99197 0.55485 0.50846
 Co531 Co 0.99195 0.45377 0.51320
 Co532 Co 0.94562 0.50100 0.48727
 Co533 Co 1.04485 0.49818 0.49080
 O534 O 0.99390 0.50253 0.49983
 C535 C 1.04063 0.55953 0.46932
 C536 C 0.95629 0.44235 0.46998
 C537 C 0.95515 0.55766 0.46441
 C538 C 1.03011 0.44150 0.46939
 O539 O 1.02081 0.45865 0.04380
 O540 O 1.02369 0.52719 -0.04900
 O541 O 1.01429 0.42922 -0.03247
 O542 O 1.01437 0.55703 0.02680
 O543 O 1.03594 0.47235 -0.04421
 O544 O 1.03480 0.51387 0.03990
 O545 O 1.03772 0.54840 -0.01418
 O546 O 1.03550 0.43635 0.00940
 C547 C 1.04077 0.44218 0.03183
 C548 C 1.04366 0.54284 -0.03652
 C549 C 1.03685 0.44266 -0.04324
 C550 C 1.03559 0.54364 0.03905
 O551 O 0.97084 0.52969 0.04280
 O552 O 0.97194 0.45753 -0.04925
 O553 O 0.97645 0.43076 0.02765
 O554 O 0.97984 0.55613 -0.03399
 O555 O 0.95940 0.51237 -0.04579
 O556 O 0.95748 0.47538 0.03944
 O557 O 0.95622 0.55032 0.00787
 O558 O 0.95494 0.43803 -0.01472
 Co559 Co 0.99611 0.49425 0.03736
 Co560 Co 0.99764 0.49245 -0.04298
 Co561 Co 0.99534 0.43982 -0.00258
 Co562 Co 0.99694 0.54665 -0.00339
 O563 O 0.99650 0.49327 -0.00288
 C564 C 0.95112 0.54590 0.03057
 C565 C 0.95053 0.44320 -0.03737
 C566 C 0.95561 0.44575 0.03949
 C567 C 0.95876 0.54206 -0.04603
 O568 O 0.50659 0.96191 0.55104
 O569 O 0.51212 1.00944 0.44547
 O570 O 0.54020 0.94633 0.47844
 O571 O 0.53594 1.03564 0.52101
 O572 O 0.50721 0.94984 0.44909
 O573 O 0.50402 1.01990 0.55026
 O574 O 0.53342 1.04165 0.47374
 O575 O 0.53975 0.95326 0.52180
 C576 C 0.53444 0.95535 0.54443
 C577 C 0.53257 1.03026 0.45197
 C578 C 0.53478 0.94389 0.45594
 C579 C 0.53047 1.03144 0.54366
 O580 O 0.44444 1.01655 0.53007
 O581 O 0.44828 0.95616 0.46597
 O582 O 0.48229 0.92289 0.52563
 O583 O 0.47303 1.05542 0.47663
 O584 O 0.45121 1.01554 0.45573
 O585 O 0.44787 0.95969 0.52788
 O586 O 0.47573 1.05575 0.52320
 O587 O 0.47991 0.91919 0.48007
 Co588 Co 0.47711 0.98931 0.53641
 Co589 Co 0.48089 0.98316 0.45851
 Co590 Co 0.50884 0.93985 0.50117
 Co591 Co 0.50353 1.04134 0.49885
 O592 O 0.49270 0.98904 0.49840
 C593 C 0.44908 1.04595 0.53018
 C594 C 0.45350 0.92722 0.47062
 C595 C 0.45489 0.93137 0.53193
 C596 C 0.45264 1.04487 0.46133
 O597 O 1.06374 1.03863 0.49553
 O598 O 0.95437 1.04078 0.51969
 O599 O 0.99164 1.03942 0.46466
 O600 O 1.02590 1.03528 0.55031
 O601 O 0.94751 1.02130 0.47694
 O602 O 1.06940 1.01626 0.53730
 O603 O 0.97246 1.02152 0.55381
 O604 O 1.04484 1.02266 0.46062
 C605 C 1.05924 1.04376 0.47296
 C606 C 0.95896 1.04409 0.54252
 C607 C 0.96253 1.04173 0.46470
 C608 C 1.05492 1.03781 0.54902
 O609 O 1.06198 0.95623 0.51791
 O610 O 0.95200 0.95992 0.49313
 O611 O 1.02586 0.95929 0.46355
 O612 O 0.98777 0.95708 0.54777
 O613 O 0.94561 0.97944 0.53519
 O614 O 1.06940 0.97765 0.47699
 O615 O 1.04228 0.97097 0.55289
 O616 O 0.97270 0.97625 0.45904
 Co617 Co 1.06029 0.99740 0.50693
 Co618 Co 0.95585 1.00023 0.50626
 Co619 Co 1.00871 0.99930 0.46620
 Co620 Co 1.00726 0.99632 0.54697
 O621 O 1.00804 0.99829 0.50659
 C622 C 1.05699 0.95031 0.54019
 C623 C 0.95670 0.95562 0.47048
 C624 C 1.05477 0.95582 0.46583
 C625 C 0.95854 0.95645 0.54611
 O626 O 0.56894 0.52068 -0.02155
 O627 O 0.43754 0.51962 0.02581
 O628 O 0.47465 0.55081 -0.02351
 O629 O 0.53390 0.54999 0.04570
 O630 O 0.43850 0.51589 -0.01950
 O631 O 0.57129 0.52460 0.02473
 O632 O 0.47435 0.55268 0.03821
 O633 O 0.53066 0.55333 -0.02726
 C634 C 0.55948 0.54807 -0.02800
 C635 C 0.44577 0.54708 0.03402
 C636 C 0.44637 0.54389 -0.02563
 C637 C 0.56225 0.54715 0.03910
 O638 O 0.55657 0.46353 0.02883
 O639 O 0.46753 0.45705 -0.01618
 O640 O 0.53206 0.49223 -0.04698
 O641 O 0.46999 0.49362 0.05629
 O642 O 0.46296 0.45835 0.02806
 O643 O 0.54778 0.45988 -0.01791
 O644 O 0.52856 0.48856 0.05793
 O645 O 0.47531 0.49052 -0.04568
 Co646 Co 0.55562 0.49327 0.00347
 Co647 Co 0.45605 0.48936 0.00462
 Co648 Co 0.50312 0.52042 -0.03253
 Co649 Co 0.50182 0.51979 0.04515
 O650 O 0.50463 0.50544 0.00543
 C651 C 0.54694 0.46595 0.05095
 C652 C 0.46960 0.46221 -0.03886
 C653 C 0.54225 0.46488 -0.04040
 C654 C 0.46305 0.46535 0.05052
 C655 C 0.32973 1.20311 0.15691
 C656 C 0.34836 1.18804 0.13856
 C657 C 0.35909 1.15622 0.14177
 C658 C 0.35149 1.13990 0.16406
 C659 C 0.33344 1.15532 0.18277
 C660 C 0.32216 1.18699 0.17925
 C661 C 0.37904 1.14134 0.12192
 C662 C 0.37730 1.10999 0.11553
 C663 C 0.39583 1.09622 0.09434
 C664 C 0.38213 1.07221 0.07915
 C665 C 0.39877 1.05953 0.05858
 C666 C 0.42979 1.07000 0.05321
 C667 C 0.44385 1.09334 0.06886
 C668 C 0.42699 1.10649 0.08912
 H669 H 0.32169 1.22767 0.15379
 H670 H 0.35415 1.20118 0.12165
 H671 H 0.36002 1.11555 0.16724
 H672 H 0.32804 1.14241 0.19986
 H673 H 0.39379 1.15737 0.11089
 H674 H 0.36007 1.09461 0.12471
 H675 H 0.35827 1.06372 0.08294
 H676 H 0.38748 1.04133 0.04698
 H677 H 0.46775 1.10173 0.06526
 H678 H 0.43847 1.12442 0.10085
 C679 C 0.79707 0.68546 0.64436
 C680 C 0.81273 0.66925 0.62491
 C681 C 0.82259 0.63708 0.62772
 C682 C 0.81600 0.62111 0.65034
 C683 C 0.80093 0.63763 0.67014
 C684 C 0.79167 0.67017 0.66745
 C685 C 0.84300 0.62253 0.60803
 C686 C 0.84306 0.59106 0.60179
 C687 C 0.86627 0.57812 0.58333
 C688 C 0.85691 0.55587 0.56477
 C689 C 0.87891 0.54464 0.54685
 C690 C 0.91080 0.55469 0.54779
 C691 C 0.92014 0.57618 0.56692
 C692 C 0.89816 0.58789 0.58432
 H693 H 0.79045 0.71051 0.64164
 H694 H 0.81781 0.68214 0.60774
 H695 H 0.82391 0.59647 0.65320
 H696 H 0.79715 0.62520 0.68769
 H697 H 0.85854 0.63882 0.59792
 H698 H 0.82563 0.57486 0.60980
 H699 H 0.83247 0.54783 0.56379
 H700 H 0.87104 0.52813 0.53234
 H701 H 0.94450 0.58441 0.56829
 H702 H 0.90620 0.60446 0.59875
 C703 C 0.65444 0.84034 0.18194
 C704 C 0.63308 0.85433 0.16527
 C705 C 0.63879 0.85323 0.13944
 C706 C 0.66612 0.83709 0.13049
 C707 C 0.68748 0.82279 0.14722
 C708 C 0.68195 0.82439 0.17317
 C709 C 0.61563 0.86901 0.12258
 C710 C 0.62408 0.88196 0.10065
 C711 C 0.60208 0.90046 0.08451
 C712 C 0.61525 0.92283 0.06787
 C713 C 0.59596 0.94012 0.05156
 C714 C 0.56291 0.93523 0.05123
 C715 C 0.54942 0.91323 0.06813
 C716 C 0.56886 0.89588 0.08463
 H717 H 0.64912 0.84181 0.20177
 H718 H 0.61214 0.86642 0.17262
 H719 H 0.67080 0.83498 0.11061
 H720 H 0.70819 0.81038 0.13983
 H721 H 0.59166 0.87243 0.12953
 H722 H 0.64881 0.88111 0.09499
 H723 H 0.64069 0.92686 0.06739
 H724 H 0.60711 0.95699 0.03883
 H725 H 0.52405 0.90882 0.06811
 H726 H 0.55790 0.87832 0.09685
 C727 C 1.17395 0.36913 0.68573
 C728 C 1.15523 0.38738 0.66952
 C729 C 1.15575 0.38138 0.64366
 C730 C 1.17549 0.35654 0.63427
 C731 C 1.19424 0.33819 0.65052
 C732 C 1.19352 0.34413 0.67648
 C733 C 1.13393 0.40012 0.62748
 C734 C 1.13835 0.40398 0.60280
 C735 C 1.11539 0.42098 0.58641
 C736 C 1.12592 0.43241 0.56313
 C737 C 1.10459 0.44626 0.54627
 C738 C 1.07215 0.44872 0.55227
 C739 C 1.06164 0.43802 0.57578
 C740 C 1.08296 0.42413 0.59264
 H741 H 1.17269 0.37442 0.70560
 H742 H 1.14008 0.40617 0.67727
 H743 H 1.17587 0.35048 0.61454
 H744 H 1.20883 0.31896 0.64277
 H745 H 1.11395 0.41181 0.63658
 H746 H 1.15990 0.39493 0.59413
 H747 H 1.15069 0.43016 0.55780
 H748 H 1.11338 0.45434 0.52828
 H749 H 1.03673 0.43942 0.58084
 H750 H 1.07360 0.41483 0.61004
 C751 C 0.64931 1.15988 -0.18835
 C752 C 0.63064 1.14381 -0.17077
 C753 C 0.63322 1.15109 -0.14521
 C754 C 0.65484 1.17516 -0.13752
 C755 C 0.67346 1.19147 -0.15519
 C756 C 0.67086 1.18407 -0.18085
 C757 C 0.61226 1.13375 -0.12742
 C758 C 0.61975 1.12882 -0.10337
 C759 C 0.59956 1.10989 -0.08602
 C760 C 0.61409 1.09455 -0.06569
 C761 C 0.59606 1.07689 -0.04861
 C762 C 0.56290 1.07455 -0.05123
 C763 C 0.54822 1.08988 -0.07157
 C764 C 0.56635 1.10744 -0.08881
 H765 H 0.64642 1.15359 -0.20793
 H766 H 0.61408 1.12554 -0.17720
 H767 H 0.65688 1.18203 -0.11801
 H768 H 0.68955 1.21017 -0.14878
 H769 H 0.59094 1.12284 -0.13498
 H770 H 0.64253 1.13702 -0.09642
 H771 H 0.63957 1.09615 -0.06304
 H772 H 0.60810 1.06543 -0.03309
 H773 H 0.52275 1.08850 -0.07404
 H774 H 0.55418 1.11961 -0.10391
 C775 C 1.14788 0.65789 0.31563
 C776 C 1.12698 0.64518 0.33345
 C777 C 1.12899 0.65459 0.35870
 C778 C 1.15213 0.67743 0.36573
 C779 C 1.17304 0.69008 0.34796
 C780 C 1.17118 0.68052 0.32267
 C781 C 1.10662 0.64029 0.37710
 C782 C 1.11367 0.63730 0.40145
 C783 C 1.09346 0.61951 0.41940
 C784 C 1.10848 0.60283 0.43886
 C785 C 1.09081 0.58406 0.45539
 C786 C 1.05769 0.58233 0.45324
 C787 C 1.04223 0.60005 0.43455
 C788 C 1.06005 0.61846 0.41756
 H789 H 1.14553 0.65021 0.29629
 H790 H 1.10926 0.62779 0.32751
 H791 H 1.15382 0.68616 0.38481
 H792 H 1.19026 0.70790 0.35402
 H793 H 1.08495 0.62957 0.36998
 H794 H 1.13671 0.64505 0.40814
 H795 H 1.13410 0.60343 0.44076
 H796 H 1.10308 0.57043 0.46972
 H797 H 1.01668 0.59871 0.43255
 H798 H 1.04775 0.63167 0.40306
 C799 C 0.31675 0.85233 -0.17816
 C800 C 0.33142 0.87215 -0.16034
 C801 C 0.34030 0.85971 -0.13700
 C802 C 0.33313 0.82732 -0.13139
 C803 C 0.31775 0.80765 -0.14903
 C804 C 0.30982 0.81987 -0.17272
 C805 C 0.35649 0.88121 -0.11881
 C806 C 0.37989 0.87079 -0.10389
 C807 C 0.39732 0.89245 -0.08651
 C808 C 0.42937 0.88594 -0.08133
 C809 C 0.44627 0.90526 -0.06442
 C810 C 0.43120 0.93103 -0.05185
 C811 C 0.39910 0.93758 -0.05701
 C812 C 0.38234 0.91860 -0.07427
 H813 H 0.31067 0.86247 -0.19620
 H814 H 0.33645 0.89710 -0.16498
 H815 H 0.33910 0.81729 -0.11330
 H816 H 0.31268 0.78273 -0.14435
 H817 H 0.35063 0.90673 -0.11916
 H818 H 0.38796 0.84596 -0.10553
 H819 H 0.44136 0.86584 -0.09042
 H820 H 0.47093 0.89950 -0.06069
 H821 H 0.38689 0.95724 -0.04753
 H822 H 0.35747 0.92384 -0.07745
 C823 C 0.83463 0.34269 0.32321
 C824 C 0.85291 0.35977 0.34051
 C825 C 0.85875 0.34716 0.36437
 C826 C 0.84520 0.31722 0.37087
 C827 C 0.82650 0.30018 0.35356
 C828 C 0.82125 0.31266 0.32946
 C829 C 0.87805 0.36683 0.38190
 C830 C 0.89456 0.35488 0.40125
 C831 C 0.91364 0.37594 0.41805
 C832 C 0.91802 0.36698 0.44314
 C833 C 0.93333 0.38788 0.45994
 C834 C 0.94458 0.41806 0.45185
 C835 C 0.94212 0.42603 0.42641
 C836 C 0.92706 0.40513 0.40964
 H837 H 0.83089 0.35317 0.30490
 H838 H 0.86280 0.38289 0.33510
 H839 H 0.84849 0.30714 0.38934
 H840 H 0.81646 0.27712 0.35893
 H841 H 0.87894 0.39252 0.37818
 H842 H 0.89339 0.32935 0.40551
 H843 H 0.90845 0.34437 0.44997
 H844 H 0.93512 0.38104 0.47945
 H845 H 0.95122 0.44883 0.41956
 H846 H 0.92570 0.41215 0.39019
 C847 C 1.15649 0.34347 0.17996
 C848 C 1.14024 0.36039 0.16145
 C849 C 1.14889 0.35748 0.13612
 C850 C 1.17461 0.33710 0.12975
 C851 C 1.19097 0.31998 0.14842
 C852 C 1.18208 0.32299 0.17378
 C853 C 1.13033 0.37667 0.11767
 C854 C 1.13288 0.37481 0.09258
 C855 C 1.11206 0.39417 0.07577
 C856 C 1.10406 0.38208 0.05192
 C857 C 1.08200 0.39840 0.03683
 C858 C 1.06758 0.42710 0.04541
 C859 C 1.07714 0.44020 0.06851
 C860 C 1.09932 0.42418 0.08337
 H861 H 1.14882 0.34650 0.19921
 H862 H 1.12066 0.37589 0.16704
 H863 H 1.18240 0.33436 0.11055
 H864 H 1.21066 0.30453 0.14299
 H865 H 1.11239 0.39254 0.12556
 H866 H 1.14883 0.35746 0.08400
 H867 H 1.11392 0.35932 0.04539
 H868 H 1.07518 0.38783 0.01903
 H869 H 1.06693 0.46265 0.07536
 H870 H 1.10606 0.43526 0.10098
 C871 C 0.67600 0.86715 0.68865
 C872 C 0.65745 0.88677 0.67335
 C873 C 0.65203 0.87830 0.64830
 C874 C 0.66628 0.84994 0.63863
 C875 C 0.68488 0.83015 0.65403
 C876 C 0.68941 0.83822 0.67938
 C877 C 0.62952 0.89831 0.63365
 C878 C 0.62947 0.89945 0.60860
 C879 C 0.60566 0.91776 0.59387
 C880 C 0.61312 0.92560 0.56905
 C881 C 0.59038 0.93954 0.55350
 C882 C 0.55944 0.94572 0.56233
 C883 C 0.55223 0.93929 0.58749
 C884 C 0.57508 0.92529 0.60314
 H885 H 0.67906 0.87432 0.70804
 H886 H 0.64677 0.90840 0.68128
 H887 H 0.66204 0.84215 0.61955
 H888 H 0.69463 0.80794 0.64636
 H889 H 0.61293 0.91320 0.64412
 H890 H 0.64794 0.88692 0.59823
 H891 H 0.63641 0.92011 0.56143
 H892 H 0.59674 0.94437 0.53420
 H893 H 0.52853 0.94363 0.59474
 H894 H 0.56812 0.91902 0.62200
 C895 C 1.16696 0.64281 -0.18037
 C896 C 1.15073 0.62486 -0.16245
 C897 C 1.15473 0.63097 -0.13682
 C898 C 1.17581 0.65566 -0.12942
 C899 C 1.19219 0.67390 -0.14744
 C900 C 1.18791 0.66793 -0.17334
 C901 C 1.13546 0.61136 -0.11913
 C902 C 1.13821 0.61116 -0.09405
 C903 C 1.11687 0.59125 -0.07809
 C904 C 1.10881 0.60204 -0.05388
 C905 C 1.08611 0.58544 -0.03959
 C906 C 1.07114 0.55775 -0.04935
 C907 C 1.08079 0.54579 -0.07282
 C908 C 1.10359 0.56211 -0.08692
 H909 H 1.16265 0.63687 -0.19987
 H910 H 1.13473 0.60602 -0.16880
 H911 H 1.17949 0.66143 -0.10988
 H912 H 1.20798 0.69283 -0.14095
 H913 H 1.11727 0.59645 -0.12762
 H914 H 1.15505 0.62687 -0.08478
 H915 H 1.11909 0.62408 -0.04644
 H916 H 1.07923 0.59510 -0.02147
 H917 H 1.07014 0.52410 -0.08058
 H918 H 1.11037 0.55201 -0.10490
 C919 C 0.70215 1.16258 0.35487
 C920 C 0.68738 1.14236 0.37234
 C921 C 0.66053 1.12400 0.36570
 C922 C 0.64866 1.12647 0.34119
 C923 C 0.66347 1.14639 0.32378
 C924 C 0.69030 1.16480 0.33037
 C925 C 0.64401 1.10489 0.38524
 C926 C 0.62193 1.08226 0.38026
 C927 C 0.60118 1.06749 0.39960
 C928 C 0.58273 1.04030 0.39324
 C929 C 0.56063 1.02762 0.41023
 C930 C 0.55661 1.04199 0.43392
 C931 C 0.57546 1.06881 0.44037
 C932 C 0.59723 1.08154 0.42345
 H933 H 0.72277 1.17643 0.36053
 H934 H 0.69678 1.14128 0.39119
 H935 H 0.62739 1.11394 0.33538
 H936 H 0.65338 1.14775 0.30517
 H937 H 0.65012 1.11042 0.40444
 H938 H 0.61805 1.07450 0.36114
 H939 H 0.58503 1.02917 0.37490
 H940 H 0.54652 1.00687 0.40475
 H941 H 0.57281 1.08070 0.45839
 H942 H 0.60990 1.10309 0.42904
 C943 C 0.83031 0.71430 0.13934
 C944 C 0.84328 0.69775 0.11880
 C945 C 0.85825 0.66777 0.12201
 C946 C 0.86142 0.65536 0.14640
 C947 C 0.84886 0.67215 0.16703
 C948 C 0.83270 0.70157 0.16369
 C949 C 0.87125 0.65042 0.09982
 C950 C 0.87135 0.61804 0.09823
 C951 C 0.88776 0.59914 0.07830
 C952 C 0.89667 0.56736 0.08396
 C953 C 0.91561 0.54953 0.06751
 C954 C 0.92555 0.56264 0.04460
 C955 C 0.91476 0.59356 0.03787
 C956 C 0.89610 0.61183 0.05468
 H957 H 0.81816 0.73701 0.13611
 H958 H 0.84096 0.70802 0.10027
 H959 H 0.87380 0.63280 0.14963
 H960 H 0.85114 0.66170 0.18550
 H961 H 0.88094 0.66481 0.08478
 H962 H 0.86079 0.60439 0.11339
 H963 H 0.89043 0.55683 0.10185
 H964 H 0.92388 0.52596 0.07335
 H965 H 0.92228 0.60432 0.02039
 H966 H 0.88893 0.63594 0.04932
 C967 C 0.33729 1.16796 0.66430
 C968 C 0.35176 1.15291 0.64373
 C969 C 0.35119 1.16759 0.62002
 C970 C 0.33607 1.19755 0.61728
 C971 C 0.32115 1.21236 0.63774
 C972 C 0.32178 1.19782 0.66151
 C973 C 0.36744 1.15276 0.59825
 C974 C 0.36824 1.12069 0.59482
 C975 C 0.38654 1.10445 0.57469
 C976 C 0.37801 1.07287 0.56791
 C977 C 0.39730 1.05466 0.55192
 C978 C 0.42584 1.06754 0.54260
 C979 C 0.43355 1.09982 0.54818
 C980 C 0.41409 1.11816 0.56415
 H981 H 0.33829 1.15625 0.68238
 H982 H 0.36401 1.13018 0.64655
 H983 H 0.33565 1.20941 0.59924
 H984 H 0.30966 1.23554 0.63503
 H985 H 0.37803 1.16866 0.58452
 H986 H 0.35479 1.10540 0.60740
 H987 H 0.35693 1.06179 0.57578
 H988 H 0.39064 1.02987 0.54790
 H989 H 0.45547 1.11031 0.54136
 H990 H 0.42174 1.14225 0.56931
 C991 C 0.82081 0.35766 -0.18658
 C992 C 0.83831 0.37410 -0.16831
 C993 C 0.83450 0.36720 -0.14273
 C994 C 0.81200 0.34360 -0.13585
 C995 C 0.79440 0.32704 -0.15423
 C996 C 0.79883 0.33362 -0.17989
 C997 C 0.85527 0.38480 -0.12453
 C998 C 0.85433 0.38228 -0.09937
 C999 C 0.87689 0.39990 -0.08254
 C1000 C 0.88343 0.38772 -0.05850
 C1001 C 0.90629 0.40249 -0.04303
 C1002 C 0.92307 0.42974 -0.05139
 C1003 C 0.91527 0.44290 -0.07481
 C1004 C 0.89232 0.42847 -0.09005
 H1005 H 0.82494 0.36353 -0.20606
 H1006 H 0.85529 0.39215 -0.17432
 H1007 H 0.80811 0.33733 -0.11647
 H1008 H 0.77771 0.30867 -0.14833
 H1009 H 0.87315 0.40019 -0.13281
 H1010 H 0.83774 0.36589 -0.09063
 H1011 H 0.87158 0.36609 -0.05199
 H1012 H 0.91174 0.39184 -0.02506
 H1013 H 0.92740 0.46422 -0.08161
 H1014 H 0.88699 0.43982 -0.10774
 C1015 C 0.32930 0.84168 0.32650
 C1016 C 0.34528 0.85650 0.34641
 C1017 C 0.34555 0.84235 0.37027
 C1018 C 0.32898 0.81329 0.37399
 C1019 C 0.31255 0.79872 0.35417
 C1020 C 0.31260 0.81270 0.33017
 C1021 C 0.36193 0.85946 0.39096
 C1022 C 0.37516 0.84464 0.41071
 C1023 C 0.39260 0.86333 0.43002
 C1024 C 0.42142 0.85156 0.43965
 C1025 C 0.44053 0.87137 0.45481
 C1026 C 0.43079 0.90305 0.46072
 C1027 C 0.40050 0.91343 0.45308
 C1028 C 0.38164 0.89383 0.43788
 H1029 H 0.32969 0.85314 0.30831
 H1030 H 0.35765 0.87905 0.34314
 H1031 H 0.32810 0.80216 0.39228
 H1032 H 0.29993 0.77636 0.35762
 H1033 H 0.36477 0.88539 0.38904
 H1034 H 0.37562 0.81848 0.41162
 H1035 H 0.43007 0.82787 0.43413
 H1036 H 0.46373 0.86272 0.46045
 H1037 H 0.39208 0.93753 0.45766
 H1038 H 0.35897 0.90305 0.43150
 C1039 C 1.15760 1.15869 0.32463
 C1040 C 1.14099 1.14207 0.34317
 C1041 C 1.14306 1.15144 0.36846
 C1042 C 1.16217 1.17819 0.37477
 C1043 C 1.17894 1.19480 0.35616
 C1044 C 1.17687 1.18521 0.33086
 C1045 C 1.12452 1.13258 0.38706
 C1046 C 1.12490 1.13693 0.41206
 C1047 C 1.10583 1.11620 0.42905
 C1048 C 1.11680 1.10956 0.45337
 C1049 C 1.10079 1.08724 0.46859
 C1050 C 1.07364 1.07129 0.45959
 C1051 C 1.06163 1.07961 0.43598
 C1052 C 1.07720 1.10210 0.42105
 H1053 H 1.15542 1.15057 0.30538
 H1054 H 1.12642 1.12166 0.33766
 H1055 H 1.16428 1.18661 0.39388
 H1056 H 1.19342 1.21528 0.36161
 H1057 H 1.11028 1.11310 0.37944
 H1058 H 1.14058 1.15449 0.42054
 H1059 H 1.13849 1.12057 0.46016
 H1060 H 1.11048 1.08130 0.48677
 H1061 H 1.04056 1.06796 0.42866
 H1062 H 1.06699 1.10783 0.40303
 C1063 C 0.64042 0.67950 -0.17315
 C1064 C 0.62428 0.66445 -0.15349
 C1065 C 0.63804 0.66247 -0.12961
 C1066 C 0.66778 0.67688 -0.12546
 C1067 C 0.68379 0.69212 -0.14502
 C1068 C 0.67048 0.69331 -0.16917
 C1069 C 0.62057 0.64568 -0.10946
 C1070 C 0.63498 0.63083 -0.09028
 C1071 C 0.61694 0.61201 -0.07159
 C1072 C 0.63034 0.58379 -0.06158
 C1073 C 0.61228 0.56359 -0.04616
 C1074 C 0.58065 0.57160 -0.04033
 C1075 C 0.56817 0.60114 -0.04880
 C1076 C 0.58611 0.62114 -0.06426
 H1077 H 0.62942 0.68015 -0.19146
 H1078 H 0.60121 0.65380 -0.15705
 H1079 H 0.67863 0.67669 -0.10711
 H1080 H 0.70685 0.70264 -0.14121
 H1081 H 0.59506 0.64349 -0.11158
 H1082 H 0.66067 0.62986 -0.08947
 H1083 H 0.65427 0.57657 -0.06668
 H1084 H 0.62256 0.54108 -0.03976
 H1085 H 0.54402 0.60823 -0.04430
 H1086 H 0.57557 0.64341 -0.07088
 C1087 C 0.80539 1.19331 0.64094
 C1088 C 0.82303 1.17817 0.62202
 C1089 C 0.85117 1.16159 0.62764
 C1090 C 0.86111 1.16004 0.65280
 C1091 C 0.84332 1.17502 0.67181
 C1092 C 0.81522 1.19183 0.66611
 C1093 C 0.86823 1.14447 0.60711
 C1094 C 0.89940 1.13783 0.60784
 C1095 C 0.91580 1.11678 0.58928
 C1096 C 0.94258 1.09958 0.59728
 C1097 C 0.95712 1.07692 0.58159
 C1098 C 0.94568 1.07135 0.55724
 C1099 C 0.92009 1.08995 0.54851
 C1100 C 0.90512 1.11244 0.56445
 H1101 H 0.78378 1.20587 0.63580
 H1102 H 0.81463 1.17940 0.60287
 H1103 H 0.88209 1.14654 0.65803
 H1104 H 0.85149 1.17324 0.69098
 H1105 H 0.85425 1.13658 0.59123
 H1106 H 0.91324 1.14605 0.62371
 H1107 H 0.95151 1.10265 0.61617
 H1108 H 0.97687 1.06301 0.58885
 H1109 H 0.91088 1.08621 0.52979
 H1110 H 0.88512 1.12604 0.55736
 C1111 C 0.34669 0.66543 0.17466
 C1112 C 0.36381 0.65126 0.15502
 C1113 C 0.35276 0.65324 0.13029
 C1114 C 0.32446 0.67007 0.12541
 C1115 C 0.30751 0.68452 0.14498
 C1116 C 0.31844 0.68236 0.16982
 C1117 C 0.37194 0.63851 0.11007
 C1118 C 0.35966 0.62740 0.08852
 C1119 C 0.37988 0.61027 0.07015
 C1120 C 0.36884 0.58181 0.05874
 C1121 C 0.38977 0.56204 0.04516
 C1122 C 0.42188 0.57079 0.04269
 C1123 C 0.43191 0.60100 0.05188
 C1124 C 0.41110 0.62056 0.06551
 H1125 H 0.35581 0.66353 0.19355
 H1126 H 0.38572 0.63858 0.15917
 H1127 H 0.31571 0.67274 0.10649
 H1128 H 0.28583 0.69746 0.14061
 H1129 H 0.39698 0.63471 0.11384
 H1130 H 0.33422 0.62767 0.08554
 H1131 H 0.34465 0.57377 0.06181
 H1132 H 0.38133 0.53904 0.03803
 H1133 H 0.45636 0.60872 0.04982
 H1134 H 0.41983 0.64304 0.07337
 C1135 C 1.15477 0.82151 0.68027
 C1136 C 1.13744 0.83812 0.66237
 C1137 C 1.14434 0.83472 0.63687
 C1138 C 1.16902 0.81362 0.62949
 C1139 C 1.18673 0.79676 0.64757
 C1140 C 1.18013 0.80075 0.67340
 C1141 C 1.12569 0.85505 0.61945
 C1142 C 1.12383 0.85132 0.59452
 C1143 C 1.10415 0.87363 0.57926
 C1144 C 1.11402 0.88199 0.55501
 C1145 C 1.09783 0.90598 0.54163
 C1146 C 1.07154 0.92195 0.55237
 C1147 C 1.06040 0.91198 0.57586
 C1148 C 1.07626 0.88784 0.58903
 H1149 H 1.14819 0.82554 0.69968
 H1150 H 1.11853 0.85408 0.66865
 H1151 H 1.17527 0.81060 0.60995
 H1152 H 1.20584 0.78109 0.64126
 H1153 H 1.11252 0.87470 0.62809
 H1154 H 1.13773 0.83296 0.58501
 H1155 H 1.13507 0.87101 0.54689
 H1156 H 1.10673 0.91303 0.52341
 H1157 H 1.03972 0.92333 0.58429
 H1158 H 1.06692 0.88081 0.60710
 C1159 C 0.65370 0.34649 0.19580
 C1160 C 0.63499 0.36569 0.18044
 C1161 C 0.63217 0.35854 0.15492
 C1162 C 0.64900 0.33196 0.14484
 C1163 C 0.66807 0.31276 0.16027
 C1164 C 0.67049 0.31980 0.18595
 C1165 C 0.61293 0.38055 0.13942
 C1166 C 0.59878 0.37141 0.11816
 C1167 C 0.58237 0.39469 0.10179
 C1168 C 0.58346 0.38934 0.07592
 C1169 C 0.57128 0.41229 0.05956
 C1170 C 0.55728 0.44093 0.06876
 C1171 C 0.55434 0.44544 0.09473
 C1172 C 0.56687 0.42250 0.11117
 H1173 H 0.65521 0.35288 0.21547
 H1174 H 0.62258 0.38623 0.18855
 H1175 H 0.64815 0.32639 0.12503
 H1176 H 0.68086 0.29249 0.15214
 H1177 H 0.61064 0.40531 0.14590
 H1178 H 0.60119 0.34673 0.11151
 H1179 H 0.59489 0.36792 0.06831
 H1180 H 0.57334 0.40778 0.03961
 H1181 H 0.54318 0.46702 0.10230
 H1182 H 0.56461 0.42672 0.13112
 C1183 C 0.84226 0.85813 0.32189
 C1184 C 0.85988 0.87318 0.34070
 C1185 C 0.86128 0.86014 0.36489
 C1186 C 0.84413 0.83167 0.36997
 C1187 C 0.82630 0.81662 0.35108
 C1188 C 0.82544 0.82952 0.32675
 C1189 C 0.88187 0.87671 0.38350
 C1190 C 0.88339 0.86994 0.40806
 C1191 C 0.90446 0.88849 0.42514
 C1192 C 0.89510 0.89420 0.45006
 C1193 C 0.91296 0.91475 0.46554
 C1194 C 0.94047 0.92978 0.45626
 C1195 C 0.95098 0.92216 0.43196
 C1196 C 0.93337 0.90154 0.41665
 H1197 H 0.84210 0.86886 0.30343
 H1198 H 0.87280 0.89504 0.33618
 H1199 H 0.84482 0.82048 0.38820
 H1200 H 0.81377 0.79447 0.35541
 H1201 H 0.89606 0.89650 0.37643
 H1202 H 0.86769 0.85222 0.41625
 H1203 H 0.87321 0.88396 0.45717
 H1204 H 0.90443 0.92010 0.48428
 H1205 H 0.97245 0.93290 0.42450
 H1206 H 0.94218 0.89640 0.39798
 C1207 C 0.36720 0.35446 -0.18934
 C1208 C 0.38687 0.37067 -0.17262
 C1209 C 0.38882 0.36088 -0.14764
 C1210 C 0.37050 0.33444 -0.13953
 C1211 C 0.35043 0.31826 -0.15632
 C1212 C 0.34855 0.32821 -0.18141
 C1213 C 0.40834 0.38062 -0.13053
 C1214 C 0.42154 0.36953 -0.10947
 C1215 C 0.43842 0.39130 -0.09195
 C1216 C 0.43728 0.38466 -0.06626
 C1217 C 0.44883 0.40713 -0.04893
 C1218 C 0.46174 0.43660 -0.05708
 C1219 C 0.46513 0.44213 -0.08283
 C1220 C 0.45388 0.41955 -0.10014
 H1221 H 0.36629 0.36297 -0.20848
 H1222 H 0.40052 0.39114 -0.17922
 H1223 H 0.37083 0.32684 -0.12017
 H1224 H 0.33630 0.29818 -0.14967
 H1225 H 0.41150 0.40570 -0.13566
 H1226 H 0.41803 0.34461 -0.10399
 H1227 H 0.42600 0.36282 -0.05953
 H1228 H 0.44631 0.40204 -0.02914
 H1229 H 0.47569 0.46431 -0.08960
 H1230 H 0.45668 0.42469 -0.11987
 C1231 C 1.21918 0.33486 -0.14780
 C1232 C 1.20287 0.35026 -0.12815
 C1233 C 1.17107 0.35974 -0.13113
 C1234 C 1.15608 0.35442 -0.15427
 C1235 C 1.17248 0.33969 -0.17399
 C1236 C 1.20413 0.32962 -0.17096
 C1237 C 1.15399 0.37623 -0.11046
 C1238 C 1.12321 0.37042 -0.10596
 C1239 C 1.10398 0.38854 -0.08740
 C1240 C 1.07763 0.37326 -0.07659
 C1241 C 1.05661 0.39059 -0.06132
 C1242 C 1.06114 0.42382 -0.05703
 C1243 C 1.08796 0.43903 -0.06734
 C1244 C 1.10932 0.42151 -0.08231
 H1245 H 1.24365 0.32757 -0.14505
 H1246 H 1.21494 0.35447 -0.11053
 H1247 H 1.13182 0.36222 -0.15731
 H1248 H 1.16026 0.33600 -0.19161
 H1249 H 1.16706 0.39288 -0.09862
 H1250 H 1.11138 0.35132 -0.11633
 H1251 H 1.07293 0.34794 -0.08040
 H1252 H 1.03613 0.37824 -0.05366
 H1253 H 1.09199 0.46463 -0.06433
 H1254 H 1.12906 0.43415 -0.09083
 C1255 C 0.64904 0.81370 0.31884
 C1256 C 0.62873 0.82851 0.33605
 C1257 C 0.64026 0.83970 0.35910
 C1258 C 0.67237 0.83410 0.36525
 C1259 C 0.69272 0.81877 0.34804
 C1260 C 0.68134 0.80916 0.32445
 C1261 C 0.61787 0.85709 0.37584
 C1262 C 0.62674 0.87950 0.39263
 C1263 C 0.60338 0.89785 0.40790
 C1264 C 0.61195 0.90815 0.43200
 C1265 C 0.58989 0.92397 0.44738
 C1266 C 0.55893 0.93022 0.43877
 C1267 C 0.55086 0.92148 0.41416
 C1268 C 0.57286 0.90546 0.39885
 H1269 H 0.63951 0.80620 0.30089
 H1270 H 0.60406 0.83214 0.33100
 H1271 H 0.68183 0.84152 0.38320
 H1272 H 0.71751 0.81545 0.35283
 H1273 H 0.59282 0.85220 0.37322
 H1274 H 0.65170 0.88437 0.39570
 H1275 H 0.63546 0.90306 0.43922
 H1276 H 0.59687 0.93072 0.46621
 H1277 H 0.52731 0.92635 0.40694
 H1278 H 0.56589 0.89908 0.37996
 C1279 C 0.79155 0.66086 -0.15411
 C1280 C 0.80655 0.64146 -0.13631
 C1281 C 0.83572 0.62660 -0.14182
 C1282 C 0.84901 0.63023 -0.16583
 C1283 C 0.83367 0.64902 -0.18383
 C1284 C 0.80506 0.66494 -0.17800
 C1285 C 0.85206 0.60771 -0.12227
 C1286 C 0.88348 0.60992 -0.11891
 C1287 C 0.90060 0.59283 -0.09881
 C1288 C 0.92715 0.60774 -0.08800
 C1289 C 0.94515 0.59166 -0.07001
 C1290 C 0.93743 0.55995 -0.06295
 C1291 C 0.91063 0.54503 -0.07357
 C1292 C 0.89219 0.56143 -0.09125
 H1293 H 0.76931 0.67257 -0.14925
 H1294 H 0.79580 0.63874 -0.11798
 H1295 H 0.87121 0.61845 -0.17069
 H1296 H 0.84452 0.65167 -0.20212
 H1297 H 0.83775 0.59394 -0.10925
 H1298 H 0.89704 0.62655 -0.13037
 H1299 H 0.93412 0.63185 -0.09363
 H1300 H 0.96581 0.60367 -0.06227
 H1301 H 0.90425 0.52056 -0.06849
 H1302 H 0.87212 0.54914 -0.09963
 C1303 C 0.31693 1.21016 0.35865
 C1304 C 0.33451 1.19658 0.37823
 C1305 C 0.35363 1.16927 0.37397
 C1306 C 0.35587 1.15656 0.34952
 C1307 C 0.33870 1.17037 0.32990
 C1308 C 0.31872 1.19711 0.33426
 C1309 C 0.37110 1.15435 0.39509
 C1310 C 0.37432 1.12218 0.39675
 C1311 C 0.39190 1.10508 0.41677
 C1312 C 0.41716 1.11914 0.43028
 C1313 C 0.43598 1.10015 0.44623
 C1314 C 0.42987 1.06689 0.44880
 C1315 C 0.40344 1.05357 0.43642
 C1316 C 0.38487 1.07237 0.42057
 H1317 H 0.30201 1.23095 0.36260
 H1318 H 0.33264 1.20698 0.39684
 H1319 H 0.37110 1.13603 0.34549
 H1320 H 0.34080 1.15982 0.31135
 H1321 H 0.37976 1.16988 0.40996
 H1322 H 0.36269 1.10714 0.38284
 H1323 H 0.42352 1.14422 0.42754
 H1324 H 0.45629 1.11102 0.45540
 H1325 H 0.39784 1.02811 0.43813
 H1326 H 0.36552 1.06094 0.41053
 C1327 C 1.19844 0.67387 0.14641
 C1328 C 1.18469 0.65375 0.12826
 C1329 C 1.15422 0.64094 0.13197
 C1330 C 1.13787 0.64813 0.15432
 C1331 C 1.15177 0.66772 0.17261
 C1332 C 1.18218 0.68080 0.16886
 C1333 C 1.13989 0.61979 0.11265
 C1334 C 1.10890 0.62156 0.10733
 C1335 C 1.09320 0.60144 0.08811
 C1336 C 1.06809 0.61511 0.07469
 C1337 C 1.05051 0.59642 0.05800
 C1338 C 1.05708 0.56328 0.05482
 C1339 C 1.08264 0.54953 0.06793
 C1340 C 1.10079 0.56858 0.08436
 H1341 H 1.22213 0.68320 0.14321
 H1342 H 1.19777 0.64834 0.11123
 H1343 H 1.11459 0.63802 0.15794
 H1344 H 1.13881 0.67242 0.18981
 H1345 H 1.15524 0.60398 0.10177
 H1346 H 1.09450 0.63992 0.11650
 H1347 H 1.06177 0.64031 0.07738
 H1348 H 1.03095 0.60778 0.04825
 H1349 H 1.08813 0.52405 0.06586
 H1350 H 1.11979 0.55736 0.09486
 C1351 C 0.68363 1.18081 0.64122
 C1352 C 0.66832 1.16112 0.62356
 C1353 C 0.64422 1.13964 0.63092
 C1354 C 0.63518 1.13887 0.65629
 C1355 C 0.65044 1.15844 0.67388
 C1356 C 0.67495 1.17956 0.66664
 C1357 C 0.62799 1.11976 0.61158
 C1358 C 0.61188 1.09252 0.61672
 C1359 C 0.59315 1.07453 0.59775
 C1360 C 0.56675 1.05646 0.60565
 C1361 C 0.54690 1.04136 0.58818
 C1362 C 0.55330 1.04380 0.56243
 C1363 C 0.58082 1.06021 0.55462
 C1364 C 0.60055 1.07539 0.57207
 H1365 H 0.70237 1.19681 0.63499
 H1366 H 0.67546 1.16252 0.60409
 H1367 H 0.61590 1.12376 0.66270
 H1368 H 0.64279 1.15706 0.69323
 H1369 H 0.62905 1.12848 0.59253
 H1370 H 0.61079 1.08372 0.63574
 H1371 H 0.56082 1.05500 0.62537
 H1372 H 0.52608 1.02858 0.59478
 H1373 H 0.58670 1.06211 0.53492
 H1374 H 0.62141 1.08788 0.56530
 C1375 C 0.81089 0.30047 0.15052
 C1376 C 0.82815 0.31433 0.13096
 C1377 C 0.84841 0.34056 0.13549
 C1378 C 0.85159 0.35236 0.16015
 C1379 C 0.83463 0.33819 0.17982
 C1380 C 0.81400 0.31214 0.17520
 C1381 C 0.86679 0.35414 0.11434
 C1382 C 0.87496 0.38540 0.11318
 C1383 C 0.89367 0.39934 0.09232
 C1384 C 0.89074 0.43249 0.08744
 C1385 C 0.90977 0.44719 0.06934
 C1386 C 0.93262 0.42918 0.05602
 C1387 C 0.93495 0.39576 0.06031
 C1388 C 0.91570 0.38094 0.07832
 H1389 H 0.79546 0.28023 0.14630
 H1390 H 0.82554 0.30463 0.11218
 H1391 H 0.86769 0.37202 0.16439
 H1392 H 0.83768 0.34763 0.19863
 H1393 H 0.87221 0.33819 0.09874
 H1394 H 0.86668 0.40187 0.12765
 H1395 H 0.87395 0.44718 0.09792
 H1396 H 0.90711 0.47286 0.06622
 H1397 H 0.95246 0.38127 0.05042
 H1398 H 0.91912 0.35545 0.08194
 C1399 C 0.31980 0.78837 0.64986
 C1400 C 0.33903 0.79991 0.63057
 C1401 C 0.36115 0.82438 0.63513
 C1402 C 0.36438 0.83670 0.65959
 C1403 C 0.34580 0.82448 0.67923
 C1404 C 0.32291 0.80016 0.67471
 C1405 C 0.38045 0.83653 0.61400
 C1406 C 0.38479 0.86817 0.61032
 C1407 C 0.40102 0.88137 0.58796
 C1408 C 0.39061 0.91106 0.57851
 C1409 C 0.40680 0.92589 0.55888
 C1410 C 0.43441 0.91179 0.54862
 C1411 C 0.44424 0.88138 0.55740
 C1412 C 0.42756 0.86617 0.57685
 H1413 H 0.30284 0.76963 0.64513
 H1414 H 0.33619 0.79008 0.61185
 H1415 H 0.38164 0.85543 0.66359
 H1416 H 0.34927 0.83438 0.69786
 H1417 H 0.38827 0.81936 0.59985
 H1418 H 0.37385 0.88526 0.62320
 H1419 H 0.37019 0.92317 0.58670
 H1420 H 0.39857 0.94934 0.55264
 H1421 H 0.46557 0.87009 0.55004
 H1422 H 0.43634 0.84338 0.58397
 C1423 C 0.32179 1.18286 -0.16054
 C1424 C 0.33441 1.16095 -0.14342
 C1425 C 0.36235 1.14386 -0.14895
 C1426 C 0.37735 1.14879 -0.17223
 C1427 C 0.36421 1.17023 -0.18972
 C1428 C 0.33632 1.18760 -0.18399
 C1429 C 0.37456 1.12065 -0.13021
 C1430 C 0.40557 1.11666 -0.12555
 C1431 C 0.41695 1.09748 -0.10397
 C1432 C 0.44192 1.10965 -0.08942
 C1433 C 0.45177 1.09342 -0.06790
 C1434 C 0.43762 1.06403 -0.06091
 C1435 C 0.41346 1.05106 -0.07606
 C1436 C 0.40294 1.06784 -0.09727
 H1437 H 0.30004 1.19547 -0.15564
 H1438 H 0.32238 1.15748 -0.12567
 H1439 H 0.39870 1.13553 -0.17713
 H1440 H 0.37580 1.17320 -0.20770
 H1441 H 0.35736 1.10914 -0.11803
 H1442 H 0.42281 1.13086 -0.13582
 H1443 H 0.45313 1.13236 -0.09425
 H1444 H 0.47044 1.10402 -0.05660
 H1445 H 0.40219 1.02842 -0.07115
 H1446 H 0.38392 1.05767 -0.10843
 C1447 C 0.82308 0.68404 0.34044
 C1448 C 0.83868 0.66556 0.35838
 C1449 C 0.87128 0.65932 0.35627
 C1450 C 0.88817 0.67175 0.33568
 C1451 C 0.87227 0.68958 0.31720
 C1452 C 0.83954 0.69589 0.31949
 C1453 C 0.88609 0.63760 0.37475
 C1454 C 0.91470 0.64274 0.38496
 C1455 C 0.92709 0.62091 0.40457
 C1456 C 0.94205 0.63367 0.42593
 C1457 C 0.95139 0.61324 0.44550
 C1458 C 0.94661 0.57965 0.44367
 C1459 C 0.93293 0.56691 0.42173
 C1460 C 0.92315 0.58728 0.40249
 H1461 H 0.79780 0.68822 0.34258
 H1462 H 0.82519 0.65595 0.37396
 H1463 H 0.91329 0.66673 0.33348
 H1464 H 0.88546 0.69840 0.30119
 H1465 H 0.87164 0.61785 0.38163
 H1466 H 0.92791 0.66437 0.38033
 H1467 H 0.94554 0.65951 0.42782
 H1468 H 0.96220 0.62368 0.46206
 H1469 H 0.92915 0.54113 0.41961
 H1470 H 0.91233 0.57673 0.38597
 C1471 C 0.68543 1.17674 0.15452
 C1472 C 0.67027 1.15754 0.13658
 C1473 C 0.64188 1.14152 0.14237
 C1474 C 0.62888 1.14487 0.16653
 C1475 C 0.64441 1.16355 0.18468
 C1476 C 0.67290 1.17960 0.17886
 C1477 C 0.62717 1.12052 0.12316
 C1478 C 0.59568 1.11755 0.12062
 C1479 C 0.58167 1.09863 0.09990
 C1480 C 0.55583 1.11146 0.08676
 C1481 C 0.54349 1.09508 0.06602
 C1482 C 0.55608 1.06501 0.05859
 C1483 C 0.58107 1.05145 0.07244
 C1484 C 0.59401 1.06830 0.09279
 H1485 H 0.70752 1.18849 0.14955
 H1486 H 0.68076 1.15515 0.11811
 H1487 H 0.60729 1.13229 0.17164
 H1488 H 0.63429 1.16521 0.20332
 H1489 H 0.64274 1.10907 0.10953
 H1490 H 0.57989 1.13173 0.13241
 H1491 H 0.54591 1.13473 0.09203
 H1492 H 0.52425 1.10606 0.05565
 H1493 H 0.59116 1.02827 0.06712
 H1494 H 0.61363 1.05767 0.10296
 C1495 C 1.19356 0.67281 0.64876
 C1496 C 1.18144 0.65341 0.62956
 C1497 C 1.16491 0.62490 0.63506
 C1498 C 1.16131 0.61578 0.66030
 C1499 C 1.17338 0.63526 0.67955
 C1500 C 1.18961 0.66404 0.67400
 C1501 C 1.15129 0.60597 0.61399
 C1502 C 1.12589 0.58681 0.61659
 C1503 C 1.10823 0.57342 0.59500
 C1504 C 1.07527 0.57025 0.59738
 C1505 C 1.05698 0.56049 0.57705
 C1506 C 1.07128 0.55297 0.55393
 C1507 C 1.10451 0.55433 0.55177
 C1508 C 1.12291 0.56478 0.57215
 H1509 H 1.20607 0.69472 0.64374
 H1510 H 1.18463 0.66098 0.61032
 H1511 H 1.14960 0.59348 0.66534
 H1512 H 1.17042 0.62750 0.69876
 H1513 H 1.16030 0.61083 0.59536
 H1514 H 1.11492 0.58430 0.63483
 H1515 H 1.06345 0.57643 0.61483
 H1516 H 1.03144 0.55902 0.57941
 H1517 H 1.11606 0.54825 0.53421
 H1518 H 1.14845 0.56619 0.56998
 C1519 C 0.69242 0.86222 -0.17420
 C1520 C 0.67745 0.88228 -0.15672
 C1521 C 0.66545 0.86960 -0.13436
 C1522 C 0.67042 0.83657 -0.12911
 C1523 C 0.68589 0.81645 -0.14656
 C1524 C 0.69631 0.82900 -0.16954
 C1525 C 0.64770 0.89165 -0.11735
 C1526 C 0.62387 0.88165 -0.10261
 C1527 C 0.60372 0.90347 -0.08696
 C1528 C 0.57620 0.89050 -0.07607
 C1529 C 0.55715 0.90920 -0.06018
 C1530 C 0.56509 0.94147 -0.05477
 C1531 C 0.59199 0.95499 -0.06625
 C1532 C 0.61127 0.93616 -0.08206
 H1533 H 0.70059 0.87269 -0.19162
 H1534 H 0.67433 0.90765 -0.16108
 H1535 H 0.66232 0.82622 -0.11166
 H1536 H 0.68872 0.79097 -0.14248
 H1537 H 0.65280 0.91716 -0.11894
 H1538 H 0.61763 0.85624 -0.10283
 H1539 H 0.56965 0.86553 -0.07951
 H1540 H 0.53653 0.89810 -0.05162
 H1541 H 0.59887 0.97970 -0.06218
 H1542 H 0.63240 0.94725 -0.08962
 C1543 C 1.14741 0.34517 0.31917
 C1544 C 1.12714 0.36061 0.33612
 C1545 C 1.12336 0.34883 0.36051
 C1546 C 1.14065 0.32124 0.36777
 C1547 C 1.16135 0.30591 0.35081
 C1548 C 1.16491 0.31775 0.32630
 C1549 C 1.10282 0.36747 0.37795
 C1550 C 1.08801 0.35503 0.39800
 C1551 C 1.06869 0.37531 0.41540
 C1552 C 1.06533 0.36585 0.44051
 C1553 C 1.05073 0.38646 0.45802
 C1554 C 1.03938 0.41690 0.45064
 C1555 C 1.04047 0.42525 0.42523
 C1556 C 1.05458 0.40454 0.40772
 H1557 H 1.14967 0.35507 0.30051
 H1558 H 1.11434 0.38196 0.33013
 H1559 H 1.13892 0.31197 0.38664
 H1560 H 1.17450 0.28481 0.35684
 H1561 H 1.09999 0.39286 0.37372
 H1562 H 1.09120 0.32975 0.40255
 H1563 H 1.07540 0.34319 0.44683
 H1564 H 1.05004 0.37945 0.47754
 H1565 H 1.03119 0.44830 0.41901
 H1566 H 1.05491 0.41196 0.38834
 C1567 C 0.32234 0.80513 0.15007
 C1568 C 0.33979 0.82154 0.13184
 C1569 C 0.35777 0.84895 0.13813
 C1570 C 0.35861 0.85917 0.16332
 C1571 C 0.34133 0.84257 0.18165
 C1572 C 0.32278 0.81549 0.17521
 C1573 C 0.37590 0.86541 0.11801
 C1574 C 0.38448 0.89668 0.11887
 C1575 C 0.40122 0.91288 0.09786
 C1576 C 0.39711 0.94628 0.09437
 C1577 C 0.41161 0.96201 0.07418
 C1578 C 0.43080 0.94464 0.05720
 C1579 C 0.43588 0.91147 0.06127
 C1580 C 0.42134 0.89577 0.08137
 H1581 H 0.30856 0.78422 0.14444
 H1582 H 0.33897 0.81293 0.11264
 H1583 H 0.37292 0.87962 0.16903
 H1584 H 0.34234 0.85111 0.20085
 H1585 H 0.38053 0.85152 0.10113
 H1586 H 0.37719 0.91158 0.13461
 H1587 H 0.38208 0.96012 0.10699
 H1588 H 0.40747 0.98765 0.07170
 H1589 H 0.45096 0.89750 0.04877
 H1590 H 0.42611 0.87029 0.08398
 C1591 C 0.81596 0.31113 0.64444
 C1592 C 0.83232 0.32861 0.62616
 C1593 C 0.83649 0.36211 0.62881
 C1594 C 0.82449 0.37789 0.65020
 C1595 C 0.80894 0.36028 0.66881
 C1596 C 0.80455 0.32677 0.66607
 C1597 C 0.85579 0.37958 0.61024
 C1598 C 0.84923 0.40977 0.60284
 C1599 C 0.87087 0.42691 0.58573
 C1600 C 0.85907 0.44283 0.56454
 C1601 C 0.88008 0.45674 0.54728
 C1602 C 0.91303 0.45576 0.55148
 C1603 C 0.92448 0.44140 0.57351
 C1604 C 0.90366 0.42689 0.59033
 H1605 H 0.81296 0.28528 0.64200
 H1606 H 0.84176 0.31598 0.60993
 H1607 H 0.82804 0.40361 0.65293
 H1608 H 0.80021 0.37285 0.68531
 H1609 H 0.87595 0.36692 0.60209
 H1610 H 0.82748 0.42161 0.60880
 H1611 H 0.83378 0.44330 0.56086
 H1612 H 0.87065 0.46757 0.53044
 H1613 H 0.94972 0.44031 0.57737
 H1614 H 0.91319 0.41531 0.60685
 C1615 C 1.20229 1.19901 0.64443
 C1616 C 1.18739 1.18027 0.62605
 C1617 C 1.16226 1.15964 0.63239
 C1618 C 1.15256 1.15770 0.65758
 C1619 C 1.16762 1.17621 0.67599
 C1620 C 1.19268 1.19705 0.66964
 C1621 C 1.14769 1.13932 0.61265
 C1622 C 1.11733 1.12979 0.61370
 C1623 C 1.10251 1.10801 0.59503
 C1624 C 1.06934 1.10827 0.59280
 C1625 C 1.05404 1.08622 0.57710
 C1626 C 1.07159 1.06308 0.56353
 C1627 C 1.10489 1.06327 0.56518
 C1628 C 1.12026 1.08549 0.58085
 H1629 H 1.22176 1.21455 0.63892
 H1630 H 1.19549 1.18190 0.60682
 H1631 H 1.13393 1.14128 0.66326
 H1632 H 1.15980 1.17395 0.69525
 H1633 H 1.16214 1.13310 0.59652
 H1634 H 1.10222 1.13887 0.62863
 H1635 H 1.05514 1.12530 0.60355
 H1636 H 1.02837 1.08685 0.57605
 H1637 H 1.11899 1.04563 0.55498
 H1638 H 1.14583 1.08403 0.58252
 C1639 C 0.72550 0.68506 0.13943
 C1640 C 0.71365 0.66677 0.11940
 C1641 C 0.68652 0.64763 0.12262
 C1642 C 0.67233 0.64573 0.14644
 C1643 C 0.68445 0.66350 0.16651
 C1644 C 0.71079 0.68378 0.16312
 C1645 C 0.67262 0.63019 0.10109
 C1646 C 0.64116 0.63032 0.09764
 C1647 C 0.62425 0.61151 0.07824
 C1648 C 0.59296 0.62058 0.07279
 C1649 C 0.57361 0.60056 0.05844
 C1650 C 0.58507 0.57082 0.04929
 C1651 C 0.61712 0.56270 0.05306
 C1652 C 0.63663 0.58288 0.06757
 H1653 H 0.74617 0.70014 0.13642
 H1654 H 0.72508 0.66827 0.10124
 H1655 H 0.65177 0.63053 0.14951
 H1656 H 0.67278 0.66188 0.18457
 H1657 H 0.68831 0.61844 0.08776
 H1658 H 0.62660 0.64502 0.11008
 H1659 H 0.58292 0.64256 0.08067
 H1660 H 0.54909 0.60764 0.05556
 H1661 H 0.62645 0.53983 0.04628
 H1662 H 0.66056 0.57495 0.07167
 C1663 C 1.15367 0.83894 0.32090
 C1664 C 1.13460 0.85291 0.33940
 C1665 C 1.13805 0.84404 0.36455
 C1666 C 1.16080 0.82052 0.37090
 C1667 C 1.17986 0.80642 0.35236
 C1668 C 1.17647 0.81545 0.32714
 C1669 C 1.11726 0.85971 0.38335
 C1670 C 1.12516 0.86330 0.40749
 C1671 C 1.10599 0.88358 0.42463
 C1672 C 1.12157 0.90248 0.44265
 C1673 C 1.10467 0.92527 0.45675
 C1674 C 1.07181 0.92917 0.45323
 C1675 C 1.05583 0.90857 0.43651
 C1676 C 1.07277 0.88593 0.42231
 H1677 H 1.15024 0.84634 0.30167
 H1678 H 1.11716 0.87089 0.33405
 H1679 H 1.16353 0.81246 0.39002
 H1680 H 1.19692 0.78811 0.35776
 H1681 H 1.09595 0.87137 0.37644
 H1682 H 1.14794 0.85472 0.41411
 H1683 H 1.14709 0.90073 0.44496
 H1684 H 1.11747 0.94050 0.46984
 H1685 H 1.03042 0.91071 0.43376
 H1686 H 1.05996 0.87081 0.40917
 C1687 C 0.64811 0.35655 -0.19112
 C1688 C 0.62994 0.37458 -0.17428
 C1689 C 0.62646 0.36452 -0.14945
 C1690 C 0.64224 0.33632 -0.14148
 C1691 C 0.66080 0.31835 -0.15835
 C1692 C 0.66368 0.32821 -0.18339
 C1693 C 0.60756 0.38509 -0.13234
 C1694 C 0.59252 0.37399 -0.11202
 C1695 C 0.57571 0.39587 -0.09446
 C1696 C 0.57517 0.38807 -0.06897
 C1697 C 0.56309 0.41003 -0.05144
 C1698 C 0.55107 0.44012 -0.05916
 C1699 C 0.54947 0.44693 -0.08484
 C1700 C 0.56154 0.42494 -0.10237
 H1701 H 0.65009 0.36502 -0.21022
 H1702 H 0.61835 0.39642 -0.18074
 H1703 H 0.64085 0.32844 -0.12222
 H1704 H 0.67263 0.29668 -0.15187
 H1705 H 0.60611 0.41053 -0.13692
 H1706 H 0.59418 0.34866 -0.10717
 H1707 H 0.58545 0.36558 -0.06249
 H1708 H 0.56417 0.40389 -0.03176
 H1709 H 0.53977 0.46966 -0.09134
 H1710 H 0.56023 0.43105 -0.12202
 C1711 C 0.80756 1.16771 0.35125
 C1712 C 0.82372 1.15161 0.37014
 C1713 C 0.85293 1.13659 0.36524
 C1714 C 0.86526 1.13700 0.34067
 C1715 C 0.84883 1.15298 0.32156
 C1716 C 0.82003 1.16887 0.32681
 C1717 C 0.86882 1.11993 0.38616
 C1718 C 0.90019 1.11463 0.38731
 C1719 C 0.91524 1.09781 0.40867
 C1720 C 0.94765 1.10277 0.41350
 C1721 C 0.96290 1.08582 0.43264
 C1722 C 0.94598 1.06343 0.44718
 C1723 C 0.91339 1.05915 0.44280
 C1724 C 0.89824 1.07586 0.42364
 H1725 H 0.78521 1.17936 0.35586
 H1726 H 0.81351 1.15125 0.38879
 H1727 H 0.88730 1.12478 0.33610
 H1728 H 0.85887 1.15339 0.30286
 H1729 H 0.85397 1.11355 0.40195
 H1730 H 0.91556 1.12387 0.37272
 H1731 H 0.96130 1.11946 0.40221
 H1732 H 0.98803 1.08963 0.43565
 H1733 H 0.89980 1.04173 0.45346
 H1734 H 0.87353 1.07040 0.42010
 C1735 C 0.29377 0.66741 -0.14491
 C1736 C 0.30548 0.64970 -0.12476
 C1737 C 0.33600 0.63623 -0.12580
 C1738 C 0.35426 0.63974 -0.14776
 C1739 C 0.34225 0.65692 -0.16818
 C1740 C 0.31206 0.67128 -0.16678
 C1741 C 0.34808 0.61829 -0.10394
 C1742 C 0.37842 0.62047 -0.09675
 C1743 C 0.39196 0.60266 -0.07530
 C1744 C 0.41978 0.61462 -0.06430
 C1745 C 0.43606 0.59649 -0.04652
 C1746 C 0.42508 0.56573 -0.03958
 C1747 C 0.39616 0.55451 -0.04938
 C1748 C 0.37971 0.57280 -0.06717
 H1749 H 0.27017 0.67780 -0.14349
 H1750 H 0.29091 0.64698 -0.10815
 H1751 H 0.37763 0.62888 -0.14925
 H1752 H 0.35670 0.65935 -0.18488
 H1753 H 0.33121 0.60480 -0.09278
 H1754 H 0.39413 0.63673 -0.10672
 H1755 H 0.42963 0.63756 -0.07018
 H1756 H 0.45826 0.60583 -0.03923
 H1757 H 0.38729 0.53078 -0.04450
 H1758 H 0.35857 0.56259 -0.07553
 C1759 C 0.82543 0.79013 0.64710
 C1760 C 0.84571 0.80264 0.62874
 C1761 C 0.86313 0.83086 0.63353
 C1762 C 0.86085 0.84584 0.65714
 C1763 C 0.84119 0.83304 0.67558
 C1764 C 0.82309 0.80524 0.67070
 C1765 C 0.88309 0.84519 0.61380
 C1766 C 0.88164 0.87692 0.60945
 C1767 C 0.90115 0.89349 0.59061
 C1768 C 0.88761 0.91948 0.57783
 C1769 C 0.90616 0.93870 0.56232
 C1770 C 0.93894 0.93286 0.55981
 C1771 C 0.95246 0.90614 0.57200
 C1772 C 0.93358 0.88635 0.58719
 H1773 H 0.81201 0.76841 0.64303
 H1774 H 0.84729 0.79073 0.61065
 H1775 H 0.87446 0.86741 0.66135
 H1776 H 0.83994 0.84507 0.69364
 H1777 H 0.89769 0.82958 0.60213
 H1778 H 0.86438 0.89150 0.61960
 H1779 H 0.86269 0.92541 0.58033
 H1780 H 0.89499 0.95907 0.55316
 H1781 H 0.97766 0.90117 0.57037
 H1782 H 0.94460 0.86663 0.59725
 C1783 C 0.31566 0.31613 0.15187
 C1784 C 0.33461 0.33102 0.13376
 C1785 C 0.35609 0.35546 0.14051
 C1786 C 0.35750 0.36551 0.16572
 C1787 C 0.33856 0.35067 0.18381
 C1788 C 0.31759 0.32563 0.17716
 C1789 C 0.37550 0.37081 0.12068
 C1790 C 0.40308 0.38599 0.12521
 C1791 C 0.42078 0.40390 0.10573
 C1792 C 0.43893 0.43076 0.11303
 C1793 C 0.45366 0.45011 0.09509
 C1794 C 0.45090 0.44266 0.06949
 C1795 C 0.43443 0.41462 0.06224
 C1796 C 0.41945 0.39540 0.08019
 H1797 H 0.29975 0.29696 0.14605
 H1798 H 0.33275 0.32315 0.11443
 H1799 H 0.37276 0.38514 0.17158
 H1800 H 0.34046 0.35883 0.20306
 H1801 H 0.36634 0.36972 0.10177
 H1802 H 0.41231 0.38713 0.14409
 H1803 H 0.44070 0.43751 0.13262
 H1804 H 0.46656 0.47138 0.10121
 H1805 H 0.43222 0.40811 0.04264
 H1806 H 0.40669 0.37414 0.07397
   
