data_POSCAR
  _audit_creation_date              2014-09-24
  _audit_creation_method            'ToBaCCo'
  _symmetry_space_group_name_H-M    'P1'
  _symmetry_Int_Tables_number       1
  _symmetry_cell_setting            triclinic
  loop_
  _symmetry_equiv_pos_as_xyz
 x,y,z
_cell_length_a 52.6705
_cell_length_b 51.9346
_cell_length_c 51.3222
_cell_angle_alpha 89.550100
_cell_angle_beta 91.198500
_cell_angle_gamma 89.105400
loop_
  _atom_site_label
  _atom_site_type_symbol
  _atom_site_fract_x
  _atom_site_fract_y
  _atom_site_fract_z
C1 C 0.38226 -0.00628 0.24996
 C2 C 0.12086 0.01181 0.74856
 C3 C 0.62198 0.50446 0.25464
 C4 C 0.87593 0.50740 0.74889
 C5 C 0.25085 0.36886 0.99973
 C6 C 0.74118 0.12939 1.00424
 C7 C 0.25994 0.62343 0.50056
 C8 C 0.75626 0.86744 0.49513
 C9 C 0.00276 0.24817 0.36696
 C10 C -0.00122 0.74623 0.12240
 C11 C 0.49812 0.24269 0.62304
 C12 C 0.49564 0.75179 0.86116
 C13 C -0.25404 0.60817 0.99812
 C14 C -0.23639 0.38466 0.50321
 C15 C 0.24568 -0.11602 -0.00265
 C16 C 0.25288 1.11215 0.50173
 C17 C 0.12975 0.49805 0.25521
 C18 C -0.13253 0.99747 0.24303
 C19 C 0.36991 0.50785 -0.24990
 C20 C 0.63408 0.00700 -0.24346
 C21 C 0.00371 0.24774 0.86557
 C22 C 0.49940 0.24944 0.12047
 C23 C -0.01088 0.74560 0.62519
 C24 C 0.50355 0.74654 0.36871
 Zr25 Zr 0.00664 -0.02819 1.02865
 O26 O 0.02950 -0.02197 1.06241
 O27 O -0.00037 -0.06776 1.03169
 O28 O -0.01344 -0.03363 1.06353
 O29 O 0.05774 -0.03140 0.98722
 O30 O -0.04961 -0.00960 1.05677
 O31 O 0.04307 -0.04558 1.02626
 O32 O -0.02696 -0.07576 0.99714
 O33 O -0.03135 -0.03038 1.01612
 O34 O 0.00731 -0.03953 0.98968
 O35 O -0.00893 0.00890 1.03410
 O36 O 0.02821 -0.00024 1.00926
 Zr37 Zr -0.02641 0.02435 0.96100
 Zr38 Zr -0.04630 0.00701 1.01964
 Zr39 Zr 0.02677 -0.01097 0.96995
 Zr40 Zr -0.03037 -0.04029 0.97683
 O41 O 0.06074 0.00976 0.96562
 O42 O -0.06759 -0.05266 0.98494
 O43 O -0.01063 -0.01284 0.95516
 O44 O -0.04741 -0.00381 0.98046
 O45 O -0.02701 0.03600 0.99994
 O46 O 0.01155 0.02606 0.97368
 C47 C -0.01427 -0.08275 1.01776
 C48 C 0.06038 -0.04379 1.00898
 C49 C -0.03498 -0.02439 1.07084
 O50 O -0.08150 -0.01201 1.02083
 O51 O -0.07534 0.03159 1.00495
 O52 O -0.06192 0.04376 0.96479
 C53 C -0.07821 0.04397 0.98327
 O54 O 0.03479 0.03454 1.04663
 Zr55 Zr 0.01087 0.03624 1.01277
 O56 O -0.01896 0.06396 0.95795
 O57 O -0.05319 0.03627 1.04720
 O58 O -0.00491 0.06188 1.04025
 O59 O 0.04735 0.05027 1.00400
 O60 O 0.00555 0.07217 0.99404
 C61 C -0.00623 0.07910 0.97291
 O62 O -0.05094 0.01903 0.92831
 O63 O 0.03525 -0.04220 0.94518
 O64 O -0.00770 0.02715 0.92495
 O65 O 0.02791 0.00206 0.93112
 O66 O -0.01498 -0.06750 0.95065
 O67 O -0.05136 -0.03922 0.94100
 C68 C 0.01308 0.01665 0.91701
 H69 H 0.01576 -0.05649 0.98732
 H70 H -0.06506 -0.00436 0.97350
 H71 H 0.02154 0.03840 0.96346
 H72 H -0.00837 0.01373 1.05272
 H73 H -0.06918 -0.07047 0.97839
 H74 H -0.09180 -0.00313 1.03409
 H75 H -0.07067 0.03387 1.05347
 H76 H 0.00576 0.07742 1.04071
 H77 H -0.02618 -0.08266 0.95062
 H78 H 0.05275 -0.03964 0.93903
 H79 H 0.07105 0.00033 0.95276
 H80 H 0.04849 0.06795 1.01101
 H81 H -0.05946 -0.05607 0.93813
 H82 H -0.05294 0.03594 0.91929
 H83 H 0.03195 -0.03885 1.07139
 H84 H 0.03981 0.05218 1.05151
 Zr85 Zr 0.53237 0.48626 0.55129
 O86 O 0.55540 0.50135 0.58164
 O87 O 0.52830 0.44802 0.56352
 O88 O 0.51316 0.48609 0.58720
 O89 O 0.58152 0.47599 0.50861
 O90 O 0.47570 0.50704 0.57751
 O91 O 0.56982 0.47070 0.55088
 O92 O 0.50143 0.43126 0.53282
 O93 O 0.49426 0.47950 0.54149
 O94 O 0.53241 0.46682 0.51573
 O95 O 0.51457 0.52282 0.54939
 O96 O 0.55137 0.51042 0.52503
 Zr97 Zr 0.49382 0.52108 0.47577
 Zr98 Zr 0.47696 0.51597 0.53760
 Zr99 Zr 0.54923 0.49142 0.48909
 Zr100 Zr 0.49453 0.46127 0.50546
 O101 O 0.58192 0.51227 0.47919
 O102 O 0.45874 0.44889 0.51846
 O103 O 0.51165 0.48435 0.47716
 O104 O 0.47527 0.49677 0.50195
 O105 O 0.49376 0.54097 0.51107
 O106 O 0.53189 0.52757 0.48564
 C107 C 0.51512 0.42966 0.55389
 C108 C 0.58600 0.46897 0.53240
 C109 C 0.49126 0.49538 0.59344
 O110 O 0.44298 0.49610 0.54466
 O111 O 0.44612 0.53542 0.51895
 O112 O 0.45787 0.53944 0.47662
 C113 C 0.44213 0.54279 0.49517
 O114 O 0.55651 0.55305 0.55390
 Zr115 Zr 0.53188 0.54592 0.52149
 O116 O 0.49828 0.55944 0.46353
 O117 O 0.46932 0.55005 0.55856
 O118 O 0.51502 0.57631 0.54276
 O119 O 0.56731 0.55948 0.50864
 O120 O 0.52444 0.57630 0.49485
 C121 C 0.51116 0.57789 0.47359
 O122 O 0.46847 0.50712 0.44675
 O123 O 0.55832 0.45620 0.47076
 O124 O 0.51073 0.51716 0.43914
 O125 O 0.54866 0.49682 0.44832
 O126 O 0.51047 0.42978 0.48504
 O127 O 0.47215 0.45343 0.47159
 C128 C 0.53205 0.50705 0.43243
 H129 H 0.54181 0.45017 0.51665
 H130 H 0.45750 0.49384 0.49618
 H131 H 0.54076 0.53791 0.47246
 H132 H 0.51536 0.53144 0.56652
 H133 H 0.45819 0.42997 0.51624
 H134 H 0.43256 0.50727 0.55596
 H135 H 0.45214 0.54828 0.56582
 H136 H 0.52459 0.59215 0.53901
 H137 H 0.50029 0.41441 0.48905
 H138 H 0.57543 0.45815 0.46339
 H139 H 0.59231 0.50090 0.46807
 H140 H 0.56754 0.57834 0.51143
 H141 H 0.46487 0.43603 0.47314
 H142 H 0.46505 0.52134 0.43406
 H143 H 0.55928 0.48701 0.59406
 H144 H 0.56010 0.57169 0.55472
 Zr145 Zr 0.48979 1.01599 0.53810
 O146 O 0.46899 1.00900 0.57226
 O147 O 0.49678 1.05554 0.54078
 O148 O 0.51192 1.02133 0.57232
 O149 O 0.43653 1.02043 0.49769
 O150 O 0.54763 0.99703 0.56567
 O151 O 0.45342 1.03378 0.53648
 O152 O 0.52160 1.06403 0.50591
 O153 O 0.52704 1.01853 0.52492
 O154 O 0.48687 1.02798 0.49921
 O155 O 0.50581 0.97887 0.54332
 O156 O 0.46711 0.98826 0.51933
 Zr157 Zr 0.51886 0.96500 0.46988
 Zr158 Zr 0.54236 0.98119 0.52830
 Zr159 Zr 0.46618 0.99976 0.48009
 Zr160 Zr 0.52377 1.02902 0.48563
 O161 O 0.43195 0.97907 0.47702
 O162 O 0.56144 1.04132 0.49292
 O163 O 0.50259 1.00211 0.46439
 O164 O 0.54112 0.99264 0.48905
 O165 O 0.52192 0.95260 0.50878
 O166 O 0.48174 0.96272 0.48334
 C167 C 0.50988 1.07069 0.52656
 C168 C 0.43522 1.03260 0.51938
 C169 C 0.53373 1.01196 0.57959
 O170 O 0.57744 1.00048 0.52911
 O171 O 0.57061 0.95721 0.51252
 O172 O 0.55419 0.94508 0.47305
 C173 C 0.57179 0.94487 0.49091
 O174 O 0.46293 0.95267 0.55663
 Zr175 Zr 0.48486 0.95176 0.52233
 O176 O 0.51163 0.92554 0.46686
 O177 O 0.55107 0.95127 0.55540
 O178 O 0.50242 0.92575 0.54947
 O179 O 0.44802 0.93756 0.51423
 O180 O 0.48944 0.91615 0.50336
 C181 C 0.50021 0.90985 0.48203
 O182 O 0.54163 0.97110 0.43693
 O183 O 0.45611 1.03111 0.45516
 O184 O 0.49811 0.96306 0.43406
 O185 O 0.46241 0.98710 0.44161
 O186 O 0.50702 1.05688 0.45989
 O187 O 0.54238 1.02828 0.44929
 C188 C 0.47650 0.97319 0.42696
 H189 H 0.47828 1.04496 0.49692
 H190 H 0.55833 0.99334 0.48171
 H191 H 0.47122 0.95048 0.47330
 H192 H 0.50632 0.97377 0.56195
 H193 H 0.56264 1.05918 0.48617
 H194 H 0.58859 0.99123 0.54198
 H195 H 0.56891 0.95365 0.56131
 H196 H 0.49192 0.91010 0.55004
 H197 H 0.51848 1.07183 0.45943
 H198 H 0.43823 1.02860 0.44946
 H199 H 0.42074 0.98861 0.46441
 H200 H 0.44747 0.91972 0.52117
 H201 H 0.55062 1.04501 0.44627
 H202 H 0.54308 0.95441 0.42773
 H203 H 0.46700 1.02569 0.58136
 H204 H 0.45833 0.93490 0.56156
 Zr205 Zr -0.01577 0.51704 1.03761
 O206 O -0.03860 0.50991 1.07030
 O207 O -0.00754 0.55633 1.04229
 O208 O 0.00470 0.51986 1.07337
 O209 O -0.06697 0.52389 0.99457
 O210 O 0.03972 0.49433 1.06754
 O211 O -0.05172 0.53564 1.03462
 O212 O 0.01964 0.56475 1.00935
 O213 O 0.02228 0.51852 1.02670
 O214 O -0.01617 0.53048 0.99911
 O215 O -0.00152 0.47909 1.04205
 O216 O -0.03828 0.49088 1.01626
 Zr217 Zr 0.01518 0.46735 0.96912
 Zr218 Zr 0.03594 0.48047 1.02930
 Zr219 Zr -0.03669 0.50377 0.97752
 Zr220 Zr 0.02152 0.53054 0.98777
 O221 O -0.07114 0.48425 0.97064
 O222 O 0.05925 0.54105 0.99761
 O223 O 0.00067 0.50525 0.96420
 O224 O 0.03732 0.49341 0.99063
 O225 O 0.01561 0.45345 1.00753
 O226 O -0.02276 0.46603 0.98015
 C227 C 0.00707 0.57131 1.02948
 C228 C -0.06919 0.53515 1.01667
 C229 C 0.02568 0.50913 1.08142
 O230 O 0.07164 0.49835 1.03303
 O231 O 0.06417 0.45607 1.01418
 O232 O 0.04965 0.44612 0.97333
 C233 C 0.06621 0.44460 0.99216
 O234 O -0.04643 0.45428 1.05139
 Zr235 Zr -0.02222 0.45359 1.01877
 O236 O 0.00706 0.42830 0.96420
 O237 O 0.04205 0.44919 1.05547
 O238 O -0.00755 0.42621 1.04626
 O239 O -0.05890 0.44096 1.00746
 O240 O -0.01712 0.41833 0.99912
 C241 C -0.00533 0.41238 0.97825
 O242 O 0.03975 0.47407 0.93773
 O243 O -0.04470 0.53683 0.95419
 O244 O -0.00393 0.46685 0.93240
 O245 O -0.03795 0.49386 0.93794
 O246 O 0.00699 0.55984 0.96231
 O247 O 0.04220 0.53055 0.95264
 C248 C -0.02385 0.47929 0.92390
 H249 H -0.02408 0.54783 0.99713
 H250 H 0.05495 0.49372 0.98435
 H251 H -0.03305 0.45455 0.96897
 H252 H -0.00226 0.47325 1.06042
 H253 H 0.06146 0.55908 0.99172
 H254 H 0.08176 0.48813 1.04604
 H255 H 0.05967 0.45053 1.06241
 H256 H -0.01864 0.41098 1.04555
 H257 H 0.01886 0.57445 0.96321
 H258 H -0.06226 0.53507 0.94719
 H259 H -0.08121 0.49477 0.95784
 H260 H -0.06039 0.42289 1.01350
 H261 H 0.05085 0.54722 0.95067
 H262 H 0.04125 0.45774 0.92793
 H263 H -0.04043 0.52637 1.07983
 H264 H -0.05226 0.43662 1.05512
 Zr265 Zr 0.00211 0.46895 0.47613
 O266 O -0.02176 0.48149 0.44464
 O267 O 0.00895 0.43011 0.46675
 O268 O 0.02093 0.46827 0.44022
 O269 O -0.04768 0.46084 0.51827
 O270 O 0.05762 0.48982 0.44848
 O271 O -0.03433 0.45249 0.47713
 O272 O 0.03598 0.41567 0.49918
 O273 O 0.04033 0.46308 0.48687
 O274 O 0.00230 0.45151 0.51294
 O275 O 0.01822 0.50582 0.47565
 O276 O -0.01826 0.49459 0.50005
 Zr277 Zr 0.03801 0.50801 0.54954
 Zr278 Zr 0.05596 0.49987 0.48814
 Zr279 Zr -0.01613 0.47744 0.53717
 Zr280 Zr 0.04026 0.44708 0.52435
 O281 O -0.04980 0.49857 0.54491
 O282 O 0.07704 0.43439 0.51365
 O283 O 0.02146 0.47128 0.55055
 O284 O 0.05803 0.48277 0.52527
 O285 O 0.03792 0.52598 0.51285
 O286 O -0.00012 0.51385 0.53848
 C287 C 0.02307 0.41264 0.47797
 C288 C -0.05106 0.45205 0.49509
 C289 C 0.04215 0.47785 0.43321
 O290 O 0.09053 0.47953 0.48275
 O291 O 0.08550 0.52070 0.50580
 O292 O 0.07335 0.52672 0.54777
 C293 C 0.08897 0.52949 0.52897
 O294 O -0.02524 0.53572 0.46894
 Zr295 Zr -0.00014 0.53044 0.50159
 O296 O 0.03251 0.54667 0.55896
 O297 O 0.06292 0.53291 0.46514
 O298 O 0.01558 0.55928 0.47760
 O299 O -0.03574 0.54510 0.51379
 O300 O 0.00737 0.56257 0.52561
 C301 C 0.02022 0.56494 0.54710
 O302 O 0.06291 0.49510 0.57999
 O303 O -0.02433 0.44325 0.55784
 O304 O 0.01965 0.50751 0.58588
 O305 O -0.01654 0.48526 0.57722
 O306 O 0.02512 0.41639 0.54634
 O307 O 0.06189 0.44182 0.55947
 C308 C -0.00153 0.49755 0.59265
 H309 H -0.00632 0.43470 0.51303
 H310 H 0.07584 0.48037 0.53147
 H311 H -0.00953 0.52505 0.55057
 H312 H 0.01714 0.51362 0.45800
 H313 H 0.07847 0.41574 0.51776
 H314 H 0.10079 0.49023 0.47100
 H315 H 0.08027 0.53081 0.45825
 H316 H 0.00565 0.57538 0.48021
 H317 H 0.03637 0.40113 0.54405
 H318 H -0.04158 0.44560 0.56488
 H319 H -0.05998 0.48779 0.55666
 H320 H -0.03623 0.56382 0.50988
 H321 H 0.06979 0.42439 0.55977
 H322 H 0.06586 0.50997 0.59162
 H323 H -0.02469 0.46643 0.43324
 H324 H -0.02965 0.55424 0.46692
 Zr325 Zr 0.48196 -0.02676 -0.03845
 O326 O 0.45807 -0.01828 -0.07120
 O327 O 0.48991 -0.06605 -0.04374
 O328 O 0.50146 -0.02987 -0.07413
 O329 O 0.43232 -0.03311 0.00451
 O330 O 0.53669 -0.00563 -0.06727
 O331 O 0.44603 -0.04428 -0.03585
 O332 O 0.51778 -0.07634 -0.01051
 O333 O 0.52037 -0.02970 -0.02721
 O334 O 0.48281 -0.04077 -0.00012
 O335 O 0.49624 0.01069 -0.04224
 O336 O 0.46018 -0.00028 -0.01680
 Zr337 Zr 0.51552 0.02079 0.03106
 Zr338 Zr 0.53408 0.00792 -0.02907
 Zr339 Zr 0.46313 -0.01372 0.02183
 Zr340 Zr 0.52086 -0.04240 0.01149
 O341 O 0.42881 0.00676 0.02833
 O342 O 0.55810 -0.05421 0.00145
 O343 O 0.50097 -0.01668 0.03534
 O344 O 0.53675 -0.00579 0.00935
 O345 O 0.51455 0.03527 -0.00712
 O346 O 0.47717 0.02353 0.01971
 C347 C 0.50461 -0.08192 -0.03100
 C348 C 0.42929 -0.04391 -0.01784
 C349 C 0.52227 -0.01963 -0.08167
 O350 O 0.56979 -0.01084 -0.03250
 O351 O 0.56250 0.03183 -0.01377
 O352 O 0.55072 0.03960 0.02800
 C353 C 0.56599 0.04188 0.00884
 O354 O 0.45094 0.03682 -0.05150
 Zr355 Zr 0.47633 0.03640 -0.01875
 O356 O 0.50815 0.06034 0.03601
 O357 O 0.53919 0.03917 -0.05505
 O358 O 0.48999 0.06370 -0.04581
 O359 O 0.44010 0.05024 -0.00752
 O360 O 0.48217 0.07106 0.00132
 C361 C 0.49495 0.07659 0.02207
 O362 O 0.54054 0.01257 0.06301
 O363 O 0.45615 -0.04663 0.04504
 O364 O 0.49746 0.02200 0.06742
 O365 O 0.46306 -0.00364 0.06144
 O366 O 0.50713 -0.07142 0.03662
 O367 O 0.54296 -0.04376 0.04663
 C368 C 0.47765 0.01046 0.07563
 H369 H 0.47493 -0.05786 0.00159
 H370 H 0.55462 -0.00687 0.01568
 H371 H 0.46729 0.03529 0.03088
 H372 H 0.49491 0.01683 -0.06053
 H373 H 0.56042 -0.07242 0.00704
 H374 H 0.57945 -0.00079 -0.04534
 H375 H 0.55662 0.03746 -0.06181
 H376 H 0.47888 0.07924 -0.04499
 H377 H 0.51883 -0.08649 0.03554
 H378 H 0.43885 -0.04438 0.05200
 H379 H 0.41919 -0.00350 0.04103
 H380 H 0.43842 0.06839 -0.01349
 H381 H 0.55165 -0.06076 0.04830
 H382 H 0.54263 0.02874 0.07298
 H383 H 0.45588 -0.03454 -0.08097
 H384 H 0.44502 0.05471 -0.05514
 Zr385 Zr 0.50549 0.52995 -0.02653
 O386 O 0.52821 0.51664 -0.05738
 O387 O 0.49961 0.56900 -0.03661
 O388 O 0.48567 0.53143 -0.06269
 O389 O 0.55647 0.53718 0.01623
 O390 O 0.44897 0.51024 -0.05486
 O391 O 0.54216 0.54567 -0.02528
 O392 O 0.47268 0.58365 -0.00557
 O393 O 0.46751 0.53625 -0.01689
 O394 O 0.50613 0.54768 0.00986
 O395 O 0.48913 0.49321 -0.02653
 O396 O 0.52613 0.50437 -0.00145
 Zr397 Zr 0.47069 0.49179 0.04694
 Zr398 Zr 0.45167 0.49962 -0.01514
 Zr399 Zr 0.52485 0.52189 0.03519
 Zr400 Zr 0.46835 0.55250 0.02018
 O401 O 0.55788 0.50002 0.04536
 O402 O 0.43153 0.56539 0.00809
 O403 O 0.48747 0.52840 0.04735
 O404 O 0.45034 0.51693 0.02158
 O405 O 0.47000 0.47362 0.01067
 O406 O 0.50863 0.48556 0.03716
 C407 C 0.48575 0.58662 -0.02617
 C408 C 0.55940 0.54575 -0.00713
 C409 C 0.46404 0.52241 -0.06992
 O410 O 0.41682 0.51977 -0.02130
 O411 O 0.42257 0.47858 0.00203
 O412 O 0.43563 0.47247 0.04436
 C413 C 0.41976 0.46949 0.02516
 O414 O 0.53271 0.46313 -0.03103
 Zr415 Zr 0.50782 0.46865 0.00058
 O416 O 0.47639 0.45335 0.05779
 O417 O 0.44441 0.46674 -0.03806
 O418 O 0.49190 0.43989 -0.02358
 O419 O 0.54321 0.45355 0.01459
 O420 O 0.49960 0.43658 0.02473
 C421 C 0.48740 0.43462 0.04618
 O422 O 0.44590 0.50480 0.07616
 O423 O 0.53467 0.55651 0.05415
 O424 O 0.48944 0.49329 0.08385
 O425 O 0.52487 0.51663 0.07580
 O426 O 0.48404 0.58316 0.04197
 O427 O 0.44721 0.55824 0.05454
 C428 C 0.50991 0.50477 0.09117
 H429 H 0.51497 0.56436 0.00975
 H430 H 0.43263 0.51939 0.02729
 H431 H 0.51801 0.47450 0.05000
 H432 H 0.48979 0.48542 -0.04405
 H433 H 0.43033 0.58410 0.01162
 H434 H 0.40639 0.50918 -0.03327
 H435 H 0.42693 0.46884 -0.04538
 H436 H 0.50180 0.42375 -0.02035
 H437 H 0.47293 0.59853 0.03896
 H438 H 0.55194 0.55383 0.06181
 H439 H 0.56845 0.51097 0.05684
 H440 H 0.54337 0.43479 0.01114
 H441 H 0.43942 0.57571 0.05416
 H442 H 0.44319 0.49001 0.08808
 H443 H 0.53122 0.53156 -0.06906
 H444 H 0.53729 0.44463 -0.03231
 Zr445 Zr 0.02200 1.01283 0.45418
 O446 O 0.04581 0.99998 0.42401
 O447 O 0.01510 1.05110 0.44330
 O448 O 0.00285 1.01376 0.41752
 O449 O 0.07103 1.02257 0.49878
 O450 O -0.03353 0.99185 0.42496
 O451 O 0.05836 1.02946 0.45645
 O452 O -0.01246 1.06615 0.47359
 O453 O -0.01637 1.01817 0.46290
 O454 O 0.02125 1.03076 0.49051
 O455 O 0.00635 0.97588 0.45360
 O456 O 0.04285 0.98827 0.47992
 Zr457 Zr -0.01349 0.97338 0.52663
 Zr458 Zr -0.03149 0.98117 0.46451
 Zr459 Zr 0.03979 1.00550 0.51663
 Zr460 Zr -0.01682 1.03476 0.49975
 O461 O 0.07356 0.98505 0.52723
 O462 O -0.05365 1.04650 0.48651
 O463 O 0.00191 1.01075 0.52754
 O464 O -0.03381 0.99849 0.50108
 O465 O -0.01274 0.95553 0.49026
 O466 O 0.02482 0.96859 0.51768
 C467 C 0.00072 1.06864 0.45285
 C468 C 0.07472 1.03074 0.47542
 C469 C -0.01855 1.00429 0.41008
 O470 O -0.06663 1.00050 0.45732
 O471 O -0.06098 0.95996 0.48104
 O472 O -0.04838 0.95390 0.52348
 C473 C -0.06412 0.95099 0.50419
 O474 O 0.05132 0.94863 0.44972
 Zr475 Zr 0.02553 0.95221 0.48084
 O476 O -0.00722 0.93430 0.53629
 O477 O -0.03743 0.94789 0.44180
 O478 O 0.01157 0.92290 0.45608
 O479 O 0.06107 0.93808 0.49552
 O480 O 0.01833 0.91979 0.50398
 C481 C 0.00530 0.91650 0.52454
 O482 O -0.03889 0.98529 0.55579
 O483 O 0.04729 1.04022 0.53647
 O484 O 0.00437 0.97473 0.56389
 O485 O 0.03935 0.99914 0.55722
 O486 O -0.00222 1.06569 0.52193
 O487 O -0.03916 1.04055 0.53328
 C488 C 0.02439 0.98647 0.57199
 H489 H 0.02960 1.04771 0.49051
 H490 H -0.05167 1.00055 0.50645
 H491 H 0.03427 0.95765 0.53057
 H492 H 0.00754 0.96811 0.43610
 H493 H -0.05531 1.06528 0.48948
 H494 H -0.07648 0.98971 0.44502
 H495 H -0.05467 0.94968 0.43380
 H496 H 0.02245 0.90736 0.45901
 H497 H -0.01318 1.08101 0.51814
 H498 H 0.06451 1.03833 0.54447
 H499 H 0.08339 0.99633 0.53905
 H500 H 0.06228 0.91955 0.49116
 H501 H -0.04708 1.05797 0.53248
 H502 H -0.04149 0.97024 0.56742
 H503 H 0.04868 1.01495 0.41236
 H504 H 0.05677 0.93039 0.44808
 Zr505 Zr 0.71927 0.26592 0.22077
 O506 O 0.72510 0.28868 0.18705
 O507 O 0.68043 0.25788 0.21654
 O508 O 0.71554 0.24490 0.18558
 O509 O 0.71320 0.31748 0.26300
 O510 O 0.73922 0.20847 0.19372
 O511 O 0.70209 0.30302 0.22252
 O512 O 0.67281 0.23050 0.25039
 O513 O 0.71788 0.22746 0.23321
 O514 O 0.70722 0.26655 0.25937
 O515 O 0.75635 0.25102 0.21664
 O516 O 0.74575 0.28862 0.24141
 Zr517 Zr 0.77050 0.23431 0.29019
 Zr518 Zr 0.75517 0.21323 0.23102
 Zr519 Zr 0.73439 0.28707 0.28036
 Zr520 Zr 0.70724 0.22845 0.27212
 O521 O 0.75355 0.32229 0.28525
 O522 O 0.69636 0.19023 0.26357
 O523 O 0.73329 0.24927 0.29492
 O524 O 0.74369 0.21212 0.26975
 O525 O 0.78280 0.23375 0.25168
 O526 O 0.77140 0.27274 0.27773
 C527 C 0.66591 0.24318 0.22975
 C528 C 0.70227 0.32027 0.24047
 C529 C 0.72468 0.22272 0.17904
 O530 O 0.73771 0.17683 0.22924
 O531 O 0.77985 0.18474 0.24668
 O532 O 0.79031 0.19864 0.28747
 C533 C 0.79134 0.18208 0.26891
 O534 O 0.78053 0.29586 0.20510
 Zr535 Zr 0.78222 0.27207 0.23901
 O536 O 0.80956 0.24180 0.29382
 O537 O 0.78465 0.20691 0.20431
 O538 O 0.80873 0.25648 0.21264
 O539 O 0.79463 0.30966 0.24814
 O540 O 0.81725 0.26828 0.25923
 C541 C 0.82419 0.25566 0.27985
 O542 O 0.76478 0.21005 0.32285
 O543 O 0.70300 0.29466 0.30438
 O544 O 0.77295 0.25415 0.32601
 O545 O 0.74661 0.28904 0.31956
 O546 O 0.67933 0.24369 0.29717
 O547 O 0.70788 0.20755 0.30792
 C548 C 0.76167 0.27482 0.33383
 H549 H 0.69023 0.27471 0.26115
 H550 H 0.74343 0.19427 0.27664
 H551 H 0.78314 0.28329 0.28834
 H552 H 0.76149 0.25145 0.19820
 H553 H 0.67870 0.18816 0.26944
 H554 H 0.74719 0.16642 0.21646
 H555 H 0.78306 0.18896 0.19813
 H556 H 0.82371 0.26779 0.21280
 H557 H 0.66464 0.23199 0.29654
 H558 H 0.70483 0.31250 0.31079
 H559 H 0.74381 0.33250 0.29798
 H560 H 0.81214 0.31133 0.24169
 H561 H 0.69133 0.19911 0.31019
 H562 H 0.78125 0.20841 0.33252
 H563 H 0.70848 0.29056 0.17768
 H564 H 0.79789 0.30122 0.20069
 Zr565 Zr 0.75639 0.73307 0.71442
 O566 O 0.73491 0.71450 0.68497
 O567 O 0.79282 0.73180 0.69942
 O568 O 0.75666 0.75463 0.67926
 O569 O 0.76294 0.67917 0.75432
 O570 O 0.74597 0.79528 0.69205
 O571 O 0.76667 0.69359 0.71245
 O572 O 0.81661 0.75263 0.73016
 O573 O 0.77084 0.76889 0.72524
 O574 O 0.77811 0.72696 0.74857
 O575 O 0.72449 0.75725 0.71914
 O576 O 0.73160 0.71615 0.74117
 Zr577 Zr 0.73581 0.77137 0.79332
 Zr578 Zr 0.73907 0.79232 0.73206
 Zr579 Zr 0.75335 0.71217 0.77578
 Zr580 Zr 0.79125 0.76266 0.75997
 O581 O 0.72772 0.68253 0.78461
 O582 O 0.80861 0.79713 0.74770
 O583 O 0.76804 0.74724 0.78890
 O584 O 0.76064 0.78782 0.76654
 O585 O 0.71398 0.77782 0.75930
 O586 O 0.72166 0.73560 0.78217
 C587 C 0.81378 0.74071 0.70837
 C588 C 0.76817 0.67583 0.73017
 C589 C 0.75246 0.77879 0.67473
 O590 O 0.76373 0.82348 0.72598
 O591 O 0.72615 0.82445 0.75298
 O592 O 0.72364 0.81028 0.79503
 C593 C 0.72109 0.82777 0.77717
 O594 O 0.68791 0.71959 0.71571
 Zr595 Zr 0.70117 0.74187 0.74762
 O596 O 0.69902 0.77324 0.80783
 O597 O 0.70612 0.80750 0.71287
 O598 O 0.67333 0.76443 0.72706
 O599 O 0.68122 0.70967 0.76180
 O600 O 0.67518 0.75601 0.77488
 C601 C 0.67776 0.76714 0.79708
 O602 O 0.75689 0.79120 0.82221
 O603 O 0.78696 0.69547 0.79227
 O604 O 0.73774 0.75045 0.82877
 O605 O 0.75116 0.71039 0.81661
 O606 O 0.82076 0.73975 0.77740
 O607 O 0.80573 0.78063 0.79412
 C608 C 0.74451 0.72696 0.83380
 H609 H 0.79272 0.71503 0.74635
 H610 H 0.76700 0.80453 0.77289
 H611 H 0.71071 0.72781 0.79545
 H612 H 0.71472 0.75934 0.70255
 H613 H 0.82723 0.79405 0.74840
 H614 H 0.75397 0.83666 0.71571
 H615 H 0.71050 0.82481 0.70624
 H616 H 0.65648 0.75758 0.73145
 H617 H 0.83710 0.74750 0.77258
 H618 H 0.78244 0.67828 0.79912
 H619 H 0.73754 0.66928 0.79471
 H620 H 0.66284 0.71376 0.75985
 H621 H 0.82371 0.78517 0.79159
 H622 H 0.74481 0.79644 0.83584
 H623 H 0.74694 0.70919 0.67133
 H624 H 0.66914 0.71878 0.71595
 Zr625 Zr 0.23186 0.24139 0.77724
 O626 O 0.24825 0.21862 0.80779
 O627 O 0.19416 0.24539 0.78915
 O628 O 0.23282 0.26154 0.81302
 O629 O 0.22125 0.19037 0.73540
 O630 O 0.25061 0.29984 0.80224
 O631 O 0.21742 0.20364 0.77746
 O632 O 0.17683 0.27410 0.75962
 O633 O 0.22352 0.27973 0.76685
 O634 O 0.21156 0.24042 0.74181
 O635 O 0.26722 0.25951 0.77491
 O636 O 0.25562 0.22140 0.75133
 Zr637 Zr 0.26239 0.27836 0.70087
 Zr638 Zr 0.25868 0.29721 0.76252
 Zr639 Zr 0.23557 0.22247 0.71553
 Zr640 Zr 0.20453 0.27851 0.73086
 O641 O 0.25700 0.18900 0.70659
 O642 O 0.19182 0.31577 0.74175
 O643 O 0.22687 0.26016 0.70277
 O644 O 0.23872 0.29799 0.72684
 O645 O 0.28300 0.27956 0.73615
 O646 O 0.27056 0.24012 0.71157
 C647 C 0.17593 0.25991 0.78023
 C648 C 0.21508 0.18678 0.75929
 C649 C 0.24076 0.28425 0.81865
 O650 O 0.23823 0.33197 0.76863
 O651 O 0.27676 0.32755 0.74347
 O652 O 0.27960 0.31498 0.70113
 C653 C 0.28334 0.33115 0.71973
 O654 O 0.29826 0.21626 0.77928
 Zr655 Zr 0.28983 0.24134 0.74723
 O656 O 0.29987 0.27426 0.68875
 O657 O 0.29243 0.30567 0.78363
 O658 O 0.31939 0.25838 0.76949
 O659 O 0.30507 0.20601 0.73358
 O660 O 0.31917 0.25061 0.72142
 C661 C 0.31934 0.26329 0.69975
 O662 O 0.24616 0.30255 0.67138
 O663 O 0.20072 0.21270 0.69716
 O664 O 0.25974 0.25915 0.66473
 O665 O 0.23982 0.22179 0.67491
 O666 O 0.17271 0.26137 0.71232
 O667 O 0.19491 0.29906 0.69597
 C668 C 0.25000 0.23733 0.65863
 H669 H 0.19541 0.23102 0.74299
 H670 H 0.23516 0.31584 0.72074
 H671 H 0.28097 0.23089 0.69868
 H672 H 0.27626 0.25921 0.79202
 H673 H 0.17308 0.31632 0.73960
 H674 H 0.24918 0.34292 0.77973
 H675 H 0.29025 0.32331 0.79056
 H676 H 0.33532 0.24879 0.76584
 H677 H 0.15758 0.27208 0.71634
 H678 H 0.20306 0.19520 0.68994
 H679 H 0.24591 0.17811 0.69556
 H680 H 0.32373 0.20643 0.73643
 H681 H 0.17741 0.30617 0.69707
 H682 H 0.25967 0.30602 0.65869
 H683 H 0.23461 0.21504 0.82031
 H684 H 0.31672 0.21231 0.77999
 Zr685 Zr 0.27650 0.76247 0.27953
 O686 O 0.26993 0.78605 0.31228
 O687 O 0.31512 0.75283 0.28461
 O688 O 0.28037 0.74173 0.31502
 O689 O 0.28295 0.81393 0.23704
 O690 O 0.25534 0.70679 0.30871
 O691 O 0.29523 0.79798 0.27700
 O692 O 0.32308 0.72518 0.25132
 O693 O 0.27791 0.72388 0.26815
 O694 O 0.28894 0.76247 0.24113
 O695 O 0.23932 0.74907 0.28373
 O696 O 0.25030 0.78618 0.25837
 Zr697 Zr 0.22608 0.73254 0.21040
 Zr698 Zr 0.24055 0.71109 0.27045
 Zr699 Zr 0.26212 0.78411 0.21966
 Zr700 Zr 0.28889 0.72429 0.22930
 O701 O 0.24280 0.81977 0.21361
 O702 O 0.29953 0.68570 0.23862
 O703 O 0.26332 0.74617 0.20586
 O704 O 0.25237 0.70936 0.23177
 O705 O 0.21337 0.73252 0.24880
 O706 O 0.22499 0.77106 0.22198
 C707 C 0.32974 0.73763 0.27183
 C708 C 0.29475 0.81558 0.25917
 C709 C 0.27027 0.72065 0.32276
 O710 O 0.25834 0.67436 0.27381
 O711 O 0.21633 0.68317 0.25477
 O712 O 0.20547 0.69806 0.21401
 C713 C 0.20459 0.68131 0.23265
 O714 O 0.21528 0.79543 0.29348
 Zr715 Zr 0.21370 0.77088 0.26057
 O716 O 0.18729 0.74163 0.20564
 O717 O 0.21032 0.70577 0.29637
 O718 O 0.18733 0.75687 0.28773
 O719 O 0.20076 0.80841 0.24972
 O720 O 0.17858 0.76674 0.24073
 C721 C 0.17207 0.75476 0.21988
 O722 O 0.23205 0.70754 0.17863
 O723 O 0.29393 0.79102 0.19620
 O724 O 0.22462 0.75208 0.17393
 O725 O 0.25094 0.78605 0.18020
 O726 O 0.31727 0.73815 0.20430
 O727 O 0.28818 0.70339 0.19385
 C728 C 0.23633 0.77219 0.16585
 H729 H 0.30602 0.76988 0.23933
 H730 H 0.25260 0.69147 0.22525
 H731 H 0.21334 0.78183 0.21094
 H732 H 0.23402 0.74997 0.30210
 H733 H 0.31722 0.68297 0.23289
 H734 H 0.24860 0.66440 0.28665
 H735 H 0.21193 0.68789 0.30315
 H736 H 0.17234 0.76864 0.28714
 H737 H 0.33172 0.72570 0.20520
 H738 H 0.29210 0.80891 0.18951
 H739 H 0.25283 0.82972 0.20101
 H740 H 0.18314 0.81044 0.25588
 H741 H 0.30459 0.69413 0.19186
 H742 H 0.21570 0.70650 0.16875
 H743 H 0.28630 0.78745 0.32205
 H744 H 0.19795 0.80180 0.29736
 Zr745 Zr 0.22848 0.78028 0.70550
 O746 O 0.24677 0.80283 0.67716
 O747 O 0.19140 0.77864 0.69019
 O748 O 0.22906 0.76126 0.66917
 O749 O 0.21887 0.83044 0.74834
 O750 O 0.24589 0.72160 0.67937
 O751 O 0.21518 0.81897 0.70560
 O752 O 0.17163 0.75266 0.71924
 O753 O 0.21844 0.74230 0.71402
 O754 O 0.20756 0.78166 0.73969
 O755 O 0.26297 0.75946 0.70935
 O756 O 0.25238 0.79765 0.73365
 Zr757 Zr 0.25576 0.73869 0.78230
 Zr758 Zr 0.25275 0.72201 0.71983
 Zr759 Zr 0.23165 0.79691 0.76817
 Zr760 Zr 0.19879 0.74386 0.74882
 O761 O 0.25422 0.82843 0.77951
 O762 O 0.18454 0.70849 0.73480
 O763 O 0.22115 0.75956 0.77897
 O764 O 0.23199 0.72164 0.75416
 O765 O 0.27703 0.73709 0.74834
 O766 O 0.26577 0.77655 0.77359
 C767 C 0.17207 0.76637 0.69825
 C768 C 0.21314 0.83532 0.72426
 C769 C 0.23679 0.73846 0.66304
 O770 O 0.23103 0.68915 0.71106
 O771 O 0.26949 0.68981 0.73907
 O772 O 0.27153 0.70105 0.78194
 C773 C 0.27539 0.68524 0.76317
 O774 O 0.29543 0.80095 0.70877
 Zr775 Zr 0.28560 0.77506 0.73907
 O776 O 0.29299 0.73948 0.79706
 O777 O 0.28661 0.71171 0.70073
 O778 O 0.31485 0.75705 0.71766
 O779 O 0.30233 0.80831 0.75537
 O780 O 0.31389 0.76195 0.76594
 C781 C 0.31314 0.74872 0.78724
 O782 O 0.23784 0.71475 0.80973
 O783 O 0.19696 0.80872 0.78476
 O784 O 0.25309 0.75667 0.81890
 O785 O 0.23519 0.79599 0.80917
 O786 O 0.16764 0.76238 0.76683
 O787 O 0.18767 0.72220 0.78187
 C788 C 0.24426 0.77894 0.82537
 H789 H 0.19182 0.79224 0.73783
 H790 H 0.22759 0.70389 0.75939
 H791 H 0.27631 0.78446 0.78747
 H792 H 0.27238 0.75972 0.69285
 H793 H 0.16577 0.70945 0.73567
 H794 H 0.24182 0.67777 0.70036
 H795 H 0.28390 0.69451 0.69301
 H796 H 0.33104 0.76530 0.72273
 H797 H 0.15208 0.75311 0.76150
 H798 H 0.19988 0.82581 0.79266
 H799 H 0.24335 0.83984 0.79010
 H800 H 0.32096 0.80641 0.75360
 H801 H 0.17006 0.71621 0.77915
 H802 H 0.25083 0.70981 0.82320
 H803 H 0.23374 0.80779 0.66373
 H804 H 0.31400 0.80367 0.70934
 Zr805 Zr 0.27817 0.23109 0.21579
 O806 O 0.26999 0.21045 0.18126
 O807 O 0.31706 0.23832 0.21180
 O808 O 0.28140 0.25398 0.18167
 O809 O 0.28380 0.17661 0.25507
 O810 O 0.25976 0.29089 0.19154
 O811 O 0.29500 0.19380 0.21597
 O812 O 0.32716 0.26214 0.24762
 O813 O 0.28167 0.26851 0.23028
 O814 O 0.29135 0.22724 0.25438
 O815 O 0.24163 0.24793 0.21216
 O816 O 0.25131 0.20810 0.23481
 Zr817 Zr 0.23054 0.25977 0.28623
 Zr818 Zr 0.24496 0.28456 0.22856
 Zr819 Zr 0.26396 0.20635 0.27387
 Zr820 Zr 0.29345 0.26429 0.26915
 O821 O 0.24325 0.17187 0.27637
 O822 O 0.30570 0.30250 0.26283
 O823 O 0.26722 0.24296 0.29046
 O824 O 0.25761 0.28232 0.26740
 O825 O 0.21716 0.26377 0.24774
 O826 O 0.22742 0.22244 0.27171
 C827 C 0.33272 0.25116 0.22604
 C828 C 0.29472 0.17532 0.23289
 C829 C 0.27291 0.27684 0.17613
 O830 O 0.26413 0.32007 0.22886
 O831 O 0.22207 0.31300 0.24573
 O832 O 0.21112 0.29570 0.28484
 C833 C 0.21054 0.31385 0.26757
 O834 O 0.21575 0.20388 0.19869
 Zr835 Zr 0.21546 0.22651 0.23301
 O836 O 0.19150 0.25306 0.28983
 O837 O 0.21485 0.29421 0.20216
 O838 O 0.18967 0.24403 0.20570
 O839 O 0.20020 0.18986 0.24129
 O840 O 0.18073 0.23327 0.25172
 C841 C 0.17525 0.24336 0.27375
 O842 O 0.23842 0.28188 0.31986
 O843 O 0.29561 0.19538 0.29775
 O844 O 0.22860 0.23794 0.32096
 O845 O 0.25315 0.20239 0.31295
 O846 O 0.32150 0.24618 0.29358
 O847 O 0.29480 0.28257 0.30606
 C848 C 0.23938 0.21646 0.32786
 H849 H 0.30811 0.21840 0.25588
 H850 H 0.25874 0.29959 0.27534
 H851 H 0.21543 0.21186 0.28164
 H852 H 0.23589 0.24894 0.19369
 H853 H 0.32367 0.30334 0.26885
 H854 H 0.25474 0.33176 0.21657
 H855 H 0.21714 0.31242 0.19693
 H856 H 0.17421 0.23340 0.20501
 H857 H 0.33665 0.25727 0.29371
 H858 H 0.29306 0.17725 0.30313
 H859 H 0.25286 0.16031 0.28860
 H860 H 0.18247 0.18996 0.23445
 H861 H 0.31172 0.29024 0.30889
 H862 H 0.22237 0.28361 0.32953
 H863 H 0.28609 0.20858 0.17169
 H864 H 0.19819 0.19878 0.19407
 Zr865 Zr 0.73839 0.72693 0.27995
 O866 O 0.75828 0.70581 0.30956
 O867 O 0.70138 0.72765 0.29405
 O868 O 0.73876 0.74712 0.31581
 O869 O 0.73108 0.67538 0.23797
 O870 O 0.75117 0.78736 0.30398
 O871 O 0.72777 0.68766 0.28039
 O872 O 0.67905 0.75171 0.26372
 O873 O 0.72560 0.76421 0.26995
 O874 O 0.71697 0.72388 0.24534
 O875 O 0.77136 0.74892 0.27615
 O876 O 0.76294 0.70969 0.25286
 Zr877 Zr 0.76174 0.76736 0.20238
 Zr878 Zr 0.75839 0.78554 0.26414
 Zr879 Zr 0.74156 0.70882 0.21788
 Zr880 Zr 0.70544 0.76100 0.23480
 O881 O 0.76606 0.67792 0.20792
 O882 O 0.68929 0.79612 0.24788
 O883 O 0.72850 0.74542 0.20570
 O884 O 0.73712 0.78420 0.22935
 O885 O 0.78338 0.77065 0.23680
 O886 O 0.77425 0.73012 0.21252
 C887 C 0.68094 0.73861 0.28512
 C888 C 0.72610 0.67088 0.26200
 C889 C 0.74387 0.77081 0.32089
 O890 O 0.73487 0.81811 0.27094
 O891 O 0.77267 0.81773 0.24460
 O892 O 0.77508 0.80557 0.20212
 C893 C 0.77800 0.82198 0.22061
 O894 O 0.80669 0.70904 0.27902
 Zr895 Zr 0.79455 0.73329 0.24746
 O896 O 0.79890 0.76724 0.18861
 O897 O 0.79166 0.79743 0.28418
 O898 O 0.82296 0.75325 0.26868
 O899 O 0.81289 0.69989 0.23290
 O900 O 0.82163 0.74594 0.22064
 C901 C 0.81976 0.75853 0.19894
 O902 O 0.74204 0.78996 0.17376
 O903 O 0.70741 0.69520 0.20085
 O904 O 0.75938 0.74828 0.16627
 O905 O 0.74375 0.70897 0.17706
 O906 O 0.67559 0.74077 0.21612
 O907 O 0.69213 0.78158 0.20113
 C908 C 0.75135 0.72571 0.16044
 H909 H 0.70200 0.71277 0.24707
 H910 H 0.73148 0.80161 0.22350
 H911 H 0.78497 0.72211 0.19910
 H912 H 0.78101 0.74962 0.29288
 H913 H 0.67057 0.79454 0.24665
 H914 H 0.74497 0.83014 0.28171
 H915 H 0.78794 0.81475 0.29126
 H916 H 0.83959 0.74539 0.26436
 H917 H 0.65939 0.74932 0.22085
 H918 H 0.71135 0.67812 0.19332
 H919 H 0.75586 0.66598 0.19716
 H920 H 0.83144 0.70233 0.23504
 H921 H 0.67419 0.78693 0.20344
 H922 H 0.75456 0.79492 0.16052
 H923 H 0.74564 0.70076 0.32265
 H924 H 0.82541 0.70699 0.27892
 Zr925 Zr 0.76460 0.28171 0.79299
 O926 O 0.75166 0.30445 0.82427
 O927 O 0.80314 0.27696 0.80255
 O928 O 0.76741 0.26162 0.82899
 O929 O 0.77077 0.33268 0.74992
 O930 O 0.74791 0.22366 0.82028
 O931 O 0.77906 0.31943 0.79180
 O932 O 0.81835 0.25093 0.77061
 O933 O 0.77161 0.24334 0.78271
 O934 O 0.78103 0.28269 0.75624
 O935 O 0.72907 0.26392 0.79351
 O936 O 0.73853 0.30213 0.76847
 Zr937 Zr 0.72539 0.24533 0.71972
 Zr938 Zr 0.73591 0.22617 0.78109
 Zr939 Zr 0.75447 0.30078 0.73136
 Zr940 Zr 0.78669 0.24461 0.74549
 O941 O 0.73211 0.33405 0.72262
 O942 O 0.80069 0.20792 0.75787
 O943 O 0.76129 0.26297 0.71889
 O944 O 0.75191 0.22554 0.74413
 O945 O 0.70890 0.24430 0.75644
 O946 O 0.71893 0.28367 0.73019
 C947 C 0.82097 0.26417 0.79160
 C948 C 0.77945 0.33627 0.77323
 C949 C 0.75958 0.23917 0.83566
 O950 O 0.75678 0.19133 0.78658
 O951 O 0.71605 0.19566 0.76380
 O952 O 0.70875 0.20860 0.72170
 C953 C 0.70720 0.19219 0.74054
 O954 O 0.69983 0.30780 0.79954
 Zr955 Zr 0.70393 0.28266 0.76736
 O956 O 0.68632 0.24985 0.71092
 O957 O 0.70425 0.21791 0.80425
 O958 O 0.67658 0.26632 0.79207
 O959 O 0.68783 0.31826 0.75423
 O960 O 0.67174 0.27416 0.74448
 C961 C 0.66853 0.26134 0.72343
 O962 O 0.73741 0.22095 0.68931
 O963 O 0.78746 0.31097 0.71104
 O964 O 0.72529 0.26411 0.68301
 O965 O 0.74748 0.30072 0.69088
 O966 O 0.81530 0.26133 0.72264
 O967 O 0.79256 0.22255 0.71136
 C968 C 0.73587 0.28506 0.67558
 H969 H 0.79723 0.29209 0.75605
 H970 H 0.75478 0.20768 0.73810
 H971 H 0.70735 0.29293 0.71776
 H972 H 0.72188 0.26427 0.81117
 H973 H 0.81915 0.20732 0.75455
 H974 H 0.74704 0.18055 0.79872
 H975 H 0.70711 0.20034 0.81152
 H976 H 0.66063 0.27653 0.78978
 H977 H 0.83114 0.25110 0.72569
 H978 H 0.78436 0.32848 0.70372
 H979 H 0.74220 0.34489 0.71086
 H980 H 0.66964 0.31838 0.75882
 H981 H 0.81004 0.21524 0.71181
 H982 H 0.72240 0.21783 0.67781
 H983 H 0.76659 0.30795 0.83574
 H984 H 0.68166 0.31236 0.80155
 C985 C 0.39987 0.99174 0.27392
 C986 C 0.38957 0.99014 0.29876
 C987 C 0.40398 0.98490 0.32308
 N988 N 0.39089 0.98274 0.34539
 N989 N 0.40288 0.97807 0.36798
 C990 C 0.42848 0.97521 0.36923
 N991 N 0.44179 0.97722 0.34689
 N992 N 0.42971 0.98190 0.32412
 C993 C 0.44068 0.97223 0.39509
 C994 C 0.46670 0.96910 0.40016
 H995 H 0.36912 0.99154 0.30044
 H996 H 0.42814 0.97422 0.41147
 H997 H 0.42025 0.99018 0.27174
 H998 H 0.47968 0.96499 0.38459
 C999 C -0.10758 0.50972 0.77342
 C1000 C -0.09140 0.49001 0.78291
 C1001 C -0.07883 0.49166 0.80878
 N1002 N -0.06354 0.47215 0.81797
 N1003 N -0.05330 0.47303 0.84197
 C1004 C -0.05809 0.49345 0.85762
 N1005 N -0.07324 0.51293 0.84836
 N1006 N -0.08339 0.51208 0.82443
 C1007 C -0.04843 0.49464 0.88466
 C1008 C -0.03126 0.47693 0.89612
 H1009 H -0.08912 0.47252 0.77178
 H1010 H -0.05544 0.51053 0.89618
 H1011 H -0.10872 0.52752 0.78427
 H1012 H -0.02290 0.46175 0.88459
 C1013 C 0.10700 0.01238 0.77434
 C1014 C 0.08136 0.01834 0.77834
 C1015 C 0.07117 0.01738 0.80502
 N1016 N 0.04706 0.02542 0.80999
 N1017 N 0.03814 0.02429 0.83418
 C1018 C 0.05307 0.01505 0.85421
 N1019 N 0.07704 0.00701 0.84915
 N1020 N 0.08590 0.00819 0.82513
 C1021 C 0.04410 0.01264 0.88108
 C1022 C 0.02058 0.02149 0.88979
 H1023 H 0.06886 0.02383 0.76218
 H1024 H 0.05708 0.00313 0.89484
 H1025 H 0.11886 0.00831 0.79146
 H1026 H 0.00764 0.03180 0.87660
 C1027 C 0.60930 0.51180 0.27995
 C1028 C 0.58887 0.49839 0.28999
 C1029 C 0.58142 0.50157 0.31727
 N1030 N 0.55806 0.49446 0.32503
 N1031 N 0.55172 0.49627 0.34999
 C1032 C 0.56867 0.50493 0.36809
 N1033 N 0.59207 0.51182 0.36035
 N1034 N 0.59829 0.51030 0.33539
 C1035 C 0.56257 0.50582 0.39587
 C1036 C 0.53771 0.50720 0.40450
 H1037 H 0.57892 0.48458 0.27801
 H1038 H 0.57820 0.50624 0.40993
 H1039 H 0.61793 0.52626 0.29221
 H1040 H 0.52212 0.50932 0.39050
 C1041 C 0.60179 0.50287 0.23300
 C1042 C 0.58836 0.52459 0.22377
 C1043 C 0.57153 0.52406 0.20050
 N1044 N 0.56517 0.54649 0.18815
 N1045 N 0.55155 0.54649 0.16601
 C1046 C 0.54342 0.52410 0.15552
 N1047 N 0.54938 0.50160 0.16807
 N1048 N 0.56325 0.50159 0.19014
 C1049 C 0.53096 0.52465 0.12961
 C1050 C 0.51728 0.50427 0.11904
 H1051 H 0.59222 0.54311 0.23245
 H1052 H 0.53334 0.54186 0.11789
 H1053 H 0.59766 0.48437 0.22440
 H1054 H 0.51228 0.48799 0.13109
 C1055 C 0.10310 1.01500 0.72492
 C1056 C 0.08766 0.99556 0.71499
 C1057 C 0.07578 0.99785 0.68868
 N1058 N 0.06074 0.97893 0.67916
 N1059 N 0.05145 0.98018 0.65475
 C1060 C 0.05703 1.00035 0.63892
 N1061 N 0.07197 1.01925 0.64850
 N1062 N 0.08112 1.01805 0.67286
 C1063 C 0.04852 1.00166 0.61138
 C1064 C 0.03087 0.98504 0.60014
 H1065 H 0.08604 0.97764 0.72571
 H1066 H 0.05666 1.01655 0.59940
 H1067 H 0.10318 1.03328 0.71456
 H1068 H 0.02145 0.97105 0.61218
 C1069 C -0.10864 0.50836 0.72413
 C1070 C -0.08239 0.51178 0.72250
 C1071 C -0.06953 0.50784 0.69753
 N1072 N -0.04451 0.51320 0.69494
 N1073 N -0.03294 0.50894 0.67241
 C1074 C -0.04601 0.49899 0.65181
 N1075 N -0.07090 0.49358 0.65450
 N1076 N -0.08242 0.49792 0.67686
 C1077 C -0.03434 0.49383 0.62661
 C1078 C -0.00997 0.50120 0.61968
 H1079 H -0.07107 0.51661 0.73954
 H1080 H -0.04640 0.48459 0.61224
 H1081 H -0.11921 0.50494 0.70616
 H1082 H 0.00220 0.51098 0.63355
 C1083 C 0.39693 -0.00957 0.22501
 C1084 C 0.41679 0.00612 0.21731
 C1085 C 0.42720 0.00377 0.19092
 N1086 N 0.44505 0.02026 0.18234
 N1087 N 0.45350 0.01868 0.15803
 C1088 C 0.44432 0.00057 0.14148
 N1089 N 0.42664 -0.01592 0.15014
 N1090 N 0.41827 -0.01436 0.17434
 C1091 C 0.45233 -0.00141 0.11431
 C1092 C 0.47110 0.01359 0.10326
 H1093 H 0.42355 0.02114 0.23010
 H1094 H 0.44281 -0.01564 0.10244
 H1095 H 0.39037 -0.02407 0.21144
 H1096 H 0.48138 0.02731 0.11506
 C1097 C 0.27318 0.38732 -0.00052
 C1098 C 0.29630 0.38302 0.01298
 C1099 C 0.31695 0.40182 0.01292
 N1100 N 0.33710 0.39879 0.02968
 N1101 N 0.35608 0.41548 0.02970
 C1102 C 0.35562 0.43580 0.01287
 N1103 N 0.33551 0.43879 -0.00391
 N1104 N 0.31647 0.42220 -0.00382
 C1105 C 0.37699 0.45362 0.01137
 C1106 C 0.39698 0.45404 0.02970
 H1107 H 0.29934 0.36564 0.02445
 H1108 H 0.37720 0.46657 -0.00527
 H1109 H 0.27099 0.40473 -0.01219
 H1110 H 0.39623 0.44234 0.04723
 C1111 C -0.22031 0.88431 0.49349
 C1112 C -0.19639 0.87715 0.50389
 C1113 C -0.17370 0.89320 0.50103
 N1114 N -0.15241 0.88789 0.51561
 N1115 N -0.13160 0.90193 0.51302
 C1116 C -0.13125 0.92173 0.49558
 N1117 N -0.15250 0.92695 0.48092
 N1118 N -0.17336 0.91304 0.48365
 C1119 C -0.10818 0.93696 0.49172
 C1120 C -0.08732 0.93621 0.50904
 H1121 H -0.19418 0.85935 0.51487
 H1122 H -0.10783 0.94955 0.47481
 H1123 H -0.22199 0.90201 0.48221
 H1124 H -0.08821 0.92495 0.52684
 C1125 C -0.23434 0.11297 1.00592
 C1126 C -0.21653 0.11080 0.98598
 C1127 C -0.19181 0.09715 0.98924
 N1128 N -0.17511 0.09708 0.96940
 N1129 N -0.15249 0.08533 0.97203
 C1130 C -0.14567 0.07318 0.99470
 N1131 N -0.16238 0.07322 1.01453
 N1132 N -0.18498 0.08500 1.01190
 C1133 C -0.12087 0.05976 0.99816
 C1134 C -0.10210 0.05906 0.97920
 H1135 H -0.22029 0.11984 0.96722
 H1136 H -0.11746 0.04972 1.01652
 H1137 H -0.23028 0.10268 1.02400
 H1138 H -0.10521 0.06921 0.96087
 C1139 C 0.28367 0.60628 0.50159
 C1140 C 0.30273 0.60523 0.48301
 C1141 C 0.32719 0.59184 0.48855
 N1142 N 0.34574 0.59182 0.47058
 N1143 N 0.36830 0.58073 0.47589
 C1144 C 0.37314 0.56934 0.49945
 N1145 N 0.35458 0.56931 0.51736
 N1146 N 0.33206 0.58035 0.51204
 C1147 C 0.39798 0.55730 0.50602
 C1148 C 0.41775 0.55574 0.48840
 H1149 H 0.30045 0.61526 0.46456
 H1150 H 0.40059 0.54908 0.52537
 H1151 H 0.28657 0.59508 0.51937
 H1152 H 0.41503 0.56346 0.46886
 C1153 C 0.23760 0.60541 0.50333
 C1154 C 0.22014 0.60515 0.52356
 C1155 C 0.19746 0.58880 0.52221
 N1156 N 0.18027 0.58922 0.54159
 N1157 N 0.15927 0.57519 0.53990
 C1158 C 0.15473 0.56027 0.51872
 N1159 N 0.17196 0.55980 0.49946
 N1160 N 0.19289 0.57376 0.50116
 C1161 C 0.13142 0.54524 0.51560
 C1162 C 0.11251 0.54382 0.53423
 H1163 H 0.22251 0.61748 0.54028
 H1164 H 0.12901 0.53502 0.49742
 H1165 H 0.23490 0.59186 0.48758
 H1166 H 0.11496 0.55337 0.55278
 C1167 C 0.71801 0.11203 0.00418
 C1168 C 0.69359 0.12249 -0.00021
 C1169 C 0.67038 0.10724 -0.00202
 N1170 N 0.65179 0.11462 -0.01930
 N1171 N 0.63012 0.10184 -0.02093
 C1172 C 0.62588 0.08163 -0.00483
 N1173 N 0.64439 0.07427 0.01269
 N1174 N 0.66634 0.08681 0.01401
 C1175 C 0.60210 0.06739 -0.00779
 C1176 C 0.58941 0.05662 0.01313
 H1177 H 0.69162 0.14281 -0.00488
 H1178 H 0.59341 0.06682 -0.02710
 H1179 H 0.72030 0.09158 0.00812
 H1180 H 0.59640 0.05959 0.03286
 C1181 C 0.73240 0.88449 0.49519
 C1182 C 0.70817 0.87503 0.48947
 C1183 C 0.68481 0.89081 0.49165
 N1184 N 0.66256 0.88232 0.48127
 N1185 N 0.64114 0.89607 0.48357
 C1186 C 0.64115 0.91877 0.49655
 N1187 N 0.66338 0.92719 0.50702
 N1188 N 0.68482 0.91354 0.50454
 C1189 C 0.61759 0.93385 0.50024
 C1190 C 0.59505 0.92952 0.48620
 H1191 H 0.70625 0.85537 0.48293
 H1192 H 0.61823 0.94937 0.51421
 H1193 H 0.73403 0.90409 0.50207
 H1194 H 0.59470 0.91528 0.47089
 C1195 C 0.22622 0.38461 1.00058
 C1196 C 0.20253 0.37469 0.99348
 C1197 C 0.17879 0.38979 0.99587
 N1198 N 0.15713 0.38191 0.98376
 N1199 N 0.13549 0.39533 0.98596
 C1200 C 0.13472 0.41704 1.00053
 N1201 N 0.15634 0.42480 1.01276
 N1202 N 0.17798 0.41151 1.01040
 C1203 C 0.11101 0.43190 1.00387
 C1204 C 0.08932 0.42885 0.98814
 H1205 H 0.20140 0.35552 0.98545
 H1206 H 0.11099 0.44650 1.01884
 H1207 H 0.22692 0.40377 1.00877
 H1208 H 0.08968 0.41558 0.97197
 C1209 C 0.00405 0.27489 0.37844
 C1210 C 0.01673 0.28058 0.40171
 C1211 C 0.01634 0.30687 0.41202
 N1212 N 0.02841 0.31210 0.43491
 N1213 N 0.02744 0.33575 0.44472
 C1214 C 0.01434 0.35499 0.43202
 N1215 N 0.00235 0.34977 0.40912
 N1216 N 0.00332 0.32614 0.39931
 C1217 C 0.01269 0.38101 0.44285
 C1218 C 0.02475 0.38704 0.46631
 H1219 H 0.02642 0.26544 0.41283
 H1220 H 0.00164 0.39558 0.43226
 H1221 H -0.00341 0.29081 0.36664
 H1222 H 0.03598 0.37243 0.47665
 C1223 C 0.48807 -0.22526 -0.12246
 C1224 C 0.50075 -0.21827 -0.09953
 C1225 C 0.49713 -0.19261 -0.08830
 N1226 N 0.51191 -0.18514 -0.06786
 N1227 N 0.50985 -0.16133 -0.05861
 C1228 C 0.49297 -0.14416 -0.06951
 N1229 N 0.47802 -0.15171 -0.08976
 N1230 N 0.48009 -0.17549 -0.09901
 C1231 C 0.49103 -0.11760 -0.06023
 C1232 C 0.50645 -0.10857 -0.04006
 H1233 H 0.51477 -0.23115 -0.09055
 H1234 H 0.47725 -0.10479 -0.06976
 H1235 H 0.47458 -0.21158 -0.13120
 H1236 H 0.51999 -0.12147 -0.03030
 C1237 C 0.00462 -0.22980 1.10660
 C1238 C -0.00811 -0.22232 1.08356
 C1239 C -0.00527 -0.19620 1.07271
 N1240 N -0.02017 -0.18793 1.05234
 N1241 N -0.01865 -0.16380 1.04347
 C1242 C -0.00217 -0.14710 1.05470
 N1243 N 0.01285 -0.15546 1.07489
 N1244 N 0.01132 -0.17951 1.08373
 C1245 C -0.00070 -0.12016 1.04600
 C1246 C -0.01571 -0.10997 1.02564
 H1247 H -0.02171 -0.23501 1.07444
 H1248 H 0.01255 -0.10790 1.05625
 H1249 H 0.01734 -0.21612 1.11559
 H1250 H -0.02866 -0.12228 1.01503
 C1251 C 0.50087 0.26621 0.60566
 C1252 C 0.50781 0.28990 0.61596
 C1253 C 0.50780 0.31366 0.60040
 N1254 N 0.51599 0.33570 0.61149
 N1255 N 0.51550 0.35768 0.59800
 C1256 C 0.50670 0.35844 0.57296
 N1257 N 0.49847 0.33639 0.56184
 N1258 N 0.49903 0.31435 0.57533
 C1259 C 0.50572 0.38271 0.55812
 C1260 C 0.51610 0.40513 0.56819
 H1261 H 0.51264 0.29135 0.63647
 H1262 H 0.49686 0.38285 0.53887
 H1263 H 0.49554 0.26508 0.58520
 H1264 H 0.52572 0.40465 0.58706
 C1265 C 0.49036 1.21958 0.60722
 C1266 C 0.50418 1.21083 0.58610
 C1267 C 0.50068 1.18482 0.57592
 N1268 N 0.51647 1.17550 0.55761
 N1269 N 0.51472 1.15120 0.54978
 C1270 C 0.49716 1.13538 0.56007
 N1271 N 0.48120 1.14479 0.57815
 N1272 N 0.48295 1.16906 0.58596
 C1273 C 0.49568 1.10832 0.55258
 C1274 C 0.51143 1.09778 0.53394
 H1275 H 0.51949 1.22226 0.57866
 H1276 H 0.48185 1.09642 0.56208
 H1277 H 0.47557 1.20743 0.61472
 H1278 H 0.52470 1.10986 0.52384
 C1279 C -0.00958 0.72371 1.10582
 C1280 C 0.00555 0.71306 1.08658
 C1281 C 0.00131 0.68679 1.07708
 N1282 N 0.01782 0.67590 1.06034
 N1283 N 0.01529 0.65145 1.05319
 C1284 C -0.00377 0.63695 1.06264
 N1285 N -0.02038 0.64790 1.07923
 N1286 N -0.01786 0.67234 1.08634
 C1287 C -0.00635 0.60973 1.05552
 C1288 C 0.00972 0.59814 1.03776
 H1289 H 0.02238 0.72304 1.08055
 H1290 H -0.02138 0.59875 1.06417
 H1291 H -0.02618 0.71322 1.11173
 H1292 H 0.02420 0.60946 1.02858
 C1293 C 0.50217 0.72735 -0.12360
 C1294 C 0.49063 0.72042 -0.10046
 C1295 C 0.49386 0.69452 -0.08919
 N1296 N 0.48047 0.68787 -0.06800
 N1297 N 0.48228 0.66409 -0.05824
 C1298 C 0.49750 0.64608 -0.06933
 N1299 N 0.51106 0.65278 -0.09042
 N1300 N 0.50923 0.67658 -0.10020
 C1301 C 0.49913 0.61968 -0.05891
 C1302 C 0.48459 0.61239 -0.03788
 H1303 H 0.47766 0.73369 -0.09119
 H1304 H 0.51184 0.60591 -0.06786
 H1305 H 0.51425 0.71326 -0.13298
 H1306 H 0.47201 0.62639 -0.02907
 C1307 C -0.00278 1.22771 0.38726
 C1308 C -0.00364 1.20195 0.37985
 C1309 C -0.00713 1.18027 0.39774
 N1310 N -0.00557 1.15614 0.38810
 N1311 N -0.00728 1.13580 0.40375
 C1312 C -0.01068 1.13873 0.42969
 N1313 N -0.01277 1.16293 0.43938
 N1314 N -0.01095 1.18341 0.42366
 C1315 C -0.01082 1.11590 0.44687
 C1316 C -0.00046 1.09282 0.43803
 H1317 H -0.00048 1.19725 0.35962
 H1318 H -0.01782 1.11744 0.46650
 H1319 H -0.00626 1.23288 0.40730
 H1320 H 0.00809 1.09240 0.41900
 C1321 C 0.75079 0.62333 0.97326
 C1322 C 0.73964 0.64724 0.96691
 C1323 C 0.74382 0.65984 0.94160
 N1324 N 0.73324 0.68333 0.93615
 N1325 N 0.73648 0.69454 0.91301
 C1326 C 0.75042 0.68262 0.89453
 N1327 N 0.76103 0.65921 0.90004
 N1328 N 0.75784 0.64805 0.92314
 C1329 C 0.75329 0.69379 0.86840
 C1330 C 0.74390 0.71812 0.86112
 H1331 H 0.72718 0.65670 0.98048
 H1332 H 0.76266 0.68192 0.85412
 H1333 H 0.76222 0.61389 0.95871
 H1334 H 0.73539 0.73056 0.87548
 C1335 C 0.25717 0.12737 0.47680
 C1336 C 0.24114 0.14734 0.46769
 C1337 C 0.24376 0.15830 0.44131
 N1338 N 0.22795 0.17755 0.43258
 N1339 N 0.22977 0.18685 0.40839
 C1340 C 0.24741 0.17712 0.39203
 N1341 N 0.26319 0.15793 0.40079
 N1342 N 0.26141 0.14871 0.42493
 C1343 C 0.24971 0.18653 0.36510
 C1344 C 0.23573 0.20740 0.35480
 H1345 H 0.22566 0.15400 0.47959
 H1346 H 0.26343 0.17677 0.35306
 H1347 H 0.27217 0.12072 0.46423
 H1348 H 0.22253 0.21779 0.36693
 C1349 C 0.75893 0.37024 0.47786
 C1350 C 0.76884 0.34585 0.47196
 C1351 C 0.76494 0.33468 0.44582
 N1352 N 0.77685 0.31234 0.43916
 N1353 N 0.77369 0.30261 0.41531
 C1354 C 0.75846 0.31491 0.39730
 N1355 N 0.74651 0.33710 0.40404
 N1356 N 0.74969 0.34679 0.42778
 C1357 C 0.75459 0.30512 0.37070
 C1358 C 0.76642 0.28303 0.36100
 H1359 H 0.78032 0.33529 0.48628
 H1360 H 0.74179 0.31625 0.35804
 H1361 H 0.74886 0.38074 0.46239
 H1362 H 0.77928 0.27170 0.37339
 C1363 C 0.23985 0.87004 0.97201
 C1364 C 0.25021 0.84625 0.96481
 C1365 C 0.24569 0.83586 0.93844
 N1366 N 0.25634 0.81302 0.93143
 N1367 N 0.25293 0.80403 0.90733
 C1368 C 0.23874 0.81760 0.88937
 N1369 N 0.22805 0.84033 0.89644
 N1370 N 0.23142 0.84927 0.92048
 C1371 C 0.23555 0.80889 0.86229
 C1372 C 0.24541 0.78559 0.85326
 H1373 H 0.26251 0.83554 0.97829
 H1374 H 0.22556 0.82180 0.84877
 H1375 H 0.22855 0.88068 0.95753
 H1376 H 0.25487 0.77230 0.86678
 C1377 C 0.25131 0.86660 0.02091
 C1378 C 0.23836 0.84400 0.02686
 C1379 C 0.24136 0.83144 0.05270
 N1380 N 0.22619 0.81169 0.05964
 N1381 N 0.22808 0.80122 0.08349
 C1382 C 0.24526 0.81018 0.10121
 N1383 N 0.26050 0.82972 0.09415
 N1384 N 0.25859 0.84016 0.07043
 C1385 C 0.24756 0.79995 0.12800
 C1386 C 0.23291 0.78019 0.13824
 H1387 H 0.22476 0.83628 0.01301
 H1388 H 0.26164 0.80897 0.14047
 H1389 H 0.26411 0.87413 0.03571
 H1390 H 0.21914 0.77051 0.12597
 C1391 C 0.76757 0.36689 0.52670
 C1392 C 0.75048 0.34783 0.53379
 C1393 C 0.75149 0.33630 0.56018
 N1394 N 0.73345 0.31957 0.56785
 N1395 N 0.73336 0.31062 0.59231
 C1396 C 0.75127 0.31820 0.60998
 N1397 N 0.76933 0.33473 0.60223
 N1398 N 0.76945 0.34358 0.57785
 C1399 C 0.75113 0.30999 0.63746
 C1400 C 0.73482 0.29166 0.64755
 H1401 H 0.73477 0.34327 0.52077
 H1402 H 0.76486 0.31893 0.65040
 H1403 H 0.78279 0.37145 0.54036
 H1404 H 0.72191 0.28150 0.63470
 C1405 C 0.24923 0.12891 0.52560
 C1406 C 0.25746 0.15424 0.52858
 C1407 C 0.25262 0.16839 0.55286
 N1408 N 0.26311 0.19175 0.55725
 N1409 N 0.25908 0.20416 0.57953
 C1410 C 0.24428 0.19366 0.59809
 N1411 N 0.23366 0.17049 0.59355
 N1412 N 0.23772 0.15812 0.57140
 C1413 C 0.24034 0.20588 0.62346
 C1414 C 0.25141 0.22890 0.63128
 H1415 H 0.26794 0.16356 0.51334
 H1416 H 0.22904 0.19529 0.63718
 H1417 H 0.24057 0.11977 0.54220
 H1418 H 0.26227 0.24005 0.61764
 C1419 C 0.74095 0.62451 0.02199
 C1420 C 0.75248 0.64799 0.02744
 C1421 C 0.74834 0.66120 0.05228
 N1422 N 0.76061 0.68336 0.05787
 N1423 N 0.75759 0.69482 0.08080
 C1424 C 0.74216 0.68449 0.09888
 N1425 N 0.72979 0.66250 0.09317
 N1426 N 0.73279 0.65110 0.07031
 C1427 C 0.73964 0.69553 0.12492
 C1428 C 0.75148 0.71806 0.13289
 H1429 H 0.76535 0.65640 0.01370
 H1430 H 0.72871 0.68469 0.13877
 H1431 H 0.72920 0.61611 0.03683
 H1432 H 0.76151 0.72972 0.11901
 C1433 C 0.14604 0.52138 0.24957
 C1434 C 0.13622 0.54523 0.24092
 C1435 C 0.15189 0.56847 0.24023
 N1436 N 0.14281 0.59040 0.22852
 N1437 N 0.15642 0.61185 0.22883
 C1438 C 0.17954 0.61216 0.24105
 N1439 N 0.18857 0.59026 0.25274
 N1440 N 0.17507 0.56881 0.25228
 C1441 C 0.19438 0.63581 0.24317
 C1442 C 0.18936 0.65809 0.22841
 H1443 H 0.11643 0.54733 0.23530
 H1444 H 0.21030 0.63546 0.25689
 H1445 H 0.16590 0.52053 0.25558
 H1446 H 0.17484 0.65816 0.21315
 C1447 C 0.64895 0.03195 0.75702
 C1448 C 0.64971 0.05042 0.73701
 C1449 C 0.66186 0.07556 0.74101
 N1450 N 0.66142 0.09354 0.72162
 N1451 N 0.67168 0.11659 0.72536
 C1452 C 0.68270 0.12251 0.74868
 N1453 N 0.68318 0.10452 0.76800
 N1454 N 0.67295 0.08153 0.76426
 C1455 C 0.69407 0.14780 0.75356
 C1456 C 0.69474 0.16751 0.73492
 H1457 H 0.64067 0.04700 0.71829
 H1458 H 0.70250 0.15083 0.77271
 H1459 H 0.65910 0.03594 0.77511
 H1460 H 0.68655 0.16458 0.71565
 C1461 C 0.85203 0.02236 0.24524
 C1462 C 0.85395 0.04049 0.26527
 C1463 C 0.84089 0.06580 0.26316
 N1464 N 0.84353 0.08350 0.28237
 N1465 N 0.83240 0.10671 0.28010
 C1466 C 0.81830 0.11304 0.25844
 N1467 N 0.81567 0.09535 0.23932
 N1468 N 0.82675 0.07222 0.24161
 C1469 C 0.80571 0.13836 0.25500
 C1470 C 0.80614 0.15800 0.27348
 H1471 H 0.86578 0.03670 0.28237
 H1472 H 0.79502 0.14133 0.23693
 H1473 H 0.83916 0.02674 0.22898
 H1474 H 0.81652 0.15526 0.29176
 C1475 C 0.35199 0.53119 0.74919
 C1476 C 0.34797 0.54881 0.76927
 C1477 C 0.33250 0.57249 0.76491
 N1478 N 0.32938 0.58966 0.78447
 N1479 N 0.31622 0.61154 0.78036
 C1480 C 0.30572 0.61705 0.75651
 N1481 N 0.30876 0.59984 0.73704
 N1482 N 0.32187 0.57801 0.74114
 C1483 C 0.29186 0.64143 0.75106
 C1484 C 0.28773 0.66026 0.76985
 H1485 H 0.35675 0.54583 0.78830
 H1486 H 0.28509 0.64482 0.73123
 H1487 H 0.34195 0.53458 0.73078
 H1488 H 0.29407 0.65682 0.78980
 C1489 C 0.35309 0.48454 0.74637
 C1490 C 0.35400 0.46664 0.72609
 C1491 C 0.33834 0.44327 0.72668
 N1492 N 0.33981 0.42545 0.70747
 N1493 N 0.32641 0.40385 0.70864
 C1494 C 0.31107 0.39934 0.72911
 N1495 N 0.30955 0.41720 0.74815
 N1496 N 0.32287 0.43871 0.74697
 C1497 C 0.29695 0.37530 0.73203
 C1498 C 0.29618 0.35554 0.71370
 H1499 H 0.36669 0.46919 0.71002
 H1500 H 0.28691 0.37297 0.75009
 H1501 H 0.33939 0.48148 0.76153
 H1502 H 0.30516 0.35789 0.69506
 C1503 C 0.84838 0.97572 0.24170
 C1504 C 0.84471 0.95892 0.22075
 C1505 C 0.82917 0.93568 0.22317
 N1506 N 0.82778 0.91858 0.20331
 N1507 N 0.81501 0.89675 0.20591
 C1508 C 0.80316 0.89127 0.22851
 N1509 N 0.80437 0.90847 0.24823
 N1510 N 0.81712 0.93023 0.24563
 C1511 C 0.79015 0.86676 0.23266
 C1512 C 0.78853 0.84733 0.21403
 H1513 H 0.85430 0.96189 0.20258
 H1514 H 0.78233 0.86357 0.25175
 H1515 H 0.83746 0.97257 0.25909
 H1516 H 0.79568 0.85051 0.19466
 C1517 C 0.65367 0.98529 0.75995
 C1518 C 0.65466 0.96668 0.77987
 C1519 C 0.67086 0.94336 0.77781
 N1520 N 0.67012 0.92448 0.79626
 N1521 N 0.68330 0.90254 0.79349
 C1522 C 0.69768 0.89871 0.77214
 N1523 N 0.69859 0.91767 0.75388
 N1524 N 0.68547 0.93954 0.75666
 C1525 C 0.71087 0.87406 0.76739
 C1526 C 0.71111 0.85326 0.78481
 H1527 H 0.64242 0.96819 0.79644
 H1528 H 0.71987 0.87191 0.74873
 H1529 H 0.66724 0.98349 0.74443
 H1530 H 0.70312 0.85546 0.80395
 C1531 C 0.14753 0.47492 0.25994
 C1532 C 0.13915 0.45061 0.26760
 C1533 C 0.15568 0.42748 0.26696
 N1534 N 0.14780 0.40495 0.27742
 N1535 N 0.16200 0.38356 0.27575
 C1536 C 0.18453 0.38392 0.26335
 N1537 N 0.19239 0.40644 0.25291
 N1538 N 0.17829 0.42783 0.25474
 C1539 C 0.19984 0.36033 0.25980
 C1540 C 0.19561 0.33733 0.27316
 H1541 H 0.11969 0.44805 0.27312
 H1542 H 0.21519 0.36122 0.24610
 H1543 H 0.16711 0.47637 0.25406
 H1544 H 0.18158 0.33669 0.28827
 C1545 C 0.02855 0.24019 0.85281
 C1546 C 0.05219 0.24831 0.86223
 C1547 C 0.07558 0.24491 0.84772
 N1548 N 0.09384 0.26289 0.84992
 N1549 N 0.11503 0.26083 0.83641
 C1550 C 0.11888 0.24047 0.82052
 N1551 N 0.10084 0.22214 0.81867
 N1552 N 0.07940 0.22443 0.83189
 C1553 C 0.14204 0.23865 0.80534
 C1554 C 0.15234 0.26073 0.79466
 H1555 H 0.05347 0.26000 0.87956
 H1556 H 0.15029 0.21988 0.80136
 H1557 H 0.02788 0.22818 0.83563
 H1558 H 0.14203 0.27891 0.79567
 C1559 C 0.52471 0.74370 0.34917
 C1560 C 0.54978 0.73928 0.35757
 C1561 C 0.57129 0.73960 0.33999
 N1562 N 0.59482 0.73346 0.34947
 N1563 N 0.61484 0.73453 0.33416
 C1564 C 0.61207 0.74190 0.30881
 N1565 N 0.58850 0.74804 0.29928
 N1566 N 0.56843 0.74688 0.31460
 C1567 C 0.63420 0.74386 0.29208
 C1568 C 0.65824 0.73575 0.30082
 H1569 H 0.55378 0.73597 0.37814
 H1570 H 0.63155 0.75193 0.27266
 H1571 H 0.52064 0.74693 0.32860
 H1572 H 0.66059 0.72683 0.31990
 C1573 C 0.52058 0.25748 0.13907
 C1574 C 0.52989 0.24183 0.15945
 C1575 C 0.55473 0.24671 0.17197
 N1576 N 0.56451 0.23007 0.19021
 N1577 N 0.58783 0.23330 0.20012
 C1578 C 0.60223 0.25322 0.19206
 N1579 N 0.59237 0.26994 0.17401
 N1580 N 0.56908 0.26674 0.16415
 C1581 C 0.62844 0.25642 0.20170
 C1582 C 0.63936 0.24054 0.22097
 H1583 H 0.51997 0.22444 0.16450
 H1584 H 0.63949 0.27162 0.19316
 H1585 H 0.53095 0.27473 0.13437
 H1586 H 0.62804 0.22595 0.23019
 C1587 C 0.01348 0.74910 0.64085
 C1588 C 0.03682 0.75328 0.62940
 C1589 C 0.06001 0.75524 0.64544
 N1590 N 0.08212 0.76222 0.63454
 N1591 N 0.10329 0.76364 0.64909
 C1592 C 0.10301 0.75803 0.67498
 N1593 N 0.08094 0.75098 0.68581
 N1594 N 0.05981 0.74968 0.67132
 C1595 C 0.12609 0.75855 0.69120
 C1596 C 0.14882 0.76807 0.68217
 H1597 H 0.03817 0.75471 0.60844
 H1598 H 0.12510 0.75100 0.71090
 H1599 H 0.01288 0.74829 0.66193
 H1600 H 0.14963 0.77675 0.66295
 C1601 C 0.96804 0.73955 0.64362
 C1602 C 0.94361 0.73419 0.63463
 C1603 C 0.92222 0.73446 0.65232
 N1604 N 0.89844 0.73033 0.64293
 N1605 N 0.87868 0.73222 0.65856
 C1606 C 0.88203 0.73841 0.68405
 N1607 N 0.90583 0.74237 0.69348
 N1608 N 0.92558 0.74042 0.67787
 C1609 C 0.86036 0.74166 0.70109
 C1610 C 0.83589 0.73668 0.69219
 H1611 H 0.93988 0.73169 0.61397
 H1612 H 0.86371 0.74828 0.72081
 H1613 H 0.97108 0.74250 0.66432
 H1614 H 0.83276 0.72920 0.67276
 C1615 C 0.47448 0.24404 0.13380
 C1616 C 0.46731 0.25417 0.15775
 C1617 C 0.44159 0.25042 0.16778
 N1618 N 0.43454 0.26185 0.19025
 N1619 N 0.41108 0.25913 0.19906
 C1620 C 0.39382 0.24488 0.18569
 N1621 N 0.40092 0.23338 0.16331
 N1622 N 0.42434 0.23610 0.15452
 C1623 C 0.36768 0.24200 0.19474
 C1624 C 0.35906 0.25357 0.21739
 H1625 H 0.48028 0.26604 0.16881
 H1626 H 0.35480 0.23060 0.18301
 H1627 H 0.46052 0.23326 0.12278
 H1628 H 0.37199 0.26485 0.22918
 C1629 C 0.47886 0.75299 0.35446
 C1630 C 0.46774 0.73598 0.33691
 C1631 C 0.44184 0.74020 0.32657
 N1632 N 0.43175 0.72340 0.30929
 N1633 N 0.40788 0.72645 0.30062
 C1634 C 0.39324 0.74634 0.30904
 N1635 N 0.40334 0.76315 0.32630
 N1636 N 0.42721 0.76014 0.33491
 C1637 C 0.36677 0.74969 0.30012
 C1638 C 0.35615 0.73420 0.28091
 H1639 H 0.47786 0.71850 0.33170
 H1640 H 0.35550 0.76493 0.30869
 H1641 H 0.46865 0.77056 0.35926
 H1642 H 0.36769 0.71956 0.27170
 C1643 C 0.98345 0.25281 0.84460
 C1644 C 0.96011 0.26380 0.85119
 C1645 C 0.93711 0.26284 0.83480
 N1646 N 0.91550 0.27364 0.84383
 N1647 N 0.89372 0.27156 0.83058
 C1648 C 0.89264 0.25848 0.80781
 N1649 N 0.91434 0.24783 0.79856
 N1650 N 0.93624 0.24991 0.81188
 C1651 C 0.86821 0.25556 0.79383
 C1652 C 0.84600 0.26554 0.80436
 H1653 H 0.95787 0.27176 0.87045
 H1654 H 0.86767 0.24556 0.77540
 H1655 H 0.98532 0.24403 0.82563
 H1656 H 0.84693 0.27561 0.82275
 C1657 C 0.62045 1.00268 0.73055
 C1658 C 0.59947 1.01713 0.72134
 C1659 C 0.58990 1.01421 0.69428
 N1660 N 0.56964 1.02837 0.68517
 N1661 N 0.56141 1.02603 0.66053
 C1662 C 0.57325 1.00953 0.64410
 N1663 N 0.59346 0.99546 0.65323
 N1664 N 0.60161 0.99776 0.67779
 C1665 C 0.56464 1.00616 0.61691
 C1666 C 0.54303 1.01826 0.60606
 H1667 H 0.59083 1.03147 0.73369
 H1668 H 0.57539 0.99271 0.60526
 H1669 H 0.62881 0.98880 0.71744
 H1670 H 0.53194 1.03143 0.61768
 C1671 C 0.11332 0.49209 1.23136
 C1672 C 0.09086 0.50521 1.22403
 C1673 C 0.08019 0.50297 1.19730
 N1674 N 0.06045 0.51830 1.18896
 N1675 N 0.05182 0.51722 1.16433
 C1676 C 0.06273 0.50081 1.14718
 N1677 N 0.08228 0.48543 1.15560
 N1678 N 0.09086 0.48651 1.18012
 C1679 C 0.05421 0.49917 1.11977
 C1680 C 0.03394 0.51341 1.10872
 H1681 H 0.08218 0.51867 1.23729
 H1682 H 0.06434 0.48550 1.10781
 H1683 H 0.12170 0.47928 1.21722
 H1684 H 0.02331 0.52681 1.12052
 C1685 C -0.11725 -0.00050 1.21832
 C1686 C -0.09877 -0.01850 1.21092
 C1687 C -0.08920 -0.01839 1.18411
 N1688 N -0.06987 -0.03438 1.17708
 N1689 N -0.06186 -0.03455 1.15254
 C1690 C -0.07313 -0.01889 1.13420
 N1691 N -0.09245 -0.00310 1.14126
 N1692 N -0.10031 -0.00284 1.16568
 C1693 C -0.06508 -0.01808 1.10701
 C1694 C -0.04329 -0.03015 1.09755
 H1695 H -0.09248 -0.03357 1.22437
 H1696 H -0.07645 -0.00578 1.09404
 H1697 H -0.12303 0.01427 1.20427
 H1698 H -0.03146 -0.04224 1.11027
 C1699 C 0.38865 0.51137 0.72821
 C1700 C 0.40957 0.49521 0.72357
 C1701 C 0.42476 0.49879 0.69991
 N1702 N 0.44377 0.48198 0.69387
 N1703 N 0.45651 0.48475 0.67178
 C1704 C 0.45066 0.50447 0.65501
 N1705 N 0.43186 0.52129 0.66121
 N1706 N 0.41923 0.51855 0.68317
 C1707 C 0.46273 0.50746 0.62958
 C1708 C 0.48303 0.49252 0.62069
 H1709 H 0.41396 0.47923 0.73666
 H1710 H 0.45451 0.52220 0.61679
 H1711 H 0.38457 0.52674 0.71425
 H1712 H 0.49264 0.47872 0.63354
 C1713 C 0.38348 0.50450 -0.22356
 C1714 C 0.40252 0.52060 -0.21404
 C1715 C 0.41167 0.51855 -0.18665
 N1716 N 0.43083 0.53352 -0.17766
 N1717 N 0.43861 0.53204 -0.15274
 C1718 C 0.42738 0.51562 -0.13589
 N1719 N 0.40824 0.50075 -0.14489
 N1720 N 0.40056 0.50217 -0.16974
 C1721 C 0.43523 0.51359 -0.10821
 C1722 C 0.45624 0.52607 -0.09753
 H1723 H 0.40996 0.53551 -0.22649
 H1724 H 0.42427 0.50110 -0.09591
 H1725 H 0.37636 0.48999 -0.21040
 H1726 H 0.46778 0.53796 -0.10986
 C1727 C -0.11534 0.99228 0.26670
 C1728 C -0.09365 1.00638 0.27290
 C1729 C -0.08022 1.00246 0.29818
 N1730 N -0.06083 1.01793 0.30560
 N1731 N -0.04965 1.01508 0.32907
 C1732 C -0.05751 0.99662 0.34588
 N1733 N -0.07668 0.98109 0.33832
 N1734 N -0.08779 0.98393 0.31497
 C1735 C -0.04680 0.99355 0.37239
 C1736 C -0.02664 1.00771 0.38255
 H1737 H -0.08749 1.02138 0.25980
 H1738 H -0.05572 0.97941 0.38468
 H1739 H -0.12141 0.97800 0.28069
 H1740 H -0.01670 1.02111 0.37028
 C1741 C 0.11534 0.50364 0.27995
 C1742 C 0.09436 0.48991 0.28835
 C1743 C 0.08657 0.49070 0.31583
 N1744 N 0.06769 0.47544 0.32435
 N1745 N 0.06164 0.47503 0.34948
 C1746 C 0.07436 0.48979 0.36702
 N1747 N 0.09311 0.50510 0.35846
 N1748 N 0.09912 0.50552 0.33340
 C1749 C 0.06844 0.48964 0.39494
 C1750 C 0.04872 0.47556 0.40550
 H1751 H 0.08484 0.47683 0.27520
 H1752 H 0.07975 0.50179 0.40756
 H1753 H 0.12453 0.51629 0.29383
 H1754 H 0.03691 0.46388 0.39292
 C1755 C 0.61536 0.00832 -0.22129
 C1756 C 0.59717 -0.01030 -0.21597
 C1757 C 0.58237 -0.00888 -0.19183
 N1758 N 0.56751 -0.02866 -0.18421
 N1759 N 0.55548 -0.02776 -0.16153
 C1760 C 0.55793 -0.00698 -0.14575
 N1761 N 0.57250 0.01278 -0.15357
 N1762 N 0.58444 0.01187 -0.17610
 C1763 C 0.54674 -0.00551 -0.11980
 C1764 C 0.53027 -0.02328 -0.10888
 H1765 H 0.59511 -0.02674 -0.22863
 H1766 H 0.55226 0.01101 -0.10834
 H1767 H 0.61733 0.02410 -0.20772
 H1768 H 0.52286 -0.03901 -0.12032
 C1769 C 0.72288 0.59124 -0.00582
 C1770 C 0.69948 0.60078 -0.01541
 C1771 C 0.67559 0.58682 -0.01231
 N1772 N 0.65407 0.59551 -0.02470
 N1773 N 0.63194 0.58415 -0.02080
 C1774 C 0.63047 0.56379 -0.00416
 N1775 N 0.65198 0.55510 0.00824
 N1776 N 0.67415 0.56635 0.00420
 C1777 C 0.60597 0.55188 0.00145
 C1778 C 0.58407 0.55681 -0.01365
 H1779 H 0.69821 0.61971 -0.02425
 H1780 H 0.60523 0.53867 0.01785
 H1781 H 0.72330 0.57230 0.00323
 H1782 H 0.58514 0.56858 -0.03110
 C1783 C 0.22952 1.09522 0.49978
 C1784 C 0.21236 1.09376 0.47863
 C1785 C 0.18840 1.07962 0.48076
 N1786 N 0.17109 1.07992 0.46074
 N1787 N 0.14891 1.06812 0.46305
 C1788 C 0.14325 1.05561 0.48550
 N1789 N 0.16060 1.05519 0.50539
 N1790 N 0.18271 1.06697 0.50309
 C1791 C 0.11870 1.04309 0.48912
 C1792 C 0.09936 1.04265 0.47010
 H1793 H 0.21578 1.10380 0.46056
 H1794 H 0.11569 1.03411 0.50791
 H1795 H 0.22559 1.08386 0.51701
 H1796 H 0.10230 1.05119 0.45110
 C1797 C 0.22276 -0.09861 1.00266
 C1798 C 0.19917 -0.10804 1.01003
 C1799 C 0.17563 -0.09227 1.00912
 N1800 N 0.15413 -0.10159 1.01959
 N1801 N 0.13226 -0.08837 1.01756
 C1802 C 0.13103 -0.06538 1.00476
 N1803 N 0.15254 -0.05605 0.99430
 N1804 N 0.17444 -0.06919 0.99650
 C1805 C 0.10676 -0.05119 1.00094
 C1806 C 0.08483 -0.05725 1.01441
 H1807 H 0.19738 -0.12800 1.01554
 H1808 H 0.10620 -0.03537 0.98705
 H1809 H 0.22358 -0.07854 0.99680
 H1810 H 0.08569 -0.07184 1.02961
 C1811 C 0.74090 0.40297 0.50633
 C1812 C 0.72471 0.40416 0.52767
 C1813 C 0.70078 0.41939 0.52653
 N1814 N 0.68420 0.41833 0.54645
 N1815 N 0.66191 0.43090 0.54487
 C1816 C 0.65542 0.44501 0.52326
 N1817 N 0.67208 0.44622 0.50350
 N1818 N 0.69429 0.43367 0.50508
 C1819 C 0.63052 0.45804 0.52004
 C1820 C 0.61141 0.45772 0.53857
 H1821 H 0.72876 0.39295 0.54514
 H1822 H 0.62686 0.46776 0.50156
 H1823 H 0.73655 0.41562 0.48987
 H1824 H 0.61497 0.44878 0.55746
 C1825 C -0.21291 0.40119 0.50094
 C1826 C -0.18985 0.39200 0.49126
 C1827 C -0.16608 0.40652 0.49359
 N1828 N -0.14517 0.39851 0.48068
 N1829 N -0.12321 0.41073 0.48352
 C1830 C -0.12130 0.43132 0.49957
 N1831 N -0.14219 0.43930 0.51249
 N1832 N -0.16418 0.42720 0.50950
 C1833 C -0.09691 0.44423 0.50417
 C1834 C -0.07569 0.44018 0.48876
 H1835 H -0.18889 0.37329 0.48224
 H1836 H -0.09571 0.45751 0.52031
 H1837 H -0.21313 0.41985 0.51028
 H1838 H -0.07723 0.42833 0.47154
 C1839 C 0.26880 -0.09903 -0.00614
 C1840 C 0.29186 -0.10802 -0.01610
 C1841 C 0.31538 -0.09286 -0.01494
 N1842 N 0.33627 -0.10101 -0.02782
 N1843 N 0.35798 -0.08815 -0.02605
 C1844 C 0.35965 -0.06670 -0.01116
 N1845 N 0.33878 -0.05858 0.00172
 N1846 N 0.31705 -0.07133 -0.00018
 C1847 C 0.38377 -0.05287 -0.00770
 C1848 C 0.40505 -0.05715 -0.02304
 H1849 H 0.29301 -0.12705 -0.02441
 H1850 H 0.38468 -0.03858 0.00754
 H1851 H 0.26851 -0.08009 0.00260
 H1852 H 0.40383 -0.07017 -0.03938
 C1853 C 0.27570 1.09431 0.50627
 C1854 C 0.29926 1.10286 0.51553
 C1855 C 0.32230 1.08637 0.51537
 N1856 N 0.34403 1.09427 0.52732
 N1857 N 0.36529 1.08004 0.52631
 C1858 C 0.36560 1.05744 0.51317
 N1859 N 0.34387 1.04956 0.50123
 N1860 N 0.32261 1.06370 0.50238
 C1861 C 0.38913 1.04214 0.51036
 C1862 C 0.41139 1.04669 0.52474
 H1863 H 0.30107 1.12239 0.52242
 H1864 H 0.38891 1.02680 0.49618
 H1865 H 0.27455 1.07480 0.49900
 H1866 H 0.41137 1.06085 0.54012
 C1867 C -0.23089 0.59080 1.00327
 C1868 C -0.20759 0.59997 1.01261
 C1869 C -0.18402 0.58435 1.01246
 N1870 N -0.16267 0.59310 1.02450
 N1871 N -0.14082 0.57987 1.02336
 C1872 C -0.13952 0.55746 1.00996
 N1873 N -0.16086 0.54871 0.99795
 N1874 N -0.18272 0.56185 0.99923
 C1875 C -0.11534 0.54331 1.00705
 C1876 C -0.09340 0.54866 1.02164
 H1877 H -0.20616 0.61952 1.01941
 H1878 H -0.11486 0.52805 0.99279
 H1879 H -0.23141 0.57124 0.99607
 H1880 H -0.09410 0.56260 1.03721
 C1881 C -0.00816 0.72351 0.60623
 C1882 C 0.00220 0.69988 0.61434
 C1883 C 0.00365 0.67744 0.59733
 N1884 N 0.01586 0.65587 0.60616
 N1885 N 0.01718 0.63505 0.59135
 C1886 C 0.00628 0.63495 0.56714
 N1887 N -0.00599 0.65656 0.55825
 N1888 N -0.00724 0.67749 0.57308
 C1889 C 0.00713 0.61157 0.55121
 C1890 C 0.02084 0.58996 0.55999
 H1891 H 0.00965 0.69774 0.63409
 H1892 H -0.00365 0.61107 0.53303
 H1893 H -0.01660 0.72532 0.58686
 H1894 H 0.03185 0.59096 0.57802
 C1895 C 0.50777 0.22502 0.10686
 C1896 C 0.49403 0.21497 0.08586
 C1897 C 0.49881 0.18890 0.07611
 N1898 N 0.48459 0.18002 0.05590
 N1899 N 0.48770 0.15596 0.04768
 C1900 C 0.50508 0.13987 0.05942
 N1901 N 0.51940 0.14879 0.07957
 N1902 N 0.51632 0.17289 0.08777
 C1903 C 0.50791 0.11300 0.05110
 C1904 C 0.49373 0.10356 0.03019
 H1905 H 0.47831 0.22601 0.07730
 H1906 H 0.52104 0.10041 0.06183
 H1907 H 0.52322 0.21351 0.11535
 H1908 H 0.48106 0.11645 0.01921
 C1909 C -0.00500 0.22512 0.88171
 C1910 C 0.00946 0.21394 0.90196
 C1911 C 0.00207 0.18927 0.91363
 N1912 N 0.01543 0.17917 0.93424
 N1913 N 0.00951 0.15624 0.94403
 C1914 C -0.00991 0.14256 0.93349
 N1915 N -0.02327 0.15269 0.91294
 N1916 N -0.01742 0.17563 0.90323
 C1917 C -0.01571 0.11662 0.94304
 C1918 C -0.00378 0.10620 0.96521
 H1919 H 0.02691 0.22282 0.90847
 H1920 H -0.02900 0.10519 0.93184
 H1921 H -0.02264 0.21600 0.87603
 H1922 H 0.00879 0.11805 0.97684
 C1923 C 0.49958 0.72224 0.38486
 C1924 C 0.51126 0.69846 0.38019
 C1925 C 0.50619 0.67574 0.39615
 N1926 N 0.52501 0.65814 0.40084
 N1927 N 0.52087 0.63743 0.41545
 C1928 C 0.49762 0.63333 0.42546
 N1929 N 0.47859 0.65066 0.42035
 N1930 N 0.48287 0.67165 0.40607
 C1931 C 0.49340 0.61062 0.44176
 C1932 C 0.51229 0.60226 0.45926
 H1933 H 0.52530 0.69628 0.36530
 H1934 H 0.47539 0.60086 0.44050
 H1935 H 0.48588 0.72323 0.40029
 H1936 H 0.52882 0.61410 0.46250
 C1937 C 0.51031 0.76882 0.38634
 C1938 C 0.49537 0.77708 0.40690
 C1939 C 0.50077 0.80134 0.42032
 N1940 N 0.48573 0.80962 0.43980
 N1941 N 0.48975 0.83232 0.45097
 C1942 C 0.50893 0.84751 0.44300
 N1943 N 0.52404 0.83913 0.42370
 N1944 N 0.52006 0.81646 0.41260
 C1945 C 0.51268 0.87329 0.45364
 C1946 C 0.49861 0.88282 0.47417
 H1947 H 0.47868 0.76647 0.41216
 H1948 H 0.52642 0.88546 0.44435
 H1949 H 0.52642 0.78046 0.38125
 H1950 H 0.48575 0.87037 0.48437
 C1951 C 0.00697 0.27257 0.88078
 C1952 C -0.00137 0.27716 0.90600
 C1953 C 0.00137 0.30279 0.91768
 N1954 N -0.01041 0.30871 0.94019
 N1955 N -0.00870 0.33227 0.95018
 C1956 C 0.00491 0.35068 0.93801
 N1957 N 0.01686 0.34465 0.91571
 N1958 N 0.01511 0.32118 0.90573
 C1959 C 0.00652 0.37702 0.94796
 C1960 C -0.00643 0.38542 0.96978
 H1961 H -0.01117 0.26245 0.91672
 H1962 H 0.01793 0.39044 0.93718
 H1963 H 0.01526 0.28836 0.87012
 H1964 H -0.01775 0.37207 0.98073
 C1965 C 0.49542 0.27096 0.10056
 C1966 C 0.48496 0.29467 0.10756
 C1967 C 0.48647 0.31787 0.09123
 N1968 N 0.47690 0.34036 0.10023
 N1969 N 0.47925 0.36204 0.08662
 C1970 C 0.49133 0.36214 0.06351
 N1971 N 0.50078 0.33957 0.05434
 N1972 N 0.49842 0.31780 0.06800
 C1973 C 0.49447 0.38640 0.04895
 C1974 C 0.48554 0.40951 0.05915
 H1975 H 0.47696 0.29686 0.12668
 H1976 H 0.50385 0.38611 0.03038
 H1977 H 0.50434 0.26928 0.08179
 H1978 H 0.47612 0.40934 0.07772
 C1979 C -0.01763 0.77089 0.61180
 C1980 C -0.00688 0.77870 0.58855
 C1981 C -0.00901 0.80539 0.57927
 N1982 N 0.00425 0.81277 0.55825
 N1983 N 0.00372 0.83723 0.55041
 C1984 C -0.01002 0.85523 0.56331
 N1985 N -0.02352 0.84781 0.58420
 N1986 N -0.02296 0.82331 0.59208
 C1987 C -0.01007 0.88232 0.55501
 C1988 C 0.00515 0.89016 0.53473
 H1989 H 0.00492 0.76545 0.57778
 H1990 H -0.02211 0.89610 0.56483
 H1991 H -0.02852 0.78490 0.62267
 H1992 H 0.01708 0.87614 0.52510
 C1993 C 0.25234 0.35159 0.02385
 C1994 C 0.25104 0.36255 0.04857
 C1995 C 0.25724 0.34897 0.07314
 N1996 N 0.25735 0.36264 0.09550
 N1997 N 0.26293 0.35127 0.11823
 C1998 C 0.26877 0.32579 0.11953
 N1999 N 0.26880 0.31195 0.09713
 N2000 N 0.26323 0.32340 0.07426
 C2001 C 0.27273 0.31389 0.14537
 C2002 C 0.27733 0.28769 0.14998
 H2003 H 0.24688 0.38299 0.04993
 H2004 H 0.26970 0.32641 0.16186
 H2005 H 0.25741 0.33139 0.02210
 H2006 H 0.28202 0.27495 0.13413
 C2007 C 0.75668 0.85170 0.52025
 C2008 C 0.75758 0.86395 0.54435
 C2009 C 0.75716 0.85037 0.56953
 N2010 N 0.75676 0.86439 0.59166
 N2011 N 0.75604 0.85285 0.61483
 C2012 C 0.75578 0.82682 0.61682
 N2013 N 0.75628 0.81263 0.59468
 N2014 N 0.75696 0.82423 0.57140
 C2015 C 0.75428 0.81504 0.64282
 C2016 C 0.75519 0.78857 0.64786
 H2017 H 0.75830 0.88479 0.54474
 H2018 H 0.75229 0.82824 0.65893
 H2019 H 0.75566 0.83089 0.51959
 H2020 H 0.75809 0.77509 0.63216
 C2021 C 0.26244 0.64217 0.52306
 C2022 C 0.24537 0.66233 0.52815
 C2023 C 0.24712 0.67629 0.55312
 N2024 N 0.23002 0.69512 0.55908
 N2025 N 0.23099 0.70655 0.58233
 C2026 C 0.24909 0.69946 0.60039
 N2027 N 0.26618 0.68083 0.59431
 N2028 N 0.26525 0.66953 0.57118
 C2029 C 0.24999 0.71003 0.62686
 C2030 C 0.23543 0.73089 0.63538
 H2031 H 0.22985 0.66666 0.51459
 H2032 H 0.26307 0.70054 0.64055
 H2033 H 0.27752 0.63831 0.53734
 H2034 H 0.22348 0.74184 0.62174
 C2035 C 0.73957 0.14646 0.02820
 C2036 C 0.73740 0.13539 0.05296
 C2037 C 0.73262 0.14969 0.07703
 N2038 N 0.73042 0.13616 0.09951
 N2039 N 0.72631 0.14813 0.12185
 C2040 C 0.72403 0.17413 0.12266
 N2041 N 0.72606 0.18786 0.10013
 N2042 N 0.73021 0.17582 0.07764
 C2043 C 0.72188 0.18631 0.14829
 C2044 C 0.71906 0.21271 0.15271
 H2045 H 0.73829 0.11459 0.05474
 H2046 H 0.72440 0.17353 0.16499
 H2047 H 0.73826 0.16720 0.02605
 H2048 H 0.71443 0.22590 0.13682
 C2049 C 0.73993 0.14525 0.97916
 C2050 C 0.75474 0.16674 0.97392
 C2051 C 0.75484 0.17784 0.94734
 N2052 N 0.76739 0.19990 0.94205
 N2053 N 0.76741 0.20954 0.91782
 C2054 C 0.75501 0.19730 0.89810
 N2055 N 0.74266 0.17528 0.90345
 N2056 N 0.74256 0.16577 0.92753
 C2057 C 0.75421 0.20697 0.87116
 C2058 C 0.76370 0.23057 0.86295
 H2059 H 0.76680 0.17478 0.98902
 H2060 H 0.74456 0.19488 0.85711
 H2061 H 0.72888 0.13734 0.96314
 H2062 H 0.77320 0.24306 0.87670
 C2063 C 0.25627 0.63743 0.47454
 C2064 C 0.27116 0.65775 0.46593
 C2065 C 0.26885 0.66724 0.43873
 N2066 N 0.28369 0.68655 0.43004
 N2067 N 0.28196 0.69454 0.40525
 C2068 C 0.26537 0.68339 0.38826
 N2069 N 0.25060 0.66415 0.39698
 N2070 N 0.25231 0.65624 0.42167
 C2071 C 0.26275 0.69155 0.36078
 C2072 C 0.27565 0.71216 0.34989
 H2073 H 0.28547 0.66576 0.47884
 H2074 H 0.24926 0.68115 0.34879
 H2075 H 0.24253 0.62962 0.46083
 H2076 H 0.28886 0.72300 0.36177
 C2077 C 0.75576 0.85009 0.47138
 C2078 C 0.75296 0.86074 0.44642
 C2079 C 0.74955 0.84569 0.42253
 N2080 N 0.74542 0.85851 0.39973
 N2081 N 0.74218 0.84577 0.37760
 C2082 C 0.74284 0.81968 0.37732
 N2083 N 0.74692 0.80664 0.40015
 N2084 N 0.75014 0.81947 0.42243
 C2085 C 0.74054 0.80685 0.35202
 C2086 C 0.74158 0.78028 0.34784
 H2087 H 0.75214 0.88152 0.44439
 H2088 H 0.73902 0.81966 0.33526
 H2089 H 0.75662 0.82935 0.47373
 H2090 H 0.74148 0.76682 0.36405
 C2091 C 0.25136 0.35323 0.97477
 C2092 C 0.24956 0.36566 0.95054
 C2093 C 0.24786 0.35252 0.92532
 N2094 N 0.24801 0.36700 0.90326
 N2095 N 0.24628 0.35606 0.87999
 C2096 C 0.24411 0.33021 0.87778
 N2097 N 0.24385 0.31554 0.89985
 N2098 N 0.24567 0.32654 0.92326
 C2099 C 0.24324 0.31914 0.85152
 C2100 C 0.23885 0.29330 0.84580
 H2101 H 0.24897 0.38652 0.95000
 H2102 H 0.24646 0.33249 0.83563
 H2103 H 0.25187 0.33238 0.97566
 H2104 H 0.23428 0.27983 0.86114
 C2105 C 0.86195 0.48203 0.74852
 C2106 C 0.85008 0.47126 0.77007
 C2107 C 0.83549 0.44739 0.76751
 N2108 N 0.82857 0.43391 0.78894
 N2109 N 0.81575 0.41206 0.78649
 C2110 C 0.80927 0.40306 0.76249
 N2111 N 0.81597 0.41669 0.74116
 N2112 N 0.82887 0.43837 0.74361
 C2113 C 0.79550 0.37893 0.75886
 C2114 C 0.79128 0.36123 0.77884
 H2115 H 0.85198 0.48011 0.78902
 H2116 H 0.78954 0.37440 0.73911
 H2117 H 0.85941 0.47260 0.72989
 H2118 H 0.79784 0.36518 0.79853
 C2119 C 0.36307 0.97210 0.25071
 C2120 C 0.37034 0.94679 0.25718
 C2121 C 0.35282 0.92509 0.25594
 N2122 N 0.35972 0.90228 0.26726
 N2123 N 0.34454 0.88206 0.26566
 C2124 C 0.32194 0.88389 0.25250
 N2125 N 0.31506 0.90669 0.24111
 N2126 N 0.33017 0.92698 0.24289
 C2127 C 0.30565 0.86135 0.24940
 C2128 C 0.30933 0.83898 0.26431
 H2129 H 0.38970 0.94268 0.26363
 H2130 H 0.29047 0.86236 0.23484
 H2131 H 0.34378 0.97597 0.24382
 H2132 H 0.32329 0.83857 0.28012
 C2133 C 0.13561 0.98635 0.74826
 C2134 C 0.14547 0.97456 0.72612
 C2135 C 0.16013 0.95009 0.72851
 N2136 N 0.16541 0.93577 0.70717
 N2137 N 0.17796 0.91328 0.70963
 C2138 C 0.18578 0.90443 0.73353
 N2139 N 0.18074 0.91890 0.75472
 N2140 N 0.16816 0.94122 0.75227
 C2141 C 0.19892 0.87942 0.73742
 C2142 C 0.20272 0.86128 0.71785
 H2143 H 0.14176 0.98286 0.70698
 H2144 H 0.20478 0.87462 0.75726
 H2145 H 0.14030 0.97747 0.76698
 H2146 H 0.19689 0.86572 0.69794
 C2147 C 0.63538 0.47854 0.25856
 C2148 C 0.64472 0.46388 0.23799
 C2149 C 0.65579 0.43787 0.24215
 N2150 N 0.66046 0.42241 0.22149
 N2151 N 0.67000 0.39867 0.22510
 C2152 C 0.67526 0.38954 0.24953
 N2153 N 0.67073 0.40505 0.27013
 N2154 N 0.66109 0.42870 0.26654
 C2155 C 0.68641 0.36370 0.25422
 C2156 C 0.68923 0.34515 0.23484
 H2157 H 0.64264 0.47113 0.21821
 H2158 H 0.69270 0.35917 0.27398
 H2159 H 0.63809 0.47121 0.27829
 H2160 H 0.68206 0.34906 0.21524
 C2161 C 0.64153 0.52462 0.24763
 C2162 C 0.65988 0.53342 0.26547
 C2163 C 0.67420 0.55718 0.26089
 N2164 N 0.68549 0.56948 0.28123
 N2165 N 0.69709 0.59186 0.27765
 C2166 C 0.69793 0.60268 0.25351
 N2167 N 0.68695 0.59019 0.23316
 N2168 N 0.67520 0.56796 0.23676
 C2169 C 0.71001 0.62766 0.24885
 C2170 C 0.71694 0.64486 0.26855
 H2171 H 0.66170 0.52434 0.28450
 H2172 H 0.71199 0.63340 0.22866
 H2173 H 0.64030 0.53361 0.22850
 H2174 H 0.71403 0.63984 0.28878
 C2175 C 0.14021 0.03334 0.74733
 C2176 C 0.14187 0.05377 0.76499
 C2177 C 0.15854 0.07595 0.76108
 N2178 N 0.15963 0.09474 0.77930
 N2179 N 0.17361 0.11558 0.77559
 C2180 C 0.18701 0.11843 0.75346
 N2181 N 0.18601 0.09958 0.73529
 N2182 N 0.17208 0.07872 0.73902
 C2183 C 0.20137 0.14198 0.74826
 C2184 C 0.20370 0.16193 0.76624
 H2185 H 0.12995 0.05432 0.78189
 H2186 H 0.20963 0.14401 0.72921
 H2187 H 0.15253 0.03346 0.73067
 H2188 H 0.19614 0.15967 0.78558
 C2189 C 0.36767 0.01930 0.25095
 C2190 C 0.36423 0.03702 0.23039
 C2191 C 0.34992 0.06141 0.23383
 N2192 N 0.34815 0.07913 0.21422
 N2193 N 0.33546 0.10130 0.21739
 C2194 C 0.32404 0.10650 0.24031
 N2195 N 0.32576 0.08876 0.25981
 N2196 N 0.33846 0.06668 0.25666
 C2197 C 0.31002 0.13078 0.24470
 C2198 C 0.30824 0.15106 0.22667
 H2199 H 0.37207 0.03321 0.21147
 H2200 H 0.30110 0.13285 0.26341
 H2201 H 0.35863 0.02375 0.26917
 H2202 H 0.31732 0.14935 0.20801
 C2203 C 0.85578 0.52879 0.74924
 C2204 C 0.85178 0.54766 0.72984
 C2205 C 0.83254 0.56842 0.73219
 N2206 N 0.82929 0.58620 0.71280
 N2207 N 0.81270 0.60567 0.71511
 C2208 C 0.79868 0.60804 0.73691
 N2209 N 0.80180 0.59017 0.75619
 N2210 N 0.81835 0.57070 0.75386
 C2211 C 0.78194 0.63057 0.74102
 C2212 C 0.77836 0.65038 0.72265
 H2213 H 0.86321 0.54777 0.71258
 H2214 H 0.77390 0.63260 0.76017
 H2215 H 0.84379 0.52935 0.76616
 H2216 H 0.78566 0.64814 0.70321
 C2217 C 0.97783 0.75218 0.14135
 C2218 C 0.95415 0.76178 0.13295
 C2219 C 0.93198 0.76189 0.14973
 N2220 N 0.90911 0.76992 0.13986
 N2221 N 0.88841 0.76855 0.15419
 C2222 C 0.88983 0.75905 0.17891
 N2223 N 0.91275 0.75125 0.18889
 N2224 N 0.93347 0.75263 0.17455
 C2225 C 0.86694 0.75615 0.19438
 C2226 C 0.84297 0.76314 0.18448
 H2227 H 0.95116 0.76755 0.11282
 H2228 H 0.86895 0.74762 0.21366
 H2229 H 0.98009 0.74550 0.16135
 H2230 H 0.84107 0.77207 0.16538
 C2231 C 0.47740 0.24732 0.64266
 C2232 C 0.45413 0.25847 0.63505
 C2233 C 0.43190 0.25854 0.65168
 N2234 N 0.40982 0.26919 0.64248
 N2235 N 0.38899 0.26844 0.65663
 C2236 C 0.38943 0.25696 0.68049
 N2237 N 0.41158 0.24644 0.68981
 N2238 N 0.43247 0.24720 0.67563
 C2239 C 0.36621 0.25529 0.69568
 C2240 C 0.34327 0.26547 0.68598
 H2241 H 0.45167 0.26629 0.61552
 H2242 H 0.36707 0.24552 0.71441
 H2243 H 0.47918 0.23816 0.66168
 H2244 H 0.34267 0.27540 0.66732
 C2245 C 0.47373 0.74622 0.84265
 C2246 C 0.45021 0.73882 0.85181
 C2247 C 0.42730 0.73965 0.83528
 N2248 N 0.40468 0.73376 0.84569
 N2249 N 0.38334 0.73635 0.83156
 C2250 C 0.38387 0.74500 0.80655
 N2251 N 0.40652 0.75064 0.79603
 N2252 N 0.42789 0.74803 0.81017
 C2253 C 0.36036 0.74921 0.79135
 C2254 C 0.33688 0.74375 0.80174
 H2255 H 0.44798 0.73457 0.87228
 H2256 H 0.36157 0.75712 0.77182
 H2257 H 0.47526 0.75092 0.82213
 H2258 H 0.33579 0.73514 0.82098
 C2259 C 0.98138 0.24717 0.34661
 C2260 C 0.95790 0.25902 0.35106
 C2261 C 0.93492 0.25400 0.33566
 N2262 N 0.91679 0.27270 0.33339
 N2263 N 0.89461 0.26798 0.32170
 C2264 C 0.88956 0.24421 0.31233
 N2265 N 0.90762 0.22536 0.31477
 N2266 N 0.93002 0.23021 0.32614
 C2267 C 0.86450 0.23892 0.30084
 C2268 C 0.85059 0.25856 0.28846
 H2269 H 0.95588 0.27234 0.36703
 H2270 H 0.85694 0.21968 0.30212
 H2271 H 0.98301 0.23389 0.33052
 H2272 H 0.85957 0.27678 0.28448
 C2273 C 0.02854 0.24242 0.35570
 C2274 C 0.03668 0.25259 0.33214
 C2275 C 0.06360 0.25101 0.32512
 N2276 N 0.07053 0.25443 0.30003
 N2277 N 0.09495 0.25336 0.29373
 C2278 C 0.11331 0.24913 0.31235
 N2279 N 0.10639 0.24604 0.33745
 N2280 N 0.08199 0.24685 0.34370
 C2281 C 0.14034 0.24829 0.30584
 C2282 C 0.14830 0.24385 0.28056
 H2283 H 0.02326 0.26217 0.31891
 H2284 H 0.15429 0.25025 0.32149
 H2285 H 0.04251 0.23285 0.36842
 H2286 H 0.13435 0.23993 0.26535
 C2287 C 0.51850 0.75919 0.84560
 C2288 C 0.54218 0.76287 0.85746
 C2289 C 0.56484 0.76734 0.84228
 N2290 N 0.58758 0.77004 0.85470
 N2291 N 0.60869 0.77217 0.84112
 C2292 C 0.60774 0.77166 0.81468
 N2293 N 0.58495 0.76929 0.80226
 N2294 N 0.56384 0.76721 0.81584
 C2295 C 0.63092 0.77134 0.79962
 C2296 C 0.65478 0.77275 0.81156
 H2297 H 0.54456 0.76077 0.87834
 H2298 H 0.62920 0.76815 0.77882
 H2299 H 0.51665 0.76153 0.82464
 H2300 H 0.65664 0.77726 0.83208
 C2301 C 0.52360 0.23640 0.63611
 C2302 C 0.53173 0.24726 0.65952
 C2303 C 0.55830 0.24547 0.66854
 N2304 N 0.56566 0.25844 0.69011
 N2305 N 0.58992 0.25826 0.69783
 C2306 C 0.60775 0.24515 0.68425
 N2307 N 0.60036 0.23195 0.66277
 N2308 N 0.57606 0.23215 0.65502
 C2309 C 0.63464 0.24556 0.69243
 C2310 C 0.64230 0.26027 0.71361
 H2311 H 0.51882 0.25903 0.67066
 H2312 H 0.64841 0.23437 0.68174
 H2313 H 0.53737 0.22561 0.62501
 H2314 H 0.62825 0.27130 0.72411
 C2315 C 0.02278 0.73826 0.13743
 C2316 C 0.03327 0.75355 0.15700
 C2317 C 0.05924 0.74928 0.16715
 N2318 N 0.06875 0.76506 0.18574
 N2319 N 0.09277 0.76243 0.19403
 C2320 C 0.10818 0.74398 0.18395
 N2321 N 0.09863 0.72811 0.16546
 N2322 N 0.07459 0.73071 0.15720
 C2323 C 0.13494 0.74149 0.19220
 C2324 C 0.14522 0.75663 0.21191
 H2325 H 0.02277 0.77024 0.16372
 H2326 H 0.14681 0.72749 0.18246
 H2327 H 0.03376 0.72184 0.13079
 H2328 H 0.13311 0.76999 0.22223
   
