data_POSCAR
  _audit_creation_date              2014-09-24
  _audit_creation_method            'ToBaCCo'
  _symmetry_space_group_name_H-M    'P1'
  _symmetry_Int_Tables_number       1
  _symmetry_cell_setting            triclinic
  loop_
  _symmetry_equiv_pos_as_xyz
 x,y,z
_cell_length_a 41.4374
_cell_length_b 41.5200
_cell_length_c 41.4868
_cell_angle_alpha 89.895500
_cell_angle_beta 90.011900
_cell_angle_gamma 89.907800
loop_
  _atom_site_label
  _atom_site_type_symbol
  _atom_site_fract_x
  _atom_site_fract_y
  _atom_site_fract_z
C1 C 0.24749 0.99813 0.01057
 C2 C 0.24591 0.99766 -0.02204
 C3 C 0.24768 1.02768 -0.04138
 C4 C 0.24312 0.96735 -0.04063
 C5 C 0.25007 0.96861 0.03045
 C6 C 0.24654 1.02855 0.02901
 C7 C 0.22348 1.05132 -0.03995
 C8 C 0.22509 1.07849 -0.05997
 C9 C 0.25088 1.08242 -0.08174
 C10 C 0.27523 1.05874 -0.08261
 C11 C 0.27352 1.03170 -0.06274
 C12 C 0.21683 0.96364 -0.06157
 C13 C 0.21521 0.93734 -0.08235
 C14 C 0.24004 0.91435 -0.08277
 C15 C 0.26596 0.91749 -0.06119
 C16 C 0.26756 0.94389 -0.04025
 C17 C 0.27716 0.96491 0.05040
 C18 C 0.27818 0.94058 0.07356
 C19 C 0.25198 0.91960 0.07736
 C20 C 0.22532 0.92245 0.05660
 C21 C 0.22431 0.94689 0.03327
 C22 C 0.27245 1.05026 0.02852
 C23 C 0.27264 1.07662 0.04950
 C24 C 0.24705 1.08139 0.07116
 C25 C 0.22068 1.06026 0.07068
 C26 C 0.22053 1.03400 0.04987
 H27 H 0.20311 1.04840 -0.02388
 H28 H 0.20586 1.09616 -0.05893
 H29 H 0.29539 1.06041 -0.09899
 H30 H 0.29233 1.01360 -0.06422
 H31 H 0.19785 0.98160 -0.06232
 H32 H 0.19490 0.93561 -0.09859
 H33 H 0.28833 0.94663 -0.02465
 H34 H 0.29713 0.98164 0.04872
 H35 H 0.29913 0.93889 0.08900
 H36 H 0.20491 0.90640 0.05919
 H37 H 0.20298 0.94975 0.01845
 H38 H 0.29291 1.04612 0.01281
 H39 H 0.29319 1.09271 0.04962
 H40 H 0.20057 1.06334 0.08696
 H41 H 0.20044 1.01734 0.05059
 H42 H 0.28539 0.90001 -0.06126
 C43 C 0.74748 0.49663 0.51410
 C44 C 0.74627 0.49676 0.48145
 C45 C 0.74885 0.52700 0.46262
 C46 C 0.74327 0.46689 0.46218
 C47 C 0.74736 0.46660 0.53341
 C48 C 0.74918 0.52680 0.53299
 C49 C 0.72506 0.55105 0.46431
 C50 C 0.72685 0.57808 0.44415
 C51 C 0.75238 0.58129 0.42213
 C52 C 0.77648 0.55754 0.42110
 C53 C 0.77463 0.53059 0.44106
 C54 C 0.71755 0.46417 0.44040
 C55 C 0.71633 0.43865 0.41864
 C56 C 0.74101 0.41550 0.41807
 C57 C 0.76632 0.41763 0.44048
 C58 C 0.76750 0.44322 0.46242
 C59 C 0.77277 0.46116 0.55511
 C60 C 0.77134 0.43577 0.57704
 C61 C 0.74443 0.41545 0.57780
 C62 C 0.71932 0.42016 0.55551
 C63 C 0.72076 0.44570 0.53342
 C64 C 0.77613 0.54718 0.53112
 C65 C 0.77874 0.57360 0.55184
 C66 C 0.75450 0.57976 0.57466
 C67 C 0.72731 0.55981 0.57593
 C68 C 0.72473 0.53346 0.55536
 H69 H 0.70478 0.54845 0.48056
 H70 H 0.70796 0.59611 0.44513
 H71 H 0.79641 0.55924 0.40440
 H72 H 0.79312 0.51220 0.43939
 H73 H 0.69879 0.48236 0.43970
 H74 H 0.69648 0.43766 0.40176
 H75 H 0.78786 0.44524 0.47865
 H76 H 0.79337 0.47719 0.55562
 H77 H 0.79094 0.43241 0.59401
 H78 H 0.69833 0.40472 0.55568
 H79 H 0.70067 0.44989 0.51724
 H80 H 0.79548 0.54204 0.51435
 H81 H 0.79997 0.58868 0.55049
 H82 H 0.70841 0.56424 0.59342
 H83 H 0.70390 0.51782 0.55727
 H84 H 0.78560 0.39999 0.44034
 C85 C 0.75681 0.97907 0.99873
 C86 C 0.75618 1.01174 0.99872
 C87 C 0.75444 1.03069 1.02895
 C88 C 0.75632 1.03097 0.96863
 C89 C 0.75696 0.95984 0.96862
 C90 C 0.75741 0.96023 1.02908
 C91 C 0.72884 1.05243 1.03312
 C92 C 0.72807 1.07283 1.05972
 C93 C 0.75294 1.07197 1.08257
 C94 C 0.77830 1.04979 1.07891
 C95 C 0.77910 1.02930 1.05214
 C96 C 0.73081 1.02911 0.94645
 C97 C 0.72890 1.05108 0.92088
 C98 C 0.75243 1.07515 0.91736
 C99 C 0.77842 1.07624 0.93891
 C100 C 0.78029 1.05442 0.96440
 C101 C 0.78243 0.96191 0.94638
 C102 C 0.78386 0.94070 0.92017
 C103 C 0.75987 0.91720 0.91600
 C104 C 0.73409 0.91575 0.93780
 C105 C 0.73273 0.93676 0.96394
 C106 C 0.78312 0.93899 1.03465
 C107 C 0.78307 0.91882 1.06153
 C108 C 0.75707 0.91932 1.08326
 C109 C 0.73164 0.94119 1.07810
 C110 C 0.73175 0.96146 1.05112
 H111 H 0.70969 1.05396 1.01539
 H112 H 0.70839 1.08986 1.06216
 H113 H 0.79783 1.04884 1.09618
 H114 H 0.79933 1.01306 1.04904
 H115 H 0.71177 1.01157 0.94970
 H116 H 0.70864 1.04977 0.90451
 H117 H 0.79998 1.05639 0.98147
 H118 H 0.80165 0.97920 0.94990
 H119 H 0.80397 0.94227 0.90363
 H120 H 0.71534 0.89783 0.93492
 H121 H 0.71301 0.93464 0.98096
 H122 H 0.80306 0.93769 1.01780
 H123 H 0.80312 0.90243 1.06464
 H124 H 0.71130 0.94193 1.09448
 H125 H 0.71147 0.97741 1.04694
 H126 H 0.79680 1.09462 0.93648
 C127 C 0.25757 0.51266 0.49597
 C128 C 0.25823 0.48001 0.49589
 C129 C 0.25516 0.46112 0.52607
 C130 C 0.26086 0.46093 0.46582
 C131 C 0.25603 0.53210 0.46606
 C132 C 0.25802 0.53151 0.52623
 C133 C 0.27882 0.46213 0.55029
 C134 C 0.27599 0.44245 0.57760
 C135 C 0.24958 0.42155 0.58094
 C136 C 0.22573 0.42108 0.55694
 C137 C 0.22859 0.44059 0.52972
 C138 C 0.28664 0.43924 0.46254
 C139 C 0.28789 0.41803 0.43652
 C140 C 0.26319 0.41792 0.41342
 C141 C 0.23778 0.44019 0.41615
 C142 C 0.23657 0.46157 0.44223
 C143 C 0.22991 0.55322 0.46184
 C144 C 0.22974 0.57531 0.43653
 C145 C 0.25577 0.57682 0.41508
 C146 C 0.28156 0.55507 0.41858
 C147 C 0.28172 0.53281 0.44403
 C148 C 0.23179 0.53125 0.54762
 C149 C 0.23115 0.55247 0.57380
 C150 C 0.25662 0.57419 0.57873
 C151 C 0.28324 0.57361 0.55790
 C152 C 0.28385 0.55253 0.53180
 H153 H 0.29968 0.47759 0.54768
 H154 H 0.29473 0.44296 0.59580
 H155 H 0.20516 0.40522 0.55872
 H156 H 0.21015 0.43947 0.51124
 H157 H 0.30546 0.43824 0.48065
 H158 H 0.30775 0.40117 0.43511
 H159 H 0.21617 0.47773 0.44464
 H160 H 0.21000 0.55317 0.47876
 H161 H 0.20964 0.59187 0.43415
 H162 H 0.30192 0.55581 0.40229
 H163 H 0.30233 0.51706 0.44725
 H164 H 0.21142 0.51551 0.54337
 H165 H 0.21037 0.55269 0.58962
 H166 H 0.30322 0.59001 0.56109
 H167 H 0.30417 0.55315 0.51537
 H168 H 0.21842 0.44034 0.39861
 C169 C 0.99564 0.24654 -0.01402
 C170 C 0.99691 0.24690 0.01865
 C171 C 1.02801 0.24746 0.03635
 C172 C 0.96753 0.24766 0.03901
 C173 C 0.96494 0.24507 -0.03228
 C174 C 1.02504 0.24952 -0.03407
 C175 C 1.03494 0.22260 0.05820
 C176 C 1.06242 0.22402 0.07754
 C177 C 1.08337 0.25049 0.07561
 C178 C 1.07681 0.27514 0.05324
 C179 C 1.04923 0.27366 0.03380
 C180 C 0.94512 0.22233 0.03896
 C181 C 0.91971 0.22211 0.06125
 C182 C 0.91650 0.24711 0.08380
 C183 C 0.93845 0.27276 0.08317
 C184 C 0.96377 0.27295 0.06107
 C185 C 0.94246 0.27035 -0.03102
 C186 C 0.91674 0.27141 -0.05290
 C187 C 0.91331 0.24726 -0.07642
 C188 C 0.93512 0.22139 -0.07669
 C189 C 0.96076 0.22039 -0.05493
 C190 C 1.02783 0.27602 -0.05483
 C191 C 1.05357 0.27822 -0.07629
 C192 C 1.07697 0.25376 -0.07757
 C193 C 1.07461 0.22752 -0.05620
 C194 C 1.04876 0.22538 -0.03458
 H195 H 1.01868 0.20234 0.06066
 H196 H 1.06694 0.20477 0.09463
 H197 H 1.09240 0.29591 0.05123
 H198 H 1.04394 0.29336 0.01748
 H199 H 0.94792 0.20235 0.02245
 H200 H 0.90297 0.20210 0.06143
 H201 H 0.98090 0.29262 0.06155
 H202 H 0.94569 0.28996 -0.01415
 H203 H 0.90030 0.29164 -0.05197
 H204 H 0.93294 0.20244 -0.09449
 H205 H 0.97809 0.20090 -0.05649
 H206 H 1.00967 0.29482 -0.05476
 H207 H 1.05452 0.29882 -0.09221
 H208 H 1.09237 0.20835 -0.05679
 H209 H 1.04674 0.20457 -0.01894
 H210 H 0.93661 0.29240 0.10012
 C211 C 0.49788 0.74474 0.48816
 C212 C 0.49837 0.74560 0.52087
 C213 C 0.52912 0.74669 0.53908
 C214 C 0.46850 0.74632 0.54065
 C215 C 0.46750 0.74411 0.46940
 C216 C 0.52788 0.74610 0.46862
 C217 C 0.53591 0.72231 0.56151
 C218 C 0.56368 0.72384 0.58042
 C219 C 0.58492 0.74990 0.57742
 C220 C 0.57842 0.77417 0.55474
 C221 C 0.55059 0.77262 0.53571
 C222 C 0.44577 0.72126 0.53965
 C223 C 0.41967 0.72105 0.56117
 C224 C 0.41604 0.74578 0.58395
 C225 C 0.43837 0.77114 0.58430
 C226 C 0.46435 0.77132 0.56296
 C227 C 0.44554 0.76984 0.47069
 C228 C 0.42007 0.77159 0.44861
 C229 C 0.41645 0.74770 0.42497
 C230 C 0.43768 0.72144 0.42453
 C231 C 0.46307 0.71970 0.44649
 C232 C 0.53129 0.77069 0.44563
 C233 C 0.55789 0.77126 0.42511
 C234 C 0.58156 0.74723 0.42713
 C235 C 0.57860 0.72285 0.45044
 C236 C 0.55181 0.72221 0.47102
 H237 H 0.51949 0.70226 0.56456
 H238 H 0.56830 0.70499 0.59792
 H239 H 0.59440 0.79459 0.55215
 H240 H 0.54543 0.79192 0.51887
 H241 H 0.44879 0.70147 0.52295
 H242 H 0.40269 0.70125 0.56057
 H243 H 0.48166 0.79081 0.56421
 H244 H 0.44900 0.78924 0.48776
 H245 H 0.40394 0.79208 0.44942
 H246 H 0.43516 0.70279 0.40647
 H247 H 0.48001 0.69987 0.44492
 H248 H 0.51304 0.78927 0.44331
 H249 H 0.55976 0.79017 0.40719
 H250 H 0.59651 0.70395 0.45229
 H251 H 0.54934 0.70274 0.48825
 H252 H 0.43628 0.79061 0.60141
 C253 C 0.01318 0.75065 0.00286
 C254 C -0.01952 0.75201 0.00314
 C255 C -0.03875 0.74959 -0.02687
 C256 C -0.03855 0.75526 0.03321
 C257 C 0.03285 0.75074 0.03271
 C258 C 0.03174 0.74928 -0.02766
 C259 C -0.03731 0.77340 -0.05089
 C260 C -0.05794 0.77186 -0.07758
 C261 C -0.08030 0.74658 -0.08052
 C262 C -0.08105 0.72246 -0.05673
 C263 C -0.06058 0.72407 -0.03014
 C264 C -0.06010 0.78116 0.03603
 C265 C -0.08188 0.78261 0.06159
 C266 C -0.08276 0.75794 0.08479
 C267 C -0.06041 0.73249 0.08259
 C268 C -0.03846 0.73111 0.05693
 C269 C 0.05522 0.72580 0.03758
 C270 C 0.07722 0.72722 0.06295
 C271 C 0.07735 0.75366 0.08384
 C272 C 0.05444 0.77829 0.07965
 C273 C 0.03233 0.77689 0.05413
 C274 C 0.02940 0.72282 -0.04855
 C275 C 0.04953 0.72071 -0.07558
 C276 C 0.07231 0.74499 -0.08188
 C277 C 0.07401 0.77171 -0.06128
 C278 C 0.05401 0.77375 -0.03436
 H279 H -0.02088 0.79351 -0.04851
 H280 H -0.05699 0.79080 -0.09556
 H281 H -0.09784 0.70262 -0.05804
 H282 H -0.06206 0.70558 -0.01175
 H283 H -0.06064 0.79989 0.01782
 H284 H -0.09850 0.80267 0.06246
 H285 H -0.02238 0.71064 0.05486
 H286 H 0.05617 0.70556 0.02116
 H287 H 0.09470 0.70801 0.06585
 H288 H 0.05414 0.79897 0.09547
 H289 H 0.01568 0.79668 0.05039
 H290 H 0.01267 0.70347 -0.04343
 H291 H 0.04769 0.69979 -0.09096
 H292 H 0.09140 0.79069 -0.06562
 H293 H 0.05626 0.79423 -0.01838
 H294 H -0.06059 0.71320 0.10021
 C295 C 0.47842 0.25646 0.50212
 C296 C 0.51119 0.25617 0.50238
 C297 C 0.53031 0.25364 0.47235
 C298 C 0.53040 0.25719 0.53254
 C299 C 0.45918 0.25673 0.53221
 C300 C 0.45961 0.25588 0.47164
 C301 C 0.55196 0.22787 0.46891
 C302 C 0.57236 0.22627 0.44230
 C303 C 0.57155 0.25046 0.41877
 C304 C 0.54945 0.27595 0.42171
 C305 C 0.52896 0.27759 0.44846
 C306 C 0.52876 0.23218 0.55530
 C307 C 0.55082 0.23095 0.58086
 C308 C 0.57481 0.25465 0.58384
 C309 C 0.57567 0.28016 0.56173
 C310 C 0.55375 0.28135 0.53622
 C311 C 0.46129 0.28218 0.55434
 C312 C 0.44070 0.28315 0.58109
 C313 C 0.41779 0.25870 0.58586
 C314 C 0.41621 0.23303 0.56407
 C315 C 0.43662 0.23211 0.53740
 C316 C 0.43730 0.28058 0.46544
 C317 C 0.41772 0.27951 0.43809
 C318 C 0.41993 0.25361 0.41659
 C319 C 0.44247 0.22901 0.42250
 C320 C 0.46212 0.23007 0.44994
 H321 H 0.55341 0.20925 0.48719
 H322 H 0.58936 0.20651 0.44040
 H323 H 0.54854 0.29497 0.40389
 H324 H 0.51271 0.29789 0.45099
 H325 H 0.51135 0.21296 0.55250
 H326 H 0.54964 0.21103 0.59763
 H327 H 0.55560 0.30065 0.51871
 H328 H 0.47823 0.30164 0.55044
 H329 H 0.44229 0.30322 0.59759
 H330 H 0.39867 0.21400 0.56740
 H331 H 0.43455 0.21236 0.52050
 H332 H 0.43484 0.30056 0.48203
 H333 H 0.40038 0.29863 0.43396
 H334 H 0.44450 0.20867 0.40638
 H335 H 0.47874 0.21046 0.45461
 H336 H 0.59397 0.29866 0.56369
 C337 C 1.00210 0.01841 0.24606
 C338 C 1.00235 -0.01425 0.24622
 C339 C 1.03258 -0.03321 0.24547
 C340 C 0.97224 -0.03346 0.24810
 C341 C 0.97161 0.03697 0.24478
 C342 C 1.03203 0.03794 0.24753
 C343 C 1.03694 -0.05582 0.22078
 C344 C 1.06267 -0.07743 0.22184
 C345 C 1.08438 -0.07700 0.24777
 C346 C 1.08065 -0.05367 0.27205
 C347 C 1.05482 -0.03194 0.27093
 C348 C 0.94892 -0.03239 0.22358
 C349 C 0.92217 -0.05293 0.22469
 C350 C 0.91857 -0.07495 0.25026
 C351 C 0.94165 -0.07546 0.27500
 C352 C 0.96825 -0.05499 0.27388
 C353 C 0.94912 0.03577 0.27005
 C354 C 0.92189 0.05572 0.26942
 C355 C 0.91698 0.07714 0.24366
 C356 C 0.93911 0.07769 0.21809
 C357 C 0.96627 0.05786 0.21874
 C358 C 1.03583 0.05974 0.27302
 C359 C 1.06158 0.08131 0.27333
 C360 C 1.08395 0.08172 0.24796
 C361 C 1.08072 0.05934 0.22280
 C362 C 1.05489 0.03755 0.22255
 H363 H 1.01980 -0.05730 0.20112
 H364 H 1.06511 -0.09514 0.20284
 H365 H 1.09700 -0.05266 0.29234
 H366 H 1.05145 -0.01504 0.29050
 H367 H 0.95188 -0.01628 0.20323
 H368 H 0.90489 -0.05203 0.20517
 H369 H 0.98608 -0.05627 0.29293
 H370 H 0.95313 0.02008 0.29055
 H371 H 0.90512 0.05516 0.28943
 H372 H 0.93602 0.09396 0.19796
 H373 H 0.98349 0.05915 0.19914
 H374 H 1.01834 0.06051 0.29241
 H375 H 1.06336 0.09815 0.29308
 H376 H 1.09772 0.05935 0.20297
 H377 H 1.05209 0.02123 0.20241
 H378 H 0.93945 -0.09226 0.29490
 C379 C 0.50190 0.52026 0.74507
 C380 C 0.50251 0.48759 0.74419
 C381 C 0.53281 0.46864 0.74284
 C382 C 0.47261 0.46818 0.74635
 C383 C 0.47107 0.53851 0.74533
 C384 C 0.53168 0.54000 0.74662
 C385 C 0.53673 0.44606 0.71801
 C386 C 0.56185 0.42369 0.71909
 C387 C 0.58335 0.42336 0.74513
 C388 C 0.58027 0.44671 0.76943
 C389 C 0.55507 0.46920 0.76833
 C390 C 0.44911 0.46902 0.72198
 C391 C 0.42239 0.44847 0.72355
 C392 C 0.41903 0.42689 0.74945
 C393 C 0.44221 0.42659 0.77401
 C394 C 0.46884 0.44696 0.77242
 C395 C 0.44898 0.53546 0.77083
 C396 C 0.42109 0.55450 0.77153
 C397 C 0.41510 0.57694 0.74688
 C398 C 0.43698 0.57965 0.72127
 C399 C 0.46481 0.56069 0.72057
 C400 C 0.53542 0.56160 0.77231
 C401 C 0.56126 0.58304 0.77295
 C402 C 0.58381 0.58350 0.74775
 C403 C 0.58059 0.56140 0.72234
 C404 C 0.55465 0.53975 0.72174
 H405 H 0.51955 0.44502 0.69835
 H406 H 0.56391 0.40591 0.70012
 H407 H 0.59660 0.44697 0.78976
 H408 H 0.55203 0.48597 0.78807
 H409 H 0.45188 0.48499 0.70150
 H410 H 0.40481 0.44906 0.70429
 H411 H 0.48680 0.44594 0.79137
 H412 H 0.45371 0.51889 0.79046
 H413 H 0.40467 0.55212 0.79166
 H414 H 0.43281 0.59696 0.70215
 H415 H 0.48169 0.56352 0.70084
 H416 H 0.51787 0.56224 0.79165
 H417 H 0.56304 0.59967 0.79287
 H418 H 0.59773 0.56146 0.70265
 H419 H 0.55192 0.52359 0.70147
 H420 H 0.43999 0.41006 0.79412
 C421 C 1.01926 1.00288 0.75646
 C422 C 0.98653 1.00327 0.75714
 C423 C 0.96744 0.97320 0.75639
 C424 C 0.96731 1.03344 0.75716
 C425 C 1.03873 1.03271 0.75460
 C426 C 1.03791 0.97231 0.75720
 C427 C 0.94612 0.96817 0.73066
 C428 C 0.92592 0.94143 0.73043
 C429 C 0.92652 0.91941 0.75603
 C430 C 0.94821 0.92400 0.78161
 C431 C 0.96859 0.95086 0.78181
 C432 C 0.96821 1.05491 0.73101
 C433 C 0.94584 1.08018 0.72895
 C434 C 0.92219 1.08417 0.75297
 C435 C 0.92216 1.06330 0.77961
 C436 C 0.94440 1.03814 0.78161
 C437 C 1.03807 1.05584 0.77924
 C438 C 1.05973 1.08172 0.77866
 C439 C 1.08224 1.08468 0.75353
 C440 C 1.08212 1.06204 0.72849
 C441 C 1.06066 1.03625 0.72911
 C442 C 1.05986 0.96703 0.78236
 C443 C 1.07986 0.93997 0.78229
 C444 C 1.07853 0.91774 0.75681
 C445 C 1.05604 0.92270 0.73189
 C446 C 1.03590 0.94983 0.73203
 H447 H 0.94486 0.98525 0.71093
 H448 H 0.90930 0.93820 0.71054
 H449 H 0.94898 0.90729 0.80163
 H450 H 0.98464 0.95465 0.80205
 H451 H 0.98526 1.05128 0.71157
 H452 H 0.94658 1.09588 0.70813
 H453 H 0.94311 1.02160 0.80180
 H454 H 1.02164 1.05323 0.79936
 H455 H 1.05953 1.09898 0.79820
 H456 H 1.09906 1.06365 0.70876
 H457 H 1.06160 1.01855 0.70997
 H458 H 1.06185 0.98423 0.80186
 H459 H 1.09681 0.93711 0.80189
 H460 H 1.05465 0.90600 0.71190
 H461 H 1.01945 0.95378 0.71213
 H462 H 0.90427 1.06593 0.79848
 C463 C 0.51922 0.50239 0.25243
 C464 C 0.48653 0.50295 0.25208
 C465 C 0.46711 0.47308 0.25315
 C466 C 0.46772 0.53326 0.25076
 C467 C 0.53891 0.53196 0.25539
 C468 C 0.53763 0.47196 0.24951
 C469 C 0.46716 0.45107 0.22752
 C470 C 0.44588 0.42493 0.22777
 C471 C 0.42428 0.42066 0.25350
 C472 C 0.42497 0.44221 0.27947
 C473 C 0.44612 0.46826 0.27920
 C474 C 0.44632 0.53796 0.22497
 C475 C 0.42489 0.56385 0.22502
 C476 C 0.42433 0.58538 0.25095
 C477 C 0.44637 0.58135 0.27640
 C478 C 0.46795 0.55534 0.27634
 C479 C 0.55971 0.53493 0.28188
 C480 C 0.58150 0.56040 0.28366
 C481 C 0.58311 0.58324 0.25877
 C482 C 0.56180 0.58076 0.23255
 C483 C 0.53978 0.55524 0.23084
 C484 C 0.53684 0.44830 0.27371
 C485 C 0.55674 0.42111 0.27143
 C486 C 0.57765 0.41740 0.24505
 C487 C 0.57772 0.44072 0.22056
 C488 C 0.55799 0.46782 0.22287
 H489 H 0.48288 0.45471 0.20699
 H490 H 0.44555 0.40855 0.20748
 H491 H 0.40865 0.43954 0.29962
 H492 H 0.44569 0.48514 0.29908
 H493 H 0.44563 0.52100 0.20517
 H494 H 0.40808 0.56662 0.20521
 H495 H 0.48391 0.55174 0.29671
 H496 H 0.55952 0.51701 0.30090
 H497 H 0.59758 0.56161 0.30413
 H498 H 0.56279 0.59815 0.21309
 H499 H 0.52426 0.55302 0.20996
 H500 H 0.52153 0.45133 0.29464
 H501 H 0.55652 0.40340 0.29063
 H502 H 0.59356 0.43859 0.19998
 H503 H 0.55894 0.48592 0.20405
 H504 H 0.44634 0.59767 0.29668
 O505 O 0.25539 0.16794 0.19549
 O506 O 0.29102 0.15782 0.24016
 O507 O 0.17178 0.20639 0.24166
 O508 O 0.15948 0.24798 0.27332
 O509 O 0.21163 0.25246 0.15689
 O510 O 0.25658 0.28777 0.14879
 O511 O 0.25706 0.29395 0.32495
 O512 O 0.21864 0.25231 0.33324
 O513 O 0.33874 0.25084 0.28607
 O514 O 0.34880 0.21469 0.23982
 O515 O 0.30015 0.33337 0.24413
 O516 O 0.25446 0.34411 0.20667
 O517 O 0.25691 0.33322 0.28661
 O518 O 0.21987 0.34366 0.24084
 O519 O 0.33902 0.29460 0.24367
 O520 O 0.34870 0.24925 0.20568
 O521 O 0.29969 0.25091 0.32465
 O522 O 0.25496 0.21348 0.33381
 O523 O 0.25612 0.20710 0.15694
 O524 O 0.29255 0.25161 0.14893
 O525 O 0.17250 0.25165 0.19545
 O526 O 0.16480 0.28904 0.24074
 O527 O 0.21044 0.16732 0.24074
 O528 O 0.25520 0.15765 0.27609
 Zr529 Zr 0.25414 0.19307 0.23944
 O530 O 0.28435 0.22003 0.26992
 Zr531 Zr 0.19767 0.24993 0.23954
 O532 O 0.22521 0.27926 0.27053
 Zr533 Zr 0.25492 0.25030 0.18331
 O534 O 0.28486 0.27997 0.21151
 Zr535 Zr 0.25614 0.25070 0.29871
 O536 O 0.22551 0.22095 0.27081
 Zr537 Zr 0.31311 0.25116 0.24225
 O538 O 0.28575 0.22121 0.21137
 Zr539 Zr 0.25638 0.30797 0.24270
 O540 O 0.22619 0.28117 0.21151
 O541 O 0.22454 0.22031 0.20955
 O542 O 0.28647 0.28101 0.27262
 C543 C 0.25598 0.17754 0.16604
 C544 C 0.18095 0.17679 0.24189
 C545 C 0.18203 0.25273 0.16600
 C546 C 0.25746 0.32357 0.31600
 C547 C 0.32927 0.25098 0.31552
 C548 C 0.32968 0.32404 0.24460
 H549 H 0.29765 0.20518 0.28299
 H550 H 0.29829 0.29347 0.19721
 H551 H 0.21066 0.20672 0.19573
 H552 H 0.21076 0.29232 0.28427
 H553 H 0.20198 0.23681 0.32607
 H554 H 0.16646 0.26005 0.29262
 H555 H 0.34476 0.26736 0.19065
 H556 H 0.30914 0.23611 0.15637
 H557 H 0.27232 0.19789 0.32887
 H558 H 0.24036 0.16517 0.29321
 H559 H 0.27233 0.34015 0.19138
 H560 H 0.24191 0.30487 0.15664
 H561 H 0.30811 0.16556 0.22540
 H562 H 0.34396 0.19858 0.25672
 H563 H 0.17151 0.30433 0.22368
 H564 H 0.20428 0.33911 0.25831
 O565 O 0.74834 0.83898 0.21149
 O566 O 0.71266 0.84717 0.25675
 O567 O 0.83340 0.80194 0.25539
 O568 O 0.84626 0.76092 0.28879
 O569 O 0.79409 0.75506 0.17227
 O570 O 0.74920 0.71928 0.16410
 O571 O 0.75146 0.71128 0.34028
 O572 O 0.78947 0.75367 0.34772
 O573 O 0.66870 0.75171 0.30305
 O574 O 0.65741 0.79015 0.25697
 O575 O 0.70764 0.67179 0.25830
 O576 O 0.75398 0.66283 0.22103
 O577 O 0.75116 0.67275 0.30135
 O578 O 0.78770 0.66271 0.25572
 O579 O 0.66802 0.70978 0.25821
 O580 O 0.65611 0.75527 0.22347
 O581 O 0.70822 0.75356 0.34111
 O582 O 0.75175 0.79146 0.34973
 O583 O 0.74882 0.79990 0.17301
 O584 O 0.71327 0.75510 0.16436
 O585 O 0.83369 0.75643 0.21033
 O586 O 0.84280 0.71966 0.25495
 O587 O 0.79363 0.83994 0.25580
 O588 O 0.74936 0.84818 0.29211
 Zr589 Zr 0.75064 0.81315 0.25522
 O590 O 0.72165 0.78511 0.28604
 Zr591 Zr 0.80862 0.75766 0.25446
 O592 O 0.78204 0.72718 0.28529
 Zr593 Zr 0.75081 0.75642 0.19886
 O594 O 0.72165 0.72601 0.22705
 Zr595 Zr 0.75102 0.75477 0.31419
 O596 O 0.78040 0.78571 0.28613
 Zr597 Zr 0.69319 0.75369 0.25853
 O598 O 0.71947 0.78443 0.22734
 Zr599 Zr 0.75100 0.69820 0.25761
 O600 O 0.78049 0.72597 0.22655
 O601 O 0.78065 0.78684 0.22493
 O602 O 0.72084 0.72406 0.28829
 C603 C 0.74821 0.82945 0.18204
 C604 C 0.82338 0.83127 0.25574
 C605 C 0.82384 0.75524 0.18100
 C606 C 0.75127 0.68185 0.33087
 C607 C 0.67859 0.75205 0.33241
 C608 C 0.67790 0.68049 0.25830
 H609 H 0.70819 0.79945 0.29946
 H610 H 0.70838 0.71252 0.21262
 H611 H 0.79405 0.80071 0.21090
 H612 H 0.79691 0.71420 0.29870
 H613 H 0.80521 0.77019 0.34071
 H614 H 0.84061 0.74672 0.30709
 H615 H 0.66208 0.74013 0.20608
 H616 H 0.69641 0.77020 0.17198
 H617 H 0.73476 0.80736 0.34447
 H618 H 0.76487 0.84100 0.30881
 H619 H 0.73586 0.66645 0.20592
 H620 H 0.76474 0.70261 0.17128
 H621 H 0.69566 0.83911 0.24208
 H622 H 0.66043 0.80426 0.27591
 H623 H 0.83549 0.70361 0.23893
 H624 H 0.80383 0.66789 0.27249
 O625 O 0.74883 0.16431 0.79407
 O626 O 0.71481 0.15433 0.74997
 O627 O 0.83284 0.20522 0.74943
 O628 O 0.84542 0.24720 0.71960
 O629 O 0.79172 0.24839 0.83492
 O630 O 0.74749 0.28241 0.84450
 O631 O 0.74582 0.29171 0.66644
 O632 O 0.78301 0.25111 0.65688
 O633 O 0.66447 0.24990 0.70696
 O634 O 0.65304 0.21543 0.75091
 O635 O 0.70492 0.33217 0.74918
 O636 O 0.74927 0.34329 0.78353
 O637 O 0.74643 0.33082 0.70479
 O638 O 0.78625 0.33931 0.75166
 O639 O 0.66562 0.29399 0.74937
 O640 O 0.65736 0.24629 0.78848
 O641 O 0.70277 0.24959 0.66765
 O642 O 0.74867 0.21067 0.65901
 O643 O 0.74768 0.20250 0.83341
 O644 O 0.71049 0.24804 0.84180
 O645 O 0.83116 0.24913 0.79671
 O646 O 0.83780 0.28807 0.75034
 O647 O 0.79474 0.16573 0.74975
 O648 O 0.74907 0.15724 0.71281
 Zr649 Zr 0.75030 0.19082 0.75107
 O650 O 0.71907 0.21830 0.72189
 Zr651 Zr 0.80622 0.24805 0.75218
 O652 O 0.77847 0.27706 0.72087
 Zr653 Zr 0.74887 0.24675 0.80822
 O654 O 0.71955 0.27773 0.78059
 Zr655 Zr 0.74701 0.24884 0.69291
 O656 O 0.77866 0.21945 0.72029
 Zr657 Zr 0.69081 0.24964 0.75005
 O658 O 0.71831 0.21828 0.77963
 Zr659 Zr 0.74789 0.30576 0.74913
 O660 O 0.77751 0.27851 0.78068
 O661 O 0.77957 0.21755 0.78156
 O662 O 0.71725 0.27937 0.71947
 C663 C 0.74780 0.17312 0.82365
 C664 C 0.82417 0.17559 0.74904
 C665 C 0.82135 0.24931 0.82615
 C666 C 0.74554 0.32121 0.67537
 C667 C 0.67332 0.25004 0.67737
 C668 C 0.67533 0.32339 0.74903
 H669 H 0.70545 0.20368 0.70898
 H670 H 0.70645 0.29126 0.79518
 H671 H 0.79346 0.20375 0.79524
 H672 H 0.79284 0.29004 0.70696
 H673 H 0.80089 0.23702 0.66418
 H674 H 0.83734 0.25587 0.69891
 H675 H 0.65882 0.26632 0.80128
 H676 H 0.69522 0.23083 0.83555
 H677 H 0.72929 0.19711 0.66195
 H678 H 0.76596 0.16384 0.69729
 H679 H 0.73575 0.33653 0.80196
 H680 H 0.76105 0.30041 0.83670
 H681 H 0.69667 0.16214 0.76339
 H682 H 0.66027 0.19665 0.73817
 H683 H 0.83307 0.30158 0.76940
 H684 H 0.79862 0.33800 0.73132
 O685 O 0.24183 0.82534 0.79409
 O686 O 0.27774 0.83447 0.74975
 O687 O 0.15749 0.78832 0.74730
 O688 O 0.14666 0.74776 0.71305
 O689 O 0.19418 0.74180 0.83161
 O690 O 0.23846 0.70587 0.84171
 O691 O 0.24455 0.69831 0.66578
 O692 O 0.20629 0.74033 0.65620
 O693 O 0.32496 0.74022 0.70637
 O694 O 0.33447 0.77642 0.75302
 O695 O 0.28414 0.65833 0.74865
 O696 O 0.23675 0.64934 0.78442
 O697 O 0.24265 0.65933 0.70437
 O698 O 0.20371 0.64987 0.74869
 O699 O 0.32338 0.69659 0.74937
 O700 O 0.33333 0.74185 0.78677
 O701 O 0.28719 0.74109 0.66654
 O702 O 0.24348 0.77854 0.65595
 O703 O 0.24026 0.78655 0.83297
 O704 O 0.27478 0.74110 0.84265
 O705 O 0.15613 0.74269 0.79194
 O706 O 0.14921 0.70601 0.74680
 O707 O 0.19713 0.82626 0.74876
 O708 O 0.24242 0.83498 0.71347
 Zr709 Zr 0.24040 0.79984 0.75036
 O710 O 0.27094 0.77208 0.72093
 Zr711 Zr 0.18289 0.74428 0.74887
 O712 O 0.21090 0.71402 0.71905
 Zr713 Zr 0.23851 0.74308 0.80686
 O714 O 0.26879 0.71263 0.77979
 Zr715 Zr 0.24306 0.74177 0.69154
 O716 O 0.21217 0.77246 0.71828
 Zr717 Zr 0.29834 0.74058 0.74960
 O718 O 0.27067 0.77126 0.77951
 Zr719 Zr 0.24080 0.68489 0.74800
 O720 O 0.21011 0.71264 0.77794
 O721 O 0.20950 0.77346 0.77959
 O722 O 0.27215 0.71103 0.71870
 C723 C 0.24161 0.81604 0.82364
 C724 C 0.16739 0.81765 0.74779
 C725 C 0.16483 0.74164 0.82163
 C726 C 0.24446 0.66879 0.67498
 C727 C 0.31647 0.74057 0.67660
 C728 C 0.31377 0.66725 0.74893
 H729 H 0.28484 0.78661 0.70817
 H730 H 0.28157 0.69901 0.79462
 H731 H 0.19571 0.78731 0.79326
 H732 H 0.19671 0.70109 0.70496
 H733 H 0.18994 0.75657 0.66250
 H734 H 0.15315 0.73370 0.69495
 H735 H 0.32825 0.72443 0.80225
 H736 H 0.29228 0.75559 0.83535
 H737 H 0.25976 0.79475 0.66219
 H738 H 0.22727 0.82790 0.69644
 H739 H 0.25420 0.65302 0.80025
 H740 H 0.22355 0.68910 0.83367
 H741 H 0.29465 0.82647 0.76462
 H742 H 0.33087 0.79213 0.73544
 H743 H 0.15570 0.69013 0.76341
 H744 H 0.18893 0.65448 0.73053
 O745 O 0.24759 0.34109 0.71219
 O746 O 0.21089 0.34919 0.75686
 O747 O 0.33160 0.30382 0.75833
 O748 O 0.34320 0.26303 0.79252
 O749 O 0.29479 0.25804 0.67428
 O750 O 0.25077 0.22144 0.66469
 O751 O 0.24744 0.21259 0.84068
 O752 O 0.28480 0.25563 0.84950
 O753 O 0.16531 0.25488 0.80069
 O754 O 0.15526 0.29164 0.75441
 O755 O 0.20596 0.17377 0.75784
 O756 O 0.25309 0.16495 0.72135
 O757 O 0.24880 0.17436 0.80149
 O758 O 0.28609 0.16477 0.75669
 O759 O 0.16633 0.21176 0.75747
 O760 O 0.15603 0.25722 0.72051
 O761 O 0.20346 0.25484 0.84016
 O762 O 0.24631 0.29248 0.85099
 O763 O 0.24870 0.30202 0.67370
 O764 O 0.21428 0.25675 0.66391
 O765 O 0.33317 0.25897 0.71361
 O766 O 0.34096 0.22174 0.75832
 O767 O 0.29194 0.34192 0.75729
 O768 O 0.24702 0.35012 0.79297
 Zr769 Zr 0.24891 0.31518 0.75602
 O770 O 0.21903 0.28697 0.78581
 Zr771 Zr 0.30677 0.25969 0.75692
 O772 O 0.27934 0.22904 0.78680
 Zr773 Zr 0.25073 0.25855 0.69952
 O774 O 0.22078 0.22798 0.72669
 Zr775 Zr 0.24733 0.25639 0.81486
 O776 O 0.27756 0.28757 0.78783
 Zr777 Zr 0.19144 0.25568 0.75729
 O778 O 0.21861 0.28657 0.72710
 Zr779 Zr 0.24927 0.20016 0.75802
 O780 O 0.27964 0.22807 0.72799
 O781 O 0.27968 0.28891 0.72658
 O782 O 0.21808 0.22584 0.78783
 C783 C 0.24768 0.33157 0.68272
 C784 C 0.32166 0.33315 0.75789
 C785 C 0.32423 0.25827 0.68399
 C786 C 0.24808 0.18319 0.83107
 C787 C 0.17412 0.25452 0.83034
 C788 C 0.17622 0.18249 0.75766
 H789 H 0.20516 0.30131 0.79881
 H790 H 0.20792 0.21447 0.71192
 H791 H 0.29329 0.30291 0.71288
 H792 H 0.29387 0.21605 0.80055
 H793 H 0.30050 0.27240 0.84304
 H794 H 0.33704 0.24869 0.81054
 H795 H 0.16119 0.24015 0.70473
 H796 H 0.19675 0.27116 0.67134
 H797 H 0.23059 0.30917 0.84442
 H798 H 0.26208 0.34278 0.81000
 H799 H 0.23526 0.16854 0.70589
 H800 H 0.26625 0.20494 0.67237
 H801 H 0.19455 0.34159 0.74123
 H802 H 0.15899 0.30719 0.77205
 H803 H 0.33451 0.20600 0.74163
 H804 H 0.30199 0.17008 0.77364
 O805 O 0.75797 0.66693 0.69834
 O806 O 0.79216 0.65641 0.74417
 O807 O 0.67363 0.70681 0.74321
 O808 O 0.66169 0.74858 0.77486
 O809 O 0.71551 0.75187 0.65909
 O810 O 0.76117 0.78689 0.65185
 O811 O 0.75879 0.79353 0.82760
 O812 O 0.71915 0.75228 0.83510
 O813 O 0.84037 0.74849 0.79055
 O814 O 0.85037 0.71181 0.74434
 O815 O 0.80414 0.83157 0.74778
 O816 O 0.75927 0.84272 0.70881
 O817 O 0.75993 0.83250 0.78898
 O818 O 0.72438 0.84361 0.74272
 O819 O 0.84224 0.79204 0.74849
 O820 O 0.85203 0.74679 0.71055
 O821 O 0.80053 0.74961 0.82827
 O822 O 0.75541 0.71341 0.83723
 O823 O 0.75987 0.70617 0.65991
 O824 O 0.79640 0.75014 0.65220
 O825 O 0.67585 0.75183 0.69711
 O826 O 0.66783 0.78938 0.74182
 O827 O 0.71163 0.66710 0.74268
 O828 O 0.75528 0.65659 0.77889
 Zr829 Zr 0.75578 0.69212 0.74233
 O830 O 0.78572 0.71869 0.77344
 Zr831 Zr 0.70027 0.74989 0.74148
 O832 O 0.72770 0.77903 0.77271
 Zr833 Zr 0.75841 0.74932 0.68620
 O834 O 0.78851 0.77840 0.71484
 Zr835 Zr 0.75754 0.75005 0.80158
 O836 O 0.72710 0.72054 0.77322
 Zr837 Zr 0.81558 0.74916 0.74625
 O838 O 0.78829 0.71976 0.71482
 Zr839 Zr 0.75992 0.80701 0.74532
 O840 O 0.72970 0.78065 0.71384
 O841 O 0.72715 0.71978 0.71192
 O842 O 0.78890 0.77964 0.77594
 C843 C 0.75951 0.67660 0.66893
 C844 C 0.68229 0.67706 0.74346
 C845 C 0.68579 0.75258 0.66782
 C846 C 0.75975 0.82308 0.81842
 C847 C 0.83028 0.74899 0.81978
 C848 C 0.83344 0.82164 0.74912
 H849 H 0.79849 0.70366 0.78683
 H850 H 0.80248 0.79161 0.70079
 H851 H 0.71342 0.70632 0.69783
 H852 H 0.71323 0.79242 0.78609
 H853 H 0.70270 0.73661 0.82782
 H854 H 0.66834 0.76117 0.79395
 H855 H 0.84874 0.76497 0.69547
 H856 H 0.81310 0.73510 0.66031
 H857 H 0.77164 0.69679 0.83188
 H858 H 0.74049 0.66454 0.79585
 H859 H 0.77794 0.83888 0.69445
 H860 H 0.74627 0.80400 0.65928
 H861 H 0.80962 0.66370 0.72962
 H862 H 0.84543 0.69627 0.76175
 H863 H 0.67526 0.80468 0.72506
 H864 H 0.70793 0.83900 0.75936
 O865 O 0.25210 0.66766 0.29275
 O866 O 0.21739 0.65852 0.24842
 O867 O 0.33550 0.70945 0.24945
 O868 O 0.34761 0.75154 0.21913
 O869 O 0.29415 0.75160 0.33481
 O870 O 0.24954 0.78496 0.34497
 O871 O 0.24897 0.79737 0.16710
 O872 O 0.28561 0.75657 0.15685
 O873 O 0.16698 0.75408 0.20699
 O874 O 0.15564 0.71918 0.24998
 O875 O 0.20701 0.83596 0.25005
 O876 O 0.25100 0.84685 0.28504
 O877 O 0.24986 0.83577 0.20617
 O878 O 0.28827 0.84360 0.25384
 O879 O 0.16798 0.79750 0.25019
 O880 O 0.16014 0.74902 0.28847
 O881 O 0.20525 0.75507 0.16767
 O882 O 0.25116 0.71650 0.15813
 O883 O 0.25103 0.70524 0.33269
 O884 O 0.21288 0.75016 0.34165
 O885 O 0.33363 0.75282 0.29664
 O886 O 0.34050 0.79215 0.25102
 O887 O 0.29741 0.66994 0.24875
 O888 O 0.25211 0.66184 0.21141
 Zr889 Zr 0.25299 0.69488 0.25013
 O890 O 0.22181 0.72274 0.22130
 Zr891 Zr 0.30874 0.75224 0.25212
 O892 O 0.28094 0.78173 0.22136
 Zr893 Zr 0.25134 0.74990 0.30814
 O894 O 0.22194 0.78118 0.28098
 Zr895 Zr 0.24958 0.75395 0.19284
 O896 O 0.28125 0.72410 0.21978
 Zr897 Zr 0.19340 0.75341 0.24998
 O898 O 0.22091 0.72169 0.27914
 Zr899 Zr 0.25021 0.80986 0.25004
 O900 O 0.27991 0.78217 0.28111
 O901 O 0.28212 0.72131 0.28099
 O902 O 0.21966 0.78390 0.21987
 C903 C 0.25149 0.67599 0.32249
 C904 C 0.32681 0.67983 0.24872
 C905 C 0.32377 0.75261 0.32605
 C906 C 0.24934 0.82673 0.17656
 C907 C 0.17579 0.75487 0.17741
 C908 C 0.17749 0.82693 0.25006
 H909 H 0.20824 0.70828 0.20815
 H910 H 0.20874 0.79438 0.29577
 H911 H 0.29611 0.70746 0.29452
 H912 H 0.29538 0.79497 0.20777
 H913 H 0.30351 0.74246 0.16406
 H914 H 0.33975 0.76154 0.19896
 H915 H 0.16136 0.76887 0.30156
 H916 H 0.19805 0.73259 0.33535
 H917 H 0.23197 0.70267 0.16106
 H918 H 0.26881 0.66895 0.19591
 H919 H 0.23728 0.83979 0.30321
 H920 H 0.26284 0.80326 0.33740
 H921 H 0.19974 0.66560 0.26286
 H922 H 0.16341 0.70021 0.23787
 H923 H 0.33548 0.80558 0.27006
 H924 H 0.30152 0.84206 0.23406
 O925 O 0.74324 0.32688 0.29377
 O926 O 0.77934 0.33519 0.24908
 O927 O 0.65954 0.28757 0.24706
 O928 O 0.64921 0.24582 0.21434
 O929 O 0.69639 0.24465 0.33306
 O930 O 0.74080 0.20834 0.34392
 O931 O 0.74745 0.19624 0.16875
 O932 O 0.70851 0.23796 0.15813
 O933 O 0.82744 0.24141 0.20796
 O934 O 0.83632 0.27824 0.25413
 O935 O 0.78761 0.15932 0.25196
 O936 O 0.74069 0.15088 0.28881
 O937 O 0.74555 0.15842 0.20849
 O938 O 0.70738 0.14983 0.25327
 O939 O 0.82627 0.19815 0.25108
 O940 O 0.83589 0.24396 0.28820
 O941 O 0.78962 0.24014 0.16820
 O942 O 0.74579 0.27589 0.15614
 O943 O 0.74253 0.28889 0.33346
 O944 O 0.77686 0.24401 0.34448
 O945 O 0.65854 0.24389 0.29322
 O946 O 0.65214 0.20533 0.24958
 O947 O 0.69866 0.32606 0.24776
 O948 O 0.74398 0.33482 0.21305
 Zr949 Zr 0.74225 0.30031 0.25054
 O950 O 0.77295 0.27214 0.22171
 Zr951 Zr 0.68541 0.24401 0.25030
 O952 O 0.71373 0.21320 0.22144
 Zr953 Zr 0.74084 0.24492 0.30841
 O954 O 0.77165 0.21425 0.28217
 Zr955 Zr 0.74552 0.24058 0.19315
 O956 O 0.71442 0.27174 0.21909
 Zr957 Zr 0.80077 0.24180 0.25118
 O958 O 0.77275 0.27279 0.28042
 Zr959 Zr 0.74397 0.18531 0.25125
 O960 O 0.71282 0.21344 0.28031
 O961 O 0.71160 0.27433 0.28029
 O962 O 0.77497 0.21102 0.22116
 C963 C 0.74340 0.31818 0.32352
 C964 C 0.66908 0.31700 0.24654
 C965 C 0.66708 0.24418 0.32294
 C966 C 0.74722 0.16697 0.17884
 C967 C 0.81890 0.24081 0.17821
 C968 C 0.81709 0.16868 0.25121
 H969 H 0.78662 0.28655 0.20857
 H970 H 0.78468 0.20119 0.29727
 H971 H 0.69768 0.28855 0.29344
 H972 H 0.69967 0.19970 0.20778
 H973 H 0.69222 0.25444 0.16397
 H974 H 0.65582 0.23116 0.19676
 H975 H 0.83138 0.22642 0.30371
 H976 H 0.79472 0.25766 0.33649
 H977 H 0.76070 0.29327 0.16262
 H978 H 0.72930 0.32704 0.19592
 H979 H 0.75841 0.15505 0.30422
 H980 H 0.72550 0.19165 0.33645
 H981 H 0.79597 0.32809 0.26470
 H982 H 0.83240 0.29369 0.23637
 H983 H 0.65858 0.19024 0.26694
 H984 H 0.69208 0.15409 0.23546
 C985 C 0.22696 0.15069 0.11573
 C986 C 0.25211 0.14379 0.08896
 C987 C 0.24899 0.10754 0.09602
 C988 C 0.22382 0.11420 0.12254
 C989 C 0.27652 0.10940 0.12088
 C990 C 0.27964 0.14598 0.11416
 C991 C 0.25444 0.15243 0.14054
 C992 C 0.25136 0.11622 0.14756
 H993 H 0.20659 0.16802 0.11390
 H994 H 0.25228 0.15489 0.06460
 H995 H 0.20054 0.10173 0.12673
 H996 H 0.29690 0.09212 0.12280
 H997 H 0.30264 0.15931 0.11108
 H998 H 0.25114 0.10495 0.17184
 C999 C 0.78471 0.62471 0.63964
 C1000 C 0.75703 0.60012 0.63530
 C1001 C 0.75755 0.60647 0.59873
 C1002 C 0.78527 0.63079 0.60276
 C1003 C 0.73235 0.63345 0.60246
 C1004 C 0.73184 0.62732 0.63923
 C1005 C 0.75948 0.65158 0.64329
 C1006 C 0.76003 0.65807 0.60677
 H1007 H 0.80621 0.62139 0.65526
 H1008 H 0.75579 0.57601 0.64684
 H1009 H 0.80740 0.63244 0.58779
 H1010 H 0.71080 0.63686 0.58692
 H1011 H 0.70988 0.62614 0.65449
 H1012 H 0.76123 0.68219 0.59525
 C1013 C 0.72461 0.88059 0.14853
 C1014 C 0.75232 0.90545 0.14507
 C1015 C 0.75535 0.89676 0.10914
 C1016 C 0.72765 0.87229 0.11224
 C1017 C 0.78039 0.87039 0.11701
 C1018 C 0.77731 0.87879 0.15319
 C1019 C 0.74965 0.85434 0.15618
 C1020 C 0.75267 0.84577 0.12027
 H1021 H 0.70165 0.88446 0.16177
 H1022 H 0.75233 0.93023 0.15506
 H1023 H 0.70723 0.86969 0.09512
 H1024 H 0.80368 0.86525 0.10487
 H1025 H 0.79769 0.88122 0.17040
 H1026 H 0.75271 0.82107 0.11006
 C1027 C 0.22165 0.38221 0.65122
 C1028 C 0.24852 0.40744 0.64486
 C1029 C 0.24807 0.39844 0.60886
 C1030 C 0.22121 0.37350 0.61494
 C1031 C 0.27414 0.37260 0.61454
 C1032 C 0.27457 0.38124 0.65082
 C1033 C 0.24769 0.35642 0.65670
 C1034 C 0.24731 0.34754 0.62072
 H1035 H 0.20006 0.38593 0.66662
 H1036 H 0.24901 0.43234 0.65453
 H1037 H 0.19887 0.36963 0.60074
 H1038 H 0.29578 0.36873 0.59925
 H1039 H 0.29651 0.38413 0.66590
 H1040 H 0.24686 0.32275 0.61075
 C1041 C 0.74938 0.11088 0.84049
 C1042 C 0.77604 0.10658 0.86626
 C1043 C 0.74979 0.10060 0.89177
 C1044 C 0.72309 0.10466 0.86627
 C1045 C 0.74844 0.13683 0.89961
 C1046 C 0.77469 0.14303 0.87383
 C1047 C 0.74803 0.14706 0.84839
 C1048 C 0.72176 0.14120 0.87381
 H1049 H 0.74980 0.10033 0.81592
 H1050 H 0.79837 0.09208 0.86327
 H1051 H 0.70171 0.08898 0.86282
 H1052 H 0.74805 0.14728 0.92422
 H1053 H 0.79587 0.15913 0.87671
 H1054 H 0.69948 0.15579 0.87670
 C1055 C 0.25459 0.61351 0.33851
 C1056 C 0.28171 0.60922 0.36385
 C1057 C 0.25587 0.60262 0.38967
 C1058 C 0.22879 0.60667 0.36460
 C1059 C 0.25412 0.63875 0.39795
 C1060 C 0.27990 0.64562 0.37184
 C1061 C 0.25278 0.64958 0.34686
 C1062 C 0.22701 0.64304 0.37262
 H1063 H 0.25471 0.60326 0.31381
 H1064 H 0.30434 0.59546 0.35992
 H1065 H 0.20781 0.59033 0.36174
 H1066 H 0.25403 0.64891 0.42268
 H1067 H 0.30085 0.66203 0.37461
 H1068 H 0.20454 0.65721 0.37602
 C1069 C 0.21463 0.84593 0.87390
 C1070 C 0.24046 0.85141 0.90036
 C1071 C 0.23993 0.88769 0.89269
 C1072 C 0.21409 0.88245 0.86647
 C1073 C 0.26700 0.88328 0.86764
 C1074 C 0.26751 0.84668 0.87498
 C1075 C 0.24165 0.84162 0.84891
 C1076 C 0.24117 0.87787 0.84128
 H1077 H 0.19306 0.83034 0.87629
 H1078 H 0.24007 0.84072 0.92490
 H1079 H 0.19175 0.89659 0.86222
 H1080 H 0.28858 0.89890 0.86521
 H1081 H 0.28950 0.83171 0.87818
 H1082 H 0.24151 0.88874 0.81681
 C1083 C 0.71621 0.34792 0.37345
 C1084 C 0.74191 0.35315 0.40004
 C1085 C 0.74124 0.38951 0.39285
 C1086 C 0.71552 0.38451 0.36647
 C1087 C 0.76842 0.38557 0.36784
 C1088 C 0.76906 0.34888 0.37473
 C1089 C 0.74332 0.34403 0.34849
 C1090 C 0.74270 0.38035 0.34127
 H1091 H 0.69474 0.33222 0.37565
 H1092 H 0.74148 0.34213 0.42443
 H1093 H 0.69313 0.39861 0.36240
 H1094 H 0.78993 0.40132 0.36573
 H1095 H 0.79112 0.33398 0.37782
 H1096 H 0.74310 0.39144 0.31691
 C1097 C 0.13044 0.27918 0.13748
 C1098 C 0.13535 0.27925 0.10044
 C1099 C 0.10982 0.25246 0.09748
 C1100 C 0.10467 0.25246 0.13423
 C1101 C 0.13605 0.22634 0.10063
 C1102 C 0.16189 0.25308 0.10394
 C1103 C 0.15656 0.25308 0.14062
 C1104 C 0.13111 0.22636 0.13761
 H1105 H 0.12840 0.30089 0.15294
 H1106 H 0.13757 0.30121 0.08533
 H1107 H 0.08091 0.25222 0.14661
 H1108 H 0.13822 0.20458 0.08528
 H1109 H 0.18572 0.25330 0.09171
 H1110 H 0.12964 0.20462 0.15317
 C1111 C 0.63458 0.77921 0.63912
 C1112 C 0.63901 0.77862 0.60203
 C1113 C 0.61322 0.75203 0.59984
 C1114 C 0.60857 0.75267 0.63664
 C1115 C 0.63926 0.72576 0.60308
 C1116 C 0.66541 0.75230 0.60561
 C1117 C 0.66051 0.75293 0.64233
 C1118 C 0.63478 0.72640 0.64007
 H1119 H 0.63294 0.80118 0.65424
 H1120 H 0.64096 0.80025 0.58641
 H1121 H 0.58495 0.75282 0.64926
 H1122 H 0.64095 0.70374 0.58802
 H1123 H 0.68909 0.75212 0.59311
 H1124 H 0.63331 0.70492 0.65599
 C1125 C 0.10235 0.74162 0.84041
 C1126 C 0.09816 0.71559 0.86696
 C1127 C 0.09474 0.74252 0.89224
 C1128 C 0.09857 0.76849 0.86600
 C1129 C 0.13141 0.74228 0.89823
 C1130 C 0.13515 0.71542 0.87268
 C1131 C 0.13896 0.74142 0.84657
 C1132 C 0.13546 0.76824 0.87179
 H1133 H 0.09064 0.74138 0.81634
 H1134 H 0.08298 0.69374 0.86455
 H1135 H 0.08333 0.79035 0.86338
 H1136 H 0.14327 0.74255 0.92223
 H1137 H 0.15051 0.69364 0.87516
 H1138 H 0.15097 0.78990 0.87353
 C1139 C 0.60452 0.24452 0.34060
 C1140 C 0.60033 0.22068 0.36907
 C1141 C 0.59575 0.24944 0.39197
 C1142 C 0.59962 0.27330 0.36381
 C1143 C 0.63227 0.25047 0.39871
 C1144 C 0.63712 0.22170 0.37557
 C1145 C 0.64098 0.24553 0.34752
 C1146 C 0.63638 0.27427 0.37032
 H1147 H 0.59334 0.24198 0.31642
 H1148 H 0.58516 0.19867 0.36876
 H1149 H 0.58433 0.29466 0.35862
 H1150 H 0.64349 0.25305 0.42286
 H1151 H 0.65282 0.20049 0.38015
 H1152 H 0.65136 0.29634 0.37052
 C1153 C 0.84160 0.75586 0.11879
 C1154 C 0.86650 0.78324 0.11445
 C1155 C 0.89320 0.75779 0.10946
 C1156 C 0.86848 0.73042 0.11356
 C1157 C 0.90049 0.75731 0.14583
 C1158 C 0.87356 0.78271 0.15105
 C1159 C 0.84889 0.75543 0.15512
 C1160 C 0.87544 0.72998 0.15027
 H1161 H 0.81720 0.75519 0.10776
 H1162 H 0.86190 0.80556 0.10044
 H1163 H 0.86652 0.70886 0.09790
 H1164 H 0.92490 0.75803 0.15682
 H1165 H 0.87551 0.80423 0.16667
 H1166 H 0.87880 0.70805 0.16525
 C1167 C 0.35321 0.28569 0.63358
 C1168 C 0.39017 0.28595 0.63923
 C1169 C 0.39400 0.25993 0.61309
 C1170 C 0.35732 0.25974 0.60718
 C1171 C 0.39061 0.23308 0.63847
 C1172 C 0.38649 0.25905 0.66492
 C1173 C 0.34987 0.25879 0.65885
 C1174 C 0.35370 0.23287 0.63277
 H1175 H 0.33747 0.30730 0.63184
 H1176 H 0.40508 0.30793 0.64213
 H1177 H 0.34549 0.26011 0.58317
 H1178 H 0.40628 0.21144 0.64029
 H1179 H 0.39826 0.25871 0.68896
 H1180 H 0.33845 0.21105 0.63037
 C1181 C 0.83784 0.24883 0.88852
 C1182 C 0.86387 0.22252 0.89357
 C1183 C 0.88910 0.24907 0.89921
 C1184 C 0.86332 0.27543 0.89443
 C1185 C 0.89727 0.24978 0.86297
 C1186 C 0.87175 0.22324 0.85709
 C1187 C 0.84605 0.24954 0.85233
 C1188 C 0.87119 0.27609 0.85790
 H1189 H 0.81316 0.24839 0.89892
 H1190 H 0.86090 0.20048 0.90846
 H1191 H 0.85927 0.29711 0.90950
 H1192 H 0.92197 0.25020 0.85262
 H1193 H 0.87501 0.20182 0.84142
 H1194 H 0.87402 0.29806 0.84288
 C1195 C 0.34001 0.75120 0.38836
 C1196 C 0.36552 0.72435 0.39309
 C1197 C 0.39120 0.75034 0.39918
 C1198 C 0.36595 0.77722 0.39468
 C1199 C 0.39952 0.75139 0.36300
 C1200 C 0.37355 0.72541 0.35668
 C1201 C 0.34838 0.75225 0.35222
 C1202 C 0.37397 0.77825 0.35820
 H1203 H 0.31529 0.75108 0.39866
 H1204 H 0.36215 0.70219 0.40770
 H1205 H 0.36246 0.79868 0.41019
 H1206 H 0.42429 0.75146 0.35282
 H1207 H 0.37644 0.70416 0.34072
 H1208 H 0.37724 0.80036 0.34348
 C1209 C 0.15265 0.12641 0.27046
 C1210 C 0.11597 0.13318 0.27239
 C1211 C 0.11013 0.10686 0.24685
 C1212 C 0.14657 0.09987 0.24495
 C1213 C 0.11299 0.13196 0.21963
 C1214 C 0.11901 0.15845 0.24514
 C1215 C 0.15540 0.15147 0.24331
 C1216 C 0.14974 0.12530 0.21773
 H1217 H 0.16924 0.12435 0.29138
 H1218 H 0.10265 0.13714 0.29523
 H1219 H 0.15774 0.07555 0.24491
 H1220 H 0.09647 0.13410 0.19867
 H1221 H 0.10773 0.18272 0.24514
 H1222 H 0.16389 0.12237 0.19520
 C1223 C 0.65287 0.62697 0.77136
 C1224 C 0.61629 0.63431 0.77297
 C1225 C 0.61029 0.60831 0.74715
 C1226 C 0.64663 0.60075 0.74556
 C1227 C 0.61383 0.63358 0.72017
 C1228 C 0.62001 0.65975 0.74597
 C1229 C 0.65630 0.65219 0.74444
 C1230 C 0.65047 0.62633 0.71859
 H1231 H 0.66922 0.62447 0.79243
 H1232 H 0.60277 0.63828 0.79570
 H1233 H 0.65740 0.57626 0.74543
 H1234 H 0.59755 0.63615 0.69907
 H1235 H 0.60913 0.68420 0.74606
 H1236 H 0.66475 0.62333 0.69617
 C1237 C 0.85601 0.12511 0.72318
 C1238 C 0.89257 0.13305 0.72333
 C1239 C 0.89761 0.10815 0.75045
 C1240 C 0.86136 0.09989 0.75025
 C1241 C 0.89200 0.13412 0.77627
 C1242 C 0.88670 0.15927 0.74920
 C1243 C 0.85050 0.15098 0.74901
 C1244 C 0.85552 0.12614 0.77606
 H1245 H 0.84087 0.12159 0.70139
 H1246 H 0.90754 0.13645 0.70142
 H1247 H 0.85109 0.07521 0.75067
 H1248 H 0.90701 0.13779 0.79813
 H1249 H 0.89703 0.18392 0.74881
 H1250 H 0.83998 0.12349 0.79771
 C1251 C 0.35847 0.62931 0.22342
 C1252 C 0.39510 0.63656 0.22447
 C1253 C 0.39911 0.61137 0.25144
 C1254 C 0.36273 0.60387 0.25040
 C1255 C 0.39353 0.63726 0.27737
 C1256 C 0.38927 0.66272 0.25037
 C1257 C 0.35295 0.65512 0.24928
 C1258 C 0.35689 0.63003 0.27628
 H1259 H 0.34378 0.62626 0.20126
 H1260 H 0.41114 0.63910 0.20319
 H1261 H 0.35202 0.57938 0.25052
 H1262 H 0.40781 0.64086 0.29970
 H1263 H 0.40003 0.68719 0.25028
 H1264 H 0.34079 0.62756 0.29754
 C1265 C 0.15178 0.87966 0.75234
 C1266 C 0.12531 0.88807 0.72738
 C1267 C 0.10082 0.89152 0.75508
 C1268 C 0.12715 0.88326 0.78006
 C1269 C 0.09165 0.85572 0.75211
 C1270 C 0.11651 0.85192 0.72440
 C1271 C 0.14272 0.84388 0.74938
 C1272 C 0.11826 0.84721 0.77703
 H1273 H 0.17666 0.88955 0.75234
 H1274 H 0.12815 0.90514 0.70695
 H1275 H 0.13242 0.89531 0.80331
 H1276 H 0.06669 0.84604 0.75216
 H1277 H 0.11241 0.83878 0.70149
 H1278 H 0.11556 0.83006 0.79742
 C1279 C 0.65247 0.37886 0.24428
 C1280 C 0.62660 0.38359 0.21786
 C1281 C 0.60128 0.38992 0.24433
 C1282 C 0.62701 0.38532 0.27070
 C1283 C 0.59280 0.35386 0.24567
 C1284 C 0.61841 0.34724 0.21921
 C1285 C 0.64408 0.34283 0.24556
 C1286 C 0.61887 0.34897 0.27204
 H1287 H 0.67719 0.38914 0.24374
 H1288 H 0.63043 0.39731 0.19522
 H1289 H 0.63042 0.40120 0.29192
 H1290 H 0.56799 0.34384 0.24623
 H1291 H 0.61513 0.33126 0.19805
 H1292 H 0.61601 0.33441 0.29433
 C1293 C 0.87588 0.86121 0.27881
 C1294 C 0.89961 0.86565 0.25035
 C1295 C 0.89299 0.90215 0.25089
 C1296 C 0.86952 0.89800 0.27935
 C1297 C 0.86518 0.89820 0.22658
 C1298 C 0.87156 0.86145 0.22612
 C1299 C 0.84818 0.85724 0.25455
 C1300 C 0.84141 0.89369 0.25507
 H1301 H 0.88005 0.84576 0.30028
 H1302 H 0.92375 0.85422 0.24826
 H1303 H 0.86879 0.91332 0.30124
 H1304 H 0.86020 0.91311 0.20492
 H1305 H 0.87215 0.84626 0.20421
 H1306 H 0.81722 0.90502 0.25710
 C1307 C 0.37395 0.36373 0.78050
 C1308 C 0.39816 0.36649 0.75226
 C1309 C 0.39193 0.40303 0.75084
 C1310 C 0.36795 0.40053 0.77906
 C1311 C 0.36450 0.39811 0.72631
 C1312 C 0.37050 0.36133 0.72780
 C1313 C 0.34661 0.35884 0.75604
 C1314 C 0.34021 0.39531 0.75457
 H1315 H 0.37758 0.34935 0.80280
 H1316 H 0.42225 0.35481 0.75116
 H1317 H 0.36711 0.41699 0.80010
 H1318 H 0.36031 0.41209 0.70387
 H1319 H 0.37130 0.34483 0.70677
 H1320 H 0.31610 0.40696 0.75564
 C1321 C 0.11198 0.25487 0.84752
 C1322 C 0.10638 0.22834 0.87317
 C1323 C 0.10203 0.25464 0.89892
 C1324 C 0.10742 0.28120 0.87344
 C1325 C 0.13835 0.25378 0.90666
 C1326 C 0.14302 0.22751 0.88056
 C1327 C 0.14824 0.25407 0.85523
 C1328 C 0.14399 0.28031 0.88093
 H1329 H 0.10123 0.25523 0.82301
 H1330 H 0.09069 0.20691 0.87008
 H1331 H 0.09349 0.30372 0.86962
 H1332 H 0.14900 0.25338 0.93121
 H1333 H 0.15790 0.20543 0.88314
 H1334 H 0.15979 0.30167 0.88386
 C1335 C 0.63169 0.72125 0.36412
 C1336 C 0.63764 0.72423 0.40085
 C1337 C 0.60871 0.74743 0.40318
 C1338 C 0.60252 0.74439 0.36672
 C1339 C 0.63091 0.77657 0.39744
 C1340 C 0.66013 0.75340 0.39478
 C1341 C 0.65375 0.75039 0.35836
 C1342 C 0.62492 0.77355 0.36075
 H1343 H 0.63246 0.69838 0.35046
 H1344 H 0.64315 0.70383 0.41727
 H1345 H 0.57858 0.74058 0.35534
 H1346 H 0.63042 0.79932 0.41145
 H1347 H 0.68410 0.75717 0.40611
 H1348 H 0.61991 0.79384 0.34401
 C1349 C 0.84604 0.74810 0.88202
 C1350 C 0.87094 0.72085 0.88738
 C1351 C 0.89711 0.74649 0.89353
 C1352 C 0.87236 0.77371 0.88834
 C1353 C 0.90599 0.74700 0.85750
 C1354 C 0.87955 0.72140 0.85109
 C1355 C 0.85483 0.74853 0.84603
 C1356 C 0.88087 0.77419 0.85198
 H1357 H 0.82121 0.74865 0.89205
 H1358 H 0.86594 0.69850 0.90117
 H1359 H 0.86948 0.79526 0.90388
 H1360 H 0.93088 0.74649 0.84762
 H1361 H 0.88227 0.69991 0.83543
 H1362 H 0.88460 0.79612 0.83709
 C1363 C 0.35663 0.27781 0.36710
 C1364 C 0.36017 0.25143 0.39323
 C1365 C 0.39702 0.25204 0.38852
 C1366 C 0.39372 0.27845 0.36263
 C1367 C 0.39473 0.22559 0.36263
 C1368 C 0.35763 0.22501 0.36712
 C1369 C 0.35435 0.25138 0.34131
 C1370 C 0.39113 0.25202 0.33642
 H1371 H 0.34070 0.29929 0.36866
 H1372 H 0.34757 0.25116 0.41684
 H1373 H 0.40879 0.30047 0.36096
 H1374 H 0.41028 0.20393 0.36043
 H1375 H 0.34249 0.20303 0.36873
 H1376 H 0.40366 0.25233 0.31277
 C1377 C 0.14470 0.72908 0.12718
 C1378 C 0.10815 0.72892 0.13488
 C1379 C 0.10289 0.75545 0.10946
 C1380 C 0.13920 0.75562 0.10152
 C1381 C 0.10780 0.78179 0.13506
 C1382 C 0.11332 0.75523 0.16073
 C1383 C 0.14960 0.75537 0.15271
 C1384 C 0.14441 0.78193 0.12740
 H1385 H 0.16015 0.70744 0.12413
 H1386 H 0.09295 0.70713 0.13785
 H1387 H 0.14965 0.75585 0.07688
 H1388 H 0.09274 0.80362 0.13863
 H1389 H 0.10279 0.75505 0.18534
 H1390 H 0.15952 0.80371 0.12447
 C1391 C 0.64118 0.22461 0.62737
 C1392 C 0.60462 0.22602 0.63507
 C1393 C 0.60049 0.25252 0.60937
 C1394 C 0.63679 0.25109 0.60140
 C1395 C 0.60661 0.27887 0.63467
 C1396 C 0.61095 0.25238 0.66063
 C1397 C 0.64720 0.25094 0.65261
 C1398 C 0.64315 0.27742 0.62700
 H1399 H 0.65574 0.20233 0.62455
 H1400 H 0.58895 0.20470 0.63882
 H1401 H 0.64721 0.25054 0.57676
 H1402 H 0.59213 0.30119 0.63758
 H1403 H 0.60043 0.25298 0.68523
 H1404 H 0.65931 0.29851 0.62391
 C1405 C 0.88120 0.24346 0.16061
 C1406 C 0.88737 0.21826 0.13382
 C1407 C 0.89048 0.24575 0.10906
 C1408 C 0.88454 0.27098 0.13566
 C1409 C 0.85411 0.24410 0.10181
 C1410 C 0.85068 0.21661 0.12687
 C1411 C 0.84488 0.24185 0.15332
 C1412 C 0.84793 0.26929 0.12861
 H1413 H 0.89225 0.24308 0.18499
 H1414 H 0.90382 0.19722 0.13579
 H1415 H 0.89794 0.29367 0.13997
 H1416 H 0.84313 0.24443 0.07740
 H1417 H 0.83663 0.19421 0.12340
 H1418 H 0.83141 0.29028 0.12670
 C1419 C 0.34683 0.76876 0.62751
 C1420 C 0.38332 0.76948 0.63528
 C1421 C 0.38922 0.74446 0.60848
 C1422 C 0.35294 0.74374 0.60051
 C1423 C 0.38494 0.71674 0.63283
 C1424 C 0.37887 0.74176 0.65980
 C1425 C 0.34264 0.74114 0.65184
 C1426 C 0.34832 0.71604 0.62520
 H1427 H 0.33087 0.79017 0.62552
 H1428 H 0.39709 0.79181 0.64025
 H1429 H 0.34245 0.74462 0.57590
 H1430 H 0.40084 0.69529 0.63489
 H1431 H 0.38948 0.74085 0.68436
 H1432 H 0.33364 0.69403 0.62138
 C1433 C 0.25126 0.12108 0.84636
 C1434 C 0.27688 0.11624 0.87289
 C1435 C 0.25099 0.10912 0.89623
 C1436 C 0.22545 0.11270 0.87183
 C1437 C 0.24837 0.14298 0.90642
 C1438 C 0.27479 0.15231 0.88170
 C1439 C 0.24854 0.15697 0.85575
 C1440 C 0.22201 0.14875 0.88055
 H1441 H 0.25244 0.11080 0.82170
 H1442 H 0.29994 0.10308 0.86956
 H1443 H 0.20536 0.09531 0.86865
 H1444 H 0.24735 0.15068 0.93203
 H1445 H 0.29562 0.16836 0.88657
 H1446 H 0.19889 0.16167 0.88442
 C1447 C 0.75192 0.62000 0.34744
 C1448 C 0.77879 0.61481 0.37274
 C1449 C 0.75271 0.60882 0.39854
 C1450 C 0.72586 0.61391 0.37339
 C1451 C 0.75209 0.64489 0.40710
 C1452 C 0.77818 0.65112 0.38102
 C1453 C 0.75139 0.65604 0.35590
 C1454 C 0.72526 0.65029 0.38157
 H1455 H 0.75177 0.60975 0.32274
 H1456 H 0.80119 0.60083 0.36837
 H1457 H 0.70431 0.59835 0.37037
 H1458 H 0.75221 0.65487 0.43190
 H1459 H 0.79968 0.66676 0.38393
 H1460 H 0.70324 0.66520 0.38487
 C1461 C 0.74836 0.10452 0.16100
 C1462 C 0.72411 0.10040 0.13289
 C1463 C 0.75260 0.09603 0.10950
 C1464 C 0.77690 0.09983 0.13732
 C1465 C 0.75343 0.13252 0.10291
 C1466 C 0.72492 0.13712 0.12649
 C1467 C 0.74916 0.14096 0.15422
 C1468 C 0.77766 0.13660 0.13096
 H1469 H 0.74622 0.09323 0.18518
 H1470 H 0.70210 0.08521 0.13352
 H1471 H 0.79840 0.08458 0.14206
 H1472 H 0.75562 0.14387 0.07876
 H1473 H 0.70354 0.15271 0.12227
 H1474 H 0.79971 0.15165 0.13050
 C1475 C 0.27498 0.61871 0.64868
 C1476 C 0.25002 0.59204 0.64097
 C1477 C 0.25422 0.59914 0.60480
 C1478 C 0.27924 0.62555 0.61225
 C1479 C 0.22671 0.62408 0.60593
 C1480 C 0.22247 0.61728 0.64239
 C1481 C 0.24747 0.64356 0.64967
 C1482 C 0.25168 0.65066 0.61356
 H1483 H 0.29481 0.61680 0.66660
 H1484 H 0.24946 0.56768 0.65203
 H1485 H 0.30288 0.62958 0.60038
 H1486 H 0.20685 0.62610 0.58807
 H1487 H 0.19907 0.61421 0.65504
 H1488 H 0.25230 0.67496 0.60238
 C1489 C 0.73449 0.85253 0.86976
 C1490 C 0.76124 0.85634 0.89548
 C1491 C 0.76148 0.89292 0.88922
 C1492 C 0.73477 0.88931 0.86371
 C1493 C 0.78774 0.88883 0.86326
 C1494 C 0.78743 0.85196 0.86924
 C1495 C 0.76064 0.84844 0.84386
 C1496 C 0.76097 0.88497 0.83747
 H1497 H 0.71259 0.83736 0.87223
 H1498 H 0.76141 0.84472 0.91961
 H1499 H 0.71311 0.90494 0.86158
 H1500 H 0.80980 0.90366 0.86032
 H1501 H 0.80905 0.83624 0.87125
 H1502 H 0.76084 0.89659 0.81336
 C1503 C 0.28645 0.37347 0.34466
 C1504 C 0.26100 0.40019 0.35075
 C1505 C 0.26270 0.39297 0.38712
 C1506 C 0.28819 0.36651 0.38130
 C1507 C 0.23536 0.36810 0.38399
 C1508 C 0.23364 0.37503 0.34735
 C1509 C 0.25910 0.34868 0.34167
 C1510 C 0.26081 0.34146 0.37798
 H1511 H 0.30746 0.37539 0.32817
 H1512 H 0.26116 0.42457 0.33974
 H1513 H 0.31096 0.36243 0.39478
 H1514 H 0.21431 0.36604 0.40040
 H1515 H 0.21115 0.37824 0.33314
 H1516 H 0.26070 0.31712 0.38910
 C1517 C 0.25232 0.88851 0.15625
 C1518 C 0.27846 0.89014 0.12965
 C1519 C 0.25180 0.89515 0.10417
 C1520 C 0.22568 0.89379 0.13054
 C1521 C 0.24919 0.85859 0.09896
 C1522 C 0.27583 0.85333 0.12463
 C1523 C 0.24975 0.85200 0.15093
 C1524 C 0.22310 0.85693 0.12561
 H1525 H 0.25352 0.90067 0.18002
 H1526 H 0.30159 0.90336 0.13194
 H1527 H 0.20498 0.91064 0.13276
 H1528 H 0.24794 0.84642 0.07519
 H1529 H 0.29650 0.83643 0.12245
 H1530 H 0.20023 0.84322 0.12426
 C1531 C 0.71785 0.37189 0.64574
 C1532 C 0.74447 0.39729 0.63951
 C1533 C 0.74286 0.38972 0.60321
 C1534 C 0.71618 0.36463 0.60912
 C1535 C 0.76912 0.36375 0.60702
 C1536 C 0.77076 0.37110 0.64353
 C1537 C 0.74419 0.34605 0.64943
 C1538 C 0.74250 0.33840 0.61317
 H1539 H 0.69683 0.37497 0.66205
 H1540 H 0.74521 0.42180 0.65012
 H1541 H 0.69361 0.36172 0.59504
 H1542 H 0.79018 0.36053 0.59081
 H1543 H 0.79319 0.37355 0.65795
 H1544 H 0.74171 0.31392 0.60249
 C1545 C 0.12654 0.15297 0.72973
 C1546 C 0.13378 0.11643 0.72889
 C1547 C 0.10716 0.11098 0.75428
 C1548 C 0.09971 0.14730 0.75512
 C1549 C 0.13191 0.11481 0.78170
 C1550 C 0.15870 0.12044 0.75632
 C1551 C 0.15125 0.15669 0.75707
 C1552 C 0.12479 0.15144 0.78252
 H1553 H 0.12458 0.16897 0.70835
 H1554 H 0.13821 0.10259 0.70647
 H1555 H 0.07522 0.15814 0.75456
 H1556 H 0.13394 0.09887 0.80312
 H1557 H 0.18315 0.10948 0.75691
 H1558 H 0.12144 0.16614 0.80460
 C1559 C 0.62828 0.64883 0.23128
 C1560 C 0.63508 0.61221 0.23372
 C1561 C 0.60834 0.60925 0.25933
 C1562 C 0.60124 0.64556 0.25685
 C1563 C 0.63305 0.61525 0.28646
 C1564 C 0.65998 0.61842 0.26084
 C1565 C 0.65285 0.65468 0.25842
 C1566 C 0.62617 0.65180 0.28395
 H1567 H 0.62661 0.66290 0.20856
 H1568 H 0.63855 0.59568 0.21301
 H1569 H 0.57686 0.65655 0.25528
 H1570 H 0.63561 0.60198 0.30956
 H1571 H 0.68433 0.60735 0.26246
 H1572 H 0.62246 0.66838 0.30450
 C1573 C 0.16027 0.88902 0.24924
 C1574 C 0.13423 0.89376 0.22289
 C1575 C 0.10889 0.89899 0.24948
 C1576 C 0.13467 0.89451 0.27586
 C1577 C 0.10121 0.86270 0.25009
 C1578 C 0.12686 0.85720 0.22352
 C1579 C 0.15255 0.85278 0.24986
 C1580 C 0.12729 0.85794 0.27643
 H1581 H 0.18482 0.89969 0.24882
 H1582 H 0.13700 0.90875 0.20089
 H1583 H 0.13848 0.90956 0.29760
 H1584 H 0.07665 0.85206 0.25049
 H1585 H 0.12392 0.84153 0.20206
 H1586 H 0.12466 0.84283 0.29837
 C1587 C 0.65937 0.38568 0.74761
 C1588 C 0.63384 0.39098 0.72091
 C1589 C 0.60830 0.39712 0.74711
 C1590 C 0.63359 0.39202 0.77383
 C1591 C 0.59963 0.36104 0.74780
 C1592 C 0.62548 0.35464 0.72161
 C1593 C 0.65069 0.34963 0.74833
 C1594 C 0.62521 0.35567 0.77451
 H1595 H 0.68417 0.39574 0.74746
 H1596 H 0.63732 0.40577 0.69886
 H1597 H 0.63738 0.40721 0.79547
 H1598 H 0.57476 0.35113 0.74790
 H1599 H 0.62236 0.33895 0.70020
 H1600 H 0.62183 0.34079 0.79651
 C1601 C 0.84569 0.11870 0.22232
 C1602 C 0.88201 0.12677 0.21927
 C1603 C 0.88960 0.10083 0.24480
 C1604 C 0.85355 0.09246 0.24781
 C1605 C 0.88653 0.12584 0.27196
 C1606 C 0.87881 0.15193 0.24646
 C1607 C 0.84279 0.14366 0.24947
 C1608 C 0.85017 0.11782 0.27500
 H1609 H 0.82852 0.11605 0.20194
 H1610 H 0.89453 0.13109 0.19604
 H1611 H 0.84343 0.06773 0.24825
 H1612 H 0.90362 0.12864 0.29237
 H1613 H 0.88919 0.17657 0.24597
 H1614 H 0.83680 0.11447 0.29793
 C1615 C 0.36553 0.63994 0.72257
 C1616 C 0.39126 0.63622 0.74930
 C1617 C 0.38671 0.59945 0.74826
 C1618 C 0.36119 0.60294 0.72150
 C1619 C 0.36036 0.60141 0.77439
 C1620 C 0.36473 0.63843 0.77539
 C1621 C 0.33929 0.64191 0.74866
 C1622 C 0.33450 0.60522 0.74761
 H1623 H 0.36738 0.65604 0.70125
 H1624 H 0.41485 0.64885 0.75003
 H1625 H 0.35993 0.58811 0.69930
 H1626 H 0.35792 0.58565 0.79587
 H1627 H 0.36594 0.65332 0.79756
 H1628 H 0.31086 0.59271 0.74684
 C1629 C 0.89561 0.84039 0.75355
 C1630 C 0.90080 0.86745 0.72834
 C1631 C 0.90293 0.89213 0.75587
 C1632 C 0.89805 0.86539 0.78116
 C1633 C 0.86629 0.89806 0.75415
 C1634 C 0.86395 0.87319 0.72658
 C1635 C 0.85904 0.84651 0.75174
 C1636 C 0.86112 0.87105 0.77934
 H1637 H 0.90740 0.81637 0.75324
 H1638 H 0.91741 0.86618 0.70740
 H1639 H 0.91203 0.86200 0.80373
 H1640 H 0.85442 0.92204 0.75449
 H1641 H 0.84966 0.87614 0.70412
 H1642 H 0.84442 0.87223 0.80024
 C1643 C 0.37993 0.35121 0.27430
 C1644 C 0.40658 0.35824 0.24903
 C1645 C 0.39937 0.39447 0.25209
 C1646 C 0.37299 0.38771 0.27741
 C1647 C 0.37434 0.39245 0.22476
 C1648 C 0.38124 0.35593 0.22166
 C1649 C 0.35499 0.34934 0.24696
 C1650 C 0.34779 0.38551 0.25003
 H1651 H 0.38192 0.33391 0.29465
 H1652 H 0.43102 0.34726 0.24872
 H1653 H 0.36898 0.40029 0.30064
 H1654 H 0.37221 0.40968 0.20437
 H1655 H 0.38430 0.34260 0.19870
 H1656 H 0.32341 0.39664 0.25039
   
