data_POSCAR
  _audit_creation_date              2014-09-24
  _audit_creation_method            'ToBaCCo'
  _symmetry_space_group_name_H-M    'P1'
  _symmetry_Int_Tables_number       1
  _symmetry_cell_setting            triclinic
  loop_
  _symmetry_equiv_pos_as_xyz
 x,y,z
_cell_length_a 27.6503
_cell_length_b 28.4628
_cell_length_c 35.2235
_cell_angle_alpha 89.945400
_cell_angle_beta 89.902400
_cell_angle_gamma 90.051500
loop_
  _atom_site_label
  _atom_site_type_symbol
  _atom_site_fract_x
  _atom_site_fract_y
  _atom_site_fract_z
Zr1 Zr 0.24770 0.25019 0.31518
 O2 O 0.28466 0.28849 0.35773
 O3 O 0.20066 0.20835 0.34747
 O4 O 0.20012 0.29487 0.34481
 O5 O 0.33794 0.16793 0.30371
 O6 O 0.16064 0.33574 0.29842
 O7 O 0.29285 0.20659 0.34819
 O8 O 0.15626 0.17061 0.30219
 O9 O 0.18462 0.25107 0.28238
 O10 O 0.24792 0.18789 0.28376
 O11 O 0.25218 0.31156 0.28202
 O12 O 0.31314 0.25084 0.28417
 Zr13 Zr 0.25353 0.24930 0.18292
 Zr14 Zr 0.19076 0.31018 0.24729
 Zr15 Zr 0.31062 0.18978 0.25082
 Zr16 Zr 0.18673 0.19008 0.24969
 O17 O 0.38702 0.19439 0.25078
 O18 O 0.11124 0.20258 0.24655
 O19 O 0.24931 0.18738 0.21570
 O20 O 0.18873 0.24897 0.21428
 O21 O 0.25328 0.31222 0.21377
 O22 O 0.31616 0.24885 0.21607
 C23 C 0.16689 0.18036 0.33681
 C24 C 0.32628 0.17765 0.33822
 C25 C 0.16925 0.32560 0.33340
 O26 O 0.11456 0.30556 0.24343
 O27 O 0.16880 0.33712 0.19428
 O28 O 0.21076 0.29495 0.14994
 C29 C 0.17994 0.32648 0.15982
 O30 O 0.34677 0.33598 0.29866
 Zr31 Zr 0.31444 0.30989 0.24819
 O32 O 0.29886 0.29206 0.15017
 O33 O 0.19823 0.38413 0.24894
 O34 O 0.30400 0.38369 0.24856
 O35 O 0.39047 0.30046 0.24587
 O36 O 0.33763 0.33593 0.19508
 C37 C 0.32793 0.32472 0.16052
 O38 O 0.21496 0.21220 0.14056
 O39 O 0.30320 0.11583 0.25316
 O40 O 0.29874 0.20223 0.15333
 O41 O 0.33651 0.16007 0.19988
 O42 O 0.19349 0.11609 0.25455
 O43 O 0.16165 0.15743 0.19916
 C44 C 0.32807 0.17014 0.16489
 H45 H 0.24740 0.15939 0.29988
 H46 H 0.16022 0.24845 0.19731
 H47 H 0.34625 0.24779 0.20082
 H48 H 0.25288 0.34000 0.29817
 H49 H 0.09459 0.17301 0.25370
 H50 H 0.10215 0.33822 0.24335
 H51 H 0.16523 0.39739 0.24671
 H52 H 0.33518 0.39848 0.24143
 H53 H 0.16097 0.10333 0.26044
 H54 H 0.33630 0.10278 0.25528
 H55 H 0.39948 0.16176 0.25112
 H56 H 0.40498 0.33111 0.23882
 H57 H 0.13373 0.13690 0.20518
 H58 H 0.22787 0.22247 0.11559
 H59 H 0.27170 0.27802 0.38264
 H60 H 0.36910 0.36204 0.29225
 Zr61 Zr 0.75671 0.75098 0.31604
 O62 O 0.72088 0.71286 0.35945
 O63 O 0.80459 0.79290 0.34752
 O64 O 0.80449 0.70550 0.34491
 O65 O 0.66628 0.83369 0.30545
 O66 O 0.84252 0.66448 0.29781
 O67 O 0.71129 0.79408 0.34945
 O68 O 0.84736 0.83149 0.30158
 O69 O 0.81917 0.75001 0.28234
 O70 O 0.75593 0.81331 0.28450
 O71 O 0.75133 0.68974 0.28286
 O72 O 0.69077 0.75055 0.28575
 Zr73 Zr 0.74856 0.75198 0.18375
 Zr74 Zr 0.81212 0.69098 0.24730
 Zr75 Zr 0.69272 0.81166 0.25228
 Zr76 Zr 0.81652 0.81108 0.24960
 O77 O 0.61632 0.80722 0.25343
 O78 O 0.89195 0.79829 0.24605
 O79 O 0.75343 0.81391 0.21637
 O80 O 0.81384 0.75222 0.21426
 O81 O 0.74907 0.68904 0.21462
 O82 O 0.68647 0.75259 0.21770
 C83 C 0.83759 0.82158 0.33636
 C84 C 0.67793 0.82328 0.33981
 C85 C 0.83459 0.67431 0.33292
 O86 O 0.88829 0.69550 0.24275
 O87 O 0.83325 0.66412 0.19406
 O88 O 0.79066 0.70634 0.15020
 C89 C 0.82157 0.67476 0.15973
 O90 O 0.65701 0.66552 0.30080
 Zr91 Zr 0.68852 0.69156 0.24987
 O92 O 0.70261 0.70931 0.15168
 O93 O 0.80446 0.61703 0.24874
 O94 O 0.69874 0.61772 0.25014
 O95 O 0.61250 0.70131 0.24865
 O96 O 0.66422 0.66565 0.19709
 C97 C 0.67348 0.67682 0.16240
 O98 O 0.78649 0.78913 0.14091
 O99 O 0.70051 0.88558 0.25425
 O100 O 0.70290 0.79888 0.15465
 O101 O 0.66579 0.84114 0.20149
 O102 O 0.80965 0.88512 0.25385
 O103 O 0.84131 0.84334 0.19870
 C104 C 0.67364 0.83087 0.16642
 H105 H 0.75666 0.84180 0.30059
 H106 H 0.84209 0.75267 0.19695
 H107 H 0.65612 0.75368 0.20287
 H108 H 0.75074 0.66123 0.29898
 H109 H 0.90876 0.82787 0.25283
 H110 H 0.90063 0.66283 0.24234
 H111 H 0.83736 0.60365 0.24600
 H112 H 0.66738 0.60304 0.24346
 H113 H 0.84222 0.89806 0.25921
 H114 H 0.66750 0.89876 0.25671
 H115 H 0.60394 0.83989 0.25368
 H116 H 0.59772 0.67075 0.24180
 H117 H 0.86945 0.86368 0.20437
 H118 H 0.77320 0.77891 0.11609
 H119 H 0.73441 0.72350 0.38407
 H120 H 0.63450 0.63952 0.29471
 Zr121 Zr 0.75188 0.25038 -0.31564
 O122 O 0.71499 0.28864 -0.35828
 O123 O 0.79962 0.20922 -0.34782
 O124 O 0.79921 0.29553 -0.34520
 O125 O 0.66130 0.16820 -0.30412
 O126 O 0.83939 0.33529 -0.29855
 O127 O 0.70651 0.20685 -0.34863
 O128 O 0.84242 0.16961 -0.30259
 O129 O 0.81489 0.25092 -0.28273
 O130 O 0.75135 0.18797 -0.28426
 O131 O 0.74763 0.31162 -0.28237
 O132 O 0.68644 0.25110 -0.28463
 Zr133 Zr 0.74592 0.24913 -0.18331
 Zr134 Zr 0.80897 0.30989 -0.24756
 Zr135 Zr 0.68867 0.18994 -0.25130
 Zr136 Zr 0.81248 0.18979 -0.25010
 O137 O 0.61229 0.19476 -0.25134
 O138 O 0.88803 0.20225 -0.24741
 O139 O 0.74988 0.18728 -0.21612
 O140 O 0.81073 0.24858 -0.21462
 O141 O 0.74644 0.31212 -0.21412
 O142 O 0.68333 0.24891 -0.21652
 C143 C 0.83257 0.18033 -0.33717
 C144 C 0.67298 0.17793 -0.33863
 C145 C 0.83051 0.32572 -0.33356
 O146 O 0.88514 0.30510 -0.24352
 O147 O 0.83097 0.33677 -0.19461
 O148 O 0.78882 0.29462 -0.15027
 C149 C 0.81975 0.32614 -0.16015
 O150 O 0.65323 0.33641 -0.29910
 Zr151 Zr 0.68532 0.31003 -0.24862
 O152 O 0.70067 0.29188 -0.15061
 O153 O 0.80192 0.38387 -0.24931
 O154 O 0.69610 0.38381 -0.24891
 O155 O 0.60925 0.30070 -0.24642
 O156 O 0.66209 0.33594 -0.19553
 C157 C 0.67171 0.32461 -0.16097
 O158 O 0.78425 0.21185 -0.14090
 O159 O 0.69576 0.11598 -0.25361
 O160 O 0.70048 0.20214 -0.15383
 O161 O 0.66260 0.16018 -0.20041
 O162 O 0.80496 0.11582 -0.25447
 O163 O 0.83782 0.15716 -0.19962
 C164 C 0.67104 0.17018 -0.16544
 H165 H 0.75175 0.15952 -0.30041
 H166 H 0.83922 0.24797 -0.19764
 H167 H 0.65321 0.24788 -0.20131
 H168 H 0.74708 0.34015 -0.29847
 H169 H 0.90455 0.17264 -0.25452
 H170 H 0.89772 0.33772 -0.24352
 H171 H 0.83498 0.39702 -0.24707
 H172 H 0.66497 0.39865 -0.24181
 H173 H 0.83731 0.10275 -0.26042
 H174 H 0.66261 0.10301 -0.25573
 H175 H 0.59967 0.16216 -0.25162
 H176 H 0.59483 0.33135 -0.23936
 H177 H 0.86569 0.13668 -0.20571
 H178 H 0.77133 0.22209 -0.11595
 H179 H 0.72795 0.27817 -0.38316
 H180 H 0.63095 0.36246 -0.29268
 Zr181 Zr 0.24264 0.75326 -0.31619
 O182 O 0.27793 0.71607 -0.36029
 O183 O 0.19569 0.79701 -0.34693
 O184 O 0.19423 0.70919 -0.34605
 O185 O 0.33496 0.83359 -0.30346
 O186 O 0.15480 0.66797 -0.29966
 O187 O 0.28942 0.79682 -0.34853
 O188 O 0.15385 0.83525 -0.30044
 O189 O 0.17995 0.75261 -0.28269
 O190 O 0.24463 0.81451 -0.28345
 O191 O 0.24625 0.69097 -0.28397
 O192 O 0.30826 0.75026 -0.28556
 Zr193 Zr 0.24981 0.74982 -0.18350
 Zr194 Zr 0.18527 0.69248 -0.24862
 Zr195 Zr 0.30746 0.81031 -0.25099
 Zr196 Zr 0.18384 0.81252 -0.24874
 O197 O 0.38374 0.80423 -0.25198
 O198 O 0.10809 0.80122 -0.24576
 O199 O 0.24668 0.81276 -0.21518
 O200 O 0.18484 0.75260 -0.21439
 O201 O 0.24794 0.68789 -0.21560
 O202 O 0.31204 0.75023 -0.21736
 C203 C 0.16331 0.82615 -0.33543
 C204 C 0.32353 0.82501 -0.33820
 C205 C 0.16335 0.67827 -0.33460
 O206 O 0.10918 0.69872 -0.24472
 O207 O 0.16222 0.66480 -0.19616
 O208 O 0.20658 0.70318 -0.15125
 C209 C 0.17411 0.67325 -0.16148
 O210 O 0.33973 0.66440 -0.30176
 Zr211 Zr 0.30875 0.69023 -0.25061
 O212 O 0.29582 0.70625 -0.15216
 O213 O 0.19107 0.61842 -0.25111
 O214 O 0.29642 0.61669 -0.25184
 O215 O 0.38498 0.69849 -0.24938
 O216 O 0.33271 0.66265 -0.19822
 C217 C 0.32439 0.67358 -0.16335
 O218 O 0.21204 0.78561 -0.13992
 O219 O 0.30154 0.88442 -0.25149
 O220 O 0.29564 0.79588 -0.15339
 O221 O 0.33475 0.83755 -0.19970
 O222 O 0.19280 0.88647 -0.25148
 O223 O 0.15940 0.84383 -0.19742
 C224 C 0.32606 0.82719 -0.16479
 H225 H 0.24475 0.84352 -0.29898
 H226 H 0.15647 0.75314 -0.19721
 H227 H 0.34237 0.75043 -0.20248
 H228 H 0.24628 0.66290 -0.30054
 H229 H 0.09204 0.83134 -0.25207
 H230 H 0.09590 0.66637 -0.24505
 H231 H 0.15780 0.60571 -0.24891
 H232 H 0.32730 0.60107 -0.24525
 H233 H 0.16068 0.90038 -0.25687
 H234 H 0.33489 0.89696 -0.25355
 H235 H 0.39696 0.83660 -0.25140
 H236 H 0.39911 0.66751 -0.24293
 H237 H 0.13183 0.86495 -0.20288
 H238 H 0.22507 0.77424 -0.11534
 H239 H 0.26479 0.72789 -0.38469
 H240 H 0.36151 0.63777 -0.29591
 Zr241 Zr 1.25565 1.25310 0.81590
 O242 O 1.21547 1.21943 0.85934
 O243 O 1.30551 1.29235 0.84745
 O244 O 1.29925 1.20568 0.84689
 O245 O 1.17283 1.34250 0.80139
 O246 O 1.33540 1.16065 0.80135
 O247 O 1.21332 1.30131 0.84713
 O248 O 1.35196 1.32729 0.80175
 O249 O 1.31886 1.24629 0.78358
 O250 O 1.26091 1.31407 0.78290
 O251 O 1.24627 1.19123 0.78414
 O252 O 1.19078 1.25658 0.78435
 Zr253 Zr 1.25132 1.24977 0.68349
 Zr254 Zr 1.30797 1.18674 0.74980
 Zr255 Zr 1.19881 1.31603 0.74949
 Zr256 Zr 1.32218 1.30608 0.74939
 O257 O 1.12228 1.31738 0.74922
 O258 O 1.39630 1.28703 0.74863
 O259 O 1.26050 1.31233 0.71476
 O260 O 1.31556 1.24631 0.71529
 O261 O 1.24594 1.18828 0.71594
 O262 O 1.18857 1.25634 0.71622
 C263 C 1.34030 1.31903 0.83649
 C264 C 1.18287 1.33274 0.83616
 C265 C 1.32756 1.17231 0.83607
 O266 O 1.38434 1.18526 0.74606
 O267 O 1.32817 1.15569 0.69805
 O268 O 1.29006 1.19894 0.65234
 C269 C 1.31798 1.16546 0.66334
 O270 O 1.14958 1.17525 0.80071
 Zr271 Zr 1.18476 1.19657 0.74983
 O272 O 1.20316 1.20940 0.65151
 O273 O 1.29429 1.11371 0.75339
 O274 O 1.18894 1.12224 0.75233
 O275 O 1.10982 1.21187 0.74656
 O276 O 1.16042 1.17011 0.69714
 C277 C 1.17160 1.17921 0.66238
 O278 O 1.29349 1.28220 0.64061
 O279 O 1.21235 1.38921 0.74983
 O280 O 1.20989 1.29843 0.65216
 O281 O 1.17634 1.34561 0.69755
 O282 O 1.32086 1.38058 0.75084
 O283 O 1.35217 1.33388 0.69850
 C284 C 1.18343 1.33322 0.66286
 H285 H 1.26339 1.34312 0.79820
 H286 H 1.34421 1.24384 0.69852
 H287 H 1.15883 1.25912 0.70078
 H288 H 1.24305 1.16351 0.80096
 H289 H 1.41528 1.31537 0.75537
 H290 H 1.39409 1.15179 0.74714
 H291 H 1.32607 1.09774 0.75180
 H292 H 1.15671 1.10969 0.74538
 H293 H 1.35400 1.39147 0.75695
 H294 H 1.18043 1.40493 0.75106
 H295 H 1.11257 1.35086 0.74813
 H296 H 1.09293 1.18222 0.74010
 H297 H 1.38176 1.35200 0.70454
 H298 H 1.28040 1.27163 0.61584
 H299 H 1.22893 1.23012 0.88396
 H300 H 1.12519 1.15083 0.79482
 Zr301 Zr 0.74898 0.74776 0.81486
 O302 O 0.79009 0.78150 0.85757
 O303 O 0.70000 0.70830 0.84728
 O304 O 0.70593 0.79543 0.84622
 O305 O 0.82983 0.65695 0.79948
 O306 O 0.67000 0.84111 0.80101
 O307 O 0.79171 0.69949 0.84567
 O308 O 0.65080 0.67594 0.80232
 O309 O 0.68530 0.75519 0.78337
 O310 O 0.74238 0.68677 0.78213
 O311 O 0.75843 0.80943 0.78272
 O312 O 0.81319 0.74348 0.78238
 Zr313 Zr 0.75071 0.75041 0.68230
 Zr314 Zr 0.69621 0.81448 0.74919
 Zr315 Zr 0.80383 0.68401 0.74786
 Zr316 Zr 0.68059 0.69533 0.74948
 O317 O 0.88034 0.68205 0.74710
 O318 O 0.60663 0.71502 0.74893
 O319 O 0.74151 0.68813 0.71402
 O320 O 0.68721 0.75482 0.71509
 O321 O 0.75747 0.81204 0.71438
 O322 O 0.81402 0.74345 0.71416
 C323 C 0.66383 0.68316 0.83685
 C324 C 0.82099 0.66719 0.83436
 C325 C 0.67787 0.82915 0.83566
 O326 O 0.61980 0.81697 0.74659
 O327 O 0.67546 0.84539 0.69752
 O328 O 0.71056 0.80041 0.65140
 C329 C 0.68365 0.83454 0.66266
 O330 O 0.85570 0.82424 0.79776
 Zr331 Zr 0.81914 0.80327 0.74751
 O332 O 0.79839 0.79065 0.64949
 O333 O 0.71094 0.88734 0.75221
 O334 O 0.81588 0.87765 0.74995
 O335 O 0.89384 0.78725 0.74300
 O336 O 0.84247 0.82947 0.69442
 C337 C 0.83041 0.82060 0.65986
 O338 O 0.70791 0.71787 0.64001
 O339 O 0.78931 0.61101 0.74813
 O340 O 0.79097 0.70090 0.65079
 O341 O 0.82597 0.65433 0.69590
 O342 O 0.68062 0.62087 0.75210
 O343 O 0.65007 0.66714 0.69905
 C344 C 0.81789 0.66632 0.66127
 H345 H 0.73976 0.65779 0.79756
 H346 H 0.65819 0.75741 0.69880
 H347 H 0.84343 0.74040 0.69830
 H348 H 0.76224 0.83715 0.79940
 H349 H 0.58742 0.68692 0.75599
 H350 H 0.61056 0.85059 0.74750
 H351 H 0.67935 0.90370 0.75094
 H352 H 0.84810 0.88985 0.74245
 H353 H 0.64732 0.61069 0.75858
 H354 H 0.82102 0.59488 0.74925
 H355 H 0.88977 0.64848 0.74610
 H356 H 0.91087 0.81674 0.73620
 H357 H 0.62041 0.64927 0.70544
 H358 H 0.72076 0.72812 0.61502
 H359 H 0.77698 0.77101 0.88241
 H360 H 0.88023 0.84839 0.79142
 Zr361 Zr 1.25168 0.74705 0.18485
 O362 O 1.21144 0.78075 0.14160
 O363 O 1.30121 0.70744 0.15310
 O364 O 1.29547 0.79396 0.15348
 O365 O 1.16860 0.65805 0.20012
 O366 O 1.33272 0.83887 0.19851
 O367 O 1.20883 0.69893 0.15398
 O368 O 1.34831 0.67354 0.19870
 O369 O 1.31512 0.75368 0.21675
 O370 O 1.25675 0.68623 0.21796
 O371 O 1.24308 0.80916 0.21650
 O372 O 1.18700 0.74427 0.21685
 Zr373 Zr 1.24851 0.75088 0.31724
 Zr374 Zr 1.30507 0.81348 0.25037
 Zr375 Zr 1.19480 0.68489 0.25173
 Zr376 Zr 1.31827 0.69404 0.25108
 O377 O 1.11826 0.68429 0.25223
 O378 O 1.39261 0.71241 0.25202
 O379 O 1.25677 0.68821 0.28603
 O380 O 1.31250 0.75399 0.28497
 O381 O 1.24337 0.81237 0.28476
 O382 O 1.18540 0.74471 0.28506
 C383 C 1.33648 0.68141 0.16399
 C384 C 1.17843 0.66753 0.16524
 C385 C 1.32445 0.82697 0.16392
 O386 O 1.38146 0.81467 0.25380
 O387 O 1.32540 0.84473 0.30200
 O388 O 1.28865 0.80081 0.34811
 C389 C 1.31620 0.83450 0.33684
 O390 O 1.14618 0.82566 0.20079
 Zr391 Zr 1.18184 0.80442 0.25137
 O392 O 1.20116 0.79182 0.34959
 O393 O 1.29196 0.88655 0.24636
 O394 O 1.18666 0.87870 0.24837
 O395 O 1.10681 0.78972 0.25561
 O396 O 1.15866 0.83157 0.30425
 C397 C 1.17005 0.82249 0.33894
 O398 O 1.29051 0.71825 0.36000
 O399 O 1.20767 0.61161 0.25175
 O400 O 1.20735 0.70205 0.34875
 O401 O 1.17196 0.65573 0.30369
 O402 O 1.31672 0.61957 0.24907
 O403 O 1.34748 0.66584 0.30201
 C404 C 1.18010 0.66773 0.33827
 H405 H 1.25903 0.65713 0.20269
 H406 H 1.34133 0.75630 0.30150
 H407 H 1.15581 0.74222 0.30079
 H408 H 1.23999 0.83680 0.19959
 H409 H 1.41132 0.68387 0.24543
 H410 H 1.39139 0.84811 0.25269
 H411 H 1.32386 0.90235 0.24787
 H412 H 1.15466 0.89153 0.25565
 H413 H 1.34991 0.60873 0.24304
 H414 H 1.17562 0.59608 0.25062
 H415 H 1.10813 0.65091 0.25337
 H416 H 1.09034 0.81954 0.26220
 H417 H 1.37690 0.64745 0.29603
 H418 H 1.27753 0.72880 0.38485
 H419 H 1.22471 0.76996 0.11691
 H420 H 1.12197 0.85016 0.20685
 Zr421 Zr 0.74528 1.25243 0.18416
 O422 O 0.78492 1.21928 0.14024
 O423 O 0.69573 1.29281 0.15307
 O424 O 0.70143 1.20525 0.15294
 O425 O 0.82893 1.34105 0.19956
 O426 O 0.66451 1.16029 0.19827
 O427 O 0.78855 1.30065 0.15337
 O428 O 0.64938 1.32674 0.19921
 O429 O 0.68206 1.24565 0.21653
 O430 O 0.74073 1.31288 0.21775
 O431 O 0.75399 1.19003 0.21553
 O432 O 0.81016 1.25473 0.21583
 Zr433 Zr 0.74951 1.24698 0.31678
 Zr434 Zr 0.69229 1.18554 0.24988
 Zr435 Zr 0.80286 1.31371 0.25119
 Zr436 Zr 0.67941 1.30491 0.25127
 O437 O 0.87941 1.31421 0.25108
 O438 O 0.60506 1.28659 0.25227
 O439 O 0.74115 1.31006 0.28593
 O440 O 0.68530 1.24460 0.28489
 O441 O 0.75426 1.18593 0.28382
 O442 O 0.81232 1.25349 0.28403
 C443 C 0.66093 1.31925 0.16436
 C444 C 0.81913 1.33186 0.16465
 C445 C 0.67268 1.17203 0.16362
 O446 O 0.61589 1.18475 0.25355
 O447 O 0.67165 1.15378 0.30126
 O448 O 0.70997 1.19591 0.34748
 C449 C 0.68161 1.16286 0.33612
 O450 O 0.85052 1.17325 0.19894
 Zr451 Zr 0.81549 1.19420 0.24994
 O452 O 0.79788 1.20640 0.34839
 O453 O 0.70520 1.11245 0.24567
 O454 O 0.81043 1.11996 0.24675
 O455 O 0.89059 1.20880 0.25341
 O456 O 0.83937 1.16666 0.30243
 C457 C 0.82883 1.17582 0.33730
 O458 O 0.70767 1.27872 0.36010
 O459 O 0.79000 1.38698 0.25183
 O460 O 0.79094 1.29554 0.34832
 O461 O 0.82639 1.34206 0.30324
 O462 O 0.68145 1.37940 0.25011
 O463 O 0.65021 1.33243 0.30248
 C464 C 0.81845 1.32977 0.33786
 H465 H 0.73853 1.34218 0.20269
 H466 H 0.65660 1.24213 0.30162
 H467 H 0.84210 1.25581 0.29947
 H468 H 0.75694 1.16251 0.19852
 H469 H 0.58637 1.31523 0.24592
 H470 H 0.60573 1.15139 0.25229
 H471 H 0.67327 1.09669 0.24718
 H472 H 0.84249 1.10699 0.25365
 H473 H 0.64834 1.39058 0.24428
 H474 H 0.82206 1.40250 0.25055
 H475 H 0.88960 1.34756 0.25243
 H476 H 0.90712 1.17891 0.25970
 H477 H 0.62079 1.35091 0.29672
 H478 H 0.72088 1.26775 0.38473
 H479 H 0.77140 1.23051 0.11578
 H480 H 0.87470 1.14862 0.20469
 O481 O 0.47482 1.07829 0.04739
 O482 O 0.52555 0.91764 0.04738
 O483 O 0.41676 0.97162 0.04647
 O484 O 0.58193 1.02453 0.04712
 O485 O 0.44435 0.90748 0.02485
 O486 O 0.55582 1.08887 0.02501
 O487 O 0.59205 0.94533 0.02687
 O488 O 0.40800 1.05113 0.02698
 C489 C 0.43089 1.07292 0.05185
 C490 C 0.56932 0.92377 0.05199
 C491 C 0.42183 0.92882 0.05008
 C492 C 0.57768 1.06742 0.05049
 O493 O 0.52428 1.07858 -0.04763
 O494 O 0.47583 0.91667 -0.04751
 O495 O 0.41719 1.02400 -0.04728
 O496 O 0.58339 0.97347 -0.04688
 O497 O 0.55741 0.90846 -0.02552
 O498 O 0.44324 1.08831 -0.02503
 O499 O 0.59131 1.05264 -0.02693
 O500 O 0.40872 0.94421 -0.02761
 Co501 Co 0.49963 1.07486 -0.00011
 Co502 Co 0.50079 0.92116 -0.00016
 Co503 Co 0.42121 0.99780 -0.00038
 Co504 Co 0.57869 0.99895 0.00006
 O505 O 0.50006 0.99815 -0.00021
 C506 C 0.56823 1.07371 -0.05205
 C507 C 0.43183 0.92164 -0.05196
 C508 C 0.42139 1.06696 -0.05054
 C509 C 0.57976 0.93056 -0.05055
 O510 O 0.94166 0.58834 0.52342
 O511 O 1.05748 0.40840 0.52520
 O512 O 0.90869 0.44444 0.52741
 O513 O 1.09023 0.55271 0.52853
 O514 O 0.97587 0.41726 0.54745
 O515 O 1.02220 0.57913 0.54744
 O516 O 1.08237 0.47336 0.54702
 O517 O 0.91641 0.52394 0.54588
 C518 C 0.91955 0.56686 0.54883
 C519 C 1.07974 0.43043 0.55023
 C520 C 0.93192 0.42225 0.55198
 C521 C 1.06611 0.57506 0.55254
 O522 O 1.05632 0.58924 0.47581
 O523 O 0.94412 0.40711 0.47524
 O524 O 0.90856 0.55073 0.47083
 O525 O 1.09204 0.44592 0.47263
 O526 O 1.02539 0.41756 0.45271
 O527 O 0.97610 0.57827 0.45183
 O528 O 1.08258 0.52515 0.45365
 O529 O 0.91800 0.47126 0.45275
 Co530 Co 0.99914 0.57507 0.49966
 Co531 Co 1.00066 0.42127 0.50012
 Co532 Co 0.92131 0.49770 0.49930
 Co533 Co 1.07841 0.49923 0.50037
 O534 O 0.99988 0.49828 0.49991
 C535 C 1.07875 0.56797 0.45053
 C536 C 0.92172 0.42837 0.44987
 C537 C 0.93235 0.57310 0.44659
 C538 C 1.06920 0.42337 0.44804
 O539 O 1.02803 0.44396 0.07293
 O540 O 1.02904 0.55554 -0.07415
 O541 O 1.03789 0.41175 -0.04224
 O542 O 1.03805 0.58777 0.04128
 O543 O 1.06169 0.47731 -0.06552
 O544 O 1.06100 0.52206 0.06476
 O545 O 1.05983 0.58022 -0.02330
 O546 O 1.05911 0.41920 0.02223
 C547 C 1.06133 0.42273 0.05702
 C548 C 1.06194 0.57725 -0.05814
 C549 C 1.06762 0.43446 -0.06182
 C550 C 1.06712 0.56490 0.06124
 O551 O 0.97164 0.55557 0.07269
 O552 O 0.97208 0.44395 -0.07386
 O553 O 0.96197 0.41173 0.04149
 O554 O 0.96287 0.58778 -0.04270
 O555 O 0.93944 0.52204 -0.06572
 O556 O 0.93861 0.47744 0.06458
 O557 O 0.94117 0.58059 0.02186
 O558 O 0.94081 0.41951 -0.02306
 Co559 Co 0.99986 0.49975 0.06156
 Co560 Co 1.00054 0.49972 -0.06259
 Co561 Co 0.99996 0.42358 -0.00042
 Co562 Co 1.00047 0.57605 -0.00070
 O563 O 1.00022 0.49978 -0.00053
 C564 C 0.93869 0.57710 0.05666
 C565 C 0.93867 0.42285 -0.05787
 C566 C 0.93256 0.43457 0.06121
 C567 C 0.93339 0.56486 -0.06224
 O568 O 0.56064 0.97701 0.56523
 O569 O 0.56010 1.01817 0.43472
 O570 O 0.55652 0.91745 0.47682
 O571 O 0.55799 1.07796 0.52355
 O572 O 0.52407 0.94089 0.42646
 O573 O 0.52606 1.05472 0.57439
 O574 O 0.53915 1.08433 0.45892
 O575 O 0.53796 0.91109 0.54164
 C576 C 0.56775 0.93446 0.56070
 C577 C 0.56774 1.06071 0.43891
 C578 C 0.55758 0.91958 0.44196
 C579 C 0.55888 1.07666 0.55841
 O580 O 0.43774 1.01952 0.56611
 O581 O 0.43648 0.97759 0.43584
 O582 O 0.43964 0.91826 0.52460
 O583 O 0.44085 1.07859 0.47682
 O584 O 0.47254 1.05479 0.42619
 O585 O 0.47228 0.94159 0.57496
 O586 O 0.46004 1.08506 0.54133
 O587 O 0.45805 0.91149 0.45984
 Co588 Co 0.49915 0.99814 0.56273
 Co589 Co 0.49831 0.99786 0.43821
 Co590 Co 0.49811 0.92223 0.50069
 Co591 Co 0.49943 1.07378 0.50017
 O592 O 0.49874 0.99801 0.50046
 C593 C 0.43095 1.06216 0.56150
 C594 C 0.42889 0.93509 0.44038
 C595 C 0.43881 0.92010 0.55948
 C596 C 0.43988 1.07703 0.44198
 O597 O 1.09037 1.04144 0.46041
 O598 O 0.91124 1.03996 0.54071
 O599 O 0.94317 1.02630 0.42637
 O600 O 1.05836 1.02631 0.57476
 O601 O 0.91913 1.05818 0.47645
 O602 O 1.08342 1.05837 0.52493
 O603 O 0.97865 1.06099 0.56584
 O604 O 1.02234 1.06209 0.43604
 C605 C 1.06596 1.06980 0.44102
 C606 C 0.93495 1.06806 0.56082
 C607 C 0.92199 1.05924 0.44169
 C608 C 1.07961 1.05946 0.55965
 O609 O 1.08994 0.96252 0.54172
 O610 O 0.91277 0.96213 0.45907
 O611 O 1.06050 0.97780 0.42699
 O612 O 0.94171 0.97593 0.57371
 O613 O 0.91855 0.94421 0.52334
 O614 O 1.08405 0.94517 0.47687
 O615 O 1.02167 0.94151 0.56579
 O616 O 0.98126 0.94195 0.43527
 Co617 Co 1.07915 1.00179 0.50092
 Co618 Co 0.92319 1.00119 0.49994
 Co619 Co 1.00172 1.00200 0.43841
 Co620 Co 1.00018 1.00122 0.56282
 O621 O 1.00106 1.00153 0.50055
 C622 C 1.06556 0.93457 0.56163
 C623 C 0.93754 0.93424 0.43955
 C624 C 1.08107 0.94431 0.44209
 C625 C 0.92139 0.94266 0.55809
 O626 O 0.58994 0.54210 -0.03944
 O627 O 0.41196 0.54255 0.03983
 O628 O 0.44300 0.52656 -0.07451
 O629 O 0.55872 0.52510 0.07460
 O630 O 0.41924 0.55907 -0.02464
 O631 O 0.58297 0.55793 0.02501
 O632 O 0.47997 0.56190 0.06520
 O633 O 0.52210 0.56255 -0.06443
 C634 C 0.56556 0.57049 -0.05893
 C635 C 0.43652 0.57012 0.05995
 C636 C 0.42150 0.55945 -0.05940
 C637 C 0.58014 0.55829 0.05975
 O638 O 0.58839 0.46120 0.04102
 O639 O 0.41266 0.46260 -0.04109
 O640 O 0.56053 0.47868 -0.07344
 O641 O 0.44066 0.47831 0.07345
 O642 O 0.41762 0.44596 0.02343
 O643 O 0.58289 0.44535 -0.02361
 O644 O 0.51968 0.44151 0.06516
 O645 O 0.48107 0.44254 -0.06549
 Co646 Co 0.57846 0.50167 0.00068
 Co647 Co 0.42298 0.50251 -0.00055
 Co648 Co 0.50159 0.50253 -0.06216
 Co649 Co 0.49987 0.50173 0.06234
 O650 O 0.50072 0.50206 0.00009
 C651 C 0.56331 0.43343 0.06066
 C652 C 0.43736 0.43481 -0.06093
 C653 C 0.58080 0.44503 -0.05838
 C654 C 0.41985 0.44513 0.05819
 C655 C 0.40496 1.15129 0.08785
 C656 C 0.34932 1.15056 0.09240
 C657 C 0.35554 1.14347 0.13541
 C658 C 0.41096 1.14449 0.13121
 C659 C 0.35508 1.08978 0.13054
 C660 C 0.34908 1.09662 0.08719
 C661 C 0.40448 1.09764 0.08291
 C662 C 0.41087 1.09043 0.12585
 H663 H 0.42586 1.17634 0.07005
 H664 H 0.32380 1.17543 0.07872
 H665 H 0.43615 1.16452 0.14963
 H666 H 0.33421 1.06472 0.14835
 H667 H 0.32376 1.07663 0.06885
 H668 H 0.43655 1.06546 0.13922
 C669 C 0.83712 0.59327 0.58233
 C670 C 0.84173 0.58566 0.62574
 C671 C 0.84379 0.63924 0.63116
 C672 C 0.83888 0.64720 0.58815
 C673 C 0.89930 0.63860 0.62780
 C674 C 0.89759 0.58470 0.62196
 C675 C 0.89259 0.59270 0.57900
 C676 C 0.89465 0.64627 0.58446
 H677 H 0.81187 0.57426 0.56328
 H678 H 0.81963 0.56097 0.64296
 H679 H 0.81448 0.67305 0.57440
 H680 H 0.92468 0.65756 0.64679
 H681 H 0.92208 0.55877 0.63551
 H682 H 0.91680 0.67102 0.56734
 C683 C 0.59635 0.84686 0.08959
 C684 C 0.65193 0.84875 0.09405
 C685 C 0.64548 0.85685 0.13694
 C686 C 0.59011 0.85470 0.13282
 C687 C 0.64496 0.91038 0.13107
 C688 C 0.65119 0.90251 0.08784
 C689 C 0.59583 0.90035 0.08362
 C690 C 0.58918 0.90862 0.12643
 H691 H 0.57601 0.82096 0.07229
 H692 H 0.67794 0.82403 0.08074
 H693 H 0.56526 0.83473 0.15166
 H694 H 0.66528 0.93629 0.14837
 H695 H 0.67620 0.92243 0.06910
 H696 H 0.56299 0.93347 0.13935
 C697 C 1.13977 0.36211 0.57278
 C698 C 1.17974 0.38390 0.59803
 C699 C 1.15696 0.35999 0.63288
 C700 C 1.11734 0.33785 0.60802
 C701 C 1.12494 0.40323 0.64033
 C702 C 1.14737 0.42747 0.60509
 C703 C 1.10770 0.40529 0.58028
 C704 C 1.08503 0.38137 0.61512
 H705 H 1.14551 0.34540 0.54467
 H706 H 1.21896 0.38470 0.59128
 H707 H 1.10528 0.30067 0.60946
 H708 H 1.11903 0.42013 0.66835
 H709 H 1.15981 0.46447 0.60352
 H710 H 1.04602 0.38103 0.62223
 C711 C 0.64981 1.09717 -0.08753
 C712 C 0.64383 1.09001 -0.13082
 C713 C 0.64343 1.14364 -0.13599
 C714 C 0.64962 1.15106 -0.09304
 C715 C 0.58802 1.14469 -0.13186
 C716 C 0.58803 1.09066 -0.12618
 C717 C 0.59441 1.09822 -0.08330
 C718 C 0.59399 1.15181 -0.08854
 H719 H 0.67508 1.07731 -0.06905
 H720 H 0.66469 1.06484 -0.14847
 H721 H 0.67517 1.17602 -0.07949
 H722 H 0.56290 1.16459 -0.15043
 H723 H 0.56232 1.06558 -0.13939
 H724 H 0.57309 1.17694 -0.07089
 C725 C 1.16088 0.59489 0.41718
 C726 C 1.15636 0.58724 0.37379
 C727 C 1.15408 0.64080 0.36833
 C728 C 1.15891 0.64879 0.41131
 C729 C 1.09859 0.63989 0.37158
 C730 C 1.10051 0.58600 0.37748
 C731 C 1.10543 0.59403 0.42041
 C732 C 1.10314 0.64758 0.41491
 H733 H 1.18614 0.57599 0.43630
 H734 H 1.17862 0.56273 0.35661
 H735 H 1.18320 0.67478 0.42503
 H736 H 1.07322 0.65875 0.35251
 H737 H 1.07612 0.55995 0.36397
 H738 H 1.08085 0.67217 0.43201
 C739 C 0.36135 0.86465 -0.07470
 C740 C 0.33376 0.88893 -0.10748
 C741 C 0.35459 0.85255 -0.13523
 C742 C 0.38185 0.82795 -0.10281
 C743 C 0.39863 0.88420 -0.14327
 C744 C 0.37808 0.92092 -0.11513
 C745 C 0.40533 0.89638 -0.08272
 C746 C 0.42617 0.85991 -0.11041
 H747 H 0.34636 0.85675 -0.04613
 H748 H 0.29549 0.90063 -0.10651
 H749 H 0.38299 0.78943 -0.09794
 H750 H 0.41379 0.89216 -0.17177
 H751 H 0.37731 0.95933 -0.12017
 H752 H 0.46405 0.84735 -0.11127
 C753 C 0.89635 0.34873 0.41421
 C754 C 0.84052 0.34804 0.41098
 C755 C 0.84506 0.35624 0.36795
 C756 C 0.90061 0.35662 0.37084
 C757 C 0.84340 0.40979 0.37361
 C758 C 0.83917 0.40193 0.41701
 C759 C 0.89468 0.40228 0.41988
 C760 C 0.89929 0.41050 0.37691
 H761 H 0.91851 0.32379 0.43106
 H762 H 0.81609 0.32221 0.42484
 H763 H 0.92567 0.33767 0.35155
 H764 H 0.82129 0.43468 0.35669
 H765 H 0.81419 0.42091 0.43634
 H766 H 0.92381 0.43639 0.36322
 C767 C 1.09493 0.40209 0.12426
 C768 C 1.09750 0.34825 0.12808
 C769 C 1.15292 0.35172 0.12939
 C770 C 1.15058 0.40546 0.12561
 C771 C 1.15587 0.34629 0.08594
 C772 C 1.09985 0.34320 0.08444
 C773 C 1.09736 0.39695 0.08072
 C774 C 1.15285 0.40066 0.08175
 H775 H 1.06981 0.42513 0.14034
 H776 H 1.07478 0.32665 0.14739
 H777 H 1.17162 0.43090 0.14285
 H778 H 1.18141 0.32303 0.07053
 H779 H 1.07873 0.31781 0.06722
 H780 H 1.17527 0.42242 0.06235
 C781 C 0.58413 0.88286 0.61971
 C782 C 0.61664 0.84076 0.60937
 C783 C 0.65726 0.86235 0.63345
 C784 C 0.62489 0.90435 0.64390
 C785 C 0.67717 0.88886 0.59870
 C786 C 0.63586 0.86764 0.57420
 C787 C 0.60356 0.90956 0.58489
 C788 C 0.64423 0.93126 0.60887
 H789 H 0.54552 0.88064 0.62827
 H790 H 0.60544 0.80330 0.60991
 H791 H 0.62028 0.91947 0.67273
 H792 H 0.71591 0.89093 0.59050
 H793 H 0.64003 0.85298 0.54518
 H794 H 0.65587 0.96853 0.60815
 C795 C 1.14197 0.63458 -0.07315
 C796 C 1.16858 0.61239 -0.10765
 C797 C 1.14808 0.64862 -0.13266
 C798 C 1.12321 0.67247 -0.10118
 C799 C 1.10551 0.61983 -0.14206
 C800 C 1.12409 0.58083 -0.11551
 C801 C 1.09713 0.60406 -0.08198
 C802 C 1.07774 0.64252 -0.10895
 H803 H 1.15816 0.64143 -0.04487
 H804 H 1.20678 0.60072 -0.10892
 H805 H 1.12404 0.71110 -0.09677
 H806 H 1.09105 0.61439 -0.17114
 H807 H 1.12544 0.54276 -0.12232
 H808 H 1.04032 0.65647 -0.11022
 C809 C 0.58274 1.11939 0.38384
 C810 C 0.62162 1.15580 0.39483
 C811 C 0.65580 1.13400 0.36526
 C812 C 0.61703 1.09766 0.35417
 C813 C 0.67647 1.10015 0.39523
 C814 C 0.64168 1.12168 0.42527
 C815 C 0.60298 1.08553 0.41393
 C816 C 0.63711 1.06352 0.38443
 H817 H 0.54388 1.12700 0.37909
 H818 H 0.61533 1.19399 0.39884
 H819 H 0.60664 1.08777 0.32481
 H820 H 0.71527 1.09199 0.39951
 H821 H 0.65152 1.13113 0.45483
 H822 H 0.64324 1.02529 0.38047
 C823 C 0.90551 0.59845 0.12384
 C824 C 0.90348 0.65231 0.12739
 C825 C 0.84804 0.64935 0.12907
 C826 C 0.84984 0.59557 0.12553
 C827 C 0.84489 0.65459 0.08561
 C828 C 0.90094 0.65716 0.08375
 C829 C 0.90290 0.60337 0.08028
 C830 C 0.84739 0.60017 0.08166
 H831 H 0.93046 0.57529 0.13992
 H832 H 0.92653 0.67380 0.14646
 H833 H 0.82866 0.57041 0.14301
 H834 H 0.81949 0.67801 0.07025
 H835 H 0.92221 0.68227 0.06628
 H836 H 0.82465 0.57852 0.06250
 C837 C 0.34063 1.08450 0.58898
 C838 C 0.34518 1.08291 0.63291
 C839 C 0.34309 1.13690 0.63397
 C840 C 0.33789 1.13907 0.59054
 C841 C 0.39841 1.13997 0.63070
 C842 C 0.40085 1.08590 0.62945
 C843 C 0.39600 1.08789 0.58600
 C844 C 0.39366 1.14190 0.58711
 H845 H 0.31728 1.06132 0.57151
 H846 H 0.32491 1.05897 0.65210
 H847 H 0.31163 1.16126 0.57487
 H848 H 0.42208 1.16300 0.64806
 H849 H 0.42699 1.06381 0.64533
 H850 H 0.41381 1.16612 0.56807
 C851 C 0.89993 0.34320 -0.08483
 C852 C 0.84391 0.34629 -0.08630
 C853 C 0.84680 0.35144 -0.12978
 C854 C 0.90222 0.34798 -0.12850
 C855 C 0.84927 0.40521 -0.12630
 C856 C 0.84707 0.40068 -0.08241
 C857 C 0.90255 0.39697 -0.08143
 C858 C 0.90492 0.40184 -0.12500
 H859 H 0.92103 0.31791 -0.06750
 H860 H 0.81835 0.32313 -0.07072
 H861 H 0.92486 0.32624 -0.14772
 H862 H 0.82825 0.43055 -0.14364
 H863 H 0.82473 0.42258 -0.06312
 H864 H 0.93005 0.42478 -0.14122
 C865 C 0.35497 0.93203 0.38977
 C866 C 0.37565 0.90371 0.35600
 C867 C 0.34183 0.86264 0.36620
 C868 C 0.32057 0.89055 0.39966
 C869 C 0.38052 0.84104 0.39211
 C870 C 0.41451 0.88220 0.38205
 C871 C 0.39372 0.91030 0.41560
 C872 C 0.35996 0.86931 0.42602
 H873 H 0.34415 0.96951 0.38931
 H874 H 0.38222 0.91782 0.32705
 H875 H 0.28146 0.89356 0.40643
 H876 H 0.39089 0.80337 0.39272
 H877 H 0.45353 0.87894 0.37496
 H878 H 0.35382 0.85564 0.45516
 C879 C 1.13451 1.13592 0.42623
 C880 C 1.16174 1.11642 0.39119
 C881 C 1.13908 1.15511 0.36658
 C882 C 1.11225 1.17533 0.40116
 C883 C 1.09577 1.12335 0.35706
 C884 C 1.11831 1.08449 0.38179
 C885 C 1.09126 1.10425 0.41646
 C886 C 1.06852 1.14300 0.39194
 H887 H 1.14990 1.14075 0.45505
 H888 H 1.20031 1.10568 0.39044
 H889 H 1.11022 1.21317 0.40861
 H890 H 1.07988 1.11808 0.32845
 H891 H 1.12060 1.04674 0.37402
 H892 H 1.03017 1.15431 0.39291
 C893 C 0.61288 0.58699 -0.12047
 C894 C 0.59056 0.62902 -0.14171
 C895 C 0.63657 0.65749 -0.13330
 C896 C 0.65902 0.61561 -0.11220
 C897 C 0.61452 0.67619 -0.09618
 C898 C 0.56805 0.64717 -0.10428
 C899 C 0.59062 0.60528 -0.08328
 C900 C 0.63660 0.63361 -0.07466
 H901 H 0.61204 0.54989 -0.13022
 H902 H 0.57170 0.62713 -0.16947
 H903 H 0.69662 0.60278 -0.11595
 H904 H 0.61565 0.71328 -0.08656
 H905 H 0.53054 0.66015 -0.10040
 H906 H 0.65505 0.63514 -0.04672
 C907 C 0.85343 1.10657 0.58613
 C908 C 0.85513 1.10146 0.62973
 C909 C 0.86040 1.15498 0.63321
 C910 C 0.85841 1.16059 0.58982
 C911 C 0.91583 1.15102 0.63210
 C912 C 0.91067 1.09717 0.62843
 C913 C 0.90889 1.10241 0.58502
 C914 C 0.91444 1.15598 0.58823
 H915 H 0.82790 1.08807 0.56698
 H916 H 0.83050 1.07924 0.64704
 H917 H 0.83655 1.18708 0.57434
 H918 H 0.94115 1.16961 0.65137
 H919 H 0.93239 1.07081 0.64419
 H920 H 0.93920 1.17792 0.57081
 C921 C 0.38067 0.58487 0.11733
 C922 C 0.40436 0.62047 0.14447
 C923 C 0.36443 0.65592 0.13445
 C924 C 0.34063 0.62048 0.10744
 C925 C 0.39520 0.67605 0.10185
 C926 C 0.43553 0.64002 0.11159
 C927 C 0.41157 0.60455 0.08465
 C928 C 0.37176 0.63992 0.07436
 H929 H 0.37487 0.54699 0.12347
 H930 H 0.41770 0.61238 0.17346
 H931 H 0.30137 0.61261 0.10616
 H932 H 0.40074 0.71402 0.09599
 H933 H 0.47486 0.64775 0.11286
 H934 H 0.35885 0.64750 0.04517
 C935 C 1.06685 0.86756 0.61594
 C936 C 1.10650 0.83054 0.60739
 C937 C 1.13716 0.85168 0.63683
 C938 C 1.10051 0.88693 0.64712
 C939 C 1.16147 0.88319 0.60982
 C940 C 1.12941 0.86386 0.57744
 C941 C 1.09075 0.90107 0.58702
 C942 C 1.12347 0.92129 0.61854
 H943 H 1.02763 0.86011 0.61912
 H944 H 1.10091 0.79218 0.60438
 H945 H 1.08954 0.89566 0.67664
 H946 H 1.20125 0.88840 0.60881
 H947 H 1.14206 0.85337 0.54875
 H948 H 1.13135 0.95895 0.62400
 C949 C 0.62668 0.36255 0.07507
 C950 C 0.65807 0.38104 0.10824
 C951 C 0.63343 0.34577 0.13509
 C952 C 0.60238 0.32664 0.10237
 C953 C 0.59422 0.38194 0.14529
 C954 C 0.61873 0.41736 0.11829
 C955 C 0.58757 0.39860 0.08550
 C956 C 0.56278 0.36335 0.11230
 H957 H 0.63959 0.35498 0.04585
 H958 H 0.69749 0.38816 0.10697
 H959 H 0.59589 0.28895 0.09621
 H960 H 0.58093 0.38998 0.17433
 H961 H 0.62529 0.45506 0.12460
 H962 H 0.52330 0.35636 0.11353
 C963 C 0.87991 0.91897 0.38319
 C964 C 0.90372 0.88464 0.35503
 C965 C 0.86540 0.84765 0.36567
 C966 C 0.84146 0.88184 0.39369
 C967 C 0.89813 0.82811 0.39720
 C968 C 0.93680 0.86562 0.38683
 C969 C 0.91275 0.89979 0.41479
 C970 C 0.87455 0.86293 0.42569
 H971 H 0.87267 0.95673 0.37763
 H972 H 0.91568 0.89370 0.32582
 H973 H 0.80198 0.88829 0.39613
 H974 H 0.90534 0.79041 0.40268
 H975 H 0.97629 0.85925 0.38444
 H976 H 0.86307 0.85441 0.45512
 C977 C 0.35742 0.39538 -0.08834
 C978 C 0.36179 0.39898 -0.13192
 C979 C 0.36735 0.34536 -0.13404
 C980 C 0.36269 0.34130 -0.09063
 C981 C 0.42262 0.34958 -0.13111
 C982 C 0.41717 0.40354 -0.12879
 C983 C 0.41270 0.39977 -0.08537
 C984 C 0.41856 0.34614 -0.08723
 H985 H 0.33072 0.41444 -0.07052
 H986 H 0.33826 0.42052 -0.15059
 H987 H 0.33998 0.31525 -0.07532
 H988 H 0.44911 0.33046 -0.14906
 H989 H 0.43978 0.42947 -0.14433
 H990 H 0.44221 0.32491 -0.06845
 C991 C 1.09810 0.41096 -0.13003
 C992 C 1.15381 0.41411 -0.13306
 C993 C 1.15612 0.36011 -0.13445
 C994 C 1.10077 0.35686 -0.13164
 C995 C 1.16080 0.35765 -0.09098
 C996 C 1.15785 0.41217 -0.08913
 C997 C 1.10246 0.40866 -0.08656
 C998 C 1.10498 0.35463 -0.08797
 H999 H 1.07212 0.43316 -0.14599
 H1000 H 1.17418 0.43832 -0.15195
 H1001 H 1.07739 0.33389 -0.14928
 H1002 H 1.18686 0.33537 -0.07521
 H1003 H 1.18095 0.43528 -0.07140
 H1004 H 1.08468 0.33022 -0.06919
 C1005 C 0.59004 0.89635 0.37460
 C1006 C 0.64554 0.90133 0.37256
 C1007 C 0.64968 0.84752 0.37024
 C1008 C 0.59439 0.84245 0.37225
 C1009 C 0.65335 0.84405 0.41379
 C1010 C 0.64856 0.89842 0.41645
 C1011 C 0.59324 0.89316 0.41820
 C1012 C 0.59744 0.83936 0.41603
 H1013 H 0.56395 0.91795 0.35822
 H1014 H 0.66550 0.92672 0.35441
 H1015 H 0.57217 0.81932 0.35385
 H1016 H 0.67979 0.82223 0.42960
 H1017 H 0.67051 0.92172 0.43491
 H1018 H 0.57735 0.81411 0.43421
 C1019 C 0.86337 0.62941 -0.07646
 C1020 C 0.88424 0.66060 -0.10866
 C1021 C 0.84749 0.63927 -0.13640
 C1022 C 0.82600 0.60840 -0.10467
 C1023 C 0.88332 0.60008 -0.14720
 C1024 C 0.92023 0.62130 -0.11931
 C1025 C 0.89912 0.59036 -0.08748
 C1026 C 0.86237 0.56889 -0.11518
 H1027 H 0.85543 0.64099 -0.04702
 H1028 H 0.89312 0.69852 -0.10627
 H1029 H 0.78685 0.60350 -0.09892
 H1030 H 0.89174 0.58807 -0.17645
 H1031 H 0.95930 0.62621 -0.12535
 H1032 H 0.85363 0.53092 -0.11754
 C1033 C 0.36168 1.13553 0.42870
 C1034 C 0.38096 1.17491 0.40204
 C1035 C 0.35370 1.15248 0.36861
 C1036 C 0.33376 1.11364 0.39475
 C1037 C 0.39797 1.12211 0.35875
 C1038 C 0.42546 1.14426 0.39230
 C1039 C 0.40584 1.10524 0.41839
 C1040 C 0.37838 1.08307 0.38498
 H1041 H 0.34710 1.14068 0.45778
 H1042 H 0.38183 1.21301 0.40871
 H1043 H 0.29570 1.10122 0.39540
 H1044 H 0.41325 1.11645 0.32994
 H1045 H 0.46334 1.15707 0.39160
 H1046 H 0.37782 1.04513 0.37793
 C1047 C 1.13891 0.62768 0.07584
 C1048 C 1.11771 0.66109 0.10635
 C1049 C 1.15195 0.63963 0.13596
 C1050 C 1.17374 0.60655 0.10592
 C1051 C 1.11386 0.60238 0.14667
 C1052 C 1.07945 0.62370 0.11689
 C1053 C 1.10092 0.59055 0.08677
 C1054 C 1.13515 0.56899 0.11635
 H1055 H 1.14894 0.63760 0.04638
 H1056 H 1.11067 0.69919 0.10254
 H1057 H 1.21287 0.59978 0.10168
 H1058 H 1.10334 0.59203 0.17594
 H1059 H 1.04027 0.63048 0.12125
 H1060 H 1.14211 0.53086 0.12014
 C1061 C 0.63551 1.13731 0.57096
 C1062 C 0.61587 1.17509 0.59885
 C1063 C 0.64540 1.15268 0.63110
 C1064 C 0.66568 1.11544 0.60373
 C1065 C 0.60275 1.12031 0.64148
 C1066 C 0.57302 1.14244 0.60912
 C1067 C 0.59301 1.10502 0.58179
 C1068 C 0.62267 1.08287 0.61400
 H1069 H 0.64863 1.14389 0.54163
 H1070 H 0.61328 1.21332 0.59296
 H1071 H 0.70417 1.10458 0.60186
 H1072 H 0.58891 1.11315 0.67053
 H1073 H 0.53454 1.15334 0.61114
 H1074 H 0.62498 1.04478 0.62027
 C1075 C 0.86017 0.37198 0.07537
 C1076 C 0.88069 0.33833 0.10599
 C1077 C 0.84608 0.35980 0.13540
 C1078 C 0.82497 0.39314 0.10524
 C1079 C 0.88423 0.39684 0.14638
 C1080 C 0.91901 0.37549 0.11681
 C1081 C 0.89821 0.40889 0.08657
 C1082 C 0.86361 0.43047 0.11595
 H1083 H 0.85052 0.36220 0.04583
 H1084 H 0.88761 0.30022 0.10215
 H1085 H 0.78596 0.40016 0.10069
 H1086 H 0.89438 0.40706 0.17572
 H1087 H 0.95806 0.36847 0.12146
 H1088 H 0.85678 0.46862 0.11977
 C1089 C 0.36084 0.86037 0.57367
 C1090 C 0.37907 0.82459 0.60368
 C1091 C 0.35094 0.84883 0.63320
 C1092 C 0.33082 0.88302 0.60616
 C1093 C 0.39153 0.87986 0.64348
 C1094 C 0.42265 0.85681 0.61241
 C1095 C 0.40366 0.89318 0.58344
 C1096 C 0.37330 0.91681 0.61491
 H1097 H 0.34706 0.85156 0.54496
 H1098 H 0.38013 0.78579 0.60049
 H1099 H 0.29195 0.89261 0.60503
 H1100 H 0.40365 0.88733 0.67292
 H1101 H 0.46057 0.84481 0.61589
 H1102 H 0.36989 0.95507 0.62045
 C1103 C 0.36213 1.13520 -0.07327
 C1104 C 0.38812 1.16425 -0.10442
 C1105 C 0.35285 1.14426 -0.13399
 C1106 C 0.32657 1.11558 -0.10322
 C1107 C 0.38720 1.10284 -0.14202
 C1108 C 0.42278 1.12253 -0.11203
 C1109 C 0.39644 1.09378 -0.08131
 C1110 C 0.36115 1.07385 -0.11087
 H1111 H 0.35198 1.14819 -0.04464
 H1112 H 0.39892 1.20170 -0.10198
 H1113 H 0.28673 1.11308 -0.09979
 H1114 H 0.39750 1.08967 -0.17057
 H1115 H 0.46264 1.12499 -0.11541
 H1116 H 0.34965 1.03668 -0.11327
 C1117 C 0.87028 0.63791 0.42297
 C1118 C 0.89494 0.66867 0.39229
 C1119 C 0.86169 0.64677 0.36218
 C1120 C 0.83677 0.61623 0.39252
 C1121 C 0.89889 0.60768 0.35438
 C1122 C 0.93247 0.62934 0.38493
 C1123 C 0.90744 0.59887 0.41527
 C1124 C 0.87427 0.57684 0.38517
 H1125 H 0.85871 0.65008 0.45151
 H1126 H 0.90332 0.70661 0.39496
 H1127 H 0.79712 0.61115 0.39542
 H1128 H 0.91053 0.59548 0.32587
 H1129 H 0.97213 0.63444 0.38204
 H1130 H 0.86609 0.53878 0.38257
 C1131 C 0.63960 1.13332 0.07305
 C1132 C 0.61409 1.16468 0.10286
 C1133 C 0.64719 1.14412 0.13368
 C1134 C 0.67297 1.11304 0.10426
 C1135 C 0.61033 1.10471 0.14191
 C1136 C 0.57697 1.12502 0.11066
 C1137 C 0.60279 1.09398 0.08126
 C1138 C 0.63584 1.07333 0.11207
 H1139 H 0.65143 1.14478 0.04436
 H1140 H 0.60540 1.20245 0.09925
 H1141 H 0.71272 1.10849 0.10180
 H1142 H 0.59832 1.09310 0.17051
 H1143 H 0.53719 1.12953 0.11306
 H1144 H 0.64447 1.03549 0.11565
 C1145 C 1.12860 0.64028 0.57522
 C1146 C 1.10387 0.67236 0.60492
 C1147 C 1.13629 0.65108 0.63588
 C1148 C 1.16128 0.61925 0.60653
 C1149 C 1.09837 0.61267 0.64412
 C1150 C 1.06564 0.63369 0.61274
 C1151 C 1.09075 0.60192 0.58341
 C1152 C 1.12309 0.58058 0.61436
 H1153 H 1.14084 0.65137 0.54654
 H1154 H 1.09595 0.71020 0.60111
 H1155 H 1.20089 0.61361 0.60415
 H1156 H 1.08600 0.60149 0.67273
 H1157 H 1.02601 0.63931 0.61510
 H1158 H 1.13057 0.54260 0.61815
 C1159 C 0.64034 0.86330 -0.07352
 C1160 C 0.61573 0.83557 -0.10600
 C1161 C 0.65224 0.85673 -0.13420
 C1162 C 0.67716 0.88421 -0.10212
 C1163 C 0.61816 0.89845 -0.14198
 C1164 C 0.58139 0.87752 -0.11339
 C1165 C 0.60620 0.90492 -0.08130
 C1166 C 0.64272 0.92621 -0.10948
 H1167 H 0.64924 0.84908 -0.04502
 H1168 H 0.60473 0.79810 -0.10482
 H1169 H 0.71681 0.88662 -0.09768
 H1170 H 0.60907 0.91280 -0.17040
 H1171 H 0.54187 0.87555 -0.11809
 H1172 H 0.65350 0.96377 -0.11072
 C1173 C 1.08715 0.40525 0.37393
 C1174 C 1.14274 0.40570 0.36796
 C1175 C 1.14188 0.35196 0.36326
 C1176 C 1.08668 0.35114 0.36877
 C1177 C 1.14976 0.34523 0.40618
 C1178 C 1.15036 0.39922 0.41120
 C1179 C 1.09519 0.39841 0.41676
 C1180 C 1.09431 0.34469 0.41203
 H1181 H 1.06115 0.43027 0.36101
 H1182 H 1.16292 0.43061 0.34953
 H1183 H 1.06071 0.33106 0.35108
 H1184 H 1.17561 0.32031 0.41941
 H1185 H 1.17643 0.41926 0.42884
 H1186 H 1.07412 0.31978 0.43045
 C1187 C 0.34120 0.90016 0.08512
 C1188 C 0.34451 0.84629 0.09070
 C1189 C 0.35042 0.85396 0.13366
 C1190 C 0.34681 0.90754 0.12845
 C1191 C 0.40576 0.85611 0.12945
 C1192 C 0.40013 0.84872 0.08613
 C1193 C 0.39651 0.90231 0.08088
 C1194 C 0.40251 0.91003 0.12379
 H1195 H 0.31491 0.91867 0.06661
 H1196 H 0.32053 0.81985 0.07723
 H1197 H 0.32455 0.93149 0.14614
 H1198 H 0.43211 0.83762 0.14791
 H1199 H 0.42239 0.82464 0.06854
 H1200 H 0.42661 0.93654 0.13705
 C1201 C 0.86473 0.36206 0.57596
 C1202 C 0.88760 0.32804 0.60513
 C1203 C 0.85830 0.35190 0.63682
 C1204 C 0.83507 0.38561 0.60800
 C1205 C 0.89963 0.38698 0.64412
 C1206 C 0.92926 0.36337 0.61201
 C1207 C 0.90605 0.39714 0.58321
 C1208 C 0.87672 0.42104 0.61486
 H1209 H 0.85065 0.35205 0.54760
 H1210 H 0.89178 0.28952 0.60142
 H1211 H 0.79602 0.39446 0.60663
 H1212 H 0.91384 0.39702 0.67243
 H1213 H 0.96801 0.35372 0.61327
 H1214 H 0.87257 0.45957 0.61850
 C1215 C 1.15925 1.09967 0.58811
 C1216 C 1.15350 1.15385 0.58929
 C1217 C 1.14705 1.15102 0.63266
 C1218 C 1.15320 1.09744 0.63170
 C1219 C 1.09203 1.14633 0.62836
 C1220 C 1.09787 1.14848 0.58457
 C1221 C 1.10421 1.09487 0.58386
 C1222 C 1.09802 1.09245 0.62731
 H1223 H 1.18663 1.08021 0.57124
 H1224 H 1.17666 1.17959 0.57406
 H1225 H 1.17608 1.07666 0.65141
 H1226 H 1.06465 1.16574 0.64526
 H1227 H 1.07490 1.16900 0.56477
 H1228 H 1.07507 1.06703 0.64310
 C1229 C 0.60153 0.58901 0.12751
 C1230 C 0.65674 0.59546 0.13025
 C1231 C 0.64903 0.64877 0.13263
 C1232 C 0.59399 0.64261 0.12997
 C1233 C 0.65312 0.65330 0.08919
 C1234 C 0.66041 0.59936 0.08656
 C1235 C 0.60535 0.59313 0.08399
 C1236 C 0.59748 0.64647 0.08614
 H1237 H 0.58020 0.56238 0.14339
 H1238 H 0.68127 0.57474 0.14873
 H1239 H 0.56697 0.66064 0.14818
 H1240 H 0.67470 0.68024 0.07387
 H1241 H 0.68740 0.58127 0.06837
 H1242 H 0.57283 0.66694 0.06759
 C1243 C 1.15997 0.90220 0.41351
 C1244 C 1.15266 0.84818 0.41222
 C1245 C 1.14640 0.85128 0.36885
 C1246 C 1.15410 0.90469 0.36991
 C1247 C 1.09153 0.85738 0.37324
 C1248 C 1.09719 0.85496 0.41701
 C1249 C 1.10507 0.90840 0.41785
 C1250 C 1.09907 0.91108 0.37440
 H1251 H 1.18785 0.92090 0.43038
 H1252 H 1.17502 0.82181 0.42738
 H1253 H 1.17761 0.92493 0.35022
 H1254 H 1.06369 0.83872 0.35630
 H1255 H 1.07357 0.83497 0.43678
 H1256 H 1.07692 0.93710 0.35863
 C1257 C 0.60168 0.41349 -0.12591
 C1258 C 0.65674 0.40608 -0.12877
 C1259 C 0.64795 0.35290 -0.13097
 C1260 C 0.59304 0.36003 -0.12818
 C1261 C 0.65197 0.34849 -0.08753
 C1262 C 0.66035 0.40232 -0.08508
 C1263 C 0.60542 0.40953 -0.08240
 C1264 C 0.59646 0.35632 -0.08435
 H1265 H 0.58092 0.44039 -0.14187
 H1266 H 0.68168 0.42629 -0.14738
 H1267 H 0.56563 0.34240 -0.14624
 H1268 H 0.67300 0.32124 -0.07221
 H1269 H 0.68770 0.42003 -0.06702
 H1270 H 0.57141 0.33638 -0.06567
 C1271 C 0.87198 1.14099 0.42696
 C1272 C 0.89670 1.16339 0.39163
 C1273 C 0.85368 1.14781 0.36708
 C1274 C 0.82847 1.12611 0.40190
 C1275 C 0.87846 1.10087 0.35805
 C1276 C 0.92174 1.11599 0.38278
 C1277 C 0.89668 1.09410 0.41758
 C1278 C 0.85356 1.07886 0.39301
 H1279 H 0.86959 1.15696 0.45564
 H1280 H 0.91422 1.19847 0.39055
 H1281 H 0.78991 1.13110 0.40954
 H1282 H 0.88113 1.08436 0.32958
 H1283 H 0.96025 1.11103 0.37492
 H1284 H 0.83588 1.04383 0.39396
 C1285 C 0.36627 0.63786 -0.07362
 C1286 C 0.39054 0.66356 -0.10763
 C1287 C 0.34992 0.64586 -0.13374
 C1288 C 0.32517 0.62084 -0.10023
 C1289 C 0.37892 0.60141 -0.14333
 C1290 C 0.41980 0.61866 -0.11701
 C1291 C 0.39514 0.59347 -0.08356
 C1292 C 0.35441 0.57609 -0.10968
 H1293 H 0.36144 0.65237 -0.04462
 H1294 H 0.40519 0.69988 -0.10729
 H1295 H 0.28607 0.62236 -0.09342
 H1296 H 0.38411 0.58635 -0.17212
 H1297 H 0.45899 0.61725 -0.12373
 H1298 H 0.33971 0.53977 -0.11017
 C1299 C 0.90316 0.90793 0.62515
 C1300 C 0.84803 0.90259 0.62965
 C1301 C 0.85444 0.84902 0.62994
 C1302 C 0.90943 0.85408 0.62550
 C1303 C 0.84792 0.84706 0.58657
 C1304 C 0.84192 0.90125 0.58606
 C1305 C 0.89693 0.90643 0.58170
 C1306 C 0.90354 0.85283 0.58172
 H1307 H 0.92600 0.93306 0.64123
 H1308 H 0.82506 0.92284 0.64968
 H1309 H 0.93689 0.83443 0.64209
 H1310 H 0.82487 0.82152 0.57113
 H1311 H 0.81442 0.92094 0.56954
 H1312 H 0.92661 0.83287 0.56159
 C1313 C 0.39855 0.41335 0.12558
 C1314 C 0.34344 0.40627 0.12841
 C1315 C 0.35178 0.35303 0.13052
 C1316 C 0.40674 0.35984 0.12775
 C1317 C 0.34774 0.34886 0.08708
 C1318 C 0.33982 0.40276 0.08471
 C1319 C 0.39481 0.40964 0.08205
 C1320 C 0.40332 0.35636 0.08391
 H1321 H 0.41953 0.44002 0.14162
 H1322 H 0.31866 0.42654 0.14705
 H1323 H 0.43394 0.34193 0.14583
 H1324 H 0.32648 0.32182 0.07170
 H1325 H 0.31263 0.42074 0.06667
 H1326 H 0.42822 0.33635 0.06522
   
