data_POSCAR
  _audit_creation_date              2014-09-24
  _audit_creation_method            'ToBaCCo'
  _symmetry_space_group_name_H-M    'P1'
  _symmetry_Int_Tables_number       1
  _symmetry_cell_setting            triclinic
  loop_
  _symmetry_equiv_pos_as_xyz
 x,y,z
_cell_length_a 39.5711
_cell_length_b 39.4999
_cell_length_c 46.7189
_cell_angle_alpha 89.848200
_cell_angle_beta 89.994300
_cell_angle_gamma 89.919800
loop_
  _atom_site_label
  _atom_site_type_symbol
  _atom_site_fract_x
  _atom_site_fract_y
  _atom_site_fract_z
B1 B 0.26114 0.23028 0.22273
 B2 B 0.26954 0.27036 0.23233
 B3 B 0.22991 0.25944 0.22332
 B4 B 0.22267 0.21992 0.23556
 B5 B 0.25847 0.20643 0.25247
 B6 B 0.28777 0.23795 0.25027
 B7 B 0.23389 0.26190 0.28096
 B8 B 0.22552 0.22181 0.27149
 B9 B 0.26515 0.23277 0.28036
 B10 B 0.27230 0.27217 0.26814
 B11 B 0.23655 0.28570 0.25122
 B12 B 0.20722 0.25417 0.25345
 B13 B 0.73853 0.76573 0.22151
 B14 B 0.73008 0.72561 0.23118
 B15 B 0.76976 0.73659 0.22240
 B16 B 0.77689 0.77607 0.23459
 B17 B 0.74091 0.78949 0.25116
 B18 B 0.71166 0.75796 0.24885
 B19 B 0.76512 0.73396 0.28003
 B20 B 0.77361 0.77405 0.27049
 B21 B 0.73392 0.76312 0.27904
 B22 B 0.72693 0.72372 0.26695
 B23 B 0.76287 0.71020 0.25036
 B24 B 0.79216 0.74175 0.25271
 B25 B 0.74002 0.22865 -0.22286
 B26 B 0.72864 0.26841 -0.23136
 B27 B 0.76882 0.26018 -0.22207
 B28 B 0.77943 0.22193 -0.23536
 B29 B 0.74521 0.20651 -0.25329
 B30 B 0.71343 0.23561 -0.25057
 B31 B 0.76566 0.26523 -0.27961
 B32 B 0.77716 0.22546 -0.27126
 B33 B 0.73694 0.23374 -0.28044
 B34 B 0.72637 0.27187 -0.26711
 B35 B 0.76057 0.28728 -0.24926
 B36 B 0.79232 0.25823 -0.25195
 B37 B 0.26565 0.76298 -0.28084
 B38 B 0.22578 0.77135 -0.27075
 B39 B 0.23687 0.73154 -0.27914
 B40 B 0.27653 0.72486 -0.26753
 B41 B 0.29012 0.76111 -0.25152
 B42 B 0.25833 0.79026 -0.25367
 B43 B 0.23568 0.73677 -0.22154
 B44 B 0.27553 0.72838 -0.23176
 B45 B 0.26450 0.76820 -0.22323
 B46 B 0.22472 0.77496 -0.23486
 B47 B 0.21118 0.73866 -0.25088
 B48 B 0.24294 0.70955 -0.24875
 B49 B 1.23628 1.26862 0.71788
 B50 B 1.22805 1.22867 0.72816
 B51 B 1.26776 1.23986 0.71962
 B52 B 1.27428 1.27969 0.73111
 B53 B 1.23798 1.29318 0.74712
 B54 B 1.20907 1.26127 0.74514
 B55 B 1.26256 1.23868 0.77717
 B56 B 1.27066 1.27863 0.76691
 B57 B 1.23102 1.26743 0.77545
 B58 B 1.22451 1.22762 0.76399
 B59 B 1.26080 1.21412 0.74793
 B60 B 1.28971 1.24605 0.74994
 B61 B 0.76597 0.73802 0.78110
 B62 B 0.72638 0.72695 0.77216
 B63 B 0.73459 0.76697 0.78187
 B64 B 0.77291 0.77758 0.76905
 B65 B 0.78855 0.74358 0.75099
 B66 B 0.75942 0.71187 0.75310
 B67 B 0.73052 0.76487 0.72422
 B68 B 0.77008 0.77602 0.73321
 B69 B 0.76191 0.73591 0.72347
 B70 B 0.72353 0.72530 0.73630
 B71 B 0.70790 0.75933 0.75435
 B72 B 0.73703 0.79103 0.75226
 B73 B 1.23518 0.74107 0.21717
 B74 B 1.27516 0.73284 0.22718
 B75 B 1.26371 0.77270 0.21904
 B76 B 1.22392 0.77902 0.23084
 B77 B 1.21078 0.74233 0.24657
 B78 B 1.24276 0.71344 0.24411
 B79 B 1.26522 0.76647 0.27656
 B80 B 1.22527 0.77477 0.26670
 B81 B 1.23662 0.73487 0.27468
 B82 B 1.27632 0.72864 0.26295
 B83 B 1.28954 0.76531 0.24718
 B84 B 1.25757 0.79420 0.24964
 B85 B 0.76484 1.26864 0.28069
 B86 B 0.77551 1.22891 0.27156
 B87 B 0.73574 1.23749 0.28192
 B88 B 0.72519 1.27605 0.26918
 B89 B 0.75897 1.29140 0.25063
 B90 B 0.79043 1.26190 0.25229
 B91 B 0.73678 1.23352 0.22426
 B92 B 0.72622 1.27325 0.23331
 B93 B 0.76594 1.26467 0.22302
 B94 B 0.77642 1.22614 0.23569
 B95 B 0.74269 1.21078 0.25430
 B96 B 0.71123 1.24029 0.25265
 O97 O 0.54478 1.05907 0.05502
 O98 O 0.58414 1.02969 0.02877
 C99 C 0.57565 1.05061 0.04908
 O100 O 0.44875 0.93975 0.04451
 O101 O 0.41258 0.97424 0.01920
 C102 C 0.41877 0.94913 0.03658
 O103 O 0.54154 0.94214 0.05355
 O104 O 0.58246 0.97054 0.02826
 C105 C 0.57287 0.94908 0.04790
 O106 O 0.45246 1.06736 0.04655
 O107 O 0.41445 1.03558 0.02100
 C108 C 0.42195 1.05974 0.03886
 Zr109 Zr 0.49890 1.04466 0.03599
 O110 O 0.49370 1.03879 0.08077
 O111 O 0.50398 1.09779 0.03956
 Zr112 Zr 0.49650 0.96046 0.03521
 O113 O 0.49160 0.96580 0.08002
 O114 O 0.49808 0.90710 0.03886
 O115 O 0.52799 1.00153 0.04243
 O116 O 0.46716 1.00337 0.03948
 O117 O 0.45813 1.06645 -0.05216
 O118 O 0.41722 1.03683 -0.02792
 C119 C 0.42682 1.05954 -0.04651
 O120 O 0.54796 0.94681 -0.05332
 O121 O 0.58554 0.97174 -0.02247
 C122 C 0.57832 0.95263 -0.04427
 O123 O 0.45477 0.94531 -0.05435
 O124 O 0.41557 0.97655 -0.02956
 C125 C 0.42395 0.95412 -0.04871
 O126 O 0.55123 1.06003 -0.05113
 O127 O 0.58728 1.03008 -0.02198
 C128 C 0.58118 1.05107 -0.04291
 Zr129 Zr 0.50332 1.04609 -0.03573
 O130 O 0.50273 1.04835 -0.08101
 O131 O 0.50883 1.09937 -0.03346
 Zr132 Zr 0.50093 0.96112 -0.03645
 O133 O 0.50217 0.95578 -0.08145
 O134 O 0.50291 0.90763 -0.03310
 Zr135 Zr 0.55123 1.00153 0.00179
 Zr136 Zr 0.44867 1.00470 -0.00269
 O137 O 0.47295 1.00467 -0.04279
 O138 O 0.53259 1.00280 -0.04056
 O139 O 0.47102 1.05315 -0.00119
 O140 O 0.52830 0.95347 0.00054
 O141 O 0.53098 1.05083 0.00146
 O142 O 0.46822 0.95489 -0.00215
 H143 H 0.45048 1.00344 0.05532
 H144 H 0.54296 0.93311 0.00086
 H145 H 0.45918 1.00575 -0.06048
 H146 H 0.54664 1.07036 0.00229
 H147 H 0.49030 0.89790 0.02037
 H148 H 0.47987 0.89941 -0.02867
 H149 H 0.49756 0.97833 -0.08975
 H150 H 0.51899 1.03126 -0.08809
 H151 H 0.48752 1.10890 -0.02584
 H152 H 0.49287 1.10789 0.02262
 H153 H 0.49331 1.06198 0.08882
 H154 H 0.48960 0.94253 0.08779
 O155 O 1.05017 0.55647 0.55325
 O156 O 1.08655 0.52992 0.52218
 C157 C 1.08022 0.54917 0.54413
 O158 O 0.95571 0.43861 0.54906
 O159 O 0.91577 0.47144 0.52662
 C160 C 0.92467 0.44730 0.54415
 O161 O 1.04893 0.44207 0.54896
 O162 O 1.08595 0.47132 0.52023
 C163 C 1.07916 0.44997 0.54072
 O164 O 0.95709 0.56119 0.55492
 O165 O 0.91668 0.53195 0.52988
 C166 C 0.92592 0.55383 0.54919
 Zr167 Zr 1.00247 0.54309 0.53715
 O168 O 1.00258 0.54173 0.58242
 O169 O 1.00681 0.59656 0.53736
 Zr170 Zr 1.00158 0.45850 0.53406
 O171 O 1.00234 0.45862 0.57932
 O172 O 1.00494 0.40502 0.53246
 O173 O 1.03273 0.50018 0.53974
 O174 O 0.97262 0.50067 0.54230
 O175 O 0.95057 0.56919 0.45643
 O176 O 0.91329 0.53554 0.48122
 C177 C 0.92028 0.56077 0.46422
 O178 O 1.04206 0.44712 0.44271
 O179 O 1.08262 0.47384 0.46956
 C180 C 1.07327 0.45376 0.44896
 O181 O 0.94927 0.44552 0.44863
 O182 O 0.91285 0.47501 0.47774
 C183 C 0.91924 0.45351 0.45732
 O184 O 1.04309 0.56321 0.44687
 O185 O 1.08316 0.53265 0.47135
 C186 C 1.07413 0.55469 0.45199
 Zr187 Zr 0.99773 0.54696 0.46561
 O188 O 0.99217 0.54589 0.42062
 O189 O 1.00217 0.60033 0.46555
 Zr190 Zr 0.99688 0.46238 0.46251
 O191 O 0.99146 0.46390 0.41747
 O192 O 0.99974 0.40881 0.46219
 Zr193 Zr 1.05098 0.50226 0.49739
 Zr194 Zr 0.94842 0.50317 0.50226
 O195 O 0.96717 0.50542 0.46016
 O196 O 1.02737 0.50472 0.45700
 O197 O 0.96983 0.55207 0.50315
 O198 O 1.02890 0.45383 0.49669
 O199 O 1.02992 0.55110 0.50020
 O200 O 0.96872 0.45388 0.49944
 H201 H 0.95878 0.49965 0.55995
 H202 H 1.04383 0.43372 0.49544
 H203 H 0.95099 0.50706 0.44403
 H204 H 1.04527 0.57090 0.50020
 H205 H 0.98635 0.39690 0.52011
 H206 H 0.97902 0.39990 0.47136
 H207 H 1.00499 0.48327 0.41045
 H208 H 0.99156 0.56984 0.41426
 H209 H 0.98895 0.60880 0.48199
 H210 H 0.98512 0.60619 0.53062
 H211 H 1.01544 0.52132 0.58820
 H212 H 1.00255 0.43457 0.58544
 O213 O 1.06390 0.54411 0.04967
 O214 O 1.03343 0.58383 0.02459
 C215 C 1.05644 0.57516 0.04323
 O216 O 1.05494 0.45118 -0.05421
 O217 O 1.02694 0.41335 -0.02533
 C218 C 1.04688 0.42070 -0.04661
 O219 O 1.06259 0.54382 -0.05106
 O220 O 1.03305 0.58365 -0.02546
 C221 C 1.05533 0.57489 -0.04465
 O222 O 1.05723 0.45112 0.05326
 O223 O 1.02752 0.41329 0.02581
 C224 C 1.04851 0.42061 0.04640
 Zr225 Zr 1.04314 0.49807 0.03571
 O226 O 1.09646 0.49317 0.03534
 O227 O 1.04120 0.49994 0.08092
 Zr228 Zr 1.04299 0.49794 -0.03550
 O229 O 1.09593 0.49459 -0.03020
 O230 O 1.04889 0.49886 -0.08049
 O231 O 1.05065 0.52861 -0.00010
 O232 O 1.04836 0.46763 0.00011
 O233 O 0.94260 0.45472 0.05413
 O234 O 0.96977 0.41498 0.02656
 C235 C 0.94937 0.42367 0.04718
 O236 O 0.94106 0.54777 -0.05071
 O237 O 0.97315 0.58560 -0.02520
 C238 C 0.95028 0.57827 -0.04429
 O239 O 0.94092 0.45461 -0.05247
 O240 O 0.96840 0.41507 -0.02487
 C241 C 0.94781 0.42361 -0.04543
 O242 O 0.94188 0.54803 0.05136
 O243 O 0.97326 0.58571 0.02486
 C244 C 0.95085 0.57849 0.04441
 Zr245 Zr 0.95849 0.50086 0.03605
 O246 O 0.90503 0.49892 0.03413
 O247 O 0.95694 0.50354 0.08124
 Zr248 Zr 0.95799 0.50069 -0.03536
 O249 O 0.90453 0.49884 -0.03315
 O250 O 0.95639 0.50356 -0.08059
 Zr251 Zr 1.00219 0.55101 -0.00010
 Zr252 Zr 0.99897 0.44790 0.00030
 O253 O 0.95101 0.47096 0.00052
 O254 O 0.95243 0.53179 0.00024
 O255 O 0.99994 0.46913 0.04164
 O256 O 1.00138 0.52883 -0.04101
 O257 O 1.00184 0.52921 0.04107
 O258 O 0.99948 0.46913 -0.04117
 H259 H 1.06766 0.45161 0.00002
 H260 H 1.00172 0.54347 -0.05825
 H261 H 0.93079 0.45618 0.00079
 H262 H 1.00256 0.54396 0.05818
 H263 H 1.02663 0.50465 -0.08872
 H264 H 0.97246 0.48653 -0.08809
 H265 H 0.89659 0.52010 -0.02422
 H266 H 0.89700 0.52035 0.02545
 H267 H 0.97747 0.49198 0.08840
 H268 H 1.06492 0.49902 0.08772
 H269 H 1.10548 0.51072 0.02227
 H270 H 1.10554 0.49297 -0.04973
 O271 O 0.43839 0.95489 0.44822
 O272 O 0.46895 0.91485 0.47291
 C273 C 0.44671 0.92382 0.45373
 O274 O 0.55842 1.04634 0.44750
 O275 O 0.52970 1.08442 0.47559
 C276 C 0.55121 1.07691 0.45541
 O277 O 0.55417 0.95325 0.44339
 O278 O 0.52673 0.91414 0.47148
 C279 C 0.54664 0.92239 0.45039
 O280 O 0.43382 1.04771 0.45575
 O281 O 0.46912 1.08513 0.47851
 C282 C 0.44327 1.07810 0.46229
 Zr283 Zr 0.45556 1.00057 0.46580
 O284 O 0.45779 1.00466 0.42071
 O285 O 0.40225 0.99730 0.46523
 Zr286 Zr 0.53983 0.99951 0.46195
 O287 O 0.53302 1.00239 0.41711
 O288 O 0.59307 0.99585 0.45879
 O289 O 0.49698 0.96973 0.45763
 O290 O 0.49762 1.03030 0.45941
 O291 O 0.44275 1.04420 0.55407
 O292 O 0.47273 1.08336 0.52806
 C293 C 0.45084 1.07508 0.54769
 O294 O 0.55783 0.94971 0.55089
 O295 O 0.52832 0.91220 0.52294
 C296 C 0.54946 0.91929 0.54345
 O297 O 0.56365 1.04278 0.54918
 O298 O 0.53208 1.08281 0.52552
 C299 C 0.55545 1.07389 0.54369
 O300 O 0.44454 0.95080 0.55392
 O301 O 0.47109 0.91295 0.52419
 C302 C 0.45142 0.92030 0.54563
 Zr303 Zr 0.45974 0.99788 0.53729
 O304 O 0.46146 0.99930 0.58257
 O305 O 0.40628 0.99488 0.53817
 Zr306 Zr 0.54475 0.99687 0.53318
 O307 O 0.55427 0.99686 0.57771
 O308 O 0.59747 0.99247 0.52597
 Zr309 Zr 0.49924 0.94737 0.49859
 Zr310 Zr 0.50057 1.05024 0.50101
 O311 O 0.50291 1.02660 0.54142
 O312 O 0.50216 0.96712 0.54041
 O313 O 0.45129 1.02981 0.50267
 O314 O 0.54817 0.96803 0.49671
 O315 O 0.45093 0.96945 0.50108
 O316 O 0.54939 1.02889 0.49805
 H317 H 0.49635 1.04620 0.44300
 H318 H 0.56761 0.95222 0.49576
 H319 H 0.50395 1.04057 0.55898
 H320 H 0.43085 0.95449 0.50139
 H321 H 0.60276 1.01366 0.47116
 H322 H 0.60632 1.01530 0.52148
 H323 H 0.53233 1.00055 0.58729
 H324 H 0.47802 0.98204 0.58889
 H325 H 0.39713 1.01640 0.53051
 H326 H 0.39402 1.00940 0.48234
 H327 H 0.43404 1.00602 0.41408
 H328 H 0.55595 1.00255 0.40857
 O329 O 1.07947 1.02711 0.45898
 O330 O 1.03744 1.01110 0.42800
 C331 C 1.06735 1.02283 0.43344
 O332 O 1.03196 0.91752 0.54117
 O333 O 1.01771 0.95996 0.57234
 C334 C 1.02860 0.92975 0.56677
 O335 O 1.03542 0.91774 0.46116
 O336 O 1.01712 0.95794 0.42914
 C337 C 1.03071 0.92894 0.43529
 O338 O 1.07749 1.03547 0.53817
 O339 O 1.03880 1.01661 0.57109
 C340 C 1.06655 1.03215 0.56417
 Zr341 Zr 1.05635 1.01972 0.49918
 O342 O 1.10368 0.99495 0.50086
 O343 O 1.08006 1.06747 0.49534
 Zr344 Zr 1.02543 0.94116 0.50094
 O345 O 1.07701 0.92738 0.50140
 O346 O 1.01102 0.88957 0.50186
 O347 O 1.04645 0.97758 0.47421
 O348 O 1.04692 0.97880 0.52552
 O349 O 0.96889 1.07554 0.53958
 O350 O 0.98566 1.03497 0.57182
 C351 C 0.97332 1.06450 0.56548
 O352 O 0.92198 0.96340 0.46133
 O353 O 0.96283 0.97899 0.42911
 C354 C 0.93328 0.96711 0.43544
 O355 O 0.92507 0.95978 0.54084
 O356 O 0.96485 0.97923 0.57244
 C357 C 0.93662 0.96407 0.56649
 O358 O 0.96228 1.07177 0.46034
 O359 O 0.98164 1.03223 0.42846
 C360 C 0.96603 1.06016 0.43466
 Zr361 Zr 0.97730 1.05162 0.49989
 O362 O 0.92915 1.07456 0.50323
 O363 O 0.99926 1.10025 0.49556
 Zr364 Zr 0.94591 0.97246 0.50100
 O365 O 0.89666 0.99322 0.50442
 O366 O 0.92537 0.92309 0.49923
 Zr367 Zr 1.00032 0.99567 0.45748
 Zr368 Zr 1.00153 0.99712 0.54316
 O369 O 0.95592 1.01466 0.52544
 O370 O 0.95485 1.01412 0.47503
 O371 O 1.01960 1.04244 0.52485
 O372 O 0.98297 0.95043 0.47624
 O373 O 1.01864 1.04130 0.47441
 O374 O 0.98350 0.95098 0.52644
 H375 H 1.06534 0.97216 0.53878
 H376 H 0.97539 0.93171 0.46375
 H377 H 0.93742 1.02186 0.53838
 H378 H 1.02544 1.05956 0.46103
 H379 H 0.98844 0.88791 0.49296
 H380 H 0.93889 0.90880 0.51237
 H381 H 0.89216 1.00649 0.48683
 H382 H 0.91302 1.05968 0.49317
 H383 H 1.01146 1.10536 0.51353
 H384 H 1.06410 1.08430 0.50320
 H385 H 1.12090 1.01314 0.50102
 H386 H 1.07738 0.90242 0.50343
 O387 O 0.56925 0.54712 0.04017
 O388 O 0.53287 0.52266 0.07237
 C389 C 0.55845 0.54174 0.06595
 O390 O 0.45094 0.56530 -0.04030
 O391 O 0.47752 0.52936 -0.07159
 C392 C 0.45753 0.55449 -0.06585
 O393 O 0.45641 0.57171 0.03886
 O394 O 0.47756 0.53387 0.07161
 C395 C 0.46219 0.56178 0.06487
 O396 O 0.57425 0.53952 -0.03894
 O397 O 0.53622 0.51733 -0.07078
 C398 C 0.56401 0.53303 -0.06470
 Zr399 Zr 0.55063 0.53023 0.00074
 O400 O 0.55731 0.58324 -0.00193
 O401 O 0.60325 0.52193 0.00472
 Zr402 Zr 0.46808 0.54822 -0.00028
 O403 O 0.48421 0.59911 -0.00314
 O404 O 0.41679 0.56312 0.00217
 O405 O 0.51033 0.54611 0.02579
 O406 O 0.51096 0.54474 -0.02526
 O407 O 0.54971 0.42676 -0.03673
 O408 O 0.52507 0.46201 -0.06975
 C409 C 0.54398 0.43644 -0.06279
 O410 O 0.43084 0.44868 0.04042
 O411 O 0.46563 0.47520 0.07252
 C412 C 0.44070 0.45529 0.06622
 O413 O 0.42828 0.45289 -0.03909
 O414 O 0.46712 0.47411 -0.07074
 C415 C 0.43918 0.45866 -0.06480
 O416 O 0.54315 0.42552 0.04287
 O417 O 0.52048 0.46462 0.07364
 C418 C 0.53641 0.43669 0.06833
 Zr419 Zr 0.53297 0.44689 0.00234
 O420 O 0.52192 0.39455 -0.00053
 O421 O 0.58498 0.43555 0.00714
 Zr422 Zr 0.44985 0.46501 0.00082
 O423 O 0.43717 0.41310 -0.00221
 O424 O 0.39791 0.47742 0.00399
 Zr425 Zr 0.49962 0.49835 0.04374
 Zr426 Zr 0.50109 0.49647 -0.04201
 O427 O 0.49056 0.44914 -0.02330
 O428 O 0.48956 0.44983 0.02710
 O429 O 0.54887 0.48649 -0.02383
 O430 O 0.45227 0.50843 0.02522
 O431 O 0.54764 0.48787 0.02661
 O432 O 0.45279 0.50744 -0.02526
 H433 H 0.51509 0.56359 -0.03886
 H434 H 0.43277 0.51278 0.03802
 H435 H 0.48669 0.42937 -0.03590
 H436 H 0.56689 0.48417 0.03983
 H437 H 0.40355 0.54584 -0.00817
 H438 H 0.39163 0.49021 -0.01346
 H439 H 0.45132 0.40069 0.01176
 H440 H 0.50693 0.38861 0.01566
 H441 H 0.59717 0.44660 -0.00881
 H442 H 0.60900 0.50247 -0.00763
 H443 H 0.58205 0.58708 -0.00210
 H444 H 0.46333 0.61294 -0.00404
 C445 C 0.30276 1.17475 0.14826
 C446 C 0.32317 1.19700 0.16386
 C447 C 0.30972 1.21545 0.18674
 C448 C 0.27541 1.21228 0.19437
 C449 C 0.25506 1.19002 0.17831
 C450 C 0.26858 1.17156 0.15543
 C451 C 0.31750 1.15430 0.12582
 C452 C 0.33149 1.13758 0.10764
 C453 C 0.35083 1.11874 0.08675
 C454 C 0.37985 1.13361 0.07521
 C455 C 0.40172 1.11469 0.05813
 C456 C 0.39497 1.08048 0.05207
 C457 C 0.36481 1.06606 0.06228
 C458 C 0.34294 1.08507 0.07976
 H459 H 0.34975 1.19959 0.15873
 H460 H 0.32648 1.23168 0.19881
 H461 H 0.22890 1.18585 0.18388
 H462 H 0.25252 1.15421 0.14376
 H463 H 0.38635 1.15952 0.08040
 H464 H 0.42472 1.12650 0.05048
 H465 H 0.35923 1.03968 0.05817
 H466 H 0.32065 1.07315 0.08867
 C467 C 0.80438 0.67791 0.65094
 C468 C 0.77046 0.67392 0.65857
 C469 C 0.75645 0.69354 0.68049
 C470 C 0.77609 0.71774 0.69517
 C471 C 0.81004 0.72196 0.68684
 C472 C 0.82396 0.70235 0.66488
 C473 C 0.82015 0.65495 0.63092
 C474 C 0.83515 0.63551 0.61548
 C475 C 0.85596 0.61265 0.59898
 C476 C 0.84563 0.59968 0.57240
 C477 C 0.86767 0.57912 0.55634
 C478 C 0.90026 0.57174 0.56669
 C479 C 0.90973 0.58409 0.59376
 C480 C 0.88784 0.60425 0.60968
 H481 H 0.75515 0.65471 0.64835
 H482 H 0.73067 0.68840 0.68673
 H483 H 0.82633 0.73952 0.69800
 H484 H 0.85043 0.70538 0.65952
 H485 H 0.82096 0.60599 0.56387
 H486 H 0.85978 0.57008 0.53553
 H487 H 0.93449 0.57861 0.60254
 H488 H 0.89613 0.61392 0.63020
 C489 C 0.69558 0.82416 0.14908
 C490 C 0.67585 0.80031 0.16366
 C491 C 0.68992 0.78055 0.18553
 C492 C 0.72419 0.78401 0.19319
 C493 C 0.74402 0.80750 0.17780
 C494 C 0.72985 0.82732 0.15594
 C495 C 0.67961 0.84727 0.12915
 C496 C 0.66427 0.86667 0.11381
 C497 C 0.64304 0.88937 0.09737
 C498 C 0.61047 0.89601 0.10744
 C499 C 0.58841 0.91626 0.09163
 C500 C 0.59838 0.93046 0.06526
 C501 C 0.63157 0.92465 0.05554
 C502 C 0.65377 0.90405 0.07151
 H503 H 0.64918 0.79784 0.15884
 H504 H 0.67350 0.76343 0.19710
 H505 H 0.77014 0.81187 0.18342
 H506 H 0.74533 0.84598 0.14512
 H507 H 0.60185 0.88503 0.12743
 H508 H 0.56322 0.92042 0.09999
 H509 H 0.63996 0.93508 0.03530
 H510 H 0.67899 0.89916 0.06348
 C511 C 1.19667 0.32431 0.64272
 C512 C 1.23084 0.32670 0.64999
 C513 C 1.24381 0.30780 0.67287
 C514 C 1.22285 0.28599 0.68891
 C515 C 1.18863 0.28321 0.68091
 C516 C 1.17573 0.30214 0.65800
 C517 C 1.18221 0.34709 0.62182
 C518 C 1.16860 0.36697 0.60582
 C519 C 1.14979 0.39120 0.58896
 C520 C 1.15441 0.39456 0.55926
 C521 C 1.13297 0.41583 0.54323
 C522 C 1.10664 0.43342 0.55687
 C523 C 1.10333 0.43101 0.58675
 C524 C 1.12475 0.41019 0.60262
 H525 H 1.24721 0.34418 0.63870
 H526 H 1.26993 0.31166 0.67866
 H527 H 1.17147 0.26727 0.69291
 H528 H 1.14909 0.30040 0.65288
 H529 H 1.17369 0.37992 0.54843
 H530 H 1.13568 0.41699 0.52018
 H531 H 1.08320 0.44434 0.59772
 H532 H 1.12090 0.40792 0.62552
 C533 C 0.70075 1.16930 -0.14926
 C534 C 0.73523 1.16850 -0.15590
 C535 C 0.74793 1.18800 -0.17859
 C536 C 0.72638 1.20883 -0.19504
 C537 C 0.69174 1.20952 -0.18796
 C538 C 0.67916 1.19015 -0.16523
 C539 C 0.68673 1.14687 -0.12778
 C540 C 0.67303 1.12774 -0.11117
 C541 C 0.65372 1.10471 -0.09345
 C542 C 0.65857 1.10227 -0.06370
 C543 C 0.63643 1.08266 -0.04686
 C544 C 0.60915 1.06578 -0.05975
 C545 C 0.60553 1.06725 -0.08964
 C546 C 0.62764 1.08639 -0.10630
 H547 H 0.75218 1.15210 -0.14404
 H548 H 0.77445 1.18578 -0.18374
 H549 H 0.67409 1.22460 -0.20029
 H550 H 0.65233 1.19077 -0.16060
 H551 H 0.67858 1.11645 -0.05343
 H552 H 0.63936 1.08230 -0.02382
 H553 H 0.58462 1.05457 -0.10004
 H554 H 0.62348 1.08801 -0.12919
 C555 C 1.19553 0.67325 0.34593
 C556 C 1.23021 0.67276 0.34013
 C557 C 1.24351 0.69299 0.31818
 C558 C 1.22234 0.71420 0.30172
 C559 C 1.18748 0.71443 0.30791
 C560 C 1.17431 0.69437 0.32990
 C561 C 1.18083 0.65059 0.36678
 C562 C 1.16602 0.63184 0.38293
 C563 C 1.14482 0.61023 0.40022
 C564 C 1.15577 0.59608 0.42625
 C565 C 1.13337 0.57673 0.44303
 C566 C 1.09983 0.57179 0.43396
 C567 C 1.08965 0.58539 0.40743
 C568 C 1.11187 0.60436 0.39082
 H569 H 1.24683 0.65611 0.35207
 H570 H 1.27018 0.69100 0.31358
 H571 H 1.17010 0.72968 0.29546
 H572 H 1.14734 0.69472 0.33390
 H573 H 1.18129 0.60046 0.43375
 H574 H 1.14187 0.56662 0.46337
 H575 H 1.06417 0.58176 0.39955
 H576 H 1.10306 0.61502 0.37075
 C577 C 0.30604 0.82976 -0.15224
 C578 C 0.27135 0.83027 -0.15804
 C579 C 0.25793 0.80983 -0.17972
 C580 C 0.27894 0.78833 -0.19597
 C581 C 0.31375 0.78772 -0.18957
 C582 C 0.32708 0.80809 -0.16787
 C583 C 0.32072 0.85323 -0.13203
 C584 C 0.33481 0.87310 -0.11637
 C585 C 0.35447 0.89663 -0.09953
 C586 C 0.34553 0.90541 -0.07138
 C587 C 0.36705 0.92601 -0.05491
 C588 C 0.39779 0.93754 -0.06644
 C589 C 0.40570 0.92964 -0.09501
 C590 C 0.38425 0.90950 -0.11135
 H591 H 0.25481 0.84721 -0.14640
 H592 H 0.23127 0.81198 -0.18435
 H593 H 0.33099 0.77214 -0.20182
 H594 H 0.35405 0.80765 -0.16386
 H595 H 0.32254 0.89560 -0.06193
 H596 H 0.36056 0.93149 -0.03288
 H597 H 0.42911 0.93836 -0.10452
 H598 H 0.39147 0.90309 -0.13306
 C599 C 0.80514 0.32819 0.35332
 C600 C 0.82659 0.30728 0.33734
 C601 C 0.81370 0.28754 0.31503
 C602 C 0.77897 0.28811 0.30837
 C603 C 0.75760 0.30894 0.32492
 C604 C 0.77055 0.32868 0.34719
 C605 C 0.81915 0.35116 0.37422
 C606 C 0.83211 0.37105 0.39051
 C607 C 0.84976 0.39532 0.40812
 C608 C 0.87175 0.41817 0.39486
 C609 C 0.89249 0.43898 0.41129
 C610 C 0.89146 0.43754 0.44132
 C611 C 0.86811 0.41593 0.45473
 C612 C 0.84737 0.39474 0.43814
 H613 H 0.85351 0.30697 0.34158
 H614 H 0.83116 0.27246 0.30256
 H615 H 0.73100 0.31115 0.32011
 H616 H 0.75371 0.34513 0.35905
 H617 H 0.87397 0.41887 0.37174
 H618 H 0.91061 0.45518 0.40054
 H619 H 0.86746 0.41389 0.47785
 H620 H 0.83058 0.37703 0.44867
 C621 C 1.17007 0.30032 0.15071
 C622 C 1.19184 0.32137 0.16615
 C623 C 1.21165 0.30821 0.18837
 C624 C 1.21040 0.27352 0.19549
 C625 C 1.18876 0.25248 0.17945
 C626 C 1.16886 0.26575 0.15725
 C627 C 1.14706 0.31502 0.13003
 C628 C 1.12751 0.32924 0.11410
 C629 C 1.10420 0.34916 0.09711
 C630 C 1.09036 0.37828 0.10935
 C631 C 1.07061 0.40021 0.09298
 C632 C 1.06414 0.39351 0.06394
 C633 C 1.07651 0.36330 0.05195
 C634 C 1.09669 0.34127 0.06848
 H635 H 1.19277 0.34827 0.16159
 H636 H 1.22731 0.32550 0.20043
 H637 H 1.18608 0.22595 0.18463
 H638 H 1.15177 0.24923 0.14579
 H639 H 1.09579 0.38470 0.13142
 H640 H 1.06125 0.42319 0.10284
 H641 H 1.07212 0.35769 0.02959
 H642 H 1.10723 0.31876 0.05873
 C643 C 0.67122 0.80400 0.65068
 C644 C 0.67146 0.76933 0.65685
 C645 C 0.69106 0.75673 0.67947
 C646 C 0.71102 0.77855 0.69630
 C647 C 0.71082 0.81336 0.68961
 C648 C 0.69125 0.82589 0.66697
 C649 C 0.64844 0.81772 0.62937
 C650 C 0.62887 0.83087 0.61282
 C651 C 0.60525 0.84934 0.59502
 C652 C 0.60226 0.84332 0.56547
 C653 C 0.58185 0.86452 0.54840
 C654 C 0.56482 0.89206 0.56082
 C655 C 0.56677 0.89676 0.59057
 C656 C 0.58671 0.87558 0.60748
 H657 H 0.65569 0.75215 0.64474
 H658 H 0.68946 0.73003 0.68430
 H659 H 0.72519 0.83117 0.70228
 H660 H 0.69102 0.85287 0.66272
 H661 H 0.61655 0.82313 0.55552
 H662 H 0.58089 0.86061 0.52548
 H663 H 0.55374 0.91774 0.60062
 H664 H 0.58870 0.88058 0.63022
 C665 C 1.17962 0.69570 -0.14710
 C666 C 1.17625 0.72983 -0.15464
 C667 C 1.19530 0.74336 -0.17720
 C668 C 1.21823 0.72302 -0.19267
 C669 C 1.22194 0.68888 -0.18438
 C670 C 1.20293 0.67545 -0.16178
 C671 C 1.15699 0.68040 -0.12645
 C672 C 1.13769 0.66570 -0.11064
 C673 C 1.11470 0.64512 -0.09395
 C674 C 1.10341 0.65461 -0.06657
 C675 C 1.08266 0.63263 -0.05053
 C676 C 1.07348 0.60090 -0.06170
 C677 C 1.08408 0.59238 -0.08954
 C678 C 1.10439 0.61421 -0.10542
 H679 H 1.15794 0.74569 -0.14382
 H680 H 1.19073 0.76938 -0.18325
 H681 H 1.23866 0.67211 -0.19599
 H682 H 1.20553 0.64885 -0.15647
 H683 H 1.11114 0.67855 -0.05745
 H684 H 1.07492 0.63980 -0.02916
 H685 H 1.07709 0.56836 -0.09897
 H686 H 1.11264 0.60658 -0.12657
 C687 C 0.67913 1.19618 0.35594
 C688 C 0.67577 1.23028 0.34837
 C689 C 0.69492 1.24381 0.32591
 C690 C 0.71808 1.22355 0.31062
 C691 C 0.72178 1.18941 0.31891
 C692 C 0.70260 1.17594 0.34141
 C693 C 0.65603 1.18101 0.37624
 C694 C 0.63598 1.16685 0.39171
 C695 C 0.61168 1.14732 0.40791
 C696 C 0.60441 1.15409 0.43680
 C697 C 0.58274 1.13253 0.45234
 C698 C 0.56867 1.10389 0.43909
 C699 C 0.57505 1.09837 0.40986
 C700 C 0.59626 1.11984 0.39448
 H701 H 0.65730 1.24611 0.35903
 H702 H 0.69013 1.26975 0.31976
 H703 H 0.73858 1.17267 0.30733
 H704 H 0.70512 1.14934 0.34670
 H705 H 0.61619 1.17533 0.44747
 H706 H 0.57839 1.13722 0.47486
 H707 H 0.56436 1.07665 0.39903
 H708 H 0.60150 1.11432 0.37220
 C709 C 0.82907 0.69693 0.14925
 C710 C 0.80804 0.67542 0.16510
 C711 C 0.78848 0.68816 0.18759
 C712 C 0.78928 0.72283 0.19458
 C713 C 0.81017 0.74433 0.17818
 C714 C 0.82980 0.73149 0.15571
 C715 C 0.85180 0.68274 0.12817
 C716 C 0.87122 0.66893 0.11193
 C717 C 0.89455 0.64943 0.09472
 C718 C 0.91011 0.62134 0.10731
 C719 C 0.92998 0.59964 0.09093
 C720 C 0.93488 0.60559 0.06154
 C721 C 0.92073 0.63478 0.04908
 C722 C 0.90039 0.65656 0.06562
 H723 H 0.80748 0.64853 0.16062
 H724 H 0.77330 0.67060 0.19990
 H725 H 0.81241 0.77090 0.18322
 H726 H 0.84630 0.74838 0.14393
 H727 H 0.90593 0.61549 0.12971
 H728 H 0.94071 0.57741 0.10109
 H729 H 0.92389 0.63969 0.02644
 H730 H 0.88845 0.67823 0.05557
 C731 C 0.32931 1.19861 0.64872
 C732 C 0.30713 1.17767 0.66392
 C733 C 0.28689 1.19096 0.68567
 C734 C 0.28810 1.22565 0.69248
 C735 C 0.31042 1.24654 0.67687
 C736 C 0.33073 1.23314 0.65511
 C737 C 0.35245 1.18366 0.62848
 C738 C 0.37180 1.16873 0.61299
 C739 C 0.39432 1.14744 0.59670
 C740 C 0.40257 1.11577 0.60806
 C741 C 0.42202 1.09310 0.59234
 C742 C 0.43379 1.10159 0.56482
 C743 C 0.42662 1.13400 0.55379
 C744 C 0.40672 1.15682 0.56965
 H745 H 0.30622 1.15076 0.65956
 H746 H 0.27097 1.17376 0.69766
 H747 H 0.31334 1.27300 0.68209
 H748 H 0.34827 1.24952 0.64391
 H749 H 0.39323 1.10820 0.62893
 H750 H 0.42730 1.06848 0.60159
 H751 H 0.43521 1.14113 0.53260
 H752 H 0.40041 1.18129 0.56061
 C753 C 0.82583 0.30211 -0.14858
 C754 C 0.82942 0.26799 -0.15595
 C755 C 0.81028 0.25423 -0.17831
 C756 C 0.78700 0.27433 -0.19371
 C757 C 0.78324 0.30852 -0.18569
 C758 C 0.80234 0.32217 -0.16331
 C759 C 0.84825 0.31759 -0.12794
 C760 C 0.86735 0.33239 -0.11209
 C761 C 0.89013 0.35293 -0.09527
 C762 C 0.89954 0.34422 -0.06718
 C763 C 0.91988 0.36628 -0.05096
 C764 C 0.93054 0.39733 -0.06268
 C765 C 0.92186 0.40506 -0.09117
 C766 C 0.90197 0.38310 -0.10725
 H767 H 0.84787 0.25227 -0.14508
 H768 H 0.81490 0.22821 -0.18420
 H769 H 0.76625 0.32514 -0.19725
 H770 H 0.79958 0.34876 -0.15813
 H771 H 0.89058 0.32089 -0.05764
 H772 H 0.92601 0.35980 -0.02903
 H773 H 0.92989 0.42862 -0.10093
 H774 H 0.89512 0.39012 -0.12893
 C775 C 0.32203 0.80609 0.35069
 C776 C 0.32526 0.77211 0.34291
 C777 C 0.30598 0.75903 0.32042
 C778 C 0.28290 0.77968 0.30534
 C779 C 0.27934 0.81369 0.31387
 C780 C 0.29864 0.82670 0.33639
 C781 C 0.34503 0.82082 0.37114
 C782 C 0.36469 0.83493 0.38686
 C783 C 0.38800 0.85480 0.40357
 C784 C 0.39851 0.84501 0.43111
 C785 C 0.41932 0.86653 0.44736
 C786 C 0.42925 0.89808 0.43621
 C787 C 0.41945 0.90692 0.40823
 C788 C 0.39912 0.88550 0.39211
 H789 H 0.34372 0.75607 0.35342
 H790 H 0.31062 0.73317 0.31407
 H791 H 0.26257 0.83070 0.30247
 H792 H 0.29625 0.85323 0.34188
 H793 H 0.39006 0.82124 0.44021
 H794 H 0.42647 0.85923 0.46888
 H795 H 0.42702 0.93090 0.39892
 H796 H 0.39138 0.89330 0.37083
 C797 C 1.17049 1.14573 0.32210
 C798 C 1.16771 1.14609 0.29235
 C799 C 1.18405 1.17104 0.27647
 C800 C 1.20363 1.19604 0.29013
 C801 C 1.20520 1.19608 0.32024
 C802 C 1.18887 1.17096 0.33610
 C803 C 1.15458 1.11927 0.33814
 C804 C 1.14101 1.09736 0.35178
 C805 C 1.12432 1.07248 0.36900
 C806 C 1.09023 1.06518 0.36415
 C807 C 1.07214 1.04618 0.38414
 C808 C 1.08799 1.03479 0.40930
 C809 C 1.12289 1.03994 0.41285
 C810 C 1.14098 1.05873 0.39272
 H811 H 1.15332 1.12674 0.28138
 H812 H 1.18180 1.17004 0.25342
 H813 H 1.21982 1.21485 0.33160
 H814 H 1.19101 1.17091 0.35922
 H815 H 1.07715 1.07578 0.34582
 H816 H 1.04524 1.04274 0.38097
 H817 H 1.13579 1.03109 0.43191
 H818 H 1.16746 1.06412 0.39648
 C819 C 0.66895 0.65192 -0.17822
 C820 C 0.66696 0.65211 -0.20799
 C821 C 0.68441 0.67651 -0.22361
 C822 C 0.70421 0.70111 -0.20961
 C823 C 0.70516 0.70113 -0.17950
 C824 C 0.68768 0.67662 -0.16393
 C825 C 0.65203 0.62618 -0.16225
 C826 C 0.63799 0.60512 -0.14809
 C827 C 0.62137 0.58156 -0.12968
 C828 C 0.58840 0.57101 -0.13568
 C829 C 0.57016 0.55301 -0.11511
 C830 C 0.58479 0.54590 -0.08834
 C831 C 0.61864 0.55475 -0.08329
 C832 C 0.63683 0.57250 -0.10390
 H833 H 0.65226 0.63314 -0.21915
 H834 H 0.68267 0.67547 -0.24669
 H835 H 0.72004 0.71948 -0.16790
 H836 H 0.68913 0.67665 -0.14077
 H837 H 0.57629 0.57809 -0.15562
 H838 H 0.54407 0.54654 -0.11947
 H839 H 0.63059 0.54925 -0.06294
 H840 H 0.66237 0.58060 -0.09916
 C841 C 0.85303 1.17146 0.67706
 C842 C 0.85317 1.16837 0.70679
 C843 C 0.82844 1.18453 0.72302
 C844 C 0.80304 1.20411 0.70972
 C845 C 0.80265 1.20616 0.67962
 C846 C 0.82759 1.19008 0.66343
 C847 C 0.87892 1.15526 0.66058
 C848 C 0.90017 1.14128 0.64652
 C849 C 0.92415 1.12408 0.62876
 C850 C 0.93413 1.09097 0.63540
 C851 C 0.95266 1.07213 0.61558
 C852 C 0.96101 1.08625 0.58885
 C853 C 0.95297 1.12035 0.58329
 C854 C 0.93456 1.13912 0.60314
 H855 H 0.87265 1.15374 0.71747
 H856 H 0.82983 1.18202 0.74605
 H857 H 0.78372 1.22093 0.66850
 H858 H 0.82722 1.19247 0.64032
 H859 H 0.92615 1.07916 0.65522
 H860 H 0.95840 1.04591 0.62041
 H861 H 0.95936 1.13201 0.56299
 H862 H 0.92702 1.16478 0.59791
 C863 C 0.35084 0.67597 0.17773
 C864 C 0.34989 0.67308 0.20744
 C865 C 0.32553 0.69063 0.22294
 C866 C 0.30169 0.71150 0.20892
 C867 C 0.30279 0.71386 0.17888
 C868 C 0.32725 0.69622 0.16341
 C869 C 0.37553 0.65750 0.16182
 C870 C 0.39538 0.64187 0.14766
 C871 C 0.41727 0.62335 0.12910
 C872 C 0.42699 0.59022 0.13591
 C873 C 0.44337 0.57039 0.11543
 C874 C 0.44963 0.58359 0.08797
 C875 C 0.44147 0.61752 0.08201
 C876 C 0.42538 0.63727 0.10250
 H877 H 0.36801 0.65728 0.21864
 H878 H 0.32581 0.68784 0.24597
 H879 H 0.28499 0.72948 0.16725
 H880 H 0.32781 0.69839 0.14029
 H881 H 0.42067 0.57931 0.15652
 H882 H 0.44953 0.54435 0.12056
 H883 H 0.44652 0.62850 0.06118
 H884 H 0.41792 0.66292 0.09714
 C885 C 1.14803 0.82492 0.67934
 C886 C 1.14880 0.82794 0.70905
 C887 C 1.17423 0.81203 0.72470
 C888 C 1.19932 0.79268 0.71082
 C889 C 1.19884 0.79080 0.68074
 C890 C 1.17328 0.80674 0.66512
 C891 C 1.12138 0.84069 0.66345
 C892 C 1.09962 0.85431 0.64970
 C893 C 1.07534 0.87124 0.63207
 C894 C 1.06763 0.90526 0.63716
 C895 C 1.04982 0.92385 0.61671
 C896 C 1.04001 0.90859 0.59086
 C897 C 1.04548 0.87372 0.58701
 C898 C 1.06311 0.85514 0.60757
 H899 H 1.12947 0.84222 0.72017
 H900 H 1.17356 0.81445 0.74774
 H901 H 1.21755 0.77622 0.66922
 H902 H 1.17293 0.80449 0.64201
 H903 H 1.07705 0.91791 0.65609
 H904 H 1.04587 0.95066 0.62025
 H905 H 1.03767 0.86121 0.56749
 H906 H 1.06885 0.82873 0.60361
 C907 C 0.65205 0.33249 0.18436
 C908 C 0.67599 0.31294 0.16987
 C909 C 0.70014 0.29474 0.18524
 C910 C 0.70050 0.29580 0.21534
 C911 C 0.67662 0.31632 0.22954
 C912 C 0.65257 0.33448 0.21412
 C913 C 0.62666 0.35010 0.16858
 C914 C 0.60600 0.36447 0.15428
 C915 C 0.58307 0.38102 0.13532
 C916 C 0.57319 0.41451 0.14023
 C917 C 0.55592 0.43234 0.11894
 C918 C 0.54896 0.41673 0.09258
 C919 C 0.55708 0.38245 0.08867
 C920 C 0.57411 0.36470 0.10997
 H921 H 0.67570 0.31141 0.14672
 H922 H 0.71797 0.27936 0.17348
 H923 H 0.67595 0.31817 0.25262
 H924 H 0.63411 0.34971 0.22541
 H925 H 0.58013 0.42723 0.15989
 H926 H 0.54980 0.45875 0.12247
 H927 H 0.55138 0.36974 0.06873
 H928 H 0.58165 0.33873 0.10616
 C929 C 0.82827 0.84895 0.32198
 C930 C 0.80956 0.82367 0.33564
 C931 C 0.79324 0.79902 0.31947
 C932 C 0.79521 0.79955 0.28939
 C933 C 0.81501 0.82470 0.27604
 C934 C 0.83140 0.84919 0.29227
 C935 C 0.84434 0.87465 0.33850
 C936 C 0.85803 0.89569 0.35282
 C937 C 0.87479 0.91930 0.37099
 C938 C 0.85934 0.92926 0.39649
 C939 C 0.87781 0.94697 0.41692
 C940 C 0.91195 0.95478 0.41192
 C941 C 0.92650 0.94689 0.38528
 C942 C 0.90796 0.92907 0.36492
 H943 H 0.80719 0.82331 0.35875
 H944 H 0.77826 0.78029 0.33061
 H945 H 0.81744 0.82611 0.25301
 H946 H 0.84616 0.86858 0.28161
 H947 H 0.83356 0.92187 0.40119
 H948 H 0.86587 0.95306 0.43713
 H949 H 0.95280 0.95246 0.38087
 H950 H 0.92003 0.92142 0.34515
 C951 C 0.32857 0.35274 -0.18332
 C952 C 0.33146 0.35222 -0.21304
 C953 C 0.31341 0.32843 -0.22877
 C954 C 0.29224 0.30480 -0.21489
 C955 C 0.28995 0.30551 -0.18486
 C956 C 0.30798 0.32936 -0.16921
 C957 C 0.34723 0.37669 -0.16695
 C958 C 0.36266 0.39561 -0.15186
 C959 C 0.38059 0.41608 -0.13193
 C960 C 0.41403 0.42552 -0.13731
 C961 C 0.43300 0.44075 -0.11572
 C962 C 0.41858 0.44619 -0.08861
 C963 C 0.38451 0.43792 -0.08392
 C964 C 0.36563 0.42296 -0.10552
 H965 H 0.34763 0.37016 -0.22403
 H966 H 0.31610 0.32890 -0.25180
 H967 H 0.27413 0.28785 -0.17333
 H968 H 0.30589 0.32957 -0.14609
 H969 H 0.42578 0.41997 -0.15772
 H970 H 0.45925 0.44684 -0.11982
 H971 H 0.37271 0.44220 -0.06333
 H972 H 0.33975 0.41554 -0.10125
 C973 C 1.17032 0.30722 -0.15250
 C974 C 1.19009 0.32914 -0.16908
 C975 C 1.21007 0.31646 -0.19131
 C976 C 1.21092 0.28149 -0.19721
 C977 C 1.19128 0.25969 -0.18004
 C978 C 1.17126 0.27244 -0.15787
 C979 C 1.14705 0.32087 -0.13174
 C980 C 1.12700 0.33374 -0.11558
 C981 C 1.10286 0.35163 -0.09810
 C982 C 1.08408 0.37768 -0.11070
 C983 C 1.06385 0.39855 -0.09387
 C984 C 1.06188 0.39362 -0.06413
 C985 C 1.07907 0.36615 -0.05165
 C986 C 1.09973 0.34530 -0.06862
 H987 H 1.18936 0.35620 -0.16533
 H988 H 1.22434 0.33422 -0.20419
 H989 H 1.19028 0.23285 -0.18425
 H990 H 1.15573 0.25526 -0.14545
 H991 H 1.08621 0.38284 -0.13343
 H992 H 1.05083 0.41961 -0.10393
 H993 H 1.07825 0.36221 -0.02872
 H994 H 1.11424 0.32523 -0.05863
 C995 C 0.67186 0.80317 0.35001
 C996 C 0.69401 0.82448 0.33515
 C997 C 0.71455 0.81158 0.31343
 C998 C 0.71375 0.77691 0.30642
 C999 C 0.69166 0.75565 0.32188
 C1000 C 0.67101 0.76867 0.34353
 C1001 C 0.64790 0.81757 0.36977
 C1002 C 0.62761 0.83164 0.38494
 C1003 C 0.60373 0.85148 0.40106
 C1004 C 0.59109 0.88105 0.38854
 C1005 C 0.57091 0.90300 0.40434
 C1006 C 0.56289 0.89578 0.43303
 C1007 C 0.57411 0.86517 0.44519
 C1008 C 0.59472 0.84315 0.42927
 H1009 H 0.69455 0.85138 0.33966
 H1010 H 0.73032 0.82907 0.30159
 H1011 H 0.68901 0.72922 0.31652
 H1012 H 0.65350 0.75204 0.35450
 H1013 H 0.59782 0.88776 0.36676
 H1014 H 0.56238 0.92629 0.39437
 H1015 H 0.56844 0.85920 0.46731
 H1016 H 0.60444 0.82032 0.43920
 C1017 C 0.82605 0.69832 -0.14609
 C1018 C 0.80458 0.67688 -0.16148
 C1019 C 0.78478 0.68963 -0.18385
 C1020 C 0.78568 0.72427 -0.19111
 C1021 C 0.80706 0.74567 -0.17516
 C1022 C 0.82695 0.73282 -0.15282
 C1023 C 0.84930 0.68402 -0.12548
 C1024 C 0.86915 0.66993 -0.10977
 C1025 C 0.89278 0.64983 -0.09335
 C1026 C 0.90510 0.62014 -0.10571
 C1027 C 0.92530 0.59810 -0.08990
 C1028 C 0.93375 0.60526 -0.06131
 C1029 C 0.92291 0.63600 -0.04927
 C1030 C 0.90224 0.65817 -0.06522
 H1031 H 0.80394 0.65001 -0.15678
 H1032 H 0.76939 0.67208 -0.19590
 H1033 H 0.80962 0.77215 -0.18052
 H1034 H 0.84385 0.74963 -0.14145
 H1035 H 0.89819 0.61341 -0.12741
 H1036 H 0.93353 0.57475 -0.09986
 H1037 H 0.92897 0.64202 -0.02728
 H1038 H 0.89292 0.68117 -0.05542
 C1039 C 0.32432 1.19374 0.35390
 C1040 C 0.32434 1.22836 0.34759
 C1041 C 0.30483 1.24094 0.32491
 C1042 C 0.28476 1.21912 0.30819
 C1043 C 0.28487 1.18432 0.31492
 C1044 C 0.30430 1.17183 0.33763
 C1045 C 0.34565 1.18020 0.37628
 C1046 C 0.36318 1.16718 0.39444
 C1047 C 0.38302 1.14894 0.41538
 C1048 C 0.41771 1.15521 0.41896
 C1049 C 0.43743 1.13370 0.43626
 C1050 C 0.42259 1.10553 0.44970
 C1051 C 0.38753 1.10058 0.44710
 C1052 C 0.36795 1.12213 0.43018
 H1053 H 0.33993 1.24557 0.35983
 H1054 H 0.30637 1.26765 0.32011
 H1055 H 0.27027 1.16654 0.30241
 H1056 H 0.30414 1.14492 0.34217
 H1057 H 0.42974 1.17575 0.40745
 H1058 H 0.46444 1.13775 0.43762
 H1059 H 0.37547 1.07904 0.45722
 H1060 H 0.34125 1.11690 0.42756
 C1061 C 1.18040 0.69962 0.14237
 C1062 C 1.17497 0.73312 0.15086
 C1063 C 1.19346 0.74687 0.17361
 C1064 C 1.21792 0.72740 0.18826
 C1065 C 1.22358 0.69391 0.17905
 C1066 C 1.20517 0.68028 0.15626
 C1067 C 1.15822 0.68366 0.12185
 C1068 C 1.13931 0.66822 0.10630
 C1069 C 1.11690 0.64660 0.09014
 C1070 C 1.10209 0.65670 0.06411
 C1071 C 1.08129 0.63411 0.04883
 C1072 C 1.07546 0.60124 0.05944
 C1073 C 1.08983 0.59199 0.08592
 C1074 C 1.11025 0.61436 0.10100
 H1075 H 1.15552 0.74822 0.14064
 H1076 H 1.18731 0.77225 0.18044
 H1077 H 1.24143 0.67769 0.19007
 H1078 H 1.20936 0.65414 0.15022
 H1079 H 1.10694 0.68171 0.05551
 H1080 H 1.07066 0.64193 0.02851
 H1081 H 1.08557 0.56710 0.09501
 H1082 H 1.12126 0.60624 0.12114
 C1083 C 0.67935 1.19401 0.64578
 C1084 C 0.67562 1.22780 0.65398
 C1085 C 0.69491 1.24084 0.67647
 C1086 C 0.71855 1.22038 0.69113
 C1087 C 0.72246 1.18654 0.68231
 C1088 C 0.70311 1.17354 0.65981
 C1089 C 0.65659 1.17916 0.62520
 C1090 C 0.63724 1.16467 0.60943
 C1091 C 0.61447 1.14400 0.59286
 C1092 C 0.60088 1.15461 0.56652
 C1093 C 0.58032 1.13253 0.55053
 C1094 C 0.57369 1.09965 0.56073
 C1095 C 0.58662 1.08998 0.58760
 C1096 C 0.60672 1.11186 0.60342
 H1097 H 0.65686 1.24374 0.64372
 H1098 H 0.68998 1.26656 0.68308
 H1099 H 0.73968 1.16969 0.69339
 H1100 H 0.70583 1.14712 0.65406
 H1101 H 0.60665 1.17954 0.55815
 H1102 H 0.57064 1.14067 0.52995
 H1103 H 0.58156 1.06507 0.59634
 H1104 H 0.61683 1.10336 0.62377
 C1105 C 0.82274 0.30603 0.14926
 C1106 C 0.82537 0.27171 0.15627
 C1107 C 0.80604 0.25815 0.17860
 C1108 C 0.78354 0.27866 0.19435
 C1109 C 0.78046 0.31301 0.18651
 C1110 C 0.79979 0.32649 0.16413
 C1111 C 0.84592 0.32108 0.12901
 C1112 C 0.86591 0.33517 0.11347
 C1113 C 0.88990 0.35458 0.09690
 C1114 C 0.90390 0.38347 0.10931
 C1115 C 0.92472 0.40473 0.09332
 C1116 C 0.93210 0.39750 0.06452
 C1117 C 0.91943 0.36752 0.05241
 C1118 C 0.89819 0.34620 0.06854
 H1119 H 0.84336 0.25569 0.14524
 H1120 H 0.81015 0.23195 0.18429
 H1121 H 0.76400 0.32986 0.19832
 H1122 H 0.79775 0.35323 0.15916
 H1123 H 0.89789 0.39019 0.13121
 H1124 H 0.93435 0.42749 0.10329
 H1125 H 0.92455 0.36151 0.03023
 H1126 H 0.88754 0.32383 0.05870
 C1127 C 0.32330 0.80308 0.64547
 C1128 C 0.32670 0.76916 0.65351
 C1129 C 0.30709 0.75594 0.67577
 C1130 C 0.28347 0.77636 0.69040
 C1131 C 0.27967 0.81029 0.68157
 C1132 C 0.29937 0.82347 0.65928
 C1133 C 0.34677 0.81790 0.62539
 C1134 C 0.36719 0.83159 0.61003
 C1135 C 0.39193 0.85028 0.59373
 C1136 C 0.40976 0.87608 0.60745
 C1137 C 0.43091 0.89738 0.59181
 C1138 C 0.43484 0.89312 0.56214
 C1139 C 0.41851 0.86596 0.54859
 C1140 C 0.39691 0.84469 0.56435
 H1141 H 0.34553 0.75326 0.64339
 H1142 H 0.31190 0.73014 0.68232
 H1143 H 0.26243 0.82711 0.69259
 H1144 H 0.29686 0.84996 0.65357
 H1145 H 0.40628 0.88060 0.63013
 H1146 H 0.44324 0.91814 0.60273
 H1147 H 0.42080 0.86253 0.52568
 H1148 H 0.38323 0.82477 0.55348
 C1149 C 0.30401 1.18359 -0.14799
 C1150 C 0.32360 1.20783 -0.16227
 C1151 C 0.31003 1.22636 -0.18511
 C1152 C 0.27638 1.22132 -0.19397
 C1153 C 0.25673 1.19730 -0.17901
 C1154 C 0.27040 1.17873 -0.15620
 C1155 C 0.31976 1.16135 -0.12730
 C1156 C 0.33505 1.14245 -0.11152
 C1157 C 0.35653 1.12023 -0.09492
 C1158 C 0.38951 1.11497 -0.10455
 C1159 C 0.41168 1.09465 -0.08898
 C1160 C 0.40143 1.07895 -0.06330
 C1161 C 0.36788 1.08346 -0.05400
 C1162 C 0.34555 1.10421 -0.06969
 H1163 H 0.34986 1.21148 -0.15650
 H1164 H 0.32639 1.24376 -0.19646
 H1165 H 0.23126 1.19147 -0.18566
 H1166 H 0.25513 1.15960 -0.14576
 H1167 H 0.39829 1.12693 -0.12408
 H1168 H 0.43711 1.09142 -0.09712
 H1169 H 0.35926 1.07166 -0.03437
 H1170 H 0.32001 1.10803 -0.06202
 C1171 C 0.80403 0.67811 0.35546
 C1172 C 0.77006 0.67524 0.34765
 C1173 C 0.75744 0.69374 0.32441
 C1174 C 0.77850 0.71575 0.30863
 C1175 C 0.81259 0.71861 0.31691
 C1176 C 0.82518 0.70003 0.34013
 C1177 C 0.81781 0.65750 0.37823
 C1178 C 0.83095 0.64051 0.39670
 C1179 C 0.84933 0.62120 0.41789
 C1180 C 0.84192 0.58699 0.42327
 C1181 C 0.86355 0.56739 0.44055
 C1182 C 0.89292 0.58186 0.45213
 C1183 C 0.89893 0.61661 0.44795
 C1184 C 0.87731 0.63608 0.43103
 H1185 H 0.75349 0.65810 0.35909
 H1186 H 0.73141 0.68976 0.31837
 H1187 H 0.82980 0.73471 0.30510
 H1188 H 0.85164 0.70226 0.34576
 H1189 H 0.82039 0.57512 0.41313
 H1190 H 0.85859 0.54061 0.44324
 H1191 H 0.92135 0.62839 0.45673
 H1192 H 0.88338 0.66242 0.42707
 C1193 C 0.69463 1.17321 0.15293
 C1194 C 0.72931 1.17231 0.15865
 C1195 C 0.74296 1.19241 0.18042
 C1196 C 0.72217 1.21395 0.19683
 C1197 C 0.68735 1.21495 0.19051
 C1198 C 0.67380 1.19493 0.16870
 C1199 C 0.67971 1.14998 0.13272
 C1200 C 0.66543 1.13027 0.11710
 C1201 C 0.64557 1.10696 0.10030
 C1202 C 0.61526 1.09504 0.11185
 C1203 C 0.59363 1.07521 0.09544
 C1204 C 0.60187 1.06672 0.06706
 C1205 C 0.63316 1.07722 0.05586
 C1206 C 0.65487 1.09748 0.07241
 H1207 H 0.74567 1.15527 0.14690
 H1208 H 0.76960 1.18991 0.18501
 H1209 H 0.67029 1.23057 0.20289
 H1210 H 0.64683 1.19564 0.16475
 H1211 H 0.60778 1.10199 0.13337
 H1212 H 0.56981 1.06729 0.10472
 H1213 H 0.63999 1.07123 0.03401
 H1214 H 0.67832 1.10653 0.06322
 C1215 C 1.19702 0.67082 0.64877
 C1216 C 1.23163 0.67075 0.65479
 C1217 C 1.24443 0.69072 0.67700
 C1218 C 1.22286 0.71132 0.69355
 C1219 C 1.18806 0.71121 0.68714
 C1220 C 1.17534 0.69133 0.66488
 C1221 C 1.18314 0.64793 0.62778
 C1222 C 1.16988 0.62829 0.61149
 C1223 C 1.15145 0.60454 0.59399
 C1224 C 1.15535 0.60342 0.56411
 C1225 C 1.13382 0.58311 0.54747
 C1226 C 1.10809 0.56421 0.56070
 C1227 C 1.10554 0.56431 0.59068
 C1228 C 1.12709 0.58418 0.60716
 H1229 H 1.24863 0.65455 0.64286
 H1230 H 1.27109 0.68894 0.68170
 H1231 H 1.17042 0.72603 0.69966
 H1232 H 1.14840 0.69128 0.66074
 H1233 H 1.17403 0.61920 0.55364
 H1234 H 1.13583 0.58384 0.52436
 H1235 H 1.08579 0.55004 0.60131
 H1236 H 1.12374 0.58480 0.63018
 C1237 C 0.69400 0.82399 -0.14440
 C1238 C 0.72811 0.82673 -0.15174
 C1239 C 0.74134 0.80749 -0.17417
 C1240 C 0.72075 0.78488 -0.18964
 C1241 C 0.68660 0.78170 -0.18153
 C1242 C 0.67340 0.80102 -0.15905
 C1243 C 0.67932 0.84731 -0.12420
 C1244 C 0.66589 0.86776 -0.10874
 C1245 C 0.64764 0.89267 -0.09232
 C1246 C 0.65278 0.89660 -0.06278
 C1247 C 0.63183 0.91839 -0.04694
 C1248 C 0.60545 0.93593 -0.06062
 C1249 C 0.60176 0.93312 -0.09044
 C1250 C 0.62273 0.91176 -0.10614
 H1251 H 0.74419 0.84478 -0.14089
 H1252 H 0.76736 0.81174 -0.18010
 H1253 H 0.66971 0.76513 -0.19313
 H1254 H 0.64681 0.79896 -0.15382
 H1255 H 0.67204 0.88195 -0.05187
 H1256 H 0.63486 0.91991 -0.02394
 H1257 H 0.58163 0.94647 -0.10146
 H1258 H 0.61858 0.90911 -0.12895
 C1259 C 1.19161 0.32252 0.35182
 C1260 C 1.22574 0.32547 0.34461
 C1261 C 1.23969 0.30484 0.32338
 C1262 C 1.21978 0.28062 0.30900
 C1263 C 1.18565 0.27722 0.31710
 C1264 C 1.17175 0.29793 0.33836
 C1265 C 1.17607 0.34687 0.37068
 C1266 C 1.16162 0.36769 0.38512
 C1267 C 1.14186 0.39235 0.40056
 C1268 C 1.15204 0.40494 0.42728
 C1269 C 1.13068 0.42680 0.44268
 C1270 C 1.09892 0.43589 0.43150
 C1271 C 1.08981 0.42426 0.40412
 C1272 C 1.11107 0.40274 0.38885
 H1273 H 1.24126 0.34473 0.35452
 H1274 H 1.26563 0.30934 0.31731
 H1275 H 1.16919 0.25959 0.30619
 H1276 H 1.14514 0.29567 0.34348
 H1277 H 1.17594 0.39717 0.43651
 H1278 H 1.13826 0.43524 0.46375
 H1279 H 1.06566 0.43101 0.39478
 H1280 H 1.10299 0.39341 0.36816
 C1281 C 0.30362 0.83184 0.14575
 C1282 C 0.26887 0.83121 0.15121
 C1283 C 0.25608 0.81205 0.17403
 C1284 C 0.27783 0.79293 0.19170
 C1285 C 0.31278 0.79374 0.18587
 C1286 C 0.32547 0.81284 0.16304
 C1287 C 0.31724 0.85275 0.12310
 C1288 C 0.33007 0.87002 0.10468
 C1289 C 0.34776 0.88981 0.08339
 C1290 C 0.34288 0.92495 0.08114
 C1291 C 0.36420 0.94451 0.06364
 C1292 C 0.39080 0.92902 0.04866
 C1293 C 0.39425 0.89362 0.04981
 C1294 C 0.37283 0.87418 0.06695
 H1295 H 0.25169 0.84595 0.13810
 H1296 H 0.22924 0.81296 0.17810
 H1297 H 0.33048 0.77977 0.19905
 H1298 H 0.35246 0.81312 0.15912
 H1299 H 0.32374 0.93741 0.09394
 H1300 H 0.36148 0.97179 0.06345
 H1301 H 0.41470 0.88117 0.03854
 H1302 H 0.37700 0.84711 0.06852
 C1303 C 0.80338 0.32583 0.64730
 C1304 C 0.76898 0.32625 0.65409
 C1305 C 0.75674 0.30628 0.67662
 C1306 C 0.77871 0.28541 0.69267
 C1307 C 0.81326 0.28521 0.68545
 C1308 C 0.82537 0.30500 0.66286
 C1309 C 0.81716 0.34857 0.62613
 C1310 C 0.83169 0.36736 0.60988
 C1311 C 0.85336 0.38872 0.59288
 C1312 C 0.84179 0.40737 0.56916
 C1313 C 0.86457 0.42725 0.55316
 C1314 C 0.89897 0.42829 0.56079
 C1315 C 0.90980 0.40983 0.58496
 C1316 C 0.88731 0.39031 0.60069
 H1317 H 0.75181 0.34272 0.64254
 H1318 H 0.73028 0.30831 0.68200
 H1319 H 0.83121 0.27026 0.69758
 H1320 H 0.85217 0.30478 0.65807
 H1321 H 0.81545 0.40634 0.56295
 H1322 H 0.85549 0.44121 0.53472
 H1323 H 0.93592 0.41031 0.59188
 H1324 H 0.89658 0.37618 0.61901
 C1325 C 1.16884 1.15452 0.67905
 C1326 C 1.18828 1.17870 0.66464
 C1327 C 1.20679 1.20252 0.68005
 C1328 C 1.20602 1.20252 0.71014
 C1329 C 1.18588 1.17821 0.72431
 C1330 C 1.16750 1.15440 0.70885
 C1331 C 1.15063 1.12973 0.66300
 C1332 C 1.13605 1.10983 0.64809
 C1333 C 1.11979 1.08813 0.62789
 C1334 C 1.12552 1.09420 0.59889
 C1335 C 1.10898 1.07502 0.57839
 C1336 C 1.08616 1.04946 0.58658
 C1337 C 1.08083 1.04301 0.61586
 C1338 C 1.09775 1.06230 0.63652
 H1339 H 1.18935 1.17896 0.64146
 H1340 H 1.22204 1.22051 0.66831
 H1341 H 1.18436 1.17712 0.74741
 H1342 H 1.15245 1.13577 0.72016
 H1343 H 1.14229 1.11435 0.59206
 H1344 H 1.11323 1.08116 0.55607
 H1345 H 1.06337 1.02351 0.62270
 H1346 H 1.09324 1.05749 0.65904
 C1347 C 0.66687 0.65517 0.18234
 C1348 C 0.68754 0.67820 0.16783
 C1349 C 0.70774 0.70057 0.18318
 C1350 C 0.70736 0.70021 0.21325
 C1351 C 0.68636 0.67669 0.22750
 C1352 C 0.66628 0.65437 0.21211
 C1353 C 0.64608 0.63267 0.16641
 C1354 C 0.62921 0.61493 0.15143
 C1355 C 0.61051 0.59604 0.13096
 C1356 C 0.61198 0.60669 0.10255
 C1357 C 0.59501 0.58874 0.08161
 C1358 C 0.57616 0.55982 0.08883
 C1359 C 0.57429 0.54937 0.11757
 C1360 C 0.59165 0.56747 0.13867
 H1361 H 0.68798 0.67888 0.14464
 H1362 H 0.72355 0.71807 0.17144
 H1363 H 0.68518 0.67525 0.25059
 H1364 H 0.65026 0.63656 0.22342
 H1365 H 0.62641 0.62891 0.09651
 H1366 H 0.59645 0.59779 0.05974
 H1367 H 0.55988 0.52717 0.12359
 H1368 H 0.59053 0.55919 0.16077
 C1369 C 1.14907 0.82705 0.31925
 C1370 C 1.17475 0.80843 0.33251
 C1371 C 1.19969 0.79289 0.31602
 C1372 C 1.19920 0.79556 0.28595
 C1373 C 1.17373 0.81534 0.27299
 C1374 C 1.14886 0.83090 0.28955
 C1375 C 1.12296 0.84221 0.33618
 C1376 C 1.10170 0.85517 0.35092
 C1377 C 1.07797 0.87137 0.36958
 C1378 C 1.06845 0.85542 0.39510
 C1379 C 1.05097 0.87359 0.41599
 C1380 C 1.04292 0.90788 0.41145
 C1381 C 1.05014 0.92284 0.38478
 C1382 C 1.06782 0.90468 0.36401
 H1383 H 1.17523 0.80548 0.35557
 H1384 H 1.21867 0.77796 0.32691
 H1385 H 1.17244 0.81839 0.25000
 H1386 H 1.12920 0.84558 0.27915
 H1387 H 1.07602 0.82951 0.39947
 H1388 H 1.04508 0.86124 0.43612
 H1389 H 1.04408 0.94917 0.38064
 H1390 H 1.07508 0.91719 0.34426
 C1391 C 0.65750 0.32912 -0.18064
 C1392 C 0.68111 0.30847 -0.16678
 C1393 C 0.70390 0.28935 -0.18273
 C1394 C 0.70330 0.29064 -0.21280
 C1395 C 0.67939 0.31180 -0.22642
 C1396 C 0.65668 0.33089 -0.21041
 C1397 C 0.63438 0.34861 -0.16404
 C1398 C 0.61608 0.36437 -0.14859
 C1399 C 0.59644 0.38198 -0.12781
 C1400 C 0.60408 0.37662 -0.09904
 C1401 C 0.58653 0.39405 -0.07803
 C1402 C 0.56103 0.41726 -0.08554
 C1403 C 0.55323 0.42244 -0.11461
 C1404 C 0.57092 0.40472 -0.13574
 H1405 H 0.68187 0.30712 -0.14362
 H1406 H 0.72178 0.27350 -0.17141
 H1407 H 0.67791 0.31376 -0.24947
 H1408 H 0.63850 0.34697 -0.22123
 H1409 H 0.62398 0.35920 -0.09281
 H1410 H 0.59348 0.38972 -0.05590
 H1411 H 0.53371 0.44018 -0.12095
 H1412 H 0.56496 0.40894 -0.15810
 C1413 C 0.84949 1.16747 0.31896
 C1414 C 0.82617 1.18731 0.33395
 C1415 C 0.80237 1.20658 0.31909
 C1416 C 0.80160 1.20615 0.28901
 C1417 C 0.82518 1.18572 0.27429
 C1418 C 0.84891 1.16656 0.28919
 C1419 C 0.87373 1.14786 0.33440
 C1420 C 0.89280 1.13191 0.34912
 C1421 C 0.91279 1.11410 0.36963
 C1422 C 0.90314 1.11661 0.39822
 C1423 C 0.92111 1.09944 0.41914
 C1424 C 0.94905 1.07925 0.41179
 C1425 C 0.95868 1.07653 0.38291
 C1426 C 0.94062 1.09418 0.36179
 H1427 H 0.82648 1.18798 0.35713
 H1428 H 0.78487 1.22196 0.33120
 H1429 H 0.82576 1.18451 0.25118
 H1430 H 0.86684 1.15113 0.27749
 H1431 H 0.88136 1.13163 0.40435
 H1432 H 0.91246 1.10134 0.44107
 H1433 H 0.97999 1.06092 0.37677
 H1434 H 0.94812 1.09215 0.33956
 C1435 C 0.34756 0.66590 -0.18320
 C1436 C 0.32489 0.68685 -0.16861
 C1437 C 0.30205 0.70684 -0.18386
 C1438 C 0.30156 0.70598 -0.21392
 C1439 C 0.32477 0.68475 -0.22827
 C1440 C 0.34756 0.66488 -0.21298
 C1441 C 0.36991 0.64462 -0.16733
 C1442 C 0.38718 0.62702 -0.15237
 C1443 C 0.40507 0.60709 -0.13189
 C1444 C 0.39125 0.60445 -0.10455
 C1445 C 0.40844 0.58694 -0.08334
 C1446 C 0.43970 0.57160 -0.08925
 C1447 C 0.45319 0.57341 -0.11703
 C1448 C 0.43591 0.59141 -0.13837
 H1449 H 0.32473 0.68754 -0.14543
 H1450 H 0.28481 0.72280 -0.17202
 H1451 H 0.32550 0.68314 -0.25136
 H1452 H 0.36499 0.64858 -0.22437
 H1453 H 0.36727 0.61634 -0.09948
 H1454 H 0.39719 0.58543 -0.06224
 H1455 H 0.47727 0.56173 -0.12196
 H1456 H 0.44670 0.59344 -0.15961
 C1457 C 0.82983 0.85029 0.68448
 C1458 C 0.81019 0.82647 0.66993
 C1459 C 0.79157 0.80251 0.68521
 C1460 C 0.79240 0.80210 0.71529
 C1461 C 0.81269 0.82612 0.72958
 C1462 C 0.83122 0.85000 0.71426
 C1463 C 0.84874 0.87474 0.66855
 C1464 C 0.86406 0.89395 0.65346
 C1465 C 0.88115 0.91410 0.63256
 C1466 C 0.87598 0.90595 0.60390
 C1467 C 0.89346 0.92307 0.58266
 C1468 C 0.91666 0.94868 0.58971
 C1469 C 0.92150 0.95728 0.61863
 C1470 C 0.90363 0.94001 0.64008
 H1471 H 0.80919 0.82646 0.64676
 H1472 H 0.77637 0.78461 0.67341
 H1473 H 0.81428 0.82690 0.75268
 H1474 H 0.84654 0.86826 0.72564
 H1475 H 0.85891 0.88570 0.59795
 H1476 H 0.88952 0.91533 0.56069
 H1477 H 0.93918 0.97695 0.62457
 H1478 H 0.90769 0.94643 0.66234
 C1479 C 0.33216 0.34186 0.18342
 C1480 C 0.33306 0.34214 0.21320
 C1481 C 0.31331 0.31937 0.22861
 C1482 C 0.29239 0.29586 0.21437
 C1483 C 0.29193 0.29582 0.18429
 C1484 C 0.31170 0.31871 0.16894
 C1485 C 0.35263 0.36482 0.16741
 C1486 C 0.36936 0.38278 0.15235
 C1487 C 0.38818 0.40164 0.13174
 C1488 C 0.40500 0.43167 0.13881
 C1489 C 0.42259 0.44952 0.11758
 C1490 C 0.42291 0.43742 0.08930
 C1491 C 0.40616 0.40706 0.08275
 C1492 C 0.38900 0.38934 0.10383
 H1493 H 0.34902 0.35992 0.22452
 H1494 H 0.31464 0.32049 0.25170
 H1495 H 0.27624 0.27830 0.17253
 H1496 H 0.31106 0.31834 0.14575
 H1497 H 0.40439 0.44125 0.16050
 H1498 H 0.43543 0.47281 0.12308
 H1499 H 0.40654 0.39673 0.06130
 H1500 H 0.37623 0.36599 0.09830
   
