data_POSCAR
  _audit_creation_date              2014-09-24
  _audit_creation_method            'ToBaCCo'
  _symmetry_space_group_name_H-M    'P1'
  _symmetry_Int_Tables_number       1
  _symmetry_cell_setting            triclinic
  loop_
  _symmetry_equiv_pos_as_xyz
 x,y,z
_cell_length_a 38.9339
_cell_length_b 38.9339
_cell_length_c 38.9339
_cell_angle_alpha 90.042100
_cell_angle_beta 89.957900
_cell_angle_gamma 89.957900
loop_
  _atom_site_label
  _atom_site_type_symbol
  _atom_site_fract_x
  _atom_site_fract_y
  _atom_site_fract_z
N1 N 0.36392 1.36434 0.36434
 N2 N 0.36383 0.86404 0.86404
 N3 N 0.86398 1.36449 0.86444
 N4 N 0.86397 0.86443 0.36449
 N5 N 0.63556 0.63602 0.36449
 N6 N 0.63596 0.13617 0.86404
 N7 N 1.13552 0.63603 0.86443
 N8 N 1.13566 0.13608 0.36434
 N9 N 0.63556 1.36449 0.63602
 N10 N 0.63596 0.86404 1.13617
 N11 N 1.13566 1.36434 1.13608
 N12 N 1.13552 0.86443 0.63603
 N13 N 0.36345 0.63574 0.63574
 N14 N 0.36413 0.13586 1.13587
 N15 N 0.86426 0.63574 1.13655
 N16 N 0.86426 0.13655 0.63574
 N17 N 1.36389 0.36425 0.63601
 N18 N 1.36406 0.86413 1.13594
 N19 N 0.86398 0.36425 1.13612
 N20 N 0.86416 0.86448 0.63584
 N21 N 0.63552 0.63584 0.63584
 N22 N 0.63587 1.13594 1.13594
 N23 N 0.13574 0.63601 1.13611
 N24 N 0.13575 1.13612 0.63601
 N25 N 1.36389 0.63601 0.36426
 N26 N 1.36406 1.13594 0.86413
 N27 N 0.86416 0.63584 0.86448
 N28 N 0.86398 1.13612 0.36425
 N29 N 0.63527 0.36458 0.36458
 N30 N 0.67336 0.82664 0.82664
 N31 N 0.13542 0.36458 0.86473
 N32 N 0.13541 0.86473 0.36459
 O33 O 0.96637 0.87620 0.82910
 O34 O 0.96642 0.83629 0.78889
 C35 C 0.95481 0.86430 0.80100
 C36 C 0.92730 0.88308 0.78263
 C37 C 0.91712 0.87325 0.74940
 H38 H 0.92990 0.85212 0.73650
 O39 O 1.03364 1.12449 0.82920
 O40 O 1.03381 1.16447 0.78912
 C41 C 1.04537 1.13645 0.80121
 C42 C 1.07308 1.11780 0.78297
 C43 C 1.08317 1.12749 0.74970
 H44 H 1.07017 1.14838 0.73667
 O45 O 0.83076 0.96723 0.87635
 O46 O 0.79084 0.96673 0.83620
 C47 C 0.80318 0.95497 0.86403
 C48 C 0.78603 0.92581 0.88137
 C49 C 0.75734 0.91013 0.86617
 H50 H 0.74675 0.92017 0.84246
 O51 O 1.17095 1.03372 0.87617
 O52 O 1.21116 1.03361 0.83625
 C53 C 1.19901 1.04531 0.86421
 C54 C 1.21725 1.07304 0.88278
 C55 C 1.25051 1.08311 0.87300
 H56 H 1.26355 1.07006 0.85213
 O57 O 0.87689 0.82854 0.96765
 O58 O 0.83708 0.78828 0.96769
 C59 C 0.86499 0.80045 0.95602
 C60 C 0.88347 0.78230 0.92814
 C61 C 0.87365 0.74908 0.91795
 H62 H 0.85296 0.73595 0.93115
 O63 O 1.12402 1.17130 0.96677
 O64 O 1.16391 1.21146 0.96680
 C65 C 1.13595 1.19936 0.95517
 C66 C 1.11733 1.21764 0.92752
 C67 C 1.12699 1.25096 0.91755
 H68 H 1.14782 1.26401 0.93061
 O69 O 0.87671 1.03465 0.82889
 O70 O 0.83661 1.03458 0.78891
 C71 C 0.86457 1.04629 0.80093
 C72 C 0.88298 1.07405 0.78265
 C73 C 0.87316 1.08409 0.74941
 H74 H 0.85231 1.07101 0.73642
 O75 O 1.12379 0.96678 0.82918
 O76 O 1.16370 0.96666 0.78897
 C77 C 1.13573 0.95508 0.80114
 C78 C 1.11712 0.92736 0.78294
 C79 C 1.12682 0.91728 0.74964
 H80 H 1.14765 0.93032 0.73656
 O81 O 1.03333 0.82923 0.87624
 O82 O 1.03342 0.78902 0.83634
 C83 C 1.04502 0.80119 0.86430
 C84 C 1.07273 0.78297 0.88291
 C85 C 1.08280 0.74967 0.87319
 H86 H 1.06976 0.73661 0.85234
 O87 O 0.96657 1.17151 0.87624
 O88 O 0.96668 1.21181 0.83648
 C89 C 0.95494 1.19958 0.86436
 C90 C 0.92713 1.21775 0.88295
 C91 C 0.91698 1.25100 0.87324
 H92 H 0.93004 1.26408 0.85242
 O93 O 0.82892 1.12430 0.96660
 O94 O 0.78868 1.16419 0.96670
 C95 C 0.80086 1.13625 0.95500
 C96 C 0.78267 1.11766 0.92724
 C97 C 0.74941 1.12738 0.91710
 H98 H 0.73631 1.14823 0.93014
 O99 O 1.17084 0.87619 0.96672
 O100 O 1.21104 0.83628 0.96659
 C101 C 1.19887 0.86424 0.95499
 C102 C 1.21707 0.88281 0.92724
 C103 C 1.25032 0.87302 0.91708
 H104 H 1.26336 0.85215 0.93008
 O105 O 0.96669 1.12489 0.82879
 O106 O 0.96681 1.16488 0.78872
 C107 C 0.95511 1.13693 0.80077
 C108 C 0.92737 1.11844 0.78253
 C109 C 0.91722 1.12816 0.74928
 H110 H 0.93025 1.14899 0.73620
 O111 O 1.03333 0.87624 0.82924
 O112 O 1.03342 0.83633 0.78902
 C113 C 1.04502 0.86429 0.80119
 C114 C 1.07273 0.88290 0.78297
 C115 C 1.08280 0.87319 0.74967
 H116 H 1.06976 0.85234 0.73662
 O117 O 1.17084 0.96671 0.87619
 O118 O 1.21104 0.96659 0.83628
 C119 C 1.19887 0.95499 0.86424
 C120 C 1.21707 0.92724 0.88281
 C121 C 1.25032 0.91708 0.87302
 H122 H 1.26337 0.93008 0.85215
 O123 O 0.82946 1.03428 0.87587
 O124 O 0.78909 1.03388 0.83619
 C125 C 0.80123 1.04565 0.86408
 C126 C 0.78284 1.07325 0.88275
 C127 C 0.74958 1.08332 0.87297
 H128 H 0.73661 1.07030 0.85206
 O129 O 0.87597 1.17132 0.96661
 O130 O 0.83604 1.21150 0.96672
 C131 C 0.86401 1.19937 0.95503
 C132 C 0.88260 1.21764 0.92732
 C133 C 0.87281 1.25091 0.91725
 H134 H 0.85190 1.26392 0.93028
 O135 O 1.12379 0.82918 0.96678
 O136 O 1.16370 0.78897 0.96666
 C137 C 1.13573 0.80114 0.95508
 C138 C 1.11712 0.78293 0.92736
 C139 C 1.12682 0.74964 0.91728
 H140 H 1.14765 0.73656 0.93033
 O141 O 1.12394 1.03380 0.82912
 O142 O 1.16385 1.03368 0.78891
 C143 C 1.13592 1.04541 0.80108
 C144 C 1.11739 1.07321 0.78288
 C145 C 1.12712 1.08326 0.74960
 H146 H 1.14793 1.07015 0.73651
 O147 O 0.87689 0.96765 0.82854
 O148 O 0.83708 0.96769 0.78828
 C149 C 0.86499 0.95602 0.80045
 C150 C 0.88347 0.92813 0.78230
 C151 C 0.87365 0.91795 0.74909
 H152 H 0.85296 0.93115 0.73596
 O153 O 1.03355 1.17152 0.87627
 O154 O 1.03369 1.21181 0.83650
 C155 C 1.04524 1.19957 0.86444
 C156 C 1.07291 1.21773 0.88312
 C157 C 1.08292 1.25103 0.87352
 H158 H 1.06985 1.26413 0.85272
 O159 O 0.96637 0.82910 0.87620
 O160 O 0.96642 0.78889 0.83629
 C161 C 0.95481 0.80100 0.86430
 C162 C 0.92730 0.78263 0.88308
 C163 C 0.91712 0.74940 0.87325
 H164 H 0.92990 0.73649 0.85212
 O165 O 1.17102 1.12417 0.96666
 O166 O 1.21122 1.16403 0.96667
 C167 C 1.19906 1.13609 0.95500
 C168 C 1.21727 1.11749 0.92723
 C169 C 1.25053 1.12721 0.91709
 H170 H 1.26358 1.14806 0.93012
 O171 O 0.83076 0.87634 0.96723
 O172 O 0.79084 0.83620 0.96673
 C173 C 0.80318 0.86403 0.95497
 C174 C 0.78603 0.88137 0.92582
 C175 C 0.75734 0.86617 0.91014
 H176 H 0.74675 0.84246 0.92017
 Cu177 Cu 0.99980 0.85673 0.85673
 Cu178 Cu 0.99991 0.80877 0.80877
 Cu179 Cu 1.00009 1.14404 0.85665
 Cu180 Cu 1.00028 1.19213 0.80886
 Cu181 Cu 0.85750 1.00107 0.85644
 Cu182 Cu 0.80943 1.00076 0.80857
 Cu183 Cu 1.14334 1.00027 0.85671
 Cu184 Cu 1.19130 1.00012 0.80874
 C185 C 0.91049 0.91072 0.79870
 H186 H 0.91793 0.91821 0.82444
 C187 C 0.89053 0.89074 0.73262
 C188 C 1.09017 1.09046 0.79920
 H189 H 1.08275 1.08308 0.82498
 C190 C 1.10995 1.11017 0.73300
 C191 C 0.80003 0.91144 0.91144
 H192 H 0.82262 0.92291 0.92291
 C193 C 0.74328 0.88034 0.88034
 C194 C 1.20100 1.09021 0.91009
 H195 H 1.17523 1.08281 0.91754
 C196 C 1.26715 1.10996 0.89022
 C197 C 0.91049 0.79869 0.91072
 H198 H 0.91794 0.82444 0.91821
 C199 C 0.89053 0.73262 0.89074
 C200 C 1.09009 1.20139 0.91033
 H201 H 1.08272 1.17558 0.91763
 C202 C 1.10971 1.26765 0.89078
 C203 C 0.91025 1.09120 0.79884
 H204 H 0.91771 1.08380 0.82459
 C205 C 0.89035 1.11091 0.73271
 C206 C 1.08987 0.91019 0.79924
 H207 H 1.08248 0.91759 0.82504
 C208 C 1.10960 0.89044 0.73300
 C209 C 1.08987 0.79924 0.91019
 H210 H 1.08248 0.82503 0.91759
 C211 C 1.10960 0.73300 0.89044
 C212 C 0.90995 1.20143 0.91018
 H213 H 0.91742 1.17567 0.91757
 C214 C 0.89006 1.26759 0.89045
 C215 C 0.79901 1.09040 0.91008
 H216 H 0.82478 1.08302 0.91751
 C217 C 0.73285 1.11015 0.89020
 C218 C 1.20080 0.91012 0.91012
 H219 H 1.17505 0.91758 0.91758
 C220 C 1.26695 0.89021 0.89021
 O221 O 1.03355 0.87627 1.17152
 O222 O 1.03370 0.83650 1.21181
 C223 C 1.04524 0.86444 1.19957
 C224 C 1.07291 0.88312 1.21773
 C225 C 1.08292 0.87352 1.25103
 H226 H 1.06985 0.85272 1.26413
 O227 O 0.96647 1.12414 1.17117
 O228 O 0.96638 1.16405 1.21138
 C229 C 0.95478 1.13608 1.19921
 C230 C 0.92706 1.11749 1.21743
 C231 C 0.91695 1.12725 1.25070
 H232 H 0.92998 1.14811 1.26375
 O233 O 0.82904 1.03360 1.12415
 O234 O 0.78881 1.03372 1.16404
 C235 C 0.80099 1.04531 1.13608
 C236 C 0.78279 1.07303 1.11746
 C237 C 0.74950 1.08313 1.12718
 H238 H 0.73643 1.07010 1.14803
 O239 O 1.17102 0.96666 1.12417
 O240 O 1.21122 0.96666 1.16403
 C241 C 1.19906 0.95500 1.13609
 C242 C 1.21727 0.92723 1.11749
 C243 C 1.25053 0.91709 1.12721
 H244 H 1.26358 0.93012 1.14806
 O245 O 1.12394 0.82912 1.03380
 O246 O 1.16385 0.78891 1.03368
 C247 C 1.13592 0.80108 1.04541
 C248 C 1.11739 0.78288 1.07321
 C249 C 1.12712 0.74960 1.08326
 H250 H 1.14793 0.73650 1.07015
 O251 O 0.87601 1.17122 1.03361
 O252 O 0.83609 1.21142 1.03374
 C253 C 0.86405 1.19925 1.04533
 C254 C 0.88265 1.21745 1.07307
 C255 C 0.87290 1.25072 1.08319
 H256 H 0.85205 1.26379 1.07017
 O257 O 0.87597 0.96661 1.17132
 O258 O 0.83604 0.96672 1.21150
 C259 C 0.86401 0.95503 1.19937
 C260 C 0.88260 0.92732 1.21764
 C261 C 0.87281 0.91725 1.25091
 H262 H 0.85190 0.93027 1.26392
 O263 O 1.12399 1.03375 1.17120
 O264 O 1.16389 1.03380 1.21136
 C265 C 1.13593 1.04543 1.19923
 C266 C 1.11732 1.07318 1.21746
 C267 C 1.12702 1.08328 1.25073
 H268 H 1.14787 1.07025 1.26377
 O269 O 0.96669 0.82879 1.12489
 O270 O 0.96681 0.78872 1.16488
 C271 C 0.95511 0.80077 1.13694
 C272 C 0.92737 0.78253 1.11844
 C273 C 0.91722 0.74928 1.12816
 H274 H 0.93025 0.73620 1.14899
 O275 O 1.03347 1.17122 1.12420
 O276 O 1.03339 1.21143 1.16411
 C277 C 1.04508 1.19927 1.13616
 C278 C 1.07283 1.21749 1.11759
 C279 C 1.08289 1.25076 1.12733
 H280 H 1.06981 1.26383 1.14818
 O281 O 0.82946 0.87587 1.03429
 O282 O 0.78909 0.83619 1.03388
 C283 C 0.80123 0.86408 1.04565
 C284 C 0.78284 0.88275 1.07325
 C285 C 0.74958 0.87297 1.08332
 H286 H 0.73661 0.85206 1.07030
 O287 O 1.17104 1.12413 1.03366
 O288 O 1.21125 1.16399 1.03369
 C289 C 1.19909 1.13604 1.04531
 C290 C 1.21731 1.11742 1.07301
 C291 C 1.25058 1.12713 1.08308
 H292 H 1.26363 1.14797 1.07004
 O293 O 1.03347 1.12419 1.17122
 O294 O 1.03339 1.16411 1.21143
 C295 C 1.04508 1.13616 1.19927
 C296 C 1.07283 1.11759 1.21749
 C297 C 1.08289 1.12733 1.25076
 H298 H 1.06981 1.14818 1.26383
 O299 O 0.96657 0.87624 1.17151
 O300 O 0.96668 0.83648 1.21181
 C301 C 0.95495 0.86436 1.19958
 C302 C 0.92713 0.88294 1.21775
 C303 C 0.91698 0.87324 1.25100
 H304 H 0.93004 0.85242 1.26408
 O305 O 1.17104 1.03366 1.12413
 O306 O 1.21125 1.03369 1.16399
 C307 C 1.19909 1.04531 1.13604
 C308 C 1.21731 1.07300 1.11743
 C309 C 1.25058 1.08308 1.12713
 H310 H 1.26363 1.07004 1.14798
 O311 O 0.82892 0.96660 1.12430
 O312 O 0.78868 0.96670 1.16419
 C313 C 0.80086 0.95500 1.13625
 C314 C 0.78267 0.92724 1.11766
 C315 C 0.74941 0.91710 1.12739
 H316 H 0.73631 0.93014 1.14824
 O317 O 1.12399 1.17120 1.03375
 O318 O 1.16389 1.21136 1.03380
 C319 C 1.13593 1.19923 1.04544
 C320 C 1.11731 1.21746 1.07318
 C321 C 1.12701 1.25073 1.08328
 H322 H 1.14787 1.26377 1.07025
 O323 O 0.87671 0.82889 1.03466
 O324 O 0.83661 0.78891 1.03459
 C325 C 0.86457 0.80093 1.04629
 C326 C 0.88298 0.78265 1.07405
 C327 C 0.87316 0.74941 1.08409
 H328 H 0.85231 0.73642 1.07101
 O329 O 1.12402 0.96677 1.17130
 O330 O 1.16391 0.96680 1.21147
 C331 C 1.13595 0.95517 1.19936
 C332 C 1.11733 0.92752 1.21765
 C333 C 1.12699 0.91755 1.25097
 H334 H 1.14782 0.93061 1.26401
 O335 O 0.87601 1.03361 1.17123
 O336 O 0.83609 1.03374 1.21142
 C337 C 0.86405 1.04533 1.19925
 C338 C 0.88265 1.07307 1.21745
 C339 C 0.87290 1.08319 1.25072
 H340 H 0.85205 1.07016 1.26379
 O341 O 0.96647 1.17117 1.12414
 O342 O 0.96638 1.21137 1.16405
 C343 C 0.95478 1.19921 1.13609
 C344 C 0.92706 1.21743 1.11749
 C345 C 0.91695 1.25070 1.12725
 H346 H 0.92998 1.26375 1.14811
 O347 O 1.03364 0.82920 1.12449
 O348 O 1.03381 0.78911 1.16447
 C349 C 1.04537 0.80121 1.13646
 C350 C 1.07308 0.78297 1.11780
 C351 C 1.08317 0.74969 1.12749
 H352 H 1.07016 0.73667 1.14838
 O353 O 1.17095 0.87617 1.03372
 O354 O 1.21116 0.83625 1.03361
 C355 C 1.19901 0.86420 1.04531
 C356 C 1.21725 0.88278 1.07304
 C357 C 1.25051 0.87300 1.08311
 H358 H 1.26355 0.85213 1.07006
 O359 O 0.82904 1.12415 1.03361
 O360 O 0.78881 1.16403 1.03372
 C361 C 0.80099 1.13607 1.04531
 C362 C 0.78279 1.11746 1.07304
 C363 C 0.74950 1.12718 1.08313
 H364 H 0.73643 1.14803 1.07010
 Cu365 Cu 1.00009 0.85665 1.14404
 Cu366 Cu 1.00028 0.80886 1.19213
 Cu367 Cu 0.99998 1.14364 1.14364
 Cu368 Cu 0.99987 1.19161 1.19161
 Cu369 Cu 0.85750 0.85644 1.00107
 Cu370 Cu 0.80943 0.80857 1.00076
 Cu371 Cu 1.14334 0.85670 1.00027
 Cu372 Cu 1.19130 0.80873 1.00012
 Cu373 Cu 0.85653 1.14371 1.00009
 Cu374 Cu 0.80854 1.19165 1.00024
 Cu375 Cu 1.14348 1.14366 1.00021
 Cu376 Cu 1.19143 1.19156 1.00024
 Cu377 Cu 0.85653 1.00009 1.14371
 Cu378 Cu 0.80854 1.00024 1.19165
 Cu379 Cu 1.14348 1.00020 1.14366
 Cu380 Cu 1.19143 1.00024 1.19157
 C381 C 1.09009 0.91032 1.20139
 H382 H 1.08272 0.91763 1.17558
 C383 C 1.10971 0.89078 1.26766
 C384 C 0.90992 1.09020 1.20117
 H385 H 0.91735 1.08277 1.17539
 C386 C 0.89012 1.11004 1.26735
 C387 C 0.79907 1.09018 1.09018
 H388 H 0.82486 1.08277 1.08278
 C389 C 0.73285 1.10996 1.10996
 C390 C 1.20100 0.91009 1.09021
 H391 H 1.17523 0.91753 1.08281
 C392 C 1.26716 0.89022 1.10996
 C393 C 1.09017 0.79920 1.09046
 H394 H 1.08275 0.82498 1.08308
 C395 C 1.10995 0.73300 1.11017
 C396 C 0.90992 1.20117 1.09020
 H397 H 0.91735 1.17539 1.08277
 C398 C 0.89012 1.26735 1.11004
 C399 C 0.90995 0.91018 1.20143
 H400 H 0.91742 0.91757 1.17567
 C401 C 0.89006 0.89045 1.26759
 C402 C 1.09003 1.09032 1.20120
 H403 H 1.08264 1.08289 1.17542
 C404 C 1.10974 1.11011 1.26739
 C405 C 0.91025 0.79884 1.09120
 H406 H 0.91771 0.82459 1.08380
 C407 C 0.89035 0.73271 1.11091
 C408 C 1.09003 1.20120 1.09032
 H409 H 1.08264 1.17542 1.08290
 C410 C 1.10974 1.26739 1.11011
 C411 C 0.79901 0.91008 1.09040
 H412 H 0.82478 0.91751 1.08302
 C413 C 0.73286 0.89020 1.11016
 C414 C 1.20104 1.09016 1.09016
 H415 H 1.17526 1.08277 1.08277
 C416 C 1.26722 1.10990 1.10990
 O417 O 0.96628 0.37619 0.32917
 O418 O 0.96635 0.33628 0.28896
 C419 C 0.95466 0.36423 0.30112
 C420 C 0.92691 0.38279 0.28293
 C421 C 0.91682 0.37305 0.24966
 H422 H 0.92988 0.35220 0.23658
 O423 O 1.03347 0.62432 0.32934
 O424 O 1.03337 0.66412 0.28909
 C425 C 1.04507 0.63621 0.30125
 C426 C 1.07280 0.61759 0.28300
 C427 C 1.08290 0.62732 0.24973
 H428 H 1.06987 0.64819 0.23670
 O429 O 0.82852 0.46659 0.37631
 O430 O 0.78842 0.46668 0.33636
 C431 C 0.80049 0.45499 0.36431
 C432 C 0.78223 0.42727 0.38286
 C433 C 0.74896 0.41720 0.37314
 H434 H 0.73591 0.43026 0.35230
 O435 O 1.17083 0.53372 0.37619
 O436 O 1.21104 0.53365 0.33628
 C437 C 1.19888 0.54534 0.36423
 C438 C 1.21708 0.57309 0.38280
 C439 C 1.25034 0.58318 0.37305
 H440 H 1.26342 0.57011 0.35221
 O441 O 0.87568 0.32934 0.46653
 O442 O 0.83588 0.28908 0.46663
 C443 C 0.86379 0.30125 0.45493
 C444 C 0.88241 0.28300 0.42720
 C445 C 0.87268 0.24973 0.41710
 H446 H 0.85181 0.23671 0.43013
 O447 O 1.12369 0.67148 0.46659
 O448 O 1.16364 0.71158 0.46668
 C449 C 1.13569 0.69951 0.45499
 C450 C 1.11715 0.71777 0.42727
 C451 C 1.12686 0.75105 0.41721
 H452 H 1.14770 0.76409 0.43026
 O453 O 0.87588 0.53352 0.32956
 O454 O 0.83608 0.53363 0.28929
 C455 C 0.86402 0.54521 0.30151
 C456 C 0.88269 0.57289 0.28333
 C457 C 0.87303 0.58292 0.25003
 H458 H 0.85221 0.56987 0.23696
 O459 O 1.12376 0.46672 0.32921
 O460 O 1.16367 0.46663 0.28900
 C461 C 1.13571 0.45503 0.30117
 C462 C 1.11711 0.42731 0.28295
 C463 C 1.12685 0.41721 0.24967
 H464 H 1.14769 0.43024 0.23660
 O465 O 1.03328 0.32921 0.37624
 O466 O 1.03337 0.28900 0.33633
 C467 C 1.04497 0.30116 0.36429
 C468 C 1.07269 0.28295 0.38289
 C469 C 1.08279 0.24966 0.37315
 H470 H 1.06976 0.23660 0.35231
 O471 O 0.96641 0.67138 0.37641
 O472 O 0.96630 0.71148 0.33645
 C473 C 0.95469 0.69937 0.36443
 C474 C 0.92692 0.71759 0.38301
 C475 C 0.91681 0.75085 0.37328
 H476 H 0.92988 0.76390 0.35245
 O477 O 0.82871 0.62425 0.46670
 O478 O 0.78850 0.66416 0.46678
 C479 C 0.80066 0.63620 0.45510
 C480 C 0.78242 0.61760 0.42739
 C481 C 0.74915 0.62735 0.41731
 H482 H 0.73610 0.64824 0.43033
 O483 O 1.17079 0.37624 0.46672
 O484 O 1.21100 0.33633 0.46663
 C485 C 1.19884 0.36429 0.45503
 C486 C 1.21705 0.38289 0.42731
 C487 C 1.25034 0.37315 0.41721
 H488 H 1.26340 0.35231 0.43024
 O489 O 0.96648 0.62412 0.32956
 O490 O 0.96637 0.66392 0.28929
 C491 C 0.95480 0.63598 0.30151
 C492 C 0.92711 0.61731 0.28333
 C493 C 0.91708 0.62697 0.25003
 H494 H 0.93013 0.64779 0.23696
 O495 O 1.03328 0.37624 0.32921
 O496 O 1.03337 0.33633 0.28900
 C497 C 1.04497 0.36429 0.30117
 C498 C 1.07269 0.38289 0.28295
 C499 C 1.08279 0.37315 0.24967
 H500 H 1.06976 0.35231 0.23660
 O501 O 1.17079 0.46672 0.37624
 O502 O 1.21100 0.46663 0.33633
 C503 C 1.19884 0.45503 0.36429
 C504 C 1.21705 0.42731 0.38289
 C505 C 1.25034 0.41721 0.37315
 H506 H 1.26340 0.43024 0.35231
 O507 O 0.82862 0.53359 0.37641
 O508 O 0.78852 0.53370 0.33645
 C509 C 0.80063 0.54531 0.36443
 C510 C 0.78241 0.57308 0.38301
 C511 C 0.74915 0.58319 0.37328
 H512 H 0.73610 0.57012 0.35245
 O513 O 0.87575 0.67129 0.46670
 O514 O 0.83584 0.71149 0.46678
 C515 C 0.86380 0.69934 0.45510
 C516 C 0.88240 0.71758 0.42739
 C517 C 0.87265 0.75085 0.41731
 H518 H 0.85176 0.76390 0.43033
 O519 O 1.12376 0.32921 0.46672
 O520 O 1.16367 0.28900 0.46663
 C521 C 1.13571 0.30116 0.45503
 C522 C 1.11711 0.28295 0.42731
 C523 C 1.12685 0.24966 0.41721
 H524 H 1.14770 0.23660 0.43024
 O525 O 1.12381 0.53372 0.32917
 O526 O 1.16372 0.53365 0.28896
 C527 C 1.13577 0.54534 0.30112
 C528 C 1.11721 0.57309 0.28293
 C529 C 1.12695 0.58318 0.24966
 H530 H 1.14779 0.57011 0.23658
 O531 O 0.87568 0.46653 0.32934
 O532 O 0.83588 0.46663 0.28909
 C533 C 0.86379 0.45493 0.30126
 C534 C 0.88241 0.42720 0.28300
 C535 C 0.87268 0.41710 0.24973
 H536 H 0.85181 0.43012 0.23671
 O537 O 1.03341 0.67148 0.37631
 O538 O 1.03332 0.71158 0.33636
 C539 C 1.04501 0.69951 0.36431
 C540 C 1.07273 0.71777 0.38285
 C541 C 1.08280 0.75105 0.37314
 H542 H 1.06974 0.76409 0.35231
 O543 O 0.96628 0.32917 0.37619
 O544 O 0.96635 0.28896 0.33628
 C545 C 0.95466 0.30112 0.36423
 C546 C 0.92690 0.28293 0.38280
 C547 C 0.91682 0.24966 0.37305
 H548 H 0.92988 0.23658 0.35221
 O549 O 1.17066 0.62432 0.46653
 O550 O 1.21092 0.66412 0.46663
 C551 C 1.19875 0.63621 0.45493
 C552 C 1.21700 0.61759 0.42720
 C553 C 1.25027 0.62732 0.41710
 H554 H 1.26330 0.64819 0.43013
 O555 O 0.82852 0.37631 0.46659
 O556 O 0.78842 0.33636 0.46668
 C557 C 0.80049 0.36431 0.45500
 C558 C 0.78223 0.38285 0.42727
 C559 C 0.74896 0.37314 0.41721
 H560 H 0.73591 0.35230 0.43026
 Cu561 Cu 0.99977 0.35674 0.35674
 Cu562 Cu 0.99988 0.30877 0.30878
 Cu563 Cu 0.99997 0.64380 0.35696
 Cu564 Cu 0.99982 0.69163 0.30892
 Cu565 Cu 0.85620 0.50003 0.35696
 Cu566 Cu 0.80837 0.50018 0.30892
 Cu567 Cu 1.14326 0.50023 0.35674
 Cu568 Cu 1.19123 0.50012 0.30877
 C569 C 0.90971 0.41006 0.29923
 H570 H 0.91712 0.41748 0.32500
 C571 C 0.88994 0.39026 0.23305
 C572 C 1.08994 0.59029 0.29923
 H573 H 1.08252 0.58288 0.32500
 C574 C 1.10974 0.61005 0.23305
 C575 C 0.79849 0.41011 0.41011
 H576 H 0.82426 0.41751 0.41751
 C577 C 0.73231 0.39037 0.39038
 C578 C 1.20077 0.59029 0.41006
 H579 H 1.17500 0.58288 0.41748
 C580 C 1.26695 0.61005 0.39027
 C581 C 0.90971 0.29923 0.41006
 H582 H 0.91712 0.32500 0.41748
 C583 C 0.88994 0.23305 0.39026
 C584 C 1.08989 0.70151 0.41011
 H585 H 1.08249 0.67574 0.41751
 C586 C 1.10962 0.76770 0.39038
 C587 C 0.90994 0.59006 0.29962
 H588 H 0.91730 0.58270 0.32541
 C589 C 0.89029 0.60971 0.23339
 C590 C 1.08984 0.41016 0.29923
 H591 H 1.08243 0.41758 0.32501
 C592 C 1.10963 0.39037 0.23302
 C593 C 1.08984 0.29923 0.41016
 H594 H 1.08243 0.32501 0.41758
 C595 C 1.10963 0.23302 0.39038
 C596 C 0.90973 0.70132 0.41026
 H597 H 0.91716 0.67555 0.41766
 C598 C 0.88992 0.76749 0.39049
 C599 C 0.79868 0.59027 0.41026
 H600 H 0.82445 0.58284 0.41766
 C601 C 0.73251 0.61008 0.39049
 C602 C 1.20077 0.41016 0.41016
 H603 H 1.17499 0.41757 0.41758
 C604 C 1.26698 0.39037 0.39038
 O605 O 1.03341 0.37631 0.67148
 O606 O 1.03332 0.33636 0.71159
 C607 C 1.04501 0.36431 0.69951
 C608 C 1.07273 0.38285 0.71777
 C609 C 1.08280 0.37314 0.75105
 H610 H 1.06974 0.35230 0.76409
 O611 O 0.96630 0.62419 0.67121
 O612 O 0.96620 0.66410 0.71143
 C613 C 0.95461 0.63613 0.69926
 C614 C 0.92689 0.61753 0.71747
 C615 C 0.91682 0.62723 0.75078
 H616 H 0.92987 0.64806 0.76385
 O617 O 0.82879 0.53370 0.62419
 O618 O 0.78857 0.53380 0.66410
 C619 C 0.80074 0.54539 0.63614
 C620 C 0.78253 0.57311 0.61753
 C621 C 0.74922 0.58318 0.62723
 H622 H 0.73615 0.57013 0.64806
 O623 O 1.17066 0.46653 0.62432
 O624 O 1.21092 0.46663 0.66412
 C625 C 1.19875 0.45493 0.63621
 C626 C 1.21700 0.42720 0.61759
 C627 C 1.25027 0.41710 0.62732
 H628 H 1.26330 0.43013 0.64819
 O629 O 1.12381 0.32917 0.53372
 O630 O 1.16372 0.28896 0.53365
 C631 C 1.13577 0.30112 0.54534
 C632 C 1.11721 0.28293 0.57310
 C633 C 1.12695 0.24966 0.58318
 H634 H 1.14779 0.23658 0.57012
 O635 O 0.87581 0.67121 0.53370
 O636 O 0.83590 0.71143 0.53380
 C637 C 0.86387 0.69926 0.54539
 C638 C 0.88247 0.71747 0.57311
 C639 C 0.87277 0.75078 0.58318
 H640 H 0.85194 0.76385 0.57013
 O641 O 0.87575 0.46670 0.67129
 O642 O 0.83584 0.46678 0.71150
 C643 C 0.86380 0.45510 0.69935
 C644 C 0.88240 0.42739 0.71758
 C645 C 0.87265 0.41731 0.75085
 H646 H 0.85176 0.43033 0.76390
 O647 O 1.12359 0.53359 0.67138
 O648 O 1.16355 0.53370 0.71148
 C649 C 1.13557 0.54531 0.69937
 C650 C 1.11699 0.57308 0.71759
 C651 C 1.12672 0.58319 0.75085
 H652 H 1.14755 0.57012 0.76390
 O653 O 0.96648 0.32955 0.62413
 O654 O 0.96637 0.28929 0.66392
 C655 C 0.95479 0.30151 0.63598
 C656 C 0.92711 0.28332 0.61731
 C657 C 0.91708 0.25003 0.62697
 H658 H 0.93013 0.23696 0.64779
 O659 O 1.03330 0.67128 0.62425
 O660 O 1.03322 0.71149 0.66416
 C661 C 1.04490 0.69934 0.63620
 C662 C 1.07261 0.71758 0.61760
 C663 C 1.08270 0.75085 0.62735
 H664 H 1.06967 0.76389 0.64824
 O665 O 0.82862 0.37641 0.53359
 O666 O 0.78852 0.33645 0.53370
 C667 C 0.80063 0.36443 0.54531
 C668 C 0.78241 0.38301 0.57308
 C669 C 0.74915 0.37328 0.58319
 H670 H 0.73609 0.35245 0.57012
 O671 O 1.17044 0.62412 0.53352
 O672 O 1.21071 0.66392 0.53363
 C673 C 1.19849 0.63598 0.54521
 C674 C 1.21667 0.61731 0.57289
 C675 C 1.24997 0.62697 0.58292
 H676 H 1.26304 0.64779 0.56988
 O677 O 1.03330 0.62425 0.67129
 O678 O 1.03322 0.66416 0.71150
 C679 C 1.04490 0.63620 0.69934
 C680 C 1.07261 0.61760 0.71758
 C681 C 1.08270 0.62735 0.75085
 H682 H 1.06967 0.64824 0.76390
 O683 O 0.96641 0.37641 0.67138
 O684 O 0.96630 0.33645 0.71148
 C685 C 0.95469 0.36443 0.69938
 C686 C 0.92692 0.38301 0.71759
 C687 C 0.91681 0.37328 0.75085
 H688 H 0.92988 0.35245 0.76391
 O689 O 1.17044 0.53352 0.62412
 O690 O 1.21071 0.53363 0.66392
 C691 C 1.19849 0.54520 0.63598
 C692 C 1.21667 0.57289 0.61731
 C693 C 1.24997 0.58292 0.62697
 H694 H 1.26304 0.56987 0.64780
 O695 O 0.82871 0.46670 0.62425
 O696 O 0.78850 0.46678 0.66416
 C697 C 0.80066 0.45510 0.63620
 C698 C 0.78242 0.42739 0.61760
 C699 C 0.74915 0.41731 0.62735
 H700 H 0.73610 0.43033 0.64824
 O701 O 1.12359 0.67138 0.53359
 O702 O 1.16355 0.71148 0.53370
 C703 C 1.13557 0.69937 0.54531
 C704 C 1.11699 0.71759 0.57308
 C705 C 1.12672 0.75085 0.58319
 H706 H 1.14755 0.76390 0.57013
 O707 O 0.87588 0.32955 0.53352
 O708 O 0.83608 0.28929 0.53363
 C709 C 0.86402 0.30151 0.54521
 C710 C 0.88269 0.28332 0.57289
 C711 C 0.87303 0.25003 0.58292
 H712 H 0.85221 0.23696 0.56987
 O713 O 1.12369 0.46659 0.67148
 O714 O 1.16364 0.46668 0.71158
 C715 C 1.13569 0.45499 0.69951
 C716 C 1.11715 0.42727 0.71777
 C717 C 1.12686 0.41720 0.75105
 H718 H 1.14770 0.43026 0.76409
 O719 O 0.87581 0.53370 0.67121
 O720 O 0.83590 0.53380 0.71143
 C721 C 0.86387 0.54539 0.69926
 C722 C 0.88247 0.57311 0.71747
 C723 C 0.87277 0.58318 0.75078
 H724 H 0.85194 0.57013 0.76385
 O725 O 0.96630 0.67121 0.62419
 O726 O 0.96620 0.71142 0.66410
 C727 C 0.95461 0.69926 0.63614
 C728 C 0.92689 0.71747 0.61753
 C729 C 0.91682 0.75078 0.62723
 H730 H 0.92987 0.76385 0.64806
 O731 O 1.03347 0.32934 0.62432
 O732 O 1.03337 0.28908 0.66412
 C733 C 1.04507 0.30125 0.63621
 C734 C 1.07280 0.28300 0.61759
 C735 C 1.08290 0.24973 0.62732
 H736 H 1.06987 0.23670 0.64819
 O737 O 1.17083 0.37619 0.53372
 O738 O 1.21104 0.33628 0.53365
 C739 C 1.19888 0.36423 0.54534
 C740 C 1.21708 0.38279 0.57310
 C741 C 1.25034 0.37305 0.58318
 H742 H 1.26342 0.35221 0.57012
 O743 O 0.82879 0.62419 0.53370
 O744 O 0.78857 0.66410 0.53380
 C745 C 0.80074 0.63613 0.54539
 C746 C 0.78253 0.61753 0.57311
 C747 C 0.74922 0.62723 0.58318
 H748 H 0.73615 0.64806 0.57013
 Cu749 Cu 0.99997 0.35696 0.64380
 Cu750 Cu 0.99982 0.30892 0.69163
 Cu751 Cu 0.99982 0.64369 0.64369
 Cu752 Cu 0.99970 0.69166 0.69166
 Cu753 Cu 0.85620 0.35696 0.50004
 Cu754 Cu 0.80837 0.30892 0.50018
 Cu755 Cu 1.14326 0.35674 0.50023
 Cu756 Cu 1.19123 0.30877 0.50013
 Cu757 Cu 0.85631 0.64369 0.50019
 Cu758 Cu 0.80834 0.69166 0.50030
 Cu759 Cu 1.14304 0.64380 0.50003
 Cu760 Cu 1.19108 0.69163 0.50018
 Cu761 Cu 0.85631 0.50018 0.64369
 Cu762 Cu 0.80834 0.50030 0.69166
 Cu763 Cu 1.14304 0.50003 0.64380
 Cu764 Cu 1.19108 0.50018 0.69163
 C765 C 1.08989 0.41011 0.70151
 H766 H 1.08249 0.41751 0.67574
 C767 C 1.10962 0.39038 0.76770
 C768 C 0.90973 0.59027 0.70119
 H769 H 0.91712 0.58288 0.67539
 C770 C 0.89001 0.60999 0.76743
 C771 C 0.79882 0.59027 0.59027
 H772 H 0.82462 0.58288 0.58288
 C773 C 0.73257 0.60999 0.60999
 C774 C 1.20077 0.41006 0.59029
 H775 H 1.17500 0.41748 0.58288
 C776 C 1.26695 0.39026 0.61006
 C777 C 1.08994 0.29923 0.59029
 H778 H 1.08252 0.32500 0.58288
 C779 C 1.10974 0.23305 0.61006
 C780 C 0.90973 0.70118 0.59027
 H781 H 0.91712 0.67538 0.58288
 C782 C 0.89001 0.76743 0.60999
 C783 C 0.90973 0.41025 0.70132
 H784 H 0.91716 0.41766 0.67555
 C785 C 0.88992 0.39049 0.76749
 C786 C 1.08974 0.59027 0.70132
 H787 H 1.08234 0.58284 0.67555
 C788 C 1.10951 0.61008 0.76749
 C789 C 0.90994 0.29962 0.59006
 H790 H 0.91730 0.32541 0.58270
 C791 C 0.89029 0.23339 0.60971
 C792 C 1.08974 0.70132 0.59027
 H793 H 1.08234 0.67555 0.58284
 C794 C 1.10952 0.76749 0.61009
 C795 C 0.79868 0.41025 0.59027
 H796 H 0.82445 0.41766 0.58284
 C797 C 0.73251 0.39049 0.61008
 C798 C 1.20038 0.59006 0.59006
 H799 H 1.17459 0.58270 0.58270
 C800 C 1.26661 0.60972 0.60972
 O801 O 0.62413 1.03428 0.67054
 O802 O 0.66381 1.03388 0.71091
 C803 C 0.63592 1.04565 0.69877
 C804 C 0.61725 1.07325 0.71716
 C805 C 0.62703 1.08332 0.75042
 H806 H 0.64794 1.07030 0.76339
 O807 O 0.37570 0.96660 0.67108
 O808 O 0.33582 0.96670 0.71132
 C809 C 0.36376 0.95500 0.69914
 C810 C 0.38234 0.92724 0.71733
 C811 C 0.37261 0.91710 0.75059
 H812 H 0.35176 0.93014 0.76369
 O813 O 0.53339 1.17132 0.62403
 O814 O 0.53328 1.21150 0.66396
 C815 C 0.54497 1.19937 0.63599
 C816 C 0.57268 1.21764 0.61740
 C817 C 0.58275 1.25091 0.62719
 H818 H 0.56972 1.26392 0.64810
 O819 O 0.46535 0.82889 0.62329
 O820 O 0.46542 0.78891 0.66339
 C821 C 0.45371 0.80093 0.63543
 C822 C 0.42595 0.78265 0.61702
 C823 C 0.41591 0.74941 0.62684
 H824 H 0.42899 0.73642 0.64769
 O825 O 0.67121 1.12489 0.53331
 O826 O 0.71128 1.16488 0.53320
 C827 C 0.69923 1.13693 0.54489
 C828 C 0.71747 1.11844 0.57263
 C829 C 0.75072 1.12816 0.58278
 H830 H 0.76380 1.14899 0.56975
 O831 O 0.32849 0.87624 0.53343
 O832 O 0.28819 0.83648 0.53332
 C833 C 0.30042 0.86436 0.54506
 C834 C 0.28226 0.88294 0.57287
 C835 C 0.24900 0.87324 0.58302
 H836 H 0.23592 0.85242 0.56997
 O837 O 0.46639 1.12415 0.67096
 O838 O 0.46628 1.16404 0.71119
 C839 C 0.45469 1.13607 0.69901
 C840 C 0.42697 1.11746 0.71722
 C841 C 0.41687 1.12718 0.75051
 H842 H 0.42991 1.14803 0.76357
 O843 O 0.53277 0.87634 0.66924
 O844 O 0.53327 0.83620 0.70916
 C845 C 0.54503 0.86403 0.69682
 C846 C 0.57419 0.88137 0.71397
 C847 C 0.58987 0.86617 0.74266
 H848 H 0.57983 0.84246 0.75325
 O849 O 0.67146 0.96765 0.62311
 O850 O 0.71172 0.96769 0.66292
 C851 C 0.69955 0.95602 0.63501
 C852 C 0.71770 0.92813 0.61653
 C853 C 0.75092 0.91795 0.62635
 H854 H 0.76404 0.93115 0.64705
 O855 O 0.32878 1.03361 0.62399
 O856 O 0.28858 1.03374 0.66392
 C857 C 0.30075 1.04533 0.63595
 C858 C 0.28255 1.07307 0.61736
 C859 C 0.24928 1.08319 0.62710
 H860 H 0.23621 1.07016 0.64795
 O861 O 0.37586 1.17117 0.53353
 O862 O 0.33595 1.21137 0.53362
 C863 C 0.36391 1.19921 0.54522
 C864 C 0.38251 1.21743 0.57294
 C865 C 0.37275 1.25070 0.58305
 H866 H 0.35189 1.26375 0.57002
 O867 O 0.62380 0.82910 0.53363
 O868 O 0.66371 0.78889 0.53358
 C869 C 0.63570 0.80100 0.54519
 C870 C 0.61692 0.78263 0.57270
 C871 C 0.62675 0.74940 0.58288
 H872 H 0.64788 0.73649 0.57010
 O873 O 0.37585 1.03361 0.67096
 O874 O 0.33597 1.03372 0.71119
 C875 C 0.36393 1.04531 0.69901
 C876 C 0.38254 1.07304 0.71722
 C877 C 0.37282 1.08313 0.75051
 H878 H 0.35197 1.07009 0.76357
 O879 O 0.62366 0.96723 0.66924
 O880 O 0.66380 0.96673 0.70916
 C881 C 0.63597 0.95497 0.69682
 C882 C 0.61863 0.92581 0.71397
 C883 C 0.63383 0.91013 0.74266
 H884 H 0.65754 0.92017 0.75325
 O885 O 0.53235 0.82854 0.62311
 O886 O 0.53231 0.78828 0.66292
 C887 C 0.54398 0.80045 0.63501
 C888 C 0.57187 0.78230 0.61653
 C889 C 0.58205 0.74908 0.62635
 H890 H 0.56885 0.73596 0.64705
 O891 O 0.46639 1.17122 0.62399
 O892 O 0.46626 1.21142 0.66392
 C893 C 0.45467 1.19925 0.63595
 C894 C 0.42693 1.21745 0.61736
 C895 C 0.41681 1.25072 0.62710
 H896 H 0.42984 1.26379 0.64795
 O897 O 0.32883 1.12414 0.53353
 O898 O 0.28863 1.16405 0.53362
 C899 C 0.30079 1.13609 0.54522
 C900 C 0.28257 1.11749 0.57294
 C901 C 0.24930 1.12725 0.58305
 H902 H 0.23625 1.14811 0.57002
 O903 O 0.67090 0.87620 0.53363
 O904 O 0.71111 0.83629 0.53358
 C905 C 0.69900 0.86430 0.54519
 C906 C 0.71737 0.88308 0.57270
 C907 C 0.75060 0.87325 0.58288
 H908 H 0.76350 0.85212 0.57010
 O909 O 0.46572 0.87587 0.67054
 O910 O 0.46612 0.83619 0.71091
 C911 C 0.45435 0.86408 0.69877
 C912 C 0.42675 0.88275 0.71716
 C913 C 0.41668 0.87297 0.75042
 H914 H 0.42970 0.85206 0.76339
 O915 O 0.53340 1.12430 0.67109
 O916 O 0.53330 1.16419 0.71132
 C917 C 0.54500 1.13625 0.69914
 C918 C 0.57276 1.11766 0.71733
 C919 C 0.58290 1.12738 0.75059
 H920 H 0.56986 1.14823 0.76369
 O921 O 0.32869 0.96661 0.62403
 O922 O 0.28850 0.96672 0.66396
 C923 C 0.30063 0.95503 0.63599
 C924 C 0.28236 0.92732 0.61740
 C925 C 0.24910 0.91725 0.62719
 H926 H 0.23608 0.93027 0.64811
 O927 O 0.67111 1.03465 0.62330
 O928 O 0.71109 1.03458 0.66339
 C929 C 0.69907 1.04629 0.63543
 C930 C 0.71735 1.07405 0.61702
 C931 C 0.75059 1.08409 0.62684
 H932 H 0.76358 1.07101 0.64769
 O933 O 0.37511 0.82879 0.53331
 O934 O 0.33512 0.78872 0.53319
 C935 C 0.36307 0.80077 0.54489
 C936 C 0.38156 0.78253 0.57263
 C937 C 0.37184 0.74928 0.58278
 H938 H 0.35101 0.73620 0.56975
 O939 O 0.62376 1.17151 0.53343
 O940 O 0.66352 1.21181 0.53332
 C941 C 0.63564 1.19958 0.54506
 C942 C 0.61706 1.21775 0.57287
 C943 C 0.62676 1.25100 0.58302
 H944 H 0.64758 1.26408 0.56996
 Cu945 Cu 0.64356 1.00107 0.64250
 Cu946 Cu 0.69143 1.00076 0.69057
 Cu947 Cu 0.35629 1.00009 0.64348
 Cu948 Cu 0.30835 1.00024 0.69146
 Cu949 Cu 0.49991 1.14371 0.64348
 Cu950 Cu 0.49976 1.19165 0.69146
 Cu951 Cu 0.49893 0.85644 0.64250
 Cu952 Cu 0.49924 0.80857 0.69057
 C953 C 0.58992 1.09040 0.70099
 H954 H 0.58249 1.08302 0.67522
 C955 C 0.60980 1.11015 0.76715
 C956 C 0.40960 0.91008 0.70099
 H957 H 0.41699 0.91751 0.67522
 C958 C 0.38984 0.89020 0.76714
 C959 C 0.58982 1.20143 0.59005
 H960 H 0.58243 1.17567 0.58259
 C961 C 0.60955 1.26759 0.60994
 C962 C 0.40880 0.79884 0.58975
 H963 H 0.41620 0.82459 0.58229
 C964 C 0.38909 0.73271 0.60965
 C965 C 0.70116 1.09120 0.58975
 H966 H 0.67541 1.08380 0.58229
 C967 C 0.76729 1.11091 0.60965
 C968 C 0.29857 0.91018 0.59005
 H969 H 0.32433 0.91757 0.58258
 C970 C 0.23242 0.89044 0.60994
 C971 C 0.40982 1.09018 0.70093
 H972 H 0.41722 1.08278 0.67514
 C973 C 0.39004 1.10996 0.76715
 C974 C 0.58856 0.91144 0.69998
 H975 H 0.57709 0.92291 0.67738
 C976 C 0.61966 0.88034 0.75672
 C977 C 0.70130 0.91072 0.58951
 H978 H 0.67556 0.91821 0.58207
 C979 C 0.76738 0.89074 0.60947
 C980 C 0.29883 1.09020 0.59008
 H981 H 0.32461 1.08277 0.58266
 C982 C 0.23265 1.11003 0.60988
 C983 C 0.40980 1.20117 0.59008
 H984 H 0.41723 1.17539 0.58266
 C985 C 0.38997 1.26735 0.60988
 C986 C 0.58928 0.79869 0.58951
 H987 H 0.58179 0.82444 0.58207
 C988 C 0.60926 0.73262 0.60947
 O989 O 0.62381 0.96671 0.32916
 O990 O 0.66372 0.96659 0.28896
 C991 C 0.63576 0.95499 0.30113
 C992 C 0.61719 0.92723 0.28293
 C993 C 0.62698 0.91708 0.24968
 H994 H 0.64785 0.93008 0.23664
 O995 O 0.37587 1.03366 0.32896
 O996 O 0.33601 1.03369 0.28876
 C997 C 0.36396 1.04531 0.30091
 C998 C 0.38258 1.07300 0.28269
 C999 C 0.37287 1.08308 0.24942
 H1000 H 0.35203 1.07004 0.23637
 O1001 O 0.46625 1.17120 0.37601
 O1002 O 0.46620 1.21136 0.33611
 C1003 C 0.45457 1.19923 0.36407
 C1004 C 0.42682 1.21746 0.38269
 C1005 C 0.41672 1.25073 0.37299
 H1006 H 0.42975 1.26377 0.35213
 O1007 O 0.53322 0.82918 0.37621
 O1008 O 0.53334 0.78897 0.33631
 C1009 C 0.54492 0.80114 0.36427
 C1010 C 0.57264 0.78293 0.38288
 C1011 C 0.58272 0.74964 0.37318
 H1012 H 0.56967 0.73656 0.35236
 O1013 O 0.67077 0.87624 0.46667
 O1014 O 0.71098 0.83633 0.46658
 C1015 C 0.69881 0.86429 0.45498
 C1016 C 0.71703 0.88290 0.42727
 C1017 C 0.75033 0.87319 0.41721
 H1018 H 0.76339 0.85234 0.43024
 O1019 O 0.32878 1.12419 0.46653
 O1020 O 0.28857 1.16411 0.46661
 C1021 C 0.30073 1.13616 0.45492
 C1022 C 0.28252 1.11759 0.42718
 C1023 C 0.24924 1.12733 0.41712
 H1024 H 0.23617 1.14818 0.43019
 O1025 O 0.53334 1.12417 0.32898
 O1026 O 0.53333 1.16403 0.28878
 C1027 C 0.54500 1.13609 0.30094
 C1028 C 0.57277 1.11749 0.28273
 C1029 C 0.58291 1.12721 0.24948
 H1030 H 0.56988 1.14806 0.23642
 O1031 O 0.46628 0.87617 0.32905
 O1032 O 0.46639 0.83625 0.28884
 C1033 C 0.45469 0.86420 0.30099
 C1034 C 0.42696 0.88278 0.28275
 C1035 C 0.41689 0.87300 0.24949
 H1036 H 0.42994 0.85213 0.23645
 O1037 O 0.67088 1.03380 0.37606
 O1038 O 0.71109 1.03368 0.33615
 C1039 C 0.69892 1.04541 0.36408
 C1040 C 0.71712 1.07321 0.38261
 C1041 C 0.75040 1.08326 0.37288
 H1042 H 0.76349 1.07015 0.35207
 O1043 O 0.32870 0.96677 0.37598
 O1044 O 0.28854 0.96680 0.33609
 C1045 C 0.30064 0.95517 0.36405
 C1046 C 0.28235 0.92752 0.38267
 C1047 C 0.24903 0.91755 0.37301
 H1048 H 0.23599 0.93061 0.35218
 O1049 O 0.62373 1.17152 0.46645
 O1050 O 0.66350 1.21181 0.46631
 C1051 C 0.63556 1.19957 0.45476
 C1052 C 0.61688 1.21773 0.42709
 C1053 C 0.62648 1.25103 0.41708
 H1054 H 0.64728 1.26413 0.43015
 O1055 O 0.37551 0.82920 0.46636
 O1056 O 0.33553 0.78911 0.46619
 C1057 C 0.36355 0.80121 0.45463
 C1058 C 0.38220 0.78297 0.42692
 C1059 C 0.37251 0.74969 0.41683
 H1060 H 0.35162 0.73667 0.42984
 O1061 O 0.37583 0.96666 0.32898
 O1062 O 0.33597 0.96666 0.28878
 C1063 C 0.36391 0.95500 0.30094
 C1064 C 0.38251 0.92723 0.28273
 C1065 C 0.37279 0.91709 0.24948
 H1066 H 0.35194 0.93012 0.23642
 O1067 O 0.62383 1.03372 0.32905
 O1068 O 0.66375 1.03361 0.28885
 C1069 C 0.63579 1.04531 0.30099
 C1070 C 0.61722 1.07303 0.28275
 C1071 C 0.62700 1.08311 0.24949
 H1072 H 0.64787 1.07006 0.23645
 O1073 O 0.46620 0.82912 0.37606
 O1074 O 0.46632 0.78891 0.33615
 C1075 C 0.45459 0.80108 0.36408
 C1076 C 0.42679 0.78288 0.38261
 C1077 C 0.41674 0.74960 0.37288
 H1078 H 0.42985 0.73650 0.35207
 O1079 O 0.53323 1.17130 0.37599
 O1080 O 0.53320 1.21146 0.33609
 C1081 C 0.54483 1.19936 0.36405
 C1082 C 0.57248 1.21764 0.38267
 C1083 C 0.58245 1.25096 0.37301
 H1084 H 0.56939 1.26401 0.35218
 O1085 O 0.32848 0.87627 0.46645
 O1086 O 0.28819 0.83650 0.46631
 C1087 C 0.30043 0.86444 0.45476
 C1088 C 0.28227 0.88312 0.42709
 C1089 C 0.24897 0.87352 0.41708
 H1090 H 0.23587 0.85272 0.43015
 O1091 O 0.67080 1.12449 0.46636
 O1092 O 0.71088 1.16447 0.46620
 C1093 C 0.69879 1.13645 0.45463
 C1094 C 0.71703 1.11780 0.42692
 C1095 C 0.75030 1.12749 0.41683
 H1096 H 0.76333 1.14838 0.42983
 O1097 O 0.53329 0.87619 0.32916
 O1098 O 0.53341 0.83628 0.28896
 C1099 C 0.54501 0.86423 0.30113
 C1100 C 0.57276 0.88281 0.28293
 C1101 C 0.58292 0.87302 0.24968
 H1102 H 0.56992 0.85215 0.23664
 O1103 O 0.46634 1.12413 0.32896
 O1104 O 0.46631 1.16399 0.28876
 C1105 C 0.45469 1.13604 0.30092
 C1106 C 0.42699 1.11742 0.28269
 C1107 C 0.41692 1.12713 0.24942
 H1108 H 0.42996 1.14797 0.23637
 O1109 O 0.32880 1.03375 0.37601
 O1110 O 0.28864 1.03380 0.33611
 C1111 C 0.30077 1.04543 0.36407
 C1112 C 0.28254 1.07318 0.38269
 C1113 C 0.24927 1.08328 0.37299
 H1114 H 0.23623 1.07025 0.35213
 O1115 O 0.67082 0.96678 0.37621
 O1116 O 0.71103 0.96666 0.33631
 C1117 C 0.69886 0.95508 0.36427
 C1118 C 0.71707 0.92736 0.38288
 C1119 C 0.75036 0.91728 0.37318
 H1120 H 0.76344 0.93033 0.35236
 O1121 O 0.62376 0.82923 0.46667
 O1122 O 0.66366 0.78902 0.46658
 C1123 C 0.63571 0.80119 0.45498
 C1124 C 0.61709 0.78297 0.42727
 C1125 C 0.62681 0.74967 0.41721
 H1126 H 0.64766 0.73661 0.43024
 O1127 O 0.37581 1.17122 0.46653
 O1128 O 0.33589 1.21143 0.46661
 C1129 C 0.36384 1.19927 0.45492
 C1130 C 0.38241 1.21749 0.42718
 C1131 C 0.37267 1.25076 0.41712
 H1132 H 0.35182 1.26383 0.43019
 Cu1133 Cu 0.64329 1.00027 0.35666
 Cu1134 Cu 0.69127 1.00012 0.30870
 Cu1135 Cu 0.35634 1.00020 0.35653
 Cu1136 Cu 0.30844 1.00024 0.30857
 Cu1137 Cu 0.64335 1.14404 0.49991
 Cu1138 Cu 0.69114 1.19213 0.49972
 Cu1139 Cu 0.64327 0.85673 0.50020
 Cu1140 Cu 0.69123 0.80877 0.50009
 Cu1141 Cu 0.35636 1.14364 0.50002
 Cu1142 Cu 0.30839 1.19161 0.50013
 Cu1143 Cu 0.35596 0.85665 0.49991
 Cu1144 Cu 0.30787 0.80886 0.49972
 Cu1145 Cu 0.49979 1.14366 0.35653
 Cu1146 Cu 0.49976 1.19156 0.30857
 Cu1147 Cu 0.49973 0.85670 0.35666
 Cu1148 Cu 0.49988 0.80873 0.30870
 C1149 C 0.58988 0.91012 0.29920
 H1150 H 0.58242 0.91758 0.32496
 C1151 C 0.60979 0.89021 0.23305
 C1152 C 0.40984 1.09016 0.29896
 H1153 H 0.41723 1.08277 0.32474
 C1154 C 0.39010 1.10990 0.23278
 C1155 C 0.40968 1.20120 0.40998
 H1156 H 0.41711 1.17542 0.41736
 C1157 C 0.38989 1.26739 0.39026
 C1158 C 0.58981 0.79924 0.41013
 H1159 H 0.58241 0.82503 0.41752
 C1160 C 0.60956 0.73300 0.39040
 C1161 C 0.70076 0.91019 0.41013
 H1162 H 0.67497 0.91759 0.41752
 C1163 C 0.76700 0.89044 0.39040
 C1164 C 0.29880 1.09032 0.40997
 H1165 H 0.32458 1.08289 0.41736
 C1166 C 0.23261 1.11011 0.39026
 C1167 C 0.58991 1.09021 0.29900
 H1168 H 0.58246 1.08281 0.32477
 C1169 C 0.60978 1.10996 0.23285
 C1170 C 0.40979 0.91009 0.29900
 H1171 H 0.41719 0.91753 0.32477
 C1172 C 0.39004 0.89022 0.23285
 C1173 C 0.70080 1.09046 0.40983
 H1174 H 0.67502 1.08308 0.41725
 C1175 C 0.76700 1.11017 0.39005
 C1176 C 0.29861 0.91032 0.40992
 H1177 H 0.32442 0.91763 0.41728
 C1178 C 0.23234 0.89078 0.39029
 C1179 C 0.58967 1.20139 0.40992
 H1180 H 0.58237 1.17558 0.41728
 C1181 C 0.60922 1.26765 0.39029
 C1182 C 0.40954 0.79920 0.40983
 H1183 H 0.41692 0.82498 0.41725
 C1184 C 0.38983 0.73300 0.39005
 O1185 O 0.46620 0.37606 0.82912
 O1186 O 0.46632 0.33615 0.78891
 C1187 C 0.45459 0.36408 0.80108
 C1188 C 0.42679 0.38261 0.78288
 C1189 C 0.41674 0.37288 0.74960
 H1190 H 0.42985 0.35207 0.73651
 O1191 O 0.53235 0.62311 0.82854
 O1192 O 0.53231 0.66292 0.78828
 C1193 C 0.54398 0.63501 0.80045
 C1194 C 0.57187 0.61653 0.78230
 C1195 C 0.58205 0.62635 0.74909
 H1196 H 0.56885 0.64704 0.73596
 O1197 O 0.32848 0.46645 0.87627
 O1198 O 0.28819 0.46630 0.83650
 C1199 C 0.30043 0.45476 0.86444
 C1200 C 0.28227 0.42709 0.88312
 C1201 C 0.24897 0.41708 0.87352
 H1202 H 0.23587 0.43015 0.85272
 O1203 O 0.67090 0.53363 0.87620
 O1204 O 0.71111 0.53358 0.83629
 C1205 C 0.69900 0.54519 0.86430
 C1206 C 0.71737 0.57270 0.88308
 C1207 C 0.75060 0.58287 0.87325
 H1208 H 0.76350 0.57010 0.85212
 O1209 O 0.37583 0.32898 0.96666
 O1210 O 0.33597 0.28878 0.96667
 C1211 C 0.36391 0.30094 0.95500
 C1212 C 0.38251 0.28273 0.92723
 C1213 C 0.37279 0.24948 0.91709
 H1214 H 0.35194 0.23642 0.93012
 O1215 O 0.62366 0.66924 0.96723
 O1216 O 0.66380 0.70916 0.96673
 C1217 C 0.63597 0.69682 0.95497
 C1218 C 0.61863 0.71397 0.92582
 C1219 C 0.63383 0.74266 0.91014
 H1220 H 0.65754 0.75325 0.92017
 O1221 O 0.37511 0.53331 0.82879
 O1222 O 0.33512 0.53319 0.78872
 C1223 C 0.36307 0.54489 0.80077
 C1224 C 0.38156 0.57263 0.78253
 C1225 C 0.37184 0.58278 0.74928
 H1226 H 0.35101 0.56975 0.73620
 O1227 O 0.62376 0.46667 0.82924
 O1228 O 0.66367 0.46658 0.78902
 C1229 C 0.63571 0.45498 0.80119
 C1230 C 0.61709 0.42727 0.78297
 C1231 C 0.62681 0.41721 0.74967
 H1232 H 0.64766 0.43024 0.73661
 O1233 O 0.53329 0.32916 0.87619
 O1234 O 0.53341 0.28896 0.83628
 C1235 C 0.54501 0.30113 0.86424
 C1236 C 0.57276 0.28293 0.88281
 C1237 C 0.58292 0.24968 0.87302
 H1238 H 0.56992 0.23663 0.85215
 O1239 O 0.46572 0.67054 0.87588
 O1240 O 0.46612 0.71091 0.83619
 C1241 C 0.45435 0.69876 0.86408
 C1242 C 0.42675 0.71716 0.88275
 C1243 C 0.41668 0.75042 0.87297
 H1244 H 0.42970 0.76339 0.85206
 O1245 O 0.32868 0.62403 0.96662
 O1246 O 0.28850 0.66396 0.96672
 C1247 C 0.30063 0.63599 0.95503
 C1248 C 0.28236 0.61740 0.92732
 C1249 C 0.24910 0.62719 0.91725
 H1250 H 0.23608 0.64810 0.93027
 O1251 O 0.67082 0.37621 0.96678
 O1252 O 0.71103 0.33630 0.96666
 C1253 C 0.69886 0.36427 0.95508
 C1254 C 0.71707 0.38288 0.92736
 C1255 C 0.75036 0.37318 0.91728
 H1256 H 0.76345 0.35236 0.93033
 O1257 O 0.46535 0.62329 0.82889
 O1258 O 0.46542 0.66339 0.78891
 C1259 C 0.45371 0.63543 0.80094
 C1260 C 0.42595 0.61702 0.78266
 C1261 C 0.41591 0.62684 0.74941
 H1262 H 0.42899 0.64769 0.73642
 O1263 O 0.53322 0.37621 0.82918
 O1264 O 0.53334 0.33630 0.78897
 C1265 C 0.54492 0.36427 0.80114
 C1266 C 0.57264 0.38288 0.78294
 C1267 C 0.58272 0.37318 0.74964
 H1268 H 0.56967 0.35236 0.73656
 O1269 O 0.67077 0.46667 0.87624
 O1270 O 0.71098 0.46658 0.83634
 C1271 C 0.69881 0.45498 0.86430
 C1272 C 0.71703 0.42727 0.88291
 C1273 C 0.75033 0.41721 0.87319
 H1274 H 0.76339 0.43024 0.85235
 O1275 O 0.32849 0.53343 0.87624
 O1276 O 0.28819 0.53332 0.83648
 C1277 C 0.30042 0.54505 0.86436
 C1278 C 0.28225 0.57287 0.88295
 C1279 C 0.24900 0.58302 0.87324
 H1280 H 0.23592 0.56996 0.85242
 O1281 O 0.37570 0.67108 0.96660
 O1282 O 0.33582 0.71132 0.96670
 C1283 C 0.36375 0.69914 0.95500
 C1284 C 0.38234 0.71733 0.92724
 C1285 C 0.37261 0.75059 0.91710
 H1286 H 0.35176 0.76369 0.93014
 O1287 O 0.62381 0.32916 0.96671
 O1288 O 0.66372 0.28896 0.96659
 C1289 C 0.63576 0.30113 0.95499
 C1290 C 0.61719 0.28293 0.92724
 C1291 C 0.62698 0.24968 0.91708
 H1292 H 0.64785 0.23663 0.93008
 O1293 O 0.62380 0.53363 0.82910
 O1294 O 0.66371 0.53358 0.78889
 C1295 C 0.63570 0.54519 0.80100
 C1296 C 0.61692 0.57270 0.78263
 C1297 C 0.62675 0.58288 0.74940
 H1298 H 0.64788 0.57010 0.73650
 O1299 O 0.37551 0.46636 0.82920
 O1300 O 0.33553 0.46619 0.78912
 C1301 C 0.36355 0.45463 0.80121
 C1302 C 0.38220 0.42692 0.78297
 C1303 C 0.37251 0.41683 0.74970
 H1304 H 0.35162 0.42983 0.73667
 O1305 O 0.53277 0.66924 0.87635
 O1306 O 0.53327 0.70916 0.83620
 C1307 C 0.54503 0.69682 0.86403
 C1308 C 0.57419 0.71397 0.88137
 C1309 C 0.58987 0.74266 0.86617
 H1310 H 0.57983 0.75325 0.84246
 O1311 O 0.46628 0.32905 0.87617
 O1312 O 0.46639 0.28884 0.83625
 C1313 C 0.45469 0.30099 0.86421
 C1314 C 0.42697 0.28275 0.88278
 C1315 C 0.41689 0.24949 0.87300
 H1316 H 0.42994 0.23645 0.85213
 O1317 O 0.67146 0.62311 0.96765
 O1318 O 0.71172 0.66292 0.96769
 C1319 C 0.69955 0.63501 0.95602
 C1320 C 0.71770 0.61653 0.92814
 C1321 C 0.75092 0.62635 0.91795
 H1322 H 0.76404 0.64704 0.93115
 O1323 O 0.32870 0.37598 0.96677
 O1324 O 0.28854 0.33609 0.96680
 C1325 C 0.30064 0.36405 0.95517
 C1326 C 0.28236 0.38267 0.92752
 C1327 C 0.24904 0.37301 0.91755
 H1328 H 0.23599 0.35218 0.93061
 Cu1329 Cu 0.49973 0.35666 0.85671
 Cu1330 Cu 0.49988 0.30870 0.80873
 Cu1331 Cu 0.49893 0.64250 0.85644
 Cu1332 Cu 0.49924 0.69057 0.80857
 Cu1333 Cu 0.35596 0.49991 0.85665
 Cu1334 Cu 0.30787 0.49972 0.80886
 Cu1335 Cu 0.64327 0.50020 0.85673
 Cu1336 Cu 0.69123 0.50009 0.80877
 C1337 C 0.40954 0.40983 0.79920
 H1338 H 0.41692 0.41725 0.82498
 C1339 C 0.38983 0.39005 0.73300
 C1340 C 0.58928 0.58951 0.79870
 H1341 H 0.58179 0.58206 0.82444
 C1342 C 0.60926 0.60947 0.73262
 C1343 C 0.29861 0.40991 0.91033
 H1344 H 0.32442 0.41728 0.91763
 C1345 C 0.23234 0.39029 0.89078
 C1346 C 0.70131 0.58951 0.91072
 H1347 H 0.67556 0.58206 0.91821
 C1348 C 0.76738 0.60947 0.89074
 C1349 C 0.40979 0.29900 0.91009
 H1350 H 0.41719 0.32477 0.91754
 C1351 C 0.39004 0.23285 0.89022
 C1352 C 0.58856 0.69997 0.91144
 H1353 H 0.57709 0.67738 0.92291
 C1354 C 0.61966 0.75672 0.88034
 C1355 C 0.40880 0.58975 0.79884
 H1356 H 0.41620 0.58229 0.82459
 C1357 C 0.38909 0.60965 0.73271
 C1358 C 0.58981 0.41013 0.79924
 H1359 H 0.58241 0.41752 0.82504
 C1360 C 0.60956 0.39040 0.73300
 C1361 C 0.58988 0.29919 0.91012
 H1362 H 0.58242 0.32495 0.91758
 C1363 C 0.60979 0.23305 0.89021
 C1364 C 0.40960 0.70099 0.91008
 H1365 H 0.41698 0.67522 0.91751
 C1366 C 0.38984 0.76714 0.89020
 C1367 C 0.29857 0.59005 0.91018
 H1368 H 0.32433 0.58258 0.91757
 C1369 C 0.23241 0.60994 0.89045
 C1370 C 0.70076 0.41013 0.91019
 H1371 H 0.67497 0.41752 0.91759
 C1372 C 0.76700 0.39040 0.89044
 O1373 O 0.53323 0.37598 1.17130
 O1374 O 0.53320 0.33609 1.21146
 C1375 C 0.54483 0.36405 1.19936
 C1376 C 0.57248 0.38267 1.21765
 C1377 C 0.58245 0.37301 1.25096
 H1378 H 0.56939 0.35218 1.26401
 O1379 O 0.46639 0.62399 1.17123
 O1380 O 0.46626 0.66391 1.21142
 C1381 C 0.45467 0.63595 1.19925
 C1382 C 0.42693 0.61735 1.21745
 C1383 C 0.41682 0.62709 1.25073
 H1384 H 0.42984 0.64794 1.26379
 O1385 O 0.32883 0.53353 1.12414
 O1386 O 0.28862 0.53362 1.16405
 C1387 C 0.30079 0.54522 1.13609
 C1388 C 0.28257 0.57294 1.11749
 C1389 C 0.24930 0.58304 1.12725
 H1390 H 0.23625 0.57002 1.14811
 O1391 O 0.67080 0.46636 1.12449
 O1392 O 0.71088 0.46619 1.16447
 C1393 C 0.69879 0.45463 1.13646
 C1394 C 0.71703 0.42692 1.11780
 C1395 C 0.75030 0.41683 1.12749
 H1396 H 0.76333 0.42983 1.14838
 O1397 O 0.62383 0.32905 1.03372
 O1398 O 0.66375 0.28884 1.03361
 C1399 C 0.63579 0.30099 1.04531
 C1400 C 0.61722 0.28275 1.07304
 C1401 C 0.62700 0.24949 1.08311
 H1402 H 0.64787 0.23645 1.07006
 O1403 O 0.37585 0.67096 1.03361
 O1404 O 0.33596 0.71119 1.03372
 C1405 C 0.36393 0.69901 1.04531
 C1406 C 0.38254 0.71722 1.07304
 C1407 C 0.37282 0.75051 1.08313
 H1408 H 0.35198 0.76357 1.07009
 O1409 O 0.37581 0.46653 1.17122
 O1410 O 0.33589 0.46661 1.21143
 C1411 C 0.36384 0.45492 1.19927
 C1412 C 0.38241 0.42717 1.21749
 C1413 C 0.37267 0.41712 1.25076
 H1414 H 0.35182 0.43019 1.26383
 O1415 O 0.62376 0.53343 1.17151
 O1416 O 0.66352 0.53332 1.21181
 C1417 C 0.63564 0.54506 1.19958
 C1418 C 0.61705 0.57287 1.21775
 C1419 C 0.62676 0.58302 1.25100
 H1420 H 0.64758 0.56996 1.26408
 O1421 O 0.46634 0.32896 1.12413
 O1422 O 0.46631 0.28875 1.16399
 C1423 C 0.45469 0.30091 1.13604
 C1424 C 0.42699 0.28269 1.11743
 C1425 C 0.41692 0.24942 1.12713
 H1426 H 0.42996 0.23637 1.14798
 O1427 O 0.53340 0.67108 1.12430
 O1428 O 0.53330 0.71132 1.16419
 C1429 C 0.54500 0.69914 1.13625
 C1430 C 0.57276 0.71733 1.11766
 C1431 C 0.58290 0.75059 1.12739
 H1432 H 0.56986 0.76369 1.14824
 O1433 O 0.32880 0.37601 1.03375
 O1434 O 0.28864 0.33611 1.03380
 C1435 C 0.30077 0.36407 1.04544
 C1436 C 0.28254 0.38269 1.07318
 C1437 C 0.24927 0.37299 1.08328
 H1438 H 0.23623 0.35213 1.07025
 O1439 O 0.67111 0.62329 1.03466
 O1440 O 0.71109 0.66339 1.03459
 C1441 C 0.69907 0.63543 1.04629
 C1442 C 0.71735 0.61702 1.07405
 C1443 C 0.75059 0.62684 1.08409
 H1444 H 0.76358 0.64769 1.07101
 O1445 O 0.53339 0.62403 1.17132
 O1446 O 0.53328 0.66396 1.21151
 C1447 C 0.54497 0.63599 1.19938
 C1448 C 0.57268 0.61740 1.21765
 C1449 C 0.58275 0.62719 1.25091
 H1450 H 0.56972 0.64810 1.26392
 O1451 O 0.46625 0.37601 1.17120
 O1452 O 0.46620 0.33611 1.21136
 C1453 C 0.45457 0.36407 1.19923
 C1454 C 0.42682 0.38269 1.21746
 C1455 C 0.41672 0.37299 1.25073
 H1456 H 0.42975 0.35213 1.26377
 O1457 O 0.67121 0.53331 1.12489
 O1458 O 0.71128 0.53319 1.16488
 C1459 C 0.69923 0.54489 1.13694
 C1460 C 0.71747 0.57263 1.11844
 C1461 C 0.75072 0.58278 1.12816
 H1462 H 0.76380 0.56975 1.14899
 O1463 O 0.32878 0.46653 1.12420
 O1464 O 0.28857 0.46661 1.16411
 C1465 C 0.30073 0.45492 1.13616
 C1466 C 0.28252 0.42717 1.11759
 C1467 C 0.24924 0.41712 1.12733
 H1468 H 0.23617 0.43019 1.14818
 O1469 O 0.62413 0.67054 1.03429
 O1470 O 0.66381 0.71091 1.03388
 C1471 C 0.63592 0.69876 1.04565
 C1472 C 0.61725 0.71716 1.07325
 C1473 C 0.62703 0.75042 1.08332
 H1474 H 0.64794 0.76339 1.07030
 O1475 O 0.37587 0.32896 1.03366
 O1476 O 0.33601 0.28875 1.03369
 C1477 C 0.36396 0.30091 1.04531
 C1478 C 0.38257 0.28269 1.07301
 C1479 C 0.37287 0.24942 1.08308
 H1480 H 0.35203 0.23637 1.07004
 O1481 O 0.62373 0.46645 1.17152
 O1482 O 0.66350 0.46630 1.21181
 C1483 C 0.63556 0.45476 1.19957
 C1484 C 0.61688 0.42709 1.21773
 C1485 C 0.62648 0.41708 1.25103
 H1486 H 0.64728 0.43015 1.26413
 O1487 O 0.37586 0.53353 1.17117
 O1488 O 0.33595 0.53362 1.21138
 C1489 C 0.36391 0.54522 1.19921
 C1490 C 0.38251 0.57294 1.21743
 C1491 C 0.37276 0.58304 1.25071
 H1492 H 0.35190 0.57002 1.26376
 O1493 O 0.46639 0.67096 1.12415
 O1494 O 0.46628 0.71119 1.16404
 C1495 C 0.45469 0.69901 1.13608
 C1496 C 0.42696 0.71722 1.11746
 C1497 C 0.41687 0.75051 1.12718
 H1498 H 0.42991 0.76357 1.14803
 O1499 O 0.53334 0.32898 1.12417
 O1500 O 0.53333 0.28878 1.16403
 C1501 C 0.54500 0.30094 1.13609
 C1502 C 0.57277 0.28273 1.11749
 C1503 C 0.58291 0.24948 1.12721
 H1504 H 0.56988 0.23642 1.14806
 O1505 O 0.67088 0.37606 1.03380
 O1506 O 0.71109 0.33615 1.03368
 C1507 C 0.69892 0.36408 1.04541
 C1508 C 0.71712 0.38261 1.07321
 C1509 C 0.75040 0.37288 1.08326
 H1510 H 0.76349 0.35207 1.07015
 O1511 O 0.32878 0.62399 1.03362
 O1512 O 0.28858 0.66391 1.03374
 C1513 C 0.30075 0.63595 1.04533
 C1514 C 0.28255 0.61735 1.07307
 C1515 C 0.24927 0.62709 1.08319
 H1516 H 0.23621 0.64795 1.07016
 Cu1517 Cu 0.49979 0.35652 1.14366
 Cu1518 Cu 0.49976 0.30857 1.19156
 Cu1519 Cu 0.49991 0.64347 1.14371
 Cu1520 Cu 0.49976 0.69146 1.19165
 Cu1521 Cu 0.35634 0.35652 1.00021
 Cu1522 Cu 0.30844 0.30857 1.00024
 Cu1523 Cu 0.64329 0.35666 1.00027
 Cu1524 Cu 0.69127 0.30870 1.00012
 Cu1525 Cu 0.35629 0.64347 1.00009
 Cu1526 Cu 0.30835 0.69146 1.00024
 Cu1527 Cu 0.64356 0.64250 1.00107
 Cu1528 Cu 0.69143 0.69057 1.00076
 Cu1529 Cu 0.35636 0.50002 1.14364
 Cu1530 Cu 0.30839 0.50013 1.19161
 Cu1531 Cu 0.64335 0.49991 1.14404
 Cu1532 Cu 0.69114 0.49972 1.19213
 C1533 C 0.58967 0.40992 1.20139
 H1534 H 0.58237 0.41728 1.17558
 C1535 C 0.60922 0.39029 1.26766
 C1536 C 0.40980 0.59008 1.20117
 H1537 H 0.41723 0.58266 1.17539
 C1538 C 0.38997 0.60988 1.26736
 C1539 C 0.29883 0.59008 1.09020
 H1540 H 0.32461 0.58266 1.08277
 C1541 C 0.23264 0.60988 1.11003
 C1542 C 0.70080 0.40983 1.09046
 H1543 H 0.67502 0.41725 1.08308
 C1544 C 0.76700 0.39005 1.11017
 C1545 C 0.58991 0.29900 1.09021
 H1546 H 0.58246 0.32477 1.08281
 C1547 C 0.60978 0.23285 1.10996
 C1548 C 0.40982 0.70093 1.09019
 H1549 H 0.41722 0.67514 1.08278
 C1550 C 0.39004 0.76715 1.10996
 C1551 C 0.40968 0.40997 1.20120
 H1552 H 0.41711 0.41736 1.17542
 C1553 C 0.38989 0.39026 1.26739
 C1554 C 0.58982 0.59005 1.20143
 H1555 H 0.58243 0.58258 1.17567
 C1556 C 0.60955 0.60994 1.26759
 C1557 C 0.40984 0.29896 1.09016
 H1558 H 0.41723 0.32474 1.08277
 C1559 C 0.39010 0.23278 1.10990
 C1560 C 0.58992 0.70099 1.09040
 H1561 H 0.58249 0.67522 1.08302
 C1562 C 0.60980 0.76714 1.11016
 C1563 C 0.29880 0.40997 1.09032
 H1564 H 0.32458 0.41736 1.08290
 C1565 C 0.23261 0.39026 1.11011
 C1566 C 0.70116 0.58975 1.09120
 H1567 H 0.67541 0.58229 1.08380
 C1568 C 0.76729 0.60965 1.11091
 C1569 C 1.12708 1.12748 1.33082
 C1570 C 1.11933 1.11973 1.30182
 C1571 C 1.12692 0.62744 0.83091
 C1572 C 1.11914 0.61970 0.80191
 C1573 C 0.62733 1.12755 0.83053
 C1574 C 0.61951 1.11978 0.80155
 C1575 C 0.62696 0.62739 1.33098
 C1576 C 0.61918 0.61961 1.30199
 C1577 C 0.87261 0.87304 1.33098
 C1578 C 0.88039 0.88082 1.30199
 C1579 C 0.87256 0.37309 0.83092
 C1580 C 0.88030 0.38086 0.80192
 C1581 C 0.37245 0.87267 0.83053
 C1582 C 0.38022 0.88049 0.80154
 C1583 C 0.37252 0.37292 1.33082
 C1584 C 0.38027 0.38067 1.30182
 C1585 C 0.87286 1.12805 0.66927
 C1586 C 0.88067 1.12041 0.69828
 C1587 C 0.87291 0.62709 0.17002
 C1588 C 0.88069 0.61931 0.19899
 C1589 C 0.37273 1.12727 0.16937
 C1590 C 0.38049 1.11951 0.19837
 C1591 C 0.37195 0.62714 0.66927
 C1592 C 0.37959 0.61933 0.69829
 C1593 C 1.12693 0.87305 0.66955
 C1594 C 1.11919 0.88082 0.69857
 C1595 C 1.12703 0.37297 0.16959
 C1596 C 1.11926 0.38074 0.19859
 C1597 C 0.62730 0.87270 0.16967
 C1598 C 0.61948 0.88052 0.19865
 C1599 C 0.62694 0.37307 0.66955
 C1600 C 0.61917 0.38081 0.69856
 C1601 C 1.33063 1.12727 1.12727
 C1602 C 1.30163 1.11951 1.11951
 C1603 C 1.32998 0.62709 0.62709
 C1604 C 1.30101 0.61931 0.61931
 C1605 C 0.83073 1.12805 0.62714
 C1606 C 0.80172 1.12041 0.61933
 C1607 C 0.83073 0.62714 1.12805
 C1608 C 0.80172 0.61933 1.12041
 C1609 C 1.33033 0.87270 0.87270
 C1610 C 1.30135 0.88052 0.88052
 C1611 C 1.33041 0.37297 0.37297
 C1612 C 1.30141 0.38074 0.38075
 C1613 C 0.83045 0.87305 0.37307
 C1614 C 0.80144 0.88082 0.38081
 C1615 C 0.83045 0.37307 0.87306
 C1616 C 0.80144 0.38081 0.88083
 C1617 C 0.66947 0.87267 1.12755
 C1618 C 0.69845 0.88049 1.11978
 C1619 C 0.66908 0.37309 0.62744
 C1620 C 0.69809 0.38086 0.61970
 C1621 C 0.16902 0.87304 0.62739
 C1622 C 0.19801 0.88082 0.61961
 C1623 C 0.16918 0.37292 1.12748
 C1624 C 0.19819 0.38067 1.11973
 C1625 C 0.66947 1.12755 0.87267
 C1626 C 0.69845 1.11978 0.88049
 C1627 C 0.66908 0.62744 0.37309
 C1628 C 0.69809 0.61970 0.38086
 C1629 C 0.16918 1.12748 0.37292
 C1630 C 0.19819 1.11973 0.38067
 C1631 C 0.16902 0.62739 0.87304
 C1632 C 0.19801 0.61961 0.88082
 C1633 C 1.12708 1.33082 1.12748
 C1634 C 1.11933 1.30181 1.11973
 C1635 C 1.12692 0.83091 0.62744
 C1636 C 1.11914 0.80191 0.61970
 C1637 C 0.62696 1.33098 0.62739
 C1638 C 0.61917 1.30199 0.61961
 C1639 C 0.62733 0.83053 1.12755
 C1640 C 0.61951 0.80154 1.11978
 C1641 C 0.87261 1.33098 0.87305
 C1642 C 0.88039 1.30199 0.88083
 C1643 C 0.87256 0.83091 0.37309
 C1644 C 0.88030 0.80191 0.38086
 C1645 C 0.37252 1.33082 0.37292
 C1646 C 0.38027 1.30182 0.38067
 C1647 C 0.37245 0.83053 0.87267
 C1648 C 0.38022 0.80154 0.88049
 C1649 C 1.12693 0.66955 0.87306
 C1650 C 1.11919 0.69856 0.88083
 C1651 C 1.12703 0.16959 0.37297
 C1652 C 1.11926 0.19859 0.38074
 C1653 C 0.62694 0.66955 0.37307
 C1654 C 0.61917 0.69856 0.38081
 C1655 C 0.62730 0.16967 0.87270
 C1656 C 0.61948 0.19865 0.88052
 C1657 C 0.87286 0.66927 1.12805
 C1658 C 0.88067 0.69828 1.12041
 C1659 C 0.87291 0.17001 0.62709
 C1660 C 0.88069 0.19899 0.61931
 C1661 C 0.37195 0.66927 0.62714
 C1662 C 0.37959 0.69828 0.61933
 C1663 C 0.37273 0.16937 1.12727
 C1664 C 0.38049 0.19837 1.11951
 C1665 C 1.12722 1.12752 0.66955
 C1666 C 1.11952 1.11976 0.69856
 C1667 C 1.12713 0.62743 0.16963
 C1668 C 1.11936 0.61968 0.19863
 C1669 C 0.62724 1.12734 0.16945
 C1670 C 0.61945 1.11958 0.19844
 C1671 C 0.62683 0.62715 0.66931
 C1672 C 0.61899 0.61925 0.69827
 C1673 C 0.87285 0.87317 0.66931
 C1674 C 0.88075 0.88100 0.69827
 C1675 C 0.87256 0.37287 0.16964
 C1676 C 0.88032 0.38063 0.19864
 C1677 C 0.37266 0.87276 0.16944
 C1678 C 0.38043 0.88055 0.19844
 C1679 C 0.37248 0.37278 0.66955
 C1680 C 0.38024 0.38048 0.69856
 C1681 C 1.12687 0.87338 1.33109
 C1682 C 1.11922 0.88119 1.30209
 C1683 C 1.12690 0.37310 0.83118
 C1684 C 1.11919 0.38081 0.80215
 C1685 C 0.65417 0.84583 0.80370
 C1686 C 0.63797 0.86203 0.78294
 C1687 C 0.62662 0.37313 1.33109
 C1688 C 0.61881 0.38078 1.30209
 C1689 C 0.87266 1.12749 1.33076
 C1690 C 0.88047 1.11969 1.30177
 C1691 C 0.87271 0.62729 0.83093
 C1692 C 0.88043 0.61957 0.80189
 C1693 C 0.37266 1.12734 0.83060
 C1694 C 0.38042 1.11958 0.80159
 C1695 C 0.37252 0.62733 1.33076
 C1696 C 0.38031 0.61953 1.30177
 C1697 C 1.12687 1.33109 0.87338
 C1698 C 1.11922 1.30209 0.88119
 C1699 C 1.12690 0.83118 0.37311
 C1700 C 1.11919 0.80215 0.38081
 C1701 C 0.62662 1.33109 0.37313
 C1702 C 0.61881 1.30209 0.38078
 C1703 C 0.65417 0.80370 0.84584
 C1704 C 0.63797 0.78294 0.86203
 C1705 C 0.87266 1.33075 1.12749
 C1706 C 0.88047 1.30176 1.11970
 C1707 C 0.87271 0.83092 0.62729
 C1708 C 0.88043 0.80189 0.61957
 C1709 C 0.37252 1.33076 0.62734
 C1710 C 0.38031 1.30177 0.61953
 C1711 C 0.37266 0.83060 1.12734
 C1712 C 0.38042 0.80159 1.11958
 C1713 C 0.87285 0.66931 0.87318
 C1714 C 0.88075 0.69827 0.88101
 C1715 C 0.87256 0.16963 0.37287
 C1716 C 0.88032 0.19863 0.38064
 C1717 C 0.37248 0.66954 0.37279
 C1718 C 0.38024 0.69856 0.38048
 C1719 C 0.37266 0.16944 0.87276
 C1720 C 0.38043 0.19844 0.88055
 C1721 C 1.12721 0.66954 1.12752
 C1722 C 1.11952 0.69856 1.11976
 C1723 C 1.12713 0.16963 0.62744
 C1724 C 1.11936 0.19863 0.61968
 C1725 C 0.62683 0.66931 0.62715
 C1726 C 0.61899 0.69827 0.61926
 C1727 C 0.62724 0.16945 1.12734
 C1728 C 0.61945 0.19844 1.11958
 C1729 C 1.33056 1.12734 0.87276
 C1730 C 1.30156 1.11957 0.88055
 C1731 C 1.33037 0.62743 0.37287
 C1732 C 1.30137 0.61967 0.38064
 C1733 C 0.83045 1.12752 0.37278
 C1734 C 0.80144 1.11976 0.38048
 C1735 C 0.83069 0.62715 0.87318
 C1736 C 0.80173 0.61925 0.88101
 C1737 C 1.33056 0.87276 1.12734
 C1738 C 1.30157 0.88055 1.11957
 C1739 C 1.33037 0.37287 0.62743
 C1740 C 1.30137 0.38064 0.61968
 C1741 C 0.83069 0.87317 0.62715
 C1742 C 0.80173 0.88100 0.61926
 C1743 C 0.83045 0.37278 1.12753
 C1744 C 0.80144 0.38048 1.11976
 C1745 C 0.66940 1.12734 1.12734
 C1746 C 0.69841 1.11958 1.11958
 C1747 C 0.66908 0.62729 0.62729
 C1748 C 0.69811 0.61957 0.61957
 C1749 C 0.16924 1.12749 0.62734
 C1750 C 0.19823 1.11969 0.61953
 C1751 C 0.16924 0.62733 1.12748
 C1752 C 0.19823 0.61953 1.11969
 C1753 C 0.69630 0.84583 0.84584
 C1754 C 0.71706 0.86203 0.86203
 C1755 C 0.66882 0.37310 0.37310
 C1756 C 0.69786 0.38080 0.38081
 C1757 C 0.16891 0.87338 0.37313
 C1758 C 0.19791 0.88119 0.38078
 C1759 C 0.16891 0.37313 0.87338
 C1760 C 0.19791 0.38078 0.88119
   
