data_POSCAR
  _audit_creation_date              2014-09-24
  _audit_creation_method            'ToBaCCo'
  _symmetry_space_group_name_H-M    'P1'
  _symmetry_Int_Tables_number       1
  _symmetry_cell_setting            triclinic
  loop_
  _symmetry_equiv_pos_as_xyz
 x,y,z
_cell_length_a 51.1967
_cell_length_b 51.1472
_cell_length_c 50.5936
_cell_angle_alpha 87.488200
_cell_angle_beta 88.958800
_cell_angle_gamma 89.752800
loop_
  _atom_site_label
  _atom_site_type_symbol
  _atom_site_fract_x
  _atom_site_fract_y
  _atom_site_fract_z
C1 C 0.75191 0.62280 1.02541
 C2 C 0.76505 0.63592 1.00419
 C3 C 0.78893 0.64834 1.00849
 C4 C 0.79938 0.64788 1.03395
 C5 C 0.78626 0.63450 1.05498
 C6 C 0.76261 0.62185 1.05069
 C7 C 0.75383 0.63622 0.97753
 C8 C 0.72831 0.64555 0.97341
 C9 C 0.71725 0.64473 0.94835
 C10 C 0.73149 0.63416 0.92744
 C11 C 0.75682 0.62459 0.93150
 C12 C 0.76810 0.62592 0.95641
 H13 H 0.73359 0.61299 1.02207
 H14 H 0.79904 0.65867 0.99218
 H15 H 0.71714 0.65344 0.98966
 H16 H 0.78758 0.61815 0.95962
 H17 H 0.79440 0.63401 1.07467
 H18 H 0.72273 0.63305 0.90816
 C19 C 0.74953 0.39915 0.46592
 C20 C 0.76156 0.38761 0.48827
 C21 C 0.78642 0.37615 0.48560
 C22 C 0.79896 0.37599 0.46076
 C23 C 0.78693 0.38778 0.43861
 C24 C 0.76228 0.39946 0.44121
 C25 C 0.74817 0.38761 0.51436
 C26 C 0.72287 0.37728 0.51776
 C27 C 0.71047 0.37692 0.54270
 C28 C 0.72309 0.38737 0.56415
 C29 C 0.74817 0.39790 0.56082
 C30 C 0.76077 0.39782 0.53604
 H31 H 0.73042 0.40815 0.46786
 H32 H 0.79570 0.36690 0.50271
 H33 H 0.71318 0.36894 0.50123
 H34 H 0.78025 0.40590 0.53355
 H35 H 0.79661 0.38768 0.41936
 H36 H 0.71356 0.38699 0.58349
 C37 C 0.25194 -0.10468 -0.03695
 C38 C 0.26341 -0.11726 -0.01484
 C39 C 0.28797 -0.12930 -0.01758
 C40 C 0.30076 -0.12905 -0.04234
 C41 C 0.28927 -0.11621 -0.06428
 C42 C 0.26493 -0.10393 -0.06155
 C43 C 0.24960 -0.11798 0.01104
 C44 C 0.22415 -0.12806 0.01355
 C45 C 0.21112 -0.12886 0.03818
 C46 C 0.22332 -0.11906 0.06025
 C47 C 0.24857 -0.10876 0.05777
 C48 C 0.26178 -0.10847 0.03329
 H49 H 0.23302 -0.09529 -0.03494
 H50 H 0.29672 -0.13938 -0.00061
 H51 H 0.21476 -0.13569 -0.00354
 H52 H 0.28135 -0.10048 0.03143
 H53 H 0.29905 -0.11601 -0.08350
 H54 H 0.21327 -0.11952 0.07933
 C55 C 0.25132 0.12458 0.52371
 C56 C 0.26451 0.13621 0.50169
 C57 C 0.28972 0.14635 0.50462
 C58 C 0.30144 0.14506 0.52947
 C59 C 0.28824 0.13316 0.55128
 C60 C 0.26327 0.12279 0.54837
 C61 C 0.25215 0.13686 0.47555
 C62 C 0.22721 0.14797 0.47221
 C63 C 0.21509 0.14754 0.44764
 C64 C 0.22763 0.13558 0.42648
 C65 C 0.25236 0.12425 0.42978
 C66 C 0.26473 0.12518 0.45417
 H67 H 0.23204 0.11635 0.52149
 H68 H 0.30002 0.15539 0.48770
 H69 H 0.21736 0.15700 0.48865
 H70 H 0.28374 0.11610 0.45678
 H71 H 0.29744 0.13184 0.57044
 H72 H 0.21808 0.13489 0.40757
 C73 C 0.11218 0.54277 0.23807
 C74 C 0.12119 0.51990 0.25137
 C75 C 0.13151 0.52139 0.27683
 C76 C 0.13295 0.54556 0.28872
 C77 C 0.12365 0.56823 0.27543
 C78 C 0.11313 0.56684 0.25018
 C79 C 0.11898 0.49444 0.23892
 C80 C 0.12919 0.49109 0.21329
 C81 C 0.12664 0.46701 0.20144
 C82 C 0.11347 0.44638 0.21494
 C83 C 0.10306 0.44967 0.24034
 C84 C 0.10604 0.47355 0.25241
 H85 H 0.10379 0.54164 0.21861
 H86 H 0.13854 0.50383 0.28723
 H87 H 0.13936 0.50705 0.20279
 H88 H 0.09789 0.47605 0.27208
 H89 H 0.12444 0.58687 0.28484
 H90 H 0.11142 0.42776 0.20573
 C91 C -0.11125 -0.03015 0.24799
 C92 C -0.12366 -0.00976 0.26106
 C93 C -0.13471 -0.01465 0.28643
 C94 C -0.13360 -0.03987 0.29843
 C95 C -0.12091 -0.06005 0.28533
 C96 C -0.10965 -0.05517 0.26020
 C97 C -0.12501 0.01662 0.24813
 C98 C -0.13687 0.02041 0.22341
 C99 C -0.13797 0.04549 0.21112
 C100 C -0.12669 0.06671 0.22326
 C101 C -0.11462 0.06295 0.24775
 C102 C -0.11405 0.03801 0.26029
 H103 H -0.10259 -0.02645 0.22847
 H104 H -0.14463 0.00099 0.29644
 H105 H -0.14558 0.00395 0.21408
 H106 H -0.10466 0.03514 0.27924
 H107 H -0.12003 -0.07961 0.29451
 H108 H -0.12738 0.08614 0.21377
 C109 C 0.38923 0.45998 0.74141
 C110 C 0.37681 0.48050 0.75430
 C111 C 0.36535 0.47569 0.77949
 C112 C 0.36607 0.45049 0.79153
 C113 C 0.37878 0.43018 0.77864
 C114 C 0.39046 0.43495 0.75367
 C115 C 0.37596 0.50696 0.74149
 C116 C 0.36466 0.51108 0.71654
 C117 C 0.36367 0.53632 0.70464
 C118 C 0.37449 0.55739 0.71738
 C119 C 0.38600 0.55333 0.74211
 C120 C 0.38650 0.52821 0.75425
 H121 H 0.39824 0.46362 0.72204
 H122 H 0.35546 0.49143 0.78936
 H123 H 0.35617 0.49480 0.70673
 H124 H 0.39538 0.52512 0.77343
 H125 H 0.37941 0.41064 0.78788
 H126 H 0.37375 0.57693 0.70819
 C127 C 0.61127 1.03088 0.75039
 C128 C 0.62134 1.00868 0.76400
 C129 C 0.63097 1.01089 0.78966
 C130 C 0.63074 1.03522 0.80142
 C131 C 0.62037 1.05723 0.78777
 C132 C 0.61053 1.05502 0.76235
 C133 C 0.62128 0.98318 0.75145
 C134 C 0.63340 0.98039 0.72656
 C135 C 0.63290 0.95625 0.71454
 C136 C 0.61987 0.93500 0.72710
 C137 C 0.60756 0.93772 0.75174
 C138 C 0.60849 0.96168 0.76404
 H139 H 0.60354 1.02923 0.73072
 H140 H 0.63889 0.99380 0.80020
 H141 H 0.64348 0.99684 0.71682
 H142 H 0.59889 0.96376 0.78312
 H143 H 0.61993 1.07605 0.79687
 H144 H 0.61943 0.91632 0.71776
 C145 C -0.03733 0.22992 -0.10768
 C146 C -0.01532 0.24247 -0.11919
 C147 C -0.01801 0.26736 -0.13178
 C148 C -0.04259 0.27948 -0.13305
 C149 C -0.06441 0.26696 -0.12123
 C150 C -0.06178 0.24230 -0.10843
 C151 C 0.01057 0.22982 -0.11762
 C152 C 0.01518 0.20573 -0.12924
 C153 C 0.04009 0.19422 -0.12823
 C154 C 0.06020 0.20648 -0.11504
 C155 C 0.05558 0.23032 -0.10319
 C156 C 0.03089 0.24208 -0.10471
 H157 H -0.03530 0.21083 -0.09774
 H158 H -0.00105 0.27702 -0.14083
 H159 H -0.00038 0.19643 -0.13960
 H160 H 0.02741 0.26066 -0.09571
 H161 H -0.08345 0.27635 -0.12200
 H162 H 0.07954 0.19772 -0.11431
 C163 C 0.52709 0.25077 0.11678
 C164 C 0.50621 0.26346 0.12929
 C165 C 0.51020 0.28804 0.13990
 C166 C 0.53501 0.29957 0.13829
 C167 C 0.55567 0.28686 0.12555
 C168 C 0.55169 0.26253 0.11471
 C169 C 0.48041 0.25073 0.13138
 C170 C 0.47795 0.22555 0.14340
 C171 C 0.45368 0.21300 0.14452
 C172 C 0.43188 0.22537 0.13318
 C173 C 0.43426 0.25037 0.12096
 C174 C 0.45841 0.26317 0.12037
 H175 H 0.52411 0.23183 0.10852
 H176 H 0.49426 0.29778 0.14993
 H177 H 0.49488 0.21582 0.15191
 H178 H 0.46029 0.28242 0.11067
 H179 H 0.57489 0.29572 0.12438
 H180 H 0.41317 0.21548 0.13365
 C181 C 1.03490 0.74958 0.61636
 C182 C 1.01394 0.76196 0.62902
 C183 C 1.01765 0.78656 0.63968
 C184 C 1.04233 0.79843 0.63797
 C185 C 1.06309 0.78600 0.62503
 C186 C 1.05933 0.76166 0.61415
 C187 C 0.98832 0.74890 0.63110
 C188 C 0.98613 0.72382 0.64341
 C189 C 0.96206 0.71089 0.64441
 C190 C 0.94021 0.72278 0.63267
 C191 C 0.94234 0.74768 0.62015
 C192 C 0.96628 0.76085 0.61967
 H193 H 1.03210 0.73063 0.60803
 H194 H 1.00157 0.79604 0.64977
 H195 H 1.00311 0.71446 0.65222
 H196 H 0.96797 0.78002 0.60976
 H197 H 1.08222 0.79507 0.62369
 H198 H 0.92164 0.71262 0.63308
 C199 C 0.46813 0.73364 0.39362
 C200 C 0.48985 0.74673 0.38217
 C201 C 0.48662 0.77163 0.36976
 C202 C 0.46177 0.78317 0.36858
 C203 C 0.44024 0.77012 0.38033
 C204 C 0.44342 0.74544 0.39295
 C205 C 0.51590 0.73435 0.38322
 C206 C 0.52044 0.71038 0.37138
 C207 C 0.54531 0.69886 0.37214
 C208 C 0.56553 0.71097 0.38527
 C209 C 0.56100 0.73472 0.39735
 C210 C 0.53631 0.74652 0.39608
 H211 H 0.47055 0.71447 0.40331
 H212 H 0.50328 0.78170 0.36062
 H213 H 0.50483 0.70107 0.36111
 H214 H 0.53286 0.76498 0.40533
 H215 H 0.42101 0.77906 0.37947
 H216 H 0.58480 0.70209 0.38585
 C217 C 0.41895 -0.03469 0.26870
 H218 H 0.43069 -0.01817 0.26177
 C219 C 0.43093 -0.05682 0.28055
 H220 H 0.45193 -0.05723 0.28268
 C221 C 0.37737 -0.05467 0.27387
 H222 H 0.35647 -0.05364 0.27115
 C223 C 0.38847 -0.07710 0.28557
 H224 H 0.37590 -0.09317 0.29212
 N225 N 0.39259 -0.03406 0.26573
 C226 C 0.39517 0.02630 0.20730
 H227 H 0.38304 0.01498 0.19488
 C228 C 0.40767 0.04853 0.19641
 H229 H 0.40501 0.05386 0.17569
 C230 C 0.41115 0.03460 0.24977
 H231 H 0.41165 0.02947 0.27073
 C232 C 0.42391 0.05713 0.23970
 H233 H 0.43467 0.06895 0.25297
 Zn234 Zn 0.37428 -0.00589 0.24915
 N235 N 0.39673 0.02001 0.23362
 C236 C 0.33972 0.03272 0.26627
 N237 N 0.35312 0.01089 0.27437
 C238 C 0.35310 0.00250 0.30026
 C239 C 0.33912 0.01621 0.31915
 C240 C 0.32551 0.04706 0.28452
 C241 C 0.36655 -0.03499 0.20488
 C242 C 0.35290 -0.04676 0.18501
 C243 C 0.31287 -0.02870 0.20266
 C244 C 0.32732 -0.01727 0.22226
 N245 N 0.35371 -0.02037 0.22281
 H246 H 0.34043 0.03920 0.24562
 H247 H 0.36443 -0.01446 0.30646
 H248 H 0.33985 0.00955 0.33973
 H249 H 0.31492 0.06437 0.27769
 H250 H 0.38752 -0.03735 0.20599
 H251 H 0.36360 -0.05787 0.17062
 H252 H 0.29186 -0.02619 0.20257
 H253 H 0.31741 -0.00608 0.23706
 C254 C 0.42170 0.06468 0.21278
 C255 C 0.41558 -0.07847 0.28894
 C256 C 0.32569 -0.04366 0.18367
 C257 C 0.32523 0.03893 0.31140
 C258 C 0.09876 1.02238 0.78008
 H259 H 0.09812 1.00227 0.78763
 C260 C 0.08621 1.04198 0.79412
 H261 H 0.07589 1.03677 0.81245
 C262 C 0.11478 1.05389 0.74818
 H263 H 0.12658 1.05875 0.73080
 C264 C 0.10251 1.07397 0.76145
 H265 H 0.10453 1.09392 0.75360
 N266 N 0.11308 1.02870 0.75781
 C267 C 0.13029 0.95924 0.71347
 H268 H 0.15109 0.96245 0.71111
 C269 C 0.11893 0.93759 0.70264
 H270 H 0.13111 0.92435 0.69166
 C271 C 0.08930 0.97284 0.73069
 H272 H 0.07796 0.98662 0.74180
 C273 C 0.07703 0.95135 0.72001
 H274 H 0.05623 0.94857 0.72312
 Zn275 Zn 0.13475 1.00300 0.74258
 N276 N 0.11557 0.97602 0.72762
 C277 C 0.15548 0.96212 0.77547
 N278 N 0.15602 0.98835 0.76977
 C279 C 0.17072 1.00454 0.78405
 C280 C 0.18612 0.99436 0.80462
 C281 C 0.17059 0.95114 0.79578
 C282 C 0.14284 1.02730 0.69279
 C283 C 0.15657 1.03967 0.67175
 C284 C 0.19636 1.03347 0.69624
 C285 C 0.18185 1.02118 0.71684
 N286 N 0.15550 1.01874 0.71494
 H287 H 0.14310 0.94960 0.76456
 H288 H 0.17044 1.02539 0.77943
 H289 H 0.19794 1.00749 0.81556
 H290 H 0.16959 0.93025 0.80018
 H291 H 0.12191 1.02486 0.69170
 H292 H 0.14598 1.04697 0.65461
 H293 H 0.21731 1.03526 0.69807
 H294 H 0.19166 1.01369 0.73431
 C295 C 0.09205 0.93315 0.70621
 C296 C 0.08863 1.06828 0.78515
 C297 C 0.18368 1.04307 0.67339
 C298 C 0.18623 0.96728 0.81063
 C299 C 0.59815 0.52385 0.27994
 H300 H 0.59697 0.50383 0.28769
 C301 C 0.58642 0.54395 0.29392
 H302 H 0.57616 0.53921 0.31240
 C303 C 0.61484 0.55458 0.24761
 H304 H 0.62662 0.55891 0.23009
 C305 C 0.60338 0.57516 0.26082
 H306 H 0.60597 0.59497 0.25279
 N307 N 0.61245 0.52953 0.25750
 C308 C 0.62763 0.45874 0.21458
 H309 H 0.64856 0.46113 0.21242
 C310 C 0.61558 0.43734 0.20400
 H311 H 0.62735 0.42345 0.19343
 C312 C 0.58700 0.47423 0.23095
 H313 H 0.57607 0.48867 0.24160
 C314 C 0.57403 0.45304 0.22048
 H315 H 0.55310 0.45115 0.22330
 Zn316 Zn 0.63334 0.50304 0.24264
 N317 N 0.61341 0.47635 0.22819
 C318 C 0.65307 0.46227 0.27644
 N319 N 0.65426 0.48836 0.27007
 C320 C 0.66929 0.50456 0.28398
 C321 C 0.68435 0.49454 0.30488
 C322 C 0.66782 0.45144 0.29710
 C323 C 0.64195 0.52647 0.19254
 C324 C 0.65595 0.53839 0.17143
 C325 C 0.69561 0.53141 0.19596
 C326 C 0.68083 0.51958 0.21663
 N327 N 0.65443 0.51781 0.21476
 H328 H 0.64041 0.44978 0.26580
 H329 H 0.66951 0.52532 0.27884
 H330 H 0.69643 0.50768 0.31553
 H331 H 0.66629 0.43068 0.30205
 H332 H 0.62097 0.52454 0.19148
 H333 H 0.64551 0.54586 0.15426
 H334 H 0.71660 0.53276 0.19780
 H335 H 0.69049 0.51199 0.23415
 C336 C 0.58851 0.43404 0.20722
 C337 C 0.58962 0.57009 0.28472
 C338 C 0.68313 0.54123 0.17308
 C339 C 0.68376 0.46760 0.31162
 C340 C 0.92346 0.46350 0.77020
 H341 H 0.93603 0.47940 0.76332
 C342 C 0.93430 0.44059 0.78172
 H343 H 0.95528 0.43897 0.78365
 C344 C 0.88086 0.44583 0.77554
 H345 H 0.86002 0.44805 0.77300
 C346 C 0.89080 0.42269 0.78690
 H347 H 0.87741 0.40728 0.79339
 N348 N 0.89714 0.46563 0.76746
 C349 C 0.90202 0.52587 0.70907
 H350 H 0.88932 0.51499 0.69683
 C351 C 0.91514 0.54763 0.69797
 H352 H 0.91237 0.55300 0.67727
 C353 C 0.91884 0.53371 0.75131
 H354 H 0.91940 0.52864 0.77228
 C355 C 0.93223 0.55577 0.74101
 H356 H 0.94353 0.56729 0.75411
 Zn357 Zn 0.88015 0.49481 0.75118
 N358 N 0.90366 0.51961 0.73540
 C359 C 0.84769 0.53497 0.76883
 N360 N 0.86018 0.51251 0.77669
 C361 C 0.86010 0.50398 0.80253
 C362 C 0.84698 0.51818 0.82163
 C363 C 0.83430 0.54979 0.78730
 C364 C 0.87045 0.46608 0.70718
 C365 C 0.85608 0.45512 0.68735
 C366 C 0.81724 0.47565 0.70485
 C367 C 0.83239 0.48622 0.72444
 N368 N 0.85855 0.48151 0.72503
 H369 H 0.84855 0.54160 0.74823
 H370 H 0.87058 0.48640 0.80850
 H371 H 0.84703 0.51097 0.84207
 H372 H 0.82490 0.56787 0.78074
 H373 H 0.89124 0.46245 0.70832
 H374 H 0.86606 0.44333 0.67302
 H375 H 0.79642 0.47946 0.70470
 H376 H 0.82321 0.49803 0.73917
 C377 C 0.92989 0.56336 0.71411
 C378 C 0.91784 0.41975 0.79000
 C379 C 0.82911 0.45989 0.68595
 C380 C 0.83401 0.54153 0.81415
 C381 C 0.27565 0.40056 -0.02446
 H382 H 0.28205 0.40358 -0.00457
 C383 C 0.28972 0.41158 -0.04616
 H384 H 0.30691 0.42316 -0.04279
 C385 C 0.24665 0.38019 -0.05310
 H386 H 0.23038 0.36736 -0.05593
 C387 C 0.26005 0.39081 -0.07521
 H388 H 0.25340 0.38648 -0.09474
 N389 N 0.25474 0.38492 -0.02830
 C390 C 0.20600 0.37470 0.04283
 H391 H 0.20406 0.35368 0.04227
 C392 C 0.19252 0.38821 0.06209
 H393 H 0.18038 0.37738 0.07646
 C394 C 0.22492 0.41405 0.02510
 H395 H 0.23756 0.42394 0.01057
 C396 C 0.21193 0.42840 0.04435
 H397 H 0.21459 0.44939 0.04452
 Zn398 Zn 0.23906 0.36586 0.00082
 N399 N 0.22192 0.38763 0.02494
 C400 C 0.26959 0.35009 0.04473
 N401 N 0.26577 0.34677 0.01855
 C402 C 0.28179 0.33108 0.00442
 C403 C 0.30251 0.31780 0.01671
 C404 C 0.28999 0.33717 0.05778
 C405 C 0.19138 0.35485 -0.02136
 C406 C 0.17142 0.33986 -0.03125
 C407 C 0.19661 0.30091 -0.02044
 C408 C 0.21614 0.31670 -0.01066
 N409 N 0.21332 0.34319 -0.01165
 H410 H 0.25710 0.36311 0.05551
 H411 H 0.27857 0.32909 -0.01647
 H412 H 0.31494 0.30525 0.00520
 H413 H 0.29295 0.34048 0.07850
 H414 H 0.18959 0.37595 -0.02170
 H415 H 0.15442 0.34963 -0.03948
 H416 H 0.19912 0.27986 -0.01954
 H417 H 0.23349 0.30778 -0.00238
 C418 C 0.19546 0.41539 0.06313
 C419 C 0.28227 0.40621 -0.07196
 C420 C 0.17393 0.31251 -0.03101
 C421 C 0.30684 0.32081 0.04376
 C422 C 0.77303 0.09148 1.02905
 H423 H 0.78079 0.08995 1.00914
 C424 C 0.78672 0.08040 1.05052
 H425 H 0.80497 0.07027 1.04695
 C426 C 0.74103 0.10851 1.05808
 H427 H 0.72374 0.12015 1.06123
 C428 C 0.75393 0.09768 1.07996
 H429 H 0.74591 0.10063 1.09957
 N430 N 0.75092 0.10571 1.03323
 C431 C 0.70477 0.11952 0.96246
 H432 H 0.70259 0.14044 0.96407
 C433 C 0.69196 0.10695 0.94263
 H434 H 0.68010 0.11841 0.92887
 C435 C 0.72360 0.07947 0.97813
 H436 H 0.73596 0.06895 0.99209
 C437 C 0.71129 0.06606 0.95825
 H438 H 0.71417 0.04516 0.95703
 Zn439 Zn 0.73646 0.12618 1.00488
 N440 N 0.72028 0.10578 0.97963
 C441 C 0.76875 0.14383 0.96187
 N442 N 0.76403 0.14565 0.98827
 C443 C 0.77984 0.15988 1.00342
 C444 C 0.80136 0.17312 0.99202
 C445 C 0.78998 0.15677 0.94967
 C446 C 0.68778 0.13698 1.02707
 C447 C 0.66792 0.15170 1.03844
 C448 C 0.69441 0.19039 1.03087
 C449 C 0.71384 0.17487 1.01962
 N450 N 0.71039 0.14859 1.01843
 H451 H 0.75637 0.13195 0.95024
 H452 H 0.77590 0.16066 1.02445
 H453 H 0.81367 0.18445 1.00437
 H454 H 0.79366 0.15463 0.92874
 H455 H 0.68542 0.11610 1.02551
 H456 H 0.65014 0.14202 1.04530
 H457 H 0.69775 0.21115 1.03236
 H458 H 0.73178 0.18379 1.01226
 C459 C 0.69518 0.07991 0.94024
 C460 C 0.77754 0.08414 1.07644
 C461 C 0.67123 0.17872 1.04080
 C462 C 0.80670 0.17157 0.96479
 C463 C 0.27609 0.58892 0.52182
 H464 H 0.28429 0.58847 0.50199
 C465 C 0.28938 0.57679 0.54302
 H466 H 0.30777 0.56696 0.53930
 C467 C 0.24343 0.60433 0.55109
 H468 H 0.22604 0.61574 0.55449
 C469 C 0.25590 0.59240 0.57270
 H470 H 0.24747 0.59432 0.59231
 N471 N 0.25389 0.60290 0.52629
 C472 C 0.20883 0.62150 0.45568
 H473 H 0.20712 0.64231 0.45837
 C474 C 0.19595 0.61033 0.43502
 H475 H 0.18451 0.62275 0.42173
 C476 C 0.22659 0.58034 0.46944
 H477 H 0.23860 0.56885 0.48297
 C478 C 0.21418 0.56832 0.44871
 H479 H 0.21660 0.54749 0.44642
 Zn480 Zn 0.24033 0.62512 0.49878
 N481 N 0.22384 0.60654 0.47231
 C482 C 0.27352 0.64382 0.45694
 N483 N 0.26863 0.64442 0.48342
 C484 C 0.28471 0.65735 0.49947
 C485 C 0.30665 0.67051 0.48893
 C486 C 0.29522 0.65667 0.44560
 C487 C 0.19173 0.63664 0.52089
 C488 C 0.17236 0.65149 0.53290
 C489 C 0.20048 0.68927 0.52784
 C490 C 0.21938 0.67363 0.51591
 N491 N 0.21489 0.64770 0.51318
 H492 H 0.26080 0.63311 0.44453
 H493 H 0.28067 0.65707 0.52054
 H494 H 0.31947 0.68032 0.50207
 H495 H 0.29862 0.65612 0.42445
 H496 H 0.18854 0.61605 0.51811
 H497 H 0.15412 0.64224 0.53904
 H498 H 0.20465 0.70970 0.53058
 H499 H 0.23774 0.68217 0.50927
 C500 C 0.19858 0.58344 0.43124
 C501 C 0.27968 0.57921 0.56897
 C502 C 0.17675 0.67809 0.53687
 C503 C 0.31222 0.67013 0.46166
 C504 C 0.77999 0.90244 0.48220
 H505 H 0.78694 0.90443 0.50207
 C506 C 0.79328 0.91483 0.46071
 H507 H 0.81044 0.92639 0.46422
 C508 C 0.75040 0.88333 0.45327
 H509 H 0.73423 0.87044 0.45018
 C510 C 0.76298 0.89535 0.43137
 H511 H 0.75580 0.89202 0.41180
 N512 N 0.75921 0.88672 0.47808
 C513 C 0.71480 0.87067 0.55129
 H514 H 0.71354 0.84972 0.54946
 C515 C 0.70340 0.88218 0.57306
 H516 H 0.69304 0.86999 0.58778
 C517 C 0.73013 0.91183 0.53424
 H518 H 0.74084 0.92315 0.51912
 C519 C 0.71880 0.92428 0.55580
 H520 H 0.72092 0.94521 0.55727
 Zn521 Zn 0.74486 0.86565 0.50650
 N522 N 0.72836 0.88539 0.53277
 C523 C 0.77762 0.84882 0.54821
 N524 N 0.77256 0.84605 0.52217
 C525 C 0.78787 0.83061 0.50702
 C526 C 0.80887 0.81674 0.51819
 C527 C 0.79828 0.83532 0.56013
 C528 C 0.69660 0.85542 0.48523
 C529 C 0.67657 0.84092 0.47476
 C530 C 0.70250 0.80179 0.48218
 C531 C 0.72208 0.81709 0.49260
 N532 N 0.71895 0.84346 0.49351
 H533 H 0.76593 0.86184 0.55980
 H534 H 0.78380 0.82914 0.48623
 H535 H 0.82069 0.80432 0.50593
 H536 H 0.80211 0.83815 0.58079
 H537 H 0.69456 0.87640 0.48638
 H538 H 0.65927 0.85098 0.46761
 H539 H 0.70529 0.78083 0.48151
 H540 H 0.73974 0.80787 0.49980
 C541 C 0.70575 0.90922 0.57583
 C542 C 0.78515 0.91077 0.43482
 C543 C 0.67944 0.81375 0.47294
 C544 C 0.81421 0.81896 0.54515
 C545 C -0.02198 0.28643 0.40765
 H546 H -0.00202 0.29334 0.40686
 C547 C -0.04109 0.30010 0.42163
 H548 H -0.03562 0.31728 0.43198
 C549 C -0.05367 0.25653 0.39389
 H550 H -0.05884 0.24021 0.38225
 C551 C -0.07328 0.26944 0.40772
 H552 H -0.09323 0.26272 0.40653
 N553 N -0.02863 0.26530 0.39382
 C554 C 0.03962 0.21924 0.37230
 H555 H 0.03448 0.21710 0.35186
 C556 C 0.06257 0.20803 0.38182
 H557 H 0.07476 0.19685 0.36869
 C558 C 0.03002 0.23691 0.41394
 H559 H 0.01742 0.24857 0.42615
 C560 C 0.05298 0.22592 0.42436
 H561 H 0.05798 0.22927 0.44464
 Zn562 Zn -0.00372 0.25083 0.37039
 N563 N 0.02420 0.23384 0.38812
 C564 C 0.03631 0.28338 0.34917
 N565 N 0.01018 0.27874 0.34866
 C566 C -0.00607 0.29491 0.33452
 C567 C 0.00391 0.31677 0.32014
 C568 C 0.04705 0.30491 0.33519
 C569 C -0.02711 0.20288 0.36350
 C570 C -0.03868 0.18272 0.35027
 C571 C -0.03474 0.20899 0.30953
 C572 C -0.02317 0.22870 0.32358
 N573 N -0.01983 0.22538 0.35013
 H574 H 0.04895 0.27075 0.36088
 H575 H -0.02685 0.29112 0.33486
 H576 H -0.00932 0.32973 0.30939
 H577 H 0.06791 0.30812 0.33584
 H578 H -0.02397 0.20068 0.38457
 H579 H -0.04474 0.16516 0.36142
 H580 H -0.03709 0.21181 0.28837
 H581 H -0.01675 0.24652 0.31324
 C582 C 0.06988 0.21183 0.40795
 C583 C -0.06724 0.29186 0.42139
 C584 C -0.04264 0.18560 0.32292
 C585 C 0.03079 0.32211 0.32065
 C586 C 1.02923 0.80519 0.10156
 H587 H 1.01620 0.81681 0.11331
 C588 C 1.05037 0.81728 0.08828
 H589 H 1.05355 0.83797 0.09054
 C590 C 1.04155 0.76413 0.08536
 H591 H 1.03821 0.74341 0.08435
 C592 C 1.06291 0.77544 0.07170
 H593 H 1.07571 0.76320 0.06023
 N594 N 1.02583 0.77885 0.10084
 C595 C 0.95836 0.72998 0.12150
 H596 H 0.96200 0.72711 0.14243
 C597 C 0.93697 0.71807 0.11053
 H598 H 0.92438 0.70573 0.12312
 C599 C 0.97056 0.74965 0.07981
 H600 H 0.98363 0.76225 0.06811
 C601 C 0.94931 0.73796 0.06792
 H602 H 0.94605 0.74171 0.04701
 Zn603 Zn 1.00116 0.76207 0.12453
 N604 N 0.97436 0.74574 0.10623
 C605 C 0.95964 0.79173 0.14569
 N606 N 0.98584 0.78731 0.14678
 C607 C 1.00117 0.80135 0.16264
 C608 C 0.99021 0.82051 0.17833
 C609 C 0.94789 0.81063 0.16107
 C610 C 1.02539 0.71342 0.13219
 C611 C 1.03819 0.69283 0.14556
 C612 C 1.03559 0.71704 0.18542
 C613 C 1.02281 0.73722 0.17125
 N614 N 1.01838 0.73530 0.14495
 H615 H 0.94777 0.78097 0.13255
 H616 H 1.02203 0.79791 0.16282
 H617 H 1.00271 0.83136 0.19092
 H618 H 0.92709 0.81412 0.15949
 H619 H 1.02055 0.71167 0.11165
 H620 H 1.04332 0.67551 0.13502
 H621 H 1.03936 0.71914 0.20621
 H622 H 1.01646 0.75428 0.18140
 C623 C 0.93196 0.72230 0.08350
 C624 C 1.06810 0.80220 0.07386
 C625 C 1.04363 0.69455 0.17250
 C626 C 0.96320 0.82536 0.17764
 C627 C 0.52809 0.28739 0.59097
 H628 H 0.50830 0.29454 0.58873
 C629 C 0.54902 0.30183 0.57974
 H630 H 0.54518 0.32006 0.56878
 C631 C 0.55735 0.25604 0.60971
 H632 H 0.56080 0.23869 0.62205
 C633 C 0.57868 0.26973 0.59886
 H634 H 0.59818 0.26228 0.60249
 N635 N 0.53264 0.26516 0.60600
 C636 C 0.46321 0.21692 0.61814
 H637 H 0.46517 0.21354 0.63927
 C638 C 0.44342 0.20456 0.60501
 H639 H 0.43005 0.19184 0.61626
 C640 C 0.47794 0.23832 0.57813
 H641 H 0.49153 0.25149 0.56784
 C642 C 0.45809 0.22651 0.56417
 H643 H 0.45652 0.23060 0.54308
 Zn644 Zn 0.50503 0.24887 0.62600
 N645 N 0.47988 0.23351 0.60469
 C646 C 0.46252 0.27887 0.64450
 N647 N 0.48869 0.27469 0.64636
 C648 C 0.50367 0.28958 0.66172
 C649 C 0.49230 0.30939 0.67628
 C650 C 0.45036 0.29839 0.65874
 C651 C 0.52782 0.20008 0.63586
 C652 C 0.53917 0.17940 0.65044
 C653 C 0.53096 0.20278 0.69025
 C654 C 0.51977 0.22308 0.67486
 N655 N 0.51885 0.22157 0.64812
 H656 H 0.45101 0.26731 0.63173
 H657 H 0.52451 0.28610 0.66254
 H658 H 0.50448 0.32086 0.68862
 H659 H 0.42957 0.30162 0.65667
 H660 H 0.52646 0.19923 0.61460
 H661 H 0.54624 0.16251 0.64026
 H662 H 0.53215 0.20457 0.71144
 H663 H 0.51213 0.24012 0.68428
 C664 C 0.44056 0.20935 0.57771
 C665 C 0.57475 0.29333 0.58428
 C666 C 0.54113 0.18071 0.67799
 C667 C 0.46526 0.31397 0.67491
 C668 C 0.47591 0.77611 0.90680
 H669 H 0.49575 0.78320 0.90487
 C670 C 0.45706 0.79090 0.91988
 H671 H 0.46273 0.80894 0.92858
 C672 C 0.44400 0.74505 0.89621
 H673 H 0.43860 0.72780 0.88612
 C674 C 0.42462 0.75910 0.90919
 H675 H 0.40463 0.75230 0.90890
 N676 N 0.46908 0.75379 0.89501
 C677 C 0.53082 0.69812 0.88134
 H678 H 0.52164 0.68970 0.86467
 C679 C 0.55378 0.68694 0.89103
 H680 H 0.56144 0.66951 0.88222
 C681 C 0.53300 0.73188 0.91182
 H682 H 0.52531 0.74988 0.91924
 C683 C 0.55616 0.72133 0.92210
 H684 H 0.56604 0.73135 0.93743
 Zn685 Zn 0.49391 0.73774 0.87245
 N686 N 0.52107 0.72042 0.89150
 C687 C 0.53578 0.76569 0.84834
 N688 N 0.50929 0.76454 0.85053
 C689 C 0.49392 0.78341 0.83906
 C690 C 0.50521 0.80499 0.82537
 C691 C 0.54784 0.78683 0.83487
 C692 C 0.46766 0.69100 0.86470
 C693 C 0.45599 0.67144 0.85070
 C694 C 0.46378 0.69737 0.81027
 C695 C 0.47538 0.71649 0.82509
 N696 N 0.47707 0.71297 0.85181
 H697 H 0.54768 0.75043 0.85744
 H698 H 0.47290 0.78211 0.84131
 H699 H 0.49272 0.82029 0.81712
 H700 H 0.56896 0.78744 0.83351
 H701 H 0.46947 0.68861 0.88594
 H702 H 0.44846 0.65422 0.86141
 H703 H 0.46295 0.70026 0.78897
 H704 H 0.48328 0.73395 0.81521
 C705 C 0.56719 0.69896 0.91113
 C706 C 0.43091 0.78264 0.92078
 C707 C 0.45406 0.67440 0.82309
 C708 C 0.53255 0.80710 0.82359
 C709 C 0.44589 -0.14840 0.32742
 C710 C 0.45547 -0.12394 0.33398
 C711 C 0.44635 -0.10109 0.32082
 C712 C 0.45783 -0.19214 0.35440
 C713 C 0.41857 -0.12725 0.29418
 C714 C 0.42773 -0.14998 0.30723
 C715 C 0.45318 -0.17190 0.34223
 C716 C 0.42740 -0.10252 0.30115
 H717 H 0.46945 -0.12248 0.34965
 H718 H 0.45335 -0.08230 0.32669
 H719 H 0.40427 -0.12898 0.27884
 H720 H 0.42020 -0.16879 0.30197
 C721 C 0.94443 0.34771 0.82738
 C722 C 0.95549 0.37147 0.83416
 C723 C 0.94759 0.39497 0.82135
 C724 C 0.95436 0.30306 0.85372
 C725 C 0.91807 0.37084 0.79461
 C726 C 0.92602 0.34746 0.80732
 C727 C 0.95057 0.32365 0.84182
 C728 C 0.92839 0.39491 0.80181
 H729 H 0.96970 0.37190 0.84973
 H730 H 0.95573 0.41323 0.82740
 H731 H 0.90355 0.37015 0.77935
 H732 H 0.91736 0.32921 0.80188
 C733 C 0.06028 1.13144 0.83138
 C734 C 0.04497 1.10901 0.82928
 C735 C 0.05408 1.08829 0.81431
 C736 C 0.04544 1.17208 0.85859
 C737 C 0.09377 1.11248 0.80367
 C738 C 0.08469 1.13304 0.81859
 C739 C 0.05141 1.15311 0.84646
 C740 C 0.07854 1.08991 0.80119
 H741 H 0.02602 1.10757 0.83911
 H742 H 0.04189 1.07121 0.81269
 H743 H 0.11292 1.11413 0.79433
 H744 H 0.09677 1.15022 0.82019
 C745 C 0.56417 0.63433 0.33103
 C746 C 0.58840 0.63510 0.31785
 C747 C 0.59654 0.61422 0.30287
 C748 C 0.55067 0.67539 0.35826
 C749 C 0.55622 0.59137 0.31423
 C750 C 0.54807 0.61241 0.32925
 C751 C 0.55618 0.65630 0.34612
 C752 C 0.58051 0.59215 0.30073
 H753 H 0.60108 0.65189 0.31918
 H754 H 0.61558 0.61521 0.29323
 H755 H 0.54344 0.57469 0.31287
 H756 H 0.52924 0.61162 0.33938
 C757 C 0.55493 0.36598 0.17468
 C758 C 0.57768 0.36388 0.18951
 C759 C 0.58810 0.38591 0.20065
 C760 C 0.54003 0.32369 0.15089
 C761 C 0.55258 0.41237 0.18289
 C762 C 0.54219 0.39020 0.17162
 C763 C 0.54588 0.34334 0.16168
 C764 C 0.57593 0.41049 0.19710
 H765 H 0.58768 0.34524 0.19206
 H766 H 0.60587 0.38380 0.21185
 H767 H 0.54290 0.43109 0.17976
 H768 H 0.52460 0.39206 0.16010
 C769 C 0.06067 0.86408 0.67353
 C770 C 0.04688 0.88777 0.67104
 C771 C 0.05659 0.91024 0.68232
 C772 C 0.04678 0.82134 0.64988
 C773 C 0.09355 0.88515 0.69893
 C774 C 0.08381 0.86281 0.68778
 C775 C 0.05218 0.84116 0.66060
 C776 C 0.08030 0.90922 0.69597
 H777 H 0.02896 0.88899 0.65999
 H778 H 0.04607 0.92855 0.67965
 H779 H 0.11162 0.88367 0.70971
 H780 H 0.09461 0.84459 0.68990
 C781 C 0.95329 0.63836 0.68049
 C782 C 0.95707 0.61588 0.66605
 C783 C 0.95066 0.59126 0.67740
 C784 C 0.95975 0.68529 0.65725
 C785 C 0.93754 0.61144 0.71804
 C786 C 0.94395 0.63603 0.70665
 C787 C 0.95724 0.66388 0.66792
 C788 C 0.94030 0.58882 0.70335
 H789 H 0.96429 0.61745 0.64578
 H790 H 0.95324 0.57420 0.66568
 H791 H 0.92924 0.61030 0.73789
 H792 H 0.94082 0.65331 0.71796
 C793 C 0.44437 0.14018 0.17978
 C794 C 0.44869 0.11782 0.16530
 C795 C 0.44240 0.09308 0.17642
 C796 C 0.45112 0.18729 0.15705
 C797 C 0.42824 0.11291 0.21692
 C798 C 0.43453 0.13763 0.20575
 C799 C 0.44844 0.16579 0.16749
 C800 C 0.43164 0.09039 0.20219
 H801 H 0.45630 0.11956 0.14518
 H802 H 0.44548 0.07609 0.16469
 H803 H 0.41962 0.11158 0.23663
 H804 H 0.43098 0.15481 0.21710
 C805 C 0.32761 0.43155 -0.14072
 C806 C 0.31732 0.40626 -0.13857
 C807 C 0.30280 0.39809 -0.11613
 C808 C 0.35347 0.44526 -0.18487
 C809 C 0.30897 0.44045 -0.09753
 C810 C 0.32352 0.44863 -0.12012
 C811 C 0.34192 0.43967 -0.16442
 C812 C 0.29824 0.41513 -0.09543
 H813 H 0.32045 0.39283 -0.15431
 H814 H 0.29529 0.37831 -0.11491
 H815 H 0.30570 0.45402 -0.08196
 H816 H 0.33139 0.46828 -0.12160
 C817 C 0.82884 0.93944 0.36619
 C818 C 0.82517 0.95552 0.38770
 C819 C 0.81112 0.94627 0.41024
 C820 C 0.85408 0.95464 0.32213
 C821 C 0.80461 0.90490 0.38975
 C822 C 0.81862 0.91412 0.36738
 C823 C 0.84280 0.94852 0.34260
 C824 C 0.80048 0.92090 0.41137
 H825 H 0.83301 0.97518 0.38698
 H826 H 0.80818 0.95905 0.42654
 H827 H 0.79719 0.88508 0.39021
 H828 H 0.82146 0.90145 0.35095
 C829 C 0.82277 0.06134 1.14454
 C830 C 0.82119 0.04451 1.12351
 C831 C 0.80656 0.05180 1.10118
 C832 C 0.84920 0.04962 1.18793
 C833 C 0.79525 0.09275 1.12098
 C834 C 0.80984 0.08547 1.14313
 C835 C 0.83742 0.05427 1.16782
 C836 C 0.79326 0.07596 1.09980
 H837 H 0.83115 0.02577 1.12440
 H838 H 0.80532 0.03846 1.08523
 H839 H 0.78577 0.11172 1.12029
 H840 H 0.81105 0.09871 1.15920
 C841 C 0.32424 0.55404 0.63679
 C842 C 0.32320 0.53815 0.61496
 C843 C 0.30874 0.54619 0.59274
 C844 C 0.35042 0.54108 0.68003
 C845 C 0.29651 0.58597 0.61426
 C846 C 0.31091 0.57794 0.63630
 C847 C 0.33878 0.54625 0.65994
 C848 C 0.29508 0.57015 0.59226
 H849 H 0.33347 0.51958 0.61513
 H850 H 0.30796 0.53358 0.57614
 H851 H 0.28675 0.60479 0.61431
 H852 H 0.31170 0.59047 0.65300
 C853 C 0.16323 0.55562 0.36162
 C854 C 0.18836 0.54712 0.36849
 C855 C 0.19950 0.55509 0.39190
 C856 C 0.14384 0.54745 0.31461
 C857 C 0.16005 0.57936 0.40195
 C858 C 0.14895 0.57131 0.37867
 C859 C 0.15281 0.55036 0.33616
 C860 C 0.18567 0.57185 0.40851
 H861 H 0.19966 0.53510 0.35535
 H862 H 0.21934 0.54920 0.39635
 H863 H 0.14885 0.59201 0.41454
 H864 H 0.12951 0.57804 0.37355
 C865 C 0.66001 0.04797 0.87253
 C866 C 0.68539 0.04041 0.87951
 C867 C 0.69649 0.04969 0.90240
 C868 C 0.64082 0.03790 0.82590
 C869 C 0.65649 0.07334 0.91177
 C870 C 0.64543 0.06399 0.88902
 C871 C 0.64967 0.04161 0.84734
 C872 C 0.68236 0.06683 0.91835
 H873 H 0.69692 0.02817 0.86679
 H874 H 0.71652 0.04456 0.90688
 H875 H 0.64507 0.08626 0.92387
 H876 H 0.62580 0.07002 0.88380
 C877 C 0.67168 0.94014 0.64606
 C878 C 0.66818 0.95347 0.62157
 C879 C 0.68002 0.94405 0.59863
 C880 C 0.64646 0.95262 0.68979
 C881 C 0.69921 0.90836 0.62485
 C882 C 0.68754 0.91783 0.64764
 C883 C 0.65793 0.94792 0.66951
 C884 C 0.69518 0.92105 0.60004
 H885 H 0.65585 0.97072 0.62011
 H886 H 0.67654 0.95411 0.57974
 H887 H 0.71114 0.89084 0.62656
 H888 H 0.69041 0.90737 0.66647
 C889 C 0.15838 0.45052 0.12951
 C890 C 0.18387 0.45778 0.12187
 C891 C 0.19560 0.44742 0.09937
 C892 C 0.13798 0.46293 0.17569
 C893 C 0.15601 0.42328 0.09166
 C894 C 0.14433 0.43371 0.11403
 C895 C 0.14738 0.45812 0.15442
 C896 C 0.18199 0.42950 0.08447
 H897 H 0.19499 0.47066 0.13382
 H898 H 0.21569 0.45236 0.09441
 H899 H 0.14499 0.40977 0.08036
 H900 H 0.12462 0.42791 0.11976
 C901 C -0.13242 0.33679 0.44910
 C902 C -0.11077 0.34948 0.43720
 C903 C -0.08894 0.33498 0.42936
 C904 C -0.17636 0.36274 0.45764
 C905 C -0.11000 0.29513 0.44616
 C906 C -0.13177 0.30966 0.45401
 C907 C -0.15608 0.35117 0.45424
 C908 C -0.08858 0.30756 0.43320
 H909 H -0.11112 0.37045 0.43315
 H910 H -0.07292 0.34509 0.41913
 H911 H -0.11018 0.27409 0.44962
 H912 H -0.14842 0.29962 0.46317
 C913 C 0.36679 0.83031 0.94631
 C914 C 0.36716 0.80349 0.95308
 C915 C 0.38853 0.78812 0.94580
 C916 C 0.32367 0.85768 0.95457
 C917 C 0.40971 0.82655 0.92573
 C918 C 0.38829 0.84188 0.93301
 C919 C 0.34358 0.84546 0.95124
 C920 C 0.40983 0.79939 0.93156
 H921 H 0.35061 0.79431 0.96335
 H922 H 0.38818 0.76732 0.95081
 H923 H 0.42562 0.83576 0.91446
 H924 H 0.38814 0.86259 0.92751
 C925 C 1.14106 0.83741 0.04902
 C926 C 1.14033 0.81140 0.05876
 C927 C 1.11649 0.79967 0.06585
 C928 C 1.18700 0.86011 0.04097
 C929 C 1.09381 0.83972 0.05271
 C930 C 1.11774 0.85144 0.04564
 C931 C 1.16588 0.84997 0.04413
 C932 C 1.09295 0.81382 0.06333
 H933 H 1.15828 0.80041 0.06160
 H934 H 1.11662 0.77989 0.07438
 H935 H 1.07603 0.85104 0.05027
 H936 H 1.11808 0.87160 0.03812
 C937 C 0.64189 0.33905 0.55977
 C938 C 0.62102 0.33685 0.54246
 C939 C 0.59888 0.32225 0.55040
 C940 C 0.68554 0.36436 0.54697
 C941 C 0.61849 0.31235 0.59294
 C942 C 0.64044 0.32691 0.58504
 C943 C 0.66523 0.35319 0.55197
 C944 C 0.59756 0.30959 0.57565
 H945 H 0.62196 0.34618 0.52283
 H946 H 0.58308 0.32041 0.53667
 H947 H 0.61784 0.30331 0.61270
 H948 H 0.65640 0.32858 0.59864
 C949 C 0.37308 0.17524 0.54422
 C950 C 0.38965 0.15991 0.56025
 C951 C 0.41230 0.17070 0.57010
 C952 C 0.32695 0.15598 0.53296
 C953 C 0.40261 0.21199 0.54692
 C954 C 0.37983 0.20116 0.53714
 C955 C 0.34813 0.16492 0.53725
 C956 C 0.41869 0.19704 0.56408
 H957 H 0.38460 0.13986 0.56590
 H958 H 0.42449 0.15866 0.58303
 H959 H 0.40695 0.23238 0.54217
 H960 H 0.36705 0.21325 0.52488
 C961 C 0.86381 0.68643 0.05280
 C962 C 0.86243 0.69901 0.07677
 C963 C 0.88447 0.71112 0.08637
 C964 C 0.82180 0.66099 0.03872
 C965 C 0.90943 0.69876 0.04767
 C966 C 0.88727 0.68652 0.03810
 C967 C 0.84125 0.67262 0.04428
 C968 C 0.90832 0.71082 0.07214
 H969 H 0.84437 0.69913 0.08828
 H970 H 0.88290 0.72064 0.10504
 H971 H 0.92757 0.69812 0.03638
 H972 H 0.88856 0.67678 0.01954
 C973 C 0.64364 0.67145 0.93288
 C974 C 0.63628 0.67258 0.90639
 C975 C 0.61142 0.68145 0.89946
 C976 C 0.69115 0.65433 0.94401
 C977 C 0.60102 0.68826 0.94559
 C978 C 0.62599 0.67930 0.95251
 C979 C 0.66939 0.66223 0.93952
 C980 C 0.59345 0.68930 0.91896
 H981 H 0.64982 0.66669 0.89103
 H982 H 0.60642 0.68255 0.87874
 H983 H 0.58756 0.69408 0.96102
 H984 H 0.63151 0.67849 0.97310
 C985 C 0.14413 0.18112 0.43281
 C986 C 0.14175 0.19434 0.40820
 C987 C 0.11771 0.20472 0.40048
 C988 C 0.18978 0.15935 0.44389
 C989 C 0.09821 0.18930 0.44229
 C990 C 0.12239 0.17880 0.44998
 C991 C 0.16879 0.16926 0.43960
 C992 C 0.09557 0.20201 0.41724
 H993 H 0.15844 0.19632 0.39479
 H994 H 0.11640 0.21483 0.38128
 H995 H 0.08146 0.18686 0.45553
 H996 H 0.12402 0.16856 0.46908
 C997 C 0.57776 0.11772 0.72263
 C998 C 0.58846 0.12654 0.69824
 C999 C 0.57666 0.14716 0.68385
 C1000 C 0.59921 0.07741 0.74864
 C1001 C 0.54347 0.15041 0.71835
 C1002 C 0.55531 0.12974 0.73272
 C1003 C 0.58949 0.09592 0.73694
 C1004 C 0.55393 0.15923 0.69366
 H1005 H 0.60585 0.11739 0.69028
 H1006 H 0.58541 0.15377 0.66510
 H1007 H 0.52585 0.15912 0.72629
 H1008 H 0.54681 0.12297 0.75155
 C1009 C 1.08172 0.63019 0.21368
 C1010 C 1.06130 0.64356 0.22605
 C1011 C 1.04911 0.66473 0.21283
 C1012 C 1.10294 0.58864 0.23780
 C1013 C 1.07795 0.65938 0.17490
 C1014 C 1.09011 0.63823 0.18816
 C1015 C 1.09349 0.60773 0.22685
 C1016 C 1.05718 0.67275 0.18702
 H1017 H 1.05457 0.63740 0.24577
 H1018 H 1.03298 0.67441 0.22256
 H1019 H 1.08483 0.66531 0.15519
 H1020 H 1.10591 0.62803 0.17842
 C1021 C 0.92692 0.88603 0.22176
 C1022 C 0.95148 0.89017 0.20974
 C1023 C 0.96350 0.87031 0.19573
 C1024 C 0.90335 0.92408 0.24680
 C1025 C 0.92650 0.84199 0.20596
 C1026 C 0.91453 0.86186 0.21997
 C1027 C 0.91417 0.90672 0.23548
 C1028 C 0.95105 0.84605 0.19352
 H1029 H 0.96120 0.90885 0.21095
 H1030 H 0.98224 0.87415 0.18610
 H1031 H 0.91658 0.82342 0.20490
 H1032 H 0.89555 0.85843 0.22926
 C1033 C 0.42774 0.37573 0.71652
 C1034 C 0.41560 0.35137 0.71526
 C1035 C 0.42794 0.33120 0.70201
 C1036 C 0.40367 0.41411 0.74060
 C1037 C 0.46480 0.35959 0.69144
 C1038 C 0.45241 0.37977 0.70469
 C1039 C 0.41471 0.39663 0.72966
 C1040 C 0.45262 0.33512 0.68981
 H1041 H 0.39655 0.34801 0.72442
 H1042 H 0.41822 0.31248 0.70141
 H1043 H 0.48364 0.36333 0.68198
 H1044 H 0.46195 0.39857 0.70551
 C1045 C 0.41925 0.61327 0.78006
 C1046 C 0.41402 0.63951 0.77296
 C1047 C 0.42551 0.65948 0.78676
 C1048 C 0.39743 0.57487 0.75509
 C1049 C 0.44758 0.62694 0.81467
 C1050 C 0.43612 0.60705 0.80085
 C1051 C 0.40725 0.59259 0.76625
 C1052 C 0.44230 0.65339 0.80788
 H1053 H 0.40094 0.64453 0.75690
 H1054 H 0.42088 0.67964 0.78125
 H1055 H 0.46075 0.62162 0.83054
 H1056 H 0.44039 0.58681 0.80643
 C1057 C -0.07929 0.12347 0.28289
 C1058 C -0.08562 0.14956 0.27623
 C1059 C -0.07348 0.16984 0.28898
 C1060 C -0.10248 0.08460 0.25990
 C1061 C -0.04847 0.13794 0.31490
 C1062 C -0.06060 0.11773 0.30213
 C1063 C -0.09203 0.10249 0.27022
 C1064 C -0.05489 0.16424 0.30860
 H1065 H -0.10009 0.15421 0.26137
 H1066 H -0.07902 0.18987 0.28391
 H1067 H -0.03396 0.13300 0.32962
 H1068 H -0.05547 0.09761 0.30734
 C1069 C 0.06535 0.38908 0.27965
 C1070 C 0.04577 0.37501 0.26757
 C1071 C 0.03410 0.35347 0.28103
 C1072 C 0.08941 0.42846 0.25405
 C1073 C 0.06136 0.36029 0.31879
 C1074 C 0.07294 0.38179 0.30534
 C1075 C 0.07820 0.41058 0.26560
 C1076 C 0.04202 0.34570 0.30668
 H1077 H 0.03978 0.38048 0.24765
 H1078 H 0.01940 0.34250 0.27116
 H1079 H 0.06754 0.35507 0.33869
 H1080 H 0.08799 0.39260 0.31492
 C1081 C 0.56976 0.87501 0.78707
 C1082 C 0.54774 0.86442 0.77555
 C1083 C 0.53547 0.84238 0.78743
 C1084 C 0.59399 0.91584 0.76431
 C1085 C 0.56723 0.84159 0.82243
 C1086 C 0.57941 0.86359 0.81056
 C1087 C 0.58277 0.89732 0.77468
 C1088 C 0.54520 0.83064 0.81094
 H1089 H 0.54015 0.87308 0.75732
 H1090 H 0.51869 0.83427 0.77803
 H1091 H 0.57491 0.83328 0.84076
 H1092 H 0.59639 0.87168 0.81968
 C1093 C 0.72543 0.58216 0.10998
 C1094 C 0.70572 0.56453 0.10422
 C1095 C 0.69218 0.55095 0.12471
 C1096 C 0.75010 0.60847 0.07101
 C1097 C 0.71825 0.57240 0.15686
 C1098 C 0.73175 0.58598 0.13632
 C1099 C 0.73894 0.59650 0.08886
 C1100 C 0.69819 0.55484 0.15128
 H1101 H 0.70074 0.56137 0.08388
 H1102 H 0.67709 0.53733 0.11977
 H1103 H 0.72309 0.57607 0.17710
 H1104 H 0.74695 0.59962 0.14099
 C1105 C 0.22549 1.08401 0.60994
 C1106 C 0.20597 1.06612 0.60437
 C1107 C 0.19255 1.05261 0.62498
 C1108 C 0.25015 1.10953 0.57045
 C1109 C 0.21833 1.07469 0.65690
 C1110 C 0.23172 1.08821 0.63623
 C1111 C 0.23902 1.09804 0.58862
 C1112 C 0.19850 1.05682 0.65149
 H1113 H 0.20108 1.06264 0.58407
 H1114 H 0.17765 1.03872 0.62017
 H1115 H 0.22313 1.07860 0.67710
 H1116 H 0.24679 1.10205 0.64076
 C1117 C 0.22962 0.93253 0.87514
 C1118 C 0.22879 0.92025 0.85101
 C1119 C 0.21510 0.93180 0.82987
 C1120 C 0.25296 0.90909 0.91596
 C1121 C 0.20339 0.96827 0.85679
 C1122 C 0.21708 0.95665 0.87793
 C1123 C 0.24254 0.91991 0.89728
 C1124 C 0.20202 0.95581 0.83260
 H1125 H 0.23846 0.90159 0.84863
 H1126 H 0.21470 0.92192 0.81138
 H1127 H 0.19328 0.98660 0.85960
 H1128 H 0.21752 0.96627 0.89657
 C1129 C 0.72634 0.43388 0.37720
 C1130 C 0.72516 0.42081 0.35354
 C1131 C 0.71167 0.43196 0.33207
 C1132 C 0.74993 0.41166 0.41850
 C1133 C 0.70079 0.46955 0.35774
 C1134 C 0.71428 0.45834 0.37921
 C1135 C 0.73933 0.42186 0.39962
 C1136 C 0.69914 0.45637 0.33400
 H1137 H 0.73448 0.40189 0.35176
 H1138 H 0.71104 0.42151 0.31394
 H1139 H 0.69109 0.48821 0.35995
 H1140 H 0.71501 0.46858 0.39748
 C1141 C 0.78577 0.42772 0.62318
 C1142 C 0.80473 0.41258 0.63633
 C1143 C 0.81856 0.42291 0.65699
 C1144 C 0.76116 0.40848 0.58292
 C1145 C 0.79424 0.46352 0.65167
 C1146 C 0.78044 0.45314 0.63098
 C1147 C 0.77222 0.41730 0.60135
 C1148 C 0.81361 0.44858 0.66476
 H1149 H 0.80895 0.39285 0.63050
 H1150 H 0.83308 0.41079 0.66694
 H1151 H 0.79020 0.48343 0.65700
 H1152 H 0.76583 0.46505 0.62087
 C1153 C 0.28431 -0.07813 0.12084
 C1154 C 0.30421 -0.09213 0.13378
 C1155 C 0.31743 -0.08108 0.15446
 C1156 C 0.26092 -0.09820 0.08026
 C1157 C 0.29062 -0.04204 0.14955
 C1158 C 0.27744 -0.05314 0.12885
 C1159 C 0.27144 -0.08914 0.09889
 C1160 C 0.31092 -0.05582 0.16245
 H1161 H 0.30965 -0.11152 0.12776
 H1162 H 0.33271 -0.09232 0.16424
 H1163 H 0.28537 -0.02245 0.15503
 H1164 H 0.26212 -0.04210 0.11889
 C1165 C 0.28660 0.08374 0.37059
 C1166 C 0.30008 0.09650 0.34949
 C1167 C 0.31233 0.08196 0.33000
 C1168 C 0.26451 0.11056 0.40855
 C1169 C 0.29743 0.04182 0.35257
 C1170 C 0.28518 0.05639 0.37200
 C1171 C 0.27458 0.09856 0.39107
 C1172 C 0.31128 0.05443 0.33143
 H1173 H 0.30136 0.11766 0.34825
 H1174 H 0.32313 0.09222 0.31417
 H1175 H 0.29600 0.02069 0.35404
 H1176 H 0.27474 0.04632 0.38822
 C1177 C 0.79537 0.58672 0.87304
 C1178 C 0.78387 0.58395 0.84843
 C1179 C 0.79648 0.56940 0.82917
 C1180 C 0.77064 0.61198 0.91054
 C1181 C 0.83221 0.56048 0.85907
 C1182 C 0.81959 0.57503 0.87827
 C1183 C 0.78198 0.60076 0.89327
 C1184 C 0.82073 0.55736 0.83434
 H1185 H 0.76505 0.59279 0.84424
 H1186 H 0.78703 0.56714 0.81043
 H1187 H 0.85105 0.55181 0.86350
 H1188 H 0.82866 0.57705 0.89725
 C1189 C 0.11834 0.72295 0.57702
 C1190 C 0.12411 0.69737 0.58601
 C1191 C 0.14322 0.68290 0.57304
 C1192 C 0.08057 0.74873 0.60100
 C1193 C 0.15111 0.71967 0.54209
 C1194 C 0.13193 0.73413 0.55510
 C1195 C 0.09799 0.73732 0.59000
 C1196 C 0.15683 0.69381 0.55083
 H1197 H 0.11374 0.68855 0.60298
 H1198 H 0.14748 0.66320 0.58050
 H1199 H 0.16110 0.72851 0.52492
 H1200 H 0.12752 0.75390 0.54793
 C1201 C 0.61122 0.22341 1.07882
 C1202 C 0.62426 0.23394 1.05626
 C1203 C 0.64395 0.21954 1.04393
 C1204 C 0.57294 0.24930 1.10189
 C1205 C 0.63765 0.18413 1.07684
 C1206 C 0.61803 0.19854 1.08912
 C1207 C 0.59052 0.23778 1.09126
 C1208 C 0.65074 0.19440 1.05401
 H1209 H 0.61907 0.25316 1.04809
 H1210 H 0.65351 0.22786 1.02626
 H1211 H 0.64272 0.16503 1.08534
 H1212 H 0.60810 0.19024 1.10661
 C1213 C 0.87424 0.20808 0.92764
 C1214 C 0.87601 0.19609 0.95295
 C1215 C 0.85399 0.18448 0.96520
 C1216 C 0.91583 0.22993 0.90426
 C1217 C 0.82828 0.19701 0.92689
 C1218 C 0.85032 0.20862 0.91470
 C1219 C 0.89693 0.21988 0.91494
 C1220 C 0.82989 0.18471 0.95224
 H1221 H 0.89445 0.19555 0.96314
 H1222 H 0.85594 0.17487 0.98456
 H1223 H 0.80995 0.19780 0.91655
 H1224 H 0.84870 0.21797 0.89516
 C1225 C 0.38014 0.70838 0.42729
 C1226 C 0.37271 0.68384 0.41892
 C1227 C 0.35070 0.67136 0.43018
 C1228 C 0.42124 0.73226 0.40516
 C1229 C 0.34353 0.70790 0.45841
 C1230 C 0.36555 0.72036 0.44709
 C1231 C 0.40255 0.72135 0.41532
 C1232 C 0.33579 0.68329 0.44999
 H1233 H 0.38390 0.67436 0.40366
 H1234 H 0.34549 0.65225 0.42357
 H1235 H 0.33231 0.71770 0.47342
 H1236 H 0.37111 0.73940 0.45366
 C1237 C 0.61915 0.77090 0.43591
 C1238 C 0.61255 0.79022 0.45362
 C1239 C 0.63214 0.80379 0.46607
 C1240 C 0.58172 0.74713 0.41093
 C1241 C 0.66510 0.77843 0.44347
 C1242 C 0.64544 0.76489 0.43101
 C1243 C 0.59890 0.75777 0.42234
 C1244 C 0.65865 0.79823 0.46094
 H1245 H 0.59226 0.79497 0.45762
 H1246 H 0.62656 0.81867 0.47969
 H1247 H 0.68531 0.77392 0.43888
 H1248 H 0.65076 0.75000 0.41728
 C1249 C 0.11365 0.26779 -0.06581
 C1250 C 0.10706 0.28846 -0.04972
 C1251 C 0.12664 0.30266 -0.03797
 C1252 C 0.07628 0.24306 -0.08991
 C1253 C 0.15956 0.27524 -0.05799
 C1254 C 0.13992 0.26107 -0.06976
 C1255 C 0.09344 0.25409 -0.07885
 C1256 C 0.15313 0.29639 -0.04219
 H1257 H 0.08678 0.29379 -0.04648
 H1258 H 0.12105 0.31859 -0.02561
 H1259 H 0.17978 0.27014 -0.06184
 H1260 H 0.14524 0.24515 -0.08225
 C1261 C 0.37182 0.28410 0.08348
 C1262 C 0.37490 0.29440 0.05753
 C1263 C 0.35370 0.30605 0.04446
 C1264 C 0.41215 0.26243 0.10809
 C1265 C 0.32620 0.29694 0.08324
 C1266 C 0.34741 0.28529 0.09626
 C1267 C 0.39373 0.27235 0.09697
 C1268 C 0.32913 0.30757 0.05723
 H1269 H 0.39372 0.29360 0.04745
 H1270 H 0.35668 0.31436 0.02458
 H1271 H 0.30746 0.29751 0.09348
 H1272 H 0.34478 0.27726 0.11630
 C1273 C 0.87950 0.78069 0.58276
 C1274 C 0.88219 0.79136 0.55689
 C1275 C 0.86083 0.80335 0.54439
 C1276 C 0.92016 0.75935 0.60707
 C1277 C 0.83395 0.79369 0.58350
 C1278 C 0.85529 0.78170 0.59594
 C1279 C 0.90163 0.76905 0.59596
 C1280 C 0.83653 0.80488 0.55767
 H1281 H 0.90086 0.79069 0.54652
 H1282 H 0.86351 0.81203 0.52462
 H1283 H 0.81540 0.79423 0.59410
 H1284 H 0.85296 0.77340 0.61591
   
