data_POSCAR
  _audit_creation_date              2014-09-24
  _audit_creation_method            'ToBaCCo'
  _symmetry_space_group_name_H-M    'P1'
  _symmetry_Int_Tables_number       1
  _symmetry_cell_setting            triclinic
  loop_
  _symmetry_equiv_pos_as_xyz
 x,y,z
_cell_length_a 88.1740
_cell_length_b 88.2575
_cell_length_c 88.4363
_cell_angle_alpha 89.980900
_cell_angle_beta 89.981900
_cell_angle_gamma 89.937000
loop_
  _atom_site_label
  _atom_site_type_symbol
  _atom_site_fract_x
  _atom_site_fract_y
  _atom_site_fract_z
N1 N 0.36005 0.31796 0.32879
 N2 N 0.35991 0.32860 0.31835
 C3 C 0.37156 0.32628 0.30875
 C4 C 0.37931 0.31357 0.31350
 C5 C 0.37180 0.30854 0.32620
 H6 H 0.37422 0.33323 0.29903
 H7 H 0.37466 0.29878 0.33302
 Cu8 Cu 0.34432 0.34419 0.31835
 Cu9 Cu 0.34493 0.31700 0.34486
 Cu10 Cu 0.31709 0.34481 0.34484
 N11 N 0.32871 0.35979 0.31834
 N12 N 0.31806 0.35993 0.32877
 C13 C 0.30863 0.37165 0.32617
 C14 C 0.31366 0.37915 0.31346
 C15 C 0.32639 0.37142 0.30873
 H16 H 0.29885 0.37451 0.33298
 H17 H 0.33336 0.37407 0.29901
 N18 N 0.31805 0.32856 0.36013
 N19 N 0.32866 0.31797 0.36014
 C20 C 0.32624 0.30854 0.37188
 C21 C 0.31355 0.31348 0.37952
 C22 C 0.30861 0.32614 0.37187
 H23 H 0.33316 0.29882 0.37471
 H24 H 0.29888 0.33306 0.37468
 H25 H 0.32779 0.32767 0.33297
 H26 H 0.33998 0.33986 0.34519
 N27 N 0.36043 0.81804 -0.17147
 N28 N 0.36025 0.82864 -0.18194
 C29 C 0.37195 0.82637 -0.19150
 C30 C 0.37975 0.81371 -0.18668
 C31 C 0.37223 0.80867 -0.17399
 H32 H 0.37462 0.83334 -0.20119
 H33 H 0.37513 0.79894 -0.16712
 Cu34 Cu 0.34469 0.84432 -0.18208
 Cu35 Cu 0.34531 0.81711 -0.15542
 Cu36 Cu 0.31748 0.84489 -0.15545
 N37 N 0.32899 0.85987 -0.18197
 N38 N 0.31837 0.86003 -0.17151
 C39 C 0.30897 0.87181 -0.17405
 C40 C 0.31402 0.87934 -0.18676
 C41 C 0.32671 0.87155 -0.19154
 H42 H 0.29921 0.87469 -0.16720
 H43 H 0.33371 0.87421 -0.20122
 N44 N 0.31843 0.82864 -0.14015
 N45 N 0.32905 0.81806 -0.14014
 C46 C 0.32662 0.80861 -0.12841
 C47 C 0.31392 0.81351 -0.12078
 C48 C 0.30897 0.82619 -0.12842
 H49 H 0.33355 0.79889 -0.12561
 H50 H 0.29922 0.83307 -0.12562
 H51 H 0.32825 0.82777 -0.16730
 H52 H 0.34046 0.84000 -0.15515
 N53 N 0.85979 0.31854 -0.17136
 N54 N 0.85967 0.32919 -0.18177
 C55 C 0.87132 0.32687 -0.19137
 C56 C 0.87905 0.31415 -0.18664
 C57 C 0.87152 0.30910 -0.17396
 H58 H 0.87400 0.33385 -0.20107
 H59 H 0.87436 0.29932 -0.16716
 Cu60 Cu 0.84411 0.34482 -0.18172
 Cu61 Cu 0.84467 0.31758 -0.15527
 Cu62 Cu 0.81688 0.34544 -0.15524
 N63 N 0.82851 0.36042 -0.18174
 N64 N 0.81786 0.36057 -0.17131
 C65 C 0.80843 0.37230 -0.17390
 C66 C 0.81348 0.37978 -0.18662
 C67 C 0.82620 0.37205 -0.19137
 H68 H 0.79865 0.37516 -0.16708
 H69 H 0.83317 0.37469 -0.20108
 N70 N 0.81782 0.32917 -0.13997
 N71 N 0.82841 0.31856 -0.13999
 C72 C 0.82598 0.30912 -0.12825
 C73 C 0.81332 0.31408 -0.12059
 C74 C 0.80840 0.32676 -0.12821
 H75 H 0.83288 0.29938 -0.12546
 H76 H 0.79869 0.33370 -0.12537
 H77 H 0.82753 0.32831 -0.16713
 H78 H 0.83974 0.34045 -0.15489
 N79 N 0.85979 0.81836 0.32869
 N80 N 0.85959 0.82894 0.31820
 C81 C 0.87133 0.82670 0.30868
 C82 C 0.87917 0.81408 0.31351
 C83 C 0.87164 0.80903 0.32619
 H84 H 0.87403 0.83371 0.29902
 H85 H 0.87457 0.79933 0.33307
 Cu86 Cu 0.84404 0.84458 0.31810
 Cu87 Cu 0.84468 0.81743 0.34476
 Cu88 Cu 0.81687 0.84525 0.34476
 N89 N 0.82840 0.86013 0.31819
 N90 N 0.81781 0.86035 0.32869
 C91 C 0.80847 0.87217 0.32617
 C92 C 0.81352 0.87965 0.31346
 C93 C 0.82616 0.87183 0.30864
 H94 H 0.79875 0.87510 0.33306
 H95 H 0.83316 0.87450 0.29895
 N96 N 0.81783 0.82900 0.36004
 N97 N 0.82842 0.81839 0.36003
 C98 C 0.82597 0.80893 0.37175
 C99 C 0.81328 0.81386 0.37939
 C100 C 0.80837 0.82656 0.37177
 H101 H 0.83287 0.79919 0.37454
 H102 H 0.79865 0.83348 0.37459
 H103 H 0.82757 0.82814 0.33298
 H104 H 0.83983 0.84038 0.34506
 N105 N 0.63998 0.68201 0.32884
 N106 N 0.64017 0.67143 0.31835
 C107 C 0.62845 0.67368 0.30883
 C108 C 0.62063 0.68631 0.31366
 C109 C 0.62816 0.69135 0.32634
 H110 H 0.62574 0.66669 0.29916
 H111 H 0.62524 0.70105 0.33321
 Cu112 Cu 0.65578 0.65585 0.31833
 Cu113 Cu 0.65506 0.68297 0.34492
 Cu114 Cu 0.68292 0.65518 0.34492
 N115 N 0.67140 0.64029 0.31834
 N116 N 0.68199 0.64010 0.32882
 C117 C 0.69136 0.62830 0.32631
 C118 C 0.68632 0.62078 0.31362
 C119 C 0.67367 0.62859 0.30881
 H120 H 0.70108 0.62539 0.33318
 H121 H 0.66667 0.62589 0.29914
 N122 N 0.68192 0.67141 0.36020
 N123 N 0.67132 0.68200 0.36020
 C124 C 0.67376 0.69146 0.37191
 C125 C 0.68646 0.68654 0.37953
 C126 C 0.69139 0.67386 0.37191
 H127 H 0.66685 0.70119 0.37470
 H128 H 0.70114 0.66696 0.37470
 H129 H 0.67220 0.67230 0.33315
 H130 H 0.65995 0.66004 0.34525
 N131 N 0.64001 0.18170 -0.17126
 N132 N 0.64014 0.17106 -0.18169
 C133 C 0.62848 0.17340 -0.19127
 C134 C 0.62074 0.18611 -0.18651
 C135 C 0.62827 0.19112 -0.17382
 H136 H 0.62581 0.16645 -0.20098
 H137 H 0.62542 0.20088 -0.16700
 Cu138 Cu 0.65578 0.15548 -0.18170
 Cu139 Cu 0.65513 0.18268 -0.15519
 Cu140 Cu 0.68300 0.15491 -0.15522
 N141 N 0.67144 0.13990 -0.18173
 N142 N 0.68209 0.13978 -0.17131
 C143 C 0.69155 0.12806 -0.17389
 C144 C 0.68651 0.12054 -0.18658
 C145 C 0.67377 0.12826 -0.19134
 H146 H 0.70133 0.12522 -0.16706
 H147 H 0.66679 0.12560 -0.20103
 N148 N 0.68200 0.17116 -0.13991
 N149 N 0.67138 0.18173 -0.13992
 C150 C 0.67377 0.19117 -0.12818
 C151 C 0.68647 0.18627 -0.12054
 C152 C 0.69143 0.17360 -0.12817
 H153 H 0.66684 0.20089 -0.12538
 H154 H 0.70117 0.16671 -0.12535
 H155 H 0.67225 0.17208 -0.16709
 H156 H 0.66008 0.15988 -0.15485
 N157 N 0.14001 0.68193 -0.17120
 N158 N 0.14017 0.67134 -0.18168
 C159 C 0.12844 0.67359 -0.19118
 C160 C 0.12065 0.68624 -0.18637
 C161 C 0.12819 0.69129 -0.17370
 H162 H 0.12572 0.66658 -0.20083
 H163 H 0.12529 0.70101 -0.16684
 Cu164 Cu 0.15576 0.65574 -0.18168
 Cu165 Cu 0.15510 0.68288 -0.15512
 Cu166 Cu 0.18290 0.65504 -0.15510
 N167 N 0.17135 0.64015 -0.18167
 N168 N 0.18194 0.63995 -0.17117
 C169 C 0.19128 0.62812 -0.17368
 C170 C 0.18622 0.62061 -0.18636
 C171 C 0.17359 0.62844 -0.19118
 H172 H 0.20099 0.62520 -0.16680
 H173 H 0.16658 0.62575 -0.20085
 N174 N 0.18194 0.67129 -0.13984
 N175 N 0.17136 0.68191 -0.13986
 C176 C 0.17382 0.69137 -0.12816
 C177 C 0.18651 0.68643 -0.12053
 C178 C 0.19140 0.67372 -0.12813
 H179 H 0.16694 0.70113 -0.12537
 H180 H 0.20112 0.66680 -0.12531
 H181 H 0.17223 0.67218 -0.16688
 H182 H 0.15995 0.65996 -0.15478
 N183 N 0.14004 0.18202 0.32877
 N184 N 0.14022 0.17145 0.31827
 C185 C 0.12856 0.17379 0.30870
 C186 C 0.12079 0.18645 0.31351
 C187 C 0.12828 0.19142 0.32624
 H188 H 0.12586 0.16682 0.29902
 H189 H 0.12536 0.20112 0.33312
 Cu190 Cu 0.15553 0.15556 0.31831
 Cu191 Cu 0.15507 0.18286 0.34487
 Cu192 Cu 0.18287 0.15512 0.34485
 N193 N 0.17146 0.14029 0.31825
 N194 N 0.18205 0.14011 0.32873
 C195 C 0.19146 0.12835 0.32618
 C196 C 0.18647 0.12087 0.31346
 C197 C 0.17379 0.12865 0.30867
 H198 H 0.20118 0.12544 0.33306
 H199 H 0.16681 0.12596 0.29900
 N200 N 0.18184 0.17127 0.36019
 N201 N 0.17123 0.18185 0.36020
 C202 C 0.17365 0.19129 0.37192
 C203 C 0.18635 0.18637 0.37955
 C204 C 0.19129 0.17370 0.37192
 H205 H 0.16675 0.20104 0.37471
 H206 H 0.20105 0.16682 0.37470
 H207 H 0.17205 0.17211 0.33290
 H208 H 0.15986 0.15992 0.34519
 N209 N 0.63995 0.31805 0.67127
 N210 N 0.64013 0.32862 0.68177
 C211 C 0.62840 0.32637 0.69129
 C212 C 0.62059 0.31374 0.68645
 C213 C 0.62814 0.30872 0.67377
 H214 H 0.62568 0.33336 0.70095
 H215 H 0.62523 0.29902 0.66688
 Cu216 Cu 0.65570 0.34424 0.68176
 Cu217 Cu 0.65506 0.31708 0.65519
 Cu218 Cu 0.68288 0.34482 0.65518
 N219 N 0.67137 0.35976 0.68176
 N220 N 0.68196 0.35993 0.67127
 C221 C 0.69130 0.37174 0.67377
 C222 C 0.68625 0.37928 0.68645
 C223 C 0.67361 0.37148 0.69127
 H224 H 0.70102 0.37463 0.66688
 H225 H 0.66659 0.37420 0.70092
 N226 N 0.68192 0.32858 0.63991
 N227 N 0.67132 0.31801 0.63991
 C228 C 0.67376 0.30855 0.62819
 C229 C 0.68646 0.31345 0.62056
 C230 C 0.69139 0.32612 0.62819
 H231 H 0.66684 0.29884 0.62538
 H232 H 0.70113 0.33299 0.62539
 H233 H 0.67215 0.32774 0.66697
 H234 H 0.65990 0.34000 0.65485
 N235 N 0.63999 0.81827 1.17137
 N236 N 0.64011 0.82891 1.18179
 C237 C 0.62847 0.82659 1.19140
 C238 C 0.62077 0.81387 1.18668
 C239 C 0.62829 0.80884 1.17398
 H240 H 0.62580 0.83356 1.20110
 H241 H 0.62545 0.79907 1.16717
 Cu242 Cu 0.65569 0.84448 1.18172
 Cu243 Cu 0.65512 0.81728 1.15529
 Cu244 Cu 0.68296 0.84503 1.15529
 N245 N 0.67131 0.86001 1.18178
 N246 N 0.68198 0.86011 1.17137
 C247 C 0.69144 0.87178 1.17398
 C248 C 0.68640 0.87929 1.18668
 C249 C 0.67365 0.87161 1.19140
 H250 H 0.70123 0.87461 1.16718
 H251 H 0.66668 0.87428 1.20110
 N252 N 0.68198 0.82880 1.14002
 N253 N 0.67138 0.81822 1.14001
 C254 C 0.67379 0.80881 1.12825
 C255 C 0.68647 0.81375 1.12061
 C256 C 0.69141 0.82640 1.12826
 H257 H 0.66687 0.79912 1.12542
 H258 H 0.70112 0.83331 1.12544
 H259 H 0.67230 0.82793 1.16719
 H260 H 0.66013 0.84011 1.15493
 N261 N 0.13997 0.31836 1.17131
 N262 N 0.14008 0.32901 1.18173
 C263 C 0.12843 0.32670 1.19133
 C264 C 0.12072 0.31399 1.18660
 C265 C 0.12825 0.30894 1.17391
 H266 H 0.12575 0.33367 1.20102
 H267 H 0.12541 0.29917 1.16710
 Cu268 Cu 0.15567 0.34457 1.18169
 Cu269 Cu 0.15509 0.31738 1.15523
 Cu270 Cu 0.18291 0.34515 1.15519
 N271 N 0.17127 0.36013 1.18169
 N272 N 0.18193 0.36024 1.17126
 C273 C 0.19135 0.37195 1.17385
 C274 C 0.18630 0.37947 1.18654
 C275 C 0.17358 0.37176 1.19128
 H276 H 0.20113 0.37479 1.16703
 H277 H 0.16661 0.37444 1.20098
 N278 N 0.18193 0.32891 1.13993
 N279 N 0.17134 0.31832 1.13994
 C280 C 0.17377 0.30889 1.12821
 C281 C 0.18645 0.31382 1.12056
 C282 C 0.19137 0.32649 1.12819
 H283 H 0.16687 0.29917 1.12540
 H284 H 0.20109 0.33339 1.12537
 H285 H 0.17226 0.32805 1.16710
 H286 H 0.16006 0.34023 1.15486
 N287 N 0.14003 0.81833 0.67123
 N288 N 0.14021 0.82890 0.68171
 C289 C 0.12849 0.82667 0.69124
 C290 C 0.12068 0.81406 0.68642
 C291 C 0.12820 0.80901 0.67372
 H292 H 0.12579 0.83368 0.70091
 H293 H 0.12529 0.79931 0.66685
 Cu294 Cu 0.15581 0.84445 0.68170
 Cu295 Cu 0.15513 0.81737 0.65512
 Cu296 Cu 0.18295 0.84512 0.65511
 N297 N 0.17141 0.86000 0.68170
 N298 N 0.18199 0.86018 0.67121
 C299 C 0.19134 0.87198 0.67369
 C300 C 0.18629 0.87949 0.68638
 C301 C 0.17366 0.87170 0.69122
 H302 H 0.20105 0.87488 0.66681
 H303 H 0.16665 0.87441 0.70089
 N304 N 0.18198 0.82890 0.63985
 N305 N 0.17139 0.81831 0.63984
 C306 C 0.17385 0.80887 0.62812
 C307 C 0.18654 0.81379 0.62050
 C308 C 0.19145 0.82646 0.62813
 H309 H 0.16695 0.79914 0.62531
 H310 H 0.20119 0.83335 0.62534
 H311 H 0.17230 0.82804 0.66687
 H312 H 0.16003 0.84032 0.65479
 N313 N 0.36001 0.68194 0.67126
 N314 N 0.35987 0.67130 0.68170
 C315 C 0.37151 0.67362 0.69131
 C316 C 0.37925 0.68632 0.68657
 C317 C 0.37174 0.69136 0.67386
 H318 H 0.37417 0.66666 0.70102
 H319 H 0.37459 0.70112 0.66704
 Cu320 Cu 0.34430 0.65570 0.68166
 Cu321 Cu 0.34491 0.68290 0.65516
 Cu322 Cu 0.31712 0.65509 0.65513
 N323 N 0.32872 0.64010 0.68165
 N324 N 0.31808 0.63997 0.67121
 C325 C 0.30867 0.62824 0.67379
 C326 C 0.31370 0.62072 0.68649
 C327 C 0.32640 0.62845 0.69125
 H328 H 0.29891 0.62539 0.66696
 H329 H 0.33336 0.62579 0.70097
 N330 N 0.31809 0.67134 0.63985
 N331 N 0.32867 0.68193 0.63985
 C332 C 0.32624 0.69137 0.62811
 C333 C 0.31356 0.68645 0.62047
 C334 C 0.30865 0.67377 0.62811
 H335 H 0.33313 0.70110 0.62531
 H336 H 0.29892 0.66688 0.62530
 H337 H 0.32776 0.67222 0.66701
 H338 H 0.33999 0.66003 0.65480
 N339 N 0.36007 0.18168 1.17130
 N340 N 0.35988 0.17111 1.18179
 C341 C 0.37160 0.17332 1.19131
 C342 C 0.37943 0.18594 1.18649
 C343 C 0.37190 0.19100 1.17380
 H344 H 0.37431 0.16631 1.20097
 H345 H 0.37481 0.20070 1.16692
 Cu346 Cu 0.34435 0.15548 1.18176
 Cu347 Cu 0.34497 0.18264 1.15522
 Cu348 Cu 0.31717 0.15486 1.15519
 N349 N 0.32874 0.13995 1.18174
 N350 N 0.31816 0.13977 1.17126
 C351 C 0.30883 0.12796 1.17375
 C352 C 0.31388 0.12044 1.18643
 C353 C 0.32651 0.12823 1.19126
 H354 H 0.29911 0.12506 1.16688
 H355 H 0.33352 0.12551 1.20092
 N356 N 0.31811 0.17112 1.13996
 N357 N 0.32871 0.18170 1.13995
 C358 C 0.32623 0.19117 1.12824
 C359 C 0.31353 0.18626 1.12064
 C360 C 0.30863 0.17358 1.12827
 H361 H 0.33312 0.20090 1.12543
 H362 H 0.29889 0.16669 1.12548
 H363 H 0.32784 0.17190 1.16698
 H364 H 0.34010 0.15966 1.15486
 N365 N 0.86005 0.68170 1.17126
 N366 N 0.85983 0.67115 1.18179
 C367 C 0.87152 0.67340 1.19134
 C368 C 0.87935 0.68600 1.18651
 C369 C 0.87186 0.69103 1.17378
 H370 H 0.87416 0.66645 1.20106
 H371 H 0.87476 0.70075 1.16692
 Cu372 Cu 0.84419 0.65563 1.18184
 Cu373 Cu 0.84489 0.68267 1.15522
 Cu374 Cu 0.81685 0.65514 1.15546
 N375 N 0.82857 0.64011 1.18189
 N376 N 0.81785 0.64006 1.17154
 C377 C 0.80850 0.62827 1.17405
 C378 C 0.81370 0.62060 1.18658
 C379 C 0.82643 0.62830 1.19132
 H380 H 0.79871 0.62546 1.16726
 H381 H 0.83356 0.62546 1.20086
 N382 N 0.81782 0.67136 1.14018
 N383 N 0.82857 0.68178 1.14000
 C384 C 0.82617 0.69116 1.12822
 C385 C 0.81334 0.68638 1.12074
 C386 C 0.80829 0.67386 1.12853
 H387 H 0.83320 0.70075 1.12526
 H388 H 0.79844 0.66709 1.12586
 H389 H 0.82774 0.67210 1.16710
 H390 H 0.83982 0.65971 1.15494
 N391 N 0.85992 0.18171 0.67123
 N392 N 0.85968 0.17117 0.68176
 C393 C 0.87142 0.17335 0.69126
 C394 C 0.87930 0.18592 0.68640
 C395 C 0.87178 0.19098 0.67371
 H396 H 0.87411 0.16635 0.70093
 H397 H 0.87473 0.20067 0.66681
 Cu398 Cu 0.84410 0.15561 0.68174
 Cu399 Cu 0.84482 0.18265 0.65512
 Cu400 Cu 0.81703 0.15484 0.65510
 N401 N 0.82856 0.14002 0.68173
 N402 N 0.81801 0.13977 0.67120
 C403 C 0.80874 0.12791 0.67367
 C404 C 0.81381 0.12042 0.68636
 C405 C 0.82637 0.12829 0.69123
 H406 H 0.79906 0.12496 0.66677
 H407 H 0.83336 0.12560 0.70091
 N408 N 0.81799 0.17108 0.63984
 N409 N 0.82857 0.18168 0.63984
 C410 C 0.82607 0.19116 0.62815
 C411 C 0.81337 0.18624 0.62055
 C412 C 0.80849 0.17355 0.62817
 H413 H 0.83293 0.20092 0.62536
 H414 H 0.79874 0.16667 0.62539
 H415 H 0.82766 0.17191 0.66678
 H416 H 0.83999 0.15963 0.65478
 N417 N 0.31802 0.36005 0.67115
 N418 N 0.32864 0.35987 0.68161
 C419 C 0.32640 0.37157 0.69114
 C420 C 0.31375 0.37939 0.68634
 C421 C 0.30868 0.37187 0.67366
 H422 H 0.33339 0.37425 0.70081
 H423 H 0.29896 0.37479 0.66681
 Cu424 Cu 0.34419 0.34423 0.68173
 Cu425 Cu 0.31705 0.34493 0.65511
 Cu426 Cu 0.34487 0.31710 0.65512
 N427 N 0.35980 0.32867 0.68163
 N428 N 0.35998 0.31806 0.67117
 C429 C 0.37180 0.30872 0.67370
 C430 C 0.37932 0.31378 0.68638
 C431 C 0.37151 0.32642 0.69117
 H432 H 0.37472 0.29900 0.66685
 H433 H 0.37419 0.33341 0.70084
 N434 N 0.32859 0.31806 0.63987
 N435 N 0.31799 0.32866 0.63987
 C436 C 0.30852 0.32621 0.62816
 C437 C 0.31345 0.31352 0.62054
 C438 C 0.32614 0.30860 0.62816
 H439 H 0.29878 0.33312 0.62536
 H440 H 0.33305 0.29887 0.62536
 H441 H 0.32774 0.32780 0.66688
 H442 H 0.34000 0.34004 0.65479
 N443 N 0.31826 0.86029 0.17094
 N444 N 0.32890 0.86015 0.18137
 C445 C 0.32659 0.87180 0.19095
 C446 C 0.31388 0.87954 0.18620
 C447 C 0.30884 0.87203 0.17352
 H448 H 0.33356 0.87445 0.20065
 H449 H 0.29904 0.87488 0.16672
 Cu450 Cu 0.34446 0.84454 0.18145
 Cu451 Cu 0.31727 0.84515 0.15492
 Cu452 Cu 0.34508 0.81733 0.15496
 N453 N 0.36005 0.82895 0.18143
 N454 N 0.36020 0.81830 0.17102
 C455 C 0.37193 0.80888 0.17363
 C456 C 0.37944 0.81393 0.18631
 C457 C 0.37169 0.82664 0.19104
 H458 H 0.37478 0.79908 0.16685
 H459 H 0.37434 0.83361 0.20073
 N460 N 0.32882 0.81828 0.13970
 N461 N 0.31822 0.82888 0.13968
 C462 C 0.30878 0.82645 0.12795
 C463 C 0.31372 0.81377 0.12032
 C464 C 0.32640 0.80884 0.12797
 H465 H 0.29906 0.83337 0.12512
 H466 H 0.33332 0.79911 0.12517
 H467 H 0.32792 0.82801 0.16685
 H468 H 0.34014 0.84018 0.15463
 N469 N 0.81821 0.36031 0.17103
 N470 N 0.82885 0.36017 0.18146
 C471 C 0.82655 0.37180 0.19105
 C472 C 0.81384 0.37955 0.18630
 C473 C 0.80879 0.37206 0.17361
 H474 H 0.83351 0.37446 0.20075
 H475 H 0.79902 0.37492 0.16679
 Cu476 Cu 0.84444 0.34457 0.18144
 Cu477 Cu 0.81722 0.34519 0.15497
 Cu478 Cu 0.84503 0.31735 0.15499
 N479 N 0.86000 0.32896 0.18149
 N480 N 0.86014 0.31832 0.17107
 C481 C 0.87188 0.30890 0.17366
 C482 C 0.87938 0.31394 0.18636
 C483 C 0.87164 0.32665 0.19109
 H484 H 0.87474 0.29912 0.16686
 H485 H 0.87430 0.33361 0.20079
 N486 N 0.82877 0.31833 0.13972
 N487 N 0.81817 0.32893 0.13971
 C488 C 0.80872 0.32650 0.12799
 C489 C 0.81365 0.31382 0.12036
 C490 C 0.82633 0.30888 0.12800
 H491 H 0.79899 0.33341 0.12518
 H492 H 0.83324 0.29915 0.12519
 H493 H 0.82790 0.32806 0.16685
 H494 H 0.84010 0.34022 0.15461
 N495 N 0.81822 0.86034 0.67111
 N496 N 0.82885 0.86020 0.68155
 C497 C 0.82654 0.87186 0.69112
 C498 C 0.81384 0.87962 0.68636
 C499 C 0.80881 0.87209 0.67367
 H500 H 0.83351 0.87453 0.70082
 H501 H 0.79905 0.87496 0.66683
 Cu502 Cu 0.84446 0.84460 0.68151
 Cu503 Cu 0.81725 0.84521 0.65504
 Cu504 Cu 0.84506 0.81737 0.65504
 N505 N 0.86003 0.82898 0.68155
 N506 N 0.86017 0.81834 0.67112
 C507 C 0.87192 0.80893 0.67370
 C508 C 0.87944 0.81397 0.68638
 C509 C 0.87169 0.82667 0.69113
 H510 H 0.87479 0.79916 0.66688
 H511 H 0.87436 0.83363 0.70083
 N512 N 0.82880 0.81835 0.63978
 N513 N 0.81820 0.82895 0.63978
 C514 C 0.80874 0.82652 0.62806
 C515 C 0.81367 0.81383 0.62043
 C516 C 0.82635 0.80890 0.62806
 H517 H 0.79901 0.83343 0.62525
 H518 H 0.83326 0.79916 0.62526
 H519 H 0.82795 0.82808 0.66689
 H520 H 0.84015 0.84025 0.65466
 N521 N 0.68196 0.63990 0.67137
 N522 N 0.67132 0.64005 0.68182
 C523 C 0.67363 0.62839 0.69140
 C524 C 0.68633 0.62063 0.68663
 C525 C 0.69137 0.62815 0.67393
 H526 H 0.66666 0.62572 0.70111
 H527 H 0.70112 0.62528 0.66709
 Cu528 Cu 0.65569 0.65562 0.68177
 Cu529 Cu 0.68289 0.65500 0.65527
 Cu530 Cu 0.65504 0.68280 0.65527
 N531 N 0.64009 0.67123 0.68184
 N532 N 0.63994 0.68184 0.67138
 C533 C 0.62820 0.69126 0.67395
 C534 C 0.62070 0.68627 0.68668
 C535 C 0.62845 0.67356 0.69145
 H536 H 0.62533 0.70100 0.66711
 H537 H 0.62579 0.66662 0.70117
 N538 N 0.67127 0.68181 0.63996
 N539 N 0.68188 0.67123 0.63996
 C540 C 0.69134 0.67368 0.62823
 C541 C 0.68639 0.68636 0.62060
 C542 C 0.67369 0.69126 0.62822
 H543 H 0.70110 0.66680 0.62544
 H544 H 0.66677 0.70098 0.62542
 H545 H 0.67218 0.67214 0.66712
 H546 H 0.65998 0.65994 0.65492
 N547 N 0.68205 0.13957 0.17109
 N548 N 0.67141 0.13971 0.18151
 C549 C 0.67370 0.12804 0.19110
 C550 C 0.68641 0.12030 0.18635
 C551 C 0.69147 0.12783 0.17367
 H552 H 0.66672 0.12537 0.20079
 H553 H 0.70125 0.12498 0.16685
 Cu554 Cu 0.65575 0.15524 0.18153
 Cu555 Cu 0.68301 0.15470 0.15502
 Cu556 Cu 0.65518 0.18251 0.15507
 N557 N 0.64020 0.17089 0.18156
 N558 N 0.64006 0.18153 0.17114
 C559 C 0.62834 0.19096 0.17374
 C560 C 0.62081 0.18592 0.18643
 C561 C 0.62853 0.17319 0.19116
 H562 H 0.62549 0.20074 0.16694
 H563 H 0.62586 0.16622 0.20085
 N564 N 0.67142 0.18155 0.13978
 N565 N 0.68203 0.17096 0.13975
 C566 C 0.69146 0.17340 0.12801
 C567 C 0.68652 0.18609 0.12039
 C568 C 0.67384 0.19100 0.12805
 H569 H 0.70120 0.16649 0.12518
 H570 H 0.66692 0.20073 0.12525
 H571 H 0.67232 0.17182 0.16693
 H572 H 0.66013 0.15967 0.15469
 N573 N 0.18181 0.63989 0.17103
 N574 N 0.17122 0.64008 0.18148
 C575 C 0.17342 0.62834 0.19100
 C576 C 0.18606 0.62052 0.18618
 C577 C 0.19115 0.62806 0.17352
 H578 H 0.16640 0.62564 0.20064
 H579 H 0.20087 0.62514 0.16666
 Cu580 Cu 0.15556 0.65563 0.18161
 Cu581 Cu 0.18277 0.65500 0.15496
 Cu582 Cu 0.15496 0.68283 0.15498
 N583 N 0.14002 0.67128 0.18150
 N584 N 0.13985 0.68187 0.17106
 C585 C 0.12803 0.69123 0.17356
 C586 C 0.12049 0.68618 0.18624
 C587 C 0.12828 0.67352 0.19104
 H588 H 0.12513 0.70096 0.16671
 H589 H 0.12557 0.66651 0.20069
 N590 N 0.17123 0.68187 0.13972
 N591 N 0.18182 0.67127 0.13971
 C592 C 0.19129 0.67372 0.12799
 C593 C 0.18638 0.68642 0.12038
 C594 C 0.17368 0.69134 0.12801
 H595 H 0.20103 0.66681 0.12518
 H596 H 0.16678 0.70108 0.12522
 H597 H 0.17206 0.67211 0.16677
 H598 H 0.15980 0.65990 0.15466
 N599 N 0.18177 0.13964 0.67124
 N600 N 0.17118 0.13983 0.68173
 C601 C 0.17341 0.12808 0.69122
 C602 C 0.18604 0.12025 0.68639
 C603 C 0.19110 0.12781 0.67372
 H604 H 0.16639 0.12537 0.70088
 H605 H 0.20082 0.12490 0.66684
 Cu606 Cu 0.15555 0.15543 0.68174
 Cu607 Cu 0.18269 0.15477 0.65515
 Cu608 Cu 0.15486 0.18259 0.65518
 N609 N 0.13995 0.17103 0.68175
 N610 N 0.13977 0.18162 0.67127
 C611 C 0.12795 0.19097 0.67377
 C612 C 0.12041 0.18594 0.68645
 C613 C 0.12821 0.17328 0.69127
 H614 H 0.12505 0.20069 0.66690
 H615 H 0.12549 0.16628 0.70093
 N616 N 0.17112 0.18164 0.63990
 N617 N 0.18172 0.17104 0.63989
 C618 C 0.19119 0.17351 0.62817
 C619 C 0.18627 0.18621 0.62057
 C620 C 0.17357 0.19112 0.62820
 H621 H 0.20094 0.16662 0.62536
 H622 H 0.16666 0.20086 0.62541
 H623 H 0.17197 0.17190 0.66693
 H624 H 0.15971 0.15967 0.65483
 N625 N 0.31803 0.63985 0.32869
 N626 N 0.32863 0.64003 0.31819
 C627 C 0.32640 0.62831 0.30869
 C628 C 0.31376 0.62052 0.31351
 C629 C 0.30870 0.62804 0.32619
 H630 H 0.33340 0.62560 0.29902
 H631 H 0.29897 0.62515 0.33306
 Cu632 Cu 0.34421 0.65560 0.31817
 Cu633 Cu 0.31704 0.65495 0.34475
 Cu634 Cu 0.34484 0.68274 0.34473
 N635 N 0.35978 0.67120 0.31815
 N636 N 0.35995 0.68178 0.32864
 C637 C 0.37177 0.69111 0.32614
 C638 C 0.37931 0.68606 0.31345
 C639 C 0.37151 0.67344 0.30864
 H640 H 0.37466 0.70082 0.33301
 H641 H 0.37423 0.66644 0.29897
 N642 N 0.32856 0.68180 0.35999
 N643 N 0.31797 0.67122 0.36000
 C644 C 0.30850 0.67367 0.37171
 C645 C 0.31341 0.68635 0.37934
 C646 C 0.32610 0.69125 0.37170
 H647 H 0.29876 0.66678 0.37452
 H648 H 0.33301 0.70098 0.37451
 H649 H 0.32772 0.67204 0.33296
 H650 H 0.33998 0.65979 0.34507
 N651 N 0.31799 0.13966 0.82887
 N652 N 0.32858 0.13985 0.81838
 C653 C 0.32636 0.12813 0.80887
 C654 C 0.31372 0.12033 0.81369
 C655 C 0.30866 0.12785 0.82637
 H656 H 0.33338 0.12542 0.79921
 H657 H 0.29894 0.12495 0.83324
 Cu658 Cu 0.34418 0.15541 0.81837
 Cu659 Cu 0.31701 0.15475 0.84495
 Cu660 Cu 0.34479 0.18254 0.84493
 N661 N 0.35973 0.17103 0.81835
 N662 N 0.35991 0.18160 0.82884
 C663 C 0.37172 0.19094 0.82633
 C664 C 0.37926 0.18590 0.81365
 C665 C 0.37146 0.17327 0.80883
 H666 H 0.37461 0.20065 0.83321
 H667 H 0.37417 0.16627 0.79917
 N668 N 0.32853 0.18158 0.86022
 N669 N 0.31794 0.17100 0.86022
 C670 C 0.30847 0.17344 0.87193
 C671 C 0.31338 0.18611 0.87957
 C672 C 0.32608 0.19103 0.87194
 H673 H 0.29874 0.16654 0.87474
 H674 H 0.33298 0.20075 0.87475
 H675 H 0.32768 0.17185 0.83316
 H676 H 0.33994 0.15960 0.84527
 N677 N 0.81828 0.63987 0.82893
 N678 N 0.82892 0.64001 0.81849
 C679 C 0.82661 0.62836 0.80890
 C680 C 0.81391 0.62061 0.81367
 C681 C 0.80887 0.62813 0.82637
 H682 H 0.83358 0.62570 0.79920
 H683 H 0.79911 0.62528 0.83320
 Cu684 Cu 0.84450 0.65561 0.81850
 Cu685 Cu 0.81729 0.65500 0.84500
 Cu686 Cu 0.84507 0.68283 0.84497
 N687 N 0.86006 0.67123 0.81844
 N688 N 0.86018 0.68187 0.82887
 C689 C 0.87191 0.69128 0.82628
 C690 C 0.87943 0.68625 0.81358
 C691 C 0.87171 0.67355 0.80884
 H692 H 0.87475 0.70105 0.83310
 H693 H 0.87438 0.66659 0.79914
 N694 N 0.82882 0.68186 0.86026
 N695 N 0.81824 0.67126 0.86027
 C696 C 0.80879 0.67368 0.87201
 C697 C 0.81370 0.68636 0.87964
 C698 C 0.82637 0.69129 0.87199
 H699 H 0.79908 0.66677 0.87484
 H700 H 0.83327 0.70102 0.87480
 H701 H 0.82794 0.67214 0.83312
 H702 H 0.84017 0.65997 0.84535
 N703 N 0.81823 0.13960 0.32872
 N704 N 0.82881 0.13980 0.31822
 C705 C 0.82661 0.12807 0.30872
 C706 C 0.81399 0.12026 0.31356
 C707 C 0.80892 0.12778 0.32624
 H708 H 0.83362 0.12537 0.29905
 H709 H 0.79919 0.12488 0.33310
 Cu710 Cu 0.84437 0.15540 0.31819
 Cu711 Cu 0.81722 0.15471 0.34478
 Cu712 Cu 0.84498 0.18253 0.34474
 N713 N 0.85993 0.17101 0.31817
 N714 N 0.86010 0.18159 0.32866
 C715 C 0.87190 0.19092 0.32615
 C716 C 0.87945 0.18588 0.31347
 C717 C 0.87166 0.17325 0.30865
 H718 H 0.87478 0.20065 0.33301
 H719 H 0.87438 0.16625 0.29899
 N720 N 0.82870 0.18158 0.36001
 N721 N 0.81812 0.17098 0.36002
 C722 C 0.80865 0.17342 0.37174
 C723 C 0.81355 0.18611 0.37936
 C724 C 0.82623 0.19103 0.37173
 H725 H 0.79893 0.16651 0.37455
 H726 H 0.83312 0.20076 0.37453
 H727 H 0.82785 0.17183 0.33299
 H728 H 0.84014 0.15960 0.34509
 N729 N 0.68194 0.36015 0.32875
 N730 N 0.67133 0.36000 0.31828
 C731 C 0.67358 0.37171 0.30876
 C732 C 0.68623 0.37949 0.31357
 C733 C 0.69129 0.37194 0.32624
 H734 H 0.66661 0.37440 0.29908
 H735 H 0.70104 0.37480 0.33309
 Cu736 Cu 0.65581 0.34436 0.31808
 Cu737 Cu 0.68292 0.34501 0.34476
 Cu738 Cu 0.65516 0.31724 0.34472
 N739 N 0.64016 0.32882 0.31822
 N740 N 0.64002 0.31822 0.32869
 C741 C 0.62823 0.30886 0.32618
 C742 C 0.62068 0.31390 0.31351
 C743 C 0.62845 0.32656 0.30870
 H744 H 0.62538 0.29911 0.33302
 H745 H 0.62575 0.33355 0.29902
 N746 N 0.67143 0.31814 0.35998
 N747 N 0.68201 0.32873 0.35999
 C748 C 0.69147 0.32628 0.37171
 C749 C 0.68656 0.31360 0.37934
 C750 C 0.67388 0.30868 0.37170
 H751 H 0.70118 0.33319 0.37453
 H752 H 0.66697 0.29896 0.37450
 H753 H 0.67230 0.32791 0.33288
 H754 H 0.65999 0.34018 0.34496
 N755 N 0.68174 0.86046 0.82906
 N756 N 0.67130 0.86014 0.81843
 C757 C 0.67362 0.87177 0.80883
 C758 C 0.68617 0.87965 0.81373
 C759 C 0.69107 0.87227 0.82656
 H760 H 0.66675 0.87436 0.79903
 H761 H 0.70070 0.87525 0.83352
 Cu762 Cu 0.65575 0.84452 0.81838
 Cu763 Cu 0.68269 0.84539 0.84517
 Cu764 Cu 0.65510 0.81738 0.84493
 N765 N 0.64018 0.82892 0.81834
 N766 N 0.64003 0.81831 0.82880
 C767 C 0.62820 0.80901 0.82632
 C768 C 0.62061 0.81410 0.81368
 C769 C 0.62840 0.82674 0.80886
 H770 H 0.62529 0.79930 0.83320
 H771 H 0.62564 0.83380 0.79925
 N772 N 0.67131 0.81838 0.86027
 N773 N 0.68173 0.82913 0.86043
 C774 C 0.69114 0.82674 0.87220
 C775 C 0.68640 0.81390 0.87967
 C776 C 0.67384 0.80886 0.87192
 H777 H 0.70076 0.83375 0.87511
 H778 H 0.66709 0.79899 0.87459
 H779 H 0.67228 0.82819 0.83329
 H780 H 0.65982 0.84032 0.84530
 N781 N 0.18173 0.36002 0.82891
 N782 N 0.17111 0.35987 0.81845
 C783 C 0.17341 0.37154 0.80888
 C784 C 0.18611 0.37928 0.81364
 C785 C 0.19114 0.37175 0.82634
 H786 H 0.16643 0.37422 0.79919
 H787 H 0.20091 0.37459 0.83316
 Cu788 Cu 0.15541 0.34438 0.81845
 Cu789 Cu 0.18266 0.34490 0.84498
 Cu790 Cu 0.15487 0.31713 0.84497
 N791 N 0.13992 0.32868 0.81843
 N792 N 0.13976 0.31808 0.82890
 C793 C 0.12802 0.30868 0.82634
 C794 C 0.12049 0.31370 0.81364
 C795 C 0.12824 0.32639 0.80887
 H796 H 0.12518 0.29891 0.83316
 H797 H 0.12555 0.33336 0.79917
 N798 N 0.17110 0.31808 0.86027
 N799 N 0.18169 0.32866 0.86026
 C800 C 0.19114 0.32623 0.87200
 C801 C 0.18622 0.31356 0.87964
 C802 C 0.17353 0.30864 0.87201
 H803 H 0.20086 0.33312 0.87481
 H804 H 0.16663 0.29892 0.87482
 H805 H 0.17199 0.32779 0.83307
 H806 H 0.15978 0.33998 0.84529
 N807 N 0.18183 0.86027 0.32861
 N808 N 0.17119 0.86014 0.31818
 C809 C 0.17352 0.87177 0.30858
 C810 C 0.18623 0.87949 0.31333
 C811 C 0.19126 0.87197 0.32603
 H812 H 0.16656 0.87445 0.29887
 H813 H 0.20103 0.87482 0.33285
 Cu814 Cu 0.15558 0.84459 0.31821
 Cu815 Cu 0.18279 0.84519 0.34471
 Cu816 Cu 0.15498 0.81743 0.34472
 N817 N 0.13998 0.82902 0.31819
 N818 N 0.13986 0.81839 0.32864
 C819 C 0.12814 0.80897 0.32607
 C820 C 0.12060 0.81399 0.31337
 C821 C 0.12833 0.82670 0.30860
 H822 H 0.12530 0.79922 0.33290
 H823 H 0.12565 0.83365 0.29889
 N824 N 0.17122 0.81839 0.36002
 N825 N 0.18182 0.82897 0.36001
 C826 C 0.19125 0.82655 0.37176
 C827 C 0.18633 0.81388 0.37940
 C828 C 0.17365 0.80897 0.37176
 H829 H 0.20098 0.83345 0.37456
 H830 H 0.16674 0.79925 0.37458
 H831 H 0.17214 0.82808 0.33284
 H832 H 0.15993 0.84028 0.34505
 O833 O 0.25156 1.01487 0.23072
 O834 O 0.23079 0.98521 0.25137
 O835 O 0.23083 1.01494 0.25136
 O836 O 0.25156 0.98518 0.23074
 O837 O 0.26927 0.98516 0.24845
 O838 O 0.24853 1.01492 0.26907
 O839 O 0.24850 0.98518 0.26908
 O840 O 0.26926 1.01483 0.24844
 Cu841 Cu 0.23939 1.00005 0.23926
 Cu842 Cu 0.26067 1.00001 0.26055
 C843 C 0.26377 1.02005 0.23625
 C844 C 0.23629 0.97999 0.26355
 C845 C 0.23634 1.02016 0.26354
 C846 C 0.26378 0.97997 0.23625
 O847 O 0.25145 0.51487 0.73085
 O848 O 0.23072 0.48510 0.75148
 O849 O 0.23070 0.51483 0.75150
 O850 O 0.25146 0.48512 0.73084
 O851 O 0.26917 0.48510 0.74855
 O852 O 0.24842 0.51480 0.76920
 O853 O 0.24842 0.48506 0.76919
 O854 O 0.26915 0.51483 0.74856
 Cu855 Cu 0.23930 0.49998 0.73938
 Cu856 Cu 0.26058 0.49995 0.76066
 C857 C 0.26365 0.52008 0.73638
 C858 C 0.23622 0.47985 0.76366
 C859 C 0.23621 0.52003 0.76368
 C860 C 0.26367 0.47989 0.73637
 O861 O 0.73097 0.01460 0.24866
 O862 O 0.75169 -0.01517 0.26930
 O863 O 0.75172 0.01459 0.26930
 O864 O 0.73096 -0.01507 0.24866
 O865 O 0.74869 -0.01510 0.23095
 O866 O 0.76944 0.01455 0.25160
 O867 O 0.76941 -0.01519 0.25160
 O868 O 0.74870 0.01458 0.23095
 Cu869 Cu 0.73956 -0.00025 0.26078
 Cu870 Cu 0.76086 -0.00029 0.23950
 C871 C 0.73646 0.01979 0.23645
 C872 C 0.76388 -0.02042 0.26377
 C873 C 0.76392 0.01979 0.26377
 C874 C 0.73646 -0.02027 0.23646
 O875 O 0.74864 0.48498 0.73100
 O876 O 0.76936 0.51474 0.75164
 O877 O 0.76937 0.48500 0.75165
 O878 O 0.74861 0.51474 0.73100
 O879 O 0.73090 0.51474 0.74871
 O880 O 0.75166 0.48500 0.76936
 O881 O 0.75165 0.51476 0.76935
 O882 O 0.73092 0.48500 0.74871
 Cu883 Cu 0.76078 0.49987 0.73954
 Cu884 Cu 0.73950 0.49988 0.76081
 C885 C 0.73643 0.47976 0.73653
 C886 C 0.76386 0.51997 0.76383
 C887 C 0.76387 0.47977 0.76384
 C888 C 0.73640 0.51996 0.73652
 O889 O 0.23075 0.51487 0.24850
 O890 O 0.25149 0.48510 0.26913
 O891 O 0.25149 0.51486 0.26914
 O892 O 0.23075 0.48519 0.24849
 O893 O 0.24847 0.48518 0.23078
 O894 O 0.26921 0.51484 0.25143
 O895 O 0.26920 0.48510 0.25142
 O896 O 0.24847 0.51487 0.23079
 Cu897 Cu 0.23934 0.50001 0.26061
 Cu898 Cu 0.26063 0.50000 0.23933
 C899 C 0.23625 0.52007 0.23630
 C900 C 0.26368 0.47986 0.26359
 C901 C 0.26369 0.52007 0.26361
 C902 C 0.23625 0.48000 0.23630
 O903 O 0.74840 1.01521 0.76931
 O904 O 0.76912 0.98535 0.74871
 O905 O 0.76911 1.01503 0.74864
 O906 O 0.74839 0.98541 0.76938
 O907 O 0.73066 0.98540 0.75169
 O908 O 0.75138 1.01503 0.73095
 O909 O 0.75139 0.98533 0.73103
 O910 O 0.73067 1.01519 0.75163
 Cu911 Cu 0.76053 1.00025 0.76080
 Cu912 Cu 0.73923 1.00023 0.73956
 C913 C 0.73620 1.02046 0.76378
 C914 C 0.76363 0.98013 0.73653
 C915 C 0.76361 1.02021 0.73644
 C916 C 0.73620 0.98018 0.76386
 O917 O 0.74848 0.51493 0.26918
 O918 O 0.76922 0.48520 0.24854
 O919 O 0.76920 0.51488 0.24855
 O920 O 0.74848 0.48518 0.26920
 O921 O 0.73076 0.48520 0.25149
 O922 O 0.75148 0.51490 0.23085
 O923 O 0.75151 0.48520 0.23084
 O924 O 0.73076 0.51494 0.25148
 Cu925 Cu 0.76062 0.50004 0.26066
 Cu926 Cu 0.73933 0.50005 0.23939
 C927 C 0.73628 0.52017 0.26364
 C928 C 0.76374 0.48000 0.23635
 C929 C 0.76369 0.52010 0.23637
 C930 C 0.73627 0.47997 0.26367
 O931 O 0.25181 -0.01536 0.76928
 O932 O 0.23104 0.01454 0.74874
 O933 O 0.23101 -0.01515 0.74869
 O934 O 0.25180 0.01446 0.76938
 O935 O 0.26949 0.01448 0.75164
 O936 O 0.24871 -0.01512 0.73095
 O937 O 0.24873 0.01457 0.73101
 O938 O 0.26949 -0.01532 0.75155
 Cu939 Cu 0.23965 -0.00038 0.76082
 Cu940 Cu 0.26090 -0.00035 0.73952
 C941 C 0.26399 -0.02062 0.76370
 C942 C 0.23651 0.01977 0.73654
 C943 C 0.23649 -0.02031 0.73647
 C944 C 0.26398 0.01970 0.76382
 O945 O 0.24846 0.26909 0.98527
 O946 O 0.26915 0.24837 1.01496
 O947 O 0.26917 0.24837 0.98529
 O948 O 0.24850 0.26914 1.01494
 O949 O 0.23073 0.25147 1.01498
 O950 O 0.25140 0.23070 0.98532
 O951 O 0.25139 0.23070 1.01498
 O952 O 0.23069 0.25142 0.98532
 Cu953 Cu 0.26061 0.26053 1.00011
 Cu954 Cu 0.23926 0.23929 1.00015
 C955 C 0.23623 0.26360 0.98008
 C956 C 0.26361 0.23618 1.02018
 C957 C 0.26362 0.23618 0.98010
 C958 C 0.23629 0.26366 1.02017
 O959 O 0.23079 0.75172 0.51476
 O960 O 0.25146 0.73098 0.48508
 O961 O 0.25149 0.73098 0.51475
 O962 O 0.23076 0.75173 0.48509
 O963 O 0.24852 0.76941 0.48506
 O964 O 0.26924 0.74867 0.51472
 O965 O 0.26922 0.74866 0.48504
 O966 O 0.24855 0.76940 0.51473
 Cu967 Cu 0.23933 0.73957 0.49992
 Cu968 Cu 0.26067 0.76081 0.49989
 C969 C 0.23633 0.76391 0.51995
 C970 C 0.26367 0.73647 0.47985
 C971 C 0.26371 0.73648 0.51995
 C972 C 0.23629 0.76391 0.47987
 O973 O 0.26945 0.75141 -0.01496
 O974 O 0.24869 0.73079 0.01475
 O975 O 0.24869 0.73077 -0.01492
 O976 O 0.26942 0.75146 0.01473
 O977 O 0.25171 0.76922 0.01469
 O978 O 0.23097 0.74854 -0.01494
 O979 O 0.23098 0.74856 0.01473
 O980 O 0.25174 0.76917 -0.01500
 Cu981 Cu 0.26085 0.73932 -0.00010
 Cu982 Cu 0.23956 0.76066 -0.00013
 C983 C 0.26395 0.76362 -0.02020
 C984 C 0.23648 0.73635 0.01996
 C985 C 0.23648 0.73631 -0.02013
 C986 C 0.26391 0.76368 0.01992
 O987 O 0.25139 0.26909 0.51489
 O988 O 0.23068 0.24842 0.48523
 O989 O 0.23068 0.24841 0.51490
 O990 O 0.25140 0.26909 0.48522
 O991 O 0.26914 0.25135 0.48523
 O992 O 0.24842 0.23067 0.51491
 O993 O 0.24842 0.23068 0.48523
 O994 O 0.26914 0.25136 0.51489
 Cu995 Cu 0.23925 0.26054 0.50006
 Cu996 Cu 0.26057 0.23922 0.50007
 C997 C 0.26361 0.26357 0.52010
 C998 C 0.23622 0.23621 0.48002
 C999 C 0.23621 0.23621 0.52012
 C1000 C 0.26361 0.26356 0.48001
 O1001 O 0.74856 0.76928 0.98531
 O1002 O 0.76921 0.74848 1.01496
 O1003 O 0.76927 0.74855 0.98529
 O1004 O 0.74858 0.76926 1.01497
 O1005 O 0.73080 0.75159 1.01495
 O1006 O 0.75150 0.73088 0.98526
 O1007 O 0.75144 0.73081 1.01493
 O1008 O 0.73078 0.75162 0.98529
 Cu1009 Cu 0.76070 0.76067 1.00013
 Cu1010 Cu 0.73934 0.73944 1.00010
 C1011 C 0.73633 0.76382 0.98010
 C1012 C 0.76365 0.73629 1.02016
 C1013 C 0.76373 0.73637 0.98007
 C1014 C 0.73636 0.76376 1.02017
 O1015 O 0.74849 0.26900 0.48509
 O1016 O 0.76917 0.24824 0.51476
 O1017 O 0.76920 0.24826 0.48510
 O1018 O 0.74847 0.26898 0.51477
 O1019 O 0.73071 0.25130 0.51475
 O1020 O 0.75145 0.23058 0.48508
 O1021 O 0.75141 0.23056 0.51473
 O1022 O 0.73074 0.25132 0.48507
 Cu1023 Cu 0.76062 0.26041 0.49993
 Cu1024 Cu 0.73929 0.23916 0.49991
 C1025 C 0.73628 0.26351 0.47987
 C1026 C 0.76363 0.23604 0.51995
 C1027 C 0.76368 0.23607 0.47988
 C1028 C 0.73625 0.26348 0.51997
 O1029 O 0.76917 0.25165 -0.01493
 O1030 O 0.74855 0.23088 0.01477
 O1031 O 0.74849 0.23093 -0.01492
 O1032 O 0.76921 0.25161 0.01475
 O1033 O 0.75144 0.26931 0.01480
 O1034 O 0.73071 0.24863 -0.01487
 O1035 O 0.73077 0.24858 0.01482
 O1036 O 0.75140 0.26934 -0.01488
 Cu1037 Cu 0.76065 0.23948 -0.00009
 Cu1038 Cu 0.73928 0.26075 -0.00003
 C1039 C 0.76361 0.26385 -0.02011
 C1040 C 0.73633 0.23638 0.02001
 C1041 C 0.73626 0.23644 -0.02011
 C1042 C 0.76367 0.26381 0.01998
 O1043 O 0.74848 0.73092 0.51490
 O1044 O 0.76915 0.75164 0.48519
 O1045 O 0.76919 0.75162 0.51486
 O1046 O 0.74846 0.73094 0.48522
 O1047 O 0.73070 0.74865 0.48524
 O1048 O 0.75142 0.76934 0.51489
 O1049 O 0.75139 0.76935 0.48522
 O1050 O 0.73073 0.74864 0.51492
 Cu1051 Cu 0.76061 0.73949 0.50004
 Cu1052 Cu 0.73927 0.76078 0.50007
 C1053 C 0.73627 0.73644 0.52013
 C1054 C 0.76360 0.76384 0.47999
 C1055 C 0.76365 0.76382 0.52008
 C1056 C 0.73623 0.73646 0.48002
 O1057 O 1.01485 0.26934 0.24862
 O1058 O 0.98507 0.24856 0.26915
 O1059 O 1.01484 0.24854 0.26917
 O1060 O 0.98512 0.26932 0.24854
 O1061 O 0.98517 0.25168 0.23078
 O1062 O 1.01488 0.23090 0.25141
 O1063 O 0.98513 0.23092 0.25139
 O1064 O 1.01492 0.25170 0.23086
 Cu1065 Cu 0.99996 0.26072 0.26066
 Cu1066 Cu 1.00003 0.23952 0.23932
 C1067 C 1.02010 0.26389 0.23643
 C1068 C 0.97988 0.23638 0.26359
 C1069 C 1.02008 0.23636 0.26361
 C1070 C 0.97994 0.26387 0.23632
 O1071 O 0.48499 0.24837 0.76924
 O1072 O 0.51478 0.26909 0.74863
 O1073 O 0.48503 0.26909 0.74859
 O1074 O 0.51476 0.24835 0.76925
 O1075 O 0.51479 0.23066 0.75154
 O1076 O 0.48506 0.25141 0.73088
 O1077 O 0.51482 0.25141 0.73092
 O1078 O 0.48503 0.23069 0.75152
 Cu1079 Cu 0.49988 0.26051 0.76072
 Cu1080 Cu 0.49992 0.23926 0.73943
 C1081 C 0.47978 0.23618 0.76370
 C1082 C 0.52002 0.26360 0.73645
 C1083 C 0.47983 0.26360 0.73640
 C1084 C 0.51999 0.23615 0.76373
 O1085 O 0.01464 0.24836 0.73089
 O1086 O -0.01510 0.26919 0.75146
 O1087 O 0.01466 0.26915 0.75146
 O1088 O -0.01512 0.24842 0.73089
 O1089 O -0.01512 0.23078 0.74865
 O1090 O 0.01464 0.25151 0.76922
 O1091 O -0.01512 0.25155 0.76923
 O1092 O 0.01463 0.23072 0.74866
 Cu1093 Cu -0.00023 0.26056 0.73938
 Cu1094 Cu -0.00025 0.23936 0.76073
 C1095 C 0.01986 0.23618 0.73646
 C1096 C -0.02033 0.26374 0.76366
 C1097 C 0.01988 0.26368 0.76366
 C1098 C -0.02035 0.23625 0.73645
 O1099 O 0.48520 0.26898 0.25145
 O1100 O 0.51493 0.24818 0.23082
 O1101 O 0.48517 0.24821 0.23087
 O1102 O 0.51496 0.26898 0.25138
 O1103 O 0.51501 0.25134 0.26914
 O1104 O 0.48522 0.23056 0.24863
 O1105 O 0.51497 0.23054 0.24858
 O1106 O 0.48524 0.25133 0.26922
 Cu1107 Cu 0.50006 0.26037 0.23934
 Cu1108 Cu 0.50011 0.23916 0.26068
 C1109 C 0.48000 0.26352 0.26366
 C1110 C 0.52016 0.23600 0.23636
 C1111 C 0.47997 0.23603 0.23644
 C1112 C 0.52022 0.26351 0.26357
 O1113 O 1.01495 0.76942 0.74865
 O1114 O 0.98517 0.74866 0.76921
 O1115 O 1.01493 0.74862 0.76919
 O1116 O 0.98521 0.76940 0.74857
 O1117 O 0.98525 0.75175 0.73082
 O1118 O 1.01495 0.73096 0.75145
 O1119 O 0.98521 0.73101 0.75146
 O1120 O 1.01499 0.75176 0.73091
 Cu1121 Cu 1.00005 0.76081 0.76069
 Cu1122 Cu 1.00010 0.73959 0.73937
 C1123 C 1.02020 0.76394 0.73647
 C1124 C 0.97997 0.73648 0.76366
 C1125 C 1.02016 0.73644 0.76364
 C1126 C 0.98002 0.76394 0.73636
 O1127 O 0.51485 0.76933 0.24865
 O1128 O 0.48506 0.74858 0.26919
 O1129 O 0.51482 0.74854 0.26921
 O1130 O 0.48513 0.76933 0.24857
 O1131 O 0.48517 0.75168 0.23082
 O1132 O 0.51486 0.73088 0.25147
 O1133 O 0.48510 0.73092 0.25145
 O1134 O 0.51491 0.75167 0.23091
 Cu1135 Cu 0.49996 0.76072 0.26070
 Cu1136 Cu 0.50001 0.73950 0.23938
 C1137 C 0.52010 0.76386 0.23646
 C1138 C 0.47985 0.73640 0.26364
 C1139 C 0.52006 0.73636 0.26366
 C1140 C 0.47995 0.76387 0.23636
 O1141 O 0.01478 0.75166 0.26914
 O1142 O -0.01499 0.73088 0.24861
 O1143 O 0.01476 0.73086 0.24859
 O1144 O -0.01500 0.75164 0.26919
 O1145 O -0.01502 0.76928 0.25142
 O1146 O 0.01473 0.74850 0.23082
 O1147 O -0.01503 0.74851 0.23084
 O1148 O 0.01474 0.76930 0.25137
 Cu1149 Cu -0.00011 0.73948 0.26067
 Cu1150 Cu -0.00015 0.76068 0.23932
 C1151 C 0.01998 0.76384 0.26357
 C1152 C -0.02023 0.73633 0.23641
 C1153 C 0.01996 0.73632 0.23638
 C1154 C -0.02024 0.76382 0.26363
 O1155 O 0.48505 0.73097 0.74874
 O1156 O 0.51482 0.75171 0.76933
 O1157 O 0.48503 0.75169 0.76939
 O1158 O 0.51480 0.73094 0.74876
 O1159 O 0.51480 0.74861 0.73103
 O1160 O 0.48501 0.76936 0.75166
 O1161 O 0.51479 0.76939 0.75161
 O1162 O 0.48503 0.74865 0.73101
 Cu1163 Cu 0.49993 0.73955 0.76084
 Cu1164 Cu 0.49990 0.76079 0.73954
 C1165 C 0.47982 0.73645 0.73654
 C1166 C 0.52004 0.76389 0.76379
 C1167 C 0.47979 0.76388 0.76386
 C1168 C 0.52003 0.73642 0.73656
 C1169 C 0.41733 0.29520 0.29472
 N1170 N 0.42862 0.30430 0.28963
 N1171 N 0.44125 0.29833 0.28385
 C1172 C 0.44297 0.28308 0.28304
 N1173 N 0.43165 0.27399 0.28807
 N1174 N 0.41903 0.27996 0.29385
 C1175 C 0.40386 0.30163 0.30119
 C1176 C 0.39262 0.30706 0.30675
 C1177 C 0.45642 0.27659 0.27658
 C1178 C 0.46743 0.27083 0.27090
 C1179 C 0.41711 0.79568 0.79493
 N1180 N 0.42883 0.80469 0.79071
 N1181 N 0.44143 0.79868 0.78493
 C1182 C 0.44272 0.78346 0.78324
 N1183 N 0.43099 0.77445 0.78741
 N1184 N 0.41839 0.78046 0.79319
 C1185 C 0.40364 0.80214 0.80140
 C1186 C 0.39238 0.80757 0.80695
 C1187 C 0.45617 0.77694 0.77679
 C1188 C 0.46719 0.77118 0.77110
 C1189 C -0.08294 0.29569 0.79463
 N1190 N -0.07103 0.30464 0.79084
 N1191 N -0.05843 0.29860 0.78508
 C1192 C -0.05735 0.28342 0.78298
 N1193 N -0.06928 0.27447 0.78672
 N1194 N -0.08187 0.28051 0.79248
 C1195 C -0.09640 0.30217 0.80107
 C1196 C -0.10764 0.30762 0.80661
 C1197 C -0.04391 0.27688 0.77655
 C1198 C -0.03291 0.27109 0.77088
 C1199 C -0.08284 0.79568 0.29468
 N1200 N -0.07113 0.80468 0.29043
 N1201 N -0.05855 0.79865 0.28462
 C1202 C -0.05729 0.78343 0.28292
 N1203 N -0.06903 0.77444 0.28710
 N1204 N -0.08161 0.78047 0.29291
 C1205 C -0.09627 0.80216 0.30119
 C1206 C -0.10750 0.80760 0.30677
 C1207 C -0.04385 0.77690 0.27650
 C1208 C -0.03283 0.77113 0.27084
 C1209 C 0.58263 0.70483 0.29505
 N1210 N 0.58143 0.70682 0.27989
 N1211 N 0.56885 0.71272 0.27395
 C1212 C 0.55709 0.71677 0.28298
 N1213 N 0.55831 0.71483 0.29814
 N1214 N 0.57089 0.70893 0.30408
 C1215 C 0.59608 0.69834 0.30146
 C1216 C 0.60731 0.69285 0.30697
 C1217 C 0.54367 0.72332 0.27656
 C1218 C 0.53265 0.72907 0.27089
 C1219 C 0.58271 0.20468 0.79493
 N1220 N 0.57946 0.20279 0.78006
 N1221 N 0.56682 0.20865 0.77421
 C1222 C 0.55702 0.21651 0.78306
 N1223 N 0.56029 0.21845 0.79791
 N1224 N 0.57293 0.21259 0.80377
 C1225 C 0.59619 0.19819 0.80131
 C1226 C 0.60744 0.19268 0.80679
 C1227 C 0.54359 0.22309 0.77665
 C1228 C 0.53258 0.22886 0.77097
 C1229 C 1.08268 0.70483 0.79502
 N1230 N 1.08149 0.70682 0.77986
 N1231 N 1.06893 0.71275 0.77392
 C1232 C 1.05717 0.71681 0.78295
 N1233 N 1.05838 0.71487 0.79811
 N1234 N 1.07095 0.70894 0.80405
 C1235 C 1.09612 0.69830 0.80144
 C1236 C 1.10734 0.69279 0.80694
 C1237 C 1.04376 0.72338 0.77653
 C1238 C 1.03275 0.72914 0.77086
 C1239 C 1.08266 0.20481 0.29496
 N1240 N 1.08144 0.20678 0.27981
 N1241 N 1.06885 0.21267 0.27388
 C1242 C 1.05709 0.21672 0.28292
 N1243 N 1.05833 0.21477 0.29808
 N1244 N 1.07092 0.20889 0.30401
 C1245 C 1.09616 0.19839 0.30137
 C1246 C 1.10744 0.19296 0.30685
 C1247 C 1.04367 0.22329 0.27651
 C1248 C 1.03266 0.22906 0.27084
 C1249 C 0.58257 0.29520 0.70505
 N1250 N 0.58123 0.29349 0.72023
 N1251 N 0.56866 0.28757 0.72617
 C1252 C 0.55704 0.28323 0.71711
 N1253 N 0.55840 0.28489 0.70193
 N1254 N 0.57097 0.29080 0.69599
 C1255 C 0.59603 0.30171 0.69864
 C1256 C 0.60726 0.30721 0.69314
 C1257 C 0.54363 0.27665 0.72354
 C1258 C 0.53262 0.27089 0.72922
 C1259 C 0.58268 0.79552 0.20528
 N1260 N 0.56984 0.79453 0.19690
 N1261 N 0.55725 0.78863 0.20280
 C1262 C 0.55713 0.78355 0.21727
 N1263 N 0.56999 0.78452 0.22564
 N1264 N 0.58257 0.79042 0.21974
 C1265 C 0.59620 0.80192 0.19890
 C1266 C 0.60746 0.80735 0.19340
 C1267 C 0.54369 0.77697 0.22361
 C1268 C 0.53268 0.77118 0.22925
 C1269 C 1.08268 0.29554 0.20521
 N1270 N 1.08130 0.29382 0.22038
 N1271 N 1.06871 0.28793 0.22628
 C1272 C 1.05710 0.28362 0.21719
 N1273 N 1.05849 0.28530 0.20201
 N1274 N 1.07109 0.29119 0.19612
 C1275 C 1.09617 0.30199 0.19882
 C1276 C 1.10741 0.30745 0.19332
 C1277 C 1.04368 0.27702 0.22357
 C1278 C 1.03268 0.27122 0.22922
 C1279 C 1.08269 0.79558 0.70509
 N1280 N 1.08138 0.79386 0.72027
 N1281 N 1.06882 0.78794 0.72622
 C1282 C 1.05719 0.78361 0.71717
 N1283 N 1.05853 0.78528 0.70199
 N1284 N 1.07108 0.79120 0.69604
 C1285 C 1.09614 0.80208 0.69865
 C1286 C 1.10736 0.80755 0.69313
 C1287 C 1.04379 0.77702 0.72359
 C1288 C 1.03279 0.77124 0.72926
 C1289 C 0.41726 0.70469 0.70535
 N1290 N 0.41850 0.71990 0.70715
 N1291 N 0.43108 0.72589 0.71296
 C1292 C 0.44283 0.71687 0.71710
 N1293 N 0.44158 0.70166 0.71536
 N1294 N 0.42899 0.69566 0.70954
 C1295 C 0.40380 0.69825 0.69887
 C1296 C 0.39257 0.69283 0.69331
 C1297 C 0.45626 0.72337 0.72358
 C1298 C 0.46725 0.72914 0.72929
 C1299 C 0.41751 0.20418 0.20519
 N1300 N 0.43139 0.19907 0.20096
 N1301 N 0.44391 0.20509 0.20688
 C1302 C 0.44293 0.21641 0.21719
 N1303 N 0.42904 0.22151 0.22143
 N1304 N 0.41652 0.21550 0.21552
 C1305 C 0.40405 0.19778 0.19871
 C1306 C 0.39279 0.19238 0.19317
 C1307 C 0.45636 0.22295 0.22359
 C1308 C 0.46737 0.22872 0.22924
 C1309 C -0.08275 0.70439 0.20540
 N1310 N -0.08156 0.71961 0.20718
 N1311 N -0.06899 0.72564 0.21299
 C1312 C -0.05722 0.71665 0.21714
 N1313 N -0.05843 0.70143 0.21542
 N1314 N -0.07100 0.69540 0.20961
 C1315 C -0.09615 0.69792 0.19888
 C1316 C -0.10736 0.69249 0.19327
 C1317 C -0.04380 0.72320 0.22356
 C1318 C -0.03281 0.72899 0.22921
 C1319 C -0.08278 0.20427 0.70531
 N1320 N -0.07104 0.19529 0.70957
 N1321 N -0.05850 0.20134 0.71543
 C1322 C -0.05732 0.21657 0.71715
 N1323 N -0.06909 0.22554 0.71295
 N1324 N -0.08162 0.21948 0.70710
 C1325 C -0.09616 0.19778 0.69875
 C1326 C -0.10737 0.19236 0.69315
 C1327 C -0.04392 0.22313 0.72359
 C1328 C -0.03293 0.22893 0.72924
 C1329 C 0.29517 0.41708 0.29462
 N1330 N 0.30297 0.42521 0.28419
 N1331 N 0.29708 0.43785 0.27839
 C1332 C 0.28322 0.44278 0.28291
 N1333 N 0.27538 0.43461 0.29329
 N1334 N 0.28128 0.42197 0.29908
 C1335 C 0.30164 0.40363 0.30110
 C1336 C 0.30711 0.39242 0.30668
 C1337 C 0.27671 0.45621 0.27646
 C1338 C 0.27096 0.46724 0.27079
 C1339 C 0.29578 -0.08342 0.79471
 N1340 N 0.28186 -0.07860 0.79916
 N1341 N 0.27588 -0.06600 0.79334
 C1342 C 0.28365 -0.05780 0.78293
 N1343 N 0.29753 -0.06267 0.77842
 N1344 N 0.30352 -0.07527 0.78424
 C1345 C 0.30233 -0.09686 0.80122
 C1346 C 0.30782 -0.10807 0.80682
 C1347 C 0.27706 -0.04436 0.77649
 C1348 C 0.27128 -0.03330 0.77086
 C1349 C 0.79539 0.41706 0.79496
 N1350 N 0.80321 0.42518 0.78453
 N1351 N 0.79732 0.43784 0.77875
 C1352 C 0.78347 0.44278 0.78327
 N1353 N 0.77563 0.43461 0.79364
 N1354 N 0.78152 0.42196 0.79943
 C1355 C 0.80184 0.40359 0.80141
 C1356 C 0.80730 0.39236 0.80698
 C1357 C 0.77695 0.45619 0.77678
 C1358 C 0.77118 0.46719 0.77108
 C1359 C 0.79535 -0.08319 0.29488
 N1360 N 0.80315 -0.07508 0.28443
 N1361 N 0.79723 -0.06246 0.27859
 C1362 C 0.78337 -0.05754 0.28308
 N1363 N 0.77553 -0.06569 0.29347
 N1364 N 0.78145 -0.07831 0.29931
 C1365 C 0.80185 -0.09659 0.30142
 C1366 C 0.80733 -0.10778 0.30704
 C1367 C 0.77687 -0.04410 0.27663
 C1368 C 0.77114 -0.03306 0.27097
 C1369 C 0.29524 0.58274 0.70524
 N1370 N 0.28140 0.57782 0.70071
 N1371 N 0.27550 0.56519 0.70650
 C1372 C 0.28327 0.55705 0.71696
 N1373 N 0.29709 0.56200 0.72154
 N1374 N 0.30299 0.57464 0.71574
 C1375 C 0.30170 0.59620 0.69879
 C1376 C 0.30716 0.60742 0.69324
 C1377 C 0.27673 0.54365 0.72344
 C1378 C 0.27096 0.53266 0.72914
 C1379 C 0.29538 1.08260 0.20522
 N1380 N 0.28154 1.07771 0.20068
 N1381 N 0.27562 1.06510 0.20646
 C1382 C 0.28339 1.05696 0.21691
 N1383 N 0.29720 1.06188 0.22151
 N1384 N 0.30312 1.07450 0.21573
 C1385 C 0.30188 1.09599 0.19875
 C1386 C 0.30736 1.10717 0.19317
 C1387 C 0.27685 1.04357 0.22335
 C1388 C 0.27108 1.03259 0.22902
 C1389 C 0.79545 0.58246 0.20504
 N1390 N 0.79941 0.56863 0.19965
 N1391 N 0.79340 0.55611 0.20555
 C1392 C 0.78323 0.55706 0.21702
 N1393 N 0.77927 0.57090 0.22241
 N1394 N 0.78528 0.58342 0.21650
 C1395 C 0.80189 0.59592 0.19863
 C1396 C 0.80729 0.60720 0.19318
 C1397 C 0.77672 0.54364 0.22343
 C1398 C 0.77097 0.53265 0.22912
 C1399 C 0.79545 1.08253 0.70520
 N1400 N 0.78025 1.08027 0.70477
 N1401 N 0.77425 1.06771 0.71058
 C1402 C 0.78327 1.05701 0.71696
 N1403 N 0.79847 1.05931 0.71746
 N1404 N 0.80447 1.07187 0.71164
 C1405 C 0.80193 1.09592 0.69869
 C1406 C 0.80736 1.10712 0.69310
 C1407 C 0.77673 1.04365 0.72343
 C1408 C 0.77094 1.03270 0.72914
 C1409 C 0.70464 0.58274 0.29490
 N1410 N 0.71597 0.58369 0.28457
 N1411 N 0.72196 0.57115 0.27865
 C1412 C 0.71681 0.55730 0.28288
 N1413 N 0.70548 0.55636 0.29320
 N1414 N 0.69948 0.56890 0.29912
 C1415 C 0.69823 0.59621 0.30138
 C1416 C 0.69281 0.60745 0.30692
 C1417 C 0.72331 0.54385 0.27648
 C1418 C 0.72903 0.53281 0.27083
 C1419 C 0.70450 1.08317 0.79498
 N1420 N 0.71809 1.08366 0.78780
 N1421 N 0.72409 1.07110 0.78192
 C1422 C 0.71671 1.05767 0.78305
 N1423 N 0.70311 1.05719 0.79020
 N1424 N 0.69711 1.06975 0.79608
 C1425 C 0.69810 1.09666 0.80148
 C1426 C 0.69267 1.10792 0.80705
 C1427 C 0.72320 1.04418 0.77663
 C1428 C 0.72893 1.03313 0.77097
 C1429 C 0.20450 0.58256 0.79492
 N1430 N 0.19770 0.56894 0.79705
 N1431 N 0.20370 0.55639 0.79117
 C1432 C 0.21670 0.55709 0.78300
 N1433 N 0.22348 0.57071 0.78085
 N1434 N 0.21748 0.58326 0.78673
 C1435 C 0.19809 0.59602 0.80140
 C1436 C 0.19269 0.60727 0.80694
 C1437 C 0.22319 0.54364 0.77658
 C1438 C 0.22892 0.53262 0.77091
 C1439 C 0.20466 1.08277 0.29470
 N1440 N 0.19679 1.06958 0.29490
 N1441 N 0.20278 1.05701 0.28903
 C1442 C 0.21684 1.05726 0.28282
 N1443 N 0.22469 1.07047 0.28258
 N1444 N 0.21870 1.08303 0.28844
 C1445 C 0.19828 1.09625 0.30120
 C1446 C 0.19292 1.10752 0.30676
 C1447 C 0.22332 1.04380 0.27641
 C1448 C 0.22906 1.03277 0.27075
 C1449 C 0.70463 0.41725 0.70530
 N1450 N 0.69567 0.42921 0.70895
 N1451 N 0.70169 0.44176 0.71480
 C1452 C 0.71686 0.44274 0.71714
 N1453 N 0.72580 0.43076 0.71355
 N1454 N 0.71979 0.41821 0.70771
 C1455 C 0.69817 0.40383 0.69877
 C1456 C 0.69274 0.39261 0.69318
 C1457 C 0.72338 0.45617 0.72361
 C1458 C 0.72914 0.46717 0.72929
 C1459 C 0.70470 -0.08273 0.20538
 N1460 N 0.71847 -0.08314 0.21218
 N1461 N 0.72447 -0.07057 0.21798
 C1462 C 0.71690 -0.05721 0.21711
 N1463 N 0.70311 -0.05680 0.21034
 N1464 N 0.69711 -0.06937 0.20455
 C1465 C 0.69832 -0.09620 0.19895
 C1466 C 0.69291 -0.10743 0.19342
 C1467 C 0.72337 -0.04376 0.22351
 C1468 C 0.72913 -0.03278 0.22919
 C1469 C 0.20456 0.41750 0.20520
 N1470 N 0.19666 0.43070 0.20499
 N1471 N 0.20265 0.44328 0.21079
 C1472 C 0.21673 0.44303 0.21694
 N1473 N 0.22461 0.42983 0.21718
 N1474 N 0.21863 0.41725 0.21138
 C1475 C 0.19818 0.40402 0.19877
 C1476 C 0.19278 0.39278 0.19325
 C1477 C 0.22319 0.45648 0.22335
 C1478 C 0.22893 0.46747 0.22903
 C1479 C 0.20468 -0.08252 0.70496
 N1480 N 0.20280 -0.06893 0.69805
 N1481 N 0.20879 -0.05642 0.70400
 C1482 C 0.21682 -0.05714 0.71705
 N1483 N 0.21872 -0.07074 0.72395
 N1484 N 0.21273 -0.08325 0.71800
 C1485 C 0.19822 -0.09595 0.69854
 C1486 C 0.19277 -0.10718 0.69304
 C1487 C 0.22337 -0.04375 0.72346
 C1488 C 0.22915 -0.03280 0.72917
 C1489 C 0.29504 0.29504 0.41756
 N1490 N 0.29742 0.30169 0.43118
 N1491 N 0.29151 0.29574 0.44371
 C1492 C 0.28305 0.28294 0.44300
 N1493 N 0.28065 0.27630 0.42938
 N1494 N 0.28656 0.28225 0.41684
 C1495 C 0.30147 0.30145 0.40409
 C1496 C 0.30695 0.30690 0.39284
 C1497 C 0.27659 0.27651 0.45644
 C1498 C 0.27088 0.27081 0.46744
 C1499 C 0.29549 0.79502 -0.08269
 N1500 N 0.28701 0.78223 -0.08339
 N1501 N 0.28109 0.77628 -0.07086
 C1502 C 0.28348 0.78293 -0.05723
 N1503 N 0.29196 0.79572 -0.05653
 N1504 N 0.29787 0.80167 -0.06906
 C1505 C 0.30189 0.80145 -0.09617
 C1506 C 0.30734 0.80692 -0.10743
 C1507 C 0.27698 0.77652 -0.04379
 C1508 C 0.27124 0.77085 -0.03278
 C1509 C 0.79488 0.29557 -0.08254
 N1510 N 0.78642 0.28277 -0.08328
 N1511 N 0.78054 0.27676 -0.07075
 C1512 C 0.78296 0.28336 -0.05711
 N1513 N 0.79140 0.29617 -0.05638
 N1514 N 0.79728 0.30218 -0.06891
 C1515 C 0.80128 0.30202 -0.09601
 C1516 C 0.80674 0.30749 -0.10725
 C1517 C 0.77653 0.27688 -0.04368
 C1518 C 0.77085 0.27115 -0.03268
 C1519 C 0.79485 0.79543 0.41748
 N1520 N 0.78639 0.78263 0.41678
 N1521 N 0.78052 0.77666 0.42933
 C1522 C 0.78295 0.78329 0.44295
 N1523 N 0.79140 0.79609 0.44365
 N1524 N 0.79727 0.80207 0.43110
 C1525 C 0.80125 0.80184 0.40399
 C1526 C 0.80670 0.80729 0.39273
 C1527 C 0.77653 0.77683 0.45640
 C1528 C 0.77085 0.77112 0.46741
 C1529 C 0.70496 0.29502 0.58249
 N1530 N 0.71100 0.28089 0.58267
 N1531 N 0.71686 0.27492 0.57012
 C1532 C 0.71683 0.28289 0.55700
 N1533 N 0.71082 0.29704 0.55682
 N1534 N 0.70497 0.30301 0.56938
 C1535 C 0.69853 0.30143 0.59597
 C1536 C 0.69306 0.30687 0.60722
 C1537 C 0.72329 0.27645 0.54356
 C1538 C 0.72899 0.27074 0.53255
 C1539 C 0.70511 0.79534 1.08264
 N1540 N 0.71143 0.78133 1.08292
 N1541 N 0.71730 0.77536 1.07038
 C1542 C 0.71701 0.78320 1.05719
 N1543 N 0.71073 0.79722 1.05692
 N1544 N 0.70485 0.80320 1.06946
 C1545 C 0.69862 0.80174 1.09608
 C1546 C 0.69310 0.80718 1.10731
 C1547 C 0.72344 0.77674 1.04375
 C1548 C 0.72912 0.77103 1.03275
 C1549 C 0.20515 0.29517 1.08274
 N1550 N 0.21572 0.30289 1.07469
 N1551 N 0.22153 0.29698 1.06209
 C1552 C 0.21689 0.28321 1.05711
 N1553 N 0.20638 0.27546 1.06520
 N1554 N 0.20057 0.28136 1.07780
 C1555 C 0.19867 0.30166 1.09614
 C1556 C 0.19312 0.30717 1.10731
 C1557 C 0.22336 0.27670 1.04372
 C1558 C 0.22905 0.27096 1.03273
 C1559 C 0.20516 0.79541 0.58250
 N1560 N 0.20650 0.78018 0.58099
 N1561 N 0.21231 0.77424 0.56840
 C1562 C 0.21693 0.78335 0.55694
 N1563 N 0.21565 0.79859 0.55848
 N1564 N 0.20983 0.80453 0.57106
 C1565 C 0.19870 0.80180 0.59596
 C1566 C 0.19318 0.80723 0.60719
 C1567 C 0.22340 0.77691 0.54352
 C1568 C 0.22909 0.77119 0.53252
 C1569 C 0.29490 0.70500 0.58254
 N1570 N 0.28802 0.69600 0.57218
 N1571 N 0.28221 0.70193 0.55958
 C1572 C 0.28316 0.71703 0.55694
 N1573 N 0.28998 0.72604 0.56733
 N1574 N 0.29579 0.72012 0.57993
 C1575 C 0.30138 0.69856 0.59598
 C1576 C 0.30691 0.69308 0.60719
 C1577 C 0.27667 0.72350 0.54352
 C1578 C 0.27096 0.72921 0.53252
 C1579 C 0.29497 0.20461 1.08260
 N1580 N 0.28632 0.21730 1.08334
 N1581 N 0.28041 0.22326 1.07081
 C1582 C 0.28298 0.21672 1.05716
 N1583 N 0.29161 0.20401 1.05643
 N1584 N 0.29752 0.19805 1.06896
 C1585 C 0.30143 0.19823 1.09606
 C1586 C 0.30692 0.19281 1.10731
 C1587 C 0.27655 0.22317 1.04373
 C1588 C 0.27086 0.22890 1.03273
 C1589 C 0.79485 0.70482 1.08271
 N1590 N 0.78286 0.69811 1.07584
 N1591 N 0.77702 0.70398 1.06323
 C1592 C 0.78305 0.71671 1.05708
 N1593 N 0.79500 0.72345 1.06398
 N1594 N 0.80083 0.71757 1.07659
 C1595 C 0.80126 0.69839 1.09617
 C1596 C 0.80674 0.69294 1.10742
 C1597 C 0.77657 0.72323 1.04370
 C1598 C 0.77088 0.72899 1.03272
 C1599 C 0.79489 0.20453 0.58245
 N1600 N 0.78623 0.21722 0.58315
 N1601 N 0.78035 0.22315 0.57059
 C1602 C 0.78295 0.21659 0.55696
 N1603 N 0.79159 0.20389 0.55627
 N1604 N 0.79747 0.19795 0.56883
 C1605 C 0.80131 0.19818 0.59594
 C1606 C 0.80678 0.19278 0.60721
 C1607 C 0.77655 0.22302 0.54351
 C1608 C 0.77087 0.22875 0.53251
 C1609 C 0.70504 0.70504 0.41747
 N1610 N 0.71348 0.69637 0.42694
 N1611 N 0.71928 0.70228 0.43954
 C1612 C 0.71676 0.71701 0.44309
 N1613 N 0.70837 0.72570 0.43358
 N1614 N 0.70257 0.71980 0.42098
 C1615 C 0.69859 0.69862 0.40403
 C1616 C 0.69309 0.69315 0.39282
 C1617 C 0.72326 0.72348 0.45648
 C1618 C 0.72897 0.72920 0.46746
 C1619 C 0.70506 0.20496 -0.08266
 N1620 N 0.71460 0.19672 -0.07387
 N1621 N 0.72040 0.20264 -0.06127
 C1622 C 0.71678 0.21696 -0.05705
 N1623 N 0.70729 0.22523 -0.06587
 N1624 N 0.70149 0.21931 -0.07847
 C1625 C 0.69860 0.19847 -0.09608
 C1626 C 0.69310 0.19293 -0.10727
 C1627 C 0.72327 0.22347 -0.04366
 C1628 C 0.72899 0.22919 -0.03268
 C1629 C 0.20516 0.70497 -0.08265
 N1630 N 0.21550 0.69707 -0.07445
 N1631 N 0.22133 0.70294 -0.06185
 C1632 C 0.21694 0.71686 -0.05702
 N1633 N 0.20666 0.72478 -0.06525
 N1634 N 0.20083 0.71892 -0.07785
 C1635 C 0.19869 0.69853 -0.09607
 C1636 C 0.19316 0.69305 -0.10726
 C1637 C 0.22346 0.72333 -0.04364
 C1638 C 0.22920 0.72905 -0.03267
 C1639 C 0.20497 0.20498 0.41741
 N1640 N 0.21710 0.19836 0.42416
 N1641 N 0.22293 0.20419 0.43678
 C1642 C 0.21676 0.21678 0.44308
 N1643 N 0.20467 0.22344 0.43629
 N1644 N 0.19885 0.21761 0.42367
 C1645 C 0.19852 0.19853 0.40399
 C1646 C 0.19300 0.19302 0.39280
 C1647 C 0.22324 0.22326 0.45647
 C1648 C 0.22896 0.22897 0.46745
 C1649 C 0.29526 0.41728 0.70519
 N1650 N 0.30305 0.42538 0.71565
 N1651 N 0.29712 0.43799 0.72148
 C1652 C 0.28326 0.44291 0.71698
 N1653 N 0.27544 0.43476 0.70658
 N1654 N 0.28137 0.42216 0.70075
 C1655 C 0.30176 0.40387 0.69869
 C1656 C 0.30723 0.39267 0.69311
 C1657 C 0.27673 0.45631 0.72345
 C1658 C 0.27097 0.46731 0.72914
 C1659 C 0.29546 0.91749 0.20496
 N1660 N 0.30327 0.92561 0.21539
 N1661 N 0.29737 0.93824 0.22119
 C1662 C 0.28352 0.94317 0.21668
 N1663 N 0.27569 0.93503 0.20630
 N1664 N 0.28159 0.92239 0.20050
 C1665 C 0.30190 0.90403 0.19852
 C1666 C 0.30735 0.89281 0.19296
 C1667 C 0.27696 0.95653 0.22322
 C1668 C 0.27114 0.96746 0.22896
 C1669 C 0.79544 0.41754 0.20504
 N1670 N 0.80325 0.42565 0.21547
 N1671 N 0.79734 0.43828 0.22128
 C1672 C 0.78348 0.44320 0.21678
 N1673 N 0.77566 0.43506 0.20638
 N1674 N 0.78156 0.42243 0.20058
 C1675 C 0.80189 0.40408 0.19860
 C1676 C 0.80733 0.39285 0.19305
 C1677 C 0.77691 0.45656 0.22331
 C1678 C 0.77110 0.46750 0.22906
 C1679 C 0.79542 0.91773 0.70496
 N1680 N 0.79082 0.92925 0.69590
 N1681 N 0.78492 0.94182 0.70185
 C1682 C 0.78348 0.94326 0.71706
 N1683 N 0.78804 0.93171 0.72611
 N1684 N 0.79395 0.91915 0.72016
 C1685 C 0.80186 0.90423 0.69854
 C1686 C 0.80731 0.89296 0.69305
 C1687 C 0.77683 0.95664 0.72351
 C1688 C 0.77099 0.96759 0.72924
 C1689 C 0.70461 0.58254 0.70534
 N1690 N 0.69676 0.56933 0.70514
 N1691 N 0.70277 0.55676 0.71098
 C1692 C 0.71683 0.55702 0.71718
 N1693 N 0.72467 0.57024 0.71742
 N1694 N 0.71866 0.58280 0.71157
 C1695 C 0.69820 0.59601 0.69886
 C1696 C 0.69280 0.60728 0.69333
 C1697 C 0.72333 0.54356 0.72360
 C1698 C 0.72909 0.53255 0.72928
 C1699 C 0.70467 0.08221 0.20507
 N1700 N 0.69655 0.06917 0.20545
 N1701 N 0.70255 0.05660 0.21131
 C1702 C 0.71686 0.05670 0.21692
 N1703 N 0.72496 0.06975 0.21656
 N1704 N 0.71896 0.08232 0.21071
 C1705 C 0.69827 0.09569 0.19860
 C1706 C 0.69288 0.10696 0.19306
 C1707 C 0.72334 0.04327 0.22340
 C1708 C 0.72912 0.03230 0.22914
 C1709 C 0.20432 0.58245 0.20493
 N1710 N 0.19650 0.56923 0.20476
 N1711 N 0.20253 0.55668 0.21063
 C1712 C 0.21659 0.55699 0.21683
 N1713 N 0.22440 0.57022 0.21704
 N1714 N 0.21837 0.58276 0.21116
 C1715 C 0.19790 0.59590 0.19844
 C1716 C 0.19250 0.60715 0.19288
 C1717 C 0.22311 0.54357 0.22329
 C1718 C 0.22890 0.53260 0.22901
 C1719 C 0.20440 0.08214 0.70512
 N1720 N 0.19661 0.06889 0.70496
 N1721 N 0.20268 0.05637 0.71085
 C1722 C 0.21675 0.05671 0.71705
 N1723 N 0.22452 0.06997 0.71723
 N1724 N 0.21845 0.08249 0.71135
 C1725 C 0.19793 0.09559 0.69861
 C1726 C 0.19251 0.10686 0.69307
 C1727 C 0.22332 0.04329 0.72354
 C1728 C 0.22914 0.03233 0.72926
 C1729 C 0.29525 0.58267 0.29470
 N1730 N 0.28139 0.57778 0.29921
 N1731 N 0.27547 0.56518 0.29340
 C1732 C 0.28325 0.55705 0.28294
 N1733 N 0.29707 0.56198 0.27837
 N1734 N 0.30300 0.57459 0.28418
 C1735 C 0.30174 0.59606 0.30119
 C1736 C 0.30722 0.60725 0.30676
 C1737 C 0.27673 0.54365 0.27649
 C1738 C 0.27098 0.53265 0.27083
 C1739 C 0.29526 0.08249 0.79481
 N1740 N 0.28142 0.07756 0.79931
 N1741 N 0.27554 0.06493 0.79349
 C1742 C 0.28336 0.05682 0.78305
 N1743 N 0.29717 0.06180 0.77848
 N1744 N 0.30305 0.07443 0.78430
 C1745 C 0.30173 0.09588 0.80133
 C1746 C 0.30720 0.10706 0.80693
 C1747 C 0.27691 0.04337 0.77663
 C1748 C 0.27122 0.03232 0.77100
 C1749 C 0.79545 0.58262 0.79495
 N1750 N 0.78161 0.57770 0.79949
 N1751 N 0.77571 0.56508 0.79371
 C1752 C 0.78348 0.55694 0.78325
 N1753 N 0.79730 0.56189 0.77866
 N1754 N 0.80321 0.57453 0.78444
 C1755 C 0.80192 0.59609 0.80138
 C1756 C 0.80738 0.60732 0.80692
 C1757 C 0.77694 0.54354 0.77677
 C1758 C 0.77117 0.53255 0.77107
 C1759 C 0.79548 0.08240 0.29478
 N1760 N 0.78164 0.07751 0.29932
 N1761 N 0.77572 0.06489 0.29353
 C1762 C 0.78350 0.05676 0.28308
 N1763 N 0.79731 0.06169 0.27848
 N1764 N 0.80323 0.07430 0.28427
 C1765 C 0.80198 0.09580 0.30125
 C1766 C 0.80746 0.10699 0.30681
 C1767 C 0.77697 0.04336 0.27665
 C1768 C 0.77122 0.03236 0.27099
 C1769 C 0.70468 0.41734 0.29469
 N1770 N 0.71954 0.42064 0.29687
 N1771 N 0.72548 0.43325 0.29108
 C1772 C 0.71674 0.44296 0.28299
 N1773 N 0.70190 0.43963 0.28075
 N1774 N 0.69595 0.42702 0.28654
 C1775 C 0.69822 0.40394 0.30120
 C1776 C 0.69276 0.39275 0.30680
 C1777 C 0.72324 0.45638 0.27655
 C1778 C 0.72899 0.46739 0.27089
 C1779 C 0.70462 0.91752 0.79487
 N1780 N 0.71869 0.91724 0.78868
 N1781 N 0.72470 0.92981 0.78286
 C1782 C 0.71684 0.94303 0.78308
 N1783 N 0.70275 0.94330 0.78924
 N1784 N 0.69675 0.93073 0.79506
 C1785 C 0.69820 0.90409 0.80137
 C1786 C 0.69274 0.89290 0.80696
 C1787 C 0.72330 0.95650 0.77670
 C1788 C 0.72898 0.96755 0.77106
 C1789 C 0.20460 0.41723 0.79485
 N1790 N 0.21826 0.42237 0.79967
 N1791 N 0.22417 0.43499 0.79387
 C1792 C 0.21657 0.44290 0.78311
 N1793 N 0.20293 0.43773 0.77825
 N1794 N 0.19702 0.42511 0.78406
 C1795 C 0.19812 0.40378 0.80132
 C1796 C 0.19265 0.39257 0.80688
 C1797 C 0.22312 0.45629 0.77661
 C1798 C 0.22890 0.46728 0.77091
 C1799 C 0.20457 0.91752 0.29473
 N1800 N 0.21621 0.91661 0.28475
 N1801 N 0.22221 0.92916 0.27889
 C1802 C 0.21675 0.94298 0.28283
 N1803 N 0.20510 0.94389 0.29280
 N1804 N 0.19910 0.93134 0.29867
 C1805 C 0.19816 0.90404 0.30114
 C1806 C 0.19273 0.89279 0.30664
 C1807 C 0.22324 0.95643 0.27645
 C1808 C 0.22899 0.96743 0.27079
 C1809 C 0.41728 0.29540 0.70523
 N1810 N 0.42898 0.30441 0.70947
 N1811 N 0.44156 0.29840 0.71530
 C1812 C 0.44284 0.28318 0.71700
 N1813 N 0.43112 0.27417 0.71281
 N1814 N 0.41854 0.28018 0.70699
 C1815 C 0.40386 0.30185 0.69872
 C1816 C 0.39263 0.30729 0.69313
 C1817 C 0.45626 0.27667 0.72346
 C1818 C 0.46726 0.27091 0.72915
 C1819 C 0.41740 0.79558 0.20517
 N1820 N 0.42908 0.80463 0.20937
 N1821 N 0.44169 0.79866 0.21518
 C1822 C 0.44301 0.78345 0.21689
 N1823 N 0.43130 0.77440 0.21273
 N1824 N 0.41870 0.78037 0.20693
 C1825 C 0.40394 0.80199 0.19868
 C1826 C 0.39272 0.80742 0.19309
 C1827 C 0.45643 0.77697 0.22337
 C1828 C 0.46742 0.77121 0.22909
 C1829 C 0.91738 0.29560 0.20516
 N1830 N 0.92884 0.30468 0.20987
 N1831 N 0.94145 0.29870 0.21567
 C1832 C 0.94299 0.28346 0.21688
 N1833 N 0.93150 0.27439 0.21223
 N1834 N 0.91889 0.28036 0.20643
 C1835 C 0.90392 0.30202 0.19868
 C1836 C 0.89269 0.30744 0.19311
 C1837 C 0.95641 0.27698 0.22336
 C1838 C 0.96740 0.27121 0.22906
 C1839 C 0.91745 0.79565 0.70518
 N1840 N 0.92913 0.80471 0.70940
 N1841 N 0.94174 0.79873 0.71521
 C1842 C 0.94305 0.78352 0.71692
 N1843 N 0.93135 0.77447 0.71277
 N1844 N 0.91875 0.78045 0.70696
 C1845 C 0.90399 0.80207 0.69869
 C1846 C 0.89275 0.80747 0.69313
 C1847 C 0.95648 0.77703 0.72339
 C1848 C 0.96747 0.77127 0.72910
 C1849 C 0.58272 0.29528 0.29486
 N1850 N 0.58139 0.29355 0.27968
 N1851 N 0.56884 0.28759 0.27376
 C1852 C 0.55723 0.28323 0.28283
 N1853 N 0.55858 0.28492 0.29801
 N1854 N 0.57113 0.29087 0.30393
 C1855 C 0.59617 0.30181 0.30127
 C1856 C 0.60738 0.30733 0.30678
 C1857 C 0.54382 0.27662 0.27642
 C1858 C 0.53282 0.27083 0.27076
 C1859 C 0.58257 0.79556 0.79513
 N1860 N 0.58124 0.79384 0.77995
 N1861 N 0.56869 0.78790 0.77402
 C1862 C 0.55707 0.78354 0.78309
 N1863 N 0.55842 0.78521 0.79827
 N1864 N 0.57098 0.79115 0.80420
 C1865 C 0.59602 0.80209 0.80153
 C1866 C 0.60726 0.80759 0.80702
 C1867 C 0.54365 0.77695 0.77667
 C1868 C 0.53264 0.77118 0.77101
 C1869 C 0.08245 0.29522 0.79503
 N1870 N 0.07084 0.29085 0.80410
 N1871 N 0.05825 0.28497 0.79817
 C1872 C 0.05688 0.28332 0.78299
 N1873 N 0.06851 0.28765 0.77392
 N1874 N 0.08110 0.29353 0.77985
 C1875 C 0.09593 0.30168 0.80144
 C1876 C 0.10717 0.30715 0.80694
 C1877 C 0.04346 0.27675 0.77657
 C1878 C 0.03246 0.27098 0.77089
 C1879 C 0.08256 0.79547 0.29482
 N1880 N 0.07097 0.79111 0.30391
 N1881 N 0.05838 0.78521 0.29801
 C1882 C 0.05699 0.78353 0.28283
 N1883 N 0.06861 0.78786 0.27374
 N1884 N 0.08119 0.79376 0.27964
 C1885 C 0.09605 0.80195 0.30119
 C1886 C 0.10729 0.80744 0.30667
 C1887 C 0.04357 0.77694 0.27644
 C1888 C 0.03257 0.77115 0.27078
 C1889 C 0.58263 0.70478 0.70525
 N1890 N 0.58139 0.70677 0.72040
 N1891 N 0.56880 0.71268 0.72631
 C1892 C 0.55706 0.71673 0.71726
 N1893 N 0.55832 0.71477 0.70210
 N1894 N 0.57091 0.70886 0.69619
 C1895 C 0.59612 0.69830 0.69886
 C1896 C 0.60738 0.69282 0.69337
 C1897 C 0.54363 0.72332 0.72365
 C1898 C 0.53262 0.72911 0.72933
 C1899 C 0.58275 0.20441 0.20502
 N1900 N 0.58151 0.20640 0.22017
 N1901 N 0.56891 0.21229 0.22609
 C1902 C 0.55716 0.21632 0.21703
 N1903 N 0.55842 0.21437 0.20188
 N1904 N 0.57102 0.20849 0.19596
 C1905 C 0.59625 0.19795 0.19864
 C1906 C 0.60750 0.19247 0.19315
 C1907 C 0.54373 0.22289 0.22343
 C1908 C 0.53273 0.22867 0.22911
 C1909 C 0.08249 0.70471 0.20491
 N1910 N 0.08130 0.70670 0.22007
 N1911 N 0.06873 0.71261 0.22603
 C1912 C 0.05696 0.71667 0.21702
 N1913 N 0.05817 0.71473 0.20185
 N1914 N 0.07074 0.70882 0.19589
 C1915 C 0.09594 0.69821 0.19847
 C1916 C 0.10717 0.69272 0.19295
 C1917 C 0.04355 0.72324 0.22346
 C1918 C 0.03255 0.72901 0.22914
 C1919 C 0.08239 0.20450 0.70506
 N1920 N 0.08120 0.20650 0.72022
 N1921 N 0.06863 0.21243 0.72616
 C1922 C 0.05687 0.21649 0.71714
 N1923 N 0.05808 0.21454 0.70198
 N1924 N 0.07065 0.20862 0.69604
 C1925 C 0.09584 0.19799 0.69864
 C1926 C 0.10708 0.19248 0.69314
 C1927 C 0.04346 0.22307 0.72357
 C1928 C 0.03245 0.22885 0.72924
 C1929 C 0.41733 0.70447 0.29474
 N1930 N 0.43021 0.69612 0.29355
 N1931 N 0.44276 0.70218 0.28772
 C1932 C 0.44282 0.71678 0.28294
 N1933 N 0.42993 0.72511 0.28409
 N1934 N 0.41738 0.71906 0.28992
 C1935 C 0.40389 0.69799 0.30121
 C1936 C 0.39265 0.69255 0.30675
 C1937 C 0.45625 0.72332 0.27651
 C1938 C 0.46726 0.72909 0.27085
 C1939 C 0.41722 0.20434 0.79484
 N1940 N 0.42896 0.19534 0.79061
 N1941 N 0.44153 0.20137 0.78479
 C1942 C 0.44275 0.21659 0.78307
 N1943 N 0.43099 0.22558 0.78724
 N1944 N 0.41842 0.21955 0.79306
 C1945 C 0.40380 0.19785 0.80134
 C1946 C 0.39258 0.19240 0.80691
 C1947 C 0.45618 0.22312 0.77661
 C1948 C 0.46718 0.22888 0.77093
 C1949 C 0.91743 0.70467 0.79482
 N1950 N 0.92916 0.69565 0.79062
 N1951 N 0.94175 0.70166 0.78481
 C1952 C 0.94300 0.71688 0.78309
 N1953 N 0.93125 0.72589 0.78725
 N1954 N 0.91866 0.71989 0.79305
 C1955 C 0.90397 0.69822 0.80129
 C1956 C 0.89274 0.69278 0.80684
 C1957 C 0.95642 0.72338 0.77661
 C1958 C 0.96741 0.72915 0.77090
 C1959 C 0.91738 0.20439 0.29467
 N1960 N 0.91855 0.21961 0.29289
 N1961 N 0.93111 0.22567 0.28709
 C1962 C 0.94289 0.21670 0.28292
 N1963 N 0.94170 0.20148 0.28464
 N1964 N 0.92914 0.19542 0.29045
 C1965 C 0.90397 0.19788 0.30116
 C1966 C 0.89276 0.19240 0.30673
 C1967 C 0.95630 0.22326 0.27647
 C1968 C 0.96730 0.22905 0.27080
 C1969 C 0.29500 0.29511 0.58249
 N1970 N 0.28653 0.28231 0.58322
 N1971 N 0.28063 0.27635 0.57069
 C1972 C 0.28304 0.28298 0.55706
 N1973 N 0.29149 0.29579 0.55634
 N1974 N 0.29739 0.30175 0.56886
 C1975 C 0.30141 0.30152 0.59596
 C1976 C 0.30687 0.30696 0.60721
 C1977 C 0.27659 0.27654 0.54363
 C1978 C 0.27088 0.27083 0.53265
 C1979 C 0.29524 0.79527 0.08232
 N1980 N 0.29763 0.80191 0.06869
 N1981 N 0.29174 0.79592 0.05617
 C1982 C 0.28330 0.78311 0.05690
 N1983 N 0.28090 0.77648 0.07054
 N1984 N 0.28678 0.78247 0.08306
 C1985 C 0.30166 0.80171 0.09578
 C1986 C 0.30713 0.80718 0.10701
 C1987 C 0.27686 0.77665 0.04348
 C1988 C 0.27117 0.77094 0.03248
 C1989 C 0.79512 0.29535 0.08236
 N1990 N 0.79749 0.30199 0.06873
 N1991 N 0.79158 0.29603 0.05621
 C1992 C 0.78313 0.28322 0.05695
 N1993 N 0.78074 0.27659 0.07058
 N1994 N 0.78665 0.28256 0.08310
 C1995 C 0.80156 0.30177 0.09582
 C1996 C 0.80704 0.30723 0.10705
 C1997 C 0.77666 0.27678 0.04352
 C1998 C 0.77095 0.27107 0.03253
 C1999 C 0.79513 0.79536 0.58244
 N2000 N 0.78666 0.78257 0.58318
 N2001 N 0.78074 0.77660 0.57066
 C2002 C 0.78313 0.78324 0.55703
 N2003 N 0.79159 0.79603 0.55629
 N2004 N 0.79751 0.80200 0.56881
 C2005 C 0.80157 0.80177 0.59590
 C2006 C 0.80706 0.80724 0.60713
 C2007 C 0.77666 0.77680 0.54361
 C2008 C 0.77093 0.77109 0.53262
 C2009 C 0.29499 0.70482 0.41741
 N2010 N 0.29754 0.69828 0.43106
 N2011 N 0.29166 0.70427 0.44359
 C2012 C 0.28305 0.71699 0.44285
 N2013 N 0.28049 0.72352 0.42919
 N2014 N 0.28637 0.71753 0.41666
 C2015 C 0.30138 0.69838 0.40393
 C2016 C 0.30683 0.69292 0.39268
 C2017 C 0.27662 0.72346 0.45628
 C2018 C 0.27092 0.72918 0.46728
 C2019 C 0.29480 0.20462 0.91755
 N2020 N 0.28792 0.19563 0.92793
 N2021 N 0.28212 0.20157 0.94053
 C2022 C 0.28308 0.21667 0.94315
 N2023 N 0.28990 0.22567 0.93274
 N2024 N 0.29570 0.21973 0.92015
 C2025 C 0.30125 0.19818 0.90410
 C2026 C 0.30675 0.19271 0.89288
 C2027 C 0.27659 0.22315 0.95655
 C2028 C 0.27088 0.22888 0.96754
 C2029 C 0.79511 0.70482 0.91763
 N2030 N 0.79431 0.69653 0.93052
 N2031 N 0.78843 0.70250 0.94307
 C2032 C 0.78321 0.71696 0.94310
 N2033 N 0.78398 0.72523 0.93019
 N2034 N 0.78985 0.71926 0.91765
 C2035 C 0.80157 0.69841 0.90417
 C2036 C 0.80708 0.69295 0.89295
 C2037 C 0.77672 0.72339 0.95652
 C2038 C 0.77100 0.72910 0.96751
 C2039 C 0.79508 0.20452 0.41744
 N2040 N 0.79765 0.19797 0.43109
 N2041 N 0.79176 0.20394 0.44363
 C2042 C 0.78313 0.21664 0.44289
 N2043 N 0.78055 0.22318 0.42925
 N2044 N 0.78644 0.21722 0.41671
 C2045 C 0.80150 0.19811 0.40396
 C2046 C 0.80696 0.19267 0.39270
 C2047 C 0.77667 0.22308 0.45634
 C2048 C 0.77096 0.22880 0.46733
 C2049 C 0.70504 0.29516 0.41740
 N2050 N 0.71149 0.28121 0.41710
 N2051 N 0.71734 0.27522 0.42964
 C2052 C 0.71691 0.28299 0.44287
 N2053 N 0.71049 0.29696 0.44317
 N2054 N 0.70464 0.30295 0.43062
 C2055 C 0.69862 0.30158 0.40393
 C2056 C 0.69315 0.30703 0.39267
 C2057 C 0.72335 0.27653 0.45631
 C2058 C 0.72903 0.27080 0.46731
 C2059 C 0.70518 0.79528 0.91750
 N2060 N 0.70256 0.78059 0.92114
 N2061 N 0.70835 0.77469 0.93375
 C2062 C 0.71689 0.78332 0.94315
 N2063 N 0.71959 0.79800 0.93947
 N2064 N 0.71379 0.80389 0.92685
 C2065 C 0.69868 0.80173 0.90408
 C2066 C 0.69311 0.80724 0.89291
 C2067 C 0.72338 0.77685 0.95656
 C2068 C 0.72908 0.77112 0.96755
 C2069 C 0.20492 0.29502 0.91754
 N2070 N 0.21331 0.30370 0.92702
 N2071 N 0.21914 0.29780 0.93962
 C2072 C 0.21671 0.28305 0.94315
 N2073 N 0.20838 0.27434 0.93363
 N2074 N 0.20255 0.28024 0.92104
 C2075 C 0.19842 0.30145 0.90412
 C2076 C 0.19288 0.30693 0.89292
 C2077 C 0.22323 0.27659 0.95654
 C2078 C 0.22896 0.27087 0.96753
 C2079 C 0.20495 0.79520 0.41728
 N2080 N 0.21868 0.79988 0.42235
 N2081 N 0.22455 0.79405 0.43497
 C2082 C 0.21682 0.78342 0.44293
 N2083 N 0.20312 0.77870 0.43782
 N2084 N 0.19726 0.78453 0.42520
 C2085 C 0.19849 0.80169 0.40386
 C2086 C 0.19298 0.80723 0.39267
 C2087 C 0.22330 0.77692 0.45633
 C2088 C 0.22902 0.77119 0.46731
 C2089 C 0.70505 0.70505 0.58274
 N2090 N 0.71684 0.69816 0.57568
 N2091 N 0.72266 0.70402 0.56306
 C2092 C 0.71682 0.71693 0.55708
 N2093 N 0.70507 0.72386 0.56418
 N2094 N 0.69925 0.71799 0.57680
 C2095 C 0.69858 0.69856 0.59616
 C2096 C 0.69305 0.69303 0.60734
 C2097 C 0.72331 0.72344 0.54369
 C2098 C 0.72902 0.72916 0.53270
 C2099 C 0.70513 0.20487 0.08257
 N2100 N 0.71792 0.19895 0.07641
 N2101 N 0.72375 0.20484 0.06381
 C2102 C 0.71694 0.21679 0.05695
 N2103 N 0.70419 0.22276 0.06315
 N2104 N 0.69835 0.21686 0.07575
 C2105 C 0.69868 0.19833 0.09597
 C2106 C 0.69317 0.19277 0.10714
 C2107 C 0.72341 0.22334 0.04357
 C2108 C 0.72910 0.22909 0.03259
 C2109 C 0.20499 0.70505 0.08248
 N2110 N 0.21862 0.70017 0.07728
 N2111 N 0.22451 0.70601 0.06468
 C2112 C 0.21693 0.71686 0.05687
 N2113 N 0.20333 0.72179 0.06211
 N2114 N 0.19744 0.71595 0.07470
 C2115 C 0.19853 0.69858 0.09590
 C2116 C 0.19302 0.69306 0.10710
 C2117 C 0.22345 0.72338 0.04350
 C2118 C 0.22919 0.72910 0.03252
 C2119 C 0.20487 0.20483 0.58266
 N2120 N 0.21668 0.19794 0.57562
 N2121 N 0.22252 0.20380 0.56301
 C2122 C 0.21669 0.21671 0.55703
 N2123 N 0.20493 0.22364 0.56411
 N2124 N 0.19909 0.21777 0.57671
 C2125 C 0.19841 0.19837 0.59609
 C2126 C 0.19291 0.19286 0.60729
 C2127 C 0.22320 0.22322 0.54365
 C2128 C 0.22893 0.22894 0.53268
   
