data_POSCAR
  _audit_creation_date              2014-09-24
  _audit_creation_method            'ToBaCCo'
  _symmetry_space_group_name_H-M    'P1'
  _symmetry_Int_Tables_number       1
  _symmetry_cell_setting            triclinic
  loop_
  _symmetry_equiv_pos_as_xyz
 x,y,z
_cell_length_a 41.7349
_cell_length_b 40.8299
_cell_length_c 41.7005
_cell_angle_alpha 90.124300
_cell_angle_beta 89.884200
_cell_angle_gamma 89.581300
loop_
  _atom_site_label
  _atom_site_type_symbol
  _atom_site_fract_x
  _atom_site_fract_y
  _atom_site_fract_z
C1 C 0.34133 1.35192 0.30412
 C2 C 0.31085 1.36134 0.31485
 C3 C 0.29798 1.34780 0.34266
 C4 C 0.31608 1.32584 0.36082
 C5 C 0.34651 1.31583 0.35056
 C6 C 0.35931 1.32888 0.32189
 H7 H 0.29608 1.37724 0.30009
 H8 H 0.30553 1.31454 0.38182
 H9 H 0.38213 1.32013 0.31274
 C10 C 0.35375 0.88246 0.83040
 C11 C 0.36645 0.85139 0.83944
 C12 C 0.35874 0.83801 0.86972
 C13 C 0.33902 0.85558 0.89051
 C14 C 0.32684 0.88610 0.88209
 C15 C 0.33383 0.89951 0.85201
 H16 H 0.38191 0.83784 0.82321
 H17 H 0.33327 0.84536 0.91380
 H18 H 0.32417 0.92330 0.84553
 C19 C 0.83595 1.34950 0.81195
 C20 C 0.80340 1.35374 0.81933
 C21 C 0.78944 1.33556 0.84399
 C22 C 0.80794 1.31385 0.86190
 C23 C 0.84017 1.30885 0.85466
 C24 C 0.85442 1.32666 0.82956
 H25 H 0.78884 1.37044 0.80527
 H26 H 0.79682 1.29947 0.88065
 H27 H 0.87937 1.32248 0.82359
 C28 C 0.87335 0.87245 0.31999
 C29 C 0.84394 0.88304 0.33248
 C30 C 0.82716 0.86376 0.35439
 C31 C 0.83986 0.83321 0.36361
 C32 C 0.86932 0.82208 0.35081
 C33 C 0.88590 0.84187 0.32895
 H34 H 0.83444 0.90686 0.32585
 H35 H 0.82692 0.81824 0.38059
 H36 H 0.90889 0.83379 0.31959
 C37 C 0.62774 0.60565 0.32823
 C38 C 0.61464 0.63484 0.34075
 C39 C 0.62757 0.64925 0.36829
 C40 C 0.65412 0.63406 0.38330
 C41 C 0.66660 0.60430 0.37080
 C42 C 0.65255 0.59001 0.34415
 H43 H 0.59537 0.64733 0.32828
 H44 H 0.66541 0.64562 0.40370
 H45 H 0.66314 0.56805 0.33383
 C46 C 0.64958 0.15679 0.79165
 C47 C 0.62916 0.17587 0.81036
 C48 C 0.63474 0.17999 0.84296
 C49 C 0.66120 0.16388 0.85741
 C50 C 0.68144 0.14340 0.83859
 C51 C 0.67528 0.14004 0.80569
 H52 H 0.60954 0.18909 0.79914
 H53 H 0.66611 0.16746 0.88265
 H54 H 0.69122 0.12533 0.79090
 C55 C 1.14628 0.63092 0.82450
 C56 C 1.13391 0.66021 0.83837
 C57 C 1.14851 0.67321 0.86637
 C58 C 1.17477 0.65695 0.87961
 C59 C 1.18715 0.62846 0.86537
 C60 C 1.17259 0.61546 0.83840
 H61 H 1.11380 0.67277 0.82743
 H62 H 1.18628 0.66741 0.90049
 H63 H 1.18264 0.59364 0.82731
 C64 C 1.16250 0.15565 0.30503
 C65 C 1.19312 0.14322 0.31087
 C66 C 1.20968 0.15213 0.33861
 C67 C 1.19528 0.17297 0.36131
 C68 C 1.16438 0.18550 0.35598
 C69 C 1.14797 0.17647 0.32769
 H70 H 1.20512 0.12866 0.29259
 H71 H 1.20871 0.18090 0.38211
 H72 H 1.12484 0.18726 0.32219
 C73 C 0.64246 1.36311 0.68628
 C74 C 0.67424 1.36668 0.67573
 C75 C 0.68479 1.35042 0.64790
 C76 C 0.66323 1.33115 0.63048
 C77 C 0.63140 1.32756 0.64107
 C78 C 0.62117 1.34393 0.66849
 H79 H 0.69107 1.38035 0.69018
 H80 H 0.67190 1.31725 0.61003
 H81 H 0.59685 1.34025 0.67679
 C82 C 0.64587 0.87016 1.18693
 C83 C 0.67166 0.88519 1.17215
 C84 C 0.68497 0.87226 1.14423
 C85 C 0.67142 0.84395 1.13008
 C86 C 0.64450 0.82912 1.14464
 C87 C 0.63206 0.84242 1.17297
 H88 H 0.68250 0.90636 1.18336
 H89 H 0.68183 0.83348 1.10855
 H90 H 0.61199 0.83052 1.18448
 C91 C 1.15017 1.35097 1.19418
 C92 C 1.17518 1.36635 1.17767
 C93 C 1.18024 1.35958 1.14487
 C94 C 1.16010 1.33715 1.12926
 C95 C 1.13481 1.32214 1.14608
 C96 C 1.12977 1.32974 1.17818
 H97 H 1.19126 1.38238 1.19056
 H98 H 1.16472 1.33084 1.10443
 H99 H 1.11105 1.31727 1.19136
 C100 C 1.13907 0.85185 0.67413
 C101 C 1.17030 0.86286 0.66799
 C102 C 1.18899 0.84836 0.64397
 C103 C 1.17627 0.82309 0.62519
 C104 C 1.14499 0.81204 0.63088
 C105 C 1.12643 0.82679 0.65530
 H106 H 1.18089 0.88154 0.68303
 H107 H 1.19111 0.81094 0.60736
 H108 H 1.10260 0.81799 0.66064
 C109 C 0.36417 0.63956 0.67340
 C110 C 0.37303 0.66696 0.65580
 C111 C 0.35437 0.67786 0.62987
 C112 C 0.32686 0.66055 0.62132
 C113 C 0.31754 0.63267 0.63883
 C114 C 0.33633 0.62228 0.66478
 H115 H 0.39419 0.68023 0.66306
 H116 H 0.31243 0.66938 0.60155
 H117 H 0.32882 0.60120 0.67852
 C118 C 0.34312 0.15212 1.20946
 C119 C 0.36038 0.17673 1.19447
 C120 C 0.35260 0.18683 1.16355
 C121 C 0.32691 0.17136 1.14712
 C122 C 0.30984 0.14565 1.16233
 C123 C 0.31835 0.13640 1.19341
 H124 H 0.37949 0.18889 1.20733
 H125 H 0.32028 0.17922 1.12325
 H126 H 0.30504 0.11728 1.20544
 C127 C 0.84016 0.65274 1.20683
 C128 C 0.81805 0.63649 1.18797
 C129 C 0.81311 0.64517 1.15620
 C130 C 0.83175 0.67065 1.14252
 C131 C 0.85536 0.68671 1.16155
 C132 C 0.85908 0.67746 1.19375
 H133 H 0.80341 0.61749 1.19858
 H134 H 0.82787 0.67787 1.11786
 H135 H 0.87626 0.69006 1.20873
 C136 C 0.83760 0.15636 0.69439
 C137 C 0.80652 0.14827 0.68489
 C138 C 0.79511 0.15818 0.65492
 C139 C 0.81505 0.17554 0.63411
 C140 C 0.84603 0.18413 0.64355
 C141 C 0.85744 0.17412 0.67372
 H142 H 0.79054 0.13629 0.70164
 H143 H 0.80564 0.18464 0.61159
 H144 H 0.88083 0.18179 0.68196
 C145 C 1.36552 0.35515 0.68336
 C146 C 1.37991 0.33514 0.65996
 C147 C 1.36521 0.33101 0.63006
 C148 C 1.33590 0.34649 0.62365
 C149 C 1.32102 0.36661 0.64680
 C150 C 1.33597 0.37084 0.67656
 H151 H 1.40286 0.32357 0.66475
 H152 H 1.32508 0.34329 0.60027
 H153 H 1.32454 0.38650 0.69425
 C154 C 1.35686 0.85575 1.19248
 C155 C 1.37339 0.83855 1.16860
 C156 C 1.36142 0.83691 1.13721
 C157 C 1.33361 0.85397 1.12952
 C158 C 1.31669 0.87179 1.15308
 C159 C 1.32847 0.87275 1.18473
 H160 H 1.39435 0.82430 1.17526
 H161 H 1.32441 0.85197 1.10533
 H162 H 1.31480 0.88511 1.20333
 C163 C 0.85253 0.35439 1.18262
 C164 C 0.82880 0.37558 1.17090
 C165 C 0.81799 0.37244 1.13927
 C166 C 0.83182 0.34858 1.11902
 C167 C 0.85542 0.32735 1.13038
 C168 C 0.86601 0.33054 1.16232
 H169 H 0.81711 0.39288 1.18693
 H170 H 0.82319 0.34530 1.09476
 H171 H 0.88334 0.31335 1.17201
 C172 C 0.85564 0.86951 0.67970
 C173 C 0.87345 0.84142 0.67080
 C174 C 0.86414 0.82247 0.64449
 C175 C 0.83693 0.83185 0.62677
 C176 C 0.81915 0.85955 0.63544
 C177 C 0.82868 0.87841 0.66196
 H178 H 0.89415 0.83380 0.68459
 H179 H 0.82898 0.81731 0.60659
 H180 H 0.81490 0.89973 0.66930
 C181 C 0.62477 0.62642 0.67344
 C182 C 0.61645 0.65488 0.65709
 C183 C 0.63546 0.66620 0.63169
 C184 C 0.66257 0.64812 0.62231
 C185 C 0.67110 0.61907 0.63861
 C186 C 0.65196 0.60828 0.66389
 H187 H 0.59584 0.66888 0.66524
 H188 H 0.67745 0.65736 0.60310
 H189 H 0.65912 0.58647 0.67685
 C190 C 0.63672 1.13756 1.18571
 C191 C 0.62854 1.16929 1.17651
 C192 C 0.64762 1.18644 1.15496
 C193 C 0.67459 1.17109 1.14109
 C194 C 0.68258 1.13852 1.14951
 C195 C 0.66362 1.12205 1.17199
 H196 H 0.60850 1.18157 1.18812
 H197 H 0.68983 1.18478 1.12498
 H198 H 0.67045 1.09757 1.17940
 C199 C 0.15491 0.65848 1.20039
 C200 C 0.14443 0.68772 1.18653
 C201 C 0.15939 0.69984 1.15917
 C202 C 0.18440 0.68211 1.14475
 C203 C 0.19506 0.65236 1.15823
 C204 C 0.18009 0.64060 1.18614
 H205 H 0.12623 0.70241 1.19855
 H206 H 0.19658 0.69239 1.12417
 H207 H 0.18918 0.61864 1.19761
 C208 C 0.13809 1.14580 0.67699
 C209 C 0.13429 1.17858 0.66858
 C210 C 0.15593 1.19331 0.64773
 C211 C 0.18070 1.17487 0.63374
 C212 C 0.18448 1.14150 0.64144
 C213 C 0.16319 1.12716 0.66323
 H214 H 0.11584 1.19325 0.68017
 H215 H 0.19775 1.18685 0.61812
 H216 H 0.16688 1.10186 0.67013
 C217 C 1.34592 0.65507 0.31217
 C218 C 1.35514 0.68746 0.31859
 C219 C 1.34001 0.70539 0.34290
 C220 C 1.31608 0.69129 0.36150
 C221 C 1.30621 0.65936 0.35564
 C222 C 1.32116 0.64106 0.33073
 H223 H 1.37359 0.69904 0.30433
 H224 H 1.30436 0.70560 0.38013
 H225 H 1.31345 0.61636 0.32553
 C226 C 1.36595 1.15745 0.81173
 C227 C 1.34398 1.13464 0.82446
 C228 C 1.32369 1.14338 0.84976
 C229 C 1.32577 1.17500 0.86281
 C230 C 1.34708 1.19777 0.85019
 C231 C 1.36744 1.18902 0.82484
 H232 H 1.34171 1.11046 0.81404
 H233 H 1.30959 1.18270 0.88179
 H234 H 1.38327 1.20703 0.81439
 C235 C 0.86296 0.64284 0.82432
 C236 C 0.83498 0.62829 0.83704
 C237 C 0.82135 0.64070 0.86568
 C238 C 0.83561 0.66694 0.88128
 C239 C 0.86284 0.68157 0.86888
 C240 C 0.87665 0.66942 0.84044
 H241 H 0.82377 0.60806 0.82467
 H242 H 0.82480 0.67674 0.90296
 H243 H 0.89772 0.68089 0.83042
 C244 C 0.86231 1.11858 0.32424
 C245 C 0.87374 1.14725 0.33940
 C246 C 0.86042 1.15738 0.36913
 C247 C 0.83591 1.13884 0.38283
 C248 C 0.82453 1.11059 0.36738
 C249 C 0.83831 1.10039 0.33874
 H250 H 0.89212 1.16171 0.32796
 H251 H 0.82500 1.14724 0.40498
 H252 H 0.82891 1.07902 0.32659
 C253 C 0.65759 0.34120 0.29122
 C254 C 0.67878 0.35957 0.31011
 C255 C 0.69134 0.34647 0.33865
 C256 C 0.68211 0.31499 0.34835
 C257 C 0.66118 0.29666 0.32946
 C258 C 0.64868 0.30987 0.30119
 H259 H 0.68708 0.38312 0.30166
 H260 H 0.69256 0.30397 0.36956
 H261 H 0.63382 0.29487 0.28580
 C262 C 0.63285 0.86365 0.82195
 C263 C 0.62381 0.83607 0.83915
 C264 C 0.64217 0.82496 0.86518
 C265 C 0.66944 0.84212 0.87434
 C266 C 0.67904 0.87013 0.85733
 C267 C 0.66059 0.88090 0.83118
 H268 H 0.60280 0.82278 0.83147
 H269 H 0.68355 0.83298 0.89421
 H270 H 0.66829 0.90212 0.81775
 C271 C 0.13738 0.36700 0.83467
 C272 C 0.16358 0.38095 0.85103
 C273 C 0.17917 0.36325 0.87563
 C274 C 0.16893 0.33219 0.88343
 C275 C 0.14305 0.31822 0.86813
 C276 C 0.12695 0.33545 0.84352
 H277 H 0.17131 0.40546 0.84506
 H278 H 0.18107 0.31876 0.90232
 H279 H 0.10621 0.32487 0.83198
 C280 C 0.13687 0.86186 0.32824
 C281 C 0.16587 0.87309 0.34178
 C282 C 0.18099 0.85499 0.36648
 C283 C 0.16748 0.82621 0.37713
 C284 C 0.13890 0.81497 0.36471
 C285 C 0.12328 0.83263 0.34006
 H286 H 0.17601 0.89602 0.33378
 H287 H 0.17918 0.81252 0.39612
 H288 H 0.10051 0.82428 0.33082
 O289 O 1.11758 1.03658 1.16541
 O290 O 1.15657 1.03742 1.20096
 C291 C 1.13039 1.04901 1.19019
 C292 C 1.11551 1.07866 1.20473
 C293 C 1.13266 1.09884 1.22618
 H294 H 1.15635 1.09166 1.23420
 O295 O 0.88555 0.97336 1.15680
 O296 O 0.84840 0.97413 1.19448
 C297 C 0.87479 0.96309 1.18347
 C298 C 0.89331 0.93825 1.20185
 C299 C 0.88868 0.93470 1.23507
 H300 H 0.87175 0.95038 1.24764
 O301 O 1.03501 1.16457 1.11119
 O302 O 1.03380 1.20472 1.14666
 C303 C 1.04474 1.19228 1.12090
 C304 C 1.06931 1.20968 1.10195
 C305 C 1.08132 1.24026 1.11174
 H306 H 1.07225 1.25175 1.13339
 O307 O 0.97125 0.83761 1.12122
 O308 O 0.97031 0.80011 1.15904
 C309 C 0.95953 0.81136 1.13273
 C310 C 0.93272 0.79472 1.11519
 C311 C 0.91686 0.76665 1.12745
 H312 H 0.92437 0.75614 1.15006
 O313 O 1.15907 1.11730 1.02959
 O314 O 1.19421 1.15735 1.02871
 C315 C 1.18382 1.13090 1.04103
 C316 C 1.20034 1.11624 1.06928
 C317 C 1.22819 1.13074 1.08152
 H318 H 1.23818 1.15212 1.06998
 O319 O 0.85002 0.88498 1.02910
 O320 O 0.81386 0.84586 1.02804
 C321 C 0.82401 0.87291 1.03921
 C322 C 0.80560 0.89002 1.06459
 C323 C 0.77597 0.87770 1.07433
 H324 H 0.76606 0.85627 1.06276
 O325 O 0.97341 1.11985 1.15551
 O326 O 0.97239 1.15938 1.19166
 C327 C 0.96194 1.13230 1.18098
 C328 C 0.93572 1.11550 1.19802
 C329 C 0.92656 1.12592 1.22873
 H330 H 0.93919 1.14567 1.24049
 O331 O 1.03463 0.88292 1.16498
 O332 O 1.03347 0.84610 1.20350
 C333 C 1.04511 0.87219 1.19174
 C334 C 1.07124 0.89021 1.20897
 C335 C 1.07907 0.88312 1.24124
 H336 H 1.06549 0.86496 1.25428
 O337 O 1.15782 0.97178 1.11888
 O338 O 1.19631 0.97093 1.15497
 C339 C 1.18378 0.95968 1.12942
 C340 C 1.19908 0.93163 1.11248
 C341 C 1.22836 0.91896 1.12370
 H342 H 1.24019 0.93020 1.14397
 O343 O 0.84104 1.03731 1.11246
 O344 O 0.80322 1.03756 1.14939
 C345 C 0.81492 1.04897 1.12358
 C346 C 0.79890 1.07685 1.10677
 C347 C 0.77010 1.09081 1.11842
 H348 H 0.75851 1.08042 1.13926
 O349 O 0.88646 1.16650 1.02483
 O350 O 0.85140 1.20713 1.02448
 C351 C 0.87671 1.19406 1.03559
 C352 C 0.89443 1.21021 1.06211
 C353 C 0.88369 1.24029 1.07545
 H354 H 0.86280 1.25262 1.06577
 O355 O 1.11407 0.83684 1.03056
 O356 O 1.15239 0.79937 1.03055
 C357 C 1.12657 0.81107 1.04224
 C358 C 1.11318 0.79650 1.07185
 C359 C 1.13343 0.77728 1.09108
 H360 H 1.15739 0.77099 1.08296
 O361 O 0.88570 1.03704 1.15563
 O362 O 0.84838 1.03793 1.19311
 C363 C 0.87471 1.04856 1.18178
 C364 C 0.89281 1.07483 1.19861
 C365 C 0.88417 1.08555 1.22960
 H366 H 0.86419 1.07423 1.24179
 O367 O 1.11707 0.97198 1.16577
 O368 O 1.15502 0.97230 1.20242
 C369 C 1.12882 0.96076 1.19172
 C370 C 1.11199 0.93363 1.20901
 C371 C 1.11920 0.92599 1.24122
 H372 H 1.13642 0.94062 1.25420
 O373 O 1.03414 0.83987 1.11880
 O374 O 1.03443 0.80294 1.15731
 C375 C 1.04575 0.81406 1.13110
 C376 C 1.07412 0.79835 1.11587
 C377 C 1.09511 0.77934 1.13461
 H378 H 1.08966 0.77465 1.15959
 O379 O 0.97307 1.16273 1.10991
 O380 O 0.97227 1.20214 1.14617
 C381 C 0.96193 1.18979 1.12028
 C382 C 0.93622 1.20736 1.10305
 C383 C 0.92547 1.23732 1.11539
 H384 H 0.93667 1.24792 1.13639
 O385 O 0.84283 1.12176 1.02660
 O386 O 0.80745 1.16212 1.02672
 C387 C 0.81770 1.13504 1.03800
 C388 C 0.80072 1.11916 1.06510
 C389 C 0.77221 1.13275 1.07728
 H390 H 0.76194 1.15452 1.06645
 O391 O 1.15610 0.88256 1.03245
 O392 O 1.19429 0.84491 1.03308
 C393 C 1.18205 0.87133 1.04413
 C394 C 1.19809 0.88871 1.07108
 C395 C 1.22757 0.87699 1.08262
 H396 H 1.23901 0.85592 1.07152
 O397 O 0.97171 0.88647 1.16125
 O398 O 0.97069 0.84967 1.19987
 C399 C 0.96035 0.87625 1.18757
 C400 C 0.93493 0.89563 1.20385
 C401 C 0.92956 0.89220 1.23692
 H402 H 0.94407 0.87537 1.25087
 O403 O 1.03625 1.12177 1.15754
 O404 O 1.03480 1.16219 1.19272
 C405 C 1.04672 1.13536 1.18290
 C406 C 1.07426 1.12112 1.20028
 C407 C 1.09163 1.14077 1.22153
 H408 H 1.08387 1.16567 1.22643
 O409 O 0.84240 0.97274 1.11197
 O410 O 0.80473 0.97221 1.14903
 C411 C 0.81667 0.96082 1.12311
 C412 C 0.80152 0.93279 1.10586
 C413 C 0.77183 0.91967 1.11550
 H414 H 0.75899 0.93055 1.13549
 O415 O 1.16006 1.03633 1.12009
 O416 O 1.19905 1.03590 1.15561
 C417 C 1.18654 1.04771 1.13025
 C418 C 1.20205 1.07569 1.11287
 C419 C 1.22990 1.09106 1.12484
 H420 H 1.24100 1.08192 1.14652
 O421 O 0.89260 0.83862 1.03081
 O422 O 0.85659 0.79949 1.02847
 C423 C 0.88135 0.81170 1.04120
 C424 C 0.89572 0.79495 1.06943
 C425 C 0.88121 0.76663 1.08154
 H426 H 0.86098 0.75596 1.06918
 O427 O 1.11528 1.16252 1.02389
 O428 O 1.15061 1.20238 1.02183
 C429 C 1.12488 1.19060 1.03278
 C430 C 1.10726 1.20913 1.05749
 C431 C 1.11821 1.24002 1.06688
 H432 H 1.13796 1.25143 1.05435
 Cu433 Cu 1.13432 1.00425 1.13914
 Cu434 Cu 1.18060 1.00385 1.18203
 Cu435 Cu 0.86714 1.00504 1.13042
 Cu436 Cu 0.82225 1.00543 1.17503
 Cu437 Cu 1.00477 1.13802 1.13006
 Cu438 Cu 1.00310 1.18598 1.17305
 Cu439 Cu 1.00294 0.86519 1.13789
 Cu440 Cu 1.00199 0.82086 1.18352
 C441 C 1.08596 1.08987 1.19258
 H442 H 1.07295 1.07510 1.17545
 C443 C 1.12071 1.13009 1.23433
 C444 C 0.91674 0.91878 1.18652
 H445 H 0.92074 0.92155 1.16100
 C446 C 0.90686 0.91196 1.25259
 C447 C 1.08233 1.19448 1.07459
 H448 H 1.07414 1.17044 1.06744
 C449 C 1.10602 1.25533 1.09414
 C450 C 0.92165 0.80849 1.08614
 H451 H 0.93268 0.83046 1.07685
 C452 C 0.89090 0.75258 1.11044
 C453 C 1.18766 1.08861 1.08496
 H454 H 1.16603 1.07755 1.07576
 C455 C 1.24303 1.11871 1.10918
 C456 C 0.81802 0.91775 1.08015
 H457 H 0.84112 0.92706 1.07276
 C458 C 0.75905 0.89206 1.09953
 C459 C 0.91894 1.08983 1.18323
 H460 H 0.92576 1.08208 1.15930
 C461 C 0.90123 1.11105 1.24475
 C462 C 1.08795 0.91552 1.19329
 H463 H 1.08220 0.92119 1.16859
 C464 C 1.10288 0.90093 1.25760
 C465 C 1.18404 0.91635 1.08606
 H466 H 1.16120 0.92557 1.07756
 C467 C 1.24254 0.89176 1.10879
 C468 C 0.81372 1.09110 1.07986
 H469 H 0.83601 1.08085 1.07089
 C470 C 0.75673 1.11883 1.10366
 C471 C 0.92094 1.19405 1.07612
 H472 H 0.92899 1.17060 1.06681
 C473 C 0.89938 1.25361 1.10231
 C474 C 1.08334 0.80675 1.08434
 H475 H 1.06816 0.82281 1.07024
 C476 C 1.12492 0.76947 1.12245
 O477 O 1.12733 0.96932 0.83839
 O478 O 1.16685 0.96736 0.80316
 C479 C 1.13977 0.95767 0.81294
 C480 C 1.12228 0.93286 0.79452
 C481 C 1.13412 0.92159 0.76510
 H482 H 1.15625 0.93124 0.75544
 O483 O 0.87675 1.03591 0.83668
 O484 O 0.83830 1.03401 0.80045
 C485 C 0.86425 1.04610 0.81078
 C486 C 0.87946 1.07344 0.79372
 C487 C 0.86089 1.09492 0.77506
 H488 H 0.83561 1.09032 0.77142
 O489 O 0.96951 1.15240 0.87286
 O490 O 0.97125 1.19094 0.83589
 C491 C 0.96004 1.17991 0.86208
 C492 C 0.93499 1.19886 0.87944
 C493 C 0.92351 1.22840 0.86645
 H494 H 0.93362 1.23797 0.84446
 O495 O 1.04015 0.84802 0.87756
 O496 O 1.03863 0.81026 0.83967
 C497 C 1.04999 0.82099 0.86586
 C498 C 1.07491 0.80170 0.88261
 C499 C 1.08450 0.77121 0.87041
 H500 H 1.07345 0.76149 0.84894
 O501 O 1.15986 0.88339 0.97059
 O502 O 1.19879 0.84653 0.97185
 C503 C 1.18752 0.87359 0.96187
 C504 C 1.20671 0.89407 0.94009
 C505 C 1.24036 0.89352 0.94125
 H506 H 1.25274 0.87789 0.95822
 O507 O 0.83883 1.12255 0.96409
 O508 O 0.80359 1.16302 0.96405
 C509 C 0.81302 1.13538 0.95355
 C510 C 0.79450 1.11843 0.92808
 C511 C 0.76543 1.13156 0.91675
 H512 H 0.75546 1.15355 0.92755
 O513 O 1.03022 1.10572 0.82733
 O514 O 1.03152 1.14383 0.78998
 C515 C 1.04222 1.11727 0.80172
 C516 C 1.07030 1.10059 0.78697
 C517 C 1.08277 1.11040 0.75709
 H518 H 1.07087 1.12950 0.74350
 O519 O 0.97626 0.89478 0.83679
 O520 O 0.97581 0.85693 0.79900
 C521 C 0.96459 0.88322 0.81112
 C522 C 0.93688 0.89920 0.79537
 C523 C 0.92683 0.88719 0.76570
 H524 H 0.94034 0.86801 0.75364
 O525 O 1.16983 1.03339 0.88161
 O526 O 1.20868 1.03282 0.84568
 C527 C 1.19641 1.04422 0.87118
 C528 C 1.21251 1.07060 0.88906
 C529 C 1.24164 1.08436 0.87853
 H530 H 1.25333 1.07522 0.85707
 O531 O 0.83736 0.97215 0.88369
 O532 O 0.79919 0.96914 0.84735
 C533 C 0.81191 0.95913 0.87323
 C534 C 0.79779 0.93130 0.89083
 C535 C 0.76795 0.91847 0.88170
 H536 H 0.75448 0.92972 0.86242
 O537 O 1.11621 1.15500 0.96155
 O538 O 1.15147 1.19494 0.95998
 C539 C 1.12646 1.18121 0.94895
 C540 C 1.10924 1.19569 0.92107
 C541 C 1.11803 1.22652 0.90888
 H542 H 1.13729 1.23997 0.92007
 O543 O 0.89611 0.84126 0.96727
 O544 O 0.85999 0.80217 0.96566
 C545 C 0.88580 0.81477 0.95533
 C546 C 0.90337 0.79924 0.92834
 C547 C 0.89377 0.76874 0.91609
 H548 H 0.87414 0.75579 0.92722
 O549 O 0.88084 0.97305 0.83947
 O550 O 0.84336 0.97026 0.80239
 C551 C 0.87037 0.96096 0.81350
 C552 C 0.88997 0.93572 0.79650
 C553 C 0.88003 0.92254 0.76684
 H554 H 0.85788 0.93077 0.75594
 O555 O 1.12359 1.03181 0.84018
 O556 O 1.16187 1.03007 0.80361
 C557 C 1.13479 1.04071 0.81342
 C558 C 1.11599 1.06344 0.79347
 C559 C 1.12730 1.07248 0.76329
 H560 H 1.14963 1.06240 0.75417
 O561 O 0.97834 0.84810 0.87892
 O562 O 0.97725 0.81052 0.84081
 C563 C 0.96757 0.82144 0.86768
 C564 C 0.94323 0.80294 0.88556
 C565 C 0.93358 0.77237 0.87403
 H566 H 0.94452 0.76188 0.85273
 O567 O 1.03130 1.14818 0.87328
 O568 O 1.03259 1.18635 0.83595
 C569 C 1.04276 1.17453 0.86219
 C570 C 1.06824 1.19209 0.87934
 C571 C 1.07718 1.22294 0.86808
 H572 H 1.06516 1.23395 0.84772
 O573 O 0.84813 0.88302 0.96683
 O574 O 0.81244 0.84346 0.96617
 C575 C 0.82228 0.87081 0.95594
 C576 C 0.80334 0.88809 0.93100
 C577 C 0.77340 0.87583 0.92161
 H578 H 0.76373 0.85422 0.93302
 O579 O 1.16482 1.11532 0.96716
 O580 O 1.20000 1.15538 0.96668
 C581 C 1.19084 1.12762 0.95701
 C582 C 1.20986 1.11054 0.93236
 C583 C 1.23901 1.12357 0.92214
 H584 H 1.24890 1.14485 0.93401
 O585 O 1.03937 0.89126 0.83220
 O586 O 1.03830 0.85346 0.79436
 C587 C 1.05002 0.87941 0.80597
 C588 C 1.07755 0.89517 0.79014
 C589 C 1.08977 0.88386 0.76054
 H590 H 1.07791 0.86425 0.74782
 O591 O 0.96656 1.10873 0.82792
 O592 O 0.96809 1.14763 0.79133
 C593 C 0.95514 1.12233 0.80301
 C594 C 0.92470 1.11059 0.78943
 C595 C 0.90577 1.13185 0.77084
 H596 H 0.91475 1.15567 0.76397
 O597 O 0.83421 1.03645 0.88176
 O598 O 0.79576 1.03413 0.84572
 C599 C 0.80767 1.04697 0.87082
 C600 C 0.79166 1.07527 0.88717
 C601 C 0.76286 1.08929 0.87568
 H602 H 0.75107 1.07863 0.85509
 O603 O 1.16572 0.97041 0.88695
 O604 O 1.20565 0.96948 0.85209
 C605 C 1.19267 0.95947 0.87788
 C606 C 1.20913 0.93549 0.89821
 C607 C 1.24261 0.93413 0.89896
 H608 H 1.25666 0.94999 0.88368
 O609 O 1.11706 0.83702 0.96677
 O610 O 1.15539 0.79968 0.96628
 C611 C 1.12956 0.81129 0.95464
 C612 C 1.11397 0.79606 0.92603
 C613 C 1.12361 0.76536 0.91311
 H614 H 1.14261 0.75149 0.92451
 O615 O 0.88774 1.16174 0.96184
 O616 O 0.85257 1.20226 0.96132
 C617 C 0.87768 1.18849 0.95001
 C618 C 0.89467 1.20306 0.92214
 C619 C 0.88337 1.23229 0.90834
 H620 H 0.86289 1.24478 0.91881
 Cu621 Cu 1.14287 1.00136 0.86550
 Cu622 Cu 1.18977 0.99988 0.82259
 Cu623 Cu 0.86085 1.00468 0.86421
 Cu624 Cu 0.81516 1.00135 0.82045
 Cu625 Cu 1.13530 1.13351 0.99564
 Cu626 Cu 1.17754 1.18143 0.99419
 Cu627 Cu 1.13261 0.86329 0.99957
 Cu628 Cu 1.17866 0.81841 1.00012
 Cu629 Cu 0.86749 1.13926 0.99430
 Cu630 Cu 0.82535 1.18770 0.99411
 Cu631 Cu 0.87556 0.86564 0.99839
 Cu632 Cu 0.83233 0.81874 0.99700
 Cu633 Cu 0.99920 1.12438 0.85366
 Cu634 Cu 1.00116 1.17083 0.80933
 Cu635 Cu 1.00875 0.87469 0.85996
 Cu636 Cu 1.00726 0.82919 0.81448
 C637 C 1.09379 0.91997 0.80659
 H638 H 1.08485 0.92847 0.82958
 C639 C 1.11814 0.89730 0.74805
 C640 C 0.91151 1.08114 0.80024
 H641 H 0.92558 1.06518 0.81556
 C642 C 0.87391 1.12429 0.76403
 C643 C 0.92068 1.18655 0.90754
 H644 H 0.92909 1.16353 0.91741
 C645 C 0.89754 1.24482 0.88031
 C646 C 1.08945 0.81373 0.91046
 H647 H 1.08202 0.83743 0.91966
 C648 C 1.10853 0.75286 0.88519
 C649 C 1.19131 0.91549 0.91883
 H650 H 1.16535 0.91651 0.91822
 C651 C 1.25816 0.91380 0.92092
 C652 C 0.80698 1.09004 0.91351
 H653 H 0.82948 1.08004 0.92208
 C654 C 0.74958 1.11747 0.89057
 C655 C 1.08709 1.07691 0.80483
 H656 H 1.07837 1.06997 0.82831
 C657 C 1.11129 1.09607 0.74530
 C658 C 0.91861 0.92384 0.81054
 H659 H 0.92616 0.93295 0.83371
 C660 C 0.89865 0.89817 0.75163
 C661 C 1.19719 1.08363 0.91627
 H662 H 1.17440 1.07388 0.92404
 C663 C 1.25479 1.11101 0.89530
 C664 C 0.81518 0.91610 0.91572
 H665 H 0.83841 0.92547 0.92254
 C666 C 0.75570 0.89074 0.89717
 C667 C 1.08409 1.17860 0.90605
 H668 H 1.07721 1.15468 0.91476
 C669 C 1.10179 1.24010 0.88236
 C670 C 0.92840 0.81608 0.91302
 H671 H 0.93554 0.83995 0.92173
 C672 C 0.90894 0.75541 0.88884
 O673 O 0.96631 0.37672 0.33825
 O674 O 0.96844 0.33820 0.30117
 C675 C 0.95575 0.36417 0.31249
 C676 C 0.92715 0.37869 0.29670
 C677 C 0.91114 0.36126 0.27257
 H678 H 0.92061 0.33801 0.26412
 O679 O 1.02243 0.61046 0.33276
 O680 O 1.01989 0.64888 0.29572
 C681 C 1.03316 0.62350 0.30726
 C682 C 1.06310 0.61082 0.29270
 C683 C 1.08249 0.63190 0.27453
 H684 H 1.07441 0.65658 0.26926
 O685 O 0.83712 0.45279 0.38756
 O686 O 0.79781 0.45237 0.35232
 C687 C 0.81111 0.44076 0.37724
 C688 C 0.79673 0.41222 0.39358
 C689 C 0.76903 0.39773 0.38116
 H690 H 0.75746 0.40838 0.36040
 O691 O 1.15318 0.53112 0.38029
 O692 O 1.19118 0.53007 0.34343
 C693 C 1.17961 0.54151 0.36932
 C694 C 1.19652 0.56818 0.38586
 C695 C 1.22528 0.57990 0.37329
 H696 H 1.23618 0.56813 0.35261
 O697 O 0.88862 0.32170 0.46928
 O698 O 0.85449 0.28083 0.47105
 C699 C 0.87886 0.29422 0.45862
 C700 C 0.89544 0.27881 0.43062
 C701 C 0.88573 0.24839 0.41754
 H702 H 0.86648 0.23489 0.42870
 O703 O 1.10557 0.65639 0.46419
 O704 O 1.14016 0.69690 0.46425
 C705 C 1.11500 0.68368 0.45312
 C706 C 1.09695 0.69947 0.42642
 C707 C 1.10662 0.72966 0.41333
 H708 H 1.12706 0.74223 0.42336
 O709 O 0.87527 0.52047 0.34392
 O710 O 0.83535 0.52056 0.30929
 C711 C 0.86122 0.53279 0.31976
 C712 C 0.87391 0.56285 0.30492
 C713 C 0.85295 0.58403 0.28860
 H714 H 0.82793 0.57777 0.28570
 O715 O 1.10986 0.46720 0.33662
 O716 O 1.14740 0.46775 0.29925
 C717 C 1.12206 0.45568 0.31107
 C718 C 1.10894 0.42577 0.29668
 C719 C 1.12897 0.40680 0.27690
 H720 H 1.15239 0.41557 0.26986
 O721 O 1.03030 0.33516 0.38387
 O722 O 1.03216 0.29662 0.34675
 C723 C 1.04231 0.30875 0.37293
 C724 C 1.06923 0.29242 0.38981
 C725 C 1.08283 0.26399 0.37663
 H726 H 1.07264 0.25310 0.35527
 O727 O 0.95861 0.65310 0.37770
 O728 O 0.95655 0.69157 0.34065
 C729 C 0.94688 0.67983 0.36702
 C730 C 0.92138 0.69700 0.38529
 C731 C 0.90942 0.72767 0.37529
 H732 H 0.91941 0.73941 0.35431
 O733 O 0.84008 0.60634 0.47114
 O734 O 0.80147 0.64358 0.47181
 C735 C 0.81294 0.61659 0.46173
 C736 C 0.79418 0.59726 0.43886
 C737 C 0.76268 0.60674 0.43219
 H738 H 0.75190 0.62764 0.44425
 O739 O 1.15697 0.38337 0.46643
 O740 O 1.19509 0.34565 0.46597
 C741 C 1.18239 0.37129 0.45431
 C742 C 1.19600 0.38531 0.42477
 C743 C 1.21599 0.36567 0.40546
 H744 H 1.22286 0.34125 0.41307
 O745 O 0.95929 0.60526 0.33638
 O746 O 0.95644 0.64436 0.30004
 C747 C 0.94613 0.61777 0.31192
 C748 C 0.91629 0.60348 0.29952
 C749 C 0.89527 0.62357 0.28207
 H750 H 0.90246 0.64784 0.27459
 O751 O 1.02973 0.37767 0.33809
 O752 O 1.03178 0.33899 0.30111
 C753 C 1.04222 0.36551 0.31285
 C754 C 1.07060 0.38100 0.29827
 C755 C 1.09151 0.36211 0.27908
 H756 H 1.08608 0.33681 0.27357
 O757 O 1.15380 0.46729 0.37964
 O758 O 1.19098 0.46674 0.34188
 C759 C 1.17938 0.45535 0.36766
 C760 C 1.19453 0.42636 0.38237
 C761 C 1.21464 0.40633 0.36357
 H762 H 1.22043 0.41305 0.33912
 O763 O 0.83355 0.51662 0.38946
 O764 O 0.79363 0.51615 0.35488
 C765 C 0.80629 0.52712 0.38041
 C766 C 0.79020 0.55339 0.39925
 C767 C 0.75856 0.56357 0.39257
 H768 H 0.74502 0.55132 0.37401
 O769 O 0.88081 0.65397 0.46786
 O770 O 0.84205 0.69099 0.46851
 C771 C 0.86797 0.67992 0.45674
 C772 C 0.88288 0.69699 0.42935
 C773 C 0.87101 0.72746 0.41893
 H774 H 0.85136 0.73928 0.43155
 O775 O 1.11544 0.33651 0.46871
 O776 O 1.15388 0.29920 0.46863
 C777 C 1.12749 0.31003 0.45765
 C778 C 1.11133 0.29271 0.43072
 C779 C 1.12513 0.26448 0.41632
 H780 H 1.14727 0.25426 0.42554
 O781 O 1.11019 0.53116 0.33519
 O782 O 1.14851 0.53158 0.29864
 C783 C 1.12228 0.54274 0.30966
 C784 C 1.10696 0.57108 0.29401
 C785 C 1.12571 0.59221 0.27537
 H786 H 1.15070 0.58649 0.27073
 O787 O 0.87809 0.45651 0.34088
 O788 O 0.83892 0.45588 0.30551
 C789 C 0.86598 0.44535 0.31520
 C790 C 0.88293 0.41854 0.29779
 C791 C 0.86749 0.40076 0.27338
 H792 H 0.84361 0.40768 0.26572
 O793 O 1.02041 0.65104 0.37987
 O794 O 1.01802 0.68987 0.34318
 C795 C 1.02963 0.67835 0.36903
 C796 C 1.05479 0.69666 0.38584
 C797 C 1.06429 0.72701 0.37380
 H798 H 1.05235 0.73768 0.35322
 O799 O 0.96833 0.33073 0.38158
 O800 O 0.97059 0.29260 0.34407
 C801 C 0.95916 0.30340 0.37026
 C802 C 0.93465 0.28407 0.38730
 C803 C 0.92486 0.25385 0.37484
 H804 H 0.93575 0.24419 0.35315
 O805 O 1.15401 0.61581 0.46398
 O806 O 1.18877 0.65614 0.46359
 C807 C 1.17923 0.62888 0.45261
 C808 C 1.19650 0.61211 0.42578
 C809 C 1.22508 0.62439 0.41197
 H810 H 1.23570 0.64655 0.42131
 O811 O 0.84386 0.36607 0.47037
 O812 O 0.80937 0.32548 0.47173
 C813 C 0.81847 0.35271 0.46014
 C814 C 0.80021 0.36876 0.43383
 C815 C 0.77252 0.35442 0.42074
 H816 H 0.76351 0.33165 0.43038
 Cu817 Cu 0.99824 0.35920 0.36393
 Cu818 Cu 1.00093 0.31297 0.31935
 Cu819 Cu 0.99019 0.62580 0.36003
 Cu820 Cu 0.98775 0.67219 0.31579
 Cu821 Cu 0.85996 0.48657 0.36890
 Cu822 Cu 0.81259 0.48611 0.32681
 Cu823 Cu 1.12784 0.49946 0.36169
 Cu824 Cu 1.17323 0.49922 0.31694
 C825 C 0.91309 0.40761 0.30874
 H826 H 0.92482 0.42061 0.32805
 C827 C 0.88148 0.37205 0.26095
 C828 C 1.07547 0.58026 0.30207
 H829 H 1.06134 0.56453 0.31739
 C830 C 1.11385 0.62283 0.26628
 C831 C 0.81190 0.39783 0.42013
 H832 H 0.83352 0.40876 0.42951
 C833 C 0.75693 0.36874 0.39437
 C834 C 1.18270 0.58388 0.41241
 H835 H 1.16034 0.57470 0.42193
 C836 C 1.23949 0.60793 0.38559
 C837 C 0.92012 0.29614 0.41530
 H838 H 0.92751 0.31965 0.42469
 C839 C 0.90064 0.23589 0.38951
 C840 C 1.07083 0.68322 0.41241
 H841 H 1.06357 0.65958 0.42153
 C842 C 1.09020 0.74334 0.38686
 C843 C 0.90561 0.57284 0.31050
 H844 H 0.92141 0.55754 0.32473
 C845 C 0.86354 0.61434 0.27759
 C846 C 1.07954 0.41291 0.30704
 H847 H 1.06446 0.42707 0.32317
 C848 C 1.12075 0.37494 0.26889
 C849 C 1.08327 0.30634 0.41719
 H850 H 1.07304 0.32857 0.42722
 C851 C 1.11075 0.25023 0.38914
 C852 C 0.90818 0.68212 0.41252
 H853 H 0.91708 0.65841 0.42018
 C854 C 0.88421 0.74299 0.39217
 C855 C 0.80767 0.57029 0.42280
 H856 H 0.83225 0.56329 0.42777
 C857 C 0.74486 0.59036 0.40929
 C858 C 1.18542 0.41579 0.41312
 H859 H 1.16895 0.43052 0.42730
 C860 C 1.22480 0.37590 0.37486
 O861 O 1.03614 0.38289 0.67078
 O862 O 1.03664 0.34462 0.70800
 C863 C 1.04697 0.37158 0.69714
 C864 C 1.07253 0.38977 0.71445
 C865 C 1.07940 0.38424 0.74714
 H866 H 1.06520 0.36701 0.76073
 O867 O 0.95972 0.60830 0.66364
 O868 O 0.95804 0.64753 0.69997
 C869 C 0.94767 0.62043 0.68907
 C870 C 0.92078 0.60298 0.70527
 C871 C 0.90779 0.61395 0.73474
 H872 H 0.91797 0.63506 0.74660
 O873 O 0.83479 0.51880 0.61576
 O874 O 0.79604 0.51878 0.65174
 C875 C 0.80831 0.53013 0.62614
 C876 C 0.79275 0.55770 0.60869
 C877 C 0.76214 0.56981 0.61753
 H878 H 0.74886 0.55835 0.63675
 O879 O 1.15811 0.46792 0.62053
 O880 O 1.19728 0.46945 0.65581
 C881 C 1.18503 0.45741 0.63043
 C882 C 1.20170 0.43074 0.61212
 C883 C 1.23154 0.41787 0.62229
 H884 H 1.24301 0.42752 0.64354
 O885 O 1.11652 0.33964 0.53207
 O886 O 1.15549 0.30284 0.53160
 C887 C 1.13004 0.31451 0.54397
 C888 C 1.11812 0.30038 0.57421
 C889 C 1.13860 0.27997 0.59195
 H890 H 1.16179 0.27269 0.58249
 O891 O 0.88347 0.65467 0.53083
 O892 O 0.84479 0.69180 0.53072
 C893 C 0.87128 0.68115 0.54140
 C894 C 0.88721 0.69911 0.56736
 C895 C 0.87578 0.72994 0.57674
 H896 H 0.85639 0.74161 0.56369
 O897 O 0.87952 0.45703 0.66177
 O898 O 0.84121 0.45612 0.69821
 C899 C 0.86812 0.44579 0.68775
 C900 C 0.88624 0.41991 0.70523
 C901 C 0.87362 0.40512 0.73295
 H902 H 0.85069 0.41321 0.74237
 O903 O 1.11419 0.53171 0.66554
 O904 O 1.15310 0.53496 0.70100
 C905 C 1.12584 0.54448 0.69073
 C906 C 1.10729 0.57093 0.70748
 C907 C 1.11782 0.58512 0.73650
 H908 H 1.13972 0.57635 0.74750
 O909 O 0.97676 0.33704 0.62266
 O910 O 0.97891 0.29788 0.65891
 C911 C 0.96752 0.30935 0.63292
 C912 C 0.94241 0.29067 0.61544
 C913 C 0.93020 0.26191 0.62920
 H914 H 0.93969 0.25287 0.65170
 O915 O 1.02219 0.65105 0.61755
 O916 O 1.02140 0.69046 0.65380
 C917 C 1.03260 0.67820 0.62786
 C918 C 1.05836 0.69556 0.61005
 C919 C 1.06977 0.72545 0.62186
 H920 H 1.05938 0.73624 0.64329
 O921 O 0.84411 0.36580 0.53317
 O922 O 0.80996 0.32490 0.53476
 C923 C 0.81940 0.35244 0.54522
 C924 C 0.80213 0.36830 0.57248
 C925 C 0.77800 0.35115 0.58877
 H926 H 0.77148 0.32671 0.58114
 O927 O 1.15159 0.61287 0.52680
 O928 O 1.18662 0.65302 0.52658
 C929 C 1.17685 0.62585 0.53778
 C930 C 1.19472 0.60993 0.56443
 C931 C 1.22459 0.62227 0.57357
 H932 H 1.23512 0.64244 0.56049
 O933 O 1.02308 0.61091 0.66522
 O934 O 1.02126 0.64984 0.70190
 C935 C 1.03361 0.62363 0.69094
 C936 C 1.06145 0.60885 0.70755
 C937 C 1.07231 0.62250 0.73638
 H938 H 1.05939 0.64267 0.74748
 O939 O 0.97295 0.38133 0.66740
 O940 O 0.97382 0.34210 0.70363
 C941 C 0.96143 0.36821 0.69243
 C942 C 0.93242 0.38255 0.70774
 C943 C 0.91961 0.36852 0.73560
 H944 H 0.93182 0.34822 0.74713
 O945 O 1.15625 0.53193 0.61933
 O946 O 1.19576 0.53429 0.65420
 C947 C 1.18263 0.54423 0.62842
 C948 C 1.19771 0.57065 0.60896
 C949 C 1.22771 0.58372 0.61762
 H950 H 1.24039 0.57419 0.63825
 O951 O 0.83687 0.45426 0.61671
 O952 O 0.79839 0.45378 0.65298
 C953 C 0.81121 0.44198 0.62776
 C954 C 0.79733 0.41245 0.61227
 C955 C 0.77256 0.39505 0.62758
 H956 H 0.76225 0.40406 0.64980
 O957 O 1.10581 0.65577 0.52749
 O958 O 1.14054 0.69617 0.52769
 C959 C 1.11560 0.68268 0.53912
 C960 C 1.09863 0.69792 0.56694
 C961 C 1.10977 0.72762 0.57979
 H962 H 1.12993 0.73989 0.56884
 O963 O 0.89378 0.32697 0.53233
 O964 O 0.85955 0.28618 0.53428
 C965 C 0.88470 0.30024 0.54468
 C966 C 0.90237 0.28607 0.57247
 C967 C 0.89078 0.25750 0.58700
 H968 H 0.87021 0.24521 0.57691
 O969 O 1.11791 0.46792 0.66819
 O970 O 1.15640 0.47060 0.70417
 C971 C 1.13031 0.45820 0.69438
 C972 C 1.11389 0.43206 0.71299
 C973 C 1.12034 0.42633 0.74571
 H974 H 1.13746 0.44150 0.75822
 O975 O 0.87725 0.52078 0.66076
 O976 O 0.83885 0.52019 0.69713
 C977 C 0.86487 0.53200 0.68643
 C978 C 0.88042 0.55956 0.70362
 C979 C 0.86799 0.57087 0.73295
 H980 H 0.84751 0.55894 0.74370
 O981 O 0.96037 0.65490 0.62064
 O982 O 0.95922 0.69411 0.65707
 C983 C 0.94938 0.68216 0.63087
 C984 C 0.92466 0.69960 0.61205
 C985 C 0.91266 0.73056 0.62149
 H986 H 0.92188 0.74252 0.64272
 O987 O 1.03913 0.34119 0.62389
 O988 O 1.04159 0.30293 0.66110
 C989 C 1.05213 0.31560 0.63535
 C990 C 1.08069 0.30141 0.61938
 C991 C 1.10175 0.28112 0.63671
 H992 H 1.09657 0.27470 0.66137
 O993 O 1.15862 0.38542 0.52971
 O994 O 1.19738 0.34844 0.52871
 C995 C 1.18526 0.37464 0.54024
 C996 C 1.20180 0.39149 0.56722
 C997 C 1.23169 0.37980 0.57753
 H998 H 1.24347 0.35994 0.56474
 O999 O 0.84123 0.60820 0.53286
 O1000 O 0.80289 0.64572 0.53290
 C1001 C 0.81472 0.61917 0.54360
 C1002 C 0.79690 0.60124 0.56861
 C1003 C 0.76646 0.61246 0.57753
 H1004 H 0.75596 0.63372 0.56596
 Cu1005 Cu 1.00615 0.36463 0.64274
 Cu1006 Cu 1.00777 0.31795 0.68648
 Cu1007 Cu 0.99106 0.62716 0.63842
 Cu1008 Cu 0.99000 0.67421 0.68191
 Cu1009 Cu 0.87102 0.34902 0.50100
 Cu1010 Cu 0.83008 0.30027 0.50319
 Cu1011 Cu 1.13294 0.36489 0.49911
 Cu1012 Cu 1.17930 0.32036 0.49874
 Cu1013 Cu 0.86568 0.62728 0.50060
 Cu1014 Cu 0.81901 0.67189 0.50102
 Cu1015 Cu 1.12580 0.63127 0.49533
 Cu1016 Cu 1.16737 0.67964 0.49565
 Cu1017 Cu 0.86076 0.48773 0.63503
 Cu1018 Cu 0.81465 0.48718 0.67850
 Cu1019 Cu 1.13281 0.49963 0.64003
 Cu1020 Cu 1.17961 0.50260 0.68220
 C1021 C 1.09005 0.41354 0.69782
 H1022 H 1.08501 0.41773 0.67268
 C1023 C 1.10316 0.40253 0.76301
 C1024 C 0.90695 0.57557 0.69017
 H1025 H 0.91636 0.56713 0.66736
 C1026 C 0.88137 0.59777 0.74869
 C1027 C 0.80979 0.57360 0.58397
 H1028 H 0.83349 0.56503 0.57721
 C1029 C 0.74909 0.59726 0.60164
 C1030 C 1.18711 0.41724 0.58448
 H1031 H 1.16389 0.42622 0.57681
 C1032 C 1.24648 0.39236 0.60487
 C1033 C 1.08905 0.31094 0.58802
 H1034 H 1.07357 0.32754 0.57487
 C1035 C 1.13077 0.27091 0.62309
 C1036 C 0.91198 0.68435 0.58475
 H1037 H 0.92051 0.66026 0.57769
 C1038 C 0.88814 0.74567 0.60360
 C1039 C 0.91578 0.40851 0.69300
 H1040 H 0.92538 0.41916 0.67128
 C1041 C 0.89030 0.37934 0.74812
 C1042 C 1.07883 0.58294 0.69348
 H1043 H 1.07065 0.57277 0.67096
 C1044 C 1.10019 0.61102 0.75100
 C1045 C 0.92841 0.30254 0.58683
 H1046 H 0.93697 0.32514 0.57645
 C1047 C 0.90420 0.24573 0.61559
 C1048 C 1.07279 0.68201 0.58227
 H1049 H 1.06446 0.65876 0.57309
 C1050 C 1.09546 0.74126 0.60725
 C1051 C 0.81154 0.39907 0.58437
 H1052 H 0.83094 0.41195 0.57272
 C1053 C 0.76320 0.36428 0.61610
 C1054 C 1.18155 0.58385 0.58209
 H1055 H 1.15828 0.57447 0.57544
 C1056 C 1.24111 0.60953 0.59984
 O1057 O 0.61001 1.04121 0.65305
 O1058 O 0.64711 1.04245 0.69072
 C1059 C 0.62186 1.05415 0.67804
 C1060 C 0.60838 1.08505 0.69074
 C1061 C 0.62788 1.10497 0.70986
 H1062 H 0.65133 1.09655 0.71752
 O1063 O 0.38044 0.97239 0.66030
 O1064 O 0.34307 0.97620 0.69756
 C1065 C 0.36890 0.96332 0.68717
 C1066 C 0.38578 0.93687 0.70542
 C1067 C 0.37510 0.92536 0.73571
 H1068 H 0.35437 0.93645 0.74712
 O1069 O 0.52412 1.17484 0.60438
 O1070 O 0.52407 1.21424 0.64065
 C1071 C 0.53447 1.20218 0.61442
 C1072 C 0.55977 1.21895 0.59567
 C1073 C 0.57357 1.24846 0.60625
 H1074 H 0.56482 1.26019 0.62790
 O1075 O 0.46759 0.84557 0.61800
 O1076 O 0.46659 0.80851 0.65638
 C1077 C 0.45627 0.81944 0.62966
 C1078 C 0.43050 0.80179 0.61240
 C1079 C 0.42068 0.77113 0.62338
 H1080 H 0.43240 0.75989 0.64380
 O1081 O 0.65239 1.12623 0.53089
 O1082 O 0.68997 1.16405 0.53037
 C1083 C 0.67734 1.13909 0.54294
 C1084 C 0.69143 1.12546 0.57228
 C1085 C 0.71044 1.14528 0.59194
 H1086 H 0.71516 1.17047 0.58542
 O1087 O 0.33553 0.88459 0.53280
 O1088 O 0.29872 0.84611 0.53370
 C1089 C 0.31002 0.87265 0.54454
 C1090 C 0.29476 0.88854 0.57257
 C1091 C 0.27283 0.87109 0.59150
 H1092 H 0.26523 0.84682 0.58438
 O1093 O 0.46551 1.12816 0.65058
 O1094 O 0.46460 1.16676 0.68762
 C1095 C 0.45465 1.13947 0.67681
 C1096 C 0.42974 1.12065 0.69418
 C1097 C 0.41832 1.13088 0.72448
 H1098 H 0.42787 1.15259 0.73582
 O1099 O 0.52926 0.88969 0.66308
 O1100 O 0.52937 0.85287 0.70164
 C1101 C 0.54023 0.87914 0.68953
 C1102 C 0.56639 0.89767 0.70539
 C1103 C 0.57962 0.88813 0.73520
 H1104 H 0.57038 0.86696 0.74767
 O1105 O 0.65439 0.97484 0.61212
 O1106 O 0.69106 0.97675 0.65006
 C1107 C 0.68034 0.96437 0.62428
 C1108 C 0.69811 0.93688 0.60930
 C1109 C 0.72832 0.92835 0.62124
 H1110 H 0.73922 0.94269 0.64015
 O1111 O 0.34032 1.03475 0.61008
 O1112 O 0.30239 1.03886 0.64674
 C1113 C 0.31454 1.04799 0.62019
 C1114 C 0.29920 1.07496 0.60137
 C1115 C 0.27021 1.08934 0.61190
 H1116 H 0.25841 1.08013 0.63317
 O1117 O 0.38528 1.16821 0.52032
 O1118 O 0.34687 1.20539 0.51630
 C1119 C 0.37264 1.19524 0.52904
 C1120 C 0.38799 1.21451 0.55465
 C1121 C 0.38145 1.24802 0.55868
 H1122 H 0.36521 1.26052 0.54249
 O1123 O 0.61702 0.83226 0.53831
 O1124 O 0.65465 0.79450 0.54405
 C1125 C 0.62780 0.80689 0.55217
 C1126 C 0.60888 0.79201 0.57814
 C1127 C 0.61648 0.76057 0.58950
 H1128 H 0.63615 0.74684 0.57894
 O1129 O 0.38502 1.03574 0.65326
 O1130 O 0.34740 1.03939 0.69032
 C1131 C 0.37397 1.04874 0.67865
 C1132 C 0.39136 1.07552 0.69478
 C1133 C 0.38139 1.08542 0.72526
 H1134 H 0.36238 1.07245 0.73750
 O1135 O 0.61078 0.97730 0.65710
 O1136 O 0.64778 0.97898 0.69474
 C1137 C 0.62185 0.96757 0.68382
 C1138 C 0.60545 0.94185 0.70217
 C1139 C 0.61763 0.93259 0.73198
 H1140 H 0.63780 0.94541 0.74230
 O1141 O 0.52998 0.84210 0.62140
 O1142 O 0.52876 0.80519 0.65992
 C1143 C 0.54013 0.81544 0.63361
 C1144 C 0.56571 0.79623 0.61754
 C1145 C 0.57353 0.76468 0.62845
 H1146 H 0.56031 0.75385 0.64808
 O1147 O 0.46239 1.17328 0.60725
 O1148 O 0.46179 1.21272 0.64347
 C1149 C 0.45109 1.20019 0.61779
 C1150 C 0.42562 1.21677 0.59928
 C1151 C 0.41818 1.25013 0.60374
 H1152 H 0.43052 1.26432 0.62183
 O1153 O 0.34535 1.11977 0.52080
 O1154 O 0.30675 1.15671 0.51737
 C1155 C 0.31857 1.13111 0.53036
 C1156 C 0.30140 1.11528 0.55758
 C1157 C 0.27259 1.12905 0.56884
 H1158 H 0.26236 1.15037 0.55716
 O1159 O 0.65953 0.87772 0.53584
 O1160 O 0.69779 0.84067 0.54168
 C1161 C 0.68533 0.86825 0.54901
 C1162 C 0.70062 0.88946 0.57337
 C1163 C 0.73079 0.88117 0.58612
 H1164 H 0.74331 0.85942 0.57782
 O1165 O 0.46646 0.88911 0.66321
 O1166 O 0.46658 0.85223 0.70176
 C1167 C 0.45536 0.87829 0.68955
 C1168 C 0.42854 0.89547 0.70586
 C1169 C 0.41754 0.88434 0.73559
 H1170 H 0.42938 0.86390 0.74726
 O1171 O 0.52790 1.13097 0.64848
 O1172 O 0.52800 1.17020 0.68496
 C1173 C 0.53991 1.14401 0.67329
 C1174 C 0.56908 1.12957 0.68758
 C1175 C 0.58947 1.14934 0.70594
 H1176 H 0.58327 1.17468 0.71081
 O1177 O 0.33840 0.97048 0.61451
 O1178 O 0.30113 0.97418 0.65193
 C1179 C 0.31247 0.96047 0.62698
 C1180 C 0.29643 0.93140 0.61342
 C1181 C 0.27508 0.91322 0.63232
 H1182 H 0.26904 0.92132 0.65636
 O1183 O 0.65616 1.03951 0.61276
 O1184 O 0.69277 1.04028 0.65092
 C1185 C 0.68122 1.05174 0.62520
 C1186 C 0.69504 1.08173 0.61161
 C1187 C 0.71466 1.10168 0.63078
 H1188 H 0.72213 1.09366 0.65438
 O1189 O 0.38163 0.84215 0.53294
 O1190 O 0.34521 0.80329 0.53340
 C1191 C 0.37107 0.81555 0.54427
 C1192 C 0.38879 0.79953 0.57094
 C1193 C 0.37924 0.76885 0.58276
 H1194 H 0.35927 0.75619 0.57194
 O1195 O 0.60646 1.16840 0.52071
 O1196 O 0.64461 1.20548 0.51924
 C1197 C 0.61741 1.19591 0.52918
 C1198 C 0.59958 1.21597 0.55266
 C1199 C 0.61234 1.24568 0.56294
 H1200 H 0.63359 1.25547 0.55157
 Cu1201 Cu 0.62921 1.00777 0.62977
 Cu1202 Cu 0.67331 1.00924 0.67550
 Cu1203 Cu 0.36466 1.00278 0.63081
 Cu1204 Cu 0.31956 1.00790 0.67513
 Cu1205 Cu 0.49485 1.14791 0.62411
 Cu1206 Cu 0.49438 1.19471 0.66819
 Cu1207 Cu 0.49858 0.87043 0.63773
 Cu1208 Cu 0.49769 0.82603 0.68373
 C1209 C 0.57881 1.09741 0.67984
 H1210 H 0.56400 1.08248 0.66439
 C1211 C 0.61885 1.13713 0.71668
 C1212 C 0.41276 0.92180 0.69114
 H1213 H 0.42111 0.92999 0.66792
 C1214 C 0.39125 0.89890 0.75080
 C1215 C 0.57274 1.20324 0.56847
 H1216 H 0.56325 1.17989 0.56080
 C1217 C 0.60006 1.26162 0.58980
 C1218 C 0.41466 0.81573 0.58587
 H1219 H 0.42191 0.83963 0.57741
 C1220 C 0.39531 0.75474 0.60892
 C1221 C 0.68392 1.09366 0.58214
 H1222 H 0.66829 1.07874 0.56751
 C1223 C 0.72186 1.13354 0.62115
 C1224 C 0.30587 0.91900 0.58342
 H1225 H 0.32330 0.93224 0.56927
 C1226 C 0.26341 0.88312 0.62151
 C1227 C 0.41604 1.09280 0.67954
 H1228 H 0.42372 1.08524 0.65581
 C1229 C 0.39414 1.11296 0.73990
 C1230 C 0.57955 0.92475 0.68926
 H1231 H 0.57039 0.93191 0.66600
 C1232 C 0.60541 0.90590 0.74838
 C1233 C 0.68450 0.91759 0.58499
 H1234 H 0.66093 0.92385 0.57595
 C1235 C 0.74452 0.90072 0.61009
 C1236 C 0.31448 1.08803 0.57393
 H1237 H 0.33706 1.07763 0.56588
 C1238 C 0.25701 1.11648 0.59575
 C1239 C 0.41006 1.19922 0.57500
 H1240 H 0.41534 1.17339 0.57174
 C1241 C 0.39638 1.26582 0.58315
 C1242 C 0.58327 0.80958 0.59210
 H1243 H 0.57756 0.83404 0.58374
 C1244 C 0.59866 0.74684 0.61455
 O1245 O 0.61946 0.95392 0.35259
 O1246 O 0.65684 0.95279 0.31508
 C1247 C 0.63079 0.94197 0.32688
 C1248 C 0.61364 0.91492 0.31099
 C1249 C 0.62194 0.90512 0.27984
 H1250 H 0.64075 0.91782 0.26710
 O1251 O 0.39662 1.02152 0.33414
 O1252 O 0.36095 1.01857 0.29516
 C1253 C 0.38515 1.03185 0.30780
 C1254 C 0.39649 1.06276 0.29437
 C1255 C 0.37375 1.08351 0.27998
 H1256 H 0.34957 1.07512 0.27554
 O1257 O 0.47629 1.15908 0.37745
 O1258 O 0.47775 1.19382 0.33704
 C1259 C 0.46621 1.18496 0.36392
 C1260 C 0.43960 1.20376 0.37892
 C1261 C 0.42762 1.23235 0.36449
 H1262 H 0.43897 1.24204 0.34317
 O1263 O 0.53615 0.81710 0.39705
 O1264 O 0.53672 0.77811 0.36044
 C1265 C 0.54731 0.79001 0.38641
 C1266 C 0.57390 0.77342 0.40393
 C1267 C 0.58585 0.74232 0.39484
 H1268 H 0.57461 0.72918 0.37535
 O1269 O 0.66370 0.86982 0.47440
 O1270 O 0.70196 0.83269 0.47953
 C1271 C 0.69057 0.85794 0.46582
 C1272 C 0.70803 0.87381 0.43928
 C1273 C 0.73727 0.86124 0.42756
 H1274 H 0.74808 0.83979 0.43844
 O1275 O 0.34778 1.11815 0.45760
 O1276 O 0.30913 1.15507 0.45395
 C1277 C 0.32250 1.12884 0.44419
 C1278 C 0.30999 1.11223 0.41531
 C1279 C 0.28978 1.12970 0.39441
 H1280 H 0.28164 1.15422 0.40044
 O1281 O 0.53625 1.10650 0.33853
 O1282 O 0.53705 1.13987 0.29700
 C1283 C 0.54727 1.11429 0.31129
 C1284 C 0.57327 1.09428 0.29679
 C1285 C 0.58585 1.10280 0.26674
 H1286 H 0.57542 1.12304 0.25357
 O1287 O 0.47530 0.86340 0.35096
 O1288 O 0.47646 0.82451 0.31410
 C1289 C 0.46489 0.85125 0.32482
 C1290 C 0.43801 0.86736 0.30745
 C1291 C 0.42089 0.84979 0.28411
 H1292 H 0.42765 0.82480 0.27828
 O1293 O 0.66216 1.01883 0.39440
 O1294 O 0.70048 1.01818 0.35790
 C1295 C 0.68842 1.02973 0.38368
 C1296 C 0.70440 1.05649 0.40131
 C1297 C 0.73598 1.06572 0.39407
 H1298 H 0.74925 1.05294 0.37548
 O1299 O 0.34959 0.96299 0.38112
 O1300 O 0.31373 0.96232 0.34233
 C1301 C 0.32301 0.95337 0.36984
 C1302 C 0.30271 0.93089 0.38816
 C1303 C 0.27231 0.92324 0.37658
 H1304 H 0.26301 0.93513 0.35528
 O1305 O 0.61713 1.16345 0.45907
 O1306 O 0.65624 1.19956 0.45798
 C1307 C 0.63130 1.18738 0.44577
 C1308 C 0.61964 1.19987 0.41490
 C1309 C 0.64026 1.21718 0.39451
 H1310 H 0.66434 1.22315 0.40212
 O1311 O 0.37995 0.83910 0.47051
 O1312 O 0.34185 0.80184 0.47029
 C1313 C 0.36778 0.81314 0.45909
 C1314 C 0.38240 0.79729 0.43089
 C1315 C 0.36229 0.78374 0.40754
 H1316 H 0.33655 0.78348 0.41108
 O1317 O 0.39646 0.95650 0.33939
 O1318 O 0.35999 0.95466 0.30127
 C1319 C 0.38509 0.94317 0.31437
 C1320 C 0.39981 0.91274 0.30150
 C1321 C 0.38403 0.89520 0.27719
 H1322 H 0.36238 0.90488 0.26636
 O1323 O 0.62066 1.01726 0.34765
 O1324 O 0.65883 1.01635 0.31101
 C1325 C 0.63215 1.02725 0.32116
 C1326 C 0.61486 1.05211 0.30192
 C1327 C 0.62686 1.06098 0.27170
 H1328 H 0.64812 1.04914 0.26205
 O1329 O 0.47322 0.82274 0.39797
 O1330 O 0.47285 0.78465 0.36032
 C1331 C 0.46036 0.79811 0.38494
 C1332 C 0.42822 0.78818 0.39549
 C1333 C 0.40772 0.77416 0.37274
 H1334 H 0.41666 0.76696 0.34932
 O1335 O 0.53875 1.15826 0.37387
 O1336 O 0.54043 1.19169 0.33237
 C1337 C 0.55126 1.18225 0.35915
 C1338 C 0.58004 1.19767 0.37234
 C1339 C 0.60080 1.21508 0.35219
 H1340 H 0.59465 1.21933 0.32731
 O1341 O 0.33684 0.88475 0.47016
 O1342 O 0.29877 0.84762 0.47037
 C1343 C 0.31086 0.87365 0.45887
 C1344 C 0.29613 0.89097 0.43114
 C1345 C 0.26599 0.88247 0.41826
 H1346 H 0.25212 0.86317 0.42922
 O1347 O 0.65421 1.11390 0.47004
 O1348 O 0.69330 1.15005 0.47002
 C1349 C 0.68198 1.12252 0.46144
 C1350 C 0.70110 1.10105 0.44038
 C1351 C 0.73280 1.10914 0.43364
 H1352 H 0.74384 1.13002 0.44517
 O1353 O 0.53763 0.86494 0.35615
 O1354 O 0.53815 0.82664 0.31875
 C1355 C 0.54860 0.85347 0.33010
 C1356 C 0.57370 0.87149 0.31283
 C1357 C 0.58237 0.86206 0.28172
 H1358 H 0.57069 0.84160 0.27011
 O1359 O 0.47416 1.11225 0.33583
 O1360 O 0.47473 1.14728 0.29549
 C1361 C 0.46281 1.12272 0.30949
 C1362 C 0.43384 1.10798 0.29640
 C1363 C 0.41074 1.12847 0.28231
 H1364 H 0.41524 1.15441 0.27938
 O1365 O 0.35366 1.02588 0.37728
 O1366 O 0.31831 1.02476 0.33794
 C1367 C 0.32913 1.03778 0.36342
 C1368 C 0.31407 1.06826 0.37554
 C1369 C 0.29461 1.08668 0.35484
 H1370 H 0.28990 1.07817 0.33068
 O1371 O 0.66618 0.95486 0.39281
 O1372 O 0.70385 0.95440 0.35563
 C1373 C 0.69242 0.94346 0.38159
 C1374 C 0.70903 0.91633 0.39830
 C1375 C 0.73829 0.90367 0.38689
 H1376 H 0.74969 0.91489 0.36637
 O1377 O 0.62053 0.82485 0.47681
 O1378 O 0.65833 0.78723 0.48200
 C1379 C 0.63247 0.79722 0.46912
 C1380 C 0.61605 0.77723 0.44447
 C1381 C 0.62757 0.74613 0.43532
 H1382 H 0.64844 0.73573 0.44698
 O1383 O 0.38981 1.16443 0.45801
 O1384 O 0.35116 1.20131 0.45414
 C1385 C 0.37822 1.19009 0.44505
 C1386 C 0.39604 1.20612 0.41839
 C1387 C 0.38430 1.23470 0.40344
 H1388 H 0.36251 1.24613 0.41226
 Cu1389 Cu 0.63854 0.98646 0.37568
 Cu1390 Cu 0.68370 0.98553 0.33117
 Cu1391 Cu 0.37819 0.99130 0.36162
 Cu1392 Cu 0.33485 0.98946 0.31510
 Cu1393 Cu 0.62853 1.13951 0.49534
 Cu1394 Cu 0.67478 1.18351 0.49421
 Cu1395 Cu 0.63642 0.85487 0.50566
 Cu1396 Cu 0.68208 0.81000 0.51253
 Cu1397 Cu 0.37086 1.13896 0.48962
 Cu1398 Cu 0.32434 1.18303 0.48520
 Cu1399 Cu 0.36205 0.86650 0.50152
 Cu1400 Cu 0.31744 0.82086 0.50212
 Cu1401 Cu 0.50623 1.13070 0.36058
 Cu1402 Cu 0.50766 1.17154 0.31136
 Cu1403 Cu 0.50577 0.84567 0.37935
 Cu1404 Cu 0.50663 0.79923 0.33510
 C1405 C 0.58923 0.89814 0.32727
 H1406 H 0.58279 0.90536 0.35146
 C1407 C 0.60616 0.87877 0.26520
 C1408 C 0.42661 1.07511 0.30259
 H1409 H 0.44365 1.05977 0.31528
 C1410 C 0.38053 1.11638 0.27497
 C1411 C 0.42397 1.19122 0.40613
 H1412 H 0.43279 1.16884 0.41697
 C1413 C 0.40008 1.24789 0.37641
 C1414 C 0.58903 0.79025 0.42895
 H1415 H 0.58030 0.81434 0.43571
 C1416 C 0.61267 0.72845 0.41066
 C1417 C 0.69440 0.90149 0.42465
 H1418 H 0.67169 0.91107 0.43329
 C1419 C 0.75255 0.87610 0.40145
 C1420 C 0.32186 1.08127 0.40582
 H1421 H 0.33811 1.06796 0.42137
 C1422 C 0.28279 1.11726 0.36406
 C1423 C 0.58775 1.06859 0.31415
 H1424 H 0.57878 1.06232 0.33773
 C1425 C 0.61285 1.08640 0.25432
 C1426 C 0.42715 0.89887 0.31612
 H1427 H 0.43923 0.91205 0.33510
 C1428 C 0.39408 0.86355 0.26901
 C1429 C 0.68720 1.07424 0.42473
 H1430 H 0.66247 1.06814 0.42975
 C1431 C 0.75006 1.09213 0.41043
 C1432 C 0.31414 0.91538 0.41574
 H1433 H 0.33782 0.92146 0.42441
 C1434 C 0.25411 0.89902 0.39086
 C1435 C 0.58939 1.19069 0.40382
 H1436 H 0.57375 1.17658 0.41920
 C1437 C 0.63094 1.22452 0.36318
 C1438 C 0.41540 0.79968 0.42470
 H1439 H 0.43072 0.81193 0.44184
 C1440 C 0.37487 0.77296 0.37836
 O1441 O 0.61723 0.53612 1.15307
 O1442 O 0.65382 0.53457 1.19112
 C1443 C 0.62760 0.54574 1.18001
 C1444 C 0.60893 0.57072 1.19777
 C1445 C 0.61406 0.57688 1.23055
 H1446 H 0.63189 0.56287 1.24357
 O1447 O 0.38794 0.48033 1.16436
 O1448 O 0.35065 0.48374 1.20175
 C1449 C 0.37537 0.46967 1.19004
 C1450 C 0.38820 0.43920 1.20503
 C1451 C 0.36855 0.42062 1.22555
 H1452 H 0.34463 0.42921 1.23147
 O1453 O 0.54171 0.67197 1.11084
 O1454 O 0.54571 0.70982 1.14838
 C1455 C 0.55530 0.69736 1.12205
 C1456 C 0.58250 0.71226 1.10407
 C1457 C 0.59692 0.74160 1.11440
 H1458 H 0.58802 0.75380 1.13574
 O1459 O 0.46296 0.33963 1.12061
 O1460 O 0.46229 0.30346 1.15968
 C1461 C 0.45089 0.31424 1.13335
 C1462 C 0.42262 0.29847 1.11742
 C1463 C 0.40826 0.26935 1.12893
 H1464 H 0.41816 0.25711 1.14971
 O1465 O 0.66412 0.61834 1.02280
 O1466 O 0.70211 0.65539 1.01878
 C1467 C 0.69061 0.63007 1.03210
 C1468 C 0.70722 0.61506 1.05977
 C1469 C 0.73536 0.62896 1.07187
 H1470 H 0.74613 0.64970 1.05991
 O1471 O 0.33449 0.39408 1.04236
 O1472 O 0.29487 0.35867 1.04360
 C1473 C 0.30813 0.38440 1.05421
 C1474 C 0.29324 0.40285 1.08111
 C1475 C 0.26476 0.39191 1.09555
 H1476 H 0.25297 0.37033 1.08632
 O1477 O 0.47394 0.63425 1.15453
 O1478 O 0.47723 0.67243 1.19181
 C1479 C 0.46401 0.64676 1.18080
 C1480 C 0.43692 0.63118 1.19861
 C1481 C 0.42387 0.64577 1.22652
 H1482 H 0.43349 0.66860 1.23544
 O1483 O 0.52874 0.38586 1.15848
 O1484 O 0.52945 0.34980 1.19775
 C1485 C 0.54149 0.37474 1.18387
 C1486 C 0.57213 0.38912 1.19574
 C1487 C 0.59233 0.37006 1.21547
 H1488 H 0.58496 0.34589 1.22307
 O1489 O 0.66067 0.47435 1.10659
 O1490 O 0.69882 0.47335 1.14310
 C1491 C 0.68675 0.46260 1.11716
 C1492 C 0.70221 0.43515 1.09976
 C1493 C 0.73279 0.42387 1.10866
 H1494 H 0.74590 0.43614 1.12752
 O1495 O 0.34841 0.54667 1.11865
 O1496 O 0.31179 0.55116 1.15661
 C1497 C 0.32369 0.56076 1.13011
 C1498 C 0.30926 0.58937 1.11324
 C1499 C 0.28032 0.60312 1.12442
 H1500 H 0.26801 0.59213 1.14454
 O1501 O 0.39901 0.68323 1.02862
 O1502 O 0.36148 0.72145 1.02818
 C1503 C 0.38818 0.71063 1.03831
 C1504 C 0.40661 0.72860 1.06282
 C1505 C 0.39577 0.75834 1.07637
 H1506 H 0.37398 0.76982 1.06772
 O1507 O 0.60989 0.33245 1.03812
 O1508 O 0.64833 0.29510 1.03980
 C1509 C 0.62265 0.30736 1.05097
 C1510 C 0.60838 0.29313 1.08004
 C1511 C 0.62669 0.27193 1.09920
 H1512 H 0.65069 0.26474 1.09196
 O1513 O 0.39098 0.54540 1.16339
 O1514 O 0.35456 0.54882 1.20161
 C1515 C 0.38047 0.55869 1.18899
 C1516 C 0.39723 0.58726 1.20320
 C1517 C 0.38493 0.60222 1.23110
 H1518 H 0.36450 0.59166 1.24321
 O1519 O 0.61770 0.47218 1.15103
 O1520 O 0.65578 0.47061 1.18758
 C1521 C 0.62982 0.45940 1.17607
 C1522 C 0.61510 0.42998 1.19118
 C1523 C 0.63440 0.41019 1.21089
 H1524 H 0.65913 0.41671 1.21531
 O1525 O 0.52644 0.33599 1.12110
 O1526 O 0.52581 0.30013 1.16058
 C1527 C 0.53766 0.31034 1.13447
 C1528 C 0.56650 0.29406 1.12092
 C1529 C 0.58558 0.27333 1.14013
 H1530 H 0.57815 0.26736 1.16432
 O1531 O 0.48001 0.67788 1.10919
 O1532 O 0.48389 0.71610 1.14641
 C1533 C 0.47254 0.70590 1.12005
 C1534 C 0.44915 0.72601 1.10262
 C1535 C 0.43900 0.75599 1.11514
 H1536 H 0.45024 0.76593 1.13642
 O1537 O 0.35580 0.63753 1.03494
 O1538 O 0.31810 0.67559 1.03389
 C1539 C 0.32972 0.64946 1.04589
 C1540 C 0.31263 0.63294 1.07280
 C1541 C 0.28360 0.64605 1.08455
 H1542 H 0.27352 0.66807 1.07406
 O1543 O 0.65148 0.37929 1.03045
 O1544 O 0.68965 0.34164 1.03069
 C1545 C 0.67884 0.36942 1.03962
 C1546 C 0.69809 0.38983 1.06156
 C1547 C 0.72899 0.37967 1.07008
 H1548 H 0.73945 0.35779 1.05951
 O1549 O 0.46579 0.38693 1.16280
 O1550 O 0.46561 0.35086 1.20205
 C1551 C 0.45483 0.37700 1.18951
 C1552 C 0.42743 0.39423 1.20489
 C1553 C 0.40767 0.37667 1.22595
 H1554 H 0.41359 0.35159 1.23217
 O1555 O 0.53562 0.62558 1.15265
 O1556 O 0.53894 0.66321 1.19058
 C1557 C 0.54674 0.63544 1.17913
 C1558 C 0.56905 0.61453 1.19683
 C1559 C 0.57424 0.62034 1.22932
 H1560 H 0.56135 0.63978 1.24168
 O1561 O 0.34138 0.48279 1.12322
 O1562 O 0.30458 0.48760 1.16098
 C1563 C 0.31478 0.47408 1.13548
 C1564 C 0.29636 0.44692 1.12077
 C1565 C 0.26801 0.43536 1.13512
 H1566 H 0.25854 0.44714 1.15646
 O1567 O 0.66312 0.53830 1.11032
 O1568 O 0.70013 0.53781 1.14789
 C1569 C 0.68916 0.54947 1.12187
 C1570 C 0.70624 0.57647 1.10469
 C1571 C 0.73438 0.59120 1.11683
 H1572 H 0.74446 0.58258 1.13920
 O1573 O 0.37640 0.34678 1.03988
 O1574 O 0.33693 0.31119 1.04065
 C1575 C 0.36406 0.32075 1.05073
 C1576 C 0.38079 0.30200 1.07613
 C1577 C 0.36767 0.27276 1.08730
 H1578 H 0.34625 0.26299 1.07632
 O1579 O 0.62218 0.66467 1.02268
 O1580 O 0.66003 0.70183 1.01839
 C1581 C 0.63475 0.69137 1.03184
 C1582 C 0.62062 0.70967 1.05928
 C1583 C 0.63448 0.73901 1.06992
 H1584 H 0.65476 0.74926 1.05728
 Cu1585 Cu 0.63605 0.50576 1.12654
 Cu1586 Cu 0.68088 0.50412 1.17114
 Cu1587 Cu 0.37089 0.51324 1.13878
 Cu1588 Cu 0.32699 0.51842 1.18413
 Cu1589 Cu 0.50736 0.64869 1.12804
 Cu1590 Cu 0.51181 0.69419 1.17314
 Cu1591 Cu 0.49568 0.36542 1.13675
 Cu1592 Cu 0.49549 0.32278 1.18408
 C1593 C 0.58599 0.58945 1.18124
 H1594 H 0.58213 0.58535 1.15586
 C1595 C 0.59632 0.60169 1.24624
 C1596 C 0.41771 0.42568 1.19482
 H1597 H 0.43233 0.43886 1.17774
 C1598 C 0.37801 0.38924 1.23562
 C1599 C 0.59453 0.69670 1.07635
 H1600 H 0.58398 0.67393 1.06840
 C1601 C 0.62297 0.75509 1.09731
 C1602 C 0.40849 0.31431 1.09086
 H1603 H 0.41843 0.33708 1.08221
 C1604 C 0.38070 0.25645 1.11357
 C1605 C 0.69321 0.58865 1.07601
 H1606 H 0.67136 0.57813 1.06671
 C1607 C 0.74901 0.61764 1.10033
 C1608 C 0.30855 0.43059 1.09366
 H1609 H 0.33066 0.43891 1.08286
 C1610 C 0.25210 0.40799 1.12267
 C1611 C 0.42337 0.60178 1.18731
 H1612 H 0.43265 0.59060 1.16559
 C1613 C 0.39785 0.63154 1.24277
 C1614 C 0.58387 0.41918 1.18355
 H1615 H 0.56921 0.43352 1.16732
 C1616 C 0.62354 0.38023 1.22248
 C1617 C 0.68508 0.41807 1.07599
 H1618 H 0.66101 0.42584 1.06980
 C1619 C 0.74609 0.39613 1.09373
 C1620 C 0.32518 0.60436 1.08724
 H1621 H 0.34768 0.59420 1.07869
 C1622 C 0.26744 0.63142 1.11020
 C1623 C 0.43383 0.71322 1.07571
 H1624 H 0.44183 0.68984 1.06620
 C1625 C 0.41227 0.77194 1.10264
 C1626 C 0.57807 0.30356 1.09073
 H1627 H 0.56421 0.32048 1.07625
 C1628 C 0.61566 0.26240 1.12929
 O1629 O 0.60985 0.45749 0.84591
 O1630 O 0.64556 0.45478 0.80683
 C1631 C 0.61978 0.44503 0.81974
 C1632 C 0.60189 0.41830 0.80437
 C1633 C 0.61184 0.40645 0.77441
 H1634 H 0.63177 0.41777 0.76213
 O1635 O 0.38709 0.53076 0.84116
 O1636 O 0.34733 0.53094 0.80634
 C1637 C 0.37480 0.54028 0.81483
 C1638 C 0.39164 0.56372 0.79445
 C1639 C 0.37922 0.57207 0.76448
 H1640 H 0.35856 0.55937 0.75500
 O1641 O 0.46796 0.66238 0.87437
 O1642 O 0.47009 0.69792 0.83469
 C1643 C 0.45864 0.68893 0.86150
 C1644 C 0.43417 0.70924 0.87809
 C1645 C 0.42338 0.73897 0.86490
 H1646 H 0.43317 0.74766 0.84243
 O1647 O 0.52233 0.32577 0.89260
 O1648 O 0.52038 0.28677 0.85610
 C1649 C 0.53215 0.29830 0.88182
 C1650 C 0.55839 0.28077 0.89915
 C1651 C 0.57339 0.25240 0.88650
 H1652 H 0.56495 0.24206 0.86416
 O1653 O 0.64926 0.37011 0.96869
 O1654 O 0.68625 0.33114 0.96950
 C1655 C 0.67407 0.35646 0.95678
 C1656 C 0.68812 0.36927 0.92709
 C1657 C 0.70535 0.34821 0.90664
 H1658 H 0.70926 0.32279 0.91308
 O1659 O 0.35521 0.63125 0.97318
 O1660 O 0.31719 0.66908 0.97186
 C1661 C 0.32860 0.64161 0.96270
 C1662 C 0.31093 0.62205 0.93907
 C1663 C 0.27960 0.63115 0.93123
 H1664 H 0.26799 0.65169 0.94313
 O1665 O 0.52847 0.61089 0.83504
 O1666 O 0.53114 0.64600 0.79498
 C1667 C 0.54033 0.61963 0.80839
 C1668 C 0.56540 0.59901 0.79333
 C1669 C 0.57655 0.60573 0.76219
 H1670 H 0.56649 0.62597 0.74872
 O1671 O 0.46218 0.37378 0.84823
 O1672 O 0.45977 0.33544 0.81099
 C1673 C 0.45023 0.36277 0.82232
 C1674 C 0.42422 0.38174 0.80631
 C1675 C 0.41128 0.37204 0.77647
 H1676 H 0.42097 0.35091 0.76396
 O1677 O 0.65797 0.52133 0.88457
 O1678 O 0.69379 0.51757 0.84574
 C1679 C 0.68382 0.53073 0.87149
 C1680 C 0.70179 0.55818 0.88553
 C1681 C 0.73114 0.56776 0.87212
 H1682 H 0.74161 0.55410 0.85236
 O1683 O 0.34069 0.47662 0.89349
 O1684 O 0.30173 0.47829 0.85780
 C1685 C 0.31277 0.46858 0.88433
 C1686 C 0.29299 0.44668 0.90362
 C1687 C 0.26204 0.43952 0.89316
 H1688 H 0.25178 0.45214 0.87272
 O1689 O 0.61784 0.65996 0.96012
 O1690 O 0.65551 0.69731 0.95590
 C1691 C 0.62871 0.68569 0.94717
 C1692 C 0.61026 0.70183 0.92132
 C1693 C 0.61916 0.73291 0.91005
 H1694 H 0.63920 0.74560 0.92072
 O1695 O 0.37377 0.34748 0.97726
 O1696 O 0.33348 0.31280 0.97790
 C1697 C 0.35974 0.32253 0.96588
 C1698 C 0.37300 0.30546 0.93742
 C1699 C 0.35271 0.28604 0.91873
 H1700 H 0.32783 0.28291 0.92550
 O1701 O 0.38490 0.46743 0.84984
 O1702 O 0.34536 0.46842 0.81482
 C1703 C 0.37115 0.45560 0.82538
 C1704 C 0.38521 0.42681 0.80879
 C1705 C 0.37254 0.41654 0.77948
 H1706 H 0.35260 0.42971 0.76883
 O1707 O 0.61121 0.52077 0.84343
 O1708 O 0.64726 0.51731 0.80476
 C1709 C 0.62167 0.52957 0.81621
 C1710 C 0.60456 0.55460 0.79748
 C1711 C 0.61477 0.56119 0.76625
 H1712 H 0.63429 0.54729 0.75556
 O1713 O 0.45989 0.33273 0.89483
 O1714 O 0.45659 0.29437 0.85769
 C1715 C 0.44605 0.30788 0.88322
 C1716 C 0.41573 0.29666 0.89790
 C1717 C 0.39525 0.27617 0.88035
 H1718 H 0.40281 0.26604 0.85749
 O1719 O 0.52980 0.65750 0.87657
 O1720 O 0.53233 0.69326 0.83706
 C1721 C 0.54199 0.68278 0.86411
 C1722 C 0.56783 0.70013 0.88099
 C1723 C 0.57692 0.73112 0.87043
 H1724 H 0.56455 0.74271 0.85058
 O1725 O 0.33189 0.39439 0.98007
 O1726 O 0.29169 0.35964 0.98117
 C1727 C 0.30462 0.38528 0.97004
 C1728 C 0.28880 0.40443 0.94439
 C1729 C 0.25843 0.39598 0.93216
 H1730 H 0.24560 0.37538 0.94209
 O1731 O 0.66233 0.61492 0.96055
 O1732 O 0.70027 0.65193 0.95616
 C1733 C 0.68819 0.62478 0.94776
 C1734 C 0.70382 0.60462 0.92246
 C1735 C 0.73324 0.61383 0.90877
 H1736 H 0.74516 0.63559 0.91741
 O1737 O 0.52447 0.37186 0.84989
 O1738 O 0.52226 0.33354 0.81265
 C1739 C 0.53436 0.35979 0.82362
 C1740 C 0.56051 0.37634 0.80611
 C1741 C 0.57076 0.36495 0.77593
 H1742 H 0.55919 0.34419 0.76476
 O1743 O 0.46692 0.61566 0.83229
 O1744 O 0.46890 0.65071 0.79222
 C1745 C 0.45705 0.62542 0.80513
 C1746 C 0.43110 0.60690 0.78948
 C1747 C 0.41792 0.61577 0.75953
 H1748 H 0.42732 0.63651 0.74650
 O1749 O 0.35025 0.53901 0.89093
 O1750 O 0.31060 0.53997 0.85599
 C1751 C 0.32420 0.55137 0.88089
 C1752 C 0.30908 0.57885 0.89853
 C1753 C 0.27775 0.58863 0.89091
 H1754 H 0.26482 0.57619 0.87204
 O1755 O 0.65534 0.45694 0.88706
 O1756 O 0.69066 0.45365 0.84767
 C1757 C 0.67941 0.44317 0.87393
 C1758 C 0.69228 0.41260 0.88739
 C1759 C 0.71037 0.39154 0.86765
 H1760 H 0.71777 0.39914 0.84390
 O1761 O 0.60426 0.32784 0.97619
 O1762 O 0.64162 0.28938 0.97804
 C1763 C 0.61512 0.30018 0.96725
 C1764 C 0.59811 0.28144 0.94228
 C1765 C 0.61185 0.25262 0.93007
 H1766 H 0.63329 0.24241 0.94087
 O1767 O 0.39524 0.67792 0.96613
 O1768 O 0.35782 0.71628 0.96524
 C1769 C 0.38291 0.70330 0.95328
 C1770 C 0.39744 0.71674 0.92343
 C1771 C 0.38688 0.74648 0.90985
 H1772 H 0.36848 0.76068 0.92197
 Cu1773 Cu 0.63021 0.48971 0.86953
 Cu1774 Cu 0.67316 0.48581 0.82246
 Cu1775 Cu 0.36990 0.50328 0.87229
 Cu1776 Cu 0.32245 0.50453 0.83021
 Cu1777 Cu 0.63779 0.63580 0.99174
 Cu1778 Cu 0.68326 0.68037 0.98665
 Cu1779 Cu 0.62489 0.35629 1.00340
 Cu1780 Cu 0.67021 0.31045 1.00491
 Cu1781 Cu 0.38040 0.65405 1.00114
 Cu1782 Cu 0.33483 0.69944 0.99977
 Cu1783 Cu 0.35807 0.37426 1.00984
 Cu1784 Cu 0.31039 0.33184 1.01110
 Cu1785 Cu 0.49778 0.63298 0.85847
 Cu1786 Cu 0.50100 0.67569 0.81075
 Cu1787 Cu 0.49263 0.35471 0.87506
 Cu1788 Cu 0.48981 0.30833 0.83092
 C1789 C 0.57609 0.40329 0.82003
 H1790 H 0.56869 0.41211 0.84344
 C1791 C 0.59644 0.37985 0.76019
 C1792 C 0.41795 0.58051 0.80634
 H1793 H 0.42717 0.57393 0.82975
 C1794 C 0.39181 0.59799 0.74708
 C1795 C 0.42123 0.69856 0.90736
 H1796 H 0.42931 0.67551 0.91743
 C1797 C 0.39996 0.75781 0.88057
 C1798 C 0.57092 0.29477 0.92729
 H1799 H 0.56058 0.31727 0.93660
 C1800 C 0.60035 0.23842 0.90202
 C1801 C 0.68163 0.40146 0.91733
 H1802 H 0.66710 0.41733 0.93242
 C1803 C 0.71617 0.35928 0.87695
 C1804 C 0.32556 0.59554 0.92294
 H1805 H 0.34995 0.58852 0.92873
 C1806 C 0.26313 0.61476 0.90730
 C1807 C 0.57947 0.57319 0.81079
 H1808 H 0.57170 0.56827 0.83509
 C1809 C 0.60132 0.58665 0.74881
 C1810 C 0.41112 0.40942 0.82198
 H1811 H 0.42068 0.41712 0.84490
 C1812 C 0.38540 0.38971 0.76311
 C1813 C 0.68852 0.57649 0.91086
 H1814 H 0.66562 0.56943 0.92086
 C1815 C 0.74699 0.59536 0.88354
 C1816 C 0.30583 0.42995 0.92982
 H1817 H 0.32987 0.43567 0.93770
 C1818 C 0.24520 0.41375 0.90629
 C1819 C 0.58429 0.68570 0.90680
 H1820 H 0.57754 0.66151 0.91488
 C1821 C 0.60229 0.74745 0.88468
 C1822 C 0.40454 0.31084 0.92678
 H1823 H 0.41987 0.32714 0.94025
 C1824 C 0.36361 0.27163 0.89040
 N1825 N 1.15074 1.15365 1.27604
 N1826 N 1.14087 1.15440 1.24824
 N1827 N 1.13441 0.61638 0.79560
 N1828 N 1.11031 0.62679 0.78008
 N1829 N 0.64568 1.15694 0.76067
 N1830 N 0.64109 1.15847 0.73163
 N1831 N 0.62002 0.59415 1.29695
 N1832 N 0.60194 0.61068 1.27869
 N1833 N 0.89010 0.89248 1.30229
 N1834 N 0.90567 0.91251 1.28680
 N1835 N 0.84902 0.36736 0.78546
 N1836 N 0.87736 0.36235 0.77522
 N1837 N 0.36109 0.89750 0.80001
 N1838 N 0.38203 0.88524 0.78121
 N1839 N 0.34957 0.36005 1.27490
 N1840 N 0.35427 0.36679 1.24650
 N1841 N 0.84604 1.15210 0.72421
 N1842 N 0.85314 1.14953 0.75270
 N1843 N 0.84147 0.64548 0.23719
 N1844 N 0.84100 0.63749 0.26556
 N1845 N 0.34932 1.14486 0.23916
 N1846 N 0.35521 1.13841 0.26726
 N1847 N 0.38275 0.63113 0.70106
 N1848 N 0.37541 0.60674 0.71828
 N1849 N 1.12127 0.86361 0.70130
 N1850 N 1.13305 0.88547 0.71941
 N1851 N 1.14746 0.35345 0.22520
 N1852 N 1.14426 0.35425 0.25447
 N1853 N 0.63589 0.88213 0.21745
 N1854 N 0.61477 0.86762 0.23395
 N1855 N 0.63274 0.37651 0.71649
 N1856 N 0.60698 0.36716 0.73001
 N1857 N 1.28315 1.12877 1.14820
 N1858 N 1.27045 1.13606 1.12143
 N1859 N 1.28846 0.61561 0.63151
 N1860 N 1.27085 0.62460 0.60821
 N1861 N 0.76457 1.15620 0.64866
 N1862 N 0.73563 1.15594 0.64329
 N1863 N 0.78758 0.62817 1.14033
 N1864 N 0.77612 0.63515 1.11299
 N1865 N 1.30894 0.90165 0.90285
 N1866 N 1.29212 0.91480 0.92347
 N1867 N 1.26744 0.35110 0.34851
 N1868 N 1.23839 0.35279 0.35312
 N1869 N 0.79760 0.87631 0.36709
 N1870 N 0.78215 0.86255 0.38965
 N1871 N 0.75867 0.33681 0.84916
 N1872 N 0.72977 0.33668 0.85471
 N1873 N 0.71341 0.88765 1.13266
 N1874 N 0.72983 0.87675 1.10931
 N1875 N 0.71544 0.34813 0.64131
 N1876 N 0.74403 0.34316 0.63545
 N1877 N 0.21948 0.85540 0.64265
 N1878 N 0.24822 0.86183 0.64385
 N1879 N 0.20697 0.37304 1.12769
 N1880 N 0.22438 0.39574 1.13919
 N1881 N 0.70924 1.12697 0.85137
 N1882 N 0.72107 1.13344 0.87876
 N1883 N 0.69603 0.59001 0.38128
 N1884 N 0.71408 0.60363 0.40160
 N1885 N 0.24003 1.14467 0.34059
 N1886 N 0.26876 1.13787 0.34041
 N1887 N 0.21648 0.61421 0.87584
 N1888 N 0.23250 0.62703 0.89834
 N1889 N 1.11638 1.29606 1.13287
 N1890 N 1.12232 1.28374 1.10553
 N1891 N 1.13350 0.78395 0.61387
 N1892 N 1.10752 0.77019 0.62220
 N1893 N 0.61047 1.30385 0.62731
 N1894 N 0.61839 1.28808 0.60227
 N1895 N 0.62962 0.79997 1.13263
 N1896 N 0.63872 0.78454 1.10766
 N1897 N 0.85652 1.28346 0.87169
 N1898 N 0.88376 1.27209 0.86357
 N1899 N 0.88309 0.79119 0.36010
 N1900 N 0.87108 0.77400 0.38249
 N1901 N 0.36156 1.28971 0.36801
 N1902 N 0.38724 1.27540 0.35910
 N1903 N 0.37017 0.80694 0.88108
 N1904 N 0.38995 0.78837 0.86648
 N1905 N 1.13894 0.70348 0.88141
 N1906 N 1.11723 0.72220 0.87035
 N1907 N 1.15169 0.21026 0.37722
 N1908 N 1.12478 0.22372 0.37128
 N1909 N 0.61448 0.68025 0.37860
 N1910 N 0.62598 0.69711 0.40153
 N1911 N 0.61462 0.20323 0.85928
 N1912 N 0.61934 0.21275 0.88784
 N1913 N 0.87502 0.71320 1.14997
 N1914 N 0.87236 0.72524 1.12198
 N1915 N 0.86316 0.20713 0.62430
 N1916 N 0.88922 0.22010 0.63347
 N1917 N 0.36223 0.70749 0.61338
 N1918 N 0.38595 0.72435 0.62271
 N1919 N 0.37046 0.21394 1.15101
 N1920 N 0.36369 0.22818 1.12485
 N1921 N 1.11922 1.13364 0.70291
 N1922 N 1.12706 1.10735 0.71711
 N1923 N 1.14488 0.65150 0.22925
 N1924 N 1.13593 0.64758 0.25709
 N1925 N 0.61959 1.12366 0.21194
 N1926 N 0.62877 1.09773 0.22609
 N1927 N 0.60738 0.61842 0.70181
 N1928 N 0.61583 0.59420 0.71885
 N1929 N 0.86373 0.88840 0.70746
 N1930 N 0.88913 0.88190 0.72292
 N1931 N 0.85825 0.35310 0.21344
 N1932 N 0.86272 0.34986 0.24245
 N1933 N 0.36552 0.85089 0.22226
 N1934 N 0.37452 0.84313 0.24936
 N1935 N 0.38174 0.36047 0.71328
 N1936 N 0.37105 0.38172 0.73298
 N1937 N 1.12051 0.88077 1.30838
 N1938 N 1.10420 0.90003 1.29216
 N1939 N 1.12056 0.38489 0.81442
 N1940 N 1.10388 0.40311 0.79751
 N1941 N 0.61447 0.87222 0.79415
 N1942 N 0.62171 0.89682 0.77719
 N1943 N 0.65111 0.35026 1.26184
 N1944 N 0.64680 0.35698 1.23339
 N1945 N 0.87247 1.10793 1.29314
 N1946 N 0.89301 1.12273 1.27617
 N1947 N 0.87759 0.63211 0.79482
 N1948 N 0.86696 0.60827 0.77839
 N1949 N 0.38415 1.14990 0.78346
 N1950 N 0.37965 1.12274 0.76939
 N1951 N 0.36038 0.63692 1.28612
 N1952 N 0.38378 0.64831 1.26985
 N1953 N 1.13368 1.28690 0.87964
 N1954 N 1.10982 1.27127 0.86918
 N1955 N 1.12674 0.78583 0.37891
 N1956 N 1.10029 0.77287 0.37154
 N1957 N 0.65699 1.26571 0.33575
 N1958 N 0.65405 1.23627 0.34098
 N1959 N 0.63449 0.79507 0.88110
 N1960 N 0.61101 0.77818 0.87139
 N1961 N 0.86587 1.30078 1.11025
 N1962 N 0.88831 1.28190 1.11941
 N1963 N 0.88152 0.79302 0.63689
 N1964 N 0.87347 0.77601 0.61270
 N1965 N 0.37957 1.31468 0.60708
 N1966 N 0.39220 1.30054 0.58415
 N1967 N 0.37432 0.81404 1.11451
 N1968 N 0.39977 0.79839 1.12119
 N1969 N 0.87458 0.71004 0.88472
 N1970 N 0.89833 0.72588 0.87405
 N1971 N 0.86974 0.18704 0.38522
 N1972 N 0.89135 0.20577 0.37428
 N1973 N 0.34741 0.73587 0.34778
 N1974 N 0.35388 0.76467 0.35287
 N1975 N 0.34502 0.22801 0.86009
 N1976 N 0.34095 0.25608 0.87006
 N1977 N 1.15370 0.73000 1.15056
 N1978 N 1.14942 0.75900 1.14387
 N1979 N 1.15506 0.22501 0.64438
 N1980 N 1.15436 0.25500 0.64220
 N1981 N 0.62879 0.69717 0.61697
 N1982 N 0.60603 0.71524 0.62730
 N1983 N 0.64256 0.21791 1.15183
 N1984 N 0.63765 0.24767 1.15118
 N1985 N 1.29900 1.12139 0.85996
 N1986 N 1.28184 1.12893 0.88412
 N1987 N 1.27974 0.64737 0.37420
 N1988 N 1.26711 0.61975 0.36876
 N1989 N 0.79631 1.09434 0.37789
 N1990 N 0.78024 1.10526 0.40144
 N1991 N 0.79228 0.62879 0.87938
 N1992 N 0.77642 0.60484 0.86847
 N1993 N 1.28637 0.88646 1.14532
 N1994 N 1.27246 0.87850 1.11931
 N1995 N 1.29107 0.38301 0.64024
 N1996 N 1.27647 0.37777 0.61397
 N1997 N 0.79056 0.86722 0.61808
 N1998 N 0.77400 0.89237 0.62532
 N1999 N 0.79002 0.39014 1.12946
 N2000 N 0.77552 0.38181 1.10399
 N2001 N 0.71075 1.12226 1.13737
 N2002 N 0.72814 1.13456 1.11546
 N2003 N 0.70022 0.60160 0.63148
 N2004 N 0.71898 0.61196 0.60982
 N2005 N 0.21116 1.12265 0.62953
 N2006 N 0.22910 1.13349 0.60730
 N2007 N 0.22287 0.63561 1.14586
 N2008 N 0.23878 0.64679 1.12222
 N2009 N 0.70818 0.88671 0.86546
 N2010 N 0.72594 0.87619 0.88807
 N2011 N 0.71619 0.36379 0.35512
 N2012 N 0.73053 0.35216 0.37962
 N2013 N 0.20986 0.86470 0.38211
 N2014 N 0.22472 0.89070 0.37534
 N2015 N 0.20594 0.37522 0.89318
 N2016 N 0.21694 0.40379 0.88977
   
