data_POSCAR
  _audit_creation_date              2014-09-24
  _audit_creation_method            'ToBaCCo'
  _symmetry_space_group_name_H-M    'P1'
  _symmetry_Int_Tables_number       1
  _symmetry_cell_setting            triclinic
  loop_
  _symmetry_equiv_pos_as_xyz
 x,y,z
_cell_length_a 66.1384
_cell_length_b 64.7700
_cell_length_c 64.3271
_cell_angle_alpha 90.070400
_cell_angle_beta 89.730400
_cell_angle_gamma 89.916100
loop_
  _atom_site_label
  _atom_site_type_symbol
  _atom_site_fract_x
  _atom_site_fract_y
  _atom_site_fract_z
C1 C 0.30939 0.44870 0.91902
 C2 C 0.30026 0.43215 0.92979
 C3 C 0.30621 0.42716 0.95007
 C4 C 0.31990 0.43989 0.96038
 C5 C 0.32975 0.45614 0.95007
 C6 C 0.32445 0.46027 0.92926
 H7 H 0.28895 0.42263 0.92248
 H8 H 0.32402 0.43573 0.97603
 H9 H 0.33212 0.47256 0.92098
 C10 C 0.43880 0.83393 0.43655
 C11 C 0.44406 0.82653 0.41652
 C12 C 0.43328 0.81017 0.40717
 C13 C 0.41676 0.80152 0.41799
 C14 C 0.41048 0.80928 0.43730
 C15 C 0.42193 0.82494 0.44663
 H16 H 0.45671 0.83330 0.40823
 H17 H 0.40852 0.78873 0.41138
 H18 H 0.41699 0.83057 0.46154
 C19 C 0.94262 0.92128 0.79215
 C20 C 0.92786 0.93273 0.78177
 C21 C 0.92145 0.95192 0.78936
 C22 C 0.93072 0.96024 0.80713
 C23 C 0.94676 0.94975 0.81708
 C24 C 0.95226 0.93007 0.80940
 H25 H 0.92055 0.92630 0.76827
 H26 H 0.92543 0.97499 0.81300
 H27 H 0.96307 0.92066 0.81759
 C28 C 0.44734 -0.08032 0.28973
 C29 C 0.42788 -0.07286 0.28508
 C30 C 0.41920 -0.05662 0.29674
 C31 C 0.43033 -0.04810 0.31328
 C32 C 0.44941 -0.05592 0.31865
 C33 C 0.45797 -0.07156 0.30636
 H34 H 0.41941 -0.07991 0.27258
 H35 H 0.42407 -0.03551 0.32229
 H36 H 0.47274 -0.07749 0.31015
 C37 C 0.81333 0.30430 0.34416
 C38 C 0.82986 0.29550 0.33358
 C39 C 0.83775 0.30449 0.31532
 C40 C 0.82908 0.32299 0.30796
 C41 C 0.81248 0.33212 0.31829
 C42 C 0.80442 0.32216 0.33593
 H43 H 0.83677 0.28172 0.33971
 H44 H 0.83538 0.33036 0.29429
 H45 H 0.79121 0.32843 0.34361
 C46 C -0.19400 0.82842 0.81000
 C47 C -0.17723 0.82107 0.79836
 C48 C -0.16520 0.80461 0.80542
 C49 C -0.17078 0.79455 0.82383
 C50 C -0.18708 0.80146 0.83594
 C51 C -0.19869 0.81823 0.82887
 H52 H -0.17345 0.82826 0.78372
 H53 H -0.16208 0.78137 0.82891
 H54 H -0.21094 0.82338 0.83869
 C55 C 0.93778 0.32887 0.45111
 C56 C 0.94311 0.32072 0.43135
 C57 C 0.93197 0.30477 0.42200
 C58 C 0.91537 0.29652 0.43264
 C59 C 0.90951 0.30409 0.45222
 C60 C 0.92055 0.32042 0.46118
 H61 H 0.95541 0.32707 0.42240
 H62 H 0.90681 0.28424 0.42552
 H63 H 0.91579 0.32624 0.47622
 C64 C 0.45147 0.43882 0.83523
 C65 C 0.43981 0.44949 0.82053
 C66 C 0.43260 0.43969 0.80258
 C67 C 0.43861 0.41926 0.79859
 C68 C 0.45132 0.40856 0.81236
 C69 C 0.45747 0.41843 0.83082
 H70 H 0.43583 0.46546 0.82327
 H71 H 0.43300 0.41128 0.78506
 H72 H 0.46616 0.41003 0.84224
 C73 C 0.81070 0.91362 0.93814
 C74 C 0.80382 0.92352 0.91981
 C75 C 0.81336 0.94133 0.91198
 C76 C 0.82988 0.94952 0.92284
 C77 C 0.83756 0.93983 0.94062
 C78 C 0.82769 0.92218 0.94830
 H79 H 0.79140 0.91738 0.91100
 H80 H 0.83704 0.96349 0.91738
 H81 H 0.83320 0.91524 0.96246
 C82 C 0.29757 0.82315 0.29301
 C83 C 0.31478 0.81595 0.28198
 C84 C 0.32518 0.79803 0.28813
 C85 C 0.31799 0.78692 0.30533
 C86 C 0.30170 0.79411 0.31733
 C87 C 0.29133 0.81189 0.31074
 H88 H 0.32066 0.82481 0.26909
 H89 H 0.32553 0.77273 0.30948
 H90 H 0.27867 0.81690 0.32002
 C91 C 0.80795 0.42762 0.45725
 C92 C 0.79988 0.43521 0.43859
 C93 C 0.80836 0.45263 0.42889
 C94 C 0.82551 0.46196 0.43770
 C95 C 0.83373 0.45487 0.45657
 C96 C 0.82409 0.43819 0.46649
 H97 H 0.78725 0.42736 0.43142
 H98 H 0.83290 0.47399 0.42901
 H99 H 0.82940 0.43311 0.48151
 C100 C 0.94799 0.84386 -0.05293
 C101 C 0.93108 0.83377 -0.04437
 C102 C 0.92175 0.81710 -0.05450
 C103 C 0.93053 0.80915 -0.07278
 C104 C 0.94791 0.81838 -0.08145
 C105 C 0.95650 0.83557 -0.07127
 H106 H 0.92427 0.83927 -0.03019
 H107 H 0.92335 0.79636 -0.08069
 H108 H 0.97010 0.84246 -0.07751
 C109 C 0.30063 0.33292 0.80025
 C110 C 0.29223 0.32709 0.81933
 C111 C 0.30103 0.31141 0.83130
 C112 C 0.31811 0.30085 0.82352
 C113 C 0.32668 0.30647 0.80426
 C114 C 0.31733 0.32208 0.79253
 H115 H 0.27934 0.33546 0.82537
 H116 H 0.32534 0.28913 0.83293
 H117 H 0.32337 0.32642 0.77749
 C118 C 0.17210 0.54595 0.55314
 C119 C 0.18307 0.53503 0.56832
 C120 C 0.20231 0.54174 0.57473
 C121 C 0.21058 0.55936 0.56531
 C122 C 0.19943 0.57137 0.55133
 C123 C 0.18032 0.56437 0.54503
 H124 H 0.17625 0.52163 0.57539
 H125 H 0.22571 0.56410 0.56944
 H126 H 0.17158 0.57386 0.53457
 C127 C 0.59352 0.69338 0.04913
 C128 C 0.58681 0.67410 0.04221
 C129 C 0.57022 0.66443 0.05164
 C130 C 0.56028 0.67426 0.06833
 C131 C 0.56696 0.69353 0.07580
 C132 C 0.58326 0.70317 0.06549
 H133 H 0.59473 0.66636 0.02969
 H134 H 0.54778 0.66648 0.07592
 H135 H 0.58837 0.71831 0.07003
 C136 C 0.68452 0.18812 0.67565
 C137 C 0.69469 0.17255 0.68686
 C138 C 0.68598 0.16331 0.70459
 C139 C 0.66714 0.17066 0.71145
 C140 C 0.65636 0.18544 0.70014
 C141 C 0.66530 0.19460 0.68260
 H142 H 0.70958 0.16761 0.68192
 H143 H 0.65979 0.16393 0.72481
 H144 H 0.65687 0.20597 0.67383
 C145 C 1.09314 0.07181 0.17929
 C146 C 1.08651 0.06237 0.16076
 C147 C 1.06899 0.06919 0.15017
 C148 C 1.05807 0.08587 0.15904
 C149 C 1.06456 0.09595 0.17730
 C150 C 1.08190 0.08849 0.18743
 H151 H 1.09530 0.04960 0.15491
 H152 H 1.04432 0.09106 0.15170
 H153 H 1.08655 0.09579 0.20174
 C154 C 0.04258 0.18609 1.05047
 C155 C 0.06196 0.19065 1.04299
 C156 C 0.07408 0.20542 1.05290
 C157 C 0.06634 0.21593 1.07044
 C158 C 0.04648 0.21217 1.07774
 C159 C 0.03466 0.19755 1.06705
 H160 H 0.06776 0.18227 1.02967
 H161 H 0.07587 0.22695 1.07842
 H162 H 0.01966 0.19376 1.07236
 C163 C 0.16693 0.69230 0.69304
 C164 C 0.17888 0.67704 0.70220
 C165 C 0.19499 0.66792 0.69142
 C166 C 0.20102 0.67634 0.67226
 C167 C 0.19032 0.69303 0.66340
 C168 C 0.17289 0.70050 0.67376
 H169 H 0.17525 0.67183 0.71774
 H170 H 0.21376 0.66960 0.66407
 H171 H 0.16339 0.71204 0.66659
 C172 C 1.19073 0.16715 0.19818
 C173 C 1.17470 0.17876 0.20688
 C174 C 1.16946 0.19817 0.19869
 C175 C 1.18131 0.20643 0.18260
 C176 C 1.19669 0.19493 0.17302
 C177 C 1.20137 0.17531 0.18102
 H178 H 1.16607 0.17272 0.21981
 H179 H 1.17833 0.22189 0.17709
 H180 H 1.21279 0.16594 0.17350
 C181 C 0.65299 1.06409 0.56305
 C182 C 0.66478 1.05656 0.57976
 C183 C 0.68188 1.06723 0.58689
 C184 C 0.68767 1.08552 0.57686
 C185 C 0.67641 1.09399 0.56036
 C186 C 0.65914 1.08291 0.55360
 H187 H 0.66095 1.04245 0.58767
 H188 H 0.70135 1.09308 0.58192
 H189 H 0.65009 1.08893 0.54112
 C190 C 0.55580 0.54757 0.17610
 C191 C 0.55034 0.56651 0.18522
 C192 C 0.56259 0.57579 0.20045
 C193 C 0.58043 0.56568 0.20658
 C194 C 0.58647 0.54706 0.19719
 C195 C 0.57394 0.53805 0.18217
 H196 H 0.53664 0.57417 0.18021
 H197 H 0.58987 0.57237 0.21850
 H198 H 0.57853 0.52373 0.17491
 C199 C 0.66811 0.68978 0.20004
 C200 C 0.67803 0.67183 0.20723
 C201 C 0.69704 0.66601 0.19921
 C202 C 0.70636 0.67873 0.18435
 C203 C 0.69653 0.69610 0.17615
 C204 C 0.67742 0.70153 0.18422
 H205 H 0.67074 0.66180 0.21838
 H206 H 0.72137 0.67491 0.17881
 H207 H 0.66944 0.71465 0.17796
 C208 C 0.16338 0.06061 1.04484
 C209 C 0.17015 0.08115 1.04223
 C210 C 0.18529 0.08946 1.05507
 C211 C 0.19364 0.07720 1.07072
 C212 C 0.18694 0.05701 1.07403
 C213 C 0.17230 0.04869 1.06076
 H214 H 0.16366 0.09082 1.03025
 H215 H 0.20539 0.08346 1.08054
 H216 H 0.16746 0.03312 1.06366
 C217 C 0.57360 0.19639 0.55077
 C218 C 0.56675 0.20365 0.57013
 C219 C 0.55147 0.19318 0.58123
 C220 C 0.54305 0.17516 0.57254
 C221 C 0.54957 0.16800 0.55300
 C222 C 0.56370 0.17961 0.54174
 H223 H 0.57367 0.21729 0.57663
 H224 H 0.53209 0.16625 0.58131
 H225 H 0.56746 0.17501 0.52605
 C226 C 0.10004 0.55506 0.70967
 C227 C 0.09022 0.54376 0.69415
 C228 C 0.07348 0.55189 0.68351
 C229 C 0.06584 0.57133 0.68957
 C230 C 0.07525 0.58280 0.70543
 C231 C 0.09219 0.57433 0.71550
 H232 H 0.09596 0.52859 0.69028
 H233 H 0.05310 0.57791 0.68139
 H234 H 0.09961 0.58300 0.72757
 C235 C 0.66087 0.55892 0.06283
 C236 C 0.66894 0.55028 0.08095
 C237 C 0.68468 0.55997 0.09188
 C238 C 0.69309 0.57828 0.08376
 C239 C 0.68531 0.58729 0.06551
 C240 C 0.66924 0.57738 0.05519
 H241 H 0.66291 0.53574 0.08640
 H242 H 0.70521 0.58591 0.09202
 H243 H 0.66313 0.58419 0.04127
 C244 C 0.05684 0.68610 0.58519
 C245 C 0.05061 0.66828 0.57457
 C246 C 0.06184 0.66022 0.55786
 C247 C 0.07897 0.67104 0.55094
 C248 C 0.08533 0.68920 0.56099
 C249 C 0.07404 0.69668 0.57802
 H250 H 0.03707 0.66034 0.57951
 H251 H 0.08757 0.66528 0.53783
 H252 H 0.07866 0.71067 0.58586
 C253 C 0.55841 1.04503 0.65966
 C254 C 0.57669 1.04006 0.66975
 C255 C 0.58324 1.05098 0.68743
 C256 C 0.57117 1.06728 0.69508
 C257 C 0.55304 1.07280 0.68522
 C258 C 0.54653 1.06110 0.66814
 H259 H 0.58604 1.02761 0.66413
 H260 H 0.57575 1.07590 0.70864
 H261 H 0.53213 1.06484 0.66122
 C262 C 0.44172 0.33089 0.94850
 C263 C 0.42229 0.32394 0.95479
 C264 C 0.41345 0.30636 0.94555
 C265 C 0.42450 0.29536 0.93047
 C266 C 0.44320 0.30242 0.92313
 C267 C 0.45146 0.32026 0.93205
 H268 H 0.41395 0.33221 0.96672
 H269 H 0.41828 0.28131 0.92403
 H270 H 0.46480 0.32672 0.92501
 C271 C 0.94087 0.44428 0.35207
 C272 C 0.95018 0.42694 0.34320
 C273 C 0.94142 0.41640 0.32645
 C274 C 0.92339 0.42404 0.31777
 C275 C 0.91376 0.44149 0.32645
 C276 C 0.92283 0.45160 0.34339
 H277 H 0.96432 0.42148 0.34959
 H278 H 0.91638 0.41588 0.30498
 H279 H 0.91548 0.46491 0.35016
 C280 C 0.30941 0.93680 0.40536
 C281 C 0.29834 0.91969 0.41286
 C282 C 0.30512 0.90779 0.42977
 C283 C 0.32286 0.91380 0.44007
 C284 C 0.33411 0.93090 0.43327
 C285 C 0.32730 0.94219 0.41599
 H286 H 0.28422 0.91569 0.40555
 H287 H 0.32792 0.90508 0.45340
 H288 H 0.33663 0.95478 0.41075
 O289 O 0.21884 0.52932 0.74074
 O290 O 0.22550 0.53119 0.77647
 O291 O 0.27158 0.56199 0.71563
 O292 O 0.30488 0.55775 0.71591
 O293 O 0.25029 0.50548 0.68734
 O294 O 0.25404 0.46987 0.69597
 O295 O 0.32605 0.50991 0.77210
 O296 O 0.31816 0.54562 0.76680
 O297 O 0.27664 0.48207 0.79812
 O298 O 0.24012 0.48194 0.79087
 O299 O 0.30308 0.45515 0.74650
 O300 O 0.30320 0.46193 0.70923
 O301 O 0.32855 0.48445 0.74787
 O302 O 0.32275 0.48571 0.70933
 O303 O 0.27721 0.45390 0.76987
 O304 O 0.24038 0.46059 0.76844
 O305 O 0.29834 0.50924 0.79877
 O306 O 0.29332 0.54349 0.79264
 O307 O 0.22134 0.50461 0.71569
 O308 O 0.23117 0.46885 0.71866
 O309 O 0.27276 0.53204 0.68726
 O310 O 0.30934 0.53077 0.69658
 O311 O 0.24520 0.56034 0.73841
 O312 O 0.24642 0.55423 0.77674
 Zr313 Zr 0.24810 0.53147 0.75315
 O314 O 0.26617 0.51489 0.77413
 Zr315 Zr 0.28469 0.53252 0.71763
 O316 O 0.30455 0.51632 0.73733
 Zr317 Zr 0.25136 0.49412 0.71784
 O318 O 0.26984 0.47610 0.73707
 Zr319 Zr 0.29670 0.52147 0.76855
 O320 O 0.27856 0.54017 0.74902
 Zr321 Zr 0.26355 0.48310 0.76835
 O322 O 0.24337 0.49957 0.74909
 Zr323 Zr 0.30032 0.48448 0.73290
 O324 O 0.28194 0.50072 0.71154
 O325 O 0.25426 0.52574 0.72201
 O326 O 0.29411 0.48968 0.76426
 C327 C 0.21135 0.51812 0.72620
 C328 C 0.25586 0.56966 0.72453
 C329 C 0.25954 0.52045 0.67839
 C330 C 0.33562 0.49522 0.76295
 C331 C 0.28965 0.49362 0.80726
 C332 C 0.29233 0.44586 0.76026
 H333 H 0.26234 0.51861 0.78853
 H334 H 0.26739 0.46142 0.73374
 H335 H 0.24523 0.53362 0.71270
 H336 H 0.31866 0.52058 0.73461
 H337 H 0.31103 0.55779 0.76109
 H338 H 0.31561 0.55524 0.72625
 H339 H 0.24257 0.45153 0.75625
 H340 H 0.22336 0.47008 0.73177
 H341 H 0.28566 0.55517 0.78674
 H342 H 0.25632 0.56514 0.77322
 H343 H 0.29104 0.45307 0.70982
 H344 H 0.26755 0.47128 0.68943
 H345 H 0.22115 0.51664 0.77788
 H346 H 0.24096 0.49456 0.79948
 H347 H 0.30773 0.51783 0.68856
 H348 H 0.33124 0.49800 0.71188
 O349 O 0.24993 -0.03637 0.28957
 O350 O 0.21513 -0.03370 0.28097
 O351 O 0.27599 -0.06087 0.23328
 O352 O 0.27705 -0.05216 0.19980
 O353 O 0.30431 -0.01061 0.26471
 O354 O 0.29726 0.02621 0.26595
 O355 O 0.22773 0.00138 0.18193
 O356 O 0.23028 -0.03568 0.18534
 O357 O 0.19906 0.02307 0.23452
 O358 O 0.20419 0.01671 0.27270
 O359 O 0.25205 0.05068 0.21522
 O360 O 0.28815 0.04243 0.21734
 O361 O 0.25252 0.02548 0.18498
 O362 O 0.28904 0.02197 0.19384
 O363 O 0.22625 0.04918 0.23864
 O364 O 0.22646 0.03822 0.27598
 O365 O 0.19964 -0.00012 0.20798
 O366 O 0.20312 -0.03482 0.20844
 O367 O 0.27484 -0.01240 0.29273
 O368 O 0.27403 0.02430 0.28853
 O369 O 0.30473 -0.03247 0.23699
 O370 O 0.29784 -0.02623 0.20019
 O371 O 0.25167 -0.06259 0.25835
 O372 O 0.21500 -0.05385 0.25606
 Zr373 Zr 0.23905 -0.03255 0.25912
 O374 O 0.22060 -0.01228 0.24188
 Zr375 Zr 0.27580 -0.02993 0.22389
 O376 O 0.25900 -0.00973 0.20512
 Zr377 Zr 0.27511 0.00281 0.26380
 O378 O 0.25825 0.02462 0.24672
 Zr379 Zr 0.22802 -0.01445 0.21028
 O380 O 0.24473 -0.03677 0.22710
 Zr381 Zr 0.22710 0.01854 0.24969
 O382 O 0.24392 -0.00187 0.26888
 Zr383 Zr 0.26434 0.02076 0.21486
 O384 O 0.28301 0.00063 0.23214
 O385 O 0.26989 -0.02766 0.25554
 O386 O 0.23330 0.01626 0.21805
 C387 C 0.26399 -0.02729 0.29984
 C388 C 0.26584 -0.07066 0.24718
 C389 C 0.31311 -0.02385 0.25273
 C390 C 0.23821 0.01656 0.17500
 C391 C 0.19114 0.01441 0.21847
 C392 C 0.23712 0.05877 0.22514
 H393 H 0.20621 -0.01574 0.24417
 H394 H 0.26167 0.03867 0.25153
 H395 H 0.27814 -0.03735 0.26385
 H396 H 0.26262 -0.01196 0.19035
 H397 H 0.23411 -0.04917 0.19140
 H398 H 0.26837 -0.04708 0.18842
 H399 H 0.23848 0.04726 0.27526
 H400 H 0.26013 0.02368 0.29429
 H401 H 0.20708 -0.04749 0.21591
 H402 H 0.21840 -0.06316 0.24434
 H403 H 0.28663 0.04961 0.23083
 H404 H 0.30472 0.02615 0.25257
 H405 H 0.21488 -0.02010 0.28800
 H406 H 0.19488 0.00544 0.26876
 H407 H 0.30575 -0.01375 0.20370
 H408 H 0.28702 0.01112 0.18322
 O409 O 0.55158 0.72333 0.23902
 O410 O 0.54639 0.72815 0.27524
 O411 O 0.49840 0.68845 0.22240
 O412 O 0.46548 0.69245 0.22087
 O413 O 0.51894 0.74070 0.18502
 O414 O 0.51538 0.77692 0.18844
 O415 O 0.44493 0.74649 0.27177
 O416 O 0.45361 0.71151 0.27307
 O417 O 0.49604 0.77886 0.29249
 O418 O 0.53015 0.78076 0.28347
 O419 O 0.46472 0.79712 0.23917
 O420 O 0.46500 0.78684 0.20298
 O421 O 0.44093 0.76777 0.24403
 O422 O 0.44726 0.76130 0.20545
 O423 O 0.49107 0.80285 0.26102
 O424 O 0.52967 0.79656 0.25621
 O425 O 0.47244 0.75367 0.29654
 O426 O 0.47938 0.71514 0.29435
 O427 O 0.54840 0.74527 0.21164
 O428 O 0.53802 0.78173 0.21072
 O429 O 0.49707 0.71390 0.18907
 O430 O 0.46025 0.71669 0.19952
 O431 O 0.52538 0.69293 0.24377
 O432 O 0.52446 0.70499 0.28003
 Zr433 Zr 0.52291 0.72409 0.25345
 O434 O 0.50525 0.74369 0.27248
 Zr435 Zr 0.48551 0.71782 0.21959
 O436 O 0.46583 0.73600 0.23784
 Zr437 Zr 0.51834 0.75618 0.21359
 O438 O 0.49953 0.77656 0.23041
 Zr439 Zr 0.47468 0.73573 0.26919
 O440 O 0.49243 0.71483 0.25148
 Zr441 Zr 0.50684 0.77440 0.26201
 O442 O 0.52705 0.75528 0.24497
 Zr443 Zr 0.46919 0.76689 0.22865
 O444 O 0.48771 0.74844 0.20910
 O445 O 0.51589 0.72535 0.22208
 O446 O 0.47641 0.76649 0.26012
 C447 C 0.55861 0.73253 0.22283
 C448 C 0.51410 0.68179 0.23196
 C449 C 0.50996 0.72442 0.17842
 C450 C 0.43449 0.75904 0.26072
 C451 C 0.48211 0.76968 0.30292
 C452 C 0.47476 0.80848 0.25174
 H453 H 0.50980 0.74256 0.28704
 H454 H 0.50134 0.79075 0.22509
 H455 H 0.52462 0.71604 0.21376
 H456 H 0.45181 0.73098 0.23625
 H457 H 0.45978 0.69904 0.26677
 H458 H 0.45595 0.69520 0.23243
 H459 H 0.52479 0.80591 0.24516
 H460 H 0.54671 0.78173 0.22320
 H461 H 0.48985 0.72101 0.30355
 H462 H 0.51188 0.69673 0.28027
 H463 H 0.47717 0.79559 0.20175
 H464 H 0.50134 0.77547 0.18338
 H465 H 0.55180 0.74222 0.27295
 H466 H 0.53361 0.76756 0.29031
 H467 H 0.46227 0.72748 0.18883
 H468 H 0.43835 0.75006 0.21041
 O469 O 0.05720 0.72635 0.74787
 O470 O 0.05085 0.72551 0.78503
 O471 O 0.00473 0.69475 0.72444
 O472 O -0.02862 0.69930 0.72444
 O473 O 0.02588 0.75236 0.69670
 O474 O 0.02175 0.78794 0.70674
 O475 O -0.05042 0.74489 0.78095
 O476 O -0.04169 0.70965 0.77583
 O477 O -0.00137 0.77329 0.80815
 O478 O 0.03679 0.77142 0.80043
 O479 O -0.02635 0.80099 0.75857
 O480 O -0.02596 0.79510 0.72016
 O481 O -0.05217 0.77172 0.75826
 O482 O -0.04676 0.77259 0.72069
 O483 O -0.00047 0.80151 0.78170
 O484 O 0.03540 0.79536 0.78035
 O485 O -0.02332 0.74632 0.80816
 O486 O -0.01799 0.70958 0.79965
 O487 O 0.05485 0.75275 0.72467
 O488 O 0.04519 0.78808 0.72866
 O489 O 0.00407 0.72521 0.69641
 O490 O -0.03248 0.72669 0.70533
 O491 O 0.03094 0.69579 0.74725
 O492 O 0.03009 0.70088 0.78416
 Zr493 Zr 0.02832 0.72474 0.76186
 O494 O 0.01003 0.74050 0.78364
 Zr495 Zr -0.00828 0.72438 0.72666
 O496 O -0.02815 0.74019 0.74686
 Zr497 Zr 0.02487 0.76293 0.72758
 O498 O 0.00663 0.78039 0.74776
 Zr499 Zr -0.02058 0.73406 0.77791
 O500 O -0.00216 0.71617 0.75773
 Zr501 Zr 0.01279 0.77234 0.77875
 O502 O 0.03298 0.75671 0.75857
 Zr503 Zr -0.02380 0.77220 0.74350
 O504 O -0.00566 0.75636 0.72144
 O505 O 0.02206 0.73116 0.73097
 O506 O -0.01778 0.76593 0.77458
 C507 C 0.06462 0.73821 0.73372
 C508 C 0.02024 0.68672 0.73334
 C509 C 0.01702 0.73721 0.68764
 C510 C -0.05982 0.75993 0.77224
 C511 C -0.01508 0.76210 0.81677
 C512 C -0.01564 0.80981 0.77263
 H513 H 0.01399 0.73671 0.79791
 H514 H 0.00914 0.79517 0.74498
 H515 H 0.03096 0.72329 0.72142
 H516 H -0.04222 0.73604 0.74392
 H517 H -0.03488 0.69825 0.76827
 H518 H -0.04006 0.70220 0.73396
 H519 H 0.03439 0.80379 0.76758
 H520 H 0.05273 0.78681 0.74186
 H521 H -0.00599 0.71208 0.80839
 H522 H 0.01676 0.69395 0.78416
 H523 H -0.01463 0.80485 0.72211
 H524 H 0.00844 0.78631 0.69995
 H525 H 0.05628 0.73974 0.78512
 H526 H 0.03352 0.76099 0.81115
 H527 H -0.03088 0.74000 0.69795
 H528 H -0.05368 0.75908 0.72110
 O529 O 0.04950 0.05026 -0.01958
 O530 O 0.04009 0.04639 -0.05588
 O531 O -0.00333 0.07443 0.00877
 O532 O -0.03627 0.06579 0.01165
 O533 O 0.02797 0.02323 0.03585
 O534 O 0.02719 -0.01365 0.02823
 O535 O -0.05691 0.01458 -0.03889
 O536 O -0.05252 0.05113 -0.03533
 O537 O -0.00647 -0.00635 -0.07193
 O538 O 0.03127 -0.00090 -0.06729
 O539 O -0.02304 -0.03684 -0.01754
 O540 O -0.01976 -0.02881 0.02021
 O541 O -0.05271 -0.01158 -0.01577
 O542 O -0.04355 -0.00941 0.02138
 O543 O -0.00125 -0.03422 -0.04483
 O544 O 0.03391 -0.02434 -0.04681
 O545 O -0.03275 0.01613 -0.06901
 O546 O -0.03154 0.05072 -0.06453
 O547 O 0.05347 0.02420 0.00377
 O548 O 0.04824 -0.01225 0.00375
 O549 O 0.00166 0.04579 0.03787
 O550 O -0.03434 0.03971 0.03326
 O551 O 0.01890 0.07622 -0.01827
 O552 O 0.01751 0.06787 -0.05497
 Zr553 Zr 0.01972 0.04624 -0.03044
 O554 O 0.00151 0.02717 -0.04901
 Zr555 Zr -0.01298 0.04349 0.00895
 O556 O -0.03235 0.02384 -0.00785
 Zr557 Zr 0.02496 0.01006 0.00579
 O558 O 0.00747 -0.01091 -0.01161
 Zr559 Zr -0.02883 0.02953 -0.03970
 O560 O -0.01109 0.05097 -0.02297
 Zr561 Zr 0.00922 -0.00374 -0.04349
 O562 O 0.02898 0.01543 -0.02630
 Zr563 Zr -0.02326 -0.00708 -0.00407
 O564 O -0.00549 0.01247 0.01506
 O565 O 0.01744 0.04083 0.00133
 O566 O -0.02134 -0.00149 -0.03586
 C567 C 0.06002 0.03986 -0.00649
 C568 C 0.00913 0.08424 -0.00301
 C569 C 0.01736 0.03694 0.04556
 C570 C -0.06323 -0.00144 -0.02909
 C571 C -0.02255 0.00239 -0.07891
 C572 C -0.01371 -0.04435 -0.03344
 H573 H 0.00312 0.03110 -0.06378
 H574 H 0.01222 -0.02509 -0.00876
 H575 H 0.02598 0.05040 0.00945
 H576 H -0.04650 0.02610 -0.00338
 H577 H -0.04619 0.06427 -0.03097
 H578 H -0.04822 0.06036 0.00427
 H579 H 0.03500 -0.03230 -0.03376
 H580 H 0.05345 -0.01168 -0.01069
 H581 H -0.02464 0.06349 -0.06012
 H582 H 0.00519 0.07619 -0.05249
 H583 H -0.00702 -0.03643 0.01762
 H584 H 0.01466 -0.01302 0.03669
 H585 H 0.04835 0.03369 -0.05477
 H586 H 0.02700 0.01036 -0.07667
 H587 H -0.03122 0.02639 0.04008
 H588 H -0.05279 0.00259 0.02086
 O589 O 0.05449 0.51080 0.52490
 O590 O 0.04810 0.50706 0.48898
 O591 O 0.00090 0.54417 0.54504
 O592 O -0.03197 0.53885 0.54807
 O593 O 0.02489 0.49204 0.57998
 O594 O 0.02105 0.45521 0.57567
 O595 O -0.05280 0.48638 0.49727
 O596 O -0.04478 0.52230 0.49816
 O597 O -0.00173 0.45700 0.47221
 O598 O 0.03441 0.45673 0.48065
 O599 O -0.02989 0.43478 0.52572
 O600 O -0.02811 0.44323 0.56255
 O601 O -0.05465 0.46377 0.52423
 O602 O -0.04669 0.46827 0.56264
 O603 O -0.00545 0.43182 0.50095
 O604 O 0.03263 0.43677 0.50504
 O605 O -0.02520 0.48260 0.46999
 O606 O -0.02084 0.51712 0.47205
 O607 O 0.05321 0.48791 0.55168
 O608 O 0.04386 0.45183 0.55255
 O609 O 0.00153 0.51775 0.57761
 O610 O -0.03512 0.51437 0.56937
 O611 O 0.02737 0.54092 0.52257
 O612 O 0.02679 0.52955 0.48555
 Zr613 Zr 0.02537 0.51014 0.51199
 O614 O 0.00724 0.49117 0.49324
 Zr615 Zr -0.01089 0.51428 0.54772
 O616 O -0.03071 0.49585 0.53026
 Zr617 Zr 0.02325 0.47675 0.55111
 O618 O 0.00471 0.45630 0.53410
 Zr619 Zr -0.02332 0.49803 0.49859
 O620 O -0.00520 0.51882 0.51569
 Zr621 Zr 0.01035 0.46011 0.50219
 O622 O 0.03059 0.47888 0.51930
 Zr623 Zr -0.02581 0.46468 0.53785
 O624 O -0.00740 0.48337 0.55711
 O625 O 0.01962 0.50773 0.54361
 O626 O -0.02018 0.46697 0.50609
 C627 C 0.06252 0.50117 0.54024
 C628 C 0.01601 0.55150 0.53487
 C629 C 0.01537 0.50779 0.58734
 C630 C -0.06224 0.47312 0.50848
 C631 C -0.01558 0.46701 0.46256
 C632 C -0.02099 0.42499 0.51087
 H633 H 0.01091 0.49342 0.47849
 H634 H 0.00715 0.44192 0.53852
 H635 H 0.02844 0.51706 0.55169
 H636 H -0.04479 0.50030 0.53295
 H637 H -0.03755 0.53505 0.50222
 H638 H -0.04199 0.53589 0.53712
 H639 H 0.02842 0.42731 0.51631
 H640 H 0.05034 0.45091 0.53868
 H641 H -0.01297 0.52936 0.47628
 H642 H 0.01660 0.54060 0.48745
 H643 H -0.01543 0.43516 0.56289
 H644 H 0.00744 0.45705 0.58189
 H645 H 0.05361 0.49291 0.49035
 H646 H 0.03419 0.46890 0.47137
 H647 H -0.03275 0.50280 0.57911
 H648 H -0.05593 0.47972 0.55901
 O649 O 0.47594 -0.05499 0.48223
 O650 O 0.47603 -0.05183 0.51903
 O651 O 0.44140 -0.00117 0.46456
 O652 O 0.44366 0.03273 0.46689
 O653 O 0.49674 -0.01746 0.43230
 O654 O 0.53199 -0.01266 0.44059
 O655 O 0.48954 0.05234 0.52389
 O656 O 0.45567 0.04243 0.51910
 O657 O 0.52067 0.00077 0.54499
 O658 O 0.52365 -0.03561 0.53312
 O659 O 0.54438 0.03454 0.49543
 O660 O 0.53775 0.03731 0.45890
 O661 O 0.51445 0.05757 0.49997
 O662 O 0.51237 0.05473 0.46015
 O663 O 0.54741 0.00784 0.51806
 O664 O 0.54477 -0.03044 0.51081
 O665 O 0.49341 0.02206 0.54757
 O666 O 0.45754 0.01553 0.54014
 O667 O 0.49943 -0.04921 0.45693
 O668 O 0.53425 -0.03827 0.46124
 O669 O 0.46992 0.00445 0.43509
 O670 O 0.46944 0.04049 0.44786
 O671 O 0.44431 -0.02969 0.48498
 O672 O 0.45172 -0.03118 0.52209
 Zr673 Zr 0.47339 -0.02674 0.49825
 O674 O 0.48923 -0.00923 0.52049
 Zr675 Zr 0.46956 0.01351 0.46645
 O676 O 0.48460 0.03289 0.48753
 Zr677 Zr 0.50879 -0.01853 0.46251
 O678 O 0.52600 -0.00019 0.48301
 Zr679 Zr 0.48052 0.02187 0.51791
 O680 O 0.46311 0.00406 0.49712
 Zr681 Zr 0.52043 -0.00936 0.51383
 O682 O 0.50481 -0.02931 0.49313
 Zr683 Zr 0.51583 0.03053 0.48196
 O684 O 0.50062 0.01274 0.45931
 O685 O 0.47780 -0.01741 0.46774
 O686 O 0.51166 0.02146 0.51267
 C687 C 0.48646 -0.06071 0.46636
 C688 C 0.43441 -0.01791 0.47251
 C689 C 0.48154 -0.00769 0.42469
 C690 C 0.50350 0.06330 0.51550
 C691 C 0.50909 0.01320 0.55514
 C692 C 0.55393 0.02459 0.50958
 H693 H 0.48646 -0.01481 0.53450
 H694 H 0.54049 -0.00126 0.47933
 H695 H 0.47004 -0.02595 0.45782
 H696 H 0.47958 0.04720 0.48617
 H697 H 0.44442 0.03567 0.51161
 H698 H 0.44582 0.04329 0.47775
 H699 H 0.55362 -0.02555 0.49941
 H700 H 0.53390 -0.04665 0.47409
 H701 H 0.46111 0.00271 0.54760
 H702 H 0.44315 -0.01864 0.52235
 H703 H 0.54636 0.02492 0.45722
 H704 H 0.52962 0.00146 0.43526
 H705 H 0.49041 -0.05608 0.51869
 H706 H 0.51139 -0.03662 0.54191
 H707 H 0.48195 0.04024 0.43934
 H708 H 0.50108 0.06362 0.46490
 O709 O 0.50016 0.55620 0.02665
 O710 O 0.46535 0.55281 0.02137
 O711 O 0.51190 0.50327 0.06614
 O712 O 0.51055 0.46920 0.06407
 O713 O 0.55254 0.51809 0.01494
 O714 O 0.55127 0.51354 -0.02113
 O715 O 0.46195 0.44976 0.00600
 O716 O 0.46023 0.45855 0.04081
 O717 O 0.44959 0.50124 -0.02917
 O718 O 0.46164 0.53599 -0.03130
 O719 O 0.50083 0.46517 -0.04303
 O720 O 0.53372 0.46139 -0.02947
 O721 O 0.49020 0.44234 -0.01284
 O722 O 0.52807 0.44558 -0.00282
 O723 O 0.48010 0.49219 -0.05036
 O724 O 0.48802 0.53094 -0.04666
 O725 O 0.44082 0.48134 -0.00146
 O726 O 0.44279 0.48725 0.03712
 O727 O 0.52876 0.54998 0.00783
 O728 O 0.53109 0.53746 -0.02861
 O729 O 0.54508 0.49779 0.04277
 O730 O 0.53238 0.46069 0.04095
 O731 O 0.49352 0.53205 0.05871
 O732 O 0.45858 0.53200 0.04535
 Zr733 Zr 0.48513 0.52787 0.02736
 O734 O 0.46681 0.51067 0.00720
 Zr735 Zr 0.51494 0.48791 0.03754
 O736 O 0.49685 0.46837 0.01900
 Zr737 Zr 0.52567 0.51897 -0.00210
 O738 O 0.50944 0.50003 -0.02273
 Zr739 Zr 0.46714 0.47978 0.01688
 O740 O 0.48430 0.49729 0.03832
 Zr741 Zr 0.47931 0.51006 -0.02294
 O742 O 0.49587 0.53016 -0.00351
 Zr743 Zr 0.50798 0.46949 -0.01159
 O744 O 0.52715 0.48780 0.00729
 O745 O 0.51516 0.51858 0.02833
 O746 O 0.47808 0.47934 -0.01352
 C747 C 0.51707 0.56179 0.01867
 C748 C 0.50387 0.52067 0.07115
 C749 C 0.55714 0.50941 0.03219
 C750 C 0.47263 0.43771 -0.00548
 C751 C 0.43700 0.49017 -0.01892
 C752 C 0.48928 0.47536 -0.05528
 H753 H 0.45306 0.51666 0.00730
 H754 H 0.51574 0.50068 -0.03668
 H755 H 0.52333 0.52743 0.03759
 H756 H 0.49688 0.45419 0.02466
 H757 H 0.46677 0.46384 0.05355
 H758 H 0.49938 0.45964 0.06080
 H759 H 0.49907 0.52450 -0.05482
 H760 H 0.51968 0.54732 -0.02956
 H761 H 0.43596 0.49970 0.03168
 H762 H 0.45793 0.52033 0.05526
 H763 H 0.53792 0.47387 -0.03718
 H764 H 0.55521 0.49897 -0.01884
 H765 H 0.46780 0.55691 0.00676
 H766 H 0.45211 0.53874 -0.01972
 H767 H 0.54370 0.46156 0.03087
 H768 H 0.52101 0.43666 0.00735
 O769 O 0.76416 0.31869 0.51029
 O770 O 0.76028 0.31254 0.54758
 O771 O 0.79545 0.26494 0.49006
 O772 O 0.79042 0.23037 0.49124
 O773 O 0.74323 0.28685 0.45668
 O774 O 0.70728 0.28425 0.46300
 O775 O 0.73836 0.21002 0.54168
 O776 O 0.77366 0.21711 0.53990
 O777 O 0.71085 0.26246 0.56618
 O778 O 0.71368 0.30052 0.55755
 O779 O 0.68748 0.23637 0.51336
 O780 O 0.69781 0.23653 0.47522
 O781 O 0.71466 0.20875 0.51625
 O782 O 0.71800 0.21346 0.47913
 O783 O 0.68567 0.26257 0.53685
 O784 O 0.69263 0.29925 0.53498
 O785 O 0.73521 0.23772 0.56786
 O786 O 0.77242 0.24190 0.56350
 O787 O 0.74074 0.31706 0.48449
 O788 O 0.70571 0.30846 0.48452
 O789 O 0.76886 0.26350 0.45915
 O790 O 0.76600 0.22699 0.46801
 O791 O 0.79293 0.29130 0.51337
 O792 O 0.78405 0.29064 0.54924
 Zr793 Zr 0.76313 0.28940 0.52454
 O794 O 0.74497 0.27143 0.54449
 Zr795 Zr 0.76622 0.25171 0.48959
 O796 O 0.74786 0.23210 0.50788
 Zr797 Zr 0.72957 0.28678 0.48633
 O798 O 0.70980 0.26903 0.50466
 Zr799 Zr 0.75072 0.23989 0.53937
 O800 O 0.77097 0.25795 0.52136
 Zr801 Zr 0.71459 0.27549 0.53633
 O802 O 0.73257 0.29527 0.51780
 Zr803 Zr 0.71716 0.23760 0.50132
 O804 O 0.73566 0.25531 0.48109
 O805 O 0.75999 0.28290 0.49310
 O806 O 0.72019 0.24399 0.53283
 C807 C 0.75436 0.32655 0.49496
 C808 C 0.80279 0.28051 0.49997
 C809 C 0.75843 0.27692 0.44908
 C810 C 0.72414 0.20082 0.53171
 C811 C 0.71997 0.24753 0.57542
 C812 C 0.67798 0.24736 0.52693
 H813 H 0.74737 0.27543 0.55908
 H814 H 0.69577 0.27204 0.50038
 H815 H 0.76884 0.29160 0.48431
 H816 H 0.75164 0.21751 0.50548
 H817 H 0.78590 0.22345 0.53371
 H818 H 0.78557 0.21821 0.49909
 H819 H 0.68539 0.29781 0.52164
 H820 H 0.70551 0.31599 0.49792
 H821 H 0.76890 0.25373 0.57254
 H822 H 0.79005 0.27667 0.55029
 H823 H 0.68774 0.24774 0.47677
 H824 H 0.70921 0.27060 0.45635
 H825 H 0.74702 0.31927 0.54535
 H826 H 0.72402 0.29810 0.56834
 H827 H 0.75328 0.22817 0.46004
 H828 H 0.73127 0.20653 0.48033
 O829 O 0.81500 0.74611 -0.02248
 O830 O 0.80572 0.71036 -0.02083
 O831 O 0.75932 0.77316 -0.04583
 O832 O 0.72749 0.77730 -0.03529
 O833 O 0.79171 0.80085 0.00658
 O834 O 0.79327 0.79227 0.04282
 O835 O 0.70904 0.72518 0.01404
 O836 O 0.71426 0.72655 -0.02293
 O837 O 0.76190 0.69260 0.03541
 O838 O 0.79773 0.69779 0.02973
 O839 O 0.74140 0.74558 0.06564
 O840 O 0.74533 0.78286 0.05956
 O841 O 0.71279 0.74830 0.04039
 O842 O 0.72271 0.78572 0.03837
 O843 O 0.76373 0.71903 0.06254
 O844 O 0.80098 0.72375 0.05255
 O845 O 0.73391 0.69570 0.01521
 O846 O 0.73510 0.69835 -0.02051
 O847 O 0.81791 0.77117 0.00220
 O848 O 0.81420 0.76778 0.03992
 O849 O 0.76607 0.80233 -0.01682
 O850 O 0.72938 0.79639 -0.00905
 O851 O 0.78448 0.74926 -0.04832
 O852 O 0.78167 0.71187 -0.04135
 Zr853 Zr 0.78514 0.73529 -0.01868
 O854 O 0.76802 0.71611 0.00113
 Zr855 Zr 0.75160 0.77337 -0.01422
 O856 O 0.73295 0.75573 0.00541
 Zr857 Zr 0.79024 0.77059 0.01845
 O858 O 0.77317 0.75304 0.03983
 Zr859 Zr 0.73740 0.72412 -0.00044
 O860 O 0.75408 0.74178 -0.02231
 Zr861 Zr 0.77585 0.72163 0.03229
 O862 O 0.79486 0.73897 0.01224
 Zr863 Zr 0.74228 0.75990 0.03634
 O864 O 0.75964 0.77941 0.01681
 O865 O 0.78218 0.76659 -0.01244
 O866 O 0.74513 0.72847 0.03046
 C867 C 0.82477 0.76059 -0.01324
 C868 C 0.77300 0.76333 -0.05603
 C869 C 0.78133 0.81025 -0.00739
 C870 C 0.70246 0.73511 0.02996
 C871 C 0.74499 0.68587 0.02833
 C872 C 0.75039 0.72948 0.07268
 H873 H 0.76994 0.70148 -0.00285
 H874 H 0.77797 0.75564 0.05413
 H875 H 0.79027 0.77510 -0.02214
 H876 H 0.71875 0.75991 0.00313
 H877 H 0.72086 0.73025 -0.03627
 H878 H 0.71820 0.76558 -0.03304
 H879 H 0.79916 0.71361 0.06395
 H880 H 0.82078 0.75432 0.03712
 H881 H 0.74439 0.70101 -0.03225
 H882 H 0.76976 0.71556 -0.04983
 H883 H 0.75818 0.78031 0.06694
 H884 H 0.78008 0.79943 0.04403
 H885 H 0.81355 0.71036 -0.00774
 H886 H 0.79517 0.69019 0.01667
 H887 H 0.73385 0.80460 0.00308
 H888 H 0.71241 0.78428 0.02737
 O889 O 1.05732 0.22828 0.25991
 O890 O 1.04503 0.22798 0.29465
 O891 O 1.00900 0.20294 0.22505
 O892 O 0.97552 0.20852 0.22274
 O893 O 1.03768 0.25699 0.20334
 O894 O 1.03676 0.29213 0.21210
 O895 O 0.94902 0.25981 0.27538
 O896 O 0.95350 0.22404 0.27161
 O897 O 0.99875 0.28070 0.30984
 O898 O 1.03388 0.28113 0.30653
 O899 O 0.98036 0.31154 0.25356
 O900 O 0.98570 0.30420 0.21666
 O901 O 0.95313 0.28579 0.25201
 O902 O 0.96395 0.28219 0.21410
 O903 O 0.99879 0.30918 0.28318
 O904 O 1.03795 0.30148 0.28275
 O905 O 0.97261 0.25826 0.30600
 O906 O 0.97495 0.22054 0.29772
 O907 O 1.06133 0.25359 0.23571
 O908 O 1.05457 0.29098 0.23922
 O909 O 1.01176 0.23444 0.19831
 O910 O 0.97477 0.23625 0.20317
 O911 O 1.02902 0.20071 0.25366
 O912 O 1.02111 0.20699 0.29056
 Zr913 Zr 1.02657 0.23005 0.26799
 O914 O 1.00741 0.24881 0.28618
 Zr915 Zr 0.99636 0.23285 0.22714
 O916 O 0.97510 0.25074 0.24400
 Zr917 Zr 1.03272 0.26784 0.23362
 O918 O 1.01285 0.28781 0.24955
 Zr919 Zr 0.97744 0.24515 0.27613
 O920 O 0.99646 0.22474 0.25895
 Zr921 Zr 1.01366 0.28027 0.28118
 O922 O 1.03502 0.26139 0.26553
 Zr923 Zr 0.98283 0.28201 0.24061
 O924 O 1.00303 0.26423 0.22233
 O925 O 1.02608 0.23668 0.23643
 O926 O 0.98370 0.27638 0.27245
 C927 C 1.06797 0.23848 0.24673
 C928 C 1.02153 0.19321 0.23679
 C929 C 1.02749 0.24444 0.19208
 C930 C 0.94270 0.27584 0.26559
 C931 C 0.98284 0.27155 0.31653
 C932 C 0.98665 0.31876 0.27091
 H933 H 1.00916 0.24504 0.30095
 H934 H 1.01680 0.30230 0.24703
 H935 H 1.03558 0.22816 0.22814
 H936 H 0.96123 0.24784 0.23915
 H937 H 0.95945 0.21170 0.26484
 H938 H 0.96307 0.21232 0.23042
 H939 H 1.03434 0.31378 0.27444
 H940 H 1.06055 0.28800 0.25298
 H941 H 0.98556 0.22226 0.30835
 H942 H 1.00841 0.19999 0.28655
 H943 H 0.99806 0.31231 0.21944
 H944 H 1.02406 0.29305 0.20407
 H945 H 1.05222 0.24133 0.29578
 H946 H 1.03440 0.26701 0.31234
 H947 H 0.97762 0.24957 0.19624
 H948 H 0.95289 0.27219 0.21642
 O949 O 0.74855 0.96672 0.79900
 O950 O 0.71416 0.96450 0.78944
 O951 O 0.77878 0.94083 0.74581
 O952 O 0.78270 0.94690 0.71256
 O953 O 0.80011 0.99761 0.77400
 O954 O 0.78963 1.03227 0.77248
 O955 O 0.72469 0.99227 0.68811
 O956 O 0.73096 0.95728 0.69377
 O957 O 0.69442 1.01619 0.73800
 O958 O 0.69694 1.01602 0.77400
 O959 O 0.74587 1.04694 0.71669
 O960 O 0.78142 1.04188 0.71838
 O961 O 0.74526 1.02030 0.68977
 O962 O 0.78407 1.01764 0.69778
 O963 O 0.72020 1.04577 0.74028
 O964 O 0.72018 1.03622 0.77949
 O965 O 0.69714 0.99015 0.71439
 O966 O 0.70769 0.95305 0.71825
 O967 O 0.77115 0.99313 0.80048
 O968 O 0.76442 1.03012 0.79274
 O969 O 0.80472 0.97342 0.74873
 O970 O 0.79785 0.97569 0.71006
 O971 O 0.75360 0.93837 0.76994
 O972 O 0.71689 0.94312 0.76507
 Zr973 Zr 0.73839 0.96705 0.76806
 O974 O 0.71861 0.98401 0.74897
 Zr975 Zr 0.77623 0.97084 0.73394
 O976 O 0.75751 0.98646 0.71261
 Zr977 Zr 0.77002 1.00660 0.77060
 O978 O 0.75252 1.02475 0.75040
 Zr979 Zr 0.72696 0.97921 0.71782
 O980 O 0.74590 0.96087 0.73678
 Zr981 Zr 0.72218 1.01597 0.75371
 O982 O 0.73951 0.99881 0.77536
 Zr983 Zr 0.75955 1.01810 0.71909
 O984 O 0.77952 1.00261 0.73946
 O985 O 0.76864 0.97508 0.76497
 O986 O 0.72910 1.01094 0.72258
 C987 C 0.76167 0.97776 0.80860
 C988 C 0.76889 0.93100 0.75990
 C989 C 0.81100 0.98455 0.76401
 C990 C 0.73214 1.00893 0.68048
 C991 C 0.68739 1.00497 0.72324
 C992 C 0.73066 1.05491 0.72608
 H993 H 0.70453 0.97972 0.75176
 H994 H 0.75476 1.03944 0.75388
 H995 H 0.77755 0.96698 0.77422
 H996 H 0.76149 0.98317 0.69814
 H997 H 0.73903 0.94585 0.69970
 H998 H 0.77255 0.94798 0.70138
 H999 H 0.72990 1.04758 0.77714
 H1000 H 0.75221 1.02602 0.80066
 H1001 H 0.69722 0.95521 0.72906
 H1002 H 0.72045 0.93539 0.75227
 H1003 H 0.78068 1.04908 0.73192
 H1004 H 0.79696 1.03290 0.75904
 H1005 H 0.71263 0.97824 0.79602
 H1006 H 0.69370 1.00143 0.77702
 H1007 H 0.80535 0.98841 0.71364
 H1008 H 0.78009 1.00928 0.68558
 O1009 O 0.69969 0.52132 0.25772
 O1010 O 0.70739 0.51639 0.29325
 O1011 O 0.75082 0.55444 0.23475
 O1012 O 0.78499 0.54984 0.23594
 O1013 O 0.72776 0.50467 0.20048
 O1014 O 0.73077 0.46760 0.20313
 O1015 O 0.80636 0.49124 0.28185
 O1016 O 0.80124 0.52817 0.28137
 O1017 O 0.75606 0.46412 0.30580
 O1018 O 0.71971 0.46535 0.29839
 O1019 O 0.78174 0.44346 0.24976
 O1020 O 0.77883 0.45560 0.21285
 O1021 O 0.80770 0.47118 0.25283
 O1022 O 0.80018 0.47791 0.21562
 O1023 O 0.75859 0.44064 0.27584
 O1024 O 0.72042 0.44651 0.27288
 O1025 O 0.77927 0.48980 0.30914
 O1026 O 0.77676 0.52477 0.30754
 O1027 O 0.69995 0.50004 0.22953
 O1028 O 0.70843 0.46390 0.22651
 O1029 O 0.75227 0.52921 0.20294
 O1030 O 0.78814 0.52638 0.21065
 O1031 O 0.72681 0.55093 0.25996
 O1032 O 0.72941 0.53848 0.29648
 Zr1033 Zr 0.72923 0.51985 0.26941
 O1034 O 0.74738 0.49960 0.28669
 Zr1035 Zr 0.76445 0.52502 0.23287
 O1036 O 0.78439 0.50507 0.24878
 Zr1037 Zr 0.72967 0.48816 0.22865
 O1038 O 0.74811 0.46652 0.24416
 Zr1039 Zr 0.77797 0.50579 0.28076
 O1040 O 0.75985 0.52802 0.26527
 Zr1041 Zr 0.74327 0.46912 0.27636
 O1042 O 0.72310 0.48911 0.26072
 Zr1043 Zr 0.77868 0.47436 0.23984
 O1044 O 0.76026 0.49455 0.22218
 O1045 O 0.73403 0.51859 0.23755
 O1046 O 0.77380 0.47527 0.27183
 C1047 C 0.69114 0.51272 0.24206
 C1048 C 0.73627 0.56149 0.24609
 C1049 C 0.73786 0.52007 0.19324
 C1050 C 0.81529 0.47831 0.26972
 C1051 C 0.76978 0.47385 0.31592
 C1052 C 0.77318 0.43353 0.26468
 H1053 H 0.74408 0.50133 0.30160
 H1054 H 0.74519 0.45244 0.23908
 H1055 H 0.72501 0.52806 0.22988
 H1056 H 0.79859 0.50906 0.24610
 H1057 H 0.79492 0.54152 0.27764
 H1058 H 0.79726 0.54440 0.24277
 H1059 H 0.72436 0.43724 0.26132
 H1060 H 0.70235 0.46241 0.24051
 H1061 H 0.77017 0.53780 0.30335
 H1062 H 0.73973 0.54933 0.29442
 H1063 H 0.76745 0.44577 0.21400
 H1064 H 0.74416 0.46953 0.19646
 H1065 H 0.70149 0.50247 0.29149
 H1066 H 0.72062 0.47690 0.30842
 H1067 H 0.78676 0.51407 0.20164
 H1068 H 0.80887 0.48982 0.21915
 O1069 O 0.54246 0.21270 0.74964
 O1070 O 0.53611 0.21432 0.78717
 O1071 O 0.49240 0.17957 0.72684
 O1072 O 0.45806 0.18218 0.72956
 O1073 O 0.51147 0.23456 0.69770
 O1074 O 0.50539 0.27111 0.70532
 O1075 O 0.43461 0.23165 0.78267
 O1076 O 0.44311 0.19618 0.77795
 O1077 O 0.48457 0.26009 0.80856
 O1078 O 0.52169 0.26070 0.79958
 O1079 O 0.45757 0.28633 0.75660
 O1080 O 0.45859 0.27825 0.71835
 O1081 O 0.43300 0.25721 0.75853
 O1082 O 0.43772 0.25568 0.72046
 O1083 O 0.48230 0.28785 0.78097
 O1084 O 0.51902 0.28335 0.77849
 O1085 O 0.46147 0.23412 0.80861
 O1086 O 0.46754 0.19682 0.80179
 O1087 O 0.53998 0.23888 0.72619
 O1088 O 0.52912 0.27337 0.72665
 O1089 O 0.48836 0.20855 0.69811
 O1090 O 0.45310 0.20816 0.70729
 O1091 O 0.51643 0.18144 0.75200
 O1092 O 0.51652 0.18907 0.78775
 Zr1093 Zr 0.51369 0.21142 0.76403
 O1094 O 0.49491 0.22776 0.78482
 Zr1095 Zr 0.47726 0.20829 0.72879
 O1096 O 0.45691 0.22494 0.74789
 Zr1097 Zr 0.50955 0.24762 0.72770
 O1098 O 0.49107 0.26584 0.74706
 Zr1099 Zr 0.46442 0.22046 0.77920
 O1100 O 0.48341 0.20190 0.76025
 Zr1101 Zr 0.49727 0.25940 0.77844
 O1102 O 0.51773 0.24323 0.75902
 Zr1103 Zr 0.46088 0.25683 0.74305
 O1104 O 0.47924 0.24005 0.72193
 O1105 O 0.50745 0.21604 0.73279
 O1106 O 0.46690 0.25216 0.77437
 C1107 C 0.54987 0.22470 0.73560
 C1108 C 0.50714 0.17192 0.73737
 C1109 C 0.50182 0.21965 0.68901
 C1110 C 0.42553 0.24668 0.77359
 C1111 C 0.47044 0.24947 0.81716
 C1112 C 0.46723 0.29558 0.77121
 H1113 H 0.49888 0.22461 0.79925
 H1114 H 0.49321 0.28055 0.74365
 H1115 H 0.51658 0.20796 0.72365
 H1116 H 0.44286 0.22054 0.74523
 H1117 H 0.45008 0.18422 0.77149
 H1118 H 0.44552 0.18623 0.73695
 H1119 H 0.51666 0.29199 0.76606
 H1120 H 0.53536 0.27440 0.74057
 H1121 H 0.47874 0.20052 0.81120
 H1122 H 0.50311 0.18241 0.78906
 H1123 H 0.46961 0.28842 0.71995
 H1124 H 0.49258 0.26801 0.69806
 H1125 H 0.54215 0.22819 0.78546
 H1126 H 0.52049 0.24883 0.80916
 H1127 H 0.45274 0.22202 0.70084
 H1128 H 0.43019 0.24264 0.72244
 O1129 O 0.24632 0.77089 0.43682
 O1130 O 0.21179 0.77172 0.44700
 O1131 O 0.27444 0.79482 0.49306
 O1132 O 0.27644 0.78555 0.52638
 O1133 O 0.30008 0.74192 0.46109
 O1134 O 0.29125 0.70635 0.45981
 O1135 O 0.22305 0.73555 0.54529
 O1136 O 0.22732 0.77159 0.54220
 O1137 O 0.19330 0.71666 0.49121
 O1138 O 0.19972 0.72135 0.45337
 O1139 O 0.24373 0.68507 0.51200
 O1140 O 0.28101 0.69076 0.50899
 O1141 O 0.24612 0.70971 0.54176
 O1142 O 0.28275 0.71088 0.53290
 O1143 O 0.21900 0.68789 0.48774
 O1144 O 0.22002 0.69847 0.45085
 O1145 O 0.19521 0.73828 0.51901
 O1146 O 0.20309 0.77568 0.51919
 O1147 O 0.27042 0.74593 0.43361
 O1148 O 0.26758 0.70897 0.43829
 O1149 O 0.30174 0.76527 0.48749
 O1150 O 0.29554 0.75799 0.52494
 O1151 O 0.25054 0.79756 0.46786
 O1152 O 0.21444 0.79197 0.47219
 Zr1153 Zr 0.23627 0.76848 0.46775
 O1154 O 0.21678 0.74938 0.48504
 Zr1155 Zr 0.27319 0.76367 0.50218
 O1156 O 0.25510 0.74471 0.52135
 Zr1157 Zr 0.27022 0.73081 0.46257
 O1158 O 0.25237 0.71017 0.47997
 Zr1159 Zr 0.22434 0.75121 0.51669
 O1160 O 0.24250 0.77221 0.49962
 Zr1161 Zr 0.22181 0.71837 0.47691
 O1162 O 0.23949 0.73768 0.45764
 Zr1163 Zr 0.25844 0.71383 0.51181
 O1164 O 0.27831 0.73259 0.49413
 O1165 O 0.26680 0.76166 0.47066
 O1166 O 0.22778 0.72025 0.50864
 C1167 C 0.25976 0.76090 0.42639
 C1168 C 0.26495 0.80496 0.47896
 C1169 C 0.30946 0.75557 0.47188
 C1170 C 0.23244 0.71954 0.55204
 C1171 C 0.18584 0.72516 0.50757
 C1172 C 0.22868 0.67788 0.50176
 H1173 H 0.20264 0.75352 0.48245
 H1174 H 0.25497 0.69589 0.47522
 H1175 H 0.27533 0.77082 0.46201
 H1176 H 0.25882 0.74670 0.53608
 H1177 H 0.23437 0.78402 0.53693
 H1178 H 0.26813 0.78073 0.53823
 H1179 H 0.23172 0.68895 0.45130
 H1180 H 0.25411 0.71114 0.43201
 H1181 H 0.19393 0.77503 0.50711
 H1182 H 0.21659 0.79758 0.48633
 H1183 H 0.27820 0.68270 0.49626
 H1184 H 0.29776 0.70495 0.47357
 H1185 H 0.21073 0.75847 0.43940
 H1186 H 0.19102 0.73330 0.45692
 H1187 H 0.30282 0.74529 0.52067
 H1188 H 0.28182 0.72241 0.54295
 O1189 O 0.24961 0.28354 0.94725
 O1190 O 0.21150 0.28019 0.95376
 O1191 O 0.26955 0.31411 1.00127
 O1192 O 0.26662 0.30921 1.03645
 O1193 O 0.29871 0.25984 0.97930
 O1194 O 0.29009 0.22247 0.98450
 O1195 O 0.21450 0.25978 1.05620
 O1196 O 0.22066 0.29578 1.04989
 O1197 O 0.18941 0.23511 1.00446
 O1198 O 0.19904 0.23851 0.96483
 O1199 O 0.23773 0.20590 1.02992
 O1200 O 0.27622 0.21315 1.02904
 O1201 O 0.23817 0.23434 1.05780
 O1202 O 0.27334 0.23299 1.05336
 O1203 O 0.21598 0.20641 1.00267
 O1204 O 0.21653 0.21292 0.96753
 O1205 O 0.18909 0.26178 1.02745
 O1206 O 0.19617 0.29604 1.02395
 O1207 O 0.27164 0.25663 0.94914
 O1208 O 0.27150 0.22216 0.95853
 O1209 O 0.29773 0.28482 1.00418
 O1210 O 0.28869 0.28326 1.03971
 O1211 O 0.24515 0.31386 0.97644
 O1212 O 0.21359 0.30761 0.97037
 Zr1213 Zr 0.23446 0.28363 0.97633
 O1214 O 0.21336 0.26763 0.99477
 Zr1215 Zr 0.26775 0.28447 1.01492
 O1216 O 0.24869 0.26690 1.03444
 Zr1217 Zr 0.26925 0.24683 0.97995
 O1218 O 0.24900 0.22827 0.99700
 Zr1219 Zr 0.21860 0.27286 1.02651
 O1220 O 0.23746 0.29177 1.00804
 Zr1221 Zr 0.21867 0.23604 0.99063
 O1222 O 0.23900 0.25202 0.97086
 Zr1223 Zr 0.25242 0.23504 1.02868
 O1224 O 0.27389 0.25263 1.01165
 O1225 O 0.26464 0.27838 0.98338
 O1226 O 0.22215 0.24115 1.02236
 C1227 C 0.26310 0.27145 0.93938
 C1228 C 0.25914 0.32277 0.98679
 C1229 C 0.30697 0.27431 0.99012
 C1230 C 0.22355 0.24488 1.06557
 C1231 C 0.18061 0.24661 1.01818
 C1232 C 0.22435 0.19750 1.01812
 H1233 H 0.19946 0.27168 0.99088
 H1234 H 0.25190 0.21363 0.99378
 H1235 H 0.27376 0.28694 0.97471
 H1236 H 0.25127 0.27036 1.04916
 H1237 H 0.22644 0.30823 1.04322
 H1238 H 0.25986 0.30420 1.04924
 H1239 H 0.23010 0.20661 0.96618
 H1240 H 0.25812 0.22104 0.95179
 H1241 H 0.20260 0.30787 1.01681
 H1242 H 0.20376 0.30747 0.98199
 H1243 H 0.27324 0.20252 1.01844
 H1244 H 0.29787 0.22583 0.99717
 H1245 H 0.21560 0.26866 0.94453
 H1246 H 0.18758 0.24752 0.96885
 H1247 H 0.29483 0.26932 1.03946
 H1248 H 0.27488 0.24704 1.05916
 C1249 C 0.30516 0.38391 0.77495
 C1250 C 0.28577 0.39217 0.77802
 N1251 N 0.27096 0.38023 0.78629
 C1252 C 0.27482 0.36052 0.79229
 C1253 C 0.29455 0.35252 0.79033
 N1254 N 0.30912 0.36441 0.78131
 N1255 N 0.31995 0.39584 0.76657
 C1256 C 0.31626 0.41581 0.76131
 C1257 C 0.29701 0.42430 0.76502
 N1258 N 0.28220 0.41216 0.77316
 H1259 H 0.26271 0.35144 0.79895
 H1260 H 0.32833 0.42506 0.75476
 C1261 C 0.28671 -0.13030 0.26264
 C1262 C 0.27123 -0.12092 0.27418
 N1263 N 0.26399 -0.13048 0.29138
 C1264 C 0.27167 -0.14887 0.29781
 C1265 C 0.28781 -0.15829 0.28663
 N1266 N 0.29456 -0.14850 0.26913
 N1267 N 0.29414 -0.12074 0.24550
 C1268 C 0.28702 -0.10197 0.23959
 C1269 C 0.27188 -0.09214 0.25152
 N1270 N 0.26423 -0.10205 0.26848
 H1271 H 0.26523 -0.15538 0.31172
 H1272 H 0.29353 -0.09459 0.22605
 C1273 C 0.79302 0.87337 0.77816
 C1274 C 0.77690 0.88220 0.78918
 N1275 N 0.76987 0.87268 0.80651
 C1276 C 0.77843 0.85490 0.81359
 C1277 C 0.79521 0.84612 0.80293
 N1278 N 0.80168 0.85580 0.78526
 N1279 N 0.80025 0.88281 0.76087
 C1280 C 0.79225 0.90096 0.75425
 C1281 C 0.77636 0.91026 0.76554
 N1282 N 0.76895 0.90047 0.78272
 H1283 H 0.77201 0.84818 0.82742
 H1284 H 0.79856 0.90821 0.74053
 C1285 C 0.45069 0.86711 0.26673
 C1286 C 0.47169 0.86393 0.26605
 N1287 N 0.48429 0.87970 0.27080
 C1288 C 0.47686 0.89832 0.27695
 C1289 C 0.45580 0.90120 0.27908
 N1290 N 0.44324 0.88552 0.27343
 N1291 N 0.43808 0.85143 0.26160
 C1292 C 0.44552 0.83262 0.25608
 C1293 C 0.46654 0.82914 0.25619
 N1294 N 0.47915 0.84498 0.26109
 H1295 H 0.48738 0.91054 0.28064
 H1296 H 0.43510 0.82032 0.25230
 C1297 C -0.02988 0.87143 0.78778
 C1298 C -0.04333 0.85931 0.77623
 N1299 N -0.06114 0.86748 0.76995
 C1300 C -0.06613 0.88731 0.77459
 C1301 C -0.05251 0.89974 0.78590
 N1302 N -0.03474 0.89125 0.79224
 N1303 N -0.01228 0.86315 0.79455
 C1304 C -0.00745 0.84323 0.79020
 C1305 C -0.02078 0.83109 0.77837
 N1306 N -0.03845 0.83949 0.77167
 H1307 H -0.08080 0.89288 0.76989
 H1308 H 0.00678 0.83708 0.79569
 C1309 C -0.02670 -0.10594 -0.05079
 C1310 C -0.03377 -0.09787 -0.03190
 N1311 N -0.04538 -0.10978 -0.01936
 C1312 C -0.05084 -0.12919 -0.02509
 C1313 C -0.04470 -0.13719 -0.04468
 N1314 N -0.03231 -0.12521 -0.05668
 N1315 N -0.01501 -0.09408 -0.06336
 C1316 C -0.01024 -0.07438 -0.05797
 C1317 C -0.01771 -0.06602 -0.03920
 N1318 N -0.02922 -0.07813 -0.02655
 H1319 H -0.05972 -0.13796 -0.01416
 H1320 H -0.00104 -0.06527 -0.06844
 C1321 C -0.04898 0.37099 0.48717
 C1322 C -0.03105 0.37855 0.47843
 N1323 N -0.02320 0.36920 0.46138
 C1324 C -0.03257 0.35284 0.45234
 C1325 C -0.05114 0.34534 0.46052
 N1326 N -0.05853 0.35471 0.47808
 N1327 N -0.05685 0.38040 0.50427
 C1328 C -0.04772 0.39722 0.51283
 C1329 C -0.02991 0.40519 0.50379
 N1330 N -0.02200 0.39544 0.48680
 H1331 H -0.02509 0.34593 0.43915
 H1332 H -0.05462 0.40460 0.52620
 C1333 C 0.46887 -0.11857 0.44169
 C1334 C 0.46565 -0.11362 0.46266
 N1335 N 0.45547 -0.12692 0.47502
 C1336 C 0.44754 -0.14462 0.46729
 C1337 C 0.44929 -0.14921 0.44578
 N1338 N 0.46061 -0.13615 0.43372
 N1339 N 0.47932 -0.10515 0.42945
 C1340 C 0.48627 -0.08687 0.43717
 C1341 C 0.48223 -0.08153 0.45802
 N1342 N 0.47215 -0.09527 0.47023
 H1343 H 0.44025 -0.15489 0.47816
 H1344 H 0.49407 -0.07627 0.42692
 C1345 C 0.44730 0.38044 -0.02403
 C1346 C 0.46775 0.38495 -0.02768
 N1347 N 0.47949 0.37104 -0.03778
 C1348 C 0.47168 0.35307 -0.04502
 C1349 C 0.45078 0.34870 -0.04250
 N1350 N 0.43931 0.36252 -0.03147
 N1351 N 0.43566 0.39436 -0.01365
 C1352 C 0.44349 0.41264 -0.00698
 C1353 C 0.46393 0.41741 -0.01108
 N1354 N 0.47554 0.40326 -0.02128
 H1355 H 0.48205 0.34231 -0.05221
 H1356 H 0.43373 0.42350 0.00102
 C1357 C 0.77362 0.38417 0.47164
 C1358 C 0.78630 0.37196 0.48403
 N1359 N 0.80565 0.37784 0.48726
 C1360 C 0.81295 0.39552 0.47885
 C1361 C 0.80024 0.40822 0.46674
 N1362 N 0.78083 0.40201 0.46333
 N1363 N 0.75447 0.37772 0.46776
 C1364 C 0.74754 0.35951 0.47556
 C1365 C 0.76029 0.34726 0.48795
 N1366 N 0.77936 0.35393 0.49192
 H1367 H 0.82870 0.39918 0.48125
 H1368 H 0.73233 0.35456 0.47196
 C1369 C 0.80276 0.86804 -0.02887
 C1370 C 0.78587 0.85877 -0.03793
 N1371 N 0.77693 0.86797 -0.05443
 C1372 C 0.78421 0.88592 -0.06251
 C1373 C 0.80161 0.89530 -0.05380
 N1374 N 0.81013 0.88586 -0.03696
 N1375 N 0.81183 0.85886 -0.01240
 C1376 C 0.80487 0.84064 -0.00472
 C1377 C 0.78809 0.83101 -0.01400
 N1378 N 0.77895 0.84049 -0.03039
 H1379 H 0.77621 0.89240 -0.07550
 H1380 H 0.81263 0.83358 0.00824
 C1381 C 0.77885 0.29403 0.38908
 C1382 C 0.79097 0.28199 0.40214
 N1383 N 0.80997 0.27689 0.39597
 C1384 C 0.81749 0.28333 0.37736
 C1385 C 0.80542 0.29553 0.36409
 N1386 N 0.78632 0.30048 0.37050
 N1387 N 0.76004 0.29966 0.39546
 C1388 C 0.75285 0.29395 0.41445
 C1389 C 0.76504 0.28204 0.42774
 N1390 N 0.78383 0.27626 0.42111
 H1391 H 0.83294 0.27947 0.37349
 H1392 H 0.73788 0.29886 0.41918
 C1393 C 0.78463 0.78488 -0.11673
 C1394 C 0.79968 0.77477 -0.10527
 N1395 N 0.81870 0.77345 -0.11306
 C1396 C 0.82341 0.78170 -0.13186
 C1397 C 0.80832 0.79170 -0.14365
 N1398 N 0.78926 0.79302 -0.13558
 N1399 N 0.76579 0.78692 -0.10854
 C1400 C 0.76139 0.77952 -0.08928
 C1401 C 0.77650 0.76951 -0.07770
 N1402 N 0.79529 0.76729 -0.08611
 H1403 H 0.83893 0.78091 -0.13708
 H1404 H 0.74632 0.78164 -0.08298
 C1405 C 0.30476 0.47805 0.86924
 C1406 C 0.29405 0.46427 0.85663
 N1407 N 0.28873 0.44554 0.86426
 C1408 C 0.29345 0.43996 0.88403
 C1409 C 0.30389 0.45388 0.89707
 N1410 N 0.30933 0.47259 0.88906
 N1411 N 0.31049 0.49662 0.86144
 C1412 C 0.30595 0.50206 0.84156
 C1413 C 0.29499 0.48835 0.82889
 N1414 N 0.28933 0.46973 0.83686
 H1415 H 0.28931 0.42467 0.88910
 H1416 H 0.31072 0.51697 0.83579
 C1417 C 0.28012 -0.05181 0.35841
 C1418 C 0.29024 -0.03469 0.35022
 N1419 N 0.30603 -0.02654 0.36075
 C1420 C 0.31246 -0.03490 0.37896
 C1421 C 0.30277 -0.05268 0.38716
 N1422 N 0.28660 -0.06030 0.37646
 N1423 N 0.26433 -0.06007 0.34790
 C1424 C 0.25835 -0.05209 0.32937
 C1425 C 0.26877 -0.03514 0.32081
 N1426 N 0.28444 -0.02679 0.33162
 H1427 H 0.32496 -0.02744 0.38655
 H1428 H 0.24588 -0.05922 0.32124
 C1429 C -0.04541 -0.01808 -0.13671
 C1430 C -0.02760 -0.02645 -0.12851
 N1431 N -0.01794 -0.04176 -0.13891
 C1432 C -0.02549 -0.04951 -0.15690
 C1433 C -0.04392 -0.04178 -0.16499
 N1434 N -0.05306 -0.02585 -0.15465
 N1435 N -0.05509 -0.00272 -0.12630
 C1436 C -0.04785 0.00450 -0.10792
 C1437 C -0.03013 -0.00412 -0.09944
 N1438 N -0.02039 -0.01936 -0.11012
 H1439 H -0.01670 -0.06122 -0.16476
 H1440 H -0.05604 0.01662 -0.09991
 C1441 C -0.03286 0.44695 0.40286
 C1442 C -0.03787 0.46679 0.40989
 N1443 N -0.04877 0.47954 0.39751
 C1444 C -0.05526 0.47320 0.37852
 C1445 C -0.05092 0.45297 0.37167
 N1446 N -0.03957 0.44052 0.38409
 N1447 N -0.02180 0.43422 0.41510
 C1448 C -0.01562 0.44041 0.43422
 C1449 C -0.02101 0.46015 0.44155
 N1450 N -0.03198 0.47289 0.42910
 H1451 H -0.06368 0.48390 0.36903
 H1452 H -0.00699 0.42986 0.44375
 C1453 C 0.46210 -0.02326 0.36443
 C1454 C 0.47582 -0.03582 0.37516
 N1455 N 0.48128 -0.05431 0.36706
 C1456 C 0.47357 -0.06096 0.34872
 C1457 C 0.45965 -0.04850 0.33781
 N1458 N 0.45437 -0.02986 0.34610
 N1459 N 0.45599 -0.00512 0.37300
 C1460 C 0.46271 0.00083 0.39203
 C1461 C 0.47614 -0.01198 0.40301
 N1462 N 0.48251 -0.02992 0.39413
 H1463 H 0.47773 -0.07621 0.34340
 H1464 H 0.45727 0.01516 0.39870
 C1465 C 0.47753 0.45013 -0.11468
 C1466 C 0.46534 0.46585 -0.10632
 N1467 N 0.44892 0.47242 -0.11694
 C1468 C 0.44415 0.46413 -0.13567
 C1469 C 0.45650 0.44855 -0.14445
 N1470 N 0.47287 0.44188 -0.13349
 N1471 N 0.49362 0.44316 -0.10368
 C1472 C 0.49800 0.45115 -0.08465
 C1473 C 0.48579 0.46694 -0.07624
 N1474 N 0.46975 0.47391 -0.08742
 H1475 H 0.43053 0.46939 -0.14321
 H1476 H 0.51084 0.44519 -0.07617
 C1477 C 0.46483 0.79575 0.36083
 C1478 C 0.45093 0.78486 0.34861
 N1479 N 0.43147 0.78328 0.35505
 C1480 C 0.42528 0.79170 0.37335
 C1481 C 0.43930 0.80195 0.38628
 N1482 N 0.45878 0.80390 0.37939
 N1483 N 0.48416 0.79795 0.35394
 C1484 C 0.49019 0.78973 0.33541
 C1485 C 0.47636 0.77844 0.32332
 N1486 N 0.45701 0.77635 0.33031
 H1487 H 0.40948 0.79049 0.37750
 H1488 H 0.50566 0.79180 0.33025
 C1489 C -0.03842 0.78294 0.87460
 C1490 C -0.02696 0.79594 0.86174
 N1491 N -0.02420 0.81592 0.86725
 C1492 C -0.03216 0.82355 0.88518
 C1493 C -0.04333 0.81053 0.89858
 N1494 N -0.04628 0.79047 0.89270
 N1495 N -0.04170 0.76310 0.86861
 C1496 C -0.03410 0.75572 0.85031
 C1497 C -0.02251 0.76874 0.83742
 N1498 N -0.01926 0.78857 0.84360
 H1499 H -0.03007 0.83974 0.88855
 H1500 H -0.03715 0.73992 0.84583
 C1501 C 0.37605 0.77422 0.28276
 C1502 C 0.38241 0.78078 0.26305
 N1503 N 0.36971 0.79235 0.25127
 C1504 C 0.35103 0.79787 0.25844
 C1505 C 0.34476 0.79168 0.27849
 N1506 N 0.35761 0.77986 0.28994
 N1507 N 0.38850 0.76257 0.29462
 C1508 C 0.40718 0.75721 0.28770
 C1509 C 0.41387 0.76394 0.26803
 N1510 N 0.40121 0.77561 0.25613
 H1511 H 0.34129 0.80685 0.24848
 H1512 H 0.41680 0.74804 0.29766
 C1513 C -0.11905 0.77416 0.79250
 C1514 C -0.10855 0.78743 0.77913
 N1515 N -0.11704 0.80567 0.77357
 C1516 C -0.13551 0.81141 0.78098
 C1517 C -0.14611 0.79825 0.79470
 N1518 N -0.13743 0.77986 0.79990
 N1519 N -0.11034 0.75620 0.79863
 C1520 C -0.09143 0.75098 0.79210
 C1521 C -0.08071 0.76437 0.77885
 N1522 N -0.08968 0.78225 0.77259
 H1523 H -0.14124 0.82643 0.77675
 H1524 H -0.08480 0.73663 0.79736
 C1525 C 0.86096 0.30118 0.48179
 C1526 C 0.85478 0.28085 0.47772
 N1527 N 0.86725 0.26802 0.46702
 C1528 C 0.88536 0.27474 0.45964
 C1529 C 0.89120 0.29549 0.46261
 N1530 N 0.87888 0.30809 0.47404
 N1531 N 0.84855 0.31394 0.49273
 C1532 C 0.83014 0.30738 0.49951
 C1533 C 0.82356 0.28722 0.49480
 N1534 N 0.83621 0.27441 0.48408
 H1535 H 0.89495 0.26398 0.45131
 H1536 H 0.82047 0.31807 0.50786
 C1537 C 0.87984 0.78117 -0.03964
 C1538 C 0.86679 0.79462 -0.02893
 N1539 N 0.87121 0.81495 -0.02775
 C1540 C 0.88837 0.82252 -0.03638
 C1541 C 0.90219 0.80907 -0.04632
 N1542 N 0.89733 0.78863 -0.04800
 N1543 N 0.87472 0.76091 -0.04146
 C1544 C 0.85718 0.75357 -0.03301
 C1545 C 0.84438 0.76704 -0.02190
 N1546 N 0.84959 0.78725 -0.02024
 H1547 H 0.89105 0.83896 -0.03554
 H1548 H 0.85334 0.73743 -0.03485
 C1549 C -0.12081 -0.02379 -0.04632
 C1550 C -0.10746 -0.03631 -0.03509
 N1551 N -0.11257 -0.05622 -0.03111
 C1552 C -0.13035 -0.06424 -0.03800
 C1553 C -0.14375 -0.05180 -0.04957
 N1554 N -0.13847 -0.03179 -0.05325
 N1555 N -0.11557 -0.00408 -0.05087
 C1556 C -0.09741 0.00366 -0.04495
 C1557 C -0.08374 -0.00890 -0.03399
 N1558 N -0.08923 -0.02863 -0.02917
 H1559 H -0.13346 -0.08036 -0.03512
 H1560 H -0.09360 0.01939 -0.04904
 C1561 C -0.12110 0.45798 0.48892
 C1562 C -0.11070 0.47460 0.48011
 N1563 N -0.11932 0.48546 0.46449
 C1564 C -0.13772 0.48015 0.45683
 C1565 C -0.14805 0.46278 0.46499
 N1566 N -0.13930 0.45253 0.48118
 N1567 N -0.11254 0.44704 0.50457
 C1568 C -0.09381 0.45187 0.51165
 C1569 C -0.08308 0.46827 0.50247
 N1570 N -0.09193 0.47932 0.48698
 H1571 H -0.14384 0.48961 0.44460
 H1572 H -0.08723 0.44272 0.52395
 C1573 C 0.37692 -0.03627 0.45081
 C1574 C 0.38956 -0.05050 0.46081
 N1575 N 0.38372 -0.07054 0.46222
 C1576 C 0.36587 -0.07703 0.45400
 C1577 C 0.35319 -0.06280 0.44374
 N1578 N 0.35920 -0.04272 0.44256
 N1579 N 0.38280 -0.01633 0.44893
 C1580 C 0.40093 -0.00996 0.45635
 C1581 C 0.41391 -0.02419 0.46610
 N1582 N 0.40777 -0.04418 0.46823
 H1583 H 0.36205 -0.09322 0.45493
 H1584 H 0.40525 0.00604 0.45440
 C1585 C 0.37943 0.47968 -0.04467
 C1586 C 0.38273 0.47765 -0.02324
 N1587 N 0.36747 0.47133 -0.01071
 C1588 C 0.34934 0.46584 -0.01874
 C1589 C 0.34640 0.46601 -0.04053
 N1590 N 0.36144 0.47380 -0.05280
 N1591 N 0.39474 0.48612 -0.05717
 C1592 C 0.41331 0.49026 -0.04922
 C1593 C 0.41683 0.48737 -0.02784
 N1594 N 0.40132 0.48135 -0.01535
 H1595 H 0.33754 0.46126 -0.00804
 H1596 H 0.42534 0.49509 -0.05959
 C1597 C 0.39039 0.47493 0.78912
 C1598 C 0.38396 0.46719 0.76991
 N1599 N 0.39465 0.45183 0.76059
 C1600 C 0.41111 0.44337 0.76993
 C1601 C 0.41691 0.45024 0.78987
 N1602 N 0.40646 0.46619 0.79863
 N1603 N 0.37981 0.49027 0.79854
 C1604 C 0.36273 0.49795 0.78983
 C1605 C 0.35565 0.48958 0.77102
 N1606 N 0.36665 0.47451 0.76139
 H1607 H 0.41922 0.43128 0.76187
 H1608 H 0.35437 0.50986 0.79798
 C1609 C 0.37234 -0.04417 0.26708
 C1610 C 0.36026 -0.03448 0.28222
 N1611 N 0.36735 -0.03247 0.30185
 C1612 C 0.38604 -0.03949 0.30704
 C1613 C 0.39849 -0.04891 0.29183
 N1614 N 0.39108 -0.05108 0.27219
 N1615 N 0.36507 -0.04667 0.24756
 C1616 C 0.34622 -0.04001 0.24250
 C1617 C 0.33401 -0.03025 0.25761
 N1618 N 0.34144 -0.02769 0.27716
 H1619 H 0.39081 -0.03805 0.32302
 H1620 H 0.34082 -0.04234 0.22681
 C1621 C 0.15061 0.53016 0.71042
 C1622 C 0.15862 0.53726 0.72924
 N1623 N 0.14691 0.54879 0.74219
 C1624 C 0.12767 0.55399 0.73694
 C1625 C 0.11983 0.54768 0.71760
 N1626 N 0.13157 0.53562 0.70502
 N1627 N 0.16223 0.51854 0.69748
 C1628 C 0.18167 0.51390 0.70240
 C1629 C 0.18998 0.52151 0.72099
 N1630 N 0.17811 0.53293 0.73403
 H1631 H 0.11878 0.56307 0.74773
 H1632 H 0.19067 0.50482 0.69166
 C1633 C 0.13560 0.03657 0.19423
 C1634 C 0.14699 0.04882 0.20779
 N1635 N 0.14066 0.06834 0.21207
 C1636 C 0.12347 0.07616 0.20346
 C1637 C 0.11185 0.06390 0.18982
 N1638 N 0.11845 0.04433 0.18566
 N1639 N 0.14208 0.01725 0.18946
 C1640 C 0.15955 0.00965 0.19748
 C1641 C 0.17121 0.02187 0.21101
 N1642 N 0.16450 0.04124 0.21592
 H1643 H 0.11938 0.09195 0.20690
 H1644 H 0.16437 -0.00576 0.19317
 C1645 C 0.61753 0.71554 0.20282
 C1646 C 0.60969 0.70823 0.22167
 N1647 N 0.62100 0.69523 0.23341
 C1648 C 0.63974 0.68906 0.22710
 C1649 C 0.64765 0.69605 0.20793
 N1650 N 0.63616 0.70930 0.19643
 N1651 N 0.60635 0.72869 0.19112
 C1652 C 0.58759 0.73478 0.19737
 C1653 C 0.57947 0.72730 0.21618
 N1654 N 0.59087 0.71416 0.22789
 H1655 H 0.64834 0.67908 0.23719
 H1656 H 0.57900 0.74512 0.18756
 C1657 C 0.12212 0.72359 0.70908
 C1658 C 0.11136 0.70941 0.72135
 N1659 N 0.11872 0.69011 0.72407
 C1660 C 0.13647 0.68429 0.71521
 C1661 C 0.14761 0.69850 0.70310
 N1662 N 0.13997 0.71785 0.70024
 N1663 N 0.11431 0.74271 0.70587
 C1664 C 0.09612 0.74818 0.71418
 C1665 C 0.08525 0.73388 0.72633
 N1666 N 0.09328 0.71486 0.72967
 H1667 H 0.14149 0.66853 0.71726
 H1668 H 0.09009 0.76341 0.71109
 C1669 C 0.61832 0.23009 0.54224
 C1670 C 0.63009 0.21813 0.52860
 N1671 N 0.62280 0.20000 0.52136
 C1672 C 0.60433 0.19307 0.52733
 C1673 C 0.59245 0.20482 0.54136
 N1674 N 0.59989 0.22316 0.54833
 N1675 N 0.62592 0.24791 0.55002
 C1676 C 0.64491 0.25417 0.54497
 C1677 C 0.65691 0.24195 0.53162
 N1678 N 0.64906 0.22429 0.52362
 H1679 H 0.59970 0.17805 0.52189
 H1680 H 0.65065 0.26836 0.55158
 C1681 C 0.64308 0.72000 0.04832
 C1682 C 0.65023 0.71528 0.02833
 N1683 N 0.63823 0.70490 0.01488
 C1684 C 0.61950 0.69850 0.02069
 C1685 C 0.61257 0.70235 0.04107
 N1686 N 0.62453 0.71334 0.05425
 N1687 N 0.65512 0.73044 0.06175
 C1688 C 0.67417 0.73615 0.05615
 C1689 C 0.68157 0.73085 0.03632
 N1690 N 0.66929 0.72066 0.02287
 H1691 H 0.61029 0.69032 0.00955
 H1692 H 0.68357 0.74421 0.06723
 C1693 C 0.11751 0.05988 0.01307
 C1694 C 0.11187 0.03910 0.01442
 N1695 N 0.12434 0.02540 0.02370
 C1696 C 0.14186 0.03161 0.03260
 C1697 C 0.14704 0.05285 0.03292
 N1698 N 0.13482 0.06627 0.02239
 N1699 N 0.10496 0.07352 0.00355
 C1700 C 0.08681 0.06733 -0.00419
 C1701 C 0.08072 0.04665 -0.00181
 N1702 N 0.09362 0.03303 0.00724
 H1703 H 0.15139 0.01980 0.03915
 H1704 H 0.07685 0.07861 -0.01117
 C1705 C 0.12223 0.51905 0.55527
 C1706 C 0.11326 0.52530 0.53663
 N1707 N 0.12365 0.53770 0.52339
 C1708 C 0.14258 0.54438 0.52804
 C1709 C 0.15158 0.53862 0.54702
 N1710 N 0.14106 0.52587 0.56003
 N1711 N 0.11189 0.50647 0.56841
 C1712 C 0.09285 0.49998 0.56382
 C1713 C 0.08363 0.50652 0.54527
 N1714 N 0.09421 0.51902 0.53213
 H1715 H 0.15047 0.55386 0.51684
 H1716 H 0.08489 0.49016 0.57471
 C1717 C 0.60825 0.05210 0.53127
 C1718 C 0.60056 0.03436 0.54083
 N1719 N 0.61030 0.02648 0.55755
 C1720 C 0.62734 0.03547 0.56521
 C1721 C 0.63531 0.05357 0.55576
 N1722 N 0.62520 0.06117 0.53891
 N1723 N 0.59856 0.06016 0.51461
 C1724 C 0.58142 0.05134 0.50713
 C1725 C 0.57340 0.03356 0.51675
 N1726 N 0.58332 0.02548 0.53346
 H1727 H 0.63405 0.02839 0.57864
 H1728 H 0.57404 0.05833 0.49391
 C1729 C 0.61306 0.52899 0.05692
 C1730 C 0.60809 0.53271 0.03613
 N1731 N 0.62078 0.54398 0.02403
 C1732 C 0.63811 0.55209 0.03186
 C1733 C 0.64290 0.54911 0.05298
 N1734 N 0.63022 0.53731 0.06486
 N1735 N 0.60031 0.51769 0.06901
 C1736 C 0.58261 0.51022 0.06130
 C1737 C 0.57726 0.51451 0.04060
 N1738 N 0.59034 0.52556 0.02854
 H1739 H 0.64793 0.56071 0.02160
 H1740 H 0.57254 0.50168 0.07142
 C1741 C 0.03738 0.05906 0.10424
 C1742 C 0.04849 0.04402 0.09350
 N1743 N 0.06612 0.03717 0.10170
 C1744 C 0.07323 0.04465 0.12009
 C1745 C 0.06225 0.06009 0.13110
 N1746 N 0.04448 0.06667 0.12250
 N1747 N 0.01977 0.06606 0.09612
 C1748 C 0.01282 0.05883 0.07763
 C1749 C 0.02402 0.04388 0.06650
 N1750 N 0.04167 0.03680 0.07487
 H1751 H 0.08748 0.03866 0.12541
 H1752 H -0.00121 0.06494 0.07159
 C1753 C 0.03715 0.53476 0.64269
 C1754 C 0.04890 0.52068 0.63126
 N1755 N 0.06825 0.51699 0.63691
 C1756 C 0.07646 0.52664 0.65359
 C1757 C 0.06473 0.54064 0.66545
 N1758 N 0.04528 0.54438 0.65949
 N1759 N 0.01800 0.53901 0.63643
 C1760 C 0.01021 0.53000 0.61909
 C1761 C 0.02207 0.51601 0.60751
 N1762 N 0.04112 0.51165 0.61405
 H1763 H 0.09219 0.52375 0.65697
 H1764 H -0.00495 0.53397 0.61422
 C1765 C 0.52657 0.03215 0.61517
 C1766 C 0.53903 0.01907 0.60344
 N1767 N 0.55747 0.01381 0.61089
 C1768 C 0.56420 0.02126 0.62941
 C1769 C 0.55196 0.03507 0.64112
 N1770 N 0.53333 0.03978 0.63343
 N1771 N 0.50820 0.03771 0.60778
 C1772 C 0.50184 0.03107 0.58890
 C1773 C 0.51455 0.01843 0.57668
 N1774 N 0.53283 0.01256 0.58442
 H1775 H 0.57920 0.01685 0.63412
 H1776 H 0.48722 0.03606 0.58332
 C1777 C 0.52383 0.54397 0.12872
 C1778 C 0.52478 0.52279 0.12430
 N1779 N 0.53414 0.50986 0.13773
 C1780 C 0.54324 0.51722 0.15511
 C1781 C 0.54349 0.53864 0.15904
 N1782 N 0.53331 0.55143 0.14586
 N1783 N 0.51447 0.55687 0.11518
 C1784 C 0.50648 0.54959 0.09712
 C1785 C 0.50839 0.52851 0.09214
 N1786 N 0.51730 0.51562 0.10609
 H1787 H 0.55046 0.50642 0.16551
 H1788 H 0.49970 0.56034 0.08633
 C1789 C 0.23747 0.53721 0.61941
 C1790 C 0.23126 0.51883 0.62886
 N1791 N 0.21673 0.50719 0.61972
 C1792 C 0.20771 0.51338 0.60179
 C1793 C 0.21319 0.53241 0.59271
 N1794 N 0.22824 0.54355 0.60181
 N1795 N 0.25190 0.54898 0.62850
 C1796 C 0.26015 0.54339 0.64698
 C1797 C 0.25338 0.52538 0.65700
 N1798 N 0.23920 0.51341 0.64749
 H1799 H 0.19631 0.50356 0.59505
 H1800 H 0.27129 0.55334 0.65408
 C1801 C 0.22024 0.04152 0.11759
 C1802 C 0.20850 0.02658 0.12773
 N1803 N 0.19031 0.02115 0.11984
 C1804 C 0.18318 0.03010 0.10227
 C1805 C 0.19482 0.04527 0.09203
 N1806 N 0.21315 0.05047 0.10007
 N1807 N 0.23813 0.04748 0.12591
 C1808 C 0.24470 0.03932 0.14413
 C1809 C 0.23277 0.02457 0.15449
 N1810 N 0.21502 0.01847 0.14587
 H1811 H 0.16824 0.02593 0.09702
 H1812 H 0.25889 0.04453 0.15057
 C1813 C 0.69587 0.22445 0.63193
 C1814 C 0.70993 0.21309 0.62022
 N1815 N 0.71524 0.19387 0.62642
 C1816 C 0.70732 0.18547 0.64399
 C1817 C 0.69348 0.19689 0.65623
 N1818 N 0.68800 0.21615 0.64964
 N1819 N 0.69015 0.24348 0.62524
 C1820 C 0.69782 0.25159 0.60731
 C1821 C 0.71201 0.24022 0.59558
 N1822 N 0.71766 0.22120 0.60247
 H1823 H 0.71155 0.16985 0.64792
 H1824 H 0.69284 0.26669 0.60225
 C1825 C 0.72920 0.70549 0.12980
 C1826 C 0.72227 0.72459 0.12258
 N1827 N 0.70774 0.73482 0.13347
 C1828 C 0.69953 0.72662 0.15109
 C1829 C 0.70592 0.70701 0.15805
 N1830 N 0.72084 0.69719 0.14714
 N1831 N 0.74373 0.69518 0.11904
 C1832 C 0.75147 0.70298 0.10110
 C1833 C 0.74417 0.72189 0.09337
 N1834 N 0.72977 0.73231 0.10448
 H1835 H 0.68820 0.73544 0.15935
 H1836 H 0.76278 0.69418 0.09268
 C1837 C 0.53168 0.70218 0.12067
 C1838 C 0.54113 0.71845 0.13114
 N1839 N 0.55850 0.72650 0.12355
 C1840 C 0.56699 0.71910 0.10584
 C1841 C 0.55760 0.70282 0.09486
 N1842 N 0.54007 0.69478 0.10279
 N1843 N 0.51464 0.69369 0.12891
 C1844 C 0.50677 0.70068 0.14727
 C1845 C 0.51638 0.71698 0.15779
 N1846 N 0.53329 0.72543 0.14927
 H1847 H 0.58123 0.72568 0.10108
 H1848 H 0.49336 0.69348 0.15365
 C1849 C 0.03937 0.71993 0.62865
 C1850 C 0.02813 0.70613 0.64085
 N1851 N 0.02606 0.68627 0.63465
 C1852 C 0.03475 0.67947 0.61676
 C1853 C 0.04607 0.69321 0.60427
 N1854 N 0.04804 0.71319 0.61071
 N1855 N 0.04211 0.73960 0.63537
 C1856 C 0.03437 0.74599 0.65394
 C1857 C 0.02335 0.73205 0.66634
 N1858 N 0.02040 0.71248 0.65932
 H1859 H 0.03334 0.66330 0.61295
 H1860 H 0.03713 0.76163 0.65913
 C1861 C 0.53095 0.62087 0.21606
 C1862 C 0.54537 0.63482 0.22362
 N1863 N 0.56513 0.62917 0.22402
 C1864 C 0.57116 0.61025 0.21713
 C1865 C 0.55674 0.59619 0.20936
 N1866 N 0.53694 0.60203 0.20913
 N1867 N 0.51127 0.62662 0.21507
 C1868 C 0.50536 0.64585 0.22096
 C1869 C 0.51980 0.66010 0.22814
 N1870 N 0.53952 0.65411 0.22948
 H1871 H 0.58711 0.60666 0.21712
 H1872 H 0.48958 0.65010 0.21966
 C1873 C 0.04079 0.62780 0.71411
 C1874 C 0.05394 0.64224 0.72305
 N1875 N 0.07376 0.63755 0.72522
 C1876 C 0.08107 0.61887 0.71925
 C1877 C 0.06786 0.60384 0.71105
 N1878 N 0.04799 0.60892 0.70843
 N1879 N 0.02104 0.63292 0.71137
 C1880 C 0.01388 0.65180 0.71726
 C1881 C 0.02700 0.66609 0.72665
 N1882 N 0.04675 0.66086 0.72923
 H1883 H 0.09710 0.61605 0.72073
 H1884 H -0.00191 0.65550 0.71488
 C1885 C 0.02717 0.14380 0.01499
 C1886 C 0.01507 0.13161 0.02809
 N1887 N 0.01114 0.13797 0.04774
 C1888 C 0.01899 0.15588 0.05508
 C1889 C 0.03152 0.16802 0.04217
 N1890 N 0.03516 0.16160 0.02233
 N1891 N 0.03173 0.13702 -0.00443
 C1892 C 0.02515 0.11832 -0.01116
 C1893 C 0.01365 0.10575 0.00225
 N1894 N 0.00866 0.11291 0.02146
 H1895 H 0.01625 0.15986 0.07117
 H1896 H 0.02941 0.11308 -0.02655
 C1897 C 0.03103 0.61361 0.54696
 C1898 C 0.04499 0.60042 0.53724
 N1899 N 0.06396 0.60732 0.53319
 C1900 C 0.06973 0.62674 0.53868
 C1901 C 0.05586 0.63994 0.54888
 N1902 N 0.03678 0.63287 0.55250
 N1903 N 0.01225 0.60664 0.55169
 C1904 C 0.00686 0.58688 0.54745
 C1905 C 0.02092 0.57340 0.53808
 N1906 N 0.03965 0.58063 0.53299
 H1907 H 0.08521 0.63127 0.53590
 H1908 H -0.00817 0.58170 0.55160
 C1909 C 0.51891 0.12109 0.54130
 C1910 C 0.53240 0.10994 0.52863
 N1911 N 0.55113 0.11738 0.52484
 C1912 C 0.55698 0.13574 0.53281
 C1913 C 0.54334 0.14756 0.54486
 N1914 N 0.52463 0.13971 0.54912
 N1915 N 0.50036 0.11304 0.54550
 C1916 C 0.49474 0.09440 0.53752
 C1917 C 0.50821 0.08352 0.52451
 N1918 N 0.52671 0.09165 0.52051
 H1919 H 0.57229 0.14085 0.52987
 H1920 H 0.47992 0.08827 0.54112
 C1921 C 0.53666 0.62095 0.03698
 C1922 C 0.55057 0.60616 0.02974
 N1923 N 0.57062 0.61048 0.03004
 C1924 C 0.57740 0.62898 0.03712
 C1925 C 0.56348 0.64394 0.04424
 N1926 N 0.54340 0.63942 0.04406
 N1927 N 0.51664 0.61653 0.03704
 C1928 C 0.50989 0.59787 0.03045
 C1929 C 0.52379 0.58287 0.02346
 N1930 N 0.54386 0.58748 0.02317
 H1931 H 0.59351 0.63178 0.03746
 H1932 H 0.49383 0.59468 0.03097
 C1933 C 0.70547 0.14185 0.55308
 C1934 C 0.69554 0.15137 0.53653
 N1935 N 0.67951 0.14175 0.52769
 C1936 C 0.67283 0.12308 0.53469
 C1937 C 0.68264 0.11329 0.55161
 N1938 N 0.69884 0.12330 0.56009
 N1939 N 0.72145 0.15137 0.56211
 C1940 C 0.72794 0.17012 0.55536
 C1941 C 0.71799 0.17994 0.53877
 N1942 N 0.70196 0.17018 0.52973
 H1943 H 0.66008 0.11633 0.52687
 H1944 H 0.74064 0.17733 0.56302
 C1945 C 0.72164 0.62975 0.05258
 C1946 C 0.70941 0.64329 0.04117
 N1947 N 0.68960 0.63878 0.03844
 C1948 C 0.68144 0.62118 0.04632
 C1949 C 0.69369 0.60713 0.05736
 N1950 N 0.71356 0.61201 0.06036
 N1951 N 0.74139 0.63459 0.05566
 C1952 C 0.74943 0.65236 0.04788
 C1953 C 0.73723 0.66593 0.03629
 N1954 N 0.71744 0.66094 0.03329
 H1955 H 0.66547 0.61845 0.04416
 H1956 H 0.76518 0.65584 0.05074
 C1957 C 0.23246 0.62626 0.70265
 C1958 C 0.22088 0.61293 0.71508
 N1959 N 0.20133 0.61747 0.71926
 C1960 C 0.19276 0.63492 0.71179
 C1961 C 0.20433 0.64878 0.69971
 N1962 N 0.22396 0.64392 0.69524
 N1963 N 0.25189 0.62113 0.69796
 C1964 C 0.26017 0.60321 0.70508
 C1965 C 0.24850 0.58989 0.71757
 N1966 N 0.22914 0.59523 0.72224
 H1967 H 0.17690 0.63758 0.71496
 H1968 H 0.27560 0.59935 0.70092
 C1969 C 0.22111 0.11977 0.20841
 C1970 C 0.20747 0.10726 0.21936
 N1971 N 0.18861 0.11448 0.22355
 C1972 C 0.18273 0.13364 0.21729
 C1973 C 0.19638 0.14634 0.20624
 N1974 N 0.21528 0.13886 0.20217
 N1975 N 0.23982 0.11249 0.20373
 C1976 C 0.24549 0.09312 0.20935
 C1977 C 0.23184 0.08037 0.22021
 N1978 N 0.21312 0.08788 0.22505
 H1979 H 0.16740 0.13851 0.22046
 H1980 H 0.26047 0.08770 0.20522
 C1981 C 0.71454 1.11532 0.70808
 C1982 C 0.70742 1.10701 0.72685
 N1983 N 0.69503 1.11845 0.73911
 C1984 C 0.68872 1.13748 0.73308
 C1985 C 0.69475 1.14547 0.71349
 N1986 N 0.70808 1.13417 0.70190
 N1987 N 0.72700 1.10398 0.69578
 C1988 C 0.73254 1.08459 0.70134
 C1989 C 0.72509 1.07601 0.71998
 N1990 N 0.71275 1.08755 0.73237
 H1991 H 0.67921 1.14606 0.74370
 H1992 H 0.74240 1.07587 0.69111
 C1993 C 0.71177 0.61993 0.23080
 C1994 C 0.72481 0.60948 0.21710
 N1995 N 0.72843 0.61738 0.19797
 C1996 C 0.71976 0.63538 0.19188
 C1997 C 0.70686 0.64626 0.20562
 N1998 N 0.70311 0.63804 0.22479
 N1999 N 0.70767 0.61156 0.24971
 C2000 C 0.71587 0.59312 0.25543
 C2001 C 0.72886 0.58254 0.24164
 N2002 N 0.73303 0.59114 0.22281
 H2003 H 0.72260 0.64074 0.17624
 H2004 H 0.71206 0.58667 0.27046
 C2005 C 0.53334 0.11513 0.71917
 C2006 C 0.52126 0.12643 0.70537
 N2007 N 0.51946 0.11998 0.68542
 C2008 C 0.52917 0.10273 0.67859
 C2009 C 0.54132 0.09120 0.69237
 N2010 N 0.54306 0.09788 0.71239
 N2011 N 0.53571 0.12198 0.73895
 C2012 C 0.52677 0.13978 0.74547
 C2013 C 0.51488 0.15134 0.73158
 N2014 N 0.51231 0.14422 0.71184
 H2015 H 0.52786 0.09863 0.66236
 H2016 H 0.52921 0.14503 0.76124
 C2017 C 1.04648 0.13691 0.21434
 C2018 C 1.03480 0.14957 0.20144
 N2019 N 1.03274 0.14454 0.18108
 C2020 C 1.04179 0.12742 0.17297
 C2021 C 1.05356 0.11447 0.18579
 N2022 N 1.05555 0.11976 0.20627
 N2023 N 1.04900 0.14228 0.23458
 C2024 C 1.04057 0.15986 0.24246
 C2025 C 1.02901 0.17279 0.22952
 N2026 N 1.02638 0.16715 0.20926
 H2027 H 1.04021 0.12449 0.15652
 H2028 H 1.04316 0.16385 0.25857
 C2029 C 0.20791 0.61866 0.51929
 C2030 C 0.22143 0.62979 0.53173
 N2031 N 0.22733 0.62197 0.55023
 C2032 C 0.22052 0.60336 0.55686
 C2033 C 0.20727 0.59174 0.54430
 N2034 N 0.20116 0.59991 0.52580
 N2035 N 0.20158 0.62693 0.50103
 C2036 C 0.20812 0.64586 0.49473
 C2037 C 0.22176 0.65697 0.50720
 N2038 N 0.22805 0.64853 0.52541
 H2039 H 0.22512 0.59807 0.57205
 H2040 H 0.20272 0.65215 0.48020
 C2041 C 0.20215 0.13740 1.02864
 C2042 C 0.20892 0.14951 1.04537
 N2043 N 0.20720 0.14214 1.06502
 C2044 C 0.19926 0.12313 1.06868
 C2045 C 0.19281 0.11076 1.05190
 N2046 N 0.19432 0.11840 1.03227
 N2047 N 0.20351 0.14480 1.00902
 C2048 C 0.21116 0.16387 1.00533
 C2049 C 0.21787 0.17615 1.02201
 N2050 N 0.21667 0.16861 1.04172
 H2051 H 0.19790 0.11783 1.08456
 H2052 H 0.21188 0.16945 0.98948
 C2053 C 0.21518 0.69703 0.61132
 C2054 C 0.20886 0.71654 0.60451
 N2055 N 0.19698 0.72829 0.61706
 C2056 C 0.19093 0.72137 0.63605
 C2057 C 0.19683 0.70155 0.64287
 N2058 N 0.20902 0.69001 0.63019
 N2059 N 0.22732 0.68538 0.59890
 C2060 C 0.23337 0.69233 0.57992
 C2061 C 0.22687 0.71181 0.57289
 N2062 N 0.21472 0.72343 0.58548
 H2063 H 0.18188 0.73148 0.64570
 H2064 H 0.24292 0.68260 0.57032
 C2065 C 0.20273 0.22543 1.12448
 C2066 C 0.22072 0.21759 1.11609
 N2067 N 0.23123 0.20302 1.12672
 C2068 C 0.22438 0.19568 1.14529
 C2069 C 0.20597 0.20310 1.15356
 N2070 N 0.19581 0.21797 1.14281
 N2071 N 0.19220 0.24004 1.11397
 C2072 C 0.19879 0.24708 1.09523
 C2073 C 0.21663 0.23894 1.08650
 N2074 N 0.22720 0.22441 1.09728
 H2075 H 0.23332 0.18428 1.15336
 H2076 H 0.18994 0.25855 1.08709
 C2077 C 0.71831 0.54594 0.13632
 C2078 C 0.70546 0.53358 0.14843
 N2079 N 0.68609 0.53061 0.14241
 C2080 C 0.67900 0.53915 0.12462
 C2081 C 0.69194 0.55107 0.11189
 N2082 N 0.71133 0.55433 0.11832
 N2083 N 0.73752 0.54942 0.14285
 C2084 C 0.74441 0.54112 0.16095
 C2085 C 0.73157 0.52854 0.17300
 N2086 N 0.71237 0.52512 0.16633
 H2087 H 0.66328 0.53683 0.12075
 H2088 H 0.75972 0.54429 0.16586
 C2089 C 0.70420 1.03086 0.62571
 C2090 C 0.71475 1.04432 0.63885
 N2091 N 0.71447 1.06488 0.63494
 C2092 C 0.70420 1.07265 0.61843
 C2093 C 0.69365 1.05924 0.60498
 N2094 N 0.69394 1.03858 0.60915
 N2095 N 0.70395 1.01035 0.63002
 C2096 C 0.71355 1.00271 0.64704
 C2097 C 0.72397 1.01619 0.66043
 N2098 N 0.72437 1.03673 0.65585
 H2099 H 0.70390 1.08919 0.61627
 H2100 H 0.71273 0.98634 0.65028
 C2101 C 0.51960 0.20161 0.62847
 C2102 C 0.53232 0.21362 0.64098
 N2103 N 0.55108 0.21853 0.63407
 C2104 C 0.55771 0.21216 0.61510
 C2105 C 0.54489 0.20041 0.60219
 N2106 N 0.52612 0.19535 0.60942
 N2107 N 0.50105 0.19615 0.63571
 C2108 C 0.49471 0.20206 0.65498
 C2109 C 0.50745 0.21413 0.66755
 N2110 N 0.52596 0.21966 0.66012
 H2111 H 0.57300 0.21592 0.61056
 H2112 H 0.47994 0.19730 0.66044
 C2113 C 1.04694 0.23336 0.13046
 C2114 C 1.02650 0.23168 0.13608
 N2115 N 1.01275 0.22608 0.12166
 C2116 C 1.01857 0.22106 0.10205
 C2117 C 1.03936 0.22098 0.09657
 N2118 N 1.05290 0.22792 0.11095
 N2119 N 1.06062 0.23940 0.14491
 C2120 C 1.05475 0.24356 0.16480
 C2121 C 1.03435 0.24111 0.17060
 N2122 N 1.02070 0.23538 0.15597
 H2123 H 1.00685 0.21730 0.09105
 H2124 H 1.06598 0.24817 0.17607
 C2125 C 0.60900 0.21367 0.71349
 C2126 C 0.59688 0.19753 0.72114
 N2127 N 0.60382 0.17789 0.72051
 C2128 C 0.62255 0.17363 0.71304
 C2129 C 0.63519 0.18980 0.70622
 N2130 N 0.62794 0.20950 0.70631
 N2131 N 0.60165 0.23325 0.71357
 C2132 C 0.58274 0.23737 0.72091
 C2133 C 0.57077 0.22123 0.72885
 N2134 N 0.57820 0.20168 0.72873
 H2135 H 0.62755 0.15772 0.71258
 H2136 H 0.57712 0.25307 0.72060
 C2137 C 1.12534 0.21412 0.23142
 C2138 C 1.11541 0.22803 0.21823
 N2139 N 1.12326 0.23220 0.19925
 C2140 C 1.14066 0.22313 0.19275
 C2141 C 1.15096 0.20923 0.20592
 N2142 N 1.14284 0.20506 0.22500
 N2143 N 1.11688 0.20933 0.25008
 C2144 C 1.09878 0.21759 0.25596
 C2145 C 1.08870 0.23132 0.24257
 N2146 N 1.09744 0.23627 0.22408
 H2147 H 1.14578 0.22630 0.17712
 H2148 H 1.09217 0.21317 0.27072
 C2149 C 0.12828 0.70437 0.52685
 C2150 C 0.14042 0.71596 0.54031
 N2151 N 0.13415 0.71930 0.56015
 C2152 C 0.11632 0.71145 0.56720
 C2153 C 0.10413 0.69959 0.55379
 N2154 N 0.11056 0.69650 0.53388
 N2155 N 0.13469 0.70053 0.50718
 C2156 C 0.15289 0.70755 0.50039
 C2157 C 0.16533 0.71890 0.51392
 N2158 N 0.15865 0.72297 0.53358
 H2159 H 0.11222 0.71390 0.58330
 H2160 H 0.15769 0.70404 0.48466
 C2161 C 0.12129 0.23368 1.03923
 C2162 C 0.13296 0.21825 1.02955
 N2163 N 0.12546 0.19884 1.02805
 C2164 C 0.10677 0.19417 1.03560
 C2165 C 0.09485 0.20968 1.04507
 N2166 N 0.10261 0.22907 1.04672
 N2167 N 0.12886 0.25302 1.04110
 C2168 C 0.14766 0.25762 1.03392
 C2169 C 0.15953 0.24220 1.02432
 N2170 N 0.15179 0.22282 1.02229
 H2171 H 0.10148 0.17843 1.03444
 H2172 H 0.15333 0.27317 1.03583
 C2173 C 0.63216 0.53315 0.22770
 C2174 C 0.64350 0.52166 0.21326
 N2175 N 0.63597 0.51829 0.19399
 C2176 C 0.61760 0.52590 0.18844
 C2177 C 0.60613 0.53751 0.20286
 N2178 N 0.61386 0.54080 0.22218
 N2179 N 0.63986 0.53694 0.24683
 C2180 C 0.65854 0.52998 0.25211
 C2181 C 0.67012 0.51873 0.23757
 N2182 N 0.66218 0.51474 0.21849
 H2183 H 0.61243 0.52341 0.17273
 H2184 H 0.66437 0.53348 0.26740
 C2185 C 0.62954 1.02064 0.70033
 C2186 C 0.63994 1.03399 0.71364
 N2187 N 0.63174 1.05260 0.71850
 C2188 C 0.61357 1.05853 0.71065
 C2189 C 0.60289 1.04515 0.69728
 N2190 N 0.61138 1.02649 0.69257
 N2191 N 0.63795 1.00224 0.69499
 C2192 C 0.65642 0.99661 0.70230
 C2193 C 0.66695 1.00997 0.71568
 N2194 N 0.65832 1.02836 0.72105
 H2195 H 0.60801 1.07374 0.71450
 H2196 H 0.66280 0.98191 0.69766
 C2197 C 0.87134 0.45466 0.29060
 C2198 C 0.85765 0.46425 0.30427
 N2199 N 0.86197 0.46540 0.32478
 C2200 C 0.87958 0.45777 0.33229
 C2201 C 0.89386 0.44879 0.31863
 N2202 N 0.88917 0.44721 0.29803
 N2203 N 0.86657 0.45306 0.27012
 C2204 C 0.84873 0.46062 0.26276
 C2205 C 0.83515 0.47051 0.27645
 N2206 N 0.84006 0.47198 0.29691
 H2207 H 0.88224 0.45860 0.34885
 H2208 H 0.84524 0.45901 0.24641
 C2209 C 0.87023 0.97464 0.78600
 C2210 C 0.86560 0.97147 0.76494
 N2211 N 0.88016 0.96447 0.75180
 C2212 C 0.89891 0.95973 0.75891
 C2213 C 0.90320 0.96152 0.78029
 N2214 N 0.88878 0.96940 0.79321
 N2215 N 0.85574 0.98178 0.79915
 C2216 C 0.83674 0.98563 0.79226
 C2217 C 0.83182 0.98171 0.77134
 N2218 N 0.84648 0.97483 0.75812
 H2219 H 0.91012 0.95389 0.74808
 H2220 H 0.82542 0.99108 0.80318
 C2221 C 0.36950 0.26954 0.79577
 C2222 C 0.38223 0.28126 0.78292
 N2223 N 0.37713 0.30083 0.77788
 C2224 C 0.35960 0.30926 0.78478
 C2225 C 0.34620 0.29746 0.79707
 N2226 N 0.35170 0.27785 0.80253
 N2227 N 0.37528 0.25013 0.80129
 C2228 C 0.39319 0.24198 0.79446
 C2229 C 0.40571 0.25372 0.78127
 N2230 N 0.39978 0.27309 0.77597
 H2231 H 0.35649 0.32518 0.78091
 H2232 H 0.39754 0.22658 0.79918
 C2233 C 0.88625 0.29979 0.28557
 C2234 C 0.89106 0.27888 0.28837
 N2235 N 0.87785 0.26641 0.29847
 C2236 C 0.86027 0.27396 0.30645
 C2237 C 0.85577 0.29522 0.30476
 N2238 N 0.86887 0.30750 0.29394
 N2239 N 0.89937 0.31217 0.27514
 C2240 C 0.91722 0.30465 0.26766
 C2241 C 0.92243 0.28384 0.27111
 N2242 N 0.90906 0.27146 0.28134
 H2243 H 0.85004 0.26338 0.31406
 H2244 H 0.92754 0.31501 0.25979
 C2245 C 0.36674 0.77494 0.44989
 C2246 C 0.35551 0.78714 0.46378
 N2247 N 0.36236 0.80613 0.46905
 C2248 C 0.37998 0.81355 0.46111
 C2249 C 0.39155 0.80135 0.44723
 N2250 N 0.38441 0.78228 0.44198
 N2251 N 0.35947 0.75623 0.44403
 C2252 C 0.34135 0.74926 0.45129
 C2253 C 0.32997 0.76155 0.46513
 N2254 N 0.33748 0.78019 0.47109
 H2255 H 0.38435 0.82909 0.46517
 H2256 H 0.33581 0.73441 0.44614
 C2257 C 0.36635 0.29465 0.97586
 C2258 C 0.35443 0.28477 0.96081
 N2259 N 0.36155 0.28286 0.94113
 C2260 C 0.38015 0.29004 0.93582
 C2261 C 0.39254 0.29944 0.95095
 N2262 N 0.38511 0.30170 0.97065
 N2263 N 0.35890 0.29707 0.99541
 C2264 C 0.34007 0.29021 1.00054
 C2265 C 0.32810 0.28025 0.98550
 N2266 N 0.33569 0.27776 0.96594
 H2267 H 0.38507 0.28856 0.91983
 H2268 H 0.33446 0.29260 1.01620
 C2269 C 0.78573 0.45308 0.37591
 C2270 C 0.78851 0.47374 0.37003
 N2271 N 0.79648 0.48733 0.38373
 C2272 C 0.80226 0.48115 0.40296
 C2273 C 0.80038 0.46023 0.40873
 N2274 N 0.79182 0.44677 0.39503
 N2275 N 0.77734 0.43961 0.36225
 C2276 C 0.77172 0.44587 0.34291
 C2277 C 0.77495 0.46648 0.33684
 N2278 N 0.78326 0.47989 0.35066
 H2279 H 0.80829 0.49253 0.41357
 H2280 H 0.76519 0.43480 0.33227
 C2281 C 0.78004 0.95570 0.86742
 C2282 C 0.79291 0.96799 0.85527
 N2283 N 0.81212 0.97140 0.86163
 C2284 C 0.81909 0.96320 0.87967
 C2285 C 0.80621 0.95101 0.89222
 N2286 N 0.78693 0.94758 0.88555
 N2287 N 0.76106 0.95163 0.86062
 C2288 C 0.75444 0.95911 0.84208
 C2289 C 0.76736 0.97135 0.82978
 N2290 N 0.78630 0.97555 0.83682
 H2291 H 0.83472 0.96580 0.88367
 H2292 H 0.73935 0.95531 0.83688
 C2293 C 0.27278 0.78151 0.36556
 C2294 C 0.28615 0.76845 0.37611
 N2295 N 0.30409 0.76340 0.36722
 C2296 C 0.30938 0.77086 0.34824
 C2297 C 0.29602 0.78405 0.33741
 N2298 N 0.27798 0.78891 0.34657
 N2299 N 0.25512 0.78717 0.37477
 C2300 C 0.25032 0.78050 0.39421
 C2301 C 0.26380 0.76752 0.40492
 N2302 N 0.28136 0.76171 0.39546
 H2303 H 0.32419 0.76700 0.34229
 H2304 H 0.23621 0.78540 0.40124
 C2305 C 0.28574 0.28316 0.87916
 C2306 C 0.27690 0.29900 0.89109
 N2307 N 0.27667 0.31854 0.88369
 C2308 C 0.28461 0.32299 0.86474
 C2309 C 0.29299 0.30709 0.85238
 N2310 N 0.29352 0.28753 0.86010
 N2311 N 0.28649 0.26371 0.88689
 C2312 C 0.27892 0.25941 0.90608
 C2313 C 0.27002 0.27525 0.91803
 N2314 N 0.26919 0.29469 0.91016
 H2315 H 0.28457 0.33888 0.85960
 H2316 H 0.27990 0.24379 0.91197
 C2317 C 0.44860 0.27096 0.87497
 C2318 C 0.46841 0.27537 0.86857
 N2319 N 0.48030 0.28732 0.88078
 C2320 C 0.47311 0.29553 0.89884
 C2321 C 0.45280 0.29210 0.90481
 N2322 N 0.44128 0.27953 0.89268
 N2323 N 0.43676 0.25870 0.86304
 C2324 C 0.44377 0.25086 0.84479
 C2325 C 0.46339 0.25586 0.83790
 N2326 N 0.47530 0.26797 0.85009
 H2327 H 0.48327 0.30462 0.90821
 H2328 H 0.43383 0.24143 0.83541
 C2329 C 0.96416 0.29059 0.37652
 C2330 C 0.95011 0.28211 0.36262
 N2331 N 0.93032 0.28121 0.36822
 C2332 C 0.92395 0.28830 0.38709
 C2333 C 0.93804 0.29670 0.40118
 N2334 N 0.95783 0.29762 0.39533
 N2335 N 0.98387 0.29195 0.37091
 C2336 C 0.99021 0.28542 0.35192
 C2337 C 0.97622 0.27707 0.33777
 N2338 N 0.95642 0.27550 0.34356
 H2339 H 0.90800 0.28774 0.39075
 H2340 H 1.00605 0.28688 0.34787
 C2341 C 0.45005 0.35608 0.78867
 C2342 C 0.46749 0.34692 0.79677
 N2343 N 0.47933 0.35777 0.81004
 C2344 C 0.47453 0.37745 0.81560
 C2345 C 0.45699 0.38682 0.80753
 N2346 N 0.44524 0.37569 0.79421
 N2347 N 0.43834 0.34537 0.77516
 C2348 C 0.44336 0.32583 0.76927
 C2349 C 0.46093 0.31658 0.77728
 N2350 N 0.47251 0.32743 0.79094
 H2351 H 0.48463 0.38574 0.82578
 H2352 H 0.43375 0.31767 0.75847
 C2353 C 0.95991 0.37465 0.29115
 C2354 C 0.96976 0.36147 0.30518
 N2355 N 0.96967 0.36604 0.32572
 C2356 C 0.96040 0.38335 0.33291
 C2357 C 0.95085 0.39695 0.31892
 N2358 N 0.95070 0.39208 0.29829
 N2359 N 0.95966 0.36974 0.27064
 C2360 C 0.96868 0.35217 0.26355
 C2361 C 0.97853 0.33890 0.27760
 N2362 N 0.97882 0.34399 0.29812
 H2363 H 0.96035 0.38630 0.34947
 H2364 H 0.96798 0.34852 0.24715
 C2365 C 0.28862 0.86328 0.46252
 C2366 C 0.27586 0.85248 0.44902
 N2367 N 0.27247 0.85994 0.42967
 C2368 C 0.28128 0.87775 0.42313
 C2369 C 0.29414 0.88882 0.43660
 N2370 N 0.29740 0.88110 0.45604
 N2371 N 0.29262 0.85539 0.48162
 C2372 C 0.28462 0.83700 0.48771
 C2373 C 0.27200 0.82598 0.47408
 N2374 N 0.26785 0.83416 0.45508
 H2375 H 0.27869 0.88261 0.40731
 H2376 H 0.28835 0.83091 0.50287
 C2377 C 0.27470 0.38200 0.96501
 C2378 C 0.28824 0.37052 0.97720
 N2379 N 0.30713 0.37777 0.98050
 C2380 C 0.31315 0.39600 0.97219
 C2381 C 0.29963 0.40766 0.95997
 N2382 N 0.28069 0.40022 0.95662
 N2383 N 0.25596 0.37446 0.96128
 C2384 C 0.25026 0.35580 0.96889
 C2385 C 0.26395 0.34405 0.98074
 N2386 N 0.28260 0.35185 0.98476
 H2387 H 0.32856 0.40098 0.97464
 H2388 H 0.23530 0.35004 0.96538
 C2389 C 0.79799 0.37627 0.28372
 C2390 C 0.78684 0.38876 0.29742
 N2391 N 0.78478 0.38310 0.31756
 C2392 C 0.79307 0.36531 0.32469
 C2393 C 0.80373 0.35213 0.31095
 N2394 N 0.80608 0.35822 0.29072
 N2395 N 0.80066 0.38255 0.26372
 C2396 C 0.79271 0.40076 0.25688
 C2397 C 0.78127 0.41313 0.27059
 N2398 N 0.77870 0.40669 0.29055
 H2399 H 0.79156 0.36188 0.34104
 H2400 H 0.79525 0.40550 0.24096
   
