data_POSCAR
  _audit_creation_date              2014-09-24
  _audit_creation_method            'ToBaCCo'
  _symmetry_space_group_name_H-M    'P1'
  _symmetry_Int_Tables_number       1
  _symmetry_cell_setting            triclinic
  loop_
  _symmetry_equiv_pos_as_xyz
 x,y,z
_cell_length_a 36.0910
_cell_length_b 36.0549
_cell_length_c 36.1085
_cell_angle_alpha 89.895800
_cell_angle_beta 90.170300
_cell_angle_gamma 90.051700
loop_
  _atom_site_label
  _atom_site_type_symbol
  _atom_site_fract_x
  _atom_site_fract_y
  _atom_site_fract_z
C1 C 0.24756 1.09743 -0.00096
 C2 C 0.25130 1.07783 0.03220
 C3 C 0.25195 1.03906 0.03141
 C4 C 0.24565 1.01933 -0.00194
 C5 C 0.24096 1.04001 -0.03493
 C6 C 0.24333 1.07881 -0.03464
 C7 C 0.24440 0.97763 -0.00205
 C8 C 0.24900 0.95687 -0.03502
 C9 C 0.24820 0.91796 -0.03449
 C10 C 0.24542 0.89949 -0.00040
 C11 C 0.24124 0.91939 0.03251
 C12 C 0.23897 0.95795 0.03134
 H13 H 0.24828 1.12753 -0.00060
 H14 H 0.25777 1.02479 0.05700
 H15 H 0.23549 1.02644 -0.06095
 H16 H 0.25349 0.97024 -0.06139
 H17 H 0.24631 0.86956 0.00093
 H18 H 0.23319 0.97210 0.05692
 C19 C 0.75080 0.59496 0.50106
 C20 C 0.75467 0.57424 0.53339
 C21 C 0.75456 0.53563 0.53169
 C22 C 0.74789 0.51695 0.49784
 C23 C 0.74332 0.53884 0.46541
 C24 C 0.74577 0.57767 0.46687
 C25 C 0.74605 0.47519 0.49673
 C26 C 0.74914 0.45547 0.46301
 C27 C 0.74747 0.41664 0.46235
 C28 C 0.74498 0.39692 0.49572
 C29 C 0.74269 0.41563 0.52958
 C30 C 0.74167 0.45436 0.52972
 H31 H 0.75208 0.62482 0.50302
 H32 H 0.76010 0.52088 0.55707
 H33 H 0.73775 0.52646 0.43878
 H34 H 0.75328 0.46968 0.43708
 H35 H 0.74495 0.36694 0.49497
 H36 H 0.73753 0.46753 0.55617
 C37 C 0.75545 0.99906 1.09656
 C38 C 0.75306 0.96455 1.07892
 C39 C 0.75228 0.96343 1.03992
 C40 C 0.75597 0.99641 1.01865
 C41 C 0.76096 1.03022 1.03782
 C42 C 0.75855 1.03184 1.07624
 C43 C 0.75399 0.99648 0.97697
 C44 C 0.74703 1.02995 0.95757
 C45 C 0.74820 1.03153 0.91904
 C46 C 0.75274 0.99883 0.89892
 C47 C 0.75722 0.96468 0.91705
 C48 C 0.75892 0.96377 0.95592
 H49 H 0.75453 1.00111 1.12637
 H50 H 0.74833 0.93684 1.02675
 H51 H 0.76645 1.05578 1.02336
 H52 H 0.74041 1.05528 0.97185
 H53 H 0.75254 1.00040 0.86904
 H54 H 0.76421 0.93740 0.96913
 C55 C 0.24762 0.50030 0.59676
 C56 C 0.24588 0.46597 0.57885
 C57 C 0.24692 0.46473 0.54002
 C58 C 0.25177 0.49756 0.51892
 C59 C 0.25613 0.53140 0.53835
 C60 C 0.25238 0.53295 0.57670
 C61 C 0.25190 0.49719 0.47720
 C62 C 0.24683 0.53060 0.45727
 C63 C 0.24934 0.53166 0.41882
 C64 C 0.25357 0.49865 0.39914
 C65 C 0.25623 0.46455 0.41771
 C66 C 0.25660 0.46407 0.45662
 H67 H 0.24588 0.50208 0.62655
 H68 H 0.24373 0.43801 0.52696
 H69 H 0.26246 0.55702 0.52434
 H70 H 0.24051 0.55626 0.47103
 H71 H 0.25442 0.49996 0.36927
 H72 H 0.26049 0.43764 0.47017
 C73 C 1.09501 0.24764 0.00232
 C74 C 1.07576 0.24909 0.03584
 C75 C 1.03693 0.24821 0.03545
 C76 C 1.01709 0.24285 0.00196
 C77 C 1.03764 0.23909 -0.03109
 C78 C 1.07609 0.24315 -0.03112
 C79 C 0.97542 0.24181 0.00123
 C80 C 0.95559 0.24736 -0.03217
 C81 C 0.91683 0.24544 -0.03328
 C82 C 0.89726 0.24126 0.00000
 C83 C 0.91620 0.23732 0.03373
 C84 C 0.95491 0.23590 0.03394
 H85 H 1.12499 0.24985 0.00220
 H86 H 1.02275 0.25218 0.06135
 H87 H 1.02430 0.23329 -0.05717
 H88 H 0.96984 0.25372 -0.05755
 H89 H 0.86722 0.24126 -0.00025
 H90 H 0.96853 0.23034 0.05993
 C91 C 0.59622 0.74481 0.50219
 C92 C 0.57754 0.74716 0.53596
 C93 C 0.53870 0.74866 0.53629
 C94 C 0.51807 0.74550 0.50299
 C95 C 0.53799 0.74086 0.46959
 C96 C 0.57659 0.74237 0.46894
 C97 C 0.47634 0.74754 0.50255
 C98 C 0.45707 0.75345 0.46888
 C99 C 0.41850 0.75270 0.46732
 C100 C 0.39822 0.74955 0.50008
 C101 C 0.41629 0.74598 0.53434
 C102 C 0.45511 0.74374 0.53530
 H103 H 0.62626 0.74516 0.50176
 H104 H 0.52527 0.75273 0.56258
 H105 H 0.52418 0.73616 0.44356
 H106 H 0.47141 0.75881 0.44336
 H107 H 0.36832 0.74987 0.49848
 H108 H 0.46802 0.73893 0.56186
 C109 C 0.00014 0.75513 -0.09501
 C110 C 0.03289 0.75133 -0.07478
 C111 C 0.03162 0.75078 -0.03613
 C112 C -0.00207 0.75685 -0.01700
 C113 C -0.03466 0.76190 -0.03834
 C114 C -0.03382 0.75954 -0.07706
 C115 C -0.00317 0.75753 0.02469
 C116 C -0.03691 0.75360 0.04428
 C117 C -0.03777 0.75476 0.08310
 C118 C -0.00429 0.75709 0.10282
 C119 C 0.02958 0.75976 0.08413
 C120 C 0.02977 0.76162 0.04552
 H121 H 0.00111 0.75433 -0.12503
 H122 H 0.05716 0.74523 -0.02166
 H123 H -0.06087 0.76770 -0.02541
 H124 H -0.06270 0.74915 0.02988
 H125 H -0.00486 0.75663 0.13276
 H126 H 0.05622 0.76604 0.03242
 C127 C 0.49885 0.25286 0.40333
 C128 C 0.53182 0.24895 0.42329
 C129 C 0.53089 0.24825 0.46193
 C130 C 0.49745 0.25424 0.48139
 C131 C 0.46462 0.25924 0.46038
 C132 C 0.46511 0.25714 0.42168
 C133 C 0.49695 0.25480 0.52308
 C134 C 0.46344 0.25103 0.54302
 C135 C 0.46313 0.25209 0.58174
 C136 C 0.49665 0.25428 0.60118
 C137 C 0.53036 0.25688 0.58226
 C138 C 0.53019 0.25873 0.54362
 H139 H 0.49941 0.25219 0.37331
 H140 H 0.55653 0.24257 0.47616
 H141 H 0.43842 0.26475 0.47346
 H142 H 0.43733 0.24695 0.52908
 H143 H 0.49610 0.25402 0.63111
 H144 H 0.55652 0.26318 0.53029
 C145 C 1.10319 0.00047 0.24395
 C146 C 1.08465 0.03463 0.24590
 C147 C 1.04569 0.03478 0.24702
 C148 C 1.02507 0.00141 0.24366
 C149 C 1.04499 -0.03206 0.23938
 C150 C 1.08354 -0.03288 0.24132
 C151 C 0.98329 0.00095 0.24488
 C152 C 0.96381 -0.03264 0.25125
 C153 C 0.92508 -0.03393 0.25038
 C154 C 0.90517 -0.00098 0.24622
 C155 C 0.92343 0.03288 0.24190
 C156 C 0.96221 0.03373 0.23998
 H157 H 1.13298 -0.00037 0.24438
 H158 H 1.03210 0.06117 0.25071
 H159 H 1.03122 -0.05819 0.23467
 H160 H 0.97818 -0.05809 0.25735
 H161 H 0.87512 -0.00159 0.24669
 H162 H 0.97532 0.06008 0.23468
 C163 C 0.60188 0.50156 0.74245
 C164 C 0.58352 0.53564 0.74517
 C165 C 0.54472 0.53632 0.74618
 C166 C 0.52375 0.50344 0.74176
 C167 C 0.54317 0.46978 0.73684
 C168 C 0.58182 0.46851 0.73882
 C169 C 0.48207 0.50393 0.74278
 C170 C 0.46178 0.47091 0.74931
 C171 C 0.42307 0.47074 0.74874
 C172 C 0.40407 0.50422 0.74474
 C173 C 0.42321 0.53751 0.74007
 C174 C 0.46191 0.53726 0.73771
 H175 H 0.63190 0.50076 0.74309
 H176 H 0.53143 0.56265 0.75081
 H177 H 0.52874 0.44414 0.73170
 H178 H 0.47537 0.44488 0.75506
 H179 H 0.37416 0.50490 0.74602
 H180 H 0.47564 0.56321 0.73202
 C181 C 1.00020 1.10450 0.75409
 C182 C 0.96689 1.08468 0.75087
 C183 C 0.96810 1.04583 0.75005
 C184 C 1.00184 1.02628 0.75504
 C185 C 1.03465 1.04737 0.75959
 C186 C 1.03413 1.08611 0.75780
 C187 C 1.00281 0.98441 0.75542
 C188 C 1.03662 0.96473 0.75155
 C189 C 1.03741 0.92586 0.75256
 C190 C 1.00415 0.90622 0.75517
 C191 C 0.97029 0.92467 0.75786
 C192 C 0.96981 0.96341 0.75923
 H193 H 0.99986 1.13434 0.75386
 H194 H 0.94225 1.03156 0.74533
 H195 H 1.06111 1.03443 0.76466
 H196 H 1.06250 0.97895 0.74718
 H197 H 1.00499 0.87626 0.75463
 H198 H 0.94323 0.97638 0.76322
 C199 C 0.50244 0.59983 0.25799
 C200 C 0.46900 0.58047 0.25424
 C201 C 0.46941 0.54174 0.25343
 C202 C 0.50248 0.52154 0.25936
 C203 C 0.53575 0.54185 0.26405
 C204 C 0.53601 0.58068 0.26201
 C205 C 0.50203 0.47975 0.26023
 C206 C 0.53497 0.45882 0.25582
 C207 C 0.53417 0.41997 0.25635
 C208 C 0.50024 0.40172 0.25972
 C209 C 0.46722 0.42143 0.26307
 C210 C 0.46830 0.46009 0.26472
 H211 H 0.50238 0.62989 0.25747
 H212 H 0.44359 0.52790 0.24774
 H213 H 0.56169 0.52802 0.26934
 H214 H 0.56143 0.47198 0.25128
 H215 H 0.49943 0.37196 0.25914
 H216 H 0.44232 0.47407 0.26934
 O217 O 0.25555 0.15612 0.18976
 O218 O 0.29770 0.14557 0.24187
 O219 O 0.15842 0.19693 0.24526
 O220 O 0.14498 0.24449 0.28299
 O221 O 0.20264 0.25287 0.14826
 O222 O 0.25308 0.29499 0.13864
 O223 O 0.25573 0.30184 0.34031
 O224 O 0.21271 0.25064 0.34954
 O225 O 0.35073 0.25191 0.29296
 O226 O 0.36086 0.21057 0.24134
 O227 O 0.30373 0.34777 0.24794
 O228 O 0.25035 0.35742 0.20285
 O229 O 0.25413 0.34614 0.29536
 O230 O 0.21169 0.35787 0.24402
 O231 O 0.34790 0.30279 0.24917
 O232 O 0.35656 0.25544 0.19849
 O233 O 0.30732 0.25418 0.33856
 O234 O 0.26269 0.21016 0.35123
 O235 O 0.25487 0.20246 0.14685
 O236 O 0.29432 0.25457 0.13699
 O237 O 0.15758 0.24995 0.19218
 O238 O 0.14824 0.29166 0.24535
 O239 O 0.20446 0.15391 0.24250
 O240 O 0.25756 0.14183 0.28137
 Zr241 Zr 0.25385 0.18444 0.24115
 O242 O 0.28768 0.21634 0.27643
 Zr243 Zr 0.18739 0.24805 0.24286
 O244 O 0.21909 0.28308 0.27780
 Zr245 Zr 0.25248 0.25127 0.17774
 O246 O 0.28690 0.28568 0.20958
 Zr247 Zr 0.25596 0.25148 0.31013
 O248 O 0.22119 0.21566 0.27836
 Zr249 Zr 0.31975 0.25247 0.24412
 O250 O 0.28887 0.21775 0.20870
 Zr251 Zr 0.25382 0.31709 0.24542
 O252 O 0.21883 0.28539 0.21057
 O253 O 0.21868 0.21530 0.20760
 O254 O 0.28926 0.28655 0.27918
 C255 C 0.25588 0.16819 0.15617
 C256 C 0.17029 0.16326 0.24473
 C257 C 0.16866 0.25207 0.15837
 C258 C 0.25530 0.33581 0.32927
 C259 C 0.34105 0.25372 0.32700
 C260 C 0.33749 0.33670 0.25006
 H261 H 0.30302 0.19961 0.29186
 H262 H 0.30240 0.30129 0.19322
 H263 H 0.20297 0.19943 0.19163
 H264 H 0.20240 0.29778 0.29371
 H265 H 0.19657 0.22936 0.34314
 H266 H 0.15410 0.25734 0.30541
 H267 H 0.38087 0.26482 0.20736
 H268 H 0.31443 0.23772 0.14505
 H269 H 0.24884 0.18823 0.34247
 H270 H 0.23754 0.14604 0.29953
 H271 H 0.27282 0.35530 0.18737
 H272 H 0.23522 0.31379 0.14749
 H273 H 0.31575 0.15379 0.22295
 H274 H 0.35521 0.19169 0.26040
 H275 H 0.15536 0.30997 0.22618
 H276 H 0.19303 0.35108 0.26286
 O277 O 0.74939 0.85055 0.20393
 O278 O 0.70788 0.86128 0.25585
 O279 O 0.84619 0.80783 0.25773
 O280 O 0.85779 0.75999 0.29759
 O281 O 0.80320 0.75414 0.16095
 O282 O 0.75005 0.71214 0.15150
 O283 O 0.74905 0.70465 0.35169
 O284 O 0.79381 0.75409 0.36085
 O285 O 0.65441 0.75330 0.30845
 O286 O 0.64565 0.80041 0.25671
 O287 O 0.69656 0.66055 0.25886
 O288 O 0.75026 0.64981 0.21426
 O289 O 0.74707 0.65942 0.30781
 O290 O 0.78834 0.64675 0.25598
 O291 O 0.65344 0.70646 0.25960
 O292 O 0.64545 0.75546 0.21305
 O293 O 0.70031 0.75273 0.35187
 O294 O 0.74451 0.79515 0.36419
 O295 O 0.75023 0.80620 0.15908
 O296 O 0.71073 0.75518 0.14819
 O297 O 0.84662 0.75520 0.20679
 O298 O 0.85568 0.71347 0.25714
 O299 O 0.80083 0.85159 0.25552
 O300 O 0.74860 0.86443 0.29470
 Zr301 Zr 0.75120 0.82184 0.25453
 O302 O 0.71737 0.79056 0.28989
 Zr303 Zr 0.81646 0.75711 0.25597
 O304 O 0.78448 0.72180 0.28985
 Zr305 Zr 0.75193 0.75636 0.18985
 O306 O 0.71614 0.72281 0.22202
 Zr307 Zr 0.74961 0.75466 0.32221
 O308 O 0.78419 0.79036 0.29126
 Zr309 Zr 0.68384 0.75567 0.25771
 O310 O 0.71569 0.78945 0.22175
 Zr311 Zr 0.74801 0.68928 0.25754
 O312 O 0.78407 0.72082 0.22322
 O313 O 0.78594 0.79101 0.22072
 O314 O 0.71435 0.72054 0.29196
 C315 C 0.74926 0.84011 0.16995
 C316 C 0.83485 0.84169 0.25706
 C317 C 0.83701 0.75388 0.17266
 C318 C 0.74751 0.67062 0.34154
 C319 C 0.66619 0.75197 0.34217
 C320 C 0.66286 0.67229 0.25981
 H321 H 0.70285 0.80735 0.30587
 H322 H 0.70006 0.70804 0.20541
 H323 H 0.80184 0.80673 0.20484
 H324 H 0.80093 0.70638 0.30546
 H325 H 0.80995 0.77549 0.35485
 H326 H 0.85043 0.74308 0.31787
 H327 H 0.62046 0.74932 0.22273
 H328 H 0.68920 0.76872 0.15831
 H329 H 0.75822 0.81719 0.35548
 H330 H 0.76872 0.85986 0.31280
 H331 H 0.72803 0.65321 0.19854
 H332 H 0.76899 0.69396 0.15955
 H333 H 0.68939 0.85346 0.23712
 H334 H 0.64794 0.81437 0.28016
 H335 H 0.84648 0.69414 0.23997
 H336 H 0.80785 0.65314 0.27417
 O337 O 0.74615 0.15193 0.79718
 O338 O 0.71296 0.13836 0.74722
 O339 O 0.84553 0.19960 0.75061
 O340 O 0.85997 0.24992 0.71533
 O341 O 0.79590 0.24790 0.84748
 O342 O 0.74603 0.28532 0.85910
 O343 O 0.74883 0.29827 0.65234
 O344 O 0.78612 0.24868 0.63898
 O345 O 0.65228 0.25237 0.69970
 O346 O 0.64122 0.21143 0.74615
 O347 O 0.70220 0.34716 0.74751
 O348 O 0.75173 0.35998 0.78522
 O349 O 0.74860 0.34420 0.69542
 O350 O 0.79637 0.35167 0.75069
 O351 O 0.65562 0.30482 0.74385
 O352 O 0.64677 0.25667 0.79407
 O353 O 0.69603 0.25206 0.65434
 O354 O 0.75089 0.20430 0.64611
 O355 O 0.74560 0.19454 0.84357
 O356 O 0.70186 0.24858 0.85140
 O357 O 0.84275 0.24927 0.80546
 O358 O 0.85284 0.29372 0.75182
 O359 O 0.80207 0.15388 0.74831
 O360 O 0.74824 0.14732 0.70256
 Zr361 Zr 0.75072 0.18309 0.74891
 O362 O 0.71479 0.21551 0.71609
 Zr363 Zr 0.81531 0.24862 0.75300
 O364 O 0.78469 0.28165 0.71555
 Zr365 Zr 0.74796 0.24647 0.81541
 O366 O 0.71669 0.28394 0.78322
 Zr367 Zr 0.74779 0.24966 0.68311
 O368 O 0.78427 0.21622 0.71501
 Zr369 Zr 0.68303 0.25261 0.74813
 O370 O 0.71329 0.21460 0.78136
 Zr371 Zr 0.75021 0.31555 0.74715
 O372 O 0.78194 0.28356 0.78501
 O373 O 0.78373 0.21303 0.78533
 O374 O 0.71454 0.28573 0.71302
 C375 C 0.74496 0.16093 0.83139
 C376 C 0.83587 0.16553 0.74876
 C377 C 0.83022 0.24907 0.83894
 C378 C 0.74814 0.33236 0.66173
 C379 C 0.66217 0.25280 0.66577
 C380 C 0.66803 0.33840 0.74478
 H381 H 0.69865 0.19903 0.70124
 H382 H 0.70175 0.29992 0.79967
 H383 H 0.79906 0.19681 0.80135
 H384 H 0.80180 0.29624 0.69991
 H385 H 0.80966 0.25875 0.64879
 H386 H 0.85094 0.23775 0.69246
 H387 H 0.62197 0.26379 0.78456
 H388 H 0.68591 0.22705 0.84536
 H389 H 0.72613 0.19253 0.64497
 H390 H 0.77133 0.15111 0.68830
 H391 H 0.74035 0.35078 0.80836
 H392 H 0.75998 0.30734 0.85047
 H393 H 0.68799 0.14957 0.74774
 H394 H 0.64658 0.19384 0.76655
 H395 H 0.84778 0.30902 0.77397
 H396 H 0.80806 0.35292 0.72597
 O397 O 0.24615 0.84236 0.80222
 O398 O 0.28649 0.85261 0.74929
 O399 O 0.14881 0.79796 0.74801
 O400 O 0.13528 0.75093 0.71037
 O401 O 0.19257 0.74587 0.84549
 O402 O 0.24517 0.70332 0.85467
 O403 O 0.24652 0.69390 0.65443
 O404 O 0.20006 0.74371 0.64515
 O405 O 0.34014 0.74508 0.69698
 O406 O 0.35098 0.78797 0.74915
 O407 O 0.29420 0.65067 0.74795
 O408 O 0.24203 0.64063 0.79218
 O409 O 0.24485 0.65045 0.70013
 O410 O 0.20295 0.63930 0.75198
 O411 O 0.33949 0.69437 0.74399
 O412 O 0.34859 0.74368 0.79263
 O413 O 0.29420 0.74532 0.65356
 O414 O 0.24572 0.78484 0.64012
 O415 O 0.24637 0.79658 0.84578
 O416 O 0.28470 0.74569 0.85721
 O417 O 0.14869 0.74673 0.80009
 O418 O 0.13925 0.70392 0.74942
 O419 O 0.19289 0.84313 0.75014
 O420 O 0.24420 0.85423 0.70943
 Zr421 Zr 0.24323 0.81310 0.75123
 O422 O 0.27698 0.78088 0.71605
 Zr423 Zr 0.17812 0.74798 0.75043
 O424 O 0.20913 0.71286 0.71604
 Zr425 Zr 0.24323 0.74722 0.81580
 O426 O 0.27806 0.71308 0.78387
 Zr427 Zr 0.24463 0.74500 0.68331
 O428 O 0.21047 0.78089 0.71474
 Zr429 Zr 0.31062 0.74518 0.74766
 O430 O 0.27926 0.77999 0.78325
 Zr431 Zr 0.24460 0.68059 0.74922
 O432 O 0.20977 0.71202 0.78378
 O433 O 0.20892 0.78206 0.78531
 O434 O 0.27914 0.71049 0.71397
 C435 C 0.24736 0.83072 0.83598
 C436 C 0.15904 0.83203 0.74856
 C437 C 0.15870 0.74576 0.83413
 C438 C 0.24638 0.66013 0.66610
 C439 C 0.32837 0.74508 0.66327
 C440 C 0.32814 0.66061 0.74501
 H441 H 0.29197 0.79767 0.70046
 H442 H 0.29390 0.69794 0.80040
 H443 H 0.19337 0.79801 0.80122
 H444 H 0.19245 0.69753 0.70058
 H445 H 0.18318 0.76426 0.65188
 H446 H 0.14244 0.73493 0.68936
 H447 H 0.37288 0.73478 0.78342
 H448 H 0.30627 0.75920 0.84700
 H449 H 0.25680 0.80772 0.65033
 H450 H 0.22601 0.84647 0.69037
 H451 H 0.26357 0.64454 0.80872
 H452 H 0.22557 0.68548 0.84746
 H453 H 0.30572 0.84400 0.76692
 H454 H 0.34547 0.80570 0.72896
 H455 H 0.14701 0.68586 0.76860
 H456 H 0.18446 0.64470 0.73244
 O457 O 0.24878 0.35082 0.70495
 O458 O 0.21024 0.36311 0.75722
 O459 O 0.34758 0.30781 0.75932
 O460 O 0.35951 0.26005 0.79809
 O461 O 0.30361 0.25400 0.66223
 O462 O 0.25088 0.21235 0.65302
 O463 O 0.25003 0.20698 0.85396
 O464 O 0.29472 0.25616 0.86239
 O465 O 0.15550 0.25376 0.80984
 O466 O 0.14616 0.30079 0.75843
 O467 O 0.19779 0.16106 0.76029
 O468 O 0.25145 0.14947 0.71760
 O469 O 0.24694 0.16130 0.81065
 O470 O 0.28981 0.14800 0.75893
 O471 O 0.15465 0.20702 0.76035
 O472 O 0.14657 0.25672 0.71436
 O473 O 0.20127 0.25517 0.85338
 O474 O 0.24565 0.29756 0.86495
 O475 O 0.25044 0.30625 0.66037
 O476 O 0.21115 0.25470 0.65000
 O477 O 0.34725 0.25507 0.70786
 O478 O 0.35597 0.21329 0.75898
 O479 O 0.30249 0.35178 0.75505
 O480 O 0.25067 0.36487 0.79604
 Zr481 Zr 0.25247 0.32254 0.75553
 O482 O 0.21833 0.29174 0.79094
 Zr483 Zr 0.31741 0.25750 0.75724
 O484 O 0.28538 0.22292 0.79176
 Zr485 Zr 0.25265 0.25658 0.69136
 O486 O 0.21710 0.22323 0.72384
 Zr487 Zr 0.25059 0.25633 0.82367
 O488 O 0.28546 0.29130 0.79234
 Zr489 Zr 0.18481 0.25643 0.75915
 O490 O 0.21669 0.29002 0.72313
 Zr491 Zr 0.24896 0.19009 0.75978
 O492 O 0.28480 0.22115 0.72487
 O493 O 0.28697 0.29135 0.72177
 O494 O 0.21531 0.22176 0.79384
 C495 C 0.24847 0.34016 0.67109
 C496 C 0.33641 0.34165 0.75763
 C497 C 0.33742 0.25353 0.67380
 C498 C 0.24772 0.17291 0.84425
 C499 C 0.16721 0.25354 0.84357
 C500 C 0.16414 0.17286 0.76054
 H501 H 0.20380 0.30874 0.80669
 H502 H 0.20112 0.20832 0.70726
 H503 H 0.30269 0.30695 0.70558
 H504 H 0.30177 0.20770 0.80763
 H505 H 0.31104 0.27731 0.85602
 H506 H 0.35140 0.24475 0.81934
 H507 H 0.12165 0.24987 0.72374
 H508 H 0.18995 0.26906 0.65971
 H509 H 0.25957 0.31934 0.85595
 H510 H 0.27209 0.36118 0.81281
 H511 H 0.23063 0.15406 0.70031
 H512 H 0.26934 0.19387 0.66150
 H513 H 0.19005 0.35413 0.74093
 H514 H 0.14850 0.31483 0.78183
 H515 H 0.34680 0.19412 0.74162
 H516 H 0.30806 0.15358 0.77863
 O517 O 0.76171 0.65413 0.69232
 O518 O 0.80415 0.64530 0.74442
 O519 O 0.66451 0.69496 0.74592
 O520 O 0.65047 0.74291 0.78363
 O521 O 0.70789 0.74977 0.64863
 O522 O 0.75809 0.79214 0.63831
 O523 O 0.75989 0.80255 0.83987
 O524 O 0.71735 0.75123 0.84974
 O525 O 0.85555 0.75304 0.79391
 O526 O 0.86637 0.71047 0.74317
 O527 O 0.80840 0.84724 0.74668
 O528 O 0.75475 0.85568 0.70136
 O529 O 0.75839 0.84614 0.79423
 O530 O 0.71637 0.85695 0.74264
 O531 O 0.85298 0.80269 0.74843
 O532 O 0.86190 0.75422 0.69921
 O533 O 0.81182 0.75542 0.83922
 O534 O 0.76778 0.71133 0.85246
 O535 O 0.76073 0.69969 0.64859
 O536 O 0.79958 0.75208 0.63743
 O537 O 0.66286 0.74756 0.69263
 O538 O 0.65276 0.78948 0.74489
 O539 O 0.71091 0.65229 0.74437
 O540 O 0.76378 0.64194 0.78420
 Zr541 Zr 0.75976 0.68353 0.74295
 O542 O 0.79311 0.71639 0.77771
 Zr543 Zr 0.69267 0.74652 0.74327
 O544 O 0.72391 0.78256 0.77755
 Zr545 Zr 0.75780 0.74919 0.67827
 O546 O 0.79192 0.78444 0.70955
 Zr547 Zr 0.76081 0.75179 0.81055
 O548 O 0.72656 0.71502 0.77942
 Zr549 Zr 0.82498 0.75217 0.74481
 O550 O 0.79448 0.71660 0.70991
 Zr551 Zr 0.75856 0.81626 0.74475
 O552 O 0.72385 0.78362 0.71045
 O553 O 0.72437 0.71348 0.70873
 O554 O 0.79407 0.78662 0.77917
 C555 C 0.76187 0.66560 0.65857
 C556 C 0.67665 0.66137 0.74593
 C557 C 0.67388 0.74913 0.65878
 C558 C 0.75928 0.83631 0.82831
 C559 C 0.84558 0.75515 0.82785
 C560 C 0.84230 0.83650 0.74868
 H561 H 0.80851 0.70010 0.79353
 H562 H 0.80732 0.79984 0.69291
 H563 H 0.70883 0.69727 0.69295
 H564 H 0.70701 0.79741 0.79310
 H565 H 0.70153 0.72959 0.84374
 H566 H 0.65906 0.75699 0.80551
 H567 H 0.88621 0.76376 0.70790
 H568 H 0.81992 0.73570 0.64589
 H569 H 0.75421 0.68909 0.84408
 H570 H 0.74331 0.64604 0.80189
 H571 H 0.77733 0.85356 0.68605
 H572 H 0.74006 0.81095 0.64677
 H573 H 0.82207 0.65335 0.72531
 H574 H 0.86102 0.69219 0.76289
 H575 H 0.66012 0.80798 0.72599
 H576 H 0.69739 0.85007 0.76113
 O577 O 0.25035 0.65151 0.29652
 O578 O 0.21841 0.63635 0.24643
 O579 O 0.34848 0.70299 0.25011
 O580 O 0.36010 0.75334 0.21352
 O581 O 0.29757 0.74930 0.34636
 O582 O 0.24662 0.78465 0.35876
 O583 O 0.24819 0.79766 0.15200
 O584 O 0.28565 0.74866 0.13821
 O585 O 0.15238 0.74965 0.20037
 O586 O 0.14374 0.70655 0.24597
 O587 O 0.19910 0.84445 0.24774
 O588 O 0.24865 0.85947 0.28489
 O589 O 0.24541 0.84343 0.19509
 O590 O 0.29289 0.85324 0.24989
 O591 O 0.15388 0.80050 0.24533
 O592 O 0.14772 0.75148 0.29477
 O593 O 0.19569 0.75136 0.15463
 O594 O 0.25118 0.70369 0.14588
 O595 O 0.24864 0.69405 0.34294
 O596 O 0.20375 0.74679 0.35158
 O597 O 0.34398 0.75280 0.30398
 O598 O 0.35182 0.79719 0.25013
 O599 O 0.30658 0.65587 0.24800
 O600 O 0.25288 0.64725 0.20180
 Zr601 Zr 0.25399 0.68283 0.24835
 O602 O 0.21640 0.71380 0.21594
 Zr603 Zr 0.31611 0.75066 0.25191
 O604 O 0.28387 0.78245 0.21486
 Zr605 Zr 0.24938 0.74602 0.31492
 O606 O 0.21640 0.78221 0.28315
 Zr607 Zr 0.24784 0.74915 0.18277
 O608 O 0.28596 0.71714 0.21419
 Zr609 Zr 0.18362 0.74958 0.24841
 O610 O 0.21567 0.71280 0.28123
 Zr611 Zr 0.24842 0.81501 0.24682
 O612 O 0.28174 0.78430 0.28427
 O613 O 0.28610 0.71395 0.28457
 O614 O 0.21359 0.78392 0.21307
 C615 C 0.24875 0.66048 0.33070
 C616 C 0.34002 0.66860 0.24862
 C617 C 0.33171 0.75209 0.33751
 C618 C 0.24604 0.83167 0.16138
 C619 C 0.16192 0.75137 0.16641
 C620 C 0.16522 0.83442 0.24588
 H621 H 0.20070 0.69687 0.20113
 H622 H 0.20104 0.79756 0.29982
 H623 H 0.30202 0.69835 0.30063
 H624 H 0.30035 0.79762 0.19907
 H625 H 0.30907 0.75926 0.14774
 H626 H 0.35145 0.74006 0.19113
 H627 H 0.12245 0.75716 0.28554
 H628 H 0.18837 0.72478 0.34581
 H629 H 0.22623 0.69246 0.14387
 H630 H 0.27601 0.65170 0.18780
 H631 H 0.23751 0.84997 0.30802
 H632 H 0.25933 0.80731 0.34989
 H633 H 0.19294 0.64635 0.24736
 H634 H 0.14987 0.68906 0.26625
 H635 H 0.34624 0.81251 0.27215
 H636 H 0.30478 0.85438 0.22526
 O637 O 0.74609 0.33699 0.30218
 O638 O 0.78727 0.34734 0.24744
 O639 O 0.64912 0.29455 0.24721
 O640 O 0.63460 0.24779 0.20946
 O641 O 0.69194 0.24113 0.34432
 O642 O 0.74421 0.19772 0.35311
 O643 O 0.74537 0.19038 0.15272
 O644 O 0.69856 0.23998 0.14437
 O645 O 0.83863 0.23834 0.19491
 O646 O 0.84932 0.28280 0.24135
 O647 O 0.79254 0.14540 0.24665
 O648 O 0.73984 0.13544 0.28999
 O649 O 0.74403 0.14651 0.19805
 O650 O 0.70098 0.13503 0.24958
 O651 O 0.83836 0.18864 0.24302
 O652 O 0.84834 0.23654 0.29049
 O653 O 0.79235 0.24064 0.15194
 O654 O 0.74417 0.28183 0.13995
 O655 O 0.74610 0.29091 0.34534
 O656 O 0.78431 0.23970 0.35592
 O657 O 0.64805 0.24298 0.29894
 O658 O 0.63795 0.20057 0.24851
 O659 O 0.69377 0.33919 0.25024
 O660 O 0.74442 0.35013 0.20959
 Zr661 Zr 0.74351 0.30839 0.25077
 O662 O 0.77653 0.27596 0.21515
 Zr663 Zr 0.67749 0.24404 0.24942
 O664 O 0.70784 0.20875 0.21471
 Zr665 Zr 0.74273 0.24203 0.31467
 O666 O 0.77695 0.20778 0.28227
 Zr667 Zr 0.74339 0.24099 0.18223
 O668 O 0.71005 0.27703 0.21412
 Zr669 Zr 0.80982 0.23960 0.24607
 O670 O 0.77938 0.27466 0.28244
 Zr671 Zr 0.74312 0.17588 0.24754
 O672 O 0.70878 0.20747 0.28244
 O673 O 0.70881 0.27743 0.28449
 O674 O 0.77765 0.20574 0.21237
 C675 C 0.74704 0.32513 0.33587
 C676 C 0.65985 0.32846 0.24841
 C677 C 0.65805 0.24168 0.33294
 C678 C 0.74583 0.15656 0.16413
 C679 C 0.82653 0.23900 0.16125
 C680 C 0.82665 0.15500 0.24411
 H681 H 0.79214 0.29259 0.19994
 H682 H 0.79261 0.19236 0.29871
 H683 H 0.69343 0.29340 0.30054
 H684 H 0.69102 0.19371 0.19913
 H685 H 0.68186 0.26064 0.15122
 H686 H 0.64113 0.23130 0.18862
 H687 H 0.87327 0.23241 0.27978
 H688 H 0.80616 0.25257 0.34549
 H689 H 0.75798 0.30345 0.14956
 H690 H 0.72689 0.34217 0.19001
 H691 H 0.76099 0.13937 0.30703
 H692 H 0.72414 0.18038 0.34599
 H693 H 0.80355 0.34313 0.26912
 H694 H 0.84657 0.29853 0.26358
 H695 H 0.64604 0.18193 0.26700
 H696 H 0.68302 0.14043 0.22954
 C697 C 0.28626 0.11326 0.11452
 C698 C 0.25589 0.08378 0.10634
 C699 C 0.25366 0.09793 0.06605
 C700 C 0.28399 0.12687 0.07380
 C701 C 0.22328 0.12580 0.07676
 C702 C 0.22554 0.11215 0.11733
 C703 C 0.25585 0.14113 0.12493
 C704 C 0.25360 0.15492 0.08455
 H705 H 0.31215 0.10835 0.13046
 H706 H 0.25680 0.05446 0.11570
 H707 H 0.30804 0.13284 0.05563
 H708 H 0.19728 0.13099 0.06108
 H709 H 0.20149 0.10630 0.13547
 H710 H 0.25257 0.18430 0.07531
 C711 C 0.79149 0.60988 0.61724
 C712 C 0.76078 0.58055 0.60966
 C713 C 0.75798 0.59456 0.56939
 C714 C 0.78861 0.62332 0.57653
 C715 C 0.72798 0.62267 0.58049
 C716 C 0.73080 0.60919 0.62105
 C717 C 0.76143 0.63802 0.62793
 C718 C 0.75860 0.65158 0.58754
 H719 H 0.81759 0.60492 0.63279
 H720 H 0.76165 0.55112 0.61866
 H721 H 0.81237 0.62898 0.55790
 H722 H 0.70178 0.62789 0.56516
 H723 H 0.70706 0.60369 0.63977
 H724 H 0.75762 0.68088 0.57804
 C725 C 0.71974 0.90109 0.14208
 C726 C 0.75067 0.93060 0.14344
 C727 C 0.75131 0.93127 0.10065
 C728 C 0.72035 0.90186 0.09914
 C729 C 0.78104 0.90063 0.10024
 C730 C 0.78035 0.89992 0.14310
 C731 C 0.74943 0.87063 0.14195
 C732 C 0.75009 0.87066 0.09930
 H733 H 0.69438 0.90104 0.15941
 H734 H 0.75078 0.95358 0.16381
 H735 H 0.69554 0.90293 0.08093
 H736 H 0.80642 0.90066 0.08295
 H737 H 0.80519 0.89892 0.16132
 H738 H 0.74984 0.84564 0.08145
 C739 C 0.21393 0.39758 0.64103
 C740 C 0.24138 0.43024 0.64403
 C741 C 0.24480 0.43084 0.60147
 C742 C 0.21726 0.39832 0.59821
 C743 C 0.27752 0.40350 0.60330
 C744 C 0.27411 0.40295 0.64593
 C745 C 0.24669 0.37048 0.64306
 C746 C 0.25006 0.37047 0.60058
 H747 H 0.18766 0.39481 0.65672
 H748 H 0.23747 0.45358 0.66358
 H749 H 0.19374 0.39681 0.57840
 H750 H 0.30383 0.40625 0.58768
 H751 H 0.29750 0.40497 0.66576
 H752 H 0.25367 0.34551 0.58301
 C753 C 0.74681 0.08899 0.84279
 C754 C 0.77667 0.08006 0.87203
 C755 C 0.74588 0.06807 0.89888
 C756 C 0.71601 0.07702 0.86982
 C757 C 0.74351 0.10788 0.91441
 C758 C 0.77431 0.12015 0.88706
 C759 C 0.74442 0.12895 0.85795
 C760 C 0.71357 0.11725 0.88482
 H761 H 0.74826 0.08073 0.81322
 H762 H 0.80267 0.06455 0.86671
 H763 H 0.69208 0.05900 0.86274
 H764 H 0.74216 0.11589 0.94404
 H765 H 0.79826 0.13821 0.89403
 H766 H 0.68764 0.13292 0.88996
 C767 C 0.25045 0.58857 0.34220
 C768 C 0.27963 0.57954 0.37210
 C769 C 0.24818 0.56796 0.39834
 C770 C 0.21899 0.57699 0.36863
 C771 C 0.24581 0.60786 0.41364
 C772 C 0.27727 0.61973 0.38690
 C773 C 0.24805 0.62858 0.35717
 C774 C 0.21656 0.61727 0.38342
 H775 H 0.25244 0.58023 0.31269
 H776 H 0.30559 0.56375 0.36742
 H777 H 0.19507 0.55911 0.36116
 H778 H 0.24391 0.61609 0.44317
 H779 H 0.30120 0.63767 0.39424
 H780 H 0.19067 0.63320 0.38793
 C781 C 0.21827 0.85649 0.89704
 C782 C 0.24830 0.85370 0.92737
 C783 C 0.24930 0.89635 0.92970
 C784 C 0.21925 0.89928 0.89940
 C785 C 0.27986 0.89795 0.90000
 C786 C 0.27883 0.85504 0.89756
 C787 C 0.24875 0.85772 0.86739
 C788 C 0.24975 0.90035 0.86919
 H789 H 0.19272 0.83945 0.89558
 H790 H 0.24770 0.83312 0.95023
 H791 H 0.19454 0.91755 0.90047
 H792 H 0.30537 0.91511 0.90159
 H793 H 0.30353 0.83675 0.89654
 H794 H 0.25032 0.91934 0.84497
 C795 C 0.71821 0.38158 0.37577
 C796 C 0.71719 0.36785 0.41640
 C797 C 0.74817 0.39544 0.42643
 C798 C 0.74921 0.40965 0.38610
 C799 C 0.77790 0.36625 0.41765
 C800 C 0.74692 0.33849 0.40763
 C801 C 0.74798 0.35237 0.36720
 C802 C 0.77899 0.37997 0.37695
 H803 H 0.69364 0.38769 0.35823
 H804 H 0.69171 0.36284 0.43282
 H805 H 0.75013 0.43908 0.37707
 H806 H 0.80247 0.35999 0.43514
 H807 H 0.74593 0.30912 0.41686
 H808 H 0.80440 0.38479 0.36038
 C809 C 0.11158 0.28193 0.11891
 C810 C 0.12431 0.28184 0.07792
 C811 C 0.09636 0.25076 0.06953
 C812 C 0.08307 0.25080 0.11011
 C813 C 0.12554 0.22099 0.07867
 C814 C 0.15366 0.25208 0.08706
 C815 C 0.14077 0.25216 0.12772
 C816 C 0.11278 0.22107 0.11953
 H817 H 0.10610 0.30697 0.13587
 H818 H 0.12898 0.30686 0.06058
 H819 H 0.05396 0.25025 0.11989
 H820 H 0.13131 0.19584 0.06195
 H821 H 0.18279 0.25252 0.07725
 H822 H 0.10831 0.19609 0.13698
 C823 C 0.61718 0.77955 0.61971
 C824 C 0.62908 0.77857 0.57852
 C825 C 0.60004 0.74824 0.57105
 C826 C 0.58766 0.74916 0.61187
 C827 C 0.62858 0.71779 0.57996
 C828 C 0.65779 0.74813 0.58745
 C829 C 0.64572 0.74908 0.62832
 C830 C 0.61669 0.71871 0.62108
 H831 H 0.61275 0.80496 0.63642
 H832 H 0.63405 0.80323 0.56075
 H833 H 0.55866 0.74956 0.62199
 H834 H 0.63322 0.69231 0.56339
 H835 H 0.68674 0.74762 0.57714
 H836 H 0.61187 0.69407 0.63891
 C837 C 0.08741 0.74846 0.84777
 C838 C 0.07642 0.71816 0.87586
 C839 C 0.06882 0.74859 0.90459
 C840 C 0.07985 0.77887 0.87667
 C841 C 0.10908 0.74621 0.91882
 C842 C 0.11711 0.71572 0.88954
 C843 C 0.12782 0.74608 0.86160
 C844 C 0.12040 0.77650 0.89038
 H845 H 0.07805 0.74949 0.81846
 H846 H 0.05802 0.69418 0.86998
 H847 H 0.06431 0.80492 0.87135
 H848 H 0.11803 0.74530 0.94824
 H849 H 0.13283 0.68975 0.89462
 H850 H 0.13865 0.80054 0.89624
 C851 C 0.58680 0.24556 0.34605
 C852 C 0.57512 0.21543 0.37403
 C853 C 0.56773 0.24599 0.40265
 C854 C 0.57944 0.27611 0.37485
 C855 C 0.60786 0.24302 0.41723
 C856 C 0.61565 0.21238 0.38806
 C857 C 0.62707 0.24255 0.36024
 C858 C 0.61988 0.27313 0.38890
 H859 H 0.57768 0.24672 0.31667
 H860 H 0.55640 0.19175 0.36797
 H861 H 0.56430 0.30236 0.36939
 H862 H 0.61664 0.24199 0.44669
 H863 H 0.63095 0.18619 0.39331
 H864 H 0.63866 0.29682 0.39480
 C865 C 0.90878 0.75456 0.15968
 C866 C 0.91912 0.72375 0.13197
 C867 C 0.92803 0.75376 0.10301
 C868 C 0.91770 0.78457 0.13055
 C869 C 0.88775 0.75254 0.08844
 C870 C 0.87847 0.72250 0.11794
 C871 C 0.86840 0.75333 0.14549
 C872 C 0.87713 0.78334 0.11650
 H873 H 0.91786 0.75545 0.18907
 H874 H 0.93658 0.69921 0.13836
 H875 H 0.93397 0.81018 0.13583
 H876 H 0.87862 0.75173 0.05908
 H877 H 0.86200 0.69698 0.11288
 H878 H 0.85957 0.80785 0.11030
 C879 C 0.37710 0.28189 0.61695
 C880 C 0.41784 0.28276 0.63041
 C881 C 0.42738 0.25153 0.60309
 C882 C 0.38692 0.25064 0.58913
 C883 C 0.41855 0.22199 0.63253
 C884 C 0.40903 0.25323 0.66003
 C885 C 0.36848 0.25233 0.64642
 C886 C 0.37772 0.22106 0.61909
 H887 H 0.35973 0.30654 0.61074
 H888 H 0.43457 0.30820 0.63507
 H889 H 0.37767 0.24956 0.55982
 H890 H 0.43587 0.19735 0.63888
 H891 H 0.41850 0.25436 0.68929
 H892 H 0.36085 0.19569 0.61461
 C893 C 0.84110 0.24685 0.91112
 C894 C 0.86996 0.21668 0.92043
 C895 C 0.89721 0.24730 0.93228
 C896 C 0.86855 0.27747 0.92306
 C897 C 0.91287 0.24939 0.89253
 C898 C 0.88511 0.21879 0.88040
 C899 C 0.85645 0.24895 0.87126
 C900 C 0.88370 0.27961 0.88291
 H901 H 0.81145 0.24572 0.91916
 H902 H 0.86417 0.19075 0.93601
 H903 H 0.86170 0.30159 0.94083
 H904 H 0.94240 0.25038 0.88412
 H905 H 0.89189 0.19463 0.86270
 H906 H 0.88927 0.30545 0.86714
 C907 C 0.34261 0.75153 0.40939
 C908 C 0.37219 0.72234 0.41923
 C909 C 0.39852 0.75386 0.43070
 C910 C 0.36912 0.78307 0.42084
 C911 C 0.41433 0.75570 0.39103
 C912 C 0.38749 0.72415 0.37927
 C913 C 0.35805 0.75337 0.36958
 C914 C 0.38440 0.78496 0.38077
 H915 H 0.31298 0.74973 0.41743
 H916 H 0.36710 0.69656 0.43530
 H917 H 0.36159 0.80726 0.43823
 H918 H 0.44399 0.75745 0.38318
 H919 H 0.39491 0.69995 0.36183
 H920 H 0.38932 0.81067 0.36456
 C921 C 0.14739 0.10073 0.27511
 C922 C 0.10460 0.09788 0.27759
 C923 C 0.10515 0.06880 0.24635
 C924 C 0.14776 0.07156 0.24390
 C925 C 0.10090 0.09972 0.21708
 C926 C 0.10091 0.12935 0.24828
 C927 C 0.14346 0.13154 0.24584
 C928 C 0.14363 0.10253 0.21468
 H929 H 0.16660 0.10135 0.29917
 H930 H 0.08850 0.09569 0.30365
 H931 H 0.16887 0.04932 0.24196
 H932 H 0.08173 0.09908 0.19300
 H933 H 0.08185 0.15341 0.25005
 H934 H 0.15964 0.10468 0.18860
 C935 C 0.62018 0.62174 0.71683
 C936 C 0.63337 0.58093 0.71544
 C937 C 0.60583 0.57096 0.74637
 C938 C 0.59221 0.61151 0.74777
 C939 C 0.63529 0.57918 0.77611
 C940 C 0.66301 0.58922 0.74517
 C941 C 0.64962 0.62981 0.74659
 C942 C 0.62212 0.62009 0.77756
 H943 H 0.61417 0.63954 0.69243
 H944 H 0.63799 0.56460 0.68983
 H945 H 0.56301 0.62103 0.74884
 H946 H 0.64142 0.56141 0.80050
 H947 H 0.69228 0.57983 0.74404
 H948 H 0.61767 0.63654 0.80311
 C949 C 0.89661 0.14141 0.77960
 C950 C 0.90121 0.09880 0.77850
 C951 C 0.93198 0.10362 0.74933
 C952 C 0.92740 0.14609 0.75047
 C953 C 0.90307 0.10070 0.71795
 C954 C 0.87170 0.09650 0.74715
 C955 C 0.86769 0.13900 0.74829
 C956 C 0.89840 0.14340 0.71913
 H957 H 0.89373 0.15812 0.80519
 H958 H 0.90266 0.08043 0.80317
 H959 H 0.94871 0.16823 0.75180
 H960 H 0.90608 0.08392 0.69239
 H961 H 0.84850 0.07631 0.74581
 H962 H 0.89701 0.16178 0.69446
 C963 C 0.38401 0.61504 0.21880
 C964 C 0.42424 0.63005 0.22134
 C965 C 0.43294 0.60141 0.25171
 C966 C 0.39307 0.58592 0.24924
 C967 C 0.42097 0.62884 0.28197
 C968 C 0.41221 0.65768 0.25159
 C969 C 0.37227 0.64245 0.24910
 C970 C 0.38083 0.61382 0.27950
 H971 H 0.36845 0.60946 0.19283
 H972 H 0.44238 0.63671 0.19745
 H973 H 0.38470 0.55632 0.24829
 H974 H 0.43640 0.63458 0.30798
 H975 H 0.42043 0.68734 0.25262
 H976 H 0.36265 0.60726 0.30339
 C977 C 0.11944 0.88900 0.71876
 C978 C 0.07832 0.87665 0.72021
 C979 C 0.07112 0.90532 0.75086
 C980 C 0.11185 0.91821 0.74944
 C981 C 0.08071 0.87653 0.78094
 C982 C 0.08786 0.84771 0.75028
 C983 C 0.12865 0.86017 0.74883
 C984 C 0.12173 0.88888 0.77948
 H985 H 0.13574 0.89383 0.69318
 H986 H 0.06025 0.87170 0.69577
 H987 H 0.12191 0.94730 0.74914
 H988 H 0.06466 0.87139 0.80663
 H989 H 0.07767 0.81864 0.75070
 H990 H 0.13994 0.89360 0.80386
 C991 C 0.62979 0.39904 0.25237
 C992 C 0.59867 0.40068 0.22255
 C993 C 0.56928 0.39759 0.25325
 C994 C 0.59985 0.39651 0.28306
 C995 C 0.56980 0.35489 0.25036
 C996 C 0.59928 0.35780 0.21970
 C997 C 0.62965 0.35646 0.24950
 C998 C 0.60037 0.35372 0.28017
 H999 H 0.65487 0.41685 0.25315
 H1000 H 0.59759 0.42019 0.19876
 H1001 H 0.59976 0.41254 0.30928
 H1002 H 0.54656 0.33479 0.24917
 H1003 H 0.59935 0.34174 0.19349
 H1004 H 0.60131 0.33424 0.30403
 C1005 C 0.89009 0.88402 0.28671
 C1006 C 0.91959 0.89170 0.25634
 C1007 C 0.90531 0.93193 0.25314
 C1008 C 0.87638 0.92466 0.28345
 C1009 C 0.87760 0.92030 0.22285
 C1010 C 0.89132 0.87977 0.22608
 C1011 C 0.86234 0.87271 0.25639
 C1012 C 0.84850 0.91306 0.25315
 H1013 H 0.89501 0.86870 0.31296
 H1014 H 0.94892 0.88258 0.25764
 H1015 H 0.87027 0.94336 0.30704
 H1016 H 0.87240 0.93538 0.19650
 H1017 H 0.89723 0.86094 0.20253
 H1018 H 0.81918 0.92227 0.25173
 C1019 C 0.40580 0.37526 0.76310
 C1020 C 0.40885 0.40020 0.72812
 C1021 C 0.40209 0.43483 0.75211
 C1022 C 0.39965 0.41049 0.78709
 C1023 C 0.35999 0.43156 0.74588
 C1024 C 0.36659 0.39686 0.72197
 C1025 C 0.36370 0.37262 0.75687
 C1026 C 0.35732 0.40719 0.78089
 H1027 H 0.42435 0.35174 0.77014
 H1028 H 0.43019 0.39771 0.70619
 H1029 H 0.41337 0.41656 0.81395
 H1030 H 0.33976 0.45350 0.73841
 H1031 H 0.35348 0.39057 0.69490
 H1032 H 0.33601 0.40985 0.80284
 C1033 C 0.11900 0.21509 0.88561
 C1034 C 0.13181 0.22054 0.92619
 C1035 C 0.09744 0.24453 0.93339
 C1036 C 0.08412 0.23906 0.89315
 C1037 C 0.11870 0.27977 0.92217
 C1038 C 0.15323 0.25578 0.91490
 C1039 C 0.14020 0.25038 0.87456
 C1040 C 0.10585 0.27441 0.88158
 H1041 H 0.11970 0.18826 0.87070
 H1042 H 0.14240 0.19834 0.94474
 H1043 H 0.05560 0.23197 0.88401
 H1044 H 0.11850 0.30638 0.93759
 H1045 H 0.18176 0.26281 0.92411
 H1046 H 0.09543 0.29658 0.86291
 C1047 C 0.61338 0.71599 0.38181
 C1048 C 0.62761 0.71566 0.42238
 C1049 C 0.59730 0.74355 0.43293
 C1050 C 0.58253 0.74389 0.39277
 C1051 C 0.62320 0.77630 0.42418
 C1052 C 0.65369 0.74841 0.41365
 C1053 C 0.63926 0.74882 0.37337
 C1054 C 0.60891 0.77670 0.38374
 H1055 H 0.60955 0.69127 0.36391
 H1056 H 0.63519 0.69058 0.43858
 H1057 H 0.55310 0.74195 0.38396
 H1058 H 0.62726 0.80110 0.44192
 H1059 H 0.68307 0.75031 0.42266
 H1060 H 0.60140 0.80180 0.36754
 C1061 C 0.91696 0.75520 0.84376
 C1062 C 0.92604 0.78786 0.86987
 C1063 C 0.93317 0.75990 0.90129
 C1064 C 0.92414 0.72726 0.87537
 C1065 C 0.89231 0.76212 0.91348
 C1066 C 0.88477 0.79005 0.88152
 C1067 C 0.87608 0.75734 0.85565
 C1068 C 0.88302 0.72946 0.88709
 H1069 H 0.92724 0.75231 0.81496
 H1070 H 0.94394 0.81192 0.86290
 H1071 H 0.94055 0.70135 0.87290
 H1072 H 0.88179 0.76504 0.94217
 H1073 H 0.86813 0.81583 0.88366
 H1074 H 0.86501 0.70543 0.89385
 C1075 C 0.38110 0.28792 0.38063
 C1076 C 0.38928 0.25966 0.41212
 C1077 C 0.42995 0.25770 0.39927
 C1078 C 0.42216 0.28594 0.36827
 C1079 C 0.42052 0.22534 0.37313
 C1080 C 0.37959 0.22726 0.38554
 C1081 C 0.37198 0.25548 0.35454
 C1082 C 0.41270 0.25358 0.34196
 H1083 H 0.36446 0.31364 0.38340
 H1084 H 0.37947 0.26223 0.44110
 H1085 H 0.43991 0.31011 0.36126
 H1086 H 0.43701 0.19955 0.37011
 H1087 H 0.36178 0.20310 0.39240
 H1088 H 0.42255 0.25105 0.31297
 C1089 C 0.10119 0.78525 0.14549
 C1090 C 0.09684 0.78824 0.10294
 C1091 C 0.06595 0.75875 0.10471
 C1092 C 0.07015 0.75581 0.14699
 C1093 C 0.09479 0.72773 0.09917
 C1094 C 0.12622 0.75715 0.09795
 C1095 C 0.12995 0.75415 0.14026
 C1096 C 0.09905 0.72477 0.14167
 H1097 H 0.10419 0.80916 0.16464
 H1098 H 0.09550 0.81458 0.08702
 H1099 H 0.04798 0.75532 0.16818
 H1100 H 0.09172 0.70389 0.07999
 H1101 H 0.14954 0.75763 0.07799
 H1102 H 0.10022 0.69839 0.15754
 C1103 C 0.60017 0.28383 0.64459
 C1104 C 0.59621 0.28756 0.60207
 C1105 C 0.56678 0.25660 0.60281
 C1106 C 0.57065 0.25289 0.64508
 C1107 C 0.59714 0.22711 0.59699
 C1108 C 0.62714 0.25805 0.59683
 C1109 C 0.63049 0.25434 0.63914
 C1110 C 0.60108 0.22345 0.63950
 H1111 H 0.60150 0.30718 0.66447
 H1112 H 0.59381 0.31415 0.58671
 H1113 H 0.54842 0.25078 0.66613
 H1114 H 0.59546 0.20359 0.57727
 H1115 H 0.65066 0.26013 0.57720
 H1116 H 0.60335 0.19684 0.65486
 C1117 C 0.88346 0.26630 0.12066
 C1118 C 0.90976 0.23418 0.10960
 C1119 C 0.89488 0.23638 0.06950
 C1120 C 0.86904 0.26846 0.08029
 C1121 C 0.86458 0.20783 0.07850
 C1122 C 0.87896 0.20559 0.11897
 C1123 C 0.85316 0.23775 0.12954
 C1124 C 0.83854 0.23992 0.08935
 H1125 H 0.89111 0.29033 0.13828
 H1126 H 0.93915 0.23172 0.11838
 H1127 H 0.86491 0.29434 0.06409
 H1128 H 0.85681 0.18378 0.06095
 H1129 H 0.88293 0.17974 0.13518
 H1130 H 0.80911 0.24237 0.08064
 C1131 C 0.39779 0.74200 0.63034
 C1132 C 0.39426 0.71327 0.59848
 C1133 C 0.39433 0.74506 0.56990
 C1134 C 0.39836 0.77378 0.60125
 C1135 C 0.35179 0.74790 0.57190
 C1136 C 0.35152 0.71614 0.60058
 C1137 C 0.35528 0.74485 0.63184
 C1138 C 0.35562 0.77657 0.60334
 H1139 H 0.41649 0.73960 0.65468
 H1140 H 0.41017 0.68705 0.59615
 H1141 H 0.41779 0.79767 0.60118
 H1142 H 0.33150 0.75029 0.54890
 H1143 H 0.33198 0.69242 0.60036
 H1144 H 0.33969 0.80279 0.60559
 C1145 C 0.24797 0.15749 0.91561
 C1146 C 0.21524 0.13147 0.92475
 C1147 C 0.24305 0.10001 0.93213
 C1148 C 0.27576 0.12585 0.92302
 C1149 C 0.24072 0.08748 0.89139
 C1150 C 0.21294 0.11948 0.88360
 C1151 C 0.24571 0.14529 0.87484
 C1152 C 0.27345 0.11381 0.88200
 H1153 H 0.25100 0.18640 0.92572
 H1154 H 0.19125 0.13860 0.94253
 H1155 H 0.30168 0.12839 0.93947
 H1156 H 0.23765 0.05864 0.88113
 H1157 H 0.18715 0.11727 0.86690
 H1158 H 0.29739 0.10690 0.86408
 C1159 C 0.74533 0.60015 0.37159
 C1160 C 0.77532 0.59978 0.40248
 C1161 C 0.74470 0.60083 0.43207
 C1162 C 0.71464 0.60070 0.40169
 C1163 C 0.74541 0.64364 0.43194
 C1164 C 0.77607 0.64268 0.40234
 C1165 C 0.74615 0.64282 0.37206
 C1166 C 0.71544 0.64368 0.40141
 H1167 H 0.74534 0.58259 0.34638
 H1168 H 0.80007 0.58153 0.40323
 H1169 H 0.68925 0.58331 0.40176
 H1170 H 0.74509 0.66328 0.45553
 H1171 H 0.80150 0.66004 0.40238
 H1172 H 0.69072 0.66197 0.40053
 C1173 C 0.74928 0.08539 0.15128
 C1174 C 0.72281 0.07503 0.11941
 C1175 C 0.75672 0.06631 0.09523
 C1176 C 0.78318 0.07676 0.12692
 C1177 C 0.75718 0.10653 0.08050
 C1178 C 0.72323 0.11555 0.10527
 C1179 C 0.74966 0.12573 0.13702
 C1180 C 0.78361 0.11739 0.11280
 H1181 H 0.74593 0.07622 0.18045
 H1182 H 0.69776 0.05735 0.12217
 H1183 H 0.80787 0.06063 0.13577
 H1184 H 0.76056 0.11547 0.05128
 H1185 H 0.69858 0.13184 0.09663
 H1186 H 0.80849 0.13536 0.11034
 C1187 C 0.22273 0.62120 0.60607
 C1188 C 0.25684 0.60929 0.58279
 C1189 C 0.25212 0.56921 0.59703
 C1190 C 0.21809 0.58077 0.61980
 C1191 C 0.27789 0.57714 0.63003
 C1192 C 0.28261 0.61758 0.61632
 C1193 C 0.24852 0.62890 0.63908
 C1194 C 0.24386 0.58868 0.65294
 H1195 H 0.20004 0.63963 0.59644
 H1196 H 0.26232 0.61785 0.55379
 H1197 H 0.19153 0.56529 0.62119
 H1198 H 0.30061 0.55883 0.63983
 H1199 H 0.30934 0.63271 0.61530
 H1200 H 0.23839 0.57980 0.68188
 C1201 C 0.72863 0.89678 0.85442
 C1202 C 0.72945 0.89845 0.89722
 C1203 C 0.75904 0.92921 0.89497
 C1204 C 0.75823 0.92757 0.85231
 C1205 C 0.79008 0.89991 0.89625
 C1206 C 0.76046 0.86864 0.89799
 C1207 C 0.75956 0.86754 0.85541
 C1208 C 0.78922 0.89814 0.85338
 H1209 H 0.70317 0.89526 0.83716
 H1210 H 0.70470 0.89891 0.91539
 H1211 H 0.75751 0.95072 0.83205
 H1212 H 0.81551 0.90156 0.91354
 H1213 H 0.76135 0.84407 0.91654
 H1214 H 0.81399 0.89769 0.83521
 C1215 C 0.28660 0.39677 0.35449
 C1216 C 0.25627 0.42687 0.35334
 C1217 C 0.25724 0.42875 0.39599
 C1218 C 0.28762 0.39875 0.39735
 C1219 C 0.22699 0.39864 0.39847
 C1220 C 0.22602 0.39676 0.35569
 C1221 C 0.25629 0.36681 0.35670
 C1222 C 0.25733 0.36811 0.39929
 H1223 H 0.31133 0.39572 0.33627
 H1224 H 0.25595 0.44983 0.33288
 H1225 H 0.31314 0.39990 0.41455
 H1226 H 0.20230 0.39972 0.41669
 H1227 H 0.20046 0.39575 0.33852
 H1228 H 0.25772 0.34364 0.41797
 C1229 C 0.26975 0.89130 0.12157
 C1230 C 0.27505 0.87676 0.08161
 C1231 C 0.24105 0.89912 0.06888
 C1232 C 0.23566 0.91417 0.10850
 C1233 C 0.21537 0.86618 0.07714
 C1234 C 0.24937 0.84365 0.08988
 C1235 C 0.24403 0.85835 0.12967
 C1236 C 0.20996 0.88068 0.11711
 H1237 H 0.29208 0.90149 0.14016
 H1238 H 0.30183 0.87512 0.06665
 H1239 H 0.22983 0.94330 0.11644
 H1240 H 0.19301 0.85585 0.05865
 H1241 H 0.25518 0.81455 0.08173
 H1242 H 0.18295 0.88200 0.13157
 C1243 C 0.77569 0.35665 0.59905
 C1244 C 0.74467 0.35238 0.56986
 C1245 C 0.74303 0.39484 0.56593
 C1246 C 0.77404 0.39932 0.59507
 C1247 C 0.71349 0.39719 0.59658
 C1248 C 0.71517 0.35447 0.60066
 C1249 C 0.74625 0.35866 0.62971
 C1250 C 0.74455 0.40113 0.62625
 H1251 H 0.80154 0.34002 0.60031
 H1252 H 0.74463 0.33127 0.54756
 H1253 H 0.79844 0.41789 0.59237
 H1254 H 0.68768 0.41386 0.59518
 H1255 H 0.69072 0.33593 0.60328
 H1256 H 0.74455 0.42100 0.64970
 C1257 C 0.10482 0.14566 0.72816
 C1258 C 0.10200 0.10296 0.73150
 C1259 C 0.06999 0.10771 0.75927
 C1260 C 0.07273 0.15023 0.75586
 C1261 C 0.09777 0.10784 0.79175
 C1262 C 0.13031 0.10359 0.76398
 C1263 C 0.13252 0.14608 0.76058
 C1264 C 0.10058 0.15055 0.78832
 H1265 H 0.10798 0.16126 0.70182
 H1266 H 0.10223 0.08324 0.70793
 H1267 H 0.05019 0.17086 0.75250
 H1268 H 0.09452 0.09226 0.81808
 H1269 H 0.15431 0.08463 0.76730
 H1270 H 0.09993 0.17047 0.81164
 C1271 C 0.62161 0.61850 0.29308
 C1272 C 0.58092 0.63226 0.29154
 C1273 C 0.57187 0.60220 0.26273
 C1274 C 0.61218 0.58795 0.26425
 C1275 C 0.58193 0.62881 0.23093
 C1276 C 0.59099 0.65903 0.25973
 C1277 C 0.63140 0.64509 0.26120
 C1278 C 0.62251 0.61502 0.23241
 H1279 H 0.63832 0.61445 0.31864
 H1280 H 0.56361 0.63935 0.31588
 H1281 H 0.62116 0.55858 0.26616
 H1282 H 0.56537 0.63309 0.20533
 H1283 H 0.58189 0.68838 0.25780
 H1284 H 0.63988 0.60806 0.20808
 C1285 C 0.09653 0.86996 0.23904
 C1286 C 0.09611 0.89941 0.27043
 C1287 C 0.10334 0.93030 0.24172
 C1288 C 0.10316 0.90144 0.21031
 C1289 C 0.14544 0.92583 0.24677
 C1290 C 0.13844 0.89490 0.27544
 C1291 C 0.13867 0.86607 0.24411
 C1292 C 0.14548 0.89693 0.21539
 H1293 H 0.07664 0.84667 0.23592
 H1294 H 0.07564 0.90086 0.29327
 H1295 H 0.08870 0.90453 0.18330
 H1296 H 0.16692 0.94761 0.25004
 H1297 H 0.15290 0.89195 0.30247
 H1298 H 0.16613 0.89585 0.19276
 C1299 C 0.65718 0.41041 0.74721
 C1300 C 0.63452 0.42303 0.71319
 C1301 C 0.60191 0.43195 0.73891
 C1302 C 0.62441 0.41938 0.77292
 C1303 C 0.58638 0.39233 0.73403
 C1304 C 0.61950 0.38305 0.70830
 C1305 C 0.64195 0.37064 0.74238
 C1306 C 0.60934 0.37943 0.76813
 H1307 H 0.68642 0.41831 0.75278
 H1308 H 0.64490 0.44115 0.69060
 H1309 H 0.62647 0.43465 0.79952
 H1310 H 0.55715 0.38454 0.72841
 H1311 H 0.61777 0.36822 0.68148
 H1312 H 0.59909 0.36122 0.79071
 C1313 C 0.84272 0.08334 0.24520
 C1314 C 0.86902 0.07412 0.21285
 C1315 C 0.90050 0.06761 0.24093
 C1316 C 0.87436 0.07677 0.27327
 C1317 C 0.91238 0.10858 0.23817
 C1318 C 0.88043 0.11548 0.21008
 C1319 C 0.85436 0.12433 0.24248
 C1320 C 0.88583 0.11802 0.27053
 H1321 H 0.81395 0.07284 0.24811
 H1322 H 0.86229 0.05584 0.18905
 H1323 H 0.87200 0.06060 0.29935
 H1324 H 0.94114 0.11905 0.23519
 H1325 H 0.88257 0.13171 0.18405
 H1326 H 0.89243 0.13637 0.29430
 C1327 C 0.34386 0.58926 0.74513
 C1328 C 0.36938 0.58005 0.71220
 C1329 C 0.40126 0.57284 0.73963
 C1330 C 0.37589 0.58208 0.77254
 C1331 C 0.41366 0.61367 0.73702
 C1332 C 0.38126 0.62129 0.70959
 C1333 C 0.35594 0.63013 0.74260
 C1334 C 0.38784 0.62318 0.76998
 H1335 H 0.31506 0.57899 0.74852
 H1336 H 0.36192 0.56209 0.68837
 H1337 H 0.37378 0.56571 0.79853
 H1338 H 0.44254 0.62368 0.73359
 H1339 H 0.38310 0.63787 0.68372
 H1340 H 0.39512 0.64124 0.79378
 C1341 C 0.90478 0.86276 0.72391
 C1342 C 0.90679 0.90557 0.72461
 C1343 C 0.93458 0.90308 0.75699
 C1344 C 0.93253 0.86041 0.75632
 C1345 C 0.90256 0.90479 0.78506
 C1346 C 0.87423 0.90669 0.75258
 C1347 C 0.87281 0.86407 0.75185
 C1348 C 0.90040 0.86189 0.78432
 H1349 H 0.90547 0.84544 0.69852
 H1350 H 0.90982 0.92370 0.69992
 H1351 H 0.95524 0.83978 0.75812
 H1352 H 0.90205 0.92215 0.81041
 H1353 H 0.84988 0.92541 0.75100
 H1354 H 0.89735 0.84376 0.80902
 C1355 C 0.37070 0.40643 0.25502
 C1356 C 0.39780 0.40393 0.28852
 C1357 C 0.43075 0.40118 0.26164
 C1358 C 0.40422 0.40429 0.22827
 C1359 C 0.42750 0.35856 0.26106
 C1360 C 0.39446 0.36109 0.28783
 C1361 C 0.36818 0.36385 0.25436
 C1362 C 0.40109 0.36157 0.22764
 H1363 H 0.34693 0.42579 0.25246
 H1364 H 0.39685 0.42141 0.31377
 H1365 H 0.40864 0.42221 0.20365
 H1366 H 0.44932 0.33709 0.26391
 H1367 H 0.38998 0.34317 0.31245
 H1368 H 0.40227 0.34415 0.20234
   
