data_POSCAR
  _audit_creation_date              2014-09-24
  _audit_creation_method            'ToBaCCo'
  _symmetry_space_group_name_H-M    'P1'
  _symmetry_Int_Tables_number       1
  _symmetry_cell_setting            triclinic
  loop_
  _symmetry_equiv_pos_as_xyz
 x,y,z
_cell_length_a 51.2917
_cell_length_b 51.2911
_cell_length_c 51.2265
_cell_angle_alpha 90.180400
_cell_angle_beta 90.248300
_cell_angle_gamma 90.244300
loop_
  _atom_site_label
  _atom_site_type_symbol
  _atom_site_fract_x
  _atom_site_fract_y
  _atom_site_fract_z
C1 C 0.72577 0.66869 0.96872
 H2 H 0.74467 0.66882 0.95942
 C3 C 0.70499 0.68227 0.95748
 H4 H 0.70790 0.69304 0.93956
 C5 C 0.69830 0.65315 1.00246
 H6 H 0.69546 0.64111 1.01946
 C7 C 0.67708 0.66646 0.99191
 H8 H 0.65811 0.66480 1.00100
 N9 N 0.72204 0.65433 0.99070
 C10 C 0.79790 0.63787 1.02560
 H11 H 0.79550 0.61703 1.02785
 C12 C 0.82066 0.65001 1.03438
 H13 H 0.83584 0.63853 1.04349
 C14 C 0.78097 0.67830 1.01102
 H15 H 0.76537 0.68918 1.00201
 C16 C 0.80354 0.69127 1.01957
 H17 H 0.80533 0.71217 1.01712
 Zn18 Zn 0.74937 0.63259 1.00256
 N19 N 0.77877 0.65200 1.01392
 C20 C 0.78380 0.61191 0.96508
 N21 N 0.75893 0.61090 0.97420
 C22 C 0.74029 0.59632 0.96191
 C23 C 0.74643 0.58200 0.93948
 C24 C 0.79074 0.59790 0.94284
 C25 C 0.73337 0.62664 1.05374
 C26 C 0.72426 0.61407 1.07602
 C27 C 0.72535 0.57316 1.05240
 C28 C 0.73450 0.58657 1.03050
 N29 N 0.73789 0.61290 1.03148
 H30 H 0.79819 0.62413 0.97455
 H31 H 0.72053 0.59630 0.96923
 H32 H 0.73145 0.57075 0.92955
 H33 H 0.81050 0.59916 0.93555
 H34 H 0.73650 0.64751 1.05400
 H35 H 0.72031 0.62538 1.09347
 H36 H 0.72227 0.55226 1.05132
 H37 H 0.73863 0.57599 1.01273
 C38 C 0.82358 0.67691 1.03124
 C39 C 0.68036 0.68085 0.96904
 C40 C 0.72001 0.58711 1.07532
 C41 C 0.77189 0.58298 0.92981
 C42 C 0.73034 0.33774 0.52245
 H43 H 0.74921 0.33675 0.53189
 C44 C 0.70924 0.32373 0.53257
 H45 H 0.71188 0.31180 0.54979
 C46 C 0.70333 0.35564 0.48941
 H47 H 0.70082 0.36871 0.47313
 C48 C 0.68180 0.34197 0.49887
 H49 H 0.66291 0.34437 0.48965
 N50 N 0.72700 0.35342 0.50132
 C51 C 0.80372 0.36955 0.46843
 H52 H 0.80246 0.39059 0.46771
 C53 C 0.82571 0.35700 0.45875
 H54 H 0.84149 0.36838 0.45052
 C55 C 0.78449 0.32899 0.47974
 H56 H 0.76824 0.31820 0.48769
 C57 C 0.80622 0.31562 0.47021
 H58 H 0.80674 0.29453 0.47092
 Zn59 Zn 0.75503 0.37512 0.49084
 N60 N 0.78378 0.35551 0.47887
 C61 C 0.78975 0.39366 0.52978
 N62 N 0.76500 0.39535 0.52026
 C63 C 0.74659 0.40984 0.53265
 C64 C 0.75288 0.42350 0.55552
 C65 C 0.79683 0.40700 0.55251
 C66 C 0.73921 0.38380 0.43986
 C67 C 0.73027 0.39759 0.41822
 C68 C 0.73266 0.43728 0.44371
 C69 C 0.74163 0.42271 0.46495
 N70 N 0.74424 0.39638 0.46276
 H71 H 0.80393 0.38152 0.52017
 H72 H 0.72692 0.41040 0.52497
 H73 H 0.73809 0.43478 0.56544
 H74 H 0.81651 0.40530 0.56008
 H75 H 0.74172 0.36290 0.43862
 H76 H 0.72577 0.38730 0.40024
 H77 H 0.73006 0.45814 0.44568
 H78 H 0.74616 0.43238 0.48318
 C79 C 0.82702 0.32982 0.45968
 C80 C 0.68470 0.32611 0.52080
 C81 C 0.72672 0.42451 0.42023
 C82 C 0.77823 0.42194 0.56555
 C83 C 0.23038 -0.16201 0.02219
 H84 H 0.24927 -0.16293 0.03161
 C85 C 0.20932 -0.17600 0.03239
 H86 H 0.21200 -0.18787 0.04964
 C87 C 0.20331 -0.14425 -0.01088
 H88 H 0.20076 -0.13126 -0.02721
 C89 C 0.18181 -0.15792 -0.00135
 H90 H 0.16291 -0.15558 -0.01055
 N91 N 0.22700 -0.14640 0.00101
 C92 C 0.30358 -0.13030 -0.03221
 H93 H 0.30227 -0.10928 -0.03305
 C94 C 0.32558 -0.14285 -0.04189
 H95 H 0.34130 -0.13148 -0.05024
 C96 C 0.28450 -0.17084 -0.02059
 H97 H 0.26831 -0.18163 -0.01252
 C98 C 0.30623 -0.18421 -0.03012
 H99 H 0.30682 -0.20530 -0.02927
 Zn100 Zn 0.25498 -0.12472 -0.00962
 N101 N 0.28372 -0.14433 -0.02162
 C102 C 0.28983 -0.10602 0.02911
 N103 N 0.26505 -0.10437 0.01968
 C104 C 0.24669 -0.08985 0.03211
 C105 C 0.25307 -0.07613 0.05492
 C106 C 0.29701 -0.09263 0.05177
 C107 C 0.23906 -0.11628 -0.06060
 C108 C 0.22999 -0.10264 -0.08228
 C109 C 0.23226 -0.06281 -0.05693
 C110 C 0.24136 -0.07727 -0.03567
 N111 N 0.24408 -0.10358 -0.03777
 H112 H 0.30397 -0.11819 0.01947
 H113 H 0.22698 -0.08931 0.02452
 H114 H 0.23832 -0.06484 0.06488
 H115 H 0.31671 -0.09431 0.05927
 H116 H 0.24166 -0.13718 -0.06174
 H117 H 0.22553 -0.11315 -0.10016
 H118 H 0.22961 -0.04194 -0.05493
 H119 H 0.24589 -0.06751 -0.01748
 C120 C 0.32696 -0.17002 -0.04080
 C121 C 0.18476 -0.17370 0.02064
 C122 C 0.22629 -0.07569 -0.08039
 C123 C 0.27846 -0.07766 0.06486
 C124 C 0.22606 0.16860 0.46805
 H125 H 0.24497 0.16886 0.45877
 C126 C 0.20524 0.18216 0.45686
 H127 H 0.20813 0.19304 0.43900
 C128 C 0.19862 0.15278 0.50168
 H129 H 0.19581 0.14064 0.51861
 C130 C 0.17736 0.16606 0.49118
 H131 H 0.15839 0.16428 0.50024
 N132 N 0.22237 0.15411 0.48995
 C133 C 0.29826 0.13775 0.52484
 H134 H 0.29591 0.11689 0.52696
 C135 C 0.32096 0.14991 0.53372
 H136 H 0.33617 0.13842 0.54280
 C137 C 0.28122 0.17820 0.51045
 H138 H 0.26560 0.18909 0.50148
 C139 C 0.30374 0.19120 0.51912
 H140 H 0.30547 0.21211 0.51679
 Zn141 Zn 0.24978 0.13243 0.50174
 N142 N 0.27910 0.15188 0.51320
 C143 C 0.28429 0.11202 0.46420
 N144 N 0.25943 0.11087 0.47331
 C145 C 0.24086 0.09621 0.46100
 C146 C 0.24708 0.08196 0.43854
 C147 C 0.29131 0.09808 0.44194
 C148 C 0.23375 0.12624 0.55289
 C149 C 0.22476 0.11354 0.57514
 C150 C 0.22610 0.07273 0.55144
 C151 C 0.23513 0.08624 0.52955
 N152 N 0.23836 0.11259 0.53059
 H153 H 0.29862 0.12429 0.47369
 H154 H 0.22111 0.09608 0.46831
 H155 H 0.23216 0.07064 0.42859
 H156 H 0.31107 0.09944 0.43465
 H157 H 0.23675 0.14713 0.55321
 H158 H 0.22072 0.12466 0.59267
 H159 H 0.22313 0.05183 0.55043
 H160 H 0.23932 0.07572 0.51176
 C161 C 0.32381 0.17683 0.53074
 C162 C 0.18060 0.18058 0.46839
 C163 C 0.22072 0.08659 0.57436
 C164 C 0.27254 0.08308 0.42889
 C165 C 0.16945 0.46795 0.22615
 H166 H 0.16963 0.45873 0.24512
 C167 C 0.18300 0.45668 0.20537
 H168 H 0.19381 0.43883 0.20836
 C169 C 0.15378 0.50149 0.19852
 H170 H 0.14169 0.51841 0.19561
 C171 C 0.16705 0.49091 0.17729
 H172 H 0.16533 0.49990 0.15825
 N173 N 0.15502 0.48983 0.22233
 C174 C 0.13841 0.52475 0.29817
 H175 H 0.11756 0.52683 0.29575
 C176 C 0.15050 0.53370 0.32091
 H177 H 0.13896 0.54277 0.33607
 C178 C 0.17893 0.51044 0.28129
 H179 H 0.18988 0.50148 0.26570
 C180 C 0.19186 0.51917 0.30384
 H181 H 0.21277 0.51689 0.30564
 Zn182 Zn 0.13326 0.50165 0.24967
 N183 N 0.15261 0.51313 0.27907
 C184 C 0.11266 0.46418 0.28422
 N185 N 0.11163 0.47327 0.25931
 C186 C 0.09704 0.46098 0.24067
 C187 C 0.08272 0.43856 0.24686
 C188 C 0.09865 0.44195 0.29121
 C189 C 0.12715 0.55272 0.23345
 C190 C 0.11447 0.57493 0.22442
 C191 C 0.07364 0.55125 0.22581
 C192 C 0.08713 0.52939 0.23489
 N193 N 0.11348 0.53044 0.23811
 H194 H 0.12488 0.47366 0.29861
 H195 H 0.09700 0.46829 0.22088
 H196 H 0.07146 0.42863 0.23188
 H197 H 0.09992 0.43467 0.31101
 H198 H 0.14804 0.55304 0.23646
 H199 H 0.12560 0.59243 0.22034
 H200 H 0.05274 0.55024 0.22286
 H201 H 0.07659 0.51164 0.23913
 C202 C 0.17742 0.53079 0.32385
 C203 C 0.18149 0.46812 0.18065
 C204 C 0.08752 0.57414 0.22038
 C205 C 0.08371 0.42892 0.27236
 C206 C -0.16317 0.02302 0.22947
 H207 H -0.16421 0.03242 0.24837
 C208 C -0.17706 0.03319 0.20829
 H209 H -0.18896 0.05039 0.21096
 C210 C -0.14520 -0.00994 0.20249
 H211 H -0.13215 -0.02620 0.20003
 C212 C -0.15875 -0.00046 0.18087
 H213 H -0.15624 -0.00969 0.16198
 N214 N -0.14750 0.00192 0.22618
 C215 C -0.13144 -0.03103 0.30300
 H216 H -0.11041 -0.03176 0.30171
 C217 C -0.14396 -0.04073 0.32504
 H218 H -0.13256 -0.04898 0.34082
 C219 C -0.17201 -0.01967 0.28383
 H220 H -0.18282 -0.01168 0.26759
 C221 C -0.18536 -0.02921 0.30561
 H222 H -0.20645 -0.02848 0.30618
 Zn223 Zn -0.12587 -0.00856 0.25430
 N224 N -0.14550 -0.02056 0.28307
 C225 C -0.10733 0.03026 0.28910
 N226 N -0.10561 0.02079 0.26432
 C227 C -0.09103 0.03317 0.24594
 C228 C -0.07728 0.05595 0.25230
 C229 C -0.09392 0.05290 0.29626
 C230 C -0.11720 -0.05946 0.23847
 C231 C -0.10341 -0.08107 0.22959
 C232 C -0.06369 -0.05563 0.23214
 C233 C -0.07827 -0.03441 0.24104
 N234 N -0.10461 -0.03660 0.24355
 H235 H -0.11955 0.02066 0.30326
 H236 H -0.09043 0.02554 0.22624
 H237 H -0.06592 0.06586 0.23754
 H238 H -0.09563 0.06041 0.31596
 H239 H -0.13811 -0.06069 0.24090
 H240 H -0.11371 -0.09902 0.22506
 H241 H -0.04281 -0.05367 0.22963
 H242 H -0.06858 -0.01622 0.24562
 C243 C -0.17114 -0.03978 0.32641
 C244 C -0.17459 0.02149 0.18370
 C245 C -0.07647 -0.07907 0.22616
 C246 C -0.07886 0.06592 0.27770
 C247 C 0.33716 0.52275 0.73071
 H248 H 0.33618 0.53210 0.74964
 C249 C 0.32318 0.53297 0.70962
 H250 H 0.31128 0.55016 0.71231
 C251 C 0.35503 0.48987 0.70356
 H252 H 0.36807 0.47362 0.70099
 C253 C 0.34138 0.49943 0.68203
 H254 H 0.34379 0.49031 0.66309
 N255 N 0.35281 0.50166 0.72730
 C256 C 0.36898 0.46853 0.80402
 H257 H 0.39002 0.46785 0.80275
 C258 C 0.35645 0.45871 0.82600
 H259 H 0.36785 0.45043 0.84176
 C260 C 0.32841 0.47983 0.78482
 H261 H 0.31761 0.48783 0.76858
 C262 C 0.31505 0.47017 0.80654
 H263 H 0.29396 0.47082 0.80706
 Zn264 Zn 0.37452 0.49109 0.75532
 N265 N 0.35493 0.47902 0.78410
 C266 C 0.39320 0.52985 0.79014
 N267 N 0.39482 0.52041 0.76534
 C268 C 0.40931 0.53281 0.74691
 C269 C 0.42305 0.55561 0.75323
 C270 C 0.40661 0.55250 0.79725
 C271 C 0.38310 0.44023 0.73932
 C272 C 0.39685 0.41864 0.73032
 C273 C 0.43659 0.44404 0.73285
 C274 C 0.42206 0.46524 0.74187
 N275 N 0.39573 0.46306 0.74444
 H276 H 0.38105 0.52022 0.80434
 H277 H 0.40982 0.52520 0.72720
 H278 H 0.43433 0.56554 0.73842
 H279 H 0.40497 0.56001 0.81697
 H280 H 0.36219 0.43901 0.74180
 H281 H 0.38652 0.40071 0.72576
 H282 H 0.45746 0.44599 0.73029
 H283 H 0.43177 0.48341 0.74648
 C284 C 0.32927 0.45956 0.82731
 C285 C 0.32556 0.52133 0.68501
 C286 C 0.42378 0.42063 0.72682
 C287 C 0.42156 0.56556 0.77863
 C288 C 0.67010 0.96858 0.72665
 H289 H 0.67035 0.95927 0.74558
 C290 C 0.68361 0.95744 0.70578
 H291 H 0.69447 0.93959 0.70865
 C292 C 0.65427 1.00221 0.69922
 H293 H 0.64213 1.01911 0.69642
 C294 C 0.66751 0.99176 0.67790
 H295 H 0.66570 1.00083 0.65891
 N296 N 0.65560 0.99044 0.72298
 C297 C 0.63896 1.02496 0.79901
 H298 H 0.61810 1.02696 0.79663
 C299 C 0.65104 1.03386 0.82178
 H300 H 0.63941 1.04282 0.83696
 C301 C 0.67951 1.01088 0.78200
 H302 H 0.69046 1.00204 0.76635
 C303 C 0.69244 1.01957 0.80457
 H304 H 0.71338 1.01735 0.80626
 Zn305 Zn 0.63383 1.00206 0.75040
 N306 N 0.65318 1.01348 0.77983
 C307 C 0.61336 0.96436 0.78479
 N308 N 0.61230 0.97357 0.75992
 C309 C 0.59774 0.96132 0.74123
 C310 C 0.58346 0.93885 0.74733
 C311 C 0.59939 0.94208 0.79169
 C312 C 0.62754 1.05318 0.73440
 C313 C 0.61480 1.07536 0.72536
 C314 C 0.57406 1.05151 0.72659
 C315 C 0.58761 1.02970 0.73567
 N316 N 0.61395 1.03084 0.73897
 H317 H 0.62556 0.97382 0.79922
 H318 H 0.59768 0.96871 0.72147
 H319 H 0.57220 0.92897 0.73231
 H320 H 0.60067 0.93473 0.81146
 H321 H 0.64843 1.05359 0.73745
 H322 H 0.62587 1.09291 0.72133
 H323 H 0.55317 1.05041 0.72355
 H324 H 0.57714 1.01188 0.73984
 C325 C 0.67799 1.03106 0.82467
 C326 C 0.68200 0.96898 0.68111
 C327 C 0.58786 1.07446 0.72123
 C328 C 0.58446 0.92911 0.77279
 C329 C 0.02224 0.22971 -0.16189
 H330 H 0.03163 0.24861 -0.16276
 C331 C 0.03250 0.20869 -0.17587
 H332 H 0.04976 0.21141 -0.18768
 C333 C -0.01080 0.20257 -0.14425
 H334 H -0.02713 0.19997 -0.13129
 C335 C -0.00121 0.18110 -0.15791
 H336 H -0.01037 0.16218 -0.15560
 N337 N 0.00105 0.22628 -0.14634
 C338 C -0.03209 0.30281 -0.13007
 H339 H -0.03291 0.30143 -0.10902
 C340 C -0.04177 0.32486 -0.14258
 H341 H -0.05009 0.34054 -0.13116
 C342 C -0.02053 0.28387 -0.17070
 H343 H -0.01248 0.26771 -0.18154
 C344 C -0.03006 0.30565 -0.18404
 H345 H -0.02925 0.30630 -0.20515
 Zn346 Zn -0.00958 0.25418 -0.12458
 N347 N -0.02154 0.28300 -0.14416
 C348 C 0.02914 0.28891 -0.10571
 N349 N 0.01969 0.26413 -0.10413
 C350 C 0.03208 0.24569 -0.08965
 C351 C 0.05490 0.25197 -0.07590
 C352 C 0.05180 0.29599 -0.09227
 C353 C -0.06049 0.23822 -0.11625
 C354 C -0.08216 0.22916 -0.10264
 C355 C -0.05687 0.23134 -0.06270
 C356 C -0.03562 0.24043 -0.07714
 N357 N -0.03770 0.24321 -0.10349
 H358 H 0.01952 0.30312 -0.11785
 H359 H 0.02447 0.22599 -0.08918
 H360 H 0.06483 0.23715 -0.06465
 H361 H 0.05932 0.31569 -0.09390
 H362 H -0.06162 0.24087 -0.13717
 H363 H -0.10003 0.22474 -0.11320
 H364 H -0.05489 0.22866 -0.04181
 H365 H -0.01746 0.24494 -0.06734
 C366 C -0.04071 0.32633 -0.16978
 C367 C 0.02079 0.18411 -0.17361
 C368 C -0.08030 0.22542 -0.07565
 C369 C 0.06486 0.27735 -0.07736
 C370 C 0.46887 0.22607 0.16912
 H371 H 0.45956 0.24496 0.16928
 C372 C 0.45772 0.20525 0.18273
 H373 H 0.43986 0.20812 0.19355
 C374 C 0.50254 0.19867 0.15345
 H375 H 0.51947 0.19587 0.14134
 C376 C 0.49208 0.17741 0.16678
 H377 H 0.50116 0.15845 0.16507
 N378 N 0.49077 0.22239 0.15467
 C379 C 0.52533 0.29832 0.13785
 H380 H 0.52743 0.29589 0.11698
 C381 C 0.53414 0.32112 0.14990
 H382 H 0.54313 0.33630 0.13830
 C383 C 0.51108 0.28143 0.17845
 H384 H 0.50219 0.26582 0.18945
 C385 C 0.51967 0.30403 0.19134
 H386 H 0.51736 0.30585 0.21227
 Zn387 Zn 0.50242 0.24974 0.13280
 N388 N 0.51380 0.27919 0.15211
 C389 C 0.46475 0.28403 0.11219
 N390 N 0.47394 0.25920 0.11119
 C391 C 0.46166 0.24050 0.09669
 C392 C 0.43915 0.24654 0.08243
 C393 C 0.44244 0.29088 0.09824
 C394 C 0.55356 0.23384 0.12661
 C395 C 0.57576 0.22485 0.11390
 C396 C 0.55195 0.22593 0.07308
 C397 C 0.53011 0.23497 0.08660
 N398 N 0.53122 0.23832 0.11296
 H399 H 0.47423 0.29847 0.12434
 H400 H 0.46903 0.22077 0.09668
 H401 H 0.42922 0.23151 0.07125
 H402 H 0.43509 0.31062 0.09948
 H403 H 0.55394 0.23694 0.14751
 H404 H 0.59331 0.22090 0.12502
 H405 H 0.55088 0.22286 0.05218
 H406 H 0.51230 0.23906 0.07608
 C407 C 0.53119 0.32408 0.17684
 C408 C 0.46928 0.18063 0.18125
 C409 C 0.57490 0.22067 0.08694
 C410 C 0.42941 0.27197 0.08339
 C411 C 0.96761 0.72584 0.66985
 H412 H 0.95836 0.74476 0.67013
 C413 C 0.95645 0.70500 0.68342
 H414 H 0.93865 0.70788 0.69434
 C415 C 1.00115 0.69841 0.65395
 H416 H 1.01803 0.69561 0.64177
 C417 C 0.99068 0.67713 0.66724
 H418 H 0.99972 0.65816 0.66543
 N419 N 0.98945 0.72216 0.65531
 C420 C 1.02423 0.79808 0.63889
 H421 H 1.02628 0.79577 0.61800
 C422 C 1.03317 0.82076 0.65106
 H423 H 1.04220 0.83597 0.63954
 C424 C 1.01000 0.78100 0.67943
 H425 H 1.00109 0.76536 0.69035
 C426 C 1.01873 0.80349 0.69243
 H427 H 1.01649 0.80519 0.71338
 Zn428 Zn 1.00119 0.74960 0.63360
 N429 N 1.01266 0.77891 0.65307
 C430 C 0.96364 0.78413 0.61316
 N431 N 0.97277 0.75927 0.61201
 C432 C 0.96049 0.74072 0.59730
 C433 C 0.93809 0.74695 0.58296
 C434 C 0.94143 0.79115 0.59914
 C435 C 1.05227 0.73357 0.62737
 C436 C 1.07448 0.72464 0.61463
 C437 C 1.05076 0.72614 0.57378
 C438 C 1.02890 0.73510 0.58733
 N439 N 1.02998 0.73823 0.61372
 H440 H 0.97310 0.79844 0.62547
 H441 H 0.96782 0.72097 0.59716
 H442 H 0.92819 0.73205 0.57159
 H443 H 0.93414 0.81091 0.60049
 H444 H 1.05262 0.73650 0.64830
 H445 H 1.09200 0.72057 0.62575
 H446 H 1.04973 0.72325 0.55284
 H447 H 1.01113 0.73933 0.57681
 C448 C 1.03030 0.82357 0.67802
 C449 C 0.96795 0.68036 0.68181
 C450 C 1.07367 0.72071 0.58763
 C451 C 0.92844 0.77240 0.58406
 C452 C 0.52250 0.73123 0.33643
 H453 H 0.53192 0.75012 0.33544
 C454 C 0.53263 0.71016 0.32243
 H455 H 0.54982 0.71282 0.31050
 C456 C 0.48954 0.70418 0.35435
 H457 H 0.47329 0.70164 0.36742
 C458 C 0.49900 0.68266 0.34068
 H459 H 0.48982 0.66377 0.34309
 N460 N 0.50141 0.72787 0.35212
 C461 C 0.46851 0.80451 0.36843
 H462 H 0.46782 0.80315 0.38948
 C463 C 0.45879 0.82655 0.35595
 H464 H 0.45057 0.84224 0.36747
 C465 C 0.47979 0.78548 0.32775
 H466 H 0.48775 0.76929 0.31690
 C467 C 0.47022 0.80726 0.31443
 H468 H 0.47092 0.80781 0.29330
 Zn469 Zn 0.49094 0.75584 0.37387
 N470 N 0.47895 0.78465 0.35430
 C471 C 0.52979 0.79054 0.39256
 N472 N 0.52031 0.76578 0.39418
 C473 C 0.53267 0.74735 0.40871
 C474 C 0.55546 0.75364 0.42249
 C475 C 0.55244 0.79762 0.40603
 C476 C 0.44004 0.73996 0.38252
 C477 C 0.41843 0.73102 0.39632
 C478 C 0.44390 0.73344 0.43608
 C479 C 0.46511 0.74241 0.42150
 N480 N 0.46291 0.74500 0.39513
 H481 H 0.52020 0.80474 0.38039
 H482 H 0.52503 0.72767 0.40922
 H483 H 0.56535 0.73884 0.43381
 H484 H 0.55997 0.81732 0.40439
 H485 H 0.43880 0.74246 0.36159
 H486 H 0.40048 0.72652 0.38600
 H487 H 0.44586 0.73087 0.45698
 H488 H 0.48331 0.74696 0.43120
 C489 C 0.45967 0.82799 0.32872
 C490 C 0.52091 0.68560 0.32482
 C491 C 0.42045 0.72750 0.42328
 C492 C 0.56544 0.77901 0.42102
 Si493 Si 0.36248 0.00323 0.24886
 Si494 Si 0.12223 1.00723 0.75099
 Si495 Si 0.62191 0.50849 0.24940
 Si496 Si 0.86158 0.50286 0.74982
 Si497 Si 0.24895 0.36083 0.00349
 Si498 Si 0.75095 0.12192 1.00729
 Si499 Si 0.25005 0.62276 0.50778
 Si500 Si 0.74893 0.86246 0.50329
 Si501 Si 0.00324 0.24903 0.36202
 Si502 Si 1.00778 0.75038 0.12174
 Si503 Si 0.50774 0.25019 0.62194
 Si504 Si 0.50343 0.74923 0.86195
 C505 C 0.42839 -0.10794 0.29588
 C506 C 0.41131 -0.09370 0.31585
 C507 C 0.39979 -0.07186 0.30628
 C508 C 0.40644 -0.06633 0.27765
 C509 C 0.39883 -0.09133 0.26286
 C510 C 0.41038 -0.11321 0.27244
 C511 C 0.44791 -0.08729 0.28636
 C512 C 0.43635 -0.06538 0.27676
 C513 C 0.44048 -0.13148 0.30663
 C514 C 0.44977 -0.15066 0.31648
 C515 C 0.39356 -0.04291 0.26762
 C516 C 0.38195 -0.02407 0.25985
 H517 H 0.40853 -0.10021 0.33580
 H518 H 0.38714 -0.05966 0.31803
 H519 H 0.38559 -0.09180 0.24627
 H520 H 0.40703 -0.13241 0.26407
 H521 H 0.46892 -0.08968 0.28706
 H522 H 0.44745 -0.04900 0.26925
 C523 C 0.92752 0.39168 0.79681
 C524 C 0.93655 0.41690 0.81041
 C525 C 0.92501 0.43879 0.80086
 C526 C 0.90556 0.43332 0.77864
 C527 C 0.88620 0.41345 0.78986
 C528 C 0.89773 0.39159 0.79940
 C529 C 0.93268 0.39620 0.76767
 C530 C 0.92112 0.41812 0.75810
 C531 C 0.93960 0.36812 0.80752
 C532 C 0.94889 0.34891 0.81729
 C533 C 0.89268 0.45675 0.76862
 C534 C 0.88107 0.47558 0.76085
 H535 H 0.95081 0.41751 0.82614
 H536 H 0.92936 0.45814 0.80838
 H537 H 0.86524 0.41629 0.79026
 H538 H 0.88664 0.37572 0.80796
 H539 H 0.94438 0.38335 0.75563
 H540 H 0.92292 0.42405 0.73786
 C541 C 0.05486 1.11869 0.79531
 C542 C 0.07161 1.10499 0.81599
 C543 C 0.08346 1.08301 0.80709
 C544 C 0.07741 1.07683 0.77836
 C545 C 0.08517 1.10157 0.76342
 C546 C 0.07331 1.12358 0.77233
 C547 C 0.03567 1.09771 0.78554
 C548 C 0.04755 1.07568 0.77662
 C549 C 0.04232 1.14235 0.80528
 C550 C 0.03238 1.16159 0.81437
 C551 C 0.09059 1.05329 0.76899
 C552 C 0.10242 1.03442 0.76163
 H553 H 0.07396 1.11194 0.83591
 H554 H 0.09593 1.07114 0.81938
 H555 H 0.09875 1.10177 0.74722
 H556 H 0.07673 1.14262 0.76378
 H557 H 0.01464 1.09997 0.78560
 H558 H 0.03669 1.05907 0.76904
 C559 C 0.55470 0.62005 0.29370
 C560 C 0.57125 0.62446 0.26921
 C561 C 0.58304 0.60241 0.26029
 C562 C 0.57713 0.57813 0.27674
 C563 C 0.54726 0.57615 0.27728
 C564 C 0.53546 0.59822 0.28621
 C565 C 0.57332 0.60764 0.31359
 C566 C 0.58509 0.58563 0.30468
 C567 C 0.54225 0.64376 0.30368
 C568 C 0.53238 0.66303 0.31278
 C569 C 0.59024 0.55455 0.26736
 C570 C 0.60205 0.53566 0.26001
 H571 H 0.57348 0.64321 0.25970
 H572 H 0.59538 0.60229 0.24312
 H573 H 0.53636 0.55898 0.27118
 H574 H 0.51443 0.59995 0.28776
 H575 H 0.57693 0.61546 0.33300
 H576 H 0.59878 0.57460 0.31646
 C577 C 0.55952 0.39255 0.20779
 C578 C 0.57770 0.38958 0.23144
 C579 C 0.58825 0.41255 0.23988
 C580 C 0.57958 0.43626 0.22384
 C581 C 0.54966 0.43569 0.22471
 C582 C 0.53910 0.41267 0.21626
 C583 C 0.57599 0.40652 0.18711
 C584 C 0.58651 0.42945 0.19553
 C585 C 0.54857 0.36782 0.19821
 C586 C 0.54030 0.34768 0.18916
 C587 C 0.59150 0.46081 0.23266
 C588 C 0.60261 0.48042 0.23952
 H589 H 0.58188 0.37108 0.24078
 H590 H 0.60147 0.41372 0.25646
 H591 H 0.53784 0.45188 0.23139
 H592 H 0.51822 0.40914 0.21570
 H593 H 0.57909 0.39905 0.16751
 H594 H 0.59862 0.44162 0.18316
 C595 C 0.05914 0.89171 0.70924
 C596 C 0.07815 0.88841 0.73219
 C597 C 0.08886 0.91129 0.74068
 C598 C 0.07951 0.93523 0.72539
 C599 C 0.04965 0.93447 0.72730
 C600 C 0.03892 0.91156 0.71879
 C601 C 0.07480 0.90615 0.68826
 C602 C 0.08549 0.92899 0.69674
 C603 C 0.04800 0.86709 0.69959
 C604 C 0.03959 0.84704 0.69047
 C605 C 0.09161 0.95968 0.73426
 C606 C 0.10283 0.97923 0.74113
 H607 H 0.08274 0.86977 0.74103
 H608 H 0.10264 0.91223 0.75681
 H609 H 0.03799 0.95047 0.73469
 H610 H 0.01806 0.90792 0.71890
 H611 H 0.07725 0.89906 0.66843
 H612 H 0.09709 0.94145 0.68418
 C613 C 0.93151 0.61503 0.71053
 C614 C 0.91502 0.60198 0.68905
 C615 C 0.90254 0.57995 0.69701
 C616 C 0.90774 0.57305 0.72568
 C617 C 0.90008 0.59753 0.74115
 C618 C 0.91258 0.61960 0.73318
 C619 C 0.95005 0.59363 0.72015
 C620 C 0.93754 0.57154 0.72813
 C621 C 0.94479 0.63874 0.70153
 C622 C 0.95544 0.65795 0.69314
 C623 C 0.89394 0.54942 0.73401
 C624 C 0.88173 0.53041 0.74049
 H625 H 0.91331 0.60941 0.66930
 H626 H 0.89015 0.56850 0.68407
 H627 H 0.88610 0.59751 0.75701
 H628 H 0.90932 0.63849 0.74220
 H629 H 0.97112 0.59566 0.72069
 H630 H 0.94788 0.55465 0.73549
 C631 C 0.43270 0.11532 0.20982
 C632 C 0.42375 0.09768 0.18721
 C633 C 0.41119 0.07565 0.19511
 C634 C 0.40880 0.07338 0.22486
 C635 C 0.39539 0.09866 0.23354
 C636 C 0.40796 0.12070 0.22564
 C637 C 0.44942 0.09774 0.22734
 C638 C 0.43684 0.07566 0.23526
 C639 C 0.44605 0.13901 0.20089
 C640 C 0.45674 0.15822 0.19254
 C641 C 0.39492 0.04976 0.23313
 C642 C 0.38267 0.03076 0.23957
 H643 H 0.42701 0.10209 0.16677
 H644 H 0.40371 0.06120 0.18144
 H645 H 0.37761 0.09919 0.24495
 H646 H 0.40095 0.14011 0.23027
 H647 H 0.46935 0.10224 0.23304
 H648 H 0.44598 0.06124 0.24773
 C649 C 0.29581 0.42731 -0.10755
 C650 C 0.31544 0.40934 -0.09394
 C651 C 0.30589 0.39767 -0.07214
 C652 C 0.27762 0.40509 -0.06601
 C653 C 0.26221 0.39844 -0.09094
 C654 C 0.27177 0.41013 -0.11278
 C655 C 0.28725 0.44669 -0.08636
 C656 C 0.27768 0.43499 -0.06449
 C657 C 0.30653 0.43956 -0.13104
 C658 C 0.31632 0.44899 -0.15019
 C659 C 0.26762 0.39207 -0.04263
 C660 C 0.25988 0.38037 -0.02382
 H661 H 0.33516 0.40607 -0.10082
 H662 H 0.31743 0.38443 -0.06035
 H663 H 0.24524 0.38572 -0.09139
 H664 H 0.26300 0.40742 -0.13193
 H665 H 0.28856 0.46772 -0.08836
 H666 H 0.27079 0.44598 -0.04777
 C667 C 0.79558 0.92843 0.39186
 C668 C 0.77029 0.91297 0.38722
 C669 C 0.76082 0.90142 0.40917
 C670 C 0.77756 0.90648 0.43361
 C671 C 0.77964 0.93627 0.43576
 C672 C 0.78913 0.94784 0.41378
 C673 C 0.81447 0.90890 0.40430
 C674 C 0.80502 0.89738 0.42621
 C675 C 0.80621 0.94052 0.36824
 C676 C 0.81595 0.94982 0.34900
 C677 C 0.76763 0.89359 0.45710
 C678 C 0.75992 0.88197 0.47597
 H679 H 0.76065 0.91129 0.36838
 H680 H 0.74305 0.88984 0.40913
 H681 H 0.77414 0.94731 0.45298
 H682 H 0.79174 0.96878 0.41218
 H683 H 0.83365 0.90452 0.39656
 H684 H 0.81609 0.88313 0.43724
 C685 C 0.79512 0.05473 1.11917
 C686 C 0.81554 0.07210 1.10588
 C687 C 0.80667 0.08388 1.08381
 C688 C 0.77823 0.07718 1.07713
 C689 C 0.76275 0.08437 1.10171
 C690 C 0.77163 0.07257 1.12381
 C691 C 0.78614 0.03547 1.09790
 C692 C 0.77725 0.04729 1.07578
 C693 C 0.80505 0.04227 1.14294
 C694 C 0.81413 0.03239 1.16226
 C695 C 0.76889 0.09030 1.05350
 C696 C 0.76155 0.10210 1.03455
 H697 H 0.83527 0.07489 1.11317
 H698 H 0.81880 0.09675 1.07220
 H699 H 0.74624 0.09755 1.10174
 H700 H 0.76274 0.07563 1.14276
 H701 H 0.78670 0.01443 1.10004
 H702 H 0.77019 0.03638 1.05896
 C703 C 0.29449 0.55537 0.61944
 C704 C 0.31473 0.57318 0.60645
 C705 C 0.30582 0.58503 0.58443
 C706 C 0.27753 0.57794 0.57750
 C707 C 0.26179 0.58466 0.60203
 C708 C 0.27070 0.57280 0.62408
 C709 C 0.28596 0.53617 0.59793
 C710 C 0.27703 0.54805 0.57586
 C711 C 0.30446 0.54284 0.64315
 C712 C 0.31354 0.53290 0.66243
 C713 C 0.26815 0.59112 0.55391
 C714 C 0.26076 0.60295 0.53501
 H715 H 0.33437 0.57621 0.61389
 H716 H 0.31783 0.59819 0.57301
 H717 H 0.24507 0.59758 0.60206
 H718 H 0.26164 0.57554 0.64299
 H719 H 0.28683 0.51513 0.59988
 H720 H 0.27026 0.53719 0.55890
 C721 C 0.20845 0.55964 0.39214
 C722 C 0.18759 0.57564 0.40632
 C723 C 0.19603 0.58634 0.42919
 C724 C 0.22452 0.58003 0.43572
 C725 C 0.24008 0.58906 0.41182
 C726 C 0.23163 0.57834 0.38891
 C727 C 0.21759 0.53940 0.41221
 C728 C 0.22606 0.55014 0.43516
 C729 C 0.19886 0.54850 0.36748
 C730 C 0.18978 0.54008 0.34739
 C731 C 0.23335 0.59213 0.46020
 C732 C 0.24020 0.60336 0.47977
 H733 H 0.16788 0.57830 0.39904
 H734 H 0.18355 0.59816 0.44149
 H735 H 0.25635 0.60264 0.41282
 H736 H 0.24065 0.58273 0.37029
 H737 H 0.21746 0.51852 0.40869
 H738 H 0.23317 0.53847 0.45131
 C739 C 0.70874 0.05919 0.89165
 C740 C 0.71991 0.03906 0.91078
 C741 C 0.72852 0.04970 0.93372
 C742 C 0.72509 0.07939 0.93522
 C743 C 0.69603 0.08400 0.92990
 C744 C 0.68744 0.07339 0.90704
 C745 C 0.73053 0.07944 0.88815
 C746 C 0.73913 0.09006 0.91105
 C747 C 0.69897 0.04815 0.86701
 C748 C 0.68975 0.03982 0.84694
 C749 C 0.73406 0.09140 0.95970
 C750 C 0.74101 0.10257 0.97927
 H751 H 0.72099 0.01832 0.90665
 H752 H 0.73698 0.03809 0.94926
 H753 H 0.68327 0.09464 0.94298
 H754 H 0.66733 0.07496 0.90054
 H755 H 0.73855 0.08491 0.86936
 H756 H 0.75453 0.10464 0.91187
 C757 C 0.71027 0.93246 0.61565
 C758 C 0.73402 0.91484 0.61979
 C759 C 0.74183 0.90231 0.59767
 C760 C 0.72510 0.90864 0.57358
 C761 C 0.72590 0.93847 0.57137
 C762 C 0.71810 0.95101 0.59350
 C763 C 0.68926 0.91461 0.60370
 C764 C 0.69705 0.90210 0.58162
 C765 C 0.70145 0.94577 0.63940
 C766 C 0.69320 0.95645 0.65865
 C767 C 0.73327 0.89480 0.54990
 C768 C 0.73966 0.88259 0.53086
 H769 H 0.74387 0.91245 0.63843
 H770 H 0.75837 0.88918 0.59736
 H771 H 0.73207 0.94882 0.55399
 H772 H 0.71758 0.97211 0.59508
 H773 H 0.66993 0.91202 0.61188
 H774 H 0.68439 0.88881 0.57089
 C775 C 0.20999 0.43126 0.11548
 C776 C 0.21827 0.44969 0.09341
 C777 C 0.22616 0.43704 0.07137
 C778 C 0.22498 0.40722 0.07360
 C779 C 0.19678 0.40102 0.08134
 C780 C 0.18890 0.41364 0.10333
 C781 C 0.23349 0.41336 0.11989
 C782 C 0.24138 0.40072 0.09787
 C783 C 0.20108 0.44469 0.13913
 C784 C 0.19275 0.45547 0.15829
 C785 C 0.23324 0.39327 0.05002
 C786 C 0.23967 0.38100 0.03103
 H787 H 0.21799 0.47080 0.09497
 H788 H 0.23264 0.44730 0.05405
 H789 H 0.18408 0.38787 0.07049
 H790 H 0.16945 0.41129 0.11131
 H791 H 0.24311 0.41088 0.13863
 H792 H 0.25777 0.38740 0.09775
 C793 C -0.10775 0.29626 0.42796
 C794 C -0.09390 0.31591 0.41018
 C795 C -0.07207 0.30630 0.39868
 C796 C -0.06617 0.27797 0.40605
 C797 C -0.09109 0.26272 0.39909
 C798 C -0.11295 0.27233 0.41061
 C799 C -0.08680 0.28749 0.44754
 C800 C -0.06491 0.27786 0.43600
 C801 C -0.13127 0.30703 0.44002
 C802 C -0.15045 0.31686 0.44929
 C803 C -0.04277 0.26789 0.39319
 C804 C -0.02397 0.26008 0.38156
 H805 H -0.10064 0.33568 0.40692
 H806 H -0.06012 0.31785 0.38558
 H807 H -0.09151 0.24581 0.38628
 H808 H -0.13209 0.26368 0.40768
 H809 H -0.08898 0.28871 0.46858
 H810 H -0.04833 0.27083 0.44714
 C811 C 0.39226 0.79645 0.92760
 C812 C 0.40627 0.81620 0.91004
 C813 C 0.42813 0.80661 0.89858
 C814 C 0.43390 0.77820 0.90577
 C815 C 0.40897 0.76308 0.89856
 C816 C 0.38708 0.77268 0.91004
 C817 C 0.41307 0.78747 0.94722
 C818 C 0.43500 0.77786 0.93573
 C819 C 0.36871 0.80721 0.93961
 C820 C 0.34951 0.81702 0.94885
 C821 C 0.45733 0.76813 0.89296
 C822 C 0.47616 0.76032 0.88139
 H823 H 0.39961 0.83601 0.90690
 H824 H 0.44019 0.81821 0.88564
 H825 H 0.40856 0.74627 0.88562
 H826 H 0.36792 0.76411 0.90693
 H827 H 0.41078 0.78853 0.96825
 H828 H 0.45149 0.77069 0.94690
 C829 C 1.11926 0.79504 0.05448
 C830 C 1.10627 0.81518 0.07236
 C831 C 1.08427 0.80621 0.08414
 C832 C 1.07736 0.77795 0.07692
 C833 C 1.10186 0.76218 0.08364
 C834 C 1.12389 0.77116 0.07184
 C835 C 1.09781 0.78659 0.03518
 C836 C 1.07575 0.77760 0.04699
 C837 C 1.14296 0.80508 0.04202
 C838 C 1.16222 0.81422 0.03214
 C839 C 1.05380 0.76850 0.09004
 C840 C 1.03492 0.76108 0.10186
 H841 H 1.11369 0.83480 0.07548
 H842 H 1.07285 0.81815 0.09734
 H843 H 1.10188 0.74539 0.09650
 H844 H 1.14278 0.76208 0.07460
 H845 H 1.09978 0.78757 0.01411
 H846 H 1.05883 0.77088 0.03605
 C847 C 0.61917 0.29486 0.55460
 C848 C 0.60567 0.31530 0.57175
 C849 C 0.58368 0.30632 0.58355
 C850 C 0.57729 0.27777 0.57707
 C851 C 0.60195 0.26259 0.58451
 C852 C 0.62397 0.27157 0.57270
 C853 C 0.59806 0.28554 0.53532
 C854 C 0.57602 0.27654 0.54715
 C855 C 0.64286 0.30490 0.54213
 C856 C 0.66213 0.31404 0.53226
 C857 C 0.55374 0.26832 0.59021
 C858 C 0.53488 0.26090 0.60205
 H859 H 0.61276 0.33512 0.57438
 H860 H 0.57193 0.31845 0.59627
 H861 H 0.60210 0.24618 0.59785
 H862 H 0.64298 0.26288 0.57591
 H863 H 0.60025 0.28594 0.51425
 H864 H 0.55932 0.26925 0.53623
 C865 C 0.39206 0.20812 0.55929
 C866 C 0.38880 0.23098 0.57838
 C867 C 0.41171 0.23952 0.58899
 C868 C 0.43564 0.22438 0.57947
 C869 C 0.43471 0.22636 0.54958
 C870 C 0.41176 0.21779 0.53895
 C871 C 0.40664 0.18719 0.57486
 C872 C 0.42951 0.19572 0.58546
 C873 C 0.36740 0.19843 0.54827
 C874 C 0.34732 0.18928 0.53994
 C875 C 0.46013 0.23330 0.59146
 C876 C 0.47971 0.24023 0.60261
 H877 H 0.37016 0.23972 0.58309
 H878 H 0.41268 0.25560 0.60280
 H879 H 0.45062 0.23383 0.53783
 H880 H 0.40800 0.21794 0.51808
 H881 H 0.39962 0.16735 0.57733
 H882 H 0.44208 0.18319 0.59698
 C883 C 0.89197 0.70821 0.05943
 C884 C 0.91200 0.71683 0.03894
 C885 C 0.93499 0.72542 0.04947
 C886 C 0.93562 0.72452 0.07942
 C887 C 0.92900 0.69620 0.08639
 C888 C 0.90609 0.68763 0.07589
 C889 C 0.88890 0.73179 0.07764
 C890 C 0.91185 0.74037 0.08815
 C891 C 0.86727 0.69849 0.04852
 C892 C 0.84716 0.68934 0.04030
 C893 C 0.96015 0.73347 0.09132
 C894 C 0.97974 0.74042 0.10242
 H895 H 0.90843 0.71627 0.01804
 H896 H 0.95111 0.73221 0.03761
 H897 H 0.94126 0.68391 0.09848
 H898 H 0.89874 0.66801 0.07901
 H899 H 0.87036 0.74099 0.08186
 H900 H 0.91295 0.75692 0.10138
 C901 C 0.61520 0.70963 0.93236
 C902 C 0.59828 0.68713 0.92189
 C903 C 0.57631 0.69514 0.90931
 C904 C 0.57336 0.72487 0.90841
 C905 C 0.59867 0.73487 0.89596
 C906 C 0.62067 0.72686 0.90855
 C907 C 0.59689 0.72578 0.94962
 C908 C 0.57486 0.73380 0.93701
 C909 C 0.63884 0.70060 0.94573
 C910 C 0.65800 0.69219 0.95645
 C911 C 0.54981 0.73326 0.89450
 C912 C 0.53086 0.73980 0.88221
 H913 H 0.60312 0.66668 0.92419
 H914 H 0.56233 0.68155 0.90084
 H915 H 0.59926 0.74721 0.87879
 H916 H 0.64009 0.73232 0.90217
 H917 H 0.60087 0.73051 0.96993
 H918 H 0.55998 0.74539 0.94651
 C919 C 0.11532 0.20936 0.43192
 C920 C 0.10239 0.18805 0.41514
 C921 C 0.08036 0.19605 0.40266
 C922 C 0.07337 0.22460 0.40815
 C923 C 0.09783 0.24024 0.40072
 C924 C 0.11988 0.23222 0.41322
 C925 C 0.09384 0.21866 0.45051
 C926 C 0.07176 0.22668 0.43800
 C927 C 0.13901 0.20032 0.44520
 C928 C 0.15820 0.19191 0.45586
 C929 C 0.04976 0.23299 0.39435
 C930 C 0.03076 0.23955 0.38215
 H931 H 0.10988 0.16837 0.41323
 H932 H 0.06899 0.18323 0.39008
 H933 H 0.09780 0.25624 0.38689
 H934 H 0.13875 0.24134 0.41010
 H935 H 0.09580 0.21895 0.47162
 H936 H 0.05482 0.23384 0.44838
 C937 C 0.55430 0.13925 0.68861
 C938 C 0.53199 0.13350 0.66936
 C939 C 0.52240 0.15521 0.65750
 C940 C 0.53606 0.18054 0.66607
 C941 C 0.56510 0.17593 0.66084
 C942 C 0.57468 0.15425 0.67268
 C943 C 0.54323 0.15939 0.70780
 C944 C 0.53362 0.18113 0.69593
 C945 C 0.56506 0.11591 0.70103
 C946 C 0.57489 0.09687 0.71058
 C947 C 0.52605 0.20380 0.65291
 C948 C 0.51839 0.22263 0.64122
 H949 H 0.52436 0.11409 0.66543
 H950 H 0.50654 0.15440 0.64341
 H951 H 0.57712 0.18860 0.64890
 H952 H 0.59491 0.14837 0.67087
 H953 H 0.54293 0.15680 0.72882
 H954 H 0.52509 0.19716 0.70677
 C955 C 1.05411 0.63914 0.18803
 C956 C 1.03064 0.63375 0.17010
 C957 C 1.02110 0.65554 0.15835
 C958 C 1.03597 0.68057 0.16568
 C959 C 1.06453 0.67493 0.15901
 C960 C 1.07405 0.65318 0.17074
 C961 C 1.04471 0.65997 0.20739
 C962 C 1.03516 0.68179 0.19562
 C963 C 1.06481 0.61571 0.20035
 C964 C 1.07460 0.59661 0.20981
 C965 C 1.02602 0.70391 0.15263
 C966 C 1.01840 0.72279 0.14098
 H967 H 1.02222 0.61453 0.16696
 H968 H 1.00450 0.65499 0.14513
 H969 H 1.07627 0.68700 0.14619
 H970 H 1.09395 0.64662 0.16797
 H971 H 1.04545 0.65777 0.22845
 H972 H 1.02772 0.69828 0.20659
 C973 C 0.95968 0.85813 0.19244
 C974 C 0.97002 0.83715 0.21108
 C975 C 0.98030 0.81605 0.19858
 C976 C 0.97920 0.81808 0.16869
 C977 C 0.99306 0.84385 0.16224
 C978 C 0.98279 0.86492 0.17473
 C979 C 0.94015 0.84384 0.17464
 C980 C 0.95039 0.82282 0.16217
 C981 C 0.94813 0.88077 0.20546
 C982 C 0.93751 0.89923 0.21533
 C983 C 0.98979 0.79550 0.15479
 C984 C 0.99760 0.77720 0.14234
 H985 H 0.96937 0.83873 0.23221
 H986 H 0.98846 0.79956 0.20897
 H987 H 1.00953 0.84539 0.14909
 H988 H 0.99046 0.88451 0.17228
 H989 H 0.91998 0.84971 0.17206
 H990 H 0.93900 0.81069 0.14893
 C991 C 0.45980 0.35789 0.69284
 C992 C 0.48206 0.36485 0.67416
 C993 C 0.49229 0.34380 0.66161
 C994 C 0.47923 0.31787 0.66898
 C995 C 0.45010 0.32191 0.66350
 C996 C 0.43990 0.34292 0.67603
 C997 C 0.47128 0.33742 0.71140
 C998 C 0.48152 0.31634 0.69883
 C999 C 0.44829 0.38051 0.70594
 C1000 C 0.43772 0.39895 0.71589
 C1001 C 0.48978 0.29530 0.65501
 C1002 C 0.49757 0.27701 0.64254
 H1003 H 0.48921 0.38455 0.67111
 H1004 H 0.50820 0.34547 0.64780
 H1005 H 0.43848 0.30934 0.65089
 H1006 H 0.41954 0.34833 0.67414
 H1007 H 0.47140 0.33934 0.73251
 H1008 H 0.49041 0.30019 0.70916
 C1009 C 0.45543 0.63426 0.80265
 C1010 C 0.47927 0.63037 0.82039
 C1011 C 0.48924 0.65304 0.83021
 C1012 C 0.47440 0.67740 0.82133
 C1013 C 0.44597 0.67236 0.82906
 C1014 C 0.43601 0.64972 0.81926
 C1015 C 0.46453 0.65341 0.78153
 C1016 C 0.47453 0.67614 0.79137
 C1017 C 0.44432 0.60978 0.79267
 C1018 C 0.43438 0.58959 0.78566
 C1019 C 0.48481 0.70164 0.83257
 C1020 C 0.49272 0.72110 0.84324
 H1021 H 0.48764 0.61147 0.82480
 H1022 H 0.50616 0.65356 0.84303
 H1023 H 0.43461 0.68547 0.84116
 H1024 H 0.41613 0.64344 0.82297
 H1025 H 0.46327 0.64946 0.76073
 H1026 H 0.48183 0.69167 0.77901
 C1027 C -0.04490 0.13444 0.30207
 C1028 C -0.02038 0.13051 0.31885
 C1029 C -0.01039 0.15310 0.32883
 C1030 C -0.02589 0.17743 0.32105
 C1031 C -0.05395 0.17178 0.32968
 C1032 C -0.06392 0.14922 0.31972
 C1033 C -0.03684 0.15420 0.28108
 C1034 C -0.02682 0.17685 0.29108
 C1035 C -0.05603 0.11004 0.29192
 C1036 C -0.06600 0.08990 0.28481
 C1037 C -0.01545 0.20158 0.33245
 C1038 C -0.00752 0.22097 0.34323
 H1039 H -0.01159 0.11164 0.32251
 H1040 H 0.00697 0.15359 0.34104
 H1041 H -0.06505 0.18444 0.34248
 H1042 H -0.08357 0.14257 0.32399
 H1043 H -0.03880 0.15070 0.26025
 H1044 H -0.02020 0.19276 0.27883
 C1045 C 0.04979 0.36098 0.29744
 C1046 C 0.04237 0.34013 0.27709
 C1047 C 0.03266 0.31776 0.28778
 C1048 C 0.03138 0.31853 0.31773
 C1049 C 0.01532 0.34288 0.32422
 C1050 C 0.02500 0.36519 0.31355
 C1051 C 0.06887 0.34739 0.31605
 C1052 C 0.05921 0.32512 0.32669
 C1053 C 0.06066 0.38513 0.28669
 C1054 C 0.07061 0.40512 0.27935
 C1055 C 0.02130 0.29477 0.32997
 C1056 C 0.01365 0.27589 0.34164
 H1057 H 0.04451 0.34272 0.25619
 H1058 H 0.02649 0.30117 0.27605
 H1059 H -0.00217 0.34261 0.33607
 H1060 H 0.01580 0.38403 0.31627
 H1061 H 0.08834 0.35461 0.32045
 H1062 H 0.07040 0.31327 0.34020
 C1063 C 0.55040 0.86113 0.79762
 C1064 C 0.54229 0.84065 0.77717
 C1065 C 0.53249 0.81827 0.78778
 C1066 C 0.53182 0.81869 0.81776
 C1067 C 0.51624 0.84317 0.82487
 C1068 C 0.52601 0.86548 0.81429
 C1069 C 0.56966 0.84705 0.81567
 C1070 C 0.55991 0.82478 0.82623
 C1071 C 0.56136 0.88529 0.78696
 C1072 C 0.57135 0.90529 0.77970
 C1073 C 0.52164 0.79492 0.82993
 C1074 C 0.51393 0.77605 0.84156
 H1075 H 0.54404 0.84347 0.75626
 H1076 H 0.52585 0.80191 0.77597
 H1077 H 0.49899 0.84299 0.83708
 H1078 H 0.51713 0.88440 0.81743
 H1079 H 0.58931 0.85396 0.81976
 H1080 H 0.57121 0.81262 0.83935
 C1081 C 0.68838 0.55484 0.13820
 C1082 C 0.67184 0.53035 0.13299
 C1083 C 0.66002 0.52078 0.15476
 C1084 C 0.66592 0.53665 0.17958
 C1085 C 0.65795 0.56465 0.17294
 C1086 C 0.66974 0.57420 0.15122
 C1087 C 0.70761 0.54699 0.15983
 C1088 C 0.69579 0.53741 0.18161
 C1089 C 0.70076 0.56558 0.11481
 C1090 C 0.71027 0.57544 0.09574
 C1091 C 0.65281 0.52667 0.20290
 C1092 C 0.64114 0.51906 0.22177
 H1093 H 0.66965 0.52129 0.11392
 H1094 H 0.64770 0.50351 0.15434
 H1095 H 0.64425 0.57602 0.18434
 H1096 H 0.66613 0.59375 0.14401
 H1097 H 0.72864 0.54876 0.15816
 H1098 H 0.70667 0.53098 0.19862
 C1099 C 0.18841 1.05325 0.63947
 C1100 C 0.17161 1.07340 0.65377
 C1101 C 0.15988 1.06393 0.67557
 C1102 C 0.16608 1.03521 0.68100
 C1103 C 0.19596 1.03385 0.68201
 C1104 C 0.20772 1.04334 0.66014
 C1105 C 0.17004 1.03014 0.63405
 C1106 C 0.15829 1.02066 0.65589
 C1107 C 0.20071 1.06390 0.61600
 C1108 C 0.21016 1.07367 0.59686
 C1109 C 0.15304 1.02532 0.70439
 C1110 C 0.14142 1.01775 0.72331
 H1111 H 0.16915 1.09339 0.64734
 H1112 H 0.14739 1.07581 0.68781
 H1113 H 0.20690 1.02609 0.69840
 H1114 H 0.22874 1.04372 0.65780
 H1115 H 0.16661 1.02192 0.61478
 H1116 H 0.14479 1.00430 0.65532
 C1117 C 0.19319 0.95914 0.85881
 C1118 C 0.21170 0.97075 0.83837
 C1119 C 0.19912 0.98104 0.81728
 C1120 C 0.16931 0.97866 0.81876
 C1121 C 0.16191 0.99160 0.84475
 C1122 C 0.17448 0.98133 0.86581
 C1123 C 0.17645 0.93926 0.84374
 C1124 C 0.16391 0.94951 0.82272
 C1125 C 0.20630 0.94757 0.88144
 C1126 C 0.21625 0.93691 0.89988
 C1127 C 0.15533 0.98926 0.79617
 C1128 C 0.14285 0.99706 0.77786
 H1129 H 0.23278 0.97092 0.84031
 H1130 H 0.20941 0.99002 0.80114
 H1131 H 0.14808 1.00747 0.84644
 H1132 H 0.17142 0.98840 0.88556
 H1133 H 0.17462 0.91887 0.84911
 H1134 H 0.15135 0.93790 0.81009
 C1135 C 0.69278 0.46059 0.35736
 C1136 C 0.67488 0.44106 0.34320
 C1137 C 0.66236 0.45127 0.32215
 C1138 C 0.66892 0.48004 0.31726
 C1139 C 0.69876 0.48106 0.31511
 C1140 C 0.71133 0.47081 0.33623
 C1141 C 0.67520 0.48377 0.36412
 C1142 C 0.66265 0.49400 0.34302
 C1143 C 0.70587 0.44907 0.38003
 C1144 C 0.71581 0.43848 0.39851
 C1145 C 0.65497 0.49060 0.29464
 C1146 C 0.64250 0.49837 0.27630
 H1147 H 0.67229 0.42092 0.34918
 H1148 H 0.64904 0.43988 0.31011
 H1149 H 0.70909 0.48914 0.29853
 H1150 H 0.73243 0.47011 0.33775
 H1151 H 0.67287 0.49150 0.38372
 H1152 H 0.64956 0.51051 0.34454
 C1153 C 0.80224 0.45548 0.63449
 C1154 C 0.78118 0.46294 0.65437
 C1155 C 0.79104 0.47280 0.67717
 C1156 C 0.82095 0.47419 0.67777
 C1157 C 0.82845 0.49014 0.65361
 C1158 C 0.81861 0.48031 0.63086
 C1159 C 0.82018 0.43653 0.64905
 C1160 C 0.83000 0.44635 0.67176
 C1161 C 0.79225 0.44451 0.60992
 C1162 C 0.78524 0.43467 0.58966
 C1163 C 0.83221 0.48446 0.70208
 C1164 C 0.84290 0.49226 0.72160
 H1165 H 0.76040 0.46071 0.65083
 H1166 H 0.77872 0.47902 0.69318
 H1167 H 0.84036 0.50768 0.65431
 H1168 H 0.82210 0.48941 0.61208
 H1169 H 0.82475 0.41705 0.64214
 H1170 H 0.84297 0.43528 0.68430
 C1171 C 0.30276 -0.04409 0.13368
 C1172 C 0.32058 -0.02032 0.12980
 C1173 C 0.33052 -0.01049 0.15251
 C1174 C 0.32166 -0.02538 0.17688
 C1175 C 0.32922 -0.05384 0.17173
 C1176 C 0.31931 -0.06366 0.14906
 C1177 C 0.28178 -0.03496 0.15293
 C1178 C 0.29174 -0.02510 0.17569
 C1179 C 0.29266 -0.05506 0.10916
 C1180 C 0.28556 -0.06491 0.08893
 C1181 C 0.33302 -0.01512 0.20115
 C1182 C 0.34376 -0.00733 0.22065
 H1183 H 0.32496 -0.01191 0.11089
 H1184 H 0.34340 0.00636 0.15304
 H1185 H 0.34129 -0.06531 0.18480
 H1186 H 0.32288 -0.08354 0.14272
 H1187 H 0.26098 -0.03610 0.14902
 H1188 H 0.27948 -0.01779 0.19129
 C1189 C 0.29774 0.04936 0.36087
 C1190 C 0.31542 0.06892 0.34674
 C1191 C 0.32611 0.05933 0.32446
 C1192 C 0.31812 0.03110 0.31840
 C1193 C 0.28817 0.03126 0.31799
 C1194 C 0.27743 0.04089 0.34037
 C1195 C 0.31481 0.02526 0.36527
 C1196 C 0.32551 0.01566 0.34295
 C1197 C 0.28693 0.06015 0.38504
 C1198 C 0.27956 0.07004 0.40505
 C1199 C 0.33040 0.02111 0.29463
 C1200 C 0.34209 0.01353 0.27574
 H1201 H 0.31918 0.08863 0.35362
 H1202 H 0.33901 0.07084 0.31226
 H1203 H 0.27647 0.02442 0.30162
 H1204 H 0.25652 0.04230 0.34319
 H1205 H 0.31812 0.01645 0.38423
 H1206 H 0.33800 -0.00138 0.34280
 C1207 C 0.79691 0.54915 0.86179
 C1208 C 0.81501 0.52585 0.86636
 C1209 C 0.82569 0.51621 0.84405
 C1210 C 0.81722 0.53081 0.81933
 C1211 C 0.82418 0.55946 0.82464
 C1212 C 0.81352 0.56908 0.84692
 C1213 C 0.77658 0.53944 0.84186
 C1214 C 0.78729 0.52977 0.81948
 C1215 C 0.78615 0.55998 0.88596
 C1216 C 0.77883 0.56990 0.90598
 C1217 C 0.82948 0.52078 0.79556
 C1218 C 0.84116 0.51318 0.77668
 H1219 H 0.81903 0.51758 0.88544
 H1220 H 0.83885 0.49969 0.84401
 H1221 H 0.83638 0.57120 0.81195
 H1222 H 0.81660 0.58907 0.85331
 H1223 H 0.75568 0.54007 0.84506
 H1224 H 0.77557 0.52212 0.80348
 C1225 C 0.13868 0.68863 0.55410
 C1226 C 0.15280 0.67143 0.57408
 C1227 C 0.17457 0.65978 0.56453
 C1228 C 0.18014 0.66644 0.53592
 C1229 C 0.18128 0.69634 0.53503
 C1230 C 0.15945 0.70802 0.54460
 C1231 C 0.13330 0.67068 0.53064
 C1232 C 0.15510 0.65900 0.52108
 C1233 C 0.11524 0.70085 0.56482
 C1234 C 0.09614 0.71024 0.57465
 C1235 C 0.20351 0.65347 0.52595
 C1236 C 0.22240 0.64190 0.51834
 H1237 H 0.14628 0.66866 0.59402
 H1238 H 0.18669 0.64704 0.57630
 H1239 H 0.19773 0.70734 0.52753
 H1240 H 0.15719 0.72905 0.54530
 H1241 H 0.11407 0.66746 0.52225
 H1242 H 0.15456 0.64578 0.50449
 C1243 C 0.63983 0.18830 1.05351
 C1244 C 0.65429 0.17166 1.07373
 C1245 C 0.67601 0.15991 1.06420
 C1246 C 0.68121 0.16591 1.03537
 C1247 C 0.68215 0.19579 1.03376
 C1248 C 0.66037 0.20758 1.04331
 C1249 C 0.63428 0.16976 1.03055
 C1250 C 0.65604 0.15799 1.02101
 C1251 C 0.61643 0.20062 1.06421
 C1252 C 0.59735 0.21010 1.07401
 C1253 C 0.70452 0.15284 1.02543
 C1254 C 0.72337 0.14118 1.01783
 H1255 H 0.64802 0.16933 1.09381
 H1256 H 0.68834 0.14752 1.07612
 H1257 H 0.69845 0.20670 1.02581
 H1258 H 0.65799 0.22860 1.04354
 H1259 H 0.61498 0.16624 1.02246
 H1260 H 0.65538 0.14438 1.00474
 C1261 C 0.85886 0.19250 0.95915
 C1262 C 0.83852 0.21109 0.97074
 C1263 C 0.81741 0.19859 0.98102
 C1264 C 0.81877 0.16877 0.97868
 C1265 C 0.84470 0.16127 0.99167
 C1266 C 0.86579 0.17375 0.98140
 C1267 C 0.84375 0.17582 0.93925
 C1268 C 0.82271 0.16336 0.94950
 C1269 C 0.88151 0.20552 0.94758
 C1270 C 0.89996 0.21542 0.93693
 C1271 C 0.79616 0.15488 0.98928
 C1272 C 0.77783 0.14246 0.99710
 H1273 H 0.84054 0.23216 0.97089
 H1274 H 0.80133 0.20894 0.98999
 H1275 H 0.84634 0.14743 1.00758
 H1276 H 0.88549 0.17061 0.98850
 H1277 H 0.84910 0.17397 0.91884
 H1278 H 0.81004 0.15085 0.93787
 C1279 C 0.35769 0.69364 0.45950
 C1280 C 0.33691 0.71220 0.47029
 C1281 C 0.31584 0.69966 0.48061
 C1282 C 0.31768 0.66982 0.47908
 C1283 C 0.34354 0.66307 0.49264
 C1284 C 0.36458 0.67559 0.48233
 C1285 C 0.34312 0.67621 0.43983
 C1286 C 0.32212 0.66371 0.45012
 C1287 C 0.38031 0.70670 0.44791
 C1288 C 0.39875 0.71661 0.43727
 C1289 C 0.29513 0.65588 0.48972
 C1290 C 0.27685 0.64340 0.49757
 H1291 H 0.33861 0.73330 0.46990
 H1292 H 0.29948 0.71000 0.48906
 H1293 H 0.34516 0.64968 0.50894
 H1294 H 0.38423 0.67295 0.48980
 H1295 H 0.34879 0.67390 0.41956
 H1296 H 0.30982 0.65070 0.43865
 C1297 C 0.63404 0.80308 0.45511
 C1298 C 0.63031 0.81878 0.48036
 C1299 C 0.65294 0.82864 0.49040
 C1300 C 0.67711 0.82183 0.47420
 C1301 C 0.67090 0.83151 0.44657
 C1302 C 0.64831 0.82167 0.43655
 C1303 C 0.65417 0.78207 0.46203
 C1304 C 0.67686 0.79195 0.47209
 C1305 C 0.60960 0.79306 0.44393
 C1306 C 0.58944 0.78603 0.43392
 C1307 C 0.70131 0.83311 0.48467
 C1308 C 0.72076 0.84379 0.49260
 H1309 H 0.61155 0.82182 0.48959
 H1310 H 0.65357 0.84012 0.50823
 H1311 H 0.68323 0.84490 0.43577
 H1312 H 0.64128 0.82664 0.41717
 H1313 H 0.65088 0.76132 0.45930
 H1314 H 0.69302 0.77967 0.47798
 C1315 C 0.13374 0.30137 -0.04380
 C1316 C 0.13015 0.31770 -0.01893
 C1317 C 0.15288 0.32755 -0.00911
 C1318 C 0.17698 0.32012 -0.02512
 C1319 C 0.17089 0.32921 -0.05298
 C1320 C 0.14820 0.31937 -0.06279
 C1321 C 0.15364 0.28033 -0.03637
 C1322 C 0.17643 0.29021 -0.02653
 C1323 C 0.10919 0.29136 -0.05476
 C1324 C 0.08895 0.28435 -0.06460
 C1325 C 0.20127 0.33140 -0.01487
 C1326 C 0.22077 0.34211 -0.00709
 H1327 H 0.11142 0.32115 -0.00979
 H1328 H 0.15362 0.33945 0.00845
 H1329 H 0.18336 0.34221 -0.06408
 H1330 H 0.14124 0.32396 -0.08228
 H1331 H 0.15014 0.25955 -0.03861
 H1332 H 0.19246 0.27790 -0.02033
 C1333 C 0.36121 0.29666 0.04969
 C1334 C 0.34042 0.27624 0.04231
 C1335 C 0.31797 0.28682 0.03267
 C1336 C 0.31862 0.31674 0.03140
 C1337 C 0.34289 0.32337 0.01526
 C1338 C 0.36528 0.31282 0.02487
 C1339 C 0.34761 0.31514 0.06885
 C1340 C 0.32526 0.32567 0.05926
 C1341 C 0.38545 0.28603 0.06049
 C1342 C 0.40551 0.27881 0.07038
 C1343 C 0.29478 0.32888 0.02140
 C1344 C 0.27585 0.34048 0.01381
 H1345 H 0.34311 0.25537 0.04443
 H1346 H 0.30142 0.27503 0.02653
 H1347 H 0.34251 0.33524 -0.00226
 H1348 H 0.38407 0.31564 0.01560
 H1349 H 0.35487 0.31953 0.08832
 H1350 H 0.31340 0.33907 0.07051
 C1351 C 0.86063 0.79764 0.54996
 C1352 C 0.83938 0.77743 0.54337
 C1353 C 0.81706 0.78818 0.53361
 C1354 C 0.81829 0.81802 0.53143
 C1355 C 0.84254 0.82367 0.51488
 C1356 C 0.86479 0.81296 0.52462
 C1357 C 0.84757 0.81695 0.56867
 C1358 C 0.82536 0.82765 0.55895
 C1359 C 0.88472 0.78682 0.56090
 C1360 C 0.90467 0.77945 0.57090
 C1361 C 0.79458 0.83032 0.52130
 C1362 C 0.77575 0.84202 0.51365
 H1363 H 0.84166 0.75659 0.54609
 H1364 H 0.80022 0.77654 0.52796
 H1365 H 0.84223 0.83502 0.49703
 H1366 H 0.88355 0.81512 0.51511
 H1367 H 0.85511 0.82178 0.58794
 H1368 H 0.81388 0.84162 0.56990
   
