data_POSCAR
  _audit_creation_date              2014-09-24
  _audit_creation_method            'ToBaCCo'
  _symmetry_space_group_name_H-M    'P1'
  _symmetry_Int_Tables_number       1
  _symmetry_cell_setting            triclinic
  loop_
  _symmetry_equiv_pos_as_xyz
 x,y,z
_cell_length_a 58.6800
_cell_length_b 58.6909
_cell_length_c 58.6728
_cell_angle_alpha 90.005700
_cell_angle_beta 89.999500
_cell_angle_gamma 89.963200
loop_
  _atom_site_label
  _atom_site_type_symbol
  _atom_site_fract_x
  _atom_site_fract_y
  _atom_site_fract_z
C1 C 0.20484 0.19397 0.22695
 C2 C 0.18637 0.19776 0.24166
 C3 C 0.17163 0.21618 0.23797
 C4 C 0.17522 0.23096 0.21957
 C5 C 0.19360 0.22742 0.20469
 C6 C 0.20850 0.20885 0.20837
 C7 C 0.21970 0.17558 0.23046
 C8 C 0.23808 0.17195 0.21566
 C9 C 0.24176 0.18667 0.19723
 C10 C 0.22706 0.20516 0.19346
 C11 C 0.23057 0.22001 0.17506
 C12 C 0.21577 0.23840 0.17146
 C13 C 0.19736 0.24210 0.18621
 H14 H 0.18344 0.18643 0.25596
 H15 H 0.16371 0.24517 0.21687
 H16 H 0.21701 0.16407 0.24468
 H17 H 0.25604 0.18371 0.18587
 H18 H 0.24477 0.21730 0.16354
 H19 H 0.18601 0.25639 0.18326
 C20 C 0.70477 0.69353 0.72682
 C21 C 0.68630 0.69726 0.74154
 C22 C 0.67153 0.71566 0.73790
 C23 C 0.67510 0.73049 0.71953
 C24 C 0.69348 0.72701 0.70465
 C25 C 0.70841 0.70846 0.70828
 C26 C 0.71967 0.67516 0.73030
 C27 C 0.73806 0.67160 0.71549
 C28 C 0.74171 0.68637 0.69709
 C29 C 0.72697 0.70483 0.69336
 C30 C 0.73045 0.71973 0.67499
 C31 C 0.71563 0.73811 0.67143
 C32 C 0.69722 0.74174 0.68619
 H33 H 0.68339 0.68588 0.75581
 H34 H 0.66355 0.74468 0.71687
 H35 H 0.71700 0.66362 0.74449
 H36 H 0.75599 0.68346 0.68573
 H37 H 0.74466 0.71706 0.66346
 H38 H 0.68584 0.75602 0.68328
 C39 C 0.29436 0.80657 0.72739
 C40 C 0.31282 0.80279 0.74212
 C41 C 0.32754 0.78434 0.73848
 C42 C 0.32394 0.76953 0.72011
 C43 C 0.30558 0.77306 0.70521
 C44 C 0.29069 0.79165 0.70884
 C45 C 0.27952 0.82499 0.73087
 C46 C 0.26114 0.82862 0.71604
 C47 C 0.25747 0.81384 0.69763
 C48 C 0.27215 0.79533 0.69392
 C49 C 0.26865 0.78045 0.67554
 C50 C 0.28344 0.76204 0.67197
 C51 C 0.30182 0.75835 0.68675
 H52 H 0.31576 0.81415 0.75640
 H53 H 0.33545 0.75531 0.71744
 H54 H 0.28227 0.83649 0.74509
 H55 H 0.24321 0.81674 0.68622
 H56 H 0.25447 0.78315 0.66399
 H57 H 0.31317 0.74404 0.68384
 C58 C 0.79566 0.30637 0.22707
 C59 C 0.81410 0.30268 0.24183
 C60 C 0.82889 0.28424 0.23827
 C61 C 0.82534 0.26937 0.21991
 C62 C 0.80698 0.27282 0.20499
 C63 C 0.79205 0.29139 0.20855
 C64 C 0.78076 0.32476 0.23047
 C65 C 0.76240 0.32828 0.21563
 C66 C 0.75878 0.31347 0.19726
 C67 C 0.77351 0.29499 0.19360
 C68 C 0.77006 0.28005 0.17526
 C69 C 0.78488 0.26166 0.17176
 C70 C 0.80327 0.25805 0.18656
 H71 H 0.81695 0.31413 0.25607
 H72 H 0.83685 0.25514 0.21724
 H73 H 0.78341 0.33633 0.24464
 H74 H 0.74451 0.31635 0.18586
 H75 H 0.75587 0.28270 0.16370
 H76 H 0.81464 0.24376 0.18369
 C77 C 0.79581 0.69398 0.27241
 C78 C 0.81430 0.69764 0.25771
 C79 C 0.82908 0.71605 0.26131
 C80 C 0.82547 0.73094 0.27966
 C81 C 0.80706 0.72752 0.29452
 C82 C 0.79214 0.70897 0.29091
 C83 C 0.78092 0.67561 0.26896
 C84 C 0.76251 0.67211 0.28375
 C85 C 0.75883 0.68694 0.30210
 C86 C 0.77355 0.70540 0.30580
 C87 C 0.77003 0.72035 0.32413
 C88 C 0.78485 0.73872 0.32767
 C89 C 0.80328 0.74230 0.31293
 H90 H 0.81719 0.68618 0.24348
 H91 H 0.83697 0.74516 0.28236
 H92 H 0.78362 0.66403 0.25481
 H93 H 0.74452 0.68408 0.31345
 H94 H 0.75581 0.71773 0.33564
 H95 H 0.81465 0.75657 0.31583
 C96 C 0.29568 0.19410 -0.22741
 C97 C 0.31419 0.19779 -0.24209
 C98 C 0.32891 0.21625 -0.23847
 C99 C 0.32522 0.23115 -0.22016
 C100 C 0.30679 0.22770 -0.20533
 C101 C 0.29193 0.20910 -0.20894
 C102 C 0.28084 0.17569 -0.23087
 C103 C 0.26241 0.17216 -0.21611
 C104 C 0.25866 0.18700 -0.19779
 C105 C 0.27332 0.20550 -0.19408
 C106 C 0.26973 0.22047 -0.17578
 C107 C 0.28449 0.23888 -0.17223
 C108 C 0.30295 0.24249 -0.18694
 H109 H 0.31714 0.18632 -0.25629
 H110 H 0.33668 0.24540 -0.21745
 H111 H 0.28360 0.16409 -0.24500
 H112 H 0.24434 0.18412 -0.18646
 H113 H 0.25550 0.21782 -0.16429
 H114 H 0.31428 0.25679 -0.18404
 C115 C 0.70462 0.30576 -0.22734
 C116 C 0.68613 0.30205 -0.24204
 C117 C 0.67138 0.28362 -0.23840
 C118 C 0.67502 0.26877 -0.22004
 C119 C 0.69343 0.27225 -0.20518
 C120 C 0.70831 0.29082 -0.20882
 C121 C 0.71948 0.32416 -0.23082
 C122 C 0.73788 0.32771 -0.21603
 C123 C 0.74159 0.31292 -0.19767
 C124 C 0.72690 0.29444 -0.19393
 C125 C 0.73044 0.27953 -0.17559
 C126 C 0.71566 0.26114 -0.17202
 C127 C 0.69723 0.25750 -0.18675
 H128 H 0.68321 0.31348 -0.25628
 H129 H 0.66355 0.25454 -0.21731
 H130 H 0.71676 0.33571 -0.24499
 H131 H 0.75589 0.31582 -0.18632
 H132 H 0.74465 0.28220 -0.16408
 H133 H 0.68588 0.24321 -0.18383
 C134 C 0.20515 0.80658 0.27238
 C135 C 0.18671 0.80281 0.25763
 C136 C 0.17199 0.78438 0.26126
 C137 C 0.17558 0.76958 0.27964
 C138 C 0.19392 0.77309 0.29456
 C139 C 0.20880 0.79167 0.29094
 C140 C 0.21999 0.82499 0.26892
 C141 C 0.23836 0.82861 0.28377
 C142 C 0.24201 0.81383 0.30219
 C143 C 0.22732 0.79535 0.30589
 C144 C 0.23081 0.78047 0.32428
 C145 C 0.21603 0.76207 0.32782
 C146 C 0.19766 0.75839 0.31303
 H147 H 0.18378 0.81417 0.24335
 H148 H 0.16408 0.75536 0.28230
 H149 H 0.21726 0.83649 0.25469
 H150 H 0.25625 0.81672 0.31362
 H151 H 0.24498 0.78316 0.33584
 H152 H 0.18632 0.74409 0.31593
 C153 C 0.44411 0.45497 0.47742
 C154 C 0.44785 0.43650 0.49213
 C155 C 0.46627 0.42175 0.48850
 C156 C 0.48110 0.42533 0.47014
 C157 C 0.47762 0.44371 0.45525
 C158 C 0.45905 0.45862 0.45888
 C159 C 0.42571 0.46985 0.48089
 C160 C 0.42214 0.48822 0.46607
 C161 C 0.43692 0.49188 0.44769
 C162 C 0.45541 0.47718 0.44397
 C163 C 0.47031 0.48067 0.42560
 C164 C 0.48870 0.46587 0.42204
 C165 C 0.49236 0.44746 0.43680
 H166 H 0.43646 0.43357 0.50640
 H167 H 0.49532 0.41381 0.46747
 H168 H 0.41416 0.46716 0.49507
 H169 H 0.43400 0.50616 0.43632
 H170 H 0.46763 0.49487 0.41407
 H171 H 0.50665 0.43610 0.43389
 C172 C -0.05656 -0.04519 0.97696
 C173 C -0.05287 -0.06373 0.99160
 C174 C -0.03445 -0.07848 0.98795
 C175 C -0.01957 -0.07483 0.96964
 C176 C -0.02300 -0.05639 0.95483
 C177 C -0.04157 -0.04147 0.95847
 C178 C -0.07495 -0.03031 0.98045
 C179 C -0.07847 -0.01184 0.96571
 C180 C -0.06362 -0.00813 0.94737
 C181 C -0.04515 -0.02285 0.94363
 C182 C -0.03019 -0.01930 0.92532
 C183 C -0.01180 -0.03411 0.92175
 C184 C -0.00821 -0.05258 0.93644
 H185 H -0.06429 -0.06670 1.00583
 H186 H -0.00536 -0.08636 0.96697
 H187 H -0.08650 -0.03310 0.99462
 H188 H -0.06644 0.00620 0.93601
 H189 H -0.03282 -0.00505 0.91384
 H190 H 0.00608 -0.06394 0.93352
 C191 C 1.05617 0.54493 0.97773
 C192 C 1.05241 0.56339 0.99245
 C193 C 1.03396 0.57814 0.98882
 C194 C 1.01914 0.57452 0.97044
 C195 C 1.02266 0.55614 0.95556
 C196 C 1.04125 0.54126 0.95919
 C197 C 1.07460 0.53008 0.98120
 C198 C 1.07821 0.51169 0.96637
 C199 C 1.06341 0.50802 0.94798
 C200 C 1.04491 0.52271 0.94427
 C201 C 1.03002 0.51920 0.92590
 C202 C 1.01161 0.53398 0.92234
 C203 C 1.00793 0.55238 0.93710
 H204 H 1.06383 0.56629 1.00671
 H205 H 1.00489 0.58600 0.96771
 H206 H 1.08611 0.53283 0.99540
 H207 H 1.06630 0.49375 0.93656
 H208 H 1.03271 0.50500 0.91437
 H209 H 0.99363 0.56372 0.93419
 C210 C 0.55636 0.04443 0.47767
 C211 C 0.55266 0.06290 0.49240
 C212 C 0.53423 0.07765 0.48881
 C213 C 0.51935 0.07407 0.47049
 C214 C 0.52280 0.05569 0.45559
 C215 C 0.54138 0.04078 0.45917
 C216 C 0.57478 0.02956 0.48108
 C217 C 0.57833 0.01117 0.46625
 C218 C 0.56348 0.00752 0.44789
 C219 C 0.54498 0.02223 0.44423
 C220 C 0.53003 0.01874 0.42591
 C221 C 0.51162 0.03355 0.42240
 C222 C 0.50801 0.05195 0.43718
 H223 H 0.56408 0.06583 0.50664
 H224 H 0.50513 0.08559 0.46786
 H225 H 0.58633 0.03230 0.49526
 H226 H 0.56633 -0.00674 0.43646
 H227 H 0.53267 0.00455 0.41436
 H228 H 0.49371 0.06331 0.43431
 C229 C -0.05639 0.04559 0.52302
 C230 C -0.05268 0.06407 0.50832
 C231 C -0.03428 0.07882 0.51197
 C232 C -0.01943 0.07522 0.53032
 C233 C -0.02289 0.05683 0.54518
 C234 C -0.04144 0.04192 0.54155
 C235 C -0.07477 0.03072 0.51954
 C236 C -0.07831 0.01232 0.53433
 C237 C -0.06352 0.00864 0.55271
 C238 C -0.04505 0.02335 0.55644
 C239 C -0.03013 0.01983 0.57479
 C240 C -0.01175 0.03463 0.57835
 C241 C -0.00813 0.05305 0.56362
 H242 H -0.06407 0.06701 0.49406
 H243 H -0.00524 0.08674 0.53299
 H244 H -0.08632 0.03341 0.50536
 H245 H -0.06641 -0.00565 0.56407
 H246 H -0.03278 0.00561 0.58630
 H247 H 0.00615 0.06441 0.56653
 C248 C 0.44365 0.54567 0.02265
 C249 C 0.44740 0.56411 0.00791
 C250 C 0.46585 0.57884 0.01151
 C251 C 0.48069 0.57523 0.02989
 C252 C 0.47718 0.55687 0.04479
 C253 C 0.45859 0.54200 0.04118
 C254 C 0.42524 0.53083 0.01920
 C255 C 0.42166 0.51247 0.03403
 C256 C 0.43644 0.50879 0.05241
 C257 C 0.45494 0.52347 0.05612
 C258 C 0.46984 0.51995 0.07448
 C259 C 0.48825 0.53472 0.07802
 C260 C 0.49191 0.55311 0.06324
 H261 H 0.43597 0.56700 -0.00635
 H262 H 0.49494 0.58670 0.03259
 H263 H 0.41369 0.53352 0.00502
 H264 H 0.43352 0.49453 0.06379
 H265 H 0.46716 0.50577 0.08602
 H266 H 0.50622 0.56444 0.06614
 C267 C 0.55652 -0.04540 0.02335
 C268 C 0.55275 -0.06385 0.00862
 C269 C 0.53433 -0.07857 0.01226
 C270 C 0.51953 -0.07499 0.03065
 C271 C 0.52303 -0.05663 0.04555
 C272 C 0.54160 -0.04174 0.04191
 C273 C 0.57491 -0.03055 0.01988
 C274 C 0.57850 -0.01219 0.03470
 C275 C 0.56375 -0.00852 0.05311
 C276 C 0.54527 -0.02320 0.05684
 C277 C 0.53038 -0.01970 0.07522
 C278 C 0.51199 -0.03448 0.07879
 C279 C 0.50832 -0.05287 0.06402
 H280 H 0.56412 -0.06678 -0.00567
 H281 H 0.50531 -0.08649 0.03332
 H282 H 0.58644 -0.03324 0.00567
 H283 H 0.56668 0.00575 0.06448
 H284 H 0.53307 -0.00551 0.08676
 H285 H 0.49403 -0.06422 0.06693
 C286 C 1.05607 0.45471 0.52231
 C287 C 1.05229 0.43629 0.50754
 C288 C 1.03389 0.42151 0.51121
 C289 C 1.01914 0.42505 0.52967
 C290 C 1.02269 0.44338 0.54460
 C291 C 1.04122 0.45830 0.54093
 C292 C 1.07444 0.46959 0.51881
 C293 C 1.07806 0.48792 0.53367
 C294 C 1.06336 0.49153 0.55214
 C295 C 1.04491 0.47681 0.55590
 C296 C 1.03009 0.48024 0.57434
 C297 C 1.01173 0.46543 0.57794
 C298 C 1.00803 0.44707 0.56313
 H299 H 1.06365 0.43346 0.49322
 H300 H 1.00493 0.41354 0.53242
 H301 H 1.08592 0.46696 0.50457
 H302 H 1.06631 0.50577 0.56354
 H303 H 1.03280 0.49441 0.58590
 H304 H 0.99377 0.43570 0.56607
 C305 C 0.40950 0.01024 0.21991
 H306 H 0.41041 0.02566 0.22998
 C307 C 0.42444 0.00705 0.20167
 H308 H 0.43694 0.02007 0.19789
 C309 C 0.39253 -0.02576 0.21320
 H310 H 0.38028 -0.03865 0.21791
 C311 C 0.40716 -0.02967 0.19484
 H312 H 0.40566 -0.04540 0.18532
 N313 N 0.39378 -0.00594 0.22515
 C314 C 0.33971 0.03040 0.26099
 H315 H 0.33876 0.02044 0.27648
 C316 C 0.32488 0.04872 0.25772
 H317 H 0.31275 0.05296 0.27096
 C318 C 0.35684 0.03693 0.22501
 H319 H 0.36901 0.03203 0.21210
 C320 C 0.34234 0.05539 0.22104
 H321 H 0.34356 0.06451 0.20505
 Zn322 Zn 0.37453 -0.00039 0.25045
 N323 N 0.35545 0.02503 0.24485
 C324 C 0.39232 0.02494 0.28781
 N325 N 0.39359 0.00508 0.27591
 C326 C 0.40923 -0.01115 0.28128
 C327 C 0.42408 -0.00798 0.29959
 C328 C 0.40687 0.02883 0.30624
 C329 C 0.33970 -0.03102 0.23962
 C330 C 0.32480 -0.04929 0.24273
 C331 C 0.34196 -0.05609 0.27954
 C332 C 0.35653 -0.03767 0.27572
 N333 N 0.35534 -0.02574 0.25588
 H334 H 0.38014 0.03786 0.28300
 H335 H 0.41017 -0.02659 0.27124
 H336 H 0.43653 -0.02104 0.30347
 H337 H 0.40536 0.04458 0.31572
 H338 H 0.33891 -0.02103 0.22414
 H339 H 0.31277 -0.05347 0.22939
 H340 H 0.34303 -0.06525 0.29552
 H341 H 0.36862 -0.03285 0.28872
 C342 C 0.32612 0.06153 0.23754
 C343 C 0.42336 -0.01311 0.18882
 C344 C 0.32586 -0.06215 0.26290
 C345 C 0.42299 0.01222 0.31238
 C346 C 0.09067 -0.01046 0.71938
 H347 H 0.08973 -0.02590 0.72941
 C348 C 0.07578 -0.00722 0.70111
 H349 H 0.06328 -0.02023 0.69727
 C350 C 0.10768 0.02555 0.71280
 H351 H 0.11991 0.03842 0.71757
 C352 C 0.09309 0.02951 0.69442
 H353 H 0.09462 0.04526 0.68494
 N354 N 0.10639 0.00570 0.72470
 C355 C 0.16029 -0.03070 0.76072
 H356 H 0.16117 -0.02075 0.77622
 C357 C 0.17511 -0.04904 0.75751
 H358 H 0.18718 -0.05330 0.77081
 C359 C 0.14331 -0.03721 0.72466
 H360 H 0.13120 -0.03231 0.71171
 C361 C 0.15780 -0.05569 0.72075
 H362 H 0.15664 -0.06481 0.70476
 Zn363 Zn 0.12554 0.00012 0.75006
 N364 N 0.14462 -0.02531 0.74452
 C365 C 0.10760 -0.02521 0.78733
 N366 N 0.10640 -0.00535 0.77545
 C367 C 0.09076 0.01090 0.78079
 C368 C 0.07585 0.00773 0.79905
 C369 C 0.09302 -0.02909 0.80574
 C370 C 0.16043 0.03073 0.73935
 C371 C 0.17532 0.04899 0.74253
 C372 C 0.15807 0.05577 0.77929
 C373 C 0.14350 0.03736 0.77542
 N374 N 0.14475 0.02544 0.75557
 H375 H 0.11969 -0.03821 0.78246
 H376 H 0.08996 0.02640 0.77084
 H377 H 0.06380 0.02106 0.80327
 H378 H 0.09409 -0.04509 0.81485
 H379 H 0.16126 0.02075 0.72387
 H380 H 0.18739 0.05317 0.72921
 H381 H 0.15696 0.06492 0.79528
 H382 H 0.13138 0.03254 0.78839
 C383 C 0.17394 -0.06185 0.73732
 C384 C 0.07690 0.01297 0.68832
 C385 C 0.17422 0.06184 0.76269
 C386 C 0.07690 -0.01247 0.81184
 C387 C 0.59052 0.48967 0.21918
 H388 H 0.58961 0.47422 0.22919
 C389 C 0.57563 0.49290 0.20091
 H390 H 0.56316 0.47988 0.19704
 C391 C 0.60745 0.52573 0.21266
 H392 H 0.61966 0.53862 0.21745
 C393 C 0.59286 0.52968 0.19427
 H394 H 0.59436 0.54545 0.18481
 N395 N 0.60620 0.50586 0.22453
 C396 C 0.66027 0.46961 0.26043
 H397 H 0.66116 0.47958 0.27592
 C398 C 0.67517 0.45134 0.25719
 H399 H 0.68729 0.44714 0.27046
 C400 C 0.64322 0.46301 0.22443
 H401 H 0.63105 0.46785 0.21150
 C402 C 0.65778 0.44459 0.22049
 H403 H 0.65662 0.43545 0.20450
 Zn404 Zn 0.62539 0.50029 0.24987
 N405 N 0.64454 0.47492 0.24427
 C406 C 0.60761 0.47486 0.28713
 N407 N 0.60631 0.49473 0.27528
 C408 C 0.59065 0.51094 0.28070
 C409 C 0.57582 0.50770 0.29903
 C410 C 0.59309 0.47090 0.30557
 C411 C 0.66022 0.53094 0.23915
 C412 C 0.67513 0.54919 0.24233
 C413 C 0.65789 0.55596 0.27910
 C414 C 0.64331 0.53757 0.27523
 N415 N 0.64455 0.52565 0.25538
 H416 H 0.61980 0.46196 0.28228
 H417 H 0.58969 0.52640 0.27071
 H418 H 0.56336 0.52074 0.30295
 H419 H 0.59463 0.45513 0.31501
 H420 H 0.66104 0.52097 0.22366
 H421 H 0.68719 0.55338 0.22901
 H422 H 0.65679 0.56511 0.29510
 H423 H 0.63120 0.53273 0.28820
 C424 C 0.67400 0.43851 0.23702
 C425 C 0.57671 0.51312 0.18814
 C426 C 0.67404 0.56202 0.26251
 C427 C 0.57696 0.48748 0.31177
 C428 C 0.90984 0.51019 0.71947
 H429 H 0.91076 0.52563 0.72950
 C430 C 0.92472 0.50698 0.70119
 H431 H 0.93719 0.52001 0.69733
 C432 C 0.89289 0.47415 0.71290
 H433 H 0.88067 0.46126 0.71768
 C434 C 0.90746 0.47022 0.69450
 H435 H 0.90594 0.45447 0.68501
 N436 N 0.89415 0.49400 0.72480
 C437 C 0.84008 0.53030 0.76066
 H438 H 0.83917 0.52035 0.77616
 C439 C 0.82520 0.54858 0.75740
 H440 H 0.81307 0.55280 0.77065
 C441 C 0.85715 0.53685 0.72466
 H442 H 0.86932 0.53197 0.71175
 C443 C 0.84261 0.55527 0.72069
 H444 H 0.84379 0.56439 0.70470
 Zn445 Zn 0.87494 0.49958 0.75013
 N446 N 0.85582 0.52496 0.74451
 C447 C 0.89272 0.52501 0.78741
 N448 N 0.89401 0.50513 0.77556
 C449 C 0.90967 0.48892 0.78098
 C450 C 0.92449 0.49215 0.79931
 C451 C 0.90724 0.52895 0.80585
 C452 C 0.84011 0.46894 0.73938
 C453 C 0.82521 0.45068 0.74254
 C454 C 0.84242 0.44391 0.77933
 C455 C 0.85700 0.46231 0.77546
 N456 N 0.85577 0.47423 0.75562
 H457 H 0.88053 0.53791 0.78256
 H458 H 0.91063 0.47346 0.77098
 H459 H 0.93695 0.47910 0.80323
 H460 H 0.90570 0.54473 0.81530
 H461 H 0.83930 0.47891 0.72389
 H462 H 0.81315 0.44650 0.72922
 H463 H 0.84351 0.43476 0.79531
 H464 H 0.86911 0.46714 0.78845
 C465 C 0.82639 0.56138 0.73721
 C466 C 0.92361 0.48679 0.68838
 C467 C 0.82629 0.43785 0.76272
 C468 C 0.92336 0.51237 0.81205
 C469 C 0.21882 0.41050 0.01055
 H470 H 0.22880 0.41132 0.02603
 C471 C 0.20050 0.42536 0.00743
 H472 H 0.19629 0.43739 0.02078
 C473 C 0.21222 0.39366 -0.02555
 H474 H 0.21709 0.38158 -0.03856
 C475 C 0.19376 0.40819 -0.02938
 H476 H 0.18460 0.40710 -0.04536
 N477 N 0.22416 0.39488 -0.00572
 C478 C 0.26036 0.34084 0.03030
 H479 H 0.27580 0.33998 0.02025
 C480 C 0.25720 0.32590 0.04853
 H481 H 0.27028 0.31345 0.05234
 C482 C 0.22426 0.35769 0.03694
 H483 H 0.21132 0.36989 0.03221
 C484 C 0.22038 0.34305 0.05530
 H485 H 0.20463 0.34451 0.06480
 Zn486 Zn 0.24958 0.37576 -0.00028
 N487 N 0.24411 0.35651 0.02503
 C488 C 0.28686 0.39357 0.02516
 N489 N 0.27492 0.39492 0.00533
 C490 C 0.28019 0.41069 -0.01081
 C491 C 0.29846 0.42557 -0.00757
 C492 C 0.30527 0.40811 0.02910
 C493 C 0.23901 0.34105 -0.03115
 C494 C 0.24228 0.32623 -0.04947
 C495 C 0.27904 0.34355 -0.05603
 C496 C 0.27504 0.35806 -0.03759
 N497 N 0.25517 0.35673 -0.02573
 H498 H 0.28204 0.38138 0.03806
 H499 H 0.27021 0.41160 -0.02628
 H500 H 0.30263 0.43771 -0.02081
 H501 H 0.31443 0.40692 0.04507
 H502 H 0.22355 0.34006 -0.02115
 H503 H 0.22928 0.31374 -0.05339
 H504 H 0.29481 0.34511 -0.06547
 H505 H 0.28791 0.37028 -0.03274
 C506 C 0.23701 0.32692 0.06135
 C507 C 0.18765 0.42429 -0.01274
 C508 C 0.26251 0.32739 -0.06222
 C509 C 0.31132 0.42435 0.01259
 C510 C 0.71985 0.08959 -0.01050
 H511 H 0.72976 0.08870 -0.02603
 C512 C 0.70157 0.07473 -0.00723
 H513 H 0.69731 0.06265 -0.02050
 C514 C 0.71339 0.10660 0.02555
 H515 H 0.71829 0.11873 0.03848
 C516 C 0.69497 0.09208 0.02953
 H517 H 0.68588 0.09324 0.04555
 N518 N 0.72524 0.10529 0.00566
 C519 C 0.76116 0.15915 -0.03081
 H520 H 0.77669 0.16000 -0.02092
 C521 C 0.75788 0.17400 -0.04911
 H522 H 0.77116 0.18605 -0.05340
 C523 C 0.72507 0.14222 -0.03720
 H524 H 0.71212 0.13013 -0.03225
 C525 C 0.72109 0.15674 -0.05563
 H526 H 0.70505 0.15562 -0.06468
 Zn527 Zn 0.75059 0.12440 0.00002
 N528 N 0.74497 0.14349 -0.02538
 C529 C 0.78779 0.10646 -0.02545
 N530 N 0.77596 0.10524 -0.00556
 C531 C 0.78134 0.08959 0.01066
 C532 C 0.79961 0.07469 0.00743
 C533 C 0.80621 0.09190 -0.02939
 C534 C 0.73999 0.15927 0.03070
 C535 C 0.74322 0.17417 0.04897
 C536 C 0.78002 0.15693 0.05558
 C537 C 0.77608 0.14234 0.03720
 N538 N 0.75619 0.14359 0.02535
 H539 H 0.78289 0.11856 -0.03842
 H540 H 0.77143 0.08877 0.02619
 H541 H 0.80387 0.06264 0.02073
 H542 H 0.81528 0.09298 -0.04542
 H543 H 0.72452 0.16019 0.02070
 H544 H 0.73017 0.18664 0.05284
 H545 H 0.79580 0.15543 0.06504
 H546 H 0.78898 0.13013 0.03240
 C547 C 0.73764 0.17287 -0.06183
 C548 C 0.68881 0.07591 0.01299
 C549 C 0.76344 0.17308 0.06172
 C550 C 0.81237 0.07577 -0.01280
 C551 C 0.21929 0.59019 0.48908
 H552 H 0.22931 0.58934 0.47362
 C553 C 0.20103 0.57528 0.49222
 H554 H 0.19690 0.56319 0.47891
 C555 C 0.21254 0.60715 0.52510
 H556 H 0.21733 0.61929 0.53807
 C557 C 0.19413 0.59258 0.52895
 H558 H 0.18494 0.59370 0.54491
 N559 N 0.22453 0.60589 0.50530
 C560 C 0.26058 0.65993 0.46923
 H561 H 0.27598 0.66089 0.47933
 C562 C 0.25742 0.67482 0.45094
 H563 H 0.27044 0.68731 0.44715
 C564 C 0.22460 0.64292 0.46250
 H565 H 0.21171 0.63068 0.46722
 C566 C 0.22072 0.65749 0.44409
 H567 H 0.20501 0.65595 0.43453
 Zn568 Zn 0.24989 0.62506 0.49986
 N569 N 0.24440 0.64422 0.47448
 C570 C 0.28729 0.60727 0.47458
 N571 N 0.27531 0.60595 0.49439
 C572 C 0.28060 0.59024 0.51058
 C573 C 0.29892 0.57539 0.50742
 C574 C 0.30573 0.59272 0.47071
 C575 C 0.23906 0.65986 0.53056
 C576 C 0.24218 0.67473 0.54887
 C577 C 0.27895 0.65749 0.55567
 C578 C 0.27512 0.64292 0.53725
 N579 N 0.25530 0.64419 0.52528
 H580 H 0.28254 0.61950 0.46169
 H581 H 0.27051 0.58927 0.52598
 H582 H 0.30274 0.56289 0.52045
 H583 H 0.31528 0.59428 0.45499
 H584 H 0.22366 0.66079 0.52047
 H585 H 0.22912 0.68719 0.55268
 H586 H 0.29468 0.65597 0.56521
 H587 H 0.28805 0.63072 0.53251
 C588 C 0.23728 0.67368 0.43806
 C589 C 0.18813 0.57640 0.51236
 C590 C 0.26234 0.67363 0.56173
 C591 C 0.31180 0.57654 0.48728
 C592 C 0.71899 0.91014 0.51047
 H593 H 0.72901 0.91106 0.52592
 C594 C 0.70064 0.92495 0.50731
 H595 H 0.69673 0.93737 0.52038
 C596 C 0.71249 0.89325 0.47437
 H597 H 0.71732 0.88109 0.46144
 C598 C 0.69403 0.90776 0.47048
 H599 H 0.68455 0.90625 0.45473
 N600 N 0.72439 0.89451 0.49423
 C601 C 0.76052 0.84052 0.53036
 H602 H 0.77603 0.83971 0.52042
 C603 C 0.75732 0.82558 0.54860
 H604 H 0.77064 0.81351 0.55280
 C605 C 0.72442 0.85740 0.53693
 H606 H 0.71145 0.86952 0.53208
 C607 C 0.72052 0.84280 0.55531
 H608 H 0.70452 0.84388 0.56442
 Zn609 Zn 0.74982 0.87543 0.49974
 N610 N 0.74429 0.85619 0.52505
 C611 C 0.78702 0.89328 0.52525
 N612 N 0.77512 0.89461 0.50540
 C613 C 0.78043 0.91037 0.48926
 C614 C 0.79869 0.92525 0.49253
 C615 C 0.80540 0.90784 0.52923
 C616 C 0.73936 0.84066 0.46889
 C617 C 0.74267 0.82585 0.45056
 C618 C 0.77938 0.84327 0.44401
 C619 C 0.77536 0.85776 0.46245
 N620 N 0.75548 0.85638 0.47431
 H621 H 0.78226 0.88100 0.53810
 H622 H 0.77040 0.91136 0.47382
 H623 H 0.80253 0.93777 0.47954
 H624 H 0.81489 0.90626 0.54498
 H625 H 0.72390 0.83963 0.47889
 H626 H 0.72970 0.81334 0.44664
 H627 H 0.79515 0.84487 0.43457
 H628 H 0.78819 0.87001 0.46730
 C629 C 0.73712 0.82665 0.56140
 C630 C 0.68784 0.92385 0.48711
 C631 C 0.76289 0.82707 0.43781
 C632 C 0.81150 0.92406 0.51272
 C633 C 0.01035 0.22009 0.40976
 H634 H 0.02583 0.23006 0.41060
 C635 C 0.00717 0.20183 0.42467
 H636 H 0.02048 0.19764 0.43675
 C637 C -0.02570 0.21346 0.39282
 H638 H -0.03866 0.21830 0.38068
 C639 C -0.02957 0.19506 0.40739
 H640 H -0.04555 0.18591 0.40628
 N641 N -0.00587 0.22538 0.39407
 C642 C 0.03035 0.26136 0.34007
 H643 H 0.02039 0.27686 0.33920
 C644 C 0.04864 0.25813 0.32518
 H645 H 0.05285 0.27141 0.31309
 C646 C 0.03693 0.22532 0.35705
 H647 H 0.03206 0.21238 0.36918
 C648 C 0.05535 0.22139 0.34250
 H649 H 0.06448 0.20540 0.34364
 Zn650 Zn -0.00036 0.25073 0.37489
 N651 N 0.02502 0.24518 0.35576
 C652 C 0.02499 0.28801 0.39274
 N653 N 0.00514 0.27613 0.39400
 C654 C -0.01107 0.28148 0.40968
 C655 C -0.00787 0.29976 0.42456
 C656 C 0.02890 0.30643 0.40730
 C657 C -0.03103 0.23996 0.34007
 C658 C -0.04930 0.24312 0.32516
 C659 C -0.05606 0.27992 0.34233
 C660 C -0.03767 0.27605 0.35693
 N661 N -0.02574 0.25621 0.35572
 H662 H 0.03796 0.28313 0.38063
 H663 H -0.02657 0.27154 0.41052
 H664 H -0.02116 0.30398 0.43664
 H665 H 0.04491 0.31553 0.40618
 H666 H -0.02097 0.22453 0.33918
 H667 H -0.05312 0.23005 0.31271
 H668 H -0.06557 0.29567 0.34380
 H669 H -0.03292 0.28898 0.36912
 C670 C 0.06146 0.23795 0.32633
 C671 C -0.01299 0.18899 0.42356
 C672 C -0.06213 0.26330 0.32620
 C673 C 0.01233 0.31254 0.42345
 C674 C -0.01088 0.71853 0.08999
 H675 H -0.02639 0.72847 0.08915
 C676 C -0.00768 0.70021 0.07515
 H677 H -0.02100 0.69595 0.06311
 C678 C 0.02523 0.71205 0.10688
 H679 H 0.03820 0.71696 0.11896
 C680 C 0.02913 0.69359 0.09237
 H681 H 0.04514 0.68448 0.09348
 N682 N 0.00535 0.72393 0.10562
 C683 C -0.03073 0.76014 0.15962
 H684 H -0.02068 0.77557 0.16048
 C685 C -0.04897 0.75701 0.17456
 H686 H -0.05278 0.77009 0.18701
 C687 C -0.03737 0.72406 0.14278
 H688 H -0.03264 0.71112 0.13058
 C689 C -0.05574 0.72020 0.15742
 H690 H -0.06524 0.70447 0.15597
 Zn691 Zn -0.00016 0.74937 0.12469
 N692 N -0.02546 0.74390 0.14396
 C693 C -0.02562 0.78661 0.10682
 N694 N -0.00579 0.77467 0.10548
 C695 C 0.01033 0.77994 0.08970
 C696 C 0.00709 0.79821 0.07482
 C697 C -0.02958 0.80501 0.09225
 C698 C 0.03072 0.73889 0.15945
 C699 C 0.04905 0.74220 0.17425
 C700 C 0.05557 0.77890 0.15681
 C701 C 0.03713 0.77488 0.14233
 N702 N 0.02528 0.75502 0.14372
 H703 H -0.03847 0.78188 0.11912
 H704 H 0.02576 0.76987 0.08871
 H705 H 0.02008 0.80203 0.06228
 H706 H -0.04531 0.81454 0.09385
 H707 H 0.02073 0.72344 0.16049
 H708 H 0.05299 0.72922 0.18677
 H709 H 0.06501 0.79467 0.15520
 H710 H 0.03227 0.78772 0.13008
 C711 C -0.06179 0.73683 0.17354
 C712 C 0.01253 0.68742 0.07626
 C713 C 0.06179 0.76241 0.17302
 C714 C -0.01307 0.81107 0.07602
 C715 C 0.48952 0.21912 0.59080
 H716 H 0.47405 0.22912 0.58991
 C717 C 0.49271 0.20083 0.57593
 H718 H 0.47943 0.19664 0.56383
 C719 C 0.52554 0.21247 0.60781
 H720 H 0.53848 0.21731 0.61996
 C721 C 0.52943 0.19403 0.59328
 H722 H 0.54540 0.18486 0.59444
 N723 N 0.50571 0.22442 0.60650
 C724 C 0.46949 0.26056 0.66046
 H725 H 0.47954 0.27597 0.66140
 C726 C 0.45118 0.25739 0.67532
 H727 H 0.44732 0.27044 0.68778
 C728 C 0.46288 0.22452 0.64350
 H729 H 0.46766 0.21161 0.63128
 C730 C 0.44446 0.22064 0.65805
 H731 H 0.43495 0.20491 0.65651
 Zn732 Zn 0.50020 0.24983 0.62563
 N733 N 0.47481 0.24435 0.64477
 C734 C 0.47487 0.28715 0.60773
 N735 N 0.49469 0.27519 0.60645
 C736 C 0.51088 0.28045 0.59074
 C737 C 0.50771 0.29872 0.57584
 C738 C 0.47097 0.30554 0.59314
 C739 C 0.53090 0.23916 0.66047
 C740 C 0.54921 0.24235 0.67533
 C741 C 0.55594 0.27907 0.65800
 C742 C 0.53751 0.27516 0.64345
 N743 N 0.52558 0.25534 0.64476
 H744 H 0.46197 0.28242 0.61997
 H745 H 0.52630 0.27037 0.58979
 H746 H 0.52074 0.30252 0.56335
 H747 H 0.45524 0.31508 0.59467
 H748 H 0.52085 0.22375 0.66144
 H749 H 0.55306 0.22932 0.68782
 H750 H 0.56545 0.29479 0.65644
 H751 H 0.53275 0.28805 0.63121
 C752 C 0.43835 0.23723 0.67419
 C753 C 0.51287 0.18796 0.57710
 C754 C 0.56204 0.26251 0.67417
 C755 C 0.48755 0.31158 0.57696
 C756 C 0.51044 0.71889 0.90992
 H757 H 0.52589 0.72890 0.91082
 C758 C 0.50725 0.70061 0.92480
 H759 H 0.52032 0.69673 0.93724
 C760 C 0.47433 0.71239 0.89305
 H761 H 0.46140 0.71720 0.88087
 C762 C 0.47043 0.69399 0.90762
 H763 H 0.45466 0.68454 0.90614
 N764 N 0.49420 0.72426 0.89428
 C765 C 0.53031 0.76036 0.84028
 H766 H 0.52035 0.77585 0.83947
 C767 C 0.54856 0.75717 0.82535
 H768 H 0.55275 0.77049 0.81328
 C769 C 0.53693 0.72428 0.85716
 H770 H 0.53210 0.71131 0.86927
 C771 C 0.55533 0.72039 0.84256
 H772 H 0.56447 0.70440 0.84364
 Zn773 Zn 0.49970 0.74966 0.87516
 N774 N 0.52502 0.74413 0.85594
 C775 C 0.52515 0.78687 0.89303
 N776 N 0.50530 0.77499 0.89434
 C777 C 0.48915 0.78030 0.91009
 C778 C 0.49241 0.79855 0.92500
 C779 C 0.52911 0.80526 0.90760
 C780 C 0.46889 0.73911 0.84039
 C781 C 0.45057 0.74237 0.82556
 C782 C 0.44396 0.77912 0.84292
 C783 C 0.46240 0.77513 0.85744
 N784 N 0.47428 0.75527 0.85610
 H785 H 0.53807 0.78201 0.88086
 H786 H 0.47366 0.77036 0.91098
 H787 H 0.47915 0.80276 0.93713
 H788 H 0.54510 0.81438 0.90644
 H789 H 0.47890 0.72366 0.83939
 H790 H 0.44667 0.72937 0.81307
 H791 H 0.43450 0.79488 0.84450
 H792 H 0.46722 0.78800 0.86967
 C793 C 0.56139 0.73699 0.82641
 C794 C 0.48704 0.68785 0.92374
 C795 C 0.43779 0.76259 0.82674
 C796 C 0.51259 0.81135 0.92383
 C797 C 0.11799 0.22682 0.28102
 C798 C 0.11949 0.22016 0.30387
 C799 C 0.10112 0.22377 0.31861
 C800 C 0.15273 0.21994 0.25315
 C801 C 0.07966 0.24076 0.28766
 C802 C 0.09804 0.23711 0.27295
 C803 C 0.13689 0.22307 0.26586
 C804 C 0.08098 0.23412 0.31068
 H805 H 0.13487 0.21223 0.31031
 H806 H 0.10278 0.21874 0.33629
 H807 H 0.06429 0.24847 0.28096
 H808 H 0.09668 0.24227 0.25527
 C809 C 0.61788 0.72607 0.78100
 C810 C 0.61941 0.71934 0.80382
 C811 C 0.60106 0.72287 0.81860
 C812 C 0.65262 0.71934 0.75308
 C813 C 0.57953 0.73992 0.78773
 C814 C 0.59791 0.73636 0.77298
 C815 C 0.63678 0.72241 0.76580
 C816 C 0.58090 0.73322 0.81072
 H817 H 0.63482 0.71141 0.81021
 H818 H 0.60275 0.71778 0.83626
 H819 H 0.56415 0.74765 0.78107
 H820 H 0.59652 0.74157 0.75532
 C821 C 0.38121 0.77375 0.78151
 C822 C 0.38483 0.75220 0.79106
 C823 C 0.40322 0.74855 0.80576
 C824 C 0.34645 0.78061 0.75366
 C825 C 0.41445 0.78806 0.80144
 C826 C 0.39605 0.79166 0.78673
 C827 C 0.36229 0.77748 0.76636
 C828 C 0.41825 0.76645 0.81113
 H829 H 0.37340 0.73823 0.78718
 H830 H 0.40551 0.73181 0.81317
 H831 H 0.42588 0.80209 0.80498
 H832 H 0.39344 0.80839 0.77937
 C833 C -0.11854 0.27412 0.28068
 C834 C -0.10377 0.29209 0.28588
 C835 C -0.08543 0.28860 0.30068
 C836 C -0.15324 0.28079 0.25268
 C837 C -0.09658 0.24909 0.30514
 C838 C -0.11491 0.25262 0.29034
 C839 C -0.13742 0.27774 0.26545
 C840 C -0.08162 0.26705 0.31049
 H841 H -0.10639 0.30878 0.27844
 H842 H -0.07405 0.30268 0.30421
 H843 H -0.09427 0.23239 0.31263
 H844 H -0.12629 0.23861 0.28648
 C845 C -0.11824 0.72611 0.21904
 C846 C -0.10346 0.70812 0.21386
 C847 C -0.08510 0.71158 0.19907
 C848 C -0.15300 0.71949 0.24695
 C849 C -0.09624 0.75111 0.19460
 C850 C -0.11460 0.74760 0.20938
 C851 C -0.13715 0.72251 0.23423
 C852 C -0.08128 0.73313 0.18926
 H853 H -0.10610 0.69143 0.22129
 H854 H -0.07373 0.69748 0.19555
 H855 H -0.09393 0.76780 0.18710
 H856 H -0.12598 0.76163 0.21322
 C857 C 0.38171 0.22639 0.71943
 C858 C 0.39651 0.20841 0.71426
 C859 C 0.41493 0.21191 0.69956
 C860 C 0.34686 0.21970 0.74721
 C861 C 0.40382 0.25145 0.69515
 C862 C 0.38541 0.24791 0.70985
 C863 C 0.36275 0.22276 0.73455
 C864 C 0.41880 0.23349 0.68983
 H865 H 0.39385 0.19170 0.72164
 H866 H 0.42632 0.19782 0.69604
 H867 H 0.40616 0.26817 0.68772
 H868 H 0.37401 0.26193 0.71369
 C869 C 0.61864 0.27341 0.71943
 C870 C 0.60386 0.29139 0.71422
 C871 C 0.58545 0.28787 0.69951
 C872 C 0.65345 0.28014 0.74726
 C873 C 0.59656 0.24831 0.69518
 C874 C 0.61496 0.25188 0.70989
 C875 C 0.63759 0.27707 0.73457
 C876 C 0.58159 0.26628 0.68981
 H877 H 0.60652 0.30811 0.72158
 H878 H 0.57407 0.30196 0.69597
 H879 H 0.59421 0.23158 0.68776
 H880 H 0.62634 0.23786 0.71376
 C881 C 0.11837 0.77372 0.21820
 C882 C 0.10350 0.79161 0.21295
 C883 C 0.08510 0.78796 0.19826
 C884 C 0.15311 0.78064 0.24606
 C885 C 0.09640 0.74845 0.19401
 C886 C 0.11479 0.75215 0.20870
 C887 C 0.13728 0.77749 0.23335
 C888 C 0.08134 0.76633 0.18861
 H889 H 0.10607 0.80836 0.22027
 H890 H 0.07364 0.80198 0.19469
 H891 H 0.09414 0.73169 0.18664
 H892 H 0.12625 0.73819 0.21260
 C893 C 0.28099 0.11819 0.22630
 C894 C 0.30387 0.11963 0.21972
 C895 C 0.31855 0.10121 0.22337
 C896 C 0.25322 0.15302 0.21939
 C897 C 0.28750 0.07984 0.24023
 C898 C 0.27284 0.09827 0.23655
 C899 C 0.26589 0.13715 0.22254
 C900 C 0.31053 0.08110 0.23367
 H901 H 0.31037 0.13499 0.21183
 H902 H 0.33625 0.10282 0.21840
 H903 H 0.28073 0.06450 0.24791
 H904 H 0.25514 0.09696 0.24165
 C905 C 0.78110 0.61792 0.72602
 C906 C 0.77301 0.59798 0.73627
 C907 C 0.78772 0.57959 0.73993
 C908 C 0.75324 0.65269 0.71918
 C909 C 0.81870 0.60104 0.72302
 C910 C 0.80396 0.61941 0.71941
 C911 C 0.76595 0.63685 0.72229
 C912 C 0.81074 0.58091 0.73334
 H913 H 0.75533 0.59663 0.74140
 H914 H 0.78100 0.56423 0.74762
 H915 H 0.83638 0.60269 0.71803
 H916 H 0.81042 0.63480 0.71151
 C917 C 0.78092 0.38136 0.77357
 C918 C 0.80375 0.37982 0.78030
 C919 C 0.81851 0.39818 0.77679
 C920 C 0.75304 0.34662 0.78028
 C921 C 0.78762 0.41970 0.75975
 C922 C 0.77289 0.40132 0.76330
 C923 C 0.76575 0.36246 0.77721
 C924 C 0.81061 0.41834 0.76647
 H925 H 0.81015 0.36442 0.78822
 H926 H 0.83616 0.39649 0.78188
 H927 H 0.78095 0.43508 0.75205
 H928 H 0.75523 0.40271 0.75808
 C929 C 0.28054 -0.11870 0.27364
 C930 C 0.27251 -0.09873 0.26336
 C931 C 0.28722 -0.08034 0.25985
 C932 C 0.25269 -0.15347 0.28030
 C933 C 0.31810 -0.10183 0.27692
 C934 C 0.30336 -0.12021 0.28040
 C935 C 0.26538 -0.13762 0.27725
 C936 C 0.31020 -0.08168 0.26660
 H937 H 0.25486 -0.09736 0.25812
 H938 H 0.28055 -0.06496 0.25214
 H939 H 0.33576 -0.10350 0.28204
 H940 H 0.30977 -0.13561 0.28832
 C941 C 0.21906 -0.11857 0.72630
 C942 C 0.22719 -0.09866 0.73659
 C943 C 0.21254 -0.08021 0.74019
 C944 C 0.24682 -0.15344 0.71953
 C945 C 0.18153 -0.10154 0.72318
 C946 C 0.19621 -0.11998 0.71961
 C947 C 0.23415 -0.13754 0.72261
 C948 C 0.18953 -0.08144 0.73352
 H949 H 0.24486 -0.09737 0.74177
 H950 H 0.21929 -0.06487 0.74790
 H951 H 0.16386 -0.10313 0.71813
 H952 H 0.18973 -0.13534 0.71169
 C953 C 0.71933 0.38198 0.22597
 C954 C 0.72740 0.40194 0.23620
 C955 C 0.71268 0.42034 0.23979
 C956 C 0.74721 0.34720 0.21925
 C957 C 0.68173 0.39884 0.22290
 C958 C 0.69648 0.38046 0.21933
 C959 C 0.73450 0.36305 0.22231
 C960 C 0.68966 0.41899 0.23319
 H961 H 0.74508 0.40332 0.24134
 H962 H 0.71938 0.43571 0.24747
 H963 H 0.66405 0.39717 0.21789
 H964 H 0.69005 0.36506 0.21145
 C965 C 0.71942 0.61849 0.27340
 C966 C 0.69660 0.62004 0.28013
 C967 C 0.68183 0.60168 0.27660
 C968 C 0.74733 0.65322 0.28009
 C969 C 0.71271 0.58015 0.25958
 C970 C 0.72745 0.59852 0.26313
 C971 C 0.73461 0.63739 0.27703
 C972 C 0.68972 0.58152 0.26628
 H973 H 0.69019 0.63545 0.28804
 H974 H 0.66417 0.60338 0.28168
 H975 H 0.71938 0.56477 0.25187
 H976 H 0.74511 0.59712 0.25792
 C977 C 0.21948 0.11841 0.77355
 C978 C 0.19664 0.11991 0.78026
 C979 C 0.18192 0.10153 0.77675
 C980 C 0.24729 0.15321 0.78023
 C981 C 0.21285 0.08004 0.75976
 C982 C 0.22755 0.09845 0.76330
 C983 C 0.23461 0.13735 0.77718
 C984 C 0.18986 0.08137 0.76645
 H985 H 0.19020 0.13532 0.78816
 H986 H 0.16425 0.10319 0.78182
 H987 H 0.21956 0.06467 0.75207
 H988 H 0.24521 0.09709 0.75810
 C989 C 0.22619 0.28143 0.11777
 C990 C 0.24769 0.29106 0.11415
 C991 C 0.25124 0.30584 0.09580
 C992 C 0.21948 0.25355 0.15253
 C993 C 0.21172 0.30140 0.08462
 C994 C 0.20822 0.28662 0.10297
 C995 C 0.22255 0.26625 0.13668
 C996 C 0.23328 0.31119 0.08082
 H997 H 0.26171 0.28721 0.12554
 H998 H 0.26794 0.31333 0.09351
 H999 H 0.19764 0.30493 0.07323
 H1000 H 0.19152 0.27920 0.10559
 C1001 C 0.72611 0.78123 0.61784
 C1002 C 0.73645 0.77322 0.59789
 C1003 C 0.74004 0.78797 0.57953
 C1004 C 0.71932 0.75330 0.65254
 C1005 C 0.72295 0.81883 0.60103
 C1006 C 0.71938 0.80405 0.61937
 C1007 C 0.72241 0.76603 0.63672
 C1008 C 0.73333 0.81096 0.58089
 H1009 H 0.74166 0.75556 0.59649
 H1010 H 0.74779 0.78132 0.56416
 H1011 H 0.71786 0.83649 0.60272
 H1012 H 0.71142 0.81044 0.63477
 C1013 C 0.77420 0.78185 0.38124
 C1014 C 0.79209 0.78710 0.39611
 C1015 C 0.78845 0.80181 0.41449
 C1016 C 0.78111 0.75395 0.34653
 C1017 C 0.74893 0.80607 0.40321
 C1018 C 0.75263 0.79137 0.38483
 C1019 C 0.77797 0.76668 0.36235
 C1020 C 0.76681 0.81147 0.41827
 H1021 H 0.80885 0.77977 0.39352
 H1022 H 0.80247 0.80538 0.42594
 H1023 H 0.73217 0.81345 0.40548
 H1024 H 0.73867 0.78746 0.37339
 C1025 C 0.27378 0.28206 -0.11871
 C1026 C 0.29166 0.28730 -0.10384
 C1027 C 0.28803 0.30204 -0.08548
 C1028 C 0.28071 0.25411 -0.15339
 C1029 C 0.24853 0.30636 -0.09680
 C1030 C 0.25221 0.29162 -0.11516
 C1031 C 0.27754 0.26686 -0.13759
 C1032 C 0.26641 0.31175 -0.08174
 H1033 H 0.30841 0.27993 -0.10640
 H1034 H 0.30205 0.30560 -0.07403
 H1035 H 0.23178 0.31377 -0.09455
 H1036 H 0.23826 0.28772 -0.12660
 C1037 C 0.72635 0.21811 -0.11838
 C1038 C 0.73673 0.22618 -0.09849
 C1039 C 0.74042 0.21149 -0.08010
 C1040 C 0.71941 0.24595 -0.15313
 C1041 C 0.72331 0.18056 -0.10145
 C1042 C 0.71965 0.19528 -0.11982
 C1043 C 0.72257 0.23325 -0.13730
 C1044 C 0.73375 0.18850 -0.08136
 H1045 H 0.74192 0.24385 -0.09717
 H1046 H 0.74821 0.21820 -0.06478
 H1047 H 0.71825 0.16289 -0.10306
 H1048 H 0.71166 0.18884 -0.13517
 C1049 C 0.22642 0.71904 0.38152
 C1050 C 0.24796 0.70948 0.38523
 C1051 C 0.25151 0.69474 0.40361
 C1052 C 0.21972 0.74691 0.34675
 C1053 C 0.21193 0.69905 0.41464
 C1054 C 0.20843 0.71380 0.39626
 C1055 C 0.22278 0.73420 0.36260
 C1056 C 0.23352 0.68935 0.41853
 H1057 H 0.26199 0.71338 0.37389
 H1058 H 0.26824 0.68733 0.40597
 H1059 H 0.19783 0.69548 0.42599
 H1060 H 0.19170 0.72115 0.39358
 C1061 C 0.27309 0.71900 0.61827
 C1062 C 0.29109 0.71380 0.60352
 C1063 C 0.28762 0.69905 0.58513
 C1064 C 0.27975 0.74688 0.65305
 C1065 C 0.24806 0.69466 0.59620
 C1066 C 0.25158 0.70940 0.61458
 C1067 C 0.27669 0.73417 0.63720
 C1068 C 0.26605 0.68930 0.58126
 H1069 H 0.30779 0.72119 0.60618
 H1070 H 0.30172 0.69552 0.57377
 H1071 H 0.23135 0.68721 0.59385
 H1072 H 0.23754 0.71327 0.62594
 C1073 C 0.77446 0.21848 0.11819
 C1074 C 0.75294 0.20887 0.11461
 C1075 C 0.74934 0.19411 0.09625
 C1076 C 0.78121 0.24644 0.15289
 C1077 C 0.78883 0.19851 0.08499
 C1078 C 0.79239 0.21328 0.10335
 C1079 C 0.77813 0.23369 0.13707
 C1080 C 0.76725 0.18876 0.08123
 H1081 H 0.73895 0.21274 0.12603
 H1082 H 0.73262 0.18665 0.09399
 H1083 H 0.80289 0.19498 0.07356
 H1084 H 0.80910 0.22068 0.10593
 C1085 C 0.47667 0.36808 0.53156
 C1086 C 0.49820 0.36439 0.54113
 C1087 C 0.50176 0.34602 0.55588
 C1088 C 0.46995 0.40284 0.50367
 C1089 C 0.46220 0.33496 0.55156
 C1090 C 0.45869 0.35333 0.53680
 C1091 C 0.47302 0.38699 0.51638
 C1092 C 0.48378 0.33109 0.56128
 H1093 H 0.51222 0.37574 0.53724
 H1094 H 0.51848 0.34368 0.56331
 H1095 H 0.44810 0.32361 0.55512
 H1096 H 0.44197 0.35600 0.52943
 C1097 C -0.02406 0.86770 0.03082
 C1098 C -0.00250 0.86397 0.04031
 C1099 C 0.00109 0.84555 0.05499
 C1100 C -0.03081 0.90255 0.00306
 C1101 C -0.03849 0.83453 0.05076
 C1102 C -0.04203 0.85295 0.03607
 C1103 C -0.02774 0.88666 0.01572
 C1104 C -0.01687 0.83062 0.06040
 H1105 H 0.01151 0.87532 0.03641
 H1106 H 0.01784 0.84318 0.06236
 H1107 H -0.05257 0.82317 0.05434
 H1108 H -0.05878 0.85565 0.02876
 C1109 C 0.02360 0.63082 0.03102
 C1110 C 0.03034 0.62938 0.05385
 C1111 C 0.02675 0.64777 0.06857
 C1112 C 0.03044 0.59604 0.00318
 C1113 C 0.00961 0.66914 0.03764
 C1114 C 0.01324 0.65073 0.02295
 C1115 C 0.02732 0.61190 0.01588
 C1116 C 0.01634 0.66787 0.06064
 H1117 H 0.03832 0.61403 0.06029
 H1118 H 0.03185 0.64616 0.08624
 H1119 H 0.00184 0.68447 0.03094
 H1120 H 0.00801 0.65205 0.00529
 C1121 C 0.52384 0.13136 0.53184
 C1122 C 0.53049 0.12986 0.55469
 C1123 C 0.52694 0.14825 0.56942
 C1124 C 0.53057 0.09657 0.50399
 C1125 C 0.51003 0.16973 0.53845
 C1126 C 0.51361 0.15132 0.52375
 C1127 C 0.52751 0.11242 0.51669
 C1128 C 0.51666 0.16841 0.56146
 H1129 H 0.53837 0.11446 0.56114
 H1130 H 0.53197 0.14659 0.58710
 H1131 H 0.50235 0.18511 0.53173
 H1132 H 0.50845 0.15268 0.50607
 C1133 C -0.02390 0.13249 0.46892
 C1134 C -0.03058 0.13096 0.44608
 C1135 C -0.02705 0.14932 0.43132
 C1136 C -0.03062 0.09774 0.49681
 C1137 C -0.01009 0.17083 0.46223
 C1138 C -0.01365 0.15245 0.47696
 C1139 C -0.02756 0.11359 0.48410
 C1140 C -0.01675 0.16948 0.43923
 H1141 H -0.03848 0.11556 0.43966
 H1142 H -0.03210 0.14764 0.41365
 H1143 H -0.00240 0.18621 0.46892
 H1144 H -0.00847 0.15384 0.49463
 C1145 C 0.47610 0.63141 0.96918
 C1146 C 0.45816 0.64625 0.96400
 C1147 C 0.46169 0.66460 0.94922
 C1148 C 0.46935 0.59672 0.99712
 C1149 C 0.50119 0.65333 0.94475
 C1150 C 0.49761 0.63499 0.95952
 C1151 C 0.47244 0.61253 0.98438
 C1152 C 0.48326 0.66835 0.93942
 H1153 H 0.44146 0.64368 0.97143
 H1154 H 0.44763 0.67602 0.94571
 H1155 H 0.51790 0.65559 0.93726
 H1156 H 0.51160 0.62357 0.96337
 C1157 C 0.52375 0.86782 0.96918
 C1158 C 0.51349 0.84787 0.97725
 C1159 C 0.50985 0.82950 0.96252
 C1160 C 0.53060 0.90254 0.99707
 C1161 C 0.52675 0.85099 0.93156
 C1162 C 0.53036 0.86935 0.94632
 C1163 C 0.52748 0.88672 0.98435
 C1164 C 0.51644 0.83085 0.93950
 H1165 H 0.50837 0.84649 0.99493
 H1166 H 0.50216 0.81414 0.96922
 H1167 H 0.53174 0.85267 0.91388
 H1168 H 0.53826 0.88474 0.93988
 C1169 C 0.02345 0.36898 0.46886
 C1170 C 0.01313 0.34905 0.47688
 C1171 C 0.00949 0.33070 0.46214
 C1172 C 0.03034 0.40366 0.49680
 C1173 C 0.02652 0.35217 0.43124
 C1174 C 0.03013 0.37050 0.44601
 C1175 C 0.02720 0.38785 0.48405
 C1176 C 0.01615 0.33204 0.43913
 H1177 H 0.00796 0.34767 0.49456
 H1178 H 0.00175 0.31534 0.46881
 H1179 H 0.03157 0.35384 0.41357
 H1180 H 0.03808 0.38588 0.43961
 C1181 C 0.36840 0.53124 0.47643
 C1182 C 0.36468 0.54079 0.49797
 C1183 C 0.34628 0.55552 0.50151
 C1184 C 0.40320 0.50338 0.46974
 C1185 C 0.33525 0.55120 0.46193
 C1186 C 0.35365 0.53647 0.45843
 C1187 C 0.38734 0.51608 0.47280
 C1188 C 0.33135 0.56090 0.48353
 H1189 H 0.37604 0.53690 0.51200
 H1190 H 0.34391 0.56293 0.51825
 H1191 H 0.32390 0.55476 0.44783
 H1192 H 0.35634 0.52911 0.44171
 C1193 C 0.86888 0.03042 -0.02393
 C1194 C 0.84897 0.02239 -0.01356
 C1195 C 0.83058 0.03712 -0.00993
 C1196 C 0.90363 0.00253 -0.03078
 C1197 C 0.85199 0.06800 -0.02706
 C1198 C 0.87035 0.05324 -0.03067
 C1199 C 0.88778 0.01525 -0.02767
 C1200 C 0.83188 0.06010 -0.01664
 H1201 H 0.84762 0.00473 -0.00834
 H1202 H 0.81525 0.03044 -0.00215
 H1203 H 0.85363 0.08565 -0.03215
 H1204 H 0.88571 0.05964 -0.03865
 C1205 C 0.63223 0.03073 0.02417
 C1206 C 0.65214 0.02262 0.01386
 C1207 C 0.67055 0.03729 0.01021
 C1208 C 0.59743 0.00295 0.03100
 C1209 C 0.64916 0.06827 0.02723
 C1210 C 0.63078 0.05358 0.03085
 C1211 C 0.61329 0.01562 0.02790
 C1212 C 0.66927 0.06030 0.01686
 H1213 H 0.65347 0.00495 0.00869
 H1214 H 0.68589 0.03056 0.00247
 H1215 H 0.64754 0.08595 0.03227
 H1216 H 0.61541 0.06005 0.03879
 C1217 C 0.13166 0.53101 0.52321
 C1218 C 0.13008 0.55385 0.52988
 C1219 C 0.14843 0.56862 0.52636
 C1220 C 0.09695 0.50310 0.52996
 C1221 C 0.17003 0.53772 0.50945
 C1222 C 0.15166 0.52298 0.51300
 C1223 C 0.11277 0.51582 0.52688
 C1224 C 0.16863 0.56072 0.51609
 H1225 H 0.11465 0.56026 0.53774
 H1226 H 0.14671 0.58629 0.53139
 H1227 H 0.18544 0.53105 0.50179
 H1228 H 0.15308 0.50531 0.50784
 C1229 C 0.13099 0.46954 -0.02349
 C1230 C 0.12953 0.44672 -0.03027
 C1231 C 0.14794 0.43200 -0.02678
 C1232 C 0.09615 0.49736 -0.03016
 C1233 C 0.16937 0.46290 -0.00970
 C1234 C 0.15094 0.47759 -0.01321
 C1235 C 0.11203 0.48468 -0.02711
 C1236 C 0.16808 0.43992 -0.01645
 H1237 H 0.11414 0.44030 -0.03819
 H1238 H 0.14631 0.41435 -0.03190
 H1239 H 0.18473 0.46959 -0.00199
 H1240 H 0.15227 0.49524 -0.00797
 C1241 C 0.63112 0.96901 0.47630
 C1242 C 0.64594 0.96391 0.45832
 C1243 C 0.66438 0.94923 0.46181
 C1244 C 0.59627 0.99683 0.46966
 C1245 C 0.65324 0.94469 0.50133
 C1246 C 0.63481 0.95937 0.49780
 C1247 C 0.61216 0.98414 0.47269
 C1248 C 0.66825 0.93944 0.48336
 H1249 H 0.64329 0.97134 0.44162
 H1250 H 0.67579 0.94577 0.44772
 H1251 H 0.65558 0.93721 0.51803
 H1252 H 0.62340 0.96316 0.51182
 C1253 C 0.86803 0.96932 0.52382
 C1254 C 0.85323 0.96407 0.54177
 C1255 C 0.83484 0.94935 0.53818
 C1256 C 0.90278 0.99716 0.53064
 C1257 C 0.84600 0.94511 0.49863
 C1258 C 0.86438 0.95981 0.50226
 C1259 C 0.88694 0.98446 0.52753
 C1260 C 0.83102 0.93970 0.51656
 H1261 H 0.85586 0.97139 0.55851
 H1262 H 0.82345 0.94578 0.55225
 H1263 H 0.84369 0.93773 0.48188
 H1264 H 0.87577 0.96372 0.48827
 C1265 C 0.36791 0.46955 0.02362
 C1266 C 0.34793 0.47767 0.01344
 C1267 C 0.32952 0.46300 0.00985
 C1268 C 0.40273 0.49733 0.03035
 C1269 C 0.35103 0.43198 0.02665
 C1270 C 0.36942 0.44669 0.03022
 C1271 C 0.38686 0.48466 0.02728
 C1272 C 0.33086 0.43997 0.01641
 H1273 H 0.34656 0.49536 0.00833
 H1274 H 0.31413 0.46974 0.00221
 H1275 H 0.35270 0.41430 0.03163
 H1276 H 0.38484 0.44021 0.03805
 C1277 C 0.53173 0.47639 0.36837
 C1278 C 0.53690 0.45848 0.35349
 C1279 C 0.55160 0.46206 0.33509
 C1280 C 0.50389 0.46957 0.40314
 C1281 C 0.55602 0.50154 0.34638
 C1282 C 0.54132 0.49791 0.36478
 C1283 C 0.51659 0.47268 0.38730
 C1284 C 0.56134 0.48364 0.33132
 H1285 H 0.52951 0.44176 0.35608
 H1286 H 0.55511 0.44802 0.32364
 H1287 H 0.56346 0.51826 0.34411
 H1288 H 0.53748 0.51188 0.37623
 C1289 C 0.03142 -0.02349 0.86825
 C1290 C 0.02344 -0.01313 0.84831
 C1291 C 0.03821 -0.00952 0.82997
 C1292 C 0.00344 -0.03035 0.90290
 C1293 C 0.06905 -0.02666 0.85147
 C1294 C 0.05425 -0.03023 0.86980
 C1295 C 0.01620 -0.02721 0.88711
 C1296 C 0.06119 -0.01625 0.83133
 H1297 H 0.00578 -0.00790 0.84691
 H1298 H 0.03157 -0.00175 0.81460
 H1299 H 0.08670 -0.03176 0.85316
 H1300 H 0.06062 -0.03821 0.88518
 C1301 C 0.03143 0.02407 0.63191
 C1302 C 0.03670 0.04200 0.64671
 C1303 C 0.05148 0.03842 0.66506
 C1304 C 0.00347 0.03089 0.59722
 C1305 C 0.05578 -0.00110 0.65384
 C1306 C 0.04101 0.00252 0.63550
 C1307 C 0.01622 0.02777 0.61303
 C1308 C 0.06120 0.01681 0.66883
 H1309 H 0.02933 0.05873 0.64412
 H1310 H 0.05506 0.05247 0.67646
 H1311 H 0.06321 -0.01784 0.65611
 H1312 H 0.03709 -0.01146 0.62410
 C1313 C 0.53134 0.52418 0.13165
 C1314 C 0.53653 0.54210 0.14650
 C1315 C 0.55128 0.53853 0.16487
 C1316 C 0.50344 0.53100 0.09691
 C1317 C 0.55569 0.49903 0.15361
 C1318 C 0.54094 0.50265 0.13524
 C1319 C 0.51616 0.52789 0.11274
 C1320 C 0.56103 0.51694 0.16864
 H1321 H 0.52913 0.55882 0.14391
 H1322 H 0.55481 0.55258 0.17630
 H1323 H 0.56314 0.48231 0.15588
 H1324 H 0.53709 0.48867 0.12381
 C1325 C 0.46887 -0.02403 0.13241
 C1326 C 0.46361 -0.04200 0.14717
 C1327 C 0.44882 -0.03847 0.16552
 C1328 C 0.49680 -0.03077 0.09769
 C1329 C 0.44450 0.00107 0.15441
 C1330 C 0.45929 -0.00250 0.13606
 C1331 C 0.48407 -0.02769 0.11352
 C1332 C 0.43908 -0.01689 0.16935
 H1333 H 0.47099 -0.05872 0.14454
 H1334 H 0.44523 -0.05256 0.17688
 H1335 H 0.43706 0.01780 0.15672
 H1336 H 0.46319 0.01152 0.12470
 C1337 C 0.96885 0.47583 0.63176
 C1338 C 0.96369 0.45788 0.64659
 C1339 C 0.94899 0.46142 0.66500
 C1340 C 0.99662 0.46908 0.59691
 C1341 C 0.94457 0.50094 0.65384
 C1342 C 0.95926 0.49735 0.63543
 C1343 C 0.98396 0.47215 0.61280
 C1344 C 0.93925 0.48300 0.66884
 H1345 H 0.97108 0.44116 0.64394
 H1346 H 0.94549 0.44735 0.67641
 H1347 H 0.93712 0.51766 0.65616
 H1348 H 0.96309 0.51135 0.62402
 C1349 C 0.96859 0.52345 0.86865
 C1350 C 0.95899 0.50192 0.86506
 C1351 C 0.94429 0.49830 0.84666
 C1352 C 0.99643 0.53026 0.90343
 C1353 C 0.94872 0.53778 0.83538
 C1354 C 0.96343 0.54136 0.85378
 C1355 C 0.98373 0.52715 0.88758
 C1356 C 0.93898 0.51620 0.83160
 H1357 H 0.96283 0.48795 0.87651
 H1358 H 0.93684 0.48158 0.84439
 H1359 H 0.94522 0.55182 0.82393
 H1360 H 0.97082 0.55807 0.85637
 C1361 C 0.46840 0.02314 0.36886
 C1362 C 0.46321 0.04108 0.35404
 C1363 C 0.44844 0.03756 0.33568
 C1364 C 0.49639 0.02986 0.40354
 C1365 C 0.44400 -0.00193 0.34691
 C1366 C 0.45877 0.00164 0.36526
 C1367 C 0.48363 0.02679 0.38774
 C1368 C 0.43866 0.01600 0.33190
 H1369 H 0.47064 0.05778 0.35663
 H1370 H 0.44492 0.05163 0.32427
 H1371 H 0.43652 -0.01864 0.34463
 H1372 H 0.46262 -0.01236 0.37667
   
