data_POSCAR
  _audit_creation_date              2014-09-24
  _audit_creation_method            'ToBaCCo'
  _symmetry_space_group_name_H-M    'P1'
  _symmetry_Int_Tables_number       1
  _symmetry_cell_setting            triclinic
  loop_
  _symmetry_equiv_pos_as_xyz
 x,y,z
_cell_length_a 53.9058
_cell_length_b 35.7121
_cell_length_c 37.7117
_cell_angle_alpha 89.945200
_cell_angle_beta 89.955500
_cell_angle_gamma 89.982200
loop_
  _atom_site_label
  _atom_site_type_symbol
  _atom_site_fract_x
  _atom_site_fract_y
  _atom_site_fract_z
C1 C 0.00019 -0.00044 0.11322
 C2 C 0.00184 -0.00061 -0.11937
 C3 C -0.05728 -0.06145 0.05049
 C4 C -0.05710 0.06100 0.05052
 C5 C -0.05621 -0.06166 -0.05779
 C6 C 0.05841 -0.05869 -0.05943
 C7 C 0.05874 0.05724 -0.05952
 C8 C 0.05719 -0.05820 0.05569
 C9 C -0.05598 0.06138 -0.05777
 C10 C 0.05733 0.05718 0.05553
 O11 O -0.03334 -0.06975 -0.06497
 O12 O -0.06316 -0.03597 -0.03580
 O13 O -0.03310 0.06924 -0.06517
 O14 O -0.06298 0.03581 -0.03570
 O15 O 0.03448 0.06523 0.06280
 O16 O 0.06427 0.03364 0.03148
 O17 O 0.00160 0.03136 -0.10339
 O18 O 0.00150 -0.03226 -0.10286
 O19 O 0.00003 0.03156 0.09735
 O20 O -0.00007 -0.03223 0.09712
 O21 O 0.03555 -0.06632 -0.06719
 O22 O 0.06489 -0.03512 -0.03508
 O23 O -0.03460 -0.06938 0.05897
 O24 O -0.06365 -0.03611 0.02773
 O25 O 0.03433 -0.06616 0.06302
 O26 O 0.06417 -0.03487 0.03148
 O27 O 0.03600 0.06540 -0.06762
 O28 O 0.06485 0.03351 -0.03510
 O29 O 0.00137 0.10460 0.05010
 O30 O 0.00242 0.10436 -0.05749
 O31 O 0.00195 -0.10510 -0.05712
 O32 O 0.00111 -0.10536 0.05048
 O33 O -0.02097 -0.04961 -0.00323
 O34 O -0.02071 0.04898 -0.00344
 O35 O 0.02164 -0.04951 -0.00246
 O36 O -0.02251 -0.00030 0.04391
 O37 O -0.06355 0.03580 0.02773
 O38 O -0.03440 0.06877 0.05897
 O39 O 0.02282 -0.00049 0.04488
 O40 O 0.02384 -0.00054 -0.05013
 O41 O 0.02180 0.04847 -0.00262
 O42 O -0.02160 -0.00026 -0.05058
 Zr43 Zr 0.00016 0.04602 0.04310
 Zr44 Zr 0.00093 -0.04672 -0.04881
 Zr45 Zr -0.04191 -0.00020 -0.00367
 Zr46 Zr 0.00002 -0.04681 0.04315
 Zr47 Zr 0.00118 0.04597 -0.04917
 Zr48 Zr 0.04307 -0.00062 -0.00222
 H49 H 0.03164 -0.07277 -0.00225
 H50 H -0.03376 -0.00028 0.06466
 H51 H 0.03190 0.07161 -0.00246
 H52 H -0.03253 -0.00025 -0.07165
 H53 H -0.00405 0.11539 0.02721
 H54 H 0.00262 0.11560 -0.03354
 H55 H -0.00422 -0.11623 0.02761
 H56 H 0.00191 -0.11640 -0.03317
 C57 C 0.25109 0.24923 0.13160
 C58 C 0.24987 0.24962 0.36422
 C59 C 0.19355 0.31222 0.19339
 C60 C 0.19249 0.18931 0.19363
 C61 C 0.19285 0.31214 0.30161
 C62 C 0.30730 0.30678 0.30584
 C63 C 0.30647 0.19047 0.30558
 C64 C 0.30801 0.30694 0.19166
 C65 C 0.19200 0.18929 0.30139
 C66 C 0.30702 0.19044 0.19133
 O67 O 0.21561 0.31955 0.31003
 O68 O 0.18621 0.28693 0.27896
 O69 O 0.21465 0.18084 0.30951
 O70 O 0.18567 0.21503 0.27905
 O71 O 0.28420 0.18292 0.18349
 O72 O 0.31384 0.21407 0.21538
 O73 O 0.24942 0.21789 0.34804
 O74 O 0.24990 0.28165 0.34841
 O75 O 0.25047 0.21761 0.14810
 O76 O 0.25101 0.28122 0.14755
 O77 O 0.28453 0.31505 0.31332
 O78 O 0.31402 0.28295 0.28190
 O79 O 0.21645 0.31970 0.18585
 O80 O 0.18647 0.28679 0.21559
 O81 O 0.28540 0.31531 0.18337
 O82 O 0.31427 0.28298 0.21569
 O83 O 0.28360 0.18293 0.31315
 O84 O 0.31349 0.21413 0.28170
 O85 O 0.25052 0.14472 0.19456
 O86 O 0.24974 0.14493 0.30250
 O87 O 0.25156 0.35463 0.30147
 O88 O 0.25210 0.35434 0.19328
 O89 O 0.22899 0.29945 0.24769
 O90 O 0.22811 0.20083 0.24788
 O91 O 0.27139 0.29822 0.24821
 O92 O 0.22758 0.25009 0.20046
 O93 O 0.18599 0.21500 0.21586
 O94 O 0.21522 0.18097 0.18576
 O95 O 0.27300 0.24915 0.20068
 O96 O 0.27242 0.24930 0.29581
 O97 O 0.27067 0.20030 0.24829
 O98 O 0.22703 0.25013 0.29508
 Zr99 Zr 0.24978 0.20324 0.20209
 Zr100 Zr 0.24998 0.29612 0.29414
 Zr101 Zr 0.20752 0.25059 0.24757
 Zr102 Zr 0.25062 0.29599 0.20176
 Zr103 Zr 0.24931 0.20333 0.29408
 Zr104 Zr 0.29243 0.24889 0.24847
 H105 H 0.28156 0.32128 0.24833
 H106 H 0.21659 0.25028 0.17945
 H107 H 0.28047 0.17685 0.24836
 H108 H 0.21582 0.25028 0.31587
 H109 H 0.24552 0.13379 0.21758
 H110 H 0.24928 0.13364 0.27859
 H111 H 0.25153 0.36567 0.21718
 H112 H 0.24693 0.36562 0.27832
 C113 C 0.49884 -0.00156 0.11456
 C114 C 0.50102 -0.00139 -0.11722
 C115 C 0.55758 0.05950 0.05413
 C116 C 0.55757 -0.06257 0.05479
 C117 C 0.55904 0.05907 -0.05552
 C118 C 0.44427 0.05699 -0.05965
 C119 C 0.44407 -0.05943 -0.05943
 C120 C 0.44296 0.05710 0.05448
 C121 C 0.55863 -0.06290 -0.05492
 C122 C 0.44261 -0.05957 0.05498
 O123 O 0.53625 0.06704 -0.06371
 O124 O 0.56519 0.03403 -0.03225
 O125 O 0.53574 -0.07069 -0.06244
 O126 O 0.56519 -0.03757 -0.03221
 O127 O 0.46538 -0.06761 0.06321
 O128 O 0.43656 -0.03563 0.03067
 O129 O 0.50124 -0.03316 -0.10106
 O130 O 0.50138 0.03062 -0.10151
 O131 O 0.49920 -0.03337 0.09857
 O132 O 0.49946 0.03041 0.09873
 O133 O 0.46716 0.06485 -0.06703
 O134 O 0.43731 0.03323 -0.03579
 O135 O 0.53469 0.06759 0.06123
 O136 O 0.56458 0.03410 0.03185
 O137 O 0.46564 0.06511 0.06283
 O138 O 0.43664 0.03323 0.03041
 O139 O 0.46692 -0.06756 -0.06659
 O140 O 0.43713 -0.03552 -0.03573
 O141 O 0.49901 -0.10647 0.05199
 O142 O 0.50050 -0.10620 -0.05541
 O143 O 0.50071 0.10368 -0.05438
 O144 O 0.49962 0.10343 0.05267
 O145 O 0.52245 0.04779 -0.00092
 O146 O 0.52225 -0.05092 -0.00077
 O147 O 0.47982 0.04764 -0.00186
 O148 O 0.52289 -0.00155 0.04624
 O149 O 0.56444 -0.03755 0.03195
 O150 O 0.53456 -0.07021 0.06196
 O151 O 0.47753 -0.00135 0.04573
 O152 O 0.47864 -0.00127 -0.04921
 O153 O 0.47956 -0.05039 -0.00165
 O154 O 0.52396 -0.00156 -0.04805
 Zr155 Zr 0.50021 -0.04791 0.04472
 Zr156 Zr 0.50151 0.04506 -0.04743
 Zr157 Zr 0.54345 -0.00167 -0.00052
 Zr158 Zr 0.50038 0.04499 0.04465
 Zr159 Zr 0.50123 -0.04780 -0.04711
 Zr160 Zr 0.45837 -0.00127 -0.00218
 H161 H 0.46986 0.07092 -0.00209
 H162 H 0.53369 -0.00152 0.06744
 H163 H 0.46951 -0.07358 -0.00177
 H164 H 0.53515 -0.00174 -0.06886
 H165 H 0.50511 -0.11731 0.02949
 H166 H 0.49970 -0.11746 -0.03148
 H167 H 0.49904 0.11458 0.02868
 H168 H 0.50684 0.11429 -0.03181
 C169 C 0.75205 0.24916 0.13309
 C170 C 0.75053 0.24874 0.36489
 C171 C 0.69413 0.31123 0.19362
 C172 C 0.69305 0.18946 0.19383
 C173 C 0.69343 0.31119 0.30285
 C174 C 0.80791 0.30573 0.30723
 C175 C 0.80730 0.19003 0.30698
 C176 C 0.80863 0.30601 0.19205
 C177 C 0.69263 0.18906 0.30257
 C178 C 0.80758 0.19055 0.19153
 O179 O 0.71620 0.31885 0.31109
 O180 O 0.68684 0.28614 0.28004
 O181 O 0.71528 0.18040 0.31054
 O182 O 0.68633 0.21463 0.28003
 O183 O 0.78475 0.18289 0.18390
 O184 O 0.81446 0.21379 0.21590
 O185 O 0.75010 0.21702 0.34872
 O186 O 0.75052 0.28079 0.34917
 O187 O 0.75130 0.21736 0.14915
 O188 O 0.75187 0.28116 0.14885
 O189 O 0.78513 0.31416 0.31452
 O190 O 0.81468 0.28214 0.28310
 O191 O 0.71704 0.31874 0.18610
 O192 O 0.68708 0.28622 0.21628
 O193 O 0.78599 0.31462 0.18407
 O194 O 0.81493 0.28229 0.21631
 O195 O 0.78431 0.18256 0.31423
 O196 O 0.81418 0.21353 0.28277
 O197 O 0.75114 0.14416 0.19600
 O198 O 0.75032 0.14416 0.30284
 O199 O 0.75197 0.35393 0.30304
 O200 O 0.75299 0.35424 0.19569
 O201 O 0.72953 0.29906 0.24873
 O202 O 0.72866 0.20025 0.24869
 O203 O 0.77213 0.29774 0.24926
 O204 O 0.72830 0.24972 0.20150
 O205 O 0.68660 0.21479 0.21647
 O206 O 0.71578 0.18102 0.18599
 O207 O 0.77354 0.24876 0.20184
 O208 O 0.77302 0.24865 0.29663
 O209 O 0.77141 0.19969 0.24909
 O210 O 0.72772 0.24947 0.29587
 Zr211 Zr 0.75039 0.20276 0.20301
 Zr212 Zr 0.75060 0.29551 0.29507
 Zr213 Zr 0.70815 0.25010 0.24843
 Zr214 Zr 0.75126 0.29571 0.20294
 Zr215 Zr 0.74998 0.20262 0.29481
 Zr216 Zr 0.79313 0.24832 0.24941
 H217 H 0.78236 0.32076 0.24937
 H218 H 0.71738 0.24993 0.18043
 H219 H 0.78128 0.17631 0.24911
 H220 H 0.71653 0.24962 0.31669
 H221 H 0.74463 0.13350 0.21837
 H222 H 0.75173 0.13305 0.27893
 H223 H 0.74703 0.36522 0.21821
 H224 H 0.75194 0.36506 0.27904
 C225 C 0.00006 0.50024 0.11417
 C226 C 0.00095 0.49983 -0.11842
 C227 C -0.05685 0.43775 0.05172
 C228 C -0.05788 0.56079 0.05172
 C229 C -0.05665 0.43809 -0.05658
 C230 C 0.05774 0.44341 -0.05907
 C231 C 0.05738 0.55866 -0.05870
 C232 C 0.05761 0.44323 0.05563
 C233 C -0.05715 0.56120 -0.05659
 C234 C 0.05662 0.55883 0.05607
 O235 O -0.03375 0.43058 -0.06411
 O236 O -0.06370 0.46347 -0.03432
 O237 O -0.03433 0.56931 -0.06398
 O238 O -0.06401 0.53549 -0.03447
 O239 O 0.03375 0.56654 0.06354
 O240 O 0.06358 0.53539 0.03193
 O241 O 0.00047 0.53182 -0.10247
 O242 O 0.00079 0.46819 -0.10189
 O243 O -0.00047 0.53225 0.09835
 O244 O 0.00012 0.46849 0.09802
 O245 O 0.03503 0.43508 -0.06678
 O246 O 0.06429 0.46693 -0.03481
 O247 O -0.03399 0.43021 0.05939
 O248 O -0.06384 0.46327 0.02949
 O249 O 0.03490 0.43464 0.06340
 O250 O 0.06401 0.46700 0.03154
 O251 O 0.03467 0.56657 -0.06698
 O252 O 0.06385 0.53525 -0.03435
 O253 O 0.00024 0.60524 0.05122
 O254 O 0.00083 0.60497 -0.05660
 O255 O 0.00208 0.39539 -0.05523
 O256 O 0.00160 0.39549 0.05251
 O257 O -0.02112 0.45068 -0.00201
 O258 O -0.02166 0.54916 -0.00229
 O259 O 0.02150 0.45151 -0.00177
 O260 O -0.02282 0.49987 0.04504
 O261 O -0.06428 0.53535 0.02916
 O262 O -0.03521 0.56891 0.06000
 O263 O 0.02256 0.50063 0.04578
 O264 O 0.02299 0.50047 -0.04930
 O265 O 0.02082 0.54956 -0.00183
 O266 O -0.02242 0.49998 -0.04942
 Zr267 Zr -0.00055 0.54666 0.04410
 Zr268 Zr 0.00042 0.45389 -0.04784
 Zr269 Zr -0.04258 0.49965 -0.00236
 Zr270 Zr 0.00024 0.45386 0.04408
 Zr271 Zr 0.00006 0.54657 -0.04823
 Zr272 Zr 0.04242 0.50085 -0.00159
 H273 H 0.03168 0.42844 -0.00173
 H274 H -0.03399 0.49965 0.06589
 H275 H 0.03073 0.57288 -0.00173
 H276 H -0.03341 0.49983 -0.07044
 H277 H -0.00503 0.61600 0.02825
 H278 H 0.00060 0.61625 -0.03267
 H279 H 0.00176 0.38420 0.02858
 H280 H -0.00310 0.38434 -0.03233
 C281 C 0.25093 0.75062 0.13235
 C282 C 0.25061 0.75053 0.36419
 C283 C 0.19310 0.81279 0.19455
 C284 C 0.19250 0.69015 0.19410
 C285 C 0.19302 0.81252 0.30240
 C286 C 0.30750 0.80835 0.30542
 C287 C 0.30705 0.69177 0.30528
 C288 C 0.30771 0.80882 0.19091
 C289 C 0.19252 0.68977 0.30219
 C290 C 0.30700 0.69199 0.19094
 O291 O 0.21579 0.82021 0.31058
 O292 O 0.18640 0.78718 0.27991
 O293 O 0.21525 0.68150 0.31014
 O294 O 0.18607 0.71544 0.27987
 O295 O 0.28416 0.68431 0.18337
 O296 O 0.31394 0.71572 0.21481
 O297 O 0.25023 0.71879 0.34806
 O298 O 0.25042 0.78256 0.34845
 O299 O 0.25041 0.71885 0.14844
 O300 O 0.25062 0.78262 0.14808
 O301 O 0.28472 0.81632 0.31316
 O302 O 0.31426 0.78467 0.28139
 O303 O 0.21587 0.82059 0.18637
 O304 O 0.18645 0.78727 0.21687
 O305 O 0.28490 0.81690 0.18337
 O306 O 0.31440 0.78482 0.21479
 O307 O 0.28421 0.68411 0.31289
 O308 O 0.31398 0.71560 0.28141
 O309 O 0.25071 0.64584 0.19485
 O310 O 0.25049 0.64584 0.30241
 O311 O 0.25158 0.85559 0.30184
 O312 O 0.25138 0.85566 0.19389
 O313 O 0.22888 0.80029 0.24824
 O314 O 0.22839 0.70153 0.24825
 O315 O 0.27141 0.79955 0.24823
 O316 O 0.22748 0.75106 0.20099
 O317 O 0.18607 0.71560 0.21663
 O318 O 0.21523 0.68203 0.18595
 O319 O 0.27285 0.75058 0.20073
 O320 O 0.27282 0.75047 0.29563
 O321 O 0.27105 0.70165 0.24820
 O322 O 0.22743 0.75087 0.29553
 Zr323 Zr 0.24982 0.70437 0.20231
 Zr324 Zr 0.25019 0.79710 0.29432
 Zr325 Zr 0.20771 0.75113 0.24829
 Zr326 Zr 0.25029 0.79726 0.20214
 Zr327 Zr 0.24983 0.70427 0.29417
 Zr328 Zr 0.29272 0.75043 0.24813
 H329 H 0.28147 0.82272 0.24824
 H330 H 0.21639 0.75121 0.18009
 H331 H 0.28091 0.67827 0.24815
 H332 H 0.21631 0.75090 0.31642
 H333 H 0.24526 0.63492 0.21767
 H334 H 0.25065 0.63463 0.27845
 H335 H 0.25104 0.86688 0.21785
 H336 H 0.24664 0.86665 0.27884
 C337 C 0.49882 0.49957 0.11453
 C338 C 0.50021 0.49987 -0.11726
 C339 C 0.55681 0.56180 0.05364
 C340 C 0.55790 0.43990 0.05382
 C341 C 0.55765 0.56147 -0.05527
 C342 C 0.44320 0.55758 -0.05941
 C343 C 0.44368 0.44078 -0.05881
 C344 C 0.44232 0.55757 0.05477
 C345 C 0.55805 0.43943 -0.05495
 C346 C 0.44336 0.44100 0.05541
 O347 O 0.53492 0.56918 -0.06368
 O348 O 0.56420 0.53648 -0.03238
 O349 O 0.53531 0.43112 -0.06251
 O350 O 0.56469 0.46497 -0.03261
 O351 O 0.46616 0.43339 0.06325
 O352 O 0.43649 0.46466 0.03136
 O353 O 0.50061 0.46815 -0.10105
 O354 O 0.50035 0.53191 -0.10159
 O355 O 0.49956 0.46782 0.09847
 O356 O 0.49903 0.53159 0.09875
 O357 O 0.46601 0.56570 -0.06680
 O358 O 0.43638 0.53368 -0.03553
 O359 O 0.53391 0.56953 0.06097
 O360 O 0.56388 0.53658 0.03124
 O361 O 0.46496 0.56588 0.06298
 O362 O 0.43601 0.53358 0.03083
 O363 O 0.46656 0.43314 -0.06622
 O364 O 0.43666 0.46463 -0.03510
 O365 O 0.49984 0.39487 0.05167
 O366 O 0.50038 0.39521 -0.05554
 O367 O 0.49913 0.60496 -0.05469
 O368 O 0.49855 0.60472 0.05284
 O369 O 0.52150 0.54958 -0.00113
 O370 O 0.52218 0.45085 -0.00111
 O371 O 0.47894 0.54864 -0.00170
 O372 O 0.52269 0.50028 0.04611
 O373 O 0.56436 0.46513 0.03107
 O374 O 0.53515 0.43158 0.06172
 O375 O 0.47735 0.49953 0.04579
 O376 O 0.47786 0.49973 -0.04912
 O377 O 0.47948 0.45070 -0.00145
 O378 O 0.52321 0.50020 -0.04829
 Zr379 Zr 0.50054 0.45347 0.04461
 Zr380 Zr 0.50044 0.54640 -0.04747
 Zr381 Zr 0.54284 0.50051 -0.00089
 Zr382 Zr 0.49973 0.54632 0.04465
 Zr383 Zr 0.50079 0.45360 -0.04714
 Zr384 Zr 0.45780 0.49940 -0.00190
 H385 H 0.46883 0.57177 -0.00188
 H386 H 0.53360 0.50045 0.06720
 H387 H 0.46966 0.42729 -0.00150
 H388 H 0.53435 0.50024 -0.06915
 H389 H 0.50602 0.38422 0.02912
 H390 H 0.49946 0.38389 -0.03164
 H391 H 0.49821 0.61594 0.02886
 H392 H 0.50463 0.61582 -0.03189
 C393 C 0.75070 0.75045 0.13242
 C394 C 0.75048 0.75036 0.36422
 C395 C 0.69247 0.81149 0.19368
 C396 C 0.69238 0.69006 0.19399
 C397 C 0.69280 0.81194 0.30269
 C398 C 0.80726 0.80803 0.30566
 C399 C 0.80697 0.69225 0.30578
 C400 C 0.80708 0.80815 0.19027
 C401 C 0.69243 0.68981 0.30265
 C402 C 0.80684 0.69242 0.19051
 O403 O 0.71556 0.81997 0.31059
 O404 O 0.68619 0.78667 0.28013
 O405 O 0.71517 0.68148 0.31053
 O406 O 0.68596 0.71525 0.28013
 O407 O 0.78402 0.68453 0.18309
 O408 O 0.81375 0.71590 0.21463
 O409 O 0.75014 0.71861 0.34812
 O410 O 0.75021 0.78238 0.34845
 O411 O 0.75026 0.71867 0.14854
 O412 O 0.75028 0.78248 0.14811
 O413 O 0.78448 0.81612 0.31326
 O414 O 0.81402 0.78456 0.28145
 O415 O 0.71523 0.81948 0.18546
 O416 O 0.68601 0.78647 0.21663
 O417 O 0.78427 0.81625 0.18283
 O418 O 0.81388 0.78463 0.21450
 O419 O 0.78413 0.68435 0.31326
 O420 O 0.81384 0.71583 0.28165
 O421 O 0.75070 0.64554 0.19532
 O422 O 0.75042 0.64562 0.30229
 O423 O 0.75101 0.85541 0.30221
 O424 O 0.75106 0.85567 0.19518
 O425 O 0.72847 0.80013 0.24832
 O426 O 0.72822 0.70125 0.24838
 O427 O 0.77109 0.79944 0.24817
 O428 O 0.72724 0.75068 0.20114
 O429 O 0.68593 0.71523 0.21677
 O430 O 0.71511 0.68193 0.18584
 O431 O 0.77247 0.75048 0.20090
 O432 O 0.77259 0.75039 0.29563
 O433 O 0.77096 0.70145 0.24827
 O434 O 0.72728 0.75065 0.29557
 Zr435 Zr 0.74967 0.70411 0.20243
 Zr436 Zr 0.74994 0.79697 0.29431
 Zr437 Zr 0.70749 0.75082 0.24838
 Zr438 Zr 0.74980 0.79708 0.20219
 Zr439 Zr 0.74972 0.70407 0.29424
 Zr440 Zr 0.79247 0.75036 0.24817
 H441 H 0.78118 0.82259 0.24810
 H442 H 0.71619 0.75070 0.18019
 H443 H 0.78093 0.67818 0.24822
 H444 H 0.71621 0.75069 0.31650
 H445 H 0.74449 0.63475 0.21780
 H446 H 0.75142 0.63451 0.27833
 H447 H 0.74469 0.86642 0.21758
 H448 H 0.75162 0.86650 0.27820
 C449 C 0.00029 0.00037 0.38215
 C450 C -0.00009 0.00029 0.61456
 C451 C -0.05792 0.06134 0.44390
 C452 C -0.05731 -0.06122 0.44420
 C453 C -0.05795 0.06160 0.55191
 C454 C 0.05654 0.05881 0.55608
 C455 C 0.05681 -0.05696 0.55617
 C456 C 0.05663 0.05874 0.44073
 C457 C -0.05766 -0.06128 0.55179
 C458 C 0.05716 -0.05672 0.44090
 O459 O -0.03526 0.06971 0.56013
 O460 O -0.06438 0.03604 0.52954
 O461 O -0.03492 -0.06922 0.55997
 O462 O -0.06420 -0.03564 0.52954
 O463 O 0.03440 -0.06484 0.43326
 O464 O 0.06384 -0.03328 0.46518
 O465 O -0.00035 -0.03144 0.59836
 O466 O -0.00047 0.03232 0.59875
 O467 O 0.00014 -0.03138 0.39837
 O468 O -0.00018 0.03241 0.39790
 O469 O 0.03370 0.06665 0.56356
 O470 O 0.06345 0.03536 0.53193
 O471 O -0.03518 0.06950 0.43578
 O472 O -0.06434 0.03587 0.46644
 O473 O 0.03383 0.06654 0.43307
 O474 O 0.06349 0.03538 0.46503
 O475 O 0.03401 -0.06516 0.56353
 O476 O 0.06363 -0.03334 0.53206
 O477 O 0.00137 -0.10437 0.44500
 O478 O 0.00069 -0.10430 0.55256
 O479 O 0.00015 0.10535 0.55254
 O480 O 0.00050 0.10553 0.44470
 O481 O -0.02196 0.04980 0.49824
 O482 O -0.02169 -0.04894 0.49826
 O483 O 0.02051 0.04966 0.49835
 O484 O -0.02294 0.00038 0.45093
 O485 O -0.06398 -0.03579 0.46660
 O486 O -0.03453 -0.06897 0.43608
 O487 O 0.02238 0.00075 0.45099
 O488 O 0.02220 0.00065 0.54590
 O489 O 0.02092 -0.04828 0.49844
 O490 O -0.02317 0.00038 0.54558
 Zr491 Zr -0.00018 -0.04586 0.45237
 Zr492 Zr -0.00068 0.04692 0.54448
 Zr493 Zr -0.04274 0.00032 0.49814
 Zr494 Zr -0.00058 0.04700 0.45212
 Zr495 Zr -0.00045 -0.04589 0.54435
 Zr496 Zr 0.04217 0.00088 0.49849
 H497 H 0.03047 0.07295 0.49834
 H498 H -0.03402 0.00026 0.43002
 H499 H 0.03103 -0.07142 0.49845
 H500 H -0.03434 0.00027 0.56642
 H501 H -0.00408 -0.11540 0.46778
 H502 H 0.00081 -0.11549 0.52860
 H503 H -0.00487 0.11643 0.46754
 H504 H -0.00043 0.11653 0.52856
 C505 C 0.25119 0.24916 0.86568
 C506 C 0.25002 0.24892 0.63320
 C507 C 0.19286 0.18830 0.80415
 C508 C 0.19342 0.31149 0.80387
 C509 C 0.19203 0.18878 0.69584
 C510 C 0.30647 0.19027 0.69164
 C511 C 0.30755 0.30663 0.69202
 C512 C 0.30751 0.19009 0.80538
 C513 C 0.19305 0.31160 0.69584
 C514 C 0.30796 0.30656 0.80569
 O515 O 0.21470 0.18053 0.68756
 O516 O 0.18570 0.21423 0.71846
 O517 O 0.21589 0.31917 0.68804
 O518 O 0.18615 0.28608 0.71814
 O519 O 0.28532 0.31496 0.81402
 O520 O 0.31417 0.28258 0.78166
 O521 O 0.25007 0.28092 0.64900
 O522 O 0.24954 0.21715 0.64939
 O523 O 0.25096 0.28117 0.84986
 O524 O 0.25071 0.21741 0.84953
 O525 O 0.28362 0.18257 0.68416
 O526 O 0.31344 0.21397 0.71548
 O527 O 0.21568 0.18012 0.81147
 O528 O 0.18604 0.21406 0.78207
 O529 O 0.28479 0.18225 0.81382
 O530 O 0.31388 0.21396 0.78136
 O531 O 0.28485 0.31509 0.68414
 O532 O 0.31393 0.28256 0.71585
 O533 O 0.25200 0.35414 0.80309
 O534 O 0.25145 0.35395 0.69476
 O535 O 0.25003 0.14420 0.69602
 O536 O 0.25076 0.14440 0.80412
 O537 O 0.22831 0.20017 0.74981
 O538 O 0.22901 0.29874 0.74960
 O539 O 0.27078 0.19983 0.74917
 O540 O 0.22767 0.24946 0.79697
 O541 O 0.18660 0.28612 0.78154
 O542 O 0.21623 0.31898 0.81197
 O543 O 0.27307 0.24890 0.79680
 O544 O 0.27251 0.24875 0.70151
 O545 O 0.27136 0.29790 0.74918
 O546 O 0.22716 0.24957 0.70238
 Zr547 Zr 0.25052 0.29564 0.79563
 Zr548 Zr 0.24937 0.20274 0.70343
 Zr549 Zr 0.20754 0.24978 0.74988
 Zr550 Zr 0.25012 0.20277 0.79556
 Zr551 Zr 0.25018 0.29558 0.70319
 Zr552 Zr 0.29231 0.24856 0.74888
 H553 H 0.28065 0.17646 0.74902
 H554 H 0.21667 0.24958 0.81799
 H555 H 0.28152 0.32098 0.74907
 H556 H 0.21597 0.24976 0.68159
 H557 H 0.24750 0.36517 0.77991
 H558 H 0.25085 0.36526 0.71867
 H559 H 0.25036 0.13304 0.78022
 H560 H 0.24522 0.13334 0.71917
 C561 C 0.49921 -0.00016 0.38262
 C562 C 0.49905 -0.00008 0.61450
 C563 C 0.55741 -0.06044 0.44408
 C564 C 0.55711 0.06150 0.44401
 C565 C 0.55705 -0.06082 0.55316
 C566 C 0.44259 -0.05822 0.55491
 C567 C 0.44242 0.05808 0.55512
 C568 C 0.44297 -0.05826 0.44154
 C569 C 0.55688 0.06147 0.55332
 C570 C 0.44262 0.05821 0.44160
 O571 O 0.53422 -0.06898 0.56044
 O572 O 0.56394 -0.03539 0.53081
 O573 O 0.53404 0.06934 0.56078
 O574 O 0.56383 0.03628 0.53080
 O575 O 0.46532 0.06650 0.43356
 O576 O 0.43622 0.03421 0.46549
 O577 O 0.49936 0.03197 0.59878
 O578 O 0.49939 -0.03179 0.59835
 O579 O 0.49955 0.03189 0.39828
 O580 O 0.49966 -0.03188 0.39879
 O581 O 0.46528 -0.06640 0.56306
 O582 O 0.43620 -0.03420 0.53106
 O583 O 0.53462 -0.06847 0.43646
 O584 O 0.56417 -0.03526 0.46671
 O585 O 0.46571 -0.06641 0.43362
 O586 O 0.43644 -0.03425 0.46534
 O587 O 0.46509 0.06632 0.56330
 O588 O 0.43609 0.03419 0.53115
 O589 O 0.49894 0.10505 0.44418
 O590 O 0.49860 0.10504 0.55252
 O591 O 0.49919 -0.10467 0.55287
 O592 O 0.49931 -0.10481 0.44524
 O593 O 0.52157 -0.04904 0.49865
 O594 O 0.52129 0.04962 0.49856
 O595 O 0.47894 -0.04898 0.49848
 O596 O 0.52264 0.00029 0.45143
 O597 O 0.56396 0.03632 0.46664
 O598 O 0.53430 0.06937 0.43639
 O599 O 0.47735 0.00008 0.45086
 O600 O 0.47711 0.00008 0.54606
 O601 O 0.47884 0.04922 0.49843
 O602 O 0.52244 0.00024 0.54577
 Zr603 Zr 0.49993 0.04663 0.45237
 Zr604 Zr 0.49989 -0.04627 0.54448
 Zr605 Zr 0.54258 0.00041 0.49866
 Zr606 Zr 0.50014 -0.04627 0.45266
 Zr607 Zr 0.49975 0.04659 0.54463
 Zr608 Zr 0.45778 0.00008 0.49836
 H609 H 0.46899 -0.07225 0.49842
 H610 H 0.53366 0.00035 0.43044
 H611 H 0.46880 0.07243 0.49840
 H612 H 0.53342 0.00022 0.56679
 H613 H 0.50152 0.11627 0.46785
 H614 H 0.50226 0.11620 0.52909
 H615 H 0.50461 -0.11571 0.46814
 H616 H 0.49899 -0.11594 0.52894
 C617 C 0.75137 0.24938 0.86505
 C618 C 0.74972 0.24861 0.63319
 C619 C 0.69262 0.18868 0.80481
 C620 C 0.69315 0.31091 0.80429
 C621 C 0.69176 0.18901 0.69544
 C622 C 0.80615 0.19081 0.69082
 C623 C 0.80719 0.30617 0.69105
 C624 C 0.80724 0.19090 0.80543
 C625 C 0.69269 0.31104 0.69526
 C626 C 0.80768 0.30632 0.80565
 O627 O 0.71442 0.18068 0.68722
 O628 O 0.68543 0.21420 0.71829
 O629 O 0.71551 0.31877 0.68753
 O630 O 0.68581 0.28577 0.71783
 O631 O 0.78504 0.31488 0.81382
 O632 O 0.81389 0.28258 0.78140
 O633 O 0.74974 0.28066 0.64886
 O634 O 0.74921 0.21688 0.64939
 O635 O 0.75097 0.28139 0.84927
 O636 O 0.75078 0.21759 0.84902
 O637 O 0.78330 0.18287 0.68358
 O638 O 0.81312 0.21427 0.71487
 O639 O 0.71548 0.18045 0.81189
 O640 O 0.68576 0.21414 0.78239
 O641 O 0.78456 0.18281 0.81377
 O642 O 0.81360 0.21443 0.78111
 O643 O 0.78448 0.31476 0.68336
 O644 O 0.81360 0.28244 0.71516
 O645 O 0.75170 0.35440 0.80197
 O646 O 0.75097 0.35393 0.69451
 O647 O 0.74989 0.14399 0.69649
 O648 O 0.75049 0.14440 0.80361
 O649 O 0.72796 0.20003 0.74966
 O650 O 0.72861 0.29875 0.74929
 O651 O 0.77062 0.19984 0.74892
 O652 O 0.72750 0.24952 0.79667
 O653 O 0.68634 0.28584 0.78167
 O654 O 0.71597 0.31864 0.81215
 O655 O 0.77275 0.24905 0.79627
 O656 O 0.77211 0.24872 0.70128
 O657 O 0.77114 0.29806 0.74875
 O658 O 0.72688 0.24944 0.70232
 Zr659 Zr 0.75026 0.29581 0.79514
 Zr660 Zr 0.74908 0.20261 0.70336
 Zr661 Zr 0.70722 0.24968 0.74978
 Zr662 Zr 0.74988 0.20280 0.79523
 Zr663 Zr 0.74984 0.29555 0.70292
 Zr664 Zr 0.79202 0.24870 0.74847
 H665 H 0.78056 0.17654 0.74875
 H666 H 0.71661 0.24962 0.81780
 H667 H 0.78134 0.32110 0.74858
 H668 H 0.71572 0.24959 0.68151
 H669 H 0.74575 0.36516 0.77934
 H670 H 0.75173 0.36518 0.71843
 H671 H 0.75117 0.13313 0.77969
 H672 H 0.74385 0.13336 0.71914
 C673 C 0.00015 0.49977 0.38301
 C674 C 0.00082 0.49990 0.61541
 C675 C -0.05791 0.56018 0.44514
 C676 C -0.05689 0.43740 0.44564
 C677 C -0.05767 0.56047 0.55319
 C678 C 0.05686 0.55885 0.55631
 C679 C 0.05807 0.44326 0.55613
 C680 C 0.05663 0.55888 0.44101
 C681 C -0.05650 0.43737 0.55353
 C682 C 0.05750 0.44338 0.44094
 O683 O -0.03497 0.56884 0.56116
 O684 O -0.06408 0.53469 0.53103
 O685 O -0.03358 0.42980 0.56103
 O686 O -0.06353 0.46291 0.53143
 O687 O 0.03474 0.43494 0.43365
 O688 O 0.06421 0.46698 0.46509
 O689 O 0.00086 0.46814 0.59924
 O690 O 0.00012 0.53188 0.59955
 O691 O 0.00017 0.46799 0.39920
 O692 O -0.00037 0.53178 0.39876
 O693 O 0.03402 0.56643 0.56402
 O694 O 0.06379 0.53556 0.53202
 O695 O -0.03524 0.56847 0.43692
 O696 O -0.06424 0.53467 0.46776
 O697 O 0.03374 0.56638 0.43347
 O698 O 0.06363 0.53561 0.46527
 O699 O 0.03542 0.43460 0.56405
 O700 O 0.06437 0.46704 0.53191
 O701 O 0.00199 0.39501 0.44601
 O702 O 0.00217 0.39520 0.55356
 O703 O 0.00025 0.60481 0.55326
 O704 O 0.00019 0.60492 0.44548
 O705 O -0.02183 0.54886 0.49924
 O706 O -0.02097 0.45023 0.49943
 O707 O 0.02067 0.54940 0.49893
 O708 O -0.02278 0.49951 0.45207
 O709 O -0.06360 0.46271 0.46814
 O710 O -0.03410 0.43000 0.43727
 O711 O 0.02256 0.50039 0.45148
 O712 O 0.02292 0.50047 0.54643
 O713 O 0.02164 0.45143 0.49900
 O714 O -0.02248 0.49948 0.54664
 Zr715 Zr 0.00021 0.45353 0.45322
 Zr716 Zr -0.00034 0.54636 0.54526
 Zr717 Zr -0.04242 0.49914 0.49947
 Zr718 Zr -0.00056 0.54638 0.45294
 Zr719 Zr 0.00064 0.45357 0.54523
 Zr720 Zr 0.04255 0.50088 0.49874
 H721 H 0.03050 0.57280 0.49881
 H722 H -0.03395 0.49923 0.43126
 H723 H 0.03190 0.42843 0.49888
 H724 H -0.03354 0.49928 0.56760
 H725 H -0.00333 0.38401 0.46887
 H726 H 0.00259 0.38396 0.52962
 H727 H -0.00512 0.61578 0.46838
 H728 H -0.00064 0.61596 0.52929
 C729 C 0.25179 0.75084 0.86437
 C730 C 0.24940 0.75030 0.63249
 C731 C 0.19335 0.68921 0.80360
 C732 C 0.19307 0.81196 0.80392
 C733 C 0.19207 0.68937 0.69569
 C734 C 0.30648 0.69223 0.69026
 C735 C 0.30645 0.80882 0.69014
 C736 C 0.30784 0.69238 0.80412
 C737 C 0.19205 0.81203 0.69554
 C738 C 0.30777 0.80896 0.80400
 O739 O 0.21474 0.68142 0.68718
 O740 O 0.18569 0.71477 0.71831
 O741 O 0.21472 0.82000 0.68706
 O742 O 0.18568 0.78658 0.71816
 O743 O 0.28512 0.81708 0.81256
 O744 O 0.31401 0.78509 0.77989
 O745 O 0.24913 0.78232 0.64819
 O746 O 0.24923 0.71855 0.64866
 O747 O 0.25123 0.78285 0.84863
 O748 O 0.25138 0.71907 0.84832
 O749 O 0.28362 0.68429 0.68305
 O750 O 0.31344 0.71621 0.71389
 O751 O 0.21623 0.68129 0.81082
 O752 O 0.18632 0.71484 0.78160
 O753 O 0.28519 0.68429 0.81255
 O754 O 0.31411 0.71633 0.78005
 O755 O 0.28360 0.81681 0.68285
 O756 O 0.31340 0.78497 0.71387
 O757 O 0.25149 0.85587 0.80171
 O758 O 0.25005 0.85542 0.69387
 O759 O 0.25028 0.64564 0.69508
 O760 O 0.25147 0.64602 0.80317
 O761 O 0.22848 0.70135 0.74909
 O762 O 0.22841 0.80007 0.74889
 O763 O 0.27102 0.70163 0.74802
 O764 O 0.22781 0.75075 0.79624
 O765 O 0.18638 0.78654 0.78155
 O766 O 0.21589 0.81996 0.81163
 O767 O 0.27314 0.75085 0.79545
 O768 O 0.27204 0.75059 0.70037
 O769 O 0.27087 0.79969 0.74789
 O770 O 0.22672 0.75059 0.70171
 Zr771 Zr 0.25030 0.79732 0.79454
 Zr772 Zr 0.24933 0.70415 0.70259
 Zr773 Zr 0.20746 0.75069 0.74944
 Zr774 Zr 0.25047 0.70436 0.79451
 Zr775 Zr 0.24929 0.79703 0.70228
 Zr776 Zr 0.29224 0.75067 0.74741
 H777 H 0.28101 0.67837 0.74784
 H778 H 0.21693 0.75066 0.81739
 H779 H 0.28086 0.82293 0.74762
 H780 H 0.21541 0.75060 0.68105
 H781 H 0.24594 0.86672 0.77892
 H782 H 0.25010 0.86670 0.71780
 H783 H 0.25099 0.63460 0.77930
 H784 H 0.24583 0.63468 0.71833
 C785 C 0.49867 0.49950 0.38265
 C786 C 0.49973 0.49930 0.61449
 C787 C 0.55758 0.43963 0.44350
 C788 C 0.55659 0.56153 0.44316
 C789 C 0.55812 0.43993 0.55283
 C790 C 0.44363 0.44026 0.55625
 C791 C 0.44236 0.55691 0.55566
 C792 C 0.44298 0.44002 0.44241
 C793 C 0.55686 0.56184 0.55271
 C794 C 0.44210 0.55674 0.44193
 O795 O 0.53545 0.43144 0.56089
 O796 O 0.56445 0.46516 0.52996
 O797 O 0.53399 0.56940 0.56033
 O798 O 0.56386 0.53676 0.53007
 O799 O 0.46474 0.56524 0.43379
 O800 O 0.43584 0.53268 0.46594
 O801 O 0.49966 0.53131 0.59870
 O802 O 0.50035 0.46754 0.59841
 O803 O 0.49888 0.53152 0.39835
 O804 O 0.49935 0.46774 0.39878
 O805 O 0.46651 0.43272 0.56378
 O806 O 0.43662 0.46398 0.53238
 O807 O 0.53478 0.43116 0.43631
 O808 O 0.56430 0.46509 0.46589
 O809 O 0.46575 0.43229 0.43421
 O810 O 0.43641 0.46391 0.46630
 O811 O 0.46504 0.56545 0.56351
 O812 O 0.43601 0.53270 0.53196
 O813 O 0.49793 0.60454 0.44509
 O814 O 0.49852 0.60441 0.55276
 O815 O 0.50031 0.39456 0.55179
 O816 O 0.50005 0.39469 0.44446
 O817 O 0.52206 0.45071 0.49834
 O818 O 0.52107 0.54939 0.49832
 O819 O 0.47939 0.45010 0.49884
 O820 O 0.52244 0.49999 0.45116
 O821 O 0.56366 0.53665 0.46591
 O822 O 0.53368 0.56897 0.43561
 O823 O 0.47711 0.49911 0.45125
 O824 O 0.47753 0.49906 0.54631
 O825 O 0.47853 0.54817 0.49867
 O826 O 0.52285 0.50010 0.54547
 Zr827 Zr 0.49948 0.54601 0.45243
 Zr828 Zr 0.50076 0.45314 0.54451
 Zr829 Zr 0.54267 0.50052 0.49812
 Zr830 Zr 0.50023 0.45311 0.45265
 Zr831 Zr 0.49976 0.54602 0.54459
 Zr832 Zr 0.45770 0.49872 0.49897
 H833 H 0.46961 0.42666 0.49901
 H834 H 0.53335 0.50014 0.43004
 H835 H 0.46833 0.57121 0.49868
 H836 H 0.53393 0.50035 0.56638
 H837 H 0.50344 0.61549 0.46784
 H838 H 0.49817 0.61562 0.52878
 H839 H 0.49951 0.38345 0.46842
 H840 H 0.50610 0.38386 0.52906
 C841 C 0.75174 0.75064 0.86435
 C842 C 0.74920 0.75022 0.63252
 C843 C 0.69327 0.68927 0.80417
 C844 C 0.69283 0.81107 0.80471
 C845 C 0.69182 0.68971 0.69507
 C846 C 0.80626 0.69277 0.68969
 C847 C 0.80620 0.80841 0.68961
 C848 C 0.80770 0.69289 0.80442
 C849 C 0.69181 0.81144 0.69538
 C850 C 0.80753 0.80842 0.80440
 O851 O 0.71450 0.68168 0.68663
 O852 O 0.68547 0.71473 0.71810
 O853 O 0.71445 0.81963 0.68700
 O854 O 0.68547 0.78617 0.71820
 O855 O 0.78488 0.81662 0.81290
 O856 O 0.81377 0.78491 0.77999
 O857 O 0.74888 0.78225 0.64825
 O858 O 0.74905 0.71845 0.64866
 O859 O 0.75113 0.78267 0.84863
 O860 O 0.75133 0.71888 0.84827
 O861 O 0.78340 0.68464 0.68258
 O862 O 0.81320 0.71642 0.71360
 O863 O 0.71616 0.68130 0.81124
 O864 O 0.68620 0.71458 0.78186
 O865 O 0.78507 0.68453 0.81269
 O866 O 0.81394 0.71660 0.78013
 O867 O 0.78335 0.81650 0.68249
 O868 O 0.81318 0.78486 0.71361
 O869 O 0.75123 0.85581 0.80121
 O870 O 0.74973 0.85540 0.69418
 O871 O 0.75018 0.64542 0.69560
 O872 O 0.75136 0.64577 0.80277
 O873 O 0.72826 0.70108 0.74909
 O874 O 0.72813 0.79990 0.74896
 O875 O 0.77090 0.70152 0.74794
 O876 O 0.72769 0.75051 0.79621
 O877 O 0.68616 0.78600 0.78195
 O878 O 0.71566 0.81926 0.81226
 O879 O 0.77292 0.75074 0.79531
 O880 O 0.77176 0.75053 0.70041
 O881 O 0.77069 0.79967 0.74790
 O882 O 0.72655 0.75047 0.70184
 Zr883 Zr 0.75008 0.79718 0.79455
 Zr884 Zr 0.74913 0.70401 0.70258
 Zr885 Zr 0.70725 0.75043 0.74953
 Zr886 Zr 0.75034 0.70416 0.79443
 Zr887 Zr 0.74906 0.79697 0.70235
 Zr888 Zr 0.79204 0.75066 0.74733
 H889 H 0.78098 0.67835 0.74770
 H890 H 0.71688 0.75035 0.81743
 H891 H 0.78073 0.82287 0.74764
 H892 H 0.71529 0.75050 0.68113
 H893 H 0.74447 0.86641 0.77898
 H894 H 0.75082 0.86655 0.71812
 H895 H 0.75195 0.63452 0.77883
 H896 H 0.74436 0.63468 0.71832
 C897 C 0.00094 -0.00334 0.22780
 C898 C -0.00012 0.03137 0.20970
 C899 C -0.00031 0.03230 0.17239
 C900 C 0.00047 -0.00104 0.15260
 C901 C 0.00155 -0.03533 0.17076
 C902 C 0.00179 -0.03655 0.20770
 C903 C 0.00102 -0.00321 0.26759
 C904 C 0.00204 -0.03627 0.28793
 C905 C 0.00188 -0.03481 0.32485
 C906 C 0.00072 -0.00041 0.34278
 C907 C -0.00016 0.03279 0.32275
 C908 C -0.00003 0.03162 0.28544
 C909 C -0.00105 0.06490 0.22893
 C910 C -0.00102 0.06502 0.26595
 H911 H -0.00186 0.09151 0.21515
 H912 H -0.00181 0.09173 0.27954
 H913 H -0.00115 0.05904 0.15881
 H914 H 0.00225 -0.06157 0.15640
 H915 H 0.00266 -0.06096 0.33939
 H916 H -0.00104 0.05961 0.33614
 H917 H 0.00261 -0.06384 0.21986
 H918 H 0.00294 -0.06363 0.27597
 C919 C 0.25211 0.24599 1.02009
 C920 C 0.25219 0.28076 1.03803
 C921 C 0.25198 0.28186 1.07536
 C922 C 0.25158 0.24854 1.09560
 C923 C 0.25161 0.21413 1.07723
 C924 C 0.25188 0.21287 1.04030
 C925 C 0.25214 0.24595 0.98028
 C926 C 0.25205 0.21278 0.96010
 C927 C 0.25183 0.21410 0.92316
 C928 C 0.25170 0.24847 0.90507
 C929 C 0.25196 0.28178 0.92494
 C930 C 0.25217 0.28074 0.96225
 C931 C 0.25238 0.31425 1.01860
 C932 C 0.25235 0.31424 0.98158
 H933 H 0.25247 0.34095 1.03224
 H934 H 0.25241 0.34092 0.96786
 H935 H 0.25202 0.30889 1.08845
 H936 H 0.25138 0.18763 1.09126
 H937 H 0.25170 0.18787 0.90876
 H938 H 0.25191 0.30859 0.91142
 H939 H 0.25182 0.18553 1.02825
 H940 H 0.25210 0.18543 0.97218
 C941 C 0.11338 0.11317 0.11771
 C942 C 0.12035 0.08921 0.08951
 C943 C 0.10208 0.07100 0.06928
 C944 C 0.07676 0.07643 0.07656
 C945 C 0.07000 0.10025 0.10454
 C946 C 0.08796 0.11833 0.12482
 C947 C 0.13340 0.13228 0.13854
 C948 C 0.12834 0.15648 0.16714
 C949 C 0.14754 0.17438 0.18513
 C950 C 0.17237 0.16867 0.17529
 C951 C 0.17765 0.14401 0.14726
 C952 C 0.15842 0.12590 0.12887
 C953 C 0.14548 0.08374 0.08156
 C954 C 0.16409 0.10175 0.10074
 H955 H 0.15086 0.06539 0.06000
 H956 H 0.18324 0.09677 0.09335
 H957 H 0.10764 0.05269 0.04777
 H958 H 0.05067 0.10497 0.11101
 H959 H 0.14282 0.19298 0.20678
 H960 H 0.19673 0.13927 0.13932
 H961 H 0.08145 0.13626 0.14583
 H962 H 0.10972 0.16221 0.17601
 C963 C 0.36727 0.36258 0.13558
 C964 C 0.34229 0.36847 0.12545
 C965 C 0.32304 0.35039 0.14384
 C966 C 0.32825 0.32627 0.17236
 C967 C 0.35305 0.32051 0.18224
 C968 C 0.37228 0.33836 0.16421
 C969 C 0.38728 0.38239 0.11533
 C970 C 0.41263 0.37836 0.12342
 C971 C 0.43059 0.39733 0.10388
 C972 C 0.42390 0.42093 0.07567
 C973 C 0.39866 0.42521 0.06737
 C974 C 0.38038 0.40615 0.08691
 C975 C 0.33668 0.39231 0.09704
 C976 C 0.35530 0.41074 0.07819
 H977 H 0.31756 0.39681 0.08924
 H978 H 0.34998 0.42890 0.05643
 H979 H 0.30399 0.35503 0.13577
 H980 H 0.35772 0.30214 0.20411
 H981 H 0.44987 0.39350 0.11112
 H982 H 0.39318 0.44333 0.04565
 H983 H 0.39087 0.33269 0.17321
 H984 H 0.41908 0.36077 0.14473
 C985 C 0.36336 0.13217 0.13111
 C986 C 0.37021 0.15618 0.15933
 C987 C 0.35186 0.17506 0.17898
 C988 C 0.32657 0.17037 0.17103
 C989 C 0.31994 0.14644 0.14307
 C990 C 0.33798 0.12765 0.12341
 C991 C 0.38347 0.11261 0.11070
 C992 C 0.37855 0.08828 0.08217
 C993 C 0.39784 0.07060 0.06407
 C994 C 0.42267 0.07660 0.07375
 C995 C 0.42780 0.10094 0.10211
 C996 C 0.40846 0.11887 0.12057
 C997 C 0.39531 0.16118 0.16774
 C998 C 0.41399 0.14293 0.14881
 H999 H 0.40060 0.17951 0.18933
 H1000 H 0.43311 0.14776 0.15643
 H1001 H 0.35733 0.19340 0.20049
 H1002 H 0.30066 0.14223 0.13609
 H1003 H 0.39319 0.05208 0.04234
 H1004 H 0.44685 0.10584 0.11003
 H1005 H 0.33156 0.10979 0.10231
 H1006 H 0.35995 0.08240 0.07332
 C1007 C 0.13725 0.37199 0.13489
 C1008 C 0.13043 0.34624 0.16173
 C1009 C 0.14881 0.32735 0.18119
 C1010 C 0.17410 0.33364 0.17434
 C1011 C 0.18074 0.35976 0.14817
 C1012 C 0.16265 0.37868 0.12876
 C1013 C 0.11711 0.39080 0.11403
 C1014 C 0.12204 0.41614 0.08628
 C1015 C 0.10272 0.43278 0.06747
 C1016 C 0.07787 0.42472 0.07566
 C1017 C 0.07273 0.39944 0.10327
 C1018 C 0.09210 0.38244 0.12238
 C1019 C 0.10532 0.33928 0.16878
 C1020 C 0.08659 0.35706 0.14961
 H1021 H 0.10006 0.31966 0.18941
 H1022 H 0.06746 0.35064 0.15608
 H1023 H 0.14333 0.30740 0.20143
 H1024 H 0.20005 0.36538 0.14226
 H1025 H 0.10739 0.45214 0.04637
 H1026 H 0.05366 0.39294 0.10999
 H1027 H 0.16905 0.39821 0.10896
 H1028 H 0.14065 0.42353 0.07852
 C1029 C 0.36287 0.13253 0.36540
 C1030 C 0.36961 0.15677 0.33729
 C1031 C 0.35120 0.17551 0.31780
 C1032 C 0.32595 0.17045 0.32581
 C1033 C 0.31938 0.14629 0.35364
 C1034 C 0.33751 0.12761 0.37316
 C1035 C 0.38305 0.11316 0.38565
 C1036 C 0.37821 0.08868 0.41411
 C1037 C 0.39756 0.07117 0.43209
 C1038 C 0.42235 0.07751 0.42235
 C1039 C 0.42742 0.10199 0.39408
 C1040 C 0.40801 0.11978 0.37574
 C1041 C 0.39467 0.16217 0.32880
 C1042 C 0.41345 0.14405 0.34758
 H1043 H 0.39985 0.18071 0.30726
 H1044 H 0.43254 0.14914 0.33994
 H1045 H 0.35660 0.19404 0.29636
 H1046 H 0.30011 0.14183 0.36058
 H1047 H 0.39297 0.05254 0.45381
 H1048 H 0.44646 0.10713 0.38618
 H1049 H 0.33116 0.10952 0.39417
 H1050 H 0.35965 0.08254 0.42301
 C1051 C 0.13384 0.36960 0.35688
 C1052 C 0.15882 0.37496 0.36721
 C1053 C 0.17806 0.35684 0.34870
 C1054 C 0.17281 0.33316 0.31989
 C1055 C 0.14802 0.32861 0.30934
 C1056 C 0.12884 0.34654 0.32744
 C1057 C 0.11380 0.38849 0.37795
 C1058 C 0.08840 0.38402 0.37035
 C1059 C 0.07040 0.40175 0.39091
 C1060 C 0.07707 0.42455 0.41968
 C1061 C 0.10238 0.42932 0.42745
 C1062 C 0.12070 0.41137 0.40696
 C1063 C 0.16444 0.39808 0.39612
 C1064 C 0.14581 0.41598 0.41547
 H1065 H 0.18356 0.40232 0.40401
 H1066 H 0.15116 0.43350 0.43764
 H1067 H 0.19709 0.36072 0.35719
 H1068 H 0.14332 0.31084 0.28708
 H1069 H 0.05110 0.39758 0.38399
 H1070 H 0.10787 0.44680 0.44958
 H1071 H 0.11026 0.34169 0.31799
 H1072 H 0.08193 0.36688 0.34875
 C1073 C 0.13278 0.13293 0.35696
 C1074 C 0.15779 0.12639 0.36652
 C1075 C 0.17704 0.14421 0.34789
 C1076 C 0.17181 0.16876 0.31971
 C1077 C 0.14700 0.17458 0.30991
 C1078 C 0.12777 0.15694 0.32815
 C1079 C 0.11276 0.11419 0.37811
 C1080 C 0.08735 0.11966 0.37121
 C1081 C 0.06937 0.10183 0.39171
 C1082 C 0.07610 0.07798 0.41973
 C1083 C 0.10141 0.07236 0.42688
 C1084 C 0.11969 0.09031 0.40642
 C1085 C 0.16345 0.10237 0.39478
 C1086 C 0.14482 0.08463 0.41422
 H1087 H 0.18260 0.09726 0.40207
 H1088 H 0.15017 0.06635 0.43586
 H1089 H 0.19611 0.13938 0.35580
 H1090 H 0.14233 0.19310 0.28815
 H1091 H 0.05005 0.10673 0.38534
 H1092 H 0.10693 0.05404 0.44841
 H1093 H 0.10915 0.16273 0.31931
 H1094 H 0.08086 0.13760 0.35018
 C1095 C 0.36370 0.36410 0.36640
 C1096 C 0.37054 0.34027 0.33804
 C1097 C 0.35218 0.32154 0.31834
 C1098 C 0.32690 0.32630 0.32638
 C1099 C 0.32029 0.34994 0.35458
 C1100 C 0.33833 0.36853 0.37428
 C1101 C 0.38377 0.38369 0.38671
 C1102 C 0.37879 0.40789 0.41531
 C1103 C 0.39802 0.42578 0.43322
 C1104 C 0.42285 0.42014 0.42329
 C1105 C 0.42806 0.39586 0.39492
 C1106 C 0.40876 0.37769 0.37663
 C1107 C 0.39563 0.33539 0.32947
 C1108 C 0.41431 0.35371 0.34831
 H1109 H 0.40093 0.31717 0.30778
 H1110 H 0.43343 0.34905 0.34054
 H1111 H 0.35762 0.30339 0.29665
 H1112 H 0.30101 0.35415 0.36166
 H1113 H 0.39330 0.44420 0.45501
 H1114 H 0.44712 0.39122 0.38685
 H1115 H 0.33190 0.38622 0.39552
 H1116 H 0.36020 0.41355 0.42437
 C1117 C 0.49734 -0.00409 0.22876
 C1118 C 0.49866 0.03056 0.21061
 C1119 C 0.49895 0.03135 0.17338
 C1120 C 0.49801 -0.00205 0.15377
 C1121 C 0.49646 -0.03627 0.17194
 C1122 C 0.49611 -0.03736 0.20882
 C1123 C 0.49748 -0.00387 0.26845
 C1124 C 0.49648 -0.03691 0.28878
 C1125 C 0.49699 -0.03542 0.32563
 C1126 C 0.49848 -0.00099 0.34341
 C1127 C 0.49930 0.03220 0.32342
 C1128 C 0.49885 0.03099 0.28619
 C1129 C 0.49983 0.06414 0.22971
 C1130 C 0.49991 0.06436 0.26669
 H1131 H 0.50079 0.09070 0.21584
 H1132 H 0.50092 0.09107 0.28023
 H1133 H 0.50010 0.05803 0.15973
 H1134 H 0.49557 -0.06253 0.15764
 H1135 H 0.49622 -0.06154 0.34021
 H1136 H 0.50042 0.05902 0.33677
 H1137 H 0.49496 -0.06459 0.22101
 H1138 H 0.49538 -0.06429 0.27692
 C1139 C 0.75356 0.24619 1.01891
 C1140 C 0.75195 0.28090 1.03686
 C1141 C 0.75167 0.28185 1.07409
 C1142 C 0.75285 0.24856 1.09388
 C1143 C 0.75465 0.21428 1.07591
 C1144 C 0.75502 0.21304 1.03904
 C1145 C 0.75343 0.24622 0.97922
 C1146 C 0.75475 0.21311 0.95908
 C1147 C 0.75417 0.21442 0.92222
 C1148 C 0.75229 0.24872 0.90425
 C1149 C 0.75120 0.28199 0.92405
 C1150 C 0.75171 0.28096 0.96128
 C1151 C 0.75049 0.31437 1.01757
 C1152 C 0.75037 0.31440 0.98058
 H1153 H 0.74930 0.34097 1.03127
 H1154 H 0.74910 0.34103 0.96689
 H1155 H 0.75031 0.30856 1.08760
 H1156 H 0.75575 0.18810 1.09035
 H1157 H 0.75518 0.18825 0.90778
 H1158 H 0.74978 0.30872 0.91055
 H1159 H 0.75637 0.18576 1.02701
 H1160 H 0.75616 0.18581 0.97110
 C1161 C 0.61372 0.11699 0.11499
 C1162 C 0.62066 0.09122 0.08826
 C1163 C 0.60236 0.07298 0.06808
 C1164 C 0.57704 0.08011 0.07397
 C1165 C 0.57033 0.10625 0.10006
 C1166 C 0.58832 0.12443 0.12024
 C1167 C 0.63375 0.13533 0.13642
 C1168 C 0.62870 0.16053 0.16422
 C1169 C 0.64794 0.17739 0.18302
 C1170 C 0.67283 0.16968 0.17478
 C1171 C 0.67808 0.14403 0.14753
 C1172 C 0.65879 0.12684 0.12843
 C1173 C 0.64579 0.08375 0.08189
 C1174 C 0.66443 0.10132 0.10139
 H1175 H 0.65115 0.06409 0.06139
 H1176 H 0.68359 0.09471 0.09527
 H1177 H 0.60791 0.05299 0.04795
 H1178 H 0.55101 0.11250 0.10530
 H1179 H 0.64320 0.19685 0.20397
 H1180 H 0.69718 0.13767 0.14086
 H1181 H 0.58185 0.14410 0.13984
 H1182 H 0.61005 0.16775 0.17192
 C1183 C -0.13243 0.35854 0.13240
 C1184 C -0.15751 0.36757 0.12528
 C1185 C -0.17661 0.35049 0.14483
 C1186 C -0.17119 0.32450 0.17177
 C1187 C -0.14629 0.31580 0.17881
 C1188 C -0.12719 0.33251 0.15949
 C1189 C -0.11258 0.37747 0.11102
 C1190 C -0.08715 0.37006 0.11583
 C1191 C -0.06932 0.38914 0.09608
 C1192 C -0.07621 0.41616 0.07085
 C1193 C -0.10157 0.42313 0.06523
 C1194 C -0.11971 0.40405 0.08506
 C1195 C -0.16336 0.39369 0.09882
 C1196 C -0.14488 0.41163 0.07925
 H1197 H -0.18256 0.40059 0.09331
 H1198 H -0.15040 0.43185 0.05930
 H1199 H -0.19574 0.35754 0.13899
 H1200 H -0.14144 0.29587 0.19933
 H1201 H -0.04997 0.38290 0.10103
 H1202 H -0.10723 0.44378 0.04575
 H1203 H -0.10850 0.32464 0.16634
 H1204 H -0.08054 0.34985 0.13484
 C1205 C 0.88373 0.11699 0.10686
 C1206 C 0.90874 0.12282 0.11680
 C1207 C 0.92798 0.10519 0.09792
 C1208 C 0.92275 0.08152 0.06910
 C1209 C 0.89792 0.07643 0.05896
 C1210 C 0.87871 0.09389 0.07744
 C1211 C 0.86370 0.13552 0.12827
 C1212 C 0.83828 0.13071 0.12105
 C1213 C 0.82031 0.14835 0.14177
 C1214 C 0.82706 0.17137 0.17036
 C1215 C 0.85239 0.17632 0.17785
 C1216 C 0.87066 0.15852 0.15717
 C1217 C 0.91440 0.14595 0.14568
 C1218 C 0.89580 0.16350 0.16534
 H1219 H 0.93355 0.15052 0.15328
 H1220 H 0.90118 0.18109 0.18744
 H1221 H 0.94704 0.10945 0.10613
 H1222 H 0.89322 0.05860 0.03674
 H1223 H 0.80099 0.14400 0.13509
 H1224 H 0.85795 0.19398 0.19982
 H1225 H 0.86009 0.08867 0.06831
 H1226 H 0.83177 0.11343 0.09957
 C1227 C 0.63770 0.36823 0.13265
 C1228 C 0.63091 0.34376 0.16056
 C1229 C 0.64932 0.32577 0.18078
 C1230 C 0.67463 0.33186 0.17377
 C1231 C 0.68122 0.35678 0.14653
 C1232 C 0.66310 0.37471 0.12629
 C1233 C 0.61751 0.38626 0.11120
 C1234 C 0.62238 0.41016 0.08229
 C1235 C 0.60301 0.42681 0.06352
 C1236 C 0.57817 0.42015 0.07286
 C1237 C 0.57310 0.39574 0.10121
 C1238 C 0.59251 0.37880 0.12033
 C1239 C 0.60581 0.33730 0.16806
 C1240 C 0.58704 0.35458 0.14852
 H1241 H 0.60057 0.31864 0.18948
 H1242 H 0.56792 0.34877 0.15553
 H1243 H 0.64387 0.30676 0.20182
 H1244 H 0.70053 0.36218 0.14041
 H1245 H 0.60763 0.44526 0.04168
 H1246 H 0.55403 0.39024 0.10877
 H1247 H 0.66947 0.39339 0.10575
 H1248 H 0.64098 0.41652 0.07371
 C1249 C -0.13775 0.13566 0.36729
 C1250 C -0.13099 0.16066 0.33983
 C1251 C -0.14938 0.17874 0.31965
 C1252 C -0.17486 0.17221 0.32604
 C1253 C -0.18128 0.14686 0.35326
 C1254 C -0.16312 0.12899 0.37347
 C1255 C -0.11755 0.11706 0.38831
 C1256 C -0.12240 0.09236 0.41663
 C1257 C -0.10304 0.07500 0.43481
 C1258 C -0.07820 0.08170 0.42545
 C1259 C -0.07314 0.10694 0.39776
 C1260 C -0.09256 0.12461 0.37924
 C1261 C -0.10587 0.16735 0.33251
 C1262 C -0.08710 0.14958 0.35164
 H1263 H -0.10063 0.18646 0.31146
 H1264 H -0.06798 0.15551 0.34470
 H1265 H -0.14363 0.19792 0.29888
 H1266 H -0.20049 0.14068 0.35938
 H1267 H -0.10764 0.05596 0.45619
 H1268 H -0.05408 0.11255 0.39023
 H1269 H -0.16946 0.10998 0.39376
 H1270 H -0.14100 0.08588 0.42517
 C1271 C 0.63414 0.36562 0.36018
 C1272 C 0.65916 0.37315 0.36898
 C1273 C 0.67849 0.35602 0.34982
 C1274 C 0.67328 0.33144 0.32168
 C1275 C 0.64841 0.32495 0.31251
 C1276 C 0.62914 0.34174 0.33136
 C1277 C 0.61404 0.38352 0.38189
 C1278 C 0.58866 0.37647 0.37614
 C1279 C 0.57060 0.39417 0.39660
 C1280 C 0.57720 0.41945 0.42348
 C1281 C 0.60251 0.42614 0.42992
 C1282 C 0.62089 0.40828 0.40949
 C1283 C 0.66473 0.39762 0.39691
 C1284 C 0.64602 0.41502 0.41652
 H1285 H 0.68387 0.40354 0.40363
 H1286 H 0.65133 0.43387 0.43770
 H1287 H 0.69758 0.36148 0.35719
 H1288 H 0.64369 0.30643 0.29081
 H1289 H 0.55131 0.38824 0.39092
 H1290 H 0.60796 0.44541 0.45070
 H1291 H 0.61051 0.33548 0.32289
 H1292 H 0.58226 0.35744 0.35596
 C1293 C 0.63331 0.13575 0.36055
 C1294 C 0.65833 0.12704 0.36839
 C1295 C 0.67760 0.14385 0.34896
 C1296 C 0.67237 0.16931 0.32152
 C1297 C 0.64751 0.17709 0.31328
 C1298 C 0.62826 0.16058 0.33241
 C1299 C 0.61330 0.11800 0.38247
 C1300 C 0.58795 0.12595 0.37756
 C1301 C 0.56996 0.10819 0.39808
 C1302 C 0.57662 0.08199 0.42418
 C1303 C 0.60191 0.07450 0.42987
 C1304 C 0.62021 0.09233 0.40934
 C1305 C 0.66396 0.10172 0.39563
 C1306 C 0.64532 0.08455 0.41550
 H1307 H 0.68311 0.09495 0.40162
 H1308 H 0.65065 0.06499 0.43612
 H1309 H 0.69670 0.13742 0.35561
 H1310 H 0.64280 0.19637 0.29214
 H1311 H 0.55066 0.11477 0.39305
 H1312 H 0.60740 0.05448 0.45002
 H1313 H 0.60962 0.16781 0.32471
 H1314 H 0.58153 0.14569 0.35798
 C1315 C -0.13584 0.36064 0.36995
 C1316 C -0.12894 0.33764 0.34101
 C1317 C -0.14725 0.31968 0.32062
 C1318 C -0.17255 0.32456 0.32842
 C1319 C -0.17923 0.34747 0.35712
 C1320 C -0.16123 0.36521 0.37758
 C1321 C -0.11581 0.37958 0.39089
 C1322 C -0.12082 0.40272 0.42027
 C1323 C -0.10165 0.42076 0.43820
 C1324 C -0.07688 0.41624 0.42753
 C1325 C -0.07160 0.39244 0.39882
 C1326 C -0.09082 0.37420 0.38048
 C1327 C -0.10383 0.33296 0.33245
 C1328 C -0.08520 0.35094 0.35166
 H1329 H -0.09849 0.31534 0.31033
 H1330 H -0.06608 0.34667 0.34372
 H1331 H -0.14176 0.30210 0.29854
 H1332 H -0.19853 0.35172 0.36404
 H1333 H -0.10636 0.43860 0.46042
 H1334 H -0.05257 0.38857 0.39028
 H1335 H -0.16770 0.38245 0.39913
 H1336 H -0.13939 0.40756 0.42981
 C1337 C 0.00082 0.49681 0.22869
 C1338 C -0.00066 0.53158 0.21075
 C1339 C -0.00084 0.53270 0.17345
 C1340 C 0.00039 0.49950 0.15353
 C1341 C 0.00192 0.46514 0.17153
 C1342 C 0.00214 0.46374 0.20846
 C1343 C 0.00084 0.49672 0.26848
 C1344 C 0.00218 0.46357 0.28866
 C1345 C 0.00200 0.46483 0.32559
 C1346 C 0.00048 0.49912 0.34365
 C1347 C -0.00076 0.53240 0.32377
 C1348 C -0.00061 0.53142 0.28648
 C1349 C -0.00200 0.56498 0.23014
 C1350 C -0.00198 0.56490 0.26715
 H1351 H -0.00313 0.59164 0.21648
 H1352 H -0.00309 0.59151 0.28087
 H1353 H -0.00202 0.55948 0.15999
 H1354 H 0.00297 0.43900 0.15707
 H1355 H 0.00305 0.43864 0.34003
 H1356 H -0.00192 0.55913 0.33727
 H1357 H 0.00334 0.43642 0.22048
 H1358 H 0.00336 0.43630 0.27658
 C1359 C 0.25287 0.74763 1.01821
 C1360 C 0.25073 0.78229 1.03613
 C1361 C 0.25022 0.78325 1.07335
 C1362 C 0.25170 0.74999 1.09315
 C1363 C 0.25389 0.71575 1.07521
 C1364 C 0.25449 0.71451 1.03835
 C1365 C 0.25312 0.74768 0.97853
 C1366 C 0.25516 0.71463 0.95840
 C1367 C 0.25487 0.71594 0.92154
 C1368 C 0.25259 0.75019 0.90357
 C1369 C 0.25086 0.78340 0.92334
 C1370 C 0.25107 0.78237 0.96057
 C1371 C 0.24897 0.81572 1.01682
 C1372 C 0.24911 0.81576 0.97985
 H1373 H 0.24734 0.84228 1.03051
 H1374 H 0.24759 0.84234 0.96613
 H1375 H 0.24851 0.80992 1.08684
 H1376 H 0.25518 0.68960 1.08967
 H1377 H 0.25640 0.68984 0.90710
 H1378 H 0.24913 0.81008 0.90983
 H1379 H 0.25615 0.68727 1.02634
 H1380 H 0.25691 0.68739 0.97044
 C1381 C 0.11294 0.61482 0.11803
 C1382 C 0.11978 0.59101 0.08966
 C1383 C 0.10143 0.57289 0.06948
 C1384 C 0.07611 0.57824 0.07696
 C1385 C 0.06947 0.60199 0.10505
 C1386 C 0.08752 0.62000 0.12529
 C1387 C 0.13307 0.63372 0.13888
 C1388 C 0.12817 0.65767 0.16772
 C1389 C 0.14747 0.67534 0.18575
 C1390 C 0.17228 0.66966 0.17572
 C1391 C 0.17740 0.64523 0.14744
 C1392 C 0.15806 0.62735 0.12902
 C1393 C 0.14489 0.58556 0.08151
 C1394 C 0.16359 0.60340 0.10068
 H1395 H 0.15018 0.56734 0.05981
 H1396 H 0.18271 0.59841 0.09312
 H1397 H 0.10692 0.55465 0.04789
 H1398 H 0.05016 0.60668 0.11166
 H1399 H 0.14284 0.69375 0.20759
 H1400 H 0.19645 0.64049 0.13933
 H1401 H 0.08111 0.63786 0.14641
 H1402 H 0.10957 0.66337 0.17676
 C1403 C 0.38448 0.88674 0.11010
 C1404 C 0.40949 0.87873 0.11855
 C1405 C 0.42891 0.89658 0.10002
 C1406 C 0.42397 0.92280 0.07278
 C1407 C 0.39889 0.93041 0.06471
 C1408 C 0.37959 0.91277 0.08294
 C1409 C 0.36431 0.86713 0.13054
 C1410 C 0.33888 0.87318 0.12410
 C1411 C 0.32081 0.85434 0.14374
 C1412 C 0.32739 0.82880 0.17051
 C1413 C 0.35274 0.82253 0.17715
 C1414 C 0.37114 0.84144 0.15745
 C1415 C 0.41500 0.85297 0.14551
 C1416 C 0.39628 0.83477 0.16450
 H1417 H 0.43413 0.84676 0.15209
 H1418 H 0.40160 0.81513 0.18507
 H1419 H 0.44790 0.88993 0.10713
 H1420 H 0.39389 0.95022 0.04413
 H1421 H 0.30150 0.85986 0.13775
 H1422 H 0.35823 0.80291 0.19765
 H1423 H 0.36095 0.92007 0.07526
 H1424 H 0.33246 0.89233 0.10399
 C1425 C 0.36305 0.63331 0.13095
 C1426 C 0.36998 0.65757 0.15891
 C1427 C 0.35171 0.67665 0.17845
 C1428 C 0.32643 0.67190 0.17061
 C1429 C 0.31970 0.64782 0.14283
 C1430 C 0.33766 0.62882 0.12329
 C1431 C 0.38306 0.61345 0.11072
 C1432 C 0.37802 0.58875 0.08252
 C1433 C 0.39725 0.57085 0.06453
 C1434 C 0.42208 0.57702 0.07402
 C1435 C 0.42731 0.60164 0.10209
 C1436 C 0.40806 0.61980 0.12043
 C1437 C 0.39509 0.66263 0.16720
 C1438 C 0.41371 0.64416 0.14838
 H1439 H 0.40044 0.68118 0.18860
 H1440 H 0.43285 0.64902 0.15586
 H1441 H 0.35724 0.69515 0.19981
 H1442 H 0.30040 0.64362 0.13595
 H1443 H 0.39255 0.55208 0.04301
 H1444 H 0.44639 0.60665 0.10984
 H1445 H 0.33117 0.61083 0.10234
 H1446 H 0.35941 0.58273 0.07384
 C1447 C 0.11364 0.88770 0.11852
 C1448 C 0.12035 0.90997 0.08896
 C1449 C 0.10191 0.92749 0.06851
 C1450 C 0.07668 0.92293 0.07685
 C1451 C 0.07014 0.90064 0.10605
 C1452 C 0.08829 0.88329 0.12660
 C1453 C 0.13384 0.86938 0.13960
 C1454 C 0.12906 0.84711 0.16968
 C1455 C 0.14836 0.82954 0.18771
 C1456 C 0.17303 0.83371 0.17646
 C1457 C 0.17810 0.85672 0.14711
 C1458 C 0.15874 0.87447 0.12864
 C1459 C 0.14538 0.91441 0.07984
 C1460 C 0.16415 0.89691 0.09915
 H1461 H 0.15053 0.93146 0.05721
 H1462 H 0.18320 0.90094 0.09079
 H1463 H 0.10728 0.94456 0.04599
 H1464 H 0.05088 0.89667 0.11330
 H1465 H 0.14384 0.81232 0.21048
 H1466 H 0.19706 0.86027 0.13812
 H1467 H 0.08198 0.86650 0.14858
 H1468 H 0.11056 0.84261 0.17968
 C1469 C 0.36296 0.63254 0.36527
 C1470 C 0.36999 0.65711 0.33753
 C1471 C 0.35178 0.67636 0.31797
 C1472 C 0.32646 0.67150 0.32558
 C1473 C 0.31964 0.64709 0.35314
 C1474 C 0.33754 0.62792 0.37268
 C1475 C 0.38291 0.61255 0.38556
 C1476 C 0.37780 0.58756 0.41357
 C1477 C 0.39699 0.56964 0.43168
 C1478 C 0.42186 0.57606 0.42250
 C1479 C 0.42716 0.60093 0.39457
 C1480 C 0.40795 0.61911 0.37612
 C1481 C 0.39513 0.66232 0.32949
 C1482 C 0.41369 0.64374 0.34836
 H1483 H 0.40057 0.68109 0.30826
 H1484 H 0.43286 0.64877 0.34107
 H1485 H 0.35738 0.69510 0.29680
 H1486 H 0.30032 0.64275 0.35985
 H1487 H 0.39223 0.55067 0.45306
 H1488 H 0.44626 0.60615 0.38702
 H1489 H 0.33098 0.60969 0.39345
 H1490 H 0.35914 0.58136 0.42202
 C1491 C 0.13383 -0.13046 0.35756
 C1492 C 0.15877 -0.12521 0.36819
 C1493 C 0.17808 -0.14320 0.34974
 C1494 C 0.17294 -0.16662 0.32071
 C1495 C 0.14821 -0.17106 0.30989
 C1496 C 0.12895 -0.15328 0.32792
 C1497 C 0.11370 -0.11170 0.37852
 C1498 C 0.08834 -0.11607 0.37061
 C1499 C 0.07025 -0.09836 0.39099
 C1500 C 0.07679 -0.07569 0.41991
 C1501 C 0.10205 -0.07109 0.42805
 C1502 C 0.12046 -0.08900 0.40772
 C1503 C 0.16425 -0.10232 0.39732
 C1504 C 0.14553 -0.08451 0.41656
 H1505 H 0.18333 -0.09818 0.40545
 H1506 H 0.15077 -0.06715 0.43889
 H1507 H 0.19708 -0.13942 0.35843
 H1508 H 0.14360 -0.18863 0.28745
 H1509 H 0.05098 -0.10241 0.38383
 H1510 H 0.10744 -0.05371 0.45030
 H1511 H 0.11042 -0.15802 0.31823
 H1512 H 0.08197 -0.13309 0.34887
 C1513 C 0.13308 0.63340 0.35763
 C1514 C 0.15807 0.62707 0.36751
 C1515 C 0.17742 0.64487 0.34896
 C1516 C 0.17230 0.66918 0.32056
 C1517 C 0.14751 0.67478 0.31049
 C1518 C 0.12819 0.65718 0.32863
 C1519 C 0.11294 0.61464 0.37865
 C1520 C 0.08753 0.61983 0.37144
 C1521 C 0.06946 0.60194 0.39182
 C1522 C 0.07610 0.57830 0.42003
 C1523 C 0.10142 0.57297 0.42748
 C1524 C 0.11978 0.59098 0.40716
 C1525 C 0.16359 0.60327 0.39599
 C1526 C 0.14488 0.58553 0.41530
 H1527 H 0.18271 0.59831 0.40355
 H1528 H 0.15016 0.56742 0.43710
 H1529 H 0.19646 0.64021 0.35710
 H1530 H 0.14289 0.69310 0.28855
 H1531 H 0.05015 0.60660 0.38523
 H1532 H 0.10691 0.55483 0.44917
 H1533 H 0.10961 0.66281 0.31956
 H1534 H 0.08112 0.63761 0.35023
 C1535 C 0.36378 -0.13382 0.36543
 C1536 C 0.37064 -0.15782 0.33722
 C1537 C 0.35230 -0.17669 0.31767
 C1538 C 0.32704 -0.17193 0.32575
 C1539 C 0.32041 -0.14811 0.35379
 C1540 C 0.33842 -0.12936 0.37334
 C1541 C 0.38383 -0.11414 0.38564
 C1542 C 0.37881 -0.08973 0.41407
 C1543 C 0.39802 -0.07190 0.43201
 C1544 C 0.42285 -0.07782 0.42226
 C1545 C 0.42809 -0.10220 0.39400
 C1546 C 0.40882 -0.12031 0.37568
 C1547 C 0.39573 -0.16279 0.32870
 C1548 C 0.41440 -0.14443 0.34749
 H1549 H 0.40104 -0.18115 0.30711
 H1550 H 0.43352 -0.14919 0.33981
 H1551 H 0.35775 -0.19499 0.29610
 H1552 H 0.30113 -0.14390 0.36087
 H1553 H 0.39330 -0.05336 0.45370
 H1554 H 0.44716 -0.10700 0.38607
 H1555 H 0.33198 -0.11156 0.39448
 H1556 H 0.36022 -0.08388 0.42298
 C1557 C 0.49714 0.49637 0.22874
 C1558 C 0.49808 0.53116 0.21077
 C1559 C 0.49845 0.53219 0.17353
 C1560 C 0.49799 0.49888 0.15375
 C1561 C 0.49689 0.46451 0.17175
 C1562 C 0.49645 0.46320 0.20862
 C1563 C 0.49713 0.49635 0.26844
 C1564 C 0.49641 0.46317 0.28860
 C1565 C 0.49681 0.46446 0.32548
 C1566 C 0.49790 0.49882 0.34343
 C1567 C 0.49838 0.53213 0.32360
 C1568 C 0.49804 0.53113 0.28636
 C1569 C 0.49877 0.56465 0.23006
 C1570 C 0.49875 0.56464 0.26704
 H1571 H 0.49943 0.59132 0.21634
 H1572 H 0.49941 0.59130 0.28072
 H1573 H 0.49927 0.55897 0.16002
 H1574 H 0.49640 0.43831 0.15733
 H1575 H 0.49630 0.43825 0.33993
 H1576 H 0.49919 0.55891 0.33708
 H1577 H 0.49566 0.43586 0.22066
 H1578 H 0.49562 0.43584 0.27659
 C1579 C 0.75279 0.74741 1.01824
 C1580 C 0.75073 0.78209 1.03616
 C1581 C 0.75018 0.78305 1.07338
 C1582 C 0.75152 0.74979 1.09321
 C1583 C 0.75365 0.71554 1.07527
 C1584 C 0.75428 0.71429 1.03840
 C1585 C 0.75306 0.74745 0.97855
 C1586 C 0.75500 0.71439 0.95842
 C1587 C 0.75473 0.71571 0.92154
 C1588 C 0.75256 0.74996 0.90356
 C1589 C 0.75094 0.78318 0.92335
 C1590 C 0.75113 0.78216 0.96058
 C1591 C 0.74910 0.81552 1.01684
 C1592 C 0.74927 0.81555 0.97986
 H1593 H 0.74755 0.84210 1.03052
 H1594 H 0.74784 0.84215 0.96614
 H1595 H 0.74854 0.80975 1.08686
 H1596 H 0.75483 0.68938 1.08974
 H1597 H 0.75617 0.68959 0.90710
 H1598 H 0.74930 0.80988 0.90984
 H1599 H 0.75588 0.68703 1.02639
 H1600 H 0.75666 0.68714 0.97046
 C1601 C 0.61297 0.61861 0.11481
 C1602 C 0.61987 0.59407 0.08704
 C1603 C 0.60154 0.57617 0.06669
 C1604 C 0.57623 0.58244 0.07345
 C1605 C 0.56954 0.60750 0.10047
 C1606 C 0.58757 0.62534 0.12083
 C1607 C 0.63305 0.63647 0.13646
 C1608 C 0.62805 0.66027 0.16537
 C1609 C 0.64733 0.67687 0.18427
 C1610 C 0.67218 0.67024 0.17505
 C1611 C 0.67739 0.64584 0.14679
 C1612 C 0.65807 0.62894 0.12756
 C1613 C 0.64499 0.58748 0.07979
 C1614 C 0.66367 0.60472 0.09947
 H1615 H 0.65030 0.56879 0.05847
 H1616 H 0.68282 0.59886 0.09265
 H1617 H 0.60705 0.55707 0.04579
 H1618 H 0.55022 0.61306 0.10635
 H1619 H 0.64265 0.69530 0.20607
 H1620 H 0.69648 0.64033 0.13937
 H1621 H 0.58113 0.64416 0.14118
 H1622 H 0.60942 0.66659 0.17385
 C1623 C 0.88340 0.88216 0.10621
 C1624 C 0.90841 0.87586 0.11596
 C1625 C 0.92769 0.89368 0.09731
 C1626 C 0.92251 0.91799 0.06891
 C1627 C 0.89769 0.92357 0.05897
 C1628 C 0.87843 0.90594 0.07723
 C1629 C 0.86334 0.86340 0.12738
 C1630 C 0.83792 0.86858 0.12030
 C1631 C 0.81992 0.85080 0.14084
 C1632 C 0.82661 0.82724 0.16911
 C1633 C 0.85193 0.82185 0.17642
 C1634 C 0.87024 0.83978 0.15591
 C1635 C 0.91402 0.85207 0.14443
 C1636 C 0.89537 0.83436 0.16389
 H1637 H 0.93316 0.84714 0.15188
 H1638 H 0.90072 0.81628 0.18569
 H1639 H 0.94675 0.88901 0.10536
 H1640 H 0.89302 0.94191 0.03707
 H1641 H 0.80060 0.85551 0.13432
 H1642 H 0.85745 0.80376 0.19813
 H1643 H 0.85982 0.91157 0.06827
 H1644 H 0.83146 0.88630 0.09907
 C1645 C 0.88294 0.61750 0.10715
 C1646 C 0.90795 0.62362 0.11696
 C1647 C 0.92719 0.60564 0.09843
 C1648 C 0.92195 0.58134 0.07010
 C1649 C 0.89713 0.57587 0.06013
 C1650 C 0.87792 0.59366 0.07827
 C1651 C 0.86292 0.63650 0.12813
 C1652 C 0.83751 0.63159 0.12090
 C1653 C 0.81954 0.64961 0.14127
 C1654 C 0.82629 0.67311 0.16950
 C1655 C 0.85160 0.67824 0.17694
 C1656 C 0.86987 0.66009 0.15660
 C1657 C 0.91361 0.64739 0.14537
 C1658 C 0.89500 0.66530 0.16469
 H1659 H 0.93276 0.65216 0.15287
 H1660 H 0.90037 0.68336 0.18645
 H1661 H 0.94625 0.61020 0.10649
 H1662 H 0.89244 0.55752 0.03829
 H1663 H 0.80022 0.64513 0.13466
 H1664 H 0.85715 0.69630 0.19863
 H1665 H 0.85930 0.58813 0.06930
 H1666 H 0.83101 0.61394 0.09969
 C1667 C 0.61261 0.88252 0.11438
 C1668 C 0.61934 0.90810 0.08740
 C1669 C 0.60091 0.92602 0.06715
 C1670 C 0.57545 0.91881 0.07306
 C1671 C 0.56911 0.89233 0.09933
 C1672 C 0.58729 0.87459 0.11959
 C1673 C 0.63281 0.86475 0.13604
 C1674 C 0.62795 0.84019 0.16444
 C1675 C 0.64732 0.82374 0.18335
 C1676 C 0.67217 0.83124 0.17466
 C1677 C 0.67723 0.85642 0.14690
 C1678 C 0.65780 0.87324 0.12771
 C1679 C 0.64443 0.91568 0.08077
 C1680 C 0.66323 0.89842 0.10027
 H1681 H 0.64965 0.93517 0.06001
 H1682 H 0.68234 0.90507 0.09388
 H1683 H 0.60662 0.94585 0.04693
 H1684 H 0.54992 0.88537 0.10484
 H1685 H 0.64269 0.80471 0.20474
 H1686 H 0.69630 0.86267 0.13990
 H1687 H 0.58103 0.85477 0.13922
 H1688 H 0.60934 0.83318 0.17254
 C1689 C -0.13704 0.63584 0.36819
 C1690 C -0.13001 0.65980 0.33997
 C1691 C -0.14824 0.67810 0.31960
 C1692 C -0.17359 0.67276 0.32676
 C1693 C -0.18040 0.64886 0.35473
 C1694 C -0.16249 0.63070 0.37512
 C1695 C -0.11707 0.61675 0.38926
 C1696 C -0.12216 0.59257 0.41793
 C1697 C -0.10297 0.57480 0.43620
 C1698 C -0.07811 0.58061 0.42658
 C1699 C -0.07282 0.60521 0.39842
 C1700 C -0.09202 0.62318 0.37977
 C1701 C -0.10485 0.66525 0.33219
 C1702 C -0.08629 0.64728 0.35158
 H1703 H -0.09941 0.68358 0.31062
 H1704 H -0.06712 0.65229 0.34431
 H1705 H -0.14262 0.69645 0.29813
 H1706 H -0.19974 0.64416 0.36113
 H1707 H -0.10771 0.55621 0.45789
 H1708 H -0.05373 0.61005 0.39060
 H1709 H -0.16904 0.61276 0.39612
 H1710 H -0.14081 0.58678 0.42665
 C1711 C 0.63372 -0.13419 0.36057
 C1712 C 0.65876 -0.12648 0.36914
 C1713 C 0.67802 -0.14343 0.34977
 C1714 C 0.67271 -0.16797 0.32166
 C1715 C 0.64784 -0.17459 0.31266
 C1716 C 0.62863 -0.15798 0.33171
 C1717 C 0.61370 -0.11651 0.38248
 C1718 C 0.58834 -0.12386 0.37701
 C1719 C 0.57032 -0.10623 0.39754
 C1720 C 0.57697 -0.08074 0.42421
 C1721 C 0.60227 -0.07387 0.43048
 C1722 C 0.62060 -0.09165 0.40997
 C1723 C 0.66440 -0.10200 0.39702
 C1724 C 0.64574 -0.08472 0.41679
 H1725 H 0.68355 -0.09595 0.40356
 H1726 H 0.65108 -0.06580 0.43790
 H1727 H 0.69713 -0.13787 0.35698
 H1728 H 0.64307 -0.19306 0.29094
 H1729 H 0.55103 -0.11234 0.39206
 H1730 H 0.60774 -0.05445 0.45113
 H1731 H 0.60999 -0.16429 0.32336
 H1732 H 0.58191 -0.14308 0.35701
 C1733 C 0.63300 0.63597 0.36006
 C1734 C 0.65801 0.62861 0.36914
 C1735 C 0.67737 0.64555 0.34993
 C1736 C 0.67222 0.66985 0.32155
 C1737 C 0.64738 0.67630 0.31215
 C1738 C 0.62806 0.65965 0.33102
 C1739 C 0.61286 0.61811 0.38172
 C1740 C 0.58746 0.62469 0.37552
 C1741 C 0.56939 0.60691 0.39595
 C1742 C 0.57604 0.58206 0.42320
 C1743 C 0.60134 0.57591 0.43008
 C1744 C 0.61971 0.59375 0.40968
 C1745 C 0.66354 0.60452 0.39739
 C1746 C 0.64482 0.58729 0.41708
 H1747 H 0.68267 0.59877 0.40435
 H1748 H 0.65009 0.56873 0.43854
 H1749 H 0.69644 0.64019 0.35750
 H1750 H 0.64273 0.69464 0.29024
 H1751 H 0.55008 0.61237 0.38995
 H1752 H 0.60682 0.55696 0.45114
 H1753 H 0.60945 0.66585 0.32241
 H1754 H 0.58107 0.64335 0.35500
 C1755 C -0.13641 -0.13696 0.36805
 C1756 C -0.12956 -0.15990 0.33905
 C1757 C -0.14791 -0.17780 0.31870
 C1758 C -0.17319 -0.17293 0.32662
 C1759 C -0.17982 -0.14999 0.35531
 C1760 C -0.16179 -0.13229 0.37572
 C1761 C -0.11634 -0.11824 0.38905
 C1762 C -0.12130 -0.09525 0.41855
 C1763 C -0.10209 -0.07746 0.43660
 C1764 C -0.07733 -0.08211 0.42594
 C1765 C -0.07211 -0.10574 0.39710
 C1766 C -0.09137 -0.12373 0.37863
 C1767 C -0.10447 -0.16465 0.33043
 C1768 C -0.08580 -0.14684 0.34970
 H1769 H -0.09917 -0.18221 0.30825
 H1770 H -0.06669 -0.15118 0.34174
 H1771 H -0.14246 -0.19538 0.29660
 H1772 H -0.19911 -0.14572 0.36228
 H1773 H -0.10676 -0.05974 0.45893
 H1774 H -0.05308 -0.10968 0.38856
 H1775 H -0.16822 -0.11504 0.39728
 H1776 H -0.13986 -0.09035 0.42811
 C1777 C 0.00191 -0.00349 0.76904
 C1778 C 0.00197 0.03121 0.78710
 C1779 C 0.00212 0.03217 0.82444
 C1780 C 0.00213 -0.00121 0.84461
 C1781 C 0.00226 -0.03556 0.82612
 C1782 C 0.00216 -0.03668 0.78917
 C1783 C 0.00149 -0.00336 0.72921
 C1784 C 0.00125 -0.03644 0.70891
 C1785 C 0.00074 -0.03497 0.67197
 C1786 C 0.00044 -0.00052 0.65397
 C1787 C 0.00073 0.03270 0.67397
 C1788 C 0.00123 0.03150 0.71130
 C1789 C 0.00179 0.06477 0.76778
 C1790 C 0.00144 0.06492 0.73076
 H1791 H 0.00187 0.09142 0.78151
 H1792 H 0.00126 0.09166 0.71714
 H1793 H 0.00209 0.05916 0.83761
 H1794 H 0.00237 -0.06209 0.84009
 H1795 H 0.00057 -0.06114 0.65748
 H1796 H 0.00054 0.05956 0.66055
 H1797 H 0.00222 -0.06397 0.77701
 H1798 H 0.00143 -0.06384 0.72090
 C1799 C 0.25036 0.24603 0.47881
 C1800 C 0.25048 0.28089 0.46088
 C1801 C 0.25036 0.28206 0.42357
 C1802 C 0.25010 0.24882 0.40361
 C1803 C 0.25004 0.21438 0.42160
 C1804 C 0.25017 0.21293 0.45854
 C1805 C 0.25039 0.24591 0.51861
 C1806 C 0.25023 0.21269 0.53878
 C1807 C 0.25015 0.21393 0.57572
 C1808 C 0.25023 0.24827 0.59382
 C1809 C 0.25048 0.28162 0.57395
 C1810 C 0.25054 0.28066 0.53663
 C1811 C 0.25068 0.31432 0.48031
 C1812 C 0.25072 0.31421 0.51732
 H1813 H 0.25079 0.34105 0.46666
 H1814 H 0.25085 0.34086 0.53105
 H1815 H 0.25043 0.30890 0.41013
 H1816 H 0.24988 0.18820 0.40713
 H1817 H 0.25000 0.18768 0.59013
 H1818 H 0.25057 0.30840 0.58746
 H1819 H 0.25009 0.18554 0.47055
 H1820 H 0.25013 0.18537 0.52668
 C1821 C 0.11266 0.11431 0.61872
 C1822 C 0.11962 0.09019 0.59063
 C1823 C 0.10133 0.07226 0.57016
 C1824 C 0.07600 0.07811 0.57709
 C1825 C 0.06926 0.10220 0.60490
 C1826 C 0.08723 0.12002 0.62539
 C1827 C 0.13271 0.13298 0.63991
 C1828 C 0.12769 0.15720 0.66852
 C1829 C 0.14694 0.17466 0.68685
 C1830 C 0.17179 0.16846 0.67736
 C1831 C 0.17701 0.14374 0.64933
 C1832 C 0.15774 0.12608 0.63061
 C1833 C 0.14476 0.08422 0.58306
 C1834 C 0.16339 0.10185 0.60254
 H1835 H 0.15013 0.06576 0.56159
 H1836 H 0.18254 0.09647 0.59543
 H1837 H 0.10689 0.05375 0.54881
 H1838 H 0.04993 0.10729 0.61109
 H1839 H 0.14225 0.19335 0.70845
 H1840 H 0.19609 0.13859 0.64163
 H1841 H 0.08074 0.13814 0.64626
 H1842 H 0.10905 0.16330 0.67712
 C1843 C 0.36712 0.36193 0.63602
 C1844 C 0.34214 0.36885 0.62646
 C1845 C 0.32275 0.35089 0.64477
 C1846 C 0.32784 0.32592 0.67265
 C1847 C 0.35267 0.31918 0.68195
 C1848 C 0.37200 0.33686 0.66400
 C1849 C 0.38728 0.38162 0.61588
 C1850 C 0.41266 0.37662 0.62342
 C1851 C 0.43075 0.39557 0.60400
 C1852 C 0.42415 0.42010 0.57648
 C1853 C 0.39887 0.42531 0.56875
 C1854 C 0.38048 0.40631 0.58816
 C1855 C 0.33666 0.39360 0.59870
 C1856 C 0.35540 0.41192 0.57998
 H1857 H 0.31755 0.39891 0.59132
 H1858 H 0.35017 0.43080 0.55874
 H1859 H 0.30369 0.35634 0.63717
 H1860 H 0.35729 0.30013 0.70331
 H1861 H 0.45004 0.39099 0.61076
 H1862 H 0.39342 0.44415 0.54758
 H1863 H 0.39059 0.33039 0.67254
 H1864 H 0.41904 0.35826 0.64419
 C1865 C 0.36279 0.13248 0.63152
 C1866 C 0.36958 0.15665 0.65961
 C1867 C 0.35120 0.17537 0.67920
 C1868 C 0.32595 0.17036 0.67130
 C1869 C 0.31934 0.14630 0.64346
 C1870 C 0.33742 0.12764 0.62386
 C1871 C 0.38292 0.11307 0.61120
 C1872 C 0.37803 0.08861 0.58278
 C1873 C 0.39736 0.07107 0.56474
 C1874 C 0.42215 0.07736 0.57438
 C1875 C 0.42726 0.10181 0.60261
 C1876 C 0.40789 0.11962 0.62101
 C1877 C 0.39464 0.16197 0.66799
 C1878 C 0.41338 0.14384 0.64913
 H1879 H 0.39987 0.18045 0.68951
 H1880 H 0.43249 0.14888 0.65669
 H1881 H 0.35662 0.19384 0.70064
 H1882 H 0.30006 0.14189 0.63658
 H1883 H 0.39275 0.05246 0.54306
 H1884 H 0.44630 0.10691 0.61045
 H1885 H 0.33104 0.10963 0.60285
 H1886 H 0.35946 0.08252 0.57397
 C1887 C 0.13709 0.37177 0.63677
 C1888 C 0.13004 0.34502 0.66263
 C1889 C 0.14826 0.32597 0.68238
 C1890 C 0.17360 0.33313 0.67677
 C1891 C 0.18040 0.36028 0.65161
 C1892 C 0.16250 0.37933 0.63195
 C1893 C 0.11717 0.39070 0.61551
 C1894 C 0.12233 0.41696 0.58858
 C1895 C 0.10318 0.43367 0.56937
 C1896 C 0.07829 0.42476 0.57636
 C1897 C 0.07295 0.39854 0.60316
 C1898 C 0.09212 0.38147 0.62260
 C1899 C 0.10489 0.33722 0.66840
 C1900 C 0.08635 0.35514 0.64893
 H1901 H 0.09944 0.31686 0.68826
 H1902 H 0.06718 0.34805 0.65441
 H1903 H 0.14265 0.30521 0.70179
 H1904 H 0.19974 0.36667 0.64666
 H1905 H 0.10798 0.45378 0.54898
 H1906 H 0.05384 0.39132 0.60896
 H1907 H 0.16906 0.39965 0.61299
 H1908 H 0.14100 0.42502 0.58177
 C1909 C 0.38760 0.11473 0.88047
 C1910 C 0.38095 0.09039 0.90855
 C1911 C 0.39944 0.07164 0.92797
 C1912 C 0.42470 0.07681 0.91996
 C1913 C 0.43116 0.10099 0.89209
 C1914 C 0.41296 0.11966 0.87262
 C1915 C 0.36733 0.13426 0.86042
 C1916 C 0.37205 0.15892 0.83207
 C1917 C 0.35263 0.17666 0.81438
 C1918 C 0.32785 0.17041 0.82430
 C1919 C 0.32291 0.14568 0.85245
 C1920 C 0.34239 0.12766 0.87050
 C1921 C 0.35591 0.08495 0.91713
 C1922 C 0.33707 0.10319 0.89856
 H1923 H 0.35079 0.06631 0.93862
 H1924 H 0.31800 0.09807 0.90632
 H1925 H 0.39410 0.05309 0.94942
 H1926 H 0.45042 0.10553 0.88511
 H1927 H 0.35716 0.19546 0.79277
 H1928 H 0.30390 0.14055 0.86050
 H1929 H 0.41923 0.13780 0.85160
 H1930 H 0.39059 0.16504 0.82305
 C1931 C 0.11435 0.38849 0.87897
 C1932 C 0.12104 0.41055 0.90863
 C1933 C 0.10260 0.42854 0.92881
 C1934 C 0.07741 0.42457 0.92004
 C1935 C 0.07094 0.40258 0.89064
 C1936 C 0.08905 0.38484 0.87040
 C1937 C 0.13448 0.36953 0.85825
 C1938 C 0.12964 0.34731 0.82821
 C1939 C 0.14884 0.32919 0.81046
 C1940 C 0.17348 0.33272 0.82195
 C1941 C 0.17862 0.35561 0.85134
 C1942 C 0.15934 0.37391 0.86954
 C1943 C 0.14605 0.41426 0.91811
 C1944 C 0.16477 0.39623 0.89908
 H1945 H 0.15123 0.43114 0.94080
 H1946 H 0.18380 0.39972 0.90770
 H1947 H 0.10790 0.44539 0.95147
 H1948 H 0.05172 0.39908 0.88299
 H1949 H 0.14426 0.31210 0.78766
 H1950 H 0.19757 0.35866 0.86052
 H1951 H 0.08273 0.36833 0.84829
 H1952 H 0.11118 0.34327 0.81798
 C1953 C 0.11653 0.10930 0.88389
 C1954 C 0.09152 0.11788 0.87606
 C1955 C 0.07221 0.10052 0.89507
 C1956 C 0.07729 0.07443 0.92233
 C1957 C 0.10236 0.06637 0.92993
 C1958 C 0.12156 0.08342 0.91112
 C1959 C 0.13659 0.12843 0.86302
 C1960 C 0.16200 0.12141 0.86858
 C1961 C 0.18000 0.14046 0.84909
 C1962 C 0.17332 0.16710 0.82339
 C1963 C 0.14799 0.17384 0.81717
 C1964 C 0.12968 0.15475 0.83671
 C1965 C 0.08589 0.14387 0.84936
 C1966 C 0.10454 0.16198 0.83021
 H1967 H 0.06674 0.15050 0.84327
 H1968 H 0.09918 0.18201 0.81002
 H1969 H 0.05320 0.10754 0.88839
 H1970 H 0.10743 0.04662 0.95053
 H1971 H 0.19932 0.13445 0.85456
 H1972 H 0.14248 0.19418 0.79733
 H1973 H 0.14022 0.07587 0.91850
 H1974 H 0.16848 0.10147 0.88793
 C1975 C 0.38755 0.38187 0.88158
 C1976 C 0.38066 0.40636 0.90940
 C1977 C 0.39897 0.42546 0.92879
 C1978 C 0.42426 0.42055 0.92097
 C1979 C 0.43095 0.39619 0.89338
 C1980 C 0.41294 0.37715 0.87396
 C1981 C 0.36746 0.36206 0.86145
 C1982 C 0.37241 0.33718 0.83335
 C1983 C 0.35311 0.31939 0.81543
 C1984 C 0.32828 0.32584 0.82491
 C1985 C 0.32315 0.35063 0.85291
 C1986 C 0.34247 0.36867 0.87116
 C1987 C 0.35557 0.41166 0.91770
 C1988 C 0.33690 0.39322 0.89901
 H1989 H 0.35026 0.43038 0.93900
 H1990 H 0.31777 0.39830 0.90649
 H1991 H 0.39346 0.44415 0.95003
 H1992 H 0.45026 0.39182 0.88654
 H1993 H 0.35774 0.30050 0.79397
 H1994 H 0.30409 0.35586 0.86066
 H1995 H 0.41938 0.35894 0.85312
 H1996 H 0.39101 0.33097 0.82468
 C1997 C 0.49929 -0.00408 0.76850
 C1998 C 0.50055 0.03060 0.78656
 C1999 C 0.50109 0.03142 0.82380
 C2000 C 0.50048 -0.00197 0.84352
 C2001 C 0.49924 -0.03624 0.82544
 C2002 C 0.49865 -0.03736 0.78855
 C2003 C 0.49883 -0.00384 0.72879
 C2004 C 0.49753 -0.03687 0.70853
 C2005 C 0.49747 -0.03536 0.67165
 C2006 C 0.49867 -0.00092 0.65377
 C2007 C 0.49972 0.03226 0.67370
 C2008 C 0.49983 0.03103 0.71095
 C2009 C 0.50133 0.06419 0.76736
 C2010 C 0.50101 0.06440 0.73038
 H2011 H 0.50229 0.09076 0.78115
 H2012 H 0.50173 0.09112 0.71677
 H2013 H 0.50206 0.05813 0.83737
 H2014 H 0.49868 -0.06250 0.83981
 H2015 H 0.49652 -0.06147 0.65713
 H2016 H 0.50061 0.05909 0.66028
 H2017 H 0.49773 -0.06462 0.77642
 H2018 H 0.49660 -0.06425 0.72047
 C2019 C 0.75076 0.24538 0.47919
 C2020 C 0.75080 0.28020 0.46122
 C2021 C 0.75080 0.28126 0.42397
 C2022 C 0.75074 0.24797 0.40415
 C2023 C 0.75081 0.21355 0.42215
 C2024 C 0.75083 0.21220 0.45904
 C2025 C 0.75061 0.24535 0.51890
 C2026 C 0.75046 0.21216 0.53908
 C2027 C 0.75019 0.21347 0.57596
 C2028 C 0.75006 0.24787 0.59393
 C2029 C 0.75028 0.28118 0.57408
 C2030 C 0.75053 0.28016 0.53683
 C2031 C 0.75078 0.31370 0.48052
 C2032 C 0.75066 0.31368 0.51751
 H2033 H 0.75083 0.34039 0.46681
 H2034 H 0.75063 0.34036 0.53119
 H2035 H 0.75078 0.30808 0.41047
 H2036 H 0.75082 0.18735 0.40771
 H2037 H 0.75007 0.18725 0.59042
 H2038 H 0.75022 0.30799 0.58756
 H2039 H 0.75085 0.18483 0.47108
 H2040 H 0.75051 0.18480 0.52706
 C2041 C 0.61278 0.11807 0.61507
 C2042 C 0.61981 0.09219 0.58848
 C2043 C 0.60160 0.07433 0.56787
 C2044 C 0.57630 0.08198 0.57322
 C2045 C 0.56952 0.10838 0.59905
 C2046 C 0.58742 0.12618 0.61963
 C2047 C 0.63269 0.13586 0.63709
 C2048 C 0.62751 0.16094 0.66495
 C2049 C 0.64667 0.17741 0.68420
 C2050 C 0.67156 0.16937 0.67636
 C2051 C 0.67691 0.14370 0.64917
 C2052 C 0.65773 0.12691 0.62962
 C2053 C 0.64493 0.08421 0.58268
 C2054 C 0.66348 0.10138 0.60265
 H2055 H 0.65036 0.06448 0.56228
 H2056 H 0.68265 0.09444 0.59696
 H2057 H 0.60718 0.05415 0.54794
 H2058 H 0.55021 0.11508 0.60381
 H2059 H 0.64188 0.19690 0.70511
 H2060 H 0.69603 0.13705 0.64283
 H2061 H 0.58091 0.14607 0.63900
 H2062 H 0.60884 0.16839 0.67233
 C2063 C -0.13317 0.35851 0.63256
 C2064 C -0.15816 0.36721 0.62445
 C2065 C -0.17758 0.35022 0.64354
 C2066 C -0.17250 0.32461 0.67092
 C2067 C -0.14766 0.31617 0.67881
 C2068 C -0.12830 0.33279 0.66001
 C2069 C -0.11297 0.37739 0.61178
 C2070 C -0.08757 0.37047 0.61776
 C2071 C -0.06944 0.38947 0.59843
 C2072 C -0.07601 0.41589 0.57251
 C2073 C -0.10130 0.42243 0.56583
 C2074 C -0.11973 0.40347 0.58521
 C2075 C -0.16361 0.39292 0.59747
 C2076 C -0.14483 0.41071 0.57835
 H2077 H -0.18272 0.39959 0.59116
 H2078 H -0.15005 0.43058 0.55793
 H2079 H -0.19664 0.35701 0.63703
 H2080 H -0.14303 0.29653 0.69968
 H2081 H -0.05014 0.38365 0.60423
 H2082 H -0.10674 0.44261 0.54580
 H2083 H -0.10971 0.32509 0.66755
 H2084 H -0.08122 0.35072 0.63737
 C2085 C 0.88266 0.11772 0.60708
 C2086 C 0.90760 0.12370 0.61730
 C2087 C 0.92696 0.10602 0.59879
 C2088 C 0.92187 0.08220 0.57008
 C2089 C 0.89713 0.07704 0.55958
 C2090 C 0.87781 0.09453 0.57769
 C2091 C 0.86249 0.13615 0.62817
 C2092 C 0.83712 0.13105 0.62073
 C2093 C 0.81901 0.14859 0.64123
 C2094 C 0.82562 0.17175 0.66975
 C2095 C 0.85088 0.17698 0.67744
 C2096 C 0.86927 0.15931 0.65702
 C2097 C 0.91308 0.14700 0.64611
 C2098 C 0.89434 0.16453 0.66545
 H2099 H 0.93218 0.15170 0.65391
 H2100 H 0.89955 0.18226 0.68754
 H2101 H 0.94597 0.11034 0.60721
 H2102 H 0.89258 0.05912 0.53735
 H2103 H 0.79972 0.14406 0.63449
 H2104 H 0.85631 0.19474 0.69941
 H2105 H 0.85926 0.08927 0.56830
 H2106 H 0.83075 0.11361 0.59929
 C2107 C 0.63688 0.36860 0.63380
 C2108 C 0.62979 0.34216 0.65992
 C2109 C 0.64793 0.32400 0.68050
 C2110 C 0.67325 0.33189 0.67556
 C2111 C 0.68007 0.35885 0.65024
 C2112 C 0.66224 0.37696 0.62971
 C2113 C 0.61705 0.38663 0.61172
 C2114 C 0.62231 0.41224 0.58427
 C2115 C 0.60321 0.42881 0.56487
 C2116 C 0.57830 0.42034 0.57215
 C2117 C 0.57289 0.39421 0.59899
 C2118 C 0.59200 0.37732 0.61866
 C2119 C 0.60465 0.33391 0.66523
 C2120 C 0.58617 0.35128 0.64521
 H2121 H 0.59915 0.31378 0.68527
 H2122 H 0.56699 0.34407 0.65051
 H2123 H 0.64231 0.30338 0.70003
 H2124 H 0.69938 0.36580 0.64580
 H2125 H 0.60807 0.44867 0.54429
 H2126 H 0.55376 0.38723 0.60491
 H2127 H 0.66880 0.39726 0.61073
 H2128 H 0.64101 0.42002 0.57732
 C2129 C 0.88736 0.12013 0.88378
 C2130 C 0.88073 0.09493 0.91116
 C2131 C 0.89925 0.07636 0.93058
 C2132 C 0.92448 0.08251 0.92318
 C2133 C 0.93094 0.10813 0.89651
 C2134 C 0.91271 0.12671 0.87710
 C2135 C 0.86707 0.13860 0.86300
 C2136 C 0.87181 0.16323 0.83464
 C2137 C 0.85237 0.17974 0.81604
 C2138 C 0.82759 0.17223 0.82505
 C2139 C 0.82262 0.14751 0.85317
 C2140 C 0.84212 0.13064 0.87207
 C2141 C 0.85569 0.08823 0.91886
 C2142 C 0.83680 0.10582 0.89984
 H2143 H 0.85059 0.06903 0.93992
 H2144 H 0.81773 0.09969 0.90684
 H2145 H 0.89393 0.05683 0.95126
 H2146 H 0.95020 0.11359 0.89018
 H2147 H 0.85690 0.19861 0.79449
 H2148 H 0.80359 0.14143 0.86048
 H2149 H 0.91896 0.14589 0.85691
 H2150 H 0.89036 0.17019 0.82624
 C2151 C 0.61435 0.38288 0.88407
 C2152 C 0.62127 0.40775 0.91153
 C2153 C 0.60293 0.42573 0.93189
 C2154 C 0.57765 0.41896 0.92548
 C2155 C 0.57100 0.39335 0.89893
 C2156 C 0.58900 0.37556 0.87856
 C2157 C 0.63433 0.36512 0.86221
 C2158 C 0.62917 0.34156 0.83323
 C2159 C 0.64831 0.32484 0.81420
 C2160 C 0.67320 0.33112 0.82334
 C2161 C 0.67859 0.35547 0.85156
 C2162 C 0.65938 0.37257 0.87091
 C2163 C 0.64641 0.41447 0.91848
 C2164 C 0.66506 0.39697 0.89883
 H2165 H 0.65178 0.43336 0.93960
 H2166 H 0.68422 0.40283 0.90546
 H2167 H 0.60839 0.44518 0.95251
 H2168 H 0.55170 0.38727 0.89338
 H2169 H 0.64348 0.30657 0.79236
 H2170 H 0.69772 0.36079 0.85884
 H2171 H 0.58255 0.35624 0.85867
 H2172 H 0.61052 0.33554 0.82471
 C2173 C 0.61667 0.11224 0.88811
 C2174 C 0.59162 0.12133 0.88103
 C2175 C 0.57240 0.10400 0.90032
 C2176 C 0.57756 0.07725 0.92700
 C2177 C 0.60268 0.06915 0.93425
 C2178 C 0.62182 0.08625 0.91523
 C2179 C 0.63661 0.13083 0.86644
 C2180 C 0.66203 0.12294 0.87084
 C2181 C 0.67991 0.14127 0.85044
 C2182 C 0.67312 0.16808 0.82492
 C2183 C 0.64776 0.17574 0.81992
 C2184 C 0.62956 0.15733 0.84036
 C2185 C 0.58587 0.14762 0.85464
 C2186 C 0.60440 0.16532 0.83489
 H2187 H 0.56670 0.15471 0.84917
 H2188 H 0.59892 0.18553 0.81492
 H2189 H 0.55336 0.11125 0.89403
 H2190 H 0.60784 0.04912 0.95456
 H2191 H 0.69923 0.13455 0.85503
 H2192 H 0.64213 0.19626 0.80031
 H2193 H 0.64052 0.07855 0.92222
 H2194 H 0.66858 0.10276 0.88993
 C2195 C 0.88723 0.37816 0.88468
 C2196 C 0.88030 0.40425 0.91115
 C2197 C 0.89861 0.42325 0.93065
 C2198 C 0.92393 0.41673 0.92423
 C2199 C 0.93065 0.39033 0.89837
 C2200 C 0.91265 0.37131 0.87891
 C2201 C 0.86716 0.35914 0.86383
 C2202 C 0.87215 0.33336 0.83647
 C2203 C 0.85286 0.31655 0.81769
 C2204 C 0.82800 0.32487 0.82554
 C2205 C 0.82283 0.35057 0.85277
 C2206 C 0.84213 0.36773 0.87182
 C2207 C 0.85518 0.41141 0.91782
 C2208 C 0.83652 0.39348 0.89867
 H2209 H 0.84983 0.43129 0.93815
 H2210 H 0.81737 0.40006 0.90485
 H2211 H 0.89306 0.44343 0.95060
 H2212 H 0.94998 0.38453 0.89276
 H2213 H 0.85754 0.29685 0.79691
 H2214 H 0.80374 0.35730 0.85925
 H2215 H 0.91911 0.35157 0.85938
 H2216 H 0.89079 0.32577 0.82902
 C2217 C 0.00182 0.49664 0.76996
 C2218 C 0.00140 0.53139 0.78793
 C2219 C 0.00123 0.53247 0.82528
 C2220 C 0.00137 0.49915 0.84554
 C2221 C 0.00189 0.46476 0.82714
 C2222 C 0.00212 0.46352 0.79019
 C2223 C 0.00180 0.49664 0.73012
 C2224 C 0.00219 0.46349 0.70990
 C2225 C 0.00194 0.46484 0.67294
 C2226 C 0.00129 0.49921 0.65484
 C2227 C 0.00104 0.53249 0.67476
 C2228 C 0.00129 0.53143 0.71210
 C2229 C 0.00104 0.56488 0.76850
 C2230 C 0.00097 0.56490 0.73147
 H2231 H 0.00074 0.59157 0.78215
 H2232 H 0.00061 0.59159 0.71778
 H2233 H 0.00088 0.55950 0.83838
 H2234 H 0.00209 0.43826 0.84117
 H2235 H 0.00221 0.43863 0.65852
 H2236 H 0.00060 0.55930 0.66127
 H2237 H 0.00246 0.43619 0.77811
 H2238 H 0.00266 0.43614 0.72197
 C2239 C 0.25082 0.74720 0.47848
 C2240 C 0.24997 0.78200 0.46052
 C2241 C 0.25004 0.78306 0.42327
 C2242 C 0.25091 0.74979 0.40345
 C2243 C 0.25190 0.71541 0.42145
 C2244 C 0.25187 0.71406 0.45834
 C2245 C 0.25051 0.74715 0.51820
 C2246 C 0.25110 0.71396 0.53836
 C2247 C 0.25071 0.71525 0.57525
 C2248 C 0.24973 0.74961 0.59322
 C2249 C 0.24916 0.78292 0.57339
 C2250 C 0.24950 0.78192 0.53614
 C2251 C 0.24900 0.81547 0.47982
 C2252 C 0.24880 0.81543 0.51681
 H2253 H 0.24837 0.84214 0.46612
 H2254 H 0.24802 0.84208 0.53050
 H2255 H 0.24929 0.80985 0.40976
 H2256 H 0.25268 0.68923 0.40702
 H2257 H 0.25121 0.68903 0.58970
 H2258 H 0.24839 0.80969 0.58687
 H2259 H 0.25264 0.68671 0.47038
 H2260 H 0.25183 0.68663 0.52634
 C2261 C 0.11290 0.61436 0.61891
 C2262 C 0.11987 0.59085 0.59037
 C2263 C 0.10160 0.57292 0.56990
 C2264 C 0.07629 0.57822 0.57726
 C2265 C 0.06952 0.60175 0.60547
 C2266 C 0.08748 0.61954 0.62599
 C2267 C 0.13291 0.63302 0.64011
 C2268 C 0.12788 0.65660 0.66920
 C2269 C 0.14709 0.67420 0.68746
 C2270 C 0.17191 0.66877 0.67741
 C2271 C 0.17716 0.64461 0.64897
 C2272 C 0.15793 0.62683 0.63032
 C2273 C 0.14499 0.58550 0.58235
 C2274 C 0.16360 0.60320 0.60180
 H2275 H 0.15038 0.56752 0.56052
 H2276 H 0.18275 0.59835 0.59432
 H2277 H 0.10716 0.55486 0.54821
 H2278 H 0.05019 0.60639 0.61199
 H2279 H 0.14240 0.69241 0.70942
 H2280 H 0.19622 0.64006 0.64086
 H2281 H 0.08097 0.63723 0.64719
 H2282 H 0.10926 0.66209 0.67823
 C2283 C 0.38306 0.88614 0.61024
 C2284 C 0.40801 0.87952 0.62017
 C2285 C 0.42741 0.89754 0.60202
 C2286 C 0.42234 0.92226 0.57395
 C2287 C 0.39757 0.92859 0.56418
 C2288 C 0.37822 0.91085 0.58197
 C2289 C 0.36288 0.86659 0.63032
 C2290 C 0.33753 0.87153 0.62254
 C2291 C 0.31940 0.85282 0.64201
 C2292 C 0.32595 0.82862 0.66979
 C2293 C 0.35118 0.82343 0.67775
 C2294 C 0.36961 0.84221 0.65832
 C2295 C 0.41343 0.85504 0.64815
 C2296 C 0.39465 0.83676 0.66680
 H2297 H 0.43252 0.84993 0.65579
 H2298 H 0.39982 0.81810 0.68824
 H2299 H 0.44644 0.89241 0.60993
 H2300 H 0.39299 0.94740 0.54261
 H2301 H 0.30013 0.85734 0.63509
 H2302 H 0.35655 0.80484 0.69916
 H2303 H 0.35967 0.91701 0.57307
 H2304 H 0.33120 0.88967 0.60157
 C2305 C 0.36276 0.63310 0.63095
 C2306 C 0.36961 0.65829 0.65820
 C2307 C 0.35126 0.67755 0.67745
 C2308 C 0.32597 0.67211 0.67001
 C2309 C 0.31932 0.64718 0.64288
 C2310 C 0.33737 0.62797 0.62363
 C2311 C 0.38287 0.61302 0.61109
 C2312 C 0.37793 0.58732 0.58368
 C2313 C 0.39723 0.56933 0.56594
 C2314 C 0.42208 0.57635 0.57490
 C2315 C 0.42722 0.60190 0.60225
 C2316 C 0.40788 0.62017 0.62033
 C2317 C 0.39471 0.66410 0.66609
 C2318 C 0.41342 0.64548 0.64757
 H2319 H 0.40000 0.68338 0.68694
 H2320 H 0.43254 0.65098 0.65471
 H2321 H 0.35674 0.69672 0.69830
 H2322 H 0.30002 0.64241 0.63633
 H2323 H 0.39257 0.54982 0.54501
 H2324 H 0.44629 0.60757 0.60959
 H2325 H 0.33095 0.60930 0.60318
 H2326 H 0.35932 0.58061 0.57543
 C2327 C 0.11291 0.88764 0.61896
 C2328 C 0.11987 0.91125 0.59044
 C2329 C 0.10160 0.92925 0.56996
 C2330 C 0.07628 0.92390 0.57728
 C2331 C 0.06953 0.90035 0.60553
 C2332 C 0.08749 0.88251 0.62605
 C2333 C 0.13291 0.86881 0.64009
 C2334 C 0.12787 0.84504 0.66907
 C2335 C 0.14707 0.82728 0.68728
 C2336 C 0.17189 0.83274 0.67727
 C2337 C 0.17715 0.85706 0.64891
 C2338 C 0.15793 0.87500 0.63031
 C2339 C 0.14501 0.91659 0.58244
 C2340 C 0.16361 0.89877 0.60186
 H2341 H 0.15040 0.93466 0.56065
 H2342 H 0.18276 0.90362 0.59439
 H2343 H 0.10715 0.94733 0.54825
 H2344 H 0.05021 0.89569 0.61205
 H2345 H 0.14237 0.80893 0.70916
 H2346 H 0.19622 0.86163 0.64082
 H2347 H 0.08098 0.86480 0.64726
 H2348 H 0.10925 0.83951 0.67807
 C2349 C 0.38711 0.61599 0.88014
 C2350 C 0.38014 0.59168 0.90812
 C2351 C 0.39840 0.57260 0.92776
 C2352 C 0.42371 0.57742 0.92003
 C2353 C 0.43045 0.60150 0.89217
 C2354 C 0.41251 0.62047 0.87253
 C2355 C 0.36711 0.63595 0.85988
 C2356 C 0.37216 0.66075 0.83169
 C2357 C 0.35294 0.67880 0.81376
 C2358 C 0.32809 0.67271 0.82327
 C2359 C 0.32285 0.64795 0.85131
 C2360 C 0.34209 0.62964 0.86960
 C2361 C 0.35501 0.58662 0.91636
 C2362 C 0.33642 0.60518 0.89754
 H2363 H 0.34962 0.56803 0.93775
 H2364 H 0.31727 0.60032 0.90502
 H2365 H 0.39285 0.55411 0.94916
 H2366 H 0.44976 0.60578 0.88532
 H2367 H 0.35767 0.69765 0.79227
 H2368 H 0.30377 0.64297 0.85911
 H2369 H 0.41902 0.63848 0.85155
 H2370 H 0.39079 0.66673 0.82301
 C2371 C 0.11358 0.88681 0.88080
 C2372 C 0.12032 0.91164 0.90836
 C2373 C 0.10187 0.92987 0.92844
 C2374 C 0.07641 0.92352 0.92180
 C2375 C 0.07008 0.89822 0.89453
 C2376 C 0.08824 0.88031 0.87447
 C2377 C 0.13374 0.86812 0.85980
 C2378 C 0.12882 0.84379 0.83129
 C2379 C 0.14811 0.82630 0.81309
 C2380 C 0.17295 0.83250 0.82258
 C2381 C 0.17812 0.85742 0.85047
 C2382 C 0.15874 0.87525 0.86903
 C2383 C 0.14545 0.91795 0.91584
 C2384 C 0.16422 0.89999 0.89677
 H2385 H 0.15071 0.93688 0.93698
 H2386 H 0.18334 0.90561 0.90385
 H2387 H 0.10754 0.94896 0.94927
 H2388 H 0.05090 0.89210 0.88821
 H2389 H 0.14341 0.80758 0.79153
 H2390 H 0.19719 0.86266 0.85809
 H2391 H 0.08190 0.86136 0.85419
 H2392 H 0.11023 0.83770 0.82254
 C2393 C 0.11685 0.61142 0.88328
 C2394 C 0.09185 0.61924 0.87444
 C2395 C 0.07247 0.60219 0.89348
 C2396 C 0.07761 0.57746 0.92152
 C2397 C 0.10244 0.57009 0.93030
 C2398 C 0.12176 0.58676 0.91156
 C2399 C 0.13700 0.63007 0.86238
 C2400 C 0.16238 0.62360 0.86880
 C2401 C 0.18049 0.64233 0.84930
 C2402 C 0.17389 0.66803 0.82278
 C2403 C 0.14862 0.67408 0.81561
 C2404 C 0.13021 0.65533 0.83512
 C2405 C 0.08636 0.64409 0.84678
 C2406 C 0.10513 0.66188 0.82765
 H2407 H 0.06724 0.65010 0.83995
 H2408 H 0.09990 0.68110 0.80668
 H2409 H 0.05340 0.60817 0.88635
 H2410 H 0.10710 0.55120 0.95179
 H2411 H 0.19979 0.63691 0.85544
 H2412 H 0.14320 0.69366 0.79503
 H2413 H 0.14035 0.57991 0.91980
 H2414 H 0.16876 0.60436 0.88886
 C2415 C 0.38764 0.88331 0.88009
 C2416 C 0.38087 0.90772 0.90803
 C2417 C 0.39928 0.92630 0.92768
 C2418 C 0.42455 0.92089 0.92005
 C2419 C 0.43114 0.89662 0.89233
 C2420 C 0.41303 0.87812 0.87264
 C2421 C 0.36746 0.86400 0.85974
 C2422 C 0.37230 0.83931 0.83146
 C2423 C 0.35293 0.82180 0.81348
 C2424 C 0.32813 0.82833 0.82307
 C2425 C 0.32309 0.85306 0.85113
 C2426 C 0.34249 0.87085 0.86945
 C2427 C 0.35580 0.91340 0.91623
 C2428 C 0.33704 0.89533 0.89740
 H2429 H 0.35058 0.93207 0.93762
 H2430 H 0.31794 0.90063 0.90486
 H2431 H 0.39385 0.94493 0.94901
 H2432 H 0.45043 0.89190 0.88563
 H2433 H 0.35750 0.80297 0.79195
 H2434 H 0.30405 0.85840 0.85893
 H2435 H 0.41938 0.85991 0.85175
 H2436 H 0.39087 0.83302 0.82272
 C2437 C 0.49926 0.49639 0.76848
 C2438 C 0.49980 0.53124 0.78633
 C2439 C 0.50006 0.53235 0.82358
 C2440 C 0.49981 0.49909 0.84349
 C2441 C 0.49919 0.46466 0.82561
 C2442 C 0.49891 0.46325 0.78873
 C2443 C 0.49915 0.49630 0.72877
 C2444 C 0.49870 0.46307 0.70872
 C2445 C 0.49882 0.46430 0.67183
 C2446 C 0.49937 0.49865 0.65375
 C2447 C 0.49969 0.53201 0.67347
 C2448 C 0.49961 0.53106 0.71072
 C2449 C 0.50015 0.56470 0.76692
 C2450 C 0.50006 0.56462 0.72993
 H2451 H 0.50055 0.59141 0.78054
 H2452 H 0.50039 0.59126 0.71615
 H2453 H 0.50051 0.55918 0.83700
 H2454 H 0.49892 0.43847 0.84012
 H2455 H 0.49850 0.43806 0.65746
 H2456 H 0.50010 0.55878 0.65990
 H2457 H 0.49846 0.43587 0.77678
 H2458 H 0.49830 0.43574 0.72083
 C2459 C 0.75075 0.74711 0.47852
 C2460 C 0.74983 0.78189 0.46054
 C2461 C 0.74989 0.78294 0.42328
 C2462 C 0.75082 0.74966 0.40348
 C2463 C 0.75190 0.71530 0.42150
 C2464 C 0.75188 0.71396 0.45838
 C2465 C 0.75043 0.74708 0.51823
 C2466 C 0.75107 0.71389 0.53840
 C2467 C 0.75064 0.71519 0.57528
 C2468 C 0.74957 0.74954 0.59325
 C2469 C 0.74895 0.78285 0.57341
 C2470 C 0.74934 0.78185 0.53616
 C2471 C 0.74879 0.81537 0.47983
 C2472 C 0.74858 0.81535 0.51682
 H2473 H 0.74811 0.84203 0.46611
 H2474 H 0.74774 0.84200 0.53050
 H2475 H 0.74908 0.80972 0.40976
 H2476 H 0.75274 0.68911 0.40708
 H2477 H 0.75119 0.68897 0.58973
 H2478 H 0.74812 0.80962 0.58689
 H2479 H 0.75273 0.68663 0.47044
 H2480 H 0.75187 0.68656 0.52639
 C2481 C 0.61276 0.61863 0.61459
 C2482 C 0.61982 0.59345 0.58740
 C2483 C 0.60162 0.57558 0.56674
 C2484 C 0.57627 0.58251 0.57261
 C2485 C 0.56945 0.60824 0.59903
 C2486 C 0.58735 0.62604 0.61968
 C2487 C 0.63269 0.63642 0.63665
 C2488 C 0.62752 0.66083 0.66506
 C2489 C 0.64670 0.67732 0.68433
 C2490 C 0.67161 0.66997 0.67597
 C2491 C 0.67695 0.64496 0.64821
 C2492 C 0.65775 0.62817 0.62864
 C2493 C 0.64498 0.58618 0.58108
 C2494 C 0.66352 0.60334 0.60108
 H2495 H 0.65043 0.56701 0.56022
 H2496 H 0.68271 0.59693 0.59496
 H2497 H 0.60724 0.55593 0.54636
 H2498 H 0.55012 0.61437 0.60425
 H2499 H 0.64191 0.69628 0.70567
 H2500 H 0.69607 0.63886 0.64143
 H2501 H 0.58081 0.64536 0.63954
 H2502 H 0.60883 0.66773 0.67284
 C2503 C 0.88291 0.88183 0.60631
 C2504 C 0.90783 0.87598 0.61676
 C2505 C 0.92722 0.89390 0.59847
 C2506 C 0.92218 0.91781 0.56977
 C2507 C 0.89747 0.92278 0.55902
 C2508 C 0.87813 0.90507 0.57690
 C2509 C 0.86269 0.86323 0.62720
 C2510 C 0.83732 0.86824 0.61957
 C2511 C 0.81917 0.85062 0.63996
 C2512 C 0.82571 0.82745 0.66854
 C2513 C 0.85096 0.82226 0.67638
 C2514 C 0.86940 0.84003 0.65609
 C2515 C 0.91324 0.85260 0.64558
 C2516 C 0.89445 0.83489 0.66473
 H2517 H 0.93231 0.84798 0.65355
 H2518 H 0.89962 0.81712 0.68684
 H2519 H 0.94621 0.88970 0.60707
 H2520 H 0.89295 0.94073 0.53677
 H2521 H 0.79989 0.85512 0.63310
 H2522 H 0.85635 0.80450 0.69840
 H2523 H 0.85961 0.91022 0.56732
 H2524 H 0.83101 0.88571 0.59808
 C2525 C 0.88283 0.61763 0.60746
 C2526 C 0.90779 0.62398 0.61745
 C2527 C 0.92716 0.60584 0.59933
 C2528 C 0.92209 0.58117 0.57125
 C2529 C 0.89733 0.57549 0.56109
 C2530 C 0.87799 0.59342 0.57882
 C2531 C 0.86266 0.63676 0.62802
 C2532 C 0.83728 0.63161 0.62062
 C2533 C 0.81917 0.64971 0.64071
 C2534 C 0.82576 0.67351 0.66876
 C2535 C 0.85103 0.67892 0.67630
 C2536 C 0.86944 0.66071 0.65629
 C2537 C 0.91326 0.64814 0.64563
 C2538 C 0.89451 0.66617 0.66456
 H2539 H 0.93236 0.65311 0.65326
 H2540 H 0.89973 0.68452 0.68618
 H2541 H 0.94618 0.61056 0.60751
 H2542 H 0.89276 0.55688 0.53939
 H2543 H 0.79988 0.64502 0.63405
 H2544 H 0.85646 0.69721 0.69788
 H2545 H 0.85943 0.58771 0.56971
 H2546 H 0.83092 0.61369 0.59954
 C2547 C 0.61293 0.88272 0.61509
 C2548 C 0.61997 0.90852 0.58838
 C2549 C 0.60177 0.92635 0.56771
 C2550 C 0.57648 0.91869 0.57308
 C2551 C 0.56969 0.89232 0.59896
 C2552 C 0.58758 0.87457 0.61962
 C2553 C 0.63281 0.86499 0.63720
 C2554 C 0.62760 0.84013 0.66527
 C2555 C 0.64674 0.82358 0.68453
 C2556 C 0.67163 0.83134 0.67648
 C2557 C 0.67701 0.85690 0.64916
 C2558 C 0.65785 0.87376 0.62961
 C2559 C 0.64509 0.91640 0.58253
 C2560 C 0.66363 0.89918 0.60251
 H2561 H 0.65053 0.93605 0.56203
 H2562 H 0.68281 0.90600 0.59675
 H2563 H 0.60734 0.94649 0.54770
 H2564 H 0.55038 0.88560 0.60371
 H2565 H 0.64194 0.80422 0.70557
 H2566 H 0.69613 0.86335 0.64269
 H2567 H 0.58106 0.85468 0.63901
 H2568 H 0.60892 0.83291 0.67280
 C2569 C 0.88682 0.62081 0.88413
 C2570 C 0.87981 0.59422 0.91015
 C2571 C 0.89806 0.57526 0.92989
 C2572 C 0.92338 0.58240 0.92413
 C2573 C 0.93015 0.60933 0.89875
 C2574 C 0.91222 0.62827 0.87908
 C2575 C 0.86687 0.63977 0.86300
 C2576 C 0.87200 0.66589 0.83593
 C2577 C 0.85282 0.68275 0.81695
 C2578 C 0.82794 0.67414 0.82431
 C2579 C 0.82263 0.64801 0.85118
 C2580 C 0.84183 0.63077 0.87040
 C2581 C 0.85467 0.58657 0.91618
 C2582 C 0.83610 0.60455 0.89684
 H2583 H 0.84925 0.56632 0.93615
 H2584 H 0.81693 0.59764 0.90254
 H2585 H 0.89249 0.55466 0.94947
 H2586 H 0.94947 0.61567 0.89366
 H2587 H 0.85758 0.70277 0.79646
 H2588 H 0.80352 0.64101 0.85724
 H2589 H 0.91875 0.64846 0.85998
 H2590 H 0.89066 0.67373 0.82886
 C2591 C 0.61362 0.88169 0.88577
 C2592 C 0.62045 0.90755 0.91241
 C2593 C 0.60207 0.92561 0.93277
 C2594 C 0.57660 0.91824 0.92719
 C2595 C 0.57023 0.89133 0.90136
 C2596 C 0.58832 0.87347 0.88110
 C2597 C 0.63366 0.86395 0.86380
 C2598 C 0.62858 0.83931 0.83558
 C2599 C 0.64779 0.82298 0.81625
 C2600 C 0.67271 0.83065 0.82431
 C2601 C 0.67799 0.85588 0.85192
 C2602 C 0.65869 0.87263 0.87154
 C2603 C 0.64559 0.91527 0.91851
 C2604 C 0.66428 0.89797 0.89875
 H2605 H 0.65093 0.93492 0.93902
 H2606 H 0.68342 0.90476 0.90471
 H2607 H 0.60779 0.94574 0.95267
 H2608 H 0.55105 0.88411 0.89613
 H2609 H 0.64298 0.80393 0.79501
 H2610 H 0.69710 0.86228 0.85845
 H2611 H 0.58197 0.85335 0.86185
 H2612 H 0.60993 0.83219 0.82787
 C2613 C 0.61694 0.61540 0.88745
 C2614 C 0.59194 0.62223 0.87795
 C2615 C 0.57261 0.60530 0.89716
 C2616 C 0.57779 0.58158 0.92596
 C2617 C 0.60259 0.57578 0.93584
 C2618 C 0.62188 0.59242 0.91698
 C2619 C 0.63705 0.63308 0.86572
 C2620 C 0.66244 0.62672 0.87216
 C2621 C 0.68051 0.64435 0.85167
 C2622 C 0.67385 0.66883 0.82415
 C2623 C 0.64857 0.67470 0.81697
 C2624 C 0.63021 0.65696 0.83739
 C2625 C 0.58639 0.64578 0.84931
 C2626 C 0.60511 0.66300 0.82963
 H2627 H 0.56726 0.65113 0.84206
 H2628 H 0.59985 0.68117 0.80787
 H2629 H 0.55354 0.61017 0.88925
 H2630 H 0.60724 0.55795 0.95812
 H2631 H 0.69982 0.63913 0.85787
 H2632 H 0.64311 0.69331 0.79562
 H2633 H 0.64048 0.58676 0.92598
 H2634 H 0.66883 0.60832 0.89290
 C2635 C 0.88737 0.87947 0.88326
 C2636 C 0.88058 0.90527 0.91005
 C2637 C 0.89899 0.92393 0.92962
 C2638 C 0.92428 0.91729 0.92297
 C2639 C 0.93086 0.89114 0.89684
 C2640 C 0.91275 0.87249 0.87729
 C2641 C 0.86720 0.86084 0.86235
 C2642 C 0.87207 0.83550 0.83461
 C2643 C 0.85271 0.81890 0.81586
 C2644 C 0.82789 0.82702 0.82412
 C2645 C 0.82282 0.85239 0.85166
 C2646 C 0.84221 0.86935 0.87068
 C2647 C 0.85550 0.91246 0.91700
 C2648 C 0.83673 0.89479 0.89784
 H2649 H 0.85027 0.93211 0.93758
 H2650 H 0.81762 0.90132 0.90427
 H2651 H 0.89356 0.94390 0.94983
 H2652 H 0.95016 0.88528 0.89106
 H2653 H 0.85732 0.79948 0.79482
 H2654 H 0.80376 0.85897 0.85842
 H2655 H 0.91911 0.85290 0.85755
 H2656 H 0.89067 0.82806 0.82682
   
