data_POSCAR
  _audit_creation_date              2014-09-24
  _audit_creation_method            'ToBaCCo'
  _symmetry_space_group_name_H-M    'P1'
  _symmetry_Int_Tables_number       1
  _symmetry_cell_setting            triclinic
  loop_
  _symmetry_equiv_pos_as_xyz
 x,y,z
_cell_length_a 109.9428
_cell_length_b 109.9960
_cell_length_c 110.3701
_cell_angle_alpha 89.972300
_cell_angle_beta 89.976900
_cell_angle_gamma 89.946700
loop_
  _atom_site_label
  _atom_site_type_symbol
  _atom_site_fract_x
  _atom_site_fract_y
  _atom_site_fract_z
N1 N 0.35460 0.32089 0.32977
 N2 N 0.35449 0.32940 0.32141
 C3 C 0.36406 0.32776 0.31397
 C4 C 0.37055 0.31766 0.31785
 C5 C 0.36422 0.31355 0.32792
 H6 H 0.36618 0.33356 0.30636
 H7 H 0.36646 0.30586 0.33359
 Cu8 Cu 0.34202 0.34197 0.32131
 Cu9 Cu 0.34249 0.32014 0.34264
 Cu10 Cu 0.32018 0.34244 0.34263
 N11 N 0.32944 0.35443 0.32140
 N12 N 0.32093 0.35454 0.32975
 C13 C 0.31358 0.36415 0.32789
 C14 C 0.31769 0.37047 0.31782
 C15 C 0.32779 0.36398 0.31395
 H16 H 0.30589 0.36638 0.33357
 H17 H 0.33360 0.36610 0.30634
 N18 N 0.32098 0.32943 0.35489
 N19 N 0.32947 0.32095 0.35489
 C20 C 0.32771 0.31358 0.36448
 C21 C 0.31762 0.31759 0.37088
 C22 C 0.31360 0.32768 0.36448
 H23 H 0.33344 0.30592 0.36668
 H24 H 0.30594 0.33341 0.36667
 H25 H 0.32877 0.32873 0.33312
 H26 H 0.33857 0.33854 0.34286
 N27 N 0.35486 0.82111 -0.17047
 N28 N 0.35457 0.82943 -0.17900
 C29 C 0.36416 0.82781 -0.18643
 C30 C 0.37088 0.81790 -0.18236
 C31 C 0.36460 0.81390 -0.17218
 H32 H 0.36609 0.83352 -0.19415
 H33 H 0.36692 0.80638 -0.16632
 Cu34 Cu 0.34186 0.84175 -0.17949
 Cu35 Cu 0.34277 0.82038 -0.15761
 Cu36 Cu 0.32046 0.84261 -0.15765
 N37 N 0.32949 0.85442 -0.17904
 N38 N 0.32116 0.85469 -0.17052
 C39 C 0.31393 0.86441 -0.17224
 C40 C 0.31793 0.87070 -0.18241
 C41 C 0.32786 0.86400 -0.18647
 H42 H 0.30640 0.86672 -0.16638
 H43 H 0.33358 0.86594 -0.19419
 N44 N 0.32126 0.82963 -0.14538
 N45 N 0.32976 0.82116 -0.14536
 C46 C 0.32798 0.81377 -0.13580
 C47 C 0.31787 0.81775 -0.12943
 C48 C 0.31385 0.82784 -0.13582
 H49 H 0.33371 0.80609 -0.13362
 H50 H 0.30615 0.83354 -0.13366
 H51 H 0.32886 0.82868 -0.16715
 H52 H 0.33887 0.83874 -0.15783
 N53 N 0.85446 0.32138 -0.17031
 N54 N 0.85442 0.32995 -0.17860
 C55 C 0.86396 0.32827 -0.18607
 C56 C 0.87038 0.31810 -0.18226
 C57 C 0.86402 0.31398 -0.17221
 H58 H 0.86612 0.33411 -0.19364
 H59 H 0.86620 0.30624 -0.16658
 Cu60 Cu 0.84205 0.34262 -0.17856
 Cu61 Cu 0.84233 0.32060 -0.15746
 Cu62 Cu 0.82007 0.34297 -0.15742
 N63 N 0.82944 0.35504 -0.17855
 N64 N 0.82088 0.35511 -0.17025
 C65 C 0.81350 0.36469 -0.17213
 C66 C 0.81764 0.37109 -0.18218
 C67 C 0.82780 0.36460 -0.18601
 H68 H 0.80578 0.36683 -0.16645
 H69 H 0.83366 0.36668 -0.19358
 N70 N 0.82082 0.32990 -0.14521
 N71 N 0.82928 0.32139 -0.14523
 C72 C 0.82750 0.31399 -0.13567
 C73 C 0.81742 0.31801 -0.12926
 C74 C 0.81344 0.32813 -0.13563
 H75 H 0.83321 0.30631 -0.13349
 H76 H 0.80580 0.33389 -0.13340
 H77 H 0.82868 0.32930 -0.16699
 H78 H 0.83843 0.33897 -0.15707
 N79 N 0.85442 0.82110 0.32976
 N80 N 0.85435 0.82964 0.32144
 C81 C 0.86390 0.82797 0.31398
 C82 C 0.87035 0.81783 0.31782
 C83 C 0.86400 0.81372 0.32789
 H84 H 0.86605 0.83380 0.30640
 H85 H 0.86619 0.80599 0.33352
 Cu86 Cu 0.84191 0.84224 0.32145
 Cu87 Cu 0.84230 0.82032 0.34262
 Cu88 Cu 0.82002 0.84268 0.34264
 N89 N 0.82933 0.85471 0.32144
 N90 N 0.82080 0.85481 0.32978
 C91 C 0.81344 0.86439 0.32791
 C92 C 0.81754 0.87076 0.31783
 C93 C 0.82768 0.86425 0.31398
 H94 H 0.80574 0.86656 0.33361
 H95 H 0.83352 0.86631 0.30638
 N96 N 0.82079 0.82963 0.35487
 N97 N 0.82925 0.82112 0.35485
 C98 C 0.82748 0.81374 0.36443
 C99 C 0.81742 0.81779 0.37085
 C100 C 0.81342 0.82789 0.36447
 H101 H 0.83320 0.80607 0.36662
 H102 H 0.80579 0.83365 0.36669
 H103 H 0.82862 0.82897 0.33315
 H104 H 0.83840 0.83869 0.34298
 N105 N 0.64545 0.67912 0.32987
 N106 N 0.64579 0.67085 0.32130
 C107 C 0.63621 0.67248 0.31386
 C108 C 0.62948 0.68233 0.31798
 C109 C 0.63568 0.68630 0.32817
 H110 H 0.63427 0.66685 0.30609
 H111 H 0.63325 0.69377 0.33404
 Cu112 Cu 0.65849 0.65852 0.32079
 Cu113 Cu 0.65753 0.67983 0.34272
 Cu114 Cu 0.67982 0.65757 0.34271
 N115 N 0.67083 0.64582 0.32130
 N116 N 0.67911 0.64550 0.32986
 C117 C 0.68630 0.63574 0.32817
 C118 C 0.68232 0.62953 0.31798
 C119 C 0.67246 0.63625 0.31387
 H120 H 0.69378 0.63331 0.33403
 H121 H 0.66683 0.63430 0.30610
 N122 N 0.67903 0.67056 0.35497
 N123 N 0.67054 0.67903 0.35497
 C124 C 0.67230 0.68641 0.36455
 C125 C 0.68240 0.68240 0.37093
 C126 C 0.68641 0.67232 0.36453
 H127 H 0.66657 0.69407 0.36674
 H128 H 0.69409 0.66659 0.36671
 H129 H 0.67146 0.67149 0.33325
 H130 H 0.66139 0.66141 0.34250
 N131 N 0.64549 0.17879 -0.17025
 N132 N 0.64557 0.17023 -0.17855
 C133 C 0.63601 0.17189 -0.18601
 C134 C 0.62956 0.18204 -0.18217
 C135 C 0.63591 0.18616 -0.17213
 H136 H 0.63387 0.16606 -0.19358
 H137 H 0.63371 0.19388 -0.16650
 Cu138 Cu 0.65796 0.15759 -0.17851
 Cu139 Cu 0.65763 0.17958 -0.15741
 Cu140 Cu 0.67994 0.15726 -0.15739
 N141 N 0.67059 0.14517 -0.17851
 N142 N 0.67915 0.14511 -0.17022
 C143 C 0.68655 0.13555 -0.17210
 C144 C 0.68243 0.12915 -0.18216
 C145 C 0.67225 0.13562 -0.18597
 H146 H 0.69427 0.13342 -0.16644
 H147 H 0.66639 0.13354 -0.19354
 N148 N 0.67917 0.17032 -0.14518
 N149 N 0.67069 0.17881 -0.14519
 C150 C 0.67246 0.18620 -0.13563
 C151 C 0.68255 0.18219 -0.12924
 C152 C 0.68656 0.17210 -0.13562
 H153 H 0.66673 0.19386 -0.13344
 H154 H 0.69422 0.16636 -0.13341
 H155 H 0.67129 0.17093 -0.16695
 H156 H 0.66156 0.16122 -0.15702
 N157 N 0.14537 0.67897 -0.17019
 N158 N 0.14571 0.67071 -0.17877
 C159 C 0.13613 0.67236 -0.18621
 C160 C 0.12941 0.68221 -0.18208
 C161 C 0.13561 0.68616 -0.17187
 H162 H 0.13419 0.66675 -0.19399
 H163 H 0.13317 0.69361 -0.16598
 Cu164 Cu 0.15838 0.65835 -0.17923
 Cu165 Cu 0.15744 0.67966 -0.15733
 Cu166 Cu 0.17970 0.65737 -0.15732
 N167 N 0.17072 0.64565 -0.17876
 N168 N 0.17898 0.64530 -0.17018
 C169 C 0.18615 0.63553 -0.17186
 C170 C 0.18218 0.62933 -0.18206
 C171 C 0.17235 0.63608 -0.18619
 H172 H 0.19360 0.63307 -0.16597
 H173 H 0.16673 0.63414 -0.19398
 N174 N 0.17891 0.67036 -0.14507
 N175 N 0.17044 0.67885 -0.14507
 C176 C 0.17223 0.68625 -0.13552
 C177 C 0.18233 0.68224 -0.12915
 C178 C 0.18632 0.67214 -0.13552
 H179 H 0.16652 0.69393 -0.13335
 H180 H 0.19400 0.66642 -0.13334
 H181 H 0.17139 0.67131 -0.16681
 H182 H 0.16131 0.66126 -0.15755
 N183 N 0.14542 0.17902 0.32979
 N184 N 0.14576 0.17076 0.32122
 C185 C 0.13618 0.17241 0.31378
 C186 C 0.12946 0.18225 0.31791
 C187 C 0.13566 0.18620 0.32811
 H188 H 0.13424 0.16678 0.30600
 H189 H 0.13322 0.19367 0.33399
 Cu190 Cu 0.15846 0.15844 0.32071
 Cu191 Cu 0.15750 0.17972 0.34265
 Cu192 Cu 0.17978 0.15747 0.34264
 N193 N 0.17080 0.14574 0.32121
 N194 N 0.17908 0.14541 0.32977
 C195 C 0.18627 0.13566 0.32807
 C196 C 0.18231 0.12946 0.31787
 C197 C 0.17245 0.13618 0.31376
 H198 H 0.19375 0.13323 0.33394
 H199 H 0.16681 0.13424 0.30599
 N200 N 0.17898 0.17045 0.35490
 N201 N 0.17049 0.17892 0.35491
 C202 C 0.17225 0.18630 0.36448
 C203 C 0.18234 0.18229 0.37087
 C204 C 0.18636 0.17221 0.36447
 H205 H 0.16651 0.19396 0.36667
 H206 H 0.19404 0.16649 0.36666
 H207 H 0.17143 0.17138 0.33318
 H208 H 0.16136 0.16130 0.34242
 N209 N 0.64535 0.32108 0.67026
 N210 N 0.64540 0.32964 0.67855
 C211 C 0.63585 0.32798 0.68602
 C212 C 0.62942 0.31783 0.68220
 C213 C 0.63579 0.31370 0.67216
 H214 H 0.63369 0.33382 0.69359
 H215 H 0.63361 0.30597 0.66653
 Cu216 Cu 0.65778 0.34228 0.67853
 Cu217 Cu 0.65750 0.32027 0.65743
 Cu218 Cu 0.67982 0.34254 0.65743
 N219 N 0.67045 0.35463 0.67856
 N220 N 0.67902 0.35468 0.67026
 C221 C 0.68641 0.36423 0.67216
 C222 C 0.68228 0.37059 0.68220
 C223 C 0.67211 0.36417 0.68602
 H224 H 0.69415 0.36640 0.66653
 H225 H 0.66627 0.36634 0.69359
 N226 N 0.67906 0.32949 0.64522
 N227 N 0.67057 0.32102 0.64522
 C228 C 0.67235 0.31363 0.63565
 C229 C 0.68245 0.31763 0.62926
 C230 C 0.68645 0.32771 0.63565
 H231 H 0.66661 0.30599 0.63345
 H232 H 0.69411 0.33344 0.63344
 H233 H 0.67115 0.32890 0.66700
 H234 H 0.66145 0.33862 0.65705
 N235 N 0.64538 0.82109 1.17027
 N236 N 0.64543 0.82965 1.17857
 C237 C 0.63588 0.82800 1.18603
 C238 C 0.62944 0.81786 1.18220
 C239 C 0.63580 0.81372 1.17216
 H240 H 0.63372 0.83383 1.19360
 H241 H 0.63362 0.80600 1.16653
 Cu242 Cu 0.65780 0.84229 1.17854
 Cu243 Cu 0.65753 0.82028 1.15744
 Cu244 Cu 0.67983 0.84256 1.15743
 N245 N 0.67046 0.85464 1.17856
 N246 N 0.67902 0.85469 1.17026
 C247 C 0.68641 0.86424 1.17215
 C248 C 0.68229 0.87059 1.18220
 C249 C 0.67213 0.86417 1.18603
 H250 H 0.69415 0.86642 1.16652
 H251 H 0.66629 0.86632 1.19360
 N252 N 0.67908 0.82950 1.14522
 N253 N 0.67060 0.82103 1.14522
 C254 C 0.67238 0.81364 1.13567
 C255 C 0.68248 0.81763 1.12928
 C256 C 0.68648 0.82772 1.13566
 H257 H 0.66665 0.80599 1.13347
 H258 H 0.69413 0.83345 1.13346
 H259 H 0.67119 0.82892 1.16701
 H260 H 0.66147 0.83864 1.15706
 N261 N 0.14534 0.32118 1.17027
 N262 N 0.14539 0.32975 1.17855
 C263 C 0.13583 0.32811 1.18601
 C264 C 0.12940 0.31796 1.18220
 C265 C 0.13577 0.31381 1.17216
 H266 H 0.13367 0.33395 1.19358
 H267 H 0.13359 0.30608 1.16654
 Cu268 Cu 0.15776 0.34239 1.17852
 Cu269 Cu 0.15749 0.32037 1.15744
 Cu270 Cu 0.17979 0.34266 1.15741
 N271 N 0.17042 0.35474 1.17853
 N272 N 0.17898 0.35479 1.17023
 C273 C 0.18636 0.36435 1.17211
 C274 C 0.18222 0.37071 1.18215
 C275 C 0.17207 0.36428 1.18599
 H276 H 0.19409 0.36654 1.16648
 H277 H 0.16623 0.36644 1.19356
 N278 N 0.17903 0.32960 1.14521
 N279 N 0.17056 0.32112 1.14523
 C280 C 0.17234 0.31372 1.13567
 C281 C 0.18243 0.31772 1.12927
 C282 C 0.18643 0.32781 1.13564
 H283 H 0.16661 0.30606 1.13348
 H284 H 0.19408 0.33355 1.13343
 H285 H 0.17115 0.32903 1.16701
 H286 H 0.16144 0.33874 1.15705
 N287 N 0.14540 0.82111 0.67027
 N288 N 0.14546 0.82967 0.67857
 C289 C 0.13591 0.82801 0.68604
 C290 C 0.12948 0.81786 0.68221
 C291 C 0.13584 0.81373 0.67216
 H292 H 0.13374 0.83384 0.69360
 H293 H 0.13367 0.80600 0.66654
 Cu294 Cu 0.15785 0.84230 0.67854
 Cu295 Cu 0.15753 0.82033 0.65742
 Cu296 Cu 0.17983 0.84262 0.65739
 N297 N 0.17048 0.85467 0.67855
 N298 N 0.17904 0.85473 0.67024
 C299 C 0.18643 0.86429 0.67212
 C300 C 0.18230 0.87064 0.68217
 C301 C 0.17215 0.86421 0.68601
 H302 H 0.19416 0.86646 0.66649
 H303 H 0.16632 0.86637 0.69358
 N304 N 0.17905 0.82959 0.64516
 N305 N 0.17057 0.82111 0.64517
 C306 C 0.17233 0.81374 0.63559
 C307 C 0.18241 0.81776 0.62918
 C308 C 0.18642 0.82783 0.63557
 H309 H 0.16660 0.80609 0.63339
 H310 H 0.19406 0.83357 0.63336
 H311 H 0.17121 0.82897 0.66695
 H312 H 0.16146 0.83870 0.65705
 N313 N 0.35471 0.67901 0.67027
 N314 N 0.35469 0.67041 0.67853
 C315 C 0.36425 0.67204 0.68598
 C316 C 0.37065 0.68223 0.68219
 C317 C 0.36426 0.68640 0.67218
 H318 H 0.36644 0.66617 0.69352
 H319 H 0.36640 0.69417 0.66659
 Cu320 Cu 0.34228 0.65780 0.67851
 Cu321 Cu 0.34255 0.67983 0.65744
 Cu322 Cu 0.32026 0.65752 0.65744
 N323 N 0.32969 0.64537 0.67852
 N324 N 0.32109 0.64536 0.67026
 C325 C 0.31370 0.63580 0.67215
 C326 C 0.31787 0.62940 0.68216
 C327 C 0.32805 0.63579 0.68595
 H328 H 0.30593 0.63366 0.66656
 H329 H 0.33392 0.63360 0.69349
 N330 N 0.32101 0.67060 0.64524
 N331 N 0.32949 0.67908 0.64523
 C332 C 0.32772 0.68646 0.63565
 C333 C 0.31764 0.68245 0.62926
 C334 C 0.31363 0.67237 0.63566
 H335 H 0.33346 0.69410 0.63344
 H336 H 0.30599 0.66663 0.63344
 H337 H 0.32894 0.67113 0.66694
 H338 H 0.33867 0.66143 0.65700
 N339 N 0.35471 0.17893 1.17028
 N340 N 0.35439 0.17065 1.17884
 C341 C 0.36396 0.17227 1.18628
 C342 C 0.37068 0.18211 1.18217
 C343 C 0.36446 0.18610 1.17197
 H344 H 0.36592 0.16662 1.19405
 H345 H 0.36689 0.19358 1.16610
 Cu346 Cu 0.34171 0.15832 1.17932
 Cu347 Cu 0.34263 0.17965 1.15741
 Cu348 Cu 0.32038 0.15740 1.15741
 N349 N 0.32937 0.14565 1.17884
 N350 N 0.32109 0.14534 1.17028
 C351 C 0.31392 0.13559 1.17197
 C352 C 0.31790 0.12937 1.18216
 C353 C 0.32774 0.13608 1.18628
 H354 H 0.30645 0.13317 1.16610
 H355 H 0.33338 0.13412 1.19405
 N356 N 0.32117 0.17039 1.14515
 N357 N 0.32964 0.17887 1.14515
 C358 C 0.32787 0.18625 1.13558
 C359 C 0.31778 0.18225 1.12919
 C360 C 0.31378 0.17216 1.13558
 H361 H 0.33358 0.19393 1.13339
 H362 H 0.30611 0.16645 1.13340
 H363 H 0.32870 0.17130 1.16689
 H364 H 0.33877 0.16124 1.15762
 N365 N 0.85474 0.67893 1.17024
 N366 N 0.85473 0.67032 1.17849
 C367 C 0.86431 0.67193 1.18591
 C368 C 0.87070 0.68213 1.18213
 C369 C 0.86429 0.68631 1.17213
 H370 H 0.86651 0.66605 1.19343
 H371 H 0.86643 0.69409 1.16655
 Cu372 Cu 0.84230 0.65774 1.17848
 Cu373 Cu 0.84257 0.67978 1.15744
 Cu374 Cu 0.82026 0.65748 1.15744
 N375 N 0.82971 0.64531 1.17849
 N376 N 0.82110 0.64531 1.17024
 C377 C 0.81372 0.63575 1.17213
 C378 C 0.81790 0.62934 1.18213
 C379 C 0.82809 0.63573 1.18592
 H380 H 0.80595 0.63361 1.16655
 H381 H 0.83397 0.63352 1.19344
 N382 N 0.82101 0.67057 1.14525
 N383 N 0.82948 0.67905 1.14525
 C384 C 0.82773 0.68642 1.13567
 C385 C 0.81765 0.68242 1.12927
 C386 C 0.81364 0.67234 1.13566
 H387 H 0.83348 0.69406 1.13345
 H388 H 0.80601 0.66659 1.13344
 H389 H 0.82899 0.67104 1.16689
 H390 H 0.83870 0.66134 1.15694
 N391 N 0.85464 0.17896 0.67025
 N392 N 0.85435 0.17066 0.67880
 C393 C 0.86394 0.17228 0.68622
 C394 C 0.87061 0.18217 0.68213
 C395 C 0.86438 0.18616 0.67195
 H396 H 0.86592 0.16661 0.69396
 H397 H 0.86674 0.19369 0.66612
 Cu398 Cu 0.84163 0.15837 0.67939
 Cu399 Cu 0.84253 0.17970 0.65744
 Cu400 Cu 0.82031 0.15744 0.65743
 N401 N 0.82938 0.14563 0.67879
 N402 N 0.82108 0.14533 0.67024
 C403 C 0.81390 0.13558 0.67194
 C404 C 0.81790 0.12935 0.68212
 C405 C 0.82777 0.13604 0.68621
 H406 H 0.80638 0.13320 0.66611
 H407 H 0.83343 0.13406 0.69396
 N408 N 0.82106 0.17046 0.64520
 N409 N 0.82952 0.17894 0.64521
 C410 C 0.82777 0.18630 0.63561
 C411 C 0.81771 0.18227 0.62920
 C412 C 0.81370 0.17220 0.63561
 H413 H 0.83351 0.19395 0.63341
 H414 H 0.80606 0.16645 0.63340
 H415 H 0.82866 0.17128 0.66687
 H416 H 0.83877 0.16121 0.65765
 N417 N 0.32100 0.35461 0.67023
 N418 N 0.32950 0.35449 0.67859
 C419 C 0.32784 0.36405 0.68603
 C420 C 0.31775 0.37055 0.68213
 C421 C 0.31366 0.36423 0.67206
 H422 H 0.33363 0.36616 0.69365
 H423 H 0.30599 0.36647 0.66638
 Cu424 Cu 0.34207 0.34201 0.67872
 Cu425 Cu 0.32025 0.34249 0.65739
 Cu426 Cu 0.34255 0.32018 0.65740
 N427 N 0.35453 0.32941 0.67862
 N428 N 0.35465 0.32092 0.67026
 C429 C 0.36427 0.31358 0.67209
 C430 C 0.37059 0.31767 0.68216
 C431 C 0.36409 0.32775 0.68606
 H432 H 0.36652 0.30591 0.66640
 H433 H 0.36620 0.33354 0.69368
 N434 N 0.32952 0.32098 0.64516
 N435 N 0.32104 0.32946 0.64516
 C436 C 0.31366 0.32771 0.63558
 C437 C 0.31768 0.31763 0.62918
 C438 C 0.32777 0.31362 0.63558
 H439 H 0.30600 0.33344 0.63338
 H440 H 0.33351 0.30596 0.63338
 H441 H 0.32883 0.32876 0.66693
 H442 H 0.33865 0.33856 0.65717
 N443 N 0.32106 0.85474 0.17004
 N444 N 0.32934 0.85442 0.17860
 C445 C 0.32771 0.86400 0.18602
 C446 C 0.31785 0.87073 0.18190
 C447 C 0.31388 0.86451 0.17171
 H448 H 0.33334 0.86596 0.19379
 H449 H 0.30640 0.86693 0.16584
 Cu450 Cu 0.34168 0.84172 0.17910
 Cu451 Cu 0.32036 0.84265 0.15719
 Cu452 Cu 0.34263 0.82038 0.15722
 N453 N 0.35437 0.82937 0.17864
 N454 N 0.35470 0.82109 0.17009
 C455 C 0.36446 0.81390 0.17179
 C456 C 0.37067 0.81788 0.18198
 C457 C 0.36394 0.82774 0.18608
 H458 H 0.36689 0.80642 0.16593
 H459 H 0.36589 0.83338 0.19385
 N460 N 0.32964 0.82117 0.14496
 N461 N 0.32116 0.82965 0.14495
 C462 C 0.31378 0.82788 0.13537
 C463 C 0.31780 0.81779 0.12899
 C464 C 0.32789 0.81379 0.13539
 H465 H 0.30611 0.83361 0.13318
 H466 H 0.33362 0.80612 0.13320
 H467 H 0.32870 0.82873 0.16668
 H468 H 0.33877 0.83878 0.15741
 N469 N 0.82100 0.35479 0.17002
 N470 N 0.82956 0.35471 0.17832
 C471 C 0.82790 0.36426 0.18578
 C472 C 0.81775 0.37071 0.18195
 C473 C 0.81362 0.36436 0.17190
 H474 H 0.83374 0.36641 0.19335
 H475 H 0.80589 0.36655 0.16628
 Cu476 Cu 0.84218 0.34229 0.17832
 Cu477 Cu 0.82020 0.34264 0.15720
 Cu478 Cu 0.84251 0.32031 0.15721
 N479 N 0.85457 0.32965 0.17835
 N480 N 0.85464 0.32109 0.17005
 C481 C 0.86421 0.31370 0.17194
 C482 C 0.87056 0.31782 0.18199
 C483 C 0.86412 0.32797 0.18581
 H484 H 0.86640 0.30597 0.16631
 H485 H 0.86627 0.33381 0.19338
 N486 N 0.82945 0.32109 0.14499
 N487 N 0.82096 0.32958 0.14499
 C488 C 0.81358 0.32782 0.13542
 C489 C 0.81760 0.31774 0.12903
 C490 C 0.82769 0.31372 0.13542
 H491 H 0.80593 0.33356 0.13321
 H492 H 0.83343 0.30607 0.13321
 H493 H 0.82883 0.32895 0.16676
 H494 H 0.83856 0.33866 0.15684
 N495 N 0.82102 0.85495 0.67016
 N496 N 0.82959 0.85490 0.67845
 C497 C 0.82793 0.86445 0.68590
 C498 C 0.81776 0.87088 0.68207
 C499 C 0.81363 0.86452 0.67204
 H500 H 0.83377 0.86662 0.69346
 H501 H 0.80588 0.86668 0.66643
 Cu502 Cu 0.84221 0.84248 0.67845
 Cu503 Cu 0.82021 0.84280 0.65734
 Cu504 Cu 0.84253 0.82049 0.65736
 N505 N 0.85462 0.82985 0.67848
 N506 N 0.85467 0.82128 0.67019
 C507 C 0.86423 0.81388 0.67208
 C508 C 0.87060 0.81801 0.68212
 C509 C 0.86417 0.82818 0.68593
 H510 H 0.86640 0.80613 0.66648
 H511 H 0.86634 0.83402 0.69349
 N512 N 0.82947 0.82125 0.64515
 N513 N 0.82098 0.82974 0.64514
 C514 C 0.81360 0.82797 0.63557
 C515 C 0.81761 0.81788 0.62919
 C516 C 0.82770 0.81387 0.63558
 H517 H 0.80594 0.83371 0.63336
 H518 H 0.83344 0.80621 0.63338
 H519 H 0.82886 0.82917 0.66688
 H520 H 0.83859 0.83887 0.65695
 N521 N 0.67792 0.64449 0.66934
 N522 N 0.66993 0.64502 0.67817
 C523 C 0.67221 0.63601 0.68611
 C524 C 0.68216 0.62940 0.68202
 C525 C 0.68553 0.63511 0.67132
 H526 H 0.66693 0.63433 0.69419
 H527 H 0.69281 0.63255 0.66527
 Cu528 Cu 0.65698 0.65711 0.67820
 Cu529 Cu 0.67747 0.65556 0.65562
 Cu530 Cu 0.65766 0.67998 0.65784
 N531 N 0.64505 0.67017 0.67844
 N532 N 0.64549 0.67917 0.67063
 C533 C 0.63615 0.68679 0.67273
 C534 C 0.62942 0.68235 0.68240
 C535 C 0.63540 0.67178 0.68579
 H536 H 0.63432 0.69486 0.66745
 H537 H 0.63286 0.66560 0.69296
 N538 N 0.67052 0.67893 0.64544
 N539 N 0.67788 0.66951 0.64446
 C540 C 0.68525 0.67121 0.63485
 C541 C 0.68234 0.68221 0.62944
 C542 C 0.67296 0.68684 0.63645
 H543 H 0.69208 0.66479 0.63193
 H544 H 0.66814 0.69528 0.63504
 H545 H 0.67092 0.66946 0.66632
 H546 H 0.65946 0.66160 0.65660
 N547 N 0.67916 0.14515 0.17019
 N548 N 0.67068 0.14528 0.17857
 C549 C 0.67233 0.13572 0.18602
 C550 C 0.68240 0.12920 0.18210
 C551 C 0.68649 0.13552 0.17201
 H552 H 0.66655 0.13361 0.19364
 H553 H 0.69416 0.13327 0.16631
 Cu554 Cu 0.65812 0.15776 0.17867
 Cu555 Cu 0.67993 0.15727 0.15734
 Cu556 Cu 0.65762 0.17959 0.15736
 N557 N 0.64564 0.17033 0.17860
 N558 N 0.64551 0.17882 0.17023
 C559 C 0.63588 0.18615 0.17207
 C560 C 0.62956 0.18205 0.18215
 C561 C 0.63608 0.17198 0.18606
 H562 H 0.63363 0.19381 0.16638
 H563 H 0.63397 0.16618 0.19367
 N564 N 0.67065 0.17880 0.14512
 N565 N 0.67914 0.17032 0.14511
 C566 C 0.68651 0.17207 0.13552
 C567 C 0.68249 0.18216 0.12912
 C568 C 0.67241 0.18618 0.13553
 H569 H 0.69416 0.16633 0.13331
 H570 H 0.66667 0.19384 0.13333
 H571 H 0.67135 0.17101 0.16684
 H572 H 0.66154 0.16123 0.15711
 N573 N 0.17889 0.64527 0.16998
 N574 N 0.17032 0.64532 0.17827
 C575 C 0.17197 0.63577 0.18574
 C576 C 0.18213 0.62934 0.18192
 C577 C 0.18628 0.63570 0.17188
 H578 H 0.16613 0.63363 0.19331
 H579 H 0.19402 0.63351 0.16627
 Cu580 Cu 0.15767 0.65772 0.17826
 Cu581 Cu 0.17971 0.65743 0.15716
 Cu582 Cu 0.15740 0.67975 0.15718
 N583 N 0.14528 0.67037 0.17829
 N584 N 0.14523 0.67895 0.17000
 C585 C 0.13566 0.68634 0.17191
 C586 C 0.12930 0.68220 0.18195
 C587 C 0.13573 0.67203 0.18576
 H588 H 0.13348 0.69409 0.16630
 H589 H 0.13358 0.66619 0.19333
 N590 N 0.17048 0.67900 0.14497
 N591 N 0.17897 0.67051 0.14497
 C592 C 0.18637 0.67230 0.13541
 C593 C 0.18238 0.68241 0.12903
 C594 C 0.17228 0.68641 0.13542
 H595 H 0.19404 0.66657 0.13321
 H596 H 0.16655 0.69408 0.13322
 H597 H 0.17108 0.67107 0.16675
 H598 H 0.16137 0.66139 0.15680
 N599 N 0.17884 0.14498 0.67026
 N600 N 0.17026 0.14502 0.67855
 C601 C 0.17192 0.13547 0.68600
 C602 C 0.18209 0.12904 0.68219
 C603 C 0.18623 0.13541 0.67215
 H604 H 0.16608 0.13331 0.69357
 H605 H 0.19398 0.13324 0.66653
 Cu606 Cu 0.15761 0.15741 0.67854
 Cu607 Cu 0.17966 0.15714 0.65745
 Cu608 Cu 0.15734 0.17945 0.65747
 N609 N 0.14524 0.17007 0.67858
 N610 N 0.14519 0.17865 0.67030
 C611 C 0.13563 0.18604 0.67221
 C612 C 0.12926 0.18190 0.68225
 C613 C 0.13569 0.17173 0.68605
 H614 H 0.13345 0.19379 0.66659
 H615 H 0.13353 0.16588 0.69361
 N616 N 0.17042 0.17870 0.64526
 N617 N 0.17890 0.17022 0.64526
 C618 C 0.18630 0.17201 0.63569
 C619 C 0.18229 0.18211 0.62932
 C620 C 0.17220 0.18611 0.63571
 H621 H 0.19396 0.16627 0.63348
 H622 H 0.16646 0.19377 0.63351
 H623 H 0.17101 0.17076 0.66704
 H624 H 0.16131 0.16108 0.65707
 N625 N 0.32092 0.64534 0.32966
 N626 N 0.32948 0.64540 0.32135
 C627 C 0.32782 0.63585 0.31389
 C628 C 0.31767 0.62942 0.31773
 C629 C 0.31354 0.63578 0.32777
 H630 H 0.33366 0.63369 0.30632
 H631 H 0.30580 0.63360 0.33340
 Cu632 Cu 0.34212 0.65778 0.32137
 Cu633 Cu 0.32013 0.65747 0.34249
 Cu634 Cu 0.34242 0.67977 0.34248
 N635 N 0.35451 0.67041 0.32134
 N636 N 0.35456 0.67897 0.32964
 C637 C 0.36412 0.68635 0.32775
 C638 C 0.37049 0.68222 0.31771
 C639 C 0.36407 0.67207 0.31389
 H640 H 0.36629 0.69409 0.33337
 H641 H 0.36624 0.66623 0.30633
 N642 N 0.32935 0.67901 0.35470
 N643 N 0.32088 0.67052 0.35471
 C644 C 0.31351 0.67228 0.36430
 C645 C 0.31752 0.68236 0.37069
 C646 C 0.32759 0.68638 0.36428
 H647 H 0.30587 0.66654 0.36652
 H648 H 0.33333 0.69402 0.36648
 H649 H 0.32876 0.67115 0.33292
 H650 H 0.33849 0.66143 0.34285
 N651 N 0.32099 0.14520 0.82972
 N652 N 0.32949 0.14532 0.82136
 C653 C 0.32786 0.13576 0.81392
 C654 C 0.31776 0.12927 0.81780
 C655 C 0.31365 0.13560 0.82787
 H656 H 0.33367 0.13363 0.80632
 H657 H 0.30596 0.13337 0.83355
 Cu658 Cu 0.34206 0.15778 0.82127
 Cu659 Cu 0.32023 0.15729 0.84260
 Cu660 Cu 0.34252 0.17958 0.84260
 N661 N 0.35453 0.17034 0.82138
 N662 N 0.35463 0.17884 0.82973
 C663 C 0.36423 0.18618 0.82789
 C664 C 0.37057 0.18208 0.81782
 C665 C 0.36410 0.17199 0.81394
 H666 H 0.36645 0.19386 0.83356
 H667 H 0.36623 0.16618 0.80634
 N668 N 0.32949 0.17877 0.85485
 N669 N 0.32102 0.17029 0.85486
 C670 C 0.31365 0.17204 0.86445
 C671 C 0.31765 0.18210 0.87085
 C672 C 0.32773 0.18613 0.86445
 H673 H 0.30599 0.16630 0.86664
 H674 H 0.33345 0.19379 0.86664
 H675 H 0.32880 0.17102 0.83309
 H676 H 0.33862 0.16120 0.84282
 N677 N 0.82109 0.64518 0.82977
 N678 N 0.82964 0.64525 0.82146
 C679 C 0.82797 0.63571 0.81399
 C680 C 0.81782 0.62928 0.81783
 C681 C 0.81371 0.63562 0.82788
 H682 H 0.83380 0.63357 0.80640
 H683 H 0.80597 0.63344 0.83351
 Cu684 Cu 0.84227 0.65764 0.82146
 Cu685 Cu 0.82028 0.65731 0.84261
 Cu686 Cu 0.84255 0.67962 0.84257
 N687 N 0.85464 0.67028 0.82143
 N688 N 0.85469 0.67884 0.82973
 C689 C 0.86424 0.68623 0.82783
 C690 C 0.87060 0.68212 0.81778
 C691 C 0.86418 0.67196 0.81396
 H692 H 0.86641 0.69396 0.83345
 H693 H 0.86635 0.66613 0.80638
 N694 N 0.82950 0.67885 0.85480
 N695 N 0.82103 0.67037 0.85482
 C696 C 0.81365 0.67213 0.86440
 C697 C 0.81765 0.68222 0.87078
 C698 C 0.82773 0.68623 0.86437
 H699 H 0.80601 0.66639 0.86662
 H700 H 0.83346 0.69389 0.86656
 H701 H 0.82889 0.67098 0.83303
 H702 H 0.83863 0.66127 0.84294
 N703 N 0.82107 0.14516 0.32974
 N704 N 0.82962 0.14523 0.32142
 C705 C 0.82796 0.13569 0.31396
 C706 C 0.81782 0.12925 0.31780
 C707 C 0.81370 0.13559 0.32786
 H708 H 0.83379 0.13355 0.30637
 H709 H 0.80597 0.13340 0.33350
 Cu710 Cu 0.84225 0.15762 0.32144
 Cu711 Cu 0.82028 0.15728 0.34258
 Cu712 Cu 0.84254 0.17959 0.34257
 N713 N 0.85462 0.17028 0.32141
 N714 N 0.85467 0.17882 0.32972
 C715 C 0.86422 0.18622 0.32783
 C716 C 0.87058 0.18211 0.31777
 C717 C 0.86416 0.17196 0.31394
 H718 H 0.86639 0.19395 0.33346
 H719 H 0.86633 0.16614 0.30636
 N720 N 0.82949 0.17881 0.35480
 N721 N 0.82103 0.17032 0.35481
 C722 C 0.81364 0.17209 0.36439
 C723 C 0.81763 0.18217 0.37077
 C724 C 0.82771 0.18619 0.36437
 H725 H 0.80599 0.16635 0.36660
 H726 H 0.83343 0.19385 0.36656
 H727 H 0.82888 0.17097 0.33302
 H728 H 0.83863 0.16125 0.34292
 N729 N 0.67899 0.35461 0.32963
 N730 N 0.67049 0.35451 0.32127
 C731 C 0.67214 0.36408 0.31382
 C732 C 0.68223 0.37057 0.31772
 C733 C 0.68632 0.36422 0.32779
 H734 H 0.66635 0.36620 0.30621
 H735 H 0.69399 0.36645 0.33349
 Cu736 Cu 0.65792 0.34205 0.32116
 Cu737 Cu 0.67975 0.34250 0.34248
 Cu738 Cu 0.65747 0.32021 0.34248
 N739 N 0.64546 0.32948 0.32127
 N740 N 0.64536 0.32098 0.32963
 C741 C 0.63576 0.31363 0.32779
 C742 C 0.62942 0.31772 0.31772
 C743 C 0.63590 0.32782 0.31382
 H744 H 0.63354 0.30596 0.33348
 H745 H 0.63377 0.33361 0.30621
 N746 N 0.67049 0.32099 0.35472
 N747 N 0.67897 0.32947 0.35473
 C748 C 0.68634 0.32771 0.36431
 C749 C 0.68233 0.31763 0.37071
 C750 C 0.67225 0.31362 0.36431
 H751 H 0.69399 0.33344 0.36652
 H752 H 0.66652 0.30596 0.36651
 H753 H 0.67118 0.32879 0.33295
 H754 H 0.66135 0.33859 0.34271
 N755 N 0.67890 0.85472 0.82970
 N756 N 0.67062 0.85442 0.82114
 C757 C 0.67225 0.86399 0.81370
 C758 C 0.68211 0.87070 0.81781
 C759 C 0.68608 0.86448 0.82801
 H760 H 0.66661 0.86595 0.80593
 H761 H 0.69356 0.86689 0.83387
 Cu762 Cu 0.65828 0.84173 0.82066
 Cu763 Cu 0.67961 0.84265 0.84257
 Cu764 Cu 0.65735 0.82041 0.84261
 N765 N 0.64559 0.82940 0.82117
 N766 N 0.64527 0.82113 0.82974
 C767 C 0.63551 0.81396 0.82806
 C768 C 0.62930 0.81793 0.81787
 C769 C 0.63601 0.82777 0.81374
 H770 H 0.63309 0.80649 0.83394
 H771 H 0.63405 0.83340 0.80596
 N772 N 0.67035 0.82119 0.85486
 N773 N 0.67883 0.82966 0.85484
 C774 C 0.68621 0.82789 0.86442
 C775 C 0.68221 0.81781 0.87082
 C776 C 0.67212 0.81382 0.86444
 H777 H 0.69389 0.83361 0.86659
 H778 H 0.66639 0.80615 0.86664
 H779 H 0.67123 0.82872 0.83312
 H780 H 0.66117 0.83880 0.84237
 N781 N 0.17889 0.35468 0.82972
 N782 N 0.17033 0.35462 0.82141
 C783 C 0.17200 0.36416 0.81394
 C784 C 0.18216 0.37059 0.81777
 C785 C 0.18628 0.36423 0.82782
 H786 H 0.16617 0.36632 0.80637
 H787 H 0.19401 0.36641 0.83345
 Cu788 Cu 0.15768 0.34226 0.82144
 Cu789 Cu 0.17966 0.34256 0.84258
 Cu790 Cu 0.15736 0.32028 0.84258
 N791 N 0.14530 0.32961 0.82142
 N792 N 0.14524 0.32106 0.82973
 C793 C 0.13568 0.31368 0.82784
 C794 C 0.12933 0.31780 0.81779
 C795 C 0.13576 0.32795 0.81395
 H796 H 0.13350 0.30595 0.83347
 H797 H 0.13360 0.33378 0.80638
 N798 N 0.17040 0.32104 0.85481
 N799 N 0.17889 0.32951 0.85481
 C800 C 0.18626 0.32775 0.86440
 C801 C 0.18224 0.31767 0.87080
 C802 C 0.17216 0.31367 0.86440
 H803 H 0.19391 0.33348 0.86660
 H804 H 0.16642 0.30602 0.86661
 H805 H 0.17105 0.32890 0.83300
 H806 H 0.16132 0.33862 0.84292
 N807 N 0.17879 0.85485 0.32977
 N808 N 0.17019 0.85482 0.32151
 C809 C 0.17174 0.86445 0.31413
 C810 C 0.18193 0.87086 0.31790
 C811 C 0.18613 0.86445 0.32789
 H812 H 0.16583 0.86667 0.30663
 H813 H 0.19394 0.86656 0.33343
 Cu814 Cu 0.15769 0.84230 0.32152
 Cu815 Cu 0.17975 0.84258 0.34249
 Cu816 Cu 0.15740 0.82025 0.34252
 N817 N 0.14516 0.82980 0.32154
 N818 N 0.14513 0.82121 0.32981
 C819 C 0.13553 0.81386 0.32794
 C820 C 0.12912 0.81806 0.31796
 C821 C 0.13553 0.82824 0.31416
 H822 H 0.13342 0.80606 0.33350
 H823 H 0.13331 0.83415 0.30666
 N824 N 0.17062 0.82090 0.35460
 N825 N 0.17911 0.82937 0.35458
 C826 C 0.18648 0.82760 0.36416
 C827 C 0.18246 0.81754 0.37058
 C828 C 0.17239 0.81352 0.36418
 H829 H 0.19409 0.83338 0.36640
 H830 H 0.16660 0.80592 0.36644
 H831 H 0.17100 0.82897 0.33319
 H832 H 0.16129 0.83869 0.34308
 O833 O 0.24866 1.01196 0.26529
 O834 O 0.26541 0.98816 0.24878
 O835 O 0.26548 1.01192 0.24881
 O836 O 0.24861 0.98823 0.26531
 O837 O 0.23452 0.98828 0.25108
 O838 O 0.25139 1.01197 0.23458
 O839 O 0.25133 0.98821 0.23456
 O840 O 0.23457 1.01201 0.25106
 Cu841 Cu 0.25845 1.00006 0.25847
 Cu842 Cu 0.24155 1.00012 0.24139
 C843 C 0.23881 1.01615 0.26094
 C844 C 0.26118 0.98401 0.23890
 C845 C 0.26125 1.01611 0.23894
 C846 C 0.23874 0.98411 0.26097
 O847 O 0.25137 0.51191 0.73464
 O848 O 0.23456 0.48812 0.75108
 O849 O 0.23456 0.51189 0.75114
 O850 O 0.25139 0.48816 0.73462
 O851 O 0.26547 0.48812 0.74885
 O852 O 0.24863 0.51185 0.76537
 O853 O 0.24864 0.48808 0.76531
 O854 O 0.26545 0.51188 0.74887
 Cu855 Cu 0.24156 0.50003 0.74144
 Cu856 Cu 0.25845 0.49998 0.75853
 C857 C 0.26122 0.51606 0.73900
 C858 C 0.23879 0.48392 0.76095
 C859 C 0.23878 0.51603 0.76103
 C860 C 0.26125 0.48397 0.73897
 O861 O 0.76562 0.01165 0.25121
 O862 O 0.74882 -0.01211 0.23475
 O863 O 0.74880 0.01164 0.23473
 O864 O 0.76560 -0.01212 0.25125
 O865 O 0.75151 -0.01209 0.26548
 O866 O 0.73470 0.01166 0.24896
 O867 O 0.73473 -0.01209 0.24898
 O868 O 0.75153 0.01167 0.26543
 Cu869 Cu 0.75862 -0.00024 0.24156
 Cu870 Cu 0.74171 -0.00021 0.25864
 C871 C 0.76138 0.01583 0.26107
 C872 C 0.73897 -0.01627 0.23911
 C873 C 0.73894 0.01582 0.23908
 C874 C 0.76136 -0.01628 0.26113
 O875 O 0.75137 0.48806 0.76537
 O876 O 0.73467 0.51190 0.74885
 O877 O 0.73459 0.48812 0.74886
 O878 O 0.75143 0.51182 0.76536
 O879 O 0.76554 0.51178 0.75116
 O880 O 0.74871 0.48807 0.73465
 O881 O 0.74878 0.51184 0.73464
 O882 O 0.76549 0.48802 0.75117
 Cu883 Cu 0.74160 0.49997 0.75853
 Cu884 Cu 0.75854 0.49992 0.74148
 C885 C 0.76122 0.48387 0.76104
 C886 C 0.73895 0.51607 0.73899
 C887 C 0.73884 0.48393 0.73900
 C888 C 0.76129 0.51596 0.76102
 O889 O 0.25133 0.48811 0.26538
 O890 O 0.23454 0.51188 0.24885
 O891 O 0.23455 0.48812 0.24886
 O892 O 0.25135 0.51187 0.26532
 O893 O 0.26545 0.51185 0.25110
 O894 O 0.24865 0.48810 0.23463
 O895 O 0.24864 0.51186 0.23462
 O896 O 0.26542 0.48809 0.25115
 Cu897 Cu 0.24153 0.50000 0.25853
 Cu898 Cu 0.25845 0.49997 0.24145
 C899 C 0.26118 0.48393 0.26103
 C900 C 0.23878 0.51604 0.23897
 C901 C 0.23879 0.48394 0.23899
 C902 C 0.26121 0.51603 0.26097
 O903 O 0.73442 0.98836 0.75126
 O904 O 0.75131 1.01205 0.73475
 O905 O 0.75124 0.98831 0.73478
 O906 O 0.73449 1.01213 0.75125
 O907 O 0.74857 1.01208 0.76548
 O908 O 0.76532 0.98825 0.74900
 O909 O 0.76539 1.01200 0.74898
 O910 O 0.74851 0.98831 0.76549
 Cu911 Cu 0.74146 1.00022 0.74159
 Cu912 Cu 0.75836 1.00016 0.75867
 C913 C 0.73865 0.98417 0.76114
 C914 C 0.76119 1.01617 0.73909
 C915 C 0.76108 0.98411 0.73913
 C916 C 0.73873 1.01628 0.76113
 O917 O 0.74862 0.51193 0.26542
 O918 O 0.76540 0.48816 0.24890
 O919 O 0.76542 0.51191 0.24891
 O920 O 0.74858 0.48817 0.26538
 O921 O 0.73449 0.48822 0.25116
 O922 O 0.75133 0.51196 0.23468
 O923 O 0.75131 0.48821 0.23468
 O924 O 0.73453 0.51198 0.25120
 Cu925 Cu 0.75841 0.50004 0.25858
 Cu926 Cu 0.74151 0.50010 0.24150
 C927 C 0.73877 0.51612 0.26108
 C928 C 0.76116 0.48401 0.23902
 C929 C 0.76120 0.51610 0.23903
 C930 C 0.73872 0.48403 0.26103
 O931 O 0.24885 -0.01209 0.73479
 O932 O 0.26569 0.01162 0.75128
 O933 O 0.26567 -0.01215 0.75126
 O934 O 0.24886 0.01166 0.73481
 O935 O 0.23480 0.01166 0.74906
 O936 O 0.25160 -0.01216 0.76551
 O937 O 0.25162 0.01161 0.76553
 O938 O 0.23478 -0.01210 0.74904
 Cu939 Cu 0.25868 -0.00024 0.74161
 Cu940 Cu 0.24179 -0.00025 0.75871
 C941 C 0.23901 -0.01626 0.73916
 C942 C 0.26147 0.01577 0.76116
 C943 C 0.26145 -0.01633 0.76113
 C944 C 0.23902 0.01584 0.73919
 O945 O 0.23453 0.25126 1.01188
 O946 O 0.25117 0.23453 0.98819
 O947 O 0.25122 0.23456 1.01188
 O948 O 0.23450 0.25124 0.98821
 O949 O 0.24869 0.26539 0.98816
 O950 O 0.26541 0.24871 1.01183
 O951 O 0.26536 0.24869 0.98814
 O952 O 0.24872 0.26541 1.01183
 Cu953 Cu 0.24144 0.24148 1.00005
 Cu954 Cu 0.25847 0.25847 0.99999
 C955 C 0.23883 0.26114 1.01600
 C956 C 0.26105 0.23881 0.98401
 C957 C 0.26111 0.23885 1.01601
 C958 C 0.23879 0.26111 0.98404
 O959 O 0.24881 0.76547 0.48806
 O960 O 0.26546 0.74883 0.51181
 O961 O 0.26548 0.74877 0.48813
 O962 O 0.24877 0.76553 0.51175
 O963 O 0.23458 0.75137 0.51178
 O964 O 0.25128 0.73461 0.48817
 O965 O 0.25126 0.73467 0.51184
 O966 O 0.23462 0.75131 0.48810
 Cu967 Cu 0.25855 0.75857 0.49994
 Cu968 Cu 0.24151 0.74157 0.49998
 C969 C 0.23893 0.76117 0.48391
 C970 C 0.26115 0.73896 0.51598
 C971 C 0.26117 0.73889 0.48401
 C972 C 0.23888 0.76125 0.51591
 O973 O 0.23475 0.74881 -0.01201
 O974 O 0.25143 0.76549 0.01165
 O975 O 0.25143 0.76549 -0.01203
 O976 O 0.23474 0.74883 0.01166
 O977 O 0.24893 0.73464 0.01168
 O978 O 0.26562 0.75130 -0.01202
 O979 O 0.26562 0.75131 0.01166
 O980 O 0.24894 0.73463 -0.01200
 Cu981 Cu 0.24167 0.75858 -0.00018
 Cu982 Cu 0.25870 0.74155 -0.00017
 C983 C 0.23905 0.73892 -0.01615
 C984 C 0.26131 0.76120 0.01580
 C985 C 0.26131 0.76119 -0.01618
 C986 C 0.23904 0.73895 0.01582
 O987 O 0.26536 0.25114 0.48826
 O988 O 0.24869 0.23446 0.51195
 O989 O 0.24869 0.23446 0.48827
 O990 O 0.26536 0.25114 0.51194
 O991 O 0.25116 0.26531 0.51194
 O992 O 0.23449 0.24864 0.48827
 O993 O 0.23449 0.24863 0.51195
 O994 O 0.25116 0.26532 0.48826
 Cu995 Cu 0.25845 0.24138 0.50010
 Cu996 Cu 0.24140 0.25840 0.50011
 C997 C 0.26105 0.26102 0.48411
 C998 C 0.23880 0.23875 0.51610
 C999 C 0.23880 0.23876 0.48412
 C1000 C 0.26105 0.26102 0.51609
 O1001 O 0.74881 0.76543 0.98811
 O1002 O 0.76549 0.74873 1.01180
 O1003 O 0.76549 0.74872 0.98813
 O1004 O 0.74881 0.76544 1.01180
 O1005 O 0.73462 0.75128 1.01182
 O1006 O 0.75129 0.73457 0.98815
 O1007 O 0.75129 0.73458 1.01183
 O1008 O 0.73462 0.75127 0.98814
 Cu1009 Cu 0.75857 0.75850 0.99996
 Cu1010 Cu 0.74153 0.74151 0.99998
 C1011 C 0.73892 0.76115 0.98397
 C1012 C 0.76119 0.73886 1.01596
 C1013 C 0.76118 0.73884 0.98399
 C1014 C 0.73892 0.76116 1.01596
 O1015 O 0.74872 0.26534 0.48811
 O1016 O 0.76541 0.24865 0.51179
 O1017 O 0.76538 0.24862 0.48811
 O1018 O 0.74873 0.26534 0.51179
 O1019 O 0.73453 0.25119 0.51182
 O1020 O 0.75119 0.23446 0.48814
 O1021 O 0.75121 0.23449 0.51182
 O1022 O 0.73452 0.25119 0.48814
 Cu1023 Cu 0.75848 0.25840 0.49994
 Cu1024 Cu 0.74144 0.24142 0.49998
 C1025 C 0.73883 0.26106 0.48398
 C1026 C 0.76110 0.23878 0.51596
 C1027 C 0.76107 0.23874 0.48398
 C1028 C 0.73884 0.26106 0.51596
 O1029 O 0.76539 0.25137 -0.01193
 O1030 O 0.74879 0.23460 0.01175
 O1031 O 0.74879 0.23462 -0.01192
 O1032 O 0.76540 0.25134 0.01174
 O1033 O 0.75115 0.26546 0.01176
 O1034 O 0.73454 0.24875 -0.01191
 O1035 O 0.73454 0.24873 0.01176
 O1036 O 0.75114 0.26549 -0.01191
 Cu1037 Cu 0.75852 0.24157 -0.00009
 Cu1038 Cu 0.74141 0.25852 -0.00007
 C1039 C 0.76104 0.26124 -0.01607
 C1040 C 0.73888 0.23886 0.01591
 C1041 C 0.73888 0.23888 -0.01607
 C1042 C 0.76106 0.26120 0.01590
 O1043 O 0.76536 0.75133 0.48826
 O1044 O 0.74880 0.73462 0.51201
 O1045 O 0.74873 0.73461 0.48832
 O1046 O 0.76542 0.75135 0.51193
 O1047 O 0.75119 0.76549 0.51196
 O1048 O 0.73449 0.74875 0.48835
 O1049 O 0.73457 0.74876 0.51204
 O1050 O 0.75113 0.76547 0.48829
 Cu1051 Cu 0.75850 0.74156 0.50013
 Cu1052 Cu 0.74142 0.75853 0.50016
 C1053 C 0.76102 0.76120 0.48412
 C1054 C 0.73892 0.73890 0.51620
 C1055 C 0.73882 0.73889 0.48419
 C1056 C 0.76110 0.76122 0.51608
 O1057 O 0.98815 0.25145 0.23464
 O1058 O 1.01190 0.23462 0.25116
 O1059 O 0.98813 0.23459 0.25108
 O1060 O 1.01192 0.25144 0.23467
 O1061 O 1.01188 0.26549 0.24891
 O1062 O 0.98808 0.24865 0.26532
 O1063 O 1.01185 0.24867 0.26540
 O1064 O 0.98810 0.26550 0.24889
 Cu1065 Cu 1.00004 0.24162 0.24146
 Cu1066 Cu 0.99997 0.25848 0.25856
 C1067 C 0.98395 0.26128 0.23900
 C1068 C 1.01604 0.23883 0.26105
 C1069 C 0.98393 0.23881 0.26095
 C1070 C 1.01607 0.26128 0.23904
 O1071 O 0.51193 0.26531 0.74896
 O1072 O 0.48815 0.24849 0.76541
 O1073 O 0.51192 0.24849 0.76543
 O1074 O 0.48816 0.26533 0.74894
 O1075 O 0.48819 0.25127 0.73470
 O1076 O 0.51194 0.23444 0.75119
 O1077 O 0.48817 0.23443 0.75116
 O1078 O 0.51196 0.25125 0.73472
 Cu1079 Cu 0.50003 0.25831 0.75861
 Cu1080 Cu 0.50007 0.24144 0.74151
 C1081 C 0.51612 0.26109 0.73909
 C1082 C 0.48399 0.23864 0.76104
 C1083 C 0.51610 0.23865 0.76107
 C1084 C 0.48401 0.26112 0.73906
 O1085 O -0.01202 0.26548 0.75113
 O1086 O 0.01179 0.24863 0.73472
 O1087 O -0.01198 0.24862 0.73469
 O1088 O 0.01176 0.26546 0.75116
 O1089 O 0.01174 0.25142 0.76543
 O1090 O -0.01199 0.23457 0.74896
 O1091 O 0.01177 0.23459 0.74899
 O1092 O -0.01204 0.25144 0.76540
 Cu1093 Cu -0.00012 0.25845 0.74150
 Cu1094 Cu -0.00014 0.24160 0.75863
 C1095 C -0.01620 0.26128 0.76102
 C1096 C 0.01595 0.23879 0.73911
 C1097 C -0.01613 0.23877 0.73906
 C1098 C 0.01592 0.26125 0.76104
 O1099 O 0.48815 0.26526 0.25114
 O1100 O 0.51193 0.24844 0.23466
 O1101 O 0.48816 0.24849 0.23462
 O1102 O 0.51191 0.26531 0.25107
 O1103 O 0.51193 0.25125 0.26532
 O1104 O 0.48817 0.23443 0.24887
 O1105 O 0.51194 0.23438 0.24891
 O1106 O 0.48816 0.25120 0.26539
 Cu1107 Cu 0.50004 0.25828 0.24144
 Cu1108 Cu 0.50005 0.24141 0.25855
 C1109 C 0.48399 0.26105 0.26103
 C1110 C 0.51611 0.23860 0.23902
 C1111 C 0.48400 0.23865 0.23899
 C1112 C 0.51609 0.26110 0.26095
 O1113 O 0.98814 0.75149 0.73468
 O1114 O 1.01191 0.73465 0.75117
 O1115 O 0.98814 0.73464 0.75113
 O1116 O 1.01191 0.75148 0.73470
 O1117 O 1.01188 0.76553 0.74894
 O1118 O 0.98810 0.74869 0.76538
 O1119 O 1.01187 0.74870 0.76542
 O1120 O 0.98811 0.76554 0.74893
 Cu1121 Cu 1.00003 0.74166 0.74149
 Cu1122 Cu 0.99999 0.75852 0.75859
 C1123 C 0.98395 0.76132 0.73905
 C1124 C 1.01606 0.73886 0.76105
 C1125 C 0.98394 0.73885 0.76100
 C1126 C 1.01607 0.76132 0.73907
 O1127 O 0.51191 0.73462 0.25121
 O1128 O 0.48817 0.75142 0.23466
 O1129 O 0.51194 0.75141 0.23471
 O1130 O 0.48814 0.73460 0.25113
 O1131 O 0.48808 0.74867 0.26537
 O1132 O 0.51189 0.76548 0.24894
 O1133 O 0.48812 0.76549 0.24890
 O1134 O 0.51186 0.74868 0.26545
 Cu1135 Cu 0.50005 0.74161 0.24150
 Cu1136 Cu 0.49998 0.75849 0.25859
 C1137 C 0.51605 0.73884 0.26110
 C1138 C 0.48398 0.76127 0.23901
 C1139 C 0.51609 0.76126 0.23908
 C1140 C 0.48394 0.73882 0.26100
 O1141 O -0.01204 0.76554 0.25111
 O1142 O 0.01181 0.74877 0.23467
 O1143 O -0.01196 0.74869 0.23467
 O1144 O 0.01171 0.76556 0.25118
 O1145 O 0.01172 0.75149 0.26543
 O1146 O -0.01194 0.73462 0.24892
 O1147 O 0.01183 0.73470 0.24892
 O1148 O -0.01202 0.75147 0.26536
 Cu1149 Cu -0.00012 0.75854 0.24148
 Cu1150 Cu -0.00010 0.74166 0.25858
 C1151 C -0.01620 0.76131 0.26099
 C1152 C 0.01599 0.73893 0.23903
 C1153 C -0.01611 0.73884 0.23904
 C1154 C 0.01586 0.76135 0.26107
 O1155 O 0.48796 0.76564 0.75124
 O1156 O 0.51176 0.74885 0.73477
 O1157 O 0.48799 0.74883 0.73476
 O1158 O 0.51174 0.76565 0.75124
 O1159 O 0.51174 0.75158 0.76549
 O1160 O 0.48800 0.73476 0.74901
 O1161 O 0.51177 0.73478 0.74901
 O1162 O 0.48796 0.75157 0.76548
 Cu1163 Cu 0.49986 0.75865 0.74158
 Cu1164 Cu 0.49987 0.74177 0.75868
 C1165 C 0.48379 0.76142 0.76111
 C1166 C 0.51594 0.73900 0.73913
 C1167 C 0.48384 0.73899 0.73913
 C1168 C 0.51591 0.76143 0.76112
 C1169 C 0.39807 0.31317 0.29743
 C1170 C 0.40354 0.30297 0.30268
 C1171 C 0.39824 0.29753 0.31284
 C1172 C 0.38752 0.30227 0.31776
 C1173 C 0.38191 0.31255 0.31257
 C1174 C 0.38734 0.31793 0.30232
 C1175 C 0.41455 0.29804 0.29761
 C1176 C 0.42373 0.29383 0.29334
 C1177 C 0.43439 0.28879 0.28829
 C1178 C 0.44341 0.28437 0.28391
 C1179 C 0.45402 0.27891 0.27855
 C1180 C 0.45909 0.26842 0.28365
 C1181 C 0.46901 0.26274 0.27810
 C1182 C 0.47400 0.26749 0.26734
 C1183 C 0.46897 0.27818 0.26241
 C1184 C 0.45905 0.28383 0.26798
 H1185 H 0.40208 0.31744 0.28954
 H1186 H 0.40240 0.28961 0.31697
 H1187 H 0.38368 0.29783 0.32562
 H1188 H 0.38336 0.32582 0.29802
 H1189 H 0.45525 0.26452 0.29182
 H1190 H 0.47265 0.25453 0.28212
 H1191 H 0.47258 0.28206 0.25414
 H1192 H 0.45518 0.29195 0.26394
 C1193 C 0.39785 0.81358 0.79744
 C1194 C 0.40342 0.80350 0.80281
 C1195 C 0.39820 0.79818 0.81306
 C1196 C 0.38747 0.80290 0.81796
 C1197 C 0.38171 0.81309 0.81267
 C1198 C 0.38711 0.81834 0.80230
 C1199 C 0.41441 0.79854 0.79772
 C1200 C 0.42357 0.79430 0.79344
 C1201 C 0.43420 0.78922 0.78837
 C1202 C 0.44319 0.78476 0.78396
 C1203 C 0.45379 0.77927 0.77858
 C1204 C 0.45882 0.76876 0.78367
 C1205 C 0.46876 0.76308 0.77813
 C1206 C 0.47377 0.76784 0.76740
 C1207 C 0.46877 0.77854 0.76247
 C1208 C 0.45883 0.78420 0.76803
 H1209 H 0.40181 0.81777 0.78947
 H1210 H 0.40243 0.79034 0.81727
 H1211 H 0.38378 0.79847 0.82589
 H1212 H 0.38314 0.82614 0.79784
 H1213 H 0.45497 0.76486 0.79183
 H1214 H 0.47238 0.75486 0.78215
 H1215 H 0.47239 0.78243 0.75421
 H1216 H 0.45498 0.79232 0.76399
 C1217 C -0.10220 0.31345 0.79723
 C1218 C -0.09672 0.30328 0.80252
 C1219 C -0.10200 0.29789 0.81272
 C1220 C -0.11270 0.30267 0.81764
 C1221 C -0.11830 0.31294 0.81243
 C1222 C -0.11290 0.31826 0.80214
 C1223 C -0.08572 0.29831 0.79745
 C1224 C -0.07655 0.29409 0.79319
 C1225 C -0.06588 0.28904 0.78816
 C1226 C -0.05685 0.28461 0.78379
 C1227 C -0.04622 0.27915 0.77845
 C1228 C -0.04117 0.26866 0.78357
 C1229 C -0.03123 0.26298 0.77805
 C1230 C -0.02621 0.26773 0.76730
 C1231 C -0.03122 0.27842 0.76236
 C1232 C -0.04116 0.28408 0.76790
 H1233 H -0.09820 0.31769 0.78931
 H1234 H -0.09784 0.28998 0.81687
 H1235 H -0.11650 0.29828 0.82554
 H1236 H -0.11688 0.32613 0.79782
 H1237 H -0.04503 0.26476 0.79172
 H1238 H -0.02760 0.25477 0.78208
 H1239 H -0.02758 0.28230 0.75410
 H1240 H -0.04501 0.29219 0.76386
 C1241 C -0.10193 0.79774 0.31292
 C1242 C -0.09681 0.80296 0.30255
 C1243 C -0.10243 0.81297 0.29711
 C1244 C -0.11311 0.81779 0.30204
 C1245 C -0.11835 0.81265 0.31251
 C1246 C -0.11260 0.80254 0.31787
 C1247 C -0.08581 0.79802 0.29749
 C1248 C -0.07662 0.79384 0.29323
 C1249 C -0.06592 0.78886 0.28820
 C1250 C -0.05687 0.78450 0.28383
 C1251 C -0.04622 0.77910 0.27849
 C1252 C -0.04119 0.78405 0.26794
 C1253 C -0.03124 0.77842 0.26238
 C1254 C -0.02621 0.76774 0.26730
 C1255 C -0.03118 0.76297 0.27805
 C1256 C -0.04113 0.76862 0.28360
 H1257 H -0.09765 0.78996 0.31720
 H1258 H -0.09856 0.81707 0.28906
 H1259 H -0.11721 0.82554 0.29760
 H1260 H -0.11628 0.79829 0.32591
 H1261 H -0.04507 0.79216 0.26392
 H1262 H -0.02763 0.78233 0.25412
 H1263 H -0.02753 0.75477 0.28208
 H1264 H -0.04496 0.76471 0.29176
 C1265 C 0.60187 0.68669 0.29769
 C1266 C 0.59642 0.69692 0.30290
 C1267 C 0.60175 0.70240 0.31302
 C1268 C 0.61249 0.69768 0.31791
 C1269 C 0.61807 0.68737 0.31275
 C1270 C 0.61261 0.68194 0.30256
 C1271 C 0.58542 0.70187 0.29782
 C1272 C 0.57627 0.70609 0.29354
 C1273 C 0.56562 0.71115 0.28846
 C1274 C 0.55663 0.71558 0.28405
 C1275 C 0.54602 0.72104 0.27866
 C1276 C 0.54094 0.73153 0.28374
 C1277 C 0.53101 0.73718 0.27817
 C1278 C 0.52604 0.73242 0.26743
 C1279 C 0.53109 0.72174 0.26252
 C1280 C 0.54102 0.71610 0.26810
 H1281 H 0.59782 0.68239 0.28984
 H1282 H 0.59762 0.71034 0.31712
 H1283 H 0.61636 0.70216 0.32572
 H1284 H 0.61655 0.67402 0.29830
 H1285 H 0.54476 0.73544 0.29190
 H1286 H 0.52735 0.74540 0.28218
 H1287 H 0.52750 0.71784 0.25425
 H1288 H 0.54490 0.70799 0.26408
 C1289 C 0.60211 0.18664 0.79736
 C1290 C 0.59663 0.19681 0.80264
 C1291 C 0.60189 0.20219 0.81284
 C1292 C 0.61260 0.19743 0.81776
 C1293 C 0.61822 0.18717 0.81254
 C1294 C 0.61282 0.18184 0.80225
 C1295 C 0.58564 0.20177 0.79757
 C1296 C 0.57647 0.20600 0.79330
 C1297 C 0.56581 0.21104 0.78825
 C1298 C 0.55680 0.21546 0.78386
 C1299 C 0.54616 0.22089 0.77852
 C1300 C 0.54109 0.23138 0.78361
 C1301 C 0.53112 0.23702 0.77809
 C1302 C 0.52612 0.23224 0.76737
 C1303 C 0.53116 0.22156 0.76244
 C1304 C 0.54112 0.21594 0.76798
 H1305 H 0.59812 0.18240 0.78944
 H1306 H 0.59773 0.21009 0.81700
 H1307 H 0.61640 0.20182 0.82565
 H1308 H 0.61681 0.17398 0.79794
 H1309 H 0.54493 0.23530 0.79176
 H1310 H 0.52748 0.24523 0.78211
 H1311 H 0.52753 0.21765 0.75419
 H1312 H 0.54499 0.20783 0.76395
 C1313 C 1.10160 0.68641 0.79786
 C1314 C 1.09631 0.69680 0.80293
 C1315 C 1.10180 0.70243 0.81287
 C1316 C 1.11255 0.69771 0.81774
 C1317 C 1.11799 0.68725 0.81272
 C1318 C 1.11235 0.68167 0.80271
 C1319 C 1.08532 0.70176 0.79785
 C1320 C 1.07618 0.70599 0.79355
 C1321 C 1.06556 0.71107 0.78845
 C1322 C 1.05659 0.71553 0.78401
 C1323 C 1.04601 0.72102 0.77860
 C1324 C 1.04095 0.73152 0.78368
 C1325 C 1.03103 0.73720 0.77811
 C1326 C 1.02606 0.73243 0.76737
 C1327 C 1.03109 0.72175 0.76245
 C1328 C 1.04101 0.71609 0.76803
 H1329 H 1.09743 0.68199 0.79014
 H1330 H 1.09779 0.71049 0.81685
 H1331 H 1.11657 0.70233 0.82540
 H1332 H 1.11618 0.67362 0.79858
 H1333 H 1.04477 0.73542 0.79184
 H1334 H 1.02739 0.74541 0.78213
 H1335 H 1.02749 0.71786 0.75418
 H1336 H 1.04488 0.70798 0.76402
 C1337 C 1.10184 0.18666 0.29763
 C1338 C 1.09640 0.19688 0.30286
 C1339 C 1.10174 0.20235 0.31298
 C1340 C 1.11247 0.19761 0.31786
 C1341 C 1.11805 0.18731 0.31269
 C1342 C 1.11258 0.18190 0.30249
 C1343 C 1.08540 0.20184 0.29778
 C1344 C 1.07624 0.20607 0.29350
 C1345 C 1.06560 0.21112 0.28842
 C1346 C 1.05660 0.21556 0.28401
 C1347 C 1.04600 0.22101 0.27861
 C1348 C 1.04091 0.23150 0.28369
 C1349 C 1.03099 0.23716 0.27813
 C1350 C 1.02603 0.23240 0.26738
 C1351 C 1.03108 0.22173 0.26246
 C1352 C 1.04101 0.21608 0.26804
 H1353 H 1.09779 0.18236 0.28977
 H1354 H 1.09761 0.21029 0.31709
 H1355 H 1.11635 0.20209 0.32567
 H1356 H 1.11652 0.17398 0.29823
 H1357 H 1.04473 0.23540 0.29187
 H1358 H 1.02733 0.24537 0.28214
 H1359 H 1.02749 0.21784 0.25419
 H1360 H 1.04489 0.20798 0.26402
 C1361 C 0.60201 0.31319 0.70272
 C1362 C 0.59654 0.30302 0.69743
 C1363 C 0.60182 0.29764 0.68722
 C1364 C 0.61251 0.30242 0.68229
 C1365 C 0.61810 0.31268 0.68750
 C1366 C 0.61271 0.31799 0.69781
 C1367 C 0.58557 0.29804 0.70252
 C1368 C 0.57642 0.29381 0.70681
 C1369 C 0.56577 0.28875 0.71188
 C1370 C 0.55677 0.28433 0.71628
 C1371 C 0.54616 0.27888 0.72164
 C1372 C 0.54111 0.26838 0.71655
 C1373 C 0.53117 0.26273 0.72208
 C1374 C 0.52614 0.26751 0.73280
 C1375 C 0.53115 0.27818 0.73773
 C1376 C 0.54110 0.28382 0.73219
 H1377 H 0.59802 0.31740 0.71065
 H1378 H 0.59767 0.28975 0.68307
 H1379 H 0.61631 0.29804 0.67439
 H1380 H 0.61668 0.32585 0.70213
 H1381 H 0.54497 0.26447 0.70840
 H1382 H 0.52754 0.25452 0.71806
 H1383 H 0.52752 0.28208 0.74598
 H1384 H 0.54496 0.29192 0.73622
 C1385 C 0.60202 0.81327 0.20271
 C1386 C 0.59653 0.80311 0.19742
 C1387 C 0.60179 0.79774 0.18720
 C1388 C 0.61249 0.80249 0.18227
 C1389 C 0.61811 0.81273 0.18750
 C1390 C 0.61272 0.81805 0.19780
 C1391 C 0.58555 0.79816 0.20251
 C1392 C 0.57639 0.79394 0.20679
 C1393 C 0.56575 0.78889 0.21187
 C1394 C 0.55674 0.78447 0.21627
 C1395 C 0.54613 0.77903 0.22163
 C1396 C 0.54107 0.76855 0.21653
 C1397 C 0.53112 0.76290 0.22206
 C1398 C 0.52611 0.76767 0.23279
 C1399 C 0.53113 0.77834 0.23773
 C1400 C 0.54108 0.78397 0.23218
 H1401 H 0.59803 0.81749 0.21064
 H1402 H 0.59762 0.78985 0.18304
 H1403 H 0.61629 0.79811 0.17437
 H1404 H 0.61671 0.82590 0.20213
 H1405 H 0.54492 0.76464 0.20837
 H1406 H 0.52748 0.75470 0.21803
 H1407 H 0.52751 0.78223 0.24599
 H1408 H 0.54495 0.79207 0.23622
 C1409 C 1.10177 0.29780 0.18722
 C1410 C 1.09651 0.30318 0.19743
 C1411 C 1.10199 0.31335 0.20271
 C1412 C 1.11268 0.31814 0.19780
 C1413 C 1.11807 0.31282 0.18750
 C1414 C 1.11247 0.30257 0.18228
 C1415 C 1.08553 0.29822 0.20252
 C1416 C 1.07638 0.29399 0.20681
 C1417 C 1.06574 0.28894 0.21187
 C1418 C 1.05673 0.28452 0.21626
 C1419 C 1.04611 0.27907 0.22162
 C1420 C 1.04107 0.28400 0.23217
 C1421 C 1.03111 0.27836 0.23771
 C1422 C 1.02609 0.26770 0.23276
 C1423 C 1.03110 0.26294 0.22202
 C1424 C 1.04105 0.26859 0.21651
 H1425 H 1.09762 0.28991 0.18306
 H1426 H 1.09799 0.31757 0.21064
 H1427 H 1.11667 0.32600 0.20212
 H1428 H 1.11627 0.29819 0.17438
 H1429 H 1.04493 0.29209 0.23622
 H1430 H 1.02748 0.28225 0.24597
 H1431 H 1.02747 0.25475 0.21799
 H1432 H 1.04491 0.26470 0.20834
 C1433 C 1.10221 0.81307 0.70288
 C1434 C 1.09659 0.80307 0.69744
 C1435 C 1.10171 0.79785 0.68707
 C1436 C 1.11240 0.80262 0.68214
 C1437 C 1.11815 0.81271 0.68751
 C1438 C 1.11291 0.81786 0.69797
 C1439 C 1.08560 0.79811 0.70252
 C1440 C 1.07644 0.79390 0.70681
 C1441 C 1.06578 0.78889 0.71188
 C1442 C 1.05676 0.78449 0.71627
 C1443 C 1.04613 0.77907 0.72163
 C1444 C 1.04106 0.76860 0.71652
 C1445 C 1.03110 0.76296 0.72204
 C1446 C 1.02609 0.76773 0.73278
 C1447 C 1.03112 0.77840 0.73772
 C1448 C 1.04108 0.78402 0.73217
 H1449 H 1.09833 0.81716 0.71093
 H1450 H 1.09744 0.79009 0.68279
 H1451 H 1.11609 0.79838 0.67410
 H1452 H 1.11701 0.82558 0.70242
 H1453 H 1.04490 0.76468 0.70837
 H1454 H 1.02745 0.75477 0.71801
 H1455 H 1.02749 0.78230 0.74597
 H1456 H 1.04495 0.79211 0.73621
 C1457 C 0.39818 0.70250 0.68728
 C1458 C 0.40344 0.69712 0.69749
 C1459 C 0.39799 0.68692 0.70275
 C1460 C 0.38733 0.68209 0.69781
 C1461 C 0.38194 0.68740 0.68751
 C1462 C 0.38752 0.69769 0.68232
 C1463 C 0.41440 0.70210 0.70259
 C1464 C 0.42354 0.70633 0.70688
 C1465 C 0.43419 0.71137 0.71194
 C1466 C 0.44320 0.71578 0.71633
 C1467 C 0.45383 0.72121 0.72167
 C1468 C 0.45887 0.71626 0.73222
 C1469 C 0.46882 0.72188 0.73776
 C1470 C 0.47384 0.73256 0.73283
 C1471 C 0.46884 0.73734 0.72209
 C1472 C 0.45889 0.73169 0.71657
 H1473 H 0.40231 0.71042 0.68314
 H1474 H 0.40198 0.68269 0.71068
 H1475 H 0.38337 0.67420 0.70211
 H1476 H 0.38372 0.70208 0.67441
 H1477 H 0.45501 0.70815 0.73626
 H1478 H 0.47245 0.71798 0.74601
 H1479 H 0.47247 0.74554 0.71806
 H1480 H 0.45504 0.73561 0.70841
 C1481 C 0.39830 0.18645 0.20244
 C1482 C 0.40373 0.19668 0.19722
 C1483 C 0.39839 0.20216 0.18710
 C1484 C 0.38765 0.19745 0.18221
 C1485 C 0.38208 0.18715 0.18738
 C1486 C 0.38756 0.18171 0.19757
 C1487 C 0.41470 0.20164 0.20230
 C1488 C 0.42385 0.20587 0.20659
 C1489 C 0.43447 0.21094 0.21167
 C1490 C 0.44345 0.21538 0.21608
 C1491 C 0.45404 0.22084 0.22147
 C1492 C 0.45910 0.23133 0.21638
 C1493 C 0.46903 0.23699 0.22193
 C1494 C 0.47400 0.23223 0.23268
 C1495 C 0.46897 0.22155 0.23761
 C1496 C 0.45905 0.21591 0.23204
 H1497 H 0.40235 0.18214 0.21030
 H1498 H 0.40250 0.21010 0.18299
 H1499 H 0.38377 0.20193 0.17440
 H1500 H 0.38362 0.17379 0.20184
 H1501 H 0.45528 0.23524 0.20820
 H1502 H 0.47267 0.24520 0.21790
 H1503 H 0.47257 0.21766 0.24588
 H1504 H 0.45518 0.20781 0.23607
 C1505 C -0.10200 0.68687 0.20273
 C1506 C -0.09656 0.69707 0.19747
 C1507 C -0.10182 0.70244 0.18724
 C1508 C -0.11245 0.69760 0.18226
 C1509 C -0.11801 0.68731 0.18745
 C1510 C -0.11264 0.68201 0.19777
 C1511 C -0.08562 0.70207 0.20258
 C1512 C -0.07647 0.70630 0.20687
 C1513 C -0.06582 0.71131 0.21192
 C1514 C -0.05679 0.71570 0.21630
 C1515 C -0.04614 0.72109 0.22162
 C1516 C -0.04106 0.73155 0.21649
 C1517 C -0.03109 0.73718 0.22200
 C1518 C -0.02610 0.73241 0.23274
 C1519 C -0.03113 0.72174 0.23768
 C1520 C -0.04109 0.71613 0.23216
 H1521 H -0.09802 0.68266 0.21067
 H1522 H -0.09769 0.71036 0.18311
 H1523 H -0.11624 0.70197 0.17434
 H1524 H -0.11659 0.67412 0.20207
 H1525 H -0.04490 0.73547 0.20834
 H1526 H -0.02744 0.74537 0.21796
 H1527 H -0.02750 0.71784 0.24594
 H1528 H -0.04497 0.70804 0.23621
 C1529 C -0.10168 0.20223 0.68702
 C1530 C -0.09652 0.19697 0.69735
 C1531 C -0.10208 0.18690 0.70273
 C1532 C -0.11276 0.18208 0.69780
 C1533 C -0.11804 0.18728 0.68739
 C1534 C -0.11235 0.19744 0.68207
 C1535 C -0.08554 0.20193 0.70244
 C1536 C -0.07638 0.20613 0.70672
 C1537 C -0.06572 0.21114 0.71179
 C1538 C -0.05670 0.21552 0.71618
 C1539 C -0.04606 0.22093 0.72153
 C1540 C -0.04104 0.21599 0.73209
 C1541 C -0.03111 0.22163 0.73766
 C1542 C -0.02610 0.23232 0.73273
 C1543 C -0.03106 0.23707 0.72197
 C1544 C -0.04098 0.23141 0.71642
 H1545 H -0.09745 0.21006 0.68279
 H1546 H -0.09818 0.18276 0.71075
 H1547 H -0.11681 0.17429 0.70220
 H1548 H -0.11607 0.20174 0.67409
 H1549 H -0.04491 0.20789 0.73612
 H1550 H -0.02751 0.21774 0.74593
 H1551 H -0.02742 0.24527 0.71794
 H1552 H -0.04481 0.23531 0.70825
 C1553 C 0.31319 0.39798 0.29741
 C1554 C 0.30300 0.40345 0.30267
 C1555 C 0.29755 0.39814 0.31282
 C1556 C 0.30228 0.38742 0.31773
 C1557 C 0.31257 0.38183 0.31254
 C1558 C 0.31796 0.38725 0.30229
 C1559 C 0.29807 0.41446 0.29761
 C1560 C 0.29386 0.42364 0.29336
 C1561 C 0.28883 0.43431 0.28832
 C1562 C 0.28442 0.44333 0.28394
 C1563 C 0.27898 0.45395 0.27857
 C1564 C 0.26848 0.45902 0.28365
 C1565 C 0.26282 0.46895 0.27809
 C1566 C 0.26760 0.47393 0.26735
 C1567 C 0.27830 0.46890 0.26244
 C1568 C 0.28394 0.45897 0.26802
 H1569 H 0.31747 0.40200 0.28952
 H1570 H 0.28962 0.40229 0.31695
 H1571 H 0.29784 0.38358 0.32558
 H1572 H 0.32585 0.38328 0.29800
 H1573 H 0.26456 0.45518 0.29181
 H1574 H 0.25460 0.47259 0.28210
 H1575 H 0.28221 0.47251 0.25418
 H1576 H 0.29206 0.45510 0.26400
 C1577 C 0.31359 -0.10232 0.79740
 C1578 C 0.30350 -0.09677 0.80276
 C1579 C 0.29818 -0.10199 0.81300
 C1580 C 0.30290 -0.11273 0.81790
 C1581 C 0.31310 -0.11847 0.81262
 C1582 C 0.31836 -0.11306 0.80225
 C1583 C 0.29853 -0.08577 0.79768
 C1584 C 0.29429 -0.07662 0.79340
 C1585 C 0.28921 -0.06597 0.78834
 C1586 C 0.28476 -0.05698 0.78394
 C1587 C 0.27929 -0.04637 0.77857
 C1588 C 0.26878 -0.04132 0.78366
 C1589 C 0.26310 -0.03138 0.77814
 C1590 C 0.26787 -0.02636 0.76741
 C1591 C 0.27856 -0.03138 0.76247
 C1592 C 0.28422 -0.04132 0.76801
 H1593 H 0.31779 -0.09836 0.78943
 H1594 H 0.29033 -0.09778 0.81722
 H1595 H 0.29847 -0.11642 0.82582
 H1596 H 0.32617 -0.11702 0.79780
 H1597 H 0.26487 -0.04518 0.79182
 H1598 H 0.25488 -0.02776 0.78216
 H1599 H 0.28246 -0.02775 0.75421
 H1600 H 0.29234 -0.04517 0.76398
 C1601 C 0.79753 0.39805 0.81286
 C1602 C 0.80304 0.40343 0.80279
 C1603 C 0.81336 0.39808 0.79766
 C1604 C 0.81817 0.38739 0.80257
 C1605 C 0.81274 0.38184 0.81277
 C1606 C 0.80230 0.38737 0.81781
 C1607 C 0.79807 0.41440 0.79769
 C1608 C 0.79383 0.42355 0.79340
 C1609 C 0.78878 0.43419 0.78833
 C1610 C 0.78436 0.44320 0.78393
 C1611 C 0.77893 0.45382 0.77855
 C1612 C 0.78391 0.45885 0.76802
 C1613 C 0.77830 0.46880 0.76245
 C1614 C 0.76761 0.47384 0.76735
 C1615 C 0.76280 0.46885 0.77807
 C1616 C 0.76842 0.45890 0.78362
 H1617 H 0.78951 0.40211 0.81689
 H1618 H 0.81769 0.40217 0.78984
 H1619 H 0.82616 0.38359 0.79830
 H1620 H 0.79772 0.38355 0.82559
 H1621 H 0.79203 0.45497 0.76401
 H1622 H 0.78224 0.47242 0.75421
 H1623 H 0.75457 0.47250 0.78207
 H1624 H 0.76448 0.45506 0.79177
 C1625 C 0.81320 -0.10230 0.29761
 C1626 C 0.80292 -0.09692 0.30277
 C1627 C 0.79744 -0.10226 0.31287
 C1628 C 0.80223 -0.11293 0.31784
 C1629 C 0.81264 -0.11849 0.31277
 C1630 C 0.81803 -0.11298 0.30253
 C1631 C 0.79797 -0.08593 0.29767
 C1632 C 0.79377 -0.07676 0.29339
 C1633 C 0.78878 -0.06609 0.28832
 C1634 C 0.78441 -0.05705 0.28393
 C1635 C 0.77902 -0.04640 0.27859
 C1636 C 0.76855 -0.04129 0.28368
 C1637 C 0.76294 -0.03131 0.27816
 C1638 C 0.76775 -0.02631 0.26744
 C1639 C 0.77842 -0.03138 0.26251
 C1640 C 0.78401 -0.04136 0.26805
 H1641 H 0.81751 -0.09824 0.28975
 H1642 H 0.78945 -0.09817 0.31693
 H1643 H 0.79768 -0.11672 0.32565
 H1644 H 0.82600 -0.11680 0.29824
 H1645 H 0.76460 -0.04513 0.29183
 H1646 H 0.75473 -0.02764 0.28217
 H1647 H 0.78235 -0.02776 0.25426
 H1648 H 0.79211 -0.04525 0.26403
 C1649 C 0.29763 0.60184 0.68721
 C1650 C 0.30300 0.59657 0.69742
 C1651 C 0.31319 0.60203 0.70270
 C1652 C 0.31801 0.61270 0.69777
 C1653 C 0.31270 0.61809 0.68747
 C1654 C 0.30243 0.61251 0.68226
 C1655 C 0.29803 0.58559 0.70251
 C1656 C 0.29382 0.57643 0.70679
 C1657 C 0.28880 0.56577 0.71184
 C1658 C 0.28441 0.55674 0.71621
 C1659 C 0.27899 0.54610 0.72155
 C1660 C 0.28395 0.54103 0.73208
 C1661 C 0.27833 0.53108 0.73762
 C1662 C 0.26764 0.52607 0.73270
 C1663 C 0.26287 0.53109 0.72197
 C1664 C 0.26851 0.54104 0.71645
 H1665 H 0.28972 0.59770 0.68306
 H1666 H 0.31741 0.59804 0.71063
 H1667 H 0.32589 0.61667 0.70209
 H1668 H 0.29805 0.61631 0.67436
 H1669 H 0.29206 0.54489 0.73611
 H1670 H 0.28224 0.52744 0.74587
 H1671 H 0.25466 0.52745 0.71795
 H1672 H 0.26458 0.54490 0.70831
 C1673 C 0.31355 1.10175 0.20242
 C1674 C 0.30332 1.09633 0.19719
 C1675 C 0.29785 1.10167 0.18707
 C1676 C 0.30256 1.11240 0.18218
 C1677 C 0.31286 1.11797 0.18737
 C1678 C 0.31829 1.11248 0.19756
 C1679 C 0.29835 1.08536 0.20227
 C1680 C 0.29411 1.07622 0.20657
 C1681 C 0.28902 1.06562 0.21165
 C1682 C 0.28457 1.05665 0.21607
 C1683 C 0.27909 1.04607 0.22146
 C1684 C 0.26858 1.04104 0.21637
 C1685 C 0.26291 1.03112 0.22191
 C1686 C 0.26768 1.02611 0.23264
 C1687 C 0.27837 1.03111 0.23757
 C1688 C 0.28402 1.04103 0.23201
 H1689 H 0.31785 1.09769 0.21027
 H1690 H 0.28991 1.09756 0.18296
 H1691 H 0.29808 1.11629 0.17438
 H1692 H 0.32621 1.11642 0.20182
 H1693 H 0.26467 1.04489 0.20821
 H1694 H 0.25469 1.02750 0.21789
 H1695 H 0.28226 1.02748 0.24583
 H1696 H 0.29214 1.04488 0.23604
 C1697 C 0.81318 0.60200 0.20270
 C1698 C 0.80299 0.59655 0.19742
 C1699 C 0.79764 0.60181 0.18720
 C1700 C 0.80246 0.61246 0.18223
 C1701 C 0.81273 0.61804 0.18744
 C1702 C 0.81802 0.61265 0.19776
 C1703 C 0.79800 0.58559 0.20252
 C1704 C 0.79378 0.57644 0.20680
 C1705 C 0.78876 0.56579 0.21186
 C1706 C 0.78436 0.55676 0.21624
 C1707 C 0.77896 0.54612 0.22157
 C1708 C 0.76847 0.54106 0.21648
 C1709 C 0.76284 0.53110 0.22200
 C1710 C 0.76762 0.52609 0.23272
 C1711 C 0.77831 0.53110 0.23764
 C1712 C 0.78393 0.54106 0.23210
 H1713 H 0.81738 0.59801 0.21064
 H1714 H 0.78973 0.59767 0.18304
 H1715 H 0.79809 0.61625 0.17431
 H1716 H 0.82590 0.61662 0.20208
 H1717 H 0.76455 0.54492 0.20833
 H1718 H 0.75463 0.52747 0.21798
 H1719 H 0.78223 0.52746 0.24589
 H1720 H 0.79204 0.54491 0.23613
 C1721 C 0.81318 1.10205 0.70274
 C1722 C 0.80311 1.09648 0.69736
 C1723 C 0.79786 1.10162 0.68703
 C1724 C 0.80265 1.11229 0.68207
 C1725 C 0.81279 1.11800 0.68739
 C1726 C 0.81799 1.11272 0.69781
 C1727 C 0.79814 1.08552 0.70247
 C1728 C 0.79393 1.07637 0.70676
 C1729 C 0.78890 1.06571 0.71182
 C1730 C 0.78450 1.05670 0.71621
 C1731 C 0.77907 1.04608 0.72156
 C1732 C 0.76857 1.04104 0.71647
 C1733 C 0.76289 1.03112 0.72202
 C1734 C 0.76765 1.02612 0.73276
 C1735 C 0.77836 1.03109 0.73766
 C1736 C 0.78402 1.04102 0.73210
 H1737 H 0.81731 1.09816 0.71077
 H1738 H 0.79004 1.09740 0.68280
 H1739 H 0.79835 1.11601 0.67408
 H1740 H 0.82578 1.11678 0.70220
 H1741 H 0.76466 1.04489 0.70832
 H1742 H 0.75467 1.02750 0.71800
 H1743 H 0.78227 1.02746 0.74592
 H1744 H 0.79215 1.04485 0.73611
 C1745 C 0.68671 0.60194 0.29768
 C1746 C 0.69694 0.59650 0.30290
 C1747 C 0.70243 0.60183 0.31302
 C1748 C 0.69770 0.61256 0.31791
 C1749 C 0.68739 0.61814 0.31275
 C1750 C 0.68196 0.61268 0.30255
 C1751 C 0.70189 0.58550 0.29783
 C1752 C 0.70609 0.57634 0.29355
 C1753 C 0.71112 0.56569 0.28847
 C1754 C 0.71554 0.55668 0.28405
 C1755 C 0.72097 0.54608 0.27866
 C1756 C 0.73148 0.54099 0.28373
 C1757 C 0.73713 0.53107 0.27815
 C1758 C 0.73235 0.52612 0.26741
 C1759 C 0.72166 0.53116 0.26251
 C1760 C 0.71602 0.54108 0.26810
 H1761 H 0.68241 0.59790 0.28983
 H1762 H 0.71038 0.59770 0.31712
 H1763 H 0.70219 0.61644 0.32571
 H1764 H 0.67403 0.61662 0.29829
 H1765 H 0.73540 0.54481 0.29189
 H1766 H 0.74535 0.52742 0.28215
 H1767 H 0.71775 0.52757 0.25425
 H1768 H 0.70790 0.54496 0.26410
 C1769 C 0.70258 1.10221 0.81288
 C1770 C 0.69706 1.09682 0.80282
 C1771 C 0.68675 1.10218 0.79768
 C1772 C 0.68193 1.11287 0.80259
 C1773 C 0.68735 1.11842 0.81279
 C1774 C 0.69779 1.11289 0.81782
 C1775 C 0.70202 1.08583 0.79774
 C1776 C 0.70621 1.07666 0.79347
 C1777 C 0.71122 1.06599 0.78841
 C1778 C 0.71561 1.05696 0.78401
 C1779 C 0.72101 1.04632 0.77864
 C1780 C 0.71604 1.04131 0.76810
 C1781 C 0.72165 1.03136 0.76253
 C1782 C 0.73233 1.02630 0.76744
 C1783 C 0.73713 1.03127 0.77817
 C1784 C 0.73150 1.04122 0.78372
 H1785 H 0.71059 1.09815 0.81691
 H1786 H 0.68242 1.09809 0.78987
 H1787 H 0.67394 1.11666 0.79832
 H1788 H 0.70237 1.11671 0.82560
 H1789 H 0.70793 1.04520 0.76409
 H1790 H 0.71773 1.02775 0.75428
 H1791 H 0.74534 1.02761 0.78218
 H1792 H 0.73543 1.04505 0.79187
 C1793 C 0.20237 0.60171 0.81289
 C1794 C 0.19673 0.59623 0.80295
 C1795 C 0.18635 0.60154 0.79788
 C1796 C 0.18162 0.61229 0.80272
 C1797 C 0.18722 0.61791 0.81274
 C1798 C 0.19767 0.61246 0.81776
 C1799 C 0.20168 0.58524 0.79787
 C1800 C 0.20592 0.57610 0.79357
 C1801 C 0.21100 0.56548 0.78847
 C1802 C 0.21545 0.55651 0.78404
 C1803 C 0.22093 0.54594 0.77862
 C1804 C 0.21599 0.54095 0.76806
 C1805 C 0.22165 0.53104 0.76246
 C1806 C 0.23235 0.52601 0.76736
 C1807 C 0.23712 0.53098 0.77810
 C1808 C 0.23145 0.54088 0.78368
 H1809 H 0.21044 0.59769 0.81688
 H1810 H 0.18192 0.59737 0.79016
 H1811 H 0.17357 0.61613 0.79859
 H1812 H 0.20229 0.61647 0.82542
 H1813 H 0.20786 0.54482 0.76405
 H1814 H 0.21774 0.52745 0.75420
 H1815 H 0.24535 0.52734 0.78210
 H1816 H 0.23536 0.54470 0.79184
 C1817 C 0.18670 1.10188 0.29757
 C1818 C 0.19692 1.09643 0.30280
 C1819 C 0.20240 1.10176 0.31291
 C1820 C 0.19768 1.11249 0.31780
 C1821 C 0.18737 1.11807 0.31264
 C1822 C 0.18194 1.11261 0.30244
 C1823 C 0.20186 1.08544 0.29773
 C1824 C 0.20606 1.07627 0.29346
 C1825 C 0.21109 1.06562 0.28838
 C1826 C 0.21551 1.05663 0.28396
 C1827 C 0.22096 1.04605 0.27856
 C1828 C 0.23147 1.04097 0.28362
 C1829 C 0.23715 1.03107 0.27804
 C1830 C 0.23238 1.02613 0.26728
 C1831 C 0.22168 1.03116 0.26238
 C1832 C 0.21603 1.04106 0.26799
 H1833 H 0.18239 1.09784 0.28972
 H1834 H 0.21035 1.09763 0.31702
 H1835 H 0.20216 1.11637 0.32561
 H1836 H 0.17402 1.11656 0.29818
 H1837 H 0.23538 1.04477 0.29180
 H1838 H 0.24537 1.02742 0.28203
 H1839 H 0.21779 1.02759 0.25411
 H1840 H 0.20790 1.04494 0.26399
 C1841 C 0.68691 0.39798 0.70270
 C1842 C 0.69708 0.40346 0.69741
 C1843 C 0.70247 0.39819 0.68720
 C1844 C 0.69769 0.38750 0.68227
 C1845 C 0.68743 0.38190 0.68750
 C1846 C 0.68211 0.38729 0.69780
 C1847 C 0.70204 0.41444 0.70248
 C1848 C 0.70625 0.42360 0.70676
 C1849 C 0.71127 0.43425 0.71182
 C1850 C 0.71568 0.44326 0.71621
 C1851 C 0.72110 0.45389 0.72156
 C1852 C 0.73160 0.45895 0.71647
 C1853 C 0.73723 0.46890 0.72199
 C1854 C 0.73243 0.47392 0.73270
 C1855 C 0.72174 0.46890 0.73763
 C1856 C 0.71613 0.45894 0.73209
 H1857 H 0.68268 0.40197 0.71063
 H1858 H 0.71037 0.40234 0.68304
 H1859 H 0.70208 0.38370 0.67437
 H1860 H 0.67424 0.38331 0.70212
 H1861 H 0.73553 0.45509 0.70833
 H1862 H 0.74545 0.47253 0.71797
 H1863 H 0.71782 0.47253 0.74587
 H1864 H 0.70801 0.45508 0.73612
 C1865 C 0.68692 -0.10205 0.20272
 C1866 C 0.69709 -0.09657 0.19743
 C1867 C 0.70248 -0.10183 0.18721
 C1868 C 0.69770 -0.11251 0.18228
 C1869 C 0.68743 -0.11811 0.18750
 C1870 C 0.68212 -0.11273 0.19781
 C1871 C 0.70206 -0.08561 0.20252
 C1872 C 0.70629 -0.07647 0.20680
 C1873 C 0.71133 -0.06584 0.21187
 C1874 C 0.71575 -0.05685 0.21627
 C1875 C 0.72120 -0.04626 0.22164
 C1876 C 0.73170 -0.04121 0.21656
 C1877 C 0.73735 -0.03127 0.22209
 C1878 C 0.73256 -0.02627 0.23282
 C1879 C 0.72187 -0.03129 0.23774
 C1880 C 0.71624 -0.04122 0.23219
 H1881 H 0.68270 -0.09806 0.21065
 H1882 H 0.71038 -0.09768 0.18306
 H1883 H 0.70209 -0.11630 0.17438
 H1884 H 0.67425 -0.11671 0.20214
 H1885 H 0.73562 -0.04505 0.20840
 H1886 H 0.74557 -0.02765 0.21808
 H1887 H 0.71796 -0.02767 0.24600
 H1888 H 0.70812 -0.04508 0.23621
 C1889 C 0.20237 0.39833 0.18712
 C1890 C 0.19698 0.40359 0.19733
 C1891 C 0.18681 0.39811 0.20263
 C1892 C 0.18202 0.38742 0.19773
 C1893 C 0.18735 0.38204 0.18743
 C1894 C 0.19761 0.38764 0.18220
 C1895 C 0.20194 0.41456 0.20242
 C1896 C 0.20616 0.42370 0.20670
 C1897 C 0.21120 0.43433 0.21177
 C1898 C 0.21561 0.44333 0.21617
 C1899 C 0.22105 0.45394 0.22153
 C1900 C 0.21609 0.45897 0.23208
 C1901 C 0.22170 0.46891 0.23763
 C1902 C 0.23239 0.47394 0.23270
 C1903 C 0.23718 0.46894 0.22197
 C1904 C 0.23154 0.45900 0.21644
 H1905 H 0.21026 0.40249 0.18296
 H1906 H 0.18258 0.40210 0.21056
 H1907 H 0.17416 0.38344 0.20206
 H1908 H 0.20200 0.38384 0.17430
 H1909 H 0.20797 0.45510 0.23611
 H1910 H 0.21779 0.47253 0.24588
 H1911 H 0.24539 0.47258 0.21795
 H1912 H 0.23546 0.45515 0.20829
 C1913 C 0.18711 -0.10213 0.70283
 C1914 C 0.19713 -0.09652 0.69739
 C1915 C 0.20235 -0.10164 0.68702
 C1916 C 0.19756 -0.11232 0.68209
 C1917 C 0.18746 -0.11805 0.68746
 C1918 C 0.18230 -0.11281 0.69792
 C1919 C 0.20211 -0.08557 0.70248
 C1920 C 0.20634 -0.07644 0.70678
 C1921 C 0.21138 -0.06582 0.71188
 C1922 C 0.21580 -0.05683 0.71629
 C1923 C 0.22124 -0.04624 0.72167
 C1924 C 0.23173 -0.04118 0.71658
 C1925 C 0.23738 -0.03125 0.72212
 C1926 C 0.23259 -0.02626 0.73286
 C1927 C 0.22191 -0.03128 0.73778
 C1928 C 0.21628 -0.04122 0.73223
 H1929 H 0.18301 -0.09825 0.71088
 H1930 H 0.21013 -0.09738 0.68274
 H1931 H 0.20182 -0.11600 0.67405
 H1932 H 0.17457 -0.11691 0.70237
 H1933 H 0.23566 -0.04502 0.70843
 H1934 H 0.24559 -0.02761 0.71810
 H1935 H 0.21800 -0.02767 0.74604
 H1936 H 0.20817 -0.04508 0.73625
 C1937 C 0.31291 0.29734 0.39843
 C1938 C 0.30271 0.30271 0.40379
 C1939 C 0.29733 0.31289 0.39841
 C1940 C 0.30214 0.31771 0.38771
 C1941 C 0.31243 0.31242 0.38221
 C1942 C 0.31774 0.30214 0.38773
 C1943 C 0.29772 0.29773 0.41478
 C1944 C 0.29350 0.29351 0.42394
 C1945 C 0.28848 0.28849 0.43459
 C1946 C 0.28409 0.28410 0.44360
 C1947 C 0.27871 0.27870 0.45420
 C1948 C 0.26816 0.28373 0.45924
 C1949 C 0.26255 0.27813 0.46915
 C1950 C 0.26743 0.26740 0.47414
 C1951 C 0.27817 0.26255 0.46915
 C1952 C 0.28375 0.26817 0.45924
 H1953 H 0.31713 0.28944 0.40251
 H1954 H 0.28941 0.31710 0.40248
 H1955 H 0.29775 0.32559 0.38381
 H1956 H 0.32563 0.29776 0.38384
 H1957 H 0.26417 0.29187 0.45539
 H1958 H 0.25430 0.28210 0.47276
 H1959 H 0.28215 0.25431 0.47276
 H1960 H 0.29191 0.26419 0.45539
 C1961 C 0.31310 0.79743 -0.10195
 C1962 C 0.30289 0.80278 -0.09660
 C1963 C 0.29751 0.81296 -0.10198
 C1964 C 0.30234 0.81781 -0.11265
 C1965 C 0.31265 0.81253 -0.11813
 C1966 C 0.31795 0.80226 -0.11263
 C1967 C 0.29790 0.79779 -0.08561
 C1968 C 0.29369 0.79358 -0.07644
 C1969 C 0.28869 0.78858 -0.06577
 C1970 C 0.28432 0.78420 -0.05675
 C1971 C 0.27896 0.77883 -0.04612
 C1972 C 0.26843 0.78388 -0.04107
 C1973 C 0.26283 0.77829 -0.03115
 C1974 C 0.26769 0.76756 -0.02616
 C1975 C 0.27842 0.76269 -0.03116
 C1976 C 0.28400 0.76830 -0.04109
 H1977 H 0.31733 0.78952 -0.09787
 H1978 H 0.28958 0.81716 -0.09791
 H1979 H 0.29796 0.82570 -0.11654
 H1980 H 0.32586 0.79790 -0.11650
 H1981 H 0.26444 0.79203 -0.04491
 H1982 H 0.25458 0.78227 -0.02752
 H1983 H 0.28239 0.75444 -0.02755
 H1984 H 0.29214 0.76431 -0.04494
 C1985 C 0.79717 0.31329 -0.10172
 C1986 C 0.80255 0.30310 -0.09636
 C1987 C 0.81273 0.29773 -0.10175
 C1988 C 0.81754 0.30253 -0.11245
 C1989 C 0.81224 0.31282 -0.11794
 C1990 C 0.80196 0.31812 -0.11243
 C1991 C 0.79758 0.29811 -0.08536
 C1992 C 0.79337 0.29388 -0.07620
 C1993 C 0.78837 0.28885 -0.06555
 C1994 C 0.78401 0.28444 -0.05655
 C1995 C 0.77865 0.27902 -0.04595
 C1996 C 0.78372 0.26849 -0.04093
 C1997 C 0.77815 0.26284 -0.03103
 C1998 C 0.76740 0.26766 -0.02603
 C1999 C 0.76250 0.27839 -0.03099
 C2000 C 0.76809 0.28401 -0.04090
 H2001 H 0.78925 0.31751 -0.09764
 H2002 H 0.81695 0.28981 -0.09768
 H2003 H 0.82542 0.29815 -0.11635
 H2004 H 0.79757 0.32600 -0.11631
 H2005 H 0.79188 0.26454 -0.04479
 H2006 H 0.78215 0.25460 -0.02743
 H2007 H 0.75424 0.28232 -0.02736
 H2008 H 0.76408 0.29216 -0.04472
 C2009 C 0.81279 0.79762 0.39846
 C2010 C 0.80260 0.80299 0.40383
 C2011 C 0.79720 0.81315 0.39843
 C2012 C 0.80198 0.81795 0.38771
 C2013 C 0.81226 0.81264 0.38221
 C2014 C 0.81759 0.80239 0.38774
 C2015 C 0.79762 0.79802 0.41483
 C2016 C 0.79340 0.79380 0.42399
 C2017 C 0.78838 0.78877 0.43463
 C2018 C 0.78400 0.78436 0.44363
 C2019 C 0.77862 0.77895 0.45422
 C2020 C 0.76807 0.78395 0.45927
 C2021 C 0.76248 0.77833 0.46917
 C2022 C 0.76737 0.76760 0.47415
 C2023 C 0.77812 0.76278 0.46915
 C2024 C 0.78369 0.76842 0.45924
 H2025 H 0.81703 0.78972 0.40256
 H2026 H 0.78929 0.81737 0.40251
 H2027 H 0.79757 0.82581 0.38379
 H2028 H 0.82548 0.79800 0.38385
 H2029 H 0.76406 0.79209 0.45543
 H2030 H 0.75421 0.78227 0.47280
 H2031 H 0.78212 0.75454 0.47275
 H2032 H 0.79185 0.76446 0.45539
 C2033 C 0.68715 0.29738 0.60173
 C2034 C 0.69732 0.30276 0.59633
 C2035 C 0.70270 0.31293 0.60171
 C2036 C 0.69790 0.31774 0.61242
 C2037 C 0.68763 0.31244 0.61793
 C2038 C 0.68233 0.30218 0.61243
 C2039 C 0.70230 0.29778 0.58534
 C2040 C 0.70651 0.29356 0.57617
 C2041 C 0.71151 0.28854 0.56552
 C2042 C 0.71588 0.28414 0.55651
 C2043 C 0.72125 0.27875 0.54590
 C2044 C 0.73178 0.28376 0.54084
 C2045 C 0.73737 0.27817 0.53091
 C2046 C 0.73249 0.26745 0.52593
 C2047 C 0.72176 0.26262 0.53095
 C2048 C 0.71619 0.26823 0.54087
 H2049 H 0.68293 0.28948 0.59765
 H2050 H 0.71060 0.31715 0.59762
 H2051 H 0.70229 0.32562 0.61631
 H2052 H 0.67446 0.29779 0.61634
 H2053 H 0.73578 0.29190 0.54467
 H2054 H 0.74561 0.28212 0.52728
 H2055 H 0.71777 0.25438 0.52734
 H2056 H 0.70804 0.26427 0.54473
 C2057 C 0.68717 0.79742 1.10172
 C2058 C 0.69734 0.80279 1.09633
 C2059 C 0.70273 0.81295 1.10172
 C2060 C 0.69794 0.81775 1.11244
 C2061 C 0.68767 0.81245 1.11795
 C2062 C 0.68236 0.80219 1.11244
 C2063 C 0.70231 0.79784 1.08532
 C2064 C 0.70651 0.79364 1.07614
 C2065 C 0.71151 0.78863 1.06548
 C2066 C 0.71589 0.78425 1.05647
 C2067 C 0.72127 0.77886 1.04586
 C2068 C 0.73181 0.78387 1.04082
 C2069 C 0.73742 0.77827 1.03091
 C2070 C 0.73255 0.76755 1.02592
 C2071 C 0.72180 0.76273 1.03091
 C2072 C 0.71621 0.76835 1.04082
 H2073 H 0.68294 0.78953 1.09763
 H2074 H 0.71063 0.81717 1.09764
 H2075 H 0.70234 0.82561 1.11634
 H2076 H 0.67449 0.79781 1.11634
 H2077 H 0.73581 0.79200 1.04466
 H2078 H 0.74568 0.78222 1.02729
 H2079 H 0.71782 0.75449 1.02729
 H2080 H 0.70806 0.76439 1.04466
 C2081 C 0.18713 0.29746 1.10175
 C2082 C 0.19730 0.30283 1.09635
 C2083 C 0.20268 0.31300 1.10173
 C2084 C 0.19789 0.31782 1.11243
 C2085 C 0.18762 0.31253 1.11795
 C2086 C 0.18232 0.30226 1.11245
 C2087 C 0.20227 0.29787 1.08535
 C2088 C 0.20646 0.29366 1.07618
 C2089 C 0.21146 0.28865 1.06551
 C2090 C 0.21582 0.28426 1.05650
 C2091 C 0.22119 0.27887 1.04588
 C2092 C 0.23173 0.28388 1.04083
 C2093 C 0.23733 0.27827 1.03092
 C2094 C 0.23246 0.26755 1.02595
 C2095 C 0.22172 0.26272 1.03095
 C2096 C 0.21613 0.26835 1.04086
 H2097 H 0.18291 0.28956 1.09768
 H2098 H 0.21059 0.31722 1.09764
 H2099 H 0.20228 0.32569 1.11632
 H2100 H 0.17444 0.29788 1.11636
 H2101 H 0.23572 0.29202 1.04466
 H2102 H 0.24558 0.28222 1.02729
 H2103 H 0.21773 0.25448 1.02735
 H2104 H 0.20798 0.26439 1.04472
 C2105 C 0.18705 0.79759 0.60159
 C2106 C 0.19722 0.80296 0.59620
 C2107 C 0.20261 0.81312 0.60158
 C2108 C 0.19783 0.81792 0.61231
 C2109 C 0.18757 0.81261 0.61782
 C2110 C 0.18225 0.80235 0.61231
 C2111 C 0.20220 0.79800 0.58520
 C2112 C 0.20641 0.79379 0.57603
 C2113 C 0.21143 0.78876 0.56538
 C2114 C 0.21582 0.78437 0.55638
 C2115 C 0.22121 0.77897 0.54578
 C2116 C 0.23175 0.78398 0.54075
 C2117 C 0.23736 0.77838 0.53084
 C2118 C 0.23249 0.76766 0.52586
 C2119 C 0.22175 0.76283 0.53085
 C2120 C 0.21616 0.76845 0.54075
 H2121 H 0.18283 0.78969 0.59750
 H2122 H 0.21051 0.81735 0.59750
 H2123 H 0.20222 0.82578 0.61621
 H2124 H 0.17438 0.79797 0.61621
 H2125 H 0.23575 0.79211 0.54459
 H2126 H 0.24562 0.78232 0.52722
 H2127 H 0.21777 0.75459 0.52723
 H2128 H 0.20800 0.76449 0.54460
 C2129 C 0.29742 0.68713 0.60169
 C2130 C 0.30278 0.69732 0.59632
 C2131 C 0.31295 0.70269 0.60170
 C2132 C 0.31777 0.69790 0.61241
 C2133 C 0.31247 0.68762 0.61791
 C2134 C 0.30221 0.68231 0.61240
 C2135 C 0.29781 0.70230 0.58533
 C2136 C 0.29359 0.70651 0.57616
 C2137 C 0.28858 0.71153 0.56551
 C2138 C 0.28420 0.71591 0.55650
 C2139 C 0.27882 0.72129 0.54589
 C2140 C 0.28386 0.73181 0.54084
 C2141 C 0.27827 0.73743 0.53093
 C2142 C 0.26753 0.73258 0.52595
 C2143 C 0.26267 0.72186 0.53095
 C2144 C 0.26828 0.71627 0.54086
 H2145 H 0.28952 0.68291 0.59761
 H2146 H 0.31716 0.71060 0.59763
 H2147 H 0.32564 0.70229 0.61631
 H2148 H 0.29784 0.67443 0.61629
 H2149 H 0.29201 0.73578 0.54467
 H2150 H 0.28224 0.74566 0.52730
 H2151 H 0.25441 0.71790 0.52735
 H2152 H 0.26429 0.70813 0.54472
 C2153 C 0.29745 0.18703 1.10172
 C2154 C 0.30281 0.19722 1.09635
 C2155 C 0.31300 0.20257 1.10171
 C2156 C 0.31785 0.19775 1.11239
 C2157 C 0.31257 0.18746 1.11788
 C2158 C 0.30228 0.18218 1.11240
 C2159 C 0.29782 0.20221 1.08537
 C2160 C 0.29360 0.20643 1.07620
 C2161 C 0.28858 0.21145 1.06555
 C2162 C 0.28419 0.21582 1.05654
 C2163 C 0.27880 0.22120 1.04593
 C2164 C 0.28385 0.23171 1.04085
 C2165 C 0.27825 0.23731 1.03094
 C2166 C 0.26750 0.23247 1.02598
 C2167 C 0.26263 0.22177 1.03101
 C2168 C 0.26825 0.21618 1.04092
 H2169 H 0.28953 0.18283 1.09766
 H2170 H 0.31721 0.21049 1.09763
 H2171 H 0.32574 0.20211 1.11627
 H2172 H 0.29790 0.17430 1.11629
 H2173 H 0.29201 0.23568 1.04467
 H2174 H 0.28223 0.24554 1.02730
 H2175 H 0.25437 0.21781 1.02742
 H2176 H 0.26426 0.20806 1.04480
 C2177 C 0.79746 0.68708 1.10169
 C2178 C 0.80283 0.69726 1.09631
 C2179 C 0.81300 0.70263 1.10170
 C2180 C 0.81781 0.69784 1.11241
 C2181 C 0.81250 0.68758 1.11792
 C2182 C 0.80224 0.68227 1.11241
 C2183 C 0.79786 0.70223 1.08532
 C2184 C 0.79364 0.70645 1.07616
 C2185 C 0.78862 0.71146 1.06550
 C2186 C 0.78423 0.71583 1.05650
 C2187 C 0.77885 0.72121 1.04589
 C2188 C 0.78389 0.73172 1.04083
 C2189 C 0.77831 0.73732 1.03091
 C2190 C 0.76757 0.73248 1.02593
 C2191 C 0.76270 0.72176 1.03094
 C2192 C 0.76831 0.71618 1.04087
 H2193 H 0.78955 0.68287 1.09761
 H2194 H 0.81722 0.71054 1.09762
 H2195 H 0.82568 0.70223 1.11631
 H2196 H 0.79785 0.67440 1.11630
 H2197 H 0.79204 0.73570 1.04466
 H2198 H 0.78229 0.74555 1.02727
 H2199 H 0.75445 0.71780 1.02734
 H2200 H 0.76432 0.70805 1.04473
 C2201 C 0.79756 0.18688 0.60157
 C2202 C 0.80293 0.19706 0.59619
 C2203 C 0.81310 0.20244 0.60157
 C2204 C 0.81789 0.19766 0.61230
 C2205 C 0.81258 0.18741 0.61782
 C2206 C 0.80233 0.18208 0.61230
 C2207 C 0.79794 0.20205 0.58520
 C2208 C 0.79369 0.20628 0.57606
 C2209 C 0.78863 0.21132 0.56543
 C2210 C 0.78422 0.21572 0.55645
 C2211 C 0.77880 0.22112 0.54587
 C2212 C 0.78383 0.23164 0.54080
 C2213 C 0.77823 0.23725 0.53089
 C2214 C 0.76748 0.23240 0.52593
 C2215 C 0.76262 0.22170 0.53096
 C2216 C 0.76824 0.21611 0.54087
 H2217 H 0.78967 0.18265 0.59748
 H2218 H 0.81732 0.21034 0.59749
 H2219 H 0.82576 0.20206 0.61620
 H2220 H 0.79795 0.17421 0.61620
 H2221 H 0.79199 0.23561 0.54462
 H2222 H 0.78221 0.24548 0.52725
 H2223 H 0.75435 0.21774 0.52737
 H2224 H 0.76425 0.20798 0.54473
 C2225 C 0.68713 0.70264 0.39845
 C2226 C 0.69731 0.69726 0.40382
 C2227 C 0.70269 0.68708 0.39844
 C2228 C 0.69788 0.68227 0.38775
 C2229 C 0.68760 0.68758 0.38225
 C2230 C 0.68230 0.69785 0.38776
 C2231 C 0.70229 0.70223 0.41482
 C2232 C 0.70649 0.70644 0.42399
 C2233 C 0.71148 0.71145 0.43465
 C2234 C 0.71584 0.71583 0.44366
 C2235 C 0.72120 0.72121 0.45427
 C2236 C 0.73175 0.71620 0.45931
 C2237 C 0.73735 0.72179 0.46923
 C2238 C 0.73245 0.73250 0.47422
 C2239 C 0.72171 0.73734 0.46924
 C2240 C 0.71614 0.73173 0.45932
 H2241 H 0.68291 0.71055 0.40253
 H2242 H 0.71060 0.68286 0.40251
 H2243 H 0.70226 0.67439 0.38385
 H2244 H 0.67441 0.70224 0.38387
 H2245 H 0.73576 0.70807 0.45546
 H2246 H 0.74561 0.71783 0.47284
 H2247 H 0.71771 0.74557 0.47286
 H2248 H 0.70798 0.73570 0.45548
 C2249 C 0.68724 0.20246 -0.10173
 C2250 C 0.69742 0.19709 -0.09635
 C2251 C 0.70281 0.18691 -0.10172
 C2252 C 0.69802 0.18209 -0.11242
 C2253 C 0.68774 0.18738 -0.11792
 C2254 C 0.68242 0.19766 -0.11243
 C2255 C 0.70240 0.20208 -0.08537
 C2256 C 0.70660 0.20631 -0.07621
 C2257 C 0.71159 0.21135 -0.06557
 C2258 C 0.71596 0.21576 -0.05657
 C2259 C 0.72131 0.22117 -0.04597
 C2260 C 0.73186 0.21616 -0.04092
 C2261 C 0.73744 0.22177 -0.03101
 C2262 C 0.73253 0.23249 -0.02603
 C2263 C 0.72179 0.23732 -0.03104
 C2264 C 0.71623 0.23169 -0.04095
 H2265 H 0.68301 0.21037 -0.09766
 H2266 H 0.71073 0.18270 -0.09764
 H2267 H 0.70242 0.17421 -0.11631
 H2268 H 0.67454 0.20204 -0.11632
 H2269 H 0.73587 0.20803 -0.04475
 H2270 H 0.74569 0.21782 -0.02738
 H2271 H 0.71779 0.24555 -0.02743
 H2272 H 0.70808 0.23565 -0.04481
 C2273 C 0.18717 0.70262 -0.10174
 C2274 C 0.19737 0.69725 -0.09638
 C2275 C 0.20272 0.68704 -0.10174
 C2276 C 0.19787 0.68218 -0.11239
 C2277 C 0.18757 0.68747 -0.11787
 C2278 C 0.18230 0.69778 -0.11240
 C2279 C 0.20236 0.70224 -0.08541
 C2280 C 0.20659 0.70646 -0.07625
 C2281 C 0.21160 0.71147 -0.06561
 C2282 C 0.21599 0.71585 -0.05661
 C2283 C 0.22137 0.72124 -0.04601
 C2284 C 0.23192 0.71621 -0.04097
 C2285 C 0.23753 0.72180 -0.03108
 C2286 C 0.23267 0.73254 -0.02610
 C2287 C 0.22193 0.73740 -0.03109
 C2288 C 0.21634 0.73178 -0.04098
 H2289 H 0.18297 0.71054 -0.09768
 H2290 H 0.21064 0.68283 -0.09768
 H2291 H 0.20223 0.67428 -0.11627
 H2292 H 0.17440 0.70216 -0.11627
 H2293 H 0.23590 0.70806 -0.04481
 H2294 H 0.24579 0.71784 -0.02747
 H2295 H 0.21796 0.74565 -0.02748
 H2296 H 0.20818 0.73576 -0.04482
 C2297 C 0.20259 0.18699 0.39840
 C2298 C 0.19721 0.19717 0.40378
 C2299 C 0.18702 0.20255 0.39839
 C2300 C 0.18221 0.19775 0.38769
 C2301 C 0.18752 0.18747 0.38220
 C2302 C 0.19780 0.18217 0.38770
 C2303 C 0.20218 0.20215 0.41477
 C2304 C 0.20639 0.20636 0.42393
 C2305 C 0.21140 0.21138 0.43459
 C2306 C 0.21578 0.21575 0.44359
 C2307 C 0.22116 0.22113 0.45420
 C2308 C 0.21611 0.23166 0.45924
 C2309 C 0.22170 0.23726 0.46916
 C2310 C 0.23243 0.23239 0.47415
 C2311 C 0.23730 0.22167 0.46915
 C2312 C 0.23170 0.21609 0.45924
 H2313 H 0.21050 0.18277 0.40248
 H2314 H 0.18280 0.21046 0.40246
 H2315 H 0.17433 0.20214 0.38380
 H2316 H 0.20219 0.17429 0.38382
 H2317 H 0.20797 0.23565 0.45540
 H2318 H 0.21772 0.24550 0.47277
 H2319 H 0.24555 0.21769 0.47277
 H2320 H 0.23568 0.20795 0.45539
 C2321 C 0.31322 0.39804 0.70252
 C2322 C 0.30301 0.40350 0.69728
 C2323 C 0.29757 0.39819 0.68713
 C2324 C 0.30232 0.38748 0.68222
 C2325 C 0.31263 0.38190 0.68740
 C2326 C 0.31801 0.38733 0.69763
 C2327 C 0.29806 0.41450 0.70235
 C2328 C 0.29386 0.42366 0.70662
 C2329 C 0.28884 0.43433 0.71168
 C2330 C 0.28444 0.44335 0.71607
 C2331 C 0.27903 0.45398 0.72143
 C2332 C 0.26853 0.45907 0.71636
 C2333 C 0.26289 0.46901 0.72191
 C2334 C 0.26767 0.47398 0.73264
 C2335 C 0.27836 0.46894 0.73755
 C2336 C 0.28399 0.45900 0.73198
 H2337 H 0.31750 0.40206 0.71040
 H2338 H 0.28963 0.40233 0.68301
 H2339 H 0.29789 0.38364 0.67437
 H2340 H 0.32592 0.38338 0.70192
 H2341 H 0.26460 0.45524 0.70821
 H2342 H 0.25467 0.47266 0.71790
 H2343 H 0.28228 0.47254 0.74580
 H2344 H 0.29210 0.45512 0.73599
 C2345 C 0.31344 0.89833 0.20219
 C2346 C 0.30321 0.90377 0.19696
 C2347 C 0.29775 0.89844 0.18683
 C2348 C 0.30249 0.88772 0.18194
 C2349 C 0.31280 0.88213 0.18711
 C2350 C 0.31821 0.88760 0.19731
 C2351 C 0.29823 0.91475 0.20205
 C2352 C 0.29399 0.92389 0.20635
 C2353 C 0.28891 0.93451 0.21145
 C2354 C 0.28446 0.94349 0.21588
 C2355 C 0.27899 0.95406 0.22130
 C2356 C 0.26848 0.95915 0.21624
 C2357 C 0.26282 0.96906 0.22182
 C2358 C 0.26759 0.97401 0.23257
 C2359 C 0.27828 0.96896 0.23748
 C2360 C 0.28393 0.95905 0.23187
 H2361 H 0.31773 0.90237 0.21005
 H2362 H 0.28980 0.90257 0.18272
 H2363 H 0.29802 0.88384 0.17412
 H2364 H 0.32613 0.88366 0.20158
 H2365 H 0.26457 0.95535 0.20807
 H2366 H 0.25460 0.97271 0.21782
 H2367 H 0.28218 0.97254 0.24574
 H2368 H 0.29205 0.95517 0.23588
 C2369 C 0.81293 0.39794 0.20264
 C2370 C 0.80290 0.40356 0.19722
 C2371 C 0.79767 0.39845 0.18686
 C2372 C 0.80246 0.38777 0.18191
 C2373 C 0.81259 0.38203 0.18726
 C2374 C 0.81775 0.38726 0.19771
 C2375 C 0.79792 0.41453 0.20232
 C2376 C 0.79370 0.42368 0.20662
 C2377 C 0.78867 0.43433 0.21171
 C2378 C 0.78428 0.44334 0.21612
 C2379 C 0.77887 0.45397 0.22151
 C2380 C 0.76838 0.45907 0.21643
 C2381 C 0.76276 0.46903 0.22197
 C2382 C 0.76756 0.47400 0.23270
 C2383 C 0.77824 0.46894 0.23761
 C2384 C 0.78384 0.45898 0.23204
 H2385 H 0.81703 0.40181 0.21068
 H2386 H 0.78988 0.40272 0.18260
 H2387 H 0.79820 0.38409 0.17389
 H2388 H 0.82549 0.38316 0.20215
 H2389 H 0.76444 0.45525 0.20828
 H2390 H 0.75455 0.47270 0.21797
 H2391 H 0.78217 0.47254 0.24586
 H2392 H 0.79195 0.45509 0.23606
 C2393 C 0.79763 0.89857 0.68699
 C2394 C 0.80284 0.90367 0.69736
 C2395 C 0.81288 0.89807 0.70278
 C2396 C 0.81772 0.88741 0.69785
 C2397 C 0.81258 0.88218 0.68738
 C2398 C 0.80245 0.88791 0.68203
 C2399 C 0.79784 0.91463 0.70247
 C2400 C 0.79362 0.92378 0.70677
 C2401 C 0.78859 0.93442 0.71185
 C2402 C 0.78420 0.94343 0.71626
 C2403 C 0.77879 0.95406 0.72163
 C2404 C 0.78377 0.95908 0.73216
 C2405 C 0.77817 0.96904 0.73772
 C2406 C 0.76748 0.97409 0.73282
 C2407 C 0.76268 0.96911 0.72209
 C2408 C 0.76830 0.95916 0.71655
 H2409 H 0.78984 0.90283 0.68273
 H2410 H 0.81696 0.90194 0.71084
 H2411 H 0.82547 0.88332 0.70228
 H2412 H 0.79822 0.88425 0.67399
 H2413 H 0.79189 0.95520 0.73617
 H2414 H 0.78209 0.97265 0.74597
 H2415 H 0.75447 0.97278 0.71809
 H2416 H 0.76436 0.95533 0.70841
 C2417 C 0.70318 0.60252 0.68764
 C2418 C 0.69768 0.59706 0.69770
 C2419 C 0.68724 0.60226 0.70276
 C2420 C 0.68225 0.61282 0.69775
 C2421 C 0.68763 0.61835 0.68756
 C2422 C 0.69821 0.61308 0.68261
 C2423 C 0.70272 0.58611 0.70278
 C2424 C 0.70694 0.57693 0.70703
 C2425 C 0.71192 0.56623 0.71205
 C2426 C 0.71625 0.55715 0.71639
 C2427 C 0.72155 0.54642 0.72169
 C2428 C 0.71651 0.54136 0.73218
 C2429 C 0.72200 0.53129 0.73767
 C2430 C 0.73263 0.52616 0.73272
 C2431 C 0.73749 0.53118 0.72204
 C2432 C 0.73199 0.54125 0.71657
 H2433 H 0.71129 0.59859 0.68366
 H2434 H 0.68292 0.59812 0.71056
 H2435 H 0.67412 0.61653 0.70184
 H2436 H 0.70268 0.61705 0.67484
 H2437 H 0.70844 0.54530 0.73623
 H2438 H 0.71804 0.52766 0.74589
 H2439 H 0.74567 0.52747 0.71801
 H2440 H 0.73597 0.54510 0.70845
 C2441 C 0.70243 0.10141 0.18692
 C2442 C 0.69719 0.09627 0.19727
 C2443 C 0.68714 0.10187 0.20269
 C2444 C 0.68234 0.11257 0.19778
 C2445 C 0.68753 0.11784 0.18736
 C2446 C 0.69765 0.11211 0.18200
 C2447 C 0.70216 0.08529 0.20236
 C2448 C 0.70637 0.07614 0.20667
 C2449 C 0.71139 0.06549 0.21177
 C2450 C 0.71578 0.05648 0.21619
 C2451 C 0.72120 0.04585 0.22157
 C2452 C 0.71622 0.04082 0.23211
 C2453 C 0.72184 0.03087 0.23767
 C2454 C 0.73252 0.02582 0.23276
 C2455 C 0.73732 0.03081 0.22203
 C2456 C 0.73169 0.04076 0.21649
 H2457 H 0.71022 0.09715 0.18265
 H2458 H 0.68302 0.09797 0.21072
 H2459 H 0.67458 0.11665 0.20222
 H2460 H 0.70193 0.11581 0.17399
 H2461 H 0.70811 0.04470 0.23613
 H2462 H 0.71791 0.02725 0.24592
 H2463 H 0.74553 0.02716 0.21802
 H2464 H 0.73562 0.04460 0.20833
 C2465 C 0.20233 0.60171 0.18698
 C2466 C 0.19695 0.59647 0.19720
 C2467 C 0.18677 0.60196 0.20248
 C2468 C 0.18196 0.61265 0.19755
 C2469 C 0.18728 0.61802 0.18724
 C2470 C 0.19755 0.61240 0.18203
 C2471 C 0.20193 0.58551 0.20231
 C2472 C 0.20616 0.57636 0.20661
 C2473 C 0.21122 0.56573 0.21169
 C2474 C 0.21564 0.55673 0.21610
 C2475 C 0.22107 0.54611 0.22148
 C2476 C 0.21610 0.54108 0.23202
 C2477 C 0.22170 0.53112 0.23758
 C2478 C 0.23239 0.52607 0.23266
 C2479 C 0.23718 0.53106 0.22193
 C2480 C 0.23156 0.54102 0.21639
 H2481 H 0.21023 0.59754 0.18283
 H2482 H 0.18254 0.59799 0.21042
 H2483 H 0.17409 0.61664 0.20187
 H2484 H 0.20193 0.61618 0.17411
 H2485 H 0.20799 0.54497 0.23604
 H2486 H 0.21778 0.52751 0.24583
 H2487 H 0.24539 0.52739 0.21792
 H2488 H 0.23549 0.54485 0.20824
 C2489 C 0.20235 0.10147 0.68726
 C2490 C 0.19698 0.09622 0.69749
 C2491 C 0.18678 0.10169 0.70275
 C2492 C 0.18194 0.11235 0.69781
 C2493 C 0.18725 0.11773 0.68750
 C2494 C 0.19754 0.11214 0.68230
 C2495 C 0.20199 0.08527 0.70261
 C2496 C 0.20624 0.07614 0.70691
 C2497 C 0.21132 0.06551 0.71199
 C2498 C 0.21576 0.05651 0.71639
 C2499 C 0.22122 0.04589 0.72175
 C2500 C 0.21628 0.04084 0.73230
 C2501 C 0.22191 0.03089 0.73784
 C2502 C 0.23260 0.02586 0.73290
 C2503 C 0.23737 0.03087 0.72217
 C2504 C 0.23171 0.04082 0.71664
 H2505 H 0.21026 0.09732 0.68312
 H2506 H 0.18256 0.09771 0.71069
 H2507 H 0.17406 0.11633 0.70212
 H2508 H 0.20191 0.11593 0.67439
 H2509 H 0.20816 0.04471 0.73633
 H2510 H 0.21801 0.02726 0.74609
 H2511 H 0.24558 0.02722 0.71814
 H2512 H 0.23563 0.04467 0.70849
 C2513 C 0.31291 0.60214 0.29711
 C2514 C 0.30290 0.59652 0.30256
 C2515 C 0.29766 0.60166 0.31291
 C2516 C 0.30242 0.61236 0.31782
 C2517 C 0.31253 0.61810 0.31244
 C2518 C 0.31769 0.61284 0.30200
 C2519 C 0.29794 0.58554 0.29748
 C2520 C 0.29374 0.57638 0.29321
 C2521 C 0.28873 0.56572 0.28814
 C2522 C 0.28434 0.55671 0.28374
 C2523 C 0.27893 0.54608 0.27839
 C2524 C 0.26843 0.54101 0.28349
 C2525 C 0.26281 0.53105 0.27797
 C2526 C 0.26761 0.52604 0.26725
 C2527 C 0.27829 0.53107 0.26233
 C2528 C 0.28390 0.54103 0.26786
 H2529 H 0.31702 0.59825 0.28907
 H2530 H 0.28988 0.59740 0.31719
 H2531 H 0.29815 0.61605 0.32584
 H2532 H 0.32543 0.61694 0.29754
 H2533 H 0.26450 0.54487 0.29163
 H2534 H 0.25460 0.52741 0.28199
 H2535 H 0.28222 0.52743 0.25408
 H2536 H 0.29201 0.54489 0.26383
 C2537 C 0.31331 0.10173 0.79746
 C2538 C 0.30312 0.09627 0.80274
 C2539 C 0.29766 0.10159 0.81288
 C2540 C 0.30238 0.11233 0.81775
 C2541 C 0.31266 0.11792 0.81255
 C2542 C 0.31804 0.11247 0.80231
 C2543 C 0.29822 0.08524 0.79771
 C2544 C 0.29405 0.07606 0.79346
 C2545 C 0.28906 0.06539 0.78841
 C2546 C 0.28467 0.05637 0.78401
 C2547 C 0.27925 0.04575 0.77865
 C2548 C 0.26876 0.04068 0.78374
 C2549 C 0.26312 0.03075 0.77821
 C2550 C 0.26789 0.02577 0.76747
 C2551 C 0.27857 0.03080 0.76253
 C2552 C 0.28420 0.04073 0.76809
 H2553 H 0.31759 0.09770 0.78958
 H2554 H 0.28975 0.09745 0.81702
 H2555 H 0.29792 0.11619 0.82559
 H2556 H 0.32592 0.11645 0.79799
 H2557 H 0.26484 0.04452 0.79190
 H2558 H 0.25491 0.02711 0.78223
 H2559 H 0.28247 0.02719 0.75427
 H2560 H 0.29230 0.04461 0.76406
 C2561 C 0.81303 0.60204 0.79716
 C2562 C 0.80301 0.59644 0.80260
 C2563 C 0.79777 0.60157 0.81295
 C2564 C 0.80255 0.61225 0.81788
 C2565 C 0.81267 0.61797 0.81252
 C2566 C 0.81784 0.61273 0.80207
 C2567 C 0.79804 0.58546 0.79752
 C2568 C 0.79383 0.57631 0.79324
 C2569 C 0.78881 0.56566 0.78818
 C2570 C 0.78441 0.55664 0.78379
 C2571 C 0.77900 0.54602 0.77845
 C2572 C 0.76850 0.54096 0.78353
 C2573 C 0.76288 0.53099 0.77802
 C2574 C 0.76770 0.52597 0.76731
 C2575 C 0.77838 0.53099 0.76239
 C2576 C 0.78398 0.54095 0.76792
 H2577 H 0.81714 0.59816 0.78912
 H2578 H 0.78999 0.59731 0.81722
 H2579 H 0.79828 0.61594 0.82590
 H2580 H 0.82558 0.61682 0.79763
 H2581 H 0.76456 0.54482 0.79167
 H2582 H 0.75467 0.52736 0.78204
 H2583 H 0.78231 0.52736 0.75415
 H2584 H 0.79210 0.54482 0.76390
 C2585 C 0.79782 0.10148 0.31297
 C2586 C 0.80305 0.09635 0.30262
 C2587 C 0.81306 0.10198 0.29717
 C2588 C 0.81784 0.11268 0.30206
 C2589 C 0.81268 0.11793 0.31251
 C2590 C 0.80258 0.11218 0.31789
 C2591 C 0.79811 0.08536 0.29755
 C2592 C 0.79392 0.07619 0.29328
 C2593 C 0.78892 0.06553 0.28823
 C2594 C 0.78453 0.05651 0.28385
 C2595 C 0.77911 0.04588 0.27850
 C2596 C 0.78408 0.04082 0.26797
 C2597 C 0.77847 0.03086 0.26243
 C2598 C 0.76779 0.02584 0.26736
 C2599 C 0.76299 0.03086 0.27808
 C2600 C 0.76862 0.04081 0.28359
 H2601 H 0.79005 0.09720 0.31726
 H2602 H 0.81717 0.09810 0.28912
 H2603 H 0.82557 0.11679 0.29760
 H2604 H 0.79831 0.11586 0.32591
 H2605 H 0.79220 0.04468 0.26394
 H2606 H 0.78239 0.02723 0.25419
 H2607 H 0.75477 0.02723 0.28210
 H2608 H 0.76469 0.04467 0.29174
 C2609 C 0.70235 0.39823 0.31278
 C2610 C 0.69692 0.40355 0.30262
 C2611 C 0.68674 0.39810 0.29735
 C2612 C 0.68197 0.38738 0.30222
 C2613 C 0.68734 0.38193 0.31247
 C2614 C 0.69761 0.38751 0.31767
 C2615 C 0.70186 0.41455 0.29756
 C2616 C 0.70606 0.42372 0.29329
 C2617 C 0.71108 0.43438 0.28823
 C2618 C 0.71548 0.44340 0.28383
 C2619 C 0.72092 0.45402 0.27848
 C2620 C 0.71596 0.45909 0.26795
 C2621 C 0.72160 0.46903 0.26240
 C2622 C 0.73229 0.47403 0.26733
 C2623 C 0.73707 0.46901 0.27805
 C2624 C 0.73142 0.45906 0.28357
 H2625 H 0.71027 0.40237 0.31692
 H2626 H 0.68247 0.40214 0.28947
 H2627 H 0.67408 0.38342 0.29792
 H2628 H 0.70204 0.38366 0.32553
 H2629 H 0.70785 0.45524 0.26392
 H2630 H 0.71769 0.47267 0.25416
 H2631 H 0.74529 0.47263 0.28206
 H2632 H 0.73534 0.45520 0.29172
 C2633 C 0.70219 0.89840 0.81289
 C2634 C 0.69671 0.90376 0.80278
 C2635 C 0.68648 0.89834 0.79755
 C2636 C 0.68173 0.88760 0.80241
 C2637 C 0.68716 0.88210 0.81260
 C2638 C 0.69747 0.88766 0.81776
 C2639 C 0.70165 0.91477 0.79772
 C2640 C 0.70587 0.92393 0.79344
 C2641 C 0.71092 0.93458 0.78839
 C2642 C 0.71535 0.94358 0.78399
 C2643 C 0.72081 0.95419 0.77862
 C2644 C 0.71586 0.95925 0.76808
 C2645 C 0.72151 0.96919 0.76253
 C2646 C 0.73221 0.97418 0.76744
 C2647 C 0.73699 0.96916 0.77817
 C2648 C 0.73132 0.95922 0.78370
 H2649 H 0.71013 0.90251 0.81700
 H2650 H 0.68217 0.90241 0.78971
 H2651 H 0.67381 0.88367 0.79815
 H2652 H 0.70196 0.88376 0.82556
 H2653 H 0.70774 0.95542 0.76406
 H2654 H 0.71761 0.97282 0.75428
 H2655 H 0.74521 0.97277 0.78218
 H2656 H 0.73524 0.95536 0.79185
 C2657 C 0.18695 0.39785 0.79712
 C2658 C 0.19696 0.40346 0.80256
 C2659 C 0.20219 0.39833 0.81291
 C2660 C 0.19742 0.38763 0.81784
 C2661 C 0.18731 0.38190 0.81247
 C2662 C 0.18215 0.38716 0.80202
 C2663 C 0.20193 0.41444 0.79747
 C2664 C 0.20616 0.42359 0.79319
 C2665 C 0.21120 0.43423 0.78811
 C2666 C 0.21562 0.44323 0.78371
 C2667 C 0.22105 0.45385 0.77836
 C2668 C 0.23155 0.45890 0.78345
 C2669 C 0.23718 0.46886 0.77794
 C2670 C 0.23239 0.47389 0.76722
 C2671 C 0.22171 0.46888 0.76229
 C2672 C 0.21609 0.45892 0.76783
 H2673 H 0.18285 0.40174 0.78908
 H2674 H 0.20996 0.40259 0.81719
 H2675 H 0.20167 0.38394 0.82586
 H2676 H 0.17442 0.38306 0.79757
 H2677 H 0.23548 0.45503 0.79159
 H2678 H 0.24539 0.47249 0.78196
 H2679 H 0.21779 0.47252 0.75405
 H2680 H 0.20798 0.45506 0.76379
 C2681 C 0.18710 0.89779 0.29686
 C2682 C 0.19720 0.90333 0.30221
 C2683 C 0.20236 0.89825 0.31263
 C2684 C 0.19741 0.88772 0.31773
 C2685 C 0.18719 0.88208 0.31247
 C2686 C 0.18212 0.88725 0.30194
 C2687 C 0.20222 0.91426 0.29708
 C2688 C 0.20642 0.92343 0.29282
 C2689 C 0.21138 0.93417 0.28785
 C2690 C 0.21570 0.94327 0.28357
 C2691 C 0.22101 0.95402 0.27834
 C2692 C 0.23146 0.95912 0.28349
 C2693 C 0.23706 0.96912 0.27801
 C2694 C 0.23229 0.97414 0.26729
 C2695 C 0.22160 0.96914 0.26236
 C2696 C 0.21602 0.95914 0.26785
 H2697 H 0.18304 0.90163 0.28877
 H2698 H 0.21020 0.90245 0.31684
 H2699 H 0.20160 0.88409 0.32581
 H2700 H 0.17431 0.88322 0.29757
 H2701 H 0.23539 0.95525 0.29162
 H2702 H 0.24525 0.97277 0.28206
 H2703 H 0.21768 0.97279 0.25412
 H2704 H 0.20792 0.95527 0.26380
 C2705 C 0.39810 0.31314 0.70255
 C2706 C 0.40356 0.30293 0.69731
 C2707 C 0.39826 0.29750 0.68715
 C2708 C 0.38754 0.30226 0.68224
 C2709 C 0.38195 0.31255 0.68742
 C2710 C 0.38739 0.31792 0.69766
 C2711 C 0.41455 0.29798 0.70239
 C2712 C 0.42372 0.29377 0.70667
 C2713 C 0.43438 0.28874 0.71174
 C2714 C 0.44339 0.28434 0.71614
 C2715 C 0.45402 0.27891 0.72152
 C2716 C 0.45911 0.26842 0.71644
 C2717 C 0.46904 0.26277 0.72199
 C2718 C 0.47401 0.26754 0.73274
 C2719 C 0.46897 0.27823 0.73765
 C2720 C 0.45903 0.28386 0.73207
 H2721 H 0.40212 0.31741 0.71044
 H2722 H 0.40240 0.28957 0.68303
 H2723 H 0.38371 0.29782 0.67438
 H2724 H 0.38343 0.32582 0.70195
 H2725 H 0.45528 0.26451 0.70828
 H2726 H 0.47270 0.25456 0.71798
 H2727 H 0.47257 0.28213 0.74591
 H2728 H 0.45515 0.29197 0.73609
 C2729 C 0.39838 0.79778 0.18697
 C2730 C 0.40372 0.80327 0.19707
 C2731 C 0.39829 0.81352 0.20227
 C2732 C 0.38756 0.81828 0.19738
 C2733 C 0.38207 0.81283 0.18721
 C2734 C 0.38765 0.80251 0.18206
 C2735 C 0.41469 0.79830 0.20217
 C2736 C 0.42383 0.79406 0.20648
 C2737 C 0.43445 0.78899 0.21159
 C2738 C 0.44343 0.78454 0.21602
 C2739 C 0.45401 0.77907 0.22144
 C2740 C 0.45900 0.78401 0.23201
 C2741 C 0.46893 0.77837 0.23760
 C2742 C 0.47398 0.76769 0.23268
 C2743 C 0.46902 0.76292 0.22194
 C2744 C 0.45910 0.76858 0.21637
 H2745 H 0.40249 0.78982 0.18288
 H2746 H 0.40234 0.81784 0.21011
 H2747 H 0.38362 0.82622 0.20162
 H2748 H 0.38376 0.79801 0.17427
 H2749 H 0.45512 0.79212 0.23602
 H2750 H 0.47252 0.78226 0.24586
 H2751 H 0.47267 0.75470 0.21793
 H2752 H 0.45528 0.76467 0.20820
 C2753 C 0.89781 0.31302 0.20266
 C2754 C 0.90344 0.30300 0.19723
 C2755 C 0.89833 0.29778 0.18687
 C2756 C 0.88764 0.30256 0.18193
 C2757 C 0.88188 0.31266 0.18729
 C2758 C 0.88712 0.31782 0.19774
 C2759 C 0.91442 0.29803 0.20233
 C2760 C 0.92357 0.29382 0.20664
 C2761 C 0.93422 0.28880 0.21174
 C2762 C 0.94323 0.28440 0.21616
 C2763 C 0.95386 0.27898 0.22154
 C2764 C 0.95898 0.26852 0.21644
 C2765 C 0.96895 0.26290 0.22197
 C2766 C 0.97392 0.26768 0.23270
 C2767 C 0.96884 0.27834 0.23764
 C2768 C 0.95887 0.28393 0.23209
 H2769 H 0.90169 0.31712 0.21070
 H2770 H 0.90261 0.29000 0.18260
 H2771 H 0.88396 0.29830 0.17391
 H2772 H 0.88301 0.32555 0.20218
 H2773 H 0.95516 0.26460 0.20828
 H2774 H 0.97263 0.25471 0.21794
 H2775 H 0.97244 0.28224 0.24590
 H2776 H 0.95496 0.29203 0.23612
 C2777 C 0.89832 0.79790 0.68703
 C2778 C 0.90343 0.80312 0.69739
 C2779 C 0.89783 0.81315 0.70281
 C2780 C 0.88715 0.81798 0.69788
 C2781 C 0.88191 0.81284 0.68743
 C2782 C 0.88764 0.80271 0.68208
 C2783 C 0.91441 0.79813 0.70248
 C2784 C 0.92356 0.79391 0.70677
 C2785 C 0.93422 0.78888 0.71184
 C2786 C 0.94325 0.78448 0.71623
 C2787 C 0.95389 0.77907 0.72159
 C2788 C 0.95892 0.78402 0.73213
 C2789 C 0.96888 0.77841 0.73767
 C2790 C 0.97393 0.76774 0.73275
 C2791 C 0.96895 0.76296 0.72201
 C2792 C 0.95898 0.76859 0.71649
 H2793 H 0.90258 0.79012 0.68276
 H2794 H 0.90170 0.81724 0.71086
 H2795 H 0.88306 0.82573 0.70232
 H2796 H 0.88396 0.79847 0.67405
 H2797 H 0.95503 0.79212 0.73616
 H2798 H 0.97249 0.78231 0.74593
 H2799 H 0.97261 0.75476 0.71799
 H2800 H 0.95515 0.76467 0.70834
 C2801 C 0.60191 0.31317 0.29734
 C2802 C 0.59648 0.30296 0.30260
 C2803 C 0.60182 0.29752 0.31274
 C2804 C 0.61252 0.30228 0.31764
 C2805 C 0.61808 0.31259 0.31246
 C2806 C 0.61262 0.31796 0.30222
 C2807 C 0.58549 0.29801 0.29753
 C2808 C 0.57633 0.29380 0.29325
 C2809 C 0.56567 0.28878 0.28819
 C2810 C 0.55667 0.28438 0.28379
 C2811 C 0.54606 0.27893 0.27843
 C2812 C 0.54101 0.26844 0.28352
 C2813 C 0.53108 0.26277 0.27799
 C2814 C 0.52608 0.26754 0.26725
 C2815 C 0.53108 0.27823 0.26232
 C2816 C 0.54101 0.28387 0.26788
 H2817 H 0.59786 0.31744 0.28946
 H2818 H 0.59770 0.28959 0.31687
 H2819 H 0.61639 0.29785 0.32549
 H2820 H 0.61656 0.32587 0.29792
 H2821 H 0.54486 0.26453 0.29168
 H2822 H 0.52746 0.25456 0.28201
 H2823 H 0.52746 0.28212 0.25406
 H2824 H 0.54486 0.29199 0.26385
 C2825 C 0.60166 0.81356 0.79762
 C2826 C 0.59624 0.80333 0.80286
 C2827 C 0.60159 0.79786 0.81298
 C2828 C 0.61232 0.80258 0.81785
 C2829 C 0.61789 0.81288 0.81267
 C2830 C 0.61240 0.81831 0.80247
 C2831 C 0.58525 0.79837 0.79779
 C2832 C 0.57610 0.79415 0.79350
 C2833 C 0.56547 0.78909 0.78841
 C2834 C 0.55649 0.78466 0.78400
 C2835 C 0.54589 0.77921 0.77861
 C2836 C 0.54084 0.76872 0.78370
 C2837 C 0.53091 0.76306 0.77816
 C2838 C 0.52591 0.76784 0.76742
 C2839 C 0.53094 0.77852 0.76249
 C2840 C 0.54087 0.78415 0.76805
 H2841 H 0.59760 0.81786 0.78977
 H2842 H 0.59748 0.78992 0.81709
 H2843 H 0.61622 0.79810 0.82566
 H2844 H 0.61633 0.82623 0.79820
 H2845 H 0.54468 0.76480 0.79186
 H2846 H 0.52727 0.75485 0.78218
 H2847 H 0.52732 0.78242 0.75423
 H2848 H 0.54473 0.79226 0.76403
 C2849 C 0.10204 0.31303 0.79716
 C2850 C 0.09643 0.30302 0.80261
 C2851 C 0.10156 0.29780 0.81297
 C2852 C 0.11226 0.30256 0.81788
 C2853 C 0.11800 0.31266 0.81250
 C2854 C 0.11275 0.31782 0.80205
 C2855 C 0.08544 0.29805 0.79753
 C2856 C 0.07629 0.29383 0.79325
 C2857 C 0.06564 0.28879 0.78819
 C2858 C 0.05664 0.28438 0.78379
 C2859 C 0.04601 0.27896 0.77844
 C2860 C 0.04093 0.26849 0.78356
 C2861 C 0.03096 0.26287 0.77805
 C2862 C 0.02595 0.26765 0.76732
 C2863 C 0.03100 0.27830 0.76237
 C2864 C 0.04097 0.28391 0.76789
 H2865 H 0.09816 0.31713 0.78911
 H2866 H 0.09729 0.29003 0.81726
 H2867 H 0.11595 0.29830 0.82590
 H2868 H 0.11685 0.32554 0.79759
 H2869 H 0.04477 0.26457 0.79171
 H2870 H 0.02730 0.25467 0.78209
 H2871 H 0.02737 0.28221 0.75411
 H2872 H 0.04485 0.29200 0.76384
 C2873 C 0.10220 0.81289 0.29693
 C2874 C 0.09666 0.80279 0.30230
 C2875 C 0.10173 0.79763 0.31271
 C2876 C 0.11226 0.80259 0.31781
 C2877 C 0.11791 0.81280 0.31254
 C2878 C 0.11273 0.81787 0.30200
 C2879 C 0.08572 0.79778 0.29717
 C2880 C 0.07655 0.79358 0.29291
 C2881 C 0.06581 0.78864 0.28795
 C2882 C 0.05670 0.78433 0.28366
 C2883 C 0.04595 0.77904 0.27844
 C2884 C 0.04082 0.76861 0.28360
 C2885 C 0.03082 0.76302 0.27813
 C2886 C 0.02583 0.76779 0.26739
 C2887 C 0.03085 0.77846 0.26245
 C2888 C 0.04086 0.78403 0.26794
 H2889 H 0.09836 0.81694 0.28884
 H2890 H 0.09753 0.78979 0.31693
 H2891 H 0.11589 0.79839 0.32589
 H2892 H 0.11676 0.82567 0.29762
 H2893 H 0.04468 0.76468 0.29175
 H2894 H 0.02715 0.75484 0.28218
 H2895 H 0.02722 0.78238 0.25420
 H2896 H 0.04475 0.79211 0.26388
 C2897 C 0.60187 0.68695 0.70273
 C2898 C 0.59649 0.69722 0.69750
 C2899 C 0.60189 0.70269 0.68741
 C2900 C 0.61260 0.69790 0.68252
 C2901 C 0.61810 0.68754 0.68767
 C2902 C 0.61258 0.68214 0.69787
 C2903 C 0.58548 0.70218 0.70254
 C2904 C 0.57630 0.70640 0.70680
 C2905 C 0.56563 0.71142 0.71185
 C2906 C 0.55660 0.71582 0.71625
 C2907 C 0.54597 0.72124 0.72162
 C2908 C 0.54088 0.73173 0.71653
 C2909 C 0.53093 0.73737 0.72208
 C2910 C 0.52595 0.73259 0.73282
 C2911 C 0.53100 0.72191 0.73775
 C2912 C 0.54095 0.71629 0.73218
 H2913 H 0.59778 0.68266 0.71057
 H2914 H 0.59781 0.71065 0.68330
 H2915 H 0.61649 0.70233 0.67469
 H2916 H 0.61650 0.67422 0.70215
 H2917 H 0.54471 0.73565 0.70837
 H2918 H 0.52727 0.74558 0.71806
 H2919 H 0.52740 0.71801 0.74601
 H2920 H 0.54484 0.70818 0.73620
 C2921 C 0.60176 0.20206 0.18699
 C2922 C 0.59661 0.19680 0.19732
 C2923 C 0.60221 0.18676 0.20274
 C2924 C 0.61293 0.18198 0.19784
 C2925 C 0.61821 0.18717 0.18743
 C2926 C 0.61247 0.19729 0.18207
 C2927 C 0.58561 0.20176 0.20240
 C2928 C 0.57645 0.20597 0.20668
 C2929 C 0.56579 0.21099 0.21176
 C2930 C 0.55677 0.21539 0.21617
 C2931 C 0.54614 0.22081 0.22154
 C2932 C 0.54111 0.21587 0.23209
 C2933 C 0.53116 0.22149 0.23765
 C2934 C 0.52612 0.23217 0.23272
 C2935 C 0.53111 0.23694 0.22198
 C2936 C 0.54106 0.23130 0.21644
 H2937 H 0.59750 0.20985 0.18272
 H2938 H 0.59831 0.18264 0.21076
 H2939 H 0.61702 0.17422 0.20227
 H2940 H 0.61618 0.20158 0.17407
 H2941 H 0.54499 0.20776 0.23612
 H2942 H 0.52755 0.21759 0.24591
 H2943 H 0.52745 0.24515 0.21796
 H2944 H 0.54489 0.23522 0.20828
 C2945 C 0.10167 0.70240 0.18703
 C2946 C 0.09642 0.69702 0.19725
 C2947 C 0.10191 0.68684 0.20252
 C2948 C 0.11261 0.68203 0.19759
 C2949 C 0.11798 0.68735 0.18728
 C2950 C 0.11236 0.69763 0.18208
 C2951 C 0.08543 0.70198 0.20235
 C2952 C 0.07627 0.70620 0.20664
 C2953 C 0.06562 0.71125 0.21171
 C2954 C 0.05661 0.71567 0.21612
 C2955 C 0.04600 0.72112 0.22150
 C2956 C 0.04100 0.71619 0.23208
 C2957 C 0.03106 0.72184 0.23766
 C2958 C 0.02601 0.73251 0.23272
 C2959 C 0.03097 0.73726 0.22196
 C2960 C 0.04091 0.73160 0.21640
 H2961 H 0.09751 0.71031 0.18289
 H2962 H 0.09793 0.68260 0.21045
 H2963 H 0.11660 0.67416 0.20190
 H2964 H 0.11615 0.70202 0.17418
 H2965 H 0.04488 0.70809 0.23611
 H2966 H 0.02747 0.71795 0.24593
 H2967 H 0.02731 0.74546 0.21793
 H2968 H 0.04472 0.73550 0.20822
 C2969 C 0.10167 0.20213 0.68731
 C2970 C 0.09640 0.19675 0.69752
 C2971 C 0.10187 0.18656 0.70279
 C2972 C 0.11256 0.18174 0.69787
 C2973 C 0.11795 0.18706 0.68756
 C2974 C 0.11235 0.19734 0.68236
 C2975 C 0.08543 0.20174 0.70262
 C2976 C 0.07628 0.20598 0.70690
 C2977 C 0.06563 0.21105 0.71196
 C2978 C 0.05662 0.21549 0.71635
 C2979 C 0.04600 0.22096 0.72170
 C2980 C 0.04095 0.21604 0.73225
 C2981 C 0.03100 0.22169 0.73779
 C2982 C 0.02598 0.23236 0.73283
 C2983 C 0.03099 0.23711 0.72209
 C2984 C 0.04094 0.23144 0.71657
 H2985 H 0.09751 0.21004 0.68316
 H2986 H 0.09789 0.18233 0.71072
 H2987 H 0.11654 0.17386 0.70218
 H2988 H 0.11615 0.20173 0.67446
 H2989 H 0.04481 0.20793 0.73630
 H2990 H 0.02737 0.21780 0.74605
 H2991 H 0.02735 0.24531 0.71805
 H2992 H 0.04479 0.23534 0.70841
 C2993 C 0.39779 0.68700 0.29708
 C2994 C 0.40340 0.69701 0.30252
 C2995 C 0.39825 0.70224 0.31287
 C2996 C 0.38755 0.69747 0.31779
 C2997 C 0.38182 0.68737 0.31242
 C2998 C 0.38709 0.68221 0.30198
 C2999 C 0.41439 0.70197 0.29745
 C3000 C 0.42355 0.70618 0.29317
 C3001 C 0.43421 0.71121 0.28811
 C3002 C 0.44322 0.71563 0.28372
 C3003 C 0.45385 0.72106 0.27838
 C3004 C 0.45889 0.73155 0.28348
 C3005 C 0.46886 0.73719 0.27798
 C3006 C 0.47390 0.73241 0.26727
 C3007 C 0.46890 0.72173 0.26232
 C3008 C 0.45893 0.71611 0.26785
 H3009 H 0.40169 0.68289 0.28905
 H3010 H 0.40251 0.71001 0.31715
 H3011 H 0.38385 0.70173 0.32580
 H3012 H 0.38299 0.67448 0.29753
 H3013 H 0.45502 0.73547 0.29162
 H3014 H 0.47248 0.74540 0.28201
 H3015 H 0.47255 0.71783 0.25409
 H3016 H 0.45508 0.70801 0.26381
 C3017 C 0.39809 0.18662 0.79742
 C3018 C 0.40353 0.19681 0.80268
 C3019 C 0.39820 0.20225 0.81283
 C3020 C 0.38748 0.19750 0.81773
 C3021 C 0.38192 0.18721 0.81254
 C3022 C 0.38737 0.18185 0.80230
 C3023 C 0.41454 0.20175 0.79763
 C3024 C 0.42372 0.20595 0.79336
 C3025 C 0.43438 0.21097 0.78829
 C3026 C 0.44339 0.21538 0.78389
 C3027 C 0.45400 0.22082 0.77853
 C3028 C 0.45905 0.23132 0.78361
 C3029 C 0.46898 0.23698 0.77807
 C3030 C 0.47399 0.23221 0.76734
 C3031 C 0.46899 0.22153 0.76242
 C3032 C 0.45905 0.21589 0.76798
 H3033 H 0.40213 0.18235 0.78954
 H3034 H 0.40233 0.21017 0.81696
 H3035 H 0.38362 0.20194 0.82557
 H3036 H 0.38341 0.17396 0.79799
 H3037 H 0.45519 0.23523 0.79177
 H3038 H 0.47260 0.24519 0.78209
 H3039 H 0.47262 0.21763 0.75416
 H3040 H 0.45520 0.20777 0.76395
 C3041 C 0.89790 0.68690 0.79715
 C3042 C 0.90345 0.69697 0.80254
 C3043 C 0.89827 0.70223 0.81286
 C3044 C 0.88759 0.69744 0.81779
 C3045 C 0.88191 0.68728 0.81247
 C3046 C 0.88721 0.68209 0.80206
 C3047 C 0.91443 0.70194 0.79746
 C3048 C 0.92358 0.70617 0.79318
 C3049 C 0.93423 0.71121 0.78812
 C3050 C 0.94324 0.71563 0.78373
 C3051 C 0.95387 0.72107 0.77839
 C3052 C 0.95892 0.73156 0.78349
 C3053 C 0.96888 0.73720 0.77799
 C3054 C 0.97392 0.73243 0.76727
 C3055 C 0.96891 0.72176 0.76233
 C3056 C 0.95895 0.71613 0.76785
 H3057 H 0.90182 0.68277 0.78914
 H3058 H 0.90249 0.71004 0.81709
 H3059 H 0.88386 0.70173 0.82578
 H3060 H 0.88316 0.67431 0.79766
 H3061 H 0.95504 0.73547 0.79164
 H3062 H 0.97250 0.74541 0.78202
 H3063 H 0.97256 0.71786 0.75409
 H3064 H 0.95510 0.70803 0.76381
 C3065 C 0.89831 0.20218 0.31290
 C3066 C 0.90345 0.19696 0.30254
 C3067 C 0.89785 0.18694 0.29711
 C3068 C 0.88716 0.18213 0.30202
 C3069 C 0.88190 0.18728 0.31247
 C3070 C 0.88762 0.19739 0.31783
 C3071 C 0.91442 0.20194 0.29745
 C3072 C 0.92357 0.20615 0.29316
 C3073 C 0.93422 0.21119 0.28808
 C3074 C 0.94323 0.21560 0.28368
 C3075 C 0.95385 0.22104 0.27833
 C3076 C 0.95892 0.21610 0.26779
 C3077 C 0.96888 0.22172 0.26227
 C3078 C 0.97390 0.23239 0.26721
 C3079 C 0.96886 0.23716 0.27793
 C3080 C 0.95890 0.23152 0.28344
 H3081 H 0.90256 0.20996 0.31717
 H3082 H 0.90174 0.18284 0.28907
 H3083 H 0.88307 0.17439 0.29758
 H3084 H 0.88392 0.20164 0.32586
 H3085 H 0.95506 0.20799 0.26375
 H3086 H 0.97253 0.21782 0.25402
 H3087 H 0.97249 0.24537 0.28197
 H3088 H 0.95503 0.23543 0.29159
 C3089 C 0.31299 0.29738 0.60165
 C3090 C 0.30278 0.30274 0.59629
 C3091 C 0.29740 0.31292 0.60167
 C3092 C 0.30221 0.31774 0.61236
 C3093 C 0.31250 0.31245 0.61785
 C3094 C 0.31782 0.30219 0.61234
 C3095 C 0.29778 0.29774 0.58532
 C3096 C 0.29355 0.29352 0.57618
 C3097 C 0.28851 0.28849 0.56554
 C3098 C 0.28412 0.28409 0.55655
 C3099 C 0.27873 0.27870 0.54596
 C3100 C 0.26818 0.28373 0.54093
 C3101 C 0.26257 0.27813 0.53103
 C3102 C 0.26743 0.26740 0.52604
 C3103 C 0.27818 0.26255 0.53103
 C3104 C 0.28377 0.26817 0.54093
 H3105 H 0.31722 0.28948 0.59757
 H3106 H 0.28948 0.31713 0.59760
 H3107 H 0.29781 0.32562 0.61626
 H3108 H 0.32571 0.29781 0.61622
 H3109 H 0.26420 0.29188 0.54477
 H3110 H 0.25431 0.28210 0.52742
 H3111 H 0.28215 0.25430 0.52742
 H3112 H 0.29193 0.26419 0.54477
 C3113 C 0.29754 0.81308 0.10146
 C3114 C 0.30288 0.80285 0.09613
 C3115 C 0.31303 0.79745 0.10154
 C3116 C 0.31787 0.80226 0.11222
 C3117 C 0.31260 0.81259 0.11767
 C3118 C 0.30236 0.81792 0.11214
 C3119 C 0.29789 0.79786 0.08515
 C3120 C 0.29368 0.79364 0.07599
 C3121 C 0.28868 0.78862 0.06533
 C3122 C 0.28431 0.78424 0.05632
 C3123 C 0.27894 0.77886 0.04571
 C3124 C 0.28399 0.76832 0.04068
 C3125 C 0.27841 0.76271 0.03077
 C3126 C 0.26768 0.76758 0.02576
 C3127 C 0.26282 0.77831 0.03074
 C3128 C 0.26842 0.78390 0.04065
 H3129 H 0.28966 0.81732 0.09736
 H3130 H 0.31722 0.78950 0.09751
 H3131 H 0.32572 0.79785 0.11615
 H3132 H 0.29800 0.82584 0.11599
 H3133 H 0.29213 0.76434 0.04454
 H3134 H 0.28239 0.75446 0.02716
 H3135 H 0.25458 0.78229 0.02710
 H3136 H 0.26443 0.79205 0.04448
 C3137 C 0.79734 0.31305 0.10150
 C3138 C 0.80273 0.30289 0.09611
 C3139 C 0.81293 0.29752 0.10147
 C3140 C 0.81775 0.30231 0.11217
 C3141 C 0.81243 0.31257 0.11769
 C3142 C 0.80214 0.31787 0.11220
 C3143 C 0.79775 0.29792 0.08513
 C3144 C 0.79353 0.29370 0.07597
 C3145 C 0.78851 0.28869 0.06533
 C3146 C 0.78412 0.28431 0.05633
 C3147 C 0.77873 0.27892 0.04575
 C3148 C 0.78380 0.26840 0.04070
 C3149 C 0.77820 0.26278 0.03081
 C3150 C 0.76743 0.26760 0.02585
 C3151 C 0.76254 0.27831 0.03085
 C3152 C 0.76816 0.28392 0.04074
 H3153 H 0.78942 0.31726 0.09744
 H3154 H 0.81717 0.28963 0.09738
 H3155 H 0.82565 0.29794 0.11605
 H3156 H 0.79773 0.32573 0.11611
 H3157 H 0.79197 0.26445 0.04452
 H3158 H 0.78220 0.25455 0.02718
 H3159 H 0.75427 0.28225 0.02725
 H3160 H 0.76415 0.29205 0.04459
 C3161 C 0.81295 0.79764 0.60165
 C3162 C 0.80278 0.80302 0.59626
 C3163 C 0.79739 0.81320 0.60163
 C3164 C 0.80217 0.81801 0.61233
 C3165 C 0.81244 0.81270 0.61785
 C3166 C 0.81776 0.80243 0.61235
 C3167 C 0.79780 0.79803 0.58528
 C3168 C 0.79358 0.79380 0.57613
 C3169 C 0.78856 0.78876 0.56549
 C3170 C 0.78417 0.78436 0.55650
 C3171 C 0.77878 0.77895 0.54592
 C3172 C 0.76822 0.78396 0.54090
 C3173 C 0.76261 0.77835 0.53101
 C3174 C 0.76749 0.76762 0.52602
 C3175 C 0.77824 0.76279 0.53100
 C3176 C 0.78384 0.76842 0.54089
 H3177 H 0.81718 0.78973 0.59758
 H3178 H 0.78949 0.81742 0.59754
 H3179 H 0.79778 0.82589 0.61622
 H3180 H 0.82564 0.79804 0.61626
 H3181 H 0.76423 0.79210 0.54474
 H3182 H 0.75434 0.78230 0.52740
 H3183 H 0.78223 0.75455 0.52738
 H3184 H 0.79200 0.76446 0.54472
 C3185 C 0.29734 0.68700 0.39830
 C3186 C 0.30273 0.69716 0.40368
 C3187 C 0.31289 0.70254 0.39828
 C3188 C 0.31769 0.69777 0.38756
 C3189 C 0.31237 0.68751 0.38205
 C3190 C 0.30211 0.68220 0.38757
 C3191 C 0.29777 0.70213 0.41469
 C3192 C 0.29357 0.70634 0.42386
 C3193 C 0.28856 0.71136 0.43451
 C3194 C 0.28419 0.71576 0.44352
 C3195 C 0.27882 0.72116 0.45412
 C3196 C 0.28386 0.73169 0.45914
 C3197 C 0.27828 0.73732 0.46904
 C3198 C 0.26755 0.73248 0.47405
 C3199 C 0.26268 0.72176 0.46908
 C3200 C 0.26828 0.71615 0.45918
 H3201 H 0.28944 0.68278 0.40240
 H3202 H 0.31712 0.71043 0.40236
 H3203 H 0.32556 0.70216 0.38365
 H3204 H 0.29772 0.67434 0.38368
 H3205 H 0.29201 0.73566 0.45527
 H3206 H 0.28226 0.74557 0.47264
 H3207 H 0.25443 0.71781 0.47271
 H3208 H 0.26429 0.70801 0.45535
 C3209 C 0.31289 0.20237 0.89837
 C3210 C 0.30270 0.19701 0.90374
 C3211 C 0.29735 0.18682 0.89837
 C3212 C 0.30219 0.18198 0.88769
 C3213 C 0.31246 0.18728 0.88219
 C3214 C 0.31775 0.19755 0.88769
 C3215 C 0.29769 0.20200 0.91472
 C3216 C 0.29347 0.20623 0.92387
 C3217 C 0.28845 0.21125 0.93452
 C3218 C 0.28407 0.21565 0.94353
 C3219 C 0.27869 0.22106 0.95413
 C3220 C 0.26814 0.21607 0.95917
 C3221 C 0.26253 0.22169 0.96907
 C3222 C 0.26741 0.23241 0.97404
 C3223 C 0.27815 0.23723 0.96904
 C3224 C 0.28374 0.23159 0.95914
 H3225 H 0.31710 0.21028 0.90244
 H3226 H 0.28944 0.18261 0.90245
 H3227 H 0.29783 0.17408 0.88381
 H3228 H 0.32564 0.20192 0.88381
 H3229 H 0.26415 0.20793 0.95535
 H3230 H 0.25427 0.21775 0.97269
 H3231 H 0.28213 0.24548 0.97263
 H3232 H 0.29190 0.23554 0.95529
 C3233 C 0.81299 0.70245 0.89833
 C3234 C 0.80283 0.69707 0.90373
 C3235 C 0.79746 0.68689 0.89837
 C3236 C 0.80224 0.68207 0.88766
 C3237 C 0.81249 0.68739 0.88213
 C3238 C 0.81779 0.69766 0.88761
 C3239 C 0.79786 0.70205 0.91473
 C3240 C 0.79364 0.70628 0.92389
 C3241 C 0.78863 0.71131 0.93453
 C3242 C 0.78424 0.71571 0.94353
 C3243 C 0.77886 0.72112 0.95412
 C3244 C 0.76831 0.71611 0.95916
 C3245 C 0.76270 0.72172 0.96906
 C3246 C 0.76756 0.73244 0.97404
 C3247 C 0.77830 0.73728 0.96905
 C3248 C 0.78390 0.73165 0.95914
 H3249 H 0.81720 0.71036 0.90239
 H3250 H 0.78957 0.68266 0.90248
 H3251 H 0.79786 0.67419 0.88378
 H3252 H 0.82565 0.70205 0.88370
 H3253 H 0.76432 0.70797 0.95533
 H3254 H 0.75444 0.71777 0.97268
 H3255 H 0.78228 0.74552 0.97265
 H3256 H 0.79205 0.73561 0.95530
 C3257 C 0.81294 0.20239 0.39833
 C3258 C 0.80277 0.19701 0.40372
 C3259 C 0.79741 0.18683 0.39835
 C3260 C 0.80220 0.18203 0.38763
 C3261 C 0.81246 0.18734 0.38211
 C3262 C 0.81776 0.19761 0.38761
 C3263 C 0.79779 0.20198 0.41471
 C3264 C 0.79357 0.20619 0.42387
 C3265 C 0.78854 0.21121 0.43452
 C3266 C 0.78415 0.21561 0.44352
 C3267 C 0.77875 0.22101 0.45411
 C3268 C 0.76820 0.21601 0.45914
 C3269 C 0.76258 0.22162 0.46904
 C3270 C 0.76745 0.23234 0.47402
 C3271 C 0.77820 0.23717 0.46903
 C3272 C 0.78379 0.23154 0.45913
 H3273 H 0.81716 0.21029 0.40240
 H3274 H 0.78951 0.18261 0.40243
 H3275 H 0.79781 0.17415 0.38374
 H3276 H 0.82563 0.20200 0.38371
 H3277 H 0.76421 0.20787 0.45531
 H3278 H 0.75432 0.21767 0.47266
 H3279 H 0.78218 0.24541 0.47264
 H3280 H 0.79195 0.23550 0.45529
 C3281 C 0.70252 0.31296 0.39830
 C3282 C 0.69718 0.30275 0.40365
 C3283 C 0.68703 0.29735 0.39824
 C3284 C 0.68222 0.30215 0.38753
 C3285 C 0.68749 0.31245 0.38205
 C3286 C 0.69773 0.31778 0.38759
 C3287 C 0.70215 0.29777 0.41465
 C3288 C 0.70637 0.29355 0.42381
 C3289 C 0.71139 0.28853 0.43447
 C3290 C 0.71577 0.28414 0.44347
 C3291 C 0.72116 0.27875 0.45408
 C3292 C 0.71612 0.26823 0.45912
 C3293 C 0.72171 0.26261 0.46903
 C3294 C 0.73245 0.26745 0.47401
 C3295 C 0.73731 0.27817 0.46902
 C3296 C 0.73170 0.28377 0.45911
 H3297 H 0.71040 0.31720 0.40240
 H3298 H 0.68283 0.28942 0.40230
 H3299 H 0.67437 0.29774 0.38361
 H3300 H 0.70209 0.32568 0.38371
 H3301 H 0.70797 0.26426 0.45529
 H3302 H 0.71773 0.25437 0.47266
 H3303 H 0.74556 0.28213 0.47263
 H3304 H 0.73568 0.29191 0.45526
 C3305 C 0.70252 0.81307 0.89832
 C3306 C 0.69716 0.80288 0.90371
 C3307 C 0.68697 0.79753 0.89834
 C3308 C 0.68212 0.80234 0.88765
 C3309 C 0.68741 0.81262 0.88215
 C3310 C 0.69770 0.81790 0.88763
 C3311 C 0.70216 0.79789 0.91469
 C3312 C 0.70639 0.79367 0.92385
 C3313 C 0.71143 0.78865 0.93449
 C3314 C 0.71583 0.78426 0.94349
 C3315 C 0.72123 0.77886 0.95409
 C3316 C 0.71619 0.76833 0.95914
 C3317 C 0.72179 0.76271 0.96904
 C3318 C 0.73254 0.76754 0.97401
 C3319 C 0.73741 0.77825 0.96900
 C3320 C 0.73178 0.78386 0.95910
 H3321 H 0.71044 0.81727 0.90238
 H3322 H 0.68276 0.78962 0.90243
 H3323 H 0.67423 0.79797 0.88378
 H3324 H 0.70208 0.82578 0.88373
 H3325 H 0.70803 0.76438 0.95532
 H3326 H 0.71781 0.75447 0.97267
 H3327 H 0.74567 0.78220 0.97260
 H3328 H 0.73577 0.79199 0.95525
 C3329 C 0.20246 0.31297 0.89836
 C3330 C 0.19708 0.30280 0.90375
 C3331 C 0.18691 0.29743 0.89836
 C3332 C 0.18210 0.30223 0.88765
 C3333 C 0.18741 0.31249 0.88214
 C3334 C 0.19768 0.31779 0.88765
 C3335 C 0.20204 0.29783 0.91475
 C3336 C 0.20625 0.29361 0.92392
 C3337 C 0.21126 0.28859 0.93458
 C3338 C 0.21565 0.28420 0.94358
 C3339 C 0.22105 0.27881 0.95418
 C3340 C 0.21602 0.26828 0.95923
 C3341 C 0.22164 0.26266 0.96913
 C3342 C 0.23239 0.26750 0.97408
 C3343 C 0.23724 0.27822 0.96908
 C3344 C 0.23161 0.28382 0.95918
 H3345 H 0.21037 0.31718 0.90244
 H3346 H 0.18269 0.28953 0.90244
 H3347 H 0.17423 0.29785 0.88376
 H3348 H 0.20207 0.32566 0.88375
 H3349 H 0.20786 0.26432 0.95541
 H3350 H 0.21768 0.25442 0.97275
 H3351 H 0.24551 0.28217 0.97266
 H3352 H 0.23559 0.29196 0.95533
 C3353 C 0.18681 0.79764 0.39844
 C3354 C 0.19693 0.80306 0.40386
 C3355 C 0.20236 0.81319 0.39843
 C3356 C 0.19769 0.81788 0.38761
 C3357 C 0.18749 0.81250 0.38204
 C3358 C 0.18212 0.80231 0.38762
 C3359 C 0.20190 0.79810 0.41486
 C3360 C 0.20616 0.79386 0.42400
 C3361 C 0.21126 0.78877 0.43458
 C3362 C 0.21573 0.78432 0.44352
 C3363 C 0.22121 0.77886 0.45404
 C3364 C 0.23179 0.78385 0.45902
 C3365 C 0.23743 0.77824 0.46890
 C3366 C 0.23256 0.76753 0.47392
 C3367 C 0.22182 0.76269 0.46896
 C3368 C 0.21620 0.76832 0.45907
 H3369 H 0.18255 0.78978 0.40256
 H3370 H 0.21022 0.81745 0.40254
 H3371 H 0.20212 0.82571 0.38367
 H3372 H 0.17429 0.79788 0.38368
 H3373 H 0.23576 0.79199 0.45517
 H3374 H 0.24570 0.78219 0.47248
 H3375 H 0.21785 0.75444 0.47258
 H3376 H 0.20803 0.76436 0.45527
 C3377 C 0.68745 0.70278 0.60222
 C3378 C 0.69772 0.69747 0.59693
 C3379 C 0.70307 0.68728 0.60232
 C3380 C 0.69814 0.68237 0.61293
 C3381 C 0.68775 0.68758 0.61831
 C3382 C 0.68250 0.69789 0.61283
 C3383 C 0.70274 0.70246 0.58595
 C3384 C 0.70695 0.70666 0.57678
 C3385 C 0.71192 0.71165 0.56608
 C3386 C 0.71624 0.71600 0.55703
 C3387 C 0.72153 0.72134 0.54635
 C3388 C 0.73204 0.71630 0.54124
 C3389 C 0.73755 0.72185 0.53124
 C3390 C 0.73262 0.73254 0.52624
 C3391 C 0.72192 0.73740 0.53129
 C3392 C 0.71642 0.73184 0.54129
 H3393 H 0.68323 0.71069 0.59812
 H3394 H 0.71105 0.68311 0.59832
 H3395 H 0.70253 0.67451 0.61688
 H3396 H 0.67449 0.70216 0.61661
 H3397 H 0.73607 0.70818 0.54509
 H3398 H 0.74578 0.71787 0.52758
 H3399 H 0.71789 0.74563 0.52767
 H3400 H 0.70830 0.73582 0.54518
 C3401 C 0.68715 0.20239 0.10156
 C3402 C 0.69733 0.19701 0.09617
 C3403 C 0.70270 0.18682 0.10154
 C3404 C 0.69792 0.18201 0.11226
 C3405 C 0.68765 0.18732 0.11777
 C3406 C 0.68234 0.19760 0.11227
 C3407 C 0.70231 0.20199 0.08519
 C3408 C 0.70652 0.20623 0.07603
 C3409 C 0.71154 0.21127 0.06539
 C3410 C 0.71592 0.21568 0.05640
 C3411 C 0.72129 0.22110 0.04580
 C3412 C 0.73185 0.21610 0.04076
 C3413 C 0.73743 0.22172 0.03085
 C3414 C 0.73253 0.23244 0.02587
 C3415 C 0.72178 0.23726 0.03087
 C3416 C 0.71621 0.23162 0.04078
 H3417 H 0.68293 0.21030 0.09749
 H3418 H 0.71061 0.18259 0.09745
 H3419 H 0.70231 0.17413 0.11615
 H3420 H 0.67447 0.20199 0.11618
 H3421 H 0.73586 0.20797 0.04459
 H3422 H 0.74570 0.21779 0.02722
 H3423 H 0.71777 0.24550 0.02726
 H3424 H 0.70805 0.23557 0.04463
 C3425 C 0.18712 0.70270 0.10152
 C3426 C 0.19730 0.69732 0.09613
 C3427 C 0.20266 0.68712 0.10150
 C3428 C 0.19785 0.68229 0.11220
 C3429 C 0.18758 0.68760 0.11771
 C3430 C 0.18229 0.69789 0.11222
 C3431 C 0.20230 0.70231 0.08515
 C3432 C 0.20653 0.70653 0.07600
 C3433 C 0.21157 0.71155 0.06535
 C3434 C 0.21597 0.71593 0.05635
 C3435 C 0.22136 0.72131 0.04574
 C3436 C 0.23191 0.71627 0.04071
 C3437 C 0.23752 0.72185 0.03080
 C3438 C 0.23266 0.73258 0.02579
 C3439 C 0.22192 0.73744 0.03078
 C3440 C 0.21633 0.73184 0.04069
 H3441 H 0.18291 0.71062 0.09745
 H3442 H 0.21056 0.68289 0.09741
 H3443 H 0.20222 0.67439 0.11608
 H3444 H 0.17441 0.70229 0.11611
 H3445 H 0.23589 0.70812 0.04457
 H3446 H 0.24578 0.71787 0.02719
 H3447 H 0.21795 0.74569 0.02715
 H3448 H 0.20817 0.73582 0.04453
 C3449 C 0.20256 0.18684 0.60178
 C3450 C 0.19718 0.19703 0.59641
 C3451 C 0.18700 0.20240 0.60180
 C3452 C 0.18218 0.19759 0.61250
 C3453 C 0.18748 0.18730 0.61799
 C3454 C 0.19776 0.18201 0.61248
 C3455 C 0.20216 0.20202 0.58543
 C3456 C 0.20637 0.20624 0.57626
 C3457 C 0.21138 0.21127 0.56561
 C3458 C 0.21576 0.21567 0.55661
 C3459 C 0.22114 0.22106 0.54600
 C3460 C 0.21609 0.23160 0.54097
 C3461 C 0.22168 0.23721 0.53106
 C3462 C 0.23242 0.23236 0.52606
 C3463 C 0.23728 0.22162 0.53104
 C3464 C 0.23168 0.21603 0.54096
 H3465 H 0.21047 0.18262 0.59770
 H3466 H 0.18278 0.21031 0.59773
 H3467 H 0.17429 0.20197 0.61640
 H3468 H 0.20215 0.17412 0.61637
 H3469 H 0.20794 0.23558 0.54482
 H3470 H 0.21770 0.24546 0.52745
 H3471 H 0.24553 0.21765 0.52742
 H3472 H 0.23566 0.20788 0.54479
   
