data_POSCAR
  _audit_creation_date              2014-09-24
  _audit_creation_method            'ToBaCCo'
  _symmetry_space_group_name_H-M    'P1'
  _symmetry_Int_Tables_number       1
  _symmetry_cell_setting            triclinic
  loop_
  _symmetry_equiv_pos_as_xyz
 x,y,z
_cell_length_a 64.3785
_cell_length_b 63.3208
_cell_length_c 64.5483
_cell_angle_alpha 90.984200
_cell_angle_beta 89.924700
_cell_angle_gamma 89.730600
loop_
  _atom_site_label
  _atom_site_type_symbol
  _atom_site_fract_x
  _atom_site_fract_y
  _atom_site_fract_z
N1 N 0.17295 0.23099 0.23041
 N2 N 0.17998 0.21601 0.24245
 C3 C 0.16806 0.21517 0.25956
 C4 C 0.15256 0.23019 0.25806
 C5 C 0.15602 0.23991 0.23931
 H6 H 0.17008 0.20411 0.27198
 H7 H 0.14707 0.25269 0.23282
 Cu8 Cu 0.20311 0.19821 0.23377
 Cu9 Cu 0.18706 0.23829 0.20455
 Cu10 Cu 0.22879 0.20621 0.18971
 N11 N 0.22544 0.17937 0.22502
 N12 N 0.23573 0.18285 0.20782
 C13 C 0.25029 0.16771 0.20517
 C14 C 0.24888 0.15385 0.22146
 C15 C 0.23291 0.16174 0.23375
 H16 H 0.26077 0.16658 0.19209
 H17 H 0.22725 0.15514 0.24802
 N18 N 0.21936 0.23058 0.17352
 N19 N 0.20365 0.24292 0.17912
 C20 C 0.20160 0.25836 0.16510
 C21 C 0.21663 0.25547 0.14989
 C22 C 0.22753 0.23770 0.15578
 H23 H 0.19001 0.27076 0.16584
 H24 H 0.24078 0.23073 0.14791
 H25 H 0.19775 0.20818 0.19791
 H26 H 0.21586 0.22630 0.21192
 N27 N 0.66915 0.72729 0.72457
 N28 N 0.67545 0.71065 0.73476
 C29 C 0.66169 0.70672 0.74999
 C30 C 0.64588 0.72164 0.74917
 C31 C 0.65122 0.73442 0.73284
 H32 H 0.66287 0.69378 0.76063
 H33 H 0.64278 0.74805 0.72743
 Cu34 Cu 0.70071 0.69556 0.72654
 Cu35 Cu 0.68445 0.73861 0.70127
 Cu36 Cu 0.72948 0.71230 0.68649
 N37 N 0.72605 0.68085 0.71791
 N38 N 0.73712 0.68754 0.70224
 C39 C 0.75345 0.67454 0.69920
 C40 C 0.75268 0.65870 0.71371
 C41 C 0.73503 0.66328 0.72537
 H42 H 0.76498 0.67652 0.68723
 H43 H 0.72898 0.65433 0.73812
 N44 N 0.71919 0.73766 0.67248
 N45 N 0.70203 0.74768 0.67810
 C46 C 0.69904 0.76413 0.66549
 C47 C 0.71508 0.76454 0.65117
 C48 C 0.72756 0.74748 0.65614
 H49 H 0.68611 0.77502 0.66669
 H50 H 0.74158 0.74238 0.64829
 H51 H 0.69795 0.71028 0.69197
 H52 H 0.71329 0.72744 0.71008
 N53 N 0.32281 0.77382 0.72982
 N54 N 0.31761 0.79049 0.74113
 C55 C 0.33104 0.79233 0.75710
 C56 C 0.34533 0.77584 0.75572
 C57 C 0.33955 0.76452 0.73815
 H58 H 0.33034 0.80458 0.76895
 H59 H 0.34704 0.75059 0.73170
 Cu60 Cu 0.29356 0.80784 0.73378
 Cu61 Cu 0.30774 0.76493 0.70515
 Cu62 Cu 0.26652 0.79622 0.69047
 N63 N 0.27044 0.82562 0.72468
 N64 N 0.26041 0.82093 0.70752
 C65 C 0.24535 0.83523 0.70451
 C66 C 0.24560 0.84990 0.72070
 C67 C 0.26186 0.84321 0.73328
 H68 H 0.23476 0.83455 0.69157
 H69 H 0.26708 0.85051 0.74760
 N70 N 0.27486 0.77058 0.67507
 N71 N 0.29058 0.75856 0.68064
 C72 C 0.29222 0.74215 0.66715
 C73 C 0.27670 0.74392 0.65241
 C74 C 0.26604 0.76217 0.65797
 H75 H 0.30369 0.72971 0.66814
 H76 H 0.25288 0.76893 0.65007
 H77 H 0.29770 0.79490 0.69824
 H78 H 0.27962 0.77819 0.71360
 N79 N 0.82739 0.28080 0.22486
 N80 N 0.81957 0.29522 0.23753
 C81 C 0.83260 0.29798 0.25371
 C82 C 0.84966 0.28464 0.25092
 C83 C 0.84567 0.27407 0.23233
 H84 H 0.82996 0.30907 0.26637
 H85 H 0.85495 0.26183 0.22497
 Cu86 Cu 0.79343 0.30925 0.23097
 Cu87 Cu 0.81283 0.27046 0.20032
 Cu88 Cu 0.76511 0.29352 0.18989
 N89 N 0.76726 0.32308 0.22416
 N90 N 0.75628 0.31663 0.20814
 C91 C 0.73978 0.32947 0.20590
 C92 C 0.74039 0.34496 0.22127
 C93 C 0.75803 0.34033 0.23269
 H94 H 0.72851 0.32793 0.19359
 H95 H 0.76419 0.34942 0.24559
 N96 N 0.77685 0.27009 0.17312
 N97 N 0.79547 0.26204 0.17646
 C98 C 0.79946 0.24709 0.16188
 C99 C 0.78246 0.24553 0.14889
 C100 C 0.76841 0.26030 0.15649
 H101 H 0.81349 0.23766 0.16101
 H102 H 0.75330 0.26387 0.15012
 H103 H 0.79654 0.29787 0.19474
 H104 H 0.78352 0.27778 0.21103
 N105 N 0.83406 0.73254 0.26936
 N106 N 0.82940 0.71518 0.25898
 C107 C 0.84318 0.71242 0.24340
 C108 C 0.85722 0.72899 0.24407
 C109 C 0.85087 0.74140 0.26080
 H110 H 0.84290 0.69945 0.23231
 H111 H 0.85808 0.75572 0.26655
 Cu112 Cu 0.80562 0.69823 0.26696
 Cu113 Cu 0.81821 0.74235 0.29338
 Cu114 Cu 0.77576 0.71238 0.30774
 N115 N 0.78203 0.68124 0.27529
 N116 N 0.77010 0.68718 0.29090
 C117 C 0.75462 0.67315 0.29298
 C118 C 0.75705 0.65746 0.27796
 C119 C 0.77464 0.66310 0.26704
 H120 H 0.74266 0.67411 0.30474
 H121 H 0.78130 0.65477 0.25385
 N122 N 0.78418 0.73839 0.32277
 N123 N 0.80034 0.74972 0.31723
 C124 C 0.80250 0.76604 0.33066
 C125 C 0.78700 0.76500 0.34549
 C126 C 0.77563 0.74725 0.33993
 H127 H 0.81456 0.77777 0.32972
 H128 H 0.76238 0.74098 0.34803
 H129 H 0.80730 0.71304 0.30202
 H130 H 0.79030 0.72884 0.28469
 N131 N 0.32739 0.22256 -0.22729
 N132 N 0.32187 0.20572 -0.23805
 C133 C 0.33550 0.20240 -0.25357
 C134 C 0.35054 0.21804 -0.25270
 C135 C 0.34478 0.23058 -0.23568
 H136 H 0.33434 0.18959 -0.26475
 H137 H 0.35251 0.24454 -0.22979
 Cu138 Cu 0.29714 0.18993 -0.23107
 Cu139 Cu 0.31137 0.23282 -0.20331
 Cu140 Cu 0.26705 0.20444 -0.19101
 N141 N 0.27235 0.17415 -0.22421
 N142 N 0.26057 0.18000 -0.20849
 C143 C 0.24440 0.16671 -0.20714
 C144 C 0.24609 0.15163 -0.22289
 C145 C 0.26408 0.15691 -0.23340
 H146 H 0.23227 0.16809 -0.19561
 H147 H 0.27073 0.14878 -0.24669
 N148 N 0.27614 0.22957 -0.17518
 N149 N 0.29295 0.24043 -0.17970
 C150 C 0.29477 0.25657 -0.16589
 C151 C 0.27827 0.25583 -0.15206
 C152 C 0.26686 0.23846 -0.15849
 H153 H 0.30711 0.26807 -0.16599
 H154 H 0.25290 0.23252 -0.15142
 H155 H 0.29888 0.20408 -0.19583
 H156 H 0.28320 0.22112 -0.21321
 N157 N 0.67585 0.27200 -0.22470
 N158 N 0.68115 0.28850 -0.23552
 C159 C 0.66740 0.29093 -0.25104
 C160 C 0.65261 0.27502 -0.24992
 C161 C 0.65864 0.26335 -0.23290
 H162 H 0.66819 0.30336 -0.26225
 H163 H 0.65117 0.24956 -0.22677
 Cu164 Cu 0.70560 0.30505 -0.22819
 Cu165 Cu 0.69148 0.26270 -0.20072
 Cu166 Cu 0.73483 0.29189 -0.18721
 N167 N 0.73016 0.32122 -0.22037
 N168 N 0.74136 0.31593 -0.20426
 C169 C 0.75725 0.32945 -0.20210
 C170 C 0.75612 0.34415 -0.21771
 C171 C 0.73864 0.33839 -0.22904
 H172 H 0.76873 0.32857 -0.18997
 H173 H 0.73256 0.34606 -0.24258
 N174 N 0.72580 0.26703 -0.17184
 N175 N 0.70932 0.25584 -0.17697
 C176 C 0.70743 0.23979 -0.16368
 C177 C 0.72354 0.24090 -0.14950
 C178 C 0.73484 0.25843 -0.15519
 H179 H 0.69537 0.22800 -0.16446
 H180 H 0.74860 0.26455 -0.14771
 H181 H 0.70317 0.29203 -0.19294
 H182 H 0.71960 0.27469 -0.21007
 N183 N 0.17907 0.77155 0.27348
 N184 N 0.18467 0.78823 0.26305
 C185 C 0.17218 0.79003 0.24639
 C186 C 0.15808 0.77349 0.24640
 C187 C 0.16301 0.76215 0.26387
 H188 H 0.17324 0.80240 0.23512
 H189 H 0.15520 0.74831 0.26950
 Cu190 Cu 0.20747 0.80602 0.27283
 Cu191 Cu 0.19244 0.76330 0.29906
 Cu192 Cu 0.23221 0.79508 0.31739
 N193 N 0.23031 0.82343 0.28309
 N194 N 0.23922 0.81953 0.30093
 C195 C 0.25377 0.83424 0.30484
 C196 C 0.25432 0.84812 0.28842
 C197 C 0.23917 0.84063 0.27486
 H198 H 0.26358 0.83434 0.31840
 H199 H 0.23459 0.84738 0.26030
 N200 N 0.22291 0.76955 0.33174
 N201 N 0.20777 0.75748 0.32466
 C202 C 0.20518 0.74119 0.33750
 C203 C 0.21940 0.74298 0.35347
 C204 C 0.23042 0.76117 0.34928
 H205 H 0.19402 0.72870 0.33518
 H206 H 0.24295 0.76782 0.35837
 H207 H 0.20171 0.79334 0.30784
 H208 H 0.22100 0.77686 0.29309
 N209 N 0.47918 0.41849 0.47344
 N210 N 0.46350 0.42532 0.48480
 C211 C 0.46135 0.41265 0.50123
 C212 C 0.47655 0.39705 0.50012
 C213 C 0.48751 0.40131 0.48220
 H214 H 0.44983 0.41486 0.51326
 H215 H 0.50069 0.39271 0.47597
 Cu216 Cu 0.44778 0.45035 0.47707
 Cu217 Cu 0.48846 0.43280 0.44869
 Cu218 Cu 0.46169 0.47810 0.43538
 N219 N 0.43243 0.47546 0.46887
 N220 N 0.43819 0.48624 0.45266
 C221 C 0.42499 0.50246 0.45002
 C222 C 0.40997 0.50193 0.46537
 C223 C 0.41525 0.48453 0.47712
 H224 H 0.42621 0.51363 0.43763
 H225 H 0.40704 0.47869 0.49044
 N226 N 0.48578 0.46728 0.41971
 N227 N 0.49556 0.44962 0.42431
 C228 C 0.51094 0.44624 0.41044
 C229 C 0.51090 0.46267 0.39658
 C230 C 0.49475 0.47570 0.40295
 H231 H 0.52171 0.43311 0.41067
 H232 H 0.48980 0.49015 0.39573
 H233 H 0.47811 0.46236 0.45799
 H234 H 0.46013 0.44624 0.44150
 N235 N -0.03058 -0.08056 0.97947
 N236 N -0.04896 -0.07634 0.98740
 C237 C -0.05268 -0.08972 1.00295
 C238 C -0.03569 -0.10313 1.00486
 C239 C -0.02200 -0.09676 0.98962
 H240 H -0.06667 -0.08956 1.01222
 H241 H -0.00689 -0.10336 0.98605
 Cu242 Cu -0.06637 -0.05386 0.97667
 Cu243 Cu -0.01905 -0.06477 0.95669
 Cu244 Cu -0.04579 -0.01991 0.94251
 N245 N -0.07992 -0.02737 0.96997
 N246 N -0.07127 -0.01359 0.95766
 C247 C -0.08388 0.00333 0.95608
 C248 C -0.10148 -0.00024 0.96774
 C249 C -0.09850 -0.01986 0.97632
 H250 H -0.08095 0.01679 0.94642
 H251 H -0.10908 -0.02802 0.98641
 N252 N -0.01989 -0.02929 0.92886
 N253 N -0.00993 -0.04663 0.93408
 C254 C 0.00633 -0.04961 0.92123
 C255 C 0.00666 -0.03339 0.90711
 C256 C -0.01024 -0.02077 0.91250
 H257 H 0.01681 -0.06294 0.92186
 H258 H -0.01546 -0.00668 0.90483
 H259 H -0.03401 -0.03735 0.96664
 H260 H -0.04639 -0.05241 0.94466
 N261 N 1.02452 0.57155 0.97007
 N262 N 1.04153 0.56663 0.98014
 C263 C 1.04460 0.58099 0.99544
 C264 C 1.02860 0.59573 0.99501
 C265 C 1.01617 0.58916 0.97862
 H266 H 1.05734 0.58047 1.00632
 H267 H 1.00200 0.59650 0.97333
 Cu268 Cu 1.05791 0.54165 0.97286
 Cu269 Cu 1.01414 0.55459 0.94695
 Cu270 Cu 1.03889 0.50707 0.93725
 N271 N 1.07039 0.51395 0.96797
 N272 N 1.06221 0.50010 0.95499
 C273 C 1.07363 0.48225 0.95508
 C274 C 1.09003 0.48520 0.96859
 C275 C 1.08756 0.50551 0.97646
 H276 H 1.07075 0.46844 0.94543
 H277 H 1.09751 0.51346 0.98756
 N278 N 1.01520 0.51691 0.92080
 N279 N 1.00593 0.53522 0.92430
 C280 C 0.99078 0.53777 0.91018
 C281 C 0.99047 0.52019 0.89707
 C282 C 1.00623 0.50731 0.90436
 H283 H 0.98078 0.55149 0.90951
 H284 H 1.01108 0.49218 0.89801
 H285 H 1.02567 0.52702 0.95956
 H286 H 1.04174 0.53962 0.93886
 N287 N 0.52050 0.07650 0.47886
 N288 N 0.53689 0.07116 0.48974
 C289 C 0.53944 0.08541 0.50529
 C290 C 0.52384 0.10052 0.50402
 C291 C 0.51215 0.09430 0.48701
 H292 H 0.55183 0.08495 0.51655
 H293 H 0.49837 0.10194 0.48116
 Cu294 Cu 0.55343 0.04623 0.48241
 Cu295 Cu 0.51077 0.05985 0.45522
 Cu296 Cu 0.54017 0.01613 0.44101
 N297 N 0.57036 0.02217 0.47327
 N298 N 0.56501 0.01061 0.45707
 C299 C 0.57923 -0.00471 0.45392
 C300 C 0.59447 -0.00277 0.46893
 C301 C 0.58828 0.01450 0.48101
 H302 H 0.57840 -0.01646 0.44163
 H303 H 0.59632 0.02114 0.49427
 N304 N 0.51457 0.02419 0.42656
 N305 N 0.50342 0.04097 0.43180
 C306 C 0.48704 0.04229 0.41891
 C307 C 0.48788 0.02546 0.40490
 C308 C 0.50559 0.01437 0.41027
 H309 H 0.47524 0.05446 0.41979
 H310 H 0.51165 0.00029 0.40270
 H311 H 0.52344 0.03149 0.46425
 H312 H 0.53982 0.04833 0.44727
 N313 N -0.02051 0.07769 0.51983
 N314 N -0.03716 0.07172 0.50957
 C315 C -0.03968 0.08434 0.49313
 C316 C -0.02368 0.09895 0.49305
 C317 C -0.01187 0.09420 0.51030
 H318 H -0.05203 0.08282 0.48189
 H319 H 0.00196 0.10219 0.51565
 Cu320 Cu -0.05355 0.04774 0.51863
 Cu321 Cu -0.01092 0.06356 0.54464
 Cu322 Cu -0.03960 0.02078 0.56090
 N323 N -0.06961 0.02370 0.52809
 N324 N -0.06393 0.01325 0.54458
 C325 C -0.07744 -0.00247 0.54781
 C326 C -0.09254 -0.00198 0.53254
 C327 C -0.08700 0.01489 0.52026
 H328 H -0.07624 -0.01347 0.56036
 H329 H -0.09509 0.02046 0.50674
 N330 N -0.01454 0.03080 0.57543
 N331 N -0.00371 0.04721 0.56936
 C332 C 0.01227 0.05023 0.58252
 C333 C 0.01152 0.03496 0.59762
 C334 C -0.00572 0.02293 0.59258
 H335 H 0.02372 0.06254 0.58110
 H336 H -0.01159 0.00958 0.60094
 H337 H -0.02324 0.03443 0.53704
 H338 H -0.03961 0.05242 0.55353
 N339 N 0.47511 0.57526 0.02641
 N340 N 0.45906 0.56912 0.01532
 C341 C 0.45608 0.58285 -0.00014
 C342 C 0.47098 0.59853 0.00146
 C343 C 0.48275 0.59317 0.01853
 H344 H 0.44396 0.58160 -0.01166
 H345 H 0.49622 0.60139 0.02449
 Cu346 Cu 0.44365 0.54370 0.02208
 Cu347 Cu 0.48565 0.55915 0.04961
 Cu348 Cu 0.46069 0.51227 0.06007
 N349 N 0.42986 0.51720 0.02841
 N350 N 0.43713 0.50474 0.04279
 C351 C 0.42497 0.48761 0.04407
 C352 C 0.40907 0.48941 0.02985
 C353 C 0.41262 0.50843 0.02016
 H354 H 0.42710 0.47512 0.05509
 H355 H 0.40333 0.51535 0.00808
 N356 N 0.48468 0.52252 0.07604
 N357 N 0.49404 0.54055 0.07235
 C358 C 0.50938 0.54336 0.08631
 C359 C 0.50965 0.52628 0.09947
 C360 C 0.49376 0.51341 0.09240
 H361 H 0.51942 0.55698 0.08700
 H362 H 0.48908 0.49848 0.09872
 H363 H 0.47532 0.53049 0.03807
 H364 H 0.45802 0.54465 0.05706
 N365 N 0.52001 -0.07659 0.02205
 N366 N 0.53796 -0.07278 0.01320
 C367 C 0.54091 -0.08684 -0.00248
 C368 C 0.52385 -0.10016 -0.00347
 C369 C 0.51098 -0.09311 0.01242
 H370 H 0.55435 -0.08719 -0.01254
 H371 H 0.49617 -0.09958 0.01686
 Cu372 Cu 0.55561 -0.04966 0.02282
 Cu373 Cu 0.50955 -0.06020 0.04548
 Cu374 Cu 0.53840 -0.01721 0.06149
 N375 N 0.57031 -0.02396 0.03092
 N376 N 0.56330 -0.01128 0.04570
 C377 C 0.57588 0.00553 0.04751
 C378 C 0.59173 0.00332 0.03315
 C379 C 0.58775 -0.01565 0.02291
 H380 H 0.57370 0.01839 0.05853
 H381 H 0.59659 -0.02259 0.01025
 N382 N 0.51271 -0.02577 0.07549
 N383 N 0.50142 -0.04188 0.06899
 C384 C 0.48455 -0.04345 0.08119
 C385 C 0.48531 -0.02765 0.09620
 C386 C 0.50342 -0.01677 0.09217
 H387 H 0.47275 -0.05544 0.07954
 H388 H 0.50923 -0.00314 0.10061
 H389 H 0.52446 -0.03272 0.03683
 H390 H 0.53796 -0.04948 0.05636
 N391 N 1.02495 0.42945 0.51900
 N392 N 1.04045 0.43654 0.50786
 C393 C 1.04270 0.42417 0.49082
 C394 C 1.02788 0.40841 0.49132
 C395 C 1.01691 0.41226 0.50948
 H396 H 1.05452 0.42618 0.47912
 H397 H 1.00392 0.40333 0.51527
 Cu398 Cu 1.05681 0.46080 0.51678
 Cu399 Cu 1.01631 0.44310 0.54491
 Cu400 Cu 1.04626 0.48493 0.56248
 N401 N 1.07386 0.48377 0.52760
 N402 N 1.06972 0.49300 0.54550
 C403 C 1.08385 0.50814 0.54931
 C404 C 1.09775 0.50848 0.53292
 C405 C 1.09088 0.49272 0.51941
 H406 H 1.08386 0.51820 0.56299
 H407 H 1.09781 0.48797 0.50480
 N408 N 1.02190 0.47469 0.57758
 N409 N 1.01015 0.45904 0.57077
 C410 C 0.99429 0.45645 0.58415
 C411 C 0.99628 0.47110 0.60021
 C412 C 1.01397 0.48234 0.59550
 H413 H 0.98223 0.44473 0.58240
 H414 H 1.02029 0.49551 0.60424
 H415 H 1.02795 0.47258 0.53875
 H416 H 1.04567 0.45368 0.55207
 Si417 Si 0.37007 0.00135 0.25148
 Si418 Si 0.12230 0.00024 0.75406
 Si419 Si 0.63127 0.50809 0.25072
 Si420 Si 0.86827 0.50162 0.74543
 Si421 Si 0.25034 0.37784 0.00180
 Si422 Si 0.74631 0.11929 0.00089
 Si423 Si 0.25548 0.61969 0.50000
 Si424 Si 0.75131 0.88286 0.50077
 Si425 Si -0.00390 0.25172 0.37315
 Si426 Si 0.00907 0.74704 0.12265
 Si427 Si 0.50123 0.25311 0.63007
 Si428 Si 0.49758 0.74510 0.87454
 C429 C 0.14008 0.23365 0.29455
 C430 C 0.12418 0.23674 0.30906
 C431 C 0.10370 0.23980 0.30252
 C432 C 0.09936 0.24057 0.28120
 C433 C 0.11540 0.23817 0.26666
 C434 C 0.13582 0.23434 0.27324
 N435 N 0.08762 0.24212 0.31775
 N436 N 0.06888 0.23718 0.31379
 C437 C 0.05258 0.23999 0.32872
 C438 C 0.03409 0.22875 0.32609
 C439 C 0.01763 0.23168 0.33999
 C440 C 0.01912 0.24660 0.35622
 C441 C 0.03783 0.25748 0.35924
 C442 C 0.05452 0.25414 0.34563
 H443 H 0.15575 0.23083 0.29997
 H444 H 0.12773 0.23623 0.32544
 H445 H 0.08364 0.24314 0.27584
 H446 H 0.11177 0.23866 0.25030
 H447 H 0.03245 0.21769 0.31322
 H448 H 0.00346 0.22281 0.33766
 H449 H 0.03959 0.26864 0.37198
 H450 H 0.06871 0.26295 0.34801
 C451 C 0.60988 0.73530 0.75594
 C452 C 0.59242 0.73767 0.76863
 C453 C 0.59189 0.72856 0.78818
 C454 C 0.60904 0.71668 0.79489
 C455 C 0.62653 0.71417 0.78213
 C456 C 0.62720 0.72362 0.76257
 N457 N 0.57390 0.73200 0.80090
 N458 N 0.57245 0.72526 0.81931
 C459 C 0.55434 0.72929 0.83174
 C460 C 0.55408 0.72275 0.85235
 C461 C 0.53692 0.72721 0.86504
 C462 C 0.51973 0.73812 0.85719
 C463 C 0.51987 0.74454 0.83652
 C464 C 0.53703 0.74015 0.82386
 H465 H 0.60969 0.74255 0.74089
 H466 H 0.57927 0.74680 0.76327
 H467 H 0.60898 0.70948 0.80998
 H468 H 0.63963 0.70517 0.78774
 H469 H 0.56732 0.71445 0.85866
 H470 H 0.53716 0.72233 0.88104
 H471 H 0.50693 0.75329 0.83021
 H472 H 0.53684 0.74544 0.80800
 C473 C 0.37294 0.75118 0.76842
 C474 C 0.38974 0.74653 0.78122
 C475 C 0.39693 0.76143 0.79567
 C476 C 0.38696 0.78120 0.79732
 C477 C 0.37006 0.78590 0.78448
 C478 C 0.36293 0.77096 0.76978
 N479 N 0.41441 0.75601 0.80824
 N480 N 0.42210 0.76858 0.82174
 C481 C 0.43971 0.76276 0.83402
 C482 C 0.44741 0.77717 0.84872
 C483 C 0.46462 0.77199 0.86085
 C484 C 0.47432 0.75215 0.85860
 C485 C 0.46683 0.73787 0.84356
 C486 C 0.44961 0.74304 0.83144
 H487 H 0.36782 0.73911 0.75755
 H488 H 0.39724 0.73122 0.77986
 H489 H 0.39226 0.79300 0.80841
 H490 H 0.36281 0.80131 0.78592
 H491 H 0.44011 0.79252 0.85070
 H492 H 0.47033 0.78370 0.87173
 H493 H 0.47453 0.72291 0.84073
 H494 H 0.44419 0.73172 0.81994
 C495 C -0.11579 0.26976 0.25728
 C496 C -0.09866 0.26686 0.27013
 C497 C -0.09831 0.27567 0.29008
 C498 C -0.11523 0.28794 0.29703
 C499 C -0.13232 0.29127 0.28402
 C500 C -0.13298 0.28200 0.26398
 N501 N -0.08053 0.27180 0.30275
 N502 N -0.08009 0.27566 0.32216
 C503 C -0.06179 0.27131 0.33402
 C504 C -0.06308 0.27048 0.35565
 C505 C -0.04566 0.26485 0.36733
 C506 C -0.02671 0.26010 0.35749
 C507 C -0.02518 0.26200 0.33594
 C508 C -0.04260 0.26731 0.32426
 H509 H -0.11520 0.26256 0.24199
 H510 H -0.08563 0.25747 0.26458
 H511 H -0.11521 0.29500 0.31243
 H512 H -0.14510 0.30072 0.28996
 H513 H -0.07771 0.27370 0.36340
 H514 H -0.04704 0.26389 0.38401
 H515 H -0.01064 0.25934 0.32794
 H516 H -0.04107 0.26827 0.30760
 C517 C -0.11475 0.75235 0.23026
 C518 C -0.09768 0.75579 0.21739
 C519 C -0.09033 0.73973 0.20414
 C520 C -0.10037 0.72007 0.20380
 C521 C -0.11748 0.71659 0.21667
 C522 C -0.12484 0.73267 0.23013
 N523 N -0.07270 0.74384 0.19127
 N524 N -0.06514 0.72998 0.17886
 C525 C -0.04752 0.73419 0.16601
 C526 C -0.04033 0.71835 0.15238
 C527 C -0.02335 0.72202 0.13943
 C528 C -0.01340 0.74168 0.13989
 C529 C -0.02030 0.75742 0.15384
 C530 C -0.03732 0.75378 0.16675
 H531 H -0.12005 0.76521 0.24019
 H532 H -0.09013 0.77104 0.21773
 H533 H -0.09497 0.70739 0.19367
 H534 H -0.12474 0.70122 0.21620
 H535 H -0.04796 0.70315 0.15177
 H536 H -0.01808 0.70944 0.12915
 H537 H -0.01263 0.77260 0.15459
 H538 H -0.04249 0.76625 0.17724
 C539 C 0.37107 0.20611 0.71719
 C540 C 0.38769 0.20867 0.70358
 C541 C 0.40122 0.22568 0.70600
 C542 C 0.39803 0.24020 0.72239
 C543 C 0.38140 0.23768 0.73612
 C544 C 0.36754 0.22059 0.73371
 N545 N 0.41791 0.22778 0.69150
 N546 N 0.43065 0.24307 0.69227
 C547 C 0.44720 0.24490 0.67754
 C548 C 0.46036 0.26239 0.67887
 C549 C 0.47649 0.26475 0.66460
 C550 C 0.47966 0.24960 0.64881
 C551 C 0.46663 0.23197 0.64750
 C552 C 0.45045 0.22964 0.66174
 H553 H 0.36112 0.19265 0.71451
 H554 H 0.39001 0.19737 0.69099
 H555 H 0.40834 0.25351 0.72459
 H556 H 0.37949 0.24925 0.74850
 H557 H 0.45805 0.27425 0.69096
 H558 H 0.48647 0.27843 0.66586
 H559 H 0.46882 0.22008 0.63544
 H560 H 0.44049 0.21595 0.66038
 C561 C 0.62187 0.25432 0.74038
 C562 C 0.60476 0.25077 0.72755
 C563 C 0.60062 0.26410 0.71106
 C564 C 0.61390 0.28116 0.70740
 C565 C 0.63108 0.28479 0.72022
 C566 C 0.63536 0.27143 0.73699
 N567 N 0.58282 0.25992 0.69840
 N568 N 0.57786 0.27131 0.68312
 C569 C 0.55992 0.26679 0.67072
 C570 C 0.55522 0.27982 0.65406
 C571 C 0.53779 0.27581 0.64173
 C572 C 0.52492 0.25854 0.64581
 C573 C 0.52945 0.24569 0.66271
 C574 C 0.54685 0.24969 0.67502
 H575 H 0.62429 0.24350 0.75291
 H576 H 0.59463 0.23755 0.73050
 H577 H 0.61100 0.29169 0.69468
 H578 H 0.64087 0.29812 0.71684
 H579 H 0.56505 0.29317 0.65070
 H580 H 0.53445 0.28632 0.62916
 H581 H 0.51936 0.23271 0.66659
 H582 H 0.55000 0.23950 0.68796
 C583 C 0.13138 0.74904 0.23129
 C584 C 0.11484 0.74480 0.21792
 C585 C 0.10758 0.76025 0.20452
 C586 C 0.11727 0.78011 0.20443
 C587 C 0.13390 0.78439 0.21782
 C588 C 0.14103 0.76893 0.23154
 N589 N 0.09029 0.75532 0.19139
 N590 N 0.08257 0.76849 0.17884
 C591 C 0.06520 0.76322 0.16590
 C592 C 0.05782 0.77817 0.15197
 C593 C 0.04103 0.77346 0.13901
 C594 C 0.03147 0.75362 0.13974
 C595 C 0.03856 0.73877 0.15398
 C596 C 0.05539 0.74346 0.16691
 H597 H 0.13658 0.73662 0.24137
 H598 H 0.10757 0.72941 0.21806
 H599 H 0.11192 0.79232 0.19416
 H600 H 0.14088 0.79989 0.21764
 H601 H 0.06510 0.79352 0.15117
 H602 H 0.03556 0.78541 0.12856
 H603 H 0.03116 0.72350 0.15499
 H604 H 0.06068 0.73167 0.17768
 C605 C 0.25362 0.11810 0.23679
 C606 C 0.26560 0.10004 0.24022
 C607 C 0.28572 0.09835 0.23216
 C608 C 0.29368 0.11483 0.22023
 C609 C 0.28160 0.13278 0.21654
 C610 C 0.26151 0.13467 0.22493
 N611 N 0.29776 0.07987 0.23644
 N612 N 0.31700 0.07853 0.23206
 C613 C 0.32900 0.06003 0.23638
 C614 C 0.35060 0.06076 0.23412
 C615 C 0.36279 0.04313 0.23869
 C616 C 0.35347 0.02448 0.24537
 C617 C 0.33181 0.02357 0.24731
 C618 C 0.31962 0.04128 0.24296
 H619 H 0.23811 0.11898 0.24325
 H620 H 0.25928 0.08741 0.24936
 H621 H 0.30919 0.11384 0.21377
 H622 H 0.28814 0.14533 0.20745
 H623 H 0.35800 0.07509 0.22904
 H624 H 0.37951 0.04409 0.23707
 H625 H 0.32425 0.00932 0.25233
 H626 H 0.30293 0.04030 0.24470
 C627 C 0.78272 0.63658 0.70084
 C628 C 0.79646 0.61959 0.70283
 C629 C 0.79513 0.60632 0.71985
 C630 C 0.77982 0.61025 0.73499
 C631 C 0.76606 0.62726 0.73304
 C632 C 0.76732 0.64065 0.71591
 N633 N 0.80944 0.58902 0.72135
 N634 N 0.80888 0.57621 0.73631
 C635 C 0.82313 0.55888 0.73793
 C636 C 0.82129 0.54539 0.75475
 C637 C 0.83489 0.52832 0.75686
 C638 C 0.85058 0.52457 0.74216
 C639 C 0.85248 0.53801 0.72524
 C640 C 0.83883 0.55511 0.72311
 H641 H 0.78418 0.64636 0.68735
 H642 H 0.80817 0.61671 0.69104
 H643 H 0.77850 0.60022 0.74834
 H644 H 0.75455 0.62989 0.74503
 H645 H 0.80927 0.54812 0.76625
 H646 H 0.83319 0.51806 0.76999
 H647 H 0.86450 0.53539 0.71373
 H648 H 0.84057 0.56534 0.70997
 C649 C 0.78800 0.36502 0.79147
 C650 C 0.80142 0.38191 0.78836
 C651 C 0.79772 0.39617 0.77251
 C652 C 0.78034 0.39335 0.75964
 C653 C 0.76683 0.37644 0.76274
 C654 C 0.77047 0.36206 0.77874
 N655 N 0.81179 0.41337 0.77000
 N656 N 0.80967 0.42689 0.75580
 C657 C 0.82382 0.44409 0.75363
 C658 C 0.82077 0.45833 0.73759
 C659 C 0.83419 0.47539 0.73521
 C660 C 0.85101 0.47836 0.74875
 C661 C 0.85389 0.46427 0.76503
 C662 C 0.84048 0.44718 0.76740
 H663 H 0.79150 0.35437 0.80390
 H664 H 0.81478 0.38393 0.79837
 H665 H 0.77715 0.40422 0.74726
 H666 H 0.75355 0.37477 0.75262
 H667 H 0.80786 0.45628 0.72702
 H668 H 0.83114 0.48648 0.72300
 H669 H 0.86632 0.46638 0.77606
 H670 H 0.84306 0.43649 0.78006
 C671 C 0.27980 -0.12687 0.30272
 C672 C 0.29284 -0.10949 0.30040
 C673 C 0.29439 -0.09948 0.28136
 C674 C 0.28229 -0.10672 0.26464
 C675 C 0.26881 -0.12377 0.26703
 C676 C 0.26749 -0.13431 0.28607
 N677 N 0.30817 -0.08193 0.27946
 N678 N 0.31460 -0.07576 0.26193
 C679 C 0.32798 -0.05791 0.25997
 C680 C 0.33888 -0.05525 0.24145
 C681 C 0.35193 -0.03790 0.23897
 C682 C 0.35381 -0.02262 0.25484
 C683 C 0.34288 -0.02524 0.27342
 C684 C 0.33017 -0.04285 0.27607
 H685 H 0.27920 -0.13409 0.31776
 H686 H 0.30200 -0.10395 0.31345
 H687 H 0.28313 -0.09907 0.24979
 H688 H 0.25983 -0.12887 0.25372
 H689 H 0.33736 -0.06677 0.22894
 H690 H 0.36030 -0.03648 0.22457
 H691 H 0.34408 -0.01360 0.28585
 H692 H 0.32180 -0.04451 0.29050
 C693 C 0.21682 -0.12815 0.70843
 C694 C 0.20287 -0.11148 0.71127
 C695 C 0.20343 -0.09896 0.72921
 C696 C 0.21845 -0.10309 0.74441
 C697 C 0.23261 -0.11981 0.74158
 C698 C 0.23190 -0.13278 0.72358
 N699 N 0.18840 -0.08235 0.73141
 N700 N 0.18695 -0.07042 0.74740
 C701 C 0.17147 -0.05409 0.74872
 C702 C 0.17025 -0.04135 0.76662
 C703 C 0.15532 -0.02529 0.76820
 C704 C 0.14133 -0.02186 0.75194
 C705 C 0.14260 -0.03450 0.73396
 C706 C 0.15750 -0.05055 0.73236
 H707 H 0.21556 -0.13722 0.69418
 H708 H 0.19141 -0.10836 0.69942
 H709 H 0.21918 -0.09350 0.75843
 H710 H 0.24386 -0.12262 0.75367
 H711 H 0.18092 -0.04383 0.77930
 H712 H 0.15473 -0.01547 0.78210
 H713 H 0.13228 -0.03192 0.72104
 H714 H 0.15815 -0.06009 0.71830
 C715 C 0.71351 0.36959 0.20713
 C716 C 0.70063 0.38730 0.20906
 C717 C 0.70013 0.39918 0.22750
 C718 C 0.71270 0.39308 0.24417
 C719 C 0.72571 0.37538 0.24224
 C720 C 0.72629 0.36345 0.22366
 N721 N 0.68698 0.41745 0.22869
 N722 N 0.68528 0.42879 0.24507
 C723 C 0.67228 0.44720 0.24596
 C724 C 0.67057 0.45856 0.26467
 C725 C 0.65824 0.47674 0.26597
 C726 C 0.64754 0.48386 0.24850
 C727 C 0.64910 0.47248 0.22975
 C728 C 0.66140 0.45424 0.22846
 H729 H 0.71368 0.36100 0.19250
 H730 H 0.69107 0.39190 0.19609
 H731 H 0.71257 0.40203 0.25861
 H732 H 0.73522 0.37101 0.25531
 H733 H 0.67884 0.45330 0.27825
 H734 H 0.65710 0.48531 0.28060
 H735 H 0.64095 0.47767 0.21609
 H736 H 0.66248 0.44574 0.21380
 C737 C 0.75177 0.62054 0.26451
 C738 C 0.73916 0.60293 0.26105
 C739 C 0.71823 0.60340 0.26692
 C740 C 0.71005 0.62166 0.27661
 C741 C 0.72273 0.63917 0.28038
 C742 C 0.74370 0.63883 0.27426
 N743 N 0.70571 0.58513 0.26301
 N744 N 0.68603 0.58559 0.26486
 C745 C 0.67357 0.56721 0.26133
 C746 C 0.65197 0.56946 0.26022
 C747 C 0.63939 0.55180 0.25687
 C748 C 0.64823 0.53156 0.25509
 C749 C 0.66990 0.52932 0.25598
 C750 C 0.68250 0.54700 0.25907
 H751 H 0.76790 0.61972 0.25981
 H752 H 0.74566 0.58890 0.25366
 H753 H 0.69393 0.62235 0.28138
 H754 H 0.71603 0.65308 0.28779
 H755 H 0.64490 0.58496 0.26177
 H756 H 0.62275 0.55397 0.25561
 H757 H 0.67722 0.51400 0.25421
 H758 H 0.69918 0.54487 0.25982
 C759 C 0.23432 0.12138 0.75436
 C760 C 0.22096 0.10454 0.75010
 C761 C 0.20487 0.09979 0.76378
 C762 C 0.20218 0.11217 0.78186
 C763 C 0.21553 0.12901 0.78616
 C764 C 0.23181 0.13382 0.77248
 N765 N 0.19165 0.08225 0.75907
 N766 N 0.17688 0.07698 0.77100
 C767 C 0.16380 0.05930 0.76645
 C768 C 0.14822 0.05410 0.78058
 C769 C 0.13552 0.03661 0.77689
 C770 C 0.13816 0.02422 0.75886
 C771 C 0.15375 0.02940 0.74467
 C772 C 0.16648 0.04686 0.74838
 H773 H 0.24654 0.12459 0.74336
 H774 H 0.22317 0.09511 0.73610
 H775 H 0.18984 0.10879 0.79270
 H776 H 0.21309 0.13809 0.80030
 H777 H 0.14610 0.06350 0.79460
 H778 H 0.12389 0.03274 0.78828
 H779 H 0.15615 0.01984 0.73079
 H780 H 0.17847 0.05051 0.73725
 C781 C 0.23152 0.25999 0.11438
 C782 C 0.23588 0.27235 0.09721
 C783 C 0.22974 0.29355 0.09684
 C784 C 0.21878 0.30225 0.11384
 C785 C 0.21420 0.28981 0.13099
 C786 C 0.22068 0.26858 0.13151
 N787 N 0.23482 0.30573 0.07904
 N788 N 0.23168 0.32557 0.07829
 C789 C 0.23668 0.33747 0.06026
 C790 C 0.23420 0.35945 0.06092
 C791 C 0.23864 0.37145 0.04348
 C792 C 0.24531 0.36157 0.02502
 C793 C 0.24818 0.33960 0.02442
 C794 C 0.24389 0.32761 0.04190
 H795 H 0.23651 0.24365 0.11413
 H796 H 0.24423 0.26543 0.08417
 H797 H 0.21380 0.31860 0.11387
 H798 H 0.20593 0.29693 0.14396
 H799 H 0.22879 0.36728 0.07497
 H800 H 0.23656 0.38843 0.04429
 H801 H 0.25372 0.33163 0.01052
 H802 H 0.24607 0.31066 0.04102
 C803 C 0.70236 0.79430 0.62913
 C804 C 0.70509 0.80839 0.61294
 C805 C 0.72346 0.80819 0.60137
 C806 C 0.73924 0.79372 0.60622
 C807 C 0.73656 0.77961 0.62243
 C808 C 0.71805 0.77968 0.63408
 N809 N 0.72560 0.82272 0.58475
 N810 N 0.74174 0.82319 0.57337
 C811 C 0.74373 0.83768 0.55669
 C812 C 0.76168 0.83698 0.54444
 C813 C 0.76393 0.85069 0.52785
 C814 C 0.74830 0.86542 0.52343
 C815 C 0.73025 0.86608 0.53561
 C816 C 0.72798 0.85235 0.55217
 H817 H 0.68785 0.79482 0.63758
 H818 H 0.69280 0.81946 0.60932
 H819 H 0.75362 0.79328 0.59751
 H820 H 0.74907 0.76875 0.62579
 H821 H 0.77388 0.82568 0.54768
 H822 H 0.77784 0.84975 0.51842
 H823 H 0.71776 0.87696 0.53226
 H824 H 0.71389 0.85312 0.56133
 C825 C 0.79934 0.79402 0.36937
 C826 C 0.79649 0.80765 0.38636
 C827 C 0.77820 0.80708 0.39800
 C828 C 0.76262 0.79258 0.39245
 C829 C 0.76544 0.77887 0.37541
 C830 C 0.78384 0.77945 0.36362
 N831 N 0.77598 0.82140 0.41527
 N832 N 0.75994 0.82193 0.42682
 C833 C 0.75821 0.83650 0.44400
 C834 C 0.74034 0.83627 0.45637
 C835 C 0.73832 0.85027 0.47326
 C836 C 0.75409 0.86481 0.47787
 C837 C 0.77208 0.86493 0.46562
 C838 C 0.77412 0.85094 0.44876
 H839 H 0.81381 0.79485 0.36092
 H840 H 0.80863 0.81872 0.39053
 H841 H 0.74831 0.79187 0.40123
 H842 H 0.75312 0.76798 0.37142
 H843 H 0.72801 0.82518 0.45295
 H844 H 0.72444 0.84976 0.48274
 H845 H 0.78467 0.87565 0.46909
 H846 H 0.78816 0.85136 0.43953
 C847 C 0.25433 0.26920 -0.12398
 C848 C 0.25001 0.28228 -0.10688
 C849 C 0.26477 0.29667 -0.09956
 C850 C 0.28406 0.29795 -0.10969
 C851 C 0.28845 0.28482 -0.12685
 C852 C 0.27366 0.27018 -0.13415
 N853 N 0.25972 0.30959 -0.08181
 N854 N 0.27213 0.32328 -0.07426
 C855 C 0.26677 0.33596 -0.05641
 C856 C 0.28084 0.35115 -0.04919
 C857 C 0.27609 0.36375 -0.03180
 C858 C 0.25724 0.36113 -0.02124
 C859 C 0.24300 0.34611 -0.02862
 C860 C 0.24772 0.33354 -0.04602
 H861 H 0.24240 0.25840 -0.12919
 H862 H 0.23506 0.28120 -0.09925
 H863 H 0.29574 0.30898 -0.10430
 H864 H 0.30350 0.28601 -0.13419
 H865 H 0.29549 0.35330 -0.05713
 H866 H 0.28713 0.37560 -0.02684
 H867 H 0.22823 0.34408 -0.02086
 H868 H 0.23652 0.32196 -0.05133
 C869 C 0.74704 0.22741 -0.12164
 C870 C 0.75115 0.21396 -0.10521
 C871 C 0.73632 0.19935 -0.09894
 C872 C 0.71720 0.19824 -0.10936
 C873 C 0.71305 0.21169 -0.12582
 C874 C 0.72792 0.22648 -0.13214
 N875 N 0.74100 0.18606 -0.08184
 N876 N 0.72823 0.17250 -0.07514
 C877 C 0.73301 0.15952 -0.05783
 C878 C 0.71805 0.14542 -0.05074
 C879 C 0.72200 0.13306 -0.03343
 C880 C 0.74095 0.13483 -0.02282
 C881 C 0.75624 0.14837 -0.03043
 C882 C 0.75229 0.16075 -0.04770
 H883 H 0.75897 0.23840 -0.12611
 H884 H 0.76594 0.21494 -0.09730
 H885 H 0.70545 0.18709 -0.10474
 H886 H 0.69811 0.21058 -0.13339
 H887 H 0.70324 0.14411 -0.05858
 H888 H 0.71016 0.12225 -0.02850
 H889 H 0.77134 0.14931 -0.02322
 H890 H 0.76427 0.17127 -0.05309
 C891 C 0.20665 0.71381 0.37584
 C892 C 0.20944 0.69961 0.39192
 C893 C 0.22787 0.69955 0.40332
 C894 C 0.24356 0.71407 0.39861
 C895 C 0.24076 0.72836 0.38254
 C896 C 0.22230 0.72830 0.37089
 N897 N 0.23018 0.68452 0.41947
 N898 N 0.24660 0.68303 0.43032
 C899 C 0.24845 0.66781 0.44639
 C900 C 0.26681 0.66689 0.45794
 C901 C 0.26892 0.65230 0.47383
 C902 C 0.25273 0.63833 0.47823
 C903 C 0.23428 0.63933 0.46678
 C904 C 0.23216 0.65390 0.45092
 H905 H 0.19213 0.71346 0.36743
 H906 H 0.19722 0.68855 0.39548
 H907 H 0.25796 0.71430 0.40725
 H908 H 0.25318 0.73920 0.37907
 H909 H 0.27944 0.67757 0.45467
 H910 H 0.28316 0.65196 0.48273
 H911 H 0.22137 0.62909 0.47015
 H912 H 0.21775 0.65436 0.44231
 C913 C 0.25347 0.73105 0.62372
 C914 C 0.24946 0.71772 0.60675
 C915 C 0.26414 0.70267 0.60029
 C916 C 0.28299 0.70098 0.61111
 C917 C 0.28704 0.71429 0.62811
 C918 C 0.27235 0.72955 0.63457
 N919 N 0.25960 0.68948 0.58267
 N920 N 0.27227 0.67543 0.57605
 C921 C 0.26786 0.66234 0.55832
 C922 C 0.28253 0.64716 0.55206
 C923 C 0.27886 0.63423 0.53473
 C924 C 0.26035 0.63626 0.52349
 C925 C 0.24571 0.65161 0.52960
 C926 C 0.24937 0.66453 0.54697
 H927 H 0.24167 0.74239 0.62833
 H928 H 0.23485 0.71913 0.59856
 H929 H 0.29462 0.68947 0.60638
 H930 H 0.30179 0.71276 0.63596
 H931 H 0.29689 0.64544 0.56059
 H932 H 0.29064 0.62289 0.53009
 H933 H 0.23147 0.65359 0.52091
 H934 H 0.23784 0.67624 0.55144
 C935 C 0.79712 0.22407 0.11938
 C936 C 0.79455 0.21054 0.10224
 C937 C 0.77477 0.20344 0.09663
 C938 C 0.75741 0.21031 0.10817
 C939 C 0.75991 0.22418 0.12505
 C940 C 0.77980 0.23108 0.13088
 N941 N 0.77267 0.18944 0.07911
 N942 N 0.75621 0.17886 0.07586
 C943 C 0.75400 0.16520 0.05810
 C944 C 0.73833 0.14998 0.05796
 C945 C 0.73607 0.13614 0.04102
 C946 C 0.74911 0.13772 0.02367
 C947 C 0.76467 0.15319 0.02377
 C948 C 0.76722 0.16672 0.04089
 H949 H 0.81260 0.22930 0.12342
 H950 H 0.80803 0.20542 0.09340
 H951 H 0.74194 0.20511 0.10403
 H952 H 0.74631 0.22923 0.13372
 H953 H 0.72809 0.14860 0.07119
 H954 H 0.72422 0.12417 0.04174
 H955 H 0.77527 0.15453 0.01090
 H956 H 0.77945 0.17838 0.04064
 C957 C 0.49884 0.36757 0.51334
 C958 C 0.50280 0.35145 0.52730
 C959 C 0.48877 0.34729 0.54322
 C960 C 0.47057 0.35952 0.54510
 C961 C 0.46657 0.37569 0.53112
 C962 C 0.48066 0.37991 0.51503
 N963 N 0.49341 0.33054 0.55711
 N964 N 0.48150 0.32571 0.57203
 C965 C 0.48646 0.30880 0.58567
 C966 C 0.47275 0.30412 0.60177
 C967 C 0.47710 0.28760 0.61521
 C968 C 0.49535 0.27561 0.61276
 C969 C 0.50903 0.28019 0.59655
 C970 C 0.50469 0.29669 0.58312
 H971 H 0.51019 0.37035 0.50134
 H972 H 0.51689 0.34215 0.52572
 H973 H 0.45946 0.35657 0.55730
 H974 H 0.45237 0.38474 0.53290
 H975 H 0.45861 0.31325 0.60384
 H976 H 0.46611 0.28421 0.62737
 H977 H 0.52304 0.27091 0.59423
 H978 H 0.51551 0.29991 0.57073
 C979 C -0.04864 0.87381 0.03352
 C980 C -0.04568 0.85740 0.04749
 C981 C -0.02679 0.84642 0.04803
 C982 C -0.01078 0.85208 0.03443
 C983 C -0.01369 0.86845 0.02052
 C984 C -0.03267 0.87954 0.01982
 N985 N -0.02416 0.82963 0.06241
 N986 N -0.00733 0.81905 0.06320
 C987 C -0.00415 0.80221 0.07737
 C988 C 0.01486 0.79143 0.07694
 C989 C 0.01862 0.77496 0.09055
 C990 C 0.00344 0.76917 0.10493
 C991 C -0.01576 0.77975 0.10523
 C992 C -0.01953 0.79625 0.09158
 H993 H -0.06348 0.88188 0.03348
 H994 H -0.05815 0.85320 0.05788
 H995 H 0.00400 0.84387 0.03455
 H996 H -0.00094 0.87233 0.01038
 H997 H 0.02678 0.79582 0.06600
 H998 H 0.03343 0.76678 0.08991
 H999 H -0.02789 0.77528 0.11586
 H1000 H -0.03441 0.80428 0.09210
 C1001 C 0.00637 0.62558 0.00879
 C1002 C 0.00299 0.64263 0.02242
 C1003 C 0.01818 0.64856 0.03680
 C1004 C 0.03698 0.63724 0.03739
 C1005 C 0.04040 0.62015 0.02377
 C1006 C 0.02512 0.61406 0.00931
 N1007 N 0.01405 0.66602 0.05061
 N1008 N 0.02712 0.67243 0.06407
 C1009 C 0.02268 0.68989 0.07783
 C1010 C 0.03780 0.69642 0.09211
 C1011 C 0.03390 0.71342 0.10573
 C1012 C 0.01470 0.72397 0.10529
 C1013 C -0.00036 0.71758 0.09087
 C1014 C 0.00353 0.70063 0.07727
 H1015 H -0.00585 0.62139 -0.00197
 H1016 H -0.01157 0.65123 0.02182
 H1017 H 0.04899 0.64154 0.04838
 H1018 H 0.05507 0.61183 0.02460
 H1019 H 0.05266 0.68837 0.09262
 H1020 H 0.04594 0.71831 0.11639
 H1021 H -0.01517 0.72572 0.09013
 H1022 H -0.00839 0.69596 0.06632
 C1023 C 0.50739 0.13586 0.51141
 C1024 C 0.50375 0.15333 0.52445
 C1025 C 0.51273 0.15448 0.54414
 C1026 C 0.52563 0.13790 0.55067
 C1027 C 0.52938 0.12043 0.53759
 C1028 C 0.52022 0.11916 0.51783
 N1029 N 0.50858 0.17265 0.55706
 N1030 N 0.51550 0.17443 0.57547
 C1031 C 0.51144 0.19276 0.58820
 C1032 C 0.51929 0.19356 0.60841
 C1033 C 0.51601 0.21141 0.62107
 C1034 C 0.50492 0.22882 0.61363
 C1035 C 0.49669 0.22787 0.59351
 C1036 C 0.49995 0.21002 0.58086
 H1037 H 0.50027 0.13558 0.49624
 H1038 H 0.49387 0.16604 0.51919
 H1039 H 0.53278 0.13844 0.56583
 H1040 H 0.53922 0.10782 0.54310
 H1041 H 0.52807 0.18034 0.61430
 H1042 H 0.52234 0.21156 0.63654
 H1043 H 0.48775 0.24091 0.58750
 H1044 H 0.49361 0.20977 0.56534
 C1045 C -0.00037 0.12598 0.47730
 C1046 C 0.00331 0.14216 0.46336
 C1047 C -0.01223 0.14862 0.44974
 C1048 C -0.03161 0.13851 0.45003
 C1049 C -0.03533 0.12223 0.46397
 C1050 C -0.01977 0.11586 0.47788
 N1051 N -0.00794 0.16578 0.43622
 N1052 N -0.02120 0.17297 0.42350
 C1053 C -0.01653 0.19057 0.41061
 C1054 C -0.03197 0.19856 0.39759
 C1055 C -0.02822 0.21650 0.38580
 C1056 C -0.00896 0.22672 0.38702
 C1057 C 0.00675 0.21829 0.39945
 C1058 C 0.00301 0.20040 0.41124
 H1059 H 0.01208 0.12140 0.48754
 H1060 H 0.01831 0.14982 0.46327
 H1061 H -0.04389 0.14328 0.43965
 H1062 H -0.05047 0.11490 0.46403
 H1063 H -0.04705 0.19108 0.39686
 H1064 H -0.04047 0.22247 0.37604
 H1065 H 0.02177 0.22587 0.40044
 H1066 H 0.01526 0.19450 0.42106
 C1067 C 0.48518 0.63456 0.99476
 C1068 C 0.48845 0.65165 0.98176
 C1069 C 0.48094 0.65124 0.96144
 C1070 C 0.46974 0.63357 0.95428
 C1071 C 0.46626 0.61652 0.96736
 C1072 C 0.47408 0.61678 0.98771
 N1073 N 0.48495 0.66894 0.94852
 N1074 N 0.48040 0.66905 0.92933
 C1075 C 0.48451 0.68701 0.91674
 C1076 C 0.48094 0.68562 0.89538
 C1077 C 0.48494 0.70289 0.88274
 C1078 C 0.49220 0.72196 0.89135
 C1079 C 0.49609 0.72320 0.91274
 C1080 C 0.49224 0.70593 0.92534
 H1081 H 0.49120 0.63540 1.01040
 H1082 H 0.49701 0.66522 0.98748
 H1083 H 0.46371 0.63292 0.93864
 H1084 H 0.45776 0.60303 0.96141
 H1085 H 0.47522 0.67106 0.88850
 H1086 H 0.48249 0.70113 0.86628
 H1087 H 0.50238 0.73734 0.91984
 H1088 H 0.49534 0.70738 0.94178
 C1089 C 0.50018 0.87255 0.98099
 C1090 C 0.49642 0.85542 0.96768
 C1091 C 0.51219 0.84731 0.95494
 C1092 C 0.53194 0.85665 0.95551
 C1093 C 0.53577 0.87385 0.96891
 C1094 C 0.51994 0.88194 0.98190
 N1095 N 0.50758 0.82948 0.94186
 N1096 N 0.52056 0.82130 0.92915
 C1097 C 0.51515 0.80330 0.91654
 C1098 C 0.52924 0.79567 0.90162
 C1099 C 0.52416 0.77826 0.88899
 C1100 C 0.50492 0.76821 0.89124
 C1101 C 0.49091 0.77574 0.90631
 C1102 C 0.49592 0.79316 0.91882
 H1103 H 0.48747 0.87839 0.99046
 H1104 H 0.48112 0.84839 0.96730
 H1105 H 0.54439 0.85059 0.94578
 H1106 H 0.55118 0.88058 0.96923
 H1107 H 0.54412 0.80330 0.89971
 H1108 H 0.53526 0.77278 0.87748
 H1109 H 0.47601 0.76815 0.90832
 H1110 H 0.48475 0.79866 0.93028
 C1111 C 0.03201 0.39301 0.45548
 C1112 C 0.02912 0.37665 0.44097
 C1113 C 0.01916 0.35803 0.44662
 C1114 C 0.01186 0.35601 0.46703
 C1115 C 0.01454 0.37245 0.48151
 C1116 C 0.02473 0.39110 0.47592
 N1117 N 0.01661 0.34149 0.43142
 N1118 N 0.00962 0.32342 0.43611
 C1119 C 0.00682 0.30682 0.42104
 C1120 C 0.00101 0.28683 0.42780
 C1121 C -0.00197 0.27025 0.41358
 C1122 C 0.00083 0.27347 0.39231
 C1123 C 0.00632 0.29358 0.38545
 C1124 C 0.00947 0.31015 0.39971
 H1125 H 0.03973 0.40724 0.45061
 H1126 H 0.03474 0.37843 0.42528
 H1127 H 0.00406 0.34177 0.47178
 H1128 H 0.00890 0.37040 0.49714
 H1129 H -0.00125 0.28412 0.44417
 H1130 H -0.00672 0.25508 0.41930
 H1131 H 0.00819 0.29644 0.36906
 H1132 H 0.01378 0.32552 0.39408
 C1133 C 0.38768 0.53189 0.45317
 C1134 C 0.37066 0.54545 0.45549
 C1135 C 0.35750 0.54390 0.47259
 C1136 C 0.36158 0.52857 0.48756
 C1137 C 0.37864 0.51496 0.48529
 C1138 C 0.39192 0.51643 0.46803
 N1139 N 0.34022 0.55811 0.47436
 N1140 N 0.32746 0.55758 0.48940
 C1141 C 0.31033 0.57200 0.49108
 C1142 C 0.29721 0.57092 0.50831
 C1143 C 0.28070 0.58513 0.51068
 C1144 C 0.27717 0.60068 0.49587
 C1145 C 0.28996 0.60149 0.47833
 C1146 C 0.30652 0.58729 0.47597
 H1147 H 0.39736 0.53358 0.43962
 H1148 H 0.36767 0.55722 0.44387
 H1149 H 0.35163 0.52711 0.50098
 H1150 H 0.38139 0.50338 0.49710
 H1151 H 0.29992 0.55917 0.52000
 H1152 H 0.27081 0.58416 0.52422
 H1153 H 0.28730 0.61307 0.46650
 H1154 H 0.31635 0.58832 0.46241
 C1155 C 0.86008 0.00422 -0.03058
 C1156 C 0.84239 0.01698 -0.02886
 C1157 C 0.84430 0.03886 -0.02625
 C1158 C 0.86414 0.04803 -0.02610
 C1159 C 0.88184 0.03532 -0.02849
 C1160 C 0.87993 0.01330 -0.03042
 N1161 N 0.82591 0.05134 -0.02347
 N1162 N 0.82618 0.06908 -0.01394
 C1163 C 0.80770 0.08144 -0.01119
 C1164 C 0.80630 0.09545 0.00574
 C1165 C 0.78797 0.10675 0.00956
 C1166 C 0.77103 0.10468 -0.00396
 C1167 C 0.77269 0.09120 -0.02135
 C1168 C 0.79080 0.07939 -0.02481
 H1169 H 0.85827 -0.01272 -0.03228
 H1170 H 0.82716 0.00978 -0.02909
 H1171 H 0.86590 0.06495 -0.02427
 H1172 H 0.89703 0.04261 -0.02836
 H1173 H 0.81922 0.09709 0.01636
 H1174 H 0.78707 0.11681 0.02322
 H1175 H 0.75980 0.08948 -0.03201
 H1176 H 0.79165 0.06876 -0.03810
 C1177 C 0.60670 0.03969 0.03518
 C1178 C 0.62291 0.05384 0.03196
 C1179 C 0.64166 0.04685 0.02325
 C1180 C 0.64396 0.02547 0.01744
 C1181 C 0.62764 0.01132 0.02042
 C1182 C 0.60889 0.01827 0.02947
 N1183 N 0.65800 0.06179 0.02045
 N1184 N 0.67628 0.05619 0.01515
 C1185 C 0.69249 0.07126 0.01215
 C1186 C 0.71278 0.06398 0.00881
 C1187 C 0.72894 0.07825 0.00575
 C1188 C 0.72495 0.10006 0.00562
 C1189 C 0.70461 0.10736 0.00911
 C1190 C 0.68848 0.09310 0.01240
 H1191 H 0.59238 0.04561 0.04194
 H1192 H 0.62092 0.07030 0.03640
 H1193 H 0.65831 0.01972 0.01059
 H1194 H 0.62982 -0.00510 0.01595
 H1195 H 0.71609 0.04719 0.00870
 H1196 H 0.74448 0.07210 0.00351
 H1197 H 0.70120 0.12413 0.00925
 H1198 H 0.67291 0.09914 0.01497
 C1199 C 0.12219 0.53611 0.54684
 C1200 C 0.13931 0.54934 0.54460
 C1201 C 0.15057 0.54933 0.52608
 C1202 C 0.14448 0.53591 0.50966
 C1203 C 0.12733 0.52266 0.51185
 C1204 C 0.11596 0.52256 0.53049
 N1205 N 0.16813 0.56299 0.52444
 N1206 N 0.17930 0.56353 0.50818
 C1207 C 0.19691 0.57715 0.50664
 C1208 C 0.20881 0.57652 0.48849
 C1209 C 0.22623 0.58942 0.48660
 C1210 C 0.23185 0.60326 0.50279
 C1211 C 0.22004 0.60385 0.52106
 C1212 C 0.20263 0.59092 0.52297
 H1213 H 0.11400 0.53649 0.56147
 H1214 H 0.14388 0.55961 0.55737
 H1215 H 0.15294 0.53565 0.49515
 H1216 H 0.12301 0.51260 0.49887
 H1217 H 0.20462 0.56593 0.47585
 H1218 H 0.23534 0.58858 0.47248
 H1219 H 0.22429 0.61407 0.53393
 H1220 H 0.19373 0.59161 0.53721
 C1221 C 0.10336 0.44849 -0.02651
 C1222 C 0.11964 0.43441 -0.02257
 C1223 C 0.13993 0.44186 -0.02005
 C1224 C 0.14374 0.46366 -0.02095
 C1225 C 0.12740 0.47779 -0.02426
 C1226 C 0.10712 0.47030 -0.02726
 N1227 N 0.15640 0.42717 -0.01629
 N1228 N 0.17513 0.43150 -0.02081
 C1229 C 0.19201 0.41758 -0.01624
 C1230 C 0.21089 0.42008 -0.02664
 C1231 C 0.22800 0.40750 -0.02173
 C1232 C 0.22668 0.39285 -0.00575
 C1233 C 0.20761 0.38989 0.00430
 C1234 C 0.19032 0.40213 -0.00097
 H1235 H 0.08781 0.44240 -0.02868
 H1236 H 0.11650 0.41766 -0.02180
 H1237 H 0.15929 0.46975 -0.01883
 H1238 H 0.13067 0.49452 -0.02491
 H1239 H 0.21235 0.43188 -0.03850
 H1240 H 0.24249 0.40970 -0.02995
 H1241 H 0.20602 0.37829 0.01628
 H1242 H 0.17584 0.39994 0.00725
 C1243 C 0.61904 0.96937 0.45539
 C1244 C 0.63636 0.95628 0.45763
 C1245 C 0.64822 0.95716 0.47572
 C1246 C 0.64263 0.97148 0.49167
 C1247 C 0.62525 0.98464 0.48946
 C1248 C 0.61318 0.98366 0.47131
 N1249 N 0.66567 0.94321 0.47743
 N1250 N 0.67740 0.94299 0.49327
 C1251 C 0.69468 0.92873 0.49460
 C1252 C 0.70729 0.92942 0.51224
 C1253 C 0.72419 0.91562 0.51398
 C1254 C 0.72857 0.90081 0.49815
 C1255 C 0.71612 0.90024 0.48036
 C1256 C 0.69924 0.91406 0.47860
 H1257 H 0.61038 0.96827 0.44108
 H1258 H 0.64056 0.94535 0.44521
 H1259 H 0.65158 0.97242 0.50584
 H1260 H 0.62119 0.99534 0.50208
 H1261 H 0.70401 0.94068 0.52465
 H1262 H 0.73382 0.91645 0.52772
 H1263 H 0.71941 0.88928 0.46775
 H1264 H 0.68981 0.91327 0.46475
 C1265 C 0.88448 0.96918 0.54567
 C1266 C 0.86752 0.95567 0.54347
 C1267 C 0.85507 0.95631 0.52578
 C1268 C 0.85979 0.97071 0.51015
 C1269 C 0.87679 0.98427 0.51231
 C1270 C 0.88937 0.98368 0.53012
 N1271 N 0.83777 0.94223 0.52417
 N1272 N 0.82564 0.94196 0.50862
 C1273 C 0.80836 0.92783 0.50722
 C1274 C 0.79559 0.92840 0.48971
 C1275 C 0.77859 0.91485 0.48790
 C1276 C 0.77424 0.90041 0.50353
 C1277 C 0.78687 0.89995 0.52120
 C1278 C 0.80387 0.91351 0.52302
 H1279 H 0.89360 0.96826 0.55967
 H1280 H 0.86401 0.94466 0.55563
 H1281 H 0.85039 0.97148 0.49629
 H1282 H 0.88006 0.99508 0.49995
 H1283 H 0.79880 0.93941 0.47747
 H1284 H 0.76885 0.91560 0.47426
 H1285 H 0.78360 0.88928 0.53367
 H1286 H 0.81343 0.91286 0.53678
 C1287 C 0.39368 0.45330 0.03216
 C1288 C 0.37694 0.43946 0.03013
 C1289 C 0.35774 0.44669 0.02298
 C1290 C 0.35556 0.46794 0.01735
 C1291 C 0.37239 0.48176 0.01912
 C1292 C 0.39155 0.47463 0.02678
 N1293 N 0.34080 0.43216 0.02149
 N1294 N 0.32236 0.43824 0.01763
 C1295 C 0.30540 0.42379 0.01564
 C1296 C 0.28550 0.43185 0.01203
 C1297 C 0.26879 0.41823 0.00870
 C1298 C 0.27185 0.39628 0.00861
 C1299 C 0.29157 0.38816 0.01327
 C1300 C 0.30831 0.40180 0.01665
 H1301 H 0.40831 0.44727 0.03786
 H1302 H 0.37887 0.42309 0.03435
 H1303 H 0.34089 0.47387 0.01163
 H1304 H 0.37024 0.49811 0.01495
 H1305 H 0.28301 0.44876 0.01151
 H1306 H 0.25363 0.42500 0.00601
 H1307 H 0.29415 0.37126 0.01366
 H1308 H 0.32353 0.39518 0.01963
 C1309 C 0.53535 0.44873 0.36933
 C1310 C 0.54879 0.45194 0.35265
 C1311 C 0.55260 0.47236 0.34567
 C1312 C 0.54258 0.48963 0.35540
 C1313 C 0.52893 0.48642 0.37186
 C1314 C 0.52524 0.46595 0.37905
 N1315 N 0.56657 0.47521 0.32869
 N1316 N 0.57304 0.49342 0.32379
 C1317 C 0.58671 0.49655 0.30664
 C1318 C 0.59583 0.51635 0.30423
 C1319 C 0.60928 0.51997 0.28767
 C1320 C 0.61340 0.50390 0.27299
 C1321 C 0.60426 0.48401 0.27543
 C1322 C 0.59106 0.48031 0.29216
 H1323 H 0.53266 0.43277 0.37441
 H1324 H 0.55636 0.43851 0.34521
 H1325 H 0.54520 0.50556 0.35022
 H1326 H 0.52150 0.50001 0.37913
 H1327 H 0.59265 0.52896 0.31535
 H1328 H 0.61632 0.53531 0.28652
 H1329 H 0.60748 0.47123 0.26452
 H1330 H 0.58419 0.46484 0.29371
 C1331 C 0.03801 -0.04491 0.88651
 C1332 C 0.05150 -0.04277 0.86972
 C1333 C 0.04861 -0.02654 0.85562
 C1334 C 0.03202 -0.01229 0.85850
 C1335 C 0.01848 -0.01442 0.87527
 C1336 C 0.02126 -0.03081 0.88949
 N1337 N 0.06274 -0.02485 0.83859
 N1338 N 0.06132 -0.01017 0.82546
 C1339 C 0.07553 -0.00848 0.80850
 C1340 C 0.07380 0.00877 0.79536
 C1341 C 0.08776 0.01115 0.77899
 C1342 C 0.10367 -0.00370 0.77561
 C1343 C 0.10514 -0.02128 0.78844
 C1344 C 0.09123 -0.02363 0.80487
 H1345 H 0.04083 -0.05767 0.89707
 H1346 H 0.06426 -0.05382 0.86767
 H1347 H 0.02947 0.00042 0.84778
 H1348 H 0.00582 -0.00325 0.87693
 H1349 H 0.06172 0.02048 0.79795
 H1350 H 0.08627 0.02472 0.76909
 H1351 H 0.11701 -0.03318 0.78591
 H1352 H 0.09277 -0.03721 0.81471
 C1353 C 0.03982 0.04828 0.62117
 C1354 C 0.05318 0.04572 0.63801
 C1355 C 0.05292 0.02711 0.64936
 C1356 C 0.03912 0.01092 0.64362
 C1357 C 0.02573 0.01345 0.62680
 C1358 C 0.02588 0.03219 0.61537
 N1359 N 0.06663 0.02517 0.66670
 N1360 N 0.06719 0.00869 0.67772
 C1361 C 0.08074 0.00691 0.69520
 C1362 C 0.08032 -0.01156 0.70681
 C1363 C 0.09300 -0.01358 0.72424
 C1364 C 0.10640 0.00282 0.73019
 C1365 C 0.10683 0.02135 0.71861
 C1366 C 0.09414 0.02338 0.70119
 H1367 H 0.04030 0.06298 0.61290
 H1368 H 0.06370 0.05834 0.64231
 H1369 H 0.03865 -0.00365 0.65213
 H1370 H 0.01539 0.00063 0.62272
 H1371 H 0.07001 -0.02433 0.70242
 H1372 H 0.09227 -0.02789 0.73315
 H1373 H 0.11670 0.03441 0.72309
 H1374 H 0.09467 0.03787 0.69256
 C1375 C 0.51913 0.50653 0.13154
 C1376 C 0.53214 0.50300 0.14843
 C1377 C 0.54978 0.51540 0.15162
 C1378 C 0.55434 0.53150 0.13764
 C1379 C 0.54133 0.53507 0.12069
 C1380 C 0.52355 0.52261 0.11742
 N1381 N 0.56259 0.51138 0.16925
 N1382 N 0.57877 0.52212 0.17336
 C1383 C 0.59130 0.51807 0.19119
 C1384 C 0.60841 0.53102 0.19530
 C1385 C 0.62055 0.52790 0.21293
 C1386 C 0.61570 0.51176 0.22673
 C1387 C 0.59887 0.49845 0.22236
 C1388 C 0.58669 0.50160 0.20476
 H1389 H 0.50552 0.49673 0.12976
 H1390 H 0.52841 0.49060 0.15915
 H1391 H 0.56792 0.54131 0.13979
 H1392 H 0.54533 0.54749 0.11013
 H1393 H 0.61222 0.54366 0.18489
 H1394 H 0.63371 0.53812 0.21565
 H1395 H 0.59498 0.48571 0.23258
 H1396 H 0.57363 0.49126 0.20186
 C1397 C 0.44941 -0.03018 0.11085
 C1398 C 0.43514 -0.02674 0.12689
 C1399 C 0.44135 -0.01698 0.14545
 C1400 C 0.46201 -0.01024 0.14768
 C1401 C 0.47624 -0.01340 0.13153
 C1402 C 0.47013 -0.02359 0.11304
 N1403 N 0.42649 -0.01434 0.16182
 N1404 N 0.43180 -0.00858 0.18003
 C1405 C 0.41703 -0.00598 0.19647
 C1406 C 0.42428 -0.00302 0.21671
 C1407 C 0.41033 -0.00097 0.23321
 C1408 C 0.38885 -0.00179 0.22965
 C1409 C 0.38154 -0.00399 0.20927
 C1410 C 0.39551 -0.00634 0.19278
 H1411 H 0.44418 -0.03786 0.09670
 H1412 H 0.41924 -0.03194 0.12497
 H1413 H 0.46716 -0.00259 0.16188
 H1414 H 0.49212 -0.00827 0.13371
 H1415 H 0.44082 -0.00248 0.21971
 H1416 H 0.41646 0.00138 0.24864
 H1417 H 0.36502 -0.00394 0.20612
 H1418 H 0.38953 -0.00829 0.17721
 C1419 C 0.98984 0.48496 0.63620
 C1420 C 0.97668 0.48899 0.65303
 C1421 C 0.95583 0.48298 0.65224
 C1422 C 0.94828 0.47246 0.63446
 C1423 C 0.96150 0.46822 0.61763
 C1424 C 0.98238 0.47463 0.61826
 N1425 N 0.94279 0.48782 0.66970
 N1426 N 0.92332 0.48444 0.66965
 C1427 C 0.91060 0.48928 0.68736
 C1428 C 0.88918 0.48588 0.68618
 C1429 C 0.87645 0.49001 0.70337
 C1430 C 0.88504 0.49740 0.72209
 C1431 C 0.90646 0.50128 0.72312
 C1432 C 0.91916 0.49722 0.70593
 H1433 H 1.00589 0.48984 0.63732
 H1434 H 0.98270 0.49698 0.66670
 H1435 H 0.93221 0.46758 0.63353
 H1436 H 0.95527 0.46034 0.60401
 H1437 H 0.88234 0.47993 0.67193
 H1438 H 0.85998 0.48723 0.70198
 H1439 H 0.91348 0.50745 0.73715
 H1440 H 0.93566 0.50017 0.70721
 C1441 C 0.97735 0.49674 0.86810
 C1442 C 0.96435 0.49299 0.85111
 C1443 C 0.95030 0.50847 0.84472
 C1444 C 0.94936 0.52786 0.85559
 C1445 C 0.96237 0.53166 0.87257
 C1446 C 0.97657 0.51615 0.87906
 N1447 N 0.93729 0.50414 0.82717
 N1448 N 0.92394 0.51742 0.82081
 C1449 C 0.91097 0.51325 0.80320
 C1450 C 0.89637 0.52850 0.79746
 C1451 C 0.88352 0.52505 0.78032
 C1452 C 0.88503 0.50619 0.76868
 C1453 C 0.89982 0.49097 0.77429
 C1454 C 0.91265 0.49440 0.79147
 H1455 H 0.98793 0.48433 0.87257
 H1456 H 0.96521 0.47796 0.84289
 H1457 H 0.93864 0.54012 0.85094
 H1458 H 0.96128 0.54681 0.88047
 H1459 H 0.89502 0.54315 0.80628
 H1460 H 0.87258 0.53726 0.77618
 H1461 H 0.90151 0.47649 0.76527
 H1462 H 0.92392 0.48242 0.79549
 C1463 C 0.47370 0.00045 0.37792
 C1464 C 0.46028 -0.00418 0.36149
 C1465 C 0.44621 0.01101 0.35456
 C1466 C 0.44553 0.03096 0.36443
 C1467 C 0.45893 0.03561 0.38091
 C1468 C 0.47327 0.02044 0.38777
 N1469 N 0.43319 0.00592 0.33722
 N1470 N 0.42025 0.01907 0.32991
 C1471 C 0.40765 0.01415 0.31223
 C1472 C 0.39449 0.02976 0.30446
 C1473 C 0.38284 0.02589 0.28655
 C1474 C 0.38430 0.00632 0.27614
 C1475 C 0.39693 -0.00960 0.28428
 C1476 C 0.40863 -0.00571 0.30216
 H1477 H 0.48433 -0.01173 0.38289
 H1478 H 0.46094 -0.01961 0.35402
 H1479 H 0.43481 0.04300 0.35930
 H1480 H 0.45824 0.05121 0.38799
 H1481 H 0.39353 0.04508 0.31212
 H1482 H 0.37299 0.03834 0.28078
 H1483 H 0.39807 -0.02487 0.27654
 H1484 H 0.41861 -0.01809 0.30793
   
