data_POSCAR
  _audit_creation_date              2014-09-24
  _audit_creation_method            'ToBaCCo'
  _symmetry_space_group_name_H-M    'P1'
  _symmetry_Int_Tables_number       1
  _symmetry_cell_setting            triclinic
  loop_
  _symmetry_equiv_pos_as_xyz
 x,y,z
_cell_length_a 55.3132
_cell_length_b 54.9315
_cell_length_c 60.8091
_cell_angle_alpha 90.040500
_cell_angle_beta 89.280600
_cell_angle_gamma 90.272300
loop_
  _atom_site_label
  _atom_site_type_symbol
  _atom_site_fract_x
  _atom_site_fract_y
  _atom_site_fract_z
C1 C 0.28551 0.42679 0.89509
 C2 C 0.28750 0.41680 0.91613
 C3 C 0.30722 0.42225 0.92910
 C4 C 0.32506 0.43850 0.92111
 C5 C 0.32282 0.44861 0.90033
 C6 C 0.30304 0.44253 0.88713
 C7 C 0.26835 0.42423 0.87912
 N8 N 0.27507 0.43792 0.86147
 C9 C 0.29625 0.44929 0.86623
 C10 C 0.34161 0.46478 0.89738
 N11 N 0.35526 0.46493 0.91584
 C12 C 0.34542 0.44872 0.93035
 C13 C 0.30373 0.41009 0.94886
 N14 N 0.28230 0.39796 0.94800
 C15 C 0.27234 0.40195 0.92810
 H16 H 0.25235 0.41288 0.88022
 H17 H 0.30609 0.46136 0.85521
 H18 H 0.34463 0.47600 0.88299
 H19 H 0.35201 0.44530 0.94675
 H20 H 0.31545 0.41062 0.96298
 H21 H 0.25512 0.39469 0.92281
 C22 C 0.43577 0.83239 0.42882
 C23 C 0.42386 0.81185 0.43817
 C24 C 0.42108 0.79104 0.42550
 C25 C 0.42895 0.79037 0.40369
 C26 C 0.44003 0.81032 0.39435
 C27 C 0.44352 0.83135 0.40701
 C28 C 0.44314 0.85499 0.43678
 N29 N 0.45497 0.86724 0.42030
 C30 C 0.45485 0.85283 0.40210
 C31 C 0.44552 0.80428 0.37278
 N32 N 0.43771 0.78116 0.36908
 C33 C 0.42760 0.77256 0.38797
 C34 C 0.40933 0.77387 0.43782
 N35 N 0.40421 0.78339 0.45781
 C36 C 0.41277 0.80672 0.45834
 H37 H 0.44066 0.86166 0.45341
 H38 H 0.46322 0.85702 0.38638
 H39 H 0.45424 0.81588 0.36064
 H40 H 0.41967 0.75468 0.39020
 H41 H 0.40388 0.75594 0.43228
 H42 H 0.41076 0.81905 0.47212
 C43 C 0.93361 0.90990 0.80433
 C44 C 0.92378 0.93298 0.80888
 C45 C 0.92952 0.94485 0.82827
 C46 C 0.94479 0.93366 0.84354
 C47 C 0.95448 0.91106 0.83889
 C48 C 0.94897 0.89919 0.81922
 C49 C 0.93107 0.89373 0.78713
 N50 N 0.94457 0.87359 0.79134
 C51 C 0.95557 0.87687 0.81093
 C52 C 0.96818 0.90427 0.85650
 N53 N 0.96697 0.92209 0.87198
 C54 C 0.95269 0.94018 0.86420
 C55 C 0.91734 0.96667 0.82839
 N56 N 0.90424 0.96830 0.80968
 C57 C 0.90793 0.94771 0.79772
 H58 H 0.92004 0.89646 0.77278
 H59 H 0.96728 0.86382 0.81877
 H60 H 0.97794 0.88733 0.85795
 H61 H 0.94828 0.95679 0.87293
 H62 H 0.91753 0.98007 0.84145
 H63 H 0.89951 0.94367 0.78215
 C64 C 0.41082 -0.06436 0.30493
 C65 C 0.40013 -0.04233 0.31079
 C66 C 0.41221 -0.02573 0.32373
 C67 C 0.43564 -0.03116 0.33083
 C68 C 0.44657 -0.05289 0.32454
 C69 C 0.43395 -0.06980 0.31147
 C70 C 0.40237 -0.08346 0.29280
 N71 N 0.41978 -0.10075 0.29147
 C72 C 0.43932 -0.09257 0.30283
 C73 C 0.46912 -0.05312 0.33386
 N74 N 0.47196 -0.03235 0.34575
 C75 C 0.45159 -0.01887 0.34407
 C76 C 0.39707 -0.00591 0.32643
 N77 N 0.37643 -0.01042 0.31516
 C78 C 0.37822 -0.03264 0.30569
 H79 H 0.38476 -0.08434 0.28531
 H80 H 0.45609 -0.10239 0.30469
 H81 H 0.48215 -0.06771 0.33269
 H82 H 0.44855 -0.00154 0.35210
 H83 H 0.40091 0.01056 0.33554
 H84 H 0.36452 -0.04112 0.29563
 C85 C 0.78636 0.31558 0.33658
 C86 C 0.79138 0.32981 0.31777
 C87 C 0.81077 0.32378 0.30429
 C88 C 0.82551 0.30401 0.30936
 C89 C 0.82083 0.29026 0.32794
 C90 C 0.80103 0.29597 0.34159
 C91 C 0.76982 0.31776 0.35361
 N92 N 0.77413 0.30003 0.36868
 C93 C 0.79322 0.28671 0.36148
 C94 C 0.83970 0.27416 0.33003
 N95 N 0.85562 0.27799 0.31315
 C96 C 0.84699 0.29611 0.30039
 C97 C 0.81305 0.34147 0.28856
 N98 N 0.79566 0.35844 0.29199
 C99 C 0.78217 0.35147 0.30980
 H100 H 0.75619 0.33174 0.35517
 H101 H 0.80127 0.27180 0.37039
 H102 H 0.84219 0.26149 0.34342
 H103 H 0.85636 0.30388 0.28629
 H104 H 0.82713 0.34232 0.27608
 H105 H 0.76753 0.36192 0.31700
 C106 C -0.18343 0.81925 0.80650
 C107 C -0.17824 0.79494 0.80165
 C108 C -0.19371 0.77674 0.80879
 C109 C -0.21438 0.78263 0.82120
 C110 C -0.21892 0.80661 0.82693
 C111 C -0.20383 0.82523 0.81870
 C112 C -0.17187 0.84047 0.80085
 N113 N -0.18539 0.85945 0.80825
 C114 C -0.20483 0.85033 0.81948
 C115 C -0.23723 0.80625 0.84258
 N116 N -0.24442 0.78278 0.84561
 C117 C -0.23083 0.76830 0.83230
 C118 C -0.18261 0.75491 0.80433
 N119 N -0.16075 0.75954 0.79472
 C120 C -0.15812 0.78398 0.79267
 H121 H -0.15581 0.84183 0.79058
 H122 H -0.21909 0.86112 0.82692
 H123 H -0.24410 0.82171 0.85173
 H124 H -0.23107 0.74858 0.83246
 H125 H -0.18918 0.73715 0.80932
 H126 H -0.14186 0.79314 0.78691
 C127 C 0.95690 0.34120 0.43154
 C128 C 0.96525 0.32971 0.41230
 C129 C 0.95454 0.30819 0.40534
 C130 C 0.93537 0.29789 0.41753
 C131 C 0.92761 0.30917 0.43665
 C132 C 0.93815 0.33089 0.44354
 C133 C 0.96123 0.36380 0.44054
 N134 N 0.94518 0.36742 0.45734
 C135 C 0.93111 0.34726 0.45936
 C136 C 0.90733 0.29731 0.44394
 N137 N 0.90220 0.27918 0.42967
 C138 C 0.91922 0.27922 0.41336
 C139 C 0.96422 0.30277 0.38502
 N140 N 0.98040 0.32043 0.37946
 C141 C 0.98117 0.33701 0.39600
 H142 H 0.97401 0.37724 0.43438
 H143 H 0.91604 0.34502 0.47072
 H144 H 0.89621 0.30244 0.45797
 H145 H 0.91917 0.26744 0.39908
 H146 H 0.95898 0.28776 0.37453
 H147 H 0.99162 0.35371 0.39580
 C148 C 0.45176 0.43890 0.85471
 C149 C 0.45459 0.41410 0.84951
 C150 C 0.43768 0.40263 0.83650
 C151 C 0.41821 0.41560 0.82825
 C152 C 0.41574 0.44017 0.83259
 C153 C 0.43270 0.45189 0.84597
 C154 C 0.46586 0.45527 0.86608
 N155 N 0.45593 0.47777 0.86431
 C156 C 0.43590 0.47591 0.85166
 C157 C 0.39851 0.44894 0.81839
 N158 N 0.39114 0.43023 0.80549
 C159 C 0.40283 0.40983 0.81166
 C160 C 0.44703 0.38070 0.82994
 N161 N 0.46942 0.37852 0.83829
 C162 C 0.47419 0.39869 0.85056
 H163 H 0.48216 0.45111 0.87498
 H164 H 0.42396 0.49070 0.84747
 H165 H 0.39392 0.46786 0.81584
 H166 H 0.40199 0.39251 0.80317
 H167 H 0.43917 0.36839 0.81805
 H168 H 0.49156 0.40313 0.85750
 C169 C 0.77731 0.92736 0.94284
 C170 C 0.78604 0.94738 0.93094
 C171 C 0.80917 0.95599 0.93448
 C172 C 0.82414 0.94427 0.94942
 C173 C 0.81583 0.92408 0.96086
 C174 C 0.79207 0.91562 0.95765
 C175 C 0.75580 0.91487 0.94212
 N176 N 0.75705 0.89559 0.95602
 C177 C 0.77918 0.89587 0.96557
 C178 C 0.83488 0.91581 0.97318
 N179 N 0.85435 0.93063 0.96943
 C180 C 0.84788 0.94801 0.95487
 C181 C 0.81349 0.97437 0.91970
 N182 N 0.79367 0.97674 0.90701
 C183 C 0.77676 0.96034 0.91367
 H184 H 0.74075 0.91913 0.93163
 H185 H 0.78566 0.88237 0.97703
 H186 H 0.83450 0.90012 0.98392
 H187 H 0.85964 0.96226 0.94855
 H188 H 0.83036 0.98415 0.91733
 H189 H 0.75947 0.95742 0.90592
 C190 C 0.30241 0.82965 0.33741
 C191 C 0.29959 0.80773 0.34877
 C192 C 0.30562 0.78612 0.33866
 C193 C 0.31483 0.78620 0.31711
 C194 C 0.31773 0.80791 0.30574
 C195 C 0.31078 0.82993 0.31585
 C196 C 0.29712 0.85301 0.34334
 N197 N 0.30097 0.86771 0.32569
 C198 C 0.30944 0.85381 0.30873
 C199 C 0.32944 0.80236 0.28615
 N200 N 0.33329 0.77793 0.28549
 C201 C 0.32418 0.76797 0.30425
 C202 C 0.30137 0.76783 0.35365
 N203 N 0.29271 0.77795 0.37255
 C204 C 0.29155 0.80238 0.36972
 H205 H 0.28929 0.85848 0.35897
 H206 H 0.31370 0.86045 0.29237
 H207 H 0.33584 0.81522 0.27388
 H208 H 0.32590 0.74906 0.30898
 H209 H 0.30459 0.74863 0.35100
 H210 H 0.28560 0.81529 0.38209
 C211 C 0.79488 0.42813 0.44235
 C212 C 0.78518 0.44107 0.42468
 C213 C 0.79676 0.46182 0.41674
 C214 C 0.81828 0.46997 0.42653
 C215 C 0.82737 0.45746 0.44430
 C216 C 0.81572 0.43651 0.45212
 C217 C 0.78971 0.40556 0.45132
 N218 N 0.80710 0.40019 0.46609
 C219 C 0.82286 0.41918 0.46681
 C220 C 0.84924 0.46770 0.44945
 N221 N 0.85402 0.48606 0.43514
 C222 C 0.83514 0.48770 0.42101
 C223 C 0.78431 0.46919 0.39842
 N224 N 0.76558 0.45354 0.39520
 C225 C 0.76606 0.43626 0.41113
 H226 H 0.77543 0.39326 0.44634
 H227 H 0.83930 0.41982 0.47624
 H228 H 0.86136 0.46144 0.46209
 H229 H 0.83406 0.50018 0.40730
 H230 H 0.78899 0.48435 0.38779
 H231 H 0.75389 0.42084 0.41245
 C232 C 0.93481 0.81960 -0.03556
 C233 C 0.91231 0.81401 -0.04469
 C234 C 0.91070 0.79816 -0.06244
 C235 C 0.93191 0.78834 -0.07182
 C236 C 0.95395 0.79360 -0.06239
 C237 C 0.95540 0.80900 -0.04414
 C238 C 0.94211 0.83623 -0.01989
 N239 N 0.96661 0.83562 -0.01878
 C240 C 0.97484 0.81898 -0.03353
 C241 C 0.97164 0.78439 -0.07582
 N242 N 0.96123 0.77411 -0.09372
 C243 C 0.93680 0.77604 -0.09128
 C244 C 0.88649 0.79597 -0.06740
 N245 N 0.87372 0.81028 -0.05328
 C246 C 0.88934 0.82155 -0.03956
 H247 H 0.93061 0.84871 -0.01084
 H248 H 0.99368 0.81566 -0.03744
 H249 H 0.99082 0.78689 -0.07335
 H250 H 0.92370 0.77056 -0.10343
 H251 H 0.87870 0.78467 -0.08009
 H252 H 0.88423 0.83363 -0.02622
 C253 C 0.29959 0.31534 0.81448
 C254 C 0.29622 0.30492 0.83532
 C255 C 0.31449 0.29163 0.84469
 C256 C 0.33637 0.28838 0.83323
 C257 C 0.33997 0.29877 0.81263
 C258 C 0.32133 0.31263 0.80313
 C259 C 0.28426 0.32815 0.80129
 N260 N 0.29598 0.33361 0.78220
 C261 C 0.31874 0.32439 0.78309
 C262 C 0.36258 0.29134 0.80533
 N263 N 0.37238 0.27669 0.82090
 C264 C 0.35649 0.27498 0.83801
 C265 C 0.30610 0.28359 0.86488
 N266 N 0.28318 0.29176 0.86793
 C267 C 0.27696 0.30475 0.84987
 H268 H 0.26571 0.33291 0.80515
 H269 H 0.33204 0.32543 0.76991
 H270 H 0.37094 0.29560 0.78960
 H271 H 0.35910 0.26433 0.85275
 H272 H 0.31598 0.27273 0.87657
 H273 H 0.25982 0.31371 0.84751
 C274 C 0.17320 0.56567 0.55792
 C275 C 0.18511 0.58809 0.56020
 C276 C 0.20894 0.58886 0.56682
 C277 C 0.22103 0.56720 0.57165
 C278 C 0.20897 0.54512 0.57035
 C279 C 0.18494 0.54434 0.56331
 C280 C 0.14998 0.55954 0.55216
 N281 N 0.14736 0.53509 0.55414
 C282 C 0.16853 0.52562 0.56115
 C283 C 0.22388 0.52771 0.57906
 N284 N 0.24472 0.53870 0.58526
 C285 C 0.24319 0.56282 0.58072
 C286 C 0.21530 0.61298 0.56908
 N287 N 0.19578 0.62674 0.56435
 C288 C 0.17726 0.61173 0.55879
 H289 H 0.13584 0.57197 0.54740
 H290 H 0.17177 0.50654 0.56436
 H291 H 0.21934 0.50878 0.58200
 H292 H 0.25631 0.57646 0.58550
 H293 H 0.23255 0.62002 0.57451
 H294 H 0.15929 0.61754 0.55437
 C295 C 0.58658 0.65052 0.08374
 C296 C 0.56527 0.64026 0.09240
 C297 C 0.54982 0.65421 0.10525
 C298 C 0.55538 0.67863 0.10917
 C299 C 0.57625 0.68901 0.10047
 C300 C 0.59209 0.67474 0.08785
 C301 C 0.60147 0.64291 0.06680
 N302 N 0.61581 0.66185 0.06066
 C303 C 0.61035 0.68127 0.07351
 C304 C 0.57408 0.71393 0.10270
 N305 N 0.55236 0.71859 0.11236
 C306 C 0.54095 0.69719 0.11638
 C307 C 0.52769 0.64264 0.10577
 N308 N 0.52921 0.62247 0.09307
 C309 C 0.55217 0.62058 0.08524
 H310 H 0.60046 0.62557 0.05839
 H311 H 0.61753 0.69948 0.07116
 H312 H 0.58667 0.72759 0.09668
 H313 H 0.52284 0.69531 0.12318
 H314 H 0.51094 0.65041 0.11185
 H315 H 0.55793 0.60784 0.07264
 C316 C 0.72067 0.21049 0.66933
 C317 C 0.69891 0.21862 0.67925
 C318 C 0.69078 0.20745 0.69834
 C319 C 0.70295 0.18777 0.70710
 C320 C 0.72361 0.17907 0.69705
 C321 C 0.73287 0.19086 0.67834
 C322 C 0.73264 0.21625 0.64995
 N323 N 0.75163 0.20080 0.64727
 C324 C 0.75170 0.18510 0.66443
 C325 C 0.72784 0.15638 0.70584
 N326 N 0.70992 0.15136 0.72063
 C327 C 0.69495 0.17068 0.72179
 C328 C 0.66811 0.21557 0.70302
 N329 N 0.66158 0.23139 0.68727
 C330 C 0.68028 0.23373 0.67257
 H331 H 0.72747 0.23012 0.63829
 H332 H 0.76415 0.17015 0.66644
 H333 H 0.74133 0.14350 0.70022
 H334 H 0.67801 0.17130 0.73085
 H335 H 0.65641 0.20905 0.71619
 H336 H 0.67978 0.24422 0.65754
 C337 C 1.07174 0.05382 0.19719
 C338 C 1.06480 0.07815 0.19947
 C339 C 1.05055 0.08880 0.18372
 C340 C 1.04370 0.07547 0.16518
 C341 C 1.05116 0.05161 0.16254
 C342 C 1.06507 0.04056 0.17885
 C343 C 1.08631 0.03931 0.20956
 N344 N 1.08878 0.01756 0.19927
 C345 C 1.07589 0.01806 0.18040
 C346 C 1.04352 0.04402 0.14217
 N347 N 1.03147 0.06264 0.13259
 C348 C 1.03145 0.08191 0.14662
 C349 C 1.04747 0.11276 0.18960
 N350 N 1.05988 0.11690 0.20832
 C351 C 1.07057 0.09587 0.21454
 H352 H 1.09529 0.04454 0.22458
 H353 H 1.07523 0.00362 0.16831
 H354 H 1.04676 0.02638 0.13476
 H355 H 1.02383 0.09963 0.14339
 H356 H 1.03770 0.12644 0.18052
 H357 H 1.08194 0.09373 0.22876
 C358 C 0.06451 0.16663 1.04611
 C359 C 0.08495 0.17800 1.05559
 C360 C 0.08226 0.19070 1.07530
 C361 C 0.05945 0.19250 1.08573
 C362 C 0.03974 0.18150 1.07625
 C363 C 0.04217 0.16890 1.05644
 C364 C 0.06082 0.15180 1.02786
 N365 N 0.03686 0.14593 1.02703
 C366 C 0.02552 0.15630 1.04446
 C367 C 0.02028 0.18446 1.09016
 N368 N 0.02745 0.19723 1.10809
 C369 C 0.05141 0.20253 1.10544
 C370 C 0.10475 0.19895 1.08116
 N371 N 0.12120 0.19206 1.06560
 C372 C 0.10932 0.17931 1.04980
 H373 H 0.07444 0.14568 1.01621
 H374 H 0.00649 0.15416 1.04850
 H375 H 0.00228 0.17739 1.08740
 H376 H 0.06239 0.21205 1.11734
 H377 H 0.10881 0.20938 1.09579
 H378 H 0.11782 0.17119 1.03545
 C379 C 0.17418 0.69262 0.69044
 C380 C 0.18964 0.70466 0.67561
 C381 C 0.21027 0.69320 0.66777
 C382 C 0.21586 0.66954 0.67490
 C383 C 0.20071 0.65774 0.68974
 C384 C 0.17977 0.66941 0.69756
 C385 C 0.15327 0.69964 0.70120
 N386 N 0.14633 0.68139 0.71491
 C387 C 0.16234 0.66282 0.71273
 C388 C 0.21077 0.63533 0.69408
 N389 N 0.23166 0.63325 0.68229
 C390 C 0.23489 0.65410 0.67049
 C391 C 0.22150 0.70914 0.65340
 N392 N 0.20828 0.72990 0.65252
 C393 C 0.18879 0.72735 0.66610
 H394 H 0.14437 0.71708 0.69991
 H395 H 0.16168 0.64592 0.72185
 H396 H 0.20352 0.62161 0.70515
 H397 H 0.25003 0.65791 0.65956
 H398 H 0.23788 0.70575 0.64398
 H399 H 0.17464 0.74069 0.66842
 C400 C 1.16175 0.16477 0.17885
 C401 C 1.15221 0.18720 0.17253
 C402 C 1.16588 0.20299 0.15981
 C403 C 1.18950 0.19683 0.15380
 C404 C 1.19932 0.17490 0.16038
 C405 C 1.18517 0.15854 0.17290
 C406 C 1.15208 0.14579 0.19069
 N407 N 1.16897 0.12805 0.19212
 C408 C 1.18935 0.13568 0.18141
 C409 C 1.22254 0.17406 0.15185
 N410 N 1.22662 0.19483 0.14013
 C411 C 1.20653 0.20881 0.14141
 C412 C 1.15235 0.22357 0.15646
 N413 N 1.13098 0.22067 0.16729
 C414 C 1.13066 0.19852 0.17711
 H415 H 1.13407 0.14507 0.19783
 H416 H 1.20589 0.12532 0.17988
 H417 H 1.23504 0.15907 0.15335
 H418 H 1.20424 0.22625 0.13341
 H419 H 1.15803 0.23985 0.14776
 H420 H 1.11604 0.19146 0.18730
 C421 C 0.64301 1.06726 0.60021
 C422 C 0.65644 1.06662 0.61948
 C423 C 0.67647 1.08154 0.62177
 C424 C 0.68226 1.09840 0.60516
 C425 C 0.66819 1.10003 0.58647
 C426 C 0.64900 1.08357 0.58353
 C427 C 0.63102 1.04814 0.59077
 N428 N 0.63036 1.05171 0.56884
 C429 C 0.64048 1.07364 0.56419
 C430 C 0.68086 1.11407 0.57137
 N431 N 0.70249 1.12012 0.58009
 C432 C 0.70348 1.11060 0.60068
 C433 C 0.69074 1.07112 0.63772
 N434 N 0.67996 1.05022 0.64467
 C435 C 0.65886 1.04766 0.63392
 H436 H 0.62653 1.03109 0.59881
 H437 H 0.64505 1.07982 0.54775
 H438 H 0.67587 1.11723 0.55444
 H439 H 0.71903 1.11128 0.61131
 H440 H 0.70900 1.07656 0.64177
 H441 H 0.64740 1.03165 0.63458
 C442 C 0.53292 0.54063 0.16078
 C443 C 0.55347 0.54028 0.17382
 C444 C 0.56342 0.56166 0.18142
 C445 C 0.55250 0.58391 0.17612
 C446 C 0.53198 0.58453 0.16310
 C447 C 0.52232 0.56242 0.15487
 C448 C 0.52145 0.52218 0.14995
 N449 N 0.50418 0.53179 0.13707
 C450 C 0.50453 0.55646 0.13976
 C451 C 0.52578 0.60890 0.16093
 N452 N 0.54214 0.62265 0.17206
 C453 C 0.55856 0.60749 0.18111
 C454 C 0.58474 0.55558 0.19179
 N455 N 0.58783 0.53109 0.19013
 C456 C 0.56865 0.52168 0.17931
 H457 H 0.52650 0.50317 0.15031
 H458 H 0.49344 0.56912 0.13076
 H459 H 0.51068 0.61607 0.15186
 H460 H 0.57365 0.61322 0.19107
 H461 H 0.59778 0.56814 0.19864
 H462 H 0.56644 0.50274 0.17478
 C463 C 0.65194 0.70488 0.18500
 C464 C 0.66147 0.68249 0.19128
 C465 C 0.67862 0.67103 0.17824
 C466 C 0.68613 0.68190 0.15831
 C467 C 0.67641 0.70403 0.15195
 C468 C 0.65933 0.71574 0.16555
 C469 C 0.63457 0.71935 0.19445
 N470 N 0.63125 0.73895 0.18137
 C471 C 0.64627 0.73699 0.16357
 C472 C 0.68613 0.70965 0.13159
 N473 N 0.70160 0.69168 0.12552
 C474 C 0.70174 0.67464 0.14175
 C475 C 0.68400 0.64927 0.18849
 N476 N 0.67026 0.64744 0.20714
 C477 C 0.65648 0.66769 0.20892
 H478 H 0.62465 0.71565 0.20956
 H479 H 0.64707 0.74959 0.14990
 H480 H 0.68217 0.72559 0.12184
 H481 H 0.71205 0.65796 0.14139
 H482 H 0.69643 0.63552 0.18255
 H483 H 0.64361 0.67137 0.22205
 C484 C 0.17944 0.06766 1.05937
 C485 C 0.20055 0.07987 1.06525
 C486 C 0.21320 0.07284 1.08364
 C487 C 0.20454 0.05333 1.09656
 C488 C 0.18363 0.04107 1.09052
 C489 C 0.17089 0.04839 1.07182
 C490 C 0.16403 0.07085 1.04218
 N491 N 0.14612 0.05400 1.04378
 C492 C 0.15005 0.04015 1.06190
 C493 C 0.17979 0.02277 1.10559
 N494 N 0.19762 0.02371 1.12074
 C495 C 0.21278 0.04239 1.11546
 C496 C 0.23322 0.08789 1.08478
 N497 N 0.23267 0.10371 1.06757
 C498 C 0.21271 0.09896 1.05566
 H499 H 0.16577 0.08456 1.02948
 H500 H 0.13870 0.02516 1.06734
 H501 H 0.16493 0.00988 1.10566
 H502 H 0.22873 0.04745 1.12457
 H503 H 0.24704 0.08740 1.09721
 H504 H 0.20753 0.10862 1.04094
 C505 C 0.60109 0.19737 0.60101
 C506 C 0.57695 0.19944 0.60746
 C507 C 0.55915 0.18525 0.59781
 C508 C 0.56588 0.16801 0.58153
 C509 C 0.59004 0.16629 0.57512
 C510 C 0.60764 0.18125 0.58467
 C511 C 0.62073 0.21192 0.60526
 N512 N 0.63904 0.20532 0.59156
 C513 C 0.63131 0.18650 0.57893
 C514 C 0.59132 0.15078 0.55751
 N515 N 0.56878 0.14261 0.55292
 C516 C 0.55297 0.15295 0.56748
 C517 C 0.53717 0.19425 0.60554
 N518 N 0.54181 0.21332 0.61920
 C519 C 0.56595 0.21641 0.62051
 H520 H 0.62094 0.22757 0.61610
 H521 H 0.64158 0.17839 0.56556
 H522 H 0.60747 0.14649 0.54806
 H523 H 0.53351 0.15091 0.56698
 H524 H 0.51932 0.18817 0.60088
 H525 H 0.57481 0.23076 0.62967
 C526 C 0.09767 0.55430 0.67811
 C527 C 0.08080 0.56587 0.69187
 C528 C 0.05868 0.57293 0.68367
 C529 C 0.05301 0.56820 0.66164
 C530 C 0.06950 0.55624 0.64823
 C531 C 0.09206 0.54948 0.65644
 C532 C 0.12091 0.54643 0.68139
 N533 N 0.12951 0.53700 0.66224
 C534 C 0.11199 0.53875 0.64686
 C535 C 0.05926 0.55389 0.62786
 N536 N 0.03712 0.56438 0.62851
 C537 C 0.03312 0.57334 0.64905
 C538 C 0.04660 0.58488 0.70033
 N539 N 0.06081 0.58514 0.71837
 C540 C 0.08177 0.57353 0.71337
 H541 H 0.13090 0.54755 0.69657
 H542 H 0.11360 0.53278 0.62995
 H543 H 0.06741 0.54543 0.61351
 H544 H 0.01689 0.58263 0.65446
 H545 H 0.02909 0.59351 0.69920
 H546 H 0.09702 0.57168 0.72422
 C547 C 0.66191 0.55301 0.07940
 C548 C 0.68298 0.55307 0.09200
 C549 C 0.70431 0.56143 0.08281
 C550 C 0.70504 0.56972 0.06121
 C551 C 0.68426 0.57056 0.04878
 C552 C 0.66229 0.56170 0.05794
 C553 C 0.63880 0.54550 0.08415
 N554 N 0.62491 0.54880 0.06613
 C555 C 0.63901 0.55901 0.05005
 C556 C 0.69060 0.58253 0.02942
 N557 N 0.71462 0.58811 0.03007
 C558 C 0.72341 0.58027 0.04942
 C559 C 0.72127 0.56211 0.09901
 N560 N 0.71081 0.55428 0.11797
 C561 C 0.68743 0.54831 0.11390
 H562 H 0.63284 0.53750 0.09954
 H563 H 0.63299 0.56338 0.03366
 H564 H 0.67851 0.58777 0.01641
 H565 H 0.74156 0.58363 0.05523
 H566 H 0.73960 0.56895 0.09736
 H567 H 0.67428 0.54269 0.12624
 C568 C 0.06798 0.70002 0.60298
 C569 C 0.08339 0.71430 0.58944
 C570 C 0.08708 0.70763 0.56768
 C571 C 0.07560 0.68717 0.55904
 C572 C 0.06035 0.67336 0.57213
 C573 C 0.05667 0.67968 0.59423
 C574 C 0.06168 0.70073 0.62509
 N575 N 0.04714 0.68129 0.62972
 C576 C 0.04402 0.66841 0.61091
 C577 C 0.05276 0.65393 0.55967
 N578 N 0.06333 0.65566 0.53946
 C579 C 0.07735 0.67594 0.53890
 C580 C 0.10393 0.72307 0.55866
 N581 N 0.11067 0.73925 0.57420
 C582 C 0.09826 0.73419 0.59316
 H583 H 0.06762 0.71407 0.63699
 H584 H 0.03344 0.65189 0.60940
 H585 H 0.04118 0.63912 0.56513
 H586 H 0.08840 0.68181 0.52506
 H587 H 0.11134 0.72217 0.54211
 H588 H 0.10066 0.74352 0.60867
 C589 C 0.58791 1.04585 0.64418
 C590 C 0.60089 1.04425 0.66401
 C591 C 0.60200 1.06407 0.67843
 C592 C 0.58971 1.08593 0.67316
 C593 C 0.57807 1.08733 0.65326
 C594 C 0.57693 1.06753 0.63911
 C595 C 0.57897 1.02866 0.62938
 N596 N 0.56238 1.03975 0.61636
 C597 C 0.56139 1.06346 0.62223
 C598 C 0.56489 1.10812 0.65286
 N599 N 0.56711 1.11994 0.67227
 C600 C 0.58269 1.10676 0.68487
 C601 C 0.61436 1.05617 0.69686
 N602 N 0.62042 1.03235 0.69401
 C603 C 0.61204 1.02502 0.67413
 H604 H 0.58193 1.00920 0.63002
 H605 H 0.54855 1.07646 0.61591
 H606 H 0.55305 1.11311 0.63962
 H607 H 0.58705 1.11089 0.70178
 H608 H 0.61799 1.06672 0.71149
 H609 H 0.61387 1.00684 0.66743
 C610 C 0.46104 0.34247 0.89866
 C611 C 0.46604 0.31833 0.89321
 C612 C 0.45028 0.29976 0.89930
 C613 C 0.42892 0.30549 0.91111
 C614 C 0.42427 0.32960 0.91666
 C615 C 0.44059 0.34810 0.91074
 C616 C 0.47544 0.36283 0.89802
 N617 N 0.46464 0.38062 0.91011
 C618 C 0.44318 0.37184 0.91785
 C619 C 0.40525 0.32969 0.93127
 N620 N 0.39803 0.30644 0.93495
 C621 C 0.41231 0.29140 0.92275
 C622 C 0.46168 0.27809 0.89385
 N623 N 0.48388 0.28349 0.88526
 C624 C 0.48658 0.30795 0.88475
 H625 H 0.49353 0.36363 0.89108
 H626 H 0.43116 0.38140 0.92906
 H627 H 0.39868 0.34537 0.94031
 H628 H 0.41239 0.27176 0.92411
 H629 H 0.45471 0.25987 0.89651
 H630 H 0.50255 0.31749 0.87880
 C631 C 0.95001 0.44751 0.32577
 C632 C 0.94192 0.43529 0.30694
 C633 C 0.92079 0.44255 0.29703
 C634 C 0.90747 0.46195 0.30577
 C635 C 0.91530 0.47395 0.32439
 C636 C 0.93683 0.46675 0.33440
 C637 C 0.96868 0.44311 0.33994
 N638 N 0.96717 0.45921 0.35692
 C639 C 0.94779 0.47379 0.35359
 C640 C 0.89743 0.49015 0.33046
 N641 N 0.87912 0.48815 0.31587
 C642 C 0.88517 0.47104 0.30073
 C643 C 0.91590 0.42617 0.28056
 N644 N 0.93354 0.40908 0.28020
 C645 C 0.94960 0.41453 0.29621
 H646 H 0.98184 0.42869 0.33828
 H647 H 0.94153 0.48783 0.36478
 H648 H 0.89737 0.50173 0.34486
 H649 H 0.87363 0.46486 0.28757
 H650 H 0.90010 0.42620 0.27025
 H651 H 0.96507 0.40354 0.30043
 C652 C 0.29500 0.95599 0.42008
 C653 C 0.30637 0.93559 0.42967
 C654 C 0.32943 0.93831 0.43802
 C655 C 0.34135 0.96065 0.43726
 C656 C 0.33012 0.98061 0.42854
 C657 C 0.30665 0.97844 0.42055
 C658 C 0.27403 0.95941 0.40812
 N659 N 0.27253 0.98343 0.40262
 C660 C 0.29232 0.99504 0.41044
 C661 C 0.34694 0.99912 0.42755
 N662 N 0.36810 0.99059 0.43558
 C663 C 0.36465 0.96721 0.44201
 C664 C 0.33658 0.91653 0.44629
 N665 N 0.31837 0.90026 0.44399
 C666 C 0.29969 0.91156 0.43377
 H667 H 0.26114 0.94549 0.40349
 H668 H 0.29707 1.01389 0.40735
 H669 H 0.34421 1.01698 0.42052
 H670 H 0.37855 0.95531 0.44824
 H671 H 0.35349 0.91315 0.45450
 H672 H 0.28245 0.90316 0.43014
 O673 O 0.24471 0.44428 0.77052
 O674 O 0.20890 0.45160 0.75179
 O675 O 0.29151 0.40906 0.72520
 O676 O 0.30128 0.41557 0.68894
 O677 O 0.31887 0.46778 0.76091
 O678 O 0.31444 0.51136 0.75915
 O679 O 0.25911 0.48416 0.65302
 O680 O 0.25859 0.44146 0.65752
 O681 O 0.21174 0.51379 0.69804
 O682 O 0.20607 0.51070 0.73866
 O683 O 0.28260 0.54073 0.69185
 O684 O 0.32253 0.52722 0.70652
 O685 O 0.29044 0.50875 0.66290
 O686 O 0.32856 0.50237 0.68298
 O687 O 0.24549 0.54355 0.70814
 O688 O 0.23265 0.53411 0.74661
 O689 O 0.22003 0.48649 0.67085
 O690 O 0.22030 0.44203 0.67760
 O691 O 0.27531 0.46982 0.78058
 O692 O 0.28021 0.51289 0.77486
 O693 O 0.32559 0.44035 0.73345
 O694 O 0.33021 0.44356 0.69423
 O695 O 0.25362 0.41141 0.74012
 O696 O 0.21530 0.42567 0.72324
 Zr697 Zr 0.24313 0.44804 0.73615
 O698 O 0.23065 0.47263 0.71233
 Zr699 Zr 0.29697 0.44423 0.71188
 O700 O 0.28689 0.46849 0.68688
 Zr701 Zr 0.28723 0.48597 0.75080
 O702 O 0.27658 0.51211 0.72744
 Zr703 Zr 0.24940 0.46668 0.68258
 O704 O 0.25989 0.44002 0.70570
 Zr705 Zr 0.23937 0.50848 0.72126
 O706 O 0.24953 0.48412 0.74650
 Zr707 Zr 0.29344 0.50447 0.69708
 O708 O 0.30629 0.48005 0.72109
 O709 O 0.27999 0.45028 0.74198
 O710 O 0.25655 0.50270 0.69115
 C711 C 0.25848 0.45420 0.78493
 C712 C 0.27316 0.39979 0.73542
 C713 C 0.33120 0.45078 0.75153
 C714 C 0.27554 0.50018 0.64881
 C715 C 0.20757 0.50381 0.67931
 C716 C 0.26332 0.55253 0.69703
 H717 H 0.21305 0.47027 0.71050
 H718 H 0.28069 0.52860 0.73273
 H719 H 0.28550 0.43892 0.75348
 H720 H 0.29561 0.46452 0.67305
 H721 H 0.25864 0.42518 0.66451
 H722 H 0.29813 0.42235 0.67419
 H723 H 0.24790 0.54301 0.74937
 H724 H 0.26240 0.51388 0.77642
 H725 H 0.21479 0.44395 0.66224
 H726 H 0.21147 0.41259 0.73400
 H727 H 0.31653 0.53838 0.71811
 H728 H 0.32692 0.51042 0.74737
 H729 H 0.20866 0.46782 0.75888
 H730 H 0.19549 0.49746 0.73328
 H731 H 0.33919 0.45848 0.69834
 H732 H 0.32867 0.48869 0.67239
 O733 O 0.27994 0.02593 0.29905
 O734 O 0.25996 0.06015 0.28598
 O735 O 0.22604 -0.01975 0.32786
 O736 O 0.18992 -0.03507 0.31766
 O737 O 0.27722 -0.04953 0.28233
 O738 O 0.28005 -0.04992 0.24278
 O739 O 0.15870 0.00221 0.24937
 O740 O 0.15755 0.00634 0.28798
 O741 O 0.20946 0.04985 0.22439
 O742 O 0.25261 0.05773 0.23090
 O743 O 0.20918 -0.02411 0.20546
 O744 O 0.22510 -0.06212 0.22261
 O745 O 0.17391 -0.03007 0.23020
 O746 O 0.19601 -0.06718 0.24286
 O747 O 0.22466 0.01415 0.20194
 O748 O 0.26602 0.02900 0.21389
 O749 O 0.17665 0.04219 0.24631
 O750 O 0.17774 0.04536 0.28718
 O751 O 0.29549 -0.00526 0.27857
 O752 O 0.29535 -0.01478 0.23956
 O753 O 0.24486 -0.05468 0.30546
 O754 O 0.20252 -0.06461 0.29524
 O755 O 0.24141 0.01861 0.32422
 O756 O 0.22509 0.05519 0.30570
 Zr757 Zr 0.24320 0.02569 0.29021
 O758 O 0.22010 0.03485 0.26435
 Zr759 Zr 0.21888 -0.02969 0.29511
 O760 O 0.19435 -0.02267 0.26972
 Zr761 Zr 0.26618 -0.02076 0.26171
 O762 O 0.24377 -0.01363 0.23466
 Zr763 Zr 0.18789 0.01482 0.26781
 O764 O 0.20991 0.00753 0.29513
 Zr765 Zr 0.23500 0.02361 0.23411
 O766 O 0.25964 0.01690 0.25976
 Zr767 Zr 0.21049 -0.03162 0.23933
 O768 O 0.23414 -0.04132 0.26500
 O769 O 0.25141 -0.01104 0.29196
 O770 O 0.20230 0.00520 0.23729
 C771 C 0.29743 0.01223 0.29255
 C772 C 0.23470 0.00010 0.33578
 C773 C 0.26643 -0.05959 0.29886
 C774 C 0.15699 -0.01500 0.23516
 C775 C 0.18759 0.05382 0.23081
 C776 C 0.21465 -0.00509 0.19412
 H777 H 0.21701 0.05257 0.26476
 H778 H 0.25191 -0.01880 0.22089
 H779 H 0.26234 -0.01446 0.30431
 H780 H 0.17908 -0.03173 0.27225
 H781 H 0.16321 0.00692 0.30336
 H782 H 0.17476 -0.03236 0.30959
 H783 H 0.26928 0.01366 0.20588
 H784 H 0.29650 0.00305 0.23740
 H785 H 0.16126 0.05028 0.28280
 H786 H 0.23474 0.06068 0.31844
 H787 H 0.23927 -0.05648 0.21391
 H788 H 0.26778 -0.06308 0.24354
 H789 H 0.27015 0.05910 0.27252
 H790 H 0.24561 0.06871 0.24217
 H791 H 0.21148 -0.07464 0.28436
 H792 H 0.18251 -0.06642 0.25365
 O793 O 0.49891 0.71068 0.18577
 O794 O 0.45599 0.70743 0.18749
 O795 O 0.51100 0.78648 0.16942
 O796 O 0.49461 0.82456 0.18581
 O797 O 0.55031 0.75497 0.21926
 O798 O 0.54130 0.74728 0.25859
 O799 O 0.43180 0.81500 0.23760
 O800 O 0.43777 0.81917 0.20001
 O801 O 0.41917 0.74113 0.25016
 O802 O 0.43749 0.70530 0.23884
 O803 O 0.46862 0.77979 0.28738
 O804 O 0.51181 0.79216 0.28140
 O805 O 0.46019 0.81824 0.26429
 O806 O 0.50435 0.82222 0.26375
 O807 O 0.45023 0.74353 0.28025
 O808 O 0.46664 0.70674 0.26559
 O809 O 0.41078 0.77657 0.23251
 O810 O 0.41892 0.78017 0.19201
 O811 O 0.52738 0.71374 0.21249
 O812 O 0.52582 0.71149 0.24989
 O813 O 0.54175 0.78907 0.19958
 O814 O 0.52115 0.82600 0.21074
 O815 O 0.49216 0.75022 0.16273
 O816 O 0.44735 0.74435 0.16965
 Zr817 Zr 0.47554 0.74025 0.19275
 O818 O 0.44755 0.74866 0.21516
 Zr819 Zr 0.50404 0.79261 0.20306
 O820 O 0.47695 0.80315 0.22560
 Zr821 Zr 0.51670 0.74339 0.23241
 O822 O 0.49016 0.75194 0.25632
 Zr823 Zr 0.44397 0.78654 0.21755
 O824 O 0.47048 0.77832 0.19311
 Zr825 Zr 0.45677 0.73742 0.24676
 O826 O 0.48381 0.72634 0.22413
 Zr827 Zr 0.48483 0.78988 0.25708
 O828 O 0.51363 0.78154 0.23492
 O829 O 0.50866 0.75520 0.20117
 O830 O 0.45149 0.77480 0.24925
 C831 C 0.51834 0.70364 0.19528
 C832 C 0.50591 0.76820 0.15710
 C833 C 0.55634 0.77269 0.20645
 C834 C 0.44054 0.82488 0.25495
 C835 C 0.40468 0.75803 0.24422
 C836 C 0.45599 0.76109 0.29312
 H837 H 0.43232 0.74087 0.21036
 H838 H 0.49493 0.74548 0.27079
 H839 H 0.52152 0.75015 0.19075
 H840 H 0.47559 0.82110 0.22531
 H841 H 0.44365 0.81643 0.18479
 H842 H 0.48292 0.81972 0.17441
 H843 H 0.47715 0.69659 0.25603
 H844 H 0.51514 0.71063 0.26303
 H845 H 0.40441 0.79019 0.19514
 H846 H 0.45248 0.73703 0.15545
 H847 H 0.51392 0.77572 0.28769
 H848 H 0.54536 0.76481 0.25960
 H849 H 0.45997 0.70118 0.17257
 H850 H 0.44705 0.69700 0.22723
 H851 H 0.53013 0.82332 0.22451
 H852 H 0.50082 0.83393 0.25189
 O853 O -0.00605 0.76173 0.81933
 O854 O 0.03253 0.76971 0.80743
 O855 O -0.04257 0.77778 0.75569
 O856 O -0.04333 0.76058 0.72246
 O857 O -0.06775 0.71684 0.79656
 O858 O -0.05333 0.67925 0.80506
 O859 O 0.02739 0.70915 0.70993
 O860 O 0.01969 0.75024 0.70928
 O861 O 0.06280 0.69720 0.77136
 O862 O 0.05317 0.70881 0.80988
 O863 O 0.00901 0.65240 0.75140
 O864 O -0.03605 0.65304 0.75414
 O865 O 0.00295 0.67658 0.71723
 O866 O -0.04133 0.67366 0.72709
 O867 O 0.03621 0.66231 0.77772
 O868 O 0.03074 0.68033 0.81566
 O869 O 0.05934 0.71496 0.73781
 O870 O 0.04825 0.76003 0.73716
 O871 O -0.03279 0.73103 0.82660
 O872 O -0.02543 0.68755 0.82593
 O873 O -0.07193 0.73965 0.76563
 O874 O -0.06094 0.72733 0.72716
 O875 O -0.01608 0.78867 0.78227
 O876 O 0.02831 0.78603 0.77769
 Zr877 Zr 0.00496 0.75695 0.78657
 O878 O 0.03137 0.73414 0.77215
 Zr879 Zr -0.03690 0.74039 0.75132
 O880 O -0.01200 0.71809 0.73433
 Zr881 Zr -0.03075 0.70938 0.79778
 O882 O -0.00676 0.68472 0.78255
 Zr883 Zr 0.02391 0.73009 0.73864
 O884 O -0.00150 0.75479 0.75265
 Zr885 Zr 0.02830 0.69882 0.78523
 O886 O 0.00463 0.72250 0.80190
 Zr887 Zr -0.01291 0.68327 0.74846
 O888 O -0.03936 0.70503 0.76432
 O889 O -0.03054 0.74444 0.78479
 O890 O 0.02248 0.69520 0.75163
 C891 C -0.02006 0.74961 0.83230
 C892 C -0.03325 0.79338 0.76885
 C893 C -0.08045 0.72861 0.78270
 C894 C 0.01787 0.68857 0.70487
 C895 C 0.07109 0.70274 0.75228
 C896 C 0.02745 0.64782 0.76326
 H897 H 0.04770 0.74109 0.77430
 H898 H -0.00829 0.66850 0.78944
 H899 H -0.04223 0.75511 0.79257
 H900 H -0.01625 0.71788 0.71858
 H901 H 0.01288 0.76620 0.71361
 H902 H -0.02811 0.76016 0.71379
 H903 H 0.01982 0.66603 0.81524
 H904 H -0.01010 0.69306 0.83258
 H905 H 0.05998 0.75682 0.72506
 H906 H 0.02433 0.79061 0.76242
 H907 H -0.03160 0.64561 0.76833
 H908 H -0.05716 0.67165 0.79075
 H909 H 0.03874 0.75522 0.81514
 H910 H 0.06299 0.72261 0.80424
 H911 H -0.06886 0.71258 0.73329
 H912 H -0.04067 0.68494 0.71443
 O913 O 0.05938 0.03233 -0.00588
 O914 O 0.05345 0.01359 -0.04155
 O915 O -0.01001 0.06133 0.00979
 O916 O -0.04896 0.04678 0.01038
 O917 O 0.02539 0.01793 0.05782
 O918 O 0.03250 -0.02515 0.06143
 O919 O -0.05851 -0.03296 -0.02485
 O920 O -0.05984 0.00860 -0.03240
 O921 O 0.01000 -0.05716 -0.04454
 O922 O 0.05346 -0.03982 -0.03597
 O923 O -0.01817 -0.07532 0.01572
 O924 O -0.01896 -0.05369 0.05283
 O925 O -0.05444 -0.05133 0.00847
 O926 O -0.04961 -0.03495 0.04587
 O927 O 0.01464 -0.07782 -0.00709
 O928 O 0.05363 -0.06283 -0.00958
 O929 O -0.02402 -0.03610 -0.05288
 O930 O -0.02604 0.00834 -0.05765
 O931 O 0.06222 0.01469 0.02794
 O932 O 0.06124 -0.02709 0.03889
 O933 O -0.00764 0.04005 0.04839
 O934 O -0.04828 0.02552 0.04126
 O935 O 0.02308 0.05842 -0.01280
 O936 O 0.01746 0.03709 -0.04833
 Zr937 Zr 0.02586 0.02058 -0.01781
 O938 O 0.01040 -0.01078 -0.03194
 Zr939 Zr -0.01892 0.02505 0.01858
 O940 O -0.03611 -0.00631 0.00619
 Zr941 Zr 0.03035 -0.00642 0.03118
 O942 O 0.01563 -0.03901 0.01883
 Zr943 Zr -0.02730 -0.01060 -0.02722
 O944 O -0.01221 0.02245 -0.01537
 Zr945 Zr 0.02255 -0.04155 -0.01513
 O946 O 0.03992 -0.01049 -0.00222
 Zr947 Zr -0.02222 -0.03761 0.02137
 O948 O -0.00737 -0.00595 0.03597
 O949 O 0.01840 0.02463 0.01559
 O950 O -0.01495 -0.04205 -0.01203
 C951 C 0.07043 0.02816 0.01219
 C952 C 0.00753 0.07070 -0.00160
 C953 C 0.00968 0.03476 0.06134
 C954 C -0.06564 -0.04769 -0.00956
 C955 C -0.00820 -0.05261 -0.05680
 C956 C -0.00257 -0.08736 0.00435
 H957 H 0.01468 -0.01128 -0.04778
 H958 H 0.02237 -0.05302 0.02685
 H959 H 0.02618 0.03917 0.02204
 H960 H -0.05379 -0.00493 0.00838
 H961 H -0.05560 0.02614 -0.03224
 H962 H -0.06118 0.03591 0.00376
 H963 H 0.05590 -0.06348 0.00651
 H964 H 0.07015 -0.02969 0.02487
 H965 H -0.03891 0.00164 -0.06715
 H966 H 0.02864 0.05099 -0.05089
 H967 H -0.00420 -0.06379 0.05274
 H968 H 0.01584 -0.02593 0.06752
 H969 H 0.06224 0.02900 -0.04471
 H970 H 0.04804 -0.03520 -0.05083
 H971 H -0.04436 0.01381 0.05305
 H972 H -0.06200 -0.02360 0.04044
 O973 O 0.01550 0.58208 0.50963
 O974 O -0.02317 0.58612 0.49465
 O975 O 0.01168 0.52529 0.55521
 O976 O -0.00315 0.48684 0.55608
 O977 O 0.06780 0.52594 0.50842
 O978 O 0.07083 0.51464 0.47017
 O979 O -0.05059 0.46436 0.49235
 O980 O -0.05617 0.48173 0.52623
 O981 O -0.04941 0.52323 0.44680
 O982 O -0.02613 0.56049 0.44331
 O983 O 0.00542 0.46916 0.44309
 O984 O 0.04095 0.45996 0.46351
 O985 O -0.01715 0.44892 0.47520
 O986 O 0.02531 0.44473 0.49000
 O987 O -0.01243 0.50317 0.42970
 O988 O 0.00483 0.54646 0.43089
 O989 O -0.06697 0.50188 0.47483
 O990 O -0.06974 0.52014 0.51260
 O991 O 0.04868 0.56674 0.49188
 O992 O 0.05634 0.54668 0.45751
 O993 O 0.04986 0.50441 0.53619
 O994 O 0.02516 0.46760 0.53835
 O995 O -0.00564 0.55992 0.54234
 O996 O -0.04363 0.56477 0.52145
 Zr997 Zr -0.00974 0.55349 0.50834
 O998 O -0.03203 0.53468 0.48611
 Zr999 Zr 0.01326 0.50217 0.52769
 O1000 O -0.00863 0.48121 0.50693
 Zr1001 Zr 0.03990 0.53012 0.48531
 O1002 O 0.01966 0.50981 0.46255
 Zr1003 Zr -0.04023 0.50026 0.49914
 O1004 O -0.01986 0.51994 0.52254
 Zr1005 Zr -0.01324 0.52749 0.45661
 O1006 O 0.00816 0.54917 0.47773
 Zr1007 Zr 0.00942 0.47638 0.47668
 O1008 O 0.03254 0.49531 0.49829
 O1009 O 0.02260 0.53608 0.51523
 O1010 O -0.02289 0.49353 0.46912
 C1011 C 0.03716 0.58384 0.50189
 C1012 C 0.00353 0.54698 0.55773
 C1013 C 0.06826 0.51454 0.52688
 C1014 C -0.03897 0.44725 0.48254
 C1015 C -0.06742 0.51206 0.45583
 C1016 C -0.00410 0.48148 0.42757
 H1017 H -0.04690 0.54416 0.48361
 H1018 H 0.02932 0.50756 0.44893
 H1019 H 0.03294 0.54543 0.52540
 H1020 H -0.01253 0.46557 0.51421
 H1021 H -0.05307 0.49184 0.53940
 H1022 H -0.01711 0.47710 0.55105
 H1023 H 0.01787 0.53590 0.42509
 H1024 H 0.04428 0.55805 0.45149
 H1025 H -0.08466 0.51042 0.51037
 H1026 H -0.04113 0.57970 0.53036
 H1027 H 0.04917 0.47219 0.45408
 H1028 H 0.07233 0.49800 0.47622
 H1029 H -0.01512 0.58818 0.48013
 H1030 H -0.03818 0.56713 0.45382
 H1031 H 0.03782 0.46226 0.52778
 H1032 H 0.01432 0.43831 0.50160
 O1033 O 0.52553 0.06562 0.51511
 O1034 O 0.48540 0.06570 0.50388
 O1035 O 0.53858 -0.00406 0.54210
 O1036 O 0.52910 -0.04499 0.52990
 O1037 O 0.58608 0.02574 0.49795
 O1038 O 0.58963 0.02625 0.45834
 O1039 O 0.47919 -0.05032 0.46326
 O1040 O 0.47545 -0.05081 0.50018
 O1041 O 0.46695 0.02095 0.44158
 O1042 O 0.48487 0.05957 0.44581
 O1043 O 0.53180 -0.01936 0.41988
 O1044 O 0.56909 -0.02890 0.43601
 O1045 O 0.51426 -0.05253 0.44335
 O1046 O 0.55820 -0.05481 0.45790
 O1047 O 0.50298 0.00985 0.41804
 O1048 O 0.51671 0.05436 0.42910
 O1049 O 0.45498 -0.01103 0.46295
 O1050 O 0.45613 -0.01272 0.50499
 O1051 O 0.55806 0.06418 0.49177
 O1052 O 0.56814 0.05676 0.45372
 O1053 O 0.57632 -0.00861 0.51718
 O1054 O 0.55957 -0.04910 0.50953
 O1055 O 0.51295 0.02816 0.54019
 O1056 O 0.47230 0.03269 0.52281
 Zr1057 Zr 0.50636 0.03367 0.50635
 O1058 O 0.48614 0.01930 0.48024
 Zr1059 Zr 0.54020 -0.01601 0.50917
 O1060 O 0.52046 -0.03296 0.48397
 Zr1061 Zr 0.55696 0.02976 0.47646
 O1062 O 0.53913 0.01426 0.44948
 Zr1063 Zr 0.48521 -0.01892 0.48266
 O1064 O 0.50387 -0.00446 0.51020
 Zr1065 Zr 0.50319 0.02619 0.44969
 O1066 O 0.52170 0.04367 0.47559
 Zr1067 Zr 0.53641 -0.02359 0.45371
 O1068 O 0.55766 -0.00851 0.47898
 O1069 O 0.54169 0.02173 0.50690
 O1070 O 0.50090 -0.01140 0.45215
 C1071 C 0.54496 0.07476 0.50657
 C1072 C 0.52637 0.01328 0.55090
 C1073 C 0.59025 0.00950 0.51257
 C1074 C 0.49276 -0.05990 0.44826
 C1075 C 0.45112 0.00560 0.44853
 C1076 C 0.51599 -0.00714 0.40942
 H1077 H 0.46981 0.02650 0.48134
 H1078 H 0.54778 0.01858 0.43569
 H1079 H 0.55056 0.02967 0.51898
 H1080 H 0.51995 -0.05078 0.48628
 H1081 H 0.48224 -0.04894 0.51503
 H1082 H 0.51364 -0.04007 0.53693
 H1083 H 0.52680 0.04690 0.41738
 H1084 H 0.55373 0.06679 0.45078
 H1085 H 0.44187 -0.02184 0.49961
 H1086 H 0.47317 0.04311 0.53612
 H1087 H 0.57557 -0.01255 0.43245
 H1088 H 0.59510 0.00926 0.46032
 H1089 H 0.49129 0.07449 0.49064
 H1090 H 0.47401 0.06140 0.45875
 H1091 H 0.57181 -0.04806 0.49755
 H1092 H 0.54809 -0.06776 0.46466
 O1093 O 0.46652 0.56112 0.04212
 O1094 O 0.42900 0.55424 0.02152
 O1095 O 0.49381 0.49235 0.05533
 O1096 O 0.50107 0.45687 0.03626
 O1097 O 0.54092 0.54402 0.02249
 O1098 O 0.54251 0.56010 -0.01422
 O1099 O 0.46362 0.45575 -0.03727
 O1100 O 0.45587 0.44504 -0.00010
 O1101 O 0.43272 0.52238 -0.04863
 O1102 O 0.43365 0.56339 -0.02542
 O1103 O 0.49862 0.50730 -0.06711
 O1104 O 0.54075 0.51409 -0.04845
 O1105 O 0.50037 0.46804 -0.05063
 O1106 O 0.53984 0.47889 -0.03614
 O1107 O 0.47107 0.53777 -0.06479
 O1108 O 0.46322 0.57339 -0.04493
 O1109 O 0.42876 0.48381 -0.03532
 O1110 O 0.42300 0.47358 0.00426
 O1111 O 0.50299 0.57288 0.02749
 O1112 O 0.51284 0.58387 -0.01058
 O1113 O 0.53528 0.50641 0.03756
 O1114 O 0.53405 0.46722 0.01799
 O1115 O 0.46361 0.52048 0.05739
 O1116 O 0.42595 0.51306 0.03663
 Zr1117 Zr 0.45815 0.52949 0.02425
 O1118 O 0.44520 0.51732 -0.00632
 Zr1119 Zr 0.50485 0.49171 0.02182
 O1120 O 0.49405 0.47820 -0.00893
 Zr1121 Zr 0.51060 0.54801 0.00191
 O1122 O 0.49958 0.53721 -0.02968
 Zr1123 Zr 0.45638 0.48128 -0.01193
 O1124 O 0.46692 0.49235 0.02001
 Zr1125 Zr 0.46170 0.53802 -0.03130
 O1126 O 0.47290 0.55199 -0.00066
 Zr1127 Zr 0.50829 0.50042 -0.03420
 O1128 O 0.52191 0.51194 -0.00352
 O1129 O 0.49555 0.52750 0.02708
 O1130 O 0.47107 0.50206 -0.03725
 C1131 C 0.48549 0.57470 0.04158
 C1132 C 0.47853 0.50562 0.06611
 C1133 C 0.54679 0.52671 0.03561
 C1134 C 0.48196 0.45376 -0.05045
 C1135 C 0.42275 0.50118 -0.04824
 C1136 C 0.48358 0.52220 -0.07571
 H1137 H 0.42736 0.51857 -0.00655
 H1138 H 0.50717 0.54770 -0.04105
 H1139 H 0.50155 0.53305 0.04147
 H1140 H 0.49929 0.46108 -0.01046
 H1141 H 0.45505 0.44612 0.01615
 H1142 H 0.49501 0.44577 0.02476
 H1143 H 0.48020 0.57893 -0.04396
 H1144 H 0.49627 0.59060 -0.00986
 H1145 H 0.41480 0.46043 -0.00403
 H1146 H 0.42127 0.52134 0.05052
 H1147 H 0.53657 0.52732 -0.05874
 H1148 H 0.55152 0.54526 -0.01845
 H1149 H 0.42399 0.55944 0.03651
 H1150 H 0.41833 0.55417 -0.02373
 H1151 H 0.54668 0.47581 0.00926
 H1152 H 0.53685 0.46425 -0.02702
 O1153 O 0.70889 0.22566 0.53808
 O1154 O 0.69709 0.23283 0.50069
 O1155 O 0.76928 0.17741 0.52981
 O1156 O 0.80626 0.17758 0.51427
 O1157 O 0.77244 0.23930 0.57332
 O1158 O 0.78115 0.28147 0.56747
 O1159 O 0.80926 0.23726 0.45459
 O1160 O 0.79360 0.19899 0.45921
 O1161 O 0.74949 0.28569 0.45997
 O1162 O 0.71710 0.28944 0.48360
 O1163 O 0.81133 0.30065 0.49661
 O1164 O 0.83001 0.28684 0.52723
 O1165 O 0.82951 0.26201 0.47821
 O1166 O 0.84225 0.25349 0.51866
 O1167 O 0.77329 0.31205 0.48745
 O1168 O 0.73379 0.30935 0.50956
 O1169 O 0.76905 0.25333 0.44479
 O1170 O 0.75283 0.21081 0.45198
 O1171 O 0.72916 0.25040 0.56179
 O1172 O 0.74628 0.29159 0.55689
 O1173 O 0.79061 0.20543 0.55929
 O1174 O 0.82566 0.20405 0.53124
 O1175 O 0.72978 0.18754 0.52526
 O1176 O 0.71926 0.19945 0.48564
 Zr1177 Zr 0.73230 0.22282 0.51069
 O1178 O 0.74415 0.24452 0.48390
 Zr1179 Zr 0.78861 0.20964 0.52471
 O1180 O 0.80251 0.22862 0.49739
 Zr1181 Zr 0.76203 0.25884 0.54549
 O1182 O 0.77645 0.28044 0.52013
 Zr1183 Zr 0.77705 0.23075 0.47202
 O1184 O 0.76457 0.20787 0.49802
 Zr1185 Zr 0.75224 0.28030 0.49389
 O1186 O 0.73668 0.25978 0.52005
 Zr1187 Zr 0.80812 0.26470 0.50708
 O1188 O 0.79597 0.24531 0.53518
 O1189 O 0.75613 0.22302 0.53667
 O1190 O 0.78445 0.26667 0.48087
 C1191 C 0.71101 0.23698 0.55647
 C1192 C 0.74657 0.17317 0.53202
 C1193 C 0.78269 0.21856 0.57539
 C1194 C 0.82747 0.25041 0.45992
 C1195 C 0.75786 0.27378 0.44344
 C1196 C 0.79601 0.31635 0.49002
 H1197 H 0.73175 0.24451 0.47230
 H1198 H 0.77944 0.29695 0.52601
 H1199 H 0.74965 0.21360 0.54925
 H1200 H 0.81753 0.22057 0.49231
 H1201 H 0.78538 0.18496 0.46633
 H1202 H 0.80632 0.17800 0.49802
 H1203 H 0.74556 0.31821 0.51875
 H1204 H 0.73047 0.29307 0.54957
 H1205 H 0.75925 0.21131 0.43669
 H1206 H 0.70728 0.18807 0.49227
 H1207 H 0.81909 0.29438 0.53826
 H1208 H 0.79818 0.27603 0.56697
 H1209 H 0.68550 0.22016 0.50584
 H1210 H 0.70611 0.27728 0.49043
 H1211 H 0.83024 0.21581 0.54283
 H1212 H 0.84840 0.24064 0.50869
 O1213 O 0.78702 0.76593 -0.04918
 O1214 O 0.79354 0.72431 -0.04987
 O1215 O 0.71125 0.76992 -0.07039
 O1216 O 0.67487 0.76311 -0.05697
 O1217 O 0.74020 0.81165 -0.01306
 O1218 O 0.74543 0.79963 0.02479
 O1219 O 0.68276 0.68811 -0.01002
 O1220 O 0.68106 0.69955 -0.04759
 O1221 O 0.75354 0.67729 0.00558
 O1222 O 0.79166 0.70049 0.00174
 O1223 O 0.71096 0.72435 0.04550
 O1224 O 0.69660 0.76500 0.04236
 O1225 O 0.67774 0.71342 0.01937
 O1226 O 0.67016 0.75999 0.01968
 O1227 O 0.74657 0.70500 0.03879
 O1228 O 0.78660 0.72324 0.02718
 O1229 O 0.72071 0.66993 -0.01566
 O1230 O 0.72109 0.68314 -0.05514
 O1231 O 0.78096 0.79115 -0.01985
 O1232 O 0.77950 0.78259 0.01929
 O1233 O 0.70945 0.80420 -0.03671
 O1234 O 0.67104 0.78023 -0.02697
 O1235 O 0.74966 0.75604 -0.07566
 O1236 O 0.76156 0.71312 -0.07060
 Zr1237 Zr 0.75886 0.73992 -0.04551
 O1238 O 0.74919 0.70922 -0.02653
 Zr1239 Zr 0.70516 0.76598 -0.03630
 O1240 O 0.69319 0.73604 -0.01738
 Zr1241 Zr 0.75088 0.77690 -0.00289
 O1242 O 0.74074 0.74793 0.01794
 Zr1243 Zr 0.71151 0.70447 -0.02729
 O1244 O 0.72126 0.73370 -0.04806
 Zr1245 Zr 0.75687 0.71557 0.00667
 O1246 O 0.76930 0.74523 -0.01267
 Zr1247 Zr 0.70341 0.74152 0.01542
 O1248 O 0.71311 0.77284 -0.00310
 O1249 O 0.74222 0.77200 -0.03579
 O1250 O 0.71991 0.70929 0.00572
 C1251 C 0.79241 0.78461 -0.03736
 C1252 C 0.72980 0.76515 -0.08254
 C1253 C 0.72416 0.81854 -0.02674
 C1254 C 0.67275 0.69411 0.00833
 C1255 C 0.73784 0.66305 -0.00320
 C1256 C 0.72831 0.71032 0.05116
 H1257 H 0.75765 0.69468 -0.03232
 H1258 H 0.74533 0.75183 0.03320
 H1259 H 0.74722 0.78550 -0.04564
 H1260 H 0.67552 0.73390 -0.01882
 H1261 H 0.68491 0.70780 -0.06169
 H1262 H 0.66965 0.74588 -0.05644
 H1263 H 0.78106 0.73467 0.03874
 H1264 H 0.79189 0.77021 0.01575
 H1265 H 0.71142 0.66790 -0.05447
 H1266 H 0.77116 0.71986 -0.08310
 H1267 H 0.71245 0.77074 0.04768
 H1268 H 0.72783 0.80272 0.02584
 H1269 H 0.80179 0.72555 -0.03556
 H1270 H 0.79170 0.69207 -0.01264
 H1271 H 0.67370 0.79104 -0.01418
 H1272 H 0.65804 0.75200 0.01023
 O1273 O 1.00783 0.31429 0.28752
 O1274 O 1.04031 0.32223 0.26460
 O1275 O 0.94748 0.31289 0.24290
 O1276 O 0.93553 0.29159 0.21379
 O1277 O 0.95515 0.25465 0.29148
 O1278 O 0.98062 0.22098 0.29446
 O1279 O 1.00844 0.25098 0.17819
 O1280 O 0.98716 0.28803 0.17826
 O1281 O 1.06452 0.25321 0.21823
 O1282 O 1.07258 0.27042 0.25584
 O1283 O 1.01802 0.19825 0.22582
 O1284 O 0.97814 0.19209 0.24310
 O1285 O 0.99358 0.21664 0.19458
 O1286 O 0.95813 0.20728 0.21964
 O1287 O 1.05153 0.21649 0.23972
 O1288 O 1.06091 0.24095 0.27272
 O1289 O 1.04402 0.27189 0.19082
 O1290 O 1.02110 0.31072 0.19324
 O1291 O 0.99423 0.27960 0.30425
 O1292 O 1.01221 0.23897 0.30365
 O1293 O 0.93317 0.27168 0.26417
 O1294 O 0.92881 0.25610 0.22561
 O1295 O 0.98093 0.33178 0.25633
 O1296 O 1.01952 0.33525 0.23461
 Zr1297 Zr 1.00812 0.30511 0.25402
 O1298 O 1.03003 0.28574 0.23152
 Zr1299 Zr 0.95819 0.27659 0.23793
 O1300 O 0.97786 0.25682 0.21402
 Zr1301 Zr 0.99050 0.25390 0.27871
 O1302 O 1.01087 0.23229 0.25687
 Zr1303 Zr 1.00915 0.27601 0.20432
 O1304 O 0.98760 0.29744 0.22583
 Zr1305 Zr 1.04069 0.25257 0.24537
 O1306 O 1.02155 0.27340 0.26897
 Zr1307 Zr 0.99081 0.22477 0.22844
 O1308 O 0.96909 0.24342 0.25187
 O1309 O 0.97781 0.28612 0.26546
 O1310 O 1.02137 0.24335 0.21747
 C1311 C 1.00153 0.30188 0.30457
 C1312 C 0.95864 0.33154 0.25067
 C1313 C 0.93527 0.26230 0.28343
 C1314 C 1.00139 0.22868 0.17776
 C1315 C 1.06274 0.26140 0.19856
 C1316 C 1.04029 0.19819 0.23154
 H1317 H 1.04403 0.29587 0.22694
 H1318 H 1.01578 0.21730 0.26457
 H1319 H 0.96801 0.29555 0.27617
 H1320 H 0.96752 0.25344 0.20121
 H1321 H 0.97900 0.30298 0.18351
 H1322 H 0.94421 0.28989 0.19958
 H1323 H 1.05227 0.22689 0.27935
 H1324 H 1.02705 0.24907 0.30428
 H1325 H 1.02621 0.30910 0.17762
 H1326 H 1.01709 0.35039 0.24325
 H1327 H 0.98834 0.18877 0.25598
 H1328 H 0.97010 0.21212 0.28409
 H1329 H 1.05044 0.30928 0.27096
 H1330 H 1.07579 0.28429 0.24584
 H1331 H 0.92766 0.24107 0.23454
 H1332 H 0.95100 0.21658 0.20742
 O1333 O 0.80516 0.95202 0.76989
 O1334 O 0.79972 0.95445 0.73120
 O1335 O 0.81881 1.02340 0.79053
 O1336 O 0.80148 1.06069 0.78338
 O1337 O 0.76620 0.98337 0.82559
 O1338 O 0.72581 0.97023 0.81875
 O1339 O 0.73865 1.06252 0.73219
 O1340 O 0.78045 1.06537 0.73151
 O1341 O 0.72636 0.98899 0.70832
 O1342 O 0.74157 0.94843 0.72023
 O1343 O 0.68862 1.01886 0.75608
 O1344 O 0.69409 1.01626 0.79923
 O1345 O 0.71035 1.05613 0.75921
 O1346 O 0.71176 1.04995 0.79912
 O1347 O 0.69582 0.98370 0.73753
 O1348 O 0.71700 0.94379 0.74472
 O1349 O 0.74024 1.02798 0.70627
 O1350 O 0.78628 1.03136 0.70789
 O1351 O 0.77724 0.94589 0.79734
 O1352 O 0.73385 0.94166 0.79719
 O1353 O 0.78535 1.01984 0.82097
 O1354 O 0.77180 1.05860 0.80788
 O1355 O 0.82711 0.99162 0.76764
 O1356 O 0.81730 0.99275 0.72751
 Zr1357 Zr 0.79338 0.98325 0.75369
 O1358 O 0.76654 0.99429 0.73157
 Zr1359 Zr 0.78107 1.02839 0.78789
 O1360 O 0.75376 1.04150 0.76758
 Zr1361 Zr 0.75256 0.97513 0.79403
 O1362 O 0.72385 0.98589 0.77357
 Zr1363 Zr 0.76136 1.03204 0.73471
 O1364 O 0.79047 1.02142 0.75493
 Zr1365 Zr 0.73331 0.97849 0.74074
 O1366 O 0.76064 0.96512 0.76132
 Zr1367 Zr 0.72057 1.02393 0.77469
 O1368 O 0.74740 1.01299 0.79718
 O1369 O 0.78557 0.99106 0.78649
 O1370 O 0.72836 1.01587 0.74224
 C1371 C 0.79656 0.94015 0.78644
 C1372 C 0.83326 1.00750 0.78208
 C1373 C 0.77832 1.00179 0.83275
 C1374 C 0.71967 1.06850 0.74335
 C1375 C 0.72813 1.00979 0.69882
 C1376 C 0.68232 1.00187 0.74267
 H1377 H 0.77127 0.98994 0.71633
 H1378 H 0.70863 0.97768 0.77800
 H1379 H 0.79788 0.98520 0.79686
 H1380 H 0.75299 1.05931 0.76978
 H1381 H 0.79739 1.06206 0.73563
 H1382 H 0.79275 1.07082 0.77267
 H1383 H 0.70479 0.94498 0.75669
 H1384 H 0.73623 0.93294 0.78308
 H1385 H 0.78030 1.04274 0.69656
 H1386 H 0.83257 0.98361 0.72934
 H1387 H 0.68249 1.00431 0.79319
 H1388 H 0.71976 0.98669 0.82241
 H1389 H 0.78668 0.94232 0.73366
 H1390 H 0.75425 0.95368 0.70961
 H1391 H 0.75725 1.05382 0.81651
 H1392 H 0.72302 1.06384 0.79714
 O1393 O 0.77919 0.51836 0.30553
 O1394 O 0.75516 0.55385 0.30770
 O1395 O 0.72390 0.46219 0.30936
 O1396 O 0.69157 0.45073 0.29007
 O1397 O 0.78057 0.45632 0.25912
 O1398 O 0.79259 0.47524 0.22914
 O1399 O 0.66380 0.51846 0.24147
 O1400 O 0.65935 0.50427 0.27781
 O1401 O 0.71496 0.57256 0.23927
 O1402 O 0.75510 0.57866 0.25562
 O1403 O 0.72050 0.51674 0.19640
 O1404 O 0.73757 0.47739 0.19712
 O1405 O 0.68293 0.49798 0.21374
 O1406 O 0.70575 0.45960 0.21212
 O1407 O 0.73820 0.55118 0.20955
 O1408 O 0.77442 0.56043 0.23249
 O1409 O 0.68092 0.55671 0.25514
 O1410 O 0.67720 0.54063 0.29315
 O1411 O 0.79807 0.49780 0.27778
 O1412 O 0.80109 0.51113 0.23842
 O1413 O 0.74766 0.43980 0.27634
 O1414 O 0.70657 0.43694 0.26013
 O1415 O 0.74100 0.49685 0.32277
 O1416 O 0.72336 0.53763 0.32067
 Zr1417 Zr 0.74305 0.52006 0.29526
 O1418 O 0.72231 0.54097 0.27345
 Zr1419 Zr 0.72183 0.46804 0.27526
 O1420 O 0.69946 0.48684 0.25322
 Zr1421 Zr 0.77156 0.49281 0.25364
 O1422 O 0.75155 0.51172 0.23001
 Zr1423 Zr 0.69092 0.52159 0.26533
 O1424 O 0.71041 0.50144 0.28898
 Zr1425 Zr 0.74111 0.54537 0.24348
 O1426 O 0.76324 0.52738 0.26640
 Zr1427 Zr 0.71883 0.49350 0.22389
 O1428 O 0.74058 0.47256 0.24511
 O1429 O 0.75355 0.48621 0.28316
 O1430 O 0.70906 0.52762 0.23563
 C1431 C 0.79790 0.50859 0.29653
 C1432 C 0.73268 0.47511 0.32500
 C1433 C 0.76929 0.43855 0.26845
 C1434 C 0.66430 0.50828 0.22242
 C1435 C 0.69255 0.57361 0.24486
 C1436 C 0.72922 0.53830 0.19402
 H1437 H 0.71815 0.55675 0.28032
 H1438 H 0.76137 0.51349 0.21640
 H1439 H 0.76357 0.47684 0.29351
 H1440 H 0.68454 0.47729 0.25076
 H1441 H 0.66334 0.49824 0.29267
 H1442 H 0.67721 0.46010 0.28569
 H1443 H 0.78069 0.54998 0.22047
 H1444 H 0.80398 0.52621 0.24694
 H1445 H 0.66091 0.54677 0.28947
 H1446 H 0.70813 0.52833 0.32276
 H1447 H 0.74829 0.46487 0.20340
 H1448 H 0.78414 0.47748 0.21506
 H1449 H 0.76553 0.56114 0.29604
 H1450 H 0.74480 0.58385 0.26816
 H1451 H 0.71707 0.43291 0.24735
 H1452 H 0.69156 0.45478 0.22118
 O1453 O 0.53680 0.26186 0.81534
 O1454 O 0.57433 0.26422 0.79438
 O1455 O 0.48817 0.30665 0.78343
 O1456 O 0.47682 0.31246 0.74723
 O1457 O 0.46631 0.23440 0.79777
 O1458 O 0.47884 0.19293 0.78269
 O1459 O 0.52487 0.26769 0.69213
 O1460 O 0.52039 0.30590 0.71013
 O1461 O 0.57748 0.23020 0.72479
 O1462 O 0.58300 0.21865 0.76607
 O1463 O 0.51129 0.19725 0.71150
 O1464 O 0.47293 0.19631 0.72951
 O1465 O 0.50008 0.23446 0.69384
 O1466 O 0.46051 0.23123 0.71416
 O1467 O 0.54881 0.19303 0.72588
 O1468 O 0.56146 0.18799 0.76144
 O1469 O 0.56504 0.26476 0.70774
 O1470 O 0.55919 0.30293 0.72840
 O1471 O 0.50822 0.23177 0.81667
 O1472 O 0.51082 0.19284 0.79959
 O1473 O 0.45593 0.27035 0.78193
 O1474 O 0.45094 0.28099 0.74462
 O1475 O 0.52587 0.30178 0.79742
 O1476 O 0.56422 0.30019 0.77730
 Zr1477 Zr 0.53947 0.27087 0.78166
 O1478 O 0.55411 0.25961 0.75125
 Zr1479 Zr 0.48477 0.27772 0.76022
 O1480 O 0.49701 0.26566 0.72908
 Zr1481 Zr 0.50016 0.22505 0.78345
 O1482 O 0.51396 0.21119 0.75350
 Zr1483 Zr 0.53374 0.27410 0.72535
 O1484 O 0.52107 0.28826 0.75576
 Zr1485 Zr 0.55029 0.22180 0.74862
 O1486 O 0.53744 0.23268 0.78012
 Zr1487 Zr 0.49556 0.22737 0.72747
 O1488 O 0.47988 0.23951 0.75752
 O1489 O 0.50302 0.26249 0.78620
 O1490 O 0.53168 0.23642 0.72238
 C1491 C 0.52261 0.24708 0.82577
 C1492 C 0.50555 0.31278 0.79640
 C1493 C 0.45187 0.25247 0.79501
 C1494 C 0.51241 0.25049 0.68323
 C1495 C 0.57996 0.24730 0.71037
 C1496 C 0.53212 0.18695 0.71249
 H1497 H 0.57120 0.26492 0.75025
 H1498 H 0.51210 0.19327 0.75321
 H1499 H 0.49599 0.26841 0.80022
 H1500 H 0.48755 0.27332 0.71729
 H1501 H 0.51870 0.31832 0.72186
 H1502 H 0.47923 0.31160 0.73111
 H1503 H 0.54743 0.18118 0.76961
 H1504 H 0.52845 0.19428 0.80197
 H1505 H 0.56419 0.30812 0.71339
 H1506 H 0.56801 0.30719 0.79192
 H1507 H 0.46123 0.19930 0.74163
 H1508 H 0.46239 0.19750 0.77807
 H1509 H 0.57475 0.24698 0.79909
 H1510 H 0.59314 0.23300 0.76241
 H1511 H 0.44498 0.26422 0.74209
 H1512 H 0.45966 0.24721 0.70674
 O1513 O 0.26211 0.78254 0.45531
 O1514 O 0.22143 0.79336 0.46437
 O1515 O 0.30419 0.81980 0.50258
 O1516 O 0.30203 0.82444 0.54056
 O1517 O 0.31733 0.74605 0.49172
 O1518 O 0.29634 0.70821 0.50311
 O1519 O 0.23005 0.78971 0.57607
 O1520 O 0.24745 0.82647 0.56117
 O1521 O 0.18829 0.75766 0.53071
 O1522 O 0.19303 0.75025 0.48916
 O1523 O 0.23974 0.71524 0.55838
 O1524 O 0.28630 0.71334 0.55383
 O1525 O 0.24873 0.75323 0.58091
 O1526 O 0.28933 0.74152 0.57579
 O1527 O 0.20896 0.71952 0.53422
 O1528 O 0.21036 0.71774 0.49331
 O1529 O 0.19871 0.79121 0.55045
 O1530 O 0.21655 0.82855 0.53302
 O1531 O 0.28074 0.74636 0.46200
 O1532 O 0.27129 0.70961 0.47860
 O1533 O 0.32695 0.78092 0.50997
 O1534 O 0.32055 0.78871 0.54868
 O1535 O 0.27425 0.82180 0.47724
 O1536 O 0.23100 0.82709 0.48510
 Zr1537 Zr 0.25025 0.79383 0.48700
 O1538 O 0.22354 0.78546 0.51101
 Zr1539 Zr 0.29392 0.79149 0.52411
 O1540 O 0.26928 0.78212 0.54950
 Zr1541 Zr 0.27946 0.74176 0.49614
 O1542 O 0.25341 0.73066 0.51954
 Zr1543 Zr 0.23529 0.79659 0.54223
 O1544 O 0.26057 0.80809 0.51783
 Zr1545 Zr 0.22008 0.74763 0.51339
 O1546 O 0.24527 0.75582 0.48812
 Zr1547 Zr 0.26384 0.74412 0.55028
 O1548 O 0.29129 0.75328 0.52711
 O1549 O 0.28399 0.77903 0.49326
 O1550 O 0.23025 0.75912 0.54436
 C1551 C 0.27317 0.76304 0.44906
 C1552 C 0.29453 0.82869 0.48521
 C1553 C 0.33244 0.76249 0.49806
 C1554 C 0.23580 0.77110 0.58773
 C1555 C 0.18380 0.77439 0.54500
 C1556 C 0.21902 0.70923 0.55058
 H1557 H 0.20804 0.79330 0.50736
 H1558 H 0.25218 0.71270 0.51930
 H1559 H 0.29587 0.78305 0.48151
 H1560 H 0.27500 0.78829 0.56381
 H1561 H 0.25520 0.83803 0.55073
 H1562 H 0.29425 0.82375 0.55528
 H1563 H 0.22057 0.70379 0.49750
 H1564 H 0.25424 0.71110 0.47407
 H1565 H 0.20727 0.83427 0.54608
 H1566 H 0.23412 0.83451 0.47045
 H1567 H 0.27905 0.69991 0.54526
 H1568 H 0.30741 0.71118 0.51550
 H1569 H 0.21759 0.77606 0.46141
 H1570 H 0.18468 0.76600 0.49111
 H1571 H 0.32444 0.77121 0.55010
 H1572 H 0.29701 0.75770 0.57730
 O1573 O 0.31936 0.26357 0.97021
 O1574 O 0.31878 0.22147 0.97280
 O1575 O 0.24361 0.27894 0.95606
 O1576 O 0.20752 0.27174 0.97204
 O1577 O 0.28242 0.32096 1.00250
 O1578 O 0.29023 0.31526 1.04089
 O1579 O 0.20967 0.20852 1.02709
 O1580 O 0.20815 0.21044 0.98910
 O1581 O 0.28452 0.19064 1.03976
 O1582 O 0.32351 0.20810 1.02631
 O1583 O 0.25117 0.24345 1.07461
 O1584 O 0.24301 0.28557 1.07062
 O1585 O 0.21299 0.23737 1.05382
 O1586 O 0.21316 0.28420 1.05031
 O1587 O 0.28543 0.22201 1.06734
 O1588 O 0.32461 0.23550 1.04911
 O1589 O 0.24762 0.18400 1.02471
 O1590 O 0.24457 0.18838 0.98305
 O1591 O 0.32121 0.29184 0.99761
 O1592 O 0.32057 0.29392 1.03694
 O1593 O 0.24584 0.31409 0.98690
 O1594 O 0.20738 0.29514 0.99953
 O1595 O 0.27832 0.25834 0.94837
 O1596 O 0.28225 0.21401 0.95694
 Zr1597 Zr 0.28803 0.24334 0.97902
 O1598 O 0.27816 0.21697 1.00286
 Zr1599 Zr 0.23937 0.27649 0.99039
 O1600 O 0.22710 0.25124 1.01410
 Zr1601 Zr 0.29009 0.28706 1.01720
 O1602 O 0.28011 0.26267 1.04250
 Zr1603 Zr 0.24028 0.21625 1.00695
 O1604 O 0.24995 0.24102 0.98138
 Zr1605 Zr 0.29141 0.22752 1.03363
 O1606 O 0.30360 0.25231 1.00950
 Zr1607 Zr 0.24226 0.26004 1.04461
 O1608 O 0.25230 0.28715 1.02138
 O1609 O 0.27668 0.27846 0.98643
 O1610 O 0.25401 0.22516 1.03752
 C1611 C 0.32985 0.28114 0.98046
 C1612 C 0.26011 0.27130 0.94272
 C1613 C 0.26367 0.32798 0.99201
 C1614 C 0.20272 0.21865 1.04520
 C1615 C 0.26574 0.17747 1.03640
 C1616 C 0.26801 0.22864 1.08002
 H1617 H 0.28427 0.20077 0.99844
 H1618 H 0.28705 0.26794 1.05664
 H1619 H 0.28229 0.29016 0.97507
 H1620 H 0.20922 0.25147 1.01455
 H1621 H 0.21146 0.21612 0.97390
 H1622 H 0.20033 0.25608 0.97680
 H1623 H 0.32137 0.24719 1.06116
 H1624 H 0.33111 0.27948 1.03554
 H1625 H 0.23443 0.17437 0.98780
 H1626 H 0.29093 0.21756 0.94292
 H1627 H 0.25870 0.29418 1.06954
 H1628 H 0.27328 0.32070 1.04270
 H1629 H 0.32919 0.22294 0.98585
 H1630 H 0.31968 0.19565 1.01510
 H1631 H 0.21149 0.30585 1.01206
 H1632 H 0.19911 0.27792 1.04212
 C1633 C 0.28483 0.34578 0.76407
 C1634 C 0.26175 0.34024 0.75732
 C1635 C 0.25519 0.35900 0.74411
 C1636 C 0.27473 0.37466 0.74368
 O1637 O 0.29281 0.36677 0.75593
 H1638 H 0.25047 0.32518 0.76271
 H1639 H 0.23765 0.36180 0.73686
 C1640 C 0.29450 -0.10846 0.32483
 C1641 C 0.28876 -0.09480 0.34327
 C1642 C 0.27917 -0.07395 0.33544
 C1643 C 0.27980 -0.07627 0.31289
 O1644 O 0.28936 -0.09711 0.30622
 H1645 H 0.29037 -0.09973 0.36041
 H1646 H 0.27136 -0.05927 0.34503
 C1647 C 0.81827 0.88314 0.80262
 C1648 C 0.83918 0.89178 0.79260
 C1649 C 0.83401 0.91489 0.78646
 C1650 C 0.81037 0.91869 0.79308
 O1651 O 0.80079 0.89957 0.80324
 H1652 H 0.85593 0.88224 0.78943
 H1653 H 0.84573 0.92720 0.77734
 C1654 C 0.41778 0.87789 0.28016
 C1655 C 0.39702 0.87055 0.26948
 C1656 C 0.40292 0.84945 0.25923
 C1657 C 0.42673 0.84526 0.26437
 O1658 O 0.43590 0.86241 0.27725
 H1659 H 0.37967 0.87948 0.26883
 H1660 H 0.39132 0.83853 0.24890
 C1661 C -0.05347 0.85316 0.77876
 C1662 C -0.06561 0.84926 0.75935
 C1663 C -0.05927 0.82636 0.75293
 C1664 C -0.04363 0.81805 0.76875
 O1665 O -0.04004 0.83428 0.78447
 H1666 H -0.07791 0.86131 0.75103
 H1667 H -0.06552 0.81672 0.73854
 C1668 C -0.01836 -0.14748 -0.00716
 C1669 C 0.00587 -0.15130 -0.00332
 C1670 C 0.01463 -0.12935 0.00335
 C1671 C -0.00491 -0.11388 0.00331
 O1672 O -0.02501 -0.12480 -0.00310
 H1673 H 0.01620 -0.16765 -0.00641
 H1674 H 0.03332 -0.12472 0.00648
 C1675 C -0.05740 0.38844 0.46884
 C1676 C -0.07592 0.39328 0.48371
 C1677 C -0.07183 0.41654 0.49059
 C1678 C -0.05110 0.42387 0.47959
 O1679 O -0.04234 0.40694 0.46637
 H1680 H -0.09075 0.38158 0.48877
 H1681 H -0.08244 0.42681 0.50241
 C1682 C 0.46653 -0.11071 0.42152
 C1683 C 0.47846 -0.10006 0.40379
 C1684 C 0.48922 -0.07988 0.41189
 C1685 C 0.48309 -0.07920 0.43389
 O1686 O 0.46906 -0.09786 0.43997
 H1687 H 0.47974 -0.10625 0.38695
 H1688 H 0.50047 -0.06712 0.40281
 C1689 C 0.47506 0.40214 -0.08416
 C1690 C 0.49685 0.41043 -0.09270
 C1691 C 0.50171 0.43111 -0.08143
 C1692 C 0.48273 0.43394 -0.06670
 O1693 O 0.46629 0.41646 -0.06841
 H1694 H 0.50817 0.40232 -0.10531
 H1695 H 0.51755 0.44259 -0.08341
 C1696 C 0.81057 0.37716 0.47672
 C1697 C 0.83135 0.37128 0.48780
 C1698 C 0.82833 0.34779 0.49393
 C1699 C 0.80589 0.34095 0.48630
 O1700 O 0.79491 0.35879 0.47575
 H1701 H 0.84712 0.38247 0.49072
 H1702 H 0.84105 0.33686 0.50296
 C1703 C 0.73997 0.87792 -0.04124
 C1704 C 0.71781 0.87741 -0.05156
 C1705 C 0.70794 0.85534 -0.04626
 C1706 C 0.72468 0.84424 -0.03304
 O1707 O 0.74404 0.85793 -0.02987
 H1708 H 0.71012 0.89087 -0.06235
 H1709 H 0.69116 0.84775 -0.05222
 C1710 C 0.76195 0.29680 0.38951
 C1711 C 0.74277 0.31078 0.39670
 C1712 C 0.73818 0.30321 0.41766
 C1713 C 0.75476 0.28508 0.42168
 O1714 O 0.76925 0.28110 0.40458
 H1715 H 0.73365 0.32519 0.38804
 H1716 H 0.72476 0.31051 0.42894
 C1717 C 0.74064 0.77439 -0.13821
 C1718 C 0.72791 0.75278 -0.13956
 C1719 C 0.71919 0.74870 -0.11889
 C1720 C 0.72770 0.76772 -0.10635
 O1721 O 0.74076 0.78344 -0.11802
 H1722 H 0.72626 0.74087 -0.15365
 H1723 H 0.70996 0.73245 -0.11311
 C1724 C 0.26253 0.43921 0.84095
 C1725 C 0.24090 0.42750 0.83684
 C1726 C 0.23626 0.43209 0.81531
 C1727 C 0.25531 0.44631 0.80790
 O1728 O 0.27133 0.45071 0.82344
 H1729 H 0.23002 0.41656 0.84797
 H1730 H 0.22102 0.42551 0.80598
 C1731 C 0.25640 -0.00577 0.38907
 C1732 C 0.25219 0.01902 0.38923
 C1733 C 0.24077 0.02379 0.37014
 C1734 C 0.23897 0.00171 0.35951
 O1735 O 0.24808 -0.01647 0.37112
 H1736 H 0.25823 0.03229 0.40115
 H1737 H 0.23633 0.04159 0.36376
 C1738 C -0.02198 -0.07810 -0.10813
 C1739 C -0.00640 -0.09606 -0.10114
 C1740 C 0.00085 -0.08882 -0.08083
 C1741 C -0.01098 -0.06719 -0.07685
 O1742 O -0.02485 -0.06059 -0.09338
 H1743 H -0.00066 -0.11231 -0.10976
 H1744 H 0.01326 -0.09817 -0.07015
 C1745 C -0.01860 0.45988 0.37500
 C1746 C -0.00040 0.44347 0.37936
 C1747 C 0.00774 0.44974 0.39966
 C1748 C -0.00583 0.46961 0.40600
 O1749 O -0.02184 0.47585 0.39109
 H1750 H 0.00579 0.42837 0.36940
 H1751 H 0.02169 0.44072 0.40889
 C1752 C 0.49218 -0.02649 0.35932
 C1753 C 0.51478 -0.03662 0.35676
 C1754 C 0.52744 -0.02887 0.37452
 C1755 C 0.51163 -0.01458 0.38658
 O1756 O 0.49016 -0.01303 0.37733
 H1757 H 0.52093 -0.04898 0.34404
 H1758 H 0.54556 -0.03421 0.37890
 C1759 C 0.46348 0.49800 -0.12476
 C1760 C 0.45373 0.52094 -0.12725
 C1761 C 0.46288 0.53436 -0.11041
 C1762 C 0.47750 0.51869 -0.09890
 O1763 O 0.47816 0.49673 -0.10782
 H1764 H 0.44034 0.52682 -0.13889
 H1765 H 0.45753 0.55260 -0.10574
 C1766 C 0.43926 0.76806 0.34868
 C1767 C 0.42925 0.74529 0.34541
 C1768 C 0.43440 0.73972 0.32411
 C1769 C 0.44719 0.75944 0.31596
 O1770 O 0.45017 0.77678 0.33083
 H1771 H 0.41921 0.73411 0.35700
 H1772 H 0.42931 0.72328 0.31547
 C1773 C -0.02645 0.76631 0.88804
 C1774 C -0.00148 0.76680 0.88619
 C1775 C 0.00349 0.76051 0.86514
 C1776 C -0.01857 0.75625 0.85561
 O1777 O -0.03702 0.75957 0.86945
 H1778 H 0.01172 0.77174 0.89838
 H1779 H 0.02121 0.75924 0.85747
 C1780 C 0.34835 0.76510 0.27005
 C1781 C 0.34735 0.74019 0.26718
 C1782 C 0.36779 0.73445 0.25568
 C1783 C 0.37965 0.75627 0.25225
 O1784 O 0.36791 0.77498 0.26093
 H1785 H 0.33412 0.72758 0.27392
 H1786 H 0.37405 0.71640 0.25139
 C1787 C -0.14158 0.74237 0.79154
 C1788 C -0.14231 0.71867 0.79909
 C1789 C -0.11939 0.71025 0.79624
 C1790 C -0.10655 0.72928 0.78695
 O1791 O -0.11991 0.74885 0.78405
 H1792 H -0.15729 0.70907 0.80677
 H1793 H -0.11263 0.69254 0.80087
 C1794 C 0.88070 0.26479 0.43151
 C1795 C 0.87178 0.24919 0.41574
 C1796 C 0.85008 0.24120 0.42423
 C1797 C 0.84774 0.25264 0.44439
 O1798 O 0.86623 0.26685 0.44874
 H1799 H 0.87974 0.24465 0.39993
 H1800 H 0.83744 0.22880 0.41660
 C1801 C 0.84796 0.81165 -0.05126
 C1802 C 0.83612 0.83239 -0.04443
 C1803 C 0.81313 0.82504 -0.03980
 C1804 C 0.81268 0.80036 -0.04411
 O1805 O 0.83384 0.79210 -0.05115
 H1806 H 0.84374 0.85034 -0.04189
 H1807 H 0.79872 0.83604 -0.03291
 C1808 C -0.12346 -0.07089 -0.02129
 C1809 C -0.11694 -0.08828 -0.00611
 C1810 C -0.09406 -0.08210 -0.00023
 C1811 C -0.08824 -0.06155 -0.01231
 O1812 O -0.10603 -0.05473 -0.02522
 H1813 H -0.12760 -0.10330 0.00029
 H1814 H -0.08301 -0.09123 0.01176
 C1815 C -0.12495 0.49906 0.43485
 C1816 C -0.11830 0.51607 0.41914
 C1817 C -0.09553 0.52338 0.42484
 C1818 C -0.09020 0.51048 0.44364
 O1819 O -0.10800 0.49573 0.44969
 H1820 H -0.12844 0.52209 0.40507
 H1821 H -0.08415 0.53649 0.41632
 C1822 C 0.38980 0.00216 0.43557
 C1823 C 0.39440 0.02458 0.42607
 C1824 C 0.41848 0.02846 0.42903
 C1825 C 0.42657 0.00827 0.44023
 O1826 O 0.40923 -0.00772 0.44421
 H1827 H 0.38196 0.03652 0.41781
 H1828 H 0.42883 0.04434 0.42404
 C1829 C 0.37461 0.47972 -0.08028
 C1830 C 0.38250 0.49807 -0.09424
 C1831 C 0.40127 0.50890 -0.08369
 C1832 C 0.40366 0.49625 -0.06427
 O1833 O 0.38755 0.47847 -0.06212
 H1834 H 0.37538 0.50327 -0.11003
 H1835 H 0.41220 0.52399 -0.08960
 C1836 C 0.37853 0.43227 0.78523
 C1837 C 0.38444 0.41863 0.76693
 C1838 C 0.36787 0.42469 0.75177
 C1839 C 0.35302 0.44152 0.76196
 O1840 O 0.35952 0.44639 0.78238
 H1841 H 0.39898 0.40566 0.76497
 H1842 H 0.36639 0.41725 0.73535
 C1843 C 0.35565 0.00473 0.31272
 C1844 C 0.35072 0.02576 0.32433
 C1845 C 0.32802 0.03242 0.31781
 C1846 C 0.32119 0.01497 0.30269
 O1847 O 0.33790 -0.00171 0.29968
 H1848 H 0.36181 0.03460 0.33653
 H1849 H 0.31746 0.04762 0.32382
 C1850 C 0.15302 0.52654 0.65923
 C1851 C 0.16158 0.51689 0.63969
 C1852 C 0.18364 0.50755 0.64457
 C1853 C 0.18686 0.51233 0.66665
 O1854 O 0.16832 0.52393 0.67560
 H1855 H 0.15273 0.51626 0.62394
 H1856 H 0.19579 0.49803 0.63348
 C1857 C 0.10516 -0.00087 0.20629
 C1858 C 0.11018 -0.02220 0.19514
 C1859 C 0.12964 -0.03184 0.20568
 C1860 C 0.13476 -0.01565 0.22240
 O1861 O 0.11990 0.00300 0.22277
 H1862 H 0.10173 -0.02910 0.18044
 H1863 H 0.13985 -0.04777 0.20085
 C1864 C 0.61304 0.75696 0.18527
 C1865 C 0.61061 0.77826 0.17354
 C1866 C 0.58959 0.78831 0.18126
 C1867 C 0.58091 0.77234 0.19706
 O1868 O 0.59516 0.75336 0.19950
 H1869 H 0.62214 0.78512 0.16043
 H1870 H 0.58088 0.80451 0.17514
 C1871 C 0.12693 0.68246 0.73071
 C1872 C 0.12633 0.66861 0.74957
 C1873 C 0.10575 0.67527 0.76020
 C1874 C 0.09513 0.69262 0.74704
 O1875 O 0.10802 0.69713 0.72897
 H1876 H 0.13939 0.65540 0.75501
 H1877 H 0.09894 0.66789 0.77559
 C1878 C 0.66112 0.21866 0.58837
 C1879 C 0.67035 0.23521 0.60319
 C1880 C 0.69051 0.24457 0.59313
 C1881 C 0.69178 0.23318 0.57291
 O1882 O 0.67404 0.21735 0.57003
 H1883 H 0.66324 0.23992 0.61927
 H1884 H 0.70279 0.25806 0.59970
 C1885 C 0.63141 0.66298 0.04175
 C1886 C 0.63472 0.64453 0.02659
 C1887 C 0.65032 0.65402 0.01121
 C1888 C 0.65515 0.67741 0.01828
 O1889 O 0.64377 0.68282 0.03679
 H1890 H 0.62688 0.62645 0.02671
 H1891 H 0.65773 0.64484 -0.00310
 C1892 C 0.12649 0.05142 0.02875
 C1893 C 0.12510 0.06369 0.00900
 C1894 C 0.10387 0.05633 0.00011
 C1895 C 0.09389 0.04021 0.01510
 O1896 O 0.10760 0.03712 0.03255
 H1897 H 0.13794 0.07640 0.00186
 H1898 H 0.09644 0.06214 -0.01540
 C1899 C 0.12555 0.52178 0.55012
 C1900 C 0.11952 0.50012 0.56029
 C1901 C 0.09704 0.49456 0.55285
 C1902 C 0.09129 0.51306 0.53850
 O1903 O 0.10853 0.52972 0.53686
 H1904 H 0.12996 0.49001 0.57209
 H1905 H 0.08608 0.47891 0.55733
 C1906 C 0.62608 0.03274 0.55328
 C1907 C 0.63071 0.00848 0.55725
 C1908 C 0.62015 -0.00372 0.54041
 C1909 C 0.61006 0.01407 0.52749
 O1910 O 0.61380 0.03626 0.53519
 H1911 H 0.63934 0.00059 0.57141
 H1912 H 0.61807 -0.02324 0.53887
 C1913 C 0.60028 0.54045 0.06421
 C1914 C 0.58828 0.52749 0.08051
 C1915 C 0.56681 0.52094 0.07171
 C1916 C 0.56701 0.53050 0.05077
 O1917 O 0.58733 0.54251 0.04604
 H1918 H 0.59452 0.52272 0.09671
 H1919 H 0.55260 0.51034 0.07958
 C1920 C 0.02162 0.06210 0.11224
 C1921 C 0.00786 0.08060 0.10351
 C1922 C 0.00141 0.07249 0.08329
 C1923 C 0.01189 0.04986 0.08110
 O1924 O 0.02418 0.04343 0.09864
 H1925 H 0.00284 0.09778 0.11091
 H1926 H -0.00946 0.08203 0.07142
 C1927 C 0.02103 0.56546 0.61026
 C1928 C 0.00327 0.58272 0.60759
 C1929 C -0.00616 0.57801 0.58734
 C1930 C 0.00638 0.55807 0.57949
 O1931 O 0.02296 0.55054 0.59332
 H1932 H -0.00160 0.59737 0.61866
 H1933 H -0.02024 0.58803 0.57915
 C1934 C 0.54502 0.02894 0.60397
 C1935 C 0.52094 0.03546 0.60582
 C1936 C 0.51043 0.02799 0.58695
 C1937 C 0.52876 0.01771 0.57463
 O1938 O 0.54988 0.01815 0.58489
 H1939 H 0.51253 0.04615 0.61874
 H1940 H 0.49207 0.03152 0.58192
 C1941 C 0.49105 0.51771 0.12117
 C1942 C 0.48719 0.49291 0.12317
 C1943 C 0.48035 0.48518 0.10288
 C1944 C 0.48017 0.50582 0.09011
 O1945 O 0.48676 0.52562 0.10107
 H1946 H 0.49065 0.48156 0.13731
 H1947 H 0.47719 0.46661 0.09768
 C1948 C 0.26255 0.52802 0.59901
 C1949 C 0.28581 0.53684 0.60089
 C1950 C 0.29475 0.52566 0.61903
 C1951 C 0.27623 0.51095 0.62680
 O1952 O 0.25670 0.51228 0.61460
 H1953 H 0.29452 0.55092 0.59116
 H1954 H 0.31200 0.52919 0.62665
 C1955 C 0.19985 0.00773 0.13928
 C1956 C 0.18947 -0.01511 0.14049
 C1957 C 0.19472 -0.02342 0.16097
 C1958 C 0.20781 -0.00500 0.17078
 O1959 O 0.21101 0.01399 0.15760
 H1960 H 0.17904 -0.02442 0.12809
 H1961 H 0.18893 -0.04051 0.16821
 C1962 C 0.76777 0.20018 0.62861
 C1963 C 0.78435 0.18198 0.62429
 C1964 C 0.79360 0.18716 0.60388
 C1965 C 0.78215 0.20821 0.59753
 O1966 O 0.76647 0.21607 0.61246
 H1967 H 0.78839 0.16624 0.63424
 H1968 H 0.80619 0.17629 0.59434
 C1969 C 0.71517 0.69090 0.10520
 C1970 C 0.73401 0.67512 0.10096
 C1971 C 0.74175 0.68064 0.08016
 C1972 C 0.72700 0.69925 0.07323
 O1973 O 0.71082 0.70554 0.08841
 H1974 H 0.74130 0.66137 0.11170
 H1975 H 0.75622 0.67193 0.07101
 C1976 C 0.54221 0.74159 0.11823
 C1977 C 0.55459 0.76342 0.11872
 C1978 C 0.54023 0.77851 0.13111
 C1979 C 0.52029 0.76459 0.13709
 O1980 O 0.52144 0.74249 0.12891
 H1981 H 0.57282 0.76709 0.11293
 H1982 H 0.54522 0.79623 0.13743
 C1983 C 0.03679 0.67507 0.65081
 C1984 C 0.02566 0.65306 0.65547
 C1985 C 0.01744 0.65510 0.67658
 C1986 C 0.02414 0.67815 0.68325
 O1987 O 0.03601 0.69033 0.66767
 H1988 H 0.02361 0.63743 0.64480
 H1989 H 0.00753 0.64150 0.68595
 C1990 C 0.54258 0.64870 0.17471
 C1991 C 0.56385 0.66174 0.17653
 C1992 C 0.55719 0.68427 0.18350
 C1993 C 0.53233 0.68350 0.18541
 O1994 O 0.52326 0.66186 0.18003
 H1995 H 0.58211 0.65516 0.17416
 H1996 H 0.56909 0.69928 0.18756
 C1997 C 0.05554 0.59844 0.73811
 C1998 C 0.07019 0.59934 0.75633
 C1999 C 0.06044 0.61708 0.76941
 C2000 C 0.04061 0.62544 0.75818
 O2001 O 0.03761 0.61412 0.73926
 H2002 H 0.08664 0.58934 0.75920
 H2003 H 0.06778 0.62414 0.78456
 C2004 C 0.02467 0.13023 0.01181
 C2005 C 0.00184 0.13530 0.00415
 C2006 C -0.00700 0.11375 -0.00351
 C2007 C 0.01110 0.09713 -0.00012
 O2008 O 0.03031 0.10698 0.00936
 H2009 H -0.00795 0.15222 0.00580
 H2010 H -0.02505 0.11020 -0.00943
 C2011 C 0.06127 0.63786 0.52241
 C2012 C 0.07737 0.63531 0.50504
 C2013 C 0.07013 0.61468 0.49443
 C2014 C 0.05008 0.60658 0.50604
 O2015 O 0.04472 0.62053 0.52305
 H2016 H 0.09302 0.64645 0.50114
 H2017 H 0.07871 0.60625 0.48028
 C2018 C 0.56325 0.12852 0.53368
 C2019 C 0.57478 0.13242 0.51377
 C2020 C 0.56839 0.11331 0.50092
 C2021 C 0.55342 0.09897 0.51386
 O2022 O 0.55016 0.10816 0.53393
 H2023 H 0.58723 0.14698 0.50950
 H2024 H 0.57463 0.10972 0.48430
 C2025 C 0.50917 0.61031 0.08329
 C2026 C 0.48592 0.60949 0.09175
 C2027 C 0.47301 0.59670 0.07651
 C2028 C 0.48942 0.59131 0.05991
 O2029 O 0.51129 0.59944 0.06410
 H2030 H 0.47937 0.61683 0.10722
 H2031 H 0.45419 0.59133 0.07764
 C2032 C 0.72109 0.13108 0.56906
 C2033 C 0.74494 0.12900 0.57506
 C2034 C 0.75747 0.14239 0.56009
 C2035 C 0.74043 0.15230 0.54629
 O2036 O 0.71814 0.14527 0.55160
 H2037 H 0.75242 0.11894 0.58865
 H2038 H 0.77672 0.14603 0.56027
 C2039 C 0.72810 0.60383 0.01562
 C2040 C 0.75296 0.60259 0.01335
 C2041 C 0.75993 0.62440 0.00471
 C2042 C 0.73882 0.63718 0.00218
 O2043 O 0.71944 0.62481 0.00874
 H2044 H 0.76472 0.58830 0.01907
 H2045 H 0.77823 0.63079 0.00181
 C2046 C 0.24763 0.61260 0.68255
 C2047 C 0.26980 0.61184 0.67190
 C2048 C 0.27875 0.58930 0.67626
 C2049 C 0.26143 0.57792 0.68922
 O2050 O 0.24245 0.59204 0.69309
 H2051 H 0.27843 0.62591 0.66212
 H2052 H 0.29578 0.58191 0.67046
 C2053 C 0.16588 0.10537 0.20352
 C2054 C 0.14398 0.09701 0.21172
 C2055 C 0.14927 0.07612 0.22257
 C2056 C 0.17394 0.07325 0.22011
 O2057 O 0.18412 0.09095 0.20845
 H2058 H 0.12636 0.10528 0.21033
 H2059 H 0.13674 0.06456 0.23158
 C2060 C 0.70490 1.12812 0.73018
 C2061 C 0.68425 1.12267 0.74225
 C2062 C 0.68664 1.09895 0.74793
 C2063 C 0.70846 1.09183 0.73885
 O2064 O 0.71961 1.10944 0.72799
 H2065 H 0.66933 1.13444 0.74659
 H2066 H 0.67430 1.08828 0.75801
 C2067 C 0.66953 0.62723 0.22209
 C2068 C 0.65056 0.62249 0.23646
 C2069 C 0.65677 0.60165 0.24707
 C2070 C 0.67913 0.59545 0.23855
 O2071 O 0.68692 0.61087 0.22327
 H2072 H 0.63401 0.63267 0.23864
 H2073 H 0.64625 0.59206 0.25946
 C2074 C 0.55342 0.13973 0.67800
 C2075 C 0.53574 0.14937 0.66458
 C2076 C 0.52529 0.16741 0.67632
 C2077 C 0.53733 0.16806 0.69596
 O2078 O 0.55462 0.15131 0.69718
 H2079 H 0.53053 0.14399 0.64821
 H2080 H 0.51086 0.17918 0.67099
 C2081 C 1.06179 0.13998 0.21905
 C2082 C 1.08086 0.14705 0.23202
 C2083 C 1.07560 0.17033 0.23822
 C2084 C 1.05365 0.17542 0.22871
 O2085 O 1.04530 0.15707 0.21698
 H2086 H 1.09675 0.13666 0.23615
 H2087 H 1.08629 0.18208 0.24861
 C2088 C 0.19496 0.65277 0.56498
 C2089 C 0.17387 0.66596 0.56659
 C2090 C 0.18075 0.68950 0.56341
 C2091 C 0.20550 0.68889 0.56026
 O2092 O 0.21424 0.66657 0.56120
 H2093 H 0.15561 0.65915 0.56874
 H2094 H 0.16899 0.70512 0.56207
 C2095 C 0.24968 0.12266 1.06237
 C2096 C 0.27190 0.12550 1.07206
 C2097 C 0.28151 0.14597 1.06267
 C2098 C 0.26439 0.15401 1.04801
 O2099 O 0.24504 0.13987 1.04782
 H2100 H 0.27994 0.11431 1.08460
 H2101 H 0.29857 0.15454 1.06663
 C2102 C 0.21306 0.74989 0.63789
 C2103 C 0.20082 0.77176 0.63803
 C2104 C 0.20902 0.78387 0.61973
 C2105 C 0.22557 0.76842 0.60995
 O2106 O 0.22804 0.74789 0.62098
 H2107 H 0.18693 0.77772 0.64946
 H2108 H 0.20266 0.80115 0.61358
 C2109 C 0.24604 0.20038 1.12722
 C2110 C 0.26665 0.18646 1.12497
 C2111 C 0.27933 0.19700 1.10801
 C2112 C 0.26544 0.21643 1.10132
 O2113 O 0.24544 0.21859 1.11310
 H2114 H 0.27126 0.16996 1.13363
 H2115 H 0.29564 0.19011 1.10027
 C2116 C 0.72180 0.55563 0.13912
 C2117 C 0.73949 0.57236 0.14439
 C2118 C 0.74434 0.56817 0.16589
 C2119 C 0.72945 0.54906 0.17200
 O2120 O 0.71557 0.54141 0.15580
 H2121 H 0.74753 0.58620 0.13394
 H2122 H 0.75732 0.57776 0.17593
 C2123 C 0.69116 1.03130 0.65710
 C2124 C 0.68440 1.00710 0.65605
 C2125 C 0.69887 0.99554 0.67052
 C2126 C 0.71335 1.01350 0.67932
 O2127 O 0.70878 1.03531 0.67115
 H2128 H 0.67041 0.99886 0.64622
 H2129 H 0.69811 0.97647 0.67498
 C2130 C 0.52522 0.22901 0.63044
 C2131 C 0.52354 0.25339 0.62508
 C2132 C 0.51658 0.26500 0.64398
 C2133 C 0.51437 0.24683 0.65943
 O2134 O 0.51973 0.22514 0.65133
 H2135 H 0.52968 0.26197 0.60999
 H2136 H 0.51527 0.28444 0.64664
 C2137 C 1.01325 0.20243 0.12598
 C2138 C 0.99038 0.19271 0.12957
 C2139 C 0.98320 0.20124 0.14959
 C2140 C 1.00182 0.21592 0.15656
 O2141 O 1.02023 0.21668 0.14237
 H2142 H 0.98034 0.18029 0.11930
 H2143 H 0.96634 0.19732 0.15813
 C2144 C 0.63758 0.24098 0.68654
 C2145 C 0.62911 0.25745 0.67144
 C2146 C 0.60572 0.26179 0.67800
 C2147 C 0.60187 0.24744 0.69643
 O2148 O 0.62115 0.23485 0.70154
 H2149 H 0.63880 0.26557 0.65771
 H2150 H 0.59312 0.27419 0.67049
 C2151 C 1.11263 0.23862 0.17010
 C2152 C 1.10779 0.25707 0.15545
 C2153 C 1.08819 0.26880 0.16430
 C2154 C 1.08314 0.25675 0.18375
 O2155 O 1.09782 0.23839 0.18719
 H2156 H 1.11692 0.26099 0.14001
 H2157 H 1.07858 0.28404 0.15736
 C2158 C 0.12969 0.75670 0.57084
 C2159 C 0.13474 0.77597 0.58458
 C2160 C 0.15507 0.78652 0.57571
 C2161 C 0.16081 0.77278 0.55732
 O2162 O 0.14540 0.75470 0.55438
 H2163 H 0.12523 0.78126 0.59947
 H2164 H 0.16524 0.80157 0.58249
 C2165 C 0.14678 0.19722 1.06666
 C2166 C 0.15846 0.20150 1.08623
 C2167 C 0.18113 0.20882 1.08043
 C2168 C 0.18191 0.20844 1.05775
 O2169 O 0.16099 0.20130 1.04919
 H2170 H 0.15108 0.20022 1.10275
 H2171 H 0.19529 0.21461 1.09142
 C2172 C 0.60912 0.51762 0.19563
 C2173 C 0.61581 0.49637 0.18512
 C2174 C 0.63735 0.49021 0.19396
 C2175 C 0.64210 0.50793 0.20940
 O2176 O 0.62505 0.52481 0.21043
 H2177 H 0.60650 0.48687 0.17212
 H2178 H 0.64839 0.47467 0.18965
 C2179 C 0.63275 1.01675 0.70933
 C2180 C 0.62968 0.99181 0.70974
 C2181 C 0.64667 0.98335 0.72376
 C2182 C 0.65896 1.00363 0.73111
 O2183 O 0.65057 1.02410 0.72230
 H2184 H 0.61722 0.98099 0.70020
 H2185 H 0.65060 0.96448 0.72726
 C2186 C 0.85613 0.50004 0.31678
 C2187 C 0.84801 0.51481 0.33368
 C2188 C 0.82477 0.52051 0.32829
 C2189 C 0.82070 0.50881 0.30856
 O2190 O 0.83966 0.49640 0.30161
 H2191 H 0.85755 0.52029 0.34830
 H2192 H 0.81221 0.53153 0.33772
 C2193 C 0.88790 0.98760 0.80416
 C2194 C 0.88717 1.00993 0.81457
 C2195 C 0.86737 1.02135 0.80634
 C2196 C 0.85756 1.00521 0.79147
 O2197 O 0.87004 0.98470 0.79010
 H2198 H 0.89898 1.01668 0.82726
 H2199 H 0.86014 1.03875 0.81149
 C2200 C 0.39504 0.26399 0.81921
 C2201 C 0.40172 0.24517 0.83290
 C2202 C 0.42395 0.23809 0.82546
 C2203 C 0.42923 0.25317 0.80792
 O2204 O 0.41169 0.26892 0.80404
 H2205 H 0.39159 0.23734 0.84649
 H2206 H 0.43508 0.22378 0.83211
 C2207 C 0.87896 0.26711 0.31028
 C2208 C 0.88959 0.25179 0.32525
 C2209 C 0.91222 0.24764 0.31696
 C2210 C 0.91357 0.26065 0.29755
 O2211 O 0.89341 0.27250 0.29345
 H2212 H 0.88211 0.24501 0.34060
 H2213 H 0.92620 0.23673 0.32432
 C2214 C 0.38960 0.77076 0.47383
 C2215 C 0.39063 0.74581 0.47651
 C2216 C 0.36968 0.73945 0.48702
 C2217 C 0.35749 0.76097 0.49011
 O2218 O 0.36945 0.78006 0.48213
 H2219 H 0.40415 0.73354 0.46991
 H2220 H 0.36344 0.72123 0.49093
 C2221 C 0.38372 0.29964 0.95374
 C2222 C 0.38868 0.30830 0.97445
 C2223 C 0.36933 0.30182 0.98701
 C2224 C 0.35385 0.28972 0.97305
 O2225 O 0.36254 0.28827 0.95265
 H2226 H 0.40417 0.31896 0.97947
 H2227 H 0.36649 0.30594 1.00426
 C2228 C 0.74936 0.45412 0.37696
 C2229 C 0.73186 0.43672 0.37291
 C2230 C 0.72249 0.44286 0.35306
 C2231 C 0.73480 0.46362 0.34665
 O2232 O 0.75113 0.47051 0.36110
 H2233 H 0.72707 0.42099 0.38274
 H2234 H 0.70886 0.43300 0.34401
 C2235 C 0.79227 0.99171 0.88794
 C2236 C 0.80491 1.01318 0.88536
 C2237 C 0.80050 1.02023 0.86440
 C2238 C 0.78572 1.00234 0.85578
 O2239 O 0.78058 0.98497 0.87009
 H2240 H 0.81633 1.02226 0.89717
 H2241 H 0.80784 1.03611 0.85612
 C2242 C 0.28684 0.76535 0.39256
 C2243 C 0.28921 0.74056 0.39532
 C2244 C 0.28367 0.73652 0.41684
 C2245 C 0.27819 0.75908 0.42557
 O2246 O 0.28006 0.77670 0.41085
 H2247 H 0.29489 0.72713 0.38335
 H2248 H 0.28406 0.71922 0.42534
 C2249 C 0.26852 0.28805 0.88734
 C2250 C 0.24512 0.29632 0.88985
 C2251 C 0.23863 0.29045 0.91087
 C2252 C 0.25848 0.27897 0.91959
 O2253 O 0.27670 0.27746 0.90532
 H2254 H 0.23424 0.30590 0.87804
 H2255 H 0.22164 0.29452 0.91906
 C2256 C 0.50137 0.26708 0.87621
 C2257 C 0.52573 0.26926 0.88059
 C2258 C 0.53742 0.25891 0.86308
 C2259 C 0.51934 0.25106 0.84938
 O2260 O 0.49753 0.25601 0.85732
 H2261 H 0.53390 0.27986 0.89356
 H2262 H 0.55664 0.25955 0.85954
 C2263 C 0.99239 0.32216 0.35850
 C2264 C 1.00581 0.34193 0.35132
 C2265 C 1.01168 0.33676 0.32996
 C2266 C 1.00151 0.31423 0.32591
 O2267 O 0.98979 0.30536 0.34317
 H2268 H 1.01014 0.35839 0.36023
 H2269 H 1.02171 0.34821 0.31856
 C2270 C 0.48638 0.36044 0.83116
 C2271 C 0.50922 0.35781 0.83954
 C2272 C 0.51945 0.33975 0.82730
 C2273 C 0.50212 0.33280 0.81229
 O2274 O 0.48192 0.34528 0.81468
 H2275 H 0.51743 0.36783 0.85284
 H2276 H 0.53742 0.33238 0.82918
 C2277 C 0.93396 0.38757 0.26676
 C2278 C 0.91532 0.38024 0.25335
 C2279 C 0.92231 0.35823 0.24516
 C2280 C 0.94470 0.35393 0.25405
 O2281 O 0.95184 0.37169 0.26721
 H2282 H 0.89841 0.38938 0.25035
 H2283 H 0.91216 0.34653 0.23428
 C2284 C 0.31894 0.87633 0.45343
 C2285 C 0.34026 0.86471 0.45852
 C2286 C 0.33365 0.84542 0.47114
 C2287 C 0.30883 0.84654 0.47272
 O2288 O 0.29966 0.86519 0.46184
 H2289 H 0.35853 0.87017 0.45421
 H2290 H 0.34549 0.83212 0.47845
 C2291 C 0.27093 0.38387 0.96508
 C2292 C 0.24665 0.38581 0.97015
 C2293 C 0.24127 0.36588 0.98254
 C2294 C 0.26264 0.35322 0.98413
 O2295 O 0.28076 0.36404 0.97345
 H2296 H 0.23410 0.39924 0.96415
 H2297 H 0.22356 0.36033 0.98848
 C2298 C 0.79378 0.38090 0.27996
 C2299 C 0.81039 0.38826 0.26413
 C2300 C 0.80309 0.41068 0.25777
 C2301 C 0.78250 0.41543 0.27002
 O2302 O 0.77670 0.39736 0.28361
 H2303 H 0.82624 0.37877 0.25814
 H2304 H 0.81185 0.42234 0.24571
   
