data_POSCAR
  _audit_creation_date              2014-09-24
  _audit_creation_method            'ToBaCCo'
  _symmetry_space_group_name_H-M    'P1'
  _symmetry_Int_Tables_number       1
  _symmetry_cell_setting            triclinic
  loop_
  _symmetry_equiv_pos_as_xyz
 x,y,z
_cell_length_a 47.9211
_cell_length_b 46.6583
_cell_length_c 32.1262
_cell_angle_alpha 90.283500
_cell_angle_beta 90.022200
_cell_angle_gamma 90.005400
loop_
  _atom_site_label
  _atom_site_type_symbol
  _atom_site_fract_x
  _atom_site_fract_y
  _atom_site_fract_z
Zr1 Zr -0.04921 0.00350 -0.00127
 O2 O -0.08177 -0.01788 -0.03342
 O3 O -0.07158 0.02943 0.04066
 O4 O -0.07149 -0.02474 0.03800
 O5 O -0.03953 0.05583 -0.07541
 O6 O -0.03711 -0.05125 0.06828
 O7 O -0.07276 0.03190 -0.03840
 O8 O -0.03724 0.05279 0.07654
 O9 O -0.02458 0.00088 0.05252
 O10 O -0.02458 0.04052 0.00014
 O11 O -0.02576 -0.03432 -0.00839
 O12 O -0.02696 0.00383 -0.05819
 Zr13 Zr 0.04852 0.00102 -0.00874
 Zr14 Zr 0.00034 -0.03552 0.04381
 Zr15 Zr -0.00104 0.03993 -0.05419
 Zr16 Zr 0.00079 0.03723 0.05223
 O17 O -0.00139 0.03827 -0.12000
 O18 O 0.00081 0.02707 0.11648
 O19 O 0.02531 0.03920 -0.00199
 O20 O 0.02595 0.00070 0.04751
 O21 O 0.02426 -0.03628 -0.01043
 O22 O 0.02365 0.00354 -0.06215
 C23 C -0.06304 0.04787 0.06771
 C24 C -0.06505 0.05086 -0.06510
 C25 C -0.06290 -0.04511 0.06179
 O26 O 0.00402 -0.03457 0.10941
 O27 O 0.03849 -0.05456 0.05998
 O28 O 0.07194 -0.02910 0.02579
 C29 C 0.06403 -0.04946 0.05011
 O30 O -0.03936 -0.04551 -0.09146
 Zr31 Zr -0.00146 -0.03276 -0.06240
 O32 O 0.07090 -0.02537 -0.04988
 O33 O -0.00230 -0.08042 0.03479
 O34 O -0.00493 -0.07792 -0.05709
 O35 O 0.00151 -0.02517 -0.12729
 O36 O 0.03656 -0.05149 -0.08138
 C37 C 0.06237 -0.04589 -0.07354
 O38 O 0.08099 0.02125 0.02513
 O39 O -0.00162 0.08502 -0.04636
 O40 O 0.07093 0.03070 -0.04551
 O41 O 0.03660 0.05842 -0.07357
 O42 O 0.00140 0.08258 0.04814
 O43 O 0.03849 0.05411 0.07721
 C44 C 0.06239 0.05210 -0.06739
 H45 H -0.03550 0.05851 0.00137
 H46 H 0.03861 -0.00027 0.07182
 H47 H 0.03486 0.00462 -0.08798
 H48 H -0.03809 -0.05132 -0.00996
 H49 H -0.00398 0.04481 0.13198
 H50 H 0.00327 -0.05474 0.11886
 H51 H -0.00074 -0.08939 0.06260
 H52 H -0.00064 -0.08636 -0.08473
 H53 H -0.00261 0.09038 0.07627
 H54 H -0.00270 0.09353 -0.07454
 H55 H -0.00064 0.05836 -0.12975
 H56 H 0.00604 -0.04373 -0.14080
 H57 H 0.03430 0.06523 0.10280
 H58 H 0.09891 0.01434 0.01331
 H59 H -0.09967 -0.01080 -0.02173
 H60 H -0.03539 -0.06006 -0.11322
 Zr61 Zr 0.54846 0.50089 0.49089
 O62 O 0.58090 0.52131 0.52459
 O63 O 0.57087 0.47430 0.45009
 O64 O 0.57184 0.47093 0.52577
 O65 O 0.53665 0.55778 0.42509
 O66 O 0.53836 0.44570 0.56025
 O67 O 0.57093 0.53027 0.45372
 O68 O 0.53656 0.44796 0.41890
 O69 O 0.52420 0.46359 0.48971
 O70 O 0.52364 0.50302 0.43740
 O71 O 0.52585 0.50098 0.54710
 O72 O 0.52527 0.53913 0.49700
 Zr73 Zr 0.45073 0.50346 0.49815
 Zr74 Zr 0.50025 0.46474 0.54389
 Zr75 Zr 0.49897 0.53947 0.44474
 Zr76 Zr 0.49852 0.46673 0.43765
 O77 O 0.49828 0.58460 0.45195
 O78 O 0.49514 0.42161 0.44372
 O79 O 0.47304 0.50335 0.44127
 O80 O 0.47418 0.46558 0.49164
 O81 O 0.47532 0.50122 0.55201
 O82 O 0.47535 0.54049 0.49900
 C83 C 0.56235 0.45366 0.42666
 C84 C 0.56244 0.55147 0.43141
 C85 C 0.56390 0.45069 0.55027
 O86 O 0.49753 0.41978 0.53560
 O87 O 0.46278 0.44920 0.56855
 O88 O 0.42843 0.47543 0.53770
 C89 C 0.43701 0.45523 0.56181
 O90 O 0.53838 0.55464 0.57592
 Zr91 Zr 0.50070 0.53756 0.55119
 O92 O 0.42834 0.52965 0.53971
 O93 O 0.50394 0.46619 0.60948
 O94 O 0.50073 0.52789 0.61560
 O95 O 0.50126 0.58287 0.54638
 O96 O 0.46267 0.55326 0.57527
 C97 C 0.43687 0.54825 0.56654
 O98 O 0.41815 0.48191 0.46628
 O99 O 0.49879 0.53743 0.37894
 O100 O 0.42723 0.53155 0.46046
 O101 O 0.46050 0.55497 0.42289
 O102 O 0.50143 0.47389 0.37265
 O103 O 0.46066 0.45366 0.40877
 C104 C 0.43496 0.55011 0.43318
 H105 H 0.53486 0.50391 0.41156
 H106 H 0.46186 0.44857 0.49029
 H107 H 0.46441 0.55846 0.49990
 H108 H 0.53850 0.50017 0.57144
 H109 H 0.49947 0.41296 0.41623
 H110 H 0.49911 0.41101 0.56354
 H111 H 0.50317 0.44610 0.61924
 H112 H 0.49593 0.54575 0.63081
 H113 H 0.50601 0.45526 0.35940
 H114 H 0.49950 0.55746 0.36893
 H115 H 0.49721 0.59291 0.42365
 H116 H 0.49725 0.59088 0.57438
 H117 H 0.46467 0.43896 0.38727
 H118 H 0.40025 0.48906 0.47789
 H119 H 0.59883 0.51433 0.51288
 H120 H 0.53419 0.56598 0.60129
 Zr121 Zr 0.54935 -0.00352 0.50095
 O122 O 0.58190 0.01910 0.47097
 O123 O 0.57183 -0.03117 0.54016
 O124 O 0.57169 0.02333 0.54274
 O125 O 0.53952 -0.05199 0.42076
 O126 O 0.53727 0.04788 0.57647
 O127 O 0.57280 -0.03028 0.46074
 O128 O 0.53758 -0.05633 0.57315
 O129 O 0.52481 -0.00344 0.55497
 O130 O 0.52477 -0.04055 0.49825
 O131 O 0.52573 0.03447 0.49807
 O132 O 0.52689 -0.00120 0.44424
 Zr133 Zr 0.45145 -0.00080 0.49403
 Zr134 Zr 0.49978 0.03322 0.55039
 Zr135 Zr 0.50104 -0.03746 0.44422
 Zr136 Zr 0.49948 -0.03972 0.55065
 O137 O 0.50107 -0.03282 0.37875
 O138 O 0.49951 -0.03256 0.61586
 O139 O 0.47480 -0.03915 0.49646
 O140 O 0.47421 -0.00311 0.55007
 O141 O 0.47568 0.03650 0.49647
 O142 O 0.47623 -0.00086 0.44041
 C143 C 0.56339 -0.05083 0.56515
 C144 C 0.56508 -0.04768 0.43160
 C145 C 0.56309 0.04246 0.56891
 O146 O 0.49622 0.02914 0.61572
 O147 O 0.46167 0.05142 0.56886
 O148 O 0.42815 0.02803 0.53149
 C149 C 0.43611 0.04711 0.55817
 O150 O 0.53903 0.04990 0.41665
 Zr151 Zr 0.50126 0.03542 0.44414
 O152 O 0.42891 0.02711 0.45552
 O153 O 0.50238 0.07843 0.54653
 O154 O 0.50436 0.08023 0.45465
 O155 O 0.49852 0.03064 0.37857
 O156 O 0.46312 0.05469 0.42688
 C157 C 0.43732 0.04854 0.43383
 O158 O 0.41906 -0.02231 0.52601
 O159 O 0.50189 -0.08279 0.44699
 O160 O 0.42900 -0.02910 0.45451
 O161 O 0.46335 -0.05519 0.42307
 O162 O 0.49893 -0.08474 0.54123
 O163 O 0.46192 -0.05784 0.57391
 C164 C 0.43753 -0.04942 0.43023
 H165 H 0.53575 -0.05850 0.49744
 H166 H 0.46158 -0.00326 0.57446
 H167 H 0.46498 -0.00084 0.41456
 H168 H 0.53799 0.05154 0.49833
 H169 H 0.50440 -0.05094 0.62934
 H170 H 0.49701 0.04880 0.62745
 H171 H 0.50082 0.08605 0.57529
 H172 H 0.49998 0.08994 0.42806
 H173 H 0.50314 -0.09390 0.56829
 H174 H 0.50296 -0.08996 0.41794
 H175 H 0.50033 -0.05242 0.36682
 H176 H 0.49379 0.04969 0.36703
 H177 H 0.46625 -0.07026 0.59796
 H178 H 0.40112 -0.01492 0.51495
 H179 H 0.59981 0.01153 0.48189
 H180 H 0.53490 0.06538 0.39659
 Zr181 Zr -0.04864 0.49890 -0.01062
 O182 O -0.08110 0.47734 0.02112
 O183 O -0.07125 0.52647 -0.04941
 O184 O -0.07205 0.52780 0.02662
 O185 O -0.03658 0.44440 -0.08116
 O186 O -0.03859 0.55124 0.06405
 O187 O -0.07090 0.47075 -0.05059
 O188 O -0.03703 0.55387 -0.07759
 O189 O -0.02454 0.53634 -0.00811
 O190 O -0.02372 0.49875 -0.06413
 O191 O -0.02604 0.49669 0.04556
 O192 O -0.02537 0.46051 -0.00781
 Zr193 Zr 0.04925 0.49599 -0.00282
 Zr194 Zr -0.00043 0.53300 0.04588
 Zr195 Zr 0.00107 0.46212 -0.05980
 Zr196 Zr 0.00128 0.53500 -0.06007
 O197 O 0.00182 0.41679 -0.05684
 O198 O 0.00450 0.57979 -0.04980
 O199 O 0.02697 0.49835 -0.05962
 O200 O 0.02578 0.53400 -0.00622
 O201 O 0.02450 0.49628 0.05095
 O202 O 0.02464 0.45901 -0.00562
 C203 C -0.06299 0.54795 -0.07118
 C204 C -0.06252 0.45032 -0.07492
 C205 C -0.06412 0.54694 0.05325
 O206 O 0.00227 0.57818 0.04165
 O207 O 0.03694 0.54780 0.07212
 O208 O 0.07143 0.52294 0.03902
 C209 C 0.06278 0.54227 0.06484
 O210 O -0.03854 0.44210 0.06976
 Zr211 Zr -0.00086 0.46001 0.04656
 O212 O 0.07150 0.46834 0.03662
 O213 O -0.00417 0.52917 0.11122
 O214 O -0.00098 0.46725 0.11176
 O215 O -0.00155 0.41498 0.03718
 O216 O 0.03711 0.44325 0.06939
 C217 C 0.06295 0.44871 0.06156
 O218 O 0.08229 0.51834 -0.03205
 O219 O 0.00141 0.46652 -0.12531
 O220 O 0.07268 0.46935 -0.04317
 O221 O 0.03960 0.44746 -0.08295
 O222 O 0.00006 0.52981 -0.12557
 O223 O 0.03648 0.55393 -0.08897
 C224 C 0.06524 0.45181 -0.07237
 H225 H -0.03481 0.49878 -0.09015
 H226 H 0.03808 0.55105 -0.00606
 H227 H 0.03560 0.44105 -0.00635
 H228 H -0.03873 0.49663 0.06988
 H229 H -0.00016 0.58944 -0.07635
 H230 H 0.00048 0.58595 0.07030
 H231 H -0.00344 0.54888 0.12280
 H232 H 0.00376 0.44884 0.12532
 H233 H -0.00476 0.54878 -0.13732
 H234 H 0.00051 0.44689 -0.13711
 H235 H 0.00303 0.40956 -0.08585
 H236 H 0.00258 0.40582 0.06426
 H237 H 0.04980 0.53827 -0.09519
 H238 H 0.10003 0.51049 -0.02095
 H239 H -0.09899 0.48473 0.00992
 H240 H -0.03428 0.42956 0.09372
 Zr241 Zr 0.04964 0.50307 0.50117
 O242 O 0.08202 0.48002 0.53091
 O243 O 0.07235 0.53096 0.46270
 O244 O 0.07199 0.47656 0.45905
 O245 O 0.03986 0.55063 0.58246
 O246 O 0.03757 0.45254 0.42447
 O247 O 0.07309 0.52932 0.54201
 O248 O 0.03831 0.55673 0.43018
 O249 O 0.02528 0.50371 0.44698
 O250 O 0.02524 0.54019 0.50456
 O251 O 0.02589 0.46516 0.50301
 O252 O 0.02707 0.50024 0.55767
 Zr253 Zr -0.04819 0.50071 0.50732
 Zr254 Zr 0.00010 0.46712 0.45055
 Zr255 Zr 0.00138 0.53661 0.55835
 Zr256 Zr 0.00008 0.54005 0.45198
 O257 O 0.00120 0.53132 0.62371
 O258 O 0.00025 0.53363 0.38661
 O259 O -0.02471 0.53900 0.50598
 O260 O -0.02532 0.50354 0.45150
 O261 O -0.02414 0.46333 0.50422
 O262 O -0.02357 0.50008 0.56112
 C263 C 0.06405 0.55096 0.43819
 C264 C 0.06541 0.54636 0.57159
 C265 C 0.06338 0.45772 0.43246
 O266 O -0.00323 0.47193 0.38530
 O267 O -0.03801 0.44930 0.43139
 O268 O -0.07151 0.47233 0.46920
 C269 C -0.06355 0.45353 0.44212
 O270 O 0.03894 0.44875 0.58410
 Zr271 Zr 0.00130 0.46373 0.55676
 O272 O -0.07096 0.47259 0.54512
 O273 O 0.00245 0.42185 0.45336
 O274 O 0.00417 0.41902 0.54523
 O275 O -0.00153 0.46782 0.62240
 O276 O -0.03697 0.44454 0.57341
 C277 C -0.06271 0.45092 0.56645
 O278 O -0.08042 0.52264 0.47554
 O279 O 0.00245 0.58196 0.55656
 O280 O -0.07062 0.52866 0.54723
 O281 O -0.03628 0.55421 0.57967
 O282 O -0.00027 0.58498 0.46230
 O283 O -0.03737 0.55858 0.42902
 C284 C -0.06209 0.54863 0.57210
 H285 H 0.03630 0.55808 0.50586
 H286 H -0.03789 0.50400 0.42703
 H287 H -0.03489 0.49983 0.58690
 H288 H 0.03807 0.44803 0.50247
 H289 H 0.00524 0.55215 0.37362
 H290 H -0.00249 0.45240 0.37311
 H291 H 0.00094 0.41455 0.42442
 H292 H -0.00032 0.40905 0.57157
 H293 H 0.00399 0.59438 0.43543
 H294 H 0.00349 0.58882 0.58577
 H295 H 0.00053 0.55081 0.63606
 H296 H -0.00635 0.44867 0.63350
 H297 H -0.03298 0.57118 0.40518
 H298 H -0.09841 0.51526 0.48639
 H299 H 0.09999 0.48762 0.52028
 H300 H 0.03469 0.43307 0.60377
 Zr301 Zr 0.45194 0.00072 0.00675
 O302 O 0.41979 0.02267 -0.02518
 O303 O 0.42907 -0.02752 0.04427
 O304 O 0.42876 -0.02760 -0.03162
 O305 O 0.46359 0.05415 0.07927
 O306 O 0.46235 -0.05053 -0.06938
 O307 O 0.42936 0.02862 0.04657
 O308 O 0.46301 -0.05568 0.07246
 O309 O 0.47603 -0.03664 0.00363
 O310 O 0.47638 -0.00001 0.06071
 O311 O 0.47498 0.00366 -0.04892
 O312 O 0.47541 0.03902 0.00572
 Zr313 Zr 0.54977 0.00315 0.00123
 Zr314 Zr 0.50042 -0.03276 -0.04988
 Zr315 Zr 0.50134 0.03654 0.05826
 Zr316 Zr 0.50130 -0.03633 0.05634
 O317 O 0.50244 0.08189 0.05679
 O318 O 0.50434 -0.08102 0.04473
 O319 O 0.52705 0.00019 0.05758
 O320 O 0.52605 -0.03479 0.00276
 O321 O 0.52558 0.00387 -0.05313
 O322 O 0.52533 0.04024 0.00464
 C323 C 0.43728 -0.04929 0.06541
 C324 C 0.43781 0.04859 0.07148
 C325 C 0.43678 -0.04633 -0.05876
 O326 O 0.50273 -0.07802 -0.04721
 O327 O 0.53801 -0.04734 -0.07566
 O328 O 0.57227 -0.02323 -0.04084
 C329 C 0.56379 -0.04210 -0.06747
 O330 O 0.46294 0.05868 -0.07132
 Zr331 Zr 0.50035 0.04019 -0.04812
 O332 O 0.57258 0.03119 -0.03690
 O333 O 0.49733 -0.02781 -0.11513
 O334 O 0.50079 0.03392 -0.11352
 O335 O 0.49985 0.08510 -0.03758
 O336 O 0.53863 0.05705 -0.06947
 C337 C 0.56435 0.05129 -0.06128
 O338 O 0.58207 -0.01995 0.03107
 O339 O 0.50090 0.03106 0.12359
 O340 O 0.57308 0.02929 0.04234
 O341 O 0.53975 0.05051 0.08270
 O342 O 0.49816 -0.03242 0.12197
 O343 O 0.53888 -0.05123 0.08395
 C344 C 0.56532 0.04625 0.07195
 H345 H 0.46497 -0.00032 0.08640
 H346 H 0.53824 -0.05191 0.00224
 H347 H 0.53637 0.05814 0.00612
 H348 H 0.46248 0.00416 -0.07347
 H349 H 0.49978 -0.09104 0.07100
 H350 H 0.50132 -0.08528 -0.07619
 H351 H 0.49812 -0.04733 -0.12738
 H352 H 0.50580 0.05248 -0.12637
 H353 H 0.49335 -0.05162 0.13290
 H354 H 0.50018 0.05051 0.13604
 H355 H 0.50338 0.08866 0.08606
 H356 H 0.50417 0.09457 -0.06437
 H357 H 0.53462 -0.06697 0.10351
 H358 H 0.60007 -0.01232 0.02061
 H359 H 0.40177 0.01525 -0.01450
 H360 H 0.46740 0.07134 -0.09507
 Zr361 Zr 0.45055 0.49672 0.00201
 O362 O 0.41816 0.51820 0.03437
 O363 O 0.42792 0.47081 -0.03967
 O364 O 0.42819 0.52499 -0.03710
 O365 O 0.46041 0.44464 0.07647
 O366 O 0.46249 0.55147 -0.06766
 O367 O 0.42709 0.46844 0.03947
 O368 O 0.46205 0.44726 -0.07569
 O369 O 0.47495 0.49922 -0.05200
 O370 O 0.47507 0.45964 0.00054
 O371 O 0.47413 0.53450 0.00881
 O372 O 0.47304 0.49643 0.05875
 Zr373 Zr 0.54829 0.49901 0.00863
 Zr374 Zr 0.50001 0.53560 -0.04361
 Zr375 Zr 0.49886 0.46026 0.05466
 Zr376 Zr 0.50023 0.46281 -0.05179
 O377 O 0.49892 0.46201 0.12047
 O378 O 0.49997 0.47283 -0.11608
 O379 O 0.52497 0.46086 0.00222
 O380 O 0.52549 0.49929 -0.04743
 O381 O 0.52414 0.53636 0.01043
 O382 O 0.52366 0.49662 0.06228
 C383 C 0.43631 0.45229 -0.06670
 C384 C 0.43485 0.44963 0.06638
 C385 C 0.43673 0.54538 -0.06087
 O386 O 0.50338 0.53450 -0.10925
 O387 O 0.53816 0.55458 -0.06008
 O388 O 0.57165 0.52902 -0.02611
 C389 C 0.56373 0.54940 -0.05036
 O390 O 0.46088 0.54579 0.09199
 Zr391 Zr 0.49864 0.53297 0.06263
 O392 O 0.57092 0.52542 0.04946
 O393 O 0.49755 0.58052 -0.03474
 O394 O 0.49516 0.57813 0.05729
 O395 O 0.50195 0.52548 0.12751
 O396 O 0.53677 0.55171 0.08107
 C397 C 0.56253 0.54604 0.07302
 O398 O 0.58053 0.47862 -0.02549
 O399 O 0.49803 0.41516 0.04702
 O400 O 0.57080 0.46940 0.04534
 O401 O 0.53657 0.44170 0.07370
 O402 O 0.50076 0.41746 -0.04749
 O403 O 0.53776 0.44580 -0.07707
 C404 C 0.56234 0.44803 0.06733
 H405 H 0.46409 0.44169 -0.00051
 H406 H 0.53806 0.50020 -0.07185
 H407 H 0.53500 0.49557 0.08801
 H408 H 0.46185 0.55153 0.01047
 H409 H 0.49506 0.45507 -0.13146
 H410 H 0.50268 0.55465 -0.11875
 H411 H 0.49901 0.58944 -0.06260
 H412 H 0.49959 0.58658 0.08488
 H413 H 0.49659 0.40960 -0.07553
 H414 H 0.49708 0.40672 0.07524
 H415 H 0.49962 0.44192 0.13027
 H416 H 0.50658 0.54406 0.14089
 H417 H 0.53343 0.43462 -0.10254
 H418 H 0.59853 0.48548 -0.01385
 H419 H 0.40020 0.51117 0.02281
 H420 H 0.46497 0.56030 0.11376
 Zr421 Zr 0.04826 -0.00082 0.50868
 O422 O 0.08059 -0.02117 0.47470
 O423 O 0.07081 0.02578 0.54936
 O424 O 0.07151 0.02917 0.47368
 O425 O 0.03669 -0.05795 0.57413
 O426 O 0.03792 0.05438 0.43941
 O427 O 0.07086 -0.03031 0.54549
 O428 O 0.03658 0.05209 0.58073
 O429 O 0.02399 0.03645 0.51019
 O430 O 0.02364 -0.00311 0.56235
 O431 O 0.02545 -0.00083 0.45262
 O432 O 0.02504 -0.03906 0.50256
 Zr433 Zr -0.04950 -0.00347 0.50210
 Zr434 Zr -0.00015 0.03539 0.45617
 Zr435 Zr -0.00107 -0.03957 0.55500
 Zr436 Zr -0.00149 0.03316 0.56243
 O437 O -0.00173 -0.08470 0.54766
 O438 O -0.00511 0.07829 0.55672
 O439 O -0.02700 -0.00347 0.55883
 O440 O -0.02602 0.03440 0.50862
 O441 O -0.02511 -0.00108 0.44806
 O442 O -0.02486 -0.04047 0.50089
 C443 C 0.06236 0.04646 0.57276
 C444 C 0.06244 -0.05162 0.56762
 C445 C 0.06350 0.04938 0.44917
 O446 O -0.00269 0.08034 0.46472
 O447 O -0.03772 0.05109 0.43208
 O448 O -0.07195 0.02464 0.46286
 C449 C -0.06346 0.04499 0.43897
 O450 O 0.03788 -0.05437 0.42337
 Zr451 Zr 0.00029 -0.03741 0.44853
 O452 O -0.07203 -0.02962 0.46060
 O453 O 0.00314 0.03406 0.39053
 O454 O -0.00001 -0.02762 0.38417
 O455 O 0.00101 -0.08273 0.45322
 O456 O -0.03782 -0.05319 0.42477
 C457 C -0.06358 -0.04823 0.43374
 O458 O -0.08198 0.01799 0.53428
 O459 O -0.00104 -0.03760 0.62080
 O460 O -0.07286 -0.03169 0.53979
 O461 O -0.03946 -0.05532 0.57687
 O462 O 0.00184 0.02590 0.62737
 O463 O -0.03927 0.04598 0.59173
 C464 C -0.06504 -0.05043 0.56675
 H465 H 0.03498 -0.00405 0.58808
 H466 H -0.03834 0.05140 0.51016
 H467 H -0.03578 -0.05846 0.49998
 H468 H 0.03800 0.00003 0.42819
 H469 H -0.00068 0.08686 0.58422
 H470 H -0.00130 0.08916 0.43679
 H471 H 0.00235 0.05418 0.38087
 H472 H -0.00486 -0.04545 0.36893
 H473 H 0.00643 0.04454 0.64062
 H474 H -0.00025 -0.05765 0.63074
 H475 H -0.00264 -0.09306 0.57593
 H476 H -0.00316 -0.09072 0.42525
 H477 H -0.03521 0.06060 0.61336
 H478 H -0.09991 0.01083 0.52277
 H479 H 0.09856 -0.01418 0.48629
 H480 H 0.03358 -0.06567 0.39799
 Zr481 Zr 0.75436 0.19913 0.25242
 O482 O 0.73579 0.16522 0.28616
 O483 O 0.77940 0.17657 0.20962
 O484 O 0.72644 0.17468 0.21556
 O485 O 0.80718 0.21194 0.32325
 O486 O 0.69730 0.20840 0.18820
 O487 O 0.78362 0.17656 0.28874
 O488 O 0.79922 0.21222 0.17127
 O489 O 0.74885 0.22351 0.19843
 O490 O 0.78939 0.22569 0.24801
 O491 O 0.71701 0.22192 0.26205
 O492 O 0.75598 0.22277 0.30882
 Zr493 Zr 0.74862 0.29938 0.25835
 Zr494 Zr 0.71283 0.24786 0.20949
 Zr495 Zr 0.78997 0.25062 0.30181
 Zr496 Zr 0.78326 0.25088 0.19572
 O497 O 0.79084 0.25167 0.36764
 O498 O 0.77109 0.24942 0.13229
 O499 O 0.78632 0.27686 0.24921
 O500 O 0.74700 0.27537 0.20268
 O501 O 0.71332 0.27318 0.26322
 O502 O 0.75399 0.27477 0.31201
 C503 C 0.79609 0.18571 0.18125
 C504 C 0.80251 0.18543 0.31427
 C505 C 0.70488 0.18233 0.19435
 O506 O 0.71127 0.25007 0.14379
 O507 O 0.69263 0.28620 0.19340
 O508 O 0.71759 0.32181 0.22501
 C509 C 0.69733 0.31273 0.20207
 O510 O 0.71000 0.20865 0.34609
 Zr511 Zr 0.71968 0.24765 0.31537
 O512 O 0.72336 0.32194 0.30058
 O513 O 0.66959 0.24437 0.22199
 O514 O 0.67573 0.24223 0.31371
 O515 O 0.72939 0.25199 0.37951
 O516 O 0.70064 0.28616 0.33482
 C517 C 0.70462 0.31272 0.32584
 O518 O 0.76600 0.33298 0.22264
 O519 O 0.83355 0.25098 0.29091
 O520 O 0.77792 0.32406 0.29251
 O521 O 0.80761 0.29023 0.31816
 O522 O 0.82745 0.25351 0.19670
 O523 O 0.79712 0.28984 0.16857
 C524 C 0.80015 0.31637 0.31217
 H525 H 0.80722 0.21510 0.24593
 H526 H 0.74474 0.28793 0.17816
 H527 H 0.75559 0.28674 0.33743
 H528 H 0.70103 0.20868 0.26529
 H529 H 0.78798 0.24501 0.11566
 H530 H 0.69134 0.24858 0.13590
 H531 H 0.65977 0.24498 0.19484
 H532 H 0.66847 0.24659 0.34192
 H533 H 0.83424 0.24938 0.16815
 H534 H 0.84284 0.25072 0.31848
 H535 H 0.81071 0.25325 0.37583
 H536 H 0.71167 0.25609 0.39428
 H537 H 0.80726 0.28558 0.14241
 H538 H 0.75898 0.35130 0.23447
 H539 H 0.74305 0.14698 0.27440
 H540 H 0.69659 0.21244 0.36891
 Zr541 Zr 0.74699 0.79981 0.75099
 O542 O 0.76675 0.83447 0.78199
 O543 O 0.72134 0.82135 0.70802
 O544 O 0.77479 0.82241 0.71169
 O545 O 0.69502 0.79039 0.82418
 O546 O 0.80177 0.78697 0.68365
 O547 O 0.71871 0.82420 0.78706
 O548 O 0.70000 0.78483 0.67286
 O549 O 0.75076 0.77347 0.69823
 O550 O 0.71148 0.77374 0.74986
 O551 O 0.78411 0.77654 0.76003
 O552 O 0.74637 0.77810 0.80879
 Zr553 Zr 0.75105 0.69960 0.76251
 Zr554 Zr 0.78654 0.74872 0.70887
 Zr555 Zr 0.71173 0.75074 0.80513
 Zr556 Zr 0.71586 0.74669 0.69883
 O557 O 0.71264 0.75260 0.87092
 O558 O 0.72663 0.74571 0.63485
 O559 O 0.71361 0.72265 0.75396
 O560 O 0.75179 0.72165 0.70540
 O561 O 0.78686 0.72529 0.76397
 O562 O 0.74747 0.72614 0.81493
 C563 C 0.70383 0.81162 0.68100
 C564 C 0.69982 0.81646 0.81324
 C565 C 0.79533 0.81348 0.68914
 O566 O 0.78659 0.74347 0.64344
 O567 O 0.80625 0.70960 0.69516
 O568 O 0.78113 0.67545 0.72933
 C569 C 0.80137 0.68350 0.70569
 O570 O 0.79301 0.79231 0.84348
 Zr571 Zr 0.78237 0.75261 0.81489
 O572 O 0.77671 0.67796 0.80507
 O573 O 0.83006 0.75247 0.71891
 O574 O 0.82626 0.75794 0.81094
 O575 O 0.77439 0.74968 0.87967
 O576 O 0.80212 0.71436 0.83385
 C577 C 0.79696 0.68760 0.82737
 O578 O 0.73247 0.66513 0.72952
 O579 O 0.66791 0.75029 0.79646
 O580 O 0.72180 0.67679 0.79912
 O581 O 0.69399 0.71218 0.82536
 O582 O 0.67168 0.74505 0.70204
 O583 O 0.70064 0.70712 0.67482
 C584 C 0.70046 0.68566 0.82002
 H585 H 0.69376 0.78452 0.74789
 H586 H 0.75333 0.70818 0.68160
 H587 H 0.74627 0.71504 0.84106
 H588 H 0.80039 0.78955 0.76158
 H589 H 0.70945 0.74988 0.61879
 H590 H 0.80634 0.74447 0.63447
 H591 H 0.83926 0.75037 0.69144
 H592 H 0.83415 0.75413 0.83889
 H593 H 0.66433 0.74828 0.67360
 H594 H 0.65926 0.75191 0.82439
 H595 H 0.69298 0.75157 0.88034
 H596 H 0.79244 0.74549 0.89340
 H597 H 0.69010 0.71066 0.64884
 H598 H 0.73937 0.64712 0.74222
 H599 H 0.75960 0.85242 0.76941
 H600 H 0.80660 0.78896 0.86618
 Zr601 Zr 0.25356 0.30173 0.74742
 O602 O 0.23514 0.33567 0.71355
 O603 O 0.27845 0.32425 0.79054
 O604 O 0.22552 0.32610 0.78419
 O605 O 0.30694 0.28900 0.67752
 O606 O 0.19593 0.29242 0.81062
 O607 O 0.28303 0.32436 0.71153
 O608 O 0.29792 0.28855 0.82919
 O609 O 0.24769 0.27729 0.80125
 O610 O 0.28855 0.27515 0.75228
 O611 O 0.21627 0.27895 0.73716
 O612 O 0.25552 0.27813 0.69099
 Zr613 Zr 0.24789 0.20146 0.74116
 Zr614 Zr 0.21172 0.25295 0.78960
 Zr615 Zr 0.28948 0.25029 0.69842
 Zr616 Zr 0.28209 0.24992 0.80442
 O617 O 0.29069 0.24946 0.63260
 O618 O 0.26946 0.25133 0.86763
 O619 O 0.28552 0.22400 0.75091
 O620 O 0.24588 0.22545 0.79685
 O621 O 0.21259 0.22764 0.73584
 O622 O 0.25357 0.22614 0.68764
 C623 C 0.29494 0.31507 0.81916
 C624 C 0.30218 0.31551 0.68644
 C625 C 0.20376 0.31848 0.80496
 O626 O 0.20974 0.25080 0.85527
 O627 O 0.19155 0.21455 0.80548
 O628 O 0.21674 0.17899 0.77416
 C629 C 0.19638 0.18802 0.79692
 O630 O 0.20974 0.29221 0.65297
 Zr631 Zr 0.21925 0.25322 0.68384
 O632 O 0.22286 0.17892 0.69856
 O633 O 0.16857 0.25634 0.77635
 O634 O 0.17530 0.25863 0.68495
 O635 O 0.22934 0.24896 0.61983
 O636 O 0.20034 0.21470 0.66402
 C637 C 0.20428 0.18813 0.67302
 O638 O 0.26510 0.16782 0.77698
 O639 O 0.33299 0.24981 0.70998
 O640 O 0.27741 0.17684 0.70728
 O641 O 0.30719 0.21072 0.68203
 O642 O 0.32628 0.24732 0.80431
 O643 O 0.29578 0.21091 0.83159
 C644 C 0.29972 0.18455 0.68782
 H645 H 0.30638 0.28572 0.75466
 H646 H 0.24349 0.21287 0.82132
 H647 H 0.25531 0.21420 0.66221
 H648 H 0.20032 0.29221 0.73371
 H649 H 0.28623 0.25574 0.88455
 H650 H 0.18975 0.25225 0.86284
 H651 H 0.15856 0.25564 0.80332
 H652 H 0.16818 0.25423 0.65666
 H653 H 0.33282 0.25128 0.83305
 H654 H 0.34245 0.25015 0.68255
 H655 H 0.31061 0.24787 0.62466
 H656 H 0.21172 0.24483 0.60480
 H657 H 0.30554 0.21510 0.85811
 H658 H 0.25816 0.14951 0.76498
 H659 H 0.24232 0.35389 0.72548
 H660 H 0.19640 0.28843 0.63004
 Zr661 Zr 0.24598 0.69955 0.24975
 O662 O 0.26497 0.66470 0.21815
 O663 O 0.22097 0.67825 0.29370
 O664 O 0.27419 0.67673 0.28813
 O665 O 0.19287 0.70942 0.17844
 O666 O 0.30208 0.71193 0.31484
 O667 O 0.21699 0.67540 0.21450
 O668 O 0.20071 0.71496 0.32983
 O669 O 0.25093 0.72590 0.30229
 O670 O 0.21069 0.72590 0.25227
 O671 O 0.28313 0.72248 0.23932
 O672 O 0.24448 0.72123 0.19202
 Zr673 Zr 0.25081 0.79973 0.23807
 Zr674 Zr 0.28673 0.75032 0.29030
 Zr675 Zr 0.21018 0.74892 0.19703
 Zr676 Zr 0.21625 0.75296 0.30306
 O677 O 0.20975 0.74705 0.13124
 O678 O 0.22815 0.75398 0.36661
 O679 O 0.21329 0.77704 0.24804
 O680 O 0.25227 0.77766 0.29510
 O681 O 0.28637 0.77374 0.23513
 O682 O 0.24598 0.77314 0.18589
 C683 C 0.20417 0.68814 0.32156
 C684 C 0.19777 0.68328 0.18891
 C685 C 0.29522 0.68550 0.30978
 O686 O 0.28793 0.75531 0.35575
 O687 O 0.30678 0.78929 0.30393
 O688 O 0.28142 0.82367 0.27068
 C689 C 0.30185 0.81548 0.29392
 O690 O 0.29103 0.70645 0.15631
 Zr691 Zr 0.28058 0.74633 0.18449
 O692 O 0.27623 0.82103 0.19488
 O693 O 0.33004 0.74638 0.27862
 O694 O 0.32457 0.74162 0.18719
 O695 O 0.27110 0.74815 0.12006
 O696 O 0.29923 0.78434 0.16267
 C697 C 0.29505 0.81117 0.17010
 O698 O 0.23290 0.83442 0.27137
 O699 O 0.16657 0.74985 0.20758
 O700 O 0.22136 0.82279 0.20210
 O701 O 0.19263 0.78768 0.17728
 O702 O 0.17204 0.75488 0.30149
 O703 O 0.20171 0.79264 0.32756
 C704 C 0.19959 0.81412 0.18200
 H705 H 0.19295 0.71523 0.25491
 H706 H 0.25429 0.79109 0.31888
 H707 H 0.24443 0.78415 0.15972
 H708 H 0.29929 0.70935 0.23715
 H709 H 0.21124 0.74995 0.38334
 H710 H 0.30782 0.75417 0.36400
 H711 H 0.33971 0.74828 0.30578
 H712 H 0.33199 0.74508 0.15886
 H713 H 0.16518 0.75165 0.33019
 H714 H 0.15737 0.74831 0.18002
 H715 H 0.18993 0.74830 0.12264
 H716 H 0.28882 0.75196 0.10519
 H717 H 0.19154 0.78919 0.35389
 H718 H 0.23983 0.85235 0.25848
 H719 H 0.25785 0.64681 0.23095
 H720 H 0.30453 0.70964 0.13346
 Zr721 Zr 0.24865 0.79957 0.75822
 O722 O 0.26603 0.83316 0.72250
 O723 O 0.22337 0.82217 0.80041
 O724 O 0.21765 0.82199 0.72485
 O725 O 0.30767 0.79042 0.81796
 O726 O 0.19269 0.78638 0.69325
 O727 O 0.27797 0.82425 0.79233
 O728 O 0.20055 0.78642 0.83455
 O729 O 0.21334 0.77338 0.76309
 O730 O 0.25400 0.77499 0.81191
 O731 O 0.24703 0.77554 0.70257
 O732 O 0.28634 0.77703 0.74912
 Zr733 Zr 0.25438 0.69931 0.75237
 Zr734 Zr 0.21285 0.74804 0.70939
 Zr735 Zr 0.28997 0.75081 0.80175
 Zr736 Zr 0.21967 0.74789 0.81527
 O737 O 0.33357 0.75114 0.79093
 O738 O 0.17574 0.74239 0.81360
 O739 O 0.25597 0.72298 0.80875
 O740 O 0.21703 0.72211 0.76197
 O741 O 0.24887 0.72367 0.69836
 O742 O 0.28941 0.72587 0.74795
 C743 C 0.20456 0.81298 0.82557
 C744 C 0.30022 0.81656 0.81193
 C745 C 0.19740 0.81291 0.70191
 O746 O 0.16962 0.74454 0.72192
 O747 O 0.19733 0.70858 0.68808
 O748 O 0.22647 0.67486 0.71546
 C749 C 0.20492 0.68250 0.69422
 O750 O 0.29720 0.79001 0.66860
 Zr751 Zr 0.28329 0.75104 0.69564
 O752 O 0.27945 0.67674 0.70958
 O753 O 0.21128 0.75023 0.64369
 O754 O 0.27108 0.74960 0.63223
 O755 O 0.32748 0.75361 0.69651
 O756 O 0.29923 0.71238 0.67118
 C757 C 0.29612 0.68587 0.68118
 O758 O 0.23580 0.66540 0.78610
 O759 O 0.29078 0.75192 0.86757
 O760 O 0.28364 0.67675 0.78872
 O761 O 0.30719 0.71215 0.82321
 O762 O 0.22936 0.75233 0.87940
 O763 O 0.21001 0.70893 0.84612
 C764 C 0.30254 0.68563 0.81424
 H765 H 0.25560 0.78698 0.83732
 H766 H 0.20105 0.70887 0.76520
 H767 H 0.30724 0.71528 0.74588
 H768 H 0.24478 0.78809 0.67804
 H769 H 0.16846 0.74682 0.84178
 H770 H 0.15979 0.74517 0.69478
 H771 H 0.19134 0.74875 0.63581
 H772 H 0.28795 0.74518 0.61558
 H773 H 0.21164 0.75648 0.89414
 H774 H 0.31065 0.75353 0.87579
 H775 H 0.34283 0.75090 0.81852
 H776 H 0.33422 0.74956 0.66791
 H777 H 0.19661 0.71275 0.86894
 H778 H 0.24306 0.64716 0.77433
 H779 H 0.25902 0.85149 0.73433
 H780 H 0.30719 0.78578 0.64230
 Zr781 Zr 0.25043 0.19965 0.26070
 O782 O 0.23221 0.16500 0.22763
 O783 O 0.27608 0.17828 0.30360
 O784 O 0.28080 0.17556 0.22799
 O785 O 0.19261 0.21197 0.32207
 O786 O 0.30609 0.20980 0.19432
 O787 O 0.22109 0.17673 0.29702
 O788 O 0.29960 0.21493 0.33508
 O789 O 0.28609 0.22553 0.26300
 O790 O 0.24607 0.22629 0.31288
 O791 O 0.25159 0.22162 0.20355
 O792 O 0.21294 0.22246 0.25113
 Zr793 Zr 0.24592 0.29982 0.24870
 Zr794 Zr 0.28617 0.24885 0.20775
 Zr795 Zr 0.21030 0.25063 0.30214
 Zr796 Zr 0.28078 0.25299 0.31366
 O797 O 0.16660 0.24995 0.29234
 O798 O 0.32476 0.25766 0.31039
 O799 O 0.24473 0.27821 0.30653
 O800 O 0.28305 0.27676 0.25871
 O801 O 0.25040 0.27341 0.19614
 O802 O 0.21053 0.27358 0.24683
 C803 C 0.29523 0.18811 0.32787
 C804 C 0.19943 0.18549 0.31727
 C805 C 0.30117 0.18367 0.20465
 O806 O 0.32959 0.25274 0.21866
 O807 O 0.30154 0.28714 0.18283
 O808 O 0.27400 0.32248 0.20990
 C809 C 0.29486 0.31362 0.18797
 O810 O 0.20087 0.20684 0.17154
 Zr811 Zr 0.21561 0.24647 0.19600
 O812 O 0.22056 0.32117 0.20517
 O813 O 0.28688 0.24362 0.14232
 O814 O 0.22714 0.24558 0.13231
 O815 O 0.17142 0.24448 0.19821
 O816 O 0.19974 0.28450 0.16964
 C817 C 0.20335 0.31132 0.17781
 O818 O 0.26528 0.33465 0.27987
 O819 O 0.21040 0.25253 0.36793
 O820 O 0.21732 0.32410 0.28431
 O821 O 0.19330 0.29022 0.32083
 O822 O 0.27180 0.25115 0.37823
 O823 O 0.29144 0.29289 0.34163
 C824 C 0.19824 0.31632 0.31015
 H825 H 0.24466 0.21530 0.33908
 H826 H 0.29927 0.28983 0.26061
 H827 H 0.19279 0.28428 0.24447
 H828 H 0.25343 0.20814 0.17981
 H829 H 0.33235 0.25422 0.33863
 H830 H 0.33905 0.25065 0.19137
 H831 H 0.30672 0.24467 0.13377
 H832 H 0.21016 0.24971 0.11580
 H833 H 0.28964 0.24731 0.39280
 H834 H 0.19065 0.25136 0.37684
 H835 H 0.15763 0.25157 0.32006
 H836 H 0.16433 0.24770 0.16962
 H837 H 0.30506 0.28970 0.36433
 H838 H 0.25812 0.35255 0.26713
 H839 H 0.23912 0.14706 0.24050
 H840 H 0.19065 0.21034 0.14526
 Zr841 Zr 0.74892 0.70036 0.24039
 O842 O 0.76650 0.66656 0.27548
 O843 O 0.72369 0.67803 0.19783
 O844 O 0.71798 0.67752 0.27339
 O845 O 0.80766 0.71031 0.18032
 O846 O 0.69283 0.71282 0.30539
 O847 O 0.77827 0.67611 0.20562
 O848 O 0.70080 0.71397 0.16419
 O849 O 0.71350 0.72646 0.23598
 O850 O 0.75411 0.72547 0.18718
 O851 O 0.74721 0.72394 0.29646
 O852 O 0.78651 0.72301 0.24992
 Zr853 Zr 0.75418 0.80068 0.24803
 Zr854 Zr 0.71292 0.75135 0.29011
 Zr855 Zr 0.78999 0.74970 0.19778
 Zr856 Zr 0.71967 0.75244 0.18428
 O857 O 0.83356 0.74924 0.20877
 O858 O 0.67571 0.75763 0.18615
 O859 O 0.75588 0.77746 0.19126
 O860 O 0.71694 0.77776 0.23802
 O861 O 0.74882 0.77581 0.30159
 O862 O 0.78931 0.77421 0.25200
 C863 C 0.70489 0.68735 0.17274
 C864 C 0.80035 0.68407 0.18581
 C865 C 0.69763 0.68637 0.29632
 O866 O 0.66967 0.75486 0.27764
 O867 O 0.69732 0.79052 0.31235
 O868 O 0.72605 0.82470 0.28528
 C869 C 0.70463 0.81672 0.30659
 O870 O 0.79745 0.70944 0.33020
 Zr871 Zr 0.78335 0.74856 0.30384
 O872 O 0.77913 0.82299 0.29128
 O873 O 0.71137 0.74845 0.35575
 O874 O 0.77116 0.74937 0.36727
 O875 O 0.82755 0.74627 0.30295
 O876 O 0.79909 0.78712 0.32904
 C877 C 0.79584 0.81370 0.31954
 O878 O 0.73551 0.83478 0.21481
 O879 O 0.79078 0.74943 0.13195
 O880 O 0.78344 0.82367 0.21216
 O881 O 0.80719 0.78860 0.17727
 O882 O 0.72934 0.74867 0.12006
 O883 O 0.70979 0.79160 0.15415
 C884 C 0.80247 0.81503 0.18670
 H885 H 0.75573 0.71373 0.16153
 H886 H 0.70089 0.79095 0.23505
 H887 H 0.80711 0.78485 0.25433
 H888 H 0.74501 0.71117 0.32076
 H889 H 0.66841 0.75340 0.15790
 H890 H 0.65985 0.75392 0.30476
 H891 H 0.69143 0.74979 0.36366
 H892 H 0.78802 0.75375 0.38400
 H893 H 0.71163 0.74458 0.10524
 H894 H 0.81065 0.74800 0.12369
 H895 H 0.84286 0.74982 0.18123
 H896 H 0.83428 0.75011 0.33162
 H897 H 0.69630 0.78791 0.13137
 H898 H 0.74268 0.85295 0.22693
 H899 H 0.75955 0.64831 0.26332
 H900 H 0.80747 0.71350 0.35653
 Zr901 Zr 0.75029 0.30072 0.73957
 O902 O 0.73194 0.33548 0.77221
 O903 O 0.77572 0.32191 0.69624
 O904 O 0.78049 0.32522 0.77194
 O905 O 0.69225 0.28781 0.67890
 O906 O 0.80685 0.29138 0.80473
 O907 O 0.72081 0.32327 0.70308
 O908 O 0.79897 0.28515 0.66463
 O909 O 0.78607 0.27504 0.73700
 O910 O 0.74568 0.27372 0.68783
 O911 O 0.75202 0.27916 0.79700
 O912 O 0.71296 0.27784 0.75001
 Zr913 Zr 0.74631 0.20068 0.75288
 Zr914 Zr 0.78673 0.25212 0.79258
 Zr915 Zr 0.71006 0.24934 0.69942
 Zr916 Zr 0.78049 0.24717 0.68685
 O917 O 0.66645 0.25007 0.71000
 O918 O 0.82451 0.24269 0.68950
 O919 O 0.74457 0.22189 0.69480
 O920 O 0.78331 0.22381 0.74209
 O921 O 0.75112 0.22747 0.80499
 O922 O 0.71083 0.22675 0.75503
 C923 C 0.79468 0.31199 0.67174
 C924 C 0.69911 0.31433 0.68307
 C925 C 0.80131 0.31742 0.79461
 O926 O 0.83004 0.24802 0.78099
 O927 O 0.80211 0.21406 0.81820
 O928 O 0.77466 0.17843 0.79172
 C929 C 0.79548 0.18752 0.81357
 O930 O 0.70139 0.29394 0.82936
 Zr931 Zr 0.71620 0.25420 0.80542
 O932 O 0.72146 0.17948 0.79708
 O933 O 0.78802 0.25811 0.85786
 O934 O 0.72822 0.25570 0.86890
 O935 O 0.67198 0.25578 0.80406
 O936 O 0.70093 0.21624 0.83273
 C937 C 0.70457 0.18939 0.82479
 O938 O 0.76563 0.16577 0.72186
 O939 O 0.70964 0.24688 0.63366
 O940 O 0.71750 0.17601 0.71802
 O941 O 0.69298 0.20958 0.68163
 O942 O 0.77107 0.24857 0.62238
 O943 O 0.79107 0.20713 0.65925
 C944 C 0.69813 0.18356 0.69247
 H945 H 0.74408 0.28452 0.66148
 H946 H 0.79955 0.21077 0.74018
 H947 H 0.69316 0.21597 0.75788
 H948 H 0.75396 0.29280 0.82052
 H949 H 0.83188 0.24598 0.66110
 H950 H 0.83972 0.25038 0.80807
 H951 H 0.80792 0.25706 0.86608
 H952 H 0.71138 0.25163 0.88575
 H953 H 0.78879 0.25235 0.60750
 H954 H 0.68981 0.24790 0.62505
 H955 H 0.65725 0.24821 0.68247
 H956 H 0.66520 0.25273 0.83285
 H957 H 0.80453 0.21022 0.63633
 H958 H 0.75865 0.14793 0.73495
 H959 H 0.73873 0.35339 0.75910
 H960 H 0.69142 0.29061 0.85589
 C961 C 0.12533 0.40004 0.87057
 C962 C 0.13403 0.42128 0.89877
 C963 C 0.11392 0.43926 0.91741
 C964 C 0.08516 0.43621 0.90772
 C965 C 0.07734 0.41525 0.87780
 C966 C 0.09712 0.39697 0.85988
 C967 C 0.14605 0.38011 0.85259
 C968 C 0.13693 0.35806 0.82599
 C969 C 0.15631 0.33835 0.81057
 C970 C 0.18474 0.34076 0.82076
 C971 C 0.19392 0.36346 0.84634
 C972 C 0.17442 0.38302 0.86302
 C973 C 0.08899 0.37512 0.83220
 C974 C 0.10855 0.35587 0.81575
 C975 C 0.16261 0.42371 0.90832
 C976 C 0.18245 0.40504 0.89058
 H977 H 0.06724 0.37255 0.82375
 H978 H 0.10135 0.33900 0.79506
 H979 H 0.16969 0.44007 0.92991
 H980 H 0.20421 0.40759 0.89902
 H981 H 0.12077 0.45521 0.93986
 H982 H 0.05563 0.41225 0.86926
 H983 H 0.14932 0.32099 0.79053
 H984 H 0.21585 0.36523 0.85428
 C985 C 0.37405 0.60583 0.37890
 C986 C 0.40233 0.61361 0.37939
 C987 C 0.42189 0.59483 0.39629
 C988 C 0.41352 0.56849 0.41350
 C989 C 0.38499 0.56094 0.41302
 C990 C 0.36513 0.57953 0.39530
 C991 C 0.35341 0.62581 0.36118
 C992 C 0.32505 0.61811 0.35989
 C993 C 0.30557 0.63738 0.34263
 C994 C 0.31452 0.66430 0.32801
 C995 C 0.34304 0.67145 0.32982
 C996 C 0.36252 0.65233 0.34598
 C997 C 0.33657 0.57257 0.39373
 C998 C 0.31691 0.59144 0.37613
 C999 C 0.41060 0.64022 0.36339
 C1000 C 0.39099 0.65933 0.34711
 H1001 H 0.32934 0.55234 0.40615
 H1002 H 0.29515 0.58517 0.37551
 H1003 H 0.43240 0.64641 0.36372
 H1004 H 0.39818 0.67975 0.33530
 H1005 H 0.44366 0.60114 0.39694
 H1006 H 0.37833 0.54072 0.42620
 H1007 H 0.28364 0.63175 0.34124
 H1008 H 0.35021 0.69187 0.31791
 C1009 C 0.87409 0.89323 0.61979
 C1010 C 0.90220 0.88494 0.61745
 C1011 C 0.92178 0.90391 0.60102
 C1012 C 0.91358 0.93095 0.58606
 C1013 C 0.88522 0.93900 0.58829
 C1014 C 0.86537 0.92022 0.60563
 C1015 C 0.85345 0.87313 0.63720
 C1016 C 0.82532 0.88138 0.64053
 C1017 C 0.80586 0.86206 0.65775
 C1018 C 0.81457 0.83456 0.67033
 C1019 C 0.84284 0.82682 0.66629
 C1020 C 0.86234 0.84598 0.65020
 C1021 C 0.83700 0.92770 0.60909
 C1022 C 0.81737 0.90870 0.62646
 C1023 C 0.91025 0.85766 0.63120
 C1024 C 0.89061 0.83844 0.64714
 H1025 H 0.82992 0.94844 0.59840
 H1026 H 0.79578 0.91541 0.62866
 H1027 H 0.93190 0.85106 0.62941
 H1028 H 0.89764 0.81753 0.65726
 H1029 H 0.94341 0.89724 0.59894
 H1030 H 0.87870 0.95975 0.57682
 H1031 H 0.78414 0.86818 0.66085
 H1032 H 0.84989 0.80594 0.67658
 C1033 C 0.62644 0.10028 0.13010
 C1034 C 0.59790 0.10527 0.13679
 C1035 C 0.57832 0.08669 0.11913
 C1036 C 0.58685 0.06348 0.09393
 C1037 C 0.61564 0.05848 0.08792
 C1038 C 0.63557 0.07682 0.10620
 C1039 C 0.64705 0.12049 0.14761
 C1040 C 0.67570 0.11571 0.14111
 C1041 C 0.69517 0.13549 0.15738
 C1042 C 0.68574 0.16014 0.17856
 C1043 C 0.65700 0.16436 0.18484
 C1044 C 0.63760 0.14457 0.16982
 C1045 C 0.66440 0.07260 0.10051
 C1046 C 0.68411 0.09160 0.11786
 C1047 C 0.58938 0.12923 0.16012
 C1048 C 0.60891 0.14864 0.17620
 H1049 H 0.67179 0.05455 0.08226
 H1050 H 0.70609 0.08760 0.11251
 H1051 H 0.56739 0.13325 0.16544
 H1052 H 0.60148 0.16711 0.19353
 H1053 H 0.55633 0.09102 0.12389
 H1054 H 0.62250 0.04071 0.06864
 H1055 H 0.71733 0.13226 0.15253
 H1056 H 0.64975 0.18314 0.20169
 C1057 C 0.87807 0.10354 0.38582
 C1058 C 0.90486 0.11281 0.39715
 C1059 C 0.92365 0.09316 0.41378
 C1060 C 0.91589 0.06439 0.41994
 C1061 C 0.88879 0.05532 0.40902
 C1062 C 0.86983 0.07488 0.39134
 C1063 C 0.85834 0.12433 0.36790
 C1064 C 0.83167 0.11516 0.35553
 C1065 C 0.81317 0.13512 0.33785
 C1066 C 0.82119 0.16405 0.33348
 C1067 C 0.84792 0.17274 0.34654
 C1068 C 0.86662 0.15301 0.36337
 C1069 C 0.84286 0.06653 0.37895
 C1070 C 0.82417 0.08628 0.36114
 C1071 C 0.91241 0.14163 0.39190
 C1072 C 0.89354 0.16145 0.37544
 H1073 H 0.83618 0.04452 0.38286
 H1074 H 0.80366 0.07889 0.35183
 H1075 H 0.93306 0.14895 0.40072
 H1076 H 0.90012 0.18353 0.37197
 H1077 H 0.94427 0.10048 0.42279
 H1078 H 0.88270 0.03320 0.41375
 H1079 H 0.79260 0.12827 0.32788
 H1080 H 0.85447 0.19482 0.34280
 C1081 C 0.37846 0.39717 0.61608
 C1082 C 0.40565 0.38811 0.60675
 C1083 C 0.42449 0.40764 0.58990
 C1084 C 0.41639 0.43604 0.58148
 C1085 C 0.38892 0.44489 0.59060
 C1086 C 0.36989 0.42548 0.60846
 C1087 C 0.35860 0.37648 0.63395
 C1088 C 0.33147 0.38543 0.64419
 C1089 C 0.31279 0.36555 0.66165
 C1090 C 0.32110 0.33687 0.66779
 C1091 C 0.34833 0.32839 0.65694
 C1092 C 0.36719 0.34808 0.64042
 C1093 C 0.34249 0.43364 0.61885
 C1094 C 0.32367 0.41401 0.63662
 C1095 C 0.41352 0.35960 0.61404
 C1096 C 0.39455 0.33986 0.63043
 H1097 H 0.33556 0.45539 0.61332
 H1098 H 0.30281 0.42124 0.64428
 H1099 H 0.43449 0.35245 0.60680
 H1100 H 0.40138 0.31801 0.63543
 H1101 H 0.44540 0.40042 0.58238
 H1102 H 0.38255 0.46672 0.58417
 H1103 H 0.29184 0.37221 0.66994
 H1104 H 0.35507 0.30652 0.66213
 C1105 C 0.62271 0.89998 0.87766
 C1106 C 0.63197 0.92739 0.88967
 C1107 C 0.61275 0.94690 0.90722
 C1108 C 0.58446 0.93910 0.91170
 C1109 C 0.57568 0.91172 0.89841
 C1110 C 0.59464 0.89204 0.88198
 C1111 C 0.64279 0.87895 0.86087
 C1112 C 0.63347 0.85128 0.85057
 C1113 C 0.65257 0.83113 0.83568
 C1114 C 0.68077 0.83846 0.83009
 C1115 C 0.68985 0.86648 0.83962
 C1116 C 0.67089 0.88677 0.85577
 C1117 C 0.58606 0.86433 0.87058
 C1118 C 0.60520 0.84422 0.85534
 C1119 C 0.66028 0.93446 0.88422
 C1120 C 0.67934 0.91459 0.86729
 H1121 H 0.56441 0.85802 0.87392
 H1122 H 0.59781 0.82295 0.84727
 H1123 H 0.66777 0.95553 0.89314
 H1124 H 0.70093 0.92096 0.86362
 H1125 H 0.61971 0.96790 0.91738
 H1126 H 0.55412 0.90521 0.90224
 H1127 H 0.64536 0.80976 0.82767
 H1128 H 0.71157 0.87221 0.83525
 C1129 C 0.12118 0.60009 0.12158
 C1130 C 0.09325 0.60818 0.11610
 C1131 C 0.07448 0.58861 0.09883
 C1132 C 0.08332 0.56114 0.08598
 C1133 C 0.11149 0.55321 0.09158
 C1134 C 0.13051 0.57264 0.10989
 C1135 C 0.14106 0.62100 0.13933
 C1136 C 0.16902 0.61304 0.14551
 C1137 C 0.18781 0.63323 0.16243
 C1138 C 0.17872 0.66129 0.17178
 C1139 C 0.15063 0.66873 0.16519
 C1140 C 0.13170 0.64869 0.14941
 C1141 C 0.15868 0.56543 0.11647
 C1142 C 0.17754 0.58520 0.13420
 C1143 C 0.08461 0.63591 0.12728
 C1144 C 0.10356 0.65589 0.14346
 H1145 H 0.16622 0.54434 0.10783
 H1146 H 0.19903 0.57873 0.13870
 H1147 H 0.06306 0.64233 0.12309
 H1148 H 0.09613 0.67718 0.15130
 H1149 H 0.05303 0.59523 0.09417
 H1150 H 0.11851 0.53215 0.08179
 H1151 H 0.20944 0.62740 0.16747
 H1152 H 0.14339 0.69012 0.17295
 C1153 C 0.37532 0.89172 0.10764
 C1154 C 0.40230 0.88195 0.09821
 C1155 C 0.42255 0.90164 0.08557
 C1156 C 0.41590 0.93086 0.08141
 C1157 C 0.38866 0.94037 0.09059
 C1158 C 0.36832 0.92085 0.10426
 C1159 C 0.35406 0.87103 0.12152
 C1160 C 0.32731 0.88080 0.13239
 C1161 C 0.30754 0.86108 0.14723
 C1162 C 0.31438 0.83179 0.15050
 C1163 C 0.34109 0.82237 0.13823
 C1164 C 0.36108 0.84190 0.12428
 C1165 C 0.34118 0.92979 0.11469
 C1166 C 0.32108 0.91014 0.12877
 C1167 C 0.40850 0.85263 0.10133
 C1168 C 0.38819 0.83291 0.11397
 H1169 H 0.33549 0.95219 0.11228
 H1170 H 0.30051 0.91798 0.13693
 H1171 H 0.42923 0.84486 0.09393
 H1172 H 0.39383 0.81047 0.11610
 H1173 H 0.44333 0.89408 0.07791
 H1174 H 0.38342 0.96286 0.08741
 H1175 H 0.28705 0.86852 0.15663
 H1176 H 0.34675 0.79998 0.14117
 C1177 C 0.62382 0.39453 0.38331
 C1178 C 0.63130 0.42343 0.38851
 C1179 C 0.61103 0.44313 0.40200
 C1180 C 0.58342 0.43402 0.40921
 C1181 C 0.57624 0.40509 0.40284
 C1182 C 0.59639 0.38520 0.39045
 C1183 C 0.64510 0.37355 0.37035
 C1184 C 0.63764 0.34459 0.36623
 C1185 C 0.65776 0.32475 0.35359
 C1186 C 0.68504 0.33370 0.34394
 C1187 C 0.69231 0.36282 0.34829
 C1188 C 0.67241 0.38285 0.36199
 C1189 C 0.58971 0.35608 0.38574
 C1190 C 0.61004 0.33606 0.37402
 C1191 C 0.65892 0.43192 0.38042
 C1192 C 0.67907 0.41200 0.36708
 H1193 H 0.56862 0.34867 0.39137
 H1194 H 0.60408 0.31376 0.37075
 H1195 H 0.66496 0.45415 0.38423
 H1196 H 0.70006 0.41947 0.36084
 H1197 H 0.61666 0.46539 0.40695
 H1198 H 0.55516 0.39783 0.40904
 H1199 H 0.65184 0.30247 0.34962
 H1200 H 0.71328 0.36983 0.34082
 C1201 C 0.87741 0.60538 0.88432
 C1202 C 0.90587 0.61138 0.87914
 C1203 C 0.92571 0.59141 0.89244
 C1204 C 0.91752 0.56579 0.91256
 C1205 C 0.88858 0.56013 0.91701
 C1206 C 0.86854 0.57970 0.90258
 C1207 C 0.85650 0.62654 0.87063
 C1208 C 0.82793 0.62028 0.87460
 C1209 C 0.80816 0.64035 0.86068
 C1210 C 0.81699 0.66678 0.84435
 C1211 C 0.84567 0.67285 0.84134
 C1212 C 0.86551 0.65265 0.85378
 C1213 C 0.83978 0.57426 0.90641
 C1214 C 0.81984 0.59409 0.89234
 C1215 C 0.91402 0.63755 0.86143
 C1216 C 0.89419 0.65793 0.84925
 H1217 H 0.83262 0.55448 0.92032
 H1218 H 0.79790 0.58896 0.89569
 H1219 H 0.93595 0.64246 0.85736
 H1220 H 0.90136 0.67794 0.83602
 H1221 H 0.94761 0.59657 0.88838
 H1222 H 0.88148 0.54061 0.93184
 H1223 H 0.78606 0.63560 0.86280
 H1224 H 0.85251 0.69296 0.82796
 C1225 C 0.12381 0.10600 0.61522
 C1226 C 0.09641 0.11526 0.60766
 C1227 C 0.07627 0.09526 0.59553
 C1228 C 0.08345 0.06627 0.58982
 C1229 C 0.11104 0.05722 0.59736
 C1230 C 0.13129 0.07704 0.61062
 C1231 C 0.14505 0.12708 0.62807
 C1232 C 0.17229 0.11783 0.63695
 C1233 C 0.19212 0.13794 0.65069
 C1234 C 0.18484 0.16710 0.65461
 C1235 C 0.15764 0.17599 0.64436
 C1236 C 0.13758 0.15607 0.63167
 C1237 C 0.15886 0.06862 0.61915
 C1238 C 0.17897 0.08864 0.63240
 C1239 C 0.08974 0.14443 0.61177
 C1240 C 0.11003 0.16454 0.62339
 H1241 H 0.16491 0.04636 0.61581
 H1242 H 0.19991 0.08121 0.63904
 H1243 H 0.06867 0.15179 0.60581
 H1244 H 0.10405 0.18686 0.62623
 H1245 H 0.05521 0.10246 0.58905
 H1246 H 0.11666 0.03491 0.59289
 H1247 H 0.21303 0.13096 0.65862
 H1248 H 0.15170 0.19829 0.64796
 C1249 C 0.12178 0.39984 0.37624
 C1250 C 0.13126 0.42707 0.38873
 C1251 C 0.11223 0.44656 0.40678
 C1252 C 0.08391 0.43891 0.41132
 C1253 C 0.07491 0.41170 0.39761
 C1254 C 0.09368 0.39205 0.38063
 C1255 C 0.14165 0.37883 0.35886
 C1256 C 0.13211 0.35133 0.34806
 C1257 C 0.15104 0.33117 0.33266
 C1258 C 0.17928 0.33835 0.32712
 C1259 C 0.18857 0.36622 0.33714
 C1260 C 0.16979 0.38650 0.35376
 C1261 C 0.08487 0.36451 0.36873
 C1262 C 0.10381 0.34442 0.35291
 C1263 C 0.15960 0.43399 0.38323
 C1264 C 0.17847 0.41414 0.36579
 H1265 H 0.06319 0.35832 0.37212
 H1266 H 0.09626 0.32329 0.34446
 H1267 H 0.16726 0.45491 0.39251
 H1268 H 0.20010 0.42039 0.36211
 H1269 H 0.11936 0.46743 0.41726
 H1270 H 0.05332 0.40529 0.40147
 H1271 H 0.14368 0.30992 0.32432
 H1272 H 0.21033 0.37181 0.33286
 C1273 C 0.37824 0.60387 0.88580
 C1274 C 0.40507 0.61314 0.89694
 C1275 C 0.42388 0.59352 0.91361
 C1276 C 0.41609 0.56478 0.92002
 C1277 C 0.38896 0.55571 0.90926
 C1278 C 0.36998 0.57524 0.89154
 C1279 C 0.35848 0.62462 0.86786
 C1280 C 0.33177 0.61544 0.85568
 C1281 C 0.31324 0.63536 0.83799
 C1282 C 0.32126 0.66428 0.83343
 C1283 C 0.34803 0.67298 0.84630
 C1284 C 0.36676 0.65328 0.86312
 C1285 C 0.34298 0.56687 0.87935
 C1286 C 0.32427 0.58658 0.86151
 C1287 C 0.41262 0.64194 0.89149
 C1288 C 0.39372 0.66173 0.87501
 H1289 H 0.33629 0.54488 0.88344
 H1290 H 0.30372 0.57918 0.85236
 H1291 H 0.43329 0.64927 0.90015
 H1292 H 0.40031 0.68379 0.87139
 H1293 H 0.44453 0.60084 0.92247
 H1294 H 0.38286 0.53361 0.91416
 H1295 H 0.29264 0.62851 0.82817
 H1296 H 0.35458 0.69505 0.84241
 C1297 C 0.62156 0.10005 0.62611
 C1298 C 0.59340 0.10775 0.62216
 C1299 C 0.57464 0.08822 0.60477
 C1300 C 0.58368 0.06120 0.59026
 C1301 C 0.61207 0.05366 0.59442
 C1302 C 0.63110 0.07303 0.61281
 C1303 C 0.64143 0.12096 0.64387
 C1304 C 0.66965 0.11342 0.64842
 C1305 C 0.68845 0.13366 0.66520
 C1306 C 0.67909 0.16138 0.67593
 C1307 C 0.65074 0.16839 0.67105
 C1308 C 0.63182 0.14827 0.65547
 C1309 C 0.65951 0.06621 0.61786
 C1310 C 0.67839 0.08597 0.63558
 C1311 C 0.58453 0.13508 0.63490
 C1312 C 0.60345 0.15508 0.65110
 H1313 H 0.66723 0.04545 0.60795
 H1314 H 0.70007 0.07981 0.63882
 H1315 H 0.56281 0.14120 0.63187
 H1316 H 0.59583 0.17606 0.66015
 H1317 H 0.55301 0.09457 0.60131
 H1318 H 0.61926 0.03295 0.58337
 H1319 H 0.71028 0.12818 0.66893
 H1320 H 0.64334 0.18953 0.67989
 C1321 C 0.87862 0.89681 0.11622
 C1322 C 0.90571 0.88768 0.10640
 C1323 C 0.92452 0.90719 0.08943
 C1324 C 0.91648 0.93566 0.08141
 C1325 C 0.88911 0.94459 0.09099
 C1326 C 0.87011 0.92518 0.10896
 C1327 C 0.85880 0.87613 0.13422
 C1328 C 0.83176 0.88514 0.14493
 C1329 C 0.81310 0.86524 0.16245
 C1330 C 0.82136 0.83650 0.16819
 C1331 C 0.84850 0.82799 0.15693
 C1332 C 0.86733 0.84768 0.14033
 C1333 C 0.84281 0.93340 0.11982
 C1334 C 0.82403 0.91378 0.13770
 C1335 C 0.91352 0.85911 0.11334
 C1336 C 0.89459 0.83939 0.12987
 H1337 H 0.83592 0.95521 0.11457
 H1338 H 0.80324 0.92105 0.14572
 H1339 H 0.93441 0.85189 0.10573
 H1340 H 0.90137 0.81748 0.13459
 H1341 H 0.94535 0.89992 0.08155
 H1342 H 0.88279 0.96648 0.08489
 H1343 H 0.79222 0.87193 0.17105
 H1344 H 0.85521 0.80607 0.16180
 C1345 C 0.87406 0.10772 0.88331
 C1346 C 0.90201 0.11634 0.88706
 C1347 C 0.92159 0.09723 0.90309
 C1348 C 0.91354 0.06970 0.91624
 C1349 C 0.88532 0.06134 0.91277
 C1350 C 0.86548 0.08028 0.89576
 C1351 C 0.85344 0.12792 0.86609
 C1352 C 0.82550 0.11933 0.86123
 C1353 C 0.80611 0.13869 0.84400
 C1354 C 0.81466 0.16654 0.83280
 C1355 C 0.84273 0.17464 0.83848
 C1356 C 0.86217 0.15546 0.85465
 C1357 C 0.83729 0.07249 0.89089
 C1358 C 0.81770 0.09160 0.87371
 C1359 C 0.90990 0.14404 0.87500
 C1360 C 0.89027 0.16334 0.85922
 H1361 H 0.83033 0.05140 0.90026
 H1362 H 0.79624 0.08463 0.87031
 H1363 H 0.93142 0.15090 0.87793
 H1364 H 0.89718 0.18456 0.85034
 H1365 H 0.94311 0.10410 0.90623
 H1366 H 0.87894 0.04021 0.92288
 H1367 H 0.78456 0.13229 0.83966
 H1368 H 0.84971 0.19579 0.82933
 C1369 C 0.12653 0.60050 0.62958
 C1370 C 0.09800 0.60547 0.63626
 C1371 C 0.07843 0.58687 0.61861
 C1372 C 0.08696 0.56366 0.59341
 C1373 C 0.11576 0.55870 0.58736
 C1374 C 0.13568 0.57706 0.60565
 C1375 C 0.14713 0.62070 0.64716
 C1376 C 0.17579 0.61593 0.64072
 C1377 C 0.19524 0.63568 0.65709
 C1378 C 0.18580 0.66031 0.67834
 C1379 C 0.15705 0.66452 0.68455
 C1380 C 0.13767 0.64475 0.66942
 C1381 C 0.16452 0.57286 0.59998
 C1382 C 0.18422 0.59185 0.61741
 C1383 C 0.08945 0.62941 0.65962
 C1384 C 0.10897 0.64882 0.67576
 H1385 H 0.17193 0.55483 0.58171
 H1386 H 0.20620 0.58786 0.61208
 H1387 H 0.06746 0.63342 0.66493
 H1388 H 0.10152 0.66726 0.69311
 H1389 H 0.05644 0.59118 0.62341
 H1390 H 0.12262 0.54094 0.56807
 H1391 H 0.21741 0.63246 0.65228
 H1392 H 0.14978 0.68328 0.70143
 C1393 C 0.62601 0.89773 0.37384
 C1394 C 0.63522 0.92219 0.39547
 C1395 C 0.61536 0.94056 0.41395
 C1396 C 0.58655 0.93463 0.41022
 C1397 C 0.57794 0.91028 0.38747
 C1398 C 0.59746 0.89168 0.36971
 C1399 C 0.64661 0.87770 0.35580
 C1400 C 0.63714 0.85277 0.33570
 C1401 C 0.65657 0.83330 0.31990
 C1402 C 0.68538 0.83861 0.32331
 C1403 C 0.69476 0.86408 0.34251
 C1404 C 0.67529 0.88358 0.35951
 C1405 C 0.58887 0.86679 0.34859
 C1406 C 0.60840 0.84757 0.33204
 C1407 C 0.66408 0.92745 0.39854
 C1408 C 0.68374 0.90859 0.38068
 H1409 H 0.56687 0.86194 0.34528
 H1410 H 0.60094 0.82842 0.31640
 H1411 H 0.67155 0.94626 0.41501
 H1412 H 0.70574 0.91346 0.38391
 H1413 H 0.62228 0.95921 0.43135
 H1414 H 0.55595 0.90518 0.38459
 H1415 H 0.64926 0.81395 0.30455
 H1416 H 0.71694 0.86821 0.34519
 C1417 C 0.37385 0.39345 0.11944
 C1418 C 0.40205 0.38538 0.11805
 C1419 C 0.42166 0.40431 0.10160
 C1420 C 0.41342 0.43108 0.08571
 C1421 C 0.38497 0.43891 0.08705
 C1422 C 0.36507 0.42018 0.10437
 C1423 C 0.35316 0.37336 0.13676
 C1424 C 0.32492 0.38137 0.13907
 C1425 C 0.30541 0.36204 0.15611
 C1426 C 0.31418 0.33475 0.16952
 C1427 C 0.34258 0.32726 0.16656
 C1428 C 0.36211 0.34644 0.15065
 C1429 C 0.33661 0.42744 0.10688
 C1430 C 0.31693 0.40846 0.12415
 C1431 C 0.41016 0.35835 0.13271
 C1432 C 0.39049 0.33914 0.14858
 H1433 H 0.32949 0.44799 0.09550
 H1434 H 0.29525 0.41499 0.12558
 H1435 H 0.43188 0.35192 0.13167
 H1436 H 0.39756 0.31841 0.15940
 H1437 H 0.44335 0.39779 0.10025
 H1438 H 0.37840 0.45946 0.07487
 H1439 H 0.28359 0.36796 0.15837
 H1440 H 0.34966 0.30655 0.17750
 C1441 C 0.62414 0.60540 0.11541
 C1442 C 0.59668 0.61466 0.10843
 C1443 C 0.57649 0.59469 0.09636
 C1444 C 0.58367 0.56575 0.09015
 C1445 C 0.61132 0.55671 0.09717
 C1446 C 0.63163 0.57648 0.11034
 C1447 C 0.64544 0.62644 0.12812
 C1448 C 0.67278 0.61720 0.13640
 C1449 C 0.69268 0.63727 0.15000
 C1450 C 0.68537 0.66639 0.15438
 C1451 C 0.65807 0.67529 0.14473
 C1452 C 0.63795 0.65540 0.13218
 C1453 C 0.65929 0.56806 0.11829
 C1454 C 0.67946 0.58804 0.13140
 C1455 C 0.58998 0.64379 0.11300
 C1456 C 0.61032 0.66386 0.12450
 H1457 H 0.66535 0.54583 0.11458
 H1458 H 0.70048 0.58062 0.13758
 H1459 H 0.56886 0.65115 0.10749
 H1460 H 0.60433 0.68616 0.12772
 H1461 H 0.55537 0.60191 0.09028
 H1462 H 0.61695 0.53443 0.09233
 H1463 H 0.71366 0.63029 0.15747
 H1464 H 0.65212 0.69756 0.14871
 C1465 C 0.12377 0.89493 0.88284
 C1466 C 0.13136 0.92377 0.88852
 C1467 C 0.11111 0.94349 0.90207
 C1468 C 0.08342 0.93448 0.90887
 C1469 C 0.07613 0.90563 0.90197
 C1470 C 0.09625 0.88571 0.88952
 C1471 C 0.14502 0.87392 0.86986
 C1472 C 0.13744 0.84502 0.86529
 C1473 C 0.15756 0.82513 0.85270
 C1474 C 0.18494 0.83399 0.84355
 C1475 C 0.19232 0.86306 0.84830
 C1476 C 0.17242 0.88312 0.86196
 C1477 C 0.08946 0.85665 0.88433
 C1478 C 0.10976 0.83660 0.87260
 C1479 C 0.15906 0.93215 0.88086
 C1480 C 0.17919 0.91221 0.86750
 H1481 H 0.06830 0.84932 0.88958
 H1482 H 0.10370 0.81435 0.86897
 H1483 H 0.16519 0.95433 0.88503
 H1484 H 0.20024 0.91962 0.86160
 H1485 H 0.11683 0.96568 0.90741
 H1486 H 0.05498 0.89843 0.90784
 H1487 H 0.15157 0.80290 0.84841
 H1488 H 0.21337 0.87001 0.84119
 C1489 C 0.37566 0.10744 0.39000
 C1490 C 0.40285 0.11705 0.39843
 C1491 C 0.42301 0.09736 0.41145
 C1492 C 0.41607 0.06831 0.41703
 C1493 C 0.38863 0.05897 0.40871
 C1494 C 0.36838 0.07847 0.39467
 C1495 C 0.35445 0.12815 0.37595
 C1496 C 0.32743 0.11854 0.36621
 C1497 C 0.30765 0.13827 0.35139
 C1498 C 0.31472 0.16745 0.34712
 C1499 C 0.34172 0.17671 0.35817
 C1500 C 0.36173 0.15715 0.37205
 C1501 C 0.34101 0.06969 0.38525
 C1502 C 0.32095 0.08934 0.37101
 C1503 C 0.40933 0.14623 0.39406
 C1504 C 0.38907 0.16597 0.38127
 H1505 H 0.33510 0.04741 0.38864
 H1506 H 0.30018 0.08162 0.36372
 H1507 H 0.43023 0.15388 0.40065
 H1508 H 0.39492 0.18830 0.37824
 H1509 H 0.44394 0.10482 0.41839
 H1510 H 0.38315 0.03663 0.41294
 H1511 H 0.28693 0.13095 0.34290
 H1512 H 0.34756 0.19899 0.35443
 C1513 C 0.87526 0.39223 0.60939
 C1514 C 0.90235 0.38246 0.60070
 C1515 C 0.92263 0.40206 0.58789
 C1516 C 0.91590 0.43120 0.58282
 C1517 C 0.88856 0.44071 0.59133
 C1518 C 0.86819 0.42129 0.60515
 C1519 C 0.85395 0.37162 0.62333
 C1520 C 0.82705 0.38141 0.63339
 C1521 C 0.80720 0.36176 0.64821
 C1522 C 0.81410 0.33253 0.65221
 C1523 C 0.84097 0.32311 0.64078
 C1524 C 0.86104 0.34256 0.62688
 C1525 C 0.84092 0.43024 0.61482
 C1526 C 0.82076 0.41067 0.62896
 C1527 C 0.90863 0.35321 0.60467
 C1528 C 0.88827 0.33356 0.61737
 H1529 H 0.83518 0.45258 0.61174
 H1530 H 0.80009 0.41852 0.63651
 H1531 H 0.92945 0.34544 0.59786
 H1532 H 0.89397 0.31118 0.62014
 H1533 H 0.94349 0.39449 0.58078
 H1534 H 0.88326 0.46313 0.58747
 H1535 H 0.78658 0.36921 0.65700
 H1536 H 0.84669 0.30077 0.64432
 C1537 C 0.87676 0.60370 0.11095
 C1538 C 0.86703 0.57784 0.09365
 C1539 C 0.88618 0.55914 0.07411
 C1540 C 0.91483 0.56617 0.07263
 C1541 C 0.92393 0.59229 0.09020
 C1542 C 0.90510 0.61109 0.10914
 C1543 C 0.85693 0.62357 0.13121
 C1544 C 0.86684 0.64959 0.14756
 C1545 C 0.84804 0.66873 0.16583
 C1546 C 0.81942 0.66216 0.16830
 C1547 C 0.80974 0.63565 0.15265
 C1548 C 0.82851 0.61633 0.13355
 C1549 C 0.91419 0.63721 0.12624
 C1550 C 0.89536 0.65619 0.14502
 C1551 C 0.83842 0.57132 0.09648
 C1552 C 0.81953 0.59016 0.11617
 H1553 H 0.93605 0.64310 0.12494
 H1554 H 0.90318 0.67623 0.15760
 H1555 H 0.83055 0.55146 0.08340
 H1556 H 0.79769 0.58425 0.11757
 H1557 H 0.87893 0.53912 0.06070
 H1558 H 0.94578 0.59825 0.08885
 H1559 H 0.85575 0.68891 0.17818
 H1560 H 0.78770 0.63052 0.15424
 C1561 C 0.62312 0.39331 0.60498
 C1562 C 0.59551 0.38444 0.59814
 C1563 C 0.57664 0.40339 0.57987
 C1564 C 0.58503 0.43111 0.56805
 C1565 C 0.61300 0.43959 0.57423
 C1566 C 0.63213 0.42075 0.59318
 C1567 C 0.64286 0.37347 0.62517
 C1568 C 0.67043 0.38228 0.63291
 C1569 C 0.68903 0.36320 0.65252
 C1570 C 0.68010 0.33543 0.66356
 C1571 C 0.65233 0.32719 0.65540
 C1572 C 0.63368 0.34604 0.63648
 C1573 C 0.65995 0.42877 0.60106
 C1574 C 0.67873 0.40992 0.62068
 C1575 C 0.58716 0.35682 0.60996
 C1576 C 0.60595 0.33790 0.62871
 H1577 H 0.66724 0.44985 0.59221
 H1578 H 0.69992 0.41705 0.62629
 H1579 H 0.56589 0.34979 0.60472
 H1580 H 0.59869 0.31676 0.63735
 H1581 H 0.55531 0.39646 0.57476
 H1582 H 0.61962 0.46090 0.56529
 H1583 H 0.71037 0.36971 0.65851
 H1584 H 0.64507 0.30605 0.66413
 C1585 C 0.12290 0.10646 0.39399
 C1586 C 0.09510 0.11510 0.39956
 C1587 C 0.07615 0.09626 0.41789
 C1588 C 0.08465 0.06886 0.43105
 C1589 C 0.11279 0.06059 0.42602
 C1590 C 0.13200 0.07933 0.40705
 C1591 C 0.14276 0.12623 0.37393
 C1592 C 0.17056 0.11765 0.36755
 C1593 C 0.18931 0.13672 0.34822
 C1594 C 0.18030 0.16426 0.33617
 C1595 C 0.15229 0.17223 0.34286
 C1596 C 0.13349 0.15338 0.36147
 C1597 C 0.16002 0.07152 0.40044
 C1598 C 0.17893 0.09030 0.38094
 C1599 C 0.08665 0.14243 0.38653
 C1600 C 0.10555 0.16129 0.36789
 H1601 H 0.16739 0.05067 0.41025
 H1602 H 0.20028 0.08335 0.37639
 H1603 H 0.06523 0.14930 0.39077
 H1604 H 0.09822 0.18222 0.35833
 H1605 H 0.05469 0.10305 0.42206
 H1606 H 0.11951 0.03954 0.43597
 H1607 H 0.21084 0.13044 0.34333
 H1608 H 0.14498 0.19318 0.33328
 C1609 C 0.37734 0.89752 0.88314
 C1610 C 0.36764 0.92278 0.90222
 C1611 C 0.38696 0.94137 0.92154
 C1612 C 0.41573 0.93483 0.92112
 C1613 C 0.42484 0.90942 0.90150
 C1614 C 0.40585 0.89070 0.88277
 C1615 C 0.35730 0.87759 0.86352
 C1616 C 0.36718 0.85205 0.84562
 C1617 C 0.34817 0.83273 0.82828
 C1618 C 0.31940 0.83870 0.82826
 C1619 C 0.30970 0.86477 0.84527
 C1620 C 0.32869 0.88423 0.86353
 C1621 C 0.41491 0.86512 0.86398
 C1622 C 0.39587 0.84606 0.84582
 C1623 C 0.33886 0.92876 0.90159
 C1624 C 0.31975 0.90989 0.88246
 H1625 H 0.43689 0.85969 0.86358
 H1626 H 0.40367 0.82641 0.83197
 H1627 H 0.33103 0.94817 0.91605
 H1628 H 0.29777 0.91532 0.88282
 H1629 H 0.37970 0.96085 0.93650
 H1630 H 0.44680 0.90385 0.90129
 H1631 H 0.35580 0.81285 0.81482
 H1632 H 0.28753 0.86939 0.84552
 C1633 C 0.12085 0.89187 0.62578
 C1634 C 0.09399 0.88216 0.61555
 C1635 C 0.07534 0.90090 0.59637
 C1636 C 0.08326 0.92920 0.58695
 C1637 C 0.11045 0.93861 0.59680
 C1638 C 0.12931 0.91998 0.61665
 C1639 C 0.14044 0.87211 0.64636
 C1640 C 0.16730 0.88169 0.65711
 C1641 C 0.18591 0.86256 0.67641
 C1642 C 0.17780 0.83400 0.68403
 C1643 C 0.15069 0.82501 0.67328
 C1644 C 0.13195 0.84392 0.65462
 C1645 C 0.15638 0.92882 0.62783
 C1646 C 0.17500 0.91004 0.64781
 C1647 C 0.08621 0.85388 0.62467
 C1648 C 0.10491 0.83503 0.64379
 H1649 H 0.16321 0.95045 0.62112
 H1650 H 0.19565 0.91773 0.65583
 H1651 H 0.06550 0.84622 0.61683
 H1652 H 0.09817 0.81332 0.65011
 H1653 H 0.05461 0.89330 0.58851
 H1654 H 0.11666 0.96040 0.58981
 H1655 H 0.20679 0.86961 0.68447
 H1656 H 0.14413 0.80319 0.67944
 C1657 C 0.62080 0.60750 0.37197
 C1658 C 0.59375 0.61707 0.38122
 C1659 C 0.57510 0.59850 0.40074
 C1660 C 0.58321 0.57048 0.41152
 C1661 C 0.61058 0.56119 0.40254
 C1662 C 0.62945 0.57966 0.38237
 C1663 C 0.64044 0.62713 0.35123
 C1664 C 0.66753 0.61771 0.34160
 C1665 C 0.68623 0.63679 0.32233
 C1666 C 0.67796 0.66515 0.31369
 C1667 C 0.65059 0.67395 0.32323
 C1668 C 0.63177 0.65509 0.34182
 C1669 C 0.65672 0.57095 0.37220
 C1670 C 0.67540 0.58961 0.35207
 C1671 C 0.58578 0.64510 0.37086
 C1672 C 0.60451 0.66383 0.35158
 H1673 H 0.66370 0.54953 0.37987
 H1674 H 0.69623 0.58203 0.34492
 H1675 H 0.56492 0.65266 0.37791
 H1676 H 0.59763 0.68536 0.34436
 H1677 H 0.55423 0.60603 0.40786
 H1678 H 0.61696 0.53962 0.41055
 H1679 H 0.70731 0.62991 0.31523
 H1680 H 0.64391 0.69561 0.31626
 C1681 C 0.37897 0.10393 0.13234
 C1682 C 0.36986 0.07698 0.11811
 C1683 C 0.38896 0.05866 0.09784
 C1684 C 0.41699 0.06717 0.09252
 C1685 C 0.42558 0.09423 0.10742
 C1686 C 0.40673 0.11269 0.12701
 C1687 C 0.35902 0.12360 0.15268
 C1688 C 0.36816 0.15083 0.16554
 C1689 C 0.34905 0.16989 0.18327
 C1690 C 0.32095 0.16199 0.18863
 C1691 C 0.31216 0.13427 0.17683
 C1692 C 0.33116 0.11505 0.15822
 C1693 C 0.41516 0.13990 0.14101
 C1694 C 0.39615 0.15870 0.15982
 C1695 C 0.34184 0.06908 0.12439
 C1696 C 0.32287 0.08772 0.14421
 H1697 H 0.43657 0.14683 0.13702
 H1698 H 0.40340 0.17965 0.16976
 H1699 H 0.33449 0.04834 0.11377
 H1700 H 0.30146 0.08081 0.14820
 H1701 H 0.38215 0.03785 0.08663
 H1702 H 0.44696 0.10124 0.10317
 H1703 H 0.35601 0.19107 0.19273
 H1704 H 0.29050 0.12815 0.18073
 C1705 C 0.87940 0.39774 0.86455
 C1706 C 0.86980 0.42135 0.88771
 C1707 C 0.88926 0.43924 0.90805
 C1708 C 0.91832 0.43387 0.90483
 C1709 C 0.92721 0.41025 0.88019
 C1710 C 0.90799 0.39207 0.86070
 C1711 C 0.85913 0.37816 0.84462
 C1712 C 0.86889 0.35383 0.82319
 C1713 C 0.84965 0.33447 0.80626
 C1714 C 0.82084 0.33950 0.80984
 C1715 C 0.81123 0.36448 0.83003
 C1716 C 0.83041 0.38372 0.84820
 C1717 C 0.91694 0.36794 0.83800
 C1718 C 0.89771 0.34904 0.81979
 C1719 C 0.84089 0.42634 0.89038
 C1720 C 0.82157 0.40796 0.87080
 H1721 H 0.93900 0.36337 0.83483
 H1722 H 0.90547 0.33043 0.80314
 H1723 H 0.83312 0.44453 0.90796
 H1724 H 0.79950 0.41254 0.87392
 H1725 H 0.88165 0.45722 0.92631
 H1726 H 0.94921 0.40530 0.87676
 H1727 H 0.85703 0.31530 0.79050
 H1728 H 0.78900 0.36823 0.83307
 C1729 C 0.62593 0.10943 0.89305
 C1730 C 0.59931 0.11947 0.90404
 C1731 C 0.57917 0.09996 0.91752
 C1732 C 0.58559 0.07066 0.92120
 C1733 C 0.61250 0.06085 0.91062
 C1734 C 0.63269 0.08019 0.89583
 C1735 C 0.64703 0.12996 0.87812
 C1736 C 0.67334 0.11994 0.86537
 C1737 C 0.69280 0.13952 0.84916
 C1738 C 0.68614 0.16891 0.84656
 C1739 C 0.66000 0.17854 0.86101
 C1740 C 0.64026 0.15918 0.87613
 C1741 C 0.65944 0.07102 0.88368
 C1742 C 0.67933 0.09052 0.86839
 C1743 C 0.59336 0.14887 0.90165
 C1744 C 0.61356 0.16843 0.88815
 H1745 H 0.66496 0.04855 0.88558
 H1746 H 0.69955 0.08247 0.85882
 H1747 H 0.57292 0.15684 0.91029
 H1748 H 0.60811 0.19094 0.88660
 H1749 H 0.55867 0.10772 0.92640
 H1750 H 0.61754 0.03830 0.91354
 H1751 H 0.71284 0.13190 0.83803
 H1752 H 0.65442 0.20099 0.85859
 C1753 C 0.37582 0.60551 0.61620
 C1754 C 0.36837 0.57672 0.60959
 C1755 C 0.38848 0.55752 0.59396
 C1756 C 0.41592 0.56700 0.58628
 C1757 C 0.42308 0.59574 0.59421
 C1758 C 0.40307 0.61516 0.60851
 C1759 C 0.35470 0.62605 0.63117
 C1760 C 0.36213 0.65493 0.63640
 C1761 C 0.34218 0.67437 0.65075
 C1762 C 0.31514 0.66513 0.66120
 C1763 C 0.30789 0.63606 0.65597
 C1764 C 0.32760 0.61643 0.64030
 C1765 C 0.40973 0.64418 0.61450
 C1766 C 0.38953 0.66379 0.62798
 C1767 C 0.34094 0.56791 0.61844
 C1768 C 0.32098 0.58737 0.63389
 H1769 H 0.43069 0.65183 0.60846
 H1770 H 0.39546 0.68603 0.63213
 H1771 H 0.33489 0.54577 0.61361
 H1772 H 0.30016 0.57963 0.64067
 H1773 H 0.38287 0.53540 0.58775
 H1774 H 0.44400 0.60331 0.58757
 H1775 H 0.34813 0.69657 0.65551
 H1776 H 0.28711 0.62883 0.66417
 C1777 C 0.12413 0.39105 0.10996
 C1778 C 0.09719 0.38116 0.10051
 C1779 C 0.07716 0.40056 0.08627
 C1780 C 0.08400 0.42958 0.08030
 C1781 C 0.11120 0.43924 0.08955
 C1782 C 0.13130 0.42003 0.10504
 C1783 C 0.14520 0.37061 0.12531
 C1784 C 0.17191 0.38050 0.13630
 C1785 C 0.19148 0.36101 0.15255
 C1786 C 0.18451 0.33179 0.15675
 C1787 C 0.15788 0.32227 0.14428
 C1788 C 0.13805 0.34158 0.12920
 C1789 C 0.15840 0.42909 0.11563
 C1790 C 0.17827 0.40972 0.13132
 C1791 C 0.09084 0.35196 0.10499
 C1792 C 0.11099 0.33247 0.11887
 H1793 H 0.16423 0.45138 0.11208
 H1794 H 0.19879 0.41768 0.13955
 H1795 H 0.07014 0.34410 0.09759
 H1796 H 0.10525 0.31012 0.12192
 H1797 H 0.05645 0.39285 0.07846
 H1798 H 0.11659 0.46156 0.08489
 H1799 H 0.21190 0.36853 0.16219
 H1800 H 0.15207 0.29998 0.14806
 C1801 C 0.87529 0.89419 0.38502
 C1802 C 0.86794 0.92309 0.39080
 C1803 C 0.88807 0.94239 0.40616
 C1804 C 0.91544 0.93289 0.41434
 C1805 C 0.92249 0.90402 0.40730
 C1806 C 0.90246 0.88451 0.39330
 C1807 C 0.85417 0.87359 0.37018
 C1808 C 0.86151 0.84463 0.36567
 C1809 C 0.84161 0.82514 0.35124
 C1810 C 0.81471 0.83442 0.33997
 C1811 C 0.80754 0.86356 0.34463
 C1812 C 0.82720 0.88324 0.36035
 C1813 C 0.90901 0.85540 0.38811
 C1814 C 0.88881 0.83574 0.37477
 C1815 C 0.84061 0.93192 0.38134
 C1816 C 0.82067 0.91239 0.36601
 H1817 H 0.92990 0.84773 0.39463
 H1818 H 0.89467 0.81343 0.37119
 H1819 H 0.83464 0.95414 0.38553
 H1820 H 0.79994 0.92016 0.35868
 H1821 H 0.88255 0.96461 0.41172
 H1822 H 0.94335 0.89645 0.41436
 H1823 H 0.84751 0.80290 0.34696
 H1824 H 0.78689 0.87083 0.33583
 C1825 C 0.87913 0.60377 0.63348
 C1826 C 0.86990 0.57707 0.61844
 C1827 C 0.88900 0.55880 0.59808
 C1828 C 0.91713 0.56713 0.59342
 C1829 C 0.92585 0.59392 0.60918
 C1830 C 0.90701 0.61232 0.62890
 C1831 C 0.85917 0.62341 0.65385
 C1832 C 0.86842 0.65042 0.66748
 C1833 C 0.84930 0.66950 0.68516
 C1834 C 0.82109 0.66180 0.68970
 C1835 C 0.81217 0.63429 0.67718
 C1836 C 0.83118 0.61507 0.65860
 C1837 C 0.91555 0.63929 0.64371
 C1838 C 0.89654 0.65808 0.66255
 C1839 C 0.84176 0.56936 0.62397
 C1840 C 0.82277 0.58798 0.64382
 H1841 H 0.93706 0.64606 0.64031
 H1842 H 0.90388 0.67885 0.67310
 H1843 H 0.83431 0.54881 0.61272
 H1844 H 0.80126 0.58123 0.64718
 H1845 H 0.88209 0.53820 0.58622
 H1846 H 0.94732 0.60079 0.60549
 H1847 H 0.85634 0.69052 0.69521
 H1848 H 0.79042 0.62834 0.68048
 C1849 C 0.62073 0.39159 0.12577
 C1850 C 0.59387 0.38187 0.11555
 C1851 C 0.57522 0.40057 0.09629
 C1852 C 0.58315 0.42886 0.08674
 C1853 C 0.61034 0.43828 0.09659
 C1854 C 0.62920 0.41969 0.11653
 C1855 C 0.64033 0.37187 0.14643
 C1856 C 0.66718 0.38146 0.15714
 C1857 C 0.68581 0.36236 0.17649
 C1858 C 0.67771 0.33381 0.18421
 C1859 C 0.65059 0.32481 0.17350
 C1860 C 0.63183 0.34369 0.15479
 C1861 C 0.65626 0.42854 0.12767
 C1862 C 0.67488 0.40979 0.14772
 C1863 C 0.58609 0.35360 0.12479
 C1864 C 0.60480 0.33479 0.14399
 H1865 H 0.66309 0.45015 0.12088
 H1866 H 0.69554 0.41750 0.15570
 H1867 H 0.56539 0.34592 0.11697
 H1868 H 0.59805 0.31308 0.15037
 H1869 H 0.55448 0.39297 0.08844
 H1870 H 0.61656 0.46005 0.08952
 H1871 H 0.70669 0.36942 0.18451
 H1872 H 0.64403 0.30300 0.17973
 C1873 C 0.37908 0.89506 0.36853
 C1874 C 0.36995 0.92218 0.38206
 C1875 C 0.38889 0.94053 0.40271
 C1876 C 0.41679 0.93187 0.40912
 C1877 C 0.42537 0.90461 0.39498
 C1878 C 0.40668 0.88614 0.37500
 C1879 C 0.35932 0.87543 0.34762
 C1880 C 0.36846 0.84808 0.33536
 C1881 C 0.34952 0.82908 0.31699
 C1882 C 0.32156 0.83714 0.31043
 C1883 C 0.31280 0.86498 0.32170
 C1884 C 0.33163 0.88415 0.34089
 C1885 C 0.41512 0.85879 0.36163
 C1886 C 0.39629 0.84003 0.34227
 C1887 C 0.34210 0.93024 0.37463
 C1888 C 0.32332 0.91161 0.35431
 H1889 H 0.43641 0.85172 0.36649
 H1890 H 0.40355 0.81899 0.33281
 H1891 H 0.33473 0.95109 0.38470
 H1892 H 0.30204 0.91867 0.34942
 H1893 H 0.38208 0.96148 0.41330
 H1894 H 0.44664 0.89749 0.40003
 H1895 H 0.35651 0.80782 0.30802
 H1896 H 0.29126 0.87125 0.31693
 C1897 C 0.12036 0.10880 0.87376
 C1898 C 0.09355 0.11843 0.88436
 C1899 C 0.07506 0.09965 0.90379
 C1900 C 0.08310 0.07135 0.91311
 C1901 C 0.11024 0.06202 0.90290
 C1902 C 0.12894 0.08070 0.88280
 C1903 C 0.13978 0.12861 0.85292
 C1904 C 0.16659 0.11910 0.84184
 C1905 C 0.18506 0.13829 0.82235
 C1906 C 0.17686 0.16684 0.81483
 C1907 C 0.14977 0.17575 0.82588
 C1908 C 0.13117 0.15678 0.84475
 C1909 C 0.15595 0.07194 0.87127
 C1910 C 0.17441 0.09077 0.85105
 C1911 C 0.08564 0.14670 0.87531
 C1912 C 0.10418 0.16559 0.85593
 H1913 H 0.16288 0.05033 0.87788
 H1914 H 0.19503 0.08313 0.84277
 H1915 H 0.06497 0.15431 0.88342
 H1916 H 0.09734 0.18728 0.84969
 H1917 H 0.05436 0.10720 0.91191
 H1918 H 0.11655 0.04024 0.90980
 H1919 H 0.20591 0.13129 0.81409
 H1920 H 0.14313 0.19755 0.81984
 C1921 C 0.12337 0.89329 0.10492
 C1922 C 0.09566 0.88454 0.09871
 C1923 C 0.07676 0.90342 0.08038
 C1924 C 0.08521 0.93099 0.06791
 C1925 C 0.11327 0.93935 0.07349
 C1926 C 0.13244 0.92056 0.09244
 C1927 C 0.14316 0.87349 0.12507
 C1928 C 0.17086 0.88215 0.13208
 C1929 C 0.18954 0.86305 0.15151
 C1930 C 0.18053 0.83541 0.16307
 C1931 C 0.15260 0.82737 0.15578
 C1932 C 0.13389 0.84623 0.13702
 C1933 C 0.16038 0.92845 0.09966
 C1934 C 0.17922 0.90964 0.11922
 C1935 C 0.08722 0.85709 0.11119
 C1936 C 0.10605 0.83822 0.12995
 H1937 H 0.16773 0.94941 0.09029
 H1938 H 0.20051 0.91665 0.12427
 H1939 H 0.06587 0.85015 0.10646
 H1940 H 0.09874 0.81719 0.13911
 H1941 H 0.05536 0.89656 0.07576
 H1942 H 0.11995 0.96054 0.06405
 H1943 H 0.21101 0.86939 0.15686
 H1944 H 0.14528 0.80634 0.16496
 C1945 C 0.87708 0.39727 0.38405
 C1946 C 0.86737 0.42265 0.40277
 C1947 C 0.88664 0.44127 0.42215
 C1948 C 0.91539 0.43462 0.42215
 C1949 C 0.92451 0.40906 0.40295
 C1950 C 0.90556 0.39033 0.38415
 C1951 C 0.85709 0.37736 0.36428
 C1952 C 0.86700 0.35172 0.34670
 C1953 C 0.84804 0.33243 0.32917
 C1954 C 0.81929 0.33850 0.32867
 C1955 C 0.80958 0.36467 0.34538
 C1956 C 0.82851 0.38411 0.36380
 C1957 C 0.91465 0.36465 0.36570
 C1958 C 0.89566 0.34561 0.34739
 C1959 C 0.83861 0.42875 0.40166
 C1960 C 0.81955 0.40988 0.38241
 H1961 H 0.93661 0.35913 0.36567
 H1962 H 0.90348 0.32588 0.33380
 H1963 H 0.83076 0.44825 0.41584
 H1964 H 0.79760 0.41540 0.38240
 H1965 H 0.87938 0.46087 0.43679
 H1966 H 0.94645 0.40341 0.40308
 H1967 H 0.85570 0.31249 0.31595
 H1968 H 0.78743 0.36937 0.34526
 C1969 C 0.37670 0.10370 0.61562
 C1970 C 0.36702 0.07813 0.59741
 C1971 C 0.38630 0.05944 0.57814
 C1972 C 0.41503 0.06621 0.57776
 C1973 C 0.42410 0.09200 0.59638
 C1974 C 0.40515 0.11079 0.61506
 C1975 C 0.35672 0.12363 0.63539
 C1976 C 0.36658 0.14942 0.65255
 C1977 C 0.34763 0.16869 0.67018
 C1978 C 0.31890 0.16245 0.67120
 C1979 C 0.30924 0.13614 0.65485
 C1980 C 0.32817 0.11671 0.63636
 C1981 C 0.41419 0.13666 0.63304
 C1982 C 0.39521 0.15570 0.65137
 C1983 C 0.33830 0.07189 0.59895
 C1984 C 0.31925 0.09078 0.61819
 H1985 H 0.43612 0.14231 0.63272
 H1986 H 0.40300 0.17555 0.66461
 H1987 H 0.33047 0.05224 0.58516
 H1988 H 0.29733 0.08512 0.61856
 H1989 H 0.37906 0.03968 0.56396
 H1990 H 0.44602 0.09775 0.59594
 H1991 H 0.35528 0.18872 0.68309
 H1992 H 0.28713 0.13128 0.65534
 C1993 C 0.62347 0.60661 0.89568
 C1994 C 0.59579 0.61550 0.90179
 C1995 C 0.57671 0.59659 0.91967
 C1996 C 0.58496 0.56890 0.93186
 C1997 C 0.61298 0.56039 0.92630
 C1998 C 0.63232 0.57918 0.90775
 C1999 C 0.64348 0.62644 0.87606
 C2000 C 0.67113 0.61761 0.86906
 C2001 C 0.69000 0.63671 0.85004
 C2002 C 0.68125 0.66451 0.83892
 C2003 C 0.65339 0.67277 0.84632
 C2004 C 0.63447 0.65389 0.86459
 C2005 C 0.66022 0.57113 0.90058
 C2006 C 0.67924 0.58995 0.88147
 C2007 C 0.58761 0.64312 0.88975
 C2008 C 0.60666 0.66204 0.87156
 H2009 H 0.66738 0.55004 0.90963
 H2010 H 0.70049 0.58281 0.87643
 H2011 H 0.56629 0.65018 0.89441
 H2012 H 0.59953 0.68320 0.86275
 H2013 H 0.55534 0.60355 0.92427
 H2014 H 0.61951 0.53910 0.93551
 H2015 H 0.71140 0.63020 0.84460
 H2016 H 0.64628 0.69394 0.83746
 C2017 C 0.37491 0.39517 0.88421
 C2018 C 0.36768 0.42407 0.89027
 C2019 C 0.38790 0.44323 0.90573
 C2020 C 0.41525 0.43358 0.91373
 C2021 C 0.42219 0.40472 0.90637
 C2022 C 0.40206 0.38535 0.89229
 C2023 C 0.35368 0.37470 0.86936
 C2024 C 0.36089 0.34572 0.86465
 C2025 C 0.34087 0.32635 0.85031
 C2026 C 0.31397 0.33574 0.83933
 C2027 C 0.30692 0.36491 0.84410
 C2028 C 0.32671 0.38448 0.85977
 C2029 C 0.40850 0.35624 0.88686
 C2030 C 0.38819 0.33669 0.87351
 C2031 C 0.34036 0.43304 0.88102
 C2032 C 0.32030 0.41364 0.86566
 H2033 H 0.42937 0.34846 0.89322
 H2034 H 0.39395 0.31437 0.86976
 H2035 H 0.33447 0.45526 0.88544
 H2036 H 0.29958 0.42151 0.85853
 H2037 H 0.38247 0.46544 0.91153
 H2038 H 0.44303 0.39705 0.91328
 H2039 H 0.34667 0.30408 0.84591
 H2040 H 0.28626 0.37227 0.83549
 C2041 C 0.87590 0.10519 0.11708
 C2042 C 0.86838 0.07644 0.11028
 C2043 C 0.88852 0.05720 0.09484
 C2044 C 0.91603 0.06659 0.08753
 C2045 C 0.92325 0.09529 0.09569
 C2046 C 0.90323 0.11475 0.10980
 C2047 C 0.85475 0.12578 0.13180
 C2048 C 0.86224 0.15463 0.13720
 C2049 C 0.84227 0.17413 0.15132
 C2050 C 0.81514 0.16496 0.16137
 C2051 C 0.80782 0.13593 0.15597
 C2052 C 0.82756 0.11624 0.14052
 C2053 C 0.90995 0.14374 0.11596
 C2054 C 0.88973 0.16341 0.12920
 C2055 C 0.84087 0.06771 0.11872
 C2056 C 0.82088 0.08722 0.13394
 H2057 H 0.93096 0.15132 0.11022
 H2058 H 0.89571 0.18562 0.13350
 H2059 H 0.83478 0.04560 0.11373
 H2060 H 0.80000 0.07954 0.14040
 H2061 H 0.88286 0.03511 0.08843
 H2062 H 0.94422 0.10280 0.08933
 H2063 H 0.84826 0.19630 0.15624
 H2064 H 0.78698 0.12876 0.16388
 C2065 C 0.62456 0.89152 0.61364
 C2066 C 0.59754 0.88170 0.60454
 C2067 C 0.57755 0.90110 0.59022
 C2068 C 0.58448 0.93005 0.58382
 C2069 C 0.61176 0.93964 0.59273
 C2070 C 0.63183 0.92044 0.60830
 C2071 C 0.64560 0.87106 0.62902
 C2072 C 0.67242 0.88087 0.63961
 C2073 C 0.69200 0.86134 0.65576
 C2074 C 0.68492 0.83217 0.66027
 C2075 C 0.65816 0.82275 0.64828
 C2076 C 0.63834 0.84209 0.63329
 C2077 C 0.65902 0.92942 0.61856
 C2078 C 0.67888 0.91003 0.63426
 C2079 C 0.59107 0.85257 0.60944
 C2080 C 0.61119 0.83306 0.62336
 H2081 H 0.66493 0.95166 0.61472
 H2082 H 0.69947 0.91793 0.64217
 H2083 H 0.57031 0.84476 0.60231
 H2084 H 0.60536 0.81075 0.62672
 H2085 H 0.55678 0.89344 0.58271
 H2086 H 0.61723 0.96191 0.58776
 H2087 H 0.71252 0.86879 0.66503
 H2088 H 0.65227 0.80051 0.65228
 C2089 C 0.12550 0.60863 0.39093
 C2090 C 0.09890 0.61878 0.40187
 C2091 C 0.07881 0.59941 0.41592
 C2092 C 0.08526 0.57016 0.42019
 C2093 C 0.11213 0.56025 0.40963
 C2094 C 0.13228 0.57944 0.39430
 C2095 C 0.14655 0.62902 0.37546
 C2096 C 0.17284 0.61890 0.36281
 C2097 C 0.19230 0.63834 0.34623
 C2098 C 0.18564 0.66771 0.34323
 C2099 C 0.15949 0.67744 0.35747
 C2100 C 0.13976 0.65821 0.37294
 C2101 C 0.15900 0.57016 0.38219
 C2102 C 0.17885 0.58950 0.36640
 C2103 C 0.09293 0.64814 0.39889
 C2104 C 0.11308 0.66757 0.38488
 H2105 H 0.16454 0.54771 0.38454
 H2106 H 0.19906 0.58138 0.35692
 H2107 H 0.07250 0.65619 0.40748
 H2108 H 0.10763 0.69006 0.38292
 H2109 H 0.05834 0.60726 0.42476
 H2110 H 0.11719 0.53773 0.41300
 H2111 H 0.21235 0.63066 0.33527
 H2112 H 0.15391 0.69987 0.35470
   
