data_POSCAR
  _audit_creation_date              2014-09-24
  _audit_creation_method            'ToBaCCo'
  _symmetry_space_group_name_H-M    'P1'
  _symmetry_Int_Tables_number       1
  _symmetry_cell_setting            triclinic
  loop_
  _symmetry_equiv_pos_as_xyz
 x,y,z
_cell_length_a 98.7927
_cell_length_b 98.7167
_cell_length_c 98.5388
_cell_angle_alpha 89.980500
_cell_angle_beta 89.939900
_cell_angle_gamma 89.912100
loop_
  _atom_site_label
  _atom_site_type_symbol
  _atom_site_fract_x
  _atom_site_fract_y
  _atom_site_fract_z
N1 N 0.35410 0.31688 0.32587
 N2 N 0.35346 0.32570 0.31589
 C3 C 0.36372 0.32332 0.30718
 C4 C 0.37116 0.31250 0.31204
 C5 C 0.36482 0.30868 0.32393
 H6 H 0.36568 0.32901 0.29801
 H7 H 0.36767 0.30040 0.33054
 Cu8 Cu 0.33931 0.33943 0.31533
 Cu9 Cu 0.34061 0.31621 0.34024
 Cu10 Cu 0.31510 0.34035 0.33936
 N11 N 0.32538 0.35342 0.31544
 N12 N 0.31580 0.35353 0.32471
 C13 C 0.30739 0.36401 0.32234
 C14 C 0.31203 0.37088 0.31105
 C15 C 0.32346 0.36393 0.30692
 H16 H 0.29865 0.36655 0.32846
 H17 H 0.32983 0.36634 0.29833
 N18 N 0.31618 0.32618 0.35341
 N19 N 0.32602 0.31712 0.35383
 C20 C 0.32397 0.30884 0.36448
 C21 C 0.31229 0.31286 0.37104
 C22 C 0.30760 0.32387 0.36379
 H23 H 0.33036 0.30037 0.36721
 H24 H 0.29856 0.32970 0.36592
 H25 H 0.32500 0.32488 0.32928
 H26 H 0.33565 0.33658 0.33963
 N27 N 0.35394 0.81653 -0.17481
 N28 N 0.35356 0.82544 -0.18473
 C29 C 0.36386 0.82298 -0.19335
 C30 C 0.37112 0.81202 -0.18850
 C31 C 0.36458 0.80819 -0.17669
 H32 H 0.36603 0.82878 -0.20241
 H33 H 0.36725 0.79986 -0.17008
 Cu34 Cu 0.33978 0.83955 -0.18525
 Cu35 Cu 0.34037 0.81609 -0.16048
 Cu36 Cu 0.31569 0.84112 -0.16120
 N37 N 0.32619 0.85386 -0.18521
 N38 N 0.31662 0.85421 -0.17593
 C39 C 0.30840 0.86481 -0.17836
 C40 C 0.31314 0.87155 -0.18971
 C41 C 0.32447 0.86436 -0.19379
 H42 H 0.29969 0.86750 -0.17226
 H43 H 0.33088 0.86658 -0.20241
 N44 N 0.31644 0.82700 -0.14711
 N45 N 0.32574 0.81737 -0.14692
 C46 C 0.32332 0.80910 -0.13631
 C47 C 0.31205 0.81383 -0.12949
 C48 C 0.30796 0.82518 -0.13655
 H49 H 0.32929 0.80030 -0.13370
 H50 H 0.29933 0.83152 -0.13423
 H51 H 0.32508 0.82533 -0.17134
 H52 H 0.33614 0.83657 -0.16094
 N53 N 0.85366 0.31668 -0.17407
 N54 N 0.85365 0.32580 -0.18379
 C55 C 0.86411 0.32334 -0.19222
 C56 C 0.87104 0.31216 -0.18745
 C57 C 0.86418 0.30819 -0.17590
 H58 H 0.86660 0.32925 -0.20112
 H59 H 0.86657 0.29967 -0.16942
 Cu60 Cu 0.84004 0.34008 -0.18441
 Cu61 Cu 0.83986 0.31621 -0.15998
 Cu62 Cu 0.81527 0.34128 -0.16095
 N63 N 0.82625 0.35420 -0.18468
 N64 N 0.81646 0.35441 -0.17565
 C65 C 0.80812 0.36487 -0.17830
 C66 C 0.81304 0.37167 -0.18953
 C67 C 0.82458 0.36466 -0.19333
 H68 H 0.79921 0.36741 -0.17243
 H69 H 0.83114 0.36697 -0.20181
 N70 N 0.81580 0.32711 -0.14689
 N71 N 0.82505 0.31745 -0.14666
 C72 C 0.82255 0.30918 -0.13608
 C73 C 0.81128 0.31394 -0.12931
 C74 C 0.80725 0.32532 -0.13638
 H75 H 0.82850 0.30037 -0.13344
 H76 H 0.79866 0.33172 -0.13408
 H77 H 0.82488 0.32566 -0.17116
 H78 H 0.83571 0.33674 -0.16024
 N79 N 0.85342 0.81647 0.32579
 N80 N 0.85341 0.82580 0.31627
 C81 C 0.86371 0.82337 0.30763
 C82 C 0.87057 0.81200 0.31208
 C83 C 0.86381 0.80789 0.32364
 H84 H 0.86613 0.82942 0.29880
 H85 H 0.86619 0.79921 0.32991
 Cu86 Cu 0.84002 0.84030 0.31610
 Cu87 Cu 0.83974 0.81586 0.33999
 Cu88 Cu 0.81501 0.84078 0.33928
 N89 N 0.82590 0.85409 0.31581
 N90 N 0.81598 0.85400 0.32470
 C91 C 0.80744 0.86428 0.32202
 C92 C 0.81235 0.87127 0.31091
 C93 C 0.82408 0.86455 0.30720
 H94 H 0.79839 0.86657 0.32778
 H95 H 0.83066 0.86701 0.29878
 N96 N 0.81570 0.82658 0.35327
 N97 N 0.82501 0.81698 0.35345
 C98 C 0.82263 0.80870 0.36404
 C99 C 0.81135 0.81339 0.37088
 C100 C 0.80722 0.82474 0.36382
 H101 H 0.82866 0.79994 0.36668
 H102 H 0.79861 0.83109 0.36618
 H103 H 0.82491 0.82545 0.32883
 H104 H 0.83548 0.83631 0.34014
 N105 N 0.64749 0.68513 0.32503
 N106 N 0.64555 0.67412 0.31779
 C107 C 0.63488 0.67604 0.30953
 C108 C 0.62990 0.68895 0.31170
 C109 C 0.63816 0.69447 0.32157
 H110 H 0.63101 0.66860 0.30247
 H111 H 0.63728 0.70444 0.32604
 Cu112 Cu 0.65709 0.65825 0.31968
 Cu113 Cu 0.66143 0.68618 0.33896
 Cu114 Cu 0.68459 0.65996 0.33980
 N115 N 0.67180 0.64521 0.31826
 N116 N 0.68261 0.64606 0.32599
 C117 C 0.69127 0.63606 0.32269
 C118 C 0.68556 0.62852 0.31238
 C119 C 0.67319 0.63457 0.30981
 H120 H 0.70101 0.63438 0.32742
 H121 H 0.66584 0.63155 0.30228
 N122 N 0.68485 0.67500 0.35285
 N123 N 0.67622 0.68520 0.35235
 C124 C 0.67898 0.69384 0.36257
 C125 C 0.68978 0.68873 0.36985
 C126 C 0.69326 0.67680 0.36344
 H127 H 0.67338 0.70300 0.36475
 H128 H 0.70128 0.66992 0.36634
 H129 H 0.67419 0.67382 0.32788
 H130 H 0.66443 0.66571 0.34205
 N131 N 0.64850 0.18495 -0.17560
 N132 N 0.64575 0.17352 -0.18188
 C133 C 0.63438 0.17507 -0.18922
 C134 C 0.62980 0.18818 -0.18749
 C135 C 0.63899 0.19419 -0.17879
 H136 H 0.62993 0.16731 -0.19555
 H137 H 0.63877 0.20450 -0.17506
 Cu138 Cu 0.65761 0.15790 -0.18069
 Cu139 Cu 0.66426 0.18690 -0.16389
 Cu140 Cu 0.68315 0.15782 -0.15852
 N141 N 0.67273 0.14539 -0.18255
 N142 N 0.68306 0.14575 -0.17417
 C143 C 0.69192 0.13593 -0.17755
 C144 C 0.68678 0.12902 -0.18863
 C145 C 0.67459 0.13531 -0.19156
 H146 H 0.70112 0.13364 -0.17203
 H147 H 0.66765 0.13281 -0.19967
 N148 N 0.68519 0.17419 -0.14742
 N149 N 0.67810 0.18535 -0.14950
 C150 C 0.68128 0.19445 -0.13982
 C151 C 0.69079 0.18868 -0.13129
 C152 C 0.69307 0.17586 -0.13642
 H153 H 0.67675 0.20439 -0.13883
 H154 H 0.69976 0.16823 -0.13228
 H155 H 0.67641 0.17160 -0.17207
 H156 H 0.66396 0.16709 -0.15859
 N157 N 0.14712 0.68455 -0.17529
 N158 N 0.14536 0.67352 -0.18256
 C159 C 0.13468 0.67529 -0.19085
 C160 C 0.12949 0.68810 -0.18867
 C161 C 0.13762 0.69374 -0.17875
 H162 H 0.13095 0.66780 -0.19792
 H163 H 0.13654 0.70366 -0.17422
 Cu164 Cu 0.15701 0.65779 -0.18060
 Cu165 Cu 0.16105 0.68579 -0.16134
 Cu166 Cu 0.18446 0.65974 -0.16047
 N167 N 0.17181 0.64487 -0.18200
 N168 N 0.18259 0.64578 -0.17424
 C169 C 0.19128 0.63578 -0.17746
 C170 C 0.18562 0.62819 -0.18777
 C171 C 0.17325 0.63421 -0.19041
 H172 H 0.20099 0.63412 -0.17266
 H173 H 0.16594 0.63115 -0.19796
 N174 N 0.18459 0.67480 -0.14744
 N175 N 0.17587 0.68494 -0.14795
 C176 C 0.17864 0.69366 -0.13780
 C177 C 0.18954 0.68868 -0.13055
 C178 C 0.19305 0.67673 -0.13692
 H179 H 0.17301 0.70281 -0.13565
 H180 H 0.20117 0.66995 -0.13406
 H181 H 0.17389 0.67355 -0.17241
 H182 H 0.16420 0.66535 -0.15822
 N183 N 0.14573 0.18366 0.32651
 N184 N 0.14571 0.17420 0.31712
 C185 C 0.13546 0.17657 0.30843
 C186 C 0.12872 0.18811 0.31265
 C187 C 0.13549 0.19236 0.32415
 H188 H 0.13320 0.17052 0.29957
 H189 H 0.13296 0.20093 0.33053
 Cu190 Cu 0.15928 0.15990 0.31711
 Cu191 Cu 0.15819 0.18304 0.34178
 Cu192 Cu 0.18714 0.16389 0.33599
 N193 N 0.17323 0.14603 0.31770
 N194 N 0.18433 0.14780 0.32484
 C195 C 0.19289 0.13745 0.32243
 C196 C 0.18676 0.12872 0.31335
 C197 C 0.17428 0.13443 0.31060
 H198 H 0.20291 0.13650 0.32673
 H199 H 0.16681 0.13068 0.30352
 N200 N 0.18576 0.17757 0.35056
 N201 N 0.17462 0.18460 0.35289
 C202 C 0.17647 0.19241 0.36392
 C203 C 0.18937 0.19015 0.36879
 C204 C 0.19503 0.18073 0.36008
 H205 H 0.16893 0.19914 0.36820
 H206 H 0.20501 0.17626 0.36081
 H207 H 0.17268 0.17749 0.32835
 H208 H 0.16719 0.16386 0.34020
 N209 N 0.64751 0.31544 0.67510
 N210 N 0.64557 0.32642 0.68242
 C211 C 0.63489 0.32449 0.69069
 C212 C 0.62994 0.31160 0.68846
 C213 C 0.63818 0.30611 0.67854
 H214 H 0.63101 0.33190 0.69778
 H215 H 0.63730 0.29618 0.67401
 Cu216 Cu 0.65707 0.34228 0.68056
 Cu217 Cu 0.66146 0.31440 0.66117
 Cu218 Cu 0.68454 0.34060 0.66034
 N219 N 0.67174 0.35532 0.68194
 N220 N 0.68253 0.35449 0.67416
 C221 C 0.69115 0.36449 0.67743
 C222 C 0.68544 0.37202 0.68777
 C223 C 0.67311 0.36595 0.69040
 H224 H 0.70087 0.36617 0.67266
 H225 H 0.66578 0.36893 0.69800
 N226 N 0.68485 0.32560 0.64724
 N227 N 0.67625 0.31539 0.64777
 C228 C 0.67903 0.30676 0.63755
 C229 C 0.68981 0.31186 0.63023
 C230 C 0.69326 0.32380 0.63663
 H231 H 0.67345 0.29760 0.63537
 H232 H 0.70126 0.33068 0.63370
 H233 H 0.67417 0.32669 0.67221
 H234 H 0.66438 0.33486 0.65811
 N235 N 0.64817 0.81453 1.17499
 N236 N 0.64600 0.82565 1.18201
 C237 C 0.63435 0.82436 1.18900
 C238 C 0.62906 0.81169 1.18633
 C239 C 0.63806 0.80571 1.17740
 H240 H 0.63028 0.83185 1.19589
 H241 H 0.63742 0.79564 1.17313
 Cu242 Cu 0.65946 0.83998 1.18268
 Cu243 Cu 0.66431 0.81217 1.16384
 Cu244 Cu 0.68286 0.84156 1.15826
 N245 N 0.67334 0.85394 1.18277
 N246 N 0.68293 0.85411 1.17351
 C247 C 0.69142 0.86445 1.17609
 C248 C 0.68681 0.87116 1.18751
 C249 C 0.67529 0.86428 1.19147
 H250 H 0.70017 0.86703 1.17000
 H251 H 0.66886 0.86664 1.20003
 N252 N 0.68480 0.82521 1.14705
 N253 N 0.67792 0.81396 1.14926
 C254 C 0.68112 0.80486 1.13958
 C255 C 0.69049 0.81068 1.13095
 C256 C 0.69264 0.82354 1.13600
 H257 H 0.67652 0.79499 1.13852
 H258 H 0.69926 0.83119 1.13181
 H259 H 0.67755 0.82707 1.17161
 H260 H 0.66387 0.83222 1.15963
 N261 N 0.14675 0.31583 1.17448
 N262 N 0.14579 0.32634 1.18264
 C263 C 0.13517 0.32455 1.19104
 C264 C 0.12923 0.31225 1.18798
 C265 C 0.13683 0.30697 1.17745
 H266 H 0.13202 0.33157 1.19885
 H267 H 0.13518 0.29746 1.17227
 Cu268 Cu 0.15894 0.34092 1.18145
 Cu269 Cu 0.16066 0.31451 1.16043
 Cu270 Cu 0.18487 0.34010 1.15969
 N271 N 0.17286 0.35480 1.18196
 N272 N 0.18315 0.35426 1.17349
 C273 C 0.19164 0.36458 1.17617
 C274 C 0.18635 0.37197 1.18686
 C275 C 0.17444 0.36550 1.19029
 H276 H 0.20099 0.36654 1.17079
 H277 H 0.16760 0.36826 1.19842
 N278 N 0.18470 0.32484 1.14666
 N279 N 0.17552 0.31511 1.14700
 C280 C 0.17795 0.30639 1.13676
 C281 C 0.18915 0.31083 1.12967
 C282 C 0.19319 0.32253 1.13619
 H283 H 0.17195 0.29753 1.13449
 H284 H 0.20162 0.32893 1.13339
 H285 H 0.17503 0.32554 1.17085
 H286 H 0.16471 0.33495 1.15816
 N287 N 0.14555 0.81693 0.67336
 N288 N 0.14496 0.82698 0.68211
 C289 C 0.13414 0.82523 0.69024
 C290 C 0.12760 0.81351 0.68635
 C291 C 0.13510 0.80847 0.67562
 H292 H 0.13129 0.83184 0.69853
 H293 H 0.13319 0.79927 0.67002
 Cu294 Cu 0.15909 0.84069 0.68273
 Cu295 Cu 0.15989 0.81555 0.65983
 Cu296 Cu 0.18524 0.83987 0.66101
 N297 N 0.17315 0.85447 0.68316
 N298 N 0.18363 0.85378 0.67495
 C299 C 0.19214 0.86404 0.67774
 C300 C 0.18668 0.87155 0.68824
 C301 C 0.17465 0.86520 0.69148
 H302 H 0.20158 0.86592 0.67254
 H303 H 0.16761 0.86818 0.69936
 N304 N 0.18501 0.82501 0.64763
 N305 N 0.17528 0.81587 0.64707
 C306 C 0.17774 0.80743 0.63661
 C307 C 0.18958 0.81144 0.63033
 C308 C 0.19394 0.82258 0.63757
 H309 H 0.17136 0.79904 0.63367
 H310 H 0.20285 0.82858 0.63549
 H311 H 0.17453 0.82516 0.67125
 H312 H 0.16480 0.83594 0.65918
 N313 N 0.35392 0.68367 0.67402
 N314 N 0.35345 0.67479 0.68395
 C315 C 0.36371 0.67721 0.69261
 C316 C 0.37100 0.68812 0.68776
 C317 C 0.36456 0.69196 0.67593
 H318 H 0.36581 0.67146 0.70171
 H319 H 0.36730 0.70027 0.66934
 Cu320 Cu 0.33959 0.66083 0.68450
 Cu321 Cu 0.34043 0.68419 0.65966
 Cu322 Cu 0.31562 0.65937 0.66036
 N323 N 0.32594 0.64664 0.68445
 N324 N 0.31645 0.64628 0.67511
 C325 C 0.30822 0.63570 0.67755
 C326 C 0.31288 0.62903 0.68896
 C327 C 0.32414 0.63620 0.69308
 H328 H 0.29955 0.63298 0.67145
 H329 H 0.33045 0.63400 0.70177
 N330 N 0.31649 0.67350 0.64625
 N331 N 0.32586 0.68304 0.64607
 C332 C 0.32349 0.69138 0.63551
 C333 C 0.31219 0.68680 0.62869
 C334 C 0.30801 0.67546 0.63573
 H335 H 0.32948 0.70018 0.63295
 H336 H 0.29929 0.66926 0.63346
 H337 H 0.32504 0.67510 0.67047
 H338 H 0.33610 0.66373 0.66016
 N339 N 0.35533 0.18239 1.17312
 N340 N 0.35442 0.17394 1.18340
 C341 C 0.36470 0.17632 1.19205
 C342 C 0.37244 0.18675 1.18686
 C343 C 0.36626 0.19034 1.17481
 H344 H 0.36641 0.17097 1.20148
 H345 H 0.36928 0.19839 1.16801
 Cu346 Cu 0.33982 0.16076 1.18447
 Cu347 Cu 0.34164 0.18329 1.15897
 Cu348 Cu 0.31490 0.16064 1.16123
 N349 N 0.32542 0.14734 1.18494
 N350 N 0.31551 0.14756 1.17603
 C351 C 0.30693 0.13731 1.17868
 C352 C 0.31179 0.13024 1.18977
 C353 C 0.32353 0.13685 1.19348
 H354 H 0.29798 0.13498 1.17282
 H355 H 0.33019 0.13415 1.20176
 N356 N 0.31625 0.17454 1.14691
 N357 N 0.32673 0.18276 1.14575
 C358 C 0.32493 0.19075 1.13483
 C359 C 0.31273 0.18748 1.12889
 C360 C 0.30746 0.17719 1.13679
 H361 H 0.33184 0.19859 1.13155
 H362 H 0.29795 0.17201 1.13521
 H363 H 0.32591 0.17578 1.17058
 H364 H 0.33559 0.16323 1.16022
 N365 N 0.85364 0.68424 1.17471
 N366 N 0.85334 0.67516 1.18447
 C367 C 0.86361 0.67757 1.19312
 C368 C 0.87072 0.68867 1.18845
 C369 C 0.86417 0.69264 1.17673
 H370 H 0.86585 0.67167 1.20209
 H371 H 0.86678 0.70110 1.17026
 Cu372 Cu 0.83964 0.66103 1.18484
 Cu373 Cu 0.84013 0.68477 1.16036
 Cu374 Cu 0.81564 0.65967 1.16072
 N375 N 0.82613 0.64669 1.18461
 N376 N 0.81661 0.64639 1.17530
 C377 C 0.80837 0.63581 1.17772
 C378 C 0.81306 0.62906 1.18906
 C379 C 0.82436 0.63619 1.19318
 H380 H 0.79962 0.63318 1.17168
 H381 H 0.83066 0.63398 1.20187
 N382 N 0.81635 0.67399 1.14680
 N383 N 0.82560 0.68364 1.14675
 C384 C 0.82324 0.69200 1.13621
 C385 C 0.81206 0.68733 1.12926
 C386 C 0.80795 0.67589 1.13620
 H387 H 0.82921 0.70082 1.13370
 H388 H 0.79940 0.66954 1.13375
 H389 H 0.82485 0.67539 1.17117
 H390 H 0.83603 0.66430 1.16064
 N391 N 0.85310 0.18457 0.67432
 N392 N 0.85241 0.17609 0.68458
 C393 C 0.86256 0.17879 0.69329
 C394 C 0.87000 0.18945 0.68813
 C395 C 0.86374 0.19288 0.67608
 H396 H 0.86454 0.17332 0.70259
 H397 H 0.86670 0.20084 0.66915
 Cu398 Cu 0.83863 0.16205 0.68552
 Cu399 Cu 0.84009 0.18433 0.65958
 Cu400 Cu 0.81642 0.15853 0.65973
 N401 N 0.82584 0.14709 0.68479
 N402 N 0.81712 0.14585 0.67479
 C403 C 0.80928 0.13495 0.67706
 C404 C 0.81337 0.12899 0.68906
 C405 C 0.82392 0.13689 0.69369
 H406 H 0.80118 0.13159 0.67050
 H407 H 0.82961 0.13542 0.70295
 N408 N 0.81728 0.17239 0.64538
 N409 N 0.82610 0.18241 0.64552
 C410 C 0.82366 0.19063 0.63489
 C411 C 0.81285 0.18548 0.62771
 C412 C 0.80907 0.17389 0.63457
 H413 H 0.82921 0.19978 0.63259
 H414 H 0.80073 0.16728 0.63205
 H415 H 0.82442 0.17502 0.66985
 H416 H 0.83670 0.16373 0.66087
 N417 N 0.31637 0.35352 0.67491
 N418 N 0.32605 0.35343 0.68410
 C419 C 0.32418 0.36392 0.69263
 C420 C 0.31270 0.37087 0.68865
 C421 C 0.30799 0.36400 0.67740
 H422 H 0.33059 0.36634 0.70120
 H423 H 0.29918 0.36652 0.67139
 Cu424 Cu 0.33997 0.33947 0.68401
 Cu425 Cu 0.31556 0.34028 0.66028
 Cu426 Cu 0.34079 0.31582 0.65956
 N427 N 0.35380 0.32544 0.68377
 N428 N 0.35426 0.31642 0.67392
 C429 C 0.36485 0.30809 0.67599
 C430 C 0.37129 0.31199 0.68778
 C431 C 0.36402 0.32301 0.69247
 H432 H 0.36757 0.29968 0.66948
 H433 H 0.36613 0.32882 0.70154
 N434 N 0.32623 0.31682 0.64594
 N435 N 0.31653 0.32602 0.64627
 C436 C 0.30797 0.32378 0.63586
 C437 C 0.31254 0.31264 0.62870
 C438 C 0.32411 0.30849 0.63534
 H439 H 0.29905 0.32973 0.63364
 H440 H 0.33041 0.29993 0.63268
 H441 H 0.32539 0.32485 0.67051
 H442 H 0.33605 0.33621 0.65980
 N443 N 0.31646 0.85422 0.17478
 N444 N 0.32609 0.85391 0.18399
 C445 C 0.32431 0.86437 0.19259
 C446 C 0.31293 0.87147 0.18860
 C447 C 0.30819 0.86476 0.17728
 H448 H 0.33072 0.86660 0.20119
 H449 H 0.29941 0.86743 0.17128
 Cu450 Cu 0.33977 0.83970 0.18390
 Cu451 Cu 0.31542 0.84108 0.16011
 Cu452 Cu 0.33986 0.81582 0.15959
 N453 N 0.35333 0.82538 0.18356
 N454 N 0.35349 0.81624 0.17384
 C455 C 0.36392 0.80768 0.17590
 C456 C 0.37057 0.81162 0.18757
 C457 C 0.36359 0.82285 0.19219
 H458 H 0.36639 0.79910 0.16951
 H459 H 0.36589 0.82875 0.20112
 N460 N 0.32524 0.81709 0.14606
 N461 N 0.31608 0.82686 0.14612
 C462 C 0.30763 0.82507 0.13555
 C463 C 0.31161 0.81359 0.12860
 C464 C 0.32277 0.80877 0.13552
 H465 H 0.29912 0.83152 0.13314
 H466 H 0.32865 0.79988 0.13300
 H467 H 0.32468 0.82551 0.17050
 H468 H 0.33575 0.83643 0.15974
 N469 N 0.81647 0.35431 0.17463
 N470 N 0.82625 0.35415 0.18368
 C471 C 0.82446 0.36456 0.19234
 C472 C 0.81293 0.37151 0.18853
 C473 C 0.80810 0.36474 0.17728
 H474 H 0.83094 0.36686 0.20087
 H475 H 0.79918 0.36727 0.17143
 Cu476 Cu 0.84012 0.34013 0.18345
 Cu477 Cu 0.81539 0.34112 0.16004
 Cu478 Cu 0.83979 0.31584 0.15950
 N479 N 0.85339 0.32556 0.18331
 N480 N 0.85340 0.31627 0.17375
 C481 C 0.86374 0.30763 0.17588
 C482 C 0.87047 0.31167 0.18748
 C483 C 0.86365 0.32304 0.19195
 H484 H 0.86613 0.29899 0.16956
 H485 H 0.86610 0.32907 0.20077
 N486 N 0.82517 0.31714 0.14598
 N487 N 0.81599 0.32687 0.14607
 C488 C 0.80754 0.32508 0.13550
 C489 C 0.81155 0.31363 0.12853
 C490 C 0.82272 0.30883 0.13543
 H491 H 0.79901 0.33152 0.13309
 H492 H 0.82862 0.29995 0.13289
 H493 H 0.82492 0.32560 0.17052
 H494 H 0.83579 0.33635 0.15937
 N495 N 0.81637 0.85436 0.67488
 N496 N 0.82642 0.85462 0.68360
 C497 C 0.82453 0.86502 0.69226
 C498 C 0.81266 0.87154 0.68877
 C499 C 0.80770 0.86450 0.67773
 H500 H 0.83120 0.86760 0.70055
 H501 H 0.79853 0.86667 0.67215
 Cu502 Cu 0.84093 0.84130 0.68313
 Cu503 Cu 0.81545 0.84108 0.66037
 Cu504 Cu 0.84003 0.81603 0.66003
 N505 N 0.85396 0.82653 0.68328
 N506 N 0.85364 0.81672 0.67427
 C507 C 0.86380 0.80797 0.67682
 C508 C 0.87081 0.81255 0.68804
 C509 C 0.86431 0.82432 0.69190
 H510 H 0.86592 0.79894 0.67097
 H511 H 0.86694 0.83078 0.70036
 N512 N 0.82542 0.81710 0.64647
 N513 N 0.81619 0.82679 0.64648
 C514 C 0.80781 0.82494 0.63588
 C515 C 0.81191 0.81350 0.62895
 C516 C 0.82307 0.80876 0.63592
 H517 H 0.79928 0.83135 0.63340
 H518 H 0.82906 0.79993 0.63341
 H519 H 0.82547 0.82612 0.67125
 H520 H 0.83590 0.83651 0.65931
 N521 N 0.68267 0.64595 0.67411
 N522 N 0.67252 0.64579 0.68274
 C523 C 0.67444 0.63570 0.69174
 C524 C 0.68648 0.62927 0.68859
 C525 C 0.69147 0.63605 0.67738
 H526 H 0.66750 0.63310 0.69982
 H527 H 0.70061 0.63369 0.67178
 Cu528 Cu 0.65749 0.65844 0.68108
 Cu529 Cu 0.68273 0.65807 0.65852
 Cu530 Cu 0.66398 0.68726 0.66385
 N531 N 0.64561 0.67408 0.68217
 N532 N 0.64830 0.68543 0.67572
 C533 C 0.63879 0.69470 0.67886
 C534 C 0.62965 0.68878 0.68768
 C535 C 0.63426 0.67569 0.68954
 H536 H 0.63854 0.70495 0.67499
 H537 H 0.62985 0.66800 0.69599
 N538 N 0.67772 0.68557 0.64936
 N539 N 0.68474 0.67437 0.64728
 C540 C 0.69267 0.67601 0.63629
 C541 C 0.69044 0.68883 0.63114
 C542 C 0.68093 0.69463 0.63965
 H543 H 0.69938 0.66836 0.63220
 H544 H 0.67629 0.70449 0.63852
 H545 H 0.67627 0.67191 0.67205
 H546 H 0.66366 0.66735 0.65876
 N547 N 0.68197 0.14457 0.17286
 N548 N 0.67315 0.14551 0.18281
 C549 C 0.67504 0.13508 0.19144
 C550 C 0.68563 0.12728 0.18663
 C551 C 0.68977 0.13355 0.17480
 H552 H 0.66934 0.13339 0.20066
 H553 H 0.69807 0.13052 0.16832
 Cu554 Cu 0.66046 0.16056 0.18376
 Cu555 Cu 0.68338 0.15823 0.15871
 Cu556 Cu 0.66132 0.18560 0.16064
 N557 N 0.64759 0.17547 0.18425
 N558 N 0.64822 0.18544 0.17542
 C559 C 0.63824 0.19437 0.17804
 C560 C 0.63092 0.18966 0.18902
 C561 C 0.63708 0.17764 0.19268
 H562 H 0.63624 0.20343 0.17221
 H563 H 0.63404 0.17095 0.20082
 N564 N 0.67524 0.18377 0.14641
 N565 N 0.68332 0.17314 0.14543
 C566 C 0.69144 0.17471 0.13456
 C567 C 0.68836 0.18692 0.12848
 C568 C 0.67808 0.19242 0.13622
 H569 H 0.69917 0.16763 0.13138
 H570 H 0.67306 0.20201 0.13452
 H571 H 0.67599 0.17417 0.17015
 H572 H 0.66342 0.16482 0.15958
 N573 N 0.18191 0.64508 0.17260
 N574 N 0.17245 0.64547 0.18197
 C575 C 0.17431 0.63504 0.19060
 C576 C 0.18555 0.62781 0.18639
 C577 C 0.19011 0.63443 0.17493
 H578 H 0.16815 0.63297 0.19943
 H579 H 0.19887 0.63182 0.16888
 Cu580 Cu 0.15897 0.65989 0.18245
 Cu581 Cu 0.18338 0.65879 0.15855
 Cu582 Cu 0.16116 0.68592 0.16034
 N583 N 0.14674 0.67534 0.18329
 N584 N 0.14787 0.68566 0.17492
 C585 C 0.13824 0.69489 0.17787
 C586 C 0.13065 0.69003 0.18860
 C587 C 0.13630 0.67762 0.19178
 H588 H 0.13667 0.70428 0.17242
 H589 H 0.13297 0.67078 0.19967
 N590 N 0.17523 0.68425 0.14622
 N591 N 0.18338 0.67368 0.14530
 C592 C 0.19151 0.67526 0.13445
 C593 C 0.18839 0.68743 0.12831
 C594 C 0.17805 0.69289 0.13601
 H595 H 0.19927 0.66819 0.13130
 H596 H 0.17292 0.70241 0.13422
 H597 H 0.17518 0.67410 0.17039
 H598 H 0.16332 0.66521 0.15862
 N599 N 0.18338 0.14669 0.67505
 N600 N 0.17239 0.14536 0.68248
 C601 C 0.17396 0.13476 0.69094
 C602 C 0.18662 0.12922 0.68871
 C603 C 0.19233 0.13703 0.67858
 H604 H 0.16645 0.13131 0.69816
 H605 H 0.20219 0.13564 0.67399
 Cu606 Cu 0.15701 0.15748 0.68041
 Cu607 Cu 0.18500 0.16038 0.66090
 Cu608 Cu 0.15943 0.18423 0.65937
 N609 N 0.14433 0.17255 0.68132
 N610 N 0.14532 0.18294 0.67304
 C611 C 0.13545 0.19190 0.67589
 C612 C 0.12787 0.18685 0.68652
 C613 C 0.13376 0.17454 0.68974
 H614 H 0.13394 0.20143 0.67069
 H615 H 0.13064 0.16762 0.69767
 N616 N 0.17460 0.18385 0.64649
 N617 N 0.18461 0.17501 0.64727
 C618 C 0.19355 0.17759 0.63725
 C619 C 0.18882 0.18849 0.62981
 C620 C 0.17681 0.19218 0.63592
 H621 H 0.20269 0.17186 0.63534
 H622 H 0.17019 0.20037 0.63288
 H623 H 0.17312 0.17381 0.67159
 H624 H 0.16472 0.16385 0.65778
 N625 N 0.31669 0.64593 0.32506
 N626 N 0.32591 0.64652 0.31545
 C627 C 0.32417 0.63601 0.30691
 C628 C 0.31317 0.62858 0.31134
 C629 C 0.30869 0.63512 0.32289
 H630 H 0.33025 0.63403 0.29801
 H631 H 0.30026 0.63219 0.32923
 Cu632 Cu 0.33910 0.66112 0.31467
 Cu633 Cu 0.31582 0.65911 0.33969
 Cu634 Cu 0.34013 0.68432 0.33978
 N635 N 0.35305 0.67499 0.31545
 N636 N 0.35358 0.68385 0.32539
 C637 C 0.36430 0.69204 0.32349
 C638 C 0.37073 0.68819 0.31165
 C639 C 0.36335 0.67735 0.30680
 H640 H 0.36714 0.70027 0.33013
 H641 H 0.36540 0.67162 0.29769
 N642 N 0.32569 0.68316 0.35349
 N643 N 0.31659 0.67338 0.35362
 C644 C 0.30820 0.67529 0.36424
 C645 C 0.31214 0.68686 0.37100
 C646 C 0.32323 0.69162 0.36394
 H647 H 0.29969 0.66889 0.36677
 H648 H 0.32906 0.70059 0.36627
 H649 H 0.32464 0.67496 0.32935
 H650 H 0.33629 0.66368 0.33914
 N651 N 0.31528 0.14809 0.82320
 N652 N 0.32606 0.14666 0.81549
 C653 C 0.32477 0.13536 0.80796
 C654 C 0.31244 0.12949 0.81102
 C655 C 0.30665 0.13784 0.82069
 H656 H 0.33222 0.13167 0.80079
 H657 H 0.29683 0.13662 0.82543
 Cu658 Cu 0.34030 0.16021 0.81539
 Cu659 Cu 0.31350 0.16316 0.83597
 Cu660 Cu 0.34402 0.17905 0.84336
 N661 N 0.35399 0.17431 0.81641
 N662 N 0.35569 0.18142 0.82756
 C663 C 0.36632 0.18979 0.82592
 C664 C 0.37139 0.18794 0.81297
 C665 C 0.36334 0.17806 0.80720
 H666 H 0.37000 0.19673 0.83355
 H667 H 0.36443 0.17371 0.79718
 N668 N 0.32786 0.18044 0.85498
 N669 N 0.31605 0.17502 0.85185
 C670 C 0.30682 0.17883 0.86117
 C671 C 0.31318 0.18695 0.87063
 C672 C 0.32650 0.18772 0.86644
 H673 H 0.29624 0.17603 0.86101
 H674 H 0.33456 0.19337 0.87122
 H675 H 0.32861 0.17664 0.82973
 H676 H 0.33344 0.16094 0.83916
 N677 N 0.81648 0.64638 0.82421
 N678 N 0.82745 0.64505 0.81676
 C679 C 0.82585 0.63453 0.80821
 C680 C 0.81317 0.62904 0.81042
 C681 C 0.80748 0.63681 0.82061
 H682 H 0.83333 0.63112 0.80095
 H683 H 0.79762 0.63545 0.82519
 Cu684 Cu 0.84288 0.65705 0.81897
 Cu685 Cu 0.81496 0.65996 0.83845
 Cu686 Cu 0.84031 0.68400 0.83984
 N687 N 0.85555 0.67207 0.81806
 N688 N 0.85446 0.68263 0.82612
 C689 C 0.86434 0.69153 0.82315
 C690 C 0.87203 0.68621 0.81270
 C691 C 0.86620 0.67385 0.80972
 H692 H 0.86584 0.70114 0.82820
 H693 H 0.86936 0.66679 0.80194
 N694 N 0.82509 0.68357 0.85276
 N695 N 0.81534 0.67446 0.85216
 C696 C 0.80650 0.67674 0.86233
 C697 C 0.81092 0.68780 0.86965
 C698 C 0.82272 0.69189 0.86334
 H699 H 0.79760 0.67073 0.86439
 H700 H 0.82914 0.70023 0.86634
 H701 H 0.82682 0.67353 0.82770
 H702 H 0.83532 0.66368 0.84156
 N703 N 0.81666 0.14560 0.32516
 N704 N 0.82594 0.14615 0.31559
 C705 C 0.82408 0.13574 0.30696
 C706 C 0.81298 0.12841 0.31131
 C707 C 0.80851 0.13493 0.32287
 H708 H 0.83020 0.13368 0.29809
 H709 H 0.80000 0.13208 0.32915
 Cu710 Cu 0.83932 0.16061 0.31521
 Cu711 Cu 0.81581 0.15869 0.33986
 Cu712 Cu 0.84000 0.18410 0.33995
 N713 N 0.85299 0.17479 0.31558
 N714 N 0.85336 0.18376 0.32544
 C715 C 0.86390 0.19215 0.32343
 C716 C 0.87041 0.18828 0.31163
 C717 C 0.86323 0.17726 0.30689
 H718 H 0.86659 0.20050 0.33000
 H719 H 0.86544 0.17143 0.29787
 N720 N 0.82561 0.18270 0.35376
 N721 N 0.81656 0.17287 0.35386
 C722 C 0.80822 0.17463 0.36453
 C723 C 0.81215 0.18616 0.37138
 C724 C 0.82317 0.19104 0.36431
 H725 H 0.79975 0.16817 0.36705
 H726 H 0.82895 0.20003 0.36669
 H727 H 0.82464 0.17460 0.32944
 H728 H 0.83618 0.16357 0.33960
 N729 N 0.68252 0.35446 0.32583
 N730 N 0.67173 0.35530 0.31808
 C731 C 0.67307 0.36596 0.30964
 C732 C 0.68540 0.37204 0.31225
 C733 C 0.69113 0.36448 0.32256
 H734 H 0.66573 0.36896 0.30207
 H735 H 0.70085 0.36617 0.32731
 Cu736 Cu 0.65707 0.34224 0.31949
 Cu737 Cu 0.68454 0.34057 0.33966
 Cu738 Cu 0.66151 0.31430 0.33877
 N739 N 0.64565 0.32636 0.31754
 N740 N 0.64762 0.31534 0.32479
 C741 C 0.63830 0.30602 0.32135
 C742 C 0.63003 0.31154 0.31148
 C743 C 0.63497 0.32445 0.30930
 H744 H 0.63741 0.29608 0.32588
 H745 H 0.63104 0.33191 0.30228
 N746 N 0.67624 0.31532 0.35220
 N747 N 0.68482 0.32554 0.35274
 C748 C 0.69321 0.32373 0.36334
 C749 C 0.68979 0.31177 0.36971
 C750 C 0.67902 0.30666 0.36240
 H751 H 0.70120 0.33062 0.36625
 H752 H 0.67347 0.29747 0.36454
 H753 H 0.67422 0.32669 0.32773
 H754 H 0.66439 0.33478 0.34189
 N755 N 0.68244 0.85466 0.82609
 N756 N 0.67239 0.85482 0.81733
 C757 C 0.67392 0.86557 0.80902
 C758 C 0.68554 0.87237 0.81275
 C759 C 0.69068 0.86517 0.82362
 H760 H 0.66734 0.86803 0.80062
 H761 H 0.69979 0.86746 0.82926
 Cu762 Cu 0.65908 0.84033 0.81691
 Cu763 Cu 0.68421 0.84061 0.83986
 Cu764 Cu 0.66070 0.81455 0.83921
 N765 N 0.64565 0.82595 0.81701
 N766 N 0.64664 0.81560 0.82539
 C767 C 0.63662 0.80679 0.82281
 C768 C 0.62889 0.81189 0.81230
 C769 C 0.63485 0.82406 0.80888
 H770 H 0.63493 0.79742 0.82826
 H771 H 0.63172 0.83086 0.80089
 N772 N 0.67563 0.81540 0.85247
 N773 N 0.68436 0.82551 0.85292
 C774 C 0.69287 0.82353 0.86340
 C775 C 0.68939 0.81157 0.86977
 C776 C 0.67846 0.80665 0.86259
 H777 H 0.70100 0.83026 0.86625
 H778 H 0.67285 0.79751 0.86477
 H779 H 0.67504 0.82546 0.82866
 H780 H 0.66399 0.83512 0.84061
 N781 N 0.18318 0.35367 0.82518
 N782 N 0.17335 0.35369 0.81619
 C783 C 0.17510 0.36423 0.80767
 C784 C 0.18666 0.37107 0.81150
 C785 C 0.19156 0.36410 0.82263
 H786 H 0.16854 0.36671 0.79924
 H787 H 0.20049 0.36652 0.82848
 Cu788 Cu 0.15945 0.33974 0.81635
 Cu789 Cu 0.18425 0.34032 0.83972
 Cu790 Cu 0.15885 0.31611 0.84083
 N791 N 0.14540 0.32595 0.81696
 N792 N 0.14511 0.31690 0.82675
 C793 C 0.13450 0.30858 0.82486
 C794 C 0.12785 0.31258 0.81321
 C795 C 0.13501 0.32362 0.80843
 H796 H 0.13195 0.30009 0.83131
 H797 H 0.13280 0.32944 0.79940
 N798 N 0.17367 0.31689 0.85414
 N799 N 0.18346 0.32597 0.85364
 C800 C 0.19221 0.32357 0.86386
 C801 C 0.18766 0.31247 0.87108
 C802 C 0.17591 0.30850 0.86467
 H803 H 0.20122 0.32940 0.86593
 H804 H 0.16957 0.30003 0.86744
 H805 H 0.17419 0.32502 0.82967
 H806 H 0.16374 0.33650 0.84050
 N807 N 0.18243 0.85464 0.32620
 N808 N 0.17297 0.85429 0.31681
 C809 C 0.17478 0.86474 0.30821
 C810 C 0.18609 0.87185 0.31233
 C811 C 0.19069 0.86519 0.32378
 H812 H 0.16836 0.86706 0.29963
 H813 H 0.19930 0.86790 0.32999
 Cu814 Cu 0.15951 0.83997 0.31683
 Cu815 Cu 0.18254 0.84194 0.34140
 Cu816 Cu 0.16413 0.81237 0.33577
 N817 N 0.14595 0.82576 0.31736
 N818 N 0.14802 0.81471 0.32453
 C819 C 0.13786 0.80593 0.32223
 C820 C 0.12892 0.81189 0.31323
 C821 C 0.13432 0.82448 0.31039
 H822 H 0.13712 0.79592 0.32662
 H823 H 0.13029 0.83193 0.30342
 N824 N 0.17771 0.81421 0.35034
 N825 N 0.18452 0.82550 0.35257
 C826 C 0.19247 0.82378 0.36352
 C827 C 0.19048 0.81085 0.36847
 C828 C 0.18108 0.80504 0.35990
 H829 H 0.19910 0.83143 0.36767
 H830 H 0.17660 0.79510 0.36092
 H831 H 0.17758 0.82729 0.32813
 H832 H 0.16371 0.83245 0.33990
 C833 C 0.25560 1.01270 0.24646
 C834 C 0.24338 1.01265 0.25398
 C835 C 0.23730 1.00024 0.25731
 C836 C 0.24336 0.98788 0.25375
 C837 C 0.25566 0.98793 0.24639
 C838 C 0.26170 1.00033 0.24298
 H839 H 0.27089 1.00036 0.23695
 H840 H 0.22812 1.00019 0.26335
 C841 C 0.25595 0.51239 0.74654
 C842 C 0.24360 0.51239 0.75383
 C843 C 0.23752 0.50002 0.75723
 C844 C 0.24365 0.48764 0.75387
 C845 C 0.25597 0.48763 0.74654
 C846 C 0.26207 0.50000 0.74316
 H847 H 0.27132 0.49999 0.73722
 H848 H 0.22826 0.50001 0.76315
 C849 C 0.75572 -0.01259 0.25373
 C850 C 0.74365 -0.01265 0.24599
 C851 C 0.73770 -0.00028 0.24227
 C852 C 0.74361 0.01207 0.24593
 C853 C 0.75566 0.01217 0.25362
 C854 C 0.76169 -0.00019 0.25726
 H855 H 0.77077 -0.00015 0.26343
 H856 H 0.72869 -0.00024 0.23600
 C857 C 0.75598 0.48762 0.75321
 C858 C 0.74359 0.48763 0.74602
 C859 C 0.73744 0.50003 0.74272
 C860 C 0.74352 0.51241 0.74609
 C861 C 0.75591 0.51240 0.75330
 C862 C 0.76208 0.50000 0.75656
 H863 H 0.77139 0.49998 0.76239
 H864 H 0.72815 0.50004 0.73687
 C865 C 0.25549 0.48781 0.25349
 C866 C 0.24325 0.48783 0.24605
 C867 C 0.23721 0.50023 0.24257
 C868 C 0.24339 0.51256 0.24588
 C869 C 0.25570 0.51257 0.25319
 C870 C 0.26166 0.50018 0.25680
 H871 H 0.27084 0.50019 0.26282
 H872 H 0.22799 0.50028 0.23660
 C873 C 0.75568 1.01276 0.74667
 C874 C 0.74335 1.01287 0.75398
 C875 C 0.73720 1.00053 0.75743
 C876 C 0.74324 0.98810 0.75409
 C877 C 0.75554 0.98800 0.74672
 C878 C 0.76170 1.00033 0.74328
 H879 H 0.77093 1.00026 0.73731
 H880 H 0.72796 1.00060 0.76338
 C881 C 0.75579 0.51256 0.24678
 C882 C 0.74340 0.51261 0.25401
 C883 C 0.73725 0.50025 0.25737
 C884 C 0.74332 0.48784 0.25400
 C885 C 0.75571 0.48779 0.24677
 C886 C 0.76189 0.50015 0.24346
 H887 H 0.77120 0.50011 0.23761
 H888 H 0.72798 0.50028 0.26326
 C889 C 0.25634 -0.01217 0.75348
 C890 C 0.24409 -0.01224 0.74605
 C891 C 0.23797 0.00013 0.74261
 C892 C 0.24399 0.01254 0.74601
 C893 C 0.25624 0.01258 0.75344
 C894 C 0.26236 0.00022 0.75692
 H895 H 0.27152 0.00022 0.76297
 H896 H 0.22876 0.00012 0.73664
 C897 C 0.24400 0.25300 1.01194
 C898 C 0.25587 0.24502 1.01193
 C899 C 0.26181 0.24141 0.99949
 C900 C 0.25602 0.24539 0.98709
 C901 C 0.24410 0.25337 0.98721
 C902 C 0.23810 0.25686 0.99963
 H903 H 0.22917 0.26328 0.99972
 H904 H 0.27075 0.23502 0.99947
 C905 C 0.24653 0.75643 0.51222
 C906 C 0.25460 0.74463 0.51228
 C907 C 0.25824 0.73864 0.49990
 C908 C 0.25433 0.74441 0.48748
 C909 C 0.24612 0.75618 0.48745
 C910 C 0.24239 0.76208 0.49986
 H911 H 0.23580 0.77088 0.49994
 H912 H 0.26465 0.72971 0.49992
 C913 C 0.25410 0.75665 -0.01296
 C914 C 0.24668 0.74441 -0.01298
 C915 C 0.24329 0.73829 -0.00058
 C916 C 0.24676 0.74432 0.01183
 C917 C 0.25416 0.75659 0.01183
 C918 C 0.25754 0.76271 -0.00056
 H919 H 0.26350 0.77192 -0.00056
 H920 H 0.23730 0.72909 -0.00059
 C921 C 0.25636 0.25385 0.48748
 C922 C 0.24455 0.24575 0.48751
 C923 C 0.23876 0.24200 0.49997
 C924 C 0.24465 0.24586 0.51233
 C925 C 0.25645 0.25393 0.51222
 C926 C 0.26231 0.25763 0.49982
 H927 H 0.27117 0.26412 0.49979
 H928 H 0.22993 0.23549 0.50006
 C929 C 0.74605 0.75544 1.01219
 C930 C 0.75407 0.74354 1.01225
 C931 C 0.75781 0.73757 0.99988
 C932 C 0.75405 0.74341 0.98749
 C933 C 0.74615 0.75533 0.98737
 C934 C 0.74237 0.76129 0.99973
 H935 H 0.73599 0.77024 0.99966
 H936 H 0.76425 0.72866 0.99987
 C937 C 0.74636 0.25583 0.51235
 C938 C 0.75378 0.24356 0.51232
 C939 C 0.75723 0.23751 0.49992
 C940 C 0.75380 0.24361 0.48754
 C941 C 0.74636 0.25586 0.48756
 C942 C 0.74294 0.26195 0.49996
 H943 H 0.73695 0.27116 0.49998
 H944 H 0.76325 0.22831 0.49990
 C945 C 0.75359 0.25654 -0.01277
 C946 C 0.74616 0.24429 -0.01274
 C947 C 0.74285 0.23820 -0.00031
 C948 C 0.74636 0.24426 0.01207
 C949 C 0.75377 0.25651 0.01202
 C950 C 0.75711 0.26260 -0.00039
 H951 H 0.76312 0.27178 -0.00043
 H952 H 0.73686 0.22901 -0.00027
 C953 C 0.75378 0.75657 0.48779
 C954 C 0.74625 0.74440 0.48777
 C955 C 0.74272 0.73835 0.50016
 C956 C 0.74618 0.74438 0.51258
 C957 C 0.75371 0.75656 0.51258
 C958 C 0.75723 0.76261 0.50019
 H959 H 0.76332 0.77174 0.50020
 H960 H 0.73662 0.72923 0.50013
 C961 C 1.01221 0.24508 0.25480
 C962 C 1.01223 0.25539 0.24483
 C963 C 0.99985 0.26026 0.23983
 C964 C 0.98747 0.25525 0.24469
 C965 C 0.98746 0.24528 0.25499
 C966 C 0.99984 0.24024 0.25982
 H967 H 0.99985 0.23245 0.26758
 H968 H 0.99985 0.26804 0.23206
 C969 C 0.51270 0.24471 0.75528
 C970 C 0.51276 0.25474 0.74502
 C971 C 0.50039 0.25958 0.73995
 C972 C 0.48799 0.25482 0.74497
 C973 C 0.48792 0.24503 0.75545
 C974 C 0.50028 0.24005 0.76039
 H975 H 0.50023 0.23244 0.76833
 H976 H 0.50043 0.26720 0.73202
 C977 C -0.01242 0.25428 0.75555
 C978 C -0.01248 0.24604 0.74379
 C979 C -0.00013 0.24216 0.73791
 C980 C 0.01222 0.24618 0.74356
 C981 C 0.01231 0.25437 0.75529
 C982 C -0.00002 0.25817 0.76126
 H983 H 0.00004 0.26470 0.77011
 H984 H -0.00011 0.23554 0.72912
 C985 C 0.48789 0.25504 0.25517
 C986 C 0.48798 0.24521 0.24473
 C987 C 0.50040 0.24032 0.23986
 C988 C 0.51272 0.24508 0.24504
 C989 C 0.51264 0.25515 0.25523
 C990 C 0.50022 0.25994 0.26022
 H991 H 0.50015 0.26759 0.26812
 H992 H 0.50049 0.23271 0.23192
 C993 C 1.01223 0.74468 0.75442
 C994 C 1.01219 0.75655 0.74635
 C995 C 0.99979 0.76241 0.74261
 C996 C 0.98748 0.75647 0.74637
 C997 C 0.98747 0.74456 0.75429
 C998 C 0.99986 0.73874 0.75813
 H999 H 0.99987 0.72981 0.76453
 H1000 H 0.99970 0.77131 0.73614
 C1001 C 0.51254 0.74552 0.25506
 C1002 C 0.51245 0.75555 0.24480
 C1003 C 0.50002 0.76024 0.23975
 C1004 C 0.48769 0.75527 0.24475
 C1005 C 0.48777 0.74548 0.25522
 C1006 C 0.50019 0.74070 0.26018
 H1007 H 0.50023 0.73304 0.26808
 H1008 H 0.49992 0.76786 0.23180
 C1009 C -0.01231 0.75538 0.25506
 C1010 C -0.01219 0.74553 0.24466
 C1011 C 0.00026 0.74077 0.23968
 C1012 C 0.01258 0.74568 0.24476
 C1013 C 0.01244 0.75571 0.25501
 C1014 C -0.00001 0.76037 0.26005
 H1015 H -0.00013 0.76799 0.26799
 H1016 H 0.00035 0.73311 0.23179
 C1017 C 0.48757 0.75509 0.75519
 C1018 C 0.48753 0.74525 0.74477
 C1019 C 0.49989 0.74033 0.73976
 C1020 C 0.51230 0.74511 0.74475
 C1021 C 0.51231 0.75518 0.75495
 C1022 C 0.49996 0.75998 0.76008
 H1023 H 0.49999 0.76765 0.76796
 H1024 H 0.49984 0.73268 0.73185
 C1025 C 0.40527 0.29462 0.29438
 N1026 N 0.40148 0.29136 0.30722
 N1027 N 0.39058 0.29702 0.31282
 C1028 C 0.38314 0.30624 0.30582
 N1029 N 0.38694 0.30953 0.29299
 N1030 N 0.39779 0.30378 0.28736
 C1031 C 0.41736 0.28844 0.28832
 N1032 N 0.42000 0.28978 0.27486
 N1033 N 0.43106 0.28423 0.26944
 C1034 C 0.43992 0.27724 0.27732
 N1035 N 0.43728 0.27592 0.29077
 N1036 N 0.42618 0.28137 0.29616
 C1037 C 0.45227 0.27137 0.27148
 N1038 N 0.46223 0.26665 0.27971
 N1039 N 0.47353 0.26145 0.27449
 C1040 C 0.47523 0.26062 0.26084
 N1041 N 0.46528 0.26536 0.25260
 N1042 N 0.45401 0.27067 0.25783
 C1043 C 0.40484 0.79454 0.79445
 N1044 N 0.40016 0.79027 0.80667
 N1045 N 0.38918 0.79589 0.81217
 C1046 C 0.38255 0.80608 0.80571
 N1047 N 0.38728 0.81038 0.79350
 N1048 N 0.39819 0.80468 0.78794
 C1049 C 0.41699 0.78839 0.78845
 N1050 N 0.42013 0.79048 0.77520
 N1051 N 0.43122 0.78498 0.76981
 C1052 C 0.43964 0.77728 0.77751
 N1053 N 0.43651 0.77522 0.79077
 N1054 N 0.42535 0.78062 0.79612
 C1055 C 0.45200 0.77142 0.77167
 N1056 N 0.46184 0.76639 0.77986
 N1057 N 0.47315 0.76121 0.77459
 C1058 C 0.47495 0.76072 0.76094
 N1059 N 0.46512 0.76576 0.75275
 N1060 N 0.45386 0.77105 0.75802
 C1061 C -0.09465 0.29406 0.79548
 N1062 N -0.09895 0.29044 0.80806
 N1063 N -0.10992 0.29616 0.81349
 C1064 C -0.11691 0.30578 0.80657
 N1065 N -0.11259 0.30943 0.79401
 N1066 N -0.10168 0.30365 0.78855
 C1067 C -0.08256 0.28778 0.78951
 N1068 N -0.07957 0.28964 0.77619
 N1069 N -0.06855 0.28401 0.77077
 C1070 C -0.06007 0.27642 0.77850
 N1071 N -0.06306 0.27457 0.79183
 N1072 N -0.07413 0.28012 0.79722
 C1073 C -0.04781 0.27045 0.77256
 N1074 N -0.03810 0.26494 0.78061
 N1075 N -0.02687 0.25973 0.77520
 C1076 C -0.02502 0.25970 0.76154
 N1077 N -0.03472 0.26525 0.75351
 N1078 N -0.04590 0.27054 0.75892
 C1079 C -0.09527 0.79415 0.29447
 N1080 N -0.09941 0.79045 0.30708
 N1081 N -0.11035 0.79607 0.31264
 C1082 C -0.11748 0.80567 0.30585
 N1083 N -0.11333 0.80940 0.29325
 N1084 N -0.10245 0.80370 0.28764
 C1085 C -0.08311 0.78806 0.28842
 N1086 N -0.08029 0.78976 0.27504
 N1087 N -0.06918 0.78432 0.26961
 C1088 C -0.06044 0.77708 0.27739
 N1089 N -0.06327 0.77540 0.29077
 N1090 N -0.07443 0.78074 0.29617
 C1091 C -0.04804 0.77134 0.27152
 N1092 N -0.03809 0.76653 0.27971
 N1093 N -0.02675 0.76145 0.27444
 C1094 C -0.02500 0.76086 0.26079
 N1095 N -0.03494 0.76569 0.25259
 N1096 N -0.04624 0.77087 0.25787
 C1097 C 0.59581 0.70657 0.29371
 N1098 N 0.59886 0.69333 0.29154
 N1099 N 0.60979 0.68778 0.29717
 C1100 C 0.61803 0.69523 0.30525
 N1101 N 0.61499 0.70847 0.30743
 N1102 N 0.60410 0.71405 0.30173
 C1103 C 0.58359 0.71257 0.28769
 N1104 N 0.58131 0.72613 0.28836
 N1105 N 0.57012 0.73151 0.28304
 C1106 C 0.56076 0.72350 0.27695
 N1107 N 0.56304 0.70995 0.27629
 N1108 N 0.57426 0.70460 0.28152
 C1109 C 0.54829 0.72931 0.27126
 N1110 N 0.53806 0.72110 0.26721
 N1111 N 0.52671 0.72629 0.26210
 C1112 C 0.52520 0.73989 0.26073
 N1113 N 0.53540 0.74813 0.26484
 N1114 N 0.54674 0.74293 0.27003
 C1115 C 0.59542 0.20563 0.79493
 N1116 N 0.60428 0.21336 0.80204
 N1117 N 0.61525 0.20782 0.80765
 C1118 C 0.61777 0.19436 0.80629
 N1119 N 0.60895 0.18665 0.79911
 N1120 N 0.59796 0.19218 0.79357
 C1121 C 0.58317 0.21162 0.78898
 N1122 N 0.57344 0.20356 0.78359
 N1123 N 0.56226 0.20893 0.77829
 C1124 C 0.56041 0.22255 0.77811
 N1125 N 0.57014 0.23063 0.78348
 N1126 N 0.58131 0.22526 0.78886
 C1127 C 0.54807 0.22839 0.77218
 N1128 N 0.54685 0.24197 0.77034
 N1129 N 0.53566 0.24719 0.76488
 C1130 C 0.52528 0.23902 0.76107
 N1131 N 0.52647 0.22546 0.76303
 N1132 N 0.53768 0.22024 0.76842
 C1133 C 1.09526 0.70524 0.79315
 N1134 N 1.09864 0.69211 0.79078
 N1135 N 1.10960 0.68670 0.79649
 C1136 C 1.11756 0.69419 0.80483
 N1137 N 1.11419 0.70732 0.80719
 N1138 N 1.10326 0.71275 0.80143
 C1139 C 1.08304 0.71114 0.78703
 N1140 N 1.08047 0.72462 0.78812
 N1141 N 1.06931 0.72995 0.78272
 C1142 C 1.06025 0.72199 0.77613
 N1143 N 1.06281 0.70851 0.77505
 N1144 N 1.07402 0.70319 0.78038
 C1145 C 1.04785 0.72786 0.77035
 N1146 N 1.03788 0.71975 0.76550
 N1147 N 1.02658 0.72509 0.76038
 C1148 C 1.02490 0.73874 0.75981
 N1149 N 1.03486 0.74683 0.76473
 N1150 N 1.04612 0.74149 0.76991
 C1151 C 1.09451 0.20562 0.29481
 N1152 N 1.10179 0.21254 0.30421
 N1153 N 1.11269 0.20698 0.30990
 C1154 C 1.11678 0.19433 0.30632
 N1155 N 1.10957 0.18747 0.29684
 N1156 N 1.09861 0.19298 0.29124
 C1157 C 1.08238 0.21164 0.28865
 N1158 N 1.07384 0.20392 0.28115
 N1159 N 1.06279 0.20933 0.27560
 C1160 C 1.05995 0.22269 0.27723
 N1161 N 1.06852 0.23043 0.28467
 N1162 N 1.07952 0.22499 0.29032
 C1163 C 1.04768 0.22858 0.27122
 N1164 N 1.04585 0.24221 0.27084
 N1165 N 1.03463 0.24750 0.26550
 C1166 C 1.02482 0.23934 0.26042
 N1167 N 1.02660 0.22572 0.26090
 N1168 N 1.03786 0.22043 0.26613
 C1169 C 0.59588 0.29387 0.70635
 N1170 N 0.60423 0.28643 0.69831
 N1171 N 0.61512 0.29206 0.69266
 C1172 C 0.61810 0.30529 0.69491
 N1173 N 0.60981 0.31269 0.70302
 N1174 N 0.59888 0.30710 0.70861
 C1175 C 0.58366 0.28783 0.71231
 N1176 N 0.57429 0.29579 0.71850
 N1177 N 0.56307 0.29040 0.72371
 C1178 C 0.56085 0.27686 0.72300
 N1179 N 0.57025 0.26888 0.71687
 N1180 N 0.58143 0.27428 0.71158
 C1181 C 0.54841 0.27101 0.72869
 N1182 N 0.54690 0.25738 0.72985
 N1183 N 0.53560 0.25216 0.73509
 C1184 C 0.52539 0.26037 0.73931
 N1185 N 0.52685 0.27398 0.73800
 N1186 N 0.53817 0.27920 0.73285
 C1187 C 0.59476 0.79434 0.20410
 N1188 N 0.59750 0.80771 0.20576
 N1189 N 0.60842 0.81323 0.20009
 C1190 C 0.61695 0.80560 0.19245
 N1191 N 0.61423 0.79223 0.19078
 N1192 N 0.60335 0.78669 0.19653
 C1193 C 0.58261 0.78836 0.21025
 N1194 N 0.58064 0.77475 0.21017
 N1195 N 0.56956 0.76940 0.21573
 C1196 C 0.56001 0.77748 0.22148
 N1197 N 0.56197 0.79109 0.22151
 N1198 N 0.57308 0.79642 0.21604
 C1199 C 0.54773 0.77169 0.22756
 N1200 N 0.53742 0.77990 0.23150
 N1201 N 0.52625 0.77474 0.23700
 C1202 C 0.52501 0.76118 0.23891
 N1203 N 0.53531 0.75295 0.23493
 N1204 N 0.54647 0.75811 0.22935
 C1205 C 1.09520 0.29481 0.20620
 N1206 N 1.10297 0.28755 0.19745
 N1207 N 1.11381 0.29311 0.19166
 C1208 C 1.11733 0.30610 0.19447
 N1209 N 1.10962 0.31333 0.20329
 N1210 N 1.09872 0.30780 0.20901
 C1211 C 1.08303 0.28879 0.21230
 N1212 N 1.07395 0.29667 0.21899
 N1213 N 1.06278 0.29128 0.22429
 C1214 C 1.06033 0.27780 0.22318
 N1215 N 1.06944 0.26990 0.21653
 N1216 N 1.08056 0.27531 0.21114
 C1217 C 1.04793 0.27192 0.22891
 N1218 N 1.04641 0.25828 0.22987
 N1219 N 1.03510 0.25299 0.23500
 C1220 C 1.02487 0.26115 0.23929
 N1221 N 1.02636 0.27478 0.23821
 N1222 N 1.03770 0.28006 0.23319
 C1223 C 1.09371 0.79614 0.70492
 N1224 N 1.09773 0.80886 0.70821
 N1225 N 1.10851 0.81438 0.70228
 C1226 C 1.11562 0.80743 0.69275
 N1227 N 1.11157 0.79472 0.68941
 N1228 N 1.10083 0.78916 0.69541
 C1229 C 1.08176 0.79011 0.71142
 N1230 N 1.07879 0.77680 0.70967
 N1231 N 1.06791 0.77139 0.71555
 C1232 C 1.05957 0.77911 0.72333
 N1233 N 1.06251 0.79243 0.72502
 N1234 N 1.07343 0.79782 0.71922
 C1235 C 1.04744 0.77323 0.72960
 N1236 N 1.03786 0.78133 0.73526
 N1237 N 1.02670 0.77603 0.74069
 C1238 C 1.02479 0.76242 0.74079
 N1239 N 1.03437 0.75432 0.73510
 N1240 N 1.04548 0.75962 0.72960
 C1241 C 0.40505 0.70601 0.70533
 N1242 N 0.40130 0.70920 0.69247
 N1243 N 0.39042 0.70354 0.68690
 C1244 C 0.38296 0.69439 0.69394
 N1245 N 0.38673 0.69115 0.70678
 N1246 N 0.39756 0.69689 0.71240
 C1247 C 0.41711 0.71219 0.71139
 N1248 N 0.41961 0.71099 0.72488
 N1249 N 0.43066 0.71651 0.73032
 C1250 C 0.43964 0.72332 0.72243
 N1251 N 0.43712 0.72452 0.70894
 N1252 N 0.42603 0.71910 0.70353
 C1253 C 0.45197 0.72912 0.72830
 N1254 N 0.46208 0.73360 0.72011
 N1255 N 0.47336 0.73873 0.72539
 C1256 C 0.47490 0.73973 0.73904
 N1257 N 0.46480 0.73522 0.74724
 N1258 N 0.45355 0.72999 0.74196
 C1259 C 0.40628 0.20493 0.20460
 N1260 N 0.39861 0.19604 0.21176
 N1261 N 0.38787 0.19018 0.20608
 C1262 C 0.38437 0.19307 0.19307
 N1263 N 0.39202 0.20200 0.18594
 N1264 N 0.40281 0.20778 0.19158
 C1265 C 0.41822 0.21127 0.21076
 N1266 N 0.42723 0.21810 0.20293
 N1267 N 0.43820 0.22369 0.20843
 C1268 C 0.44050 0.22274 0.22198
 N1269 N 0.43144 0.21599 0.22983
 N1270 N 0.42052 0.21032 0.22431
 C1271 C 0.45270 0.22874 0.22796
 N1272 N 0.45411 0.22971 0.24163
 N1273 N 0.46526 0.23508 0.24700
 C1274 C 0.47541 0.23962 0.23889
 N1275 N 0.47403 0.23854 0.22523
 N1276 N 0.46286 0.23326 0.21986
 C1277 C -0.09496 0.70626 0.20582
 N1278 N -0.10238 0.69707 0.21286
 N1279 N -0.11332 0.69145 0.20732
 C1280 C -0.11728 0.69491 0.19459
 N1281 N -0.10991 0.70418 0.18760
 N1282 N -0.09892 0.70971 0.19309
 C1283 C -0.08276 0.71227 0.21178
 N1284 N -0.07391 0.71923 0.20388
 N1285 N -0.06274 0.72456 0.20920
 C1286 C -0.06006 0.72322 0.22264
 N1287 N -0.06894 0.71631 0.23057
 N1288 N -0.08006 0.71088 0.22522
 C1289 C -0.04770 0.72905 0.22843
 N1290 N -0.04600 0.72987 0.24208
 N1291 N -0.03475 0.73518 0.24727
 C1292 C -0.02476 0.73981 0.23900
 N1293 N -0.02642 0.73887 0.22536
 N1294 N -0.03771 0.73366 0.22017
 C1295 C -0.09539 0.20698 0.70499
 N1296 N -0.09930 0.21014 0.69217
 N1297 N -0.11038 0.20461 0.68682
 C1298 C -0.11789 0.19566 0.69408
 N1299 N -0.11396 0.19247 0.70689
 N1300 N -0.10294 0.19807 0.71227
 C1301 C -0.08316 0.21303 0.71084
 N1302 N -0.08031 0.21156 0.72424
 N1303 N -0.06916 0.21700 0.72951
 C1304 C -0.06041 0.22403 0.72155
 N1305 N -0.06325 0.22549 0.70816
 N1306 N -0.07444 0.22012 0.70291
 C1307 C -0.04804 0.22987 0.72732
 N1308 N -0.03828 0.23504 0.71911
 N1309 N -0.02699 0.24023 0.72434
 C1310 C -0.02513 0.24058 0.73799
 N1311 N -0.03486 0.23535 0.74619
 N1312 N -0.04611 0.23008 0.74095
 C1313 C 0.29513 0.40544 0.29327
 N1314 N 0.28835 0.39859 0.30309
 N1315 N 0.29375 0.38760 0.30879
 C1316 C 0.30610 0.38302 0.30481
 N1317 N 0.31286 0.38985 0.29496
 N1318 N 0.30750 0.40089 0.28932
 C1319 C 0.28921 0.41760 0.28709
 N1320 N 0.29681 0.42579 0.27905
 N1321 N 0.29146 0.43689 0.27353
 C1322 C 0.27830 0.44016 0.27578
 N1323 N 0.27069 0.43195 0.28378
 N1324 N 0.27606 0.42090 0.28937
 C1325 C 0.27240 0.45242 0.26976
 N1326 N 0.25884 0.45460 0.27031
 N1327 N 0.25348 0.46577 0.26497
 C1328 C 0.26146 0.47519 0.25891
 N1329 N 0.27503 0.47306 0.25845
 N1330 N 0.28040 0.46183 0.26372
 C1331 C 0.29666 -0.09458 0.79253
 N1332 N 0.30840 -0.09993 0.78776
 N1333 N 0.31374 -0.11095 0.79348
 C1334 C 0.30759 -0.11694 0.80426
 N1335 N 0.29588 -0.11153 0.80905
 N1336 N 0.29049 -0.10059 0.80327
 C1337 C 0.29068 -0.08247 0.78626
 N1338 N 0.27782 -0.07872 0.78934
 N1339 N 0.27237 -0.06768 0.78379
 C1340 C 0.27962 -0.05992 0.77505
 N1341 N 0.29249 -0.06366 0.77196
 N1342 N 0.29791 -0.07477 0.77743
 C1343 C 0.27361 -0.04763 0.76919
 N1344 N 0.28142 -0.03836 0.76269
 N1345 N 0.27594 -0.02709 0.75764
 C1346 C 0.26243 -0.02478 0.75877
 N1347 N 0.25464 -0.03405 0.76528
 N1348 N 0.26013 -0.04526 0.77042
 C1349 C 0.79656 0.40541 0.79248
 N1350 N 0.79019 0.39924 0.80300
 N1351 N 0.79557 0.38833 0.80886
 C1352 C 0.80748 0.38311 0.80434
 N1353 N 0.81383 0.38926 0.79377
 N1354 N 0.80850 0.40025 0.78798
 C1355 C 0.79058 0.41747 0.78613
 N1356 N 0.79792 0.42534 0.77755
 N1357 N 0.79248 0.43639 0.77199
 C1358 C 0.77946 0.43990 0.77474
 N1359 N 0.77211 0.43198 0.78326
 N1360 N 0.77759 0.42101 0.78890
 C1361 C 0.77341 0.45213 0.76879
 N1362 N 0.75988 0.45432 0.76975
 N1363 N 0.75434 0.46551 0.76463
 C1364 C 0.76213 0.47497 0.75838
 N1365 N 0.77569 0.47283 0.75750
 N1366 N 0.78122 0.46157 0.76255
 C1367 C 0.79568 -0.09501 0.29306
 N1368 N 0.78920 -0.10142 0.30338
 N1369 N 0.79463 -0.11233 0.30918
 C1370 C 0.80668 -0.11732 0.30481
 N1371 N 0.81313 -0.11095 0.29443
 N1372 N 0.80775 -0.09996 0.28870
 C1373 C 0.78973 -0.08290 0.28681
 N1374 N 0.79722 -0.07484 0.27854
 N1375 N 0.79183 -0.06372 0.27306
 C1376 C 0.77874 -0.06033 0.27558
 N1377 N 0.77124 -0.06844 0.28378
 N1378 N 0.77665 -0.07949 0.28934
 C1379 C 0.77279 -0.04805 0.26967
 N1380 N 0.75923 -0.04592 0.27028
 N1381 N 0.75380 -0.03472 0.26507
 C1382 C 0.76173 -0.02520 0.25909
 N1383 N 0.77532 -0.02727 0.25860
 N1384 N 0.78074 -0.03853 0.26372
 C1385 C 0.29611 0.59461 0.70710
 N1386 N 0.30842 0.59926 0.71107
 N1387 N 0.31375 0.61025 0.70533
 C1388 C 0.30702 0.61694 0.69535
 N1389 N 0.29474 0.61227 0.69136
 N1390 N 0.28937 0.60133 0.69716
 C1391 C 0.29017 0.58250 0.71336
 N1392 N 0.27706 0.57920 0.71096
 N1393 N 0.27163 0.56819 0.71655
 C1394 C 0.27915 0.56001 0.72467
 N1395 N 0.29228 0.56328 0.72705
 N1396 N 0.29768 0.57436 0.72153
 C1397 C 0.27316 0.54779 0.73065
 N1398 N 0.28106 0.53831 0.73675
 N1399 N 0.27559 0.52708 0.74191
 C1400 C 0.26202 0.52502 0.74128
 N1401 N 0.25415 0.53451 0.73517
 N1402 N 0.25961 0.54567 0.72995
 C1403 C 0.29501 1.09572 0.20772
 N1404 N 0.30757 1.10000 0.21126
 N1405 N 0.31289 1.11104 0.20558
 C1406 C 0.30588 1.11814 0.19611
 N1407 N 0.29332 1.11385 0.19255
 N1408 N 0.28797 1.10287 0.19829
 C1409 C 0.28916 1.08350 0.21387
 N1410 N 0.27595 1.08035 0.21183
 N1411 N 0.27064 1.06920 0.21727
 C1412 C 0.27837 1.06073 0.22487
 N1413 N 0.29160 1.06386 0.22690
 N1414 N 0.29688 1.07506 0.22153
 C1415 C 0.27250 1.04836 0.23070
 N1416 N 0.28053 1.03873 0.23640
 N1417 N 0.27517 1.02742 0.24147
 C1418 C 0.26158 1.02539 0.24117
 N1419 N 0.25357 1.03502 0.23545
 N1420 N 0.25893 1.04628 0.23030
 C1421 C 0.79628 0.59460 0.20713
 N1422 N 0.78945 0.60145 0.19734
 N1423 N 0.79483 0.61239 0.19156
 C1424 C 0.80719 0.61695 0.19543
 N1425 N 0.81400 0.61014 0.20526
 N1426 N 0.80867 0.59913 0.21097
 C1427 C 0.79033 0.58250 0.21344
 N1428 N 0.79790 0.57425 0.22145
 N1429 N 0.79248 0.56321 0.22704
 C1430 C 0.77926 0.56011 0.22492
 N1431 N 0.77169 0.56840 0.21696
 N1432 N 0.77714 0.57936 0.21129
 C1433 C 0.77322 0.54792 0.23095
 N1434 N 0.75964 0.54596 0.23040
 N1435 N 0.75411 0.53482 0.23561
 C1436 C 0.76195 0.52519 0.24155
 N1437 N 0.77556 0.52709 0.24201
 N1438 N 0.78109 0.53829 0.23687
 C1439 C 0.79662 1.09465 0.70733
 N1440 N 0.79023 1.10090 0.69686
 N1441 N 0.79561 1.11181 0.69104
 C1442 C 0.80751 1.11695 0.69554
 N1443 N 0.81388 1.11076 0.70607
 N1444 N 0.80855 1.09977 0.71182
 C1445 C 0.79066 1.08258 0.71362
 N1446 N 0.79810 1.07445 0.72187
 N1447 N 0.79262 1.06341 0.72742
 C1448 C 0.77948 1.06020 0.72500
 N1449 N 0.77205 1.06837 0.71681
 N1450 N 0.77755 1.07932 0.71118
 C1451 C 0.77335 1.04803 0.73096
 N1452 N 0.75980 1.04601 0.73009
 N1453 N 0.75418 1.03489 0.73526
 C1454 C 0.76190 1.02535 0.74146
 N1455 N 0.77548 1.02731 0.74224
 N1456 N 0.78110 1.03849 0.73715
 C1457 C 0.70255 0.59463 0.29340
 N1458 N 0.70986 0.60209 0.30233
 N1459 N 0.70443 0.61288 0.30835
 C1460 C 0.69150 0.61665 0.30562
 N1461 N 0.68419 0.60924 0.29663
 N1462 N 0.68961 0.59839 0.29066
 C1463 C 0.70856 0.58262 0.28697
 N1464 N 0.70086 0.57395 0.27959
 N1465 N 0.70634 0.56292 0.27402
 C1466 C 0.71974 0.56022 0.27559
 N1467 N 0.72743 0.56893 0.28290
 N1468 N 0.72194 0.57990 0.28852
 C1469 C 0.72583 0.54801 0.26965
 N1470 N 0.73944 0.54621 0.26994
 N1471 N 0.74503 0.53505 0.26479
 C1472 C 0.73720 0.52526 0.25914
 N1473 N 0.72356 0.52702 0.25894
 N1474 N 0.71798 0.53822 0.26404
 C1475 C 0.70326 1.09545 0.79303
 N1476 N 0.71021 1.10227 0.80273
 N1477 N 0.70488 1.11319 0.80862
 C1478 C 0.69245 1.11779 0.80494
 N1479 N 0.68558 1.11107 0.79508
 N1480 N 0.69086 1.10007 0.78927
 C1481 C 0.70908 1.08324 0.78683
 N1482 N 0.70138 1.07484 0.77914
 N1483 N 0.70673 1.06371 0.77363
 C1484 C 0.72000 1.06065 0.77554
 N1485 N 0.72769 1.06906 0.78322
 N1486 N 0.72232 1.08011 0.78880
 C1487 C 0.72601 1.04840 0.76956
 N1488 N 0.73958 1.04632 0.77022
 N1489 N 0.74509 1.03513 0.76507
 C1490 C 0.73725 1.02557 0.75909
 N1491 N 0.72366 1.02760 0.75851
 N1492 N 0.71814 1.03885 0.76358
 C1493 C 0.20272 0.59436 0.79326
 N1494 N 0.21000 0.60182 0.80222
 N1495 N 0.20453 0.61258 0.80826
 C1496 C 0.19159 0.61632 0.80552
 N1497 N 0.18432 0.60891 0.79651
 N1498 N 0.18977 0.59809 0.79052
 C1499 C 0.20875 0.58238 0.78682
 N1500 N 0.20105 0.57369 0.77947
 N1501 N 0.20654 0.56267 0.77389
 C1502 C 0.21994 0.56001 0.77540
 N1503 N 0.22765 0.56875 0.78268
 N1504 N 0.22215 0.57971 0.78832
 C1505 C 0.22603 0.54780 0.76945
 N1506 N 0.23966 0.54606 0.76963
 N1507 N 0.24523 0.53490 0.76449
 C1508 C 0.23740 0.52504 0.75898
 N1509 N 0.22375 0.52674 0.75890
 N1510 N 0.21817 0.53795 0.76398
 C1511 C 0.20356 1.09432 0.29514
 N1512 N 0.19037 1.09758 0.29309
 N1513 N 0.18500 1.10851 0.29894
 C1514 C 0.19261 1.11652 0.30713
 N1515 N 0.20579 1.11322 0.30922
 N1516 N 0.21117 1.10233 0.30331
 C1517 C 0.20949 1.08230 0.28867
 N1518 N 0.22299 1.07984 0.28952
 N1519 N 0.22837 1.06890 0.28372
 C1520 C 0.22044 1.05998 0.27690
 N1521 N 0.20695 1.06243 0.27605
 N1522 N 0.20157 1.07341 0.28180
 C1523 C 0.22637 1.04784 0.27067
 N1524 N 0.21834 1.03808 0.26529
 N1525 N 0.22374 1.02695 0.25986
 C1526 C 0.23737 1.02524 0.25948
 N1527 N 0.24539 1.03501 0.26489
 N1528 N 0.24000 1.04610 0.27038
 C1529 C 0.70257 0.40576 0.70676
 N1530 N 0.68961 0.40209 0.70952
 N1531 N 0.68414 0.39129 0.70355
 C1532 C 0.69142 0.38383 0.69454
 N1533 N 0.70437 0.38750 0.69180
 N1534 N 0.70985 0.39824 0.69782
 C1535 C 0.70861 0.41774 0.71315
 N1536 N 0.72201 0.42036 0.71161
 N1537 N 0.72753 0.43130 0.71722
 C1538 C 0.71985 0.44008 0.72452
 N1539 N 0.70643 0.43750 0.72604
 N1540 N 0.70092 0.42650 0.72048
 C1541 C 0.72597 0.45226 0.73047
 N1542 N 0.71813 0.46212 0.73601
 N1543 N 0.72373 0.47331 0.74107
 C1544 C 0.73738 0.47498 0.74091
 N1545 N 0.74519 0.46510 0.73535
 N1546 N 0.73960 0.45396 0.73023
 C1547 C 0.70370 -0.09458 0.20579
 N1548 N 0.69105 -0.09874 0.20918
 N1549 N 0.68569 -0.10970 0.20340
 C1550 C 0.69275 -0.11682 0.19396
 N1551 N 0.70539 -0.11263 0.19056
 N1552 N 0.71079 -0.10175 0.19641
 C1553 C 0.70964 -0.08252 0.21214
 N1554 N 0.72299 -0.07969 0.21054
 N1555 N 0.72842 -0.06878 0.21632
 C1556 C 0.72067 -0.06025 0.22385
 N1557 N 0.70731 -0.06303 0.22540
 N1558 N 0.70190 -0.07400 0.21970
 C1559 C 0.72662 -0.04810 0.23001
 N1560 N 0.71861 -0.03831 0.23544
 N1561 N 0.72402 -0.02710 0.24065
 C1562 C 0.73765 -0.02534 0.24076
 N1563 N 0.74565 -0.03515 0.23535
 N1564 N 0.74024 -0.04631 0.23006
 C1565 C 0.20329 0.40598 0.20558
 N1566 N 0.19045 0.40207 0.20855
 N1567 N 0.18507 0.39122 0.20261
 C1568 C 0.19228 0.38395 0.19341
 N1569 N 0.20510 0.38788 0.19041
 N1570 N 0.21052 0.39867 0.19641
 C1571 C 0.20924 0.41798 0.21207
 N1572 N 0.22263 0.42071 0.21067
 N1573 N 0.22802 0.43165 0.21644
 C1574 C 0.22020 0.44032 0.22373
 N1575 N 0.20679 0.43760 0.22512
 N1576 N 0.20142 0.42661 0.21943
 C1577 C 0.22614 0.45250 0.22986
 N1578 N 0.21813 0.46234 0.23520
 N1579 N 0.22355 0.47352 0.24047
 C1580 C 0.23720 0.47519 0.24074
 N1581 N 0.24519 0.46534 0.23537
 N1582 N 0.23976 0.45421 0.23003
 C1583 C 0.20370 -0.09447 0.70695
 N1584 N 0.19074 -0.09816 0.70970
 N1585 N 0.18531 -0.10899 0.70377
 C1586 C 0.19261 -0.11647 0.69480
 N1587 N 0.20554 -0.11276 0.69202
 N1588 N 0.21099 -0.10198 0.69802
 C1589 C 0.20970 -0.08247 0.71334
 N1590 N 0.22313 -0.07990 0.71200
 N1591 N 0.22860 -0.06894 0.71763
 C1592 C 0.22083 -0.06009 0.72475
 N1593 N 0.20738 -0.06262 0.72606
 N1594 N 0.20193 -0.07364 0.72050
 C1595 C 0.22684 -0.04785 0.73065
 N1596 N 0.21889 -0.03789 0.73586
 N1597 N 0.22437 -0.02662 0.74084
 C1598 C 0.23801 -0.02494 0.74093
 N1599 N 0.24595 -0.03490 0.73569
 N1600 N 0.24047 -0.04614 0.73065
 C1601 C 0.29491 0.29469 0.40516
 N1602 N 0.28866 0.30527 0.39895
 N1603 N 0.29419 0.31110 0.38808
 C1604 C 0.30615 0.30653 0.38303
 N1605 N 0.31236 0.29594 0.38922
 N1606 N 0.30686 0.29014 0.40010
 C1607 C 0.28897 0.28832 0.41722
 N1608 N 0.29605 0.27887 0.42429
 N1609 N 0.29078 0.27317 0.43534
 C1610 C 0.27820 0.27664 0.43966
 N1611 N 0.27108 0.28604 0.43256
 N1612 N 0.27639 0.29182 0.42156
 C1613 C 0.27249 0.27050 0.45194
 N1614 N 0.25906 0.27153 0.45466
 N1615 N 0.25391 0.26607 0.46590
 C1616 C 0.26203 0.25947 0.47484
 N1617 N 0.27548 0.25854 0.47219
 N1618 N 0.28060 0.26388 0.46087
 C1619 C 0.29382 0.79692 -0.09514
 N1620 N 0.28998 0.80932 -0.09970
 N1621 N 0.29577 0.81470 -0.11066
 C1622 C 0.30567 0.80792 -0.11740
 N1623 N 0.30956 0.79555 -0.11280
 N1624 N 0.30371 0.79013 -0.10190
 C1625 C 0.28745 0.79092 -0.08310
 N1626 N 0.28973 0.77774 -0.07987
 N1627 N 0.28405 0.77228 -0.06889
 C1628 C 0.27596 0.77981 -0.06070
 N1629 N 0.27367 0.79300 -0.06392
 N1630 N 0.27928 0.79844 -0.07495
 C1631 C 0.26997 0.77382 -0.04846
 N1632 N 0.26399 0.78175 -0.03891
 N1633 N 0.25885 0.77630 -0.02766
 C1634 C 0.25937 0.76271 -0.02562
 N1635 N 0.26536 0.75479 -0.03516
 N1636 N 0.27058 0.76024 -0.04636
 C1637 C 0.79308 0.29691 -0.09500
 N1638 N 0.78921 0.30932 -0.09952
 N1639 N 0.79497 0.31475 -0.11048
 C1640 C 0.80489 0.30800 -0.11724
 N1641 N 0.80879 0.29562 -0.11268
 N1642 N 0.80296 0.29015 -0.10179
 C1643 C 0.78677 0.29089 -0.08294
 N1644 N 0.78908 0.27772 -0.07972
 N1645 N 0.78344 0.27225 -0.06872
 C1646 C 0.77536 0.27978 -0.06050
 N1647 N 0.77307 0.29296 -0.06370
 N1648 N 0.77863 0.29840 -0.07476
 C1649 C 0.76938 0.27377 -0.04826
 N1650 N 0.76332 0.28168 -0.03875
 N1651 N 0.75819 0.27621 -0.02750
 C1652 C 0.75880 0.26262 -0.02544
 N1653 N 0.76488 0.25473 -0.03496
 N1654 N 0.77008 0.26021 -0.04615
 C1655 C 0.79334 0.79655 0.40537
 N1656 N 0.80320 0.78976 0.39858
 N1657 N 0.80898 0.79516 0.38763
 C1658 C 0.80505 0.80750 0.38301
 N1659 N 0.79516 0.81429 0.38978
 N1660 N 0.78944 0.80893 0.40079
 C1661 C 0.78705 0.79061 0.41749
 N1662 N 0.77896 0.79818 0.42566
 N1663 N 0.77341 0.79279 0.43676
 C1664 C 0.77568 0.77961 0.44000
 N1665 N 0.78370 0.77203 0.43178
 N1666 N 0.78932 0.77744 0.42075
 C1667 C 0.76972 0.77366 0.45228
 N1668 N 0.77032 0.76009 0.45440
 N1669 N 0.76509 0.75466 0.46561
 C1670 C 0.75911 0.76260 0.47514
 N1671 N 0.75861 0.77619 0.47308
 N1672 N 0.76375 0.78162 0.46181
 C1673 C 0.70750 0.29527 0.59543
 N1674 N 0.71090 0.30791 0.59965
 N1675 N 0.70531 0.31317 0.61078
 C1676 C 0.69606 0.30602 0.61804
 N1677 N 0.69264 0.29341 0.61379
 N1678 N 0.69829 0.28811 0.60271
 C1679 C 0.71363 0.28944 0.58316
 N1680 N 0.71175 0.27618 0.58008
 N1681 N 0.71724 0.27087 0.56893
 C1682 C 0.72473 0.27865 0.56041
 N1683 N 0.72659 0.29192 0.56347
 N1684 N 0.72117 0.29722 0.57467
 C1685 C 0.73058 0.27277 0.54803
 N1686 N 0.73629 0.28080 0.53840
 N1687 N 0.74137 0.27543 0.52708
 C1688 C 0.74108 0.26183 0.52505
 N1689 N 0.73533 0.25383 0.53467
 N1690 N 0.73018 0.25920 0.54594
 C1691 C 0.70643 0.79442 1.09517
 N1692 N 0.70878 0.80753 1.09856
 N1693 N 0.70378 0.81266 1.11002
 C1694 C 0.69622 0.80489 1.11848
 N1695 N 0.69385 0.79178 1.11509
 N1696 N 0.69891 0.78663 1.10366
 C1697 C 0.71212 0.78874 1.08263
 N1698 N 0.71159 0.77521 1.08024
 N1699 N 0.71705 0.77000 1.06903
 C1700 C 0.72319 0.77812 1.05977
 N1701 N 0.72361 0.79167 1.06209
 N1702 N 0.71821 0.79688 1.07334
 C1703 C 0.72933 0.77229 1.04752
 N1704 N 0.73415 0.78040 1.03749
 N1705 N 0.73959 0.77505 1.02632
 C1706 C 0.74056 0.76140 1.02484
 N1707 N 0.73573 0.75331 1.03488
 N1708 N 0.73023 0.75865 1.04601
 C1709 C 0.20612 0.29308 1.09503
 N1710 N 0.21155 0.30452 1.10040
 N1711 N 0.20618 0.31017 1.11145
 C1712 C 0.19519 0.30457 1.11754
 N1713 N 0.18978 0.29313 1.11219
 N1714 N 0.19514 0.28749 1.10113
 C1715 C 0.21194 0.28691 1.08277
 N1716 N 0.20600 0.27595 1.07699
 N1717 N 0.21116 0.27043 1.06578
 C1718 C 0.22249 0.27563 1.05999
 N1719 N 0.22846 0.28656 1.06579
 N1720 N 0.22326 0.29213 1.07697
 C1721 C 0.22812 0.26959 1.04759
 N1722 N 0.24052 0.27337 1.04300
 N1723 N 0.24560 0.26796 1.03171
 C1724 C 0.23843 0.25867 1.02456
 N1725 N 0.22601 0.25493 1.02910
 N1726 N 0.22098 0.26024 1.04047
 C1727 C 0.20740 0.79457 0.59570
 N1728 N 0.21343 0.80502 0.60229
 N1729 N 0.20779 0.81035 0.61337
 C1730 C 0.19593 0.80541 0.61827
 N1731 N 0.18994 0.79492 0.61172
 N1732 N 0.19557 0.78961 0.60063
 C1733 C 0.21350 0.78878 0.58338
 N1734 N 0.20718 0.77866 0.57657
 N1735 N 0.21263 0.77345 0.56535
 C1736 C 0.22459 0.77817 0.56051
 N1737 N 0.23092 0.78831 0.56731
 N1738 N 0.22548 0.79351 0.57854
 C1739 C 0.23047 0.77247 0.54805
 N1740 N 0.24207 0.77760 0.54270
 N1741 N 0.24723 0.77251 0.53128
 C1742 C 0.24100 0.76209 0.52486
 N1743 N 0.22944 0.75694 0.53020
 N1744 N 0.22426 0.76205 0.54158
 C1745 C 0.29407 0.70412 0.59447
 N1746 N 0.29011 0.69175 0.59899
 N1747 N 0.29586 0.68624 0.60991
 C1748 C 0.30584 0.69286 0.61664
 N1749 N 0.30985 0.70520 0.61209
 N1750 N 0.30404 0.71075 0.60122
 C1751 C 0.28773 0.71024 0.58247
 N1752 N 0.28998 0.72344 0.57933
 N1753 N 0.28430 0.72899 0.56839
 C1754 C 0.27625 0.72151 0.56014
 N1755 N 0.27401 0.70830 0.56326
 N1756 N 0.27960 0.70279 0.57426
 C1757 C 0.27028 0.72754 0.54790
 N1758 N 0.26468 0.71957 0.53819
 N1759 N 0.25959 0.72501 0.52692
 C1760 C 0.25976 0.73864 0.52502
 N1761 N 0.26534 0.74660 0.53475
 N1762 N 0.27054 0.74115 0.54597
 C1763 C 0.29556 0.20563 1.09461
 N1764 N 0.28820 0.19700 1.10239
 N1765 N 0.29367 0.19115 1.11329
 C1766 C 0.30667 0.19380 1.11683
 N1767 N 0.31401 0.20248 1.10908
 N1768 N 0.30858 0.20824 1.09814
 C1769 C 0.28961 0.21197 1.08251
 N1770 N 0.29754 0.21864 1.07346
 N1771 N 0.29218 0.22423 1.06238
 C1772 C 0.27867 0.22343 1.06001
 N1773 N 0.27072 0.21684 1.06911
 N1774 N 0.27610 0.21118 1.08014
 C1775 C 0.27278 0.22934 1.04768
 N1776 N 0.25915 0.23025 1.04622
 N1777 N 0.25380 0.23540 1.03494
 C1778 C 0.26186 0.23980 1.02467
 N1779 N 0.27549 0.23879 1.02610
 N1780 N 0.28085 0.23372 1.03742
 C1781 C 0.79415 0.70436 1.09480
 N1782 N 0.79034 0.69193 1.09927
 N1783 N 0.79601 0.68652 1.11028
 C1784 C 0.80579 0.69330 1.11714
 N1785 N 0.80964 0.70572 1.11265
 N1786 N 0.80389 0.71117 1.10170
 C1787 C 0.78791 0.71029 1.08265
 N1788 N 0.79005 0.72348 1.07938
 N1789 N 0.78443 0.72882 1.06831
 C1790 C 0.77655 0.72115 1.06007
 N1791 N 0.77443 0.70796 1.06333
 N1792 N 0.77997 0.70264 1.07445
 C1793 C 0.77051 0.72698 1.04777
 N1794 N 0.76467 0.71887 1.03832
 N1795 N 0.75937 0.72413 1.02706
 C1796 C 0.75956 0.73772 1.02492
 N1797 N 0.76541 0.74582 1.03437
 N1798 N 0.77080 0.74055 1.04558
 C1799 C 0.79427 0.20265 0.59370
 N1800 N 0.79089 0.18998 0.59787
 N1801 N 0.79681 0.18449 0.60871
 C1802 C 0.80639 0.19144 0.61569
 N1803 N 0.80980 0.20407 0.61149
 N1804 N 0.80382 0.20959 0.60072
 C1805 C 0.78775 0.20874 0.58180
 N1806 N 0.78955 0.22206 0.57892
 N1807 N 0.78371 0.22760 0.56808
 C1808 C 0.77592 0.22001 0.55968
 N1809 N 0.77414 0.20668 0.56254
 N1810 N 0.77991 0.20115 0.57344
 C1811 C 0.76976 0.22611 0.54760
 N1812 N 0.76395 0.21824 0.53793
 N1813 N 0.75873 0.22379 0.52677
 C1814 C 0.75901 0.23742 0.52494
 N1815 N 0.76481 0.24527 0.53462
 N1816 N 0.77010 0.23972 0.54574
 C1817 C 0.70754 0.70521 0.40462
 N1818 N 0.71092 0.69257 0.40036
 N1819 N 0.70530 0.68735 0.38924
 C1820 C 0.69605 0.69454 0.38204
 N1821 N 0.69264 0.70716 0.38632
 N1822 N 0.69831 0.71241 0.39739
 C1823 C 0.71369 0.71099 0.41688
 N1824 N 0.71181 0.72425 0.42001
 N1825 N 0.71731 0.72951 0.43115
 C1826 C 0.72482 0.72170 0.43963
 N1827 N 0.72669 0.70843 0.43652
 N1828 N 0.72127 0.70318 0.42532
 C1829 C 0.73065 0.72753 0.45202
 N1830 N 0.73626 0.71947 0.46168
 N1831 N 0.74129 0.72481 0.47303
 C1832 C 0.74101 0.73842 0.47506
 N1833 N 0.73537 0.74645 0.46541
 N1834 N 0.73027 0.74111 0.45411
 C1835 C 0.70715 0.20510 -0.09580
 N1836 N 0.69927 0.21279 -0.10407
 N1837 N 0.69410 0.20760 -0.11542
 C1838 C 0.69670 0.19456 -0.11895
 N1839 N 0.70466 0.18691 -0.11073
 N1840 N 0.70977 0.19208 -0.09936
 C1841 C 0.71286 0.21080 -0.08330
 N1842 N 0.71942 0.20276 -0.07425
 N1843 N 0.72474 0.20798 -0.06298
 C1844 C 0.72375 0.22146 -0.06040
 N1845 N 0.71717 0.22949 -0.06944
 N1846 N 0.71179 0.22425 -0.08066
 C1847 C 0.72975 0.22732 -0.04809
 N1848 N 0.73004 0.24095 -0.04635
 N1849 N 0.73542 0.24632 -0.03520
 C1850 C 0.74073 0.23828 -0.02537
 N1851 N 0.74033 0.22462 -0.02706
 N1852 N 0.73501 0.21924 -0.03825
 C1853 C 0.20739 0.70530 -0.09589
 N1854 N 0.19814 0.71248 -0.10311
 N1855 N 0.19243 0.70719 -0.11415
 C1856 C 0.19585 0.69457 -0.11842
 N1857 N 0.20514 0.68741 -0.11122
 N1858 N 0.21078 0.69266 -0.10013
 C1859 C 0.21359 0.71110 -0.08366
 N1860 N 0.22121 0.70329 -0.07526
 N1861 N 0.22672 0.70855 -0.06410
 C1862 C 0.22488 0.72182 -0.06099
 N1863 N 0.21731 0.72963 -0.06942
 N1864 N 0.21173 0.72436 -0.08052
 C1865 C 0.23081 0.72764 -0.04864
 N1866 N 0.23046 0.74121 -0.04652
 N1867 N 0.23564 0.74652 -0.03526
 C1868 C 0.24136 0.73847 -0.02567
 N1869 N 0.24162 0.72487 -0.02773
 N1870 N 0.23651 0.71955 -0.03905
 C1871 C 0.20608 0.20642 0.40419
 N1872 N 0.21387 0.19907 0.39552
 N1873 N 0.20860 0.19393 0.38419
 C1874 C 0.19538 0.19605 0.38108
 N1875 N 0.18765 0.20352 0.38968
 N1876 N 0.19289 0.20858 0.40104
 C1877 C 0.21179 0.21205 0.41673
 N1878 N 0.20357 0.21757 0.42632
 N1879 N 0.20873 0.22288 0.43761
 C1880 C 0.22231 0.22296 0.43969
 N1881 N 0.23052 0.21742 0.43012
 N1882 N 0.22536 0.21203 0.41887
 C1883 C 0.22804 0.22901 0.45204
 N1884 N 0.24162 0.23060 0.45334
 N1885 N 0.24683 0.23607 0.46452
 C1886 C 0.23868 0.24020 0.47483
 N1887 N 0.22509 0.23850 0.47357
 N1888 N 0.21987 0.23308 0.46236
 C1889 C 0.29582 0.40527 0.70680
 N1890 N 0.28897 0.39843 0.69703
 N1891 N 0.29436 0.38750 0.69122
 C1892 C 0.30676 0.38295 0.69502
 N1893 N 0.31359 0.38976 0.70483
 N1894 N 0.30824 0.40075 0.71058
 C1895 C 0.28990 0.41738 0.71311
 N1896 N 0.29750 0.42557 0.72112
 N1897 N 0.29213 0.43664 0.72671
 C1898 C 0.27894 0.43986 0.72456
 N1899 N 0.27133 0.43163 0.71661
 N1900 N 0.27672 0.42062 0.71095
 C1901 C 0.27300 0.45211 0.73059
 N1902 N 0.25944 0.45423 0.73010
 N1903 N 0.25404 0.46544 0.73534
 C1904 C 0.26199 0.47497 0.74124
 N1905 N 0.27558 0.47289 0.74165
 N1906 N 0.28098 0.46163 0.73649
 C1907 C 0.29592 0.90560 0.20711
 N1908 N 0.28915 0.89889 0.19721
 N1909 N 0.29461 0.88805 0.19127
 C1910 C 0.30700 0.88349 0.19509
 N1911 N 0.31376 0.89017 0.20502
 N1912 N 0.30834 0.90107 0.21089
 C1913 C 0.28994 0.91764 0.21352
 N1914 N 0.29752 0.92582 0.22156
 N1915 N 0.29213 0.93689 0.22714
 C1916 C 0.27894 0.94010 0.22495
 N1917 N 0.27135 0.93186 0.21698
 N1918 N 0.27676 0.92086 0.21133
 C1919 C 0.27297 0.95237 0.23087
 N1920 N 0.25940 0.95444 0.23025
 N1921 N 0.25392 0.96567 0.23533
 C1922 C 0.26179 0.97528 0.24119
 N1923 N 0.27538 0.97327 0.24173
 N1924 N 0.28087 0.96198 0.23672
 C1925 C 0.79602 0.40570 0.20700
 N1926 N 0.80848 0.40122 0.21069
 N1927 N 0.81386 0.39029 0.20485
 C1928 C 0.80700 0.38351 0.19504
 N1929 N 0.79456 0.38802 0.19133
 N1930 N 0.78915 0.39889 0.19723
 C1931 C 0.79006 0.41776 0.21337
 N1932 N 0.77688 0.42097 0.21120
 N1933 N 0.77145 0.43194 0.21688
 C1934 C 0.77901 0.44016 0.22488
 N1935 N 0.79222 0.43698 0.22704
 N1936 N 0.79763 0.42594 0.22142
 C1937 C 0.77300 0.45236 0.23092
 N1938 N 0.78088 0.46186 0.23696
 N1939 N 0.77539 0.47309 0.24211
 C1940 C 0.76181 0.47513 0.24155
 N1941 N 0.75395 0.46562 0.23550
 N1942 N 0.75944 0.45445 0.23028
 C1943 C 0.79554 0.90557 0.70738
 N1944 N 0.78856 0.89855 0.69784
 N1945 N 0.79403 0.88772 0.69189
 C1946 C 0.80663 0.88347 0.69534
 N1947 N 0.81360 0.89045 0.70492
 N1948 N 0.80817 0.90134 0.71080
 C1949 C 0.78957 0.91761 0.71376
 N1950 N 0.79722 0.92598 0.72154
 N1951 N 0.79183 0.93706 0.72708
 C1952 C 0.77857 0.94012 0.72512
 N1953 N 0.77091 0.93171 0.71741
 N1954 N 0.77632 0.92068 0.71180
 C1955 C 0.77262 0.95241 0.73104
 N1956 N 0.75905 0.95449 0.73053
 N1957 N 0.75363 0.96573 0.73568
 C1958 C 0.76156 0.97531 0.74152
 N1959 N 0.77516 0.97327 0.74194
 N1960 N 0.78058 0.96199 0.73686
 C1961 C 0.70311 0.59480 0.70684
 N1962 N 0.71034 0.60208 0.69768
 N1963 N 0.70505 0.61309 0.69192
 C1964 C 0.69237 0.61728 0.69519
 N1965 N 0.68516 0.61006 0.70444
 N1966 N 0.69042 0.59899 0.71014
 C1967 C 0.70896 0.58257 0.71301
 N1968 N 0.70125 0.57408 0.72063
 N1969 N 0.70663 0.56298 0.72615
 C1970 C 0.71994 0.56003 0.72433
 N1971 N 0.72763 0.56852 0.71672
 N1972 N 0.72223 0.57956 0.71113
 C1973 C 0.72599 0.54781 0.73034
 N1974 N 0.73958 0.54587 0.72983
 N1975 N 0.74514 0.53473 0.73502
 C1976 C 0.73732 0.52507 0.74092
 N1977 N 0.72370 0.52697 0.74136
 N1978 N 0.71814 0.53817 0.73622
 C1979 C 0.70299 0.09321 0.20490
 N1980 N 0.69257 0.09985 0.21099
 N1981 N 0.68700 0.11068 0.20515
 C1982 C 0.69165 0.11526 0.19302
 N1983 N 0.70207 0.10864 0.18694
 N1984 N 0.70763 0.09780 0.19278
 C1985 C 0.70914 0.08126 0.21130
 N1986 N 0.71948 0.07463 0.20511
 N1987 N 0.72511 0.06380 0.21088
 C1988 C 0.72060 0.05919 0.22304
 N1989 N 0.71022 0.06580 0.22923
 N1990 N 0.70460 0.07666 0.22347
 C1991 C 0.72675 0.04716 0.22927
 N1992 N 0.72150 0.04169 0.24078
 N1993 N 0.72691 0.03055 0.24619
 C1994 C 0.73783 0.02459 0.24033
 N1995 N 0.74313 0.03007 0.22888
 N1996 N 0.73767 0.04115 0.22343
 C1997 C 0.20298 0.59399 0.20509
 N1998 N 0.19138 0.59949 0.21004
 N1999 N 0.18583 0.61028 0.20409
 C2000 C 0.19165 0.61591 0.19295
 N2001 N 0.20324 0.61041 0.18801
 N2002 N 0.20882 0.59965 0.19398
 C2003 C 0.20910 0.58207 0.21159
 N2004 N 0.22137 0.57743 0.20747
 N2005 N 0.22692 0.56660 0.21330
 C2006 C 0.22036 0.55996 0.22342
 N2007 N 0.20806 0.56456 0.22752
 N2008 N 0.20255 0.57546 0.22175
 C2009 C 0.22640 0.54787 0.22963
 N2010 N 0.21869 0.53916 0.23699
 N2011 N 0.22410 0.52795 0.24225
 C2012 C 0.23745 0.52517 0.24050
 N2013 N 0.24517 0.53392 0.23322
 N2014 N 0.23973 0.54505 0.22783
 C2015 C 0.20373 0.09519 0.70731
 N2016 N 0.21117 0.10298 0.69875
 N2017 N 0.20572 0.11385 0.69286
 C2018 C 0.19266 0.11735 0.69537
 N2019 N 0.18525 0.10960 0.70399
 N2020 N 0.19068 0.09869 0.70983
 C2021 C 0.20967 0.08305 0.71356
 N2022 N 0.20184 0.07421 0.72062
 N2023 N 0.20720 0.06306 0.72603
 C2024 C 0.22062 0.06038 0.72463
 N2025 N 0.22846 0.06925 0.71764
 N2026 N 0.22308 0.08036 0.71217
 C2027 C 0.22660 0.04805 0.73043
 N2028 N 0.24021 0.04622 0.73022
 N2029 N 0.24572 0.03500 0.73530
 C2030 C 0.23783 0.02517 0.74079
 N2031 N 0.22419 0.02694 0.74090
 N2032 N 0.21868 0.03820 0.73586
 C2033 C 0.29621 0.59432 0.29312
 N2034 N 0.30861 0.59883 0.28926
 N2035 N 0.31402 0.60975 0.29504
 C2036 C 0.30727 0.61648 0.30499
 N2037 N 0.29491 0.61193 0.30890
 N2038 N 0.28945 0.60108 0.30303
 C2039 C 0.29020 0.58233 0.28673
 N2040 N 0.27690 0.57940 0.28860
 N2041 N 0.27143 0.56853 0.28280
 C2042 C 0.27906 0.56013 0.27501
 N2043 N 0.29238 0.56301 0.27320
 N2044 N 0.29783 0.57396 0.27891
 C2045 C 0.27305 0.54799 0.26886
 N2046 N 0.28099 0.53811 0.26349
 N2047 N 0.27550 0.52690 0.25835
 C2048 C 0.26185 0.52525 0.25825
 N2049 N 0.25393 0.53516 0.26360
 N2050 N 0.25942 0.54630 0.26882
 C2051 C 0.29577 0.09483 0.79333
 N2052 N 0.30865 0.09862 0.79043
 N2053 N 0.31397 0.10963 0.79612
 C2054 C 0.30663 0.11721 0.80496
 N2055 N 0.29376 0.11338 0.80792
 N2056 N 0.28842 0.10240 0.80219
 C2057 C 0.28989 0.08271 0.78703
 N2058 N 0.27662 0.07968 0.78884
 N2059 N 0.27128 0.06868 0.78316
 C2060 C 0.27904 0.06026 0.77551
 N2061 N 0.29234 0.06324 0.77375
 N2062 N 0.29766 0.07429 0.77937
 C2063 C 0.27315 0.04807 0.76940
 N2064 N 0.28116 0.03854 0.76353
 N2065 N 0.27580 0.02731 0.75832
 C2066 C 0.26221 0.02526 0.75869
 N2067 N 0.25421 0.03483 0.76453
 N2068 N 0.25958 0.04601 0.76979
 C2069 C 0.79612 0.59509 0.79174
 N2070 N 0.78869 0.60285 0.80036
 N2071 N 0.79412 0.61369 0.80626
 C2072 C 0.80715 0.61721 0.80371
 N2073 N 0.81456 0.60951 0.79503
 N2074 N 0.80915 0.59862 0.78917
 C2075 C 0.79018 0.58296 0.78551
 N2076 N 0.79799 0.57413 0.77839
 N2077 N 0.79261 0.56298 0.77301
 C2078 C 0.77921 0.56030 0.77451
 N2079 N 0.77141 0.56916 0.78158
 N2080 N 0.77679 0.58027 0.78701
 C2081 C 0.77323 0.54796 0.76875
 N2082 N 0.75963 0.54608 0.76912
 N2083 N 0.75415 0.53484 0.76409
 C2084 C 0.76204 0.52506 0.75848
 N2085 N 0.77567 0.52688 0.75822
 N2086 N 0.78116 0.53816 0.76321
 C2087 C 0.79587 0.09425 0.29311
 N2088 N 0.78927 0.10087 0.30321
 N2089 N 0.79477 0.11171 0.30905
 C2090 C 0.80702 0.11638 0.30493
 N2091 N 0.81361 0.10979 0.29479
 N2092 N 0.80816 0.09888 0.28902
 C2093 C 0.78984 0.08224 0.28677
 N2094 N 0.79736 0.07407 0.27863
 N2095 N 0.79191 0.06308 0.27301
 C2096 C 0.77871 0.05994 0.27523
 N2097 N 0.77118 0.06816 0.28332
 N2098 N 0.77666 0.07908 0.28902
 C2099 C 0.77273 0.04776 0.26918
 N2100 N 0.75912 0.04593 0.26930
 N2101 N 0.75369 0.03474 0.26409
 C2102 C 0.76167 0.02493 0.25863
 N2103 N 0.77529 0.02675 0.25856
 N2104 N 0.78072 0.03800 0.26366
 C2105 C 0.70239 0.40588 0.29326
 N2106 N 0.68944 0.40218 0.29055
 N2107 N 0.68401 0.39136 0.29654
 C2108 C 0.69133 0.38391 0.30551
 N2109 N 0.70426 0.38762 0.30822
 N2110 N 0.70970 0.39839 0.30219
 C2111 C 0.70841 0.41787 0.28683
 N2112 N 0.72180 0.42051 0.28833
 N2113 N 0.72730 0.43147 0.28272
 C2114 C 0.71959 0.44026 0.27546
 N2115 N 0.70619 0.43763 0.27395
 N2116 N 0.70070 0.42661 0.27950
 C2117 C 0.72569 0.45247 0.26955
 N2118 N 0.71785 0.46234 0.26404
 N2119 N 0.72344 0.47355 0.25899
 C2120 C 0.73709 0.47521 0.25914
 N2121 N 0.74490 0.46534 0.26468
 N2122 N 0.73931 0.45418 0.26979
 C2123 C 0.70250 0.90642 0.79414
 N2124 N 0.68983 0.90227 0.79081
 N2125 N 0.68440 0.89143 0.79674
 C2126 C 0.69141 0.88440 0.80628
 N2127 N 0.70405 0.88859 0.80965
 N2128 N 0.70950 0.89938 0.80366
 C2129 C 0.70852 0.91840 0.78770
 N2130 N 0.72183 0.92126 0.78949
 N2131 N 0.72733 0.93216 0.78374
 C2132 C 0.71970 0.94065 0.77607
 N2133 N 0.70636 0.93783 0.77431
 N2134 N 0.70088 0.92687 0.77999
 C2135 C 0.72577 0.95281 0.77001
 N2136 N 0.71790 0.96254 0.76429
 N2137 N 0.72344 0.97372 0.75914
 C2138 C 0.73707 0.97551 0.75939
 N2139 N 0.74492 0.96578 0.76515
 N2140 N 0.73937 0.95465 0.77037
 C2141 C 0.20351 0.40543 0.79333
 N2142 N 0.19103 0.40104 0.78965
 N2143 N 0.18567 0.39006 0.79540
 C2144 C 0.19256 0.38314 0.80511
 N2145 N 0.20503 0.38755 0.80880
 N2146 N 0.21042 0.39847 0.80299
 C2147 C 0.20945 0.41754 0.78706
 N2148 N 0.22265 0.42066 0.78918
 N2149 N 0.22808 0.43166 0.78356
 C2150 C 0.22048 0.43999 0.77567
 N2151 N 0.20725 0.43690 0.77358
 N2152 N 0.20185 0.42584 0.77914
 C2153 C 0.22646 0.45220 0.76967
 N2154 N 0.21853 0.46180 0.76380
 N2155 N 0.22399 0.47303 0.75868
 C2156 C 0.23759 0.47500 0.75912
 N2157 N 0.24549 0.46539 0.76499
 N2158 N 0.24004 0.45421 0.77018
 C2159 C 0.20269 0.90633 0.29414
 N2160 N 0.20961 0.89949 0.30387
 N2161 N 0.20429 0.88855 0.30971
 C2162 C 0.19190 0.88399 0.30596
 N2163 N 0.18499 0.89080 0.29619
 N2164 N 0.19026 0.90181 0.29042
 C2165 C 0.20865 0.91835 0.28770
 N2166 N 0.20111 0.92655 0.27961
 N2167 N 0.20659 0.93747 0.27386
 C2168 C 0.21983 0.94051 0.27589
 N2169 N 0.22737 0.93230 0.28395
 N2170 N 0.22187 0.92145 0.28978
 C2171 C 0.22593 0.95256 0.26964
 N2172 N 0.23952 0.95448 0.27013
 N2173 N 0.24506 0.96558 0.26484
 C2174 C 0.23723 0.97520 0.25887
 N2175 N 0.22363 0.97328 0.25839
 N2176 N 0.21808 0.96213 0.26361
 C2177 C 0.40545 0.29422 0.70539
 N2178 N 0.39806 0.30352 0.71233
 N2179 N 0.38718 0.30921 0.70671
 C2180 C 0.38326 0.30573 0.69398
 N2181 N 0.39062 0.29638 0.68706
 N2182 N 0.40155 0.29077 0.69264
 C2183 C 0.41756 0.28808 0.71146
 N2184 N 0.42631 0.28085 0.70369
 N2185 N 0.43742 0.27545 0.70910
 C2186 C 0.44014 0.27700 0.72251
 N2187 N 0.43134 0.28415 0.73032
 N2188 N 0.42027 0.28964 0.72488
 C2189 C 0.45250 0.27117 0.72840
 N2190 N 0.45429 0.27080 0.74206
 N2191 N 0.46553 0.26553 0.74737
 C2192 C 0.47541 0.26049 0.73920
 N2193 N 0.47368 0.26101 0.72555
 N2194 N 0.46241 0.26619 0.72025
 C2195 C 0.40484 0.79391 0.20508
 N2196 N 0.39752 0.80330 0.21199
 N2197 N 0.38660 0.80894 0.20641
 C2198 C 0.38254 0.80531 0.19376
 N2199 N 0.38981 0.79587 0.18689
 N2200 N 0.40079 0.79030 0.19242
 C2201 C 0.41700 0.78784 0.21113
 N2202 N 0.42575 0.78056 0.20339
 N2203 N 0.43689 0.77523 0.20883
 C2204 C 0.43963 0.77687 0.22223
 N2205 N 0.43084 0.78409 0.22999
 N2206 N 0.41975 0.78952 0.22452
 C2207 C 0.45200 0.77111 0.22814
 N2208 N 0.45370 0.77061 0.24181
 N2209 N 0.46500 0.76547 0.24713
 C2210 C 0.47502 0.76071 0.23896
 N2211 N 0.47335 0.76133 0.22530
 N2212 N 0.46202 0.76637 0.22000
 C2213 C 0.90460 0.29386 0.20509
 N2214 N 0.89736 0.30336 0.21192
 N2215 N 0.88648 0.30902 0.20630
 C2216 C 0.88239 0.30532 0.19369
 N2217 N 0.88958 0.29577 0.18689
 N2218 N 0.90053 0.29018 0.19246
 C2219 C 0.91675 0.28781 0.21115
 N2220 N 0.92552 0.28055 0.20341
 N2221 N 0.93668 0.27527 0.20884
 C2222 C 0.93943 0.27695 0.22223
 N2223 N 0.93062 0.28412 0.23000
 N2224 N 0.91950 0.28950 0.22454
 C2225 C 0.95184 0.27126 0.22813
 N2226 N 0.95355 0.27074 0.24179
 N2227 N 0.96484 0.26558 0.24710
 C2228 C 0.97485 0.26082 0.23893
 N2229 N 0.97319 0.26147 0.22527
 N2230 N 0.96186 0.26653 0.21997
 C2231 C 0.90493 0.79516 0.70620
 N2232 N 0.89912 0.80643 0.71155
 N2233 N 0.88822 0.81192 0.70579
 C2234 C 0.88273 0.80635 0.69447
 N2235 N 0.88852 0.79507 0.68913
 N2236 N 0.89943 0.78957 0.69489
 C2237 C 0.91704 0.78918 0.71249
 N2238 N 0.92290 0.77794 0.70713
 N2239 N 0.93395 0.77262 0.71275
 C2240 C 0.93958 0.77835 0.72392
 N2241 N 0.93371 0.78958 0.72930
 N2242 N 0.92263 0.79489 0.72370
 C2243 C 0.95191 0.77259 0.72995
 N2244 N 0.95862 0.77928 0.73994
 N2245 N 0.96995 0.77416 0.74521
 C2246 C 0.97488 0.76212 0.74075
 N2247 N 0.96816 0.75539 0.73082
 N2248 N 0.95690 0.76057 0.72548
 C2249 C 0.59589 0.29394 0.29371
 N2250 N 0.59892 0.30716 0.29146
 N2251 N 0.60988 0.31270 0.29700
 C2252 C 0.61817 0.30526 0.30507
 N2253 N 0.61517 0.29203 0.30730
 N2254 N 0.60424 0.28645 0.30169
 C2255 C 0.58363 0.28797 0.28781
 N2256 N 0.58138 0.27441 0.28845
 N2257 N 0.57015 0.26909 0.28319
 C2258 C 0.56074 0.27713 0.27720
 N2259 N 0.56298 0.29068 0.27658
 N2260 N 0.57424 0.29599 0.28175
 C2261 C 0.54828 0.27135 0.27153
 N2262 N 0.53797 0.27957 0.26761
 N2263 N 0.52664 0.27439 0.26249
 C2264 C 0.52524 0.26079 0.26098
 N2265 N 0.53552 0.25256 0.26496
 N2266 N 0.54683 0.25775 0.27016
 C2267 C 0.59486 0.79436 0.79433
 N2268 N 0.60250 0.78721 0.80327
 N2269 N 0.61331 0.79282 0.80905
 C2270 C 0.61692 0.80574 0.80604
 N2271 N 0.60929 0.81287 0.79708
 N2272 N 0.59843 0.80730 0.79137
 C2273 C 0.58276 0.78832 0.78820
 N2274 N 0.57384 0.79617 0.78127
 N2275 N 0.56274 0.79078 0.77586
 C2276 C 0.56020 0.77733 0.77710
 N2277 N 0.56914 0.76946 0.78398
 N2278 N 0.58020 0.77487 0.78948
 C2279 C 0.54786 0.77149 0.77127
 N2280 N 0.54619 0.75785 0.77053
 N2281 N 0.53493 0.75262 0.76526
 C2282 C 0.52492 0.76084 0.76060
 N2283 N 0.52654 0.77446 0.76149
 N2284 N 0.53783 0.77969 0.76666
 C2285 C 0.09403 0.29423 0.79564
 N2286 N 0.10095 0.30401 0.78887
 N2287 N 0.11169 0.30991 0.79450
 C2288 C 0.11594 0.30619 0.80705
 N2289 N 0.10905 0.29639 0.81380
 N2290 N 0.09826 0.29055 0.80822
 C2291 C 0.08212 0.28781 0.78952
 N2292 N 0.07389 0.27980 0.79708
 N2293 N 0.06296 0.27413 0.79158
 C2294 C 0.05994 0.27618 0.77830
 N2295 N 0.06823 0.28412 0.77072
 N2296 N 0.07910 0.28987 0.77624
 C2297 C 0.04779 0.27012 0.77230
 N2298 N 0.04589 0.27031 0.75867
 N2299 N 0.03472 0.26505 0.75324
 C2300 C 0.02503 0.25947 0.76125
 N2301 N 0.02690 0.25936 0.77490
 N2302 N 0.03812 0.26452 0.78032
 C2303 C 0.09448 0.79461 0.29579
 N2304 N 0.09731 0.80794 0.29394
 N2305 N 0.10827 0.81344 0.29952
 C2306 C 0.11675 0.80584 0.30724
 N2307 N 0.11392 0.79252 0.30911
 N2308 N 0.10299 0.78699 0.30346
 C2309 C 0.08234 0.78862 0.28968
 N2310 N 0.08037 0.77501 0.28983
 N2311 N 0.06933 0.76964 0.28423
 C2312 C 0.05985 0.77770 0.27835
 N2313 N 0.06181 0.79130 0.27826
 N2314 N 0.07287 0.79666 0.28378
 C2315 C 0.04764 0.77189 0.27223
 N2316 N 0.03736 0.78009 0.26819
 N2317 N 0.02621 0.77491 0.26270
 C2318 C 0.02497 0.76134 0.26089
 N2319 N 0.03523 0.75311 0.26495
 N2320 N 0.04637 0.75830 0.27053
 C2321 C 0.59526 0.70634 0.70519
 N2322 N 0.59782 0.69291 0.70667
 N2323 N 0.60882 0.68736 0.70116
 C2324 C 0.61763 0.69501 0.69389
 N2325 N 0.61509 0.70845 0.69241
 N2326 N 0.60412 0.71403 0.69799
 C2327 C 0.58299 0.71234 0.71111
 N2328 N 0.58105 0.72596 0.71114
 N2329 N 0.56984 0.73130 0.71649
 C2330 C 0.56014 0.72320 0.72191
 N2331 N 0.56207 0.70958 0.72182
 N2332 N 0.57330 0.70426 0.71656
 C2333 C 0.54777 0.72898 0.72783
 N2334 N 0.53742 0.72077 0.73159
 N2335 N 0.52617 0.72594 0.73697
 C2336 C 0.52490 0.73949 0.73892
 N2337 N 0.53525 0.74772 0.73512
 N2338 N 0.54648 0.74255 0.72966
 C2339 C 0.59629 0.20692 0.20631
 N2340 N 0.60026 0.19421 0.20976
 N2341 N 0.61136 0.18877 0.20433
 C2342 C 0.61884 0.19581 0.19518
 N2343 N 0.61488 0.20853 0.19172
 N2344 N 0.60382 0.21401 0.19723
 C2345 C 0.58392 0.21277 0.21216
 N2346 N 0.58101 0.22613 0.21061
 N2347 N 0.56975 0.23137 0.21593
 C2348 C 0.56095 0.22340 0.22289
 N2349 N 0.56383 0.21004 0.22437
 N2350 N 0.57513 0.20483 0.21914
 C2351 C 0.54848 0.22909 0.22869
 N2352 N 0.53855 0.22079 0.23330
 N2353 N 0.52718 0.22590 0.23847
 C2354 C 0.52539 0.23950 0.23937
 N2355 N 0.53531 0.24782 0.23475
 N2356 N 0.54665 0.24270 0.22948
 C2357 C 0.09639 0.70761 0.20634
 N2358 N 0.10416 0.71482 0.19756
 N2359 N 0.11512 0.70926 0.19192
 C2360 C 0.11873 0.69633 0.19494
 N2361 N 0.11102 0.68917 0.20380
 N2362 N 0.10002 0.69470 0.20936
 C2363 C 0.08408 0.71352 0.21228
 N2364 N 0.07509 0.70555 0.21896
 N2365 N 0.06380 0.71079 0.22417
 C2366 C 0.06111 0.72422 0.22298
 N2367 N 0.07012 0.73223 0.21635
 N2368 N 0.08138 0.72696 0.21104
 C2369 C 0.04856 0.72990 0.22864
 N2370 N 0.04673 0.74350 0.22958
 N2371 N 0.03531 0.74856 0.23474
 C2372 C 0.02530 0.74020 0.23908
 N2373 N 0.02709 0.72661 0.23802
 N2374 N 0.03854 0.72155 0.23296
 C2375 C 0.09426 0.20530 0.70461
 N2376 N 0.10116 0.21163 0.69452
 N2377 N 0.11188 0.20574 0.68880
 C2378 C 0.11611 0.19333 0.69296
 N2379 N 0.10924 0.18701 0.70308
 N2380 N 0.09850 0.19289 0.70879
 C2381 C 0.08229 0.21170 0.71073
 N2382 N 0.07506 0.20514 0.72043
 N2383 N 0.06406 0.21083 0.72581
 C2384 C 0.05989 0.22328 0.72169
 N2385 N 0.06715 0.22987 0.71203
 N2386 N 0.07815 0.22417 0.70665
 C2387 C 0.04761 0.22940 0.72746
 N2388 N 0.04309 0.24164 0.72305
 N2389 N 0.03182 0.24705 0.72819
 C2390 C 0.02474 0.24043 0.73795
 N2391 N 0.02923 0.22820 0.74233
 N2392 N 0.04046 0.22278 0.73718
 C2393 C 0.40525 0.70561 0.29439
 N2394 N 0.40138 0.70886 0.30721
 N2395 N 0.39035 0.70335 0.31268
 C2396 C 0.38285 0.69430 0.30557
 N2397 N 0.38675 0.69100 0.29277
 N2398 N 0.39773 0.69660 0.28726
 C2399 C 0.41745 0.71167 0.28844
 N2400 N 0.42007 0.71047 0.27496
 N2401 N 0.43115 0.71599 0.26959
 C2402 C 0.44007 0.72282 0.27752
 N2403 N 0.43747 0.72395 0.29101
 N2404 N 0.42634 0.71852 0.29636
 C2405 C 0.45238 0.72878 0.27168
 N2406 N 0.46240 0.73339 0.27987
 N2407 N 0.47363 0.73870 0.27461
 C2408 C 0.47519 0.73975 0.26096
 N2409 N 0.46519 0.73510 0.25276
 N2410 N 0.45399 0.72970 0.25802
 C2411 C 0.40500 0.20668 0.79530
 N2412 N 0.40218 0.20847 0.80867
 N2413 N 0.39138 0.20264 0.81428
 C2414 C 0.38306 0.19472 0.80673
 N2415 N 0.38584 0.19298 0.79335
 N2416 N 0.39659 0.19888 0.78773
 C2417 C 0.41714 0.21274 0.78922
 N2418 N 0.41910 0.21241 0.77558
 N2419 N 0.43027 0.21766 0.77010
 C2420 C 0.43992 0.22332 0.77808
 N2421 N 0.43796 0.22363 0.79171
 N2422 N 0.42675 0.21847 0.79718
 C2423 C 0.45233 0.22897 0.77213
 N2424 N 0.46270 0.23291 0.78024
 N2425 N 0.47397 0.23803 0.77490
 C2426 C 0.47526 0.23953 0.76127
 N2427 N 0.46492 0.23552 0.75314
 N2428 N 0.45366 0.23033 0.75848
 C2429 C 0.90562 0.70382 0.79384
 N2430 N 0.90206 0.69084 0.79104
 N2431 N 0.89133 0.68525 0.79701
 C2432 C 0.88382 0.69241 0.80607
 N2433 N 0.88739 0.70538 0.80888
 N2434 N 0.89807 0.71100 0.80284
 C2435 C 0.91753 0.70993 0.78736
 N2436 N 0.91997 0.72341 0.78857
 N2437 N 0.93086 0.72894 0.78283
 C2438 C 0.93975 0.72118 0.77576
 N2439 N 0.93734 0.70770 0.77457
 N2440 N 0.92640 0.70218 0.78022
 C2441 C 0.95193 0.72724 0.76975
 N2442 N 0.96207 0.71928 0.76492
 N2443 N 0.97331 0.72478 0.75988
 C2444 C 0.97476 0.73845 0.75933
 N2445 N 0.96459 0.74640 0.76412
 N2446 N 0.95339 0.74090 0.76925
 C2447 C 0.90479 0.20588 0.29427
 N2448 N 0.90086 0.20923 0.30704
 N2449 N 0.88986 0.20368 0.31254
 C2450 C 0.88245 0.19450 0.30550
 N2451 N 0.88639 0.19112 0.29274
 N2452 N 0.89734 0.19675 0.28720
 C2453 C 0.91698 0.21195 0.28829
 N2454 N 0.91964 0.21067 0.27483
 N2455 N 0.93072 0.21619 0.26945
 C2456 C 0.93959 0.22309 0.27736
 N2457 N 0.93696 0.22433 0.29082
 N2458 N 0.92582 0.21891 0.29618
 C2459 C 0.95192 0.22901 0.27150
 N2460 N 0.96198 0.23355 0.27968
 N2461 N 0.97326 0.23873 0.27440
 C2462 C 0.97483 0.23971 0.26075
 N2463 N 0.96476 0.23517 0.25256
 N2464 N 0.95352 0.22988 0.25784
 C2465 C 0.29511 0.29459 0.59455
 N2466 N 0.30678 0.28967 0.59989
 N2467 N 0.31230 0.29543 0.61077
 C2468 C 0.30638 0.30634 0.61670
 N2469 N 0.29470 0.31127 0.61137
 N2470 N 0.28916 0.30549 0.60049
 C2471 C 0.28913 0.28825 0.58248
 N2472 N 0.27696 0.29246 0.57764
 N2473 N 0.27162 0.28674 0.56664
 C2474 C 0.27829 0.27666 0.56003
 N2475 N 0.29045 0.27247 0.56486
 N2476 N 0.29576 0.27813 0.57591
 C2477 C 0.27256 0.27056 0.54774
 N2478 N 0.28041 0.26287 0.53943
 N2479 N 0.27530 0.25756 0.52810
 C2480 C 0.26212 0.25961 0.52481
 N2481 N 0.25425 0.26724 0.53315
 N2482 N 0.25940 0.27267 0.54439
 C2483 C 0.29360 0.79671 0.09417
 N2484 N 0.28980 0.80916 0.09864
 N2485 N 0.29550 0.81453 0.10965
 C2486 C 0.30527 0.80768 0.11651
 N2487 N 0.30909 0.79526 0.11200
 N2488 N 0.30333 0.78986 0.10106
 C2489 C 0.28735 0.79075 0.08205
 N2490 N 0.28959 0.77756 0.07884
 N2491 N 0.28399 0.77213 0.06783
 C2492 C 0.27602 0.77970 0.05956
 N2493 N 0.27379 0.79290 0.06275
 N2494 N 0.27932 0.79832 0.07382
 C2495 C 0.27006 0.77372 0.04731
 N2496 N 0.26403 0.78166 0.03780
 N2497 N 0.25889 0.77621 0.02656
 C2498 C 0.25945 0.76262 0.02449
 N2499 N 0.26549 0.75471 0.03400
 N2500 N 0.27071 0.76016 0.04519
 C2501 C 0.79344 0.29670 0.09418
 N2502 N 0.80326 0.28989 0.10100
 N2503 N 0.80907 0.29532 0.11191
 C2504 C 0.80521 0.30772 0.11644
 N2505 N 0.79537 0.31452 0.10965
 N2506 N 0.78962 0.30913 0.09868
 C2507 C 0.78713 0.29071 0.08211
 N2508 N 0.77900 0.29825 0.07395
 N2509 N 0.77345 0.29283 0.06289
 C2510 C 0.77574 0.27965 0.05966
 N2511 N 0.78381 0.27211 0.06787
 N2512 N 0.78944 0.27755 0.07886
 C2513 C 0.76976 0.27367 0.04743
 N2514 N 0.77048 0.26011 0.04527
 N2515 N 0.76524 0.25465 0.03410
 C2516 C 0.75910 0.26256 0.02464
 N2517 N 0.75848 0.27614 0.02674
 N2518 N 0.76365 0.28159 0.03797
 C2519 C 0.79396 0.79661 0.59448
 N2520 N 0.79010 0.80902 0.59901
 N2521 N 0.79580 0.81439 0.61001
 C2522 C 0.80564 0.80759 0.61681
 N2523 N 0.80954 0.79521 0.61225
 N2524 N 0.80378 0.78980 0.60131
 C2525 C 0.78764 0.79064 0.58242
 N2526 N 0.78988 0.77746 0.57918
 N2527 N 0.78414 0.77202 0.56824
 C2528 C 0.77603 0.77958 0.56009
 N2529 N 0.77382 0.79277 0.56330
 N2530 N 0.77948 0.79819 0.57430
 C2531 C 0.76992 0.77361 0.54792
 N2532 N 0.76387 0.78158 0.53846
 N2533 N 0.75860 0.77616 0.52727
 C2534 C 0.75904 0.76256 0.52522
 N2535 N 0.76510 0.75461 0.53469
 N2536 N 0.77045 0.76004 0.54582
 C2537 C 0.29390 0.70422 0.40515
 N2538 N 0.29035 0.69161 0.40097
 N2539 N 0.29614 0.68609 0.39007
 C2540 C 0.30576 0.69294 0.38302
 N2541 N 0.30935 0.70552 0.38723
 N2542 N 0.30349 0.71108 0.39807
 C2543 C 0.28757 0.71031 0.41719
 N2544 N 0.28949 0.72360 0.42013
 N2545 N 0.28389 0.72909 0.43114
 C2546 C 0.27626 0.72146 0.43967
 N2547 N 0.27435 0.70816 0.43675
 N2548 N 0.27986 0.70270 0.42568
 C2549 C 0.27037 0.72743 0.45197
 N2550 N 0.26482 0.71942 0.46169
 N2551 N 0.25966 0.72482 0.47295
 C2552 C 0.25972 0.73844 0.47484
 N2553 N 0.26533 0.74645 0.46514
 N2554 N 0.27057 0.74104 0.45392
 C2555 C 0.29617 0.20572 0.90468
 N2556 N 0.28822 0.19897 0.89571
 N2557 N 0.29362 0.19296 0.88486
 C2558 C 0.30716 0.19353 0.88258
 N2559 N 0.31510 0.20028 0.89153
 N2560 N 0.30971 0.20624 0.90240
 C2561 C 0.29024 0.21220 0.91674
 N2562 N 0.29828 0.21771 0.92644
 N2563 N 0.29289 0.22349 0.93741
 C2564 C 0.27925 0.22403 0.93905
 N2565 N 0.27121 0.21851 0.92935
 N2566 N 0.27661 0.21268 0.91841
 C2567 C 0.27327 0.23011 0.95127
 N2568 N 0.25964 0.23134 0.95250
 N2569 N 0.25418 0.23638 0.96379
 C2570 C 0.26213 0.24039 0.97429
 N2571 N 0.27577 0.23914 0.97304
 N2572 N 0.28123 0.23414 0.96173
 C2573 C 0.79318 0.70465 0.90433
 N2574 N 0.78748 0.69378 0.89813
 N2575 N 0.79310 0.68844 0.88706
 C2576 C 0.80463 0.69376 0.88178
 N2577 N 0.81032 0.70463 0.88797
 N2578 N 0.80469 0.70998 0.89903
 C2579 C 0.78706 0.71052 0.91658
 N2580 N 0.79250 0.72171 0.92242
 N2581 N 0.78703 0.72701 0.93358
 C2582 C 0.77594 0.72129 0.93935
 N2583 N 0.77049 0.71009 0.93353
 N2584 N 0.77593 0.70482 0.92233
 C2585 C 0.77007 0.72707 0.95177
 N2586 N 0.76047 0.72023 0.95888
 N2587 N 0.75536 0.72540 0.97029
 C2588 C 0.75960 0.73763 0.97490
 N2589 N 0.76914 0.74450 0.96777
 N2590 N 0.77433 0.73928 0.95643
 C2591 C 0.79380 0.20326 0.40556
 N2592 N 0.79020 0.19071 0.40125
 N2593 N 0.79604 0.18527 0.39034
 C2594 C 0.80575 0.19213 0.38343
 N2595 N 0.80937 0.20465 0.38777
 N2596 N 0.80348 0.21013 0.39862
 C2597 C 0.78739 0.20929 0.41756
 N2598 N 0.78942 0.22254 0.42063
 N2599 N 0.78369 0.22802 0.43157
 C2600 C 0.77579 0.22043 0.43989
 N2601 N 0.77376 0.20718 0.43684
 N2602 N 0.77942 0.20172 0.42584
 C2603 C 0.76975 0.22643 0.45209
 N2604 N 0.76385 0.21849 0.46167
 N2605 N 0.75867 0.22395 0.47290
 C2606 C 0.75907 0.23755 0.47489
 N2607 N 0.76499 0.24547 0.46531
 N2608 N 0.77024 0.24001 0.45413
 C2609 C 0.70749 0.29518 0.40449
 N2610 N 0.69831 0.28799 0.39720
 N2611 N 0.69266 0.29328 0.38613
 C2612 C 0.69605 0.30591 0.38189
 N2613 N 0.70526 0.31308 0.38914
 N2614 N 0.71084 0.30783 0.40026
 C2615 C 0.71362 0.28937 0.41675
 N2616 N 0.72113 0.29717 0.42522
 N2617 N 0.72655 0.29191 0.43643
 C2618 C 0.72472 0.27863 0.43952
 N2619 N 0.71727 0.27083 0.43101
 N2620 N 0.71178 0.27611 0.41985
 C2621 C 0.73057 0.27279 0.45190
 N2622 N 0.73018 0.25921 0.45401
 N2623 N 0.73534 0.25385 0.46527
 C2624 C 0.74105 0.26186 0.47488
 N2625 N 0.74133 0.27547 0.47284
 N2626 N 0.73624 0.28083 0.46152
 C2627 C 0.70740 0.79461 0.90422
 N2628 N 0.69827 0.78745 0.89686
 N2629 N 0.69251 0.79285 0.88589
 C2630 C 0.69576 0.80558 0.88182
 N2631 N 0.70494 0.81272 0.88915
 N2632 N 0.71061 0.80736 0.90017
 C2633 C 0.71362 0.78872 0.91639
 N2634 N 0.72078 0.79659 0.92511
 N2635 N 0.72623 0.79128 0.93627
 C2636 C 0.72482 0.77789 0.93907
 N2637 N 0.71774 0.77001 0.93032
 N2638 N 0.71219 0.77533 0.91921
 C2639 C 0.73068 0.77206 0.95146
 N2640 N 0.73111 0.75843 0.95323
 N2641 N 0.73622 0.75313 0.96455
 C2642 C 0.74105 0.76125 0.97456
 N2643 N 0.74054 0.77489 0.97282
 N2644 N 0.73553 0.78019 0.96144
 C2645 C 0.20523 0.29426 0.90508
 N2646 N 0.19324 0.28979 0.90014
 N2647 N 0.18769 0.29558 0.88928
 C2648 C 0.19391 0.30611 0.88299
 N2649 N 0.20592 0.31061 0.88793
 N2650 N 0.21150 0.30477 0.89878
 C2651 C 0.21120 0.28787 0.91712
 N2652 N 0.22387 0.29116 0.92127
 N2653 N 0.22919 0.28539 0.93227
 C2654 C 0.22198 0.27622 0.93956
 N2655 N 0.20931 0.27293 0.93541
 N2656 N 0.20404 0.27862 0.92435
 C2657 C 0.22772 0.27012 0.95183
 N2658 N 0.21965 0.26367 0.96092
 N2659 N 0.22485 0.25833 0.97219
 C2660 C 0.23833 0.25911 0.97468
 N2661 N 0.24640 0.26560 0.96561
 N2662 N 0.24118 0.27103 0.95439
 C2663 C 0.20661 0.79444 0.40410
 N2664 N 0.19905 0.78667 0.39563
 N2665 N 0.19396 0.79186 0.38424
 C2666 C 0.19633 0.80498 0.38085
 N2667 N 0.20392 0.81272 0.38928
 N2668 N 0.20895 0.80756 0.40071
 C2669 C 0.21227 0.78876 0.41665
 N2670 N 0.21838 0.79694 0.42588
 N2671 N 0.22369 0.79180 0.43719
 C2672 C 0.22316 0.77828 0.43966
 N2673 N 0.21702 0.77011 0.43045
 N2674 N 0.21165 0.77526 0.41917
 C2675 C 0.22925 0.77256 0.45199
 N2676 N 0.23013 0.75894 0.45368
 N2677 N 0.23565 0.75374 0.46486
 C2678 C 0.24051 0.76196 0.47477
 N2679 N 0.23955 0.77558 0.47311
 N2680 N 0.23410 0.78079 0.46189
 C2681 C 0.70664 0.70512 0.59546
 N2682 N 0.70925 0.69210 0.59903
 N2683 N 0.70417 0.68695 0.61045
 C2684 C 0.69626 0.69463 0.61870
 N2685 N 0.69366 0.70766 0.61515
 N2686 N 0.69879 0.71283 0.60375
 C2687 C 0.71237 0.71083 0.58295
 N2688 N 0.71144 0.72430 0.58037
 N2689 N 0.71695 0.72955 0.56920
 C2690 C 0.72355 0.72151 0.56018
 N2691 N 0.72439 0.70801 0.56269
 N2692 N 0.71893 0.70277 0.57390
 C2693 C 0.72968 0.72739 0.54793
 N2694 N 0.73489 0.71932 0.53806
 N2695 N 0.74028 0.72471 0.52689
 C2696 C 0.74080 0.73837 0.52525
 N2697 N 0.73558 0.74641 0.53514
 N2698 N 0.73013 0.74102 0.54627
 C2699 C 0.70692 0.20393 0.09436
 N2700 N 0.70969 0.19098 0.09809
 N2701 N 0.70378 0.18557 0.10897
 C2702 C 0.69483 0.19287 0.11646
 N2703 N 0.69202 0.20580 0.11270
 N2704 N 0.69799 0.21124 0.10186
 C2705 C 0.71338 0.20993 0.08236
 N2706 N 0.71199 0.22335 0.07970
 N2707 N 0.71767 0.22880 0.06872
 C2708 C 0.72489 0.22101 0.05996
 N2709 N 0.72630 0.20759 0.06262
 N2710 N 0.72068 0.20215 0.07365
 C2711 C 0.73082 0.22701 0.04769
 N2712 N 0.73623 0.21905 0.03784
 N2713 N 0.74127 0.22452 0.02656
 C2714 C 0.74121 0.23817 0.02478
 N2715 N 0.73576 0.24611 0.03462
 N2716 N 0.73066 0.24063 0.04586
 C2717 C 0.20679 0.70425 0.09400
 N2718 N 0.20962 0.69134 0.09783
 N2719 N 0.20378 0.68600 0.10878
 C2720 C 0.19482 0.69333 0.11624
 N2721 N 0.19196 0.70622 0.11239
 N2722 N 0.19787 0.71159 0.10149
 C2723 C 0.21321 0.71018 0.08195
 N2724 N 0.21182 0.72358 0.07922
 N2725 N 0.21754 0.72899 0.06824
 C2726 C 0.22481 0.72117 0.05954
 N2727 N 0.22620 0.70775 0.06226
 N2728 N 0.22054 0.70236 0.07329
 C2729 C 0.23085 0.72713 0.04731
 N2730 N 0.23633 0.71915 0.03752
 N2731 N 0.24150 0.72460 0.02628
 C2732 C 0.24151 0.73825 0.02450
 N2733 N 0.23601 0.74621 0.03430
 N2734 N 0.23077 0.74076 0.04549
 C2735 C 0.20606 0.20642 0.59546
 N2736 N 0.21324 0.19738 0.60296
 N2737 N 0.20777 0.19161 0.61390
 C2738 C 0.19496 0.19477 0.61778
 N2739 N 0.18781 0.20385 0.61032
 N2740 N 0.19324 0.20953 0.59933
 C2741 C 0.21193 0.21264 0.58328
 N2742 N 0.20394 0.21955 0.57445
 N2743 N 0.20918 0.22507 0.56329
 C2744 C 0.22261 0.22400 0.56061
 N2745 N 0.23062 0.21717 0.56948
 N2746 N 0.22537 0.21155 0.58059
 C2747 C 0.22832 0.22994 0.54821
 N2748 N 0.24193 0.23074 0.54649
 N2749 N 0.24710 0.23597 0.53516
 C2750 C 0.23887 0.24055 0.52512
 N2751 N 0.22526 0.23964 0.52680
 N2752 N 0.22009 0.23450 0.53818
   
