data_POSCAR
  _audit_creation_date              2014-09-24
  _audit_creation_method            'ToBaCCo'
  _symmetry_space_group_name_H-M    'P1'
  _symmetry_Int_Tables_number       1
  _symmetry_cell_setting            triclinic
  loop_
  _symmetry_equiv_pos_as_xyz
 x,y,z
_cell_length_a 85.9368
_cell_length_b 85.3433
_cell_length_c 85.8199
_cell_angle_alpha 90.041600
_cell_angle_beta 90.041100
_cell_angle_gamma 90.013100
loop_
  _atom_site_label
  _atom_site_type_symbol
  _atom_site_fract_x
  _atom_site_fract_y
  _atom_site_fract_z
C1 C 0.30286 0.43644 0.92364
 C2 C 0.30287 0.42495 0.93533
 C3 C 0.31452 0.42481 0.94645
 C4 C 0.32630 0.43619 0.94608
 C5 C 0.32624 0.44751 0.93465
 C6 C 0.31449 0.44762 0.92331
 C7 C 0.29352 0.43895 0.91084
 N8 N 0.29922 0.45138 0.90272
 C9 C 0.31205 0.45673 0.91034
 C10 C 0.33920 0.45667 0.93685
 N11 N 0.34735 0.45125 0.94942
 C12 C 0.33935 0.43862 0.95505
 C13 C 0.31205 0.41195 0.95577
 N14 N 0.29917 0.40424 0.95063
 C15 C 0.29348 0.41220 0.93811
 H16 H 0.28340 0.43212 0.90768
 H17 H 0.31948 0.46620 0.90647
 H18 H 0.34251 0.46625 0.92933
 H19 H 0.34249 0.43160 0.96504
 H20 H 0.31948 0.40822 0.96525
 H21 H 0.28332 0.40896 0.93140
 C22 C 0.43476 0.82614 0.44540
 C23 C 0.42355 0.81420 0.44544
 C24 C 0.42338 0.80314 0.43368
 C25 C 0.43448 0.80385 0.42172
 C26 C 0.44552 0.81564 0.42170
 C27 C 0.44561 0.82690 0.43363
 C28 C 0.43718 0.83883 0.45495
 N29 N 0.44932 0.84750 0.44934
 C30 C 0.45449 0.84006 0.43621
 C31 C 0.45441 0.81374 0.40852
 N32 N 0.44912 0.80104 0.40052
 C33 C 0.43689 0.79495 0.40856
 C34 C 0.41077 0.79354 0.43627
 N35 N 0.40326 0.79849 0.44935
 C36 C 0.41112 0.81111 0.45503
 H37 H 0.43006 0.84160 0.46494
 H38 H 0.46398 0.84372 0.42882
 H39 H 0.46382 0.82133 0.40488
 H40 H 0.43023 0.78472 0.40520
 H41 H 0.40705 0.78403 0.42880
 H42 H 0.40803 0.81772 0.46533
 C43 C 0.93386 0.92218 0.80510
 C44 C 0.92232 0.93382 0.80480
 C45 C 0.92262 0.94582 0.81562
 C46 C 0.93443 0.94635 0.82690
 C47 C 0.94573 0.93491 0.82718
 C48 C 0.94549 0.92278 0.81615
 C49 C 0.93623 0.90887 0.79638
 N50 N 0.94911 0.90121 0.80180
 C51 C 0.95475 0.90985 0.81397
 C52 C 0.95518 0.93792 0.83975
 N53 N 0.94993 0.95097 0.84735
 C54 C 0.93718 0.95614 0.83932
 C55 C 0.90979 0.95506 0.81292
 N56 N 0.90164 0.94896 0.80074
 C57 C 0.90929 0.93594 0.79573
 H58 H 0.92899 0.90532 0.78670
 H59 H 0.96458 0.90690 0.82126
 H60 H 0.96508 0.93083 0.84295
 H61 H 0.92985 0.96594 0.84241
 H62 H 0.90668 0.96548 0.81940
 H63 H 0.90546 0.92825 0.78646
 C64 C 0.43197 -0.07895 0.30686
 C65 C 0.42031 -0.06744 0.30703
 C66 C 0.42026 -0.05610 0.31855
 C67 C 0.43184 -0.05611 0.33007
 C68 C 0.44329 -0.06745 0.32988
 C69 C 0.44336 -0.07892 0.31817
 C70 C 0.43472 -0.09167 0.29739
 N71 N 0.44761 -0.09947 0.30260
 C72 C 0.45287 -0.09153 0.31539
 C73 C 0.45270 -0.06488 0.34258
 N74 N 0.44729 -0.05221 0.35053
 C75 C 0.43449 -0.04678 0.34289
 C76 C 0.40742 -0.04681 0.31613
 N77 N 0.39963 -0.05218 0.30340
 C78 C 0.40749 -0.06481 0.29776
 H79 H 0.42774 -0.09472 0.28736
 H80 H 0.46260 -0.09477 0.32269
 H81 H 0.46255 -0.07202 0.34596
 H82 H 0.42761 -0.03674 0.34630
 H83 H 0.40382 -0.03712 0.32342
 H84 H 0.40419 -0.07162 0.28765
 C85 C 0.80322 0.31366 0.32516
 C86 C 0.80344 0.32558 0.31395
 C87 C 0.81477 0.32566 0.30255
 C88 C 0.82607 0.31382 0.30222
 C89 C 0.82586 0.30204 0.31327
 C90 C 0.81432 0.30195 0.32484
 C91 C 0.79397 0.31107 0.33795
 N92 N 0.79912 0.29804 0.34548
 C93 C 0.81160 0.29239 0.33747
 C94 C 0.83862 0.29267 0.31056
 N95 N 0.84661 0.29850 0.29816
 C96 C 0.83894 0.31145 0.29301
 C97 C 0.81241 0.33882 0.29359
 N98 N 0.79990 0.34675 0.29928
 C99 C 0.79440 0.33868 0.31178
 H100 H 0.78450 0.31850 0.34176
 H101 H 0.81830 0.28213 0.34059
 H102 H 0.84185 0.28244 0.31725
 H103 H 0.84272 0.31900 0.28363
 H104 H 0.81929 0.34227 0.28361
 H105 H 0.78475 0.34224 0.31907
 C106 C -0.18283 0.82855 0.80482
 C107 C -0.17105 0.81715 0.80506
 C108 C -0.17120 0.80558 0.81634
 C109 C -0.18309 0.80523 0.82752
 C110 C -0.19467 0.81637 0.82720
 C111 C -0.19452 0.82812 0.81579
 C112 C -0.18538 0.84156 0.79569
 N113 N -0.19843 0.84916 0.80081
 C114 C -0.20400 0.84078 0.81316
 C115 C -0.20436 0.81347 0.83958
 N116 N -0.19903 0.80076 0.84763
 C117 C -0.18592 0.79571 0.84014
 C118 C -0.15822 0.79646 0.81408
 N119 N -0.15015 0.80213 0.80167
 C120 C -0.15797 0.81482 0.79610
 H121 H -0.17809 0.84499 0.78603
 H122 H -0.21391 0.84375 0.82031
 H123 H -0.21427 0.82065 0.84259
 H124 H -0.17879 0.78580 0.84335
 H125 H -0.15474 0.78663 0.82124
 H126 H -0.15449 0.82185 0.78621
 C127 C 0.94430 0.32815 0.43269
 C128 C 0.94410 0.31678 0.42085
 C129 C 0.93272 0.30534 0.42080
 C130 C 0.92144 0.30502 0.43258
 C131 C 0.92172 0.31614 0.44427
 C132 C 0.93324 0.32777 0.44431
 C133 C 0.95344 0.34114 0.43530
 N134 N 0.94822 0.34879 0.44829
 C135 C 0.93583 0.34045 0.45381
 C136 C 0.90919 0.31328 0.45382
 N137 N 0.90125 0.30069 0.44819
 C138 C 0.90873 0.29558 0.43518
 C139 C 0.93503 0.29623 0.40780
 N140 N 0.94761 0.30177 0.39991
 C141 C 0.95320 0.31439 0.40786
 H142 H 0.96317 0.34454 0.42809
 H143 H 0.92858 0.34354 0.46362
 H144 H 0.90614 0.31993 0.46411
 H145 H 0.90499 0.28599 0.42783
 H146 H 0.92780 0.28650 0.40422
 H147 H 0.96321 0.32132 0.40457
 C148 C 0.44564 0.43468 0.82594
 C149 C 0.44542 0.42289 0.81453
 C150 C 0.43378 0.42268 0.80341
 C151 C 0.42219 0.43426 0.80352
 C152 C 0.42245 0.44586 0.81475
 C153 C 0.43427 0.44606 0.82601
 C154 C 0.45513 0.43745 0.83857
 N155 N 0.44986 0.45033 0.84643
 C156 C 0.43704 0.45559 0.83861
 C157 C 0.40959 0.45514 0.81240
 N158 N 0.40149 0.44953 0.79996
 C159 C 0.40919 0.43672 0.79447
 C160 C 0.43609 0.40962 0.79431
 N161 N 0.44888 0.40186 0.79959
 C162 C 0.45465 0.40997 0.81198
 H163 H 0.46515 0.43042 0.84155
 H164 H 0.42967 0.46528 0.84196
 H165 H 0.40620 0.46500 0.81956
 H166 H 0.40567 0.42967 0.78460
 H167 H 0.42867 0.40583 0.78484
 H168 H 0.46480 0.40675 0.81871
 C169 C 0.80469 0.92325 0.93415
 C170 C 0.80482 0.93477 0.92251
 C171 C 0.81637 0.94601 0.92240
 C172 C 0.82793 0.94592 0.93394
 C173 C 0.82788 0.93452 0.94532
 C174 C 0.81615 0.92305 0.94541
 C175 C 0.79521 0.91058 0.93677
 N176 N 0.80057 0.90244 0.94938
 C177 C 0.81346 0.91018 0.95468
 C178 C 0.84075 0.93706 0.95455
 N179 N 0.84867 0.94984 0.94915
 C180 C 0.84071 0.95523 0.93645
 C181 C 0.81398 0.95526 0.90950
 N182 N 0.80123 0.94993 0.90173
 C183 C 0.79555 0.93738 0.90969
 H184 H 0.78551 0.90736 0.92942
 H185 H 0.82050 0.90696 0.96461
 H186 H 0.84378 0.93007 0.96460
 H187 H 0.84407 0.96489 0.92905
 H188 H 0.82135 0.96485 0.90583
 H189 H 0.78543 0.93057 0.90644
 C190 C 0.30545 0.82795 0.31768
 C191 C 0.30506 0.81550 0.32832
 C192 C 0.31625 0.80390 0.32770
 C193 C 0.32805 0.80463 0.31643
 C194 C 0.32844 0.81695 0.30599
 C195 C 0.31705 0.82870 0.30664
 C196 C 0.29623 0.84096 0.31577
 N197 N 0.30187 0.84979 0.30375
 C198 C 0.31472 0.84219 0.29819
 C199 C 0.34141 0.81497 0.29683
 N200 N 0.34895 0.80173 0.30141
 C201 C 0.34078 0.79534 0.31342
 C202 C 0.31333 0.79371 0.33977
 N203 N 0.30064 0.79886 0.34775
 C204 C 0.29553 0.81220 0.34075
 H205 H 0.28636 0.84375 0.32305
 H206 H 0.32192 0.84583 0.28854
 H207 H 0.34529 0.82290 0.28779
 H208 H 0.34382 0.78471 0.31956
 H209 H 0.32006 0.78337 0.34254
 H210 H 0.28592 0.81936 0.34470
 C211 C 0.80361 0.42509 0.43579
 C212 C 0.80355 0.43662 0.42416
 C213 C 0.81515 0.44781 0.42381
 C214 C 0.82696 0.44766 0.43509
 C215 C 0.82706 0.43631 0.44652
 C216 C 0.81527 0.42492 0.44690
 C217 C 0.79425 0.41233 0.43851
 N218 N 0.79988 0.40436 0.45103
 C219 C 0.81275 0.41205 0.45623
 C220 C 0.84019 0.43869 0.45540
 N221 N 0.84819 0.45130 0.44972
 C222 C 0.83996 0.45677 0.43723
 C223 C 0.81252 0.45707 0.41096
 N224 N 0.79957 0.45182 0.40347
 C225 C 0.79402 0.43929 0.41155
 H226 H 0.78437 0.40884 0.43149
 H227 H 0.81988 0.40854 0.46602
 H228 H 0.84340 0.43162 0.46533
 H229 H 0.84324 0.46634 0.42968
 H230 H 0.81985 0.46663 0.40713
 H231 H 0.78380 0.43252 0.40853
 C232 C 0.93566 0.82508 -0.05368
 C233 C 0.92406 0.81352 -0.05401
 C234 C 0.92378 0.80260 -0.06592
 C235 C 0.93515 0.80305 -0.07765
 C236 C 0.94657 0.81437 -0.07727
 C237 C 0.94682 0.82550 -0.06525
 C238 C 0.93832 0.83768 -0.04403
 N239 N 0.95082 0.84579 -0.04947
 C240 C 0.95608 0.83834 -0.06246
 C241 C 0.95570 0.81231 -0.09024
 N242 N 0.95019 0.79992 -0.09870
 C243 C 0.93750 0.79428 -0.09090
 C244 C 0.91085 0.79337 -0.06368
 N245 N 0.90324 0.79842 -0.05070
 C246 C 0.91133 0.81074 -0.04473
 H247 H 0.93152 0.84075 -0.03386
 H248 H 0.96558 0.84227 -0.06974
 H249 H 0.96536 0.81980 -0.09330
 H250 H 0.93039 0.78441 -0.09430
 H251 H 0.90700 0.78403 -0.07129
 H252 H 0.90820 0.81732 -0.03442
 C253 C 0.30524 0.32779 0.81645
 C254 C 0.30501 0.31599 0.82782
 C255 C 0.31629 0.30446 0.82777
 C256 C 0.32798 0.30456 0.81638
 C257 C 0.32820 0.31617 0.80518
 C258 C 0.31675 0.32787 0.80522
 C259 C 0.29606 0.34076 0.81393
 N260 N 0.30174 0.34876 0.80145
 C261 C 0.31443 0.34089 0.79609
 C262 C 0.34108 0.31365 0.79600
 N263 N 0.34876 0.30080 0.80139
 C264 C 0.34076 0.29519 0.81387
 C265 C 0.31352 0.29491 0.84037
 N266 N 0.30085 0.30038 0.84816
 C267 C 0.29559 0.31330 0.84049
 H268 H 0.28596 0.34404 0.82071
 H269 H 0.32175 0.34456 0.78651
 H270 H 0.34453 0.32071 0.78613
 H271 H 0.34418 0.28530 0.82097
 H272 H 0.32030 0.28473 0.84357
 H273 H 0.28592 0.32056 0.84410
 C274 C 0.17461 0.56279 0.55194
 C275 C 0.18618 0.57441 0.55202
 C276 C 0.19728 0.57456 0.56368
 C277 C 0.19699 0.56315 0.57541
 C278 C 0.18557 0.55177 0.57538
 C279 C 0.17429 0.55159 0.56356
 C280 C 0.16193 0.56015 0.54249
 N281 N 0.15388 0.54762 0.54810
 C282 C 0.16143 0.54235 0.56101
 C283 C 0.18776 0.54271 0.58845
 N284 N 0.20030 0.54827 0.59643
 C285 C 0.20599 0.56080 0.58846
 C286 C 0.20642 0.58757 0.56140
 N287 N 0.20118 0.59540 0.54863
 C288 C 0.18879 0.58734 0.54281
 H289 H 0.15882 0.56694 0.53232
 H290 H 0.15761 0.53283 0.56839
 H291 H 0.18045 0.53306 0.59206
 H292 H 0.21597 0.56776 0.59181
 H293 H 0.21580 0.59137 0.56893
 H294 H 0.18201 0.59069 0.53271
 C295 C 0.57901 0.68285 0.05488
 C296 C 0.56737 0.67135 0.05478
 C297 C 0.55554 0.67182 0.06566
 C298 C 0.55523 0.68379 0.07685
 C299 C 0.56673 0.69512 0.07699
 C300 C 0.57871 0.69466 0.06590
 C301 C 0.59201 0.68510 0.04585
 N302 N 0.59966 0.69805 0.05104
 C303 C 0.59157 0.70394 0.06335
 C304 C 0.56384 0.70478 0.08950
 N305 N 0.55087 0.69960 0.09699
 C306 C 0.54552 0.68677 0.08923
 C307 C 0.54618 0.65899 0.06303
 N308 N 0.55205 0.65073 0.05081
 C309 C 0.56504 0.65827 0.04573
 H310 H 0.59575 0.67762 0.03638
 H311 H 0.59467 0.71431 0.06992
 H312 H 0.57103 0.71453 0.09316
 H313 H 0.53536 0.67998 0.09236
 H314 H 0.53583 0.65598 0.06955
 H315 H 0.57254 0.65434 0.03638
 C316 C 0.68405 0.19667 0.67180
 C317 C 0.67247 0.19647 0.68330
 C318 C 0.67274 0.18514 0.69478
 C319 C 0.68461 0.17387 0.69496
 C320 C 0.69606 0.17410 0.68367
 C321 C 0.69576 0.18557 0.67198
 C322 C 0.68626 0.20581 0.65880
 N323 N 0.69903 0.20055 0.65103
 C324 C 0.70492 0.18817 0.65909
 C325 C 0.70567 0.16150 0.68642
 N326 N 0.70033 0.15361 0.69911
 C327 C 0.68742 0.16116 0.70438
 C328 C 0.65988 0.18744 0.70402
 N329 N 0.65178 0.19996 0.69849
 C330 C 0.65946 0.20553 0.68578
 H331 H 0.67875 0.21525 0.65501
 H332 H 0.71507 0.18143 0.65582
 H333 H 0.71580 0.15835 0.67962
 H334 H 0.68025 0.15744 0.71405
 H335 H 0.65651 0.18023 0.71383
 H336 H 0.65594 0.21548 0.67883
 C337 C 1.07623 0.06450 0.19614
 C338 C 1.06475 0.07617 0.19575
 C339 C 1.05421 0.07664 0.18358
 C340 C 1.05498 0.06541 0.17165
 C341 C 1.06623 0.05392 0.17208
 C342 C 1.07697 0.05347 0.18438
 C343 C 1.08848 0.06167 0.20608
 N344 N 1.09670 0.04920 0.20061
 C345 C 1.08966 0.04413 0.18733
 C346 C 1.06447 0.04494 0.15891
 N347 N 1.05234 0.05061 0.15029
 C348 C 1.04655 0.06325 0.15818
 C349 C 1.04495 0.08959 0.18584
 N350 N 1.04962 0.09703 0.19907
 C351 C 1.06173 0.08882 0.20520
 H352 H 1.09122 0.06833 0.21646
 H353 H 1.09378 0.03470 0.17997
 H354 H 1.07195 0.03524 0.15585
 H355 H 1.03679 0.07042 0.15473
 H356 H 1.03585 0.09358 0.17808
 H357 H 1.06800 0.09182 0.21573
 C358 C 0.06640 0.17292 1.05433
 C359 C 0.07796 0.18451 1.05433
 C360 C 0.07778 0.19615 1.06551
 C361 C 0.06603 0.19639 1.07683
 C362 C 0.05467 0.18499 1.07687
 C363 C 0.05483 0.17314 1.06552
 C364 C 0.06404 0.15985 1.04526
 N365 N 0.05130 0.15208 1.05062
 C366 C 0.04561 0.16018 1.06304
 C367 C 0.04522 0.18784 1.08950
 N368 N 0.05051 0.20079 1.09726
 C369 C 0.06331 0.20601 1.08937
 C370 C 0.09062 0.20543 1.06305
 N371 N 0.09864 0.19975 1.05060
 C372 C 0.09090 0.18693 1.04520
 H373 H 0.07139 0.15606 1.03574
 H374 H 0.03550 0.15692 1.06982
 H375 H 0.03522 0.18083 1.09254
 H376 H 0.07066 0.21574 1.09261
 H377 H 0.09407 0.21533 1.07014
 H378 H 0.09436 0.17983 1.03534
 C379 C 0.17456 0.69820 0.68575
 C380 C 0.18574 0.69784 0.67386
 C381 C 0.19733 0.68663 0.67406
 C382 C 0.19789 0.67558 0.68614
 C383 C 0.18690 0.67596 0.69788
 C384 C 0.17515 0.68737 0.69769
 C385 C 0.16153 0.70726 0.68811
 N386 N 0.15416 0.70220 0.70120
 C387 C 0.16249 0.69003 0.70713
 C388 C 0.18972 0.66338 0.70747
 N389 N 0.20212 0.65526 0.70181
 C390 C 0.20719 0.66273 0.68876
 C391 C 0.20619 0.68877 0.66088
 N392 N 0.20026 0.70102 0.65265
 C393 C 0.18770 0.70659 0.66056
 H394 H 0.15746 0.71648 0.68048
 H395 H 0.15956 0.68345 0.71750
 H396 H 0.18304 0.66029 0.71770
 H397 H 0.21653 0.65877 0.68128
 H398 H 0.21626 0.68191 0.65762
 H399 H 0.18024 0.71607 0.65677
 C400 C 1.18442 0.17375 0.19569
 C401 C 1.17268 0.18516 0.19565
 C402 C 1.17232 0.19636 0.18405
 C403 C 1.18367 0.19631 0.17232
 C404 C 1.19519 0.18507 0.17230
 C405 C 1.19561 0.17370 0.18412
 C406 C 1.18730 0.16109 0.20516
 N407 N 1.20000 0.15332 0.19968
 C408 C 1.20514 0.16103 0.18679
 C409 C 1.20414 0.18754 0.15924
 N410 N 1.19841 0.20011 0.15122
 C411 C 1.18583 0.20547 0.15935
 C412 C 1.15946 0.20558 0.18662
 N413 N 1.15195 0.20028 0.19953
 C414 C 1.16002 0.18776 0.20512
 H415 H 1.18030 0.15756 0.21503
 H416 H 1.21507 0.15770 0.17979
 H417 H 1.21418 0.18060 0.15611
 H418 H 1.17823 0.21498 0.15599
 H419 H 1.15564 0.21516 0.17931
 H420 H 1.15696 0.18101 0.21534
 C421 C 0.67341 1.05402 0.56540
 C422 C 0.68493 1.05434 0.57696
 C423 C 0.69613 1.06596 0.57688
 C424 C 0.69592 1.07749 0.56521
 C425 C 0.68464 1.07710 0.55378
 C426 C 0.67328 1.06529 0.55387
 C427 C 0.66072 1.04449 0.56299
 N428 N 0.65285 1.04968 0.55025
 C429 C 0.66053 1.06242 0.54460
 C430 C 0.68686 1.08998 0.54445
 N431 N 0.69923 1.09842 0.54990
 C432 C 0.70480 1.09066 0.56266
 C433 C 0.70545 1.06360 0.58972
 N434 N 0.70018 1.05082 0.59759
 C435 C 0.68759 1.04514 0.58982
 H436 H 0.65725 1.03481 0.57034
 H437 H 0.65713 1.06919 0.53450
 H438 H 0.67938 1.09312 0.53482
 H439 H 0.71462 1.09410 0.56975
 H440 H 0.71537 1.07069 0.59300
 H441 H 0.68055 1.03527 0.59343
 C442 C 0.56709 0.55506 0.17028
 C443 C 0.57868 0.55533 0.18178
 C444 C 0.57827 0.56652 0.19341
 C445 C 0.56625 0.57763 0.19369
 C446 C 0.55479 0.57735 0.18238
 C447 C 0.55521 0.56596 0.17059
 C448 C 0.56484 0.54580 0.15736
 N449 N 0.55186 0.55078 0.14975
 C450 C 0.54591 0.56314 0.15782
 C451 C 0.54502 0.58980 0.18521
 N452 N 0.55028 0.59771 0.19794
 C453 C 0.56327 0.59026 0.20320
 C454 C 0.59108 0.56412 0.20275
 N455 N 0.59928 0.55172 0.19707
 C456 C 0.59173 0.54633 0.18420
 H457 H 0.57240 0.53640 0.15358
 H458 H 0.53554 0.56962 0.15473
 H459 H 0.53488 0.59287 0.17839
 H460 H 0.57040 0.59403 0.21290
 H461 H 0.59408 0.57085 0.21301
 H462 H 0.59556 0.53675 0.17689
 C463 C 0.67195 0.68433 0.19389
 C464 C 0.68373 0.67297 0.19418
 C465 C 0.69513 0.67293 0.18284
 C466 C 0.69490 0.68425 0.17099
 C467 C 0.68324 0.69540 0.17067
 C468 C 0.67170 0.69545 0.18221
 C469 C 0.65922 0.68698 0.20323
 N470 N 0.65118 0.69945 0.19751
 C471 C 0.65879 0.70466 0.18461
 C472 C 0.68559 0.70448 0.15766
 N473 N 0.69842 0.69916 0.15003
 C474 C 0.70417 0.68676 0.15816
 C475 C 0.70458 0.66023 0.18567
 N476 N 0.69915 0.65249 0.19842
 C477 C 0.68639 0.66029 0.20368
 H478 H 0.65616 0.68032 0.21351
 H479 H 0.65505 0.71423 0.17723
 H480 H 0.67819 0.71399 0.15385
 H481 H 0.71437 0.68003 0.15506
 H482 H 0.71461 0.65687 0.17882
 H483 H 0.67915 0.65673 0.21336
 C484 C 0.17115 0.06658 1.05634
 C485 C 0.18233 0.07854 1.05678
 C486 C 0.19388 0.07833 1.06798
 C487 C 0.19442 0.06613 1.07891
 C488 C 0.18342 0.05431 1.07846
 C489 C 0.17168 0.05454 1.06707
 C490 C 0.15837 0.06410 1.04703
 N491 N 0.15106 0.05081 1.05181
 C492 C 0.15917 0.04490 1.06410
 C493 C 0.18647 0.04441 1.09073
 N494 N 0.19903 0.04994 1.09870
 C495 C 0.20394 0.06323 1.09146
 C496 C 0.20293 0.09146 1.06570
 N497 N 0.19715 0.09961 1.05337
 C498 C 0.18449 0.09175 1.04791
 H499 H 0.15448 0.07170 1.03773
 H500 H 0.15625 0.03434 1.07044
 H501 H 0.17993 0.03397 1.09362
 H502 H 0.21343 0.07063 1.09532
 H503 H 0.21309 0.09467 1.07243
 H504 H 0.17719 0.09546 1.03832
 C505 C 0.57638 0.19783 0.56359
 C506 C 0.56484 0.19789 0.57517
 C507 C 0.55377 0.18615 0.57547
 C508 C 0.55401 0.17423 0.56425
 C509 C 0.56534 0.17417 0.55284
 C510 C 0.57662 0.18604 0.55253
 C511 C 0.58908 0.20727 0.56086
 N512 N 0.59707 0.20148 0.54844
 C513 C 0.58945 0.18849 0.54329
 C514 C 0.56299 0.16100 0.54387
 N515 N 0.55050 0.15305 0.54956
 C516 C 0.54499 0.16112 0.56207
 C517 C 0.54449 0.18874 0.58825
 N518 N 0.54962 0.20178 0.59578
 C519 C 0.56210 0.20744 0.58781
 H520 H 0.59226 0.21753 0.56755
 H521 H 0.59324 0.18097 0.53387
 H522 H 0.56988 0.15755 0.53389
 H523 H 0.53535 0.15754 0.56936
 H524 H 0.53502 0.18130 0.59203
 H525 H 0.56877 0.21773 0.59095
 C526 C 0.07519 0.56315 0.69750
 C527 C 0.06347 0.57457 0.69758
 C528 C 0.05184 0.57422 0.68646
 C529 C 0.05183 0.56245 0.67503
 C530 C 0.06340 0.55120 0.67494
 C531 C 0.07515 0.55153 0.68629
 C532 C 0.08822 0.56097 0.70655
 N533 N 0.09613 0.54826 0.70116
 C534 C 0.08815 0.54244 0.68873
 C535 C 0.06100 0.54191 0.66205
 N536 N 0.04826 0.54723 0.65426
 C537 C 0.04256 0.55979 0.66222
 C538 C 0.04250 0.58707 0.68896
 N539 N 0.04817 0.59526 0.70134
 C540 C 0.06102 0.58763 0.70665
 H541 H 0.09186 0.56842 0.71609
 H542 H 0.09146 0.53231 0.68192
 H543 H 0.06843 0.53239 0.65830
 H544 H 0.03252 0.56666 0.65888
 H545 H 0.03235 0.59020 0.68217
 H546 H 0.06841 0.59153 0.71610
 C547 C 0.67034 0.55580 0.06769
 C548 C 0.68200 0.55573 0.07912
 C549 C 0.69371 0.56682 0.07876
 C550 C 0.69388 0.57821 0.06698
 C551 C 0.68236 0.57829 0.05573
 C552 C 0.67052 0.56699 0.05607
 C553 C 0.65743 0.54658 0.06531
 N554 N 0.64974 0.55183 0.05247
 C555 C 0.65772 0.56436 0.04678
 C556 C 0.68509 0.59094 0.04620
 N557 N 0.69801 0.59859 0.05136
 C558 C 0.70346 0.59079 0.06407
 C559 C 0.70313 0.56413 0.09146
 N560 N 0.69742 0.55168 0.09954
 C561 C 0.68447 0.54651 0.09201
 H562 H 0.65379 0.53693 0.07262
 H563 H 0.65459 0.57103 0.03652
 H564 H 0.67785 0.59457 0.03654
 H565 H 0.71362 0.59400 0.07080
 H566 H 0.71342 0.57078 0.09450
 H567 H 0.67707 0.53698 0.09581
 C568 C 0.06568 0.69734 0.57628
 C569 C 0.07749 0.69709 0.56500
 C570 C 0.07762 0.68553 0.55372
 C571 C 0.06594 0.67405 0.55354
 C572 C 0.05432 0.67428 0.56466
 C573 C 0.05419 0.68601 0.57611
 C574 C 0.06299 0.70677 0.58900
 N575 N 0.05018 0.70141 0.59666
 C576 C 0.04476 0.68869 0.58878
 C577 C 0.04500 0.66144 0.56205
 N578 N 0.05070 0.65335 0.54963
 C579 C 0.06353 0.66105 0.54438
 C580 C 0.09070 0.68778 0.54478
 N581 N 0.09860 0.70041 0.55037
 C582 C 0.09054 0.70615 0.56277
 H583 H 0.06996 0.71676 0.59240
 H584 H 0.03499 0.68150 0.59224
 H585 H 0.03484 0.65825 0.56878
 H586 H 0.07091 0.65724 0.53490
 H587 H 0.09416 0.68067 0.53493
 H588 H 0.09411 0.71591 0.56999
 C589 C 0.56350 1.05035 0.67576
 C590 C 0.57512 1.05079 0.68725
 C591 C 0.57513 1.06261 0.69826
 C592 C 0.56348 1.07414 0.69798
 C593 C 0.55206 1.07364 0.68672
 C594 C 0.55210 1.06169 0.67548
 C595 C 0.56114 1.04084 0.66303
 N596 N 0.54854 1.04610 0.65482
 C597 C 0.54299 1.05891 0.66260
 C598 C 0.54277 1.08656 0.68883
 N599 N 0.54819 1.09511 0.70116
 C600 C 0.56096 1.08738 0.70676
 C601 C 0.58817 1.06061 0.70736
 N602 N 0.59611 1.04782 0.70218
 C603 C 0.58812 1.04176 0.68987
 H604 H 0.56865 1.03121 0.65985
 H605 H 0.53312 1.06601 0.65932
 H606 H 0.53309 1.08957 0.68136
 H607 H 0.56812 1.09089 0.71650
 H608 H 0.59185 1.06827 0.71671
 H609 H 0.59149 1.03156 0.68318
 C610 C 0.44620 0.32515 0.93395
 C611 C 0.44588 0.31367 0.92227
 C612 C 0.43454 0.30219 0.92243
 C613 C 0.42334 0.30206 0.93432
 C614 C 0.42368 0.31341 0.94583
 C615 C 0.43520 0.32507 0.94561
 C616 C 0.45552 0.33801 0.93630
 N617 N 0.45047 0.34600 0.94913
 C618 C 0.43795 0.33796 0.95484
 C619 C 0.41114 0.31080 0.95542
 N620 N 0.40309 0.29818 0.95001
 C621 C 0.41054 0.29278 0.93709
 C622 C 0.43683 0.29298 0.90944
 N623 N 0.44929 0.29860 0.90140
 C624 C 0.45484 0.31129 0.90923
 H625 H 0.46488 0.34145 0.92863
 H626 H 0.43119 0.34101 0.96501
 H627 H 0.40812 0.31768 0.96557
 H628 H 0.40669 0.28314 0.92986
 H629 H 0.42991 0.28290 0.90617
 H630 H 0.46445 0.31859 0.90553
 C631 C 0.94486 0.43461 0.32794
 C632 C 0.94501 0.42313 0.31621
 C633 C 0.93379 0.42334 0.30466
 C634 C 0.92230 0.43499 0.30463
 C635 C 0.92220 0.44628 0.31616
 C636 C 0.93358 0.44609 0.32786
 C637 C 0.95388 0.43700 0.34099
 N638 N 0.94842 0.44976 0.34893
 C639 C 0.93594 0.45531 0.34076
 C640 C 0.90947 0.45569 0.31358
 N641 N 0.90181 0.45042 0.30072
 C642 C 0.90965 0.43773 0.29519
 C643 C 0.93633 0.41054 0.29528
 N644 N 0.94886 0.40252 0.30077
 C645 C 0.95423 0.41021 0.31360
 H646 H 0.96378 0.42988 0.34419
 H647 H 0.92853 0.46498 0.34407
 H648 H 0.90583 0.46538 0.32085
 H649 H 0.90645 0.43094 0.28503
 H650 H 0.92920 0.40710 0.28546
 H651 H 0.96411 0.40671 0.32060
 C652 C 0.30512 0.93435 0.42253
 C653 C 0.30532 0.92274 0.43409
 C654 C 0.31718 0.92244 0.44495
 C655 C 0.32900 0.93376 0.44443
 C656 C 0.32878 0.94518 0.43308
 C657 C 0.31677 0.94543 0.42199
 C658 C 0.29543 0.93705 0.41009
 N659 N 0.30084 0.94956 0.40176
 C660 C 0.31397 0.95471 0.40918
 C661 C 0.34183 0.95425 0.43516
 N662 N 0.35015 0.94871 0.44757
 C663 C 0.34218 0.93607 0.45322
 C664 C 0.31477 0.90956 0.45428
 N665 N 0.30170 0.90201 0.44937
 C666 C 0.29585 0.91008 0.43702
 H667 H 0.28551 0.92983 0.40719
 H668 H 0.32119 0.96448 0.40574
 H669 H 0.34500 0.96394 0.42772
 H670 H 0.34541 0.92892 0.46309
 H671 H 0.32232 0.90572 0.46362
 H672 H 0.28549 0.90702 0.43053
 O673 O 0.20807 0.51971 0.74910
 O674 O 0.21392 0.51899 0.77631
 O675 O 0.24907 0.54229 0.73058
 O676 O 0.27458 0.53768 0.72976
 O677 O 0.23003 0.50074 0.70846
 O678 O 0.23131 0.47335 0.71457
 O679 O 0.29070 0.49977 0.76978
 O680 O 0.28540 0.52735 0.76692
 O681 O 0.25151 0.48053 0.79084
 O682 O 0.22322 0.48175 0.78553
 O683 O 0.26994 0.45957 0.75121
 O684 O 0.26868 0.46518 0.72296
 O685 O 0.29048 0.48041 0.75159
 O686 O 0.28505 0.48213 0.72299
 O687 O 0.25173 0.45969 0.77038
 O688 O 0.22309 0.46501 0.76874
 O689 O 0.27011 0.49944 0.79068
 O690 O 0.26757 0.52565 0.78721
 O691 O 0.20829 0.50110 0.73012
 O692 O 0.21407 0.47352 0.73204
 O693 O 0.24809 0.52022 0.70855
 O694 O 0.27620 0.51766 0.71442
 O695 O 0.22948 0.54189 0.74835
 O696 O 0.23064 0.53613 0.77658
 Zr697 Zr 0.23076 0.51938 0.75838
 O698 O 0.24469 0.50577 0.77335
 Zr699 Zr 0.25803 0.51938 0.73099
 O700 O 0.27318 0.50583 0.74482
 Zr701 Zr 0.23086 0.49161 0.73122
 O702 O 0.24479 0.47676 0.74497
 Zr703 Zr 0.26830 0.50957 0.76846
 O704 O 0.25445 0.52482 0.75474
 Zr705 Zr 0.24117 0.48187 0.76865
 O706 O 0.22578 0.49546 0.75491
 Zr707 Zr 0.26838 0.48195 0.74115
 O708 O 0.25445 0.49551 0.72591
 O709 O 0.23452 0.51539 0.73483
 O710 O 0.26478 0.48572 0.76483
 C711 C 0.20152 0.51192 0.73806
 C712 C 0.23774 0.54879 0.73792
 C713 C 0.23746 0.51199 0.70185
 C714 C 0.29708 0.48826 0.76254
 C715 C 0.26267 0.48819 0.79726
 C716 C 0.26277 0.45314 0.76268
 H717 H 0.24233 0.50851 0.78429
 H718 H 0.24235 0.46572 0.74249
 H719 H 0.22781 0.52202 0.72817
 H720 H 0.28411 0.50852 0.74241
 H721 H 0.28002 0.53696 0.76335
 H722 H 0.28307 0.53500 0.73707
 H723 H 0.22475 0.45790 0.75978
 H724 H 0.20904 0.47424 0.74239
 H725 H 0.26129 0.53464 0.78363
 H726 H 0.23899 0.54379 0.77436
 H727 H 0.25945 0.45838 0.72422
 H728 H 0.24162 0.47387 0.70944
 H729 H 0.20918 0.50842 0.77611
 H730 H 0.22447 0.49120 0.79208
 H731 H 0.27444 0.50786 0.70850
 H732 H 0.29198 0.49124 0.72465
 O733 O 0.24843 0.04156 0.23044
 O734 O 0.27575 0.03585 0.23208
 O735 O 0.22948 0.00067 0.20960
 O736 O 0.22963 -0.02520 0.21418
 O737 O 0.20803 0.02069 0.24969
 O738 O 0.21356 0.01959 0.27708
 O739 O 0.26935 -0.04070 0.25323
 O740 O 0.26661 -0.03682 0.22597
 O741 O 0.28999 -0.00079 0.27120
 O742 O 0.28463 0.02744 0.26985
 O743 O 0.25013 -0.01919 0.29217
 O744 O 0.22204 -0.01801 0.28642
 O745 O 0.25052 -0.04032 0.27179
 O746 O 0.22197 -0.03469 0.26980
 O747 O 0.26926 -0.00084 0.29191
 O748 O 0.26754 0.02803 0.28591
 O749 O 0.28971 -0.02040 0.25328
 O750 O 0.28485 -0.01846 0.22482
 O751 O 0.23017 0.04225 0.24960
 O752 O 0.23117 0.03671 0.27711
 O753 O 0.20779 0.00124 0.23156
 O754 O 0.21372 -0.02671 0.23428
 O755 O 0.24858 0.01914 0.20922
 O756 O 0.27595 0.01789 0.21525
 Zr757 Zr 0.25787 0.01883 0.23192
 O758 O 0.27272 0.00527 0.24602
 Zr759 Zr 0.23030 -0.00845 0.23236
 O760 O 0.24406 -0.02341 0.24622
 Zr761 Zr 0.23056 0.01961 0.25929
 O762 O 0.24406 0.00584 0.27451
 Zr763 Zr 0.26775 -0.01859 0.24264
 O764 O 0.25405 -0.00509 0.22714
 Zr765 Zr 0.26775 0.00937 0.26963
 O766 O 0.25426 0.02453 0.25554
 Zr767 Zr 0.24023 -0.01803 0.26981
 O768 O 0.22516 -0.00422 0.25596
 O769 O 0.23430 0.01529 0.23579
 O770 O 0.26391 -0.01447 0.26624
 C771 C 0.23780 0.04858 0.23836
 C772 C 0.23748 0.01138 0.20274
 C773 C 0.20127 0.01252 0.23907
 C774 C 0.26184 -0.04697 0.26456
 C775 C 0.29628 -0.01250 0.26420
 C776 C 0.26151 -0.01184 0.29857
 H777 H 0.28366 0.00780 0.24355
 H778 H 0.24149 0.00854 0.28541
 H779 H 0.22772 0.02191 0.22900
 H780 H 0.24169 -0.03449 0.24380
 H781 H 0.26171 -0.03233 0.21653
 H782 H 0.23572 -0.03439 0.21766
 H783 H 0.25886 0.02621 0.29325
 H784 H 0.24155 0.04172 0.27654
 H785 H 0.29196 -0.00954 0.22665
 H786 H 0.27541 0.00738 0.21041
 H787 H 0.22305 -0.00837 0.29274
 H788 H 0.20843 0.00921 0.27669
 H789 H 0.27523 0.04111 0.24235
 H790 H 0.29086 0.02649 0.26021
 H791 H 0.20794 -0.02495 0.24410
 H792 H 0.22378 -0.04203 0.26106
 O793 O 0.50044 0.70886 0.22863
 O794 O 0.47313 0.71460 0.23016
 O795 O 0.51901 0.74991 0.20706
 O796 O 0.51935 0.77570 0.21169
 O797 O 0.54082 0.73007 0.24749
 O798 O 0.53528 0.73164 0.27499
 O799 O 0.47975 0.79160 0.25039
 O800 O 0.48266 0.78691 0.22279
 O801 O 0.45901 0.75216 0.26893
 O802 O 0.46405 0.72372 0.26731
 O803 O 0.49876 0.77034 0.28962
 O804 O 0.52692 0.76896 0.28389
 O805 O 0.49858 0.79131 0.26897
 O806 O 0.52700 0.78556 0.26724
 O807 O 0.47958 0.75201 0.28943
 O808 O 0.48111 0.72315 0.28368
 O809 O 0.45908 0.77110 0.25035
 O810 O 0.46240 0.76870 0.22412
 O811 O 0.51885 0.70850 0.24769
 O812 O 0.51779 0.71430 0.27505
 O813 O 0.54097 0.74919 0.22904
 O814 O 0.53500 0.77731 0.23152
 O815 O 0.50088 0.73050 0.20727
 O816 O 0.47268 0.73182 0.21323
 Zr817 Zr 0.49101 0.73161 0.22971
 O818 O 0.47622 0.74550 0.24355
 Zr819 Zr 0.51848 0.75898 0.22984
 O820 O 0.50484 0.77410 0.24364
 Zr821 Zr 0.51833 0.73126 0.25712
 O822 O 0.50478 0.74515 0.27218
 Zr823 Zr 0.48117 0.76930 0.24007
 O824 O 0.49470 0.75552 0.22458
 Zr825 Zr 0.48108 0.74164 0.26724
 O826 O 0.49462 0.72627 0.25340
 Zr827 Zr 0.50869 0.76894 0.26728
 O828 O 0.52372 0.75503 0.25349
 O829 O 0.51456 0.73528 0.23358
 O830 O 0.48500 0.76544 0.26369
 C831 C 0.51119 0.70201 0.23654
 C832 C 0.51154 0.73861 0.20053
 C833 C 0.54751 0.73802 0.23667
 C834 C 0.48736 0.79798 0.26163
 C835 C 0.45261 0.76356 0.26155
 C836 C 0.48734 0.76306 0.29602
 H837 H 0.46526 0.74320 0.24089
 H838 H 0.50732 0.74254 0.28310
 H839 H 0.52116 0.72858 0.22689
 H840 H 0.50725 0.78513 0.24111
 H841 H 0.48613 0.78170 0.21309
 H842 H 0.51239 0.78441 0.21468
 H843 H 0.48991 0.72489 0.29092
 H844 H 0.50737 0.70938 0.27462
 H845 H 0.46607 0.76282 0.21492
 H846 H 0.47494 0.74024 0.20564
 H847 H 0.52576 0.75947 0.29040
 H848 H 0.54056 0.74193 0.27428
 H849 H 0.47362 0.70957 0.24054
 H850 H 0.45764 0.72495 0.25782
 H851 H 0.54093 0.77559 0.24127
 H852 H 0.52538 0.79264 0.25826
 O853 O 0.00145 0.70851 0.72954
 O854 O -0.02585 0.71415 0.73110
 O855 O 0.02027 0.74942 0.70830
 O856 O 0.01982 0.77535 0.71279
 O857 O 0.04183 0.72979 0.74849
 O858 O 0.03631 0.73112 0.77594
 O859 O -0.01933 0.79114 0.75166
 O860 O -0.01664 0.78651 0.72411
 O861 O -0.04016 0.75120 0.76989
 O862 O -0.03486 0.72301 0.76848
 O863 O -0.00034 0.76970 0.79081
 O864 O 0.02788 0.76837 0.78504
 O865 O -0.00060 0.79077 0.77033
 O866 O 0.02781 0.78516 0.76855
 O867 O -0.01941 0.75128 0.79063
 O868 O -0.01774 0.72241 0.78466
 O869 O -0.03981 0.77091 0.75211
 O870 O -0.03690 0.76814 0.72561
 O871 O 0.01979 0.70809 0.74866
 O872 O 0.01889 0.71381 0.77600
 O873 O 0.04194 0.74912 0.73025
 O874 O 0.03581 0.77707 0.73260
 O875 O 0.00151 0.73063 0.70812
 O876 O -0.02654 0.73133 0.71441
 Zr877 Zr -0.00805 0.73125 0.73073
 O878 O -0.02285 0.74502 0.74470
 Zr879 Zr 0.01936 0.75866 0.73099
 O880 O 0.00570 0.77369 0.74489
 Zr881 Zr 0.01933 0.73083 0.75811
 O882 O 0.00577 0.74460 0.77327
 Zr883 Zr -0.01797 0.76885 0.74137
 O884 O -0.00443 0.75519 0.72576
 Zr885 Zr -0.01793 0.74102 0.76835
 O886 O -0.00437 0.72579 0.75439
 Zr887 Zr 0.00960 0.76844 0.76849
 O888 O 0.02464 0.75463 0.75461
 O889 O 0.01551 0.73493 0.73459
 O890 O -0.01408 0.76485 0.76495
 C891 C 0.01211 0.70160 0.73753
 C892 C 0.01245 0.73851 0.70155
 C893 C 0.04854 0.73793 0.73781
 C894 C -0.01181 0.79746 0.76298
 C895 C -0.04641 0.76298 0.76297
 C896 C -0.01168 0.76233 0.79724
 H897 H -0.03382 0.74271 0.74207
 H898 H 0.00834 0.74194 0.78417
 H899 H 0.02212 0.72826 0.72787
 H900 H 0.00809 0.78474 0.74241
 H901 H -0.01320 0.78133 0.71438
 H902 H 0.01310 0.78417 0.71601
 H903 H -0.00904 0.72423 0.79199
 H904 H 0.00848 0.70888 0.77560
 H905 H -0.03320 0.76256 0.71625
 H906 H -0.02456 0.73995 0.70697
 H907 H 0.02665 0.75894 0.79161
 H908 H 0.04149 0.74147 0.77537
 H909 H -0.02527 0.70900 0.74141
 H910 H -0.04104 0.72398 0.75881
 H911 H 0.04160 0.77551 0.74245
 H912 H 0.02617 0.79227 0.75960
 O913 O -0.04135 -0.00073 -0.01972
 O914 O -0.03544 0.02669 -0.01832
 O915 O -0.00117 -0.01966 -0.04212
 O916 O 0.02454 -0.02003 -0.03806
 O917 O -0.02010 -0.04177 -0.00146
 O918 O -0.01827 -0.03624 0.02593
 O919 O 0.04117 0.01966 0.00058
 O920 O 0.03638 0.01723 -0.02655
 O921 O 0.00232 0.04049 0.02012
 O922 O -0.02615 0.03520 0.01897
 O923 O 0.02081 0.00044 0.04010
 O924 O 0.01929 -0.02790 0.03427
 O925 O 0.04108 0.00090 0.01935
 O926 O 0.03544 -0.02789 0.01716
 O927 O 0.00255 0.01966 0.04044
 O928 O -0.02607 0.01822 0.03537
 O929 O 0.02064 0.04060 0.00103
 O930 O 0.01844 0.03568 -0.02704
 O931 O -0.04139 -0.01980 -0.00123
 O932 O -0.03539 -0.01838 0.02627
 O933 O -0.00143 -0.04188 -0.02024
 O934 O 0.02645 -0.03604 -0.01812
 O935 O -0.01973 -0.00066 -0.04171
 O936 O -0.01821 0.02685 -0.03563
 Zr937 Zr -0.01867 0.00859 -0.01900
 O938 O -0.00474 0.02341 -0.00523
 Zr939 Zr 0.00835 -0.01926 -0.01951
 O940 O 0.02363 -0.00552 -0.00596
 Zr941 Zr -0.01875 -0.01912 0.00815
 O942 O -0.00462 -0.00563 0.02309
 Zr943 Zr 0.01883 0.01835 -0.00932
 O944 O 0.00491 0.00470 -0.02449
 Zr945 Zr -0.00816 0.01827 0.01845
 O946 O -0.02367 0.00479 0.00472
 Zr947 Zr 0.01893 -0.00948 0.01776
 O948 O 0.00480 -0.02456 0.00417
 O949 O -0.01510 -0.01519 -0.01543
 O950 O 0.01540 0.01439 0.01436
 C951 C -0.04803 -0.01179 -0.01205
 C952 C -0.01206 -0.01160 -0.04859
 C953 C -0.01237 -0.04849 -0.01241
 C954 C 0.04761 0.01213 0.01183
 C955 C 0.01339 0.04704 0.01246
 C956 C 0.01373 0.01190 0.04672
 H957 H -0.00729 0.03444 -0.00758
 H958 H -0.00700 -0.00827 0.03405
 H959 H -0.02185 -0.02175 -0.02213
 H960 H 0.03454 -0.00794 -0.00868
 H961 H 0.03163 0.01227 -0.03584
 H962 H 0.03374 -0.01386 -0.03483
 H963 H -0.02445 0.00906 0.04224
 H964 H -0.04041 -0.00796 0.02569
 H965 H 0.00916 0.04234 -0.02548
 H966 H -0.00799 0.02620 -0.04090
 H967 H 0.01000 -0.02676 0.04097
 H968 H -0.00798 -0.04141 0.02526
 H969 H -0.04020 0.02632 -0.00783
 H970 H -0.02483 0.04212 0.00982
 H971 H 0.02492 -0.04190 -0.00828
 H972 H 0.04255 -0.02595 0.00831
 O973 O 0.04173 0.51932 0.50094
 O974 O 0.03601 0.51822 0.47363
 O975 O 0.00177 0.54153 0.52007
 O976 O -0.02406 0.53768 0.51999
 O977 O 0.02007 0.50011 0.54138
 O978 O 0.01840 0.47279 0.53535
 O979 O -0.04075 0.49973 0.47993
 O980 O -0.03580 0.52686 0.48276
 O981 O -0.00194 0.48010 0.45903
 O982 O 0.02641 0.48089 0.46436
 O983 O -0.02069 0.45942 0.49848
 O984 O -0.01938 0.46482 0.52671
 O985 O -0.04100 0.48061 0.49832
 O986 O -0.03536 0.48211 0.52695
 O987 O -0.00231 0.45925 0.47949
 O988 O 0.02635 0.46431 0.48111
 O989 O -0.02028 0.49926 0.45926
 O990 O -0.01772 0.52754 0.46458
 O991 O 0.04174 0.50003 0.51923
 O992 O 0.03535 0.47251 0.51774
 O993 O 0.00195 0.51953 0.54153
 O994 O -0.02601 0.51731 0.53581
 O995 O 0.02023 0.54146 0.50108
 O996 O 0.01882 0.53575 0.47361
 Zr997 Zr 0.01913 0.51876 0.49152
 O998 O 0.00519 0.50524 0.47649
 Zr999 Zr -0.00795 0.51895 0.51910
 O1000 O -0.02328 0.50569 0.50515
 Zr1001 Zr 0.01894 0.49094 0.51861
 O1002 O 0.00474 0.47627 0.50487
 Zr1003 Zr -0.01836 0.50942 0.48149
 O1004 O -0.00442 0.52437 0.49539
 Zr1005 Zr 0.00843 0.48133 0.48121
 O1006 O 0.02396 0.49480 0.49491
 Zr1007 Zr -0.01880 0.48173 0.50869
 O1008 O -0.00461 0.49502 0.52398
 O1009 O 0.01549 0.51474 0.51508
 O1010 O -0.01513 0.48551 0.48503
 C1011 C 0.04841 0.51113 0.51160
 C1012 C 0.01266 0.54814 0.51218
 C1013 C 0.01264 0.51132 0.54810
 C1014 C -0.04741 0.48843 0.48725
 C1015 C -0.01305 0.48787 0.45266
 C1016 C -0.01349 0.45285 0.48710
 H1017 H 0.00778 0.50777 0.46556
 H1018 H 0.00705 0.46520 0.50733
 H1019 H 0.02230 0.52128 0.52173
 H1020 H -0.03418 0.50847 0.50756
 H1021 H -0.03105 0.53604 0.48798
 H1022 H -0.03336 0.53446 0.51400
 H1023 H 0.02457 0.45715 0.48999
 H1024 H 0.04042 0.47315 0.50740
 H1025 H -0.00864 0.52579 0.45773
 H1026 H 0.00861 0.54107 0.47427
 H1027 H -0.01008 0.45809 0.52558
 H1028 H 0.00803 0.47329 0.54035
 H1029 H 0.04072 0.50764 0.47390
 H1030 H 0.02534 0.49035 0.45780
 H1031 H -0.02441 0.50738 0.54155
 H1032 H -0.04225 0.49124 0.52529
 O1033 O 0.50186 0.04071 0.52097
 O1034 O 0.47459 0.03533 0.52007
 O1035 O 0.51981 -0.00107 0.54269
 O1036 O 0.51987 -0.02680 0.53780
 O1037 O 0.54193 0.01864 0.50222
 O1038 O 0.53633 0.01735 0.47483
 O1039 O 0.47996 -0.04177 0.49969
 O1040 O 0.48241 -0.03677 0.52713
 O1041 O 0.45966 -0.00135 0.48097
 O1042 O 0.46543 0.02676 0.48248
 O1043 O 0.49894 -0.02060 0.46007
 O1044 O 0.52708 -0.01999 0.46570
 O1045 O 0.49824 -0.04169 0.48059
 O1046 O 0.52689 -0.03656 0.48246
 O1047 O 0.48012 -0.00190 0.46042
 O1048 O 0.48258 0.02700 0.46627
 O1049 O 0.45958 -0.02102 0.49877
 O1050 O 0.46249 -0.01832 0.52524
 O1051 O 0.52076 0.04050 0.50242
 O1052 O 0.51897 0.03497 0.47485
 O1053 O 0.54181 -0.00042 0.52073
 O1054 O 0.53523 -0.02856 0.51798
 O1055 O 0.50209 0.01869 0.54269
 O1056 O 0.47393 0.01816 0.53674
 Zr1057 Zr 0.49219 0.01803 0.52019
 O1058 O 0.47706 0.00457 0.50626
 Zr1059 Zr 0.51912 -0.00988 0.51983
 O1060 O 0.50505 -0.02465 0.50603
 Zr1061 Zr 0.51943 0.01792 0.49271
 O1062 O 0.50559 0.00436 0.47761
 Zr1063 Zr 0.48148 -0.01935 0.50961
 O1064 O 0.49540 -0.00597 0.52515
 Zr1065 Zr 0.48202 0.00843 0.48261
 O1066 O 0.49587 0.02343 0.49653
 Zr1067 Zr 0.50896 -0.01956 0.48240
 O1068 O 0.52435 -0.00598 0.49618
 O1069 O 0.51565 0.01390 0.51626
 O1070 O 0.48537 -0.01548 0.48602
 C1071 C 0.51296 0.04725 0.51330
 C1072 C 0.51253 0.01023 0.54939
 C1073 C 0.54850 0.01067 0.51309
 C1074 C 0.48717 -0.04824 0.48827
 C1075 C 0.45316 -0.01300 0.48783
 C1076 C 0.48762 -0.01308 0.45377
 H1077 H 0.46614 0.00709 0.50890
 H1078 H 0.50817 0.00695 0.46669
 H1079 H 0.52236 0.02044 0.52301
 H1080 H 0.50726 -0.03573 0.50856
 H1081 H 0.48594 -0.03152 0.53681
 H1082 H 0.51221 -0.03500 0.53509
 H1083 H 0.49114 0.02492 0.45885
 H1084 H 0.50880 0.04034 0.47566
 H1085 H 0.46608 -0.01231 0.53439
 H1086 H 0.47597 0.00957 0.54420
 H1087 H 0.52622 -0.01037 0.45934
 H1088 H 0.54131 0.00690 0.47536
 H1089 H 0.47493 0.04032 0.50966
 H1090 H 0.45909 0.02578 0.49205
 H1091 H 0.54127 -0.02679 0.50832
 H1092 H 0.52504 -0.04371 0.49134
 O1093 O 0.47998 0.45762 -0.00291
 O1094 O 0.48125 0.46303 0.02453
 O1095 O 0.45858 0.49910 -0.02088
 O1096 O 0.46322 0.52484 -0.02086
 O1097 O 0.49905 0.47964 -0.04308
 O1098 O 0.52635 0.48083 -0.03733
 O1099 O 0.50185 0.53982 0.01954
 O1100 O 0.47459 0.53568 0.01661
 O1101 O 0.52006 0.49973 0.03952
 O1102 O 0.51864 0.47140 0.03356
 O1103 O 0.54071 0.51936 0.00061
 O1104 O 0.53551 0.51803 -0.02791
 O1105 O 0.52012 0.54007 0.00042
 O1106 O 0.51879 0.53462 -0.02802
 O1107 O 0.54081 0.49996 0.01872
 O1108 O 0.53494 0.47133 0.01676
 O1109 O 0.50190 0.51908 0.03959
 O1110 O 0.47363 0.51713 0.03464
 O1111 O 0.49890 0.45763 -0.02142
 O1112 O 0.52634 0.46328 -0.02010
 O1113 O 0.48050 0.49862 -0.04284
 O1114 O 0.48326 0.52660 -0.03650
 O1115 O 0.45849 0.47969 -0.00273
 O1116 O 0.46418 0.48076 0.02476
 Zr1117 Zr 0.48104 0.48026 0.00684
 O1118 O 0.49493 0.49369 0.02204
 Zr1119 Zr 0.48136 0.50809 -0.02019
 O1120 O 0.49505 0.52290 -0.00609
 Zr1121 Zr 0.50847 0.48030 -0.02044
 O1122 O 0.52351 0.49389 -0.00654
 Zr1123 Zr 0.49142 0.51763 0.01752
 O1124 O 0.47611 0.50422 0.00350
 Zr1125 Zr 0.51854 0.48985 0.01708
 O1126 O 0.50467 0.47484 0.00318
 Zr1127 Zr 0.51867 0.51779 -0.00992
 O1128 O 0.50497 0.50419 -0.02535
 O1129 O 0.48494 0.48431 -0.01668
 O1130 O 0.51502 0.51374 0.01370
 C1131 C 0.48786 0.45094 -0.01379
 C1132 C 0.45187 0.48793 -0.01338
 C1133 C 0.48821 0.48766 -0.04965
 C1134 C 0.51291 0.54643 0.01190
 C1135 C 0.51291 0.51123 0.04603
 C1136 C 0.54721 0.51154 0.01162
 H1137 H 0.49244 0.49094 0.03293
 H1138 H 0.53443 0.49133 -0.00909
 H1139 H 0.47822 0.47775 -0.02339
 H1140 H 0.49255 0.53399 -0.00830
 H1141 H 0.46521 0.53115 0.01162
 H1142 H 0.46649 0.53381 -0.01433
 H1143 H 0.54197 0.47302 0.00780
 H1144 H 0.52570 0.45801 -0.00985
 H1145 H 0.47526 0.50786 0.04135
 H1146 H 0.45929 0.49125 0.02436
 H1147 H 0.54231 0.50879 -0.02652
 H1148 H 0.52607 0.49141 -0.04204
 H1149 H 0.49159 0.45793 0.02404
 H1150 H 0.50928 0.47254 0.04016
 H1151 H 0.49295 0.52483 -0.04247
 H1152 H 0.50969 0.54155 -0.02651
 O1153 O 0.76981 0.29185 0.49802
 O1154 O 0.76816 0.28622 0.52541
 O1155 O 0.79119 0.25061 0.47980
 O1156 O 0.78648 0.22485 0.47954
 O1157 O 0.75076 0.27013 0.45737
 O1158 O 0.72350 0.26935 0.46299
 O1159 O 0.74757 0.20952 0.51929
 O1160 O 0.77478 0.21367 0.51672
 O1161 O 0.72933 0.24961 0.53965
 O1162 O 0.73058 0.27785 0.53394
 O1163 O 0.70854 0.23077 0.49970
 O1164 O 0.71448 0.23170 0.47159
 O1165 O 0.72914 0.20964 0.50030
 O1166 O 0.73106 0.21510 0.47179
 O1167 O 0.70872 0.24922 0.51879
 O1168 O 0.71446 0.27801 0.51692
 O1169 O 0.74732 0.23010 0.53964
 O1170 O 0.77563 0.23201 0.53495
 O1171 O 0.75096 0.29220 0.47939
 O1172 O 0.72349 0.28659 0.48039
 O1173 O 0.76961 0.25143 0.45768
 O1174 O 0.76650 0.22335 0.46359
 O1175 O 0.79105 0.26994 0.49807
 O1176 O 0.78523 0.26837 0.52558
 Zr1177 Zr 0.76850 0.26917 0.50753
 O1178 O 0.75446 0.25562 0.52243
 Zr1179 Zr 0.76839 0.24165 0.48017
 O1180 O 0.75453 0.22672 0.49396
 Zr1181 Zr 0.74130 0.26951 0.48000
 O1182 O 0.72613 0.25578 0.49356
 Zr1183 Zr 0.75796 0.23173 0.51766
 O1184 O 0.77344 0.24525 0.50395
 Zr1185 Zr 0.73090 0.25954 0.51728
 O1186 O 0.74491 0.27468 0.50371
 Zr1187 Zr 0.73094 0.23191 0.48995
 O1188 O 0.74480 0.24566 0.47483
 O1189 O 0.76477 0.26539 0.48393
 O1190 O 0.73439 0.23567 0.51366
 C1191 C 0.76203 0.29869 0.48718
 C1192 C 0.79775 0.26183 0.48737
 C1193 C 0.76177 0.26229 0.45088
 C1194 C 0.73640 0.20308 0.51166
 C1195 C 0.73639 0.23804 0.54611
 C1196 C 0.70211 0.23820 0.51102
 H1197 H 0.75688 0.25827 0.53337
 H1198 H 0.71525 0.25840 0.49090
 H1199 H 0.77153 0.27201 0.47733
 H1200 H 0.75702 0.21565 0.49167
 H1201 H 0.78418 0.21822 0.51182
 H1202 H 0.78305 0.21576 0.48580
 H1203 H 0.70732 0.27621 0.50805
 H1204 H 0.72399 0.29165 0.49075
 H1205 H 0.77402 0.24127 0.54169
 H1206 H 0.79022 0.25793 0.52495
 H1207 H 0.70801 0.24123 0.47258
 H1208 H 0.72381 0.25889 0.45801
 H1209 H 0.75791 0.29147 0.52476
 H1210 H 0.74006 0.27687 0.54041
 H1211 H 0.75684 0.22524 0.45759
 H1212 H 0.74002 0.20804 0.47350
 O1213 O 0.75118 0.76941 -0.04276
 O1214 O 0.72394 0.76852 -0.03704
 O1215 O 0.77010 0.79140 -0.00213
 O1216 O 0.77008 0.78706 0.02363
 O1217 O 0.79168 0.75014 -0.02099
 O1218 O 0.78568 0.72283 -0.01984
 O1219 O 0.73018 0.74899 0.03957
 O1220 O 0.73273 0.77610 0.03487
 O1221 O 0.70935 0.72988 0.00001
 O1222 O 0.71496 0.73098 -0.02830
 O1223 O 0.74849 0.70895 0.01910
 O1224 O 0.77687 0.71426 0.01770
 O1225 O 0.74840 0.72971 0.03951
 O1226 O 0.77702 0.73132 0.03410
 O1227 O 0.73008 0.70881 0.00009
 O1228 O 0.73150 0.71439 -0.02830
 O1229 O 0.70965 0.74827 0.01918
 O1230 O 0.71468 0.77686 0.01659
 O1231 O 0.76993 0.75061 -0.04278
 O1232 O 0.76812 0.72289 -0.03700
 O1233 O 0.79169 0.76943 -0.00268
 O1234 O 0.78588 0.76673 0.02530
 O1235 O 0.75139 0.79142 -0.02090
 O1236 O 0.72396 0.78575 -0.01963
 Zr1237 Zr 0.74182 0.76873 -0.02012
 O1238 O 0.72678 0.75499 -0.00646
 Zr1239 Zr 0.76926 0.76862 0.00716
 O1240 O 0.75529 0.75508 0.02221
 Zr1241 Zr 0.76896 0.74099 -0.02019
 O1242 O 0.75522 0.72608 -0.00631
 Zr1243 Zr 0.73167 0.75883 0.01722
 O1244 O 0.74557 0.77400 0.00357
 Zr1245 Zr 0.73160 0.73115 -0.01010
 O1246 O 0.74532 0.74488 -0.02534
 Zr1247 Zr 0.75888 0.73119 0.01738
 O1248 O 0.77419 0.74473 0.00349
 O1249 O 0.76535 0.76474 -0.01639
 O1250 O 0.73527 0.73498 0.01358
 C1251 C 0.76210 0.76158 -0.04943
 C1252 C 0.76232 0.79810 -0.01307
 C1253 C 0.79832 0.76132 -0.01343
 C1254 C 0.73739 0.73751 0.04602
 C1255 C 0.70304 0.73719 0.01148
 C1256 C 0.73738 0.70238 0.01149
 H1257 H 0.71588 0.75752 -0.00908
 H1258 H 0.75771 0.71505 -0.00878
 H1259 H 0.77199 0.77141 -0.02307
 H1260 H 0.75765 0.75771 0.03318
 H1261 H 0.73793 0.78536 0.03025
 H1262 H 0.76392 0.78375 0.03277
 H1263 H 0.74068 0.70754 -0.02690
 H1264 H 0.75792 0.72381 -0.04229
 H1265 H 0.70752 0.77480 0.00779
 H1266 H 0.72446 0.79077 -0.00924
 H1267 H 0.77550 0.70741 0.00851
 H1268 H 0.79048 0.72305 -0.00935
 H1269 H 0.72418 0.75802 -0.04194
 H1270 H 0.70830 0.74035 -0.02708
 H1271 H 0.79165 0.75684 0.02356
 H1272 H 0.77535 0.74038 0.04108
 O1273 O 1.00062 0.20877 0.22895
 O1274 O 0.97340 0.21452 0.22963
 O1275 O 1.01934 0.25013 0.20750
 O1276 O 1.01964 0.27587 0.21215
 O1277 O 1.04089 0.23037 0.24820
 O1278 O 1.03500 0.23177 0.27550
 O1279 O 0.97915 0.29132 0.25009
 O1280 O 0.98206 0.28695 0.22297
 O1281 O 0.95863 0.25159 0.26864
 O1282 O 0.96417 0.22302 0.26703
 O1283 O 0.99754 0.27053 0.28960
 O1284 O 1.02584 0.26931 0.28454
 O1285 O 0.99751 0.29120 0.26916
 O1286 O 1.02616 0.28578 0.26760
 O1287 O 0.97922 0.25134 0.28950
 O1288 O 0.98072 0.22284 0.28362
 O1289 O 0.95854 0.27030 0.24981
 O1290 O 0.96398 0.26871 0.22186
 O1291 O 1.01936 0.20876 0.24769
 O1292 O 1.01743 0.21433 0.27530
 O1293 O 1.04112 0.24944 0.22970
 O1294 O 1.03500 0.27752 0.23244
 O1295 O 1.00108 0.23083 0.20726
 O1296 O 0.97353 0.23223 0.21264
 Zr1297 Zr 0.99126 0.23155 0.22972
 O1298 O 0.97611 0.24512 0.24346
 Zr1299 Zr 1.01856 0.25914 0.23030
 O1300 O 1.00445 0.27408 0.24382
 Zr1301 Zr 1.01826 0.23136 0.25744
 O1302 O 1.00441 0.24513 0.27236
 Zr1303 Zr 0.98087 0.26899 0.23990
 O1304 O 0.99492 0.25546 0.22476
 Zr1305 Zr 0.98083 0.24131 0.26717
 O1306 O 0.99466 0.22613 0.25342
 Zr1307 Zr 1.00800 0.26900 0.26753
 O1308 O 1.02343 0.25522 0.25401
 O1309 O 1.01475 0.23540 0.23386
 O1310 O 0.98440 0.26517 0.26361
 C1311 C 1.01158 0.20211 0.23671
 C1312 C 1.01183 0.23900 0.20071
 C1313 C 1.04764 0.23832 0.23742
 C1314 C 0.98642 0.29776 0.26151
 C1315 C 0.95207 0.26273 0.26100
 C1316 C 0.98644 0.26278 0.29602
 H1317 H 0.96524 0.24244 0.24085
 H1318 H 1.00687 0.24256 0.28331
 H1319 H 1.02143 0.22878 0.22717
 H1320 H 1.00677 0.28515 0.24132
 H1321 H 0.98726 0.28239 0.21372
 H1322 H 1.01316 0.28489 0.21532
 H1323 H 0.98986 0.22421 0.29051
 H1324 H 1.00726 0.20896 0.27429
 H1325 H 0.95761 0.25913 0.22298
 H1326 H 0.97433 0.24257 0.20748
 H1327 H 1.02469 0.25981 0.29102
 H1328 H 1.03992 0.24225 0.27516
 H1329 H 0.97347 0.20965 0.24009
 H1330 H 0.95740 0.22449 0.25783
 H1331 H 1.04081 0.27569 0.24224
 H1332 H 1.02441 0.29300 0.25876
 O1333 O 0.70895 1.02047 0.74927
 O1334 O 0.71482 1.01953 0.77647
 O1335 O 0.74965 1.04247 0.73019
 O1336 O 0.77544 1.03805 0.73063
 O1337 O 0.73069 1.00153 0.70850
 O1338 O 0.73176 0.97406 0.71443
 O1339 O 0.79119 0.99909 0.77011
 O1340 O 0.78669 1.02683 0.76693
 O1341 O 0.75219 0.98049 0.79069
 O1342 O 0.72378 0.98227 0.78557
 O1343 O 0.77051 0.95978 0.75146
 O1344 O 0.76870 0.96527 0.72290
 O1345 O 0.79118 0.98063 0.75101
 O1346 O 0.78540 0.98189 0.72280
 O1347 O 0.75161 0.95976 0.76993
 O1348 O 0.72327 0.96567 0.76877
 O1349 O 0.77075 0.99946 0.79072
 O1350 O 0.76849 1.02577 0.78713
 O1351 O 0.70896 1.00189 0.73026
 O1352 O 0.71450 0.97427 0.73186
 O1353 O 0.74904 1.02075 0.70866
 O1354 O 0.77694 1.01802 0.71440
 O1355 O 0.73077 1.04249 0.74875
 O1356 O 0.73167 1.03643 0.77690
 Zr1357 Zr 0.73166 1.01985 0.75854
 O1358 O 0.74546 1.00602 0.77342
 Zr1359 Zr 0.75888 1.01971 0.73110
 O1360 O 0.77390 1.00588 0.74482
 Zr1361 Zr 0.73146 0.99221 0.73120
 O1362 O 0.74521 0.97713 0.74490
 Zr1363 Zr 0.76910 1.00955 0.76850
 O1364 O 0.75540 1.02506 0.75489
 Zr1365 Zr 0.74165 0.98219 0.76860
 O1366 O 0.72642 0.99601 0.75492
 Zr1367 Zr 0.76886 0.98206 0.74107
 O1368 O 0.75508 0.99588 0.72592
 O1369 O 0.73534 1.01590 0.73498
 O1370 O 0.76529 0.98576 0.76477
 C1371 C 0.70230 1.01273 0.73825
 C1372 C 0.73865 1.04914 0.73786
 C1373 C 0.73826 1.01275 0.70196
 C1374 C 0.79766 0.98795 0.76239
 C1375 C 0.76336 0.98811 0.79718
 C1376 C 0.76289 0.95323 0.76257
 H1377 H 0.74315 1.00872 0.78438
 H1378 H 0.74263 0.96614 0.74239
 H1379 H 0.72866 1.02259 0.72835
 H1380 H 0.78486 1.00843 0.74241
 H1381 H 0.78160 1.03654 0.76322
 H1382 H 0.78447 1.03463 0.73692
 H1383 H 0.72453 0.95881 0.75956
 H1384 H 0.70939 0.97501 0.74217
 H1385 H 0.76289 1.03510 0.78327
 H1386 H 0.74017 1.04397 0.77483
 H1387 H 0.75973 0.95822 0.72459
 H1388 H 0.74213 0.97442 0.70943
 H1389 H 0.71004 1.00898 0.77627
 H1390 H 0.72534 0.99155 0.79231
 H1391 H 0.77519 1.00819 0.70852
 H1392 H 0.79202 0.99129 0.72398
 O1393 O 0.79107 0.49994 0.27016
 O1394 O 0.78514 0.52735 0.26889
 O1395 O 0.75066 0.48081 0.29204
 O1396 O 0.72491 0.48078 0.28780
 O1397 O 0.76994 0.45897 0.25165
 O1398 O 0.76832 0.46446 0.22423
 O1399 O 0.70894 0.52078 0.24867
 O1400 O 0.71306 0.51786 0.27599
 O1401 O 0.74788 0.54123 0.23004
 O1402 O 0.77624 0.53596 0.23139
 O1403 O 0.72956 0.50116 0.20968
 O1404 O 0.73092 0.47285 0.21548
 O1405 O 0.70886 0.50137 0.23053
 O1406 O 0.71464 0.47279 0.23231
 O1407 O 0.74782 0.52040 0.20964
 O1408 O 0.77644 0.51887 0.21510
 O1409 O 0.72944 0.54142 0.24899
 O1410 O 0.73118 0.53627 0.27705
 O1411 O 0.79115 0.48087 0.25163
 O1412 O 0.78545 0.48231 0.22407
 O1413 O 0.75107 0.45880 0.27022
 O1414 O 0.72320 0.46462 0.26777
 O1415 O 0.76913 0.49991 0.29201
 O1416 O 0.76773 0.52745 0.28600
 Zr1417 Zr 0.76836 0.50924 0.26930
 O1418 O 0.75461 0.52410 0.25540
 Zr1419 Zr 0.74128 0.48142 0.26940
 O1420 O 0.72618 0.49521 0.25572
 Zr1421 Zr 0.76865 0.48158 0.24203
 O1422 O 0.75473 0.49511 0.22698
 Zr1423 Zr 0.73098 0.51908 0.25917
 O1424 O 0.74469 0.50538 0.27448
 Zr1425 Zr 0.75827 0.51899 0.23175
 O1426 O 0.77360 0.50547 0.24562
 Zr1427 Zr 0.73111 0.49124 0.23205
 O1428 O 0.74506 0.47613 0.24575
 O1429 O 0.76477 0.48548 0.26559
 O1430 O 0.73466 0.51512 0.23552
 C1431 C 0.79773 0.48885 0.26250
 C1432 C 0.76145 0.48886 0.29869
 C1433 C 0.76215 0.45224 0.26253
 C1434 C 0.70244 0.51293 0.23766
 C1435 C 0.73678 0.54782 0.23763
 C1436 C 0.73678 0.51261 0.20318
 H1437 H 0.75716 0.53512 0.25782
 H1438 H 0.75723 0.49248 0.21606
 H1439 H 0.77147 0.47893 0.27232
 H1440 H 0.71523 0.49281 0.25831
 H1441 H 0.71762 0.51290 0.28537
 H1442 H 0.71566 0.48675 0.28438
 H1443 H 0.77479 0.50982 0.20808
 H1444 H 0.79053 0.49270 0.22476
 H1445 H 0.74052 0.54289 0.27569
 H1446 H 0.75747 0.52675 0.29120
 H1447 H 0.74034 0.47394 0.20895
 H1448 H 0.75805 0.45923 0.22485
 H1449 H 0.78999 0.52702 0.25844
 H1450 H 0.77495 0.54276 0.24064
 H1451 H 0.72490 0.45869 0.25800
 H1452 H 0.70768 0.47444 0.24134
 O1453 O 0.50041 0.20758 0.72908
 O1454 O 0.47316 0.21323 0.73011
 O1455 O 0.51915 0.24883 0.70758
 O1456 O 0.51874 0.27472 0.71224
 O1457 O 0.54088 0.22944 0.74810
 O1458 O 0.53506 0.23038 0.77542
 O1459 O 0.47965 0.29036 0.75023
 O1460 O 0.48197 0.28519 0.72287
 O1461 O 0.45856 0.25004 0.76888
 O1462 O 0.46415 0.22185 0.76749
 O1463 O 0.49824 0.26875 0.79012
 O1464 O 0.52639 0.26786 0.78439
 O1465 O 0.49762 0.28990 0.76965
 O1466 O 0.52623 0.28457 0.76782
 O1467 O 0.47912 0.25037 0.78970
 O1468 O 0.48107 0.22155 0.78389
 O1469 O 0.45896 0.26990 0.75127
 O1470 O 0.46175 0.26712 0.72484
 O1471 O 0.51918 0.20744 0.74776
 O1472 O 0.51765 0.21301 0.77525
 O1473 O 0.54068 0.24815 0.72924
 O1474 O 0.53467 0.27627 0.73214
 O1475 O 0.50074 0.22968 0.70740
 O1476 O 0.47265 0.23029 0.71341
 Zr1477 Zr 0.49096 0.23033 0.72993
 O1478 O 0.47601 0.24401 0.74380
 Zr1479 Zr 0.51821 0.25789 0.73031
 O1480 O 0.50440 0.27285 0.74412
 Zr1481 Zr 0.51824 0.23010 0.75744
 O1482 O 0.50452 0.24381 0.77251
 Zr1483 Zr 0.48078 0.26786 0.74045
 O1484 O 0.49447 0.25427 0.72494
 Zr1485 Zr 0.48087 0.24007 0.76748
 O1486 O 0.49458 0.22491 0.75360
 Zr1487 Zr 0.50818 0.26769 0.76777
 O1488 O 0.52340 0.25395 0.75397
 O1489 O 0.51447 0.23414 0.73390
 O1490 O 0.48455 0.26394 0.76408
 C1491 C 0.51132 0.20081 0.73683
 C1492 C 0.51155 0.23776 0.70084
 C1493 C 0.54740 0.23722 0.73705
 C1494 C 0.48679 0.29666 0.76180
 C1495 C 0.45231 0.26186 0.76203
 C1496 C 0.48684 0.26136 0.79642
 H1497 H 0.46507 0.24163 0.74112
 H1498 H 0.50706 0.24118 0.78343
 H1499 H 0.52111 0.22750 0.72720
 H1500 H 0.50676 0.28390 0.74162
 H1501 H 0.48545 0.27987 0.71322
 H1502 H 0.51180 0.28340 0.71538
 H1503 H 0.48983 0.22336 0.79115
 H1504 H 0.50732 0.20791 0.77459
 H1505 H 0.46521 0.26100 0.71571
 H1506 H 0.47466 0.23892 0.70599
 H1507 H 0.52534 0.25832 0.79085
 H1508 H 0.54013 0.24079 0.77501
 H1509 H 0.47358 0.20813 0.74046
 H1510 H 0.45782 0.22293 0.75792
 H1511 H 0.54052 0.27453 0.74192
 H1512 H 0.52451 0.29169 0.75889
 O1513 O 0.29247 0.74919 0.48048
 O1514 O 0.28637 0.72182 0.48192
 O1515 O 0.25165 0.76776 0.45815
 O1516 O 0.22617 0.76881 0.46270
 O1517 O 0.27106 0.79061 0.49885
 O1518 O 0.26998 0.78509 0.52614
 O1519 O 0.21016 0.72900 0.50186
 O1520 O 0.21450 0.73148 0.47453
 O1521 O 0.24951 0.70822 0.52047
 O1522 O 0.27761 0.71374 0.51965
 O1523 O 0.23092 0.74877 0.54082
 O1524 O 0.23240 0.77703 0.53475
 O1525 O 0.21017 0.74852 0.51989
 O1526 O 0.21612 0.77698 0.51795
 O1527 O 0.24900 0.72936 0.54102
 O1528 O 0.27769 0.73092 0.53570
 O1529 O 0.23040 0.70828 0.50217
 O1530 O 0.23241 0.71287 0.47397
 O1531 O 0.29256 0.76856 0.49870
 O1532 O 0.28694 0.76729 0.52629
 O1533 O 0.25286 0.79034 0.47959
 O1534 O 0.22476 0.78482 0.48255
 O1535 O 0.27081 0.74937 0.45867
 O1536 O 0.26889 0.72180 0.46470
 Zr1537 Zr 0.26972 0.74005 0.48135
 O1538 O 0.25591 0.72535 0.49535
 Zr1539 Zr 0.24271 0.76789 0.48094
 O1540 O 0.22756 0.75429 0.49473
 Zr1541 Zr 0.27007 0.76793 0.50837
 O1542 O 0.25610 0.75457 0.52350
 Zr1543 Zr 0.23228 0.73037 0.49154
 O1544 O 0.24605 0.74389 0.47611
 Zr1545 Zr 0.25958 0.73064 0.51896
 O1546 O 0.27496 0.74400 0.50500
 Zr1547 Zr 0.23251 0.75847 0.51837
 O1548 O 0.24650 0.77341 0.50455
 O1549 O 0.26620 0.76385 0.48483
 O1550 O 0.23597 0.73454 0.51516
 C1551 C 0.29916 0.76039 0.48798
 C1552 C 0.26277 0.76000 0.45173
 C1553 C 0.26361 0.79712 0.48758
 C1554 C 0.20367 0.73699 0.51277
 C1555 C 0.23811 0.70174 0.51322
 C1556 C 0.23805 0.73733 0.54743
 H1557 H 0.25844 0.71430 0.49303
 H1558 H 0.25861 0.75730 0.53441
 H1559 H 0.27291 0.77033 0.47804
 H1560 H 0.21662 0.75671 0.49208
 H1561 H 0.21918 0.73627 0.46512
 H1562 H 0.21712 0.76245 0.46595
 H1563 H 0.27597 0.73998 0.54269
 H1564 H 0.29194 0.75686 0.52571
 H1565 H 0.24173 0.70624 0.47546
 H1566 H 0.25861 0.72254 0.45954
 H1567 H 0.24170 0.77585 0.54145
 H1568 H 0.25964 0.79020 0.52573
 H1569 H 0.29141 0.72236 0.49228
 H1570 H 0.27667 0.70716 0.51021
 H1571 H 0.22676 0.79104 0.49209
 H1572 H 0.20930 0.77542 0.50879
 O1573 O 0.26994 0.29206 0.99926
 O1574 O 0.26892 0.28650 1.02653
 O1575 O 0.29197 0.25034 0.98143
 O1576 O 0.28723 0.22467 0.98109
 O1577 O 0.25131 0.26955 0.95857
 O1578 O 0.22413 0.26877 0.96423
 O1579 O 0.24821 0.20988 1.02145
 O1580 O 0.27553 0.21388 1.01861
 O1581 O 0.22975 0.24970 1.04092
 O1582 O 0.23133 0.27818 1.03506
 O1583 O 0.20958 0.23016 1.00184
 O1584 O 0.21516 0.23131 0.97339
 O1585 O 0.23020 0.20946 1.00206
 O1586 O 0.23189 0.21473 0.97360
 O1587 O 0.20923 0.24970 1.01983
 O1588 O 0.21514 0.27818 1.01817
 O1589 O 0.24823 0.23069 1.04142
 O1590 O 0.27649 0.23257 1.03656
 O1591 O 0.25174 0.29178 0.98000
 O1592 O 0.22416 0.28628 0.98151
 O1593 O 0.27045 0.25116 0.95915
 O1594 O 0.26726 0.22301 0.96532
 O1595 O 0.29171 0.27011 0.99922
 O1596 O 0.28593 0.26881 1.02677
 Zr1597 Zr 0.26914 0.26934 1.00876
 O1598 O 0.25513 0.25593 1.02382
 Zr1599 Zr 0.26915 0.24147 0.98171
 O1600 O 0.25537 0.22665 0.99572
 Zr1601 Zr 0.24196 0.26919 0.98120
 O1602 O 0.22683 0.25558 0.99492
 Zr1603 Zr 0.25875 0.23199 1.01936
 O1604 O 0.27416 0.24539 1.00547
 Zr1605 Zr 0.23156 0.25969 1.01858
 O1606 O 0.24554 0.27470 1.00484
 Zr1607 Zr 0.23177 0.23168 0.99163
 O1608 O 0.24556 0.24530 0.97632
 O1609 O 0.26546 0.26525 0.98520
 O1610 O 0.23518 0.23581 1.01528
 C1611 C 0.26243 0.29859 0.98803
 C1612 C 0.29850 0.26171 0.98880
 C1613 C 0.26249 0.26186 0.95222
 C1614 C 0.23723 0.20322 1.01373
 C1615 C 0.23701 0.23841 1.04764
 C1616 C 0.20291 0.23811 1.01267
 H1617 H 0.25751 0.25871 1.03473
 H1618 H 0.21594 0.25811 0.99222
 H1619 H 0.27223 0.27183 0.97856
 H1620 H 0.25790 0.21556 0.99357
 H1621 H 0.28492 0.21835 1.01362
 H1622 H 0.28394 0.21573 0.98763
 H1623 H 0.20846 0.27672 1.00889
 H1624 H 0.22499 0.29176 0.99165
 H1625 H 0.27493 0.24196 1.04312
 H1626 H 0.29101 0.25842 1.02620
 H1627 H 0.20827 0.24050 0.97472
 H1628 H 0.22426 0.25813 0.95961
 H1629 H 0.25847 0.29137 1.02625
 H1630 H 0.24040 0.27681 1.04202
 H1631 H 0.25773 0.22496 0.95914
 H1632 H 0.24103 0.20788 0.97521
 C1633 C 0.28460 0.39204 0.78301
 C1634 C 0.28141 0.38777 0.79862
 C1635 C 0.28702 0.37353 0.80459
 C1636 C 0.29568 0.36323 0.79520
 C1637 C 0.29847 0.36736 0.77962
 C1638 C 0.29305 0.38153 0.77359
 C1639 C 0.27883 0.40757 0.77722
 C1640 C 0.28218 0.41332 0.76220
 C1641 C 0.27681 0.42799 0.75748
 C1642 C 0.26782 0.43729 0.76751
 C1643 C 0.26433 0.43164 0.78247
 C1644 C 0.26991 0.41701 0.78744
 C1645 C 0.27264 0.39772 0.80817
 C1646 C 0.26689 0.41195 0.80266
 H1647 H 0.27012 0.39443 0.82011
 H1648 H 0.26012 0.41920 0.81051
 H1649 H 0.28484 0.37062 0.81667
 H1650 H 0.30476 0.35954 0.77195
 H1651 H 0.27973 0.43208 0.74590
 H1652 H 0.25761 0.43881 0.79043
 H1653 H 0.29554 0.38395 0.76152
 H1654 H 0.28911 0.40680 0.75398
 C1655 C 0.28316 -0.10740 0.28745
 C1656 C 0.29768 -0.11281 0.28192
 C1657 C 0.30383 -0.12706 0.28733
 C1658 C 0.29579 -0.13630 0.29837
 C1659 C 0.28126 -0.13073 0.30369
 C1660 C 0.27508 -0.11661 0.29835
 C1661 C 0.27707 -0.09205 0.28148
 C1662 C 0.26283 -0.08553 0.28642
 C1663 C 0.25783 -0.07105 0.28075
 C1664 C 0.26680 -0.06270 0.26992
 C1665 C 0.28092 -0.06919 0.26478
 C1666 C 0.28613 -0.08368 0.27051
 C1667 C 0.30607 -0.10394 0.27105
 C1668 C 0.30041 -0.08971 0.26546
 H1669 H 0.31722 -0.10805 0.26680
 H1670 H 0.30737 -0.08329 0.25709
 H1671 H 0.31510 -0.13061 0.28303
 H1672 H 0.27430 -0.13729 0.31186
 H1673 H 0.24690 -0.06636 0.28495
 H1674 H 0.28806 -0.06283 0.25652
 H1675 H 0.26390 -0.11318 0.30291
 H1676 H 0.25542 -0.09131 0.29476
 C1677 C 0.78303 0.89187 0.78406
 C1678 C 0.79737 0.88620 0.77832
 C1679 C 0.80341 0.87188 0.78375
 C1680 C 0.79541 0.86288 0.79501
 C1681 C 0.78092 0.86857 0.80029
 C1682 C 0.77486 0.88273 0.79495
 C1683 C 0.77722 0.90743 0.77836
 C1684 C 0.76334 0.91432 0.78378
 C1685 C 0.75865 0.92901 0.77845
 C1686 C 0.76759 0.93726 0.76751
 C1687 C 0.78135 0.93041 0.76188
 C1688 C 0.78626 0.91567 0.76728
 C1689 C 0.80572 0.89491 0.76729
 C1690 C 0.80026 0.90929 0.76185
 H1691 H 0.81670 0.89058 0.76283
 H1692 H 0.80720 0.91559 0.75338
 H1693 H 0.81456 0.86813 0.77932
 H1694 H 0.77390 0.86212 0.80851
 H1695 H 0.74799 0.93396 0.78304
 H1696 H 0.78847 0.93669 0.75353
 H1697 H 0.76373 0.88627 0.79954
 H1698 H 0.75600 0.90868 0.79227
 C1699 C 0.46674 0.85863 0.28457
 C1700 C 0.45230 0.86426 0.27902
 C1701 C 0.44608 0.87831 0.28487
 C1702 C 0.45394 0.88706 0.29644
 C1703 C 0.46848 0.88140 0.30162
 C1704 C 0.47475 0.86751 0.29581
 C1705 C 0.47276 0.84335 0.27836
 C1706 C 0.48684 0.83658 0.28342
 C1707 C 0.49166 0.82206 0.27774
 C1708 C 0.48265 0.81387 0.26678
 C1709 C 0.46876 0.82066 0.26141
 C1710 C 0.46373 0.83523 0.26716
 C1711 C 0.44402 0.85573 0.26777
 C1712 C 0.44961 0.84155 0.26197
 H1713 H 0.43296 0.86003 0.26346
 H1714 H 0.44269 0.83535 0.25338
 H1715 H 0.43485 0.88202 0.28059
 H1716 H 0.47537 0.88769 0.31007
 H1717 H 0.50244 0.81717 0.28209
 H1718 H 0.46161 0.81445 0.25302
 H1719 H 0.48590 0.86396 0.30035
 H1720 H 0.49424 0.84218 0.29191
 C1721 C -0.03244 0.85834 0.78533
 C1722 C -0.04700 0.86378 0.77991
 C1723 C -0.05304 0.87810 0.78532
 C1724 C -0.04485 0.88733 0.79627
 C1725 C -0.03026 0.88178 0.80143
 C1726 C -0.02418 0.86761 0.79607
 C1727 C -0.02652 0.84289 0.77945
 C1728 C -0.01229 0.83631 0.78436
 C1729 C -0.00747 0.82173 0.77882
 C1730 C -0.01661 0.81331 0.76816
 C1731 C -0.03071 0.81985 0.76304
 C1732 C -0.03575 0.83445 0.76865
 C1733 C -0.05555 0.85486 0.76919
 C1734 C -0.05004 0.84053 0.76367
 H1735 H -0.06672 0.85900 0.76501
 H1736 H -0.05714 0.83407 0.75542
 H1737 H -0.06434 0.88167 0.78112
 H1738 H -0.02317 0.88838 0.80947
 H1739 H 0.00346 0.81700 0.78299
 H1740 H -0.03798 0.81343 0.75491
 H1741 H -0.01295 0.86419 0.80052
 H1742 H -0.00476 0.84213 0.79258
 C1743 C -0.03126 -0.11075 -0.03223
 C1744 C -0.04682 -0.11516 -0.02912
 C1745 C -0.05259 -0.12954 -0.03463
 C1746 C -0.04305 -0.13978 -0.04317
 C1747 C -0.02749 -0.13556 -0.04580
 C1748 C -0.02165 -0.12128 -0.04044
 C1749 C -0.02576 -0.09499 -0.02677
 C1750 C -0.01082 -0.08908 -0.03013
 C1751 C -0.00644 -0.07411 -0.02526
 C1752 C -0.01676 -0.06467 -0.01676
 C1753 C -0.03160 -0.07052 -0.01315
 C1754 C -0.03622 -0.08545 -0.01825
 C1755 C -0.05659 -0.10517 -0.02063
 C1756 C -0.05137 -0.09069 -0.01521
 H1757 H -0.06849 -0.10857 -0.01817
 H1758 H -0.05940 -0.08337 -0.00874
 H1759 H -0.06466 -0.13254 -0.03257
 H1760 H -0.01973 -0.14335 -0.05201
 H1761 H 0.00507 -0.06988 -0.02822
 H1762 H -0.03977 -0.06324 -0.00680
 H1763 H -0.00960 -0.11875 -0.04286
 H1764 H -0.00240 -0.09570 -0.03672
 C1765 C -0.03525 0.39163 0.46674
 C1766 C -0.02985 0.38617 0.45216
 C1767 C -0.03518 0.37179 0.44617
 C1768 C -0.04606 0.36256 0.45441
 C1769 C -0.05107 0.36807 0.46908
 C1770 C -0.04578 0.38228 0.47512
 C1771 C -0.02957 0.40721 0.47255
 C1772 C -0.03458 0.41386 0.48672
 C1773 C -0.02921 0.42854 0.49146
 C1774 C -0.01864 0.43699 0.48228
 C1775 C -0.01347 0.43041 0.46819
 C1776 C -0.01891 0.41570 0.46324
 C1777 C -0.01925 0.39514 0.44354
 C1778 C -0.01388 0.40956 0.44897
 H1779 H -0.01508 0.39098 0.43236
 H1780 H -0.00575 0.41607 0.44181
 H1781 H -0.03106 0.36821 0.43483
 H1782 H -0.05898 0.36140 0.47625
 H1783 H -0.03344 0.43330 0.50237
 H1784 H -0.00543 0.43686 0.46088
 H1785 H -0.05013 0.38567 0.48641
 H1786 H -0.04275 0.40803 0.49428
 C1787 C 0.46562 -0.10957 0.46792
 C1788 C 0.47155 -0.11531 0.45366
 C1789 C 0.46624 -0.12966 0.44761
 C1790 C 0.45491 -0.13867 0.45550
 C1791 C 0.44939 -0.13290 0.46989
 C1792 C 0.45462 -0.11868 0.47597
 C1793 C 0.47128 -0.09400 0.47376
 C1794 C 0.46575 -0.08706 0.48760
 C1795 C 0.47108 -0.07237 0.49234
 C1796 C 0.48214 -0.06417 0.48350
 C1797 C 0.48786 -0.07106 0.46977
 C1798 C 0.48247 -0.08579 0.46483
 C1799 C 0.48267 -0.10663 0.44541
 C1800 C 0.48805 -0.09223 0.45089
 H1801 H 0.48727 -0.11101 0.43449
 H1802 H 0.49661 -0.08596 0.44403
 H1803 H 0.47087 -0.13345 0.43655
 H1804 H 0.44105 -0.13930 0.47680
 H1805 H 0.46641 -0.06739 0.50296
 H1806 H 0.49632 -0.06484 0.46274
 H1807 H 0.44984 -0.11506 0.48701
 H1808 H 0.45718 -0.09267 0.49487
 C1809 C 0.46876 0.38891 -0.03435
 C1810 C 0.45460 0.38303 -0.02837
 C1811 C 0.44869 0.36862 -0.03368
 C1812 C 0.45656 0.35978 -0.04516
 C1813 C 0.47083 0.36570 -0.05076
 C1814 C 0.47681 0.37994 -0.04547
 C1815 C 0.47442 0.40457 -0.02874
 C1816 C 0.48820 0.41159 -0.03424
 C1817 C 0.49266 0.42645 -0.02912
 C1818 C 0.48357 0.43473 -0.01832
 C1819 C 0.46999 0.42769 -0.01250
 C1820 C 0.46533 0.41279 -0.01767
 C1821 C 0.44626 0.39166 -0.01726
 C1822 C 0.45151 0.40621 -0.01203
 H1823 H 0.43541 0.38717 -0.01262
 H1824 H 0.44454 0.41247 -0.00354
 H1825 H 0.43765 0.36471 -0.02909
 H1826 H 0.47773 0.35935 -0.05916
 H1827 H 0.50322 0.43152 -0.03381
 H1828 H 0.46279 0.43396 -0.00421
 H1829 H 0.48776 0.38368 -0.05033
 H1830 H 0.49564 0.40593 -0.04264
 C1831 C 0.78159 0.36086 0.46779
 C1832 C 0.79732 0.36492 0.47057
 C1833 C 0.80322 0.37928 0.46519
 C1834 C 0.79364 0.38989 0.45714
 C1835 C 0.77793 0.38602 0.45486
 C1836 C 0.77196 0.37174 0.46007
 C1837 C 0.77592 0.34511 0.47311
 C1838 C 0.76079 0.33953 0.47000
 C1839 C 0.75625 0.32457 0.47475
 C1840 C 0.76658 0.31484 0.48290
 C1841 C 0.78161 0.32036 0.48624
 C1842 C 0.78641 0.33526 0.48123
 C1843 C 0.80710 0.35459 0.47863
 C1844 C 0.80173 0.34015 0.48397
 H1845 H 0.81913 0.35771 0.48084
 H1846 H 0.80978 0.33258 0.49012
 H1847 H 0.81539 0.38200 0.46699
 H1848 H 0.77014 0.39408 0.44905
 H1849 H 0.74460 0.32058 0.47200
 H1850 H 0.78979 0.31285 0.49229
 H1851 H 0.75980 0.36949 0.45795
 H1852 H 0.75236 0.34639 0.46368
 C1853 C 0.78190 0.85992 -0.03363
 C1854 C 0.79648 0.86537 -0.02825
 C1855 C 0.80252 0.87966 -0.03370
 C1856 C 0.79437 0.88879 -0.04474
 C1857 C 0.77970 0.88330 -0.04975
 C1858 C 0.77359 0.86919 -0.04431
 C1859 C 0.77609 0.84436 -0.02792
 C1860 C 0.76188 0.83775 -0.03287
 C1861 C 0.75731 0.82294 -0.02775
 C1862 C 0.76668 0.81431 -0.01748
 C1863 C 0.78068 0.82096 -0.01217
 C1864 C 0.78547 0.83580 -0.01737
 C1865 C 0.80509 0.85641 -0.01762
 C1866 C 0.79971 0.84196 -0.01230
 H1867 H 0.81626 0.86056 -0.01344
 H1868 H 0.80690 0.83542 -0.00422
 H1869 H 0.81386 0.88323 -0.02959
 H1870 H 0.77260 0.88991 -0.05778
 H1871 H 0.74643 0.81816 -0.03201
 H1872 H 0.78811 0.81440 -0.00431
 H1873 H 0.76233 0.86578 -0.04870
 H1874 H 0.75420 0.84369 -0.04085
 C1875 C 0.78085 0.28131 0.38875
 C1876 C 0.79632 0.27775 0.38434
 C1877 C 0.80220 0.28309 0.37003
 C1878 C 0.79285 0.29187 0.35982
 C1879 C 0.77735 0.29487 0.36402
 C1880 C 0.77141 0.28970 0.37825
 C1881 C 0.77527 0.27607 0.40448
 C1882 C 0.76046 0.27992 0.41040
 C1883 C 0.75603 0.27525 0.42535
 C1884 C 0.76617 0.26649 0.43474
 C1885 C 0.78086 0.26240 0.42886
 C1886 C 0.78554 0.26729 0.41396
 C1887 C 0.80589 0.26900 0.39428
 C1888 C 0.80057 0.26376 0.40870
 H1889 H 0.81770 0.26618 0.39088
 H1890 H 0.80845 0.25706 0.41598
 H1891 H 0.81421 0.28071 0.36704
 H1892 H 0.76970 0.30124 0.35626
 H1893 H 0.74464 0.27859 0.42959
 H1894 H 0.78890 0.25583 0.43608
 H1895 H 0.75943 0.29242 0.38077
 H1896 H 0.75220 0.28675 0.40382
 C1897 C 0.78179 0.78286 -0.11064
 C1898 C 0.79624 0.77727 -0.11618
 C1899 C 0.80245 0.78303 -0.13020
 C1900 C 0.79458 0.79457 -0.13900
 C1901 C 0.77999 0.79972 -0.13347
 C1902 C 0.77372 0.79399 -0.11961
 C1903 C 0.77587 0.77688 -0.09530
 C1904 C 0.76184 0.78208 -0.08856
 C1905 C 0.75723 0.77677 -0.07390
 C1906 C 0.76640 0.76606 -0.06556
 C1907 C 0.78016 0.76044 -0.07238
 C1908 C 0.78500 0.76584 -0.08707
 C1909 C 0.80457 0.76611 -0.10758
 C1910 C 0.79907 0.76051 -0.09336
 H1911 H 0.81563 0.76175 -0.11183
 H1912 H 0.80605 0.75202 -0.08708
 H1913 H 0.81369 0.77872 -0.13383
 H1914 H 0.77307 0.80813 -0.13980
 H1915 H 0.74651 0.78128 -0.06900
 H1916 H 0.78742 0.75222 -0.06606
 H1917 H 0.76255 0.79853 -0.11613
 H1918 H 0.75435 0.79043 -0.09426
 C1919 C 0.28288 0.46907 0.85902
 C1920 C 0.27948 0.45350 0.86356
 C1921 C 0.28474 0.44779 0.87798
 C1922 C 0.29327 0.45743 0.88818
 C1923 C 0.29618 0.47300 0.88381
 C1924 C 0.29109 0.47876 0.86948
 C1925 C 0.27758 0.47452 0.84327
 C1926 C 0.28124 0.48944 0.83727
 C1927 C 0.27630 0.49386 0.82241
 C1928 C 0.26747 0.48360 0.81318
 C1929 C 0.26370 0.46874 0.81908
 C1930 C 0.26884 0.46407 0.83390
 C1931 C 0.27089 0.44370 0.85367
 C1932 C 0.26555 0.44892 0.83924
 H1933 H 0.26820 0.43180 0.85716
 H1934 H 0.25892 0.44089 0.83205
 H1935 H 0.28245 0.43572 0.88109
 H1936 H 0.30237 0.48085 0.89155
 H1937 H 0.27941 0.50538 0.81814
 H1938 H 0.25708 0.46061 0.81197
 H1939 H 0.29369 0.49083 0.86686
 H1940 H 0.28806 0.49782 0.84373
 C1941 C 0.28186 -0.03336 0.35957
 C1942 C 0.29633 -0.02773 0.36505
 C1943 C 0.30248 -0.03324 0.37920
 C1944 C 0.29453 -0.04455 0.38822
 C1945 C 0.27994 -0.04978 0.38271
 C1946 C 0.27374 -0.04431 0.36871
 C1947 C 0.27593 -0.02755 0.34416
 C1948 C 0.26186 -0.03277 0.33750
 C1949 C 0.25711 -0.02743 0.32289
 C1950 C 0.26619 -0.01667 0.31450
 C1951 C 0.28009 -0.01117 0.32117
 C1952 C 0.28504 -0.01657 0.33582
 C1953 C 0.30470 -0.01673 0.35628
 C1954 C 0.29917 -0.01126 0.34201
 H1955 H 0.31578 -0.01235 0.36048
 H1956 H 0.30616 -0.00285 0.33565
 H1957 H 0.31373 -0.02889 0.38278
 H1958 H 0.27298 -0.05803 0.38919
 H1959 H 0.24632 -0.03189 0.31809
 H1960 H 0.28729 -0.00294 0.31480
 H1961 H 0.26255 -0.04887 0.36529
 H1962 H 0.25441 -0.04112 0.34325
 C1963 C -0.03289 -0.03026 -0.11035
 C1964 C -0.02672 -0.04434 -0.11643
 C1965 C -0.03224 -0.05036 -0.13064
 C1966 C -0.04411 -0.04270 -0.13913
 C1967 C -0.04983 -0.02843 -0.13308
 C1968 C -0.04435 -0.02234 -0.11901
 C1969 C -0.02713 -0.02459 -0.09482
 C1970 C -0.03288 -0.01097 -0.08754
 C1971 C -0.02769 -0.00660 -0.07275
 C1972 C -0.01657 -0.01562 -0.06480
 C1973 C -0.01045 -0.02897 -0.07215
 C1974 C -0.01570 -0.03355 -0.08697
 C1975 C -0.01521 -0.05251 -0.10819
 C1976 C -0.00981 -0.04722 -0.09380
 H1977 H -0.01040 -0.06327 -0.11286
 H1978 H -0.00103 -0.05408 -0.08783
 H1979 H -0.02742 -0.06132 -0.13466
 H1980 H -0.05856 -0.02168 -0.13912
 H1981 H -0.03260 0.00380 -0.06743
 H1982 H -0.00189 -0.03611 -0.06617
 H1983 H -0.04934 -0.01144 -0.11511
 H1984 H -0.04156 -0.00363 -0.09292
 C1985 C -0.03495 0.46790 0.39167
 C1986 C -0.02955 0.45330 0.38608
 C1987 C -0.03494 0.44740 0.37176
 C1988 C -0.04590 0.45574 0.36271
 C1989 C -0.05099 0.47039 0.36839
 C1990 C -0.04562 0.47635 0.38253
 C1991 C -0.02915 0.47365 0.40715
 C1992 C -0.03403 0.48792 0.41383
 C1993 C -0.02861 0.49257 0.42844
 C1994 C -0.01812 0.48320 0.43681
 C1995 C -0.01303 0.46905 0.43017
 C1996 C -0.01850 0.46420 0.41551
 C1997 C -0.01892 0.44455 0.39490
 C1998 C -0.01352 0.44988 0.40928
 H1999 H -0.01476 0.43335 0.39066
 H2000 H -0.00538 0.44261 0.41568
 H2001 H -0.03081 0.43603 0.36805
 H2002 H -0.05898 0.47762 0.36188
 H2003 H -0.03275 0.50355 0.43323
 H2004 H -0.00502 0.46160 0.43654
 H2005 H -0.05003 0.48763 0.38606
 H2006 H -0.04212 0.49563 0.40806
 C2007 C 0.46649 -0.03458 0.39310
 C2008 C 0.45074 -0.03168 0.38926
 C2009 C 0.44452 -0.03743 0.37523
 C2010 C 0.45380 -0.04593 0.36474
 C2011 C 0.46953 -0.04839 0.36842
 C2012 C 0.47580 -0.04283 0.38237
 C2013 C 0.47252 -0.02877 0.40846
 C2014 C 0.48773 -0.03189 0.41381
 C2015 C 0.49265 -0.02660 0.42840
 C2016 C 0.48263 -0.01792 0.43798
 C2017 C 0.46752 -0.01460 0.43271
 C2018 C 0.46235 -0.02012 0.41818
 C2019 C 0.44126 -0.02312 0.39944
 C2020 C 0.44698 -0.01734 0.41352
 H2021 H 0.42921 -0.02082 0.39647
 H2022 H 0.43916 -0.01078 0.42099
 H2023 H 0.43233 -0.03549 0.37265
 H2024 H 0.47711 -0.05455 0.36044
 H2025 H 0.50435 -0.02937 0.43221
 H2026 H 0.45958 -0.00814 0.44014
 H2027 H 0.48797 -0.04509 0.38447
 H2028 H 0.49594 -0.03859 0.40705
 C2029 C 0.46732 0.46890 -0.11133
 C2030 C 0.47308 0.45456 -0.11722
 C2031 C 0.46747 0.44857 -0.13141
 C2032 C 0.45592 0.45654 -0.14004
 C2033 C 0.45059 0.47103 -0.13417
 C2034 C 0.45617 0.47708 -0.12013
 C2035 C 0.47315 0.47457 -0.09583
 C2036 C 0.46781 0.48848 -0.08878
 C2037 C 0.47301 0.49286 -0.07400
 C2038 C 0.48375 0.48358 -0.06584
 C2039 C 0.48949 0.46992 -0.07296
 C2040 C 0.48421 0.46533 -0.08778
 C2041 C 0.48424 0.44610 -0.10878
 C2042 C 0.48969 0.45138 -0.09440
 H2043 H 0.48873 0.43513 -0.11329
 H2044 H 0.49819 0.44430 -0.08827
 H2045 H 0.47190 0.43739 -0.13531
 H2046 H 0.44217 0.47802 -0.14037
 H2047 H 0.46841 0.50349 -0.06887
 H2048 H 0.49775 0.46259 -0.06680
 H2049 H 0.45150 0.48819 -0.11640
 H2050 H 0.45944 0.49605 -0.09433
 C2051 C 0.46731 0.78446 0.35711
 C2052 C 0.45177 0.78112 0.36141
 C2053 C 0.44586 0.78659 0.37568
 C2054 C 0.45526 0.79525 0.38595
 C2055 C 0.47077 0.79825 0.38176
 C2056 C 0.47672 0.79297 0.36757
 C2057 C 0.47303 0.77878 0.34158
 C2058 C 0.48803 0.78218 0.33585
 C2059 C 0.49269 0.77691 0.32118
 C2060 C 0.48261 0.76798 0.31186
 C2061 C 0.46769 0.76442 0.31751
 C2062 C 0.46279 0.76988 0.33215
 C2063 C 0.44219 0.77235 0.35148
 C2064 C 0.44762 0.76674 0.33723
 H2065 H 0.43030 0.76973 0.35479
 H2066 H 0.43976 0.75998 0.32999
 H2067 H 0.43384 0.78427 0.37864
 H2068 H 0.47843 0.80457 0.38954
 H2069 H 0.50424 0.77987 0.31710
 H2070 H 0.45970 0.75772 0.31034
 H2071 H 0.48873 0.79562 0.36509
 H2072 H 0.49629 0.78906 0.34240
 C2073 C -0.03161 0.78369 0.85844
 C2074 C -0.04589 0.77780 0.86413
 C2075 C -0.05183 0.78310 0.87846
 C2076 C -0.04383 0.79442 0.88745
 C2077 C -0.02949 0.80000 0.88166
 C2078 C -0.02351 0.79475 0.86748
 C2079 C -0.02584 0.77800 0.84293
 C2080 C -0.01191 0.78338 0.83613
 C2081 C -0.00727 0.77808 0.82148
 C2082 C -0.01630 0.76720 0.81318
 C2083 C -0.03008 0.76155 0.81997
 C2084 C -0.03492 0.76691 0.83468
 C2085 C -0.05426 0.76673 0.85543
 C2086 C -0.04889 0.76140 0.84104
 H2087 H -0.06519 0.76216 0.85978
 H2088 H -0.05586 0.75290 0.83475
 H2089 H -0.06292 0.77854 0.88224
 H2090 H -0.02252 0.80832 0.88806
 H2091 H 0.00343 0.78265 0.81659
 H2092 H -0.03724 0.75322 0.81368
 H2093 H -0.01249 0.79956 0.86387
 H2094 H -0.00448 0.79180 0.84181
 C2095 C 0.39195 0.78510 0.28246
 C2096 C 0.38748 0.78102 0.29780
 C2097 C 0.37333 0.78646 0.30394
 C2098 C 0.36332 0.79584 0.29496
 C2099 C 0.36763 0.79954 0.27963
 C2100 C 0.38172 0.79428 0.27345
 C2101 C 0.40738 0.77945 0.27652
 C2102 C 0.41328 0.78360 0.26177
 C2103 C 0.42785 0.77829 0.25690
 C2104 C 0.43688 0.76860 0.26651
 C2105 C 0.43106 0.76432 0.28119
 C2106 C 0.41654 0.76981 0.28631
 C2107 C 0.39716 0.77153 0.30694
 C2108 C 0.41130 0.76593 0.30127
 H2109 H 0.39372 0.76834 0.31867
 H2110 H 0.41833 0.75859 0.30879
 H2111 H 0.37028 0.78359 0.31583
 H2112 H 0.36004 0.80643 0.27228
 H2113 H 0.43206 0.78183 0.24554
 H2114 H 0.43802 0.75703 0.28884
 H2115 H 0.38430 0.79750 0.26158
 H2116 H 0.40696 0.79108 0.25388
 C2117 C -0.10705 0.78364 0.78477
 C2118 C -0.11101 0.79951 0.78208
 C2119 C -0.12520 0.80551 0.78761
 C2120 C -0.13572 0.79589 0.79571
 C2121 C -0.13187 0.78008 0.79802
 C2122 C -0.11778 0.77402 0.79267
 C2123 C -0.09160 0.77779 0.77906
 C2124 C -0.08620 0.76246 0.78189
 C2125 C -0.07163 0.75766 0.77655
 C2126 C -0.06209 0.76794 0.76811
 C2127 C -0.06738 0.78322 0.76517
 C2128 C -0.08191 0.78826 0.77072
 C2129 C -0.10081 0.80930 0.77389
 C2130 C -0.08663 0.80376 0.76822
 H2131 H -0.10385 0.82144 0.77178
 H2132 H -0.07918 0.81181 0.76193
 H2133 H -0.12790 0.81776 0.78581
 H2134 H -0.13986 0.77226 0.80389
 H2135 H -0.06781 0.74583 0.77903
 H2136 H -0.06000 0.79137 0.75890
 H2137 H -0.11558 0.76177 0.79478
 H2138 H -0.09294 0.75403 0.78836
 C2139 C 0.85877 0.28176 0.46614
 C2140 C 0.86299 0.29748 0.46929
 C2141 C 0.87698 0.30358 0.46345
 C2142 C 0.88708 0.29424 0.45455
 C2143 C 0.88303 0.27855 0.45177
 C2144 C 0.86910 0.27237 0.45745
 C2145 C 0.84342 0.27589 0.47208
 C2146 C 0.83772 0.26074 0.46883
 C2147 C 0.82307 0.25607 0.47410
 C2148 C 0.81378 0.26628 0.48289
 C2149 C 0.81949 0.28128 0.48645
 C2150 C 0.83406 0.28620 0.48097
 C2151 C 0.85318 0.30707 0.47818
 C2152 C 0.83909 0.30152 0.48398
 H2153 H 0.85644 0.31909 0.48066
 H2154 H 0.83189 0.30943 0.49075
 H2155 H 0.87982 0.31576 0.46559
 H2156 H 0.89071 0.27093 0.44525
 H2157 H 0.81893 0.24445 0.47114
 H2158 H 0.81233 0.28939 0.49303
 H2159 H 0.86669 0.26024 0.45492
 H2160 H 0.84424 0.25240 0.46201
 C2161 C 0.85992 0.78033 -0.03393
 C2162 C 0.86445 0.79591 -0.03049
 C2163 C 0.87871 0.80173 -0.03597
 C2164 C 0.88877 0.79224 -0.04477
 C2165 C 0.88438 0.77670 -0.04786
 C2166 C 0.87019 0.77081 -0.04255
 C2167 C 0.84434 0.77476 -0.02832
 C2168 C 0.83837 0.75977 -0.03180
 C2169 C 0.82357 0.75534 -0.02673
 C2170 C 0.81438 0.76564 -0.01793
 C2171 C 0.82032 0.78051 -0.01420
 C2172 C 0.83506 0.78519 -0.01945
 C2173 C 0.85470 0.80563 -0.02168
 C2174 C 0.84038 0.80035 -0.01619
 H2175 H 0.85820 0.81753 -0.01899
 H2176 H 0.83325 0.80835 -0.00946
 H2177 H 0.88180 0.81380 -0.03360
 H2178 H 0.89200 0.76899 -0.05434
 H2179 H 0.81927 0.74381 -0.02981
 H2180 H 0.81324 0.78868 -0.00760
 H2181 H 0.86752 0.75878 -0.04530
 H2182 H 0.84480 0.75137 -0.03861
 C2183 C -0.10919 -0.03146 -0.03342
 C2184 C -0.11470 -0.04612 -0.02809
 C2185 C -0.12885 -0.05219 -0.03372
 C2186 C -0.13776 -0.04400 -0.04490
 C2187 C -0.13217 -0.02930 -0.04993
 C2188 C -0.11822 -0.02315 -0.04430
 C2189 C -0.09384 -0.02559 -0.02745
 C2190 C -0.08725 -0.01125 -0.03223
 C2191 C -0.07260 -0.00665 -0.02689
 C2192 C -0.06413 -0.01611 -0.01657
 C2193 C -0.07079 -0.03021 -0.01138
 C2194 C -0.08547 -0.03504 -0.01679
 C2195 C -0.10595 -0.05478 -0.01733
 C2196 C -0.09165 -0.04937 -0.01183
 H2197 H -0.11014 -0.06601 -0.01321
 H2198 H -0.08526 -0.05662 -0.00366
 H2199 H -0.13249 -0.06358 -0.02963
 H2200 H -0.13859 -0.02217 -0.05808
 H2201 H -0.06781 0.00432 -0.03106
 H2202 H -0.06437 -0.03771 -0.00347
 H2203 H -0.11472 -0.01186 -0.04870
 H2204 H -0.09307 -0.00350 -0.04024
 C2205 C -0.10878 0.46915 0.46589
 C2206 C -0.11478 0.45499 0.47194
 C2207 C -0.12917 0.44918 0.46668
 C2208 C -0.13792 0.45720 0.45524
 C2209 C -0.13185 0.47145 0.44953
 C2210 C -0.11761 0.47730 0.45474
 C2211 C -0.09320 0.47475 0.47154
 C2212 C -0.08608 0.48854 0.46599
 C2213 C -0.07139 0.49303 0.47129
 C2214 C -0.06336 0.48397 0.48232
 C2215 C -0.07045 0.47033 0.48810
 C2216 C -0.08520 0.46564 0.48276
 C2217 C -0.10631 0.44658 0.48313
 C2218 C -0.09187 0.45180 0.48843
 H2219 H -0.11089 0.43573 0.48781
 H2220 H -0.08577 0.44481 0.49702
 H2221 H -0.13318 0.43816 0.47136
 H2222 H -0.13806 0.47846 0.44112
 H2223 H -0.06626 0.50361 0.46659
 H2224 H -0.06438 0.46314 0.49656
 H2225 H -0.11376 0.48826 0.44983
 H2226 H -0.09155 0.49597 0.45745
 C2227 C 0.39283 -0.03320 0.46445
 C2228 C 0.38672 -0.04730 0.47051
 C2229 C 0.37250 -0.05323 0.46493
 C2230 C 0.36400 -0.04538 0.45318
 C2231 C 0.37024 -0.03125 0.44736
 C2232 C 0.38433 -0.02529 0.45286
 C2233 C 0.40815 -0.02739 0.47058
 C2234 C 0.41531 -0.01359 0.46514
 C2235 C 0.42973 -0.00886 0.47096
 C2236 C 0.43743 -0.01769 0.48242
 C2237 C 0.43029 -0.03136 0.48806
 C2238 C 0.41581 -0.03627 0.48221
 C2239 C 0.39486 -0.05550 0.48208
 C2240 C 0.40907 -0.05011 0.48781
 H2241 H 0.39019 -0.06632 0.48676
 H2242 H 0.41491 -0.05693 0.49670
 H2243 H 0.36840 -0.06417 0.46971
 H2244 H 0.36429 -0.02443 0.43861
 H2245 H 0.43491 0.00172 0.46632
 H2246 H 0.43612 -0.03837 0.49683
 H2247 H 0.38832 -0.01443 0.44785
 H2248 H 0.41010 -0.00633 0.45630
 C2249 C 0.39013 0.46927 -0.03404
 C2250 C 0.38427 0.45494 -0.02825
 C2251 C 0.36994 0.44910 -0.03362
 C2252 C 0.36114 0.45722 -0.04494
 C2253 C 0.36707 0.47162 -0.05041
 C2254 C 0.38124 0.47753 -0.04507
 C2255 C 0.40569 0.47488 -0.02834
 C2256 C 0.41266 0.48886 -0.03360
 C2257 C 0.42744 0.49322 -0.02845
 C2258 C 0.43569 0.48385 -0.01785
 C2259 C 0.42866 0.47011 -0.01222
 C2260 C 0.41384 0.46554 -0.01743
 C2261 C 0.39284 0.44637 -0.01728
 C2262 C 0.40730 0.45154 -0.01200
 H2263 H 0.38836 0.43539 -0.01280
 H2264 H 0.41352 0.44439 -0.00363
 H2265 H 0.36605 0.43794 -0.02916
 H2266 H 0.36078 0.47868 -0.05872
 H2267 H 0.43250 0.50392 -0.03297
 H2268 H 0.43489 0.46269 -0.00408
 H2269 H 0.38500 0.48859 -0.04981
 H2270 H 0.40702 0.49651 -0.04184
 C2271 C 0.35827 0.46806 0.78330
 C2272 C 0.36238 0.45229 0.78026
 C2273 C 0.37660 0.44629 0.78570
 C2274 C 0.38705 0.45582 0.79402
 C2275 C 0.38310 0.47157 0.79661
 C2276 C 0.36894 0.47762 0.79137
 C2277 C 0.34272 0.47384 0.77779
 C2278 C 0.33712 0.48903 0.78104
 C2279 C 0.32240 0.49372 0.77595
 C2280 C 0.31293 0.48349 0.76736
 C2281 C 0.31844 0.46838 0.76397
 C2282 C 0.33310 0.46344 0.76926
 C2283 C 0.35227 0.44257 0.77185
 C2284 C 0.33802 0.44807 0.76634
 H2285 H 0.35543 0.43052 0.76944
 H2286 H 0.33063 0.44008 0.75987
 H2287 H 0.37937 0.43409 0.78366
 H2288 H 0.39102 0.47935 0.80263
 H2289 H 0.31842 0.50542 0.77878
 H2290 H 0.31112 0.46026 0.75756
 H2291 H 0.36664 0.48981 0.79372
 H2292 H 0.34380 0.49740 0.78766
 C2293 C 0.35681 -0.03335 0.28615
 C2294 C 0.36080 -0.04918 0.28324
 C2295 C 0.37491 -0.05527 0.28886
 C2296 C 0.38532 -0.04580 0.29728
 C2297 C 0.38146 -0.03002 0.29981
 C2298 C 0.36744 -0.02386 0.29436
 C2299 C 0.34142 -0.02743 0.28035
 C2300 C 0.33598 -0.01214 0.28337
 C2301 C 0.32143 -0.00729 0.27798
 C2302 C 0.31197 -0.01746 0.26932
 C2303 C 0.31731 -0.03269 0.26617
 C2304 C 0.33181 -0.03778 0.27176
 C2305 C 0.35069 -0.05885 0.27477
 C2306 C 0.33657 -0.05324 0.26904
 H2307 H 0.35375 -0.07095 0.27249
 H2308 H 0.32917 -0.06119 0.26254
 H2309 H 0.37762 -0.06750 0.28690
 H2310 H 0.38938 -0.02232 0.30594
 H2311 H 0.31757 0.00450 0.28063
 H2312 H 0.31000 -0.04076 0.25971
 H2313 H 0.36522 -0.01165 0.29665
 H2314 H 0.34266 -0.00379 0.29003
 C2315 C 0.13960 0.53166 0.71916
 C2316 C 0.13509 0.52815 0.70368
 C2317 C 0.12078 0.53356 0.69787
 C2318 C 0.11065 0.54234 0.70730
 C2319 C 0.11499 0.54541 0.72278
 C2320 C 0.12923 0.54019 0.72864
 C2321 C 0.15526 0.52621 0.72471
 C2322 C 0.16125 0.52992 0.73956
 C2323 C 0.17613 0.52503 0.74395
 C2324 C 0.18538 0.51619 0.73376
 C2325 C 0.17942 0.51222 0.71904
 C2326 C 0.16459 0.51732 0.71438
 C2327 C 0.14489 0.51931 0.69406
 C2328 C 0.15926 0.51390 0.69934
 H2329 H 0.14141 0.51653 0.68223
 H2330 H 0.16642 0.50713 0.69141
 H2331 H 0.11772 0.53116 0.68587
 H2332 H 0.10732 0.55179 0.73049
 H2333 H 0.18044 0.52829 0.75537
 H2334 H 0.18653 0.50559 0.71095
 H2335 H 0.13185 0.54293 0.74063
 H2336 H 0.15478 0.53680 0.74786
 C2337 C 0.13953 0.03112 0.21859
 C2338 C 0.13489 0.04666 0.22200
 C2339 C 0.12072 0.05246 0.21624
 C2340 C 0.11089 0.04298 0.20716
 C2341 C 0.11531 0.02742 0.20424
 C2342 C 0.12940 0.02155 0.20985
 C2343 C 0.15510 0.02564 0.22431
 C2344 C 0.16121 0.01074 0.22073
 C2345 C 0.17605 0.00643 0.22578
 C2346 C 0.18515 0.01676 0.23465
 C2347 C 0.17906 0.03152 0.23854
 C2348 C 0.16426 0.03608 0.23329
 C2349 C 0.14448 0.05638 0.23100
 C2350 C 0.15878 0.05117 0.23663
 H2351 H 0.14089 0.06825 0.23370
 H2352 H 0.16579 0.05918 0.24348
 H2353 H 0.11758 0.06453 0.21853
 H2354 H 0.10784 0.01969 0.19761
 H2355 H 0.18044 -0.00503 0.22261
 H2356 H 0.18605 0.03970 0.24522
 H2357 H 0.13211 0.00952 0.20717
 H2358 H 0.15488 0.00232 0.21383
 C2359 C 0.60856 0.71819 0.21536
 C2360 C 0.61290 0.70254 0.21863
 C2361 C 0.62692 0.69648 0.21279
 C2362 C 0.63693 0.70582 0.20378
 C2363 C 0.63276 0.72146 0.20089
 C2364 C 0.61880 0.72757 0.20656
 C2365 C 0.59320 0.72401 0.22131
 C2366 C 0.58740 0.73909 0.21796
 C2367 C 0.57273 0.74371 0.22323
 C2368 C 0.56352 0.73352 0.23212
 C2369 C 0.56932 0.71860 0.23580
 C2370 C 0.58393 0.71372 0.23032
 C2371 C 0.60320 0.69298 0.22765
 C2372 C 0.58909 0.69848 0.23347
 H2373 H 0.60656 0.68102 0.23024
 H2374 H 0.58198 0.69059 0.24034
 H2375 H 0.62986 0.68436 0.21504
 H2376 H 0.64036 0.72908 0.19431
 H2377 H 0.56854 0.75529 0.22022
 H2378 H 0.56223 0.71052 0.24249
 H2379 H 0.61629 0.73966 0.20393
 H2380 H 0.59384 0.74740 0.21106
 C2381 C 0.11062 0.71977 0.71796
 C2382 C 0.11547 0.70438 0.72169
 C2383 C 0.12983 0.69873 0.71628
 C2384 C 0.13966 0.70823 0.70724
 C2385 C 0.13499 0.72364 0.70394
 C2386 C 0.12070 0.72934 0.70919
 C2387 C 0.09490 0.72511 0.72341
 C2388 C 0.08861 0.73986 0.71955
 C2389 C 0.07370 0.74406 0.72445
 C2390 C 0.06469 0.73377 0.73345
 C2391 C 0.07095 0.71915 0.73757
 C2392 C 0.08583 0.71469 0.73248
 C2393 C 0.10593 0.69466 0.73073
 C2394 C 0.09149 0.69975 0.73610
 H2395 H 0.10968 0.68290 0.73367
 H2396 H 0.08455 0.69175 0.74302
 H2397 H 0.13316 0.68677 0.71885
 H2398 H 0.14243 0.73138 0.69732
 H2399 H 0.06917 0.75541 0.72109
 H2400 H 0.06404 0.71099 0.74434
 H2401 H 0.11781 0.74127 0.70625
 H2402 H 0.09487 0.74823 0.71255
 C2403 C 0.64046 0.21806 0.53036
 C2404 C 0.63602 0.22157 0.54585
 C2405 C 0.62170 0.21623 0.55168
 C2406 C 0.61150 0.20750 0.54225
 C2407 C 0.61576 0.20446 0.52675
 C2408 C 0.63000 0.20963 0.52087
 C2409 C 0.65612 0.22343 0.52479
 C2410 C 0.66203 0.21974 0.50992
 C2411 C 0.67685 0.22467 0.50544
 C2412 C 0.68616 0.23353 0.51559
 C2413 C 0.68034 0.23739 0.53039
 C2414 C 0.66554 0.23227 0.53511
 C2415 C 0.64592 0.23031 0.55548
 C2416 C 0.66030 0.23566 0.55019
 H2417 H 0.64250 0.23308 0.56732
 H2418 H 0.66753 0.24238 0.55811
 H2419 H 0.61868 0.21860 0.56369
 H2420 H 0.60802 0.19811 0.51906
 H2421 H 0.68106 0.22150 0.49397
 H2422 H 0.68750 0.24403 0.53844
 H2423 H 0.63256 0.20691 0.50887
 H2424 H 0.65550 0.21288 0.50162
 C2425 C 0.64237 0.71551 0.03219
 C2426 C 0.63823 0.71879 0.04781
 C2427 C 0.62415 0.71311 0.05392
 C2428 C 0.61393 0.70424 0.04465
 C2429 C 0.61793 0.70137 0.02905
 C2430 C 0.63191 0.70688 0.02289
 C2431 C 0.65775 0.72132 0.02627
 C2432 C 0.66332 0.71796 0.01119
 C2433 C 0.67790 0.72329 0.00637
 C2434 C 0.68728 0.73223 0.01638
 C2435 C 0.68177 0.73579 0.03138
 C2436 C 0.66723 0.73027 0.03643
 C2437 C 0.64817 0.72768 0.05728
 C2438 C 0.66230 0.73339 0.05167
 H2439 H 0.64498 0.73026 0.06922
 H2440 H 0.66957 0.74020 0.05948
 H2441 H 0.62132 0.71536 0.06601
 H2442 H 0.61016 0.69491 0.02148
 H2443 H 0.68187 0.72035 -0.00524
 H2444 H 0.68901 0.74249 0.03931
 H2445 H 0.63425 0.70428 0.01082
 H2446 H 0.65674 0.71106 0.00298
 C2447 C 0.10846 0.03334 0.03262
 C2448 C 0.11270 0.02973 0.04815
 C2449 C 0.12678 0.03536 0.05434
 C2450 C 0.13689 0.04451 0.04526
 C2451 C 0.13283 0.04767 0.02973
 C2452 C 0.11885 0.04220 0.02348
 C2453 C 0.09304 0.02764 0.02665
 C2454 C 0.08735 0.03135 0.01169
 C2455 C 0.07272 0.02614 0.00685
 C2456 C 0.06343 0.01697 0.01670
 C2457 C 0.06906 0.01306 0.03156
 C2458 C 0.08365 0.01846 0.03665
 C2459 C 0.10284 0.02062 0.05745
 C2460 C 0.08869 0.01500 0.05179
 H2461 H 0.10611 0.01778 0.06932
 H2462 H 0.08148 0.00802 0.05947
 H2463 H 0.12966 0.03288 0.06637
 H2464 H 0.14053 0.05435 0.02230
 H2465 H 0.06865 0.02937 -0.00466
 H2466 H 0.06190 0.00618 0.03939
 H2467 H 0.11644 0.04504 0.01148
 H2468 H 0.09387 0.03845 0.00362
 C2469 C 0.11053 0.52960 0.53118
 C2470 C 0.11515 0.54512 0.52765
 C2471 C 0.12945 0.55091 0.53310
 C2472 C 0.13947 0.54143 0.54196
 C2473 C 0.13505 0.52589 0.54501
 C2474 C 0.12081 0.52004 0.53973
 C2475 C 0.09483 0.52413 0.52576
 C2476 C 0.08870 0.50927 0.52951
 C2477 C 0.07377 0.50497 0.52468
 C2478 C 0.06460 0.51528 0.51586
 C2479 C 0.07071 0.52999 0.51185
 C2480 C 0.08558 0.53455 0.51688
 C2481 C 0.10544 0.55483 0.51879
 C2482 C 0.09104 0.54961 0.51341
 H2483 H 0.10901 0.56668 0.51599
 H2484 H 0.08394 0.55760 0.50664
 H2485 H 0.13257 0.56296 0.53071
 H2486 H 0.14264 0.51814 0.55146
 H2487 H 0.06935 0.49355 0.52796
 H2488 H 0.06367 0.53817 0.50523
 H2489 H 0.11811 0.50802 0.54248
 H2490 H 0.09511 0.50089 0.53637
 C2491 C 0.60984 0.03074 0.53347
 C2492 C 0.61399 0.04645 0.53018
 C2493 C 0.62815 0.05256 0.53564
 C2494 C 0.63851 0.04321 0.54425
 C2495 C 0.63453 0.02752 0.54712
 C2496 C 0.62042 0.02135 0.54184
 C2497 C 0.59432 0.02488 0.52794
 C2498 C 0.58864 0.00977 0.53141
 C2499 C 0.57388 0.00506 0.52639
 C2500 C 0.56449 0.01521 0.51764
 C2501 C 0.57013 0.03020 0.51396
 C2502 C 0.58479 0.03515 0.51919
 C2503 C 0.60397 0.05602 0.52152
 C2504 C 0.58976 0.05045 0.51603
 H2505 H 0.60718 0.06803 0.51894
 H2506 H 0.58242 0.05834 0.50939
 H2507 H 0.63093 0.06472 0.53341
 H2508 H 0.64239 0.01990 0.55340
 H2509 H 0.56978 -0.00654 0.52945
 H2510 H 0.56289 0.03827 0.50743
 H2511 H 0.61807 0.00922 0.54442
 H2512 H 0.59527 0.00149 0.53819
 C2513 C 0.60738 0.53262 0.03441
 C2514 C 0.61145 0.54839 0.03135
 C2515 C 0.62538 0.55462 0.03728
 C2516 C 0.63555 0.54533 0.04617
 C2517 C 0.63162 0.52960 0.04888
 C2518 C 0.61776 0.52332 0.04313
 C2519 C 0.59216 0.52658 0.02828
 C2520 C 0.58664 0.51133 0.03137
 C2521 C 0.57219 0.50641 0.02576
 C2522 C 0.56290 0.51647 0.01679
 C2523 C 0.56837 0.53162 0.01349
 C2524 C 0.58277 0.53677 0.01929
 C2525 C 0.60159 0.55789 0.02241
 C2526 C 0.58763 0.55217 0.01642
 H2527 H 0.60474 0.56994 0.02000
 H2528 H 0.58041 0.56000 0.00958
 H2529 H 0.62815 0.56681 0.03516
 H2530 H 0.63934 0.52202 0.05537
 H2531 H 0.56825 0.49468 0.02852
 H2532 H 0.56119 0.53960 0.00677
 H2533 H 0.61545 0.51116 0.04560
 H2534 H 0.59318 0.50308 0.03827
 C2535 C 0.03641 0.03254 0.10722
 C2536 C 0.03070 0.04699 0.11290
 C2537 C 0.03598 0.05292 0.12725
 C2538 C 0.04707 0.04474 0.13629
 C2539 C 0.05258 0.03031 0.13045
 C2540 C 0.04737 0.02434 0.11624
 C2541 C 0.03054 0.02667 0.09181
 C2542 C 0.03565 0.01252 0.08505
 C2543 C 0.03002 0.00768 0.07057
 C2544 C 0.01907 0.01673 0.06244
 C2545 C 0.01381 0.03079 0.06913
 C2546 C 0.01949 0.03583 0.08365
 C2547 C 0.01978 0.05550 0.10422
 C2548 C 0.01429 0.05004 0.08992
 H2549 H 0.01539 0.06659 0.10853
 H2550 H 0.00587 0.05710 0.08366
 H2551 H 0.03154 0.06413 0.13103
 H2552 H 0.06079 0.02324 0.13685
 H2553 H 0.03434 -0.00319 0.06570
 H2554 H 0.00547 0.03801 0.06294
 H2555 H 0.05207 0.01322 0.11260
 H2556 H 0.04408 0.00505 0.09064
 C2557 C 0.03222 0.52969 0.61034
 C2558 C 0.02899 0.54530 0.61488
 C2559 C 0.03416 0.55094 0.62936
 C2560 C 0.04246 0.54122 0.63963
 C2561 C 0.04530 0.52563 0.63525
 C2562 C 0.04028 0.51992 0.62084
 C2563 C 0.02697 0.52432 0.59453
 C2564 C 0.03035 0.50932 0.58852
 C2565 C 0.02556 0.50505 0.57354
 C2566 C 0.01712 0.51554 0.56423
 C2567 C 0.01358 0.53046 0.57016
 C2568 C 0.01857 0.53497 0.58508
 C2569 C 0.02068 0.55526 0.60492
 C2570 C 0.01548 0.55016 0.59040
 H2571 H 0.01814 0.56719 0.60842
 H2572 H 0.00911 0.55833 0.58313
 H2573 H 0.03199 0.56304 0.63245
 H2574 H 0.05136 0.51774 0.64302
 H2575 H 0.02849 0.49349 0.56924
 H2576 H 0.00728 0.53878 0.56299
 H2577 H 0.04281 0.50784 0.61818
 H2578 H 0.03687 0.50077 0.59508
 C2579 C 0.53247 0.02818 0.61171
 C2580 C 0.52618 0.04216 0.61788
 C2581 C 0.53134 0.04791 0.63234
 C2582 C 0.54297 0.04006 0.64100
 C2583 C 0.54886 0.02593 0.63481
 C2584 C 0.54373 0.02011 0.62049
 C2585 C 0.52703 0.02276 0.59597
 C2586 C 0.53285 0.00920 0.58862
 C2587 C 0.52789 0.00501 0.57370
 C2588 C 0.51693 0.01416 0.56566
 C2589 C 0.51079 0.02749 0.57304
 C2590 C 0.51579 0.03187 0.58801
 C2591 C 0.51489 0.05050 0.60950
 C2592 C 0.50981 0.04546 0.59491
 H2593 H 0.51000 0.06120 0.61423
 H2594 H 0.50117 0.05243 0.58885
 H2595 H 0.52644 0.05880 0.63644
 H2596 H 0.55742 0.01905 0.64096
 H2597 H 0.53283 -0.00536 0.56837
 H2598 H 0.50234 0.03471 0.56701
 H2599 H 0.54881 0.00928 0.61652
 H2600 H 0.54139 0.00176 0.59408
 C2601 C 0.53472 0.53184 0.10683
 C2602 C 0.53115 0.54744 0.11118
 C2603 C 0.53675 0.55356 0.12531
 C2604 C 0.54579 0.54434 0.13541
 C2605 C 0.54898 0.52877 0.13121
 C2606 C 0.54356 0.52259 0.11715
 C2607 C 0.52894 0.52592 0.09140
 C2608 C 0.53256 0.51090 0.08559
 C2609 C 0.52720 0.50609 0.07098
 C2610 C 0.51796 0.51604 0.06183
 C2611 C 0.51417 0.53096 0.06759
 C2612 C 0.51972 0.53602 0.08213
 C2613 C 0.52204 0.55685 0.10141
 C2614 C 0.51633 0.55122 0.08727
 H2615 H 0.51924 0.56877 0.10476
 H2616 H 0.50930 0.55896 0.08016
 H2617 H 0.53428 0.56564 0.12827
 H2618 H 0.55559 0.52123 0.13887
 H2619 H 0.53035 0.49453 0.06682
 H2620 H 0.50723 0.53886 0.06056
 H2621 H 0.54638 0.51054 0.11464
 H2622 H 0.53969 0.50276 0.09200
 C2623 C 0.21702 0.53057 0.64001
 C2624 C 0.22031 0.54615 0.63544
 C2625 C 0.21481 0.55187 0.62112
 C2626 C 0.20618 0.54224 0.61102
 C2627 C 0.20329 0.52668 0.61543
 C2628 C 0.20859 0.52090 0.62970
 C2629 C 0.22262 0.52511 0.65566
 C2630 C 0.21918 0.51015 0.66171
 C2631 C 0.22423 0.50584 0.67657
 C2632 C 0.23297 0.51622 0.68574
 C2633 C 0.23666 0.53106 0.67972
 C2634 C 0.23140 0.53563 0.66492
 C2635 C 0.22904 0.55597 0.64518
 C2636 C 0.23458 0.55078 0.65954
 H2637 H 0.23164 0.56787 0.64165
 H2638 H 0.24126 0.55885 0.66664
 H2639 H 0.21706 0.56395 0.61802
 H2640 H 0.19700 0.51883 0.60779
 H2641 H 0.22118 0.49433 0.68093
 H2642 H 0.24321 0.53929 0.68678
 H2643 H 0.20600 0.50884 0.63238
 H2644 H 0.21239 0.50170 0.65530
 C2645 C 0.21797 0.03183 0.14118
 C2646 C 0.20249 0.02827 0.13677
 C2647 C 0.19640 0.03409 0.12273
 C2648 C 0.20554 0.04338 0.11278
 C2649 C 0.22103 0.04646 0.11698
 C2650 C 0.22718 0.04080 0.13095
 C2651 C 0.22375 0.02603 0.15665
 C2652 C 0.23860 0.02976 0.16258
 C2653 C 0.24316 0.02469 0.17736
 C2654 C 0.23313 0.01563 0.18658
 C2655 C 0.21845 0.01156 0.18063
 C2656 C 0.21363 0.01684 0.16591
 C2657 C 0.19311 0.01904 0.14645
 C2658 C 0.19860 0.01334 0.16064
 H2659 H 0.18129 0.01622 0.14303
 H2660 H 0.19084 0.00633 0.16773
 H2661 H 0.18439 0.03167 0.11978
 H2662 H 0.22851 0.05324 0.10942
 H2663 H 0.25455 0.02803 0.18165
 H2664 H 0.21049 0.00474 0.18771
 H2665 H 0.23915 0.04360 0.13350
 H2666 H 0.24677 0.03683 0.15615
 C2667 C 0.71531 0.21843 0.60741
 C2668 C 0.71852 0.20278 0.61180
 C2669 C 0.71322 0.19700 0.62617
 C2670 C 0.70482 0.20663 0.63645
 C2671 C 0.70197 0.22224 0.63219
 C2672 C 0.70711 0.22808 0.61790
 C2673 C 0.72079 0.22400 0.59177
 C2674 C 0.71749 0.23909 0.58596
 C2675 C 0.72266 0.24363 0.57122
 C2676 C 0.73137 0.23335 0.56193
 C2677 C 0.73475 0.21831 0.56762
 C2678 C 0.72940 0.21352 0.58232
 C2679 C 0.72697 0.19295 0.60183
 C2680 C 0.73240 0.19825 0.58747
 H2681 H 0.72948 0.18098 0.60520
 H2682 H 0.73891 0.19019 0.58020
 H2683 H 0.71541 0.18489 0.62919
 H2684 H 0.69584 0.23006 0.63998
 H2685 H 0.71982 0.25528 0.56710
 H2686 H 0.74125 0.21014 0.56045
 H2687 H 0.70458 0.24018 0.61537
 H2688 H 0.71080 0.24751 0.59249
 C2689 C 0.71566 0.71749 0.10695
 C2690 C 0.71906 0.70190 0.11140
 C2691 C 0.71342 0.69596 0.12557
 C2692 C 0.70453 0.70539 0.13563
 C2693 C 0.70156 0.72097 0.13134
 C2694 C 0.70700 0.72695 0.11723
 C2695 C 0.72143 0.72321 0.09147
 C2696 C 0.71787 0.73819 0.08556
 C2697 C 0.72323 0.74285 0.07093
 C2698 C 0.73240 0.73278 0.06184
 C2699 C 0.73612 0.71788 0.06767
 C2700 C 0.73056 0.71297 0.08226
 C2701 C 0.72806 0.69231 0.10168
 C2702 C 0.73382 0.69778 0.08751
 H2703 H 0.73075 0.68040 0.10511
 H2704 H 0.74077 0.68992 0.08045
 H2705 H 0.71576 0.68388 0.12861
 H2706 H 0.69509 0.72867 0.13897
 H2707 H 0.72012 0.75439 0.06671
 H2708 H 0.74300 0.70989 0.06067
 H2709 H 0.70434 0.73902 0.11467
 H2710 H 0.71078 0.74643 0.09191
 C2711 C 0.53278 0.71859 0.13945
 C2712 C 0.52987 0.70279 0.13534
 C2713 C 0.53573 0.69668 0.12134
 C2714 C 0.54443 0.70609 0.11112
 C2715 C 0.54695 0.72186 0.11505
 C2716 C 0.54124 0.72804 0.12899
 C2717 C 0.52685 0.72446 0.15482
 C2718 C 0.52988 0.73970 0.16042
 C2719 C 0.52463 0.74438 0.17511
 C2720 C 0.51608 0.73408 0.18452
 C2721 C 0.51273 0.71899 0.17892
 C2722 C 0.51820 0.71406 0.16432
 C2723 C 0.52121 0.69312 0.14528
 C2724 C 0.51541 0.69867 0.15939
 H2725 H 0.51892 0.68105 0.14210
 H2726 H 0.50883 0.69070 0.16668
 H2727 H 0.53379 0.68445 0.11860
 H2728 H 0.55331 0.72951 0.10728
 H2729 H 0.52740 0.75608 0.17916
 H2730 H 0.50633 0.71083 0.18618
 H2731 H 0.54358 0.74023 0.13131
 H2732 H 0.53651 0.74810 0.15381
 C2733 C 0.03172 0.71859 0.63975
 C2734 C 0.04727 0.72193 0.63544
 C2735 C 0.05322 0.71636 0.62125
 C2736 C 0.04386 0.70761 0.61100
 C2737 C 0.02830 0.70478 0.61510
 C2738 C 0.02230 0.71014 0.62925
 C2739 C 0.02606 0.72411 0.65536
 C2740 C 0.01117 0.72047 0.66122
 C2741 C 0.00668 0.72539 0.67608
 C2742 C 0.01682 0.73421 0.68542
 C2743 C 0.03158 0.73812 0.67959
 C2744 C 0.03633 0.73297 0.66480
 C2745 C 0.05683 0.73074 0.64535
 C2746 C 0.05143 0.73627 0.65964
 H2747 H 0.06870 0.73340 0.64202
 H2748 H 0.05931 0.74301 0.66689
 H2749 H 0.06528 0.71860 0.61839
 H2750 H 0.02064 0.69844 0.60733
 H2751 H -0.00476 0.72217 0.68030
 H2752 H 0.03962 0.74472 0.68679
 H2753 H 0.01027 0.70757 0.63170
 H2754 H 0.00292 0.71360 0.65467
 C2755 C 0.53211 0.64044 0.21669
 C2756 C 0.52924 0.63630 0.20097
 C2757 C 0.53509 0.62218 0.19493
 C2758 C 0.54375 0.61191 0.20434
 C2759 C 0.54620 0.61587 0.22003
 C2760 C 0.54049 0.62990 0.22614
 C2761 C 0.52624 0.65594 0.22248
 C2762 C 0.52929 0.66158 0.23763
 C2763 C 0.52411 0.67637 0.24226
 C2764 C 0.51560 0.68588 0.23201
 C2765 C 0.51224 0.68025 0.21700
 C2766 C 0.51765 0.66552 0.21212
 C2767 C 0.52064 0.64632 0.19132
 C2768 C 0.51487 0.66055 0.19681
 H2769 H 0.51836 0.64312 0.17931
 H2770 H 0.50834 0.66790 0.18885
 H2771 H 0.53318 0.61941 0.18277
 H2772 H 0.55251 0.60805 0.22768
 H2773 H 0.52690 0.68043 0.25389
 H2774 H 0.50588 0.68758 0.20888
 H2775 H 0.54278 0.63223 0.23827
 H2776 H 0.53589 0.65491 0.24600
 C2777 C 0.03143 0.63903 0.71905
 C2778 C 0.02800 0.63440 0.70358
 C2779 C 0.03339 0.61996 0.69788
 C2780 C 0.04210 0.60983 0.70740
 C2781 C 0.04505 0.61427 0.72287
 C2782 C 0.03983 0.62864 0.72863
 C2783 C 0.02607 0.65486 0.72446
 C2784 C 0.02970 0.66095 0.73929
 C2785 C 0.02493 0.67599 0.74357
 C2786 C 0.01628 0.68531 0.73327
 C2787 C 0.01237 0.67925 0.71856
 C2788 C 0.01735 0.66425 0.71403
 C2789 C 0.01931 0.64425 0.69385
 C2790 C 0.01399 0.65879 0.69901
 H2791 H 0.01659 0.64068 0.68204
 H2792 H 0.00735 0.66598 0.69100
 H2793 H 0.03108 0.61680 0.68588
 H2794 H 0.05139 0.60659 0.73064
 H2795 H 0.02812 0.68035 0.75499
 H2796 H 0.00587 0.68642 0.71040
 H2797 H 0.04250 0.63133 0.74061
 H2798 H 0.03643 0.65445 0.74768
 C2799 C 0.03450 0.10853 0.03249
 C2800 C 0.03157 0.11274 0.04817
 C2801 C 0.03701 0.12710 0.05404
 C2802 C 0.04529 0.13754 0.04447
 C2803 C 0.04783 0.13347 0.02884
 C2804 C 0.04253 0.11921 0.02290
 C2805 C 0.02893 0.09287 0.02681
 C2806 C 0.03198 0.08724 0.01167
 C2807 C 0.02682 0.07245 0.00704
 C2808 C 0.01834 0.06292 0.01728
 C2809 C 0.01515 0.06844 0.03236
 C2810 C 0.02052 0.08320 0.03724
 C2811 C 0.02328 0.10257 0.05793
 C2812 C 0.01777 0.08818 0.05255
 H2813 H 0.02098 0.10580 0.06993
 H2814 H 0.01141 0.08075 0.06056
 H2815 H 0.03505 0.13000 0.06617
 H2816 H 0.05384 0.14140 0.02107
 H2817 H 0.02947 0.06847 -0.00465
 H2818 H 0.00883 0.06108 0.04047
 H2819 H 0.04483 0.11683 0.01079
 H2820 H 0.03849 0.09395 0.00327
 C2821 C 0.03355 0.60992 0.53151
 C2822 C 0.03042 0.61431 0.54710
 C2823 C 0.03600 0.62862 0.55295
 C2824 C 0.04461 0.63885 0.54346
 C2825 C 0.04736 0.63461 0.52790
 C2826 C 0.04194 0.62037 0.52199
 C2827 C 0.02786 0.59428 0.52589
 C2828 C 0.03111 0.58842 0.51087
 C2829 C 0.02596 0.57357 0.50638
 C2830 C 0.01729 0.56423 0.51663
 C2831 C 0.01381 0.57004 0.53154
 C2832 C 0.01917 0.58483 0.53628
 C2833 C 0.02179 0.60438 0.55680
 C2834 C 0.01619 0.59002 0.55148
 H2835 H 0.01933 0.60777 0.56872
 H2836 H 0.00960 0.58276 0.55946
 H2837 H 0.03387 0.63161 0.56502
 H2838 H 0.05365 0.64237 0.52019
 H2839 H 0.02885 0.56936 0.49482
 H2840 H 0.00733 0.56284 0.53967
 H2841 H 0.04442 0.61784 0.50993
 H2842 H 0.03782 0.59497 0.50250
 C2843 C 0.53243 0.10931 0.53317
 C2844 C 0.54807 0.11353 0.53014
 C2845 C 0.55391 0.12795 0.53547
 C2846 C 0.54437 0.13844 0.54370
 C2847 C 0.52876 0.13437 0.54630
 C2848 C 0.52285 0.12004 0.54114
 C2849 C 0.52681 0.09357 0.52778
 C2850 C 0.51176 0.08786 0.53104
 C2851 C 0.50723 0.07293 0.52615
 C2852 C 0.51749 0.06336 0.51774
 C2853 C 0.53245 0.06900 0.51430
 C2854 C 0.53723 0.08387 0.51941
 C2855 C 0.55781 0.10334 0.52186
 C2856 C 0.55247 0.08889 0.51650
 H2857 H 0.56977 0.10659 0.51947
 H2858 H 0.56047 0.08143 0.51015
 H2859 H 0.56601 0.13083 0.53345
 H2860 H 0.52099 0.14234 0.55226
 H2861 H 0.49564 0.06886 0.52900
 H2862 H 0.54059 0.06160 0.50804
 H2863 H 0.51076 0.11765 0.54348
 H2864 H 0.50337 0.09460 0.53754
 C2865 C 0.53472 0.60754 0.03231
 C2866 C 0.53129 0.61195 0.04783
 C2867 C 0.53694 0.62618 0.05382
 C2868 C 0.54589 0.63630 0.04453
 C2869 C 0.54891 0.63204 0.02903
 C2870 C 0.54344 0.61790 0.02298
 C2871 C 0.52893 0.59201 0.02651
 C2872 C 0.53249 0.58615 0.01158
 C2873 C 0.52711 0.57148 0.00684
 C2874 C 0.51793 0.56228 0.01678
 C2875 C 0.51421 0.56805 0.03164
 C2876 C 0.51978 0.58270 0.03663
 C2877 C 0.52226 0.60214 0.05728
 C2878 C 0.51651 0.58790 0.05176
 H2879 H 0.51956 0.60554 0.06915
 H2880 H 0.50955 0.58077 0.05952
 H2881 H 0.53457 0.62922 0.06584
 H2882 H 0.55543 0.63973 0.02144
 H2883 H 0.53021 0.56732 -0.00467
 H2884 H 0.50732 0.56096 0.03952
 H2885 H 0.54613 0.61537 0.01098
 H2886 H 0.53958 0.59258 0.00343
 C2887 C 0.71509 0.14164 0.53177
 C2888 C 0.72063 0.13613 0.54628
 C2889 C 0.71550 0.12165 0.55216
 C2890 C 0.70466 0.11235 0.54391
 C2891 C 0.69942 0.11795 0.52935
 C2892 C 0.70453 0.13226 0.52340
 C2893 C 0.72063 0.15728 0.52604
 C2894 C 0.71559 0.16392 0.51187
 C2895 C 0.72085 0.17865 0.50719
 C2896 C 0.73135 0.18718 0.51643
 C2897 C 0.73656 0.18060 0.53050
 C2898 C 0.73125 0.16583 0.53538
 C2899 C 0.73117 0.14516 0.55494
 C2900 C 0.73637 0.15967 0.54961
 H2901 H 0.73544 0.14097 0.56607
 H2902 H 0.74446 0.16622 0.55679
 H2903 H 0.71975 0.11802 0.56345
 H2904 H 0.69151 0.11126 0.52220
 H2905 H 0.71661 0.18340 0.49628
 H2906 H 0.74457 0.18709 0.53784
 H2907 H 0.70003 0.13572 0.51220
 H2908 H 0.70750 0.15803 0.50426
 C2909 C 0.71568 0.64137 0.03227
 C2910 C 0.71891 0.63725 0.04791
 C2911 C 0.71317 0.62314 0.05408
 C2912 C 0.70434 0.61284 0.04485
 C2913 C 0.70156 0.61678 0.02921
 C2914 C 0.70711 0.63082 0.02299
 C2915 C 0.72150 0.65683 0.02632
 C2916 C 0.71809 0.66247 0.01126
 C2917 C 0.72342 0.67714 0.00643
 C2918 C 0.73242 0.68652 0.01638
 C2919 C 0.73603 0.68094 0.03134
 C2920 C 0.73049 0.66633 0.03643
 C2921 C 0.72781 0.64723 0.05733
 C2922 C 0.73360 0.66138 0.05167
 H2923 H 0.73037 0.64405 0.06928
 H2924 H 0.74045 0.66866 0.05942
 H2925 H 0.71536 0.62039 0.06619
 H2926 H 0.69512 0.60895 0.02167
 H2927 H 0.72043 0.68116 -0.00516
 H2928 H 0.74279 0.68817 0.03923
 H2929 H 0.70458 0.63312 0.01091
 H2930 H 0.71113 0.65588 0.00311
 C2931 C 0.21968 0.61143 0.71849
 C2932 C 0.20431 0.61618 0.72206
 C2933 C 0.19868 0.63065 0.71670
 C2934 C 0.20817 0.64070 0.70789
 C2935 C 0.22356 0.63615 0.70478
 C2936 C 0.22925 0.62175 0.70998
 C2937 C 0.22499 0.59557 0.72383
 C2938 C 0.23971 0.58934 0.72009
 C2939 C 0.24389 0.57429 0.72487
 C2940 C 0.23359 0.56507 0.73363
 C2941 C 0.21899 0.57125 0.73762
 C2942 C 0.21457 0.58628 0.73264
 C2943 C 0.19459 0.60642 0.73085
 C2944 C 0.19965 0.59186 0.73613
 H2945 H 0.18285 0.61010 0.73366
 H2946 H 0.19165 0.58474 0.74285
 H2947 H 0.18674 0.63387 0.71911
 H2948 H 0.23129 0.64377 0.69834
 H2949 H 0.25523 0.56982 0.72161
 H2950 H 0.21084 0.56419 0.74421
 H2951 H 0.24116 0.61895 0.70719
 H2952 H 0.24809 0.59577 0.71328
 C2953 C 0.21770 0.11041 0.21847
 C2954 C 0.22065 0.11450 0.20277
 C2955 C 0.21495 0.12867 0.19671
 C2956 C 0.20640 0.13906 0.20610
 C2957 C 0.20395 0.13517 0.22180
 C2958 C 0.20948 0.12108 0.22791
 C2959 C 0.22334 0.09483 0.22427
 C2960 C 0.22010 0.08920 0.23936
 C2961 C 0.22507 0.07434 0.24399
 C2962 C 0.23354 0.06474 0.23378
 C2963 C 0.23708 0.07035 0.21882
 C2964 C 0.23188 0.08516 0.21394
 C2965 C 0.22919 0.10439 0.19316
 C2966 C 0.23481 0.09011 0.19867
 H2967 H 0.23156 0.10756 0.18117
 H2968 H 0.24130 0.08270 0.19074
 H2969 H 0.21689 0.13139 0.18454
 H2970 H 0.19778 0.14308 0.22946
 H2971 H 0.22215 0.07030 0.25559
 H2972 H 0.24342 0.06296 0.21074
 H2973 H 0.20720 0.11881 0.24005
 H2974 H 0.21351 0.09593 0.24769
 C2975 C 0.71811 1.11077 0.71793
 C2976 C 0.72112 1.11490 0.70224
 C2977 C 0.71539 1.12905 0.69617
 C2978 C 0.70675 1.13937 0.70553
 C2979 C 0.70421 1.13545 0.72121
 C2980 C 0.70978 1.12138 0.72734
 C2981 C 0.72382 1.09523 0.72375
 C2982 C 0.72056 1.08958 0.73883
 C2983 C 0.72562 1.07475 0.74348
 C2984 C 0.73422 1.06525 0.73331
 C2985 C 0.73776 1.07088 0.71836
 C2986 C 0.73246 1.08562 0.71345
 C2987 C 0.72974 1.10484 0.69266
 C2988 C 0.73540 1.09058 0.69818
 H2989 H 0.73213 1.10802 0.68067
 H2990 H 0.74198 1.08321 0.69028
 H2991 H 0.71739 1.13181 0.68403
 H2992 H 0.69793 1.14331 0.72884
 H2993 H 0.72270 1.07067 0.75507
 H2994 H 0.74419 1.06353 0.71030
 H2995 H 0.70742 1.11908 0.73946
 H2996 H 0.71388 1.09626 0.74713
 C2997 C 0.71601 0.60925 0.21717
 C2998 C 0.71935 0.61344 0.20158
 C2999 C 0.71389 0.62771 0.19552
 C3000 C 0.70527 0.63811 0.20483
 C3001 C 0.70245 0.63411 0.22044
 C3002 C 0.70770 0.61991 0.22654
 C3003 C 0.72148 0.59362 0.22299
 C3004 C 0.71783 0.58788 0.23795
 C3005 C 0.72293 0.57310 0.24270
 C3006 C 0.73192 0.56372 0.23276
 C3007 C 0.73569 0.56936 0.21787
 C3008 C 0.73038 0.58408 0.21286
 C3009 C 0.72809 0.60339 0.19210
 C3010 C 0.73364 0.58911 0.19768
 H3011 H 0.73074 0.60663 0.18019
 H3012 H 0.74040 0.58178 0.18990
 H3013 H 0.71613 0.63052 0.18343
 H3014 H 0.69620 0.64201 0.22805
 H3015 H 0.71979 0.56902 0.25422
 H3016 H 0.74242 0.56212 0.20998
 H3017 H 0.70516 0.61756 0.23861
 H3018 H 0.71087 0.59447 0.24608
 C3019 C 0.53011 0.13845 0.71690
 C3020 C 0.54414 0.13249 0.72314
 C3021 C 0.54999 0.11799 0.71804
 C3022 C 0.54217 0.10906 0.70657
 C3023 C 0.52802 0.11506 0.70072
 C3024 C 0.52212 0.12942 0.70577
 C3025 C 0.52452 0.15421 0.72231
 C3026 C 0.51091 0.16135 0.71650
 C3027 C 0.50652 0.17628 0.72146
 C3028 C 0.51550 0.18453 0.73240
 C3029 C 0.52890 0.17737 0.73851
 C3030 C 0.53350 0.16240 0.73350
 C3031 C 0.55237 0.14112 0.73434
 C3032 C 0.54716 0.15572 0.73942
 H3033 H 0.56311 0.13657 0.73919
 H3034 H 0.55404 0.16196 0.74801
 H3035 H 0.56090 0.11404 0.72290
 H3036 H 0.52117 0.10873 0.69227
 H3037 H 0.49610 0.18145 0.71655
 H3038 H 0.53602 0.18359 0.74693
 H3039 H 0.51126 0.13322 0.70073
 H3040 H 0.50357 0.15572 0.70798
 C3041 C 1.03115 0.14035 0.21605
 C3042 C 1.04659 0.13587 0.21966
 C3043 C 1.05254 0.12159 0.21415
 C3044 C 1.04331 0.11148 0.20510
 C3045 C 1.02790 0.11582 0.20183
 C3046 C 1.02188 0.13002 0.20720
 C3047 C 1.02543 0.15596 0.22172
 C3048 C 1.01055 0.16187 0.21809
 C3049 C 1.00598 0.17671 0.22320
 C3050 C 1.01604 0.18599 0.23219
 C3051 C 1.03080 0.18010 0.23608
 C3052 C 1.03561 0.16532 0.23077
 C3053 C 1.05607 0.14570 0.22867
 C3054 C 1.05066 0.16005 0.23419
 H3055 H 1.06787 0.14224 0.23149
 H3056 H 1.05847 0.16724 0.24108
 H3057 H 1.06451 0.11853 0.21665
 H3058 H 1.02039 0.10815 0.19516
 H3059 H 0.99454 0.18097 0.22001
 H3060 H 1.03878 0.18725 0.24282
 H3061 H 1.00995 0.13264 0.20430
 H3062 H 1.00233 0.15537 0.21114
 C3063 C 0.21883 0.63957 0.53302
 C3064 C 0.20338 0.63505 0.52948
 C3065 C 0.19769 0.62047 0.53450
 C3066 C 0.20722 0.61010 0.54291
 C3067 C 0.22267 0.61446 0.54597
 C3068 C 0.22842 0.62896 0.54113
 C3069 C 0.22428 0.65547 0.52795
 C3070 C 0.23909 0.66148 0.53175
 C3071 C 0.24354 0.67644 0.52692
 C3072 C 0.23344 0.68577 0.51805
 C3073 C 0.21866 0.67990 0.51421
 C3074 C 0.21396 0.66498 0.51923
 C3075 C 0.19369 0.64509 0.52097
 C3076 C 0.19891 0.65966 0.51582
 H3077 H 0.18188 0.64161 0.51818
 H3078 H 0.19098 0.66696 0.50922
 H3079 H 0.18570 0.61737 0.53211
 H3080 H 0.23044 0.60660 0.55208
 H3081 H 0.25499 0.68068 0.53010
 H3082 H 0.21064 0.68709 0.50757
 H3083 H 0.24039 0.63156 0.54383
 H3084 H 0.24735 0.65493 0.53859
 C3085 C 0.21469 0.14262 1.03472
 C3086 C 0.21751 0.13861 1.05048
 C3087 C 0.21176 0.12445 1.05654
 C3088 C 0.20328 0.11404 1.04710
 C3089 C 0.20080 0.11794 1.03141
 C3090 C 0.20639 0.13199 1.02529
 C3091 C 0.22067 0.15801 1.02880
 C3092 C 0.21780 0.16342 1.01355
 C3093 C 0.22336 0.17797 1.00867
 C3094 C 0.23204 0.18748 1.01877
 C3095 C 0.23507 0.18218 1.03396
 C3096 C 0.22931 0.16765 1.03908
 C3097 C 0.22604 0.14874 1.06009
 C3098 C 0.23190 0.16289 1.05448
 H3099 H 0.22825 0.14567 1.07214
 H3100 H 0.23844 0.17031 1.06239
 H3101 H 0.21369 0.12168 1.06870
 H3102 H 0.19464 0.11002 1.02373
 H3103 H 0.22080 0.18179 0.99691
 H3104 H 0.24154 0.18954 1.04197
 H3105 H 0.20413 0.13422 1.01314
 H3106 H 0.21114 0.15672 1.00524
 C3107 C 0.21677 0.71845 0.60890
 C3108 C 0.22006 0.70288 0.61353
 C3109 C 0.21462 0.69724 0.62790
 C3110 C 0.20604 0.70692 0.63797
 C3111 C 0.20311 0.72246 0.63347
 C3112 C 0.20836 0.72816 0.61917
 C3113 C 0.22240 0.72388 0.59325
 C3114 C 0.21904 0.73886 0.58721
 C3115 C 0.22426 0.74323 0.57244
 C3116 C 0.23309 0.73286 0.56334
 C3117 C 0.23660 0.71796 0.56929
 C3118 C 0.23119 0.71335 0.58403
 C3119 C 0.22874 0.69303 0.60380
 C3120 C 0.23429 0.69818 0.58943
 H3121 H 0.23132 0.68113 0.60736
 H3122 H 0.24097 0.69010 0.58235
 H3123 H 0.21689 0.68518 0.63109
 H3124 H 0.19685 0.73034 0.64109
 H3125 H 0.22136 0.75479 0.56813
 H3126 H 0.24321 0.70975 0.56228
 H3127 H 0.20576 0.74020 0.61645
 H3128 H 0.21224 0.74732 0.59358
 C3129 C 0.21483 0.21829 1.10844
 C3130 C 0.22046 0.20382 1.11413
 C3131 C 0.21511 0.19790 1.12845
 C3132 C 0.20397 0.20609 1.13740
 C3133 C 0.19860 0.22058 1.13160
 C3134 C 0.20392 0.22656 1.11746
 C3135 C 0.22065 0.22408 1.09300
 C3136 C 0.21560 0.23824 1.08623
 C3137 C 0.22109 0.24294 1.07167
 C3138 C 0.23183 0.23373 1.06345
 C3139 C 0.23709 0.21969 1.07018
 C3140 C 0.23155 0.21479 1.08478
 C3141 C 0.23130 0.19522 1.10543
 C3142 C 0.23672 0.20058 1.09108
 H3143 H 0.23563 0.18411 1.10975
 H3144 H 0.24504 0.19344 1.08479
 H3145 H 0.21944 0.18665 1.13223
 H3146 H 0.19042 0.22769 1.13802
 H3147 H 0.21681 0.25383 1.06680
 H3148 H 0.24530 0.21237 1.06393
 H3149 H 0.19930 0.23772 1.11383
 H3150 H 0.20732 0.24583 1.09190
 C3151 C 0.71495 0.53294 0.14235
 C3152 C 0.71834 0.54857 0.13802
 C3153 C 0.71263 0.55464 0.12391
 C3154 C 0.70366 0.54531 0.11382
 C3155 C 0.70071 0.52968 0.11799
 C3156 C 0.70623 0.52357 0.13202
 C3157 C 0.72079 0.52710 0.15777
 C3158 C 0.71728 0.51205 0.16358
 C3159 C 0.72264 0.50732 0.17819
 C3160 C 0.73177 0.51737 0.18736
 C3161 C 0.73547 0.53231 0.18161
 C3162 C 0.72990 0.53730 0.16705
 C3163 C 0.72736 0.55809 0.14779
 C3164 C 0.73314 0.55253 0.16192
 H3165 H 0.73003 0.57004 0.14445
 H3166 H 0.74009 0.56035 0.16903
 H3167 H 0.71495 0.56675 0.12097
 H3168 H 0.69417 0.52206 0.11032
 H3169 H 0.71958 0.49574 0.18235
 H3170 H 0.74232 0.54028 0.18867
 H3171 H 0.70358 0.51148 0.13449
 H3172 H 0.71023 0.50383 0.15715
 C3173 C 0.71766 1.03242 0.64055
 C3174 C 0.72044 1.04824 0.63644
 C3175 C 0.71479 1.05419 0.62227
 C3176 C 0.70647 1.04457 0.61190
 C3177 C 0.70417 1.02877 0.61582
 C3178 C 0.70965 1.02276 0.62991
 C3179 C 0.72332 1.02670 0.65608
 C3180 C 0.72026 1.01149 0.66170
 C3181 C 0.72533 1.00690 0.67646
 C3182 C 0.73374 1.01727 0.68595
 C3183 C 0.73703 1.03238 0.68038
 C3184 C 0.73172 1.03722 0.66568
 C3185 C 0.72878 1.05805 0.64652
 C3186 C 0.73442 1.05262 0.66076
 H3187 H 0.73099 1.07014 0.64336
 H3188 H 0.74079 1.06070 0.66815
 H3189 H 0.71661 1.06642 0.61950
 H3190 H 0.69817 1.02094 0.60793
 H3191 H 0.72259 0.99520 0.68050
 H3192 H 0.74329 1.04060 0.68771
 H3193 H 0.70750 1.01053 0.63220
 H3194 H 0.71374 1.00302 0.65502
 C3195 C 0.53110 0.21860 0.63892
 C3196 C 0.54668 0.22195 0.63471
 C3197 C 0.55264 0.21658 0.62044
 C3198 C 0.54328 0.20797 0.61009
 C3199 C 0.52770 0.20514 0.61410
 C3200 C 0.52167 0.21035 0.62828
 C3201 C 0.52541 0.22388 0.65459
 C3202 C 0.51046 0.22023 0.66031
 C3203 C 0.50591 0.22495 0.67521
 C3204 C 0.51604 0.23357 0.68473
 C3205 C 0.53087 0.23745 0.67907
 C3206 C 0.53568 0.23251 0.66423
 C3207 C 0.55626 0.23052 0.64482
 C3208 C 0.55083 0.23581 0.65919
 H3209 H 0.56816 0.23317 0.64157
 H3210 H 0.55872 0.24236 0.66660
 H3211 H 0.56471 0.21881 0.61758
 H3212 H 0.52007 0.19889 0.60622
 H3213 H 0.49442 0.22176 0.67932
 H3214 H 0.53891 0.24390 0.68642
 H3215 H 0.50962 0.20778 0.63065
 H3216 H 0.50219 0.21353 0.65361
 C3217 C 1.03302 0.21975 0.13929
 C3218 C 1.02714 0.20545 0.13343
 C3219 C 1.03278 0.19932 0.11931
 C3220 C 1.04447 0.20713 0.11073
 C3221 C 1.04992 0.22159 0.11658
 C3222 C 1.04432 0.22777 0.13054
 C3223 C 1.02714 0.22557 0.15471
 C3224 C 1.03259 0.23946 0.16176
 C3225 C 1.02731 0.24397 0.17647
 C3226 C 1.01639 0.23484 0.18456
 C3227 C 1.01056 0.22122 0.17743
 C3228 C 1.01590 0.21650 0.16270
 C3229 C 1.01582 0.19717 0.14180
 C3230 C 1.01031 0.20258 0.15610
 H3231 H 1.01124 0.18622 0.13731
 H3232 H 1.00168 0.19564 0.16218
 H3233 H 1.02824 0.18818 0.11544
 H3234 H 1.05847 0.22846 0.11042
 H3235 H 1.03200 0.25455 0.18161
 H3236 H 1.00215 0.21400 0.18353
 H3237 H 1.04909 0.23884 0.13427
 H3238 H 1.04110 0.24690 0.15627
 C3239 C 0.60872 0.21685 0.71708
 C3240 C 0.61275 0.21982 0.70137
 C3241 C 0.62692 0.21430 0.69536
 C3242 C 0.63738 0.20595 0.70481
 C3243 C 0.63351 0.20341 0.72049
 C3244 C 0.61941 0.20874 0.72656
 C3245 C 0.59321 0.22244 0.72288
 C3246 C 0.58767 0.21923 0.73801
 C3247 C 0.57292 0.22426 0.74268
 C3248 C 0.56339 0.23277 0.73247
 C3249 C 0.56888 0.23620 0.71745
 C3250 C 0.58355 0.23094 0.71254
 C3251 C 0.60261 0.22824 0.69172
 C3252 C 0.58839 0.23380 0.69722
 H3253 H 0.60572 0.23060 0.67971
 H3254 H 0.58096 0.24025 0.68928
 H3255 H 0.62963 0.21629 0.68320
 H3256 H 0.64146 0.19736 0.72819
 H3257 H 0.56894 0.22140 0.75431
 H3258 H 0.56151 0.24254 0.70936
 H3259 H 0.61716 0.20643 0.73870
 H3260 H 0.59439 0.21264 0.74635
 C3261 C 1.10909 0.21874 0.21703
 C3262 C 1.11331 0.20300 0.22004
 C3263 C 1.12747 0.19705 0.21440
 C3264 C 1.13768 0.20657 0.20581
 C3265 C 1.13361 0.22228 0.20322
 C3266 C 1.11955 0.22831 0.20872
 C3267 C 1.09358 0.22446 0.22271
 C3268 C 1.08790 0.23963 0.21956
 C3269 C 1.07313 0.24419 0.22460
 C3270 C 1.06370 0.23384 0.23306
 C3271 C 1.06935 0.21880 0.23650
 C3272 C 1.08406 0.21399 0.23124
 C3273 C 1.10335 0.19325 0.22856
 C3274 C 1.08909 0.19866 0.23414
 H3275 H 1.10660 0.18122 0.23094
 H3276 H 1.08179 0.19062 0.24062
 H3277 H 1.13035 0.18487 0.21642
 H3278 H 1.14138 0.23002 0.19696
 H3279 H 1.06904 0.25585 0.22176
 H3280 H 1.06207 0.21060 0.24283
 H3281 H 1.11715 0.24046 0.20633
 H3282 H 1.09453 0.24808 0.21300
 C3283 C 0.14227 0.71793 0.53387
 C3284 C 0.13789 0.70220 0.53100
 C3285 C 0.12354 0.69654 0.53642
 C3286 C 0.11323 0.70635 0.54456
 C3287 C 0.11749 0.72203 0.54707
 C3288 C 0.13177 0.72776 0.54184
 C3289 C 0.15791 0.72339 0.52829
 C3290 C 0.16373 0.73853 0.53131
 C3291 C 0.17849 0.74294 0.52614
 C3292 C 0.18779 0.73245 0.51768
 C3293 C 0.18207 0.71738 0.51451
 C3294 C 0.16735 0.71272 0.51990
 C3295 C 0.14785 0.69221 0.52274
 C3296 C 0.16219 0.69739 0.51719
 H3297 H 0.14448 0.68018 0.52047
 H3298 H 0.16945 0.68920 0.51083
 H3299 H 0.12055 0.68437 0.53448
 H3300 H 0.10968 0.73000 0.55299
 H3301 H 0.18263 0.75463 0.52878
 H3302 H 0.18924 0.70908 0.50819
 H3303 H 0.13430 0.73992 0.54410
 H3304 H 0.15718 0.74710 0.53782
 C3305 C 0.14176 0.21813 1.03360
 C3306 C 0.13766 0.20231 1.03078
 C3307 C 0.12346 0.19637 1.03632
 C3308 C 0.11304 0.20599 1.04455
 C3309 C 0.11699 0.22177 1.04695
 C3310 C 0.13112 0.22777 1.04160
 C3311 C 0.15728 0.22385 1.02798
 C3312 C 0.16286 0.23909 1.03101
 C3313 C 0.17756 0.24373 1.02587
 C3314 C 0.18705 0.23338 1.01746
 C3315 C 0.18156 0.21822 1.01425
 C3316 C 0.16690 0.21335 1.01960
 C3317 C 0.14775 0.19250 1.02248
 C3318 C 0.16199 0.19793 1.01689
 H3319 H 0.14459 0.18041 1.02023
 H3320 H 0.16937 0.18986 1.01053
 H3321 H 0.12069 0.18414 1.03444
 H3322 H 0.10908 0.22960 1.05291
 H3323 H 0.18153 0.25548 1.02854
 H3324 H 0.18888 0.21003 1.00798
 H3325 H 0.13342 0.23999 1.04380
 H3326 H 0.15617 0.24755 1.03750
 C3327 C 0.64191 0.53319 0.21514
 C3328 C 0.63764 0.54891 0.21818
 C3329 C 0.62360 0.55492 0.21227
 C3330 C 0.61355 0.54545 0.20342
 C3331 C 0.61768 0.52977 0.20074
 C3332 C 0.63163 0.52371 0.20648
 C3333 C 0.65724 0.52738 0.22122
 C3334 C 0.66292 0.51220 0.21814
 C3335 C 0.67746 0.50749 0.22368
 C3336 C 0.68668 0.51771 0.23256
 C3337 C 0.68105 0.53280 0.23587
 C3338 C 0.66654 0.53774 0.23013
 C3339 C 0.64741 0.55857 0.22706
 C3340 C 0.66149 0.55308 0.23299
 H3341 H 0.64412 0.57059 0.22946
 H3342 H 0.66863 0.56103 0.23977
 H3343 H 0.62067 0.56708 0.21436
 H3344 H 0.61004 0.52206 0.19429
 H3345 H 0.68151 0.49580 0.22094
 H3346 H 0.68816 0.54089 0.24252
 H3347 H 0.63408 0.51156 0.20404
 H3348 H 0.65646 0.50383 0.21130
 C3349 C 0.64004 1.03203 0.71984
 C3350 C 0.63533 1.02820 0.70449
 C3351 C 0.62089 1.03335 0.69880
 C3352 C 0.61078 1.04218 0.70822
 C3353 C 0.61533 1.04559 0.72357
 C3354 C 0.62973 1.04063 0.72931
 C3355 C 0.65583 1.02680 0.72524
 C3356 C 0.66200 1.03076 0.73996
 C3357 C 0.67696 1.02600 0.74423
 C3358 C 0.68613 1.01705 0.73404
 C3359 C 0.68000 1.01287 0.71945
 C3360 C 0.66508 1.01781 0.71492
 C3361 C 0.64508 1.01930 0.69486
 C3362 C 0.65957 1.01411 0.70001
 H3363 H 0.64145 1.01629 0.68314
 H3364 H 0.66667 1.00727 0.69209
 H3365 H 0.61769 1.03070 0.68689
 H3366 H 0.60771 1.05206 0.73127
 H3367 H 0.68140 1.02942 0.75555
 H3368 H 0.68702 1.00614 0.71137
 H3369 H 0.63251 1.04363 0.74120
 H3370 H 0.65559 1.03771 0.74825
 C3371 C 0.85900 0.46911 0.28328
 C3372 C 0.86320 0.45338 0.28017
 C3373 C 0.87731 0.44735 0.28584
 C3374 C 0.88754 0.45680 0.29449
 C3375 C 0.88353 0.47251 0.29718
 C3376 C 0.86948 0.47860 0.29168
 C3377 C 0.84353 0.47490 0.27755
 C3378 C 0.83783 0.49004 0.28082
 C3379 C 0.82310 0.49466 0.27570
 C3380 C 0.81374 0.48439 0.26704
 C3381 C 0.81942 0.46937 0.26351
 C3382 C 0.83407 0.46451 0.26885
 C3383 C 0.85326 0.44370 0.27151
 C3384 C 0.83907 0.44918 0.26587
 H3385 H 0.85650 0.43167 0.26907
 H3386 H 0.83179 0.44121 0.25925
 H3387 H 0.88013 0.43517 0.28375
 H3388 H 0.89130 0.48020 0.30349
 H3389 H 0.81898 0.50629 0.27862
 H3390 H 0.81219 0.46122 0.25704
 H3391 H 0.86710 0.49076 0.29413
 H3392 H 0.84442 0.49842 0.28754
 C3393 C 0.85853 0.96606 0.78238
 C3394 C 0.86303 0.96966 0.79784
 C3395 C 0.87720 0.96404 0.80378
 C3396 C 0.88720 0.95495 0.79451
 C3397 C 0.88283 0.95169 0.77908
 C3398 C 0.86873 0.95713 0.77308
 C3399 C 0.84308 0.97189 0.77665
 C3400 C 0.83716 0.96827 0.76175
 C3401 C 0.82255 0.97367 0.75710
 C3402 C 0.81347 0.98293 0.76709
 C3403 C 0.81932 0.98673 0.78190
 C3404 C 0.83390 0.98116 0.78679
 C3405 C 0.85337 0.97883 0.80731
 C3406 C 0.83918 0.98455 0.80186
 H3407 H 0.85683 0.98166 0.81912
 H3408 H 0.83214 0.99159 0.80966
 H3409 H 0.88028 0.96656 0.81576
 H3410 H 0.89041 0.94502 0.77151
 H3411 H 0.81832 0.97052 0.74562
 H3412 H 0.81233 0.99367 0.78983
 H3413 H 0.86610 0.95425 0.76114
 H3414 H 0.84351 0.96113 0.75357
 C3415 C 0.39168 0.28225 0.78407
 C3416 C 0.38760 0.29806 0.78125
 C3417 C 0.37349 0.30407 0.78694
 C3418 C 0.36312 0.29451 0.79529
 C3419 C 0.36705 0.27873 0.79771
 C3420 C 0.38110 0.27267 0.79222
 C3421 C 0.40709 0.27644 0.77823
 C3422 C 0.41263 0.26119 0.78119
 C3423 C 0.42721 0.25645 0.77578
 C3424 C 0.43659 0.26671 0.76715
 C3425 C 0.43114 0.28190 0.76404
 C3426 C 0.41661 0.28687 0.76965
 C3427 C 0.39762 0.30781 0.77279
 C3428 C 0.41174 0.30230 0.76700
 H3429 H 0.39447 0.31990 0.77056
 H3430 H 0.41906 0.31031 0.76050
 H3431 H 0.37075 0.31630 0.78505
 H3432 H 0.35918 0.27095 0.80377
 H3433 H 0.43115 0.24469 0.77840
 H3434 H 0.43839 0.29003 0.75761
 H3435 H 0.38339 0.26046 0.79444
 H3436 H 0.40603 0.25279 0.78784
 C3437 C 0.89022 0.28235 0.28021
 C3438 C 0.88574 0.27876 0.29568
 C3439 C 0.87134 0.28395 0.30146
 C3440 C 0.86111 0.29259 0.29201
 C3441 C 0.86540 0.29569 0.27654
 C3442 C 0.87972 0.29068 0.27070
 C3443 C 0.90596 0.27716 0.27471
 C3444 C 0.91191 0.28097 0.25988
 C3445 C 0.92679 0.27618 0.25544
 C3446 C 0.93610 0.26733 0.26557
 C3447 C 0.93025 0.26338 0.28033
 C3448 C 0.91541 0.26837 0.28502
 C3449 C 0.89568 0.27009 0.30532
 C3450 C 0.91012 0.26488 0.30005
 H3451 H 0.89223 0.26726 0.31713
 H3452 H 0.91737 0.25820 0.30798
 H3453 H 0.86830 0.28153 0.31345
 H3454 H 0.85764 0.30198 0.26883
 H3455 H 0.93101 0.27942 0.24400
 H3456 H 0.93743 0.25675 0.28837
 H3457 H 0.88230 0.29343 0.25872
 H3458 H 0.90537 0.28782 0.25160
 C3459 C 0.36048 0.77975 0.46689
 C3460 C 0.36504 0.79525 0.47056
 C3461 C 0.37911 0.80128 0.46483
 C3462 C 0.38900 0.79205 0.45557
 C3463 C 0.38463 0.77654 0.45230
 C3464 C 0.37059 0.77046 0.45784
 C3465 C 0.34502 0.77401 0.47271
 C3466 C 0.33895 0.75913 0.46895
 C3467 C 0.32422 0.75460 0.47417
 C3468 C 0.31522 0.76469 0.48340
 C3469 C 0.32130 0.77942 0.48745
 C3470 C 0.33595 0.78420 0.48204
 C3471 C 0.35551 0.80472 0.47985
 C3472 C 0.34135 0.79927 0.48558
 H3473 H 0.35904 0.81656 0.48275
 H3474 H 0.33438 0.80708 0.49269
 H3475 H 0.38215 0.81332 0.46736
 H3476 H 0.39212 0.76899 0.44550
 H3477 H 0.31981 0.74319 0.47083
 H3478 H 0.31439 0.78744 0.49439
 H3479 H 0.36791 0.75847 0.45492
 H3480 H 0.34523 0.75092 0.46177
 C3481 C 0.36016 0.28020 0.96795
 C3482 C 0.36473 0.29581 0.97112
 C3483 C 0.37888 0.30160 0.96530
 C3484 C 0.38878 0.29203 0.95640
 C3485 C 0.38438 0.27642 0.95364
 C3486 C 0.37030 0.27058 0.95929
 C3487 C 0.34463 0.27471 0.97381
 C3488 C 0.33858 0.25972 0.97051
 C3489 C 0.32378 0.25541 0.97568
 C3490 C 0.31466 0.26585 0.98441
 C3491 C 0.32072 0.28069 0.98805
 C3492 C 0.33548 0.28524 0.98267
 C3493 C 0.35514 0.30562 0.98001
 C3494 C 0.34089 0.30041 0.98576
 H3495 H 0.35868 0.31754 0.98253
 H3496 H 0.33387 0.30849 0.99251
 H3497 H 0.38196 0.31370 0.96745
 H3498 H 0.39189 0.26863 0.94714
 H3499 H 0.31940 0.24390 0.97268
 H3500 H 0.31373 0.28895 0.99461
 H3501 H 0.36761 0.25850 0.95676
 H3502 H 0.34493 0.25123 0.96372
 C3503 C 0.78196 0.47005 0.36045
 C3504 C 0.77853 0.45449 0.36503
 C3505 C 0.78424 0.44862 0.37921
 C3506 C 0.79326 0.45806 0.38915
 C3507 C 0.79624 0.47362 0.38477
 C3508 C 0.79070 0.47955 0.37065
 C3509 C 0.77623 0.47562 0.34488
 C3510 C 0.77981 0.49054 0.33882
 C3511 C 0.77474 0.49492 0.32398
 C3512 C 0.76584 0.48463 0.31484
 C3513 C 0.76195 0.46987 0.32091
 C3514 C 0.76723 0.46523 0.33569
 C3515 C 0.76952 0.44483 0.35539
 C3516 C 0.76389 0.45012 0.34110
 H3517 H 0.76681 0.43295 0.35892
 H3518 H 0.75702 0.44216 0.33406
 H3519 H 0.78191 0.43656 0.38230
 H3520 H 0.80281 0.48133 0.39231
 H3521 H 0.77792 0.50638 0.31959
 H3522 H 0.75525 0.46172 0.31389
 H3523 H 0.79341 0.49158 0.36798
 H3524 H 0.78673 0.49891 0.34519
 C3525 C 0.78444 0.96819 0.85841
 C3526 C 0.78105 0.95258 0.86281
 C3527 C 0.78652 0.94667 0.87708
 C3528 C 0.79522 0.95615 0.88727
 C3529 C 0.79816 0.97176 0.88304
 C3530 C 0.79288 0.97771 0.86884
 C3531 C 0.77887 0.97386 0.84283
 C3532 C 0.78244 0.98885 0.83696
 C3533 C 0.77727 0.99347 0.82224
 C3534 C 0.76827 0.98334 0.81302
 C3535 C 0.76457 0.96841 0.81879
 C3536 C 0.76994 0.96355 0.83347
 C3537 C 0.77226 0.94293 0.85295
 C3538 C 0.76671 0.94834 0.83867
 H3539 H 0.76960 0.93100 0.85634
 H3540 H 0.75994 0.94041 0.83148
 H3541 H 0.78422 0.93457 0.88007
 H3542 H 0.80448 0.97949 0.89076
 H3543 H 0.78035 1.00503 0.81807
 H3544 H 0.75785 0.96038 0.81167
 H3545 H 0.79551 0.98979 0.86632
 H3546 H 0.78939 0.99714 0.84342
 C3547 C 0.28193 0.78019 0.39004
 C3548 C 0.29750 0.77698 0.38572
 C3549 C 0.30350 0.78292 0.37170
 C3550 C 0.29420 0.79200 0.36171
 C3551 C 0.27861 0.79466 0.36579
 C3552 C 0.27254 0.78887 0.37972
 C3553 C 0.27624 0.77440 0.40553
 C3554 C 0.26131 0.77788 0.41138
 C3555 C 0.25685 0.77288 0.42621
 C3556 C 0.26706 0.76414 0.43554
 C3557 C 0.28181 0.76028 0.42966
 C3558 C 0.28654 0.76551 0.41489
 C3559 C 0.30705 0.76802 0.39549
 C3560 C 0.30165 0.76230 0.40969
 H3561 H 0.31894 0.76545 0.39213
 H3562 H 0.30954 0.75551 0.41687
 H3563 H 0.31558 0.78080 0.36881
 H3564 H 0.27101 0.80126 0.35817
 H3565 H 0.24540 0.77604 0.43044
 H3566 H 0.28990 0.75371 0.43684
 H3567 H 0.26049 0.79138 0.38218
 H3568 H 0.25301 0.78471 0.40487
 C3569 C 0.28215 0.28252 0.89083
 C3570 C 0.29775 0.27935 0.88661
 C3571 C 0.30378 0.28516 0.87255
 C3572 C 0.29446 0.29402 0.86238
 C3573 C 0.27887 0.29676 0.86642
 C3574 C 0.27279 0.29113 0.88042
 C3575 C 0.27639 0.27670 0.90628
 C3576 C 0.26137 0.28004 0.91199
 C3577 C 0.25680 0.27492 0.92674
 C3578 C 0.26696 0.26619 0.93613
 C3579 C 0.28182 0.26251 0.93041
 C3580 C 0.28666 0.26785 0.91572
 C3581 C 0.30730 0.27049 0.89647
 C3582 C 0.30183 0.26476 0.91065
 H3583 H 0.31922 0.26797 0.89320
 H3584 H 0.30971 0.25801 0.91788
 H3585 H 0.31587 0.28302 0.86973
 H3586 H 0.27127 0.30322 0.85870
 H3587 H 0.24527 0.27794 0.93086
 H3588 H 0.28988 0.25596 0.93764
 H3589 H 0.26073 0.29364 0.88282
 H3590 H 0.25308 0.28683 0.90543
 C3591 C 0.46725 0.28180 0.85798
 C3592 C 0.45167 0.27863 0.86228
 C3593 C 0.44585 0.28406 0.87661
 C3594 C 0.45539 0.29253 0.88692
 C3595 C 0.47096 0.29521 0.88279
 C3596 C 0.47683 0.28996 0.86856
 C3597 C 0.47284 0.27635 0.84233
 C3598 C 0.48782 0.27977 0.83656
 C3599 C 0.49235 0.27475 0.82177
 C3600 C 0.48216 0.26606 0.81235
 C3601 C 0.46725 0.26249 0.81802
 C3602 C 0.46247 0.26772 0.83279
 C3603 C 0.44197 0.27011 0.85225
 C3604 C 0.44730 0.26465 0.83789
 H3605 H 0.43006 0.26759 0.85556
 H3606 H 0.43932 0.25810 0.83057
 H3607 H 0.43379 0.28193 0.87955
 H3608 H 0.47874 0.30132 0.89063
 H3609 H 0.50390 0.27772 0.81768
 H3610 H 0.45917 0.25600 0.81075
 H3611 H 0.48889 0.29240 0.86612
 H3612 H 0.49615 0.28649 0.84317
 C3613 C 0.96473 0.28318 0.35686
 C3614 C 0.96809 0.29882 0.36120
 C3615 C 0.96247 0.30486 0.37535
 C3616 C 0.95368 0.29547 0.38552
 C3617 C 0.95080 0.27982 0.38135
 C3618 C 0.95619 0.27375 0.36725
 C3619 C 0.97046 0.27736 0.34140
 C3620 C 0.96684 0.26235 0.33554
 C3621 C 0.97219 0.25760 0.32092
 C3622 C 0.98139 0.26760 0.31180
 C3623 C 0.98514 0.28253 0.31758
 C3624 C 0.97958 0.28754 0.33213
 C3625 C 0.97706 0.30835 0.35141
 C3626 C 0.98284 0.30277 0.33729
 H3627 H 0.97974 0.32030 0.35476
 H3628 H 0.98979 0.31058 0.33018
 H3629 H 0.96477 0.31698 0.37829
 H3630 H 0.94444 0.27212 0.38907
 H3631 H 0.96906 0.24605 0.31673
 H3632 H 0.99204 0.29047 0.31055
 H3633 H 0.95361 0.26164 0.36479
 H3634 H 0.95972 0.25418 0.34192
 C3635 C 0.46575 0.35829 0.78151
 C3636 C 0.46907 0.36274 0.79705
 C3637 C 0.46357 0.37709 0.80290
 C3638 C 0.45488 0.38730 0.79344
 C3639 C 0.45196 0.38300 0.77793
 C3640 C 0.45728 0.36873 0.77203
 C3641 C 0.47137 0.34263 0.77588
 C3642 C 0.46793 0.33674 0.76093
 C3643 C 0.47311 0.32194 0.75637
 C3644 C 0.48197 0.31264 0.76650
 C3645 C 0.48559 0.31844 0.78139
 C3646 C 0.48022 0.33323 0.78619
 C3647 C 0.47782 0.35285 0.80668
 C3648 C 0.48338 0.33848 0.80133
 H3649 H 0.48044 0.35628 0.81856
 H3650 H 0.49010 0.33126 0.80925
 H3651 H 0.46584 0.38013 0.81493
 H3652 H 0.44563 0.39074 0.77022
 H3653 H 0.47011 0.31776 0.74483
 H3654 H 0.49223 0.31127 0.78942
 H3655 H 0.45467 0.36616 0.76001
 H3656 H 0.46108 0.34325 0.75263
 C3657 C 0.96563 0.35919 0.28203
 C3658 C 0.96884 0.36333 0.29768
 C3659 C 0.96339 0.37760 0.30375
 C3660 C 0.95491 0.38808 0.29439
 C3661 C 0.95222 0.38413 0.27873
 C3662 C 0.95745 0.36992 0.27263
 C3663 C 0.97110 0.34357 0.27619
 C3664 C 0.96757 0.33788 0.26117
 C3665 C 0.97265 0.32310 0.25640
 C3666 C 0.98152 0.31365 0.26640
 C3667 C 0.98517 0.31924 0.28135
 C3668 C 0.97987 0.33396 0.28637
 C3669 C 0.97746 0.35321 0.30720
 C3670 C 0.98301 0.33893 0.30161
 H3671 H 0.98002 0.35641 0.31915
 H3672 H 0.98969 0.33157 0.30941
 H3673 H 0.96554 0.38037 0.31587
 H3674 H 0.94611 0.39209 0.27108
 H3675 H 0.96962 0.31905 0.24482
 H3676 H 0.99181 0.31196 0.28928
 H3677 H 0.95502 0.36763 0.26052
 H3678 H 0.96071 0.34453 0.25299
 C3679 C 0.28446 0.85882 0.46795
 C3680 C 0.28080 0.86334 0.45252
 C3681 C 0.28641 0.87757 0.44653
 C3682 C 0.29556 0.88761 0.45573
 C3683 C 0.29882 0.88327 0.47116
 C3684 C 0.29338 0.86910 0.47721
 C3685 C 0.27875 0.84323 0.47368
 C3686 C 0.28249 0.83724 0.48852
 C3687 C 0.27734 0.82242 0.49309
 C3688 C 0.26821 0.81322 0.48308
 C3689 C 0.26421 0.81920 0.46837
 C3690 C 0.26954 0.83397 0.46355
 C3691 C 0.27163 0.85361 0.44309
 C3692 C 0.26602 0.83931 0.44853
 H3693 H 0.26874 0.85711 0.43130
 H3694 H 0.25900 0.83220 0.44076
 H3695 H 0.28388 0.88062 0.43455
 H3696 H 0.30553 0.89088 0.47868
 H3697 H 0.28062 0.81812 0.50450
 H3698 H 0.25733 0.81213 0.46042
 H3699 H 0.29629 0.86647 0.48914
 H3700 H 0.28958 0.84367 0.49669
 C3701 C 0.28239 0.36073 0.96888
 C3702 C 0.27885 0.36523 0.95341
 C3703 C 0.28429 0.37957 0.94753
 C3704 C 0.29313 0.38975 0.95688
 C3705 C 0.29621 0.38545 0.97237
 C3706 C 0.29096 0.37116 0.97830
 C3707 C 0.27694 0.34501 0.97448
 C3708 C 0.28065 0.33900 0.98932
 C3709 C 0.27574 0.32407 0.99378
 C3710 C 0.26685 0.31476 0.98364
 C3711 C 0.26290 0.32073 0.96891
 C3712 C 0.26801 0.33561 0.96421
 C3713 C 0.26998 0.35536 0.94384
 C3714 C 0.26457 0.34094 0.94917
 H3715 H 0.26719 0.35884 0.93202
 H3716 H 0.25778 0.33373 0.94129
 H3717 H 0.28188 0.38259 0.93552
 H3718 H 0.30266 0.39317 0.98000
 H3719 H 0.27898 0.31976 1.00519
 H3720 H 0.25623 0.31358 0.96087
 H3721 H 0.29372 0.36856 0.99027
 H3722 H 0.28756 0.34552 0.99759
 C3723 C 0.78175 0.39037 0.28273
 C3724 C 0.79739 0.38616 0.27972
 C3725 C 0.80327 0.37180 0.28512
 C3726 C 0.79375 0.36134 0.29340
 C3727 C 0.77814 0.36539 0.29601
 C3728 C 0.77220 0.37968 0.29079
 C3729 C 0.77609 0.40605 0.27725
 C3730 C 0.76103 0.41174 0.28048
 C3731 C 0.75647 0.42662 0.27549
 C3732 C 0.76670 0.43615 0.26702
 C3733 C 0.78167 0.43053 0.26359
 C3734 C 0.78648 0.41571 0.26880
 C3735 C 0.80711 0.39631 0.27137
 C3736 C 0.80173 0.41070 0.26591
 H3737 H 0.81907 0.39307 0.26899
 H3738 H 0.80971 0.41813 0.25951
 H3739 H 0.81537 0.36893 0.28309
 H3740 H 0.77039 0.35745 0.30202
 H3741 H 0.74487 0.43069 0.27834
 H3742 H 0.78979 0.43789 0.25728
 H3743 H 0.76011 0.38205 0.29314
 H3744 H 0.75266 0.40503 0.28703
   
