data_POSCAR
  _audit_creation_date              2014-09-24
  _audit_creation_method            'ToBaCCo'
  _symmetry_space_group_name_H-M    'P1'
  _symmetry_Int_Tables_number       1
  _symmetry_cell_setting            triclinic
  loop_
  _symmetry_equiv_pos_as_xyz
 x,y,z
_cell_length_a 73.8018
_cell_length_b 73.8469
_cell_length_c 73.7864
_cell_angle_alpha 90.017300
_cell_angle_beta 89.990300
_cell_angle_gamma 89.998200
loop_
  _atom_site_label
  _atom_site_type_symbol
  _atom_site_fract_x
  _atom_site_fract_y
  _atom_site_fract_z
N1 N 0.20888 0.20874 0.20879
 N2 N 0.70866 0.70860 0.70863
 N3 N 0.29093 0.79106 0.70927
 N4 N 0.79112 0.29117 0.20903
 N5 N 0.79093 0.70900 0.29081
 N6 N 0.29111 0.20888 -0.20895
 N7 N 0.70903 0.29107 -0.20890
 N8 N 0.20878 0.79136 0.29140
 N9 N 0.45891 0.45909 0.45906
 N10 N -0.04124 -0.04117 0.95885
 N11 N 1.04133 0.54141 0.95864
 N12 N 0.54120 0.04119 0.45893
 N13 N -0.04123 0.04102 0.54108
 N14 N 0.45873 0.54103 0.04115
 N15 N 0.54130 -0.04120 0.04117
 N16 N 1.04148 0.45861 0.54132
 C17 C 0.40277 0.00845 0.22566
 H18 H 0.40346 0.02075 0.23359
 C19 C 0.41460 0.00591 0.21111
 H20 H 0.42422 0.01647 0.20778
 C21 C 0.38924 -0.02017 0.22038
 H22 H 0.37959 -0.03045 0.22423
 C23 C 0.40081 -0.02327 0.20572
 H24 H 0.39990 -0.03596 0.19843
 N25 N 0.39027 -0.00441 0.22987
 C26 C 0.34733 0.02442 0.25849
 H27 H 0.34656 0.01645 0.27076
 C28 C 0.33553 0.03897 0.25593
 H29 H 0.32561 0.04205 0.26629
 C30 C 0.36086 0.02962 0.22983
 H31 H 0.37058 0.02581 0.21958
 C32 C 0.34930 0.04426 0.22670
 H33 H 0.35054 0.05180 0.21418
 Zn34 Zn 0.37503 -0.00000 0.25004
 N35 N 0.35982 0.02017 0.24562
 C36 C 0.38920 0.02017 0.27971
 N37 N 0.39023 0.00440 0.27024
 C38 C 0.40268 -0.00848 0.27450
 C39 C 0.41448 -0.00595 0.28907
 C40 C 0.40076 0.02328 0.29437
 C41 C 0.34734 -0.02440 0.24153
 C42 C 0.33551 -0.03893 0.24407
 C43 C 0.34924 -0.04427 0.27330
 C44 C 0.36080 -0.02962 0.27021
 N45 N 0.35980 -0.02016 0.25442
 H46 H 0.37950 0.03043 0.27589
 H47 H 0.40344 -0.02075 0.26652
 H48 H 0.42438 -0.01631 0.29215
 H49 H 0.39954 0.03580 0.30191
 H50 H 0.34666 -0.01649 0.22921
 H51 H 0.32591 -0.04228 0.23349
 H52 H 0.35013 -0.05153 0.28602
 H53 H 0.37044 -0.02576 0.28052
 C54 C 0.33645 0.04914 0.23988
 C55 C 0.41368 -0.01011 0.20089
 C56 C 0.33640 -0.04912 0.26011
 C57 C 0.41358 0.01010 0.29925
 C58 C 0.09732 -0.00843 0.72552
 H59 H 0.09657 -0.02070 0.73351
 C60 C 0.08552 -0.00592 0.71095
 H61 H 0.07561 -0.01629 0.70788
 C62 C 0.11078 0.02022 0.72029
 H63 H 0.12048 0.03048 0.72410
 C64 C 0.09923 0.02331 0.70563
 H65 H 0.10044 0.03581 0.69808
 N66 N 0.10977 0.00445 0.72977
 C67 C 0.15268 -0.02428 0.75849
 H68 H 0.15336 -0.01633 0.77079
 C69 C 0.16450 -0.03883 0.75599
 H70 H 0.17410 -0.04215 0.76657
 C71 C 0.13919 -0.02959 0.72984
 H72 H 0.12955 -0.02575 0.71953
 C73 C 0.15074 -0.04425 0.72678
 H74 H 0.14983 -0.05155 0.71408
 Zn75 Zn 0.12497 0.00009 0.74997
 N76 N 0.14021 -0.02008 0.74560
 C77 C 0.11075 -0.02007 0.77962
 N78 N 0.10974 -0.00430 0.77014
 C79 C 0.09725 0.00857 0.77438
 C80 C 0.08543 0.00603 0.78893
 C81 C 0.09917 -0.02318 0.79426
 C82 C 0.15266 0.02449 0.74149
 C83 C 0.16446 0.03905 0.74402
 C84 C 0.15070 0.04440 0.77324
 C85 C 0.13914 0.02975 0.77014
 N86 N 0.14018 0.02027 0.75437
 H87 H 0.12047 -0.03032 0.77582
 H88 H 0.09650 0.02083 0.76639
 H89 H 0.07551 0.01639 0.79200
 H90 H 0.10039 -0.03568 0.80181
 H91 H 0.15343 0.01650 0.72922
 H92 H 0.17439 0.04211 0.73365
 H93 H 0.14946 0.05196 0.78575
 H94 H 0.12942 0.02596 0.78039
 C95 C 0.16358 -0.04907 0.73997
 C96 C 0.08641 0.01012 0.70076
 C97 C 0.16355 0.04925 0.76006
 C98 C 0.08633 -0.01000 0.79912
 C99 C 0.59729 0.49149 0.22558
 H100 H 0.59655 0.47923 0.23356
 C101 C 0.58547 0.49401 0.21102
 H102 H 0.57557 0.48364 0.20795
 C103 C 0.61075 0.52015 0.22034
 H104 H 0.62045 0.53041 0.22414
 C105 C 0.59918 0.52324 0.20569
 H106 H 0.60039 0.53575 0.19814
 N107 N 0.60975 0.50438 0.22982
 C108 C 0.65269 0.47563 0.25848
 H109 H 0.65343 0.48362 0.27075
 C110 C 0.66450 0.46108 0.25595
 H111 H 0.67442 0.45803 0.26632
 C112 C 0.63919 0.47037 0.22982
 H113 H 0.62948 0.47415 0.21956
 C114 C 0.65077 0.45573 0.22671
 H115 H 0.64955 0.44817 0.21420
 Zn116 Zn 0.62498 0.50001 0.24999
 N117 N 0.64021 0.47985 0.24560
 C118 C 0.61080 0.47985 0.27967
 N119 N 0.60976 0.49561 0.27019
 C120 C 0.59729 0.50848 0.27443
 C121 C 0.58549 0.50596 0.28900
 C122 C 0.59924 0.47675 0.29433
 C123 C 0.65264 0.52442 0.24148
 C124 C 0.66444 0.53899 0.24400
 C125 C 0.65071 0.54433 0.27324
 C126 C 0.63916 0.52967 0.27015
 N127 N 0.64018 0.52019 0.25438
 H128 H 0.62051 0.46960 0.27586
 H129 H 0.59652 0.52074 0.26644
 H130 H 0.57557 0.51632 0.29208
 H131 H 0.60047 0.46425 0.30189
 H132 H 0.65340 0.51643 0.22922
 H133 H 0.67434 0.54206 0.23362
 H134 H 0.64948 0.55189 0.28575
 H135 H 0.62946 0.52587 0.28042
 C136 C 0.66361 0.45088 0.23990
 C137 C 0.58635 0.51005 0.20083
 C138 C 0.66353 0.54919 0.26004
 C139 C 0.58640 0.48993 0.29921
 C140 C 0.90268 0.50849 0.72556
 H141 H 0.90335 0.52080 0.73349
 C142 C 0.91452 0.50595 0.71103
 H143 H 0.92413 0.51651 0.70769
 C144 C 0.88921 0.47984 0.72031
 H145 H 0.87957 0.46954 0.72416
 C146 C 0.90079 0.47674 0.70566
 H147 H 0.89990 0.46403 0.69839
 N148 N 0.89021 0.49561 0.72978
 C149 C 0.84723 0.52438 0.75840
 H150 H 0.84647 0.51642 0.77068
 C151 C 0.83540 0.53891 0.75584
 H152 H 0.82547 0.54198 0.76620
 C153 C 0.86074 0.52959 0.72974
 H154 H 0.87046 0.52579 0.71949
 C155 C 0.84915 0.54421 0.72661
 H156 H 0.85037 0.55175 0.71408
 Zn157 Zn 0.87496 0.50000 0.74995
 N158 N 0.85971 0.52014 0.74553
 C159 C 0.88911 0.52021 0.77961
 N160 N 0.89015 0.50443 0.77015
 C161 C 0.90263 0.49157 0.77440
 C162 C 0.91443 0.49413 0.78896
 C163 C 0.90067 0.52334 0.79426
 C164 C 0.84731 0.47556 0.74145
 C165 C 0.83551 0.46100 0.74398
 C166 C 0.84925 0.45568 0.77321
 C167 C 0.86079 0.47035 0.77012
 N168 N 0.85976 0.47982 0.75434
 H169 H 0.87939 0.53044 0.77580
 H170 H 0.90340 0.47930 0.76642
 H171 H 0.92436 0.48378 0.79204
 H172 H 0.89944 0.53585 0.80180
 H173 H 0.84662 0.48348 0.72913
 H174 H 0.82591 0.45764 0.73340
 H175 H 0.85016 0.44842 0.78592
 H176 H 0.87041 0.47423 0.78043
 C177 C 0.83630 0.54908 0.73978
 C178 C 0.91364 0.48991 0.70082
 C179 C 0.83642 0.45081 0.76002
 C180 C 0.91352 0.51018 0.79914
 C181 C 0.22545 0.40265 0.00850
 H182 H 0.23338 0.40334 0.02081
 C183 C 0.21091 0.41447 0.00595
 H184 H 0.20757 0.42408 0.01652
 C185 C 0.22020 0.38914 -0.02016
 H186 H 0.22405 0.37950 -0.03046
 C187 C 0.20554 0.40070 -0.02326
 H188 H 0.19827 0.39979 -0.03597
 N189 N 0.22967 0.39017 -0.00438
 C190 C 0.25834 0.34728 0.02441
 H191 H 0.27061 0.34653 0.01642
 C192 C 0.25582 0.33548 0.03897
 H193 H 0.26618 0.32557 0.04203
 C194 C 0.22969 0.36076 0.02967
 H195 H 0.21943 0.37047 0.02587
 C196 C 0.22658 0.34920 0.04432
 H197 H 0.21407 0.35042 0.05188
 Zn198 Zn 0.24985 0.37496 0.00001
 N199 N 0.24546 0.35974 0.02018
 C200 C 0.27951 0.38915 0.02019
 N201 N 0.27003 0.39017 0.00441
 C202 C 0.27427 0.40264 -0.00847
 C203 C 0.28882 0.41444 -0.00594
 C204 C 0.29416 0.40071 0.02329
 C205 C 0.24137 0.34729 -0.02444
 C206 C 0.24391 0.33549 -0.03901
 C207 C 0.27315 0.34921 -0.04431
 C208 C 0.27004 0.36077 -0.02965
 N209 N 0.25426 0.35975 -0.02019
 H210 H 0.27571 0.37944 0.03044
 H211 H 0.26628 0.40339 -0.02074
 H212 H 0.29189 0.42435 -0.01630
 H213 H 0.30171 0.39949 0.03581
 H214 H 0.22910 0.34654 -0.01646
 H215 H 0.23355 0.32559 -0.04209
 H216 H 0.28568 0.35043 -0.05186
 H217 H 0.28030 0.37047 -0.02584
 C218 C 0.23977 0.33637 0.04917
 C219 C 0.20070 0.41356 -0.01009
 C220 C 0.25997 0.33639 -0.04919
 C221 C 0.29902 0.41354 0.01011
 C222 C 0.72559 0.09743 -0.00845
 H223 H 0.73358 0.09668 -0.02071
 C224 C 0.71103 0.08563 -0.00592
 H225 H 0.70796 0.07572 -0.01630
 C226 C 0.72033 0.11092 0.02022
 H227 H 0.72413 0.12062 0.03049
 C228 C 0.70568 0.09936 0.02331
 H229 H 0.69812 0.10058 0.03583
 N230 N 0.72982 0.10989 0.00445
 C231 C 0.75855 0.15276 -0.02433
 H232 H 0.77084 0.15345 -0.01638
 C233 C 0.75604 0.16456 -0.03889
 H234 H 0.76662 0.17416 -0.04223
 C235 C 0.72990 0.13927 -0.02963
 H236 H 0.71960 0.12963 -0.02578
 C237 C 0.72684 0.15080 -0.04430
 H238 H 0.71415 0.14989 -0.05160
 Zn239 Zn 0.75002 0.12509 0.00007
 N240 N 0.74566 0.14029 -0.02012
 C241 C 0.77967 0.11086 -0.02009
 N242 N 0.77019 0.10985 -0.00431
 C243 C 0.77440 0.09739 0.00857
 C244 C 0.78895 0.08556 0.00604
 C245 C 0.79431 0.09928 -0.02319
 C246 C 0.74153 0.15277 0.02449
 C247 C 0.74406 0.16457 0.03906
 C248 C 0.77327 0.15082 0.04441
 C249 C 0.77017 0.13926 0.02975
 N250 N 0.75441 0.14030 0.02026
 H251 H 0.77589 0.12057 -0.03035
 H252 H 0.76641 0.09664 0.02084
 H253 H 0.79200 0.07565 0.01641
 H254 H 0.80187 0.10049 -0.03571
 H255 H 0.72927 0.15354 0.01649
 H256 H 0.73370 0.17449 0.04212
 H257 H 0.78578 0.14958 0.05198
 H258 H 0.78042 0.12954 0.02596
 C259 C 0.74003 0.16364 -0.04914
 C260 C 0.70082 0.08653 0.01012
 C261 C 0.76010 0.16366 0.04927
 C262 C 0.79915 0.08645 -0.01001
 C263 C 0.22561 0.59743 0.49161
 H264 H 0.23360 0.59671 0.47933
 C265 C 0.21108 0.58560 0.49413
 H266 H 0.20803 0.57569 0.48375
 C267 C 0.22034 0.61088 0.52029
 H268 H 0.22412 0.62058 0.53056
 C269 C 0.20572 0.59929 0.52339
 H270 H 0.19816 0.60048 0.53591
 N271 N 0.22982 0.60989 0.50451
 C272 C 0.25845 0.65285 0.47576
 H273 H 0.27071 0.65362 0.48376
 C274 C 0.25591 0.66467 0.46122
 H275 H 0.26627 0.67459 0.45817
 C276 C 0.22982 0.63933 0.47048
 H277 H 0.21957 0.62961 0.47426
 C278 C 0.22671 0.65090 0.45584
 H279 H 0.21420 0.64967 0.44827
 Zn280 Zn 0.24998 0.62514 0.50014
 N281 N 0.24558 0.64036 0.47997
 C282 C 0.27968 0.61101 0.47997
 N283 N 0.27019 0.60996 0.49575
 C284 C 0.27443 0.59750 0.50862
 C285 C 0.28900 0.58571 0.50609
 C286 C 0.29434 0.59946 0.47687
 C287 C 0.24144 0.65279 0.52458
 C288 C 0.24394 0.66459 0.53916
 C289 C 0.27315 0.65084 0.54455
 C290 C 0.27009 0.63931 0.52986
 N291 N 0.25433 0.64034 0.52035
 H292 H 0.27587 0.62071 0.46972
 H293 H 0.26643 0.59672 0.52089
 H294 H 0.29207 0.57580 0.51645
 H295 H 0.30191 0.60070 0.46436
 H296 H 0.22914 0.65348 0.51663
 H297 H 0.23336 0.67418 0.54251
 H298 H 0.28584 0.64993 0.55184
 H299 H 0.28040 0.62968 0.52600
 C300 C 0.23988 0.66376 0.45100
 C301 C 0.20088 0.58645 0.51019
 C302 C 0.25995 0.66367 0.54940
 C303 C 0.29921 0.58663 0.49005
 C304 C 0.72550 0.90257 0.50849
 H305 H 0.73349 0.90330 0.52076
 C306 C 0.71095 0.91438 0.50597
 H307 H 0.70788 0.92428 0.51636
 C308 C 0.72027 0.88912 0.47980
 H309 H 0.72406 0.87943 0.46953
 C310 C 0.70562 0.90069 0.47672
 H311 H 0.69807 0.89949 0.46419
 N312 N 0.72974 0.89012 0.49558
 C313 C 0.75841 0.84719 0.52432
 H314 H 0.77071 0.84650 0.51638
 C315 C 0.75587 0.83536 0.53886
 H316 H 0.76644 0.82575 0.54219
 C317 C 0.72977 0.86070 0.52962
 H318 H 0.71948 0.87035 0.52578
 C319 C 0.72668 0.84914 0.54427
 H320 H 0.71398 0.85005 0.55156
 Zn321 Zn 0.74992 0.87490 0.49995
 N322 N 0.74553 0.85967 0.52012
 C323 C 0.77959 0.88907 0.52012
 N324 N 0.77010 0.89011 0.50435
 C325 C 0.77433 0.90258 0.49148
 C326 C 0.78889 0.91438 0.49402
 C327 C 0.79424 0.90062 0.52323
 C328 C 0.74142 0.84725 0.47549
 C329 C 0.74395 0.83547 0.46091
 C330 C 0.77317 0.84920 0.45558
 C331 C 0.77008 0.86074 0.47025
 N332 N 0.75431 0.85971 0.47974
 H333 H 0.77580 0.87935 0.53037
 H334 H 0.76634 0.90335 0.47922
 H335 H 0.79195 0.92430 0.48366
 H336 H 0.80181 0.89939 0.53574
 H337 H 0.72916 0.84649 0.48349
 H338 H 0.73358 0.82556 0.45783
 H339 H 0.78568 0.85043 0.44801
 H340 H 0.78034 0.87044 0.47406
 C341 C 0.73985 0.83628 0.54909
 C342 C 0.70076 0.91351 0.48992
 C343 C 0.75999 0.83638 0.45070
 C344 C 0.79910 0.91347 0.51006
 C345 C 0.00852 0.22544 0.40277
 H346 H 0.02084 0.23335 0.40346
 C347 C 0.00597 0.21089 0.41457
 H348 H 0.01654 0.20752 0.42416
 C349 C -0.02014 0.22024 0.38927
 H350 H -0.03044 0.22412 0.37964
 C351 C -0.02325 0.20558 0.40080
 H352 H -0.03596 0.19832 0.39989
 N353 N -0.00436 0.22970 0.39030
 C354 C 0.02446 0.25836 0.34740
 H355 H 0.01654 0.27067 0.34672
 C356 C 0.03901 0.25582 0.33557
 H357 H 0.04236 0.26639 0.32597
 C358 C 0.02968 0.22971 0.36087
 H359 H 0.02581 0.21941 0.37051
 C360 C 0.04435 0.22662 0.34931
 H361 H 0.05161 0.21391 0.35021
 Zn362 Zn 0.00004 0.24988 0.37510
 N363 N 0.02022 0.24548 0.35986
 C364 C 0.02024 0.27949 0.38931
 N365 N 0.00446 0.27003 0.39034
 C366 C -0.00840 0.27426 0.40284
 C367 C -0.00584 0.28880 0.41467
 C368 C 0.02336 0.29414 0.40087
 C369 C -0.02440 0.24143 0.34742
 C370 C -0.03897 0.24398 0.33562
 C371 C -0.04426 0.27319 0.34939
 C372 C -0.02960 0.27007 0.36093
 N373 N -0.02014 0.25430 0.35989
 H374 H 0.03053 0.27563 0.37965
 H375 H -0.02072 0.26635 0.40354
 H376 H -0.01640 0.29214 0.42429
 H377 H 0.03607 0.30140 0.39995
 H378 H -0.01643 0.22916 0.34665
 H379 H -0.04206 0.23362 0.32570
 H380 H -0.05180 0.28571 0.35062
 H381 H -0.02578 0.28032 0.37065
 C382 C 0.04921 0.23979 0.33647
 C383 C -0.01007 0.20070 0.41364
 C384 C -0.04915 0.26002 0.33654
 C385 C 0.01019 0.29899 0.41374
 C386 C -0.00831 0.72575 0.09721
 H387 H -0.02058 0.73373 0.09645
 C388 C -0.00575 0.71121 0.08538
 H389 H -0.01610 0.70816 0.07545
 C390 C 0.02033 0.72049 0.11075
 H391 H 0.03057 0.72428 0.12049
 C392 C 0.02345 0.70587 0.09916
 H393 H 0.03596 0.69831 0.10039
 N394 N 0.00455 0.72996 0.10972
 C395 C -0.02436 0.75856 0.15262
 H396 H -0.01638 0.77082 0.15341
 C397 C -0.03895 0.75602 0.16440
 H398 H -0.04205 0.76637 0.17431
 C399 C -0.02956 0.72993 0.13908
 H400 H -0.02573 0.71969 0.12937
 C401 C -0.04424 0.72682 0.15061
 H402 H -0.05179 0.71431 0.14935
 Zn403 Zn 0.00012 0.75011 0.12497
 N404 N -0.02009 0.74570 0.14015
 C405 C -0.02004 0.77976 0.11078
 N406 N -0.00426 0.77030 0.10977
 C407 C 0.00864 0.77455 0.09732
 C408 C 0.00611 0.78910 0.08551
 C409 C -0.02313 0.79442 0.09924
 C410 C 0.02449 0.74161 0.15270
 C411 C 0.03901 0.74414 0.16455
 C412 C 0.04439 0.77335 0.15082
 C413 C 0.02975 0.77026 0.13924
 N414 N 0.02027 0.75449 0.14023
 H415 H -0.03035 0.77588 0.12040
 H416 H 0.02096 0.76664 0.09664
 H417 H 0.01669 0.79247 0.07592
 H418 H -0.03584 0.80168 0.10014
 H419 H 0.01656 0.72931 0.15337
 H420 H 0.04235 0.73358 0.17415
 H421 H 0.05166 0.78605 0.14993
 H422 H 0.02590 0.78056 0.12960
 C423 C -0.04915 0.73998 0.16345
 C424 C 0.01029 0.70102 0.08630
 C425 C 0.04922 0.76017 0.16367
 C426 C -0.00993 0.79929 0.08642
 C427 C 0.49161 0.22578 0.59722
 H428 H 0.47934 0.23376 0.59647
 C429 C 0.49415 0.21123 0.58540
 H430 H 0.48379 0.20817 0.57548
 C431 C 0.52027 0.22054 0.61072
 H432 H 0.53052 0.22433 0.62044
 C433 C 0.52338 0.20590 0.59914
 H434 H 0.53589 0.19835 0.60037
 N435 N 0.50449 0.23001 0.60970
 C436 C 0.47563 0.25859 0.65265
 H437 H 0.48361 0.27086 0.65343
 C438 C 0.46106 0.25604 0.66445
 H439 H 0.45797 0.26639 0.67438
 C440 C 0.47042 0.22996 0.63911
 H441 H 0.47423 0.21972 0.62939
 C442 C 0.45576 0.22684 0.65067
 H443 H 0.44821 0.21433 0.64942
 Zn444 Zn 0.50008 0.25015 0.62496
 N445 N 0.47989 0.24573 0.64016
 C446 C 0.47991 0.27982 0.61081
 N447 N 0.49569 0.27035 0.60977
 C448 C 0.50858 0.27461 0.59731
 C449 C 0.50604 0.28917 0.58553
 C450 C 0.47682 0.29449 0.59929
 C451 C 0.52447 0.24164 0.65267
 C452 C 0.53901 0.24415 0.66449
 C453 C 0.54440 0.27335 0.65076
 C454 C 0.52974 0.27028 0.63920
 N455 N 0.52025 0.25452 0.64020
 H456 H 0.46961 0.27593 0.62045
 H457 H 0.52089 0.26669 0.59661
 H458 H 0.51662 0.29254 0.57593
 H459 H 0.46411 0.30176 0.60022
 H460 H 0.51653 0.22934 0.65334
 H461 H 0.54235 0.23357 0.67409
 H462 H 0.55168 0.28605 0.64987
 H463 H 0.52588 0.28059 0.62957
 C464 C 0.45087 0.24000 0.66352
 C465 C 0.51020 0.20104 0.58630
 C466 C 0.54924 0.26017 0.66359
 C467 C 0.49001 0.29937 0.58646
 C468 C 0.50850 0.72546 0.90283
 H469 H 0.52082 0.73337 0.90353
 C470 C 0.50597 0.71091 0.91464
 H471 H 0.51654 0.70754 0.92424
 C472 C 0.47984 0.72024 0.88934
 H473 H 0.46954 0.72412 0.87971
 C474 C 0.47674 0.70558 0.90088
 H475 H 0.46403 0.69832 0.89997
 N476 N 0.49562 0.72971 0.89037
 C477 C 0.52442 0.75835 0.84744
 H478 H 0.51646 0.77062 0.84670
 C479 C 0.53896 0.75580 0.83560
 H480 H 0.54204 0.76616 0.82569
 C481 C 0.52963 0.72969 0.86090
 H482 H 0.52582 0.71943 0.87060
 C483 C 0.54426 0.72657 0.84930
 H484 H 0.55180 0.71405 0.85050
 Zn485 Zn 0.50002 0.74988 0.87515
 N486 N 0.52018 0.74547 0.85990
 C487 C 0.52022 0.77951 0.88933
 N488 N 0.50445 0.77004 0.89038
 C489 C 0.49159 0.77427 0.90289
 C490 C 0.49415 0.78881 0.91470
 C491 C 0.52333 0.79417 0.90088
 C492 C 0.47556 0.74142 0.84749
 C493 C 0.46098 0.74396 0.83571
 C494 C 0.45569 0.77318 0.84946
 C495 C 0.47036 0.77006 0.86100
 N496 N 0.47982 0.75429 0.85996
 H497 H 0.53050 0.77565 0.87966
 H498 H 0.47928 0.76635 0.90360
 H499 H 0.48359 0.79216 0.92433
 H500 H 0.53604 0.80144 0.89994
 H501 H 0.48353 0.72915 0.84672
 H502 H 0.45788 0.73360 0.82580
 H503 H 0.44815 0.78569 0.85070
 H504 H 0.47419 0.78031 0.87071
 C505 C 0.54913 0.73974 0.83647
 C506 C 0.48993 0.70071 0.91372
 C507 C 0.45079 0.76000 0.83663
 C508 C 0.51018 0.79902 0.91376
 C509 C 0.16866 0.19988 0.23871
 C510 C 0.16439 0.21743 0.24448
 C511 C 0.17479 0.23211 0.23850
 C512 C 0.18941 0.22926 0.22679
 C513 C 0.19379 0.21168 0.22092
 C514 C 0.18327 0.19702 0.22699
 C515 C 0.14934 0.22036 0.25653
 C516 C 0.13672 0.22282 0.26662
 C517 C 0.12195 0.22569 0.27842
 C518 C 0.10933 0.22815 0.28849
 C519 C 0.09425 0.23108 0.30052
 C520 C 0.09541 0.22578 0.31869
 C521 C 0.08078 0.22860 0.33039
 C522 C 0.06476 0.23679 0.32405
 C523 C 0.06374 0.24207 0.30576
 C524 C 0.07839 0.23922 0.29408
 H525 H 0.16068 0.18842 0.24323
 H526 H 0.17162 0.24574 0.24291
 H527 H 0.19740 0.24074 0.22240
 H528 H 0.18631 0.18338 0.22253
 H529 H 0.10765 0.21950 0.32383
 H530 H 0.08207 0.22459 0.34444
 H531 H 0.05153 0.24818 0.30041
 H532 H 0.07733 0.24333 0.28003
 C533 C 0.67460 0.73201 0.73834
 C534 C 0.66418 0.71735 0.74432
 C535 C 0.66843 0.69979 0.73854
 C536 C 0.68303 0.69691 0.72682
 C537 C 0.69357 0.71157 0.72075
 C538 C 0.68921 0.72915 0.72662
 C539 C 0.64914 0.72030 0.75639
 C540 C 0.63654 0.72276 0.76648
 C541 C 0.62177 0.72565 0.77829
 C542 C 0.60916 0.72811 0.78838
 C543 C 0.59410 0.73103 0.80043
 C544 C 0.58230 0.71677 0.80453
 C545 C 0.56768 0.71959 0.81625
 C546 C 0.56466 0.73673 0.82402
 C547 C 0.57660 0.75098 0.81979
 C548 C 0.59122 0.74813 0.80808
 H549 H 0.67145 0.74565 0.74275
 H550 H 0.66044 0.68835 0.74307
 H551 H 0.68605 0.68328 0.72236
 H552 H 0.69721 0.74062 0.72223
 H553 H 0.58438 0.70349 0.79864
 H554 H 0.55860 0.70841 0.81904
 H555 H 0.57477 0.76427 0.82573
 H556 H 0.60030 0.75925 0.80504
 C557 C 0.33773 0.78030 0.72612
 C558 C 0.33547 0.78227 0.74486
 C559 C 0.31852 0.78713 0.75186
 C560 C 0.30389 0.79001 0.74018
 C561 C 0.30604 0.78806 0.72135
 C562 C 0.32311 0.78317 0.71443
 C563 C 0.35054 0.77934 0.75688
 C564 C 0.36317 0.77688 0.76694
 C565 C 0.37796 0.77402 0.77872
 C566 C 0.39060 0.77158 0.78877
 C567 C 0.40569 0.76867 0.80077
 C568 C 0.41749 0.78294 0.80484
 C569 C 0.43215 0.78014 0.81650
 C570 C 0.43522 0.76300 0.82424
 C571 C 0.42329 0.74874 0.82004
 C572 C 0.40862 0.75157 0.80839
 H573 H 0.35079 0.77657 0.72056
 H574 H 0.31662 0.78868 0.76634
 H575 H 0.29084 0.79363 0.74582
 H576 H 0.32512 0.78173 0.69997
 H577 H 0.41537 0.79622 0.79897
 H578 H 0.44123 0.79133 0.81927
 H579 H 0.42515 0.73545 0.82596
 H580 H 0.39955 0.74044 0.80537
 C581 C -0.16864 0.29996 0.23893
 C582 C -0.16440 0.28241 0.24470
 C583 C -0.17483 0.26775 0.23873
 C584 C -0.18945 0.27062 0.22703
 C585 C -0.19380 0.28820 0.22116
 C586 C -0.18325 0.30285 0.22723
 C587 C -0.14934 0.27945 0.25673
 C588 C -0.13672 0.27698 0.26680
 C589 C -0.12194 0.27410 0.27858
 C590 C -0.10930 0.27165 0.28864
 C591 C -0.09422 0.26873 0.30064
 C592 C -0.09130 0.25162 0.30826
 C593 C -0.07664 0.24878 0.31992
 C594 C -0.06471 0.26303 0.32414
 C595 C -0.06777 0.28018 0.31641
 C596 C -0.08242 0.28299 0.30474
 H597 H -0.16064 0.31141 0.24345
 H598 H -0.17169 0.25411 0.24313
 H599 H -0.19746 0.25915 0.22263
 H600 H -0.18626 0.31649 0.22278
 H601 H -0.10037 0.24050 0.30522
 H602 H -0.07479 0.23549 0.32583
 H603 H -0.05869 0.29136 0.31919
 H604 H -0.08453 0.29628 0.29887
 C605 C -0.16882 0.70015 0.26092
 C606 C -0.16456 0.71770 0.25516
 C607 C -0.17498 0.73237 0.26112
 C608 C -0.18960 0.72953 0.27282
 C609 C -0.19398 0.71195 0.27869
 C610 C -0.18344 0.69728 0.27262
 C611 C -0.14948 0.72064 0.24314
 C612 C -0.13684 0.72309 0.23308
 C613 C -0.12204 0.72596 0.22131
 C614 C -0.10939 0.72840 0.21127
 C615 C -0.09429 0.73130 0.19928
 C616 C -0.09134 0.74841 0.19167
 C617 C -0.07666 0.75125 0.18003
 C618 C -0.06473 0.73698 0.17583
 C619 C -0.06782 0.71983 0.18355
 C620 C -0.08250 0.71703 0.19520
 H621 H -0.16083 0.68870 0.25641
 H622 H -0.17181 0.74601 0.25672
 H623 H -0.19761 0.74100 0.27721
 H624 H -0.18647 0.68365 0.27707
 H625 H -0.10041 0.75954 0.19470
 H626 H -0.07479 0.76454 0.17413
 H627 H -0.05875 0.70864 0.18078
 H628 H -0.08462 0.70375 0.20105
 C629 C 0.32521 0.23229 0.76139
 C630 C 0.33562 0.21761 0.75540
 C631 C 0.33136 0.20006 0.76116
 C632 C 0.31674 0.19718 0.77286
 C633 C 0.30621 0.21184 0.77894
 C634 C 0.31059 0.22943 0.77309
 C635 C 0.35069 0.22057 0.74337
 C636 C 0.36331 0.22303 0.73330
 C637 C 0.37809 0.22590 0.72151
 C638 C 0.39072 0.22835 0.71144
 C639 C 0.40581 0.23128 0.69943
 C640 C 0.41760 0.21701 0.69533
 C641 C 0.43226 0.21983 0.68365
 C642 C 0.43532 0.23699 0.67593
 C643 C 0.42338 0.25124 0.68016
 C644 C 0.40873 0.24839 0.69183
 H645 H 0.32837 0.24592 0.75700
 H646 H 0.33935 0.18861 0.75663
 H647 H 0.31371 0.18354 0.77729
 H648 H 0.30258 0.24090 0.77749
 H649 H 0.41550 0.20373 0.70118
 H650 H 0.44133 0.20865 0.68086
 H651 H 0.42524 0.26454 0.67426
 H652 H 0.39966 0.25951 0.69488
 C653 C 0.68144 0.28715 0.74851
 C654 C 0.66448 0.28231 0.75551
 C655 C 0.66222 0.28035 0.77425
 C656 C 0.67684 0.28321 0.78594
 C657 C 0.69392 0.28808 0.77902
 C658 C 0.69607 0.29002 0.76019
 C659 C 0.64942 0.27938 0.74349
 C660 C 0.63679 0.27694 0.73341
 C661 C 0.62201 0.27409 0.72163
 C662 C 0.60938 0.27166 0.71156
 C663 C 0.59430 0.26878 0.69953
 C664 C 0.57842 0.26066 0.70597
 C665 C 0.56376 0.25785 0.69431
 C666 C 0.56480 0.26314 0.67601
 C667 C 0.58082 0.27131 0.66968
 C668 C 0.59546 0.27409 0.68137
 H669 H 0.68335 0.28868 0.73403
 H670 H 0.64915 0.27664 0.77981
 H671 H 0.67483 0.28178 0.80040
 H672 H 0.70913 0.29362 0.75455
 H673 H 0.57735 0.25654 0.72003
 H674 H 0.55154 0.25175 0.69965
 H675 H 0.58212 0.27532 0.65562
 H676 H 0.60771 0.28035 0.67623
 C677 C 0.18123 0.78739 0.24879
 C678 C 0.16427 0.78255 0.25577
 C679 C 0.16199 0.78060 0.27451
 C680 C 0.17660 0.78349 0.28621
 C681 C 0.19368 0.78836 0.27931
 C682 C 0.19585 0.79028 0.26048
 C683 C 0.14922 0.77959 0.24373
 C684 C 0.13662 0.77712 0.23364
 C685 C 0.12186 0.77423 0.22183
 C686 C 0.10925 0.77178 0.21174
 C687 C 0.09420 0.76886 0.19969
 C688 C 0.07832 0.76072 0.20610
 C689 C 0.06369 0.75788 0.19441
 C690 C 0.06475 0.76317 0.17611
 C691 C 0.08078 0.77135 0.16980
 C692 C 0.09540 0.77417 0.18152
 H693 H 0.18315 0.78891 0.23431
 H694 H 0.14892 0.77688 0.28006
 H695 H 0.17458 0.78207 0.30068
 H696 H 0.20891 0.79389 0.25485
 H697 H 0.07723 0.75661 0.22016
 H698 H 0.05147 0.75177 0.19973
 H699 H 0.08210 0.77536 0.15575
 H700 H 0.10764 0.78044 0.17640
 C701 C 0.23856 0.17467 0.23217
 C702 C 0.24454 0.16427 0.21748
 C703 C 0.23878 0.16854 0.19992
 C704 C 0.22707 0.18314 0.19706
 C705 C 0.22099 0.19365 0.21174
 C706 C 0.22686 0.18928 0.22933
 C707 C 0.25658 0.14922 0.22041
 C708 C 0.26666 0.13661 0.22287
 C709 C 0.27844 0.12184 0.22574
 C710 C 0.28850 0.10922 0.22820
 C711 C 0.30052 0.09415 0.23113
 C712 C 0.30463 0.08236 0.21686
 C713 C 0.31631 0.06772 0.21968
 C714 C 0.32403 0.06468 0.23685
 C715 C 0.31980 0.07661 0.25112
 C716 C 0.30812 0.09124 0.24826
 H717 H 0.24296 0.17150 0.24582
 H718 H 0.24330 0.16056 0.18845
 H719 H 0.22262 0.18618 0.18341
 H720 H 0.22246 0.19727 0.24082
 H721 H 0.29877 0.08445 0.20356
 H722 H 0.31910 0.05865 0.20850
 H723 H 0.32570 0.07477 0.26442
 H724 H 0.30507 0.10032 0.25939
 C725 C 0.73831 0.67452 0.73202
 C726 C 0.74429 0.66411 0.71733
 C727 C 0.73853 0.66839 0.69977
 C728 C 0.72683 0.68299 0.69690
 C729 C 0.72076 0.69351 0.71158
 C730 C 0.72661 0.68913 0.72917
 C731 C 0.75633 0.64906 0.72027
 C732 C 0.76640 0.63645 0.72273
 C733 C 0.77818 0.62168 0.72562
 C734 C 0.78826 0.60908 0.72809
 C735 C 0.80029 0.59402 0.73102
 C736 C 0.80441 0.58223 0.71676
 C737 C 0.81612 0.56761 0.71959
 C738 C 0.82385 0.56459 0.73675
 C739 C 0.81960 0.57652 0.75101
 C740 C 0.80790 0.59114 0.74815
 H741 H 0.74270 0.67135 0.74567
 H742 H 0.74306 0.66041 0.68830
 H743 H 0.72239 0.68603 0.68325
 H744 H 0.72221 0.69712 0.74066
 H745 H 0.79855 0.58431 0.70346
 H746 H 0.81892 0.55854 0.70840
 H747 H 0.82551 0.57470 0.76432
 H748 H 0.80484 0.60021 0.75928
 C749 C 0.75161 0.31864 0.78715
 C750 C 0.74461 0.33558 0.78233
 C751 C 0.72588 0.33785 0.78040
 C752 C 0.71419 0.32324 0.78327
 C753 C 0.72111 0.30617 0.78811
 C754 C 0.73994 0.30401 0.79002
 C755 C 0.75664 0.35064 0.77939
 C756 C 0.76670 0.36326 0.77693
 C757 C 0.77848 0.37804 0.77406
 C758 C 0.78854 0.39066 0.77161
 C759 C 0.80055 0.40574 0.76870
 C760 C 0.79409 0.42159 0.76056
 C761 C 0.80573 0.43625 0.75772
 C762 C 0.82403 0.43525 0.76302
 C763 C 0.83038 0.41925 0.77121
 C764 C 0.81871 0.40461 0.77402
 H765 H 0.76609 0.31673 0.78866
 H766 H 0.72032 0.35092 0.77670
 H767 H 0.69973 0.32525 0.78186
 H768 H 0.74558 0.29096 0.79361
 H769 H 0.78003 0.42263 0.75644
 H770 H 0.80037 0.44845 0.75161
 H771 H 0.84444 0.41797 0.77522
 H772 H 0.82387 0.39238 0.78029
 C773 C 0.25138 -0.18109 0.28743
 C774 C 0.24438 -0.16415 0.28258
 C775 C 0.22565 -0.16188 0.28065
 C776 C 0.21395 -0.17648 0.28354
 C777 C 0.22086 -0.19354 0.28841
 C778 C 0.23969 -0.19571 0.29032
 C779 C 0.25642 -0.14911 0.27961
 C780 C 0.26650 -0.13650 0.27713
 C781 C 0.27830 -0.12175 0.27423
 C782 C 0.28838 -0.10914 0.27177
 C783 C 0.30042 -0.09409 0.26884
 C784 C 0.29400 -0.07824 0.26068
 C785 C 0.30568 -0.06361 0.25782
 C786 C 0.32397 -0.06465 0.26312
 C787 C 0.33029 -0.08066 0.27132
 C788 C 0.31858 -0.09527 0.27415
 H789 H 0.26585 -0.18301 0.28893
 H790 H 0.22009 -0.14882 0.27693
 H791 H 0.19949 -0.17446 0.28212
 H792 H 0.24532 -0.20876 0.29392
 H793 H 0.27994 -0.07717 0.25656
 H794 H 0.30034 -0.05140 0.25170
 H795 H 0.34434 -0.08196 0.27534
 H796 H 0.32371 -0.10750 0.28044
 C797 C 0.27412 -0.16213 0.71995
 C798 C 0.25539 -0.16438 0.71799
 C799 C 0.24837 -0.18132 0.71318
 C800 C 0.26004 -0.19597 0.71033
 C801 C 0.27887 -0.19383 0.71225
 C802 C 0.28580 -0.17676 0.71710
 C803 C 0.24338 -0.14930 0.72088
 C804 C 0.23332 -0.13666 0.72330
 C805 C 0.22155 -0.12187 0.72612
 C806 C 0.21149 -0.10923 0.72852
 C807 C 0.19948 -0.09414 0.73139
 C808 C 0.18132 -0.09531 0.72609
 C809 C 0.16964 -0.08066 0.72886
 C810 C 0.17599 -0.06463 0.73700
 C811 C 0.19428 -0.06361 0.74229
 C812 C 0.20594 -0.07827 0.73949
 H813 H 0.27970 -0.14907 0.72364
 H814 H 0.23390 -0.18322 0.71165
 H815 H 0.25439 -0.20901 0.70674
 H816 H 0.30026 -0.17477 0.71852
 H817 H 0.17617 -0.10755 0.71985
 H818 H 0.15558 -0.08196 0.72486
 H819 H 0.19964 -0.05138 0.74837
 H820 H 0.21999 -0.07720 0.74360
 C821 C 0.76149 0.32532 0.23240
 C822 C 0.75554 0.33572 0.21770
 C823 C 0.76131 0.33143 0.20014
 C824 C 0.77300 0.31680 0.19729
 C825 C 0.77904 0.30628 0.21197
 C826 C 0.77317 0.31069 0.22956
 C827 C 0.74352 0.35079 0.22062
 C828 C 0.73346 0.36341 0.22306
 C829 C 0.72168 0.37820 0.22591
 C830 C 0.71161 0.39082 0.22834
 C831 C 0.69959 0.40589 0.23124
 C832 C 0.69549 0.41765 0.21696
 C833 C 0.68379 0.43228 0.21975
 C834 C 0.67604 0.43535 0.23691
 C835 C 0.68027 0.42345 0.25119
 C836 C 0.69196 0.40882 0.24836
 H837 H 0.75709 0.32851 0.24604
 H838 H 0.75682 0.33940 0.18867
 H839 H 0.77745 0.31374 0.18364
 H840 H 0.77754 0.30269 0.24106
 H841 H 0.70137 0.41554 0.20366
 H842 H 0.68101 0.44134 0.20855
 H843 H 0.67434 0.42531 0.26448
 H844 H 0.69500 0.39976 0.25950
 C845 C 0.76110 0.66876 0.29970
 C846 C 0.75533 0.66447 0.28215
 C847 C 0.76129 0.67486 0.26745
 C848 C 0.77297 0.68949 0.27028
 C849 C 0.77884 0.69390 0.28787
 C850 C 0.77278 0.68338 0.30256
 C851 C 0.74331 0.64940 0.27922
 C852 C 0.73326 0.63677 0.27678
 C853 C 0.72148 0.62198 0.27394
 C854 C 0.71143 0.60935 0.27152
 C855 C 0.69943 0.59426 0.26864
 C856 C 0.69179 0.59131 0.25153
 C857 C 0.68013 0.57666 0.24872
 C858 C 0.67594 0.56475 0.26301
 C859 C 0.68369 0.56784 0.28016
 C860 C 0.69536 0.58250 0.28294
 H861 H 0.75659 0.66079 0.31118
 H862 H 0.75689 0.67168 0.25381
 H863 H 0.77735 0.69748 0.25879
 H864 H 0.77723 0.68644 0.31620
 H865 H 0.69481 0.60036 0.24038
 H866 H 0.67420 0.57478 0.23543
 H867 H 0.68093 0.55879 0.29137
 H868 H 0.70124 0.58463 0.29622
 C869 C 0.26146 0.17479 0.76764
 C870 C 0.25549 0.16439 0.78233
 C871 C 0.26125 0.16866 0.79989
 C872 C 0.27294 0.18327 0.80277
 C873 C 0.27902 0.19379 0.78809
 C874 C 0.27316 0.18941 0.77049
 C875 C 0.24345 0.14933 0.77938
 C876 C 0.23338 0.13672 0.77693
 C877 C 0.22159 0.12195 0.77406
 C878 C 0.21152 0.10934 0.77162
 C879 C 0.19949 0.09427 0.76872
 C880 C 0.19538 0.08251 0.78301
 C881 C 0.18369 0.06787 0.78022
 C882 C 0.17596 0.06480 0.76305
 C883 C 0.18020 0.07669 0.74877
 C884 C 0.19188 0.09133 0.75160
 H885 H 0.25707 0.17162 0.75399
 H886 H 0.25673 0.16068 0.81135
 H887 H 0.27739 0.18631 0.81641
 H888 H 0.27755 0.19740 0.75901
 H889 H 0.20124 0.08463 0.79631
 H890 H 0.18090 0.05883 0.79142
 H891 H 0.17429 0.07483 0.73547
 H892 H 0.19493 0.10038 0.74046
 C893 C 0.23226 0.23841 0.17470
 C894 C 0.21756 0.24439 0.16431
 C895 C 0.20001 0.23862 0.16858
 C896 C 0.19715 0.22692 0.18319
 C897 C 0.21183 0.22084 0.19370
 C898 C 0.22941 0.22670 0.18932
 C899 C 0.22050 0.25643 0.14926
 C900 C 0.22294 0.26651 0.13665
 C901 C 0.22580 0.27832 0.12188
 C902 C 0.22823 0.28840 0.10927
 C903 C 0.23112 0.30042 0.09419
 C904 C 0.21684 0.30452 0.08242
 C905 C 0.21963 0.31621 0.06778
 C906 C 0.23678 0.32395 0.06472
 C907 C 0.25106 0.31973 0.07663
 C908 C 0.24823 0.30805 0.09127
 H909 H 0.24590 0.24281 0.17153
 H910 H 0.18854 0.24314 0.16061
 H911 H 0.18350 0.22247 0.18623
 H912 H 0.24090 0.22231 0.19730
 H913 H 0.20355 0.29865 0.08453
 H914 H 0.20843 0.31899 0.05872
 H915 H 0.26435 0.32565 0.07478
 H916 H 0.25938 0.30501 0.10033
 C917 C 0.69984 0.73851 0.66842
 C918 C 0.71741 0.74426 0.66416
 C919 C 0.73209 0.73826 0.67456
 C920 C 0.72922 0.72656 0.68917
 C921 C 0.71163 0.72071 0.69354
 C922 C 0.69696 0.72681 0.68302
 C923 C 0.72036 0.75631 0.64912
 C924 C 0.72283 0.76640 0.63651
 C925 C 0.72572 0.77820 0.62175
 C926 C 0.72818 0.78827 0.60914
 C927 C 0.73112 0.80031 0.59409
 C928 C 0.72585 0.81847 0.59529
 C929 C 0.72868 0.83018 0.58067
 C930 C 0.73684 0.82385 0.56463
 C931 C 0.74210 0.80556 0.56357
 C932 C 0.73925 0.79388 0.57820
 H933 H 0.68839 0.74305 0.66044
 H934 H 0.74573 0.74265 0.67140
 H935 H 0.74070 0.72215 0.69716
 H936 H 0.68331 0.72237 0.68606
 H937 H 0.71960 0.82360 0.60755
 H938 H 0.72470 0.84423 0.58200
 H939 H 0.74819 0.80023 0.55133
 H940 H 0.74333 0.77983 0.57710
 C941 C 0.76753 0.73864 0.32493
 C942 C 0.78222 0.74462 0.33533
 C943 C 0.79978 0.73888 0.33104
 C944 C 0.80265 0.72719 0.31642
 C945 C 0.78798 0.72110 0.30590
 C946 C 0.77038 0.72695 0.31030
 C947 C 0.77927 0.75664 0.35041
 C948 C 0.77681 0.76669 0.36305
 C949 C 0.77395 0.77846 0.37784
 C950 C 0.77152 0.78851 0.39049
 C951 C 0.76862 0.80051 0.40559
 C952 C 0.78291 0.80459 0.41737
 C953 C 0.78012 0.81625 0.43204
 C954 C 0.76297 0.82398 0.43513
 C955 C 0.74869 0.81978 0.42321
 C956 C 0.75151 0.80813 0.40854
 H957 H 0.75388 0.74302 0.32811
 H958 H 0.81124 0.74341 0.33902
 H959 H 0.81630 0.72276 0.31337
 H960 H 0.75890 0.72254 0.30231
 H961 H 0.79620 0.79872 0.41524
 H962 H 0.79133 0.81902 0.44110
 H963 H 0.73539 0.82570 0.42509
 H964 H 0.74037 0.80510 0.39948
 C965 C 0.29992 0.23875 -0.16870
 C966 C 0.28236 0.24450 -0.16443
 C967 C 0.26768 0.23852 -0.17484
 C968 C 0.27055 0.22683 -0.18947
 C969 C 0.28814 0.22098 -0.19385
 C970 C 0.30281 0.22706 -0.18332
 C971 C 0.27940 0.25652 -0.14936
 C972 C 0.27693 0.26659 -0.13673
 C973 C 0.27404 0.27837 -0.12195
 C974 C 0.27159 0.28843 -0.10932
 C975 C 0.26867 0.30045 -0.09424
 C976 C 0.25156 0.30808 -0.09132
 C977 C 0.24871 0.31975 -0.07668
 C978 C 0.26298 0.32397 -0.06474
 C979 C 0.28013 0.31622 -0.06779
 C980 C 0.28294 0.30454 -0.08244
 H981 H 0.31138 0.24328 -0.16071
 H982 H 0.25403 0.24290 -0.17168
 H983 H 0.25907 0.22243 -0.19748
 H984 H 0.31646 0.22263 -0.18635
 H985 H 0.24043 0.30504 -0.10040
 H986 H 0.23542 0.32567 -0.07483
 H987 H 0.29132 0.31900 -0.05872
 H988 H 0.29623 0.29867 -0.08454
 C989 C 0.71978 0.27419 -0.16210
 C990 C 0.71783 0.25547 -0.16439
 C991 C 0.71299 0.24849 -0.18135
 C992 C 0.71011 0.26017 -0.19597
 C993 C 0.71203 0.27899 -0.19380
 C994 C 0.71690 0.28589 -0.17671
 C995 C 0.72076 0.24345 -0.14933
 C996 C 0.72321 0.23338 -0.13671
 C997 C 0.72607 0.22159 -0.12193
 C998 C 0.72850 0.21153 -0.10930
 C999 C 0.73141 0.19952 -0.09422
 C1000 C 0.72611 0.18136 -0.09539
 C1001 C 0.72891 0.16969 -0.08074
 C1002 C 0.73705 0.17603 -0.06471
 C1003 C 0.74233 0.19432 -0.06367
 C1004 C 0.73951 0.20597 -0.07834
 H1005 H 0.72349 0.27975 -0.14903
 H1006 H 0.71147 0.23402 -0.18327
 H1007 H 0.70650 0.25455 -0.20903
 H1008 H 0.71832 0.30034 -0.17469
 H1009 H 0.71987 0.17621 -0.10764
 H1010 H 0.72491 0.15564 -0.08204
 H1011 H 0.74841 0.19968 -0.05144
 H1012 H 0.74361 0.22002 -0.07727
 C1013 C 0.21275 0.74878 0.31894
 C1014 C 0.21758 0.75576 0.33591
 C1015 C 0.21953 0.77448 0.33819
 C1016 C 0.21665 0.78617 0.32358
 C1017 C 0.21178 0.77928 0.30650
 C1018 C 0.20986 0.76046 0.30432
 C1019 C 0.22053 0.74373 0.35096
 C1020 C 0.22298 0.73365 0.36357
 C1021 C 0.22585 0.72185 0.37834
 C1022 C 0.22830 0.71178 0.39096
 C1023 C 0.23120 0.69974 0.40602
 C1024 C 0.21691 0.69561 0.41778
 C1025 C 0.21971 0.68391 0.43241
 C1026 C 0.23688 0.67619 0.43547
 C1027 C 0.25116 0.68045 0.42357
 C1028 C 0.24832 0.69214 0.40894
 H1029 H 0.21123 0.73431 0.31702
 H1030 H 0.22324 0.78003 0.35127
 H1031 H 0.21807 0.80063 0.32561
 H1032 H 0.20626 0.75484 0.29126
 H1033 H 0.20362 0.70146 0.41567
 H1034 H 0.20852 0.68110 0.44146
 H1035 H 0.26446 0.67455 0.42542
 H1036 H 0.25947 0.69521 0.39989
 C1037 C 0.28020 0.77418 0.66246
 C1038 C 0.28213 0.75546 0.66474
 C1039 C 0.28695 0.74847 0.68170
 C1040 C 0.28983 0.76015 0.69634
 C1041 C 0.28793 0.77897 0.69416
 C1042 C 0.28308 0.78587 0.67708
 C1043 C 0.27920 0.74343 0.64967
 C1044 C 0.27675 0.73336 0.63705
 C1045 C 0.27389 0.72158 0.62226
 C1046 C 0.27146 0.71153 0.60962
 C1047 C 0.26856 0.69953 0.59452
 C1048 C 0.27386 0.68137 0.59567
 C1049 C 0.27108 0.66970 0.58101
 C1050 C 0.26292 0.67605 0.56498
 C1051 C 0.25763 0.69434 0.56397
 C1052 C 0.26045 0.70598 0.57865
 H1053 H 0.27651 0.77973 0.64938
 H1054 H 0.28845 0.73401 0.68363
 H1055 H 0.29342 0.75453 0.70940
 H1056 H 0.28168 0.80032 0.67506
 H1057 H 0.28011 0.67622 0.60791
 H1058 H 0.27508 0.65566 0.58229
 H1059 H 0.25155 0.69970 0.55175
 H1060 H 0.25634 0.72003 0.57760
 C1061 C 0.79995 0.26126 0.16881
 C1062 C 0.78238 0.25554 0.16452
 C1063 C 0.76770 0.26155 0.17492
 C1064 C 0.77056 0.27324 0.18954
 C1065 C 0.78816 0.27907 0.19394
 C1066 C 0.80283 0.27296 0.18342
 C1067 C 0.77943 0.24351 0.14945
 C1068 C 0.77697 0.23345 0.13683
 C1069 C 0.77410 0.22166 0.12204
 C1070 C 0.77166 0.21160 0.10941
 C1071 C 0.76876 0.19959 0.09432
 C1072 C 0.75164 0.19198 0.09139
 C1073 C 0.74881 0.18031 0.07674
 C1074 C 0.76309 0.17608 0.06482
 C1075 C 0.78025 0.18380 0.06790
 C1076 C 0.78304 0.19548 0.08255
 H1077 H 0.81141 0.25672 0.16083
 H1078 H 0.75405 0.25718 0.17174
 H1079 H 0.75908 0.27766 0.19753
 H1080 H 0.81648 0.27738 0.18647
 H1081 H 0.74049 0.19504 0.10044
 H1082 H 0.73551 0.17441 0.07487
 H1083 H 0.79145 0.18100 0.05885
 H1084 H 0.79634 0.20133 0.08467
 C1085 C 0.48231 0.42501 0.48872
 C1086 C 0.46762 0.41462 0.49471
 C1087 C 0.45006 0.41889 0.48896
 C1088 C 0.44719 0.43350 0.47726
 C1089 C 0.46186 0.44401 0.47117
 C1090 C 0.47946 0.43963 0.47702
 C1091 C 0.47057 0.39956 0.50673
 C1092 C 0.47303 0.38695 0.51680
 C1093 C 0.47591 0.37217 0.52857
 C1094 C 0.47836 0.35954 0.53863
 C1095 C 0.48130 0.34446 0.55062
 C1096 C 0.48945 0.32862 0.54414
 C1097 C 0.49230 0.31395 0.55578
 C1098 C 0.48700 0.31494 0.57408
 C1099 C 0.47881 0.33093 0.58046
 C1100 C 0.47599 0.34558 0.56879
 H1101 H 0.49595 0.42184 0.49310
 H1102 H 0.43860 0.41092 0.49349
 H1103 H 0.43354 0.43654 0.47282
 H1104 H 0.49094 0.44761 0.47261
 H1105 H 0.49356 0.32758 0.53008
 H1106 H 0.49841 0.30176 0.55040
 H1107 H 0.47480 0.33220 0.59451
 H1108 H 0.46971 0.35780 0.57396
 C1109 C -0.05001 0.91862 -0.01126
 C1110 C -0.03244 0.91437 -0.00551
 C1111 C -0.01778 0.92479 -0.01151
 C1112 C -0.02065 0.93939 -0.02321
 C1113 C -0.03826 0.94375 -0.02905
 C1114 C -0.05291 0.93322 -0.02296
 C1115 C -0.02947 0.89933 0.00653
 C1116 C -0.02699 0.88673 0.01661
 C1117 C -0.02409 0.87198 0.02840
 C1118 C -0.02161 0.85936 0.03847
 C1119 C -0.01867 0.84431 0.05049
 C1120 C -0.02398 0.84546 0.06866
 C1121 C -0.02115 0.83083 0.08035
 C1122 C -0.01294 0.81484 0.07401
 C1123 C -0.00763 0.81383 0.05571
 C1124 C -0.01049 0.82847 0.04405
 H1125 H -0.06146 0.91063 -0.00672
 H1126 H -0.00412 0.92164 -0.00713
 H1127 H -0.00918 0.94740 -0.02762
 H1128 H -0.06657 0.93624 -0.02739
 H1129 H -0.03028 0.85768 0.07381
 H1130 H -0.02517 0.83212 0.09440
 H1131 H -0.00150 0.80162 0.05036
 H1132 H -0.00637 0.82741 0.02999
 C1133 C 0.05019 0.58164 -0.01149
 C1134 C 0.03263 0.58592 -0.00573
 C1135 C 0.01794 0.57552 -0.01171
 C1136 C 0.02079 0.56090 -0.02340
 C1137 C 0.03838 0.55651 -0.02926
 C1138 C 0.05306 0.56703 -0.02319
 C1139 C 0.02968 0.60098 0.00630
 C1140 C 0.02722 0.61359 0.01638
 C1141 C 0.02435 0.62837 0.02817
 C1142 C 0.02191 0.64098 0.03825
 C1143 C 0.01900 0.65604 0.05029
 C1144 C 0.00187 0.65896 0.05790
 C1145 C -0.00097 0.67359 0.06960
 C1146 C 0.01330 0.68549 0.07385
 C1147 C 0.03047 0.68243 0.06613
 C1148 C 0.03328 0.66780 0.05442
 H1149 H 0.06165 0.58962 -0.00697
 H1150 H 0.00430 0.57870 -0.00731
 H1151 H 0.00930 0.55291 -0.02780
 H1152 H 0.06670 0.56398 -0.02763
 H1153 H -0.00926 0.64991 0.05483
 H1154 H -0.01428 0.67544 0.07550
 H1155 H 0.04166 0.69148 0.06894
 H1156 H 0.04657 0.66570 0.04857
 C1157 C 0.51781 0.07533 0.48855
 C1158 C 0.53250 0.08575 0.49451
 C1159 C 0.55006 0.08146 0.48876
 C1160 C 0.55293 0.06683 0.47708
 C1161 C 0.53825 0.05630 0.47102
 C1162 C 0.52066 0.06070 0.47688
 C1163 C 0.52955 0.10083 0.50652
 C1164 C 0.52709 0.11346 0.51656
 C1165 C 0.52422 0.12826 0.52833
 C1166 C 0.52178 0.14090 0.53837
 C1167 C 0.51887 0.15600 0.55037
 C1168 C 0.53315 0.16777 0.55446
 C1169 C 0.53035 0.18242 0.56614
 C1170 C 0.51319 0.18550 0.57388
 C1171 C 0.49892 0.17358 0.56966
 C1172 C 0.50175 0.15893 0.55799
 H1173 H 0.50417 0.07852 0.49294
 H1174 H 0.56152 0.08944 0.49327
 H1175 H 0.56657 0.06378 0.47264
 H1176 H 0.50917 0.05270 0.47249
 H1177 H 0.54645 0.16565 0.54860
 H1178 H 0.54155 0.19148 0.56892
 H1179 H 0.48562 0.17545 0.57557
 H1180 H 0.49061 0.14987 0.55495
 C1181 C -0.01783 0.07510 0.51141
 C1182 C -0.03252 0.08550 0.50544
 C1183 C -0.05008 0.08123 0.51121
 C1184 C -0.05295 0.06662 0.52290
 C1185 C -0.03828 0.05610 0.52897
 C1186 C -0.02069 0.06048 0.52311
 C1187 C -0.02957 0.10056 0.49342
 C1188 C -0.02711 0.11317 0.48335
 C1189 C -0.02423 0.12795 0.47157
 C1190 C -0.02177 0.14058 0.46152
 C1191 C -0.01883 0.15565 0.44952
 C1192 C -0.02412 0.15451 0.43134
 C1193 C -0.02129 0.16915 0.41967
 C1194 C -0.01309 0.18514 0.42603
 C1195 C -0.00781 0.18614 0.44433
 C1196 C -0.01067 0.17149 0.45598
 H1197 H -0.00419 0.07826 0.50702
 H1198 H -0.06154 0.08921 0.50669
 H1199 H -0.06660 0.06359 0.52735
 H1200 H -0.00920 0.05249 0.52750
 H1201 H -0.03041 0.14229 0.42618
 H1202 H -0.02529 0.16787 0.40561
 H1203 H -0.00169 0.19834 0.44970
 H1204 H -0.00657 0.17253 0.47004
 C1205 C 0.48216 0.57510 1.01149
 C1206 C 0.46748 0.58551 1.00552
 C1207 C 0.44992 0.58125 1.01128
 C1208 C 0.44704 0.56664 1.02297
 C1209 C 0.46170 0.55611 1.02904
 C1210 C 0.47930 0.56048 1.02318
 C1211 C 0.47044 0.60057 0.99349
 C1212 C 0.47291 0.61318 0.98343
 C1213 C 0.47580 0.62796 0.97165
 C1214 C 0.47826 0.64058 0.96160
 C1215 C 0.48120 0.65566 0.94960
 C1216 C 0.47590 0.65452 0.93142
 C1217 C 0.47873 0.66916 0.91975
 C1218 C 0.48692 0.68515 0.92611
 C1219 C 0.49221 0.68616 0.94441
 C1220 C 0.48935 0.67150 0.95606
 H1221 H 0.49581 0.57826 1.00710
 H1222 H 0.43847 0.58924 1.00676
 H1223 H 0.43339 0.56362 1.02741
 H1224 H 0.49078 0.55248 1.02758
 H1225 H 0.46962 0.64230 0.92626
 H1226 H 0.47472 0.66788 0.90569
 H1227 H 0.49832 0.69836 0.94978
 H1228 H 0.49346 0.67255 0.97012
 C1229 C 0.53063 0.91200 1.02433
 C1230 C 0.53257 0.91425 1.00559
 C1231 C 0.53738 0.93120 0.99858
 C1232 C 0.54025 0.94583 1.01026
 C1233 C 0.53834 0.94369 1.02909
 C1234 C 0.53350 0.92662 1.03602
 C1235 C 0.52962 0.89919 0.99357
 C1236 C 0.52716 0.88657 0.98350
 C1237 C 0.52428 0.87178 0.97173
 C1238 C 0.52183 0.85915 0.96167
 C1239 C 0.51891 0.84407 0.94966
 C1240 C 0.52419 0.84522 0.93148
 C1241 C 0.52136 0.83058 0.91980
 C1242 C 0.51320 0.81457 0.92616
 C1243 C 0.50795 0.81356 0.94447
 C1244 C 0.51080 0.82821 0.95613
 H1245 H 0.52694 0.89894 1.02990
 H1246 H 0.53889 0.93310 0.98410
 H1247 H 0.54383 0.95888 1.00461
 H1248 H 0.53208 0.92462 1.05048
 H1249 H 0.53043 0.85746 0.92632
 H1250 H 0.52534 0.83187 0.90573
 H1251 H 0.50186 0.80135 0.94984
 H1252 H 0.50671 0.82716 0.97019
 C1253 C 0.01803 0.42453 0.51168
 C1254 C 0.03270 0.41411 0.50569
 C1255 C 0.05027 0.41837 0.51143
 C1256 C 0.05316 0.43298 0.52313
 C1257 C 0.03850 0.44352 0.52922
 C1258 C 0.02090 0.43915 0.52337
 C1259 C 0.02973 0.39906 0.49366
 C1260 C 0.02725 0.38645 0.48359
 C1261 C 0.02435 0.37167 0.47180
 C1262 C 0.02189 0.35906 0.46173
 C1263 C 0.01896 0.34399 0.44970
 C1264 C 0.02423 0.34516 0.43152
 C1265 C 0.02140 0.33054 0.41982
 C1266 C 0.01322 0.31453 0.42617
 C1267 C 0.00796 0.31350 0.44447
 C1268 C 0.01082 0.32814 0.45615
 H1269 H 0.00438 0.42137 0.50730
 H1270 H 0.06172 0.41038 0.50690
 H1271 H 0.06681 0.43601 0.52756
 H1272 H 0.00943 0.44716 0.52778
 H1273 H 0.03050 0.35739 0.42638
 H1274 H 0.02538 0.33184 0.40576
 H1275 H 0.00186 0.30129 0.44983
 H1276 H 0.00673 0.32707 0.47021
 C1277 C 0.42482 0.48876 0.48246
 C1278 C 0.41441 0.49473 0.46777
 C1279 C 0.41868 0.48896 0.45021
 C1280 C 0.43329 0.47726 0.44734
 C1281 C 0.44382 0.47120 0.46201
 C1282 C 0.43944 0.47706 0.47961
 C1283 C 0.39936 0.50677 0.47072
 C1284 C 0.38674 0.51684 0.47317
 C1285 C 0.37196 0.52863 0.47604
 C1286 C 0.35934 0.53870 0.47848
 C1287 C 0.34426 0.55072 0.48138
 C1288 C 0.33250 0.55482 0.46709
 C1289 C 0.31785 0.56650 0.46989
 C1290 C 0.31477 0.57423 0.48705
 C1291 C 0.32668 0.57000 0.50133
 C1292 C 0.34132 0.55833 0.49850
 H1293 H 0.42165 0.49317 0.49611
 H1294 H 0.41070 0.49348 0.43875
 H1295 H 0.43632 0.47281 0.43369
 H1296 H 0.44744 0.47267 0.49109
 H1297 H 0.33462 0.54896 0.45379
 H1298 H 0.30879 0.56928 0.45868
 H1299 H 0.32481 0.57591 0.51463
 H1300 H 0.35038 0.55529 0.50964
 C1301 C 0.92467 -0.01154 -0.01769
 C1302 C 0.91424 -0.00557 -0.03237
 C1303 C 0.91850 -0.01132 -0.04994
 C1304 C 0.93311 -0.02301 -0.05283
 C1305 C 0.94366 -0.02908 -0.03817
 C1306 C 0.93929 -0.02323 -0.02057
 C1307 C 0.89919 0.00646 -0.02940
 C1308 C 0.88657 0.01654 -0.02693
 C1309 C 0.87181 0.02833 -0.02404
 C1310 C 0.85919 0.03841 -0.02159
 C1311 C 0.84413 0.05044 -0.01868
 C1312 C 0.83236 0.05455 -0.03297
 C1313 C 0.81773 0.06626 -0.03017
 C1314 C 0.81468 0.07400 -0.01300
 C1315 C 0.82659 0.06977 0.00127
 C1316 C 0.84121 0.05807 -0.00157
 H1317 H 0.92151 -0.00715 -0.00404
 H1318 H 0.91050 -0.00680 -0.06139
 H1319 H 0.93614 -0.02745 -0.06649
 H1320 H 0.94730 -0.02762 -0.00909
 H1321 H 0.83446 0.04868 -0.04626
 H1322 H 0.80867 0.06905 -0.04136
 H1323 H 0.82474 0.07569 0.01457
 H1324 H 0.85027 0.05502 0.00958
 C1325 C 0.58807 -0.02425 0.03040
 C1326 C 0.58576 -0.00553 0.03235
 C1327 C 0.56879 0.00143 0.03719
 C1328 C 0.55418 -0.01028 0.04007
 C1329 C 0.55639 -0.02909 0.03816
 C1330 C 0.57348 -0.03597 0.03329
 C1331 C 0.60080 0.00652 0.02941
 C1332 C 0.61340 0.01661 0.02695
 C1333 C 0.62816 0.02842 0.02409
 C1334 C 0.64076 0.03851 0.02166
 C1335 C 0.65582 0.05055 0.01876
 C1336 C 0.65874 0.05818 0.00165
 C1337 C 0.67337 0.06987 -0.00117
 C1338 C 0.68528 0.07410 0.01311
 C1339 C 0.68222 0.06636 0.03027
 C1340 C 0.66759 0.05466 0.03306
 H1341 H 0.60115 -0.02978 0.02670
 H1342 H 0.56684 0.01589 0.03870
 H1343 H 0.54111 -0.00467 0.04368
 H1344 H 0.57552 -0.05042 0.03187
 H1345 H 0.64969 0.05513 -0.00949
 H1346 H 0.67523 0.07579 -0.01447
 H1347 H 0.69128 0.06915 0.04147
 H1348 H 0.66548 0.04879 0.04634
 C1349 C 0.08170 0.48851 0.55010
 C1350 C 0.08595 0.49425 0.53253
 C1351 C 0.07555 0.48824 0.51785
 C1352 C 0.06094 0.47654 0.52073
 C1353 C 0.05657 0.47071 0.53833
 C1354 C 0.06710 0.47681 0.55300
 C1355 C 0.10099 0.50630 0.52956
 C1356 C 0.11358 0.51640 0.52709
 C1357 C 0.12833 0.52822 0.52421
 C1358 C 0.14093 0.53832 0.52176
 C1359 C 0.15597 0.55038 0.51885
 C1360 C 0.15886 0.55802 0.50174
 C1361 C 0.17346 0.56974 0.49891
 C1362 C 0.18538 0.57399 0.51318
 C1363 C 0.18235 0.56623 0.53033
 C1364 C 0.16774 0.55450 0.53313
 H1365 H 0.08968 0.49306 0.56155
 H1366 H 0.07870 0.49262 0.50420
 H1367 H 0.05294 0.47212 0.50925
 H1368 H 0.06407 0.47238 0.56665
 H1369 H 0.14979 0.55496 0.49060
 H1370 H 0.17529 0.57568 0.48561
 H1371 H 0.19141 0.56903 0.54153
 H1372 H 0.16566 0.54861 0.54642
 C1373 C 0.08151 0.51145 -0.05018
 C1374 C 0.08577 0.50571 -0.03261
 C1375 C 0.07538 0.51174 -0.01793
 C1376 C 0.06079 0.52346 -0.02079
 C1377 C 0.05642 0.52930 -0.03839
 C1378 C 0.06693 0.52318 -0.05306
 C1379 C 0.10079 0.49364 -0.02965
 C1380 C 0.11337 0.48353 -0.02719
 C1381 C 0.12811 0.47170 -0.02430
 C1382 C 0.14070 0.46160 -0.02182
 C1383 C 0.15574 0.44955 -0.01886
 C1384 C 0.17161 0.45597 -0.01071
 C1385 C 0.18623 0.44428 -0.00783
 C1386 C 0.18517 0.42599 -0.01310
 C1387 C 0.16915 0.41968 -0.02130
 C1388 C 0.15454 0.43139 -0.02414
 H1389 H 0.08948 0.50689 -0.06164
 H1390 H 0.07854 0.50736 -0.00428
 H1391 H 0.05280 0.52789 -0.00931
 H1392 H 0.06389 0.52760 -0.06672
 H1393 H 0.17270 0.47002 -0.00661
 H1394 H 0.19846 0.44961 -0.00172
 H1395 H 0.16783 0.40563 -0.02529
 H1396 H 0.14230 0.42627 -0.03042
 C1397 C 0.58141 1.01128 0.45011
 C1398 C 0.58568 1.00555 0.46768
 C1399 C 0.57528 1.01156 0.48237
 C1400 C 0.56067 1.02326 0.47950
 C1401 C 0.55629 1.02909 0.46190
 C1402 C 0.56681 1.02298 0.44723
 C1403 C 0.60073 0.99350 0.47063
 C1404 C 0.61333 0.98342 0.47310
 C1405 C 0.62809 0.97162 0.47596
 C1406 C 0.64071 0.96154 0.47840
 C1407 C 0.65577 0.94950 0.48129
 C1408 C 0.65868 0.94185 0.49840
 C1409 C 0.67330 0.93016 0.50122
 C1410 C 0.68523 0.92594 0.48694
 C1411 C 0.68218 0.93370 0.46979
 C1412 C 0.66755 0.94540 0.46700
 H1413 H 0.58938 1.00673 0.43865
 H1414 H 0.57845 1.00719 0.49602
 H1415 H 0.55268 1.02769 0.49099
 H1416 H 0.56377 1.02740 0.43357
 H1417 H 0.64961 0.94489 0.50954
 H1418 H 0.67515 0.92422 0.51451
 H1419 H 0.69125 0.93092 0.45859
 H1420 H 0.66546 0.95129 0.45372
 C1421 C 0.91854 1.01114 0.54992
 C1422 C 0.91427 1.00538 0.53236
 C1423 C 0.92467 1.01137 0.51767
 C1424 C 0.93929 1.02306 0.52052
 C1425 C 0.94367 1.02891 0.53812
 C1426 C 0.93315 1.02284 0.55279
 C1427 C 0.89921 0.99335 0.52941
 C1428 C 0.88660 0.98328 0.52695
 C1429 C 0.87182 0.97149 0.52408
 C1430 C 0.85920 0.96143 0.52164
 C1431 C 0.84413 0.94940 0.51873
 C1432 C 0.84119 0.94180 0.50161
 C1433 C 0.82655 0.93012 0.49877
 C1434 C 0.81464 0.92588 0.51306
 C1435 C 0.81772 0.93361 0.53022
 C1436 C 0.83236 0.94529 0.53302
 H1437 H 0.91056 1.00661 0.56138
 H1438 H 0.92150 1.00698 0.50402
 H1439 H 0.94729 1.02746 0.50903
 H1440 H 0.93619 1.02727 0.56644
 H1441 H 0.85025 0.94485 0.49046
 H1442 H 0.82469 0.92421 0.48547
 H1443 H 0.80866 0.93081 0.54142
 H1444 H 0.83447 0.95115 0.54632
 C1445 C 0.42462 0.51140 0.01773
 C1446 C 0.41421 0.50543 0.03242
 C1447 C 0.41848 0.51118 0.04998
 C1448 C 0.43310 0.52287 0.05286
 C1449 C 0.44363 0.52894 0.03819
 C1450 C 0.43925 0.52309 0.02059
 C1451 C 0.39915 0.49341 0.02947
 C1452 C 0.38652 0.48335 0.02701
 C1453 C 0.37174 0.47156 0.02414
 C1454 C 0.35912 0.46150 0.02169
 C1455 C 0.34404 0.44948 0.01879
 C1456 C 0.33227 0.44539 0.03307
 C1457 C 0.31762 0.43370 0.03027
 C1458 C 0.31456 0.42596 0.01311
 C1459 C 0.32648 0.43019 -0.00117
 C1460 C 0.34112 0.44186 0.00167
 H1461 H 0.42145 0.50701 0.00408
 H1462 H 0.41049 0.50667 0.06145
 H1463 H 0.43614 0.52731 0.06651
 H1464 H 0.44725 0.52748 0.00910
 H1465 H 0.33437 0.45125 0.04637
 H1466 H 0.30856 0.43092 0.04147
 H1467 H 0.32463 0.42427 -0.01447
 H1468 H 0.35019 0.44490 -0.00947
 C1469 C 0.48857 0.48243 0.42492
 C1470 C 0.49454 0.46774 0.41451
 C1471 C 0.48876 0.45020 0.41879
 C1472 C 0.47707 0.44735 0.43342
 C1473 C 0.47101 0.46202 0.44395
 C1474 C 0.47688 0.47960 0.43955
 C1475 C 0.50656 0.47067 0.39944
 C1476 C 0.51663 0.47311 0.38681
 C1477 C 0.52842 0.47596 0.37202
 C1478 C 0.53848 0.47839 0.35938
 C1479 C 0.55049 0.48128 0.34429
 C1480 C 0.55458 0.46700 0.33250
 C1481 C 0.56625 0.46979 0.31784
 C1482 C 0.57399 0.48694 0.31477
 C1483 C 0.56978 0.50121 0.32669
 C1484 C 0.55811 0.49838 0.34135
 H1485 H 0.49297 0.49606 0.42174
 H1486 H 0.49328 0.43874 0.41081
 H1487 H 0.47262 0.43372 0.43647
 H1488 H 0.47249 0.49108 0.44755
 H1489 H 0.54871 0.45372 0.33462
 H1490 H 0.56903 0.45860 0.30878
 H1491 H 0.57569 0.51450 0.32483
 H1492 H 0.55507 0.50952 0.35042
 C1493 C -0.01162 -0.01773 0.92474
 C1494 C -0.00563 -0.03239 0.91431
 C1495 C -0.01137 -0.04995 0.91857
 C1496 C -0.02306 -0.05284 0.93320
 C1497 C -0.02915 -0.03819 0.94374
 C1498 C -0.02331 -0.02060 0.93937
 C1499 C 0.00639 -0.02943 0.89925
 C1500 C 0.01646 -0.02695 0.88662
 C1501 C 0.02825 -0.02407 0.87184
 C1502 C 0.03832 -0.02161 0.85921
 C1503 C 0.05034 -0.01870 0.84413
 C1504 C 0.05445 -0.03296 0.83234
 C1505 C 0.06615 -0.03015 0.81770
 C1506 C 0.07389 -0.01301 0.81466
 C1507 C 0.06965 0.00126 0.82659
 C1508 C 0.05796 -0.00159 0.84123
 H1509 H -0.00724 -0.00409 0.92158
 H1510 H -0.00684 -0.06139 0.91058
 H1511 H -0.02749 -0.06649 0.93623
 H1512 H -0.02771 -0.00913 0.94738
 H1513 H 0.04858 -0.04625 0.83444
 H1514 H 0.06894 -0.04134 0.80863
 H1515 H 0.07557 0.01454 0.82475
 H1516 H 0.05491 0.00954 0.85030
 C1517 C -0.01134 0.04986 0.58131
 C1518 C -0.00557 0.03231 0.58557
 C1519 C -0.01155 0.01763 0.57516
 C1520 C -0.02326 0.02048 0.56054
 C1521 C -0.02912 0.03806 0.55617
 C1522 C -0.02305 0.05273 0.56670
 C1523 C 0.00647 0.02937 0.60063
 C1524 C 0.01655 0.02692 0.61325
 C1525 C 0.02834 0.02406 0.62802
 C1526 C 0.03842 0.02163 0.64064
 C1527 C 0.05045 0.01874 0.65572
 C1528 C 0.05810 0.00165 0.65864
 C1529 C 0.06978 -0.00117 0.67328
 C1530 C 0.07398 0.01310 0.68521
 C1531 C 0.06622 0.03023 0.68215
 C1532 C 0.05453 0.03302 0.66750
 H1533 H -0.00682 0.06131 0.58930
 H1534 H -0.00715 0.00400 0.57832
 H1535 H -0.02765 0.00900 0.55254
 H1536 H -0.02750 0.06636 0.56367
 H1537 H 0.05507 -0.00949 0.64957
 H1538 H 0.07572 -0.01445 0.67513
 H1539 H 0.06899 0.04142 0.69122
 H1540 H 0.04864 0.04629 0.66540
 C1541 C 0.48839 0.51762 0.07524
 C1542 C 0.49437 0.53230 0.08565
 C1543 C 0.48862 0.54985 0.08139
 C1544 C 0.47692 0.55273 0.06678
 C1545 C 0.47084 0.53807 0.05624
 C1546 C 0.47669 0.52048 0.06062
 C1547 C 0.50641 0.52935 0.10071
 C1548 C 0.51648 0.52689 0.11333
 C1549 C 0.52828 0.52402 0.12811
 C1550 C 0.53835 0.52158 0.14073
 C1551 C 0.55038 0.51869 0.15581
 C1552 C 0.55446 0.53296 0.16759
 C1553 C 0.56616 0.53017 0.18223
 C1554 C 0.57392 0.51304 0.18528
 C1555 C 0.56971 0.49877 0.17335
 C1556 C 0.55803 0.50159 0.15871
 H1557 H 0.49278 0.50399 0.07840
 H1558 H 0.49315 0.56130 0.08938
 H1559 H 0.47248 0.56637 0.06374
 H1560 H 0.47229 0.50901 0.05261
 H1561 H 0.54858 0.54624 0.16550
 H1562 H 0.56893 0.54136 0.19131
 H1563 H 0.57565 0.48549 0.17520
 H1564 H 0.55500 0.49046 0.14964
 C1565 C 0.52440 -0.03045 0.08797
 C1566 C 0.50568 -0.03244 0.08570
 C1567 C 0.49870 -0.03730 0.06874
 C1568 C 0.51038 -0.04016 0.05411
 C1569 C 0.52921 -0.03821 0.05627
 C1570 C 0.53611 -0.03332 0.07335
 C1571 C 0.49364 -0.02951 0.10076
 C1572 C 0.48356 -0.02706 0.11338
 C1573 C 0.47176 -0.02419 0.12816
 C1574 C 0.46168 -0.02175 0.14079
 C1575 C 0.44965 -0.01882 0.15586
 C1576 C 0.43148 -0.02410 0.15467
 C1577 C 0.41977 -0.02128 0.16931
 C1578 C 0.42611 -0.01312 0.18534
 C1579 C 0.44441 -0.00786 0.18639
 C1580 C 0.45609 -0.01070 0.17174
 H1581 H 0.52995 -0.02672 0.10104
 H1582 H 0.48422 -0.03884 0.06683
 H1583 H 0.50476 -0.04379 0.04105
 H1584 H 0.55057 -0.03187 0.07537
 H1585 H 0.42634 -0.03035 0.14242
 H1586 H 0.40572 -0.02526 0.16799
 H1587 H 0.44975 -0.00177 0.19862
 H1588 H 0.47014 -0.00662 0.17282
 C1589 C 1.01158 0.44984 0.58157
 C1590 C 1.00581 0.46740 0.58581
 C1591 C 1.01180 0.48206 0.57538
 C1592 C 1.02351 0.47918 0.56077
 C1593 C 1.02937 0.46159 0.55642
 C1594 C 1.02329 0.44695 0.56696
 C1595 C 0.99375 0.47036 0.60085
 C1596 C 0.98365 0.47285 0.61345
 C1597 C 0.97184 0.47575 0.62821
 C1598 C 0.96175 0.47822 0.64082
 C1599 C 0.94968 0.48116 0.65586
 C1600 C 0.93152 0.47587 0.65466
 C1601 C 0.91979 0.47870 0.66927
 C1602 C 0.92609 0.48690 0.68529
 C1603 C 0.94438 0.49219 0.68636
 C1604 C 0.95609 0.48932 0.67173
 H1605 H 1.00705 0.43840 0.58956
 H1606 H 1.00740 0.49570 0.57853
 H1607 H 1.02792 0.49064 0.55276
 H1608 H 1.02774 0.43330 0.56394
 H1609 H 0.92641 0.46958 0.64241
 H1610 H 0.90574 0.47470 0.66794
 H1611 H 0.94970 0.49831 0.69859
 H1612 H 0.97014 0.49343 0.67283
 C1613 C 1.01161 0.51798 0.92461
 C1614 C 1.00563 0.53264 0.91418
 C1615 C 1.01142 0.55020 0.91841
 C1616 C 1.02314 0.55308 0.93301
 C1617 C 1.02921 0.53844 0.94355
 C1618 C 1.02333 0.52085 0.93921
 C1619 C 0.99357 0.52968 0.89914
 C1620 C 0.98347 0.52720 0.88655
 C1621 C 0.97165 0.52431 0.87179
 C1622 C 0.96156 0.52186 0.85919
 C1623 C 0.94951 0.51893 0.84413
 C1624 C 0.94539 0.53319 0.83234
 C1625 C 0.93368 0.53036 0.81772
 C1626 C 0.92595 0.51321 0.81468
 C1627 C 0.93019 0.49896 0.82661
 C1628 C 0.94189 0.50182 0.84124
 H1629 H 1.00720 0.50434 0.92147
 H1630 H 1.00690 0.56164 0.91041
 H1631 H 1.02760 0.56672 0.93601
 H1632 H 1.02773 0.50939 0.94723
 H1633 H 0.95125 0.54647 0.83443
 H1634 H 0.93088 0.54153 0.80864
 H1635 H 0.92428 0.48567 0.82478
 H1636 H 0.94495 0.49070 0.85031
 C1637 C 0.51132 0.04999 0.41868
 C1638 C 0.50554 0.03244 0.41444
 C1639 C 0.51151 0.01777 0.42487
 C1640 C 0.52322 0.02064 0.43948
 C1641 C 0.52909 0.03822 0.44384
 C1642 C 0.52303 0.05287 0.43329
 C1643 C 0.49350 0.02948 0.39938
 C1644 C 0.48342 0.02701 0.38677
 C1645 C 0.47163 0.02414 0.37200
 C1646 C 0.46155 0.02169 0.35937
 C1647 C 0.44952 0.01878 0.34430
 C1648 C 0.44188 0.00169 0.34139
 C1649 C 0.43020 -0.00115 0.32674
 C1650 C 0.42600 0.01310 0.31481
 C1651 C 0.43375 0.03025 0.31786
 C1652 C 0.44544 0.03305 0.33251
 H1653 H 0.50681 0.06143 0.41068
 H1654 H 0.50710 0.00414 0.42172
 H1655 H 0.52761 0.00917 0.44750
 H1656 H 0.52748 0.06651 0.43631
 H1657 H 0.44492 -0.00944 0.35046
 H1658 H 0.42427 -0.01444 0.32490
 H1659 H 0.43098 0.04143 0.30878
 H1660 H 0.45132 0.04633 0.33460
   
