data_POSCAR
  _audit_creation_date              2014-09-24
  _audit_creation_method            'ToBaCCo'
  _symmetry_space_group_name_H-M    'P1'
  _symmetry_Int_Tables_number       1
  _symmetry_cell_setting            triclinic
  loop_
  _symmetry_equiv_pos_as_xyz
 x,y,z
_cell_length_a 54.3440
_cell_length_b 52.7755
_cell_length_c 52.5525
_cell_angle_alpha 90.277500
_cell_angle_beta 90.328600
_cell_angle_gamma 89.826900
loop_
  _atom_site_label
  _atom_site_type_symbol
  _atom_site_fract_x
  _atom_site_fract_y
  _atom_site_fract_z
N1 N 0.37696 0.31041 0.32225
 N2 N 0.37591 0.32871 0.30542
 C3 C 0.39499 0.32638 0.28939
 C4 C 0.40859 0.30542 0.29645
 C5 C 0.39669 0.29570 0.31746
 H6 H 0.39811 0.33830 0.27304
 H7 H 0.40126 0.27862 0.32775
 Cu8 Cu 0.34820 0.35185 0.30414
 Cu9 Cu 0.35097 0.30555 0.34693
 Cu10 Cu 0.30858 0.35476 0.35316
 N11 N 0.32576 0.38004 0.30833
 N12 N 0.30990 0.38121 0.32711
 C13 C 0.29599 0.40228 0.32433
 C14 C 0.30383 0.41486 0.30270
 C15 C 0.32274 0.40026 0.29320
 H16 H 0.28118 0.40780 0.33686
 H17 H 0.33315 0.40387 0.27613
 N18 N 0.31068 0.32588 0.37718
 N19 N 0.32704 0.30748 0.37470
 C20 C 0.32407 0.29068 0.39356
 C21 C 0.30481 0.29856 0.40853
 C22 C 0.29664 0.32101 0.39771
 H23 H 0.33493 0.27368 0.39614
 H24 H 0.28162 0.33281 0.40419
 H25 H 0.32166 0.32600 0.33121
 H26 H 0.34518 0.34419 0.34955
 N27 N 0.37828 0.80412 -0.17183
 N28 N 0.38362 0.82504 -0.18402
 C29 C 0.40463 0.82147 -0.19705
 C30 C 0.41275 0.79684 -0.19271
 C31 C 0.39555 0.78646 -0.17664
 H32 H 0.41293 0.83556 -0.20911
 H33 H 0.39534 0.76733 -0.16932
 Cu34 Cu 0.36159 0.85425 -0.18289
 Cu35 Cu 0.34869 0.80094 -0.15179
 Cu36 Cu 0.31857 0.85715 -0.13722
 N37 N 0.33574 0.87988 -0.18361
 N38 N 0.31890 0.88124 -0.16575
 C39 C 0.30377 0.90094 -0.17080
 C40 C 0.31155 0.91242 -0.19318
 C41 C 0.33187 0.89848 -0.20065
 H42 H 0.28828 0.90627 -0.15909
 H43 H 0.34294 0.90160 -0.21738
 N44 N 0.31478 0.82574 -0.11685
 N45 N 0.32579 0.80434 -0.12331
 C46 C 0.32064 0.78646 -0.10606
 C47 C 0.30565 0.79684 -0.08774
 C48 C 0.30210 0.82187 -0.09514
 H49 H 0.32790 0.76736 -0.10637
 H50 H 0.29149 0.83623 -0.08534
 H51 H 0.32704 0.83179 -0.16386
 H52 H 0.35235 0.83806 -0.14056
 N53 N 0.88374 0.31172 -0.17521
 N54 N 0.88512 0.32993 -0.19217
 C55 C 0.90376 0.32496 -0.20823
 C56 C 0.91479 0.30243 -0.20102
 C57 C 0.90162 0.29456 -0.17998
 H58 H 0.90875 0.33673 -0.22414
 H59 H 0.90466 0.27744 -0.16917
 Cu60 Cu 0.86190 0.35799 -0.19209
 Cu61 Cu 0.85834 0.31155 -0.14861
 Cu62 Cu 0.81692 0.36182 -0.14921
 N63 N 0.83840 0.38585 -0.19275
 N64 N 0.82102 0.38721 -0.17552
 C65 C 0.80666 0.40740 -0.18026
 C66 C 0.81536 0.41937 -0.20184
 C67 C 0.83559 0.40520 -0.20923
 H68 H 0.79067 0.41235 -0.16916
 H69 H 0.84692 0.40840 -0.22575
 N70 N 0.81552 0.33445 -0.12402
 N71 N 0.83117 0.31525 -0.12350
 C72 C 0.82473 0.29961 -0.10437
 C73 C 0.80402 0.30954 -0.09248
 C74 C 0.79878 0.33150 -0.10548
 H75 H 0.83403 0.28206 -0.09982
 H76 H 0.78354 0.34418 -0.10182
 H77 H 0.83268 0.33178 -0.16902
 H78 H 0.85332 0.35001 -0.14728
 N79 N 0.87821 0.82388 0.32578
 N80 N 0.87555 0.84236 0.30928
 C81 C 0.89252 0.83963 0.29085
 C82 C 0.90650 0.81835 0.29607
 C83 C 0.89693 0.80882 0.31844
 H84 H 0.89435 0.85188 0.27454
 H85 H 0.90278 0.79199 0.32845
 Cu86 Cu 0.84939 0.86741 0.31306
 Cu87 Cu 0.85663 0.82005 0.35506
 Cu88 Cu 0.81053 0.86508 0.36229
 N89 N 0.82347 0.89266 0.31744
 N90 N 0.80840 0.89152 0.33686
 C91 C 0.79157 0.91016 0.33499
 C92 C 0.79620 0.92370 0.31319
 C93 C 0.81671 0.91216 0.30247
 H94 H 0.77661 0.91325 0.34816
 H95 H 0.82562 0.91703 0.28484
 N96 N 0.81548 0.83696 0.38606
 N97 N 0.83287 0.81966 0.38336
 C98 C 0.83052 0.80235 0.40196
 C99 C 0.81073 0.80912 0.41693
 C100 C 0.80166 0.83117 0.40635
 H101 H 0.84190 0.78565 0.40414
 H102 H 0.78577 0.84186 0.41248
 H103 H 0.82644 0.83769 0.33911
 H104 H 0.84784 0.85784 0.35831
 N105 N 0.62941 0.68819 0.33213
 N106 N 0.62867 0.67056 0.31435
 C107 C 0.60907 0.67510 0.29907
 C108 C 0.59709 0.69677 0.30784
 C109 C 0.61055 0.70442 0.32880
 H110 H 0.60424 0.66386 0.28254
 H111 H 0.60715 0.72105 0.34038
 Cu112 Cu 0.65420 0.64396 0.31261
 Cu113 Cu 0.65589 0.69023 0.35699
 Cu114 Cu 0.70053 0.64395 0.35576
 N115 N 0.67862 0.61630 0.31429
 N116 N 0.69621 0.61656 0.33159
 C117 C 0.71080 0.59620 0.32853
 C118 C 0.70219 0.58227 0.30819
 C119 C 0.68162 0.59550 0.29949
 H120 H 0.72700 0.59212 0.33986
 H121 H 0.67009 0.59067 0.28336
 N122 N 0.69912 0.67012 0.38232
 N123 N 0.68185 0.68771 0.38309
 C124 C 0.68610 0.70301 0.40322
 C125 C 0.70713 0.69456 0.41559
 C126 C 0.71483 0.67372 0.40189
 H127 H 0.67508 0.71937 0.40809
 H128 H 0.73097 0.66231 0.40573
 H129 H 0.68236 0.67199 0.33576
 H130 H 0.66342 0.65170 0.35718
 N131 N 0.61297 0.17791 -0.17266
 N132 N 0.61178 0.15663 -0.18569
 C133 C 0.59358 0.15819 -0.20305
 C134 C 0.58267 0.18168 -0.20077
 C135 C 0.59538 0.19377 -0.18123
 H136 H 0.58916 0.14364 -0.21690
 H137 H 0.59276 0.21294 -0.17441
 Cu138 Cu 0.63536 0.12982 -0.18050
 Cu139 Cu 0.63848 0.18389 -0.14697
 Cu140 Cu 0.68624 0.14018 -0.14545
 N141 N 0.66415 0.10881 -0.18405
 N142 N 0.68424 0.11288 -0.17061
 C143 C 0.70182 0.09655 -0.17827
 C144 C 0.69205 0.08166 -0.19769
 C145 C 0.66815 0.08992 -0.20073
 H146 H 0.72038 0.09614 -0.17076
 H147 H 0.65487 0.08323 -0.21462
 N148 N 0.68432 0.16937 -0.12189
 N149 N 0.66617 0.18607 -0.12258
 C150 C 0.67016 0.20381 -0.10454
 C151 C 0.69176 0.19801 -0.09189
 C152 C 0.70030 0.17603 -0.10335
 H153 H 0.65831 0.21989 -0.10086
 H154 H 0.71696 0.16577 -0.09873
 H155 H 0.66368 0.16277 -0.16741
 H156 H 0.64905 0.14674 -0.13966
 N157 N 0.12590 0.68569 -0.16694
 N158 N 0.12841 0.67004 -0.18630
 C159 C 0.10986 0.67342 -0.20285
 C160 C 0.09490 0.69231 -0.19366
 C161 C 0.10550 0.69987 -0.17075
 H162 H 0.10752 0.66303 -0.22048
 H163 H 0.09908 0.71458 -0.15801
 Cu164 Cu 0.15526 0.64652 -0.18898
 Cu165 Cu 0.14985 0.68624 -0.13887
 Cu166 Cu 0.19549 0.63995 -0.14168
 N167 N 0.17467 0.61614 -0.18582
 N168 N 0.19053 0.61340 -0.16710
 C169 C 0.20305 0.59165 -0.17058
 C170 C 0.19442 0.58025 -0.19276
 C171 C 0.17635 0.59625 -0.20180
 H172 H 0.21797 0.58533 -0.15848
 H173 H 0.16605 0.59420 -0.21937
 N174 N 0.19340 0.66515 -0.11401
 N175 N 0.17631 0.68299 -0.11284
 C176 C 0.18108 0.69805 -0.09255
 C177 C 0.20213 0.68908 -0.08051
 C178 C 0.20928 0.66825 -0.09456
 H179 H 0.17050 0.71465 -0.08740
 H180 H 0.22544 0.65670 -0.09122
 H181 H 0.17904 0.67173 -0.15831
 H182 H 0.15845 0.64826 -0.14291
 N183 N 0.12119 0.18546 0.32962
 N184 N 0.11792 0.16478 0.31598
 C185 C 0.09767 0.16793 0.30125
 C186 C 0.08802 0.19182 0.30646
 C187 C 0.10340 0.20224 0.32440
 H188 H 0.09051 0.15401 0.28800
 H189 H 0.10192 0.22088 0.33293
 Cu190 Cu 0.14108 0.13645 0.31950
 Cu191 Cu 0.14852 0.19026 0.35251
 Cu192 Cu 0.17384 0.13456 0.37421
 N193 N 0.16558 0.10996 0.32601
 N194 N 0.17789 0.10931 0.34764
 C195 C 0.19383 0.08983 0.34728
 C196 C 0.19168 0.07765 0.32416
 C197 C 0.17350 0.09083 0.31101
 H198 H 0.20669 0.08541 0.36242
 H199 H 0.16704 0.08732 0.29183
 N200 N 0.17708 0.16689 0.39249
 N201 N 0.16780 0.18823 0.38364
 C202 C 0.17352 0.20730 0.39954
 C203 C 0.18746 0.19757 0.41909
 C204 C 0.18948 0.17187 0.41417
 H205 H 0.16827 0.22689 0.39684
 H206 H 0.19942 0.15793 0.42523
 H207 H 0.17157 0.15903 0.34518
 H208 H 0.14207 0.15402 0.36257
 N209 N 0.62023 0.31565 0.67178
 N210 N 0.62186 0.33111 0.69140
 C211 C 0.60300 0.32695 0.70726
 C212 C 0.58884 0.30767 0.69729
 C213 C 0.60025 0.30088 0.67466
 H214 H 0.60009 0.33679 0.72510
 H215 H 0.59466 0.28619 0.66145
 Cu216 Cu 0.64913 0.35414 0.69537
 Cu217 Cu 0.64467 0.31584 0.64450
 Cu218 Cu 0.68875 0.36341 0.64767
 N219 N 0.67063 0.38316 0.69509
 N220 N 0.68642 0.38676 0.67662
 C221 C 0.69979 0.40760 0.68195
 C222 C 0.69178 0.41747 0.70501
 C223 C 0.67324 0.40154 0.71268
 H224 H 0.71445 0.41470 0.67016
 H225 H 0.66284 0.40294 0.73012
 N226 N 0.68776 0.33776 0.62009
 N227 N 0.67109 0.31961 0.61896
 C228 C 0.67591 0.30459 0.59877
 C229 C 0.69663 0.31372 0.58660
 C230 C 0.70356 0.33476 0.60061
 H231 H 0.66537 0.28800 0.59362
 H232 H 0.71938 0.34662 0.59714
 H233 H 0.67405 0.33140 0.66418
 H234 H 0.65187 0.35402 0.64925
 N235 N 0.61503 0.82252 1.16811
 N236 N 0.61945 0.83703 1.18802
 C237 C 0.60373 0.83080 1.20669
 C238 C 0.58882 0.81136 1.19796
 C239 C 0.59639 0.80668 1.17331
 H240 H 0.60340 0.83941 1.22541
 H241 H 0.58921 0.79268 1.16017
 Cu242 Cu 0.64596 0.86193 1.18744
 Cu243 Cu 0.63395 0.82496 1.13703
 Cu244 Cu 0.68965 0.85645 1.14331
 N245 N 0.67142 0.88773 1.18388
 N246 N 0.68857 0.88536 1.16647
 C247 C 0.70486 0.90438 1.16904
 C248 C 0.69760 0.91956 1.18914
 C249 C 0.67620 0.90846 1.19812
 H250 H 0.72121 0.90656 1.15763
 H251 H 0.66531 0.91450 1.21420
 N252 N 0.68224 0.83290 1.11519
 N253 N 0.66088 0.82133 1.11257
 C254 C 0.66194 0.80551 1.09246
 C255 C 0.68497 0.80740 1.08181
 C256 C 0.69740 0.82501 1.09662
 H257 H 0.64737 0.79280 1.08659
 H258 H 0.71633 0.83090 1.09472
 H259 H 0.66442 0.83084 1.15889
 H260 H 0.65286 0.85942 1.14169
 N261 N 0.12051 0.31393 1.16314
 N262 N 0.12099 0.32684 1.18458
 C263 C 0.10322 0.31821 1.19996
 C264 C 0.09088 0.29887 1.18738
 C265 C 0.10230 0.29672 1.16405
 H266 H 0.09964 0.32549 1.21884
 H267 H 0.09782 0.28352 1.14892
 Cu268 Cu 0.14456 0.35394 1.19013
 Cu269 Cu 0.14340 0.32080 1.13571
 Cu270 Cu 0.19426 0.35671 1.15302
 N271 N 0.16696 0.38250 1.19197
 N272 N 0.18651 0.38343 1.17739
 C273 C 0.19981 0.40402 1.18355
 C274 C 0.18784 0.41676 1.20303
 C275 C 0.16708 0.40258 1.20787
 H276 H 0.21720 0.40878 1.17494
 H277 H 0.15354 0.40621 1.22245
 N278 N 0.19345 0.33511 1.12246
 N279 N 0.17382 0.32205 1.11558
 C280 C 0.17902 0.30867 1.09445
 C281 C 0.20314 0.31357 1.08768
 C282 C 0.21166 0.33053 1.10575
 H283 H 0.16635 0.29575 1.08527
 H284 H 0.22996 0.33844 1.10698
 H285 H 0.16983 0.32741 1.16243
 H286 H 0.15792 0.35623 1.14595
 N287 N 0.12060 0.81161 0.66754
 N288 N 0.11921 0.82871 0.68570
 C289 C 0.10051 0.82275 0.70127
 C290 C 0.08972 0.80072 0.69223
 C291 C 0.10288 0.79423 0.67084
 H292 H 0.09570 0.83317 0.71829
 H293 H 0.10022 0.77759 0.65907
 Cu294 Cu 0.14293 0.85608 0.68835
 Cu295 Cu 0.14632 0.81199 0.64232
 Cu296 Cu 0.19119 0.85821 0.64758
 N297 N 0.16868 0.88128 0.69160
 N298 N 0.18752 0.88227 0.67603
 C299 C 0.20247 0.90131 0.68360
 C300 C 0.19234 0.91267 0.70508
 C301 C 0.17103 0.89942 0.70951
 H302 H 0.21953 0.90623 0.67439
 H303 H 0.15836 0.90264 0.72499
 N304 N 0.19109 0.83196 0.62016
 N305 N 0.17351 0.81484 0.61832
 C306 C 0.17817 0.79931 0.59862
 C307 C 0.19971 0.80668 0.58735
 C308 C 0.20759 0.82756 0.60140
 H309 H 0.16705 0.78323 0.59310
 H310 H 0.22422 0.83834 0.59850
 H311 H 0.17267 0.82981 0.66563
 H312 H 0.15460 0.85074 0.64382
 N313 N 0.38185 0.68668 0.67371
 N314 N 0.38044 0.67149 0.69339
 C315 C 0.39984 0.67533 0.70881
 C316 C 0.41410 0.69415 0.69853
 C317 C 0.40224 0.70105 0.67616
 H318 H 0.40307 0.66561 0.72660
 H319 H 0.40781 0.71550 0.66288
 Cu320 Cu 0.35288 0.64916 0.69813
 Cu321 Cu 0.35666 0.68640 0.64699
 Cu322 Cu 0.31175 0.63963 0.65144
 N323 N 0.33133 0.62025 0.69854
 N324 N 0.31489 0.61643 0.68050
 C325 C 0.30200 0.59538 0.68616
 C326 C 0.31109 0.58566 0.70893
 C327 C 0.32967 0.60191 0.71610
 H328 H 0.28709 0.58793 0.67468
 H329 H 0.34093 0.60064 0.73308
 N330 N 0.31234 0.66519 0.62374
 N331 N 0.32953 0.68276 0.62208
 C332 C 0.32456 0.69768 0.60195
 C333 C 0.30318 0.68918 0.59035
 C334 C 0.29595 0.66859 0.60466
 H335 H 0.33536 0.71394 0.59660
 H336 H 0.27961 0.65729 0.60164
 H337 H 0.32739 0.67166 0.66725
 H338 H 0.34871 0.64836 0.65212
 N339 N 0.37155 0.17586 1.16500
 N340 N 0.37240 0.15998 1.18420
 C341 C 0.39177 0.16619 1.19924
 C342 C 0.40337 0.18709 1.18870
 C343 C 0.39002 0.19259 1.16713
 H344 H 0.39666 0.15668 1.21674
 H345 H 0.39329 0.20807 1.15419
 Cu346 Cu 0.34722 0.13357 1.18752
 Cu347 Cu 0.34612 0.17512 1.13912
 Cu348 Cu 0.30157 0.12903 1.14373
 N349 N 0.32154 0.10760 1.18974
 N350 N 0.30431 0.10589 1.17212
 C351 C 0.28896 0.08689 1.17780
 C352 C 0.29666 0.07606 1.20023
 C353 C 0.31748 0.08960 1.20744
 H354 H 0.27294 0.08159 1.16671
 H355 H 0.32865 0.08669 1.22426
 N356 N 0.30183 0.15420 1.11635
 N357 N 0.31903 0.17165 1.11463
 C358 C 0.31373 0.18690 1.09496
 C359 C 0.29205 0.17873 1.08377
 C360 C 0.28502 0.15794 1.09776
 H361 H 0.32444 0.20328 1.08983
 H362 H 0.26845 0.14694 1.09505
 H363 H 0.31918 0.15884 1.16154
 H364 H 0.33859 0.13680 1.14210
 N365 N 0.87224 0.68144 1.16933
 N366 N 0.87170 0.66308 1.18619
 C367 C 0.89007 0.66671 1.20322
 C368 C 0.90275 0.68845 1.19674
 C369 C 0.89087 0.69729 1.17509
 H370 H 0.89391 0.65460 1.21930
 H371 H 0.89529 0.71407 1.16434
 Cu372 Cu 0.84667 0.63644 1.18439
 Cu373 Cu 0.84859 0.68379 1.14120
 Cu374 Cu 0.80595 0.63547 1.13632
 N375 N 0.82226 0.60925 1.18093
 N376 N 0.80683 0.60907 1.16159
 C377 C 0.79127 0.58948 1.16378
 C378 C 0.79703 0.57655 1.18566
 C379 C 0.81690 0.58953 1.19622
 H380 H 0.77618 0.58542 1.15092
 H381 H 0.82618 0.58546 1.21399
 N382 N 0.80729 0.66352 1.11230
 N383 N 0.82307 0.68241 1.11410
 C384 C 0.81777 0.69941 1.09568
 C385 C 0.79768 0.69054 1.08192
 C386 C 0.79166 0.66789 1.09295
 H387 H 0.82728 0.71715 1.09299
 H388 H 0.77633 0.65593 1.08765
 H389 H 0.82089 0.66447 1.15877
 H390 H 0.84302 0.64562 1.13918
 N391 N 0.88200 0.19013 0.66205
 N392 N 0.88147 0.17449 0.68143
 C393 C 0.90112 0.17842 0.69647
 C394 C 0.91480 0.19766 0.68623
 C395 C 0.90221 0.20482 0.66430
 H396 H 0.90500 0.16832 0.71390
 H397 H 0.90711 0.21970 0.65122
 Cu398 Cu 0.85514 0.15083 0.68643
 Cu399 Cu 0.85596 0.18999 0.63593
 Cu400 Cu 0.81480 0.14000 0.63947
 N401 N 0.83548 0.12059 0.68567
 N402 N 0.81961 0.11633 0.66723
 C403 C 0.80714 0.09502 0.67230
 C404 C 0.81577 0.08554 0.69521
 C405 C 0.83384 0.10210 0.70307
 H406 H 0.79238 0.08756 0.66063
 H407 H 0.84423 0.10136 0.72067
 N408 N 0.81287 0.16601 0.61300
 N409 N 0.82808 0.18544 0.61169
 C410 C 0.82057 0.20069 0.59257
 C411 C 0.79966 0.19018 0.58152
 C412 C 0.79545 0.16831 0.59490
 H413 H 0.82928 0.21834 0.58754
 H414 H 0.78020 0.15546 0.59211
 H415 H 0.82850 0.17294 0.65640
 H416 H 0.85142 0.15173 0.64046
 N417 N 0.31753 0.38237 0.66397
 N418 N 0.33344 0.38234 0.68291
 C419 C 0.32687 0.40031 0.69984
 C420 C 0.30568 0.41209 0.69093
 C421 C 0.30029 0.40022 0.66820
 H422 H 0.33644 0.40405 0.71753
 H423 H 0.28473 0.40404 0.65587
 Cu424 Cu 0.36032 0.35784 0.68406
 Cu425 Cu 0.31951 0.35863 0.63586
 Cu426 Cu 0.36795 0.31581 0.63652
 N427 N 0.38771 0.33392 0.68391
 N428 N 0.39049 0.31762 0.66515
 C429 C 0.40985 0.30248 0.67012
 C430 C 0.41976 0.30968 0.69329
 C431 C 0.40537 0.32972 0.70150
 H432 H 0.41581 0.28705 0.65803
 H433 H 0.40727 0.33992 0.71929
 N434 N 0.34318 0.31696 0.60927
 N435 N 0.32466 0.33318 0.60915
 C436 C 0.30955 0.32760 0.58960
 C437 C 0.31903 0.30680 0.57694
 C438 C 0.34038 0.30065 0.58973
 H439 H 0.29235 0.33717 0.58573
 H440 H 0.35213 0.28451 0.58594
 H441 H 0.33756 0.33001 0.65538
 H442 H 0.35716 0.35331 0.63814
 N443 N 0.31332 0.87490 0.18553
 N444 N 0.33155 0.87691 0.20191
 C445 C 0.32731 0.89719 0.21710
 C446 C 0.30527 0.90821 0.20942
 C447 C 0.29707 0.89363 0.18940
 H448 H 0.33906 0.90320 0.23264
 H449 H 0.28005 0.89602 0.17889
 Cu450 Cu 0.35813 0.85191 0.20169
 Cu451 Cu 0.31012 0.84695 0.16215
 Cu452 Cu 0.36166 0.80950 0.15277
 N453 N 0.38541 0.82811 0.19868
 N454 N 0.38698 0.81186 0.17966
 C455 C 0.40742 0.79760 0.18289
 C456 C 0.41923 0.80541 0.20511
 C457 C 0.40474 0.82478 0.21449
 H458 H 0.41292 0.78240 0.17027
 H459 H 0.40791 0.83534 0.23188
 N460 N 0.33318 0.81016 0.12864
 N461 N 0.31369 0.82447 0.13299
 C462 C 0.29719 0.82134 0.11419
 C463 C 0.30625 0.80401 0.09709
 C464 C 0.32923 0.79711 0.10672
 H465 H 0.27960 0.83093 0.11302
 H466 H 0.34192 0.78354 0.09856
 H467 H 0.33555 0.81997 0.17712
 H468 H 0.34831 0.84581 0.15693
 N469 N 0.81794 0.37345 0.17309
 N470 N 0.83437 0.37150 0.19149
 C471 C 0.82944 0.38888 0.20965
 C472 C 0.80892 0.40256 0.20228
 C473 C 0.80209 0.39228 0.17889
 H474 H 0.83999 0.39148 0.22697
 H475 H 0.78679 0.39791 0.16695
 Cu476 Cu 0.86082 0.34663 0.18982
 Cu477 Cu 0.81883 0.35170 0.14265
 Cu478 Cu 0.85596 0.29865 0.14892
 N479 N 0.88796 0.32283 0.18492
 N480 N 0.88579 0.30435 0.16822
 C481 C 0.90585 0.28953 0.16913
 C482 C 0.92148 0.29900 0.18749
 C483 C 0.90965 0.32024 0.19727
 H484 H 0.90831 0.27233 0.15813
 H485 H 0.91588 0.33227 0.21270
 N486 N 0.83127 0.30202 0.12211
 N487 N 0.81740 0.32232 0.11880
 C488 C 0.80336 0.31872 0.09775
 C489 C 0.80907 0.29507 0.08755
 C490 C 0.82670 0.28517 0.10351
 H491 H 0.79012 0.33223 0.09046
 H492 H 0.83587 0.26707 0.10146
 H493 H 0.82975 0.32337 0.16532
 H494 H 0.85437 0.33692 0.14491
 N495 N 0.82216 0.88084 0.67538
 N496 N 0.83739 0.87864 0.69475
 C497 C 0.83366 0.89782 0.71115
 C498 C 0.81492 0.91273 0.70176
 C499 C 0.80794 0.90150 0.67895
 H500 H 0.84352 0.90049 0.72890
 H501 H 0.79359 0.90769 0.66606
 Cu502 Cu 0.85984 0.85051 0.69767
 Cu503 Cu 0.82195 0.85626 0.64756
 Cu504 Cu 0.86832 0.81075 0.64841
 N505 N 0.88827 0.82879 0.69574
 N506 N 0.89162 0.81288 0.67675
 C507 C 0.91221 0.79928 0.68124
 C508 C 0.92212 0.80737 0.70425
 C509 C 0.90654 0.82611 0.71279
 H510 H 0.91910 0.78440 0.66897
 H511 H 0.90808 0.83654 0.73049
 N512 N 0.84272 0.81224 0.62165
 N513 N 0.82517 0.82961 0.62140
 C514 C 0.80983 0.82492 0.60179
 C515 C 0.81807 0.80351 0.58909
 C516 C 0.83897 0.79603 0.60213
 H517 H 0.79350 0.83587 0.59761
 H518 H 0.85012 0.77950 0.59812
 H519 H 0.83753 0.82548 0.66611
 H520 H 0.85921 0.84866 0.65156
 N521 N 0.69025 0.62345 0.66713
 N522 N 0.67378 0.62120 0.68521
 C523 C 0.68027 0.60180 0.70038
 C524 C 0.70200 0.59142 0.69129
 C525 C 0.70776 0.60562 0.67020
 H526 H 0.67025 0.59614 0.71710
 H527 H 0.72387 0.60353 0.65838
 Cu528 Cu 0.64602 0.64446 0.68783
 Cu529 Cu 0.68891 0.65042 0.64212
 Cu530 Cu 0.64334 0.69563 0.65030
 N531 N 0.61856 0.66823 0.68967
 N532 N 0.61764 0.68795 0.67452
 C533 C 0.59771 0.70195 0.68005
 C534 C 0.58536 0.69050 0.69988
 C535 C 0.59912 0.66912 0.70553
 H536 H 0.59318 0.71962 0.67083
 H537 H 0.59555 0.65570 0.72053
 N538 N 0.66739 0.69693 0.62258
 N539 N 0.68450 0.67947 0.61922
 C540 C 0.69842 0.68594 0.59919
 C541 C 0.68957 0.70856 0.58951
 C542 C 0.66987 0.71491 0.60469
 H543 H 0.71415 0.67526 0.59259
 H544 H 0.65851 0.73169 0.60307
 H545 H 0.67236 0.67513 0.66664
 H546 H 0.65139 0.65796 0.64411
 N547 N 0.68410 0.12352 0.16137
 N548 N 0.66670 0.12118 0.17844
 C549 C 0.67257 0.10219 0.19440
 C550 C 0.69488 0.09210 0.18688
 C551 C 0.70167 0.10605 0.16588
 H552 H 0.66162 0.09638 0.21043
 H553 H 0.71846 0.10400 0.15512
 Cu554 Cu 0.63868 0.14385 0.17868
 Cu555 Cu 0.68302 0.14983 0.13540
 Cu556 Cu 0.63283 0.19093 0.13611
 N557 N 0.61062 0.16638 0.17910
 N558 N 0.60819 0.18491 0.16260
 C559 C 0.58763 0.19817 0.16823
 C560 C 0.57681 0.18718 0.18935
 C561 C 0.59189 0.16721 0.19566
 H562 H 0.58163 0.21503 0.15834
 H563 H 0.58961 0.15470 0.21170
 N564 N 0.65988 0.19348 0.11094
 N565 N 0.67871 0.17760 0.11075
 C566 C 0.69413 0.18409 0.09197
 C567 C 0.68470 0.20512 0.07957
 C568 C 0.66297 0.21058 0.09215
 H569 H 0.71121 0.17441 0.08798
 H570 H 0.65053 0.22608 0.08804
 H571 H 0.66216 0.17588 0.15597
 H572 H 0.64509 0.15422 0.13409
 N573 N 0.18025 0.62355 0.17661
 N574 N 0.16261 0.62449 0.19360
 C575 C 0.16546 0.60534 0.21013
 C576 C 0.18610 0.59170 0.20341
 C577 C 0.19513 0.60372 0.18196
 H578 H 0.15370 0.60183 0.22626
 H579 H 0.21137 0.59869 0.17126
 Cu580 Cu 0.13832 0.65134 0.19367
 Cu581 Cu 0.18247 0.64868 0.14933
 Cu582 Cu 0.13449 0.69245 0.14560
 N583 N 0.10963 0.67272 0.18923
 N584 N 0.10823 0.68930 0.17070
 C585 C 0.08726 0.70282 0.17324
 C586 C 0.07497 0.69404 0.19451
 C587 C 0.08965 0.67492 0.20404
 H588 H 0.08176 0.71824 0.16097
 H589 H 0.08638 0.66405 0.22107
 N590 N 0.16276 0.69237 0.12207
 N591 N 0.18098 0.67575 0.12329
 C592 C 0.19759 0.68128 0.10514
 C593 C 0.18940 0.70242 0.09200
 C594 C 0.16737 0.70888 0.10325
 H595 H 0.21463 0.67110 0.10214
 H596 H 0.15578 0.72482 0.09827
 H597 H 0.16368 0.67800 0.16658
 H598 H 0.14493 0.65468 0.14812
 N599 N 0.19516 0.12354 0.67505
 N600 N 0.17641 0.11942 0.69020
 C601 C 0.18133 0.09873 0.70438
 C602 C 0.20446 0.08951 0.69772
 C603 C 0.21260 0.10582 0.67912
 H604 H 0.16920 0.09128 0.71872
 H605 H 0.23013 0.10505 0.66948
 Cu606 Cu 0.14805 0.14263 0.69056
 Cu607 Cu 0.19619 0.15241 0.65211
 Cu608 Cu 0.13912 0.17889 0.63922
 N609 N 0.12061 0.16696 0.68873
 N610 N 0.11734 0.18092 0.66833
 C611 C 0.09750 0.19590 0.67143
 C612 C 0.08776 0.19136 0.69524
 C613 C 0.10284 0.17278 0.70566
 H614 H 0.09093 0.20926 0.65739
 H615 H 0.10112 0.16438 0.72430
 N616 N 0.16801 0.18429 0.61768
 N617 N 0.18996 0.17485 0.62290
 C618 C 0.20608 0.18321 0.60549
 C619 C 0.19358 0.19886 0.58868
 C620 C 0.16956 0.19911 0.59700
 H621 H 0.22548 0.17862 0.60540
 H622 H 0.15446 0.20984 0.58894
 H623 H 0.16709 0.17538 0.66466
 H624 H 0.16023 0.14604 0.64598
 N625 N 0.31643 0.62337 0.32892
 N626 N 0.33177 0.62365 0.30968
 C627 C 0.32694 0.60411 0.29406
 C628 C 0.30734 0.59092 0.30372
 C629 C 0.30096 0.60358 0.32594
 H630 H 0.33675 0.59994 0.27668
 H631 H 0.28631 0.59882 0.33889
 Cu632 Cu 0.35624 0.64963 0.30589
 Cu633 Cu 0.31840 0.64887 0.35607
 Cu634 Cu 0.36861 0.68964 0.35374
 N635 N 0.38654 0.66844 0.30684
 N636 N 0.39150 0.68436 0.32546
 C637 C 0.41315 0.69573 0.32059
 C638 C 0.42207 0.68623 0.29769
 C639 C 0.40473 0.66896 0.28963
 H640 H 0.42135 0.71022 0.33248
 H641 H 0.40500 0.65811 0.27211
 N642 N 0.34316 0.69159 0.38056
 N643 N 0.32413 0.67608 0.38146
 C644 C 0.30975 0.68280 0.40122
 C645 C 0.32021 0.70356 0.41329
 C646 C 0.34130 0.70859 0.39969
 H647 H 0.29263 0.67367 0.40600
 H648 H 0.35405 0.72392 0.40321
 H649 H 0.33627 0.67742 0.33671
 H650 H 0.35602 0.65272 0.35197
 N651 N 0.31993 0.12102 0.83188
 N652 N 0.33526 0.12236 0.81264
 C653 C 0.33051 0.10323 0.79633
 C654 C 0.31122 0.08913 0.80579
 C655 C 0.30495 0.10092 0.82848
 H656 H 0.34014 0.09986 0.77868
 H657 H 0.29056 0.09548 0.84146
 Cu658 Cu 0.35966 0.14935 0.81064
 Cu659 Cu 0.32113 0.14535 0.86004
 Cu660 Cu 0.35353 0.20053 0.84743
 N661 N 0.38476 0.17581 0.81120
 N662 N 0.38197 0.19589 0.82580
 C663 C 0.40047 0.21219 0.82172
 C664 C 0.41580 0.20186 0.80361
 C665 C 0.40533 0.17866 0.79728
 H666 H 0.40223 0.23056 0.83076
 H667 H 0.41172 0.16526 0.78316
 N668 N 0.33084 0.19730 0.87603
 N669 N 0.31873 0.17632 0.88120
 C670 C 0.30502 0.18030 0.90213
 C671 C 0.30898 0.20493 0.91050
 C672 C 0.32547 0.21504 0.89359
 H673 H 0.29309 0.16634 0.91055
 H674 H 0.33297 0.23400 0.89403
 H675 H 0.32855 0.17273 0.83464
 H676 H 0.35529 0.16284 0.85473
 N677 N 0.82197 0.62195 0.83205
 N678 N 0.83844 0.62340 0.81386
 C679 C 0.83408 0.60503 0.79660
 C680 C 0.81386 0.59136 0.80438
 C681 C 0.80666 0.60252 0.82706
 H682 H 0.84447 0.60210 0.77933
 H683 H 0.79124 0.59734 0.83884
 Cu684 Cu 0.86321 0.64994 0.81394
 Cu685 Cu 0.82139 0.64574 0.86059
 Cu686 Cu 0.85393 0.70102 0.84986
 N687 N 0.88846 0.67594 0.81728
 N688 N 0.88441 0.69595 0.83165
 C689 C 0.90330 0.71211 0.82964
 C690 C 0.92019 0.70179 0.81313
 C691 C 0.91028 0.67872 0.80553
 H692 H 0.90422 0.73049 0.83880
 H693 H 0.91785 0.66549 0.79188
 N694 N 0.82911 0.69789 0.87637
 N695 N 0.81711 0.67677 0.88121
 C696 C 0.80215 0.68085 0.90123
 C697 C 0.80525 0.70570 0.90923
 C698 C 0.82240 0.71583 0.89311
 H699 H 0.79005 0.66682 0.90929
 H700 H 0.82971 0.73487 0.89375
 H701 H 0.83015 0.67286 0.83543
 H702 H 0.85560 0.66352 0.85752
 N703 N 0.81483 0.12779 0.32392
 N704 N 0.83179 0.12878 0.30621
 C705 C 0.82794 0.10998 0.28922
 C706 C 0.80753 0.09646 0.29662
 C707 C 0.79963 0.10829 0.31877
 H708 H 0.83897 0.10645 0.27251
 H709 H 0.78369 0.10355 0.32998
 Cu710 Cu 0.85734 0.15444 0.30680
 Cu711 Cu 0.81272 0.15289 0.35133
 Cu712 Cu 0.85512 0.20173 0.34978
 N713 N 0.88375 0.17904 0.31004
 N714 N 0.88291 0.19719 0.32722
 C715 C 0.90291 0.21190 0.32499
 C716 C 0.91701 0.20259 0.30530
 C717 C 0.90438 0.18165 0.29619
 H718 H 0.90661 0.22862 0.33636
 H719 H 0.90958 0.16953 0.28047
 N720 N 0.82950 0.19939 0.37585
 N721 N 0.81363 0.18055 0.37694
 C722 C 0.79842 0.18465 0.39676
 C723 C 0.80516 0.20716 0.40862
 C724 C 0.82490 0.21587 0.39487
 H725 H 0.78324 0.17251 0.40175
 H726 H 0.83498 0.23319 0.39838
 H727 H 0.82803 0.18091 0.33034
 H728 H 0.84956 0.16311 0.35160
 N729 N 0.67173 0.37733 0.32086
 N730 N 0.65449 0.37468 0.30341
 C731 C 0.65766 0.39244 0.28531
 C732 C 0.67790 0.40697 0.29186
 C733 C 0.68634 0.39678 0.31457
 H734 H 0.64644 0.39440 0.26837
 H735 H 0.70233 0.40247 0.32544
 Cu736 Cu 0.63048 0.34748 0.30604
 Cu737 Cu 0.67529 0.35451 0.34968
 Cu738 Cu 0.63293 0.30591 0.35445
 N739 N 0.60630 0.32056 0.30924
 N740 N 0.60753 0.30435 0.32814
 C741 C 0.58937 0.28727 0.32552
 C742 C 0.57600 0.29305 0.30391
 C743 C 0.58721 0.31432 0.29397
 H744 H 0.58629 0.27150 0.33817
 H745 H 0.58220 0.32413 0.27669
 N746 N 0.65999 0.31081 0.37918
 N747 N 0.67595 0.32952 0.37742
 C748 C 0.69250 0.32753 0.39647
 C749 C 0.68680 0.30659 0.41088
 C750 C 0.66604 0.29638 0.39943
 H751 H 0.70803 0.33999 0.39939
 H752 H 0.65638 0.27946 0.40507
 H753 H 0.65914 0.32331 0.33245
 H754 H 0.63861 0.34432 0.35162
 N755 N 0.68450 0.88832 0.82516
 N756 N 0.66961 0.88520 0.80565
 C757 C 0.67336 0.90372 0.78871
 C758 C 0.69182 0.91906 0.79797
 C759 C 0.69852 0.90887 0.82122
 H760 H 0.66404 0.90536 0.77055
 H761 H 0.71283 0.91545 0.83398
 Cu762 Cu 0.64835 0.85623 0.80305
 Cu763 Cu 0.68554 0.86443 0.85307
 Cu764 Cu 0.64153 0.81675 0.85268
 N765 N 0.62061 0.83392 0.80540
 N766 N 0.61784 0.81800 0.82432
 C767 C 0.59726 0.80432 0.82005
 C768 C 0.58679 0.81247 0.79731
 C769 C 0.60204 0.83123 0.78871
 H770 H 0.59059 0.78955 0.83241
 H771 H 0.59997 0.84186 0.77128
 N772 N 0.66744 0.81986 0.87935
 N773 N 0.68370 0.83843 0.87946
 C774 C 0.69949 0.83517 0.89890
 C775 C 0.69311 0.81357 0.91171
 C776 C 0.67263 0.80419 0.89893
 H777 H 0.71520 0.84707 0.90296
 H778 H 0.66278 0.78693 0.90303
 H779 H 0.67135 0.83234 0.83482
 H780 H 0.64846 0.85469 0.84912
 N781 N 0.18295 0.37768 0.83119
 N782 N 0.16536 0.37908 0.81396
 C783 C 0.17064 0.39786 0.79766
 C784 C 0.19262 0.40880 0.80505
 C785 C 0.19999 0.39555 0.82645
 H786 H 0.15953 0.40307 0.78136
 H787 H 0.21657 0.39842 0.83753
 Cu788 Cu 0.13753 0.35586 0.81367
 Cu789 Cu 0.18269 0.35235 0.85796
 Cu790 Cu 0.13468 0.30942 0.85724
 N791 N 0.11165 0.33034 0.81295
 N792 N 0.11059 0.31248 0.83023
 C793 C 0.09177 0.29686 0.82482
 C794 C 0.08042 0.30524 0.80293
 C795 C 0.09345 0.32661 0.79582
 H796 H 0.08713 0.28010 0.83550
 H797 H 0.09042 0.33812 0.77914
 N798 N 0.16067 0.30910 0.88314
 N799 N 0.17908 0.32533 0.88340
 C800 C 0.19444 0.31938 0.90266
 C801 C 0.18516 0.29835 0.91497
 C802 C 0.16379 0.29240 0.90215
 H803 H 0.21138 0.32922 0.90692
 H804 H 0.15180 0.27660 0.90606
 H805 H 0.16319 0.32592 0.83699
 H806 H 0.14516 0.34721 0.85857
 N807 N 0.17696 0.87176 0.33183
 N808 N 0.16035 0.87059 0.31359
 C809 C 0.16429 0.88972 0.29714
 C810 C 0.18436 0.90357 0.30563
 C811 C 0.19191 0.89157 0.32771
 H812 H 0.15363 0.89318 0.28007
 H813 H 0.20758 0.89633 0.33952
 Cu814 Cu 0.13550 0.84384 0.31316
 Cu815 Cu 0.17948 0.84649 0.35853
 Cu816 Cu 0.13853 0.79642 0.35573
 N817 N 0.10998 0.81783 0.31482
 N818 N 0.11122 0.79938 0.33153
 C819 C 0.09200 0.78366 0.32788
 C820 C 0.07787 0.79270 0.30790
 C821 C 0.08984 0.81449 0.30007
 H822 H 0.08877 0.76658 0.33864
 H823 H 0.08463 0.82666 0.28445
 N824 N 0.16402 0.79970 0.38262
 N825 N 0.17939 0.81899 0.38373
 C826 C 0.19502 0.81564 0.40344
 C827 C 0.18923 0.79315 0.41539
 C828 C 0.16942 0.78362 0.40177
 H829 H 0.20982 0.82840 0.40838
 H830 H 0.16000 0.76598 0.40530
 H831 H 0.16495 0.81770 0.33695
 H832 H 0.14287 0.83494 0.35797
 O833 O 0.22180 0.96548 0.26784
 O834 O 0.25768 1.01584 0.23667
 O835 O 0.26079 0.96688 0.23949
 O836 O 0.21750 1.01460 0.26315
 O837 O 0.24050 1.01917 0.29764
 O838 O 0.28418 0.97091 0.27373
 O839 O 0.28086 1.02009 0.27105
 O840 O 0.24504 0.96997 0.30216
 Cu841 Cu 0.23715 0.99025 0.24835
 Cu842 Cu 0.26485 0.99549 0.28968
 C843 C 0.22756 0.95903 0.29039
 C844 C 0.27537 1.02651 0.24850
 C845 C 0.27974 0.96066 0.25228
 C846 C 0.22172 1.02523 0.28437
 O847 O 0.25462 0.51785 0.72567
 O848 O 0.22766 0.46787 0.76409
 O849 O 0.22726 0.51736 0.76625
 O850 O 0.26212 0.46914 0.72972
 O851 O 0.29269 0.47293 0.75735
 O852 O 0.25803 0.51935 0.79383
 O853 O 0.25828 0.47001 0.79177
 O854 O 0.28522 0.52182 0.75323
 Cu855 Cu 0.23992 0.49272 0.74378
 Cu856 Cu 0.27655 0.49628 0.77666
 C857 C 0.27423 0.52864 0.73281
 C858 C 0.23806 0.46023 0.78428
 C859 C 0.23701 0.52654 0.78640
 C860 C 0.28354 0.46291 0.73759
 O861 O 0.77203 0.03456 0.25561
 O862 O 0.73759 -0.01650 0.22201
 O863 O 0.73721 0.03311 0.22138
 O864 O 0.77675 -0.01459 0.25081
 O865 O 0.75116 -0.01759 0.28315
 O866 O 0.71137 0.03122 0.25358
 O867 O 0.71195 -0.01818 0.25442
 O868 O 0.74623 0.03147 0.28775
 Cu869 Cu 0.75841 0.00940 0.23428
 Cu870 Cu 0.72767 0.00648 0.27291
 C871 C 0.76472 0.04169 0.27753
 C872 C 0.71880 -0.02601 0.23279
 C873 C 0.71774 0.04051 0.23231
 C874 C 0.77077 -0.02441 0.27178
 O875 O 0.75113 0.48313 0.72142
 O876 O 0.78008 0.53178 0.76139
 O877 O 0.78157 0.48219 0.75980
 O878 O 0.74584 0.53205 0.72636
 O879 O 0.71615 0.52784 0.75455
 O880 O 0.75172 0.47962 0.78802
 O881 O 0.75019 0.52882 0.78949
 O882 O 0.72146 0.47903 0.74963
 Cu883 Cu 0.76767 0.50772 0.73947
 Cu884 Cu 0.73193 0.50347 0.77319
 C885 C 0.73152 0.47260 0.72873
 C886 C 0.77017 0.53877 0.78207
 C887 C 0.77240 0.47239 0.77970
 C888 C 0.72478 0.53830 0.73494
 O889 O 0.24236 0.47989 0.28784
 O890 O 0.21563 0.52983 0.24704
 O891 O 0.21504 0.48017 0.24706
 O892 O 0.24271 0.52955 0.28819
 O893 O 0.27570 0.52882 0.26390
 O894 O 0.24818 0.48017 0.22290
 O895 O 0.24881 0.52940 0.22300
 O896 O 0.27530 0.47943 0.26346
 Cu897 Cu 0.22555 0.50494 0.26993
 Cu898 Cu 0.26536 0.50444 0.24100
 C899 C 0.26335 0.47088 0.28227
 C900 C 0.22768 0.53822 0.22820
 C901 C 0.22703 0.47165 0.22813
 C902 C 0.26398 0.53773 0.28280
 O903 O 0.78515 0.97626 0.74143
 O904 O 0.75867 1.02722 0.78036
 O905 O 0.75698 0.97814 0.78107
 O906 O 0.78583 1.02549 0.73985
 O907 O 0.75295 1.02553 0.71493
 O908 O 0.72447 0.97819 0.75564
 O909 O 0.72574 1.02709 0.75552
 O910 O 0.75258 0.97641 0.71610
 Cu911 Cu 0.77506 1.00178 0.76313
 Cu912 Cu 0.73560 1.00190 0.73302
 C913 C 0.77347 0.96753 0.72231
 C914 C 0.73749 1.03565 0.77470
 C915 C 0.73572 0.97005 0.77519
 C916 C 0.77425 1.03359 0.72044
 O917 O 0.73990 0.51709 0.27611
 O918 O 0.77368 0.46475 0.24373
 O919 O 0.77980 0.51428 0.24950
 O920 O 0.74158 0.46808 0.28130
 O921 O 0.71475 0.46760 0.24959
 O922 O 0.75324 0.51609 0.21762
 O923 O 0.74633 0.46641 0.21255
 O924 O 0.71253 0.51674 0.24489
 Cu925 Cu 0.76129 0.49065 0.26542
 Cu926 Cu 0.72952 0.49199 0.22811
 C927 C 0.72034 0.52586 0.26570
 C928 C 0.76545 0.45673 0.22234
 C929 C 0.77309 0.52353 0.22847
 C930 C 0.72199 0.45973 0.27133
 O931 O 0.24864 -0.02608 0.79402
 O932 O 0.21473 0.02222 0.75843
 O933 O 0.22112 -0.02679 0.75299
 O934 O 0.24886 0.02376 0.79355
 O935 O 0.27979 0.02578 0.76665
 O936 O 0.25191 -0.02286 0.72610
 O937 O 0.24554 0.02637 0.73160
 O938 O 0.27949 -0.02423 0.76697
 Cu939 Cu 0.23040 -0.00206 0.77734
 Cu940 Cu 0.26716 0.00157 0.74527
 C941 C 0.26948 -0.03381 0.78663
 C942 C 0.22418 0.03289 0.73934
 C943 C 0.23203 -0.03338 0.73253
 C944 C 0.26915 0.03356 0.78661
 O945 O 0.24906 0.28295 0.97626
 O946 O 0.28148 0.24573 1.02379
 O947 O 0.27676 0.24354 0.97498
 O948 O 0.24396 0.27806 1.02611
 O949 O 0.21394 0.25005 1.02330
 O950 O 0.24690 0.21519 0.97419
 O951 O 0.25146 0.21762 1.02428
 O952 O 0.21911 0.25474 0.97486
 Cu953 Cu 0.26532 0.26540 1.00086
 Cu954 Cu 0.23035 0.23156 0.99948
 C955 C 0.22885 0.27526 0.96711
 C956 C 0.27230 0.22548 1.03222
 C957 C 0.26714 0.22339 0.96585
 C958 C 0.22304 0.26983 1.03316
 O959 O 0.26022 0.72159 0.47877
 O960 O 0.23248 0.76271 0.52786
 O961 O 0.22735 0.75748 0.47852
 O962 O 0.26289 0.72446 0.52851
 O963 O 0.29316 0.75186 0.52410
 O964 O 0.25735 0.78527 0.47454
 O965 O 0.26278 0.79013 0.52391
 O966 O 0.29029 0.74921 0.47432
 Cu967 Cu 0.24273 0.73884 0.50388
 Cu968 Cu 0.27891 0.77182 0.49876
 C969 C 0.27991 0.72857 0.46797
 C970 C 0.24295 0.78330 0.53446
 C971 C 0.23634 0.77691 0.46789
 C972 C 0.28400 0.73262 0.53495
 O973 O 0.25217 0.71612 0.02788
 O974 O 0.28019 0.75543 -0.02244
 O975 O 0.28931 0.74742 0.02620
 O976 O 0.24665 0.72062 -0.02126
 O977 O 0.21994 0.75146 -0.01445
 O978 O 0.26227 0.77758 0.03444
 O979 O 0.25387 0.78624 -0.01404
 O980 O 0.22505 0.74656 0.03475
 Cu981 Cu 0.26979 0.73194 0.00185
 Cu982 Cu 0.23771 0.76853 0.01100
 C983 C 0.23359 0.72473 0.03978
 C984 C 0.27152 0.77742 -0.02704
 C985 C 0.28289 0.76683 0.03882
 C986 C 0.22628 0.73139 -0.02624
 O987 O 0.27837 0.25717 0.47282
 O988 O 0.25591 0.22020 0.52724
 O989 O 0.25215 0.21631 0.47810
 O990 O 0.28356 0.25982 0.52185
 O991 O 0.25033 0.28393 0.52389
 O992 O 0.21942 0.24124 0.47893
 O993 O 0.22251 0.24413 0.52818
 O994 O 0.24564 0.28199 0.47480
 Cu995 Cu 0.27087 0.23595 0.49984
 Cu996 Cu 0.23108 0.26523 0.50164
 C997 C 0.26595 0.27595 0.46464
 C998 C 0.23521 0.22581 0.53685
 C999 C 0.23046 0.22156 0.47086
 C1000 C 0.27235 0.27915 0.53040
 O1001 O 0.74608 0.71762 0.97680
 O1002 O 0.71740 0.75885 1.02520
 O1003 O 0.71107 0.75124 0.97658
 O1004 O 0.75230 0.72483 1.02549
 O1005 O 0.77995 0.75447 1.01833
 O1006 O 0.73839 0.78130 0.96976
 O1007 O 0.74536 0.78829 1.01824
 O1008 O 0.77328 0.74772 0.96967
 Cu1009 Cu 0.72896 0.73512 1.00188
 Cu1010 Cu 0.76199 0.77094 0.99318
 C1011 C 0.76455 0.72593 0.96479
 C1012 C 0.72659 0.78050 1.03000
 C1013 C 0.71782 0.77089 0.96476
 C1014 C 0.77302 0.73496 1.03030
 O1015 O 0.77459 0.25266 0.51949
 O1016 O 0.73162 0.27831 0.47186
 O1017 O 0.73485 0.28039 0.52175
 O1018 O 0.76875 0.24695 0.47036
 O1019 O 0.74459 0.21377 0.47513
 O1020 O 0.71076 0.24703 0.52550
 O1021 O 0.70755 0.24496 0.47583
 O1022 O 0.75059 0.21934 0.52409
 Cu1023 Cu 0.75479 0.26792 0.49541
 Cu1024 Cu 0.72598 0.22802 0.50066
 C1025 C 0.76994 0.23167 0.52998
 C1026 C 0.71252 0.26601 0.46540
 C1027 C 0.71700 0.26913 0.53245
 C1028 C 0.76226 0.22460 0.46399
 O1029 O 0.75123 0.21679 0.02134
 O1030 O 0.78884 0.24847 -0.02638
 O1031 O 0.78168 0.25440 0.02261
 O1032 O 0.75430 0.21449 -0.02792
 O1033 O 0.72474 0.24289 -0.03261
 O1034 O 0.75262 0.28317 0.01696
 O1035 O 0.75956 0.27695 -0.03231
 O1036 O 0.72167 0.24531 0.01716
 Cu1037 Cu 0.77195 0.23082 -0.00207
 Cu1038 Cu 0.73677 0.26495 -0.00828
 C1039 C 0.73036 0.22544 0.02764
 C1040 C 0.78064 0.26779 -0.03784
 C1041 C 0.77163 0.27542 0.02864
 C1042 C 0.73468 0.22199 -0.03884
 O1043 O 0.77967 0.76577 0.47771
 O1044 O 0.75068 0.72636 0.52628
 O1045 O 0.74664 0.73037 0.47707
 O1046 O 0.78143 0.76408 0.52726
 O1047 O 0.75107 0.79184 0.53031
 O1048 O 0.71641 0.75821 0.48072
 O1049 O 0.72040 0.75413 0.52990
 O1050 O 0.74939 0.79361 0.48090
 Cu1051 Cu 0.76765 0.74383 0.50176
 Cu1052 Cu 0.73129 0.77724 0.50584
 C1053 C 0.76942 0.78629 0.47087
 C1054 C 0.73071 0.73348 0.53642
 C1055 C 0.72562 0.73871 0.47029
 C1056 C 0.77201 0.78378 0.53732
 O1057 O 1.03143 0.27670 0.25087
 O1058 O 0.98125 0.23893 0.27706
 O1059 O 1.02891 0.23489 0.27644
 O1060 O 0.98369 0.27954 0.25003
 O1061 O 0.98258 0.25636 0.21495
 O1062 O 1.02794 0.21166 0.24142
 O1063 O 0.98000 0.21555 0.24212
 O1064 O 1.03061 0.25371 0.21564
 Cu1065 Cu 1.00654 0.25975 0.26717
 Cu1066 Cu 1.00518 0.23204 0.22493
 C1067 C 1.03962 0.27172 0.22888
 C1068 C 0.97181 0.22106 0.26407
 C1069 C 1.03628 0.21587 0.26360
 C1070 C 0.97513 0.27523 0.22794
 O1071 O 0.52680 0.27349 0.73478
 O1072 O 0.47727 0.24021 0.76910
 O1073 O 0.52379 0.24566 0.77649
 O1074 O 0.47790 0.27539 0.73579
 O1075 O 0.48083 0.24416 0.70781
 O1076 O 0.52788 0.21409 0.74903
 O1077 O 0.48058 0.20836 0.74192
 O1078 O 0.52904 0.24157 0.70763
 Cu1079 Cu 0.50163 0.26184 0.75616
 Cu1080 Cu 0.50491 0.22394 0.72391
 C1081 C 0.53638 0.26301 0.71529
 C1082 C 0.47045 0.21846 0.76109
 C1083 C 0.53371 0.22495 0.76997
 C1084 C 0.47118 0.26498 0.71515
 O1085 O -0.02370 0.29286 0.73300
 O1086 O 0.02594 0.25761 0.70009
 O1087 O -0.02201 0.26088 0.69510
 O1088 O 0.02431 0.29510 0.73250
 O1089 O 0.02314 0.26577 0.76230
 O1090 O -0.02351 0.23129 0.72459
 O1091 O 0.02469 0.22825 0.72983
 O1092 O -0.02487 0.26314 0.76240
 Cu1093 Cu 0.00127 0.27947 0.71227
 Cu1094 Cu -0.00021 0.24413 0.74763
 C1095 C -0.03282 0.28385 0.75331
 C1096 C 0.03398 0.23702 0.70962
 C1097 C -0.03102 0.24054 0.70356
 C1098 C 0.03169 0.28642 0.75362
 O1099 O 0.51852 0.24719 0.27263
 O1100 O 0.47096 0.20522 0.24626
 O1101 O 0.51752 0.21409 0.23605
 O1102 O 0.47134 0.24227 0.27922
 O1103 O 0.46325 0.27106 0.24998
 O1104 O 0.50837 0.24269 0.20694
 O1105 O 0.46200 0.23396 0.21725
 O1106 O 0.51038 0.27596 0.24337
 Cu1107 Cu 0.49543 0.22424 0.26137
 Cu1108 Cu 0.48507 0.25869 0.22646
 C1109 C 0.52272 0.26855 0.26259
 C1110 C 0.45808 0.21253 0.22751
 C1111 C 0.52108 0.22395 0.21429
 C1112 C 0.45950 0.26172 0.27179
 O1113 O 1.02768 0.78432 0.75538
 O1114 O 0.98098 0.74350 0.78436
 O1115 O 1.02798 0.75112 0.79166
 O1116 O 0.98074 0.77758 0.74909
 O1117 O 0.98776 0.74767 0.72048
 O1118 O 1.03518 0.72139 0.76293
 O1119 O 0.98822 0.71359 0.75582
 O1120 O 1.03469 0.75454 0.72662
 Cu1121 Cu 1.00355 0.76710 0.77304
 Cu1122 Cu 1.01232 0.73123 0.73866
 C1123 C 1.03913 0.77633 0.73595
 C1124 C 0.97639 0.72179 0.77489
 C1125 C 1.03988 0.73177 0.78430
 C1126 C 0.97608 0.76722 0.72772
 O1127 O 0.53274 0.77470 0.24076
 O1128 O 0.48826 0.74341 0.28152
 O1129 O 0.53569 0.73828 0.27419
 O1130 O 0.48438 0.77271 0.24187
 O1131 O 0.48221 0.74169 0.21361
 O1132 O 0.53164 0.70728 0.24617
 O1133 O 0.48390 0.71256 0.25333
 O1134 O 0.53021 0.74374 0.21250
 Cu1135 Cu 0.51064 0.76026 0.26226
 Cu1136 Cu 0.50677 0.72325 0.22875
 C1137 C 0.53933 0.76476 0.21991
 C1138 C 0.47805 0.72308 0.27438
 C1139 C 0.54236 0.71674 0.26540
 C1140 C 0.47451 0.76271 0.22212
 O1141 O 0.01491 0.75563 0.27238
 O1142 O -0.03529 0.72278 0.23721
 O1143 O 0.01298 0.72419 0.23437
 O1144 O -0.03316 0.75426 0.27566
 O1145 O -0.03614 0.78631 0.24896
 O1146 O 0.01073 0.75638 0.20780
 O1147 O -0.03741 0.75487 0.21050
 O1148 O 0.01190 0.78782 0.24586
 Cu1149 Cu -0.00995 0.73598 0.25753
 Cu1150 Cu -0.01308 0.77452 0.22563
 C1151 C 0.02210 0.77725 0.26486
 C1152 C -0.04494 0.73338 0.21786
 C1153 C 0.02015 0.73535 0.21438
 C1154 C -0.04262 0.77533 0.26933
 O1155 O 0.52523 0.75528 0.71364
 O1156 O 0.47858 0.79047 0.74904
 O1157 O 0.52596 0.78434 0.75364
 O1158 O 0.47736 0.75748 0.71222
 O1159 O 0.47493 0.72514 0.73856
 O1160 O 0.52185 0.75260 0.78049
 O1161 O 0.47419 0.75820 0.77524
 O1162 O 0.52297 0.72330 0.74049
 Cu1163 Cu 0.50219 0.77509 0.72953
 Cu1164 Cu 0.49810 0.73659 0.76133
 C1165 C 0.53235 0.73364 0.72099
 C1166 C 0.46809 0.78032 0.76784
 C1167 C 0.53220 0.77300 0.77405
 C1168 C 0.46778 0.73653 0.71862
 C1169 C 0.42914 0.29458 0.28189
 C1170 C 0.44083 0.27321 0.28847
 H1171 H 0.43413 0.30424 0.26452
 H1172 H 0.43626 0.26357 0.30595
 C1173 C 0.43301 0.78403 0.79712
 C1174 C 0.44830 0.79462 0.78042
 H1175 H 0.43579 0.76442 0.80252
 H1176 H 0.44556 0.81402 0.77443
 C1177 C -0.06440 0.28895 0.78681
 C1178 C -0.05302 0.29771 0.76601
 H1179 H -0.05854 0.27117 0.79513
 H1180 H -0.05883 0.31543 0.75759
 C1181 C -0.07359 0.80795 0.28006
 C1182 C -0.06154 0.78657 0.28591
 H1183 H -0.06916 0.81797 0.26275
 H1184 H -0.06601 0.77644 0.30312
 C1185 C 0.57568 0.71058 0.29713
 C1186 C 0.56295 0.70233 0.27690
 H1187 H 0.57052 0.72832 0.30613
 H1188 H 0.56796 0.68452 0.26800
 C1189 C 0.56313 0.19172 0.78258
 C1190 C 0.55237 0.21405 0.78702
 H1191 H 0.55766 0.18048 0.76620
 H1192 H 0.55744 0.22502 0.80369
 C1193 C 1.07328 0.70200 0.79265
 C1194 C 1.05979 0.72169 0.80046
 H1195 H 1.06896 0.69284 0.77468
 H1196 H 1.06397 0.73115 0.81829
 C1197 C 1.06657 0.20516 0.29606
 C1198 C 1.05533 0.19901 0.27427
 H1199 H 1.06107 0.22220 0.30616
 H1200 H 1.06122 0.18259 0.26344
 C1201 C 0.56728 0.29648 0.70980
 C1202 C 0.55650 0.27530 0.70139
 H1203 H 0.56086 0.30542 0.72715
 H1204 H 0.56324 0.26595 0.68441
 C1205 C 0.56961 0.79841 0.21262
 C1206 C 0.55789 0.77759 0.20425
 H1207 H 0.56547 0.80608 0.23129
 H1208 H 0.56232 0.76942 0.18590
 C1209 C 1.07018 0.28337 0.19644
 C1210 C 1.05992 0.28721 0.21921
 H1211 H 1.06338 0.26845 0.18407
 H1212 H 1.06662 0.30217 0.23155
 C1213 C 1.06992 0.78555 0.70340
 C1214 C 1.05793 0.79255 0.72445
 H1215 H 1.06542 0.76779 0.69407
 H1216 H 1.06210 0.81040 0.73372
 C1217 C 0.43614 0.70465 0.71088
 C1218 C 0.44762 0.72564 0.70323
 H1219 H 0.44228 0.69516 0.72803
 H1220 H 0.44142 0.73562 0.68641
 C1221 C 0.42428 0.20231 0.19804
 C1222 C 0.43812 0.19598 0.21812
 H1223 H 0.42827 0.21959 0.18782
 H1224 H 0.43455 0.17855 0.22821
 C1225 C -0.07608 0.69962 0.21073
 C1226 C -0.06532 0.72128 0.20358
 H1227 H -0.06952 0.68991 0.22758
 H1228 H -0.07201 0.73110 0.18687
 C1229 C -0.06311 0.20845 0.69835
 C1230 C -0.05103 0.22831 0.68910
 H1231 H -0.05733 0.20025 0.71629
 H1232 H -0.05682 0.23680 0.67131
 C1233 C 0.29417 0.43784 0.29033
 C1234 C 0.27352 0.44975 0.29739
 H1235 H 0.30404 0.44438 0.27375
 H1236 H 0.26320 0.44310 0.31359
 C1237 C 0.30150 -0.06686 0.79359
 C1238 C 0.28132 -0.05441 0.80131
 H1239 H 0.31029 -0.06116 0.77607
 H1240 H 0.27218 -0.06010 0.81861
 C1241 C 0.80532 0.44025 0.78538
 C1242 C 0.78499 0.45205 0.79363
 H1243 H 0.81399 0.44647 0.76798
 H1244 H 0.77617 0.44605 0.81098
 C1245 C 0.78186 -0.05628 0.30401
 C1246 C 0.78684 -0.04425 0.28230
 H1247 H 0.76582 -0.05074 0.31489
 H1248 H 0.80287 -0.04939 0.27126
 C1249 C 0.30286 0.56365 0.72387
 C1250 C 0.28361 0.54947 0.71703
 H1251 H 0.31259 0.55957 0.74144
 H1252 H 0.27367 0.55372 0.69964
 C1253 C 0.28384 1.05513 0.21296
 C1254 C 0.28967 1.04674 0.23619
 H1255 H 0.26839 1.04682 0.20283
 H1256 H 0.30481 1.05516 0.24665
 C1257 C 0.78273 0.55514 0.19570
 C1258 C 0.78853 0.54348 0.21737
 H1259 H 0.76651 0.54931 0.18511
 H1260 H 0.80477 0.54921 0.22794
 C1261 C 0.80628 1.06430 0.71009
 C1262 C 0.78515 1.05286 0.70410
 H1263 H 0.81622 1.05907 0.72722
 H1264 H 0.77479 1.05854 0.68742
 C1265 C 0.71446 0.55943 0.29790
 C1266 C 0.70659 0.54719 0.27712
 H1267 H 0.73110 0.55308 0.30741
 H1268 H 0.69008 0.55359 0.26743
 C1269 C 0.70322 1.06294 0.78757
 C1270 C 0.72657 1.05550 0.79079
 H1271 H 0.69212 1.05412 0.77280
 H1272 H 0.73792 1.06365 0.80570
 C1273 C 0.20428 0.55803 0.79361
 C1274 C 0.22463 0.54619 0.80146
 H1275 H 0.19551 0.55246 0.77588
 H1276 H 0.23370 0.55212 0.81887
 C1277 C 0.20749 1.05661 0.31564
 C1278 C 0.20467 1.04509 0.29315
 H1279 H 0.22224 1.05078 0.32831
 H1280 H 0.18978 1.05059 0.28054
 C1281 C 0.70132 0.43907 0.71987
 C1282 C 0.72091 0.45242 0.71271
 H1283 H 0.69236 0.44344 0.73774
 H1284 H 0.73012 0.44792 0.69503
 C1285 C 0.71133 -0.05850 0.19947
 C1286 C 0.70452 -0.04660 0.22083
 H1287 H 0.72791 -0.05269 0.18976
 H1288 H 0.68822 -0.05273 0.23077
 C1289 C 0.19614 0.43912 0.21757
 C1290 C 0.21706 0.45116 0.21215
 H1291 H 0.18520 0.44513 0.23370
 H1292 H 0.22806 0.44513 0.19611
 C1293 C 0.20169 -0.06639 0.72119
 C1294 C 0.22220 -0.05363 0.71589
 H1295 H 0.19132 -0.06154 0.73808
 H1296 H 0.23254 -0.05835 0.69895
 C1297 C 0.29557 0.28469 0.43075
 C1298 C 0.27497 0.29098 0.44306
 H1299 H 0.30598 0.26818 0.43668
 H1300 H 0.26419 0.30717 0.43699
 C1301 C 0.29669 0.78296 -0.06531
 C1302 C 0.28138 0.79281 -0.04806
 H1303 H 0.30260 0.76342 -0.06344
 H1304 H 0.27487 0.81212 -0.05006
 C1305 C 0.78915 0.29922 -0.07144
 C1306 C 0.79597 0.27890 -0.05804
 H1307 H 0.77200 0.30873 -0.06699
 H1308 H 0.81330 0.26963 -0.06220
 C1309 C 0.80072 0.79454 0.43831
 C1310 C 0.78043 0.80177 0.45079
 H1311 H 0.80995 0.77703 0.44335
 H1312 H 0.77103 0.81916 0.44577
 C1313 C 0.70982 0.30303 0.56441
 C1314 C 0.70320 0.28113 0.55341
 H1315 H 0.72580 0.31308 0.55756
 H1316 H 0.68750 0.27085 0.56055
 C1317 C 0.69457 0.79175 1.06088
 C1318 C 0.71598 0.79687 1.04973
 H1319 H 0.68379 0.77559 1.05470
 H1320 H 0.72626 0.81360 1.05519
 C1321 C 0.21759 0.30207 1.06692
 C1322 C 0.20879 0.28284 1.05299
 H1323 H 0.23606 0.30897 1.06371
 H1324 H 0.19060 0.27551 1.05667
 C1325 C 0.21110 0.79284 0.56597
 C1326 C 0.23224 0.79925 0.55485
 H1327 H 0.20146 0.77607 0.55940
 H1328 H 0.24205 0.81604 0.56103
 C1329 C 0.28965 0.70034 0.56856
 C1330 C 0.29815 0.72025 0.55552
 H1331 H 0.27202 0.69216 0.56352
 H1332 H 0.31584 0.72835 0.56039
 C1333 C 0.27805 0.19077 1.06300
 C1334 C 0.28629 0.21163 1.05158
 H1335 H 0.26043 0.18277 1.05759
 H1336 H 0.30389 0.21960 1.05696
 C1337 C 0.78332 0.70227 1.06132
 C1338 C 0.78913 0.72410 1.05013
 H1339 H 0.76691 0.69223 1.05528
 H1340 H 0.80571 0.73413 1.05556
 C1341 C 0.78349 0.19993 0.56117
 C1342 C 0.78723 0.22194 0.54937
 H1343 H 0.76757 0.18860 0.55616
 H1344 H 0.80309 0.23338 0.55423
 C1345 C 0.72017 0.70586 0.43745
 C1346 C 0.71166 0.72623 0.44979
 H1347 H 0.73758 0.69745 0.44307
 H1348 H 0.69420 0.73459 0.44437
 C1349 C 0.70289 0.21304 -0.07113
 C1350 C 0.72364 0.20621 -0.05908
 H1351 H 0.69361 0.23045 -0.06577
 H1352 H 0.73295 0.18877 -0.06420
 C1353 C 0.21620 0.69962 -0.05888
 C1354 C 0.21006 0.72083 -0.04630
 H1355 H 0.23292 0.68962 -0.05367
 H1356 H 0.19337 0.73100 -0.05122
 C1357 C 0.19843 0.21256 0.43964
 C1358 C 0.21827 0.20480 0.45248
 H1359 H 0.19103 0.23140 0.44284
 H1360 H 0.22669 0.18665 0.44822
 C1361 C 0.29081 0.43205 0.70312
 C1362 C 0.29829 0.44369 0.72436
 H1363 H 0.27336 0.43712 0.69444
 H1364 H 0.31593 0.43892 0.73275
 C1365 C 0.29139 0.92967 0.21997
 C1366 C 0.29642 0.94098 0.24220
 H1367 H 0.27530 0.93546 0.20917
 H1368 H 0.31219 0.93517 0.25345
 C1369 C 0.79741 0.42351 0.21683
 C1370 C 0.77760 0.43598 0.20826
 H1371 H 0.80543 0.42863 0.23506
 H1372 H 0.76957 0.43075 0.19009
 C1373 C 0.80467 0.93497 0.71482
 C1374 C 0.78400 0.94659 0.70735
 H1375 H 0.81409 0.94122 0.73196
 H1376 H 0.77409 0.94008 0.69064
 C1377 C 0.71704 0.57082 0.70221
 C1378 C 0.70981 0.55804 0.72271
 H1379 H 0.73452 0.56642 0.69339
 H1380 H 0.69227 0.56233 0.73138
 C1381 C 0.70934 0.07173 0.19886
 C1382 C 0.70246 0.06027 0.22040
 H1383 H 0.72643 0.06637 0.18975
 H1384 H 0.68561 0.06573 0.22984
 C1385 C 0.19606 0.56998 0.21775
 C1386 C 0.21747 0.55871 0.21227
 H1387 H 0.18558 0.56366 0.23400
 H1388 H 0.22822 0.56512 0.19628
 C1389 C 0.21863 0.06796 0.70844
 C1390 C 0.20983 0.05326 0.72692
 H1391 H 0.23701 0.06458 0.70127
 H1392 H 0.19152 0.05679 0.73417
 C1393 C 0.29624 0.56877 0.29121
 C1394 C 0.27497 0.55827 0.29817
 H1395 H 0.30571 0.56163 0.27454
 H1396 H 0.26499 0.56555 0.31443
 C1397 C 0.30014 0.06689 0.79305
 C1398 C 0.28018 0.05461 0.80148
 H1399 H 0.30859 0.06092 0.77538
 H1400 H 0.27127 0.06062 0.81887
 C1401 C 0.80238 0.57038 0.79013
 C1402 C 0.78172 0.55885 0.79758
 H1403 H 0.81111 0.56469 0.77250
 H1404 H 0.77276 0.56449 0.81506
 C1405 C 0.79640 0.07496 0.28263
 C1406 C 0.77709 0.06226 0.29162
 H1407 H 0.80416 0.06976 0.26438
 H1408 H 0.76953 0.06733 0.30997
 C1409 C 0.68899 0.42764 0.27685
 C1410 C 0.70843 0.44051 0.28571
 H1411 H 0.68151 0.43179 0.25818
 H1412 H 0.71572 0.43629 0.30441
 C1413 C 0.70283 0.94015 0.78415
 C1414 C 0.72419 0.95069 0.79104
 H1415 H 0.69358 0.94614 0.76687
 H1416 H 0.73393 0.94432 0.80787
 C1417 C 0.20501 0.42960 0.79166
 C1418 C 0.22653 0.43973 0.79905
 H1419 H 0.19584 0.43669 0.77476
 H1420 H 0.23586 0.43292 0.81595
 C1421 C 0.19593 0.92533 0.29272
 C1422 C 0.21450 0.93837 0.30335
 H1423 H 0.18921 0.93041 0.27398
 H1424 H 0.22092 0.93354 0.32225
 C1425 C 0.44018 0.29799 0.70753
 C1426 C 0.45176 0.27691 0.69967
 H1427 H 0.44529 0.30677 0.72547
 H1428 H 0.44657 0.26780 0.68196
 C1429 C 0.44153 0.79502 0.21769
 C1430 C 0.45361 0.77478 0.20871
 H1431 H 0.44755 0.80379 0.23533
 H1432 H 0.44730 0.76575 0.19133
 C1433 C 0.94400 0.28613 0.19609
 C1434 C 0.95558 0.29178 0.21786
 H1435 H 0.94999 0.26994 0.18493
 H1436 H 0.94938 0.30752 0.22948
 C1437 C 0.94333 0.79768 0.71862
 C1438 C 0.95655 0.77759 0.71131
 H1439 H 0.94749 0.80702 0.73654
 H1440 H 0.95247 0.76799 0.69353
 C1441 C 0.55531 0.27814 0.29368
 C1442 C 0.54238 0.28483 0.27299
 H1443 H 0.55085 0.26079 0.30354
 H1444 H 0.54646 0.30231 0.26321
 C1445 C 0.56510 0.80325 0.78328
 C1446 C 0.55211 0.78307 0.79025
 H1447 H 0.56044 0.81298 0.76578
 H1448 H 0.55685 0.77296 0.80749
 C1449 C 0.06012 0.29225 0.78966
 C1450 C 0.05072 0.30052 0.76768
 H1451 H 0.05322 0.27495 0.79802
 H1452 H 0.05754 0.31777 0.75924
 C1453 C 0.05585 0.78027 0.29675
 C1454 C 0.04287 0.79038 0.27752
 H1455 H 0.05060 0.76202 0.30429
 H1456 H 0.04803 0.80867 0.27004
 C1457 C 0.56368 0.70015 0.71377
 C1458 C 0.55211 0.72135 0.70648
 H1459 H 0.55782 0.69025 0.73069
 H1460 H 0.55801 0.73115 0.68957
 C1461 C 0.55553 0.19549 0.20447
 C1462 C 0.54066 0.21441 0.19750
 H1463 H 0.55244 0.18589 0.22235
 H1464 H 0.54348 0.22394 0.17955
 C1465 C 0.05254 0.70373 0.20687
 C1466 C 0.04032 0.72439 0.19914
 H1467 H 0.04675 0.69407 0.22397
 H1468 H 0.04614 0.73441 0.18229
 C1469 C 0.06641 0.20388 0.70749
 C1470 C 0.05452 0.22363 0.69697
 H1471 H 0.06081 0.19700 0.72596
 H1472 H 0.06047 0.23096 0.67884
 C1473 C 0.44377 0.69401 0.28296
 C1474 C 0.45868 0.71261 0.29066
 H1475 H 0.44665 0.68507 0.26461
 H1476 H 0.45558 0.72186 0.30879
 C1477 C 0.43731 0.21466 0.79258
 C1478 C 0.45033 0.20468 0.77350
 H1479 H 0.44194 0.23328 0.79991
 H1480 H 0.44563 0.18618 0.76598
 C1481 C 0.94227 0.71497 0.80420
 C1482 C 0.95655 0.70620 0.78549
 H1483 H 0.94600 0.73339 0.81255
 H1484 H 0.95281 0.68799 0.77676
 C1485 C 0.93963 0.21432 0.29573
 C1486 C 0.95071 0.20699 0.27422
 H1487 H 0.94664 0.23045 0.30632
 H1488 H 0.94349 0.19132 0.26314
 C1489 C 0.30755 0.29165 0.55670
 C1490 C 0.28466 0.29614 0.54845
 H1491 H 0.31779 0.27553 0.54949
 H1492 H 0.27418 0.31201 0.55577
 C1493 C 0.29232 0.79526 0.07456
 C1494 C 0.29932 0.77633 0.05925
 H1495 H 0.27468 0.80435 0.07125
 H1496 H 0.31671 0.76678 0.06253
 C1497 C 0.79945 0.28175 0.06492
 C1498 C 0.78163 0.29076 0.04985
 H1499 H 0.80715 0.26317 0.06103
 H1500 H 0.77345 0.30910 0.05375
 C1501 C 0.80637 0.79004 0.56759
 C1502 C 0.78493 0.79770 0.55760
 H1503 H 0.81527 0.77308 0.56039
 H1504 H 0.77591 0.81450 0.56491
 C1505 C 0.31068 0.71868 0.43488
 C1506 C 0.29023 0.71251 0.44753
 H1507 H 0.32071 0.73565 0.44015
 H1508 H 0.28027 0.69547 0.44248
 C1509 C 0.29809 0.21847 0.93226
 C1510 C 0.27911 0.20920 0.94521
 H1511 H 0.30530 0.23704 0.93699
 H1512 H 0.27126 0.19109 0.93989
 C1513 C 0.79370 0.71964 0.93023
 C1514 C 0.77579 0.71028 0.94472
 H1515 H 0.80010 0.73883 0.93343
 H1516 H 0.76888 0.69131 0.94144
 C1517 C 0.79356 0.22051 0.43026
 C1518 C 0.77474 0.21080 0.44325
 H1519 H 0.80062 0.23904 0.43536
 H1520 H 0.76782 0.19218 0.43835
 C1521 C 0.70142 0.29714 0.43260
 C1522 C 0.69617 0.27583 0.44518
 H1523 H 0.71761 0.30795 0.43784
 H1524 H 0.68012 0.26480 0.44001
 C1525 C 0.70750 0.80284 0.93286
 C1526 C 0.70169 0.78141 0.94479
 H1527 H 0.72399 0.81301 0.93841
 H1528 H 0.68512 0.77120 0.93966
 C1529 C 0.19598 0.28376 0.93602
 C1530 C 0.21716 0.29041 0.94708
 H1531 H 0.18644 0.26687 0.94215
 H1532 H 0.22668 0.30732 0.94108
 C1533 C 0.20191 0.78083 0.43707
 C1534 C 0.22275 0.78997 0.44736
 H1535 H 0.19422 0.76332 0.44415
 H1536 H 0.23078 0.80715 0.43998
 C1537 C 0.69948 0.72398 0.56869
 C1538 C 0.71988 0.71743 0.55614
 H1539 H 0.69006 0.74152 0.56414
 H1540 H 0.72946 0.70003 0.56076
 C1541 C 0.69587 0.21937 0.05826
 C1542 C 0.71701 0.21171 0.04762
 H1543 H 0.68687 0.23648 0.05165
 H1544 H 0.72583 0.19458 0.05429
 C1545 C 0.20135 0.71672 0.07142
 C1546 C 0.22205 0.70924 0.05980
 H1547 H 0.19252 0.73423 0.06567
 H1548 H 0.23076 0.69151 0.06498
 C1549 C 0.20318 0.21359 0.56720
 C1550 C 0.22605 0.21076 0.55832
 H1551 H 0.19076 0.22704 0.55830
 H1552 H 0.23831 0.19682 0.56662
   
