data_POSCAR
  _audit_creation_date              2014-09-24
  _audit_creation_method            'ToBaCCo'
  _symmetry_space_group_name_H-M    'P1'
  _symmetry_Int_Tables_number       1
  _symmetry_cell_setting            triclinic
  loop_
  _symmetry_equiv_pos_as_xyz
 x,y,z
_cell_length_a 99.7597
_cell_length_b 99.8396
_cell_length_c 100.6431
_cell_angle_alpha 89.967900
_cell_angle_beta 89.936700
_cell_angle_gamma 89.950600
loop_
  _atom_site_label
  _atom_site_type_symbol
  _atom_site_fract_x
  _atom_site_fract_y
  _atom_site_fract_z
N1 N 0.35495 0.31832 0.32661
 N2 N 0.35422 0.32762 0.31737
 C3 C 0.36446 0.32599 0.30878
 C4 C 0.37190 0.31512 0.31291
 C5 C 0.36567 0.31047 0.32422
 H6 H 0.36643 0.33223 0.30021
 H7 H 0.36873 0.30205 0.33028
 Cu8 Cu 0.34003 0.34101 0.31756
 Cu9 Cu 0.34208 0.31715 0.34111
 Cu10 Cu 0.31704 0.34122 0.34205
 N11 N 0.32611 0.35464 0.31844
 N12 N 0.31714 0.35466 0.32804
 C13 C 0.30878 0.36512 0.32635
 C14 C 0.31277 0.37195 0.31513
 C15 C 0.32376 0.36512 0.31032
 H16 H 0.30048 0.36761 0.33282
 H17 H 0.32960 0.36765 0.30162
 N18 N 0.31859 0.32681 0.35534
 N19 N 0.32813 0.31762 0.35498
 C20 C 0.32654 0.30924 0.36536
 C21 C 0.31552 0.31340 0.37250
 C22 C 0.31069 0.32451 0.36596
 H23 H 0.33292 0.30078 0.36761
 H24 H 0.30209 0.33047 0.36878
 H25 H 0.32631 0.32623 0.33128
 H26 H 0.33740 0.33733 0.34137
 N27 N 0.35533 0.81804 -0.17300
 N28 N 0.35509 0.82748 -0.18213
 C29 C 0.36537 0.82557 -0.19062
 C30 C 0.37231 0.81438 -0.18652
 C31 C 0.36577 0.80981 -0.17535
 H32 H 0.36769 0.83186 -0.19908
 H33 H 0.36843 0.80121 -0.16936
 Cu34 Cu 0.34145 0.84141 -0.18191
 Cu35 Cu 0.34219 0.81717 -0.15872
 Cu36 Cu 0.31751 0.84165 -0.15836
 N37 N 0.32741 0.85493 -0.18174
 N38 N 0.31808 0.85499 -0.17248
 C39 C 0.30971 0.86536 -0.17461
 C40 C 0.31408 0.87205 -0.18578
 C41 C 0.32528 0.86526 -0.19010
 H42 H 0.30114 0.86786 -0.16850
 H43 H 0.33141 0.86770 -0.19864
 N44 N 0.31862 0.82730 -0.14494
 N45 N 0.32802 0.81797 -0.14509
 C46 C 0.32615 0.80970 -0.13467
 C47 C 0.31509 0.81407 -0.12772
 C48 C 0.31053 0.82521 -0.13441
 H49 H 0.33238 0.80117 -0.13225
 H50 H 0.30198 0.83132 -0.13175
 H51 H 0.32695 0.82665 -0.16901
 H52 H 0.33777 0.83738 -0.15827
 N53 N 0.85644 0.32076 -0.17264
 N54 N 0.85507 0.32909 -0.18268
 C55 C 0.86485 0.32670 -0.19163
 C56 C 0.87266 0.31637 -0.18686
 C57 C 0.86713 0.31282 -0.17482
 H58 H 0.86625 0.33209 -0.20085
 H59 H 0.87065 0.30511 -0.16812
 Cu60 Cu 0.84071 0.34230 -0.18287
 Cu61 Cu 0.84452 0.32106 -0.15731
 Cu62 Cu 0.81694 0.34217 -0.15917
 N63 N 0.82654 0.35570 -0.18257
 N64 N 0.81713 0.35542 -0.17340
 C65 C 0.80856 0.36564 -0.17545
 C66 C 0.81289 0.37261 -0.18646
 C67 C 0.82429 0.36613 -0.19078
 H68 H 0.79995 0.36792 -0.16930
 H69 H 0.83049 0.36886 -0.19918
 N70 N 0.81887 0.32820 -0.14547
 N71 N 0.82949 0.32033 -0.14462
 C72 C 0.82798 0.31205 -0.13415
 C73 C 0.81589 0.31493 -0.12818
 C74 C 0.81035 0.32518 -0.13552
 H75 H 0.83511 0.30449 -0.13109
 H76 H 0.80087 0.33010 -0.13366
 H77 H 0.82832 0.32733 -0.16835
 H78 H 0.83733 0.34068 -0.15890
 N79 N 0.85443 0.81872 0.32702
 N80 N 0.85425 0.82784 0.31757
 C81 C 0.86467 0.82572 0.30930
 C82 C 0.87165 0.81473 0.31386
 C83 C 0.86496 0.81050 0.32509
 H84 H 0.86706 0.83170 0.30066
 H85 H 0.86759 0.80212 0.33138
 Cu86 Cu 0.84049 0.84164 0.31703
 Cu87 Cu 0.84106 0.81827 0.34112
 Cu88 Cu 0.81667 0.84305 0.34066
 N89 N 0.82694 0.85565 0.31707
 N90 N 0.81762 0.85613 0.32633
 C91 C 0.80957 0.86672 0.32404
 C92 C 0.81414 0.87311 0.31279
 C93 C 0.82514 0.86592 0.30857
 H94 H 0.80106 0.86955 0.33010
 H95 H 0.83133 0.86804 0.30000
 N96 N 0.81738 0.82894 0.35433
 N97 N 0.82667 0.81950 0.35452
 C98 C 0.82447 0.81141 0.36502
 C99 C 0.81331 0.81602 0.37166
 C100 C 0.80903 0.82710 0.36471
 H101 H 0.83051 0.80281 0.36767
 H102 H 0.80047 0.83332 0.36706
 H103 H 0.82591 0.82754 0.33058
 H104 H 0.83692 0.83857 0.34082
 N105 N 0.64558 0.68352 0.32899
 N106 N 0.64521 0.67419 0.31977
 C107 C 0.63466 0.67648 0.31173
 C108 C 0.62817 0.68779 0.31621
 C109 C 0.63528 0.69205 0.32715
 H110 H 0.63187 0.67040 0.30329
 H111 H 0.63310 0.70065 0.33331
 Cu112 Cu 0.65851 0.65994 0.31919
 Cu113 Cu 0.65931 0.68384 0.34273
 Cu114 Cu 0.68346 0.65885 0.34162
 N115 N 0.67230 0.64616 0.31853
 N116 N 0.68204 0.64579 0.32733
 C117 C 0.69009 0.63530 0.32467
 C118 C 0.68510 0.62883 0.31365
 C119 C 0.67384 0.63590 0.30996
 H120 H 0.69887 0.63253 0.33036
 H121 H 0.66727 0.63368 0.30172
 N122 N 0.68320 0.67295 0.35531
 N123 N 0.67400 0.68247 0.35574
 C124 C 0.67647 0.69048 0.36622
 C125 C 0.68772 0.68574 0.37261
 C126 C 0.69176 0.67466 0.36552
 H127 H 0.67053 0.69908 0.36907
 H128 H 0.70027 0.66831 0.36770
 H129 H 0.67385 0.67421 0.33161
 H130 H 0.66329 0.66353 0.34269
 N131 N 0.64563 0.18229 -0.17252
 N132 N 0.64596 0.17303 -0.18181
 C133 C 0.63553 0.17490 -0.19013
 C134 C 0.62842 0.18589 -0.18575
 C135 C 0.63502 0.19037 -0.17460
 H136 H 0.63325 0.16876 -0.19867
 H137 H 0.63229 0.19882 -0.16845
 Cu138 Cu 0.65994 0.15941 -0.18207
 Cu139 Cu 0.65887 0.18316 -0.15838
 Cu140 Cu 0.68353 0.15870 -0.15819
 N141 N 0.67368 0.14555 -0.18163
 N142 N 0.68288 0.14535 -0.17226
 C143 C 0.69105 0.13478 -0.17420
 C144 C 0.68669 0.12809 -0.18535
 C145 C 0.67568 0.13509 -0.18987
 H146 H 0.69946 0.13213 -0.16795
 H147 H 0.66960 0.13270 -0.19843
 N148 N 0.68253 0.17306 -0.14481
 N149 N 0.67312 0.18238 -0.14489
 C150 C 0.67509 0.19070 -0.13453
 C151 C 0.68622 0.18636 -0.12770
 C152 C 0.69073 0.17520 -0.13439
 H153 H 0.66891 0.19926 -0.13210
 H154 H 0.69931 0.16911 -0.13182
 H155 H 0.67424 0.17389 -0.16866
 H156 H 0.66324 0.16290 -0.15833
 N157 N 0.14539 0.68295 -0.17126
 N158 N 0.14569 0.67360 -0.18047
 C159 C 0.13530 0.67547 -0.18882
 C160 C 0.12825 0.68654 -0.18457
 C161 C 0.13484 0.69108 -0.17344
 H162 H 0.13300 0.66927 -0.19733
 H163 H 0.13215 0.69961 -0.16738
 Cu164 Cu 0.15959 0.65992 -0.18058
 Cu165 Cu 0.15862 0.68386 -0.15710
 Cu166 Cu 0.18319 0.65929 -0.15672
 N167 N 0.17327 0.64602 -0.18005
 N168 N 0.18247 0.64584 -0.17070
 C169 C 0.19063 0.63527 -0.17262
 C170 C 0.18625 0.62853 -0.18374
 C171 C 0.17525 0.63553 -0.18824
 H172 H 0.19908 0.63266 -0.16641
 H173 H 0.16918 0.63313 -0.19681
 N174 N 0.18222 0.67375 -0.14343
 N175 N 0.17286 0.68311 -0.14359
 C176 C 0.17484 0.69148 -0.13328
 C177 C 0.18594 0.68713 -0.12640
 C178 C 0.19041 0.67591 -0.13301
 H179 H 0.16868 0.70007 -0.13089
 H180 H 0.19895 0.66979 -0.13038
 H181 H 0.17396 0.67443 -0.16730
 H182 H 0.16292 0.66357 -0.15687
 N183 N 0.14461 0.18355 0.32901
 N184 N 0.14442 0.17403 0.31998
 C185 C 0.13399 0.17611 0.31173
 C186 C 0.12740 0.18750 0.31588
 C187 C 0.13432 0.19200 0.32683
 H188 H 0.13134 0.16984 0.30338
 H189 H 0.13202 0.20073 0.33277
 Cu190 Cu 0.15780 0.15984 0.31991
 Cu191 Cu 0.15811 0.18422 0.34294
 Cu192 Cu 0.18238 0.15934 0.34277
 N193 N 0.17165 0.14612 0.31976
 N194 N 0.18125 0.14598 0.32872
 C195 C 0.18945 0.13552 0.32634
 C196 C 0.18469 0.12884 0.31534
 C197 C 0.17343 0.13575 0.31137
 H198 H 0.19820 0.13297 0.33216
 H199 H 0.16704 0.13338 0.30302
 N200 N 0.18181 0.17373 0.35617
 N201 N 0.17257 0.18322 0.35621
 C202 C 0.17480 0.19147 0.36656
 C203 C 0.18593 0.18694 0.37326
 C204 C 0.19017 0.17571 0.36650
 H205 H 0.16876 0.20010 0.36910
 H206 H 0.19866 0.16946 0.36897
 H207 H 0.17289 0.17441 0.33229
 H208 H 0.16219 0.16391 0.34341
 N209 N 0.64499 0.31788 0.67144
 N210 N 0.64483 0.32736 0.68052
 C211 C 0.63440 0.32525 0.68879
 C212 C 0.62778 0.31391 0.68460
 C213 C 0.63468 0.30945 0.67360
 H214 H 0.63179 0.33147 0.69720
 H215 H 0.63237 0.30076 0.66762
 Cu216 Cu 0.65825 0.34150 0.68064
 Cu217 Cu 0.65848 0.31719 0.65748
 Cu218 Cu 0.68288 0.34187 0.65777
 N219 N 0.67223 0.35510 0.68083
 N220 N 0.68182 0.35516 0.67186
 C221 C 0.69010 0.36553 0.67421
 C222 C 0.68541 0.37225 0.68521
 C223 C 0.67409 0.36545 0.68922
 H224 H 0.69885 0.36802 0.66835
 H225 H 0.66772 0.36789 0.69758
 N226 N 0.68228 0.32757 0.64432
 N227 N 0.67297 0.31817 0.64419
 C228 C 0.67520 0.30997 0.63379
 C229 C 0.68641 0.31447 0.62716
 C230 C 0.69068 0.32560 0.63401
 H231 H 0.66913 0.30140 0.63117
 H232 H 0.69923 0.33179 0.63161
 H233 H 0.67325 0.32683 0.66821
 H234 H 0.66265 0.33745 0.65712
 N235 N 0.64596 0.81743 1.17118
 N236 N 0.64550 0.82686 1.18030
 C237 C 0.63489 0.82464 1.18831
 C238 C 0.62847 0.81326 1.18391
 C239 C 0.63568 0.80891 1.17306
 H240 H 0.63201 0.83081 1.19666
 H241 H 0.63357 0.80023 1.16698
 Cu242 Cu 0.65875 0.84113 1.18079
 Cu243 Cu 0.65978 0.81698 1.15752
 Cu244 Cu 0.68386 0.84198 1.15847
 N245 N 0.67250 0.85492 1.18138
 N246 N 0.68230 0.85518 1.17262
 C247 C 0.69037 0.86566 1.17524
 C248 C 0.68533 0.87222 1.18619
 C249 C 0.67402 0.86522 1.18989
 H250 H 0.69922 0.86831 1.16961
 H251 H 0.66744 0.86750 1.19813
 N252 N 0.68372 0.82775 1.14492
 N253 N 0.67455 0.81822 1.14456
 C254 C 0.67707 0.81013 1.13413
 C255 C 0.68833 0.81483 1.12773
 C256 C 0.69232 0.82597 1.13473
 H257 H 0.67114 0.80153 1.13133
 H258 H 0.70080 0.83233 1.13249
 H259 H 0.67422 0.82675 1.16859
 H260 H 0.66371 0.83730 1.15735
 N261 N 0.14560 0.31764 1.17135
 N262 N 0.14539 0.32725 1.18028
 C263 C 0.13487 0.32531 1.18849
 C264 C 0.12825 0.31393 1.18441
 C265 C 0.13524 0.30927 1.17354
 H266 H 0.13220 0.33168 1.19677
 H267 H 0.13295 0.30050 1.16767
 Cu268 Cu 0.15885 0.34135 1.18032
 Cu269 Cu 0.15920 0.31671 1.15749
 Cu270 Cu 0.18368 0.34132 1.15766
 N271 N 0.17290 0.35487 1.18047
 N272 N 0.18258 0.35478 1.17158
 C273 C 0.19089 0.36514 1.17389
 C274 C 0.18613 0.37201 1.18477
 C275 C 0.17473 0.36531 1.18875
 H276 H 0.19970 0.36752 1.16808
 H277 H 0.16830 0.36789 1.19702
 N278 N 0.18311 0.32687 1.14437
 N279 N 0.17378 0.31748 1.14430
 C280 C 0.17604 0.30918 1.13398
 C281 C 0.18727 0.31360 1.12734
 C282 C 0.19153 0.32479 1.13410
 H283 H 0.16994 0.30062 1.13140
 H284 H 0.20007 0.33098 1.13164
 H285 H 0.17392 0.32647 1.16822
 H286 H 0.16344 0.33697 1.15690
 N287 N 0.14308 0.81963 0.66832
 N288 N 0.14286 0.82897 0.67753
 C289 C 0.13308 0.82619 0.68633
 C290 C 0.12690 0.81452 0.68235
 C291 C 0.13340 0.81060 0.67090
 H292 H 0.13052 0.83229 0.69485
 H293 H 0.13116 0.80196 0.66481
 Cu294 Cu 0.15500 0.84416 0.67686
 Cu295 Cu 0.15547 0.82033 0.65341
 Cu296 Cu 0.18257 0.84167 0.65769
 N297 N 0.17020 0.85602 0.67921
 N298 N 0.18106 0.85485 0.67188
 C299 C 0.18993 0.86433 0.67551
 C300 C 0.18428 0.87171 0.68564
 C301 C 0.17178 0.86625 0.68778
 H302 H 0.19964 0.86588 0.67098
 H303 H 0.16438 0.86953 0.69494
 N304 N 0.18197 0.82775 0.64381
 N305 N 0.17153 0.81981 0.64204
 C306 C 0.17390 0.81177 0.63155
 C307 C 0.18638 0.81486 0.62654
 C308 C 0.19124 0.82500 0.63445
 H309 H 0.16704 0.80431 0.62777
 H310 H 0.20072 0.83013 0.63331
 H311 H 0.16955 0.82787 0.66617
 H312 H 0.16254 0.84002 0.65394
 N313 N 0.35451 0.68088 0.67281
 N314 N 0.35438 0.67135 0.68185
 C315 C 0.36473 0.67322 0.69025
 C316 C 0.37161 0.68446 0.68618
 C317 C 0.36493 0.68911 0.67513
 H318 H 0.36712 0.66690 0.69865
 H319 H 0.36749 0.69779 0.66921
 Cu320 Cu 0.34074 0.65743 0.68174
 Cu321 Cu 0.34122 0.68187 0.65869
 Cu322 Cu 0.31647 0.65751 0.65857
 N323 N 0.32660 0.64402 0.68170
 N324 N 0.31713 0.64413 0.67261
 C325 C 0.30870 0.63384 0.67480
 C326 C 0.31315 0.62699 0.68583
 C327 C 0.32449 0.63363 0.69001
 H328 H 0.30001 0.63148 0.66882
 H329 H 0.33072 0.63105 0.69842
 N330 N 0.31748 0.67187 0.64520
 N331 N 0.32690 0.68117 0.64523
 C332 C 0.32492 0.68943 0.63482
 C333 C 0.31378 0.68508 0.62802
 C334 C 0.30928 0.67397 0.63478
 H335 H 0.33114 0.69793 0.63230
 H336 H 0.30072 0.66786 0.63222
 H337 H 0.32616 0.67240 0.66918
 H338 H 0.33679 0.66169 0.65819
 N339 N 0.35459 0.18175 1.17280
 N340 N 0.35449 0.17239 1.18201
 C341 C 0.36490 0.17438 1.19030
 C342 C 0.37178 0.18552 1.18600
 C343 C 0.36506 0.18999 1.17490
 H344 H 0.36734 0.16819 1.19879
 H345 H 0.36761 0.19855 1.16881
 Cu346 Cu 0.34086 0.15848 1.18218
 Cu347 Cu 0.34118 0.18251 1.15875
 Cu348 Cu 0.31652 0.15803 1.15914
 N349 N 0.32687 0.14494 1.18240
 N350 N 0.31737 0.14482 1.17334
 C351 C 0.30908 0.13444 1.17570
 C352 C 0.31366 0.12781 1.18681
 C353 C 0.32493 0.13464 1.19085
 H354 H 0.30042 0.13189 1.16977
 H355 H 0.33122 0.13224 1.19926
 N356 N 0.31735 0.17225 1.14557
 N357 N 0.32674 0.18158 1.14541
 C358 C 0.32466 0.18972 1.13492
 C359 C 0.31346 0.18526 1.12827
 C360 C 0.30905 0.17422 1.13520
 H361 H 0.33083 0.19820 1.13226
 H362 H 0.30048 0.16806 1.13279
 H363 H 0.32616 0.17314 1.16942
 H364 H 0.33680 0.16229 1.15858
 N365 N 0.85439 0.68177 1.17296
 N366 N 0.85432 0.67239 1.18215
 C367 C 0.86474 0.67436 1.19043
 C368 C 0.87162 0.68551 1.18613
 C369 C 0.86486 0.69001 1.17506
 H370 H 0.86720 0.66816 1.19890
 H371 H 0.86739 0.69858 1.16899
 Cu372 Cu 0.84067 0.65851 1.18237
 Cu373 Cu 0.84095 0.68253 1.15894
 Cu374 Cu 0.81622 0.65813 1.15941
 N375 N 0.82661 0.64503 1.18265
 N376 N 0.81707 0.64493 1.17364
 C377 C 0.80875 0.63458 1.17606
 C378 C 0.81338 0.62794 1.18715
 C379 C 0.82469 0.63475 1.19112
 H380 H 0.80005 0.63204 1.17018
 H381 H 0.83103 0.63233 1.19949
 N382 N 0.81707 0.67233 1.14582
 N383 N 0.82650 0.68162 1.14563
 C384 C 0.82443 0.68976 1.13515
 C385 C 0.81321 0.68535 1.12851
 C386 C 0.80876 0.67433 1.13545
 H387 H 0.83063 0.69822 1.13247
 H388 H 0.80016 0.66820 1.13306
 H389 H 0.82594 0.67321 1.16966
 H390 H 0.83650 0.66233 1.15878
 N391 N 0.85434 0.18078 0.67305
 N392 N 0.85378 0.17173 0.68253
 C393 C 0.86414 0.17360 0.69092
 C394 C 0.87147 0.18437 0.68639
 C395 C 0.86505 0.18872 0.67507
 H396 H 0.86623 0.16760 0.69963
 H397 H 0.86797 0.19702 0.66879
 Cu398 Cu 0.83960 0.15835 0.68297
 Cu399 Cu 0.84118 0.18162 0.65880
 Cu400 Cu 0.81611 0.15761 0.65903
 N401 N 0.82567 0.14472 0.68272
 N402 N 0.81650 0.14452 0.67334
 C403 C 0.80817 0.13412 0.67544
 C404 C 0.81239 0.12753 0.68671
 C405 C 0.82349 0.13442 0.69112
 H406 H 0.79975 0.13150 0.66921
 H407 H 0.82952 0.13205 0.69972
 N408 N 0.81739 0.17168 0.64537
 N409 N 0.82696 0.18082 0.64526
 C410 C 0.82513 0.18895 0.63472
 C411 C 0.81392 0.18467 0.62798
 C412 C 0.80922 0.17376 0.63491
 H413 H 0.83146 0.19734 0.63211
 H414 H 0.80052 0.16780 0.63248
 H415 H 0.82564 0.17286 0.66921
 H416 H 0.83649 0.16147 0.65914
 N417 N 0.31757 0.35530 0.67342
 N418 N 0.32680 0.35488 0.68273
 C419 C 0.32490 0.36520 0.69116
 C420 C 0.31393 0.37236 0.68684
 C421 C 0.30948 0.36588 0.67560
 H422 H 0.33100 0.36737 0.69976
 H423 H 0.30101 0.36866 0.66948
 Cu424 Cu 0.34038 0.34089 0.68295
 Cu425 Cu 0.31677 0.34215 0.65917
 Cu426 Cu 0.34115 0.31736 0.65904
 N427 N 0.35416 0.32711 0.68259
 N428 N 0.35440 0.31791 0.67324
 C429 C 0.36492 0.30970 0.67530
 C430 C 0.37153 0.31403 0.68651
 C431 C 0.36453 0.32506 0.69092
 H432 H 0.36759 0.30126 0.66909
 H433 H 0.36688 0.33114 0.69950
 N434 N 0.32689 0.31852 0.64554
 N435 N 0.31761 0.32797 0.64559
 C436 C 0.30937 0.32608 0.63516
 C437 C 0.31369 0.31496 0.62832
 C438 C 0.32478 0.31036 0.63508
 H439 H 0.30085 0.33231 0.63270
 H440 H 0.33082 0.30174 0.63253
 H441 H 0.32593 0.32671 0.66941
 H442 H 0.33704 0.33767 0.65917
 N443 N 0.31771 0.85616 0.17271
 N444 N 0.32715 0.85622 0.18182
 C445 C 0.32503 0.86658 0.19014
 C446 C 0.31370 0.87326 0.18596
 C447 C 0.30927 0.86646 0.17491
 H448 H 0.33124 0.86912 0.19857
 H449 H 0.30060 0.86885 0.16891
 Cu450 Cu 0.34131 0.84279 0.18182
 Cu451 Cu 0.31705 0.84282 0.15865
 Cu452 Cu 0.34182 0.81844 0.15871
 N453 N 0.35497 0.82886 0.18190
 N454 N 0.35512 0.81938 0.17282
 C455 C 0.36556 0.81114 0.17510
 C456 C 0.37223 0.81573 0.18618
 C457 C 0.36532 0.82695 0.19029
 H458 H 0.36814 0.80250 0.16915
 H459 H 0.36771 0.83324 0.19871
 N460 N 0.32749 0.81920 0.14526
 N461 N 0.31806 0.82850 0.14524
 C462 C 0.30981 0.82638 0.13486
 C463 C 0.31430 0.81526 0.12811
 C464 C 0.32548 0.81091 0.13487
 H465 H 0.30120 0.83246 0.13235
 H466 H 0.33167 0.80238 0.13238
 H467 H 0.32673 0.82789 0.16922
 H468 H 0.33736 0.83864 0.15826
 N469 N 0.81738 0.35569 0.17156
 N470 N 0.82683 0.35573 0.18066
 C471 C 0.82473 0.36609 0.18899
 C472 C 0.81341 0.37279 0.18481
 C473 C 0.80896 0.36600 0.17376
 H474 H 0.83095 0.36862 0.19742
 H475 H 0.80029 0.36840 0.16777
 Cu476 Cu 0.84095 0.34228 0.18068
 Cu477 Cu 0.81672 0.34234 0.15750
 Cu478 Cu 0.84145 0.31793 0.15758
 N479 N 0.85460 0.32835 0.18078
 N480 N 0.85474 0.31886 0.17171
 C481 C 0.86517 0.31061 0.17402
 C482 C 0.87183 0.31521 0.18510
 C483 C 0.86494 0.32644 0.18918
 H484 H 0.86774 0.30195 0.16809
 H485 H 0.86732 0.33273 0.19760
 N486 N 0.82713 0.31870 0.14412
 N487 N 0.81772 0.32802 0.14410
 C488 C 0.80950 0.32595 0.13369
 C489 C 0.81398 0.31483 0.12693
 C490 C 0.82513 0.31044 0.13371
 H491 H 0.80092 0.33206 0.13115
 H492 H 0.83132 0.30191 0.13121
 H493 H 0.82638 0.32739 0.16808
 H494 H 0.83703 0.33811 0.15712
 N495 N 0.81749 0.85491 0.67259
 N496 N 0.82655 0.85460 0.68208
 C497 C 0.82436 0.86490 0.69046
 C498 C 0.81338 0.87192 0.68595
 C499 C 0.80923 0.86539 0.67461
 H500 H 0.83029 0.86717 0.69916
 H501 H 0.80087 0.86809 0.66832
 Cu502 Cu 0.84039 0.84088 0.68252
 Cu503 Cu 0.81716 0.84175 0.65830
 Cu504 Cu 0.84207 0.81752 0.65850
 N505 N 0.85447 0.82740 0.68231
 N506 N 0.85509 0.81830 0.67287
 C507 C 0.86577 0.81034 0.67502
 C508 C 0.87210 0.81472 0.68637
 C509 C 0.86476 0.82553 0.69078
 H510 H 0.86875 0.80203 0.66878
 H511 H 0.86681 0.83157 0.69946
 N512 N 0.82801 0.81836 0.64480
 N513 N 0.81850 0.82759 0.64472
 C514 C 0.81046 0.82550 0.63417
 C515 C 0.81517 0.81448 0.62739
 C516 C 0.82626 0.81017 0.63431
 H517 H 0.80184 0.83153 0.63158
 H518 H 0.83256 0.80170 0.63185
 H519 H 0.82644 0.82649 0.66867
 H520 H 0.83749 0.83774 0.65867
 N521 N 0.68217 0.64576 0.67164
 N522 N 0.67286 0.64617 0.68090
 C523 C 0.67465 0.63580 0.68929
 C524 C 0.68564 0.62863 0.68503
 C525 C 0.69021 0.63514 0.67383
 H526 H 0.66846 0.63360 0.69784
 H527 H 0.69872 0.63236 0.66775
 Cu528 Cu 0.65929 0.66017 0.68108
 Cu529 Cu 0.68315 0.65900 0.65744
 Cu530 Cu 0.65878 0.68380 0.65726
 N531 N 0.64553 0.67398 0.68067
 N532 N 0.64539 0.68320 0.67132
 C533 C 0.63488 0.69143 0.67330
 C534 C 0.62813 0.68708 0.68444
 C535 C 0.63507 0.67602 0.68891
 H536 H 0.63230 0.69989 0.66709
 H537 H 0.63263 0.66994 0.69747
 N538 N 0.67315 0.68273 0.64387
 N539 N 0.68244 0.67328 0.64391
 C540 C 0.69075 0.67526 0.63353
 C541 C 0.68645 0.68643 0.62673
 C542 C 0.67532 0.69095 0.63346
 H543 H 0.69929 0.66905 0.63106
 H544 H 0.66927 0.69957 0.63093
 H545 H 0.67395 0.67437 0.66770
 H546 H 0.66292 0.66348 0.65734
 N547 N 0.68238 0.14568 0.17102
 N548 N 0.67280 0.14578 0.18001
 C549 C 0.67464 0.13540 0.18839
 C550 C 0.68593 0.12856 0.18438
 C551 C 0.69063 0.13527 0.17336
 H552 H 0.66827 0.13298 0.19676
 H553 H 0.69937 0.13274 0.16750
 Cu554 Cu 0.65886 0.15943 0.17983
 Cu555 Cu 0.68345 0.15900 0.15694
 Cu556 Cu 0.65909 0.18378 0.15669
 N557 N 0.64542 0.17357 0.17972
 N558 N 0.64558 0.18307 0.17066
 C559 C 0.63525 0.19149 0.17282
 C560 C 0.62834 0.18699 0.18380
 C561 C 0.63497 0.17564 0.18798
 H562 H 0.63292 0.20019 0.16684
 H563 H 0.63234 0.16938 0.19635
 N564 N 0.67359 0.18279 0.14341
 N565 N 0.68285 0.17333 0.14350
 C566 C 0.69124 0.17527 0.13317
 C567 C 0.68701 0.18645 0.12635
 C568 C 0.67584 0.19101 0.13301
 H569 H 0.69974 0.16902 0.13073
 H570 H 0.66981 0.19963 0.13043
 H571 H 0.67387 0.17407 0.16738
 H572 H 0.66322 0.16350 0.15631
 N573 N 0.18179 0.64532 0.17268
 N574 N 0.17234 0.64597 0.18179
 C575 C 0.17388 0.63570 0.19035
 C576 C 0.18484 0.62833 0.18633
 C577 C 0.18965 0.63463 0.17513
 H578 H 0.16753 0.63369 0.19884
 H579 H 0.19820 0.63165 0.16921
 Cu580 Cu 0.15896 0.66016 0.18152
 Cu581 Cu 0.18318 0.65831 0.15832
 Cu582 Cu 0.15916 0.68341 0.15730
 N583 N 0.14538 0.67413 0.18063
 N584 N 0.14552 0.68320 0.17115
 C585 C 0.13508 0.69159 0.17282
 C586 C 0.12809 0.68750 0.18392
 C587 C 0.13481 0.67643 0.18867
 H588 H 0.13271 0.69998 0.16644
 H589 H 0.13215 0.67052 0.19728
 N590 N 0.17377 0.68193 0.14418
 N591 N 0.18292 0.67236 0.14457
 C592 C 0.19146 0.67402 0.13431
 C593 C 0.18745 0.68512 0.12724
 C594 C 0.17625 0.68992 0.13367
 H595 H 0.19994 0.66764 0.13212
 H596 H 0.17037 0.69858 0.13087
 H597 H 0.17398 0.67399 0.16817
 H598 H 0.16299 0.66307 0.15780
 N599 N 0.18225 0.14436 0.67191
 N600 N 0.17261 0.14443 0.68084
 C601 C 0.17439 0.13402 0.68920
 C602 C 0.18571 0.12718 0.68521
 C603 C 0.19048 0.13393 0.67426
 H604 H 0.16798 0.13157 0.69752
 H605 H 0.19924 0.13142 0.66843
 Cu606 Cu 0.15868 0.15810 0.68063
 Cu607 Cu 0.18341 0.15772 0.65788
 Cu608 Cu 0.15911 0.18255 0.65759
 N609 N 0.14530 0.17230 0.68052
 N610 N 0.14555 0.18184 0.67149
 C611 C 0.13524 0.19029 0.67363
 C612 C 0.12824 0.18577 0.68455
 C613 C 0.13481 0.17438 0.68872
 H614 H 0.13296 0.19902 0.66768
 H615 H 0.13211 0.16809 0.69705
 N616 N 0.17366 0.18156 0.64437
 N617 N 0.18291 0.17208 0.64448
 C618 C 0.19134 0.17404 0.63419
 C619 C 0.18716 0.18524 0.62738
 C620 C 0.17597 0.18980 0.63400
 H621 H 0.19985 0.16778 0.63178
 H622 H 0.16996 0.19843 0.63140
 H623 H 0.17380 0.17276 0.66834
 H624 H 0.16319 0.16227 0.65716
 N625 N 0.31789 0.64509 0.32710
 N626 N 0.32699 0.64543 0.31764
 C627 C 0.32494 0.63508 0.30929
 C628 C 0.31401 0.62799 0.31381
 C629 C 0.30974 0.63453 0.32510
 H630 H 0.33094 0.63282 0.30062
 H631 H 0.30137 0.63180 0.33138
 Cu632 Cu 0.34070 0.65926 0.31718
 Cu633 Cu 0.31733 0.65829 0.34132
 Cu634 Cu 0.34200 0.68274 0.34111
 N635 N 0.35467 0.67284 0.31743
 N636 N 0.35512 0.68199 0.32681
 C637 C 0.36574 0.69003 0.32469
 C638 C 0.37220 0.68564 0.31340
 C639 C 0.36500 0.67474 0.30900
 H640 H 0.36858 0.69840 0.33090
 H641 H 0.36719 0.66867 0.30037
 N642 N 0.32785 0.68184 0.35474
 N643 N 0.31845 0.67252 0.35484
 C644 C 0.31032 0.67459 0.36535
 C645 C 0.31486 0.68569 0.37208
 C646 C 0.32594 0.69008 0.36518
 H647 H 0.30175 0.66850 0.36793
 H648 H 0.33212 0.69862 0.36761
 H649 H 0.32652 0.67358 0.33092
 H650 H 0.33762 0.66247 0.34101
 N651 N 0.31671 0.14494 0.82734
 N652 N 0.32617 0.14456 0.81822
 C653 C 0.32401 0.13397 0.81020
 C654 C 0.31265 0.12749 0.81459
 C655 C 0.30823 0.13463 0.82545
 H656 H 0.33022 0.13114 0.80185
 H657 H 0.29956 0.13246 0.83153
 Cu658 Cu 0.34039 0.15787 0.81777
 Cu659 Cu 0.31616 0.15869 0.84105
 Cu660 Cu 0.34110 0.18284 0.84018
 N661 N 0.35414 0.17168 0.81723
 N662 N 0.35435 0.18142 0.82604
 C663 C 0.36485 0.18950 0.82350
 C664 C 0.37148 0.18453 0.81256
 C665 C 0.36451 0.17325 0.80878
 H666 H 0.36750 0.19827 0.82922
 H667 H 0.36687 0.16669 0.80055
 N668 N 0.32683 0.18259 0.85372
 N669 N 0.31732 0.17339 0.85405
 C670 C 0.30922 0.17581 0.86450
 C671 C 0.31389 0.18703 0.87095
 C672 C 0.32503 0.19110 0.86395
 H673 H 0.30066 0.16981 0.86732
 H674 H 0.33139 0.19955 0.86624
 H675 H 0.32589 0.17319 0.83002
 H676 H 0.33647 0.16267 0.84123
 N677 N 0.81768 0.64510 0.82751
 N678 N 0.82675 0.64538 0.81801
 C679 C 0.82461 0.63504 0.80968
 C680 C 0.81365 0.62802 0.81424
 C681 C 0.80946 0.63459 0.82554
 H682 H 0.83055 0.63275 0.80098
 H683 H 0.80109 0.63192 0.83185
 Cu684 Cu 0.84051 0.65915 0.81747
 Cu685 Cu 0.81726 0.65834 0.84172
 Cu686 Cu 0.84201 0.68270 0.84131
 N687 N 0.85451 0.67269 0.81758
 N688 N 0.85505 0.68188 0.82693
 C689 C 0.86568 0.68988 0.82472
 C690 C 0.87206 0.68542 0.81341
 C691 C 0.86481 0.67453 0.80909
 H692 H 0.86858 0.69825 0.83088
 H693 H 0.86692 0.66842 0.80048
 N694 N 0.82794 0.68188 0.85504
 N695 N 0.81851 0.67259 0.85520
 C696 C 0.81046 0.67469 0.86576
 C697 C 0.81508 0.68579 0.87245
 C698 C 0.82612 0.69014 0.86548
 H699 H 0.80189 0.66863 0.86841
 H700 H 0.83235 0.69866 0.86786
 H701 H 0.82644 0.67357 0.83124
 H702 H 0.83756 0.66246 0.84130
 N703 N 0.81707 0.14574 0.32803
 N704 N 0.82647 0.14529 0.31886
 C705 C 0.82418 0.13473 0.31084
 C706 C 0.81280 0.12833 0.31528
 C707 C 0.80850 0.13550 0.32617
 H708 H 0.83033 0.13186 0.30245
 H709 H 0.79984 0.13338 0.33230
 Cu710 Cu 0.84080 0.15849 0.31834
 Cu711 Cu 0.81671 0.15948 0.34175
 Cu712 Cu 0.84184 0.18343 0.34077
 N713 N 0.85466 0.17218 0.31774
 N714 N 0.85500 0.18190 0.32655
 C715 C 0.86554 0.18991 0.32395
 C716 C 0.87206 0.18490 0.31295
 C717 C 0.86498 0.17368 0.30922
 H718 H 0.86828 0.19867 0.32964
 H719 H 0.86722 0.16712 0.30096
 N720 N 0.82764 0.18328 0.35438
 N721 N 0.81806 0.17416 0.35476
 C722 C 0.81002 0.17665 0.36524
 C723 C 0.81480 0.18784 0.37166
 C724 C 0.82594 0.19182 0.36462
 H725 H 0.80140 0.17074 0.36808
 H726 H 0.83236 0.20024 0.36686
 H727 H 0.82651 0.17393 0.33069
 H728 H 0.83707 0.16331 0.34182
 N729 N 0.68230 0.35377 0.32859
 N730 N 0.67275 0.35392 0.31958
 C731 C 0.67466 0.36445 0.31141
 C732 C 0.68596 0.37117 0.31560
 C733 C 0.69059 0.36420 0.32648
 H734 H 0.66835 0.36707 0.30308
 H735 H 0.69931 0.36655 0.33241
 Cu736 Cu 0.65880 0.34031 0.31939
 Cu737 Cu 0.68328 0.34013 0.34238
 Cu738 Cu 0.65889 0.31543 0.34195
 N739 N 0.64537 0.32617 0.31911
 N740 N 0.64548 0.31647 0.32796
 C741 C 0.63517 0.30812 0.32559
 C742 C 0.62831 0.31287 0.31470
 C743 C 0.63496 0.32431 0.31078
 H744 H 0.63280 0.29930 0.33137
 H745 H 0.63237 0.33076 0.30255
 N746 N 0.67327 0.31608 0.35533
 N747 N 0.68257 0.32549 0.35549
 C748 C 0.69083 0.32330 0.36585
 C749 C 0.68648 0.31200 0.37242
 C750 C 0.67537 0.30765 0.36558
 H751 H 0.69931 0.32948 0.36851
 H752 H 0.66924 0.29905 0.36798
 H753 H 0.67376 0.32538 0.33154
 H754 H 0.66307 0.33571 0.34282
 N755 N 0.68096 0.85401 0.82861
 N756 N 0.67168 0.85357 0.81934
 C757 C 0.67339 0.86399 0.81100
 C758 C 0.68428 0.87124 0.81532
 C759 C 0.68890 0.86470 0.82648
 H760 H 0.66723 0.86614 0.80242
 H761 H 0.69743 0.86746 0.83251
 Cu762 Cu 0.65822 0.83950 0.81926
 Cu763 Cu 0.68234 0.84047 0.84253
 Cu764 Cu 0.66107 0.81312 0.83968
 N765 N 0.64512 0.82509 0.81909
 N766 N 0.64630 0.81478 0.82716
 C767 C 0.63611 0.80622 0.82502
 C768 C 0.62815 0.81152 0.81514
 C769 C 0.63408 0.82346 0.81156
 H770 H 0.63460 0.79688 0.83025
 H771 H 0.63060 0.83038 0.80405
 N772 N 0.67426 0.81500 0.85410
 N773 N 0.68217 0.82553 0.85536
 C774 C 0.68974 0.82400 0.86635
 C775 C 0.68635 0.81199 0.87219
 C776 C 0.67654 0.80652 0.86426
 H777 H 0.69714 0.83106 0.86986
 H778 H 0.67137 0.79714 0.86587
 H779 H 0.67500 0.82581 0.83053
 H780 H 0.66265 0.83355 0.84222
 N781 N 0.18169 0.35344 0.82756
 N782 N 0.17223 0.35309 0.81847
 C783 C 0.17384 0.36354 0.81013
 C784 C 0.18487 0.37069 0.81426
 C785 C 0.18965 0.36409 0.82531
 H786 H 0.16749 0.36580 0.80172
 H787 H 0.19824 0.36684 0.83126
 Cu788 Cu 0.15872 0.33905 0.81845
 Cu789 Cu 0.18295 0.34011 0.84164
 Cu790 Cu 0.15868 0.31526 0.84211
 N791 N 0.14504 0.32519 0.81898
 N792 N 0.14508 0.31591 0.82827
 C793 C 0.13462 0.30762 0.82637
 C794 C 0.12772 0.31199 0.81534
 C795 C 0.13452 0.32312 0.81085
 H796 H 0.13220 0.29908 0.83253
 H797 H 0.13197 0.32920 0.80233
 N798 N 0.17326 0.31628 0.85525
 N799 N 0.18252 0.32574 0.85508
 C800 C 0.19098 0.32376 0.86533
 C801 C 0.18681 0.31256 0.87216
 C802 C 0.17560 0.30804 0.86560
 H803 H 0.19950 0.33001 0.86770
 H804 H 0.16958 0.29943 0.86824
 H805 H 0.17363 0.32479 0.83145
 H806 H 0.16274 0.33558 0.84210
 N807 N 0.18150 0.85458 0.32900
 N808 N 0.17202 0.85461 0.31993
 C809 C 0.17402 0.86502 0.31162
 C810 C 0.18531 0.87176 0.31578
 C811 C 0.18984 0.86495 0.32679
 H812 H 0.16776 0.86754 0.30321
 H813 H 0.19852 0.86737 0.33276
 Cu814 Cu 0.15801 0.84105 0.31987
 Cu815 Cu 0.18233 0.84117 0.34302
 Cu816 Cu 0.15784 0.81658 0.34287
 N817 N 0.14453 0.82697 0.31974
 N818 N 0.14453 0.81744 0.32878
 C819 C 0.13424 0.80906 0.32646
 C820 C 0.12750 0.81360 0.31541
 C821 C 0.13421 0.82495 0.31134
 H822 H 0.13182 0.80033 0.33236
 H823 H 0.13174 0.83122 0.30293
 N824 N 0.17214 0.81739 0.35631
 N825 N 0.18149 0.82676 0.35637
 C826 C 0.18973 0.82465 0.36676
 C827 C 0.18532 0.81346 0.37345
 C828 C 0.17420 0.80907 0.36666
 H829 H 0.19827 0.83078 0.36931
 H830 H 0.16806 0.80049 0.36911
 H831 H 0.17280 0.82625 0.33237
 H832 H 0.16208 0.83682 0.34341
 C833 C 0.24357 1.00033 0.25616
 C834 C 0.25326 1.00036 0.24661
 C835 C 0.25912 1.01300 0.24142
 C836 C 0.25854 0.98774 0.24078
 C837 C 0.23846 0.98768 0.26206
 C838 C 0.23757 1.01296 0.26124
 C839 C 0.25913 1.01545 0.22768
 C840 C 0.26467 1.02723 0.22262
 C841 C 0.27032 1.03667 0.23122
 C842 C 0.27047 1.03425 0.24493
 C843 C 0.26496 1.02243 0.25001
 C844 C 0.24992 0.97835 0.23485
 C845 C 0.25510 0.96658 0.22932
 C846 C 0.26892 0.96416 0.22955
 C847 C 0.27756 0.97355 0.23529
 C848 C 0.27240 0.98529 0.24084
 C849 C 0.24721 0.97842 0.26803
 C850 C 0.24223 0.96651 0.27342
 C851 C 0.22846 0.96381 0.27301
 C852 C 0.21969 0.97310 0.26727
 C853 C 0.22465 0.98499 0.26187
 C854 C 0.23771 1.01561 0.27494
 C855 C 0.23225 1.02750 0.27987
 C856 C 0.22649 1.03681 0.27119
 C857 C 0.22612 1.03415 0.25753
 C858 C 0.23158 1.02225 0.25257
 H859 H 0.25476 1.00826 0.22090
 H860 H 0.26455 1.02899 0.21199
 H861 H 0.27490 1.04146 0.25166
 H862 H 0.26529 1.02062 0.26061
 H863 H 0.23923 0.98017 0.23446
 H864 H 0.24834 0.95941 0.22482
 H865 H 0.27922 0.99245 0.24528
 H866 H 0.25787 0.98043 0.26849
 H867 H 0.24910 0.95942 0.27792
 H868 H 0.20902 0.97112 0.26694
 H869 H 0.21774 0.99204 0.25739
 H870 H 0.24222 1.00854 0.28178
 H871 H 0.23256 1.02944 0.29046
 H872 H 0.22163 1.04127 0.25073
 H873 H 0.23115 1.02028 0.24200
 H874 H 0.28828 0.97179 0.23547
 C875 C 0.24347 0.49974 0.75606
 C876 C 0.25317 0.49974 0.74651
 C877 C 0.25841 0.51237 0.74069
 C878 C 0.25907 0.48710 0.74137
 C879 C 0.23744 0.48710 0.76104
 C880 C 0.23843 0.51237 0.76206
 C881 C 0.24976 0.52176 0.73478
 C882 C 0.25490 0.53356 0.72927
 C883 C 0.26872 0.53600 0.72951
 C884 C 0.27738 0.52661 0.73525
 C885 C 0.27227 0.51484 0.74077
 C886 C 0.25896 0.48453 0.72766
 C887 C 0.26458 0.47276 0.72264
 C888 C 0.27048 0.46347 0.73127
 C889 C 0.27076 0.46602 0.74495
 C890 C 0.26513 0.47781 0.74998
 C891 C 0.23764 0.48429 0.77471
 C892 C 0.23212 0.47239 0.77955
 C893 C 0.22623 0.46324 0.77080
 C894 C 0.22580 0.46607 0.75717
 C895 C 0.23134 0.47797 0.75231
 C896 C 0.24724 0.52148 0.76812
 C897 C 0.24234 0.53336 0.77366
 C898 C 0.22859 0.53618 0.77327
 C899 C 0.21976 0.52705 0.76742
 C900 C 0.22464 0.51518 0.76189
 H901 H 0.23908 0.51992 0.73439
 H902 H 0.24812 0.54073 0.72479
 H903 H 0.28810 0.52839 0.73544
 H904 H 0.27910 0.50769 0.74521
 H905 H 0.25441 0.49161 0.72086
 H906 H 0.26433 0.47090 0.71204
 H907 H 0.26555 0.47973 0.76057
 H908 H 0.24223 0.49123 0.78160
 H909 H 0.23248 0.47031 0.79011
 H910 H 0.22121 0.45908 0.75032
 H911 H 0.23087 0.48008 0.74177
 H912 H 0.25789 0.51938 0.76857
 H913 H 0.24925 0.54033 0.77823
 H914 H 0.20910 0.52912 0.76710
 H915 H 0.21769 0.50824 0.75732
 H916 H 0.27537 0.45894 0.75170
 C917 C 0.74415 0.00058 0.24534
 C918 C 0.75386 0.00058 0.25485
 C919 C 0.75994 -0.01206 0.25980
 C920 C 0.75896 0.01320 0.26081
 C921 C 0.73899 0.01321 0.23944
 C922 C 0.73820 -0.01207 0.24029
 C923 C 0.76001 -0.01478 0.27349
 C924 C 0.76570 -0.02661 0.27831
 C925 C 0.77147 -0.03580 0.26950
 C926 C 0.77161 -0.03309 0.25585
 C927 C 0.76592 -0.02124 0.25102
 C928 C 0.75018 0.02246 0.26676
 C929 C 0.75517 0.03425 0.27238
 C930 C 0.76897 0.03682 0.27223
 C931 C 0.77776 0.02756 0.26648
 C932 C 0.77279 0.01579 0.26083
 C933 C 0.74772 0.02251 0.23351
 C934 C 0.74268 0.03434 0.22799
 C935 C 0.72888 0.03692 0.22824
 C936 C 0.72013 0.02761 0.23397
 C937 C 0.72515 0.01579 0.23950
 C938 C 0.73822 -0.01469 0.22658
 C939 C 0.73272 -0.02655 0.22167
 C940 C 0.72704 -0.03588 0.23040
 C941 C 0.72679 -0.03326 0.24407
 C942 C 0.73230 -0.02138 0.24899
 H943 H 0.75553 -0.00779 0.28043
 H944 H 0.76558 -0.02859 0.28889
 H945 H 0.77612 -0.04011 0.24896
 H946 H 0.76621 -0.01921 0.24045
 H947 H 0.73951 0.02052 0.26708
 H948 H 0.74829 0.04133 0.27688
 H949 H 0.77972 0.00874 0.25638
 H950 H 0.75839 0.02058 0.23313
 H951 H 0.74952 0.04145 0.22350
 H952 H 0.70944 0.02949 0.23418
 H953 H 0.71826 0.00871 0.24395
 H954 H 0.74265 -0.00760 0.21971
 H955 H 0.73294 -0.02847 0.21108
 H956 H 0.72236 -0.04038 0.25090
 H957 H 0.73195 -0.01943 0.25957
 H958 H 0.78845 0.02943 0.26635
 C959 C 0.74403 0.50032 0.74521
 C960 C 0.75362 0.50031 0.75484
 C961 C 0.75881 0.48766 0.76068
 C962 C 0.75946 0.51294 0.76002
 C963 C 0.73819 0.51297 0.74001
 C964 C 0.73888 0.48770 0.73933
 C965 C 0.75012 0.47830 0.76658
 C966 C 0.75520 0.46643 0.77201
 C967 C 0.76900 0.46388 0.77169
 C968 C 0.77771 0.47325 0.76599
 C969 C 0.77265 0.48509 0.76055
 C970 C 0.75904 0.51557 0.77372
 C971 C 0.76451 0.52738 0.77878
 C972 C 0.77056 0.53664 0.77022
 C973 C 0.77116 0.53401 0.75656
 C974 C 0.76568 0.52219 0.75148
 C975 C 0.73865 0.51563 0.72632
 C976 C 0.73324 0.52749 0.72126
 C977 C 0.72721 0.53676 0.72981
 C978 C 0.72655 0.53410 0.74346
 C979 C 0.73197 0.52223 0.74855
 C980 C 0.74759 0.47844 0.73331
 C981 C 0.74256 0.46657 0.72788
 C982 C 0.72878 0.46391 0.72835
 C983 C 0.72005 0.47319 0.73417
 C984 C 0.72506 0.48505 0.73959
 H985 H 0.73944 0.48021 0.76701
 H986 H 0.74838 0.45928 0.77646
 H987 H 0.78841 0.47139 0.76573
 H988 H 0.77951 0.49222 0.75612
 H989 H 0.75436 0.50852 0.78046
 H990 H 0.76402 0.52931 0.78936
 H991 H 0.76632 0.52022 0.74092
 H992 H 0.74334 0.50858 0.71958
 H993 H 0.73379 0.52944 0.71068
 H994 H 0.72183 0.54118 0.75016
 H995 H 0.73129 0.52025 0.75911
 H996 H 0.75825 0.48042 0.73280
 H997 H 0.74939 0.45949 0.72333
 H998 H 0.70937 0.47125 0.73455
 H999 H 0.71819 0.49210 0.74413
 H1000 H 0.77589 0.54108 0.74986
 C1001 C 0.24403 0.50003 0.24562
 C1002 C 0.25366 0.50003 0.25522
 C1003 C 0.25880 0.48740 0.26114
 C1004 C 0.25956 0.51267 0.26034
 C1005 C 0.23806 0.51266 0.24053
 C1006 C 0.23896 0.48740 0.23968
 C1007 C 0.25005 0.47807 0.26701
 C1008 C 0.25509 0.46626 0.27259
 C1009 C 0.26890 0.46374 0.27247
 C1010 C 0.27766 0.47307 0.26679
 C1011 C 0.27264 0.48486 0.26119
 C1012 C 0.25945 0.51525 0.27405
 C1013 C 0.26502 0.52705 0.27904
 C1014 C 0.27084 0.53636 0.27038
 C1015 C 0.27113 0.53380 0.25671
 C1016 C 0.26557 0.52198 0.25170
 C1017 C 0.23823 0.51532 0.22683
 C1018 C 0.23267 0.52715 0.22188
 C1019 C 0.22678 0.53640 0.23055
 C1020 C 0.22641 0.53375 0.24421
 C1021 C 0.23197 0.52190 0.24919
 C1022 C 0.24776 0.47814 0.23375
 C1023 C 0.24280 0.46630 0.22820
 C1024 C 0.22902 0.46367 0.22841
 C1025 C 0.22020 0.47294 0.23413
 C1026 C 0.22514 0.48476 0.23969
 H1027 H 0.23937 0.47997 0.26731
 H1028 H 0.24823 0.45914 0.27703
 H1029 H 0.28836 0.47123 0.26668
 H1030 H 0.27955 0.49196 0.25679
 H1031 H 0.25494 0.50817 0.28087
 H1032 H 0.26478 0.52892 0.28964
 H1033 H 0.26599 0.52006 0.24112
 H1034 H 0.24280 0.50829 0.22000
 H1035 H 0.23298 0.52910 0.21129
 H1036 H 0.22182 0.54082 0.25100
 H1037 H 0.23152 0.51992 0.25976
 H1038 H 0.25843 0.48011 0.23342
 H1039 H 0.24970 0.45923 0.22372
 H1040 H 0.20952 0.47101 0.23431
 H1041 H 0.21820 0.49180 0.24414
 H1042 H 0.27568 0.54091 0.24993
 C1043 C 0.74352 0.99938 0.75577
 C1044 C 0.75306 0.99935 0.74607
 C1045 C 0.75829 1.01198 0.74024
 C1046 C 0.75883 0.98670 0.74078
 C1047 C 0.73755 0.98677 0.76091
 C1048 C 0.73853 1.01203 0.76178
 C1049 C 0.74962 1.02146 0.73451
 C1050 C 0.75473 1.03333 0.72913
 C1051 C 0.76856 1.03574 0.72930
 C1052 C 0.77725 1.02624 0.73480
 C1053 C 0.77216 1.01440 0.74020
 C1054 C 0.75866 0.98430 0.72703
 C1055 C 0.76412 0.97252 0.72187
 C1056 C 0.76989 0.96304 0.73037
 C1057 C 0.77024 0.96542 0.74408
 C1058 C 0.76479 0.97723 0.74926
 C1059 C 0.73781 0.98410 0.77461
 C1060 C 0.73229 0.97227 0.77961
 C1061 C 0.72636 0.96303 0.77098
 C1062 C 0.72589 0.96569 0.75733
 C1063 C 0.73140 0.97754 0.75231
 C1064 C 0.74739 1.02123 0.76765
 C1065 C 0.74252 1.03315 0.77313
 C1066 C 0.72875 1.03591 0.77292
 C1067 C 0.71987 1.02669 0.76728
 C1068 C 0.72472 1.01479 0.76178
 H1069 H 0.73892 1.01966 0.73420
 H1070 H 0.74793 1.04059 0.72482
 H1071 H 0.78797 1.02799 0.73493
 H1072 H 0.77901 1.00717 0.74448
 H1073 H 0.75420 0.99152 0.72032
 H1074 H 0.76385 0.97080 0.71124
 H1075 H 0.76527 0.97901 0.75987
 H1076 H 0.74243 0.99113 0.78140
 H1077 H 0.73268 0.97032 0.79019
 H1078 H 0.72126 0.95863 0.75058
 H1079 H 0.73087 0.97953 0.74174
 H1080 H 0.75804 1.01917 0.76797
 H1081 H 0.74947 1.04019 0.77754
 H1082 H 0.70920 1.02871 0.76710
 H1083 H 0.71773 1.00779 0.75737
 H1084 H 0.77475 0.95818 0.75073
 C1085 C 0.74359 0.49978 0.25543
 C1086 C 0.75340 0.49982 0.24599
 C1087 C 0.75936 0.51248 0.24095
 C1088 C 0.75868 0.48720 0.24015
 C1089 C 0.73853 0.48713 0.26137
 C1090 C 0.73744 0.51240 0.26034
 C1091 C 0.75954 0.51502 0.22723
 C1092 C 0.76511 0.52686 0.22231
 C1093 C 0.77063 0.53625 0.23105
 C1094 C 0.77065 0.53371 0.24474
 C1095 C 0.76510 0.52185 0.24967
 C1096 C 0.75006 0.47783 0.23420
 C1097 C 0.75523 0.46607 0.22865
 C1098 C 0.76905 0.46364 0.22889
 C1099 C 0.77769 0.47301 0.23465
 C1100 C 0.77255 0.48475 0.24021
 C1101 C 0.74732 0.47797 0.26744
 C1102 C 0.74239 0.46609 0.27295
 C1103 C 0.72864 0.46332 0.27256
 C1104 C 0.71983 0.47250 0.26670
 C1105 C 0.72473 0.48436 0.26119
 C1106 C 0.73729 0.51512 0.27402
 C1107 C 0.73172 0.52703 0.27879
 C1108 C 0.72615 0.53630 0.26993
 C1109 C 0.72606 0.53356 0.25629
 C1110 C 0.73161 0.52163 0.25151
 H1111 H 0.75525 0.50788 0.22034
 H1112 H 0.76509 0.52870 0.21170
 H1113 H 0.77498 0.54088 0.25158
 H1114 H 0.76530 0.51995 0.26027
 H1115 H 0.73937 0.47967 0.23380
 H1116 H 0.74846 0.45891 0.22414
 H1117 H 0.77936 0.49189 0.24466
 H1118 H 0.75796 0.48004 0.26791
 H1119 H 0.74929 0.45908 0.27753
 H1120 H 0.70916 0.47046 0.26638
 H1121 H 0.71779 0.49133 0.25663
 H1122 H 0.74166 0.50809 0.28099
 H1123 H 0.73180 0.52903 0.28937
 H1124 H 0.72171 0.54064 0.24936
 H1125 H 0.73139 0.51961 0.24094
 H1126 H 0.78841 0.47124 0.23483
 C1127 C 0.24408 -0.00093 0.74582
 C1128 C 0.25374 -0.00087 0.75538
 C1129 C 0.25969 -0.01348 0.76055
 C1130 C 0.25888 0.01179 0.76120
 C1131 C 0.23890 0.01167 0.73987
 C1132 C 0.23817 -0.01360 0.74078
 C1133 C 0.25956 -0.01602 0.77428
 C1134 C 0.26512 -0.02781 0.77932
 C1135 C 0.27096 -0.03715 0.77071
 C1136 C 0.27128 -0.03463 0.75702
 C1137 C 0.26572 -0.02282 0.75196
 C1138 C 0.25015 0.02115 0.76706
 C1139 C 0.25518 0.03300 0.77252
 C1140 C 0.26898 0.03554 0.77229
 C1141 C 0.27773 0.02618 0.76662
 C1142 C 0.27272 0.01435 0.76115
 C1143 C 0.24761 0.02095 0.73387
 C1144 C 0.24255 0.03278 0.72835
 C1145 C 0.22876 0.03537 0.72866
 C1146 C 0.22003 0.02607 0.73445
 C1147 C 0.22507 0.01426 0.73998
 C1148 C 0.23837 -0.01629 0.72709
 C1149 C 0.23290 -0.02817 0.72217
 C1150 C 0.22708 -0.03743 0.73087
 C1151 C 0.22667 -0.03474 0.74452
 C1152 C 0.23214 -0.02285 0.74946
 H1153 H 0.25502 -0.00892 0.78106
 H1154 H 0.26486 -0.02966 0.78993
 H1155 H 0.27584 -0.04177 0.75029
 H1156 H 0.26614 -0.02093 0.74137
 H1157 H 0.23947 0.01924 0.76743
 H1158 H 0.24833 0.04015 0.77694
 H1159 H 0.27962 0.00724 0.75675
 H1160 H 0.25828 0.01902 0.73345
 H1161 H 0.24938 0.03988 0.72382
 H1162 H 0.20934 0.02797 0.73471
 H1163 H 0.21819 0.00720 0.74448
 H1164 H 0.24291 -0.00925 0.72023
 H1165 H 0.23324 -0.03014 0.71159
 H1166 H 0.22212 -0.04181 0.75133
 H1167 H 0.23168 -0.02084 0.76002
 H1168 H 0.28843 0.02804 0.76643
 C1169 C 0.25617 0.24460 0.99989
 C1170 C 0.24653 0.25428 0.99988
 C1171 C 0.24133 0.26019 1.01242
 C1172 C 0.24066 0.25950 0.98734
 C1173 C 0.26220 0.23956 0.98734
 C1174 C 0.26119 0.23853 1.01242
 C1175 C 0.22747 0.26025 1.01488
 C1176 C 0.22241 0.26575 1.02662
 C1177 C 0.23114 0.27130 1.03599
 C1178 C 0.24496 0.27145 1.03353
 C1179 C 0.25004 0.26599 1.02176
 C1180 C 0.23478 0.25083 0.97802
 C1181 C 0.22943 0.25590 0.96621
 C1182 C 0.22977 0.26969 0.96367
 C1183 C 0.23540 0.27839 0.97303
 C1184 C 0.24076 0.27333 0.98482
 C1185 C 0.26818 0.24837 0.97819
 C1186 C 0.27361 0.24348 0.96633
 C1187 C 0.27322 0.22974 0.96358
 C1188 C 0.26750 0.22090 0.97276
 C1189 C 0.26206 0.22577 0.98461
 C1190 C 0.27501 0.23848 1.01508
 C1191 C 0.27988 0.23293 1.02687
 C1192 C 0.27100 0.22729 1.03609
 C1193 C 0.25723 0.22712 1.03341
 C1194 C 0.25235 0.23264 1.02159
 H1195 H 0.22059 0.25592 1.00776
 H1196 H 0.21170 0.26564 1.02840
 H1197 H 0.25180 0.27579 1.04068
 H1198 H 0.26073 0.26628 1.01992
 H1199 H 0.23435 0.24016 0.97990
 H1200 H 0.22501 0.24909 0.95907
 H1201 H 0.24514 0.28019 0.99193
 H1202 H 0.26861 0.25901 0.98023
 H1203 H 0.27808 0.25040 0.95932
 H1204 H 0.26720 0.21024 0.97075
 H1205 H 0.25758 0.21882 0.99157
 H1206 H 0.28199 0.24289 1.00809
 H1207 H 0.29056 0.23307 1.02882
 H1208 H 0.25028 0.22272 1.04045
 H1209 H 0.24169 0.23233 1.01960
 H1210 H 0.23565 0.28908 0.97119
 C1211 C 0.25593 0.74445 0.50000
 C1212 C 0.24642 0.75426 0.50008
 C1213 C 0.24139 0.76023 0.51265
 C1214 C 0.24044 0.75947 0.48759
 C1215 C 0.26179 0.73928 0.48742
 C1216 C 0.26104 0.73841 0.51250
 C1217 C 0.22756 0.76040 0.51522
 C1218 C 0.22262 0.76599 0.52696
 C1219 C 0.23145 0.77156 0.53623
 C1220 C 0.24525 0.77158 0.53368
 C1221 C 0.25021 0.76601 0.52191
 C1222 C 0.23438 0.75080 0.47837
 C1223 C 0.22880 0.75589 0.46667
 C1224 C 0.22908 0.76968 0.46415
 C1225 C 0.23490 0.77837 0.47339
 C1226 C 0.24051 0.77331 0.48507
 C1227 C 0.26780 0.74798 0.47818
 C1228 C 0.27322 0.74294 0.46637
 C1229 C 0.27279 0.72917 0.46376
 C1230 C 0.26699 0.72045 0.47301
 C1231 C 0.26156 0.72547 0.48480
 C1232 C 0.27487 0.73833 0.51504
 C1233 C 0.27983 0.73286 0.52683
 C1234 C 0.27102 0.72731 0.53616
 C1235 C 0.25722 0.72716 0.53360
 C1236 C 0.25225 0.73261 0.52179
 H1237 H 0.22060 0.75607 0.50817
 H1238 H 0.21192 0.76598 0.52881
 H1239 H 0.25216 0.77594 0.54076
 H1240 H 0.26089 0.76623 0.51999
 H1241 H 0.23395 0.74014 0.48028
 H1242 H 0.22424 0.74908 0.45962
 H1243 H 0.24500 0.78016 0.49211
 H1244 H 0.26828 0.75863 0.48013
 H1245 H 0.27775 0.74977 0.45931
 H1246 H 0.26665 0.70978 0.47109
 H1247 H 0.25703 0.71860 0.49182
 H1248 H 0.28181 0.74267 0.50796
 H1249 H 0.29052 0.73299 0.52868
 H1250 H 0.25032 0.72284 0.54073
 H1251 H 0.24157 0.73233 0.51989
 H1252 H 0.23511 0.78907 0.47156
 C1253 C 0.24684 0.74576 0.00043
 C1254 C 0.25642 0.75548 0.00042
 C1255 C 0.26233 0.76067 -0.01212
 C1256 C 0.26149 0.76145 0.01296
 C1257 C 0.24179 0.73970 0.01297
 C1258 C 0.24086 0.74065 -0.01209
 C1259 C 0.26830 0.75198 -0.02140
 C1260 C 0.27373 0.75704 -0.03319
 C1261 C 0.27337 0.77082 -0.03576
 C1262 C 0.26764 0.77954 -0.02646
 C1263 C 0.26219 0.77450 -0.01468
 C1264 C 0.27531 0.76141 0.01559
 C1265 C 0.28023 0.76690 0.02738
 C1266 C 0.27140 0.77258 0.03661
 C1267 C 0.25762 0.77284 0.03397
 C1268 C 0.25269 0.76735 0.02217
 C1269 C 0.22796 0.73956 0.01556
 C1270 C 0.22303 0.73382 0.02724
 C1271 C 0.23186 0.72809 0.03642
 C1272 C 0.24566 0.72806 0.03385
 C1273 C 0.25061 0.73378 0.02214
 C1274 C 0.23481 0.74940 -0.02126
 C1275 C 0.22918 0.74440 -0.03297
 C1276 C 0.22943 0.73062 -0.03555
 C1277 C 0.23528 0.72186 -0.02638
 C1278 C 0.24093 0.72683 -0.01469
 H1279 H 0.26874 0.74132 -0.01949
 H1280 H 0.27821 0.75022 -0.04030
 H1281 H 0.26734 0.79022 -0.02833
 H1282 H 0.25772 0.78136 -0.00762
 H1283 H 0.28226 0.75698 0.00857
 H1284 H 0.29091 0.76668 0.02931
 H1285 H 0.24202 0.76771 0.02020
 H1286 H 0.22099 0.74399 0.00857
 H1287 H 0.21233 0.73386 0.02912
 H1288 H 0.25258 0.72358 0.04086
 H1289 H 0.26129 0.73355 0.02021
 H1290 H 0.23442 0.76006 -0.01931
 H1291 H 0.22461 0.75126 -0.03997
 H1292 H 0.23547 0.71117 -0.02826
 H1293 H 0.24546 0.71993 -0.00771
 H1294 H 0.25072 0.77729 0.04101
 C1295 C 0.24659 0.24540 0.50036
 C1296 C 0.25622 0.25508 0.50042
 C1297 C 0.26230 0.26018 0.48792
 C1298 C 0.26119 0.26108 0.51299
 C1299 C 0.24141 0.23942 0.51287
 C1300 C 0.24072 0.24025 0.48780
 C1301 C 0.26834 0.25142 0.47876
 C1302 C 0.27395 0.25639 0.46702
 C1303 C 0.27370 0.27017 0.46440
 C1304 C 0.26789 0.27895 0.47358
 C1305 C 0.26226 0.27399 0.48531
 C1306 C 0.27498 0.26104 0.51574
 C1307 C 0.27981 0.26659 0.52754
 C1308 C 0.27091 0.27234 0.53667
 C1309 C 0.25716 0.27259 0.53392
 C1310 C 0.25231 0.26704 0.52210
 C1311 C 0.22756 0.23939 0.51538
 C1312 C 0.22253 0.23379 0.52709
 C1313 C 0.23128 0.22808 0.53637
 C1314 C 0.24509 0.22792 0.53386
 C1315 C 0.25013 0.23350 0.52214
 C1316 C 0.23484 0.24897 0.47850
 C1317 C 0.22932 0.24393 0.46675
 C1318 C 0.22952 0.23013 0.46425
 C1319 C 0.23521 0.22139 0.47356
 C1320 C 0.24073 0.22642 0.48528
 H1321 H 0.26870 0.24076 0.48071
 H1322 H 0.27849 0.24952 0.46000
 H1323 H 0.26768 0.28963 0.47166
 H1324 H 0.25774 0.28091 0.49228
 H1325 H 0.28199 0.25657 0.50881
 H1326 H 0.29047 0.26638 0.52956
 H1327 H 0.24166 0.26740 0.52005
 H1328 H 0.22067 0.24382 0.50833
 H1329 H 0.21182 0.23392 0.52891
 H1330 H 0.25193 0.22346 0.54095
 H1331 H 0.26082 0.23319 0.52026
 H1332 H 0.23449 0.25964 0.48037
 H1333 H 0.22487 0.25077 0.45965
 H1334 H 0.23537 0.21070 0.47174
 H1335 H 0.24514 0.21953 0.49236
 H1336 H 0.25019 0.27707 0.54088
 C1337 C 0.75594 0.74482 1.00019
 C1338 C 0.74638 0.75458 1.00016
 C1339 C 0.74141 0.76072 1.01268
 C1340 C 0.74037 0.75965 0.98762
 C1341 C 0.76184 0.73958 0.98766
 C1342 C 0.76102 0.73886 1.01275
 C1343 C 0.72760 0.76089 1.01538
 C1344 C 0.72277 0.76658 1.02712
 C1345 C 0.73168 0.77225 1.03625
 C1346 C 0.74546 0.77229 1.03356
 C1347 C 0.75031 0.76661 1.02180
 C1348 C 0.73433 0.75087 0.97850
 C1349 C 0.72869 0.75582 0.96677
 C1350 C 0.72891 0.76959 0.96411
 C1351 C 0.73473 0.77839 0.97325
 C1352 C 0.74039 0.77346 0.98496
 C1353 C 0.76782 0.74823 0.97835
 C1354 C 0.77329 0.74313 0.96660
 C1355 C 0.77295 0.72934 0.96409
 C1356 C 0.76719 0.72066 0.97341
 C1357 C 0.76171 0.72574 0.98515
 C1358 C 0.77486 0.73872 1.01529
 C1359 C 0.77979 0.73323 1.02709
 C1360 C 0.77096 0.72775 1.03643
 C1361 C 0.75716 0.72767 1.03388
 C1362 C 0.75221 0.73314 1.02207
 H1363 H 0.72058 0.75648 1.00844
 H1364 H 0.71209 0.76654 1.02909
 H1365 H 0.75243 0.77672 1.04053
 H1366 H 0.76097 0.76682 1.01978
 H1367 H 0.73397 0.74022 0.98049
 H1368 H 0.72414 0.74893 0.95979
 H1369 H 0.74492 0.78039 0.99190
 H1370 H 0.76826 0.75890 0.98022
 H1371 H 0.77779 0.74992 0.95948
 H1372 H 0.76692 0.70997 0.97159
 H1373 H 0.75723 0.71891 0.99223
 H1374 H 0.78182 0.74300 1.00820
 H1375 H 0.79049 0.73330 1.02894
 H1376 H 0.75024 0.72338 1.04102
 H1377 H 0.74153 0.73291 1.02018
 H1378 H 0.73491 0.78907 0.97131
 C1379 C 0.75621 0.24501 0.50034
 C1380 C 0.74636 0.25447 0.50034
 C1381 C 0.74107 0.26031 0.51287
 C1382 C 0.74036 0.25952 0.48779
 C1383 C 0.76237 0.24012 0.48780
 C1384 C 0.76134 0.23903 0.51286
 C1385 C 0.72722 0.26012 0.51536
 C1386 C 0.72207 0.26564 0.52705
 C1387 C 0.73071 0.27150 0.53632
 C1388 C 0.74452 0.27187 0.53385
 C1389 C 0.74968 0.26636 0.52214
 C1390 C 0.73466 0.25069 0.47851
 C1391 C 0.72914 0.25561 0.46670
 C1392 C 0.72916 0.26940 0.46415
 C1393 C 0.73462 0.27825 0.47345
 C1394 C 0.74016 0.27335 0.48523
 C1395 C 0.76817 0.24907 0.47867
 C1396 C 0.77374 0.24432 0.46682
 C1397 C 0.77370 0.23057 0.46407
 C1398 C 0.76816 0.22159 0.47323
 C1399 C 0.76257 0.22633 0.48506
 C1400 C 0.77515 0.23927 0.51554
 C1401 C 0.78013 0.23370 0.52728
 C1402 C 0.77138 0.22774 0.53640
 C1403 C 0.75761 0.22729 0.53372
 C1404 C 0.75261 0.23286 0.52197
 H1405 H 0.72041 0.25558 0.50830
 H1406 H 0.71137 0.26535 0.52886
 H1407 H 0.75127 0.27645 0.54094
 H1408 H 0.76036 0.26685 0.52028
 H1409 H 0.73448 0.24002 0.48041
 H1410 H 0.72487 0.24869 0.45960
 H1411 H 0.74443 0.28032 0.49230
 H1412 H 0.76834 0.25972 0.48071
 H1413 H 0.77807 0.25134 0.45982
 H1414 H 0.76812 0.21093 0.47122
 H1415 H 0.75823 0.21927 0.49201
 H1416 H 0.78204 0.24391 0.50861
 H1417 H 0.79080 0.23407 0.52925
 H1418 H 0.75077 0.22263 0.54069
 H1419 H 0.74196 0.23234 0.51996
 H1420 H 0.73464 0.28894 0.47158
 C1421 C 0.74663 0.24574 -0.00098
 C1422 C 0.75626 0.25541 -0.00100
 C1423 C 0.76224 0.26051 -0.01354
 C1424 C 0.76131 0.26142 0.01153
 C1425 C 0.74144 0.23986 0.01158
 C1426 C 0.74074 0.24053 -0.01349
 C1427 C 0.76831 0.25176 -0.02269
 C1428 C 0.77383 0.25674 -0.03448
 C1429 C 0.77343 0.27050 -0.03716
 C1430 C 0.76758 0.27927 -0.02799
 C1431 C 0.76206 0.27431 -0.01621
 C1432 C 0.77511 0.26127 0.01424
 C1433 C 0.78001 0.26677 0.02603
 C1434 C 0.77118 0.27257 0.03519
 C1435 C 0.75742 0.27295 0.03246
 C1436 C 0.75250 0.26746 0.02065
 C1437 C 0.72760 0.23999 0.01412
 C1438 C 0.72255 0.23451 0.02587
 C1439 C 0.73126 0.22876 0.03516
 C1440 C 0.74506 0.22845 0.03262
 C1441 C 0.75014 0.23392 0.02085
 C1442 C 0.73477 0.24920 -0.02278
 C1443 C 0.72921 0.24410 -0.03448
 C1444 C 0.72945 0.23029 -0.03693
 C1445 C 0.73522 0.22160 -0.02763
 C1446 C 0.74079 0.22669 -0.01596
 H1447 H 0.76877 0.24111 -0.02069
 H1448 H 0.77840 0.24988 -0.04149
 H1449 H 0.76725 0.28993 -0.02996
 H1450 H 0.75750 0.28121 -0.00925
 H1451 H 0.78206 0.25674 0.00729
 H1452 H 0.79068 0.26646 0.02802
 H1453 H 0.74185 0.26790 0.01863
 H1454 H 0.72074 0.24445 0.00706
 H1455 H 0.71185 0.23476 0.02772
 H1456 H 0.75188 0.22395 0.03971
 H1457 H 0.76082 0.23350 0.01895
 H1458 H 0.73438 0.25988 -0.02094
 H1459 H 0.72470 0.25089 -0.04158
 H1460 H 0.73541 0.21090 -0.02941
 H1461 H 0.74526 0.21984 -0.00888
 H1462 H 0.75051 0.27748 0.03945
 C1463 C 0.74659 0.74595 0.49968
 C1464 C 0.75603 0.75582 0.49964
 C1465 C 0.76093 0.76192 0.48707
 C1466 C 0.76198 0.76102 0.51214
 C1467 C 0.74079 0.74068 0.51223
 C1468 C 0.74154 0.73991 0.48716
 C1469 C 0.77472 0.76210 0.48432
 C1470 C 0.77948 0.76772 0.47251
 C1471 C 0.77051 0.77332 0.46337
 C1472 C 0.75675 0.77336 0.46613
 C1473 C 0.75197 0.76775 0.47796
 C1474 C 0.76814 0.75235 0.52131
 C1475 C 0.77366 0.75742 0.53305
 C1476 C 0.77319 0.77119 0.53566
 C1477 C 0.76725 0.77988 0.52647
 C1478 C 0.76172 0.77483 0.51475
 C1479 C 0.73470 0.74927 0.52152
 C1480 C 0.72924 0.74411 0.53326
 C1481 C 0.72970 0.73032 0.53576
 C1482 C 0.73559 0.72170 0.52647
 C1483 C 0.74106 0.72684 0.51475
 C1484 C 0.72769 0.73960 0.48468
 C1485 C 0.72277 0.73391 0.47298
 C1486 C 0.73162 0.72839 0.46368
 C1487 C 0.74544 0.72850 0.46615
 C1488 C 0.75038 0.73418 0.47787
 H1489 H 0.78179 0.75774 0.49125
 H1490 H 0.79015 0.76766 0.47048
 H1491 H 0.74973 0.77773 0.45916
 H1492 H 0.74132 0.76793 0.48001
 H1493 H 0.76869 0.74170 0.51937
 H1494 H 0.77831 0.75062 0.54007
 H1495 H 0.75709 0.78167 0.50777
 H1496 H 0.73415 0.75994 0.51964
 H1497 H 0.72463 0.75086 0.54035
 H1498 H 0.73595 0.71101 0.52829
 H1499 H 0.74562 0.72005 0.50768
 H1500 H 0.72071 0.74389 0.49175
 H1501 H 0.71206 0.73383 0.47119
 H1502 H 0.75237 0.72419 0.45905
 H1503 H 0.76107 0.73407 0.47971
 H1504 H 0.76687 0.79055 0.52837
 C1505 C 0.99985 0.25529 0.24439
 C1506 C 0.99984 0.24563 0.25396
 C1507 C 1.01248 0.24058 0.25996
 C1508 C 0.98721 0.23957 0.25897
 C1509 C 0.98720 0.26118 0.23923
 C1510 C 1.01251 0.26050 0.23856
 C1511 C 1.01517 0.22678 0.25996
 C1512 C 1.02695 0.22185 0.26564
 C1513 C 1.03612 0.23066 0.27146
 C1514 C 1.03345 0.24444 0.27164
 C1515 C 1.02165 0.24938 0.26597
 C1516 C 0.97801 0.23354 0.25025
 C1517 C 0.96623 0.22778 0.25517
 C1518 C 0.96360 0.22790 0.26885
 C1519 C 0.97280 0.23375 0.27758
 C1520 C 0.98456 0.23951 0.27267
 C1521 C 0.97780 0.26709 0.24785
 C1522 C 0.96595 0.27260 0.24281
 C1523 C 0.96346 0.27235 0.22912
 C1524 C 0.97287 0.26665 0.22049
 C1525 C 0.98470 0.26114 0.22551
 C1526 C 1.01503 0.27433 0.23863
 C1527 C 1.02688 0.27939 0.23318
 C1528 C 1.03629 0.27069 0.22752
 C1529 C 1.03378 0.25689 0.22727
 C1530 C 1.02192 0.25181 0.23270
 H1531 H 1.00819 0.21984 0.25545
 H1532 H 1.02890 0.21118 0.26549
 H1533 H 1.04046 0.25133 0.27619
 H1534 H 1.01963 0.26003 0.26630
 H1535 H 0.98000 0.23324 0.23968
 H1536 H 0.95920 0.22321 0.24834
 H1537 H 0.99156 0.24403 0.27956
 H1538 H 0.97966 0.26745 0.25844
 H1539 H 0.95876 0.27706 0.24956
 H1540 H 0.97105 0.26644 0.20988
 H1541 H 0.99186 0.25671 0.21870
 H1542 H 1.00788 0.28119 0.24303
 H1543 H 1.02871 0.29008 0.23339
 H1544 H 1.04097 0.25008 0.22285
 H1545 H 1.02004 0.24114 0.23233
 H1546 H 0.97088 0.23386 0.28817
 C1547 C 0.50004 0.25419 0.74484
 C1548 C 0.50003 0.24441 0.75429
 C1549 C 0.51267 0.23922 0.76016
 C1550 C 0.48739 0.23838 0.75930
 C1551 C 0.48740 0.26018 0.73978
 C1552 C 0.51269 0.25942 0.73902
 C1553 C 0.51529 0.22540 0.75997
 C1554 C 0.52710 0.22034 0.76548
 C1555 C 0.53638 0.22903 0.77131
 C1556 C 0.53378 0.24281 0.77168
 C1557 C 0.52195 0.24789 0.76619
 C1558 C 0.47810 0.23252 0.75056
 C1559 C 0.46624 0.22690 0.75547
 C1560 C 0.46364 0.22696 0.76914
 C1561 C 0.47294 0.23260 0.77790
 C1562 C 0.48477 0.23824 0.77301
 C1563 C 0.47802 0.26599 0.74849
 C1564 C 0.46615 0.27154 0.74354
 C1565 C 0.46362 0.27144 0.72986
 C1566 C 0.47301 0.26585 0.72113
 C1567 C 0.48486 0.26029 0.72606
 C1568 C 0.51526 0.27325 0.73924
 C1569 C 0.52707 0.27834 0.73377
 C1570 C 0.53641 0.26969 0.72792
 C1571 C 0.53386 0.25590 0.72752
 C1572 C 0.52203 0.25079 0.73298
 H1573 H 0.50823 0.21855 0.75544
 H1574 H 0.52900 0.20965 0.76518
 H1575 H 0.54088 0.24961 0.77624
 H1576 H 0.52000 0.25855 0.76666
 H1577 H 0.48005 0.23229 0.73998
 H1578 H 0.45914 0.22248 0.74861
 H1579 H 0.49184 0.24263 0.77991
 H1580 H 0.47991 0.26624 0.75908
 H1581 H 0.45898 0.27592 0.75036
 H1582 H 0.47117 0.26577 0.71053
 H1583 H 0.49200 0.25593 0.71919
 H1584 H 0.50815 0.28007 0.74378
 H1585 H 0.52893 0.28903 0.73410
 H1586 H 0.54100 0.24913 0.72295
 H1587 H 0.52012 0.24012 0.73249
 H1588 H 0.47104 0.23266 0.78850
 C1589 C -0.00017 0.24437 0.74465
 C1590 C -0.00019 0.25400 0.75425
 C1591 C -0.01284 0.26004 0.75927
 C1592 C 0.01244 0.25901 0.76027
 C1593 C 0.01251 0.23923 0.73878
 C1594 C -0.01280 0.23845 0.73953
 C1595 C -0.02206 0.26607 0.75056
 C1596 C -0.03385 0.27181 0.75549
 C1597 C -0.03648 0.27167 0.76917
 C1598 C -0.02726 0.26581 0.77789
 C1599 C -0.01548 0.26007 0.77298
 C1600 C 0.01517 0.27281 0.76025
 C1601 C 0.02697 0.27768 0.76591
 C1602 C 0.03612 0.26884 0.77175
 C1603 C 0.03340 0.25508 0.77196
 C1604 C 0.02159 0.25018 0.76629
 C1605 C 0.01506 0.22539 0.73875
 C1606 C 0.02691 0.22038 0.73325
 C1607 C 0.03629 0.22914 0.72763
 C1608 C 0.03375 0.24293 0.72747
 C1609 C 0.02188 0.24796 0.73296
 C1610 C -0.02215 0.23250 0.74817
 C1611 C -0.03398 0.22695 0.74317
 C1612 C -0.03651 0.22719 0.72949
 C1613 C -0.02716 0.23293 0.72083
 C1614 C -0.01534 0.23849 0.72581
 H1615 H -0.02008 0.26639 0.73999
 H1616 H -0.04089 0.27639 0.74867
 H1617 H -0.02917 0.26570 0.78849
 H1618 H -0.00846 0.25555 0.77986
 H1619 H 0.00820 0.27977 0.75572
 H1620 H 0.02896 0.28835 0.76573
 H1621 H 0.01955 0.23954 0.76664
 H1622 H 0.00793 0.21849 0.74311
 H1623 H 0.02876 0.20969 0.73338
 H1624 H 0.04091 0.24979 0.72308
 H1625 H 0.01998 0.25864 0.73265
 H1626 H -0.02025 0.23213 0.75876
 H1627 H -0.04112 0.22245 0.74995
 H1628 H -0.02901 0.23313 0.71022
 H1629 H -0.00823 0.24294 0.71898
 H1630 H 0.04039 0.24815 0.77652
 C1631 C 0.50010 0.24525 0.24456
 C1632 C 0.50010 0.25491 0.25412
 C1633 C 0.48746 0.26093 0.25917
 C1634 C 0.51275 0.26002 0.26002
 C1635 C 0.51276 0.24013 0.23863
 C1636 C 0.48746 0.23931 0.23947
 C1637 C 0.47819 0.26691 0.25048
 C1638 C 0.46638 0.27260 0.25542
 C1639 C 0.46380 0.27247 0.26910
 C1640 C 0.47306 0.26668 0.27782
 C1641 C 0.48485 0.26098 0.27289
 C1642 C 0.51535 0.27384 0.25998
 C1643 C 0.52718 0.27882 0.26549
 C1644 C 0.53650 0.27004 0.27118
 C1645 C 0.53391 0.25626 0.27141
 C1646 C 0.52206 0.25127 0.26591
 C1647 C 0.51538 0.22631 0.23866
 C1648 C 0.52722 0.22133 0.23310
 C1649 C 0.53651 0.23011 0.22737
 C1650 C 0.53389 0.24389 0.22715
 C1651 C 0.52203 0.24888 0.23269
 C1652 C 0.47810 0.23342 0.24813
 C1653 C 0.46626 0.22788 0.24315
 C1654 C 0.46373 0.22806 0.22946
 C1655 C 0.47311 0.23374 0.22078
 C1656 C 0.48493 0.23930 0.22574
 H1657 H 0.48014 0.26721 0.23989
 H1658 H 0.45930 0.27712 0.24861
 H1659 H 0.47117 0.26656 0.28842
 H1660 H 0.49191 0.25650 0.27975
 H1661 H 0.50826 0.28075 0.25556
 H1662 H 0.52907 0.28950 0.26531
 H1663 H 0.52012 0.24060 0.26627
 H1664 H 0.50831 0.21940 0.24310
 H1665 H 0.52912 0.21065 0.23328
 H1666 H 0.54097 0.25075 0.22266
 H1667 H 0.52007 0.25954 0.23233
 H1668 H 0.47999 0.23310 0.25872
 H1669 H 0.45910 0.22344 0.24994
 H1670 H 0.47127 0.23389 0.21017
 H1671 H 0.49205 0.24371 0.21890
 H1672 H 0.54103 0.24940 0.27585
 C1673 C 1.00043 0.75462 0.74478
 C1674 C 1.00039 0.74495 0.75434
 C1675 C 1.01301 0.73976 0.76024
 C1676 C 0.98772 0.73906 0.75945
 C1677 C 0.98781 0.76065 0.73972
 C1678 C 1.01309 0.75970 0.73886
 C1679 C 1.01555 0.72593 0.76021
 C1680 C 1.02733 0.72088 0.76579
 C1681 C 1.03665 0.72959 0.77154
 C1682 C 1.03412 0.74338 0.77175
 C1683 C 1.02232 0.74846 0.76618
 C1684 C 0.97838 0.73314 0.75081
 C1685 C 0.96654 0.72759 0.75582
 C1686 C 0.96398 0.72782 0.76950
 C1687 C 0.97332 0.73355 0.77816
 C1688 C 0.98514 0.73910 0.77317
 C1689 C 0.97855 0.76669 0.74840
 C1690 C 0.96674 0.77233 0.74344
 C1691 C 0.96413 0.77210 0.72977
 C1692 C 0.97340 0.76627 0.72107
 C1693 C 0.98520 0.76062 0.72601
 C1694 C 1.01574 0.77351 0.73894
 C1695 C 1.02756 0.77847 0.73335
 C1696 C 1.03681 0.76970 0.72754
 C1697 C 1.03418 0.75593 0.72729
 C1698 C 1.02235 0.75094 0.73288
 H1699 H 1.00846 0.71906 0.75576
 H1700 H 1.02918 0.71018 0.76562
 H1701 H 1.04124 0.75020 0.77624
 H1702 H 1.02043 0.75913 0.76653
 H1703 H 0.98030 0.73278 0.74022
 H1704 H 0.95940 0.72311 0.74904
 H1705 H 0.99225 0.74355 0.78000
 H1706 H 0.98051 0.76705 0.75897
 H1707 H 0.95966 0.77689 0.75025
 H1708 H 0.97149 0.76607 0.71048
 H1709 H 0.99225 0.75609 0.71916
 H1710 H 1.00870 0.78042 0.74343
 H1711 H 1.02948 0.78915 0.73355
 H1712 H 1.04125 0.74906 0.72275
 H1713 H 1.02037 0.74029 0.73250
 H1714 H 0.97145 0.73374 0.78877
 C1715 C 0.50034 0.75523 0.24481
 C1716 C 0.50037 0.74574 0.25455
 C1717 C 0.51302 0.74076 0.26057
 C1718 C 0.48774 0.73982 0.25972
 C1719 C 0.48767 0.76114 0.23969
 C1720 C 0.51297 0.76023 0.23876
 C1721 C 0.51563 0.72693 0.26087
 C1722 C 0.52741 0.72207 0.26661
 C1723 C 0.53667 0.73095 0.27219
 C1724 C 0.53409 0.74474 0.27205
 C1725 C 0.52229 0.74963 0.26632
 C1726 C 0.47847 0.73371 0.25114
 C1727 C 0.46665 0.72814 0.25619
 C1728 C 0.46406 0.72853 0.26986
 C1729 C 0.47333 0.73445 0.27847
 C1730 C 0.48513 0.74002 0.27343
 C1731 C 0.47839 0.76723 0.24831
 C1732 C 0.46656 0.77279 0.24330
 C1733 C 0.46395 0.77242 0.22964
 C1734 C 0.47324 0.76653 0.22100
 C1735 C 0.48505 0.76096 0.22598
 C1736 C 0.51555 0.77405 0.23847
 C1737 C 0.52734 0.77893 0.23277
 C1738 C 0.53664 0.77005 0.22720
 C1739 C 0.53408 0.75626 0.22729
 C1740 C 0.52226 0.75137 0.23299
 H1741 H 0.50858 0.71993 0.25656
 H1742 H 0.52929 0.71138 0.26670
 H1743 H 0.54116 0.75169 0.27640
 H1744 H 0.52035 0.76030 0.26641
 H1745 H 0.48042 0.73322 0.24056
 H1746 H 0.45957 0.72352 0.24945
 H1747 H 0.49219 0.74461 0.28022
 H1748 H 0.48035 0.76771 0.25888
 H1749 H 0.45947 0.77740 0.25006
 H1750 H 0.47133 0.76624 0.21040
 H1751 H 0.49212 0.75639 0.21917
 H1752 H 0.50848 0.78105 0.24279
 H1753 H 0.52922 0.78962 0.23270
 H1754 H 0.54118 0.74932 0.22294
 H1755 H 0.52033 0.74070 0.23288
 H1756 H 0.47144 0.73476 0.28907
 C1757 C -0.00019 0.74560 0.24463
 C1758 C -0.00016 0.75508 0.25437
 C1759 C -0.01279 0.76091 0.25966
 C1760 C 0.01250 0.76013 0.26027
 C1761 C 0.01244 0.74060 0.23856
 C1762 C -0.01284 0.73969 0.23953
 C1763 C -0.02220 0.76697 0.25117
 C1764 C -0.03404 0.77241 0.25634
 C1765 C -0.03650 0.77195 0.27003
 C1766 C -0.02708 0.76611 0.27854
 C1767 C -0.01527 0.76066 0.27340
 C1768 C 0.01510 0.77395 0.26036
 C1769 C 0.02695 0.77887 0.26590
 C1770 C 0.03627 0.77004 0.27149
 C1771 C 0.03368 0.75626 0.27158
 C1772 C 0.02182 0.75132 0.26605
 C1773 C 0.01507 0.72678 0.23835
 C1774 C 0.02687 0.72190 0.23264
 C1775 C 0.03612 0.73076 0.22700
 C1776 C 0.03351 0.74455 0.22702
 C1777 C 0.02169 0.74945 0.23272
 C1778 C -0.02209 0.73357 0.24816
 C1779 C -0.03392 0.72803 0.24316
 C1780 C -0.03655 0.72843 0.22950
 C1781 C -0.02728 0.73433 0.22085
 C1782 C -0.01547 0.73989 0.22583
 H1783 H -0.02036 0.76751 0.24058
 H1784 H -0.04123 0.77698 0.24968
 H1785 H -0.02887 0.76575 0.28916
 H1786 H -0.00810 0.75612 0.28011
 H1787 H 0.00800 0.78091 0.25603
 H1788 H 0.02884 0.78956 0.26581
 H1789 H 0.01989 0.74065 0.26630
 H1790 H 0.00803 0.71979 0.24273
 H1791 H 0.02878 0.71121 0.23264
 H1792 H 0.04058 0.75148 0.22260
 H1793 H 0.01972 0.76012 0.23254
 H1794 H -0.02011 0.73307 0.25873
 H1795 H -0.04099 0.72341 0.24993
 H1796 H -0.02919 0.73464 0.21026
 H1797 H -0.00842 0.74447 0.21901
 H1798 H 0.04080 0.74935 0.27596
 C1799 C 0.49958 0.74464 0.74508
 C1800 C 0.49959 0.75419 0.75475
 C1801 C 0.48696 0.76016 0.75987
 C1802 C 0.51224 0.75920 0.76073
 C1803 C 0.51222 0.73957 0.73910
 C1804 C 0.48692 0.73875 0.73997
 C1805 C 0.47771 0.76626 0.75124
 C1806 C 0.46591 0.77190 0.75625
 C1807 C 0.46331 0.77160 0.76993
 C1808 C 0.47256 0.76569 0.77858
 C1809 C 0.48435 0.76004 0.77358
 C1810 C 0.51487 0.77301 0.76089
 C1811 C 0.52668 0.77789 0.76653
 C1812 C 0.53595 0.76903 0.77215
 C1813 C 0.53334 0.75525 0.77218
 C1814 C 0.52151 0.75035 0.76655
 C1815 C 0.51480 0.72574 0.73894
 C1816 C 0.52663 0.72081 0.73335
 C1817 C 0.53596 0.72963 0.72777
 C1818 C 0.53339 0.74342 0.72772
 C1819 C 0.52153 0.74837 0.73330
 C1820 C 0.47762 0.73271 0.74860
 C1821 C 0.46578 0.72717 0.74360
 C1822 C 0.46320 0.72751 0.72993
 C1823 C 0.47250 0.73336 0.72128
 C1824 C 0.48432 0.73891 0.72626
 H1825 H 0.47966 0.76669 0.74066
 H1826 H 0.45883 0.77652 0.74949
 H1827 H 0.47066 0.76544 0.78918
 H1828 H 0.49139 0.75545 0.78040
 H1829 H 0.50781 0.78000 0.75653
 H1830 H 0.52858 0.78858 0.76649
 H1831 H 0.51955 0.73969 0.76676
 H1832 H 0.50770 0.71879 0.74329
 H1833 H 0.52851 0.71012 0.73339
 H1834 H 0.54052 0.75033 0.72336
 H1835 H 0.51961 0.75905 0.73309
 H1836 H 0.47956 0.73226 0.75918
 H1837 H 0.45868 0.72260 0.75037
 H1838 H 0.47061 0.73365 0.71068
 H1839 H 0.49139 0.74345 0.71944
 H1840 H 0.54043 0.74832 0.77657
 C1841 C 0.42957 0.28887 0.28465
 C1842 C 0.41891 0.29305 0.27634
 C1843 C 0.40707 0.29856 0.28204
 C1844 C 0.40597 0.29985 0.29601
 C1845 C 0.41666 0.29572 0.30431
 C1846 C 0.42849 0.29022 0.29861
 C1847 C 0.43903 0.28615 0.30712
 C1848 C 0.43792 0.28749 0.32086
 C1849 C 0.42636 0.29287 0.32643
 C1850 C 0.41582 0.29695 0.31830
 C1851 C 0.39655 0.30265 0.27353
 C1852 C 0.39768 0.30135 0.25979
 C1853 C 0.40924 0.29596 0.25422
 C1854 C 0.41977 0.29184 0.26235
 C1855 C 0.39384 0.30534 0.30186
 C1856 C 0.38381 0.30984 0.30684
 C1857 C 0.44162 0.28313 0.27887
 C1858 C 0.45169 0.27831 0.27428
 H1859 H 0.44823 0.28191 0.30327
 H1860 H 0.44608 0.28433 0.32722
 H1861 H 0.42555 0.29389 0.33711
 H1862 H 0.40703 0.30107 0.32311
 H1863 H 0.38736 0.30690 0.27740
 H1864 H 0.38953 0.30454 0.25343
 H1865 H 0.41007 0.29497 0.24354
 H1866 H 0.42856 0.28771 0.25756
 C1867 C 0.42906 0.78781 0.78560
 C1868 C 0.41871 0.79269 0.77729
 C1869 C 0.40690 0.79822 0.78302
 C1870 C 0.40552 0.79881 0.79701
 C1871 C 0.41588 0.79392 0.80531
 C1872 C 0.42769 0.78840 0.79959
 C1873 C 0.43790 0.78357 0.80810
 C1874 C 0.43649 0.78418 0.82186
 C1875 C 0.42495 0.78959 0.82746
 C1876 C 0.41473 0.79442 0.81933
 C1877 C 0.39670 0.80305 0.77451
 C1878 C 0.39810 0.80243 0.76075
 C1879 C 0.40964 0.79701 0.75515
 C1880 C 0.41986 0.79218 0.76328
 C1881 C 0.39347 0.80444 0.80288
 C1882 C 0.38350 0.80911 0.80783
 C1883 C 0.44112 0.78213 0.77979
 C1884 C 0.45120 0.77737 0.77516
 H1885 H 0.44707 0.77927 0.80423
 H1886 H 0.44440 0.78043 0.82822
 H1887 H 0.42391 0.79005 0.83815
 H1888 H 0.40595 0.79854 0.82415
 H1889 H 0.38754 0.80736 0.77840
 H1890 H 0.39019 0.80617 0.75439
 H1891 H 0.41067 0.79653 0.74446
 H1892 H 0.42865 0.78806 0.75847
 C1893 C -0.07053 0.28844 0.78472
 C1894 C -0.08098 0.29312 0.77642
 C1895 C -0.09268 0.29889 0.78214
 C1896 C -0.09385 0.29994 0.79613
 C1897 C -0.08339 0.29526 0.80443
 C1898 C -0.07170 0.28949 0.79871
 C1899 C -0.06138 0.28488 0.80721
 C1900 C -0.06258 0.28594 0.82097
 C1901 C -0.07401 0.29156 0.82656
 C1902 C -0.08433 0.29619 0.81843
 C1903 C -0.10300 0.30349 0.77364
 C1904 C -0.10180 0.30242 0.75988
 C1905 C -0.09036 0.29678 0.75430
 C1906 C -0.08004 0.29217 0.76242
 C1907 C -0.10579 0.30582 0.80200
 C1908 C -0.11566 0.31066 0.80701
 C1909 C -0.05856 0.28254 0.77892
 C1910 C -0.04854 0.27761 0.77433
 H1911 H -0.05229 0.28043 0.80335
 H1912 H -0.05459 0.28236 0.82732
 H1913 H -0.07489 0.29236 0.83725
 H1914 H -0.09302 0.30049 0.82326
 H1915 H -0.11208 0.30795 0.77752
 H1916 H -0.10979 0.30599 0.75353
 H1917 H -0.08948 0.29598 0.74361
 H1918 H -0.07134 0.28786 0.75762
 C1919 C -0.07085 0.78770 0.28597
 C1920 C -0.08216 0.79034 0.27790
 C1921 C -0.09399 0.79579 0.28364
 C1922 C -0.09444 0.79858 0.29743
 C1923 C -0.08314 0.79591 0.30551
 C1924 C -0.07131 0.79046 0.29977
 C1925 C -0.06014 0.78788 0.30806
 C1926 C -0.06065 0.79061 0.32163
 C1927 C -0.07222 0.79593 0.32724
 C1928 C -0.08336 0.79858 0.31933
 C1929 C -0.10516 0.79834 0.27536
 C1930 C -0.10467 0.79558 0.26179
 C1931 C -0.09310 0.79024 0.25618
 C1932 C -0.08194 0.78763 0.26409
 C1933 C -0.10649 0.80424 0.30328
 C1934 C -0.11648 0.80899 0.30813
 C1935 C -0.05875 0.78215 0.28013
 C1936 C -0.04864 0.77752 0.27542
 H1937 H -0.05092 0.78374 0.30416
 H1938 H -0.05202 0.78857 0.32782
 H1939 H -0.07256 0.79803 0.33779
 H1940 H -0.09213 0.80272 0.32415
 H1941 H -0.11439 0.80249 0.27926
 H1942 H -0.11331 0.79758 0.25561
 H1943 H -0.09277 0.78811 0.24564
 H1944 H -0.07317 0.78348 0.25927
 C1945 C 0.57082 0.71561 0.28889
 C1946 C 0.57196 0.70155 0.29040
 C1947 C 0.58372 0.69594 0.29610
 C1948 C 0.59428 0.70442 0.30026
 C1949 C 0.59314 0.71848 0.29877
 C1950 C 0.58137 0.72409 0.29306
 C1951 C 0.58047 0.73817 0.29164
 C1952 C 0.59089 0.74647 0.29575
 C1953 C 0.60239 0.74099 0.30134
 C1954 C 0.60356 0.72716 0.30285
 C1955 C 0.58463 0.68186 0.29749
 C1956 C 0.57421 0.67356 0.29337
 C1957 C 0.56271 0.67904 0.28779
 C1958 C 0.56154 0.69287 0.28630
 C1959 C 0.60634 0.69866 0.30599
 C1960 C 0.61632 0.69377 0.31069
 C1961 C 0.55880 0.72131 0.28302
 C1962 C 0.54875 0.72583 0.27810
 H1963 H 0.57172 0.74290 0.28735
 H1964 H 0.59004 0.75722 0.29459
 H1965 H 0.61046 0.74748 0.30452
 H1966 H 0.61269 0.72337 0.30726
 H1967 H 0.59337 0.67711 0.30177
 H1968 H 0.57507 0.66281 0.29450
 H1969 H 0.55465 0.67255 0.28459
 H1970 H 0.55240 0.69665 0.28190
 C1971 C 0.57078 0.21334 0.78716
 C1972 C 0.57210 0.19925 0.78818
 C1973 C 0.58395 0.19359 0.79365
 C1974 C 0.59442 0.20205 0.79806
 C1975 C 0.59311 0.21614 0.79702
 C1976 C 0.58126 0.22180 0.79155
 C1977 C 0.58018 0.23591 0.79061
 C1978 C 0.59052 0.24419 0.79495
 C1979 C 0.60211 0.23866 0.80030
 C1980 C 0.60345 0.22481 0.80135
 C1981 C 0.58503 0.17948 0.79457
 C1982 C 0.57470 0.17120 0.79021
 C1983 C 0.56311 0.17674 0.78487
 C1984 C 0.56177 0.19059 0.78384
 C1985 C 0.60650 0.19627 0.80372
 C1986 C 0.61651 0.19150 0.80848
 C1987 C 0.55865 0.21910 0.78159
 C1988 C 0.54853 0.22373 0.77693
 H1989 H 0.57136 0.24068 0.78651
 H1990 H 0.58953 0.25496 0.79415
 H1991 H 0.61011 0.24514 0.80366
 H1992 H 0.61265 0.22098 0.80558
 H1993 H 0.59386 0.17471 0.79865
 H1994 H 0.57569 0.16043 0.79099
 H1995 H 0.55511 0.17026 0.78150
 H1996 H 0.55256 0.19441 0.77960
 C1997 C 1.07090 0.71394 0.78772
 C1998 C 1.08157 0.72239 0.79166
 C1999 C 1.09337 0.71675 0.79727
 C2000 C 1.09443 0.70269 0.79890
 C2001 C 1.08376 0.69425 0.79494
 C2002 C 1.07196 0.69989 0.78934
 C2003 C 1.06143 0.69124 0.78546
 C2004 C 1.06252 0.67742 0.78709
 C2005 C 1.07405 0.67191 0.79258
 C2006 C 1.08458 0.68018 0.79647
 C2007 C 1.10390 0.72539 0.80116
 C2008 C 1.10280 0.73921 0.79954
 C2009 C 1.09127 0.74473 0.79405
 C2010 C 1.08074 0.73646 0.79014
 C2011 C 1.10645 0.69694 0.80470
 C2012 C 1.11641 0.69217 0.80956
 C2013 C 1.05883 0.71968 0.78202
 C2014 C 1.04875 0.72430 0.77726
 H2015 H 1.05226 0.69505 0.78115
 H2016 H 1.05436 0.67096 0.78408
 H2017 H 1.07484 0.66117 0.79382
 H2018 H 1.09335 0.67541 0.80068
 H2019 H 1.11307 0.72158 0.80547
 H2020 H 1.11095 0.74568 0.80257
 H2021 H 1.09047 0.75547 0.79282
 H2022 H 1.07197 0.74121 0.78592
 C2023 C 1.07030 0.21521 0.28797
 C2024 C 1.08073 0.22369 0.29243
 C2025 C 1.09248 0.21806 0.29816
 C2026 C 1.09373 0.20398 0.29937
 C2027 C 1.08330 0.19550 0.29488
 C2028 C 1.07156 0.20113 0.28917
 C2029 C 1.06127 0.19245 0.28475
 C2030 C 1.06255 0.17860 0.28595
 C2031 C 1.07404 0.17310 0.29154
 C2032 C 1.08432 0.18140 0.29597
 C2033 C 1.10276 0.22674 0.30256
 C2034 C 1.10148 0.24059 0.30134
 C2035 C 1.09000 0.24609 0.29574
 C2036 C 1.07971 0.23779 0.29132
 C2037 C 1.10571 0.19821 0.30522
 C2038 C 1.11563 0.19335 0.31009
 C2039 C 1.05827 0.22093 0.28216
 C2040 C 1.04821 0.22549 0.27730
 H2041 H 1.05215 0.19625 0.28033
 H2042 H 1.05459 0.17211 0.28252
 H2043 H 1.07498 0.16233 0.29246
 H2044 H 1.09306 0.17664 0.30025
 H2045 H 1.11189 0.22293 0.30698
 H2046 H 1.10945 0.24708 0.30476
 H2047 H 1.08906 0.25685 0.29481
 H2048 H 1.07097 0.24254 0.28703
 C2049 C 0.57072 0.28559 0.71206
 C2050 C 0.57982 0.27750 0.70481
 C2051 C 0.59157 0.28329 0.69925
 C2052 C 0.59417 0.29712 0.70098
 C2053 C 0.58511 0.30519 0.70828
 C2054 C 0.57335 0.29941 0.71384
 C2055 C 0.56443 0.30769 0.72108
 C2056 C 0.56705 0.32128 0.72279
 C2057 C 0.57854 0.32693 0.71736
 C2058 C 0.58750 0.31903 0.71018
 C2059 C 0.60050 0.27501 0.69201
 C2060 C 0.59789 0.26141 0.69033
 C2061 C 0.58640 0.25575 0.69578
 C2062 C 0.57743 0.26366 0.70294
 C2063 C 0.60613 0.30306 0.69522
 C2064 C 0.61602 0.30801 0.69040
 C2065 C 0.55864 0.27973 0.71764
 C2066 C 0.54854 0.27504 0.72230
 H2067 H 0.55535 0.30376 0.72550
 H2068 H 0.56012 0.32747 0.72836
 H2069 H 0.58053 0.33750 0.71871
 H2070 H 0.59631 0.32389 0.70615
 H2071 H 0.60957 0.27895 0.68759
 H2072 H 0.60482 0.25522 0.68477
 H2073 H 0.58442 0.24518 0.69444
 H2074 H 0.56863 0.25880 0.70699
 C2075 C 0.57092 0.78542 0.21078
 C2076 C 0.57204 0.79948 0.20931
 C2077 C 0.58385 0.80511 0.20373
 C2078 C 0.59449 0.79664 0.19966
 C2079 C 0.59336 0.78258 0.20111
 C2080 C 0.58154 0.77695 0.20669
 C2081 C 0.58064 0.76287 0.20806
 C2082 C 0.59113 0.75458 0.20402
 C2083 C 0.60268 0.76008 0.19855
 C2084 C 0.60384 0.77392 0.19709
 C2085 C 0.58474 0.81920 0.20236
 C2086 C 0.57425 0.82748 0.20639
 C2087 C 0.56270 0.82198 0.21185
 C2088 C 0.56155 0.80815 0.21332
 C2089 C 0.60659 0.80242 0.19404
 C2090 C 0.61660 0.80732 0.18940
 C2091 C 0.55885 0.77971 0.21654
 C2092 C 0.54877 0.77517 0.22137
 H2093 H 0.57186 0.75812 0.21226
 H2094 H 0.59028 0.74383 0.20513
 H2095 H 0.61079 0.75360 0.19541
 H2096 H 0.61302 0.77772 0.19278
 H2097 H 0.59352 0.82395 0.19817
 H2098 H 0.57509 0.83823 0.20527
 H2099 H 0.55458 0.82846 0.21497
 H2100 H 0.55236 0.80435 0.21762
 C2101 C 1.07078 0.28633 0.21178
 C2102 C 1.07269 0.30038 0.21196
 C2103 C 1.08453 0.30602 0.20644
 C2104 C 1.09440 0.29758 0.20075
 C2105 C 1.09252 0.28352 0.20061
 C2106 C 1.08068 0.27788 0.20615
 C2107 C 1.07902 0.26380 0.20590
 C2108 C 1.08878 0.25553 0.20034
 C2109 C 1.10035 0.26104 0.19492
 C2110 C 1.10225 0.27487 0.19503
 C2111 C 1.08620 0.32010 0.20673
 C2112 C 1.07646 0.32836 0.21233
 C2113 C 1.06488 0.32285 0.21774
 C2114 C 1.06297 0.30903 0.21758
 C2115 C 1.10644 0.30336 0.19500
 C2116 C 1.11641 0.30818 0.19019
 C2117 C 1.05862 0.28060 0.21733
 C2118 C 1.04847 0.27598 0.22195
 H2119 H 1.07019 0.25904 0.21000
 H2120 H 1.08736 0.24478 0.20023
 H2121 H 1.10790 0.25457 0.19061
 H2122 H 1.11142 0.27868 0.19070
 H2123 H 1.09504 0.32486 0.20266
 H2124 H 1.07790 0.33911 0.21248
 H2125 H 1.05735 0.32932 0.22208
 H2126 H 1.05380 0.30522 0.22192
 C2127 C 1.07099 0.78543 0.71127
 C2128 C 1.07344 0.79932 0.71271
 C2129 C 1.08506 0.80513 0.70691
 C2130 C 1.09417 0.79702 0.69971
 C2131 C 1.09179 0.78311 0.69838
 C2132 C 1.08017 0.77729 0.70419
 C2133 C 1.07801 0.76336 0.70273
 C2134 C 1.08706 0.75540 0.69573
 C2135 C 1.09841 0.76109 0.69004
 C2136 C 1.10080 0.77478 0.69132
 C2137 C 1.08727 0.81905 0.70847
 C2138 C 1.07827 0.82699 0.71555
 C2139 C 1.06691 0.82131 0.72122
 C2140 C 1.06446 0.80764 0.71984
 C2141 C 1.10590 0.80304 0.69358
 C2142 C 1.11553 0.80820 0.68846
 C2143 C 1.05899 0.77957 0.71700
 C2144 C 1.04892 0.77493 0.72178
 H2145 H 1.06932 0.75848 0.70698
 H2146 H 1.08526 0.74476 0.69472
 H2147 H 1.10541 0.75486 0.68461
 H2148 H 1.10978 0.77874 0.68673
 H2149 H 1.09598 0.82394 0.70426
 H2150 H 1.08013 0.83762 0.71665
 H2151 H 1.05994 0.82752 0.72671
 H2152 H 1.05549 0.80369 0.72444
 C2153 C 0.42887 0.71152 0.71430
 C2154 C 0.42645 0.71295 0.70050
 C2155 C 0.41466 0.70743 0.69479
 C2156 C 0.40536 0.70050 0.70291
 C2157 C 0.40777 0.69909 0.71671
 C2158 C 0.41956 0.70463 0.72242
 C2159 C 0.42175 0.70310 0.73623
 C2160 C 0.41255 0.69630 0.74418
 C2161 C 0.40103 0.69088 0.73859
 C2162 C 0.39861 0.69223 0.72502
 C2163 C 0.41247 0.70898 0.68098
 C2164 C 0.42166 0.71580 0.67304
 C2165 C 0.43318 0.72120 0.67862
 C2166 C 0.43561 0.71982 0.69218
 C2167 C 0.39335 0.69480 0.69705
 C2168 C 0.38341 0.69008 0.69212
 C2169 C 0.44096 0.71713 0.72008
 C2170 C 0.45106 0.72183 0.72470
 H2171 H 0.43056 0.70714 0.74102
 H2172 H 0.41438 0.69522 0.75472
 H2173 H 0.39392 0.68560 0.74481
 H2174 H 0.38951 0.68785 0.72114
 H2175 H 0.40365 0.70496 0.67618
 H2176 H 0.41982 0.71690 0.66250
 H2177 H 0.44029 0.72649 0.67241
 H2178 H 0.44472 0.72420 0.69606
 C2179 C 0.42936 0.21217 0.21387
 C2180 C 0.42836 0.21069 0.19991
 C2181 C 0.41651 0.20528 0.19421
 C2182 C 0.40573 0.20137 0.20251
 C2183 C 0.40673 0.20283 0.21647
 C2184 C 0.41858 0.20825 0.22217
 C2185 C 0.41935 0.20961 0.23614
 C2186 C 0.40872 0.20573 0.24427
 C2187 C 0.39714 0.20042 0.23870
 C2188 C 0.39610 0.19897 0.22497
 C2189 C 0.41576 0.20390 0.18024
 C2190 C 0.42640 0.20775 0.17212
 C2191 C 0.43798 0.21305 0.17768
 C2192 C 0.43901 0.21453 0.19141
 C2193 C 0.39364 0.19581 0.19668
 C2194 C 0.38365 0.19115 0.19180
 C2195 C 0.44146 0.21774 0.21965
 C2196 C 0.45157 0.22241 0.22425
 H2197 H 0.42816 0.21368 0.24093
 H2198 H 0.40948 0.20684 0.25494
 H2199 H 0.38892 0.19741 0.24506
 H2200 H 0.38689 0.19479 0.22111
 H2201 H 0.40696 0.19983 0.17544
 H2202 H 0.42566 0.20661 0.16145
 H2203 H 0.44622 0.21602 0.17133
 H2204 H 0.44823 0.21869 0.19526
 C2205 C -0.07084 0.71227 0.21399
 C2206 C -0.07009 0.70501 0.20192
 C2207 C -0.08191 0.69955 0.19622
 C2208 C -0.09443 0.70139 0.20262
 C2209 C -0.09518 0.70861 0.21470
 C2210 C -0.08335 0.71407 0.22041
 C2211 C -0.08435 0.72125 0.23249
 C2212 C -0.09668 0.72300 0.23876
 C2213 C -0.10825 0.71768 0.23319
 C2214 C -0.10757 0.71056 0.22130
 C2215 C -0.08090 0.69235 0.18415
 C2216 C -0.06856 0.69057 0.17790
 C2217 C -0.05699 0.69590 0.18348
 C2218 C -0.05769 0.70305 0.19534
 C2219 C -0.10651 0.69582 0.19678
 C2220 C -0.11651 0.69115 0.19192
 C2221 C -0.05877 0.71797 0.21970
 C2222 C -0.04868 0.72272 0.22428
 H2223 H -0.07563 0.72558 0.23721
 H2224 H -0.09727 0.72852 0.24800
 H2225 H -0.11781 0.71906 0.23810
 H2226 H -0.11684 0.70661 0.21735
 H2227 H -0.08961 0.68801 0.17943
 H2228 H -0.06796 0.68502 0.16868
 H2229 H -0.04743 0.69448 0.17858
 H2230 H -0.04841 0.70699 0.19929
 C2231 C -0.07090 0.21119 0.71400
 C2232 C -0.07317 0.21215 0.70014
 C2233 C -0.08501 0.20663 0.69453
 C2234 C -0.09451 0.20017 0.70280
 C2235 C -0.09224 0.19922 0.71665
 C2236 C -0.08041 0.20475 0.72227
 C2237 C -0.07836 0.20367 0.73615
 C2238 C -0.08774 0.19731 0.74424
 C2239 C -0.09931 0.19189 0.73875
 C2240 C -0.10159 0.19281 0.72512
 C2241 C -0.08705 0.20771 0.68065
 C2242 C -0.07767 0.21407 0.67255
 C2243 C -0.06610 0.21947 0.67804
 C2244 C -0.06382 0.21855 0.69167
 C2245 C -0.10660 0.19454 0.69705
 C2246 C -0.11662 0.18988 0.69221
 C2247 C -0.05878 0.21681 0.71970
 C2248 C -0.04866 0.22151 0.72427
 H2249 H -0.06952 0.20773 0.74088
 H2250 H -0.08602 0.19657 0.75484
 H2251 H -0.10656 0.18695 0.74509
 H2252 H -0.11073 0.18844 0.72132
 H2253 H -0.09590 0.20367 0.67591
 H2254 H -0.07938 0.21480 0.66196
 H2255 H -0.05884 0.22440 0.67171
 H2256 H -0.05467 0.22291 0.69547
 C2257 C 0.28458 0.42951 0.28866
 C2258 C 0.27646 0.41810 0.29087
 C2259 C 0.28218 0.40628 0.29634
 C2260 C 0.29599 0.40594 0.29957
 C2261 C 0.30410 0.41737 0.29740
 C2262 C 0.29838 0.42919 0.29193
 C2263 C 0.30669 0.44048 0.28983
 C2264 C 0.32027 0.44011 0.29306
 C2265 C 0.32586 0.42856 0.29842
 C2266 C 0.31792 0.41729 0.30058
 C2267 C 0.27386 0.39499 0.29845
 C2268 C 0.26028 0.39538 0.29525
 C2269 C 0.25469 0.40694 0.28989
 C2270 C 0.26264 0.41820 0.28770
 C2271 C 0.30187 0.39384 0.30509
 C2272 C 0.30682 0.38384 0.30967
 C2273 C 0.27878 0.44157 0.28297
 C2274 C 0.27416 0.45164 0.27821
 H2275 H 0.30281 0.44970 0.28569
 H2276 H 0.32648 0.44884 0.29140
 H2277 H 0.33641 0.42832 0.30091
 H2278 H 0.32274 0.40854 0.30476
 H2279 H 0.27775 0.38578 0.30260
 H2280 H 0.25406 0.38666 0.29693
 H2281 H 0.24414 0.40718 0.28742
 H2282 H 0.25783 0.42696 0.28352
 C2283 C 0.28696 -0.07144 0.78645
 C2284 C 0.28585 -0.07367 0.80031
 C2285 C 0.29139 -0.08545 0.80604
 C2286 C 0.29800 -0.09493 0.79789
 C2287 C 0.29908 -0.09272 0.78403
 C2288 C 0.29354 -0.08094 0.77829
 C2289 C 0.29474 -0.07895 0.76442
 C2290 C 0.30124 -0.08833 0.75643
 C2291 C 0.30667 -0.09984 0.76204
 C2292 C 0.30564 -0.10207 0.77567
 C2293 C 0.29016 -0.08745 0.81992
 C2294 C 0.28365 -0.07807 0.82791
 C2295 C 0.27823 -0.06656 0.82230
 C2296 C 0.27929 -0.06432 0.80867
 C2297 C 0.30376 -0.10691 0.80377
 C2298 C 0.30858 -0.11682 0.80869
 C2299 C 0.28135 -0.05936 0.78064
 C2300 C 0.27665 -0.04927 0.77599
 H2301 H 0.29067 -0.07015 0.75960
 H2302 H 0.30206 -0.08666 0.74583
 H2303 H 0.31172 -0.10709 0.75579
 H2304 H 0.31003 -0.11117 0.77957
 H2305 H 0.29422 -0.09625 0.82474
 H2306 H 0.28281 -0.07976 0.83850
 H2307 H 0.27318 -0.05931 0.82855
 H2308 H 0.27491 -0.05521 0.80478
 C2309 C 0.78488 0.42950 0.78738
 C2310 C 0.77677 0.41810 0.78973
 C2311 C 0.78256 0.40626 0.79510
 C2312 C 0.79642 0.40588 0.79809
 C2313 C 0.80453 0.41727 0.79573
 C2314 C 0.79875 0.42911 0.79037
 C2315 C 0.80706 0.44037 0.78810
 C2316 C 0.82070 0.43995 0.79105
 C2317 C 0.82636 0.42837 0.79629
 C2318 C 0.81842 0.41713 0.79863
 C2319 C 0.77425 0.39500 0.79735
 C2320 C 0.76061 0.39543 0.79438
 C2321 C 0.75496 0.40700 0.78914
 C2322 C 0.76289 0.41824 0.78682
 C2323 C 0.80233 0.39381 0.80363
 C2324 C 0.80728 0.38382 0.80827
 C2325 C 0.77901 0.44160 0.78186
 C2326 C 0.77432 0.45171 0.77725
 H2327 H 0.80313 0.44961 0.78403
 H2328 H 0.82691 0.44865 0.78925
 H2329 H 0.83696 0.42809 0.79856
 H2330 H 0.82328 0.40836 0.80271
 H2331 H 0.77818 0.38577 0.80141
 H2332 H 0.75440 0.38672 0.79617
 H2333 H 0.74436 0.40728 0.78685
 H2334 H 0.75804 0.42702 0.78273
 C2335 C 0.78771 -0.07035 0.28443
 C2336 C 0.77926 -0.08131 0.28751
 C2337 C 0.78476 -0.09310 0.29325
 C2338 C 0.79868 -0.09388 0.29587
 C2339 C 0.80716 -0.08297 0.29266
 C2340 C 0.80165 -0.07117 0.28693
 C2341 C 0.81032 -0.06038 0.28384
 C2342 C 0.82402 -0.06122 0.28635
 C2343 C 0.82941 -0.07275 0.29196
 C2344 C 0.82112 -0.08353 0.29510
 C2345 C 0.77610 -0.10391 0.29629
 C2346 C 0.76240 -0.10309 0.29372
 C2347 C 0.75703 -0.09156 0.28810
 C2348 C 0.76531 -0.08076 0.28501
 C2349 C 0.80427 -0.10583 0.30195
 C2350 C 0.80890 -0.11574 0.30704
 C2351 C 0.78203 -0.05815 0.27894
 C2352 C 0.77725 -0.04799 0.27454
 H2353 H 0.80660 -0.05120 0.27946
 H2354 H 0.83050 -0.05287 0.28394
 H2355 H 0.84006 -0.07335 0.29389
 H2356 H 0.82578 -0.09229 0.29944
 H2357 H 0.77981 -0.11309 0.30067
 H2358 H 0.75593 -0.11145 0.29611
 H2359 H 0.74638 -0.09097 0.28613
 H2360 H 0.76066 -0.07201 0.28065
 C2361 C 0.28475 0.57003 0.71328
 C2362 C 0.29855 0.57018 0.70997
 C2363 C 0.30438 0.58191 0.70441
 C2364 C 0.29637 0.59341 0.70218
 C2365 C 0.28257 0.59325 0.70548
 C2366 C 0.27674 0.58153 0.71105
 C2367 C 0.26292 0.58161 0.71426
 C2368 C 0.25508 0.59295 0.71204
 C2369 C 0.26078 0.60441 0.70660
 C2370 C 0.27436 0.60462 0.70334
 C2371 C 0.31819 0.58181 0.70118
 C2372 C 0.32603 0.57046 0.70338
 C2373 C 0.32033 0.55900 0.70881
 C2374 C 0.30676 0.55881 0.71209
 C2375 C 0.30232 0.60536 0.69645
 C2376 C 0.30727 0.61525 0.69164
 C2377 C 0.27883 0.55806 0.71901
 C2378 C 0.27410 0.54805 0.72378
 H2379 H 0.25804 0.57293 0.71850
 H2380 H 0.24453 0.59284 0.71455
 H2381 H 0.25465 0.61319 0.70490
 H2382 H 0.27833 0.61377 0.69914
 H2383 H 0.32309 0.59049 0.69693
 H2384 H 0.33658 0.57057 0.70085
 H2385 H 0.32646 0.55021 0.71050
 H2386 H 0.30279 0.54965 0.71630
 C2387 C 0.28661 1.07076 0.21539
 C2388 C 0.28568 1.08316 0.22214
 C2389 C 0.29119 1.09491 0.21632
 C2390 C 0.29762 1.09418 0.20379
 C2391 C 0.29858 1.08176 0.19705
 C2392 C 0.29307 1.07002 0.20287
 C2393 C 0.29414 1.05773 0.19594
 C2394 C 0.30048 1.05706 0.18361
 C2395 C 0.30587 1.06854 0.17792
 C2396 C 0.30497 1.08078 0.18452
 C2397 C 0.29010 1.10720 0.22324
 C2398 C 0.28375 1.10786 0.23557
 C2399 C 0.27838 1.09637 0.24126
 C2400 C 0.27930 1.08413 0.23467
 C2401 C 0.30326 1.10616 0.19783
 C2402 C 0.30799 1.11606 0.19282
 C2403 C 0.28085 1.05878 0.22123
 C2404 C 0.27605 1.04875 0.22590
 H2405 H 0.29012 1.04851 0.19996
 H2406 H 0.30121 1.04758 0.17845
 H2407 H 0.31078 1.06797 0.16834
 H2408 H 0.30931 1.08943 0.17968
 H2409 H 0.29413 1.11641 0.21922
 H2410 H 0.28300 1.11735 0.24072
 H2411 H 0.27346 1.09694 0.25084
 H2412 H 0.27498 1.07547 0.23951
 C2413 C 0.78684 0.57063 0.21573
 C2414 C 0.79784 0.56971 0.20687
 C2415 C 0.80327 0.58152 0.20110
 C2416 C 0.79768 0.59418 0.20422
 C2417 C 0.78673 0.59510 0.21315
 C2418 C 0.78131 0.58329 0.21893
 C2419 C 0.77037 0.58446 0.22783
 C2420 C 0.76494 0.59694 0.23092
 C2421 C 0.77023 0.60848 0.22525
 C2422 C 0.78101 0.60763 0.21647
 C2423 C 0.81425 0.58034 0.19225
 C2424 C 0.81971 0.56786 0.18919
 C2425 C 0.81440 0.55632 0.19484
 C2426 C 0.80359 0.55717 0.20358
 C2427 C 0.80316 0.60622 0.19820
 C2428 C 0.80778 0.61616 0.19317
 C2429 C 0.78111 0.55853 0.22139
 C2430 C 0.77635 0.54841 0.22590
 H2431 H 0.76591 0.57576 0.23249
 H2432 H 0.75657 0.59765 0.23775
 H2433 H 0.76597 0.61815 0.22768
 H2434 H 0.78478 0.61689 0.21232
 H2435 H 0.81874 0.58903 0.18761
 H2436 H 0.82811 0.56715 0.18241
 H2437 H 0.81867 0.54665 0.19243
 H2438 H 0.79982 0.54791 0.20772
 C2439 C 0.78442 1.07016 0.71374
 C2440 C 0.77673 1.08206 0.71302
 C2441 C 0.78246 1.09389 0.70759
 C2442 C 0.79586 1.09375 0.70293
 C2443 C 0.80358 1.08187 0.70372
 C2444 C 0.79784 1.07004 0.70914
 C2445 C 0.80576 1.05828 0.70982
 C2446 C 0.81896 1.05822 0.70529
 C2447 C 0.82457 1.06978 0.69999
 C2448 C 0.81702 1.08150 0.69919
 C2449 C 0.77457 1.10566 0.70697
 C2450 C 0.76140 1.10575 0.71159
 C2451 C 0.75579 1.09418 0.71690
 C2452 C 0.76332 1.08244 0.71762
 C2453 C 0.80169 1.10579 0.69725
 C2454 C 0.80657 1.11574 0.69248
 C2455 C 0.77858 1.05805 0.71924
 C2456 C 0.77390 1.04792 0.72381
 H2457 H 0.80185 1.04903 0.71387
 H2458 H 0.82487 1.04914 0.70590
 H2459 H 0.83483 1.06969 0.69649
 H2460 H 0.82183 1.09025 0.69499
 H2461 H 0.77849 1.11492 0.70293
 H2462 H 0.75551 1.11484 0.71105
 H2463 H 0.74556 1.09429 0.72048
 H2464 H 0.75852 1.07369 0.72183
 C2465 C 0.71041 0.57115 0.28471
 C2466 C 0.71809 0.58307 0.28447
 C2467 C 0.71286 0.59499 0.29022
 C2468 C 0.69998 0.59492 0.29615
 C2469 C 0.69223 0.58304 0.29622
 C2470 C 0.69747 0.57112 0.29048
 C2471 C 0.68956 0.55936 0.29071
 C2472 C 0.67683 0.55937 0.29644
 C2473 C 0.67171 0.57102 0.30204
 C2474 C 0.67927 0.58275 0.30196
 C2475 C 0.72074 0.60677 0.28991
 C2476 C 0.73341 0.60678 0.28408
 C2477 C 0.73852 0.59514 0.27845
 C2478 C 0.73099 0.58339 0.27862
 C2479 C 0.69474 0.60701 0.30229
 C2480 C 0.69037 0.61699 0.30745
 C2481 C 0.71594 0.55886 0.27925
 C2482 C 0.72056 0.54860 0.27490
 H2483 H 0.69310 0.55005 0.28647
 H2484 H 0.67091 0.55029 0.29652
 H2485 H 0.66181 0.57098 0.30647
 H2486 H 0.67485 0.59156 0.30643
 H2487 H 0.71719 0.61608 0.29415
 H2488 H 0.73930 0.61588 0.28393
 H2489 H 0.74837 0.59520 0.27393
 H2490 H 0.73539 0.57459 0.27410
 C2491 C 0.71375 1.07066 0.78866
 C2492 C 0.71503 1.08289 0.78164
 C2493 C 0.70942 1.09483 0.78696
 C2494 C 0.70257 1.09448 0.79929
 C2495 C 0.70133 1.08227 0.80634
 C2496 C 0.70694 1.07032 0.80101
 C2497 C 0.70556 1.05823 0.80824
 C2498 C 0.69884 1.05794 0.82038
 C2499 C 0.69335 1.06962 0.82558
 C2500 C 0.69455 1.08166 0.81869
 C2501 C 0.71080 1.10692 0.77974
 C2502 C 0.71755 1.10720 0.76761
 C2503 C 0.72305 1.09553 0.76241
 C2504 C 0.72183 1.08348 0.76930
 C2505 C 0.69682 1.10668 0.80474
 C2506 C 0.69204 1.11676 0.80935
 C2507 C 0.71926 1.05841 0.78312
 C2508 C 0.72368 1.04818 0.77849
 H2509 H 0.70966 1.04889 0.80460
 H2510 H 0.69788 1.04861 0.82577
 H2511 H 0.68813 1.06934 0.83502
 H2512 H 0.69011 1.09048 0.82315
 H2513 H 0.70669 1.11626 0.78337
 H2514 H 0.71851 1.11654 0.76221
 H2515 H 0.72828 1.09581 0.75299
 H2516 H 0.72629 1.07467 0.76486
 C2517 C 0.21346 0.57084 0.78907
 C2518 C 0.20075 0.57545 0.78480
 C2519 C 0.19522 0.58734 0.79032
 C2520 C 0.20244 0.59454 0.80010
 C2521 C 0.21517 0.58996 0.80433
 C2522 C 0.22070 0.57807 0.79880
 C2523 C 0.23344 0.57367 0.80320
 C2524 C 0.24051 0.58081 0.81280
 C2525 C 0.23510 0.59243 0.81821
 C2526 C 0.22258 0.59700 0.81406
 C2527 C 0.18249 0.59175 0.78590
 C2528 C 0.17542 0.58461 0.77630
 C2529 C 0.18082 0.57298 0.77091
 C2530 C 0.19334 0.56841 0.77506
 C2531 C 0.19673 0.60662 0.80582
 C2532 C 0.19195 0.61663 0.81059
 C2533 C 0.21902 0.55861 0.78353
 C2534 C 0.22349 0.54841 0.77888
 H2535 H 0.23806 0.56470 0.79928
 H2536 H 0.25024 0.57730 0.81606
 H2537 H 0.24063 0.59793 0.82567
 H2538 H 0.21880 0.60609 0.81856
 H2539 H 0.17787 0.60073 0.78980
 H2540 H 0.16570 0.58812 0.77304
 H2541 H 0.17529 0.56747 0.76346
 H2542 H 0.19712 0.55932 0.77056
 C2543 C 0.21104 1.07157 0.28649
 C2544 C 0.21957 1.08046 0.29343
 C2545 C 0.21422 1.09230 0.29924
 C2546 C 0.20037 1.09517 0.29806
 C2547 C 0.19186 1.08634 0.29101
 C2548 C 0.19721 1.07450 0.28521
 C2549 C 0.18850 1.06581 0.27824
 C2550 C 0.17489 1.06873 0.27703
 C2551 C 0.16966 1.08030 0.28269
 C2552 C 0.17800 1.08904 0.28962
 C2553 C 0.22294 1.10102 0.30616
 C2554 C 0.23656 1.09814 0.30730
 C2555 C 0.24179 1.08657 0.30162
 C2556 C 0.23344 1.07780 0.29476
 C2557 C 0.19486 1.10715 0.30418
 C2558 C 0.19025 1.11707 0.30928
 C2559 C 0.21645 1.05931 0.28086
 C2560 C 0.22099 1.04908 0.27635
 H2561 H 0.19210 1.05669 0.27365
 H2562 H 0.16837 1.06197 0.27166
 H2563 H 0.15909 1.08252 0.28172
 H2564 H 0.17346 1.09792 0.29385
 H2565 H 0.21935 1.11015 0.31074
 H2566 H 0.24309 1.10492 0.31262
 H2567 H 0.25238 1.08438 0.30254
 H2568 H 0.23798 1.06893 0.29051
 C2569 C 0.71329 0.42935 0.71278
 C2570 C 0.70140 0.42393 0.71830
 C2571 C 0.69570 0.41213 0.71279
 C2572 C 0.70192 0.40582 0.70179
 C2573 C 0.71386 0.41120 0.69633
 C2574 C 0.71956 0.42299 0.70185
 C2575 C 0.73147 0.42819 0.69621
 C2576 C 0.73758 0.42191 0.68542
 C2577 C 0.73201 0.41038 0.68002
 C2578 C 0.72029 0.40504 0.68537
 C2579 C 0.68381 0.40692 0.71845
 C2580 C 0.67771 0.41319 0.72925
 C2581 C 0.68327 0.42473 0.73464
 C2582 C 0.69498 0.43008 0.72927
 C2583 C 0.69600 0.39388 0.69603
 C2584 C 0.69112 0.38400 0.69115
 C2585 C 0.71896 0.44154 0.71827
 C2586 C 0.72354 0.45171 0.72284
 H2587 H 0.73619 0.43713 0.70006
 H2588 H 0.74669 0.42602 0.68123
 H2589 H 0.73680 0.40554 0.67164
 H2590 H 0.71634 0.39605 0.68083
 H2591 H 0.67910 0.39796 0.71461
 H2592 H 0.66861 0.40906 0.73346
 H2593 H 0.67849 0.42955 0.74303
 H2594 H 0.69893 0.43907 0.73381
 C2595 C 0.71158 -0.07057 0.21507
 C2596 C 0.71863 -0.07717 0.20475
 C2597 C 0.71325 -0.08900 0.19899
 C2598 C 0.70086 -0.09415 0.20357
 C2599 C 0.69386 -0.08760 0.21395
 C2600 C 0.69924 -0.07578 0.21972
 C2601 C 0.69205 -0.06940 0.23007
 C2602 C 0.67989 -0.07455 0.23459
 C2603 C 0.67463 -0.08611 0.22895
 C2604 C 0.68149 -0.09260 0.21874
 C2605 C 0.72047 -0.09541 0.18867
 C2606 C 0.73265 -0.09028 0.18418
 C2607 C 0.73790 -0.07872 0.18981
 C2608 C 0.73102 -0.07220 0.19998
 C2609 C 0.69529 -0.10612 0.19752
 C2610 C 0.69071 -0.11602 0.19240
 C2611 C 0.71695 -0.05833 0.22075
 C2612 C 0.72150 -0.04812 0.22527
 H2613 H 0.69574 -0.06038 0.23478
 H2614 H 0.67453 -0.06954 0.24252
 H2615 H 0.66518 -0.09006 0.23249
 H2616 H 0.67700 -0.10156 0.21467
 H2617 H 0.71680 -0.10443 0.18397
 H2618 H 0.73804 -0.09531 0.17628
 H2619 H 0.74737 -0.07477 0.18629
 H2620 H 0.73552 -0.06324 0.20405
 C2621 C 0.21361 0.42925 0.21244
 C2622 C 0.20016 0.42576 0.21529
 C2623 C 0.19453 0.41396 0.20971
 C2624 C 0.20240 0.40572 0.20131
 C2625 C 0.21587 0.40919 0.19850
 C2626 C 0.22149 0.42099 0.20409
 C2627 C 0.23497 0.42426 0.20113
 C2628 C 0.24268 0.41610 0.19287
 C2629 C 0.23718 0.40457 0.18740
 C2630 C 0.22393 0.40111 0.19015
 C2631 C 0.18106 0.41068 0.21270
 C2632 C 0.17335 0.41884 0.22096
 C2633 C 0.17885 0.43037 0.22641
 C2634 C 0.19209 0.43385 0.22365
 C2635 C 0.19661 0.39373 0.19551
 C2636 C 0.19181 0.38381 0.19064
 C2637 C 0.21929 0.44138 0.21805
 C2638 C 0.22384 0.45151 0.22274
 H2639 H 0.23970 0.43312 0.20515
 H2640 H 0.25297 0.41875 0.19071
 H2641 H 0.24321 0.39827 0.18099
 H2642 H 0.22011 0.39204 0.18566
 H2643 H 0.17634 0.40181 0.20870
 H2644 H 0.16307 0.41618 0.22313
 H2645 H 0.17282 0.43667 0.23282
 H2646 H 0.19591 0.44292 0.22813
 C2647 C 0.21156 -0.07202 0.71539
 C2648 C 0.21748 -0.07749 0.70380
 C2649 C 0.21198 -0.08920 0.69792
 C2650 C 0.20058 -0.09538 0.70367
 C2651 C 0.19476 -0.09000 0.71534
 C2652 C 0.20027 -0.07829 0.72123
 C2653 C 0.19426 -0.07310 0.73288
 C2654 C 0.18313 -0.07928 0.73857
 C2655 C 0.17773 -0.09072 0.73281
 C2656 C 0.18344 -0.09606 0.72133
 C2657 C 0.21805 -0.09446 0.68632
 C2658 C 0.22924 -0.08833 0.68069
 C2659 C 0.23462 -0.07688 0.68644
 C2660 C 0.22885 -0.07148 0.69786
 C2661 C 0.19478 -0.10715 0.69745
 C2662 C 0.18998 -0.11684 0.69214
 C2663 C 0.21697 -0.05985 0.72115
 C2664 C 0.22153 -0.04966 0.72572
 H2665 H 0.19811 -0.06423 0.73773
 H2666 H 0.17866 -0.07518 0.74749
 H2667 H 0.16908 -0.09548 0.73726
 H2668 H 0.17889 -0.10498 0.71722
 H2669 H 0.21424 -0.10335 0.68149
 H2670 H 0.23376 -0.09248 0.67182
 H2671 H 0.24332 -0.07216 0.68203
 H2672 H 0.23341 -0.06257 0.70196
 C2673 C 0.28959 0.28562 0.43014
 C2674 C 0.29521 0.27717 0.42031
 C2675 C 0.30059 0.28279 0.40847
 C2676 C 0.30031 0.29684 0.40653
 C2677 C 0.29471 0.30530 0.41637
 C2678 C 0.28933 0.29967 0.42821
 C2679 C 0.28378 0.30833 0.43790
 C2680 C 0.28354 0.32215 0.43596
 C2681 C 0.28880 0.32765 0.42439
 C2682 C 0.29433 0.31937 0.41467
 C2683 C 0.30615 0.27414 0.39879
 C2684 C 0.30639 0.26032 0.40074
 C2685 C 0.30112 0.25482 0.41231
 C2686 C 0.29558 0.26310 0.42202
 C2687 C 0.30575 0.30261 0.39443
 C2688 C 0.31023 0.30749 0.38440
 C2689 C 0.28405 0.27991 0.44222
 C2690 C 0.27937 0.27535 0.45230
 H2691 H 0.27956 0.30453 0.44707
 H2692 H 0.27926 0.32862 0.44347
 H2693 H 0.28859 0.33839 0.42292
 H2694 H 0.29829 0.32413 0.40584
 H2695 H 0.31038 0.27795 0.38963
 H2696 H 0.31068 0.25385 0.39323
 H2697 H 0.30132 0.24408 0.41377
 H2698 H 0.29160 0.25835 0.43085
 C2699 C 0.28881 0.78643 -0.07016
 C2700 C 0.29386 0.77795 -0.08027
 C2701 C 0.29920 0.78359 -0.09212
 C2702 C 0.29946 0.79768 -0.09379
 C2703 C 0.29438 0.80615 -0.08368
 C2704 C 0.28904 0.80051 -0.07184
 C2705 C 0.28404 0.80919 -0.06187
 C2706 C 0.28431 0.82304 -0.06356
 C2707 C 0.28952 0.82855 -0.07515
 C2708 C 0.29451 0.82026 -0.08513
 C2709 C 0.30420 0.77492 -0.10208
 C2710 C 0.30394 0.76106 -0.10039
 C2711 C 0.29871 0.75555 -0.08880
 C2712 C 0.29371 0.76385 -0.07883
 C2713 C 0.30498 0.80346 -0.10586
 C2714 C 0.30958 0.80829 -0.11585
 C2715 C 0.28339 0.78070 -0.05803
 C2716 C 0.27885 0.77609 -0.04790
 H2717 H 0.27987 0.80538 -0.05269
 H2718 H 0.28045 0.82953 -0.05584
 H2719 H 0.28971 0.83932 -0.07641
 H2720 H 0.29846 0.82502 -0.09396
 H2721 H 0.30836 0.77873 -0.11127
 H2722 H 0.30781 0.75457 -0.10810
 H2723 H 0.29852 0.74479 -0.08754
 H2724 H 0.28974 0.75909 -0.07000
 C2725 C 0.78905 0.28613 -0.07146
 C2726 C 0.79779 0.27855 -0.07961
 C2727 C 0.80326 0.28434 -0.09133
 C2728 C 0.79994 0.29767 -0.09483
 C2729 C 0.79113 0.30523 -0.08672
 C2730 C 0.78568 0.29944 -0.07499
 C2731 C 0.77692 0.30721 -0.06703
 C2732 C 0.77364 0.32030 -0.07054
 C2733 C 0.77897 0.32596 -0.08201
 C2734 C 0.78762 0.31856 -0.09004
 C2735 C 0.81199 0.27657 -0.09931
 C2736 C 0.81523 0.26346 -0.09581
 C2737 C 0.80989 0.25780 -0.08435
 C2738 C 0.80127 0.26521 -0.07630
 C2739 C 0.80562 0.30366 -0.10672
 C2740 C 0.81032 0.30875 -0.11654
 C2741 C 0.78360 0.28031 -0.05938
 C2742 C 0.77900 0.27570 -0.04929
 H2743 H 0.77252 0.30325 -0.05801
 H2744 H 0.76693 0.32610 -0.06434
 H2745 H 0.77639 0.33614 -0.08470
 H2746 H 0.79150 0.32340 -0.09886
 H2747 H 0.81640 0.28054 -0.10832
 H2748 H 0.82193 0.25765 -0.10202
 H2749 H 0.81244 0.24760 -0.08168
 H2750 H 0.79736 0.26037 -0.06749
 C2751 C 0.78532 0.78915 0.42879
 C2752 C 0.79353 0.78111 0.42053
 C2753 C 0.79915 0.78659 0.40873
 C2754 C 0.79651 0.80009 0.40526
 C2755 C 0.78820 0.80809 0.41346
 C2756 C 0.78258 0.80261 0.42526
 C2757 C 0.77432 0.81081 0.43330
 C2758 C 0.77167 0.82405 0.42979
 C2759 C 0.77716 0.82942 0.41826
 C2760 C 0.78534 0.82158 0.41015
 C2761 C 0.80735 0.77837 0.40065
 C2762 C 0.80992 0.76510 0.40411
 C2763 C 0.80443 0.75973 0.41564
 C2764 C 0.79633 0.76760 0.42379
 C2765 C 0.80243 0.80575 0.39332
 C2766 C 0.80738 0.81044 0.38343
 C2767 C 0.77986 0.78362 0.44100
 C2768 C 0.77549 0.77897 0.45118
 H2769 H 0.76982 0.80708 0.44236
 H2770 H 0.76533 0.83018 0.43606
 H2771 H 0.77507 0.83971 0.41558
 H2772 H 0.78937 0.82620 0.40128
 H2773 H 0.81184 0.78208 0.39158
 H2774 H 0.81621 0.75894 0.39781
 H2775 H 0.80646 0.74942 0.41828
 H2776 H 0.79229 0.76297 0.43266
 C2777 C 0.71472 0.28753 0.57027
 C2778 C 0.72308 0.29177 0.58082
 C2779 C 0.71729 0.29728 0.59252
 C2780 C 0.70319 0.29850 0.59360
 C2781 C 0.69484 0.29426 0.58304
 C2782 C 0.70062 0.28875 0.57134
 C2783 C 0.69207 0.28458 0.56093
 C2784 C 0.67820 0.28581 0.56203
 C2785 C 0.67254 0.29119 0.57347
 C2786 C 0.68071 0.29538 0.58389
 C2787 C 0.72584 0.30146 0.60293
 C2788 C 0.73972 0.30023 0.60182
 C2789 C 0.74537 0.29484 0.59038
 C2790 C 0.73720 0.29064 0.57997
 C2791 C 0.69727 0.30414 0.60554
 C2792 C 0.69232 0.30884 0.61542
 C2793 C 0.72060 0.28189 0.55831
 C2794 C 0.72532 0.27718 0.54832
 H2795 H 0.69599 0.28033 0.55183
 H2796 H 0.67180 0.28257 0.55397
 H2797 H 0.66176 0.29213 0.57429
 H2798 H 0.67584 0.29950 0.59259
 H2799 H 0.72192 0.30572 0.61202
 H2800 H 0.74611 0.30348 0.60988
 H2801 H 0.75615 0.29390 0.58957
 H2802 H 0.74206 0.28651 0.57127
 C2803 C 0.71666 0.78862 1.07048
 C2804 C 0.72086 0.78381 1.08304
 C2805 C 0.71522 0.78926 1.09484
 C2806 C 0.70540 0.79948 1.09400
 C2807 C 0.70128 0.80436 1.08144
 C2808 C 0.70692 0.79891 1.06964
 C2809 C 0.70260 0.80392 1.05720
 C2810 C 0.69299 0.81402 1.05643
 C2811 C 0.68748 0.81935 1.06796
 C2812 C 0.69153 0.81462 1.08035
 C2813 C 0.71955 0.78427 1.10728
 C2814 C 0.72918 0.77418 1.10805
 C2815 C 0.73470 0.76885 1.09652
 C2816 C 0.73062 0.77357 1.08413
 C2817 C 0.69946 0.80490 1.10604
 C2818 C 0.69442 0.80942 1.11597
 C2819 C 0.72220 0.78286 1.05841
 C2820 C 0.72663 0.77804 1.04834
 H2821 H 0.70660 0.80010 1.04795
 H2822 H 0.68981 0.81774 1.04683
 H2823 H 0.68002 0.82720 1.06731
 H2824 H 0.68695 0.81908 1.08903
 H2825 H 0.71556 0.78810 1.11653
 H2826 H 0.73238 0.77048 1.11765
 H2827 H 0.74217 0.76101 1.09717
 H2828 H 0.73521 0.76912 1.07544
 C2829 C 0.21557 0.28716 1.07020
 C2830 C 0.21778 0.28075 1.08256
 C2831 C 0.21201 0.28611 1.09433
 C2832 C 0.20408 0.29786 1.09367
 C2833 C 0.20192 0.30431 1.08132
 C2834 C 0.20769 0.29894 1.06955
 C2835 C 0.20537 0.30554 1.05731
 C2836 C 0.19759 0.31712 1.05672
 C2837 C 0.19196 0.32238 1.06823
 C2838 C 0.19407 0.31609 1.08041
 C2839 C 0.21433 0.27951 1.10657
 C2840 C 0.22214 0.26794 1.10715
 C2841 C 0.22778 0.26270 1.09564
 C2842 C 0.22567 0.26899 1.08346
 C2843 C 0.19812 0.30333 1.10568
 C2844 C 0.19316 0.30796 1.11559
 C2845 C 0.22127 0.28156 1.05814
 C2846 C 0.22586 0.27690 1.04807
 H2847 H 0.20954 0.30184 1.04809
 H2848 H 0.19592 0.32204 1.04727
 H2849 H 0.18592 0.33138 1.06771
 H2850 H 0.18948 0.32057 1.08909
 H2851 H 0.21016 0.28321 1.11579
 H2852 H 0.22381 0.26302 1.11659
 H2853 H 0.23384 0.25371 1.09615
 H2854 H 0.23027 0.26454 1.07478
 C2855 C 0.21602 0.78794 0.57027
 C2856 C 0.21736 0.78123 0.58260
 C2857 C 0.21145 0.78676 0.59424
 C2858 C 0.20425 0.79896 0.59348
 C2859 C 0.20303 0.80574 0.58117
 C2860 C 0.20893 0.80021 0.56954
 C2861 C 0.20754 0.80715 0.55734
 C2862 C 0.20051 0.81919 0.55666
 C2863 C 0.19474 0.82460 0.56803
 C2864 C 0.19596 0.81800 0.58017
 C2865 C 0.21288 0.77984 0.60644
 C2866 C 0.21994 0.76781 0.60712
 C2867 C 0.22572 0.76241 0.59574
 C2868 C 0.22448 0.76900 0.58360
 C2869 C 0.19799 0.80450 0.60530
 C2870 C 0.19272 0.80918 0.61504
 C2871 C 0.22172 0.78213 0.55831
 C2872 C 0.22627 0.77731 0.54829
 H2873 H 0.21187 0.80336 0.54823
 H2874 H 0.19954 0.82436 0.54725
 H2875 H 0.18929 0.83396 0.56744
 H2876 H 0.19130 0.82261 0.58874
 H2877 H 0.20858 0.78365 0.61556
 H2878 H 0.22093 0.76265 0.61653
 H2879 H 0.23119 0.75306 0.59633
 H2880 H 0.22916 0.76442 0.57503
 C2881 C 0.28618 0.71160 0.57060
 C2882 C 0.28832 0.72000 0.58173
 C2883 C 0.29396 0.71463 0.59356
 C2884 C 0.29743 0.70089 0.59418
 C2885 C 0.29522 0.69247 0.58308
 C2886 C 0.28959 0.69785 0.57125
 C2887 C 0.28750 0.68925 0.56027
 C2888 C 0.29089 0.67572 0.56095
 C2889 C 0.29639 0.67046 0.57251
 C2890 C 0.29855 0.67869 0.58348
 C2891 C 0.29602 0.72322 0.60455
 C2892 C 0.29260 0.73674 0.60387
 C2893 C 0.28708 0.74200 0.59231
 C2894 C 0.28494 0.73377 0.58134
 C2895 C 0.30328 0.69540 0.60622
 C2896 C 0.30810 0.69076 0.61619
 C2897 C 0.28066 0.71714 0.55844
 C2898 C 0.27618 0.72176 0.54830
 H2899 H 0.28324 0.69287 0.55106
 H2900 H 0.28923 0.66928 0.55246
 H2901 H 0.29900 0.65994 0.57299
 H2902 H 0.30285 0.67413 0.59225
 H2903 H 0.30027 0.71960 0.61376
 H2904 H 0.29425 0.74318 0.61237
 H2905 H 0.28445 0.75251 0.59184
 H2906 H 0.28062 0.73832 0.57257
 C2907 C 0.28592 0.21148 1.07063
 C2908 C 0.29153 0.19844 1.07063
 C2909 C 0.29713 0.19310 1.08249
 C2910 C 0.29708 0.20082 1.09429
 C2911 C 0.29140 0.21383 1.09431
 C2912 C 0.28579 0.21916 1.08245
 C2913 C 0.28017 0.23218 1.08272
 C2914 C 0.28009 0.23972 1.09436
 C2915 C 0.28560 0.23452 1.10595
 C2916 C 0.29121 0.22173 1.10598
 C2917 C 0.30270 0.18006 1.08223
 C2918 C 0.30274 0.17251 1.07059
 C2919 C 0.29726 0.17773 1.05900
 C2920 C 0.29171 0.19054 1.05896
 C2921 C 0.30288 0.19538 1.10639
 C2922 C 0.30771 0.19081 1.11639
 C2923 C 0.28047 0.21704 1.05843
 C2924 C 0.27608 0.22169 1.04827
 H2925 H 0.27576 0.23666 1.07396
 H2926 H 0.27574 0.24966 1.09439
 H2927 H 0.28553 0.24043 1.11497
 H2928 H 0.29537 0.21812 1.11524
 H2929 H 0.30708 0.17556 1.09099
 H2930 H 0.30704 0.16255 1.07057
 H2931 H 0.29730 0.17182 1.04998
 H2932 H 0.28755 0.19415 1.04970
 C2933 C 0.78616 0.71200 1.07085
 C2934 C 0.79919 0.70635 1.07074
 C2935 C 0.80469 0.70092 1.08261
 C2936 C 0.79712 0.70116 1.09452
 C2937 C 0.78410 0.70682 1.09464
 C2938 C 0.77861 0.71226 1.08277
 C2939 C 0.76559 0.71789 1.08314
 C2940 C 0.75820 0.71814 1.09489
 C2941 C 0.76356 0.71281 1.10649
 C2942 C 0.77636 0.70720 1.10642
 C2943 C 0.81773 0.69534 1.08224
 C2944 C 0.82514 0.69514 1.07049
 C2945 C 0.81977 0.70045 1.05890
 C2946 C 0.80695 0.70601 1.05896
 C2947 C 0.80275 0.69558 1.10663
 C2948 C 0.80749 0.69093 1.11664
 C2949 C 0.78059 0.71756 1.05872
 C2950 C 0.77610 0.72219 1.04859
 H2951 H 0.76099 0.72216 1.07437
 H2952 H 0.74826 0.72250 1.09500
 H2953 H 0.75777 0.71302 1.11559
 H2954 H 0.78010 0.70318 1.11569
 H2955 H 0.82235 0.69108 1.09100
 H2956 H 0.83510 0.69083 1.07040
 H2957 H 0.82557 0.70028 1.04980
 H2958 H 0.80322 0.71002 1.04968
 C2959 C 0.78676 0.21183 0.57066
 C2960 C 0.77860 0.20421 0.57934
 C2961 C 0.78416 0.19868 0.59113
 C2962 C 0.79785 0.20083 0.59417
 C2963 C 0.80600 0.20848 0.58551
 C2964 C 0.80044 0.21400 0.57371
 C2965 C 0.80879 0.22162 0.56520
 C2966 C 0.82224 0.22372 0.56825
 C2967 C 0.82768 0.21832 0.57979
 C2968 C 0.81970 0.21079 0.58835
 C2969 C 0.77581 0.19108 0.59965
 C2970 C 0.76235 0.18900 0.59660
 C2971 C 0.75691 0.19441 0.58508
 C2972 C 0.76489 0.20193 0.57651
 C2973 C 0.80355 0.19513 0.60618
 C2974 C 0.80829 0.19038 0.61614
 C2975 C 0.78112 0.21741 0.55857
 C2976 C 0.77658 0.22209 0.54848
 H2977 H 0.80502 0.22602 0.55611
 H2978 H 0.82848 0.22957 0.56163
 H2979 H 0.83814 0.21999 0.58211
 H2980 H 0.82439 0.20680 0.59720
 H2981 H 0.77958 0.18667 0.60873
 H2982 H 0.75610 0.18316 0.60323
 H2983 H 0.74644 0.19277 0.58276
 H2984 H 0.76021 0.20594 0.56766
 C2985 C 0.71630 0.71193 0.42967
 C2986 C 0.70548 0.70281 0.43061
 C2987 C 0.69975 0.69735 0.41887
 C2988 C 0.70487 0.70105 0.40627
 C2989 C 0.71576 0.71010 0.40533
 C2990 C 0.72149 0.71556 0.41707
 C2991 C 0.73234 0.72460 0.41588
 C2992 C 0.73739 0.72816 0.40346
 C2993 C 0.73179 0.72283 0.39198
 C2994 C 0.72109 0.71390 0.39285
 C2995 C 0.68893 0.68827 0.42007
 C2996 C 0.68391 0.68468 0.43250
 C2997 C 0.68951 0.69002 0.44397
 C2998 C 0.70017 0.69898 0.44309
 C2999 C 0.69887 0.69562 0.39428
 C3000 C 0.69381 0.69111 0.38437
 C3001 C 0.72195 0.71772 0.44165
 C3002 C 0.72647 0.72257 0.45166
 H3003 H 0.73704 0.72901 0.42452
 H3004 H 0.74570 0.73509 0.40273
 H3005 H 0.73575 0.72562 0.38236
 H3006 H 0.71707 0.71001 0.38364
 H3007 H 0.68424 0.68384 0.41144
 H3008 H 0.67563 0.67771 0.43323
 H3009 H 0.68557 0.68720 0.45360
 H3010 H 0.70419 0.70286 0.45230
 C3011 C 0.71324 0.21448 -0.07082
 C3012 C 0.70795 0.20132 -0.07046
 C3013 C 0.70243 0.19557 -0.08215
 C3014 C 0.70224 0.20300 -0.09413
 C3015 C 0.70752 0.21616 -0.09449
 C3016 C 0.71304 0.22192 -0.08280
 C3017 C 0.71826 0.23508 -0.08340
 C3018 C 0.71805 0.24235 -0.09521
 C3019 C 0.71265 0.23673 -0.10665
 C3020 C 0.70743 0.22379 -0.10635
 C3021 C 0.69721 0.18240 -0.08154
 C3022 C 0.69744 0.17513 -0.06972
 C3023 C 0.70284 0.18075 -0.05829
 C3024 C 0.70805 0.19369 -0.05860
 C3025 C 0.69660 0.19712 -0.10607
 C3026 C 0.69188 0.19221 -0.11596
 C3027 C 0.71896 0.22030 -0.05889
 C3028 C 0.72373 0.22497 -0.04891
 H3029 H 0.72256 0.23988 -0.07476
 H3030 H 0.72209 0.25241 -0.09550
 H3031 H 0.71251 0.24242 -0.11580
 H3032 H 0.70334 0.21985 -0.11550
 H3033 H 0.69291 0.17759 -0.09017
 H3034 H 0.69341 0.16507 -0.06944
 H3035 H 0.70300 0.17506 -0.04914
 H3036 H 0.71214 0.19763 -0.04944
 C3037 C 0.21300 0.71507 -0.06946
 C3038 C 0.20752 0.70200 -0.06909
 C3039 C 0.20196 0.69631 -0.08080
 C3040 C 0.20192 0.70372 -0.09279
 C3041 C 0.20738 0.71681 -0.09315
 C3042 C 0.21294 0.72250 -0.08144
 C3043 C 0.21835 0.73559 -0.08204
 C3044 C 0.21827 0.74285 -0.09387
 C3045 C 0.21283 0.73729 -0.10531
 C3046 C 0.20743 0.72442 -0.10502
 C3047 C 0.19655 0.68322 -0.08019
 C3048 C 0.19662 0.67596 -0.06836
 C3049 C 0.20206 0.68152 -0.05692
 C3050 C 0.20746 0.69438 -0.05722
 C3051 C 0.19628 0.69788 -0.10475
 C3052 C 0.19157 0.69298 -0.11465
 C3053 C 0.21879 0.72081 -0.05752
 C3054 C 0.22362 0.72540 -0.04754
 H3055 H 0.22268 0.74034 -0.07339
 H3056 H 0.22245 0.75285 -0.09415
 H3057 H 0.21280 0.74297 -0.11448
 H3058 H 0.20332 0.72053 -0.11418
 H3059 H 0.19221 0.67846 -0.08883
 H3060 H 0.19244 0.66596 -0.06808
 H3061 H 0.20210 0.67584 -0.04776
 H3062 H 0.21157 0.69827 -0.04806
 C3063 C 0.21344 0.21450 0.43020
 C3064 C 0.21012 0.22286 0.41933
 C3065 C 0.20457 0.21721 0.40760
 C3066 C 0.20236 0.20322 0.40682
 C3067 C 0.20569 0.19485 0.41769
 C3068 C 0.21124 0.20051 0.42942
 C3069 C 0.21447 0.19194 0.44017
 C3070 C 0.21228 0.17818 0.43935
 C3071 C 0.20686 0.17266 0.42788
 C3072 C 0.20359 0.18084 0.41715
 C3073 C 0.20133 0.22578 0.39686
 C3074 C 0.20351 0.23954 0.39768
 C3075 C 0.20894 0.24506 0.40915
 C3076 C 0.21223 0.23687 0.41988
 C3077 C 0.19661 0.19744 0.39487
 C3078 C 0.19177 0.19264 0.38499
 C3079 C 0.21911 0.22025 0.44219
 C3080 C 0.22384 0.22487 0.45221
 H3081 H 0.21871 0.19577 0.44930
 H3082 H 0.21480 0.17178 0.44767
 H3083 H 0.20518 0.16196 0.42730
 H3084 H 0.19940 0.17607 0.40844
 H3085 H 0.19709 0.22195 0.38773
 H3086 H 0.20098 0.24594 0.38937
 H3087 H 0.21061 0.25576 0.40974
 H3088 H 0.21642 0.24164 0.42859
 C3089 C 0.28682 0.42924 0.71574
 C3090 C 0.30078 0.42848 0.71331
 C3091 C 0.30635 0.41677 0.70745
 C3092 C 0.29791 0.40590 0.70405
 C3093 C 0.28396 0.40663 0.70656
 C3094 C 0.27840 0.41833 0.71242
 C3095 C 0.26442 0.41884 0.71481
 C3096 C 0.25618 0.40809 0.71151
 C3097 C 0.26162 0.39665 0.70578
 C3098 C 0.27534 0.39587 0.70331
 C3099 C 0.32033 0.41625 0.70510
 C3100 C 0.32858 0.42699 0.70844
 C3101 C 0.32314 0.43843 0.71416
 C3102 C 0.30940 0.43923 0.71659
 C3103 C 0.30358 0.39400 0.69793
 C3104 C 0.30829 0.38412 0.69285
 C3105 C 0.28108 0.44132 0.72144
 C3106 C 0.27627 0.45139 0.72602
 H3107 H 0.25972 0.42752 0.71927
 H3108 H 0.24551 0.40865 0.71341
 H3109 H 0.25517 0.38832 0.70323
 H3110 H 0.27910 0.38675 0.69884
 H3111 H 0.32504 0.40756 0.70068
 H3112 H 0.33925 0.42642 0.70657
 H3113 H 0.32959 0.44675 0.71673
 H3114 H 0.30564 0.44834 0.72108
 C3115 C 0.28502 0.93015 0.21330
 C3116 C 0.28017 0.91734 0.21696
 C3117 C 0.28608 0.90564 0.21143
 C3118 C 0.29679 0.90682 0.20226
 C3119 C 0.30163 0.91963 0.19859
 C3120 C 0.29573 0.93133 0.20413
 C3121 C 0.30076 0.94403 0.20033
 C3122 C 0.31131 0.94513 0.19131
 C3123 C 0.31707 0.93370 0.18589
 C3124 C 0.31233 0.92107 0.18945
 C3125 C 0.28107 0.89295 0.21525
 C3126 C 0.27054 0.89185 0.22428
 C3127 C 0.26476 0.90329 0.22970
 C3128 C 0.26949 0.91592 0.22612
 C3129 C 0.30281 0.89488 0.19656
 C3130 C 0.30780 0.88499 0.19177
 C3131 C 0.27909 0.94211 0.21905
 C3132 C 0.27434 0.95212 0.22382
 H3133 H 0.29661 0.95322 0.20428
 H3134 H 0.31503 0.95492 0.18852
 H3135 H 0.32526 0.93461 0.17888
 H3136 H 0.31715 0.91247 0.18497
 H3137 H 0.28524 0.88376 0.21131
 H3138 H 0.26683 0.88206 0.22710
 H3139 H 0.25658 0.90237 0.23672
 H3140 H 0.26467 0.92452 0.23060
 C3141 C 0.78509 0.42968 0.21250
 C3142 C 0.77742 0.41781 0.21142
 C3143 C 0.78323 0.40610 0.20580
 C3144 C 0.79668 0.40634 0.20129
 C3145 C 0.80435 0.41822 0.20237
 C3146 C 0.79854 0.42992 0.20800
 C3147 C 0.80641 0.44167 0.20897
 C3148 C 0.81964 0.44186 0.20453
 C3149 C 0.82533 0.43041 0.19904
 C3150 C 0.81782 0.41870 0.19795
 C3151 C 0.77537 0.39435 0.20483
 C3152 C 0.76214 0.39417 0.20929
 C3153 C 0.75646 0.40561 0.21478
 C3154 C 0.76396 0.41733 0.21585
 C3155 C 0.80261 0.39441 0.19550
 C3156 C 0.80754 0.38453 0.19065
 C3157 C 0.77919 0.44163 0.21829
 C3158 C 0.77445 0.45162 0.22311
 H3159 H 0.80244 0.45083 0.21317
 H3160 H 0.82552 0.45093 0.20536
 H3161 H 0.83561 0.43060 0.19561
 H3162 H 0.82269 0.41006 0.19360
 H3163 H 0.77935 0.38520 0.20063
 H3164 H 0.75627 0.38509 0.20848
 H3165 H 0.74617 0.40542 0.21822
 H3166 H 0.75909 0.42598 0.22019
 C3167 C 0.78591 0.92892 0.71429
 C3168 C 0.78901 0.91773 0.72237
 C3169 C 0.79456 0.90599 0.71655
 C3170 C 0.79698 0.90552 0.70269
 C3171 C 0.79386 0.91671 0.69461
 C3172 C 0.78831 0.92844 0.70043
 C3173 C 0.78530 0.93951 0.69215
 C3174 C 0.78769 0.93900 0.67852
 C3175 C 0.79310 0.92752 0.67283
 C3176 C 0.79617 0.91647 0.68073
 C3177 C 0.79757 0.89492 0.72483
 C3178 C 0.79518 0.89545 0.73847
 C3179 C 0.78977 0.90693 0.74415
 C3180 C 0.78670 0.91797 0.73624
 C3181 C 0.80274 0.89357 0.69675
 C3182 C 0.80757 0.88367 0.69180
 C3183 C 0.78025 0.94092 0.72021
 C3184 C 0.77554 0.95096 0.72495
 H3185 H 0.78107 0.94867 0.69611
 H3186 H 0.78532 0.94755 0.67233
 H3187 H 0.79493 0.92717 0.66223
 H3188 H 0.80036 0.90777 0.67584
 H3189 H 0.80180 0.88577 0.72087
 H3190 H 0.79754 0.88689 0.74465
 H3191 H 0.78793 0.90728 0.75475
 H3192 H 0.78250 0.92668 0.74112
 C3193 C 0.71179 0.57134 0.71406
 C3194 C 0.72024 0.57988 0.70657
 C3195 C 0.71493 0.59168 0.70066
 C3196 C 0.70119 0.59486 0.70226
 C3197 C 0.69275 0.58636 0.70982
 C3198 C 0.69807 0.57456 0.71573
 C3199 C 0.68944 0.56621 0.72321
 C3200 C 0.67593 0.56940 0.72480
 C3201 C 0.67073 0.58094 0.71902
 C3202 C 0.67900 0.58936 0.71161
 C3203 C 0.72357 0.60004 0.69319
 C3204 C 0.73708 0.59684 0.69161
 C3205 C 0.74227 0.58531 0.69739
 C3206 C 0.73400 0.57689 0.70479
 C3207 C 0.69572 0.60685 0.69612
 C3208 C 0.69115 0.61679 0.69103
 C3209 C 0.71718 0.55914 0.71986
 C3210 C 0.72171 0.54897 0.72451
 H3211 H 0.69302 0.55713 0.72790
 H3212 H 0.66947 0.56290 0.73054
 H3213 H 0.66023 0.58338 0.72029
 H3214 H 0.67449 0.59822 0.70732
 H3215 H 0.71999 0.60912 0.68851
 H3216 H 0.74354 0.60335 0.68587
 H3217 H 0.75277 0.58287 0.69613
 H3218 H 0.73852 0.56804 0.70910
 C3219 C 0.71335 0.07130 0.21224
 C3220 C 0.72156 0.08020 0.20491
 C3221 C 0.71594 0.09201 0.19930
 C3222 C 0.70214 0.09484 0.20106
 C3223 C 0.69394 0.08596 0.20843
 C3224 C 0.69956 0.07416 0.21404
 C3225 C 0.69116 0.06542 0.22135
 C3226 C 0.67759 0.06827 0.22308
 C3227 C 0.67209 0.07981 0.21760
 C3228 C 0.68012 0.08859 0.21035
 C3229 C 0.72434 0.10074 0.19198
 C3230 C 0.73792 0.09789 0.19027
 C3231 C 0.74341 0.08636 0.19576
 C3232 C 0.73538 0.07758 0.20301
 C3233 C 0.69637 0.10684 0.19522
 C3234 C 0.69159 0.11676 0.19032
 C3235 C 0.71905 0.05918 0.21788
 C3236 C 0.72363 0.04906 0.22258
 H3237 H 0.69496 0.05632 0.22581
 H3238 H 0.67131 0.06148 0.22870
 H3239 H 0.66155 0.08197 0.21896
 H3240 H 0.67539 0.09744 0.20628
 H3241 H 0.72053 0.10983 0.18751
 H3242 H 0.74420 0.10468 0.18464
 H3243 H 0.75396 0.08420 0.19441
 H3244 H 0.74011 0.06873 0.20709
 C3245 C 0.21110 0.57095 0.21503
 C3246 C 0.19987 0.57727 0.22094
 C3247 C 0.19445 0.58909 0.21517
 C3248 C 0.20030 0.59452 0.20353
 C3249 C 0.21156 0.58823 0.19765
 C3250 C 0.21698 0.57641 0.20341
 C3251 C 0.22823 0.57029 0.19734
 C3252 C 0.23397 0.57570 0.18591
 C3253 C 0.22868 0.58726 0.18027
 C3254 C 0.21760 0.59350 0.18603
 C3255 C 0.18321 0.59522 0.22125
 C3256 C 0.17749 0.58982 0.23269
 C3257 C 0.18279 0.57827 0.23834
 C3258 C 0.19386 0.57202 0.23257
 C3259 C 0.19471 0.60654 0.19755
 C3260 C 0.19016 0.61649 0.19249
 C3261 C 0.21655 0.55876 0.22078
 C3262 C 0.22116 0.54860 0.22536
 H3263 H 0.23272 0.56129 0.20135
 H3264 H 0.24257 0.57089 0.18139
 H3265 H 0.23317 0.59142 0.17139
 H3266 H 0.21385 0.60247 0.18128
 H3267 H 0.17873 0.60422 0.21723
 H3268 H 0.16889 0.59463 0.23721
 H3269 H 0.17831 0.57412 0.24723
 H3270 H 0.19763 0.56306 0.23732
 C3271 C 0.21317 0.06982 0.71285
 C3272 C 0.19940 0.07272 0.71478
 C3273 C 0.19376 0.08455 0.70924
 C3274 C 0.20192 0.09341 0.70181
 C3275 C 0.21570 0.09055 0.69993
 C3276 C 0.22134 0.07872 0.70547
 C3277 C 0.23513 0.07607 0.70346
 C3278 C 0.24313 0.08485 0.69618
 C3279 C 0.23762 0.09641 0.69075
 C3280 C 0.22407 0.09928 0.69257
 C3281 C 0.17998 0.08722 0.71130
 C3282 C 0.17199 0.07846 0.71862
 C3283 C 0.17751 0.06689 0.72404
 C3284 C 0.19104 0.06400 0.72217
 C3285 C 0.19612 0.10542 0.69602
 C3286 C 0.19134 0.11536 0.69114
 C3287 C 0.21888 0.05767 0.71841
 C3288 C 0.22349 0.04753 0.72306
 H3289 H 0.23988 0.06720 0.70748
 H3290 H 0.25366 0.08267 0.69473
 H3291 H 0.24387 0.10320 0.68510
 H3292 H 0.22024 0.10840 0.68816
 H3293 H 0.17523 0.09609 0.70730
 H3294 H 0.16147 0.08066 0.72011
 H3295 H 0.17126 0.06012 0.72971
 H3296 H 0.19487 0.05488 0.72658
 C3297 C 0.28688 0.57065 0.28598
 C3298 C 0.29343 0.58014 0.27778
 C3299 C 0.29897 0.59193 0.28346
 C3300 C 0.29791 0.59418 0.29732
 C3301 C 0.29134 0.58470 0.30552
 C3302 C 0.28581 0.57291 0.29984
 C3303 C 0.27929 0.56358 0.30824
 C3304 C 0.27828 0.56584 0.32187
 C3305 C 0.28368 0.57737 0.32742
 C3306 C 0.29015 0.58673 0.31939
 C3307 C 0.30548 0.60125 0.27506
 C3308 C 0.30650 0.59899 0.26143
 C3309 C 0.30107 0.58747 0.25587
 C3310 C 0.29460 0.57811 0.26391
 C3311 C 0.30360 0.60620 0.30314
 C3312 C 0.30834 0.61616 0.30801
 C3313 C 0.28126 0.55857 0.28022
 C3314 C 0.27654 0.54848 0.27561
 H3315 H 0.27492 0.55446 0.30440
 H3316 H 0.27326 0.55860 0.32815
 H3317 H 0.28287 0.57907 0.33801
 H3318 H 0.29419 0.59554 0.32418
 H3319 H 0.30986 0.61037 0.27891
 H3320 H 0.31152 0.60623 0.25514
 H3321 H 0.30189 0.58576 0.24528
 H3322 H 0.29054 0.56930 0.25913
 C3323 C 0.28465 0.06989 0.78815
 C3324 C 0.29843 0.07021 0.79148
 C3325 C 0.30413 0.08205 0.79691
 C3326 C 0.29601 0.09350 0.79896
 C3327 C 0.28223 0.09318 0.79565
 C3328 C 0.27653 0.08134 0.79022
 C3329 C 0.26273 0.08126 0.78698
 C3330 C 0.25478 0.09255 0.78904
 C3331 C 0.26034 0.10413 0.79435
 C3332 C 0.27391 0.10450 0.79763
 C3333 C 0.31793 0.08212 0.80016
 C3334 C 0.32588 0.07082 0.79812
 C3335 C 0.32031 0.05924 0.79282
 C3336 C 0.30675 0.05888 0.78951
 C3337 C 0.30185 0.10560 0.80449
 C3338 C 0.30675 0.11561 0.80909
 C3339 C 0.27887 0.05780 0.78257
 C3340 C 0.27424 0.04769 0.77790
 H3341 H 0.25794 0.07249 0.78282
 H3342 H 0.24424 0.09231 0.78650
 H3343 H 0.25412 0.11287 0.79593
 H3344 H 0.27778 0.11373 0.80173
 H3345 H 0.32273 0.09088 0.80431
 H3346 H 0.33642 0.07104 0.80067
 H3347 H 0.32653 0.05049 0.79125
 H3348 H 0.30289 0.04965 0.78541
 C3349 C 0.78635 0.57099 0.78596
 C3350 C 0.79754 0.57730 0.77997
 C3351 C 0.80306 0.58905 0.78576
 C3352 C 0.79736 0.59442 0.79750
 C3353 C 0.78614 0.58813 0.80346
 C3354 C 0.78062 0.57638 0.79767
 C3355 C 0.76942 0.57027 0.80383
 C3356 C 0.76383 0.57560 0.81536
 C3357 C 0.76922 0.58709 0.82102
 C3358 C 0.78025 0.59333 0.81518
 C3359 C 0.81426 0.59517 0.77960
 C3360 C 0.81984 0.58983 0.76806
 C3361 C 0.81444 0.57835 0.76240
 C3362 C 0.80341 0.57211 0.76824
 C3363 C 0.80307 0.60635 0.80348
 C3364 C 0.80787 0.61625 0.80842
 C3365 C 0.78082 0.55888 0.78017
 C3366 C 0.77617 0.54877 0.77552
 H3367 H 0.76487 0.56131 0.79980
 H3368 H 0.75527 0.57079 0.81994
 H3369 H 0.76484 0.59120 0.82998
 H3370 H 0.78408 0.60225 0.81995
 H3371 H 0.81881 0.60412 0.78363
 H3372 H 0.82840 0.59464 0.76349
 H3373 H 0.81881 0.57424 0.75344
 H3374 H 0.79956 0.56320 0.76347
 C3375 C 0.78458 0.07094 0.28862
 C3376 C 0.79838 0.07124 0.29188
 C3377 C 0.80409 0.08302 0.29741
 C3378 C 0.79597 0.09444 0.29965
 C3379 C 0.78216 0.09413 0.29644
 C3380 C 0.77645 0.08234 0.29090
 C3381 C 0.76262 0.08227 0.28776
 C3382 C 0.75466 0.09352 0.29001
 C3383 C 0.76025 0.10504 0.29543
 C3384 C 0.77383 0.10540 0.29862
 C3385 C 0.81792 0.08308 0.30057
 C3386 C 0.82587 0.07182 0.29834
 C3387 C 0.82029 0.06030 0.29293
 C3388 C 0.80671 0.05996 0.28971
 C3389 C 0.80185 0.10650 0.30521
 C3390 C 0.80681 0.11648 0.30981
 C3391 C 0.77880 0.05893 0.28286
 C3392 C 0.77419 0.04889 0.27804
 H3393 H 0.75782 0.07355 0.28353
 H3394 H 0.74411 0.09330 0.28755
 H3395 H 0.75402 0.11375 0.29717
 H3396 H 0.77771 0.11459 0.30282
 H3397 H 0.82273 0.09180 0.30480
 H3398 H 0.83642 0.07204 0.30082
 H3399 H 0.82651 0.05158 0.29121
 H3400 H 0.80283 0.05076 0.28553
 C3401 C 0.71340 0.42870 0.28833
 C3402 C 0.70066 0.42417 0.28406
 C3403 C 0.69508 0.41231 0.28958
 C3404 C 0.70227 0.40504 0.29934
 C3405 C 0.71503 0.40954 0.30357
 C3406 C 0.72061 0.42140 0.29805
 C3407 C 0.73336 0.42572 0.30245
 C3408 C 0.74041 0.41852 0.31203
 C3409 C 0.73496 0.40692 0.31744
 C3410 C 0.72242 0.40244 0.31329
 C3411 C 0.68233 0.40799 0.28516
 C3412 C 0.67529 0.41519 0.27557
 C3413 C 0.68074 0.42679 0.27018
 C3414 C 0.69327 0.43128 0.27433
 C3415 C 0.69650 0.39300 0.30508
 C3416 C 0.69169 0.38302 0.30986
 C3417 C 0.71900 0.44091 0.28279
 C3418 C 0.72350 0.45110 0.27816
 H3419 H 0.73802 0.43467 0.29853
 H3420 H 0.75016 0.42196 0.31529
 H3421 H 0.74047 0.40137 0.32489
 H3422 H 0.71860 0.39336 0.31779
 H3423 H 0.67767 0.39902 0.28905
 H3424 H 0.66555 0.41174 0.27231
 H3425 H 0.67522 0.43235 0.26273
 H3426 H 0.69709 0.44036 0.26984
 C3427 C 0.71071 0.92847 0.78648
 C3428 C 0.69693 0.92547 0.78496
 C3429 C 0.69152 0.91369 0.79081
 C3430 C 0.69993 0.90497 0.79815
 C3431 C 0.71374 0.90791 0.79958
 C3432 C 0.71914 0.91970 0.79372
 C3433 C 0.73297 0.92244 0.79530
 C3434 C 0.74122 0.91378 0.80246
 C3435 C 0.73594 0.90227 0.80818
 C3436 C 0.72236 0.89931 0.80679
 C3437 C 0.67771 0.91092 0.78917
 C3438 C 0.66947 0.91954 0.78196
 C3439 C 0.67476 0.93106 0.77625
 C3440 C 0.68832 0.93404 0.77770
 C3441 C 0.69438 0.89300 0.80425
 C3442 C 0.68978 0.88307 0.80932
 C3443 C 0.71618 0.94066 0.78078
 C3444 C 0.72078 0.95084 0.77621
 H3445 H 0.73755 0.93127 0.79103
 H3446 H 0.75177 0.91603 0.80356
 H3447 H 0.74239 0.89557 0.81372
 H3448 H 0.71872 0.89023 0.81142
 H3449 H 0.67313 0.90207 0.79343
 H3450 H 0.65893 0.91726 0.78081
 H3451 H 0.66832 0.93772 0.77066
 H3452 H 0.69197 0.94311 0.77305
 C3453 C 0.21080 0.42838 0.78587
 C3454 C 0.19721 0.42492 0.78373
 C3455 C 0.19192 0.41301 0.78945
 C3456 C 0.20024 0.40465 0.79727
 C3457 C 0.21385 0.40806 0.79932
 C3458 C 0.21915 0.41996 0.79360
 C3459 C 0.23278 0.42317 0.79582
 C3460 C 0.24095 0.41487 0.80346
 C3461 C 0.23577 0.40324 0.80904
 C3462 C 0.22239 0.39982 0.80703
 C3463 C 0.17830 0.40978 0.78719
 C3464 C 0.17014 0.41806 0.77952
 C3465 C 0.17532 0.42970 0.77394
 C3466 C 0.18870 0.43314 0.77598
 C3467 C 0.19478 0.39259 0.80327
 C3468 C 0.19026 0.38259 0.80829
 C3469 C 0.21616 0.44069 0.78030
 C3470 C 0.22069 0.45095 0.77586
 H3471 H 0.23728 0.43211 0.79168
 H3472 H 0.25135 0.41748 0.80505
 H3473 H 0.24216 0.39682 0.81497
 H3474 H 0.21883 0.39066 0.81157
 H3475 H 0.17381 0.40082 0.79132
 H3476 H 0.15974 0.41544 0.77790
 H3477 H 0.16894 0.43610 0.76799
 H3478 H 0.19227 0.44228 0.77143
 C3479 C 0.21306 0.92912 0.28846
 C3480 C 0.20008 0.92495 0.28455
 C3481 C 0.19444 0.91309 0.29001
 C3482 C 0.20181 0.90547 0.29937
 C3483 C 0.21482 0.90959 0.30321
 C3484 C 0.22046 0.92144 0.29774
 C3485 C 0.23347 0.92537 0.30174
 C3486 C 0.24072 0.91779 0.31089
 C3487 C 0.23521 0.90620 0.31624
 C3488 C 0.22241 0.90210 0.31249
 C3489 C 0.18145 0.90914 0.28596
 C3490 C 0.17423 0.91669 0.27677
 C3491 C 0.17974 0.92829 0.27143
 C3492 C 0.19251 0.93242 0.27524
 C3493 C 0.19596 0.89347 0.30512
 C3494 C 0.19109 0.88355 0.30994
 C3495 C 0.21872 0.94135 0.28302
 C3496 C 0.22327 0.95156 0.27849
 H3497 H 0.23819 0.93431 0.29785
 H3498 H 0.25066 0.92094 0.31384
 H3499 H 0.24087 0.90035 0.32335
 H3500 H 0.21855 0.89301 0.31693
 H3501 H 0.17674 0.90020 0.28983
 H3502 H 0.16431 0.91352 0.27378
 H3503 H 0.17409 0.93412 0.26429
 H3504 H 0.19636 0.94152 0.27080
 C3505 C 0.42914 0.28748 0.71453
 C3506 C 0.42999 0.29842 0.70561
 C3507 C 0.41814 0.30382 0.69988
 C3508 C 0.40550 0.29824 0.70311
 C3509 C 0.40464 0.28734 0.71208
 C3510 C 0.41650 0.28194 0.71780
 C3511 C 0.41540 0.27104 0.72673
 C3512 C 0.40293 0.26561 0.72991
 C3513 C 0.39134 0.27088 0.72431
 C3514 C 0.39213 0.28162 0.71549
 C3515 C 0.41925 0.31475 0.69098
 C3516 C 0.43171 0.32019 0.68782
 C3517 C 0.44330 0.31491 0.69342
 C3518 C 0.44251 0.30415 0.70221
 C3519 C 0.39340 0.30373 0.69721
 C3520 C 0.38340 0.30838 0.69231
 C3521 C 0.44128 0.28182 0.72017
 C3522 C 0.45143 0.27711 0.72469
 H3523 H 0.42413 0.26660 0.73135
 H3524 H 0.40227 0.25727 0.73675
 H3525 H 0.38168 0.26663 0.72681
 H3526 H 0.38283 0.28538 0.71140
 H3527 H 0.41053 0.31920 0.68637
 H3528 H 0.43238 0.32854 0.68100
 H3529 H 0.45296 0.31917 0.69094
 H3530 H 0.45181 0.30040 0.70631
 C3531 C 0.42962 0.78855 0.21407
 C3532 C 0.42861 0.79009 0.20011
 C3533 C 0.41681 0.79566 0.19445
 C3534 C 0.40607 0.79967 0.20278
 C3535 C 0.40708 0.79812 0.21673
 C3536 C 0.41889 0.79254 0.22239
 C3537 C 0.41966 0.79108 0.23636
 C3538 C 0.40907 0.79502 0.24451
 C3539 C 0.39753 0.80049 0.23898
 C3540 C 0.39649 0.80205 0.22526
 C3541 C 0.41604 0.79710 0.18048
 C3542 C 0.42662 0.79314 0.17233
 C3543 C 0.43816 0.78769 0.17786
 C3544 C 0.43920 0.78615 0.19158
 C3545 C 0.39402 0.80537 0.19698
 C3546 C 0.38406 0.81010 0.19209
 C3547 C 0.44171 0.78288 0.21982
 C3548 C 0.45181 0.77813 0.22441
 H3549 H 0.42843 0.78688 0.24112
 H3550 H 0.40982 0.79383 0.25517
 H3551 H 0.38934 0.80354 0.24536
 H3552 H 0.38732 0.80635 0.22143
 H3553 H 0.40727 0.80129 0.17571
 H3554 H 0.42586 0.79432 0.16166
 H3555 H 0.44635 0.78462 0.17149
 H3556 H 0.44838 0.78185 0.19541
 C3557 C 0.92908 0.28819 0.21339
 C3558 C 0.91982 0.29526 0.22144
 C3559 C 0.90803 0.30077 0.21569
 C3560 C 0.90556 0.29916 0.20192
 C3561 C 0.91480 0.29206 0.19389
 C3562 C 0.92660 0.28656 0.19964
 C3563 C 0.93569 0.27951 0.19139
 C3564 C 0.93321 0.27794 0.17787
 C3565 C 0.92168 0.28331 0.17224
 C3566 C 0.91255 0.29030 0.18011
 C3567 C 0.89893 0.30780 0.22393
 C3568 C 0.90140 0.30935 0.23747
 C3569 C 0.91293 0.30395 0.24309
 C3570 C 0.92207 0.29698 0.23521
 C3571 C 0.89355 0.30485 0.19602
 C3572 C 0.88362 0.30957 0.19106
 C3573 C 0.94118 0.28264 0.21921
 C3574 C 0.95130 0.27798 0.22386
 H3575 H 0.94481 0.27514 0.19530
 H3576 H 0.94027 0.27251 0.17171
 H3577 H 0.91979 0.28206 0.16173
 H3578 H 0.90372 0.29429 0.17528
 H3579 H 0.88982 0.31218 0.22001
 H3580 H 0.89434 0.31475 0.24363
 H3581 H 0.91480 0.30518 0.25361
 H3582 H 0.93089 0.29297 0.24004
 C3583 C 0.92972 0.78811 0.71428
 C3584 C 0.92675 0.78581 0.70072
 C3585 C 0.91492 0.79129 0.69505
 C3586 C 0.90611 0.79905 0.70298
 C3587 C 0.90908 0.80135 0.71654
 C3588 C 0.92092 0.79585 0.72221
 C3589 C 0.92367 0.79828 0.73579
 C3590 C 0.91498 0.80592 0.74355
 C3591 C 0.90342 0.81131 0.73801
 C3592 C 0.90045 0.80908 0.72466
 C3593 C 0.91217 0.78886 0.68146
 C3594 C 0.92086 0.78122 0.67370
 C3595 C 0.93243 0.77585 0.67925
 C3596 C 0.93540 0.77808 0.69259
 C3597 C 0.89402 0.80464 0.69717
 C3598 C 0.88400 0.80925 0.69227
 C3599 C 0.94185 0.78253 0.72002
 C3600 C 0.95198 0.77782 0.72460
 H3601 H 0.93255 0.79429 0.74055
 H3602 H 0.91724 0.80767 0.75392
 H3603 H 0.89671 0.81724 0.74408
 H3604 H 0.89133 0.81348 0.72080
 H3605 H 0.90329 0.79283 0.67670
 H3606 H 0.91861 0.77946 0.66333
 H3607 H 0.93915 0.76992 0.67318
 H3608 H 0.94452 0.77369 0.69644
 C3609 C 0.57091 0.28554 0.28712
 C3610 C 0.57126 0.29929 0.29054
 C3611 C 0.58309 0.30490 0.29609
 C3612 C 0.59450 0.29672 0.29819
 C3613 C 0.59416 0.28297 0.29473
 C3614 C 0.58233 0.27737 0.28917
 C3615 C 0.58223 0.26361 0.28578
 C3616 C 0.59349 0.25562 0.28782
 C3617 C 0.60505 0.26109 0.29327
 C3618 C 0.60544 0.27460 0.29670
 C3619 C 0.58320 0.31867 0.29943
 C3620 C 0.57194 0.32667 0.29734
 C3621 C 0.56038 0.32119 0.29191
 C3622 C 0.55998 0.30767 0.28853
 C3623 C 0.60654 0.30243 0.30396
 C3624 C 0.61650 0.30720 0.30882
 C3625 C 0.55879 0.27983 0.28149
 C3626 C 0.54867 0.27526 0.27681
 H3627 H 0.57346 0.25890 0.28152
 H3628 H 0.59325 0.24511 0.28516
 H3629 H 0.61378 0.25483 0.29484
 H3630 H 0.61466 0.27840 0.30090
 H3631 H 0.59196 0.32340 0.30367
 H3632 H 0.57220 0.33719 0.29995
 H3633 H 0.55167 0.32746 0.29030
 H3634 H 0.55076 0.30388 0.28433
 C3635 C 0.57031 0.78428 0.78840
 C3636 C 0.57115 0.79824 0.79076
 C3637 C 0.58302 0.80378 0.79630
 C3638 C 0.59397 0.79534 0.79945
 C3639 C 0.59313 0.78138 0.79710
 C3640 C 0.58126 0.77583 0.79156
 C3641 C 0.58066 0.76186 0.78928
 C3642 C 0.59147 0.75359 0.79240
 C3643 C 0.60307 0.75900 0.79782
 C3644 C 0.60395 0.77273 0.80016
 C3645 C 0.58362 0.81776 0.79855
 C3646 C 0.57281 0.82603 0.79543
 C3647 C 0.56121 0.82061 0.79002
 C3648 C 0.56033 0.80689 0.78769
 C3649 C 0.60612 0.80102 0.80505
 C3650 C 0.61618 0.80579 0.80967
 C3651 C 0.55820 0.77865 0.78269
 C3652 C 0.54809 0.77415 0.77791
 H3653 H 0.57185 0.75718 0.78509
 H3654 H 0.59083 0.74292 0.79060
 H3655 H 0.61144 0.75254 0.80022
 H3656 H 0.61318 0.77647 0.80439
 H3657 H 0.59243 0.82245 0.80274
 H3658 H 0.57344 0.83670 0.79722
 H3659 H 0.55284 0.82708 0.78761
 H3660 H 0.55110 0.80315 0.78346
 C3661 C 0.07057 0.28399 0.78794
 C3662 C 0.07858 0.29282 0.78031
 C3663 C 0.09035 0.29850 0.78592
 C3664 C 0.09403 0.29531 0.79913
 C3665 C 0.08606 0.28643 0.80674
 C3666 C 0.07429 0.28075 0.80113
 C3667 C 0.06648 0.27191 0.80894
 C3668 C 0.07017 0.26877 0.82192
 C3669 C 0.08167 0.27433 0.82741
 C3670 C 0.08956 0.28306 0.81996
 C3671 C 0.09818 0.30732 0.77810
 C3672 C 0.09450 0.31044 0.76511
 C3673 C 0.08301 0.30488 0.75962
 C3674 C 0.07510 0.29617 0.76708
 C3675 C 0.10599 0.30121 0.80490
 C3676 C 0.11591 0.30612 0.80967
 C3677 C 0.05841 0.27841 0.78228
 C3678 C 0.04827 0.27394 0.77752
 H3679 H 0.05745 0.26733 0.80510
 H3680 H 0.06408 0.26199 0.82775
 H3681 H 0.08450 0.27186 0.83750
 H3682 H 0.09842 0.28712 0.82466
 H3683 H 0.10722 0.31189 0.78193
 H3684 H 0.10061 0.31720 0.75927
 H3685 H 0.08019 0.30733 0.74952
 H3686 H 0.06625 0.29210 0.76237
 C3687 C 0.07073 0.78532 0.28752
 C3688 C 0.07859 0.79436 0.27998
 C3689 C 0.09031 0.80011 0.28561
 C3690 C 0.09411 0.79678 0.29876
 C3691 C 0.08630 0.78766 0.30627
 C3692 C 0.07458 0.78191 0.30063
 C3693 C 0.06693 0.77283 0.30834
 C3694 C 0.07075 0.76953 0.32124
 C3695 C 0.08221 0.77515 0.32676
 C3696 C 0.08993 0.78412 0.31940
 C3697 C 0.09799 0.80914 0.27788
 C3698 C 0.09421 0.81240 0.26495
 C3699 C 0.08275 0.80677 0.25944
 C3700 C 0.07499 0.79786 0.26682
 C3701 C 0.10599 0.80278 0.30458
 C3702 C 0.11582 0.80774 0.30947
 C3703 C 0.05859 0.77970 0.28187
 C3704 C 0.04845 0.77520 0.27716
 H3705 H 0.05795 0.76819 0.30448
 H3706 H 0.06479 0.76256 0.32699
 H3707 H 0.08513 0.77255 0.33679
 H3708 H 0.09875 0.78822 0.32413
 H3709 H 0.10698 0.81378 0.28174
 H3710 H 0.10020 0.81932 0.25918
 H3711 H 0.07986 0.80933 0.24939
 H3712 H 0.06617 0.79374 0.26210
 C3713 C 0.57039 0.71433 0.71158
 C3714 C 0.57033 0.70105 0.70665
 C3715 C 0.58220 0.69548 0.70111
 C3716 C 0.59406 0.70323 0.70052
 C3717 C 0.59413 0.71652 0.70545
 C3718 C 0.58225 0.72208 0.71100
 C3719 C 0.58256 0.73538 0.71586
 C3720 C 0.59426 0.74296 0.71526
 C3721 C 0.60587 0.73753 0.70984
 C3722 C 0.60586 0.72446 0.70498
 C3723 C 0.58189 0.68218 0.69624
 C3724 C 0.57018 0.67460 0.69683
 C3725 C 0.55857 0.68004 0.70226
 C3726 C 0.55859 0.69310 0.70713
 C3727 C 0.60619 0.69754 0.69485
 C3728 C 0.61622 0.69279 0.69012
 C3729 C 0.55826 0.71996 0.71730
 C3730 C 0.54813 0.72447 0.72206
 H3731 H 0.57377 0.74004 0.72017
 H3732 H 0.59432 0.75312 0.71903
 H3733 H 0.61493 0.74346 0.70939
 H3734 H 0.61514 0.72067 0.70085
 H3735 H 0.59066 0.67751 0.69193
 H3736 H 0.57011 0.66445 0.69306
 H3737 H 0.54950 0.67411 0.70270
 H3738 H 0.54931 0.69688 0.71126
 C3739 C 0.57091 0.21479 0.21111
 C3740 C 0.57013 0.20707 0.19934
 C3741 C 0.58196 0.20143 0.19377
 C3742 C 0.59450 0.20354 0.20000
 C3743 C 0.59528 0.21130 0.21175
 C3744 C 0.58345 0.21694 0.21732
 C3745 C 0.58449 0.22465 0.22908
 C3746 C 0.59685 0.22672 0.23516
 C3747 C 0.60842 0.22120 0.22972
 C3748 C 0.60770 0.21358 0.21815
 C3749 C 0.58092 0.19374 0.18200
 C3750 C 0.56855 0.19167 0.17592
 C3751 C 0.55699 0.19718 0.18137
 C3752 C 0.55771 0.20479 0.19294
 C3753 C 0.60656 0.19771 0.19433
 C3754 C 0.61652 0.19283 0.18956
 C3755 C 0.55879 0.22039 0.21688
 C3756 C 0.54867 0.22491 0.22166
 H3757 H 0.57577 0.22914 0.23368
 H3758 H 0.59746 0.23263 0.24415
 H3759 H 0.61800 0.22284 0.23448
 H3760 H 0.61697 0.20950 0.21429
 H3761 H 0.58962 0.18925 0.17738
 H3762 H 0.56794 0.18576 0.16692
 H3763 H 0.54740 0.19554 0.17661
 H3764 H 0.54843 0.20887 0.19679
 C3765 C 0.07041 0.71536 0.21059
 C3766 C 0.08071 0.72385 0.20583
 C3767 C 0.09255 0.71821 0.20028
 C3768 C 0.09402 0.70412 0.19953
 C3769 C 0.08369 0.69564 0.20427
 C3770 C 0.07186 0.70127 0.20981
 C3771 C 0.06168 0.69258 0.21448
 C3772 C 0.06315 0.67873 0.21370
 C3773 C 0.07473 0.67322 0.20828
 C3774 C 0.08491 0.68152 0.20360
 C3775 C 0.10272 0.72690 0.19559
 C3776 C 0.10124 0.74075 0.19637
 C3777 C 0.08966 0.74626 0.20180
 C3778 C 0.07949 0.73796 0.20649
 C3779 C 0.10614 0.69834 0.19394
 C3780 C 0.11617 0.69344 0.18935
 C3781 C 0.05834 0.72108 0.21634
 C3782 C 0.04825 0.72563 0.22116
 H3783 H 0.05249 0.69639 0.21878
 H3784 H 0.05527 0.67223 0.21732
 H3785 H 0.07583 0.66244 0.20770
 H3786 H 0.09372 0.67676 0.19947
 H3787 H 0.11190 0.72308 0.19128
 H3788 H 0.10911 0.74725 0.19273
 H3789 H 0.08856 0.75704 0.20237
 H3790 H 0.07067 0.74271 0.21063
 C3791 C 0.07074 0.21354 0.71173
 C3792 C 0.07188 0.19947 0.71032
 C3793 C 0.08372 0.19381 0.70481
 C3794 C 0.09436 0.20226 0.70074
 C3795 C 0.09324 0.21632 0.70218
 C3796 C 0.08139 0.22198 0.70770
 C3797 C 0.08050 0.23606 0.70904
 C3798 C 0.09101 0.24433 0.70505
 C3799 C 0.10258 0.23880 0.69965
 C3800 C 0.10374 0.22497 0.69820
 C3801 C 0.08462 0.17972 0.70350
 C3802 C 0.07412 0.17146 0.70751
 C3803 C 0.06254 0.17699 0.71291
 C3804 C 0.06138 0.19082 0.71432
 C3805 C 0.10643 0.19647 0.69503
 C3806 C 0.11640 0.19160 0.69027
 C3807 C 0.05861 0.21929 0.71733
 C3808 C 0.04847 0.22389 0.72200
 H3809 H 0.07169 0.24083 0.71319
 H3810 H 0.09016 0.25508 0.70615
 H3811 H 0.11072 0.24527 0.69656
 H3812 H 0.11294 0.22114 0.69395
 H3813 H 0.09343 0.17495 0.69936
 H3814 H 0.07498 0.16071 0.70644
 H3815 H 0.05442 0.17053 0.71602
 H3816 H 0.05217 0.19464 0.71857
 C3817 C 0.42976 0.71243 0.28552
 C3818 C 0.42864 0.71112 0.29949
 C3819 C 0.41682 0.70561 0.30516
 C3820 C 0.40617 0.70145 0.29683
 C3821 C 0.40730 0.70275 0.28286
 C3822 C 0.41913 0.70827 0.27719
 C3823 C 0.42002 0.70948 0.26320
 C3824 C 0.40953 0.70536 0.25505
 C3825 C 0.39796 0.69996 0.26060
 C3826 C 0.39680 0.69865 0.27434
 C3827 C 0.41593 0.70440 0.31915
 C3828 C 0.42643 0.70850 0.32730
 C3829 C 0.43800 0.71389 0.32175
 C3830 C 0.43915 0.71521 0.30802
 C3831 C 0.39409 0.69583 0.30265
 C3832 C 0.38409 0.69118 0.30753
 C3833 C 0.44185 0.71809 0.27975
 C3834 C 0.45194 0.72282 0.27513
 H3835 H 0.42882 0.71361 0.25843
 H3836 H 0.41038 0.70635 0.24437
 H3837 H 0.38984 0.69677 0.25422
 H3838 H 0.38761 0.69440 0.27818
 H3839 H 0.40714 0.70027 0.32394
 H3840 H 0.42559 0.70750 0.33798
 H3841 H 0.44613 0.71706 0.32813
 H3842 H 0.44835 0.71945 0.30418
 C3843 C 0.42924 0.21077 0.78451
 C3844 C 0.42897 0.20716 0.79812
 C3845 C 0.41710 0.20170 0.80376
 C3846 C 0.40557 0.19987 0.79577
 C3847 C 0.40586 0.20345 0.78215
 C3848 C 0.41773 0.20892 0.77651
 C3849 C 0.41777 0.21245 0.76289
 C3850 C 0.40640 0.21063 0.75506
 C3851 C 0.39480 0.20527 0.76057
 C3852 C 0.39448 0.20171 0.77396
 C3853 C 0.41707 0.19819 0.81740
 C3854 C 0.42843 0.20002 0.82523
 C3855 C 0.44003 0.20537 0.81971
 C3856 C 0.44035 0.20891 0.80632
 C3857 C 0.39343 0.19439 0.80158
 C3858 C 0.38339 0.18987 0.80653
 C3859 C 0.44135 0.21645 0.77881
 C3860 C 0.45147 0.22122 0.77427
 H3861 H 0.42656 0.21665 0.75815
 H3862 H 0.40660 0.21339 0.74465
 H3863 H 0.38600 0.20387 0.75444
 H3864 H 0.38522 0.19757 0.77779
 H3865 H 0.40829 0.19399 0.82215
 H3866 H 0.42823 0.19728 0.83564
 H3867 H 0.44883 0.20677 0.82584
 H3868 H 0.44961 0.21303 0.80249
 C3869 C 0.92964 0.71184 0.78519
 C3870 C 0.92842 0.71092 0.79918
 C3871 C 0.91658 0.70548 0.80492
 C3872 C 0.90605 0.70099 0.79663
 C3873 C 0.90728 0.70190 0.78264
 C3874 C 0.91911 0.70734 0.77690
 C3875 C 0.92011 0.70815 0.76290
 C3876 C 0.90972 0.70370 0.75478
 C3877 C 0.89815 0.69837 0.76039
 C3878 C 0.89689 0.69746 0.77415
 C3879 C 0.91559 0.70467 0.81893
 C3880 C 0.92600 0.70909 0.82704
 C3881 C 0.93756 0.71441 0.82144
 C3882 C 0.93882 0.71534 0.80768
 C3883 C 0.89395 0.69547 0.80251
 C3884 C 0.88395 0.69088 0.80746
 C3885 C 0.94173 0.71744 0.77937
 C3886 C 0.95183 0.72214 0.77474
 H3887 H 0.92892 0.71221 0.75807
 H3888 H 0.91065 0.70439 0.74409
 H3889 H 0.89011 0.69493 0.75404
 H3890 H 0.88770 0.69324 0.77805
 H3891 H 0.90679 0.70061 0.82377
 H3892 H 0.92507 0.70839 0.83774
 H3893 H 0.94562 0.71783 0.82778
 H3894 H 0.94801 0.71955 0.80379
 C3895 C 0.92949 0.21133 0.28443
 C3896 C 0.91896 0.20681 0.27615
 C3897 C 0.90718 0.20125 0.28189
 C3898 C 0.90600 0.20026 0.29588
 C3899 C 0.91655 0.20473 0.30416
 C3900 C 0.92833 0.21028 0.29842
 C3901 C 0.93874 0.21470 0.30690
 C3902 C 0.93755 0.21366 0.32066
 C3903 C 0.92603 0.20824 0.32627
 C3904 C 0.91563 0.20381 0.31817
 C3905 C 0.89679 0.19681 0.27341
 C3906 C 0.89799 0.19784 0.25965
 C3907 C 0.90950 0.20328 0.25404
 C3908 C 0.91990 0.20773 0.26215
 C3909 C 0.89391 0.19473 0.30178
 C3910 C 0.88392 0.19021 0.30681
 C3911 C 0.94149 0.21712 0.27861
 C3912 C 0.95152 0.22200 0.27401
 H3913 H 0.94789 0.21899 0.30301
 H3914 H 0.94560 0.21709 0.32700
 H3915 H 0.92516 0.20745 0.33697
 H3916 H 0.90688 0.19966 0.32301
 H3917 H 0.88764 0.19251 0.27731
 H3918 H 0.88994 0.19439 0.25331
 H3919 H 0.91038 0.20405 0.24335
 H3920 H 0.92866 0.21188 0.25732
 C3921 C 0.28584 0.28813 0.57118
 C3922 C 0.29317 0.27980 0.57996
 C3923 C 0.29879 0.28527 0.59174
 C3924 C 0.29706 0.29903 0.59468
 C3925 C 0.28965 0.30733 0.58595
 C3926 C 0.28402 0.30187 0.57416
 C3927 C 0.27668 0.31037 0.56558
 C3928 C 0.27492 0.32389 0.56856
 C3929 C 0.28042 0.32924 0.58007
 C3930 C 0.28771 0.32110 0.58870
 C3931 C 0.30609 0.27675 0.60035
 C3932 C 0.30778 0.26321 0.59741
 C3933 C 0.30228 0.25787 0.58590
 C3934 C 0.29505 0.26602 0.57723
 C3935 C 0.30295 0.30465 0.60663
 C3936 C 0.30786 0.30934 0.61654
 C3937 C 0.28036 0.28259 0.55900
 C3938 C 0.27595 0.27795 0.54884
 H3939 H 0.27220 0.30667 0.55651
 H3940 H 0.26927 0.33025 0.56188
 H3941 H 0.27903 0.33975 0.58233
 H3942 H 0.29179 0.32573 0.59754
 H3943 H 0.31056 0.28044 0.60943
 H3944 H 0.31339 0.25684 0.60411
 H3945 H 0.30362 0.24735 0.58366
 H3946 H 0.29097 0.26139 0.56840
 C3947 C 0.28655 0.78819 0.07108
 C3948 C 0.28250 0.80102 0.07553
 C3949 C 0.28815 0.80648 0.08730
 C3950 C 0.29780 0.79908 0.09455
 C3951 C 0.30178 0.78621 0.09015
 C3952 C 0.29614 0.78075 0.07837
 C3953 C 0.30030 0.76787 0.07415
 C3954 C 0.30976 0.76061 0.08135
 C3955 C 0.31528 0.76596 0.09286
 C3956 C 0.31137 0.77861 0.09726
 C3957 C 0.28396 0.81935 0.09154
 C3958 C 0.27448 0.82660 0.08435
 C3959 C 0.26896 0.82125 0.07284
 C3960 C 0.27289 0.80861 0.06844
 C3961 C 0.30368 0.80474 0.10649
 C3962 C 0.30855 0.80950 0.11637
 C3963 C 0.28100 0.78270 0.05891
 C3964 C 0.27653 0.77812 0.04876
 H3965 H 0.29630 0.76328 0.06527
 H3966 H 0.31283 0.75078 0.07798
 H3967 H 0.32262 0.76027 0.09842
 H3968 H 0.31594 0.78234 0.10627
 H3969 H 0.28796 0.82393 0.10043
 H3970 H 0.27140 0.83642 0.08773
 H3971 H 0.26160 0.82692 0.06730
 H3972 H 0.26831 0.80487 0.05943
 C3973 C 0.78625 0.28818 0.06969
 C3974 C 0.78618 0.30220 0.07180
 C3975 C 0.79183 0.30760 0.08360
 C3976 C 0.79752 0.29894 0.09322
 C3977 C 0.79751 0.28491 0.09114
 C3978 C 0.79186 0.27952 0.07935
 C3979 C 0.79199 0.26546 0.07749
 C3980 C 0.79755 0.25699 0.08701
 C3981 C 0.80308 0.26226 0.09854
 C3982 C 0.80309 0.27606 0.10064
 C3983 C 0.79166 0.32165 0.08547
 C3984 C 0.78607 0.33012 0.07596
 C3985 C 0.78056 0.32484 0.06443
 C3986 C 0.78057 0.31105 0.06232
 C3987 C 0.80340 0.30447 0.10521
 C3988 C 0.80826 0.30914 0.11514
 C3989 C 0.78073 0.28269 0.05751
 C3990 C 0.77629 0.27810 0.04735
 H3991 H 0.78781 0.26088 0.06868
 H3992 H 0.79757 0.24626 0.08542
 H3993 H 0.80739 0.25563 0.10590
 H3994 H 0.80751 0.27969 0.10977
 H3995 H 0.79582 0.32623 0.09429
 H3996 H 0.78603 0.34084 0.07756
 H3997 H 0.77623 0.33147 0.05707
 H3998 H 0.77615 0.30742 0.05319
 C3999 C 0.78895 0.78683 0.56987
 C4000 C 0.79335 0.77836 0.58027
 C4001 C 0.79874 0.78401 0.59208
 C4002 C 0.79967 0.79810 0.59343
 C4003 C 0.79526 0.80657 0.58301
 C4004 C 0.78988 0.80092 0.57120
 C4005 C 0.78553 0.80959 0.56094
 C4006 C 0.78647 0.82345 0.56230
 C4007 C 0.79173 0.82897 0.57385
 C4008 C 0.79609 0.82068 0.58411
 C4009 C 0.80309 0.77534 0.60234
 C4010 C 0.80213 0.76148 0.60098
 C4011 C 0.79686 0.75596 0.58944
 C4012 C 0.79251 0.76425 0.57917
 C4013 C 0.80515 0.80389 0.60550
 C4014 C 0.80971 0.80872 0.61550
 C4015 C 0.78343 0.78108 0.55780
 C4016 C 0.77880 0.77647 0.54773
 H4017 H 0.78136 0.80578 0.55177
 H4018 H 0.78309 0.82993 0.55436
 H4019 H 0.79244 0.83974 0.57485
 H4020 H 0.80011 0.82545 0.59290
 H4021 H 0.80726 0.77915 0.61150
 H4022 H 0.80551 0.75499 0.60892
 H4023 H 0.79614 0.74519 0.58843
 H4024 H 0.78848 0.75949 0.57038
 C4025 C 0.28820 0.71356 0.42935
 C4026 C 0.28464 0.70036 0.42561
 C4027 C 0.29004 0.69468 0.41381
 C4028 C 0.29897 0.70222 0.40582
 C4029 C 0.30248 0.71544 0.40954
 C4030 C 0.29708 0.72112 0.42134
 C4031 C 0.30073 0.73435 0.42485
 C4032 C 0.30949 0.74175 0.41694
 C4033 C 0.31478 0.73619 0.40541
 C4034 C 0.31135 0.72319 0.40170
 C4035 C 0.28633 0.68147 0.41028
 C4036 C 0.27756 0.67408 0.41818
 C4037 C 0.27228 0.67964 0.42971
 C4038 C 0.27575 0.69262 0.43344
 C4039 C 0.30457 0.69636 0.39383
 C4040 C 0.30925 0.69149 0.38390
 C4041 C 0.28280 0.71930 0.44149
 C4042 C 0.27828 0.72391 0.45161
 H4043 H 0.29687 0.73911 0.43372
 H4044 H 0.31218 0.75185 0.41978
 H4045 H 0.32158 0.74198 0.39930
 H4046 H 0.31572 0.71931 0.39264
 H4047 H 0.29017 0.67671 0.40139
 H4048 H 0.27484 0.66399 0.41533
 H4049 H 0.26547 0.67386 0.43582
 H4050 H 0.27138 0.69650 0.44249
 C4051 C 0.28862 0.21469 0.92892
 C4052 C 0.29812 0.20416 0.92947
 C4053 C 0.30329 0.19859 0.91752
 C4054 C 0.29892 0.20359 0.90508
 C4055 C 0.28942 0.21413 0.90453
 C4056 C 0.28426 0.21970 0.91649
 C4057 C 0.27475 0.23020 0.91570
 C4058 C 0.27045 0.23506 0.90343
 C4059 C 0.27551 0.22962 0.89174
 C4060 C 0.28489 0.21928 0.89223
 C4061 C 0.31275 0.18805 0.91833
 C4062 C 0.31699 0.18315 0.93059
 C4063 C 0.31194 0.18859 0.94228
 C4064 C 0.30262 0.19898 0.94179
 C4065 C 0.30415 0.19783 0.89289
 C4066 C 0.30856 0.19294 0.88284
 C4067 C 0.28321 0.22022 0.94115
 C4068 C 0.27868 0.22466 0.95135
 H4069 H 0.27054 0.23476 0.92452
 H4070 H 0.26316 0.24309 0.90300
 H4071 H 0.27214 0.23343 0.88224
 H4072 H 0.28853 0.21537 0.88287
 H4073 H 0.31698 0.18349 0.90952
 H4074 H 0.32423 0.17507 0.93103
 H4075 H 0.31526 0.18474 0.95178
 H4076 H 0.29899 0.20288 0.95115
 C4077 C 0.78864 0.71361 0.92986
 C4078 C 0.78847 0.69954 0.92804
 C4079 C 0.79386 0.69386 0.91623
 C4080 C 0.79940 0.70228 0.90632
 C4081 C 0.79956 0.71634 0.90814
 C4082 C 0.79416 0.72202 0.91994
 C4083 C 0.79442 0.73611 0.92153
 C4084 C 0.79987 0.74435 0.91174
 C4085 C 0.80516 0.73880 0.90021
 C4086 C 0.80503 0.72496 0.89837
 C4087 C 0.79358 0.67978 0.91464
 C4088 C 0.78812 0.67154 0.92443
 C4089 C 0.78285 0.67709 0.93597
 C4090 C 0.78299 0.69092 0.93781
 C4091 C 0.80495 0.69646 0.89428
 C4092 C 0.80956 0.69160 0.88431
 C4093 C 0.78313 0.71938 0.94193
 C4094 C 0.77852 0.72403 0.95201
 H4095 H 0.79043 0.74089 0.93033
 H4096 H 0.79999 0.75510 0.91312
 H4097 H 0.80938 0.74524 0.89263
 H4098 H 0.80926 0.72112 0.88923
 H4099 H 0.79756 0.67498 0.90584
 H4100 H 0.78798 0.66079 0.92305
 H4101 H 0.77862 0.67065 0.94354
 H4102 H 0.77877 0.69476 0.94695
 C4103 C 0.78945 0.21588 0.42943
 C4104 C 0.80092 0.20752 0.42989
 C4105 C 0.80615 0.20193 0.41797
 C4106 C 0.79988 0.20474 0.40566
 C4107 C 0.78848 0.21319 0.40518
 C4108 C 0.78325 0.21877 0.41710
 C4109 C 0.77183 0.22717 0.41639
 C4110 C 0.76575 0.22996 0.40424
 C4111 C 0.77086 0.22450 0.39258
 C4112 C 0.78209 0.21620 0.39299
 C4113 C 0.81760 0.19358 0.41870
 C4114 C 0.82371 0.19083 0.43084
 C4115 C 0.81859 0.19629 0.44249
 C4116 C 0.80733 0.20454 0.44208
 C4117 C 0.80511 0.19884 0.39352
 C4118 C 0.80951 0.19386 0.38351
 C4119 C 0.78392 0.22129 0.44164
 C4120 C 0.77929 0.22562 0.45184
 H4121 H 0.76749 0.23166 0.42518
 H4122 H 0.75702 0.23640 0.40387
 H4123 H 0.76610 0.22670 0.38317
 H4124 H 0.78571 0.21219 0.38366
 H4125 H 0.82196 0.18911 0.40991
 H4126 H 0.83247 0.18443 0.43121
 H4127 H 0.82337 0.19412 0.45190
 H4128 H 0.80373 0.20855 0.45141
 C4129 C 0.71326 0.28464 0.42983
 C4130 C 0.71405 0.27740 0.41776
 C4131 C 0.70859 0.28294 0.40593
 C4132 C 0.70240 0.29571 0.40623
 C4133 C 0.70164 0.30297 0.41830
 C4134 C 0.70708 0.29741 0.43013
 C4135 C 0.70621 0.30486 0.44207
 C4136 C 0.70014 0.31743 0.44231
 C4137 C 0.69481 0.32286 0.43075
 C4138 C 0.69553 0.31576 0.41885
 C4139 C 0.70949 0.27551 0.39399
 C4140 C 0.71563 0.26297 0.39374
 C4141 C 0.72097 0.25755 0.40531
 C4142 C 0.72021 0.26463 0.41721
 C4143 C 0.69681 0.30140 0.39416
 C4144 C 0.69212 0.30620 0.38421
 C4145 C 0.71887 0.27903 0.44191
 C4146 C 0.72354 0.27453 0.45202
 H4147 H 0.71021 0.30107 0.45133
 H4148 H 0.69957 0.32299 0.45153
 H4149 H 0.69011 0.33263 0.43099
 H4150 H 0.69124 0.32041 0.41012
 H4151 H 0.70549 0.27931 0.38474
 H4152 H 0.71624 0.25742 0.38452
 H4153 H 0.72573 0.24780 0.40506
 H4154 H 0.72450 0.26000 0.42595
 C4155 C 0.71269 0.78484 0.92993
 C4156 C 0.71262 0.77721 0.91807
 C4157 C 0.70719 0.78276 0.90623
 C4158 C 0.70187 0.79592 0.90631
 C4159 C 0.70190 0.80353 0.91818
 C4160 C 0.70732 0.79798 0.93002
 C4161 C 0.70724 0.80578 0.94176
 C4162 C 0.70196 0.81870 0.94180
 C4163 C 0.69666 0.82414 0.93022
 C4164 C 0.69661 0.81669 0.91852
 C4165 C 0.70725 0.77494 0.89450
 C4166 C 0.71250 0.76201 0.89448
 C4167 C 0.71780 0.75658 0.90606
 C4168 C 0.71789 0.76404 0.91775
 C4169 C 0.69638 0.80162 0.89420
 C4170 C 0.69182 0.80637 0.88415
 C4171 C 0.71838 0.77925 0.94199
 C4172 C 0.72315 0.77474 0.95205
 H4173 H 0.71125 0.80200 0.95102
 H4174 H 0.70197 0.82453 0.95087
 H4175 H 0.69257 0.83418 0.93031
 H4176 H 0.69238 0.82136 0.90976
 H4177 H 0.70324 0.77873 0.88525
 H4178 H 0.71246 0.75617 0.88542
 H4179 H 0.72187 0.74652 0.90598
 H4180 H 0.72211 0.75938 0.92651
 C4181 C 0.21414 0.28531 0.92939
 C4182 C 0.20559 0.29661 0.93016
 C4183 C 0.20013 0.30224 0.91837
 C4184 C 0.20325 0.29652 0.90586
 C4185 C 0.21183 0.28524 0.90509
 C4186 C 0.21729 0.27962 0.91688
 C4187 C 0.22585 0.26834 0.91586
 C4188 C 0.22893 0.26278 0.90353
 C4189 C 0.22358 0.26827 0.89200
 C4190 C 0.21512 0.27937 0.89271
 C4191 C 0.19161 0.31354 0.91940
 C4192 C 0.18858 0.31913 0.93173
 C4193 C 0.19391 0.31363 0.94326
 C4194 C 0.20233 0.30250 0.94254
 C4195 C 0.19755 0.30219 0.89384
 C4196 C 0.19271 0.30693 0.88391
 C4197 C 0.21970 0.27959 0.94145
 C4198 C 0.22429 0.27498 0.95155
 H4199 H 0.23024 0.26372 0.92455
 H4200 H 0.23550 0.25417 0.90292
 H4201 H 0.22600 0.26392 0.88244
 H4202 H 0.21121 0.28328 0.88346
 H4203 H 0.18722 0.31818 0.91071
 H4204 H 0.18205 0.32777 0.93233
 H4205 H 0.19153 0.31801 0.95281
 H4206 H 0.20623 0.29859 0.95179
 C4207 C 0.21272 0.78550 0.43029
 C4208 C 0.21246 0.77803 0.41835
 C4209 C 0.20687 0.78375 0.40666
 C4210 C 0.20157 0.79691 0.40699
 C4211 C 0.20184 0.80438 0.41894
 C4212 C 0.20742 0.79866 0.43063
 C4213 C 0.20757 0.80633 0.44245
 C4214 C 0.20235 0.81928 0.44272
 C4215 C 0.19690 0.82487 0.43129
 C4216 C 0.19661 0.81756 0.41951
 C4217 C 0.20673 0.77609 0.39483
 C4218 C 0.21196 0.76314 0.39456
 C4219 C 0.21741 0.75755 0.40599
 C4220 C 0.21769 0.76486 0.41777
 C4221 C 0.19584 0.80275 0.39506
 C4222 C 0.19105 0.80763 0.38519
 C4223 C 0.21849 0.77969 0.44222
 C4224 C 0.22330 0.77501 0.45218
 H4225 H 0.21171 0.80242 0.45160
 H4226 H 0.20254 0.82501 0.45185
 H4227 H 0.19286 0.83494 0.43155
 H4228 H 0.19226 0.82234 0.41088
 H4229 H 0.20259 0.78001 0.38568
 H4230 H 0.21177 0.75743 0.38542
 H4231 H 0.22146 0.74749 0.40572
 H4232 H 0.22203 0.76007 0.42641
 C4233 C 0.71377 0.71437 0.56979
 C4234 C 0.71051 0.72264 0.58075
 C4235 C 0.70500 0.71689 0.59247
 C4236 C 0.70278 0.70290 0.59315
 C4237 C 0.70605 0.69463 0.58219
 C4238 C 0.71156 0.70038 0.57047
 C4239 C 0.71473 0.69191 0.55964
 C4240 C 0.71253 0.67814 0.56036
 C4241 C 0.70714 0.67252 0.57182
 C4242 C 0.70391 0.68062 0.58264
 C4243 C 0.70181 0.72537 0.60329
 C4244 C 0.70401 0.73913 0.60256
 C4245 C 0.70941 0.74475 0.59111
 C4246 C 0.71264 0.73665 0.58029
 C4247 C 0.69706 0.69703 0.60509
 C4248 C 0.69226 0.69217 0.61498
 C4249 C 0.71939 0.72023 0.55780
 C4250 C 0.72407 0.72494 0.54779
 H4251 H 0.71895 0.69580 0.55052
 H4252 H 0.71501 0.67181 0.55199
 H4253 H 0.70544 0.66183 0.57233
 H4254 H 0.69975 0.67577 0.59133
 H4255 H 0.69759 0.72147 0.61241
 H4256 H 0.70151 0.74547 0.61093
 H4257 H 0.71110 0.75545 0.59059
 H4258 H 0.71681 0.74149 0.57160
 C4259 C 0.71563 0.21288 0.06934
 C4260 C 0.71606 0.22026 0.08134
 C4261 C 0.71021 0.21488 0.09307
 C4262 C 0.70398 0.20215 0.09274
 C4263 C 0.70361 0.19473 0.08075
 C4264 C 0.70945 0.20012 0.06902
 C4265 C 0.70893 0.19253 0.05715
 C4266 C 0.70283 0.17999 0.05688
 C4267 C 0.69713 0.17472 0.06835
 C4268 C 0.69748 0.18196 0.08018
 C4269 C 0.71075 0.22246 0.10495
 C4270 C 0.71688 0.23499 0.10522
 C4271 C 0.72260 0.24024 0.09375
 C4272 C 0.72222 0.23301 0.08192
 C4273 C 0.69795 0.19667 0.10470
 C4274 C 0.69294 0.19205 0.11460
 C4275 C 0.72136 0.21848 0.05729
 C4276 C 0.72597 0.22315 0.04723
 H4277 H 0.71324 0.19620 0.04797
 H4278 H 0.70253 0.17432 0.04772
 H4279 H 0.69240 0.16497 0.06809
 H4280 H 0.69291 0.17744 0.08884
 H4281 H 0.70644 0.21879 0.11412
 H4282 H 0.71720 0.24065 0.11438
 H4283 H 0.72735 0.24998 0.09401
 H4284 H 0.72681 0.23752 0.07326
 C4285 C 0.21644 0.71143 0.07034
 C4286 C 0.20583 0.70207 0.06932
 C4287 C 0.20001 0.69657 0.08101
 C4288 C 0.20483 0.70047 0.09366
 C4289 C 0.21550 0.70975 0.09468
 C4290 C 0.22133 0.71524 0.08299
 C4291 C 0.23197 0.72451 0.08426
 C4292 C 0.23673 0.72826 0.09673
 C4293 C 0.23104 0.72289 0.10816
 C4294 C 0.22054 0.71374 0.10721
 C4295 C 0.18940 0.68725 0.07973
 C4296 C 0.18468 0.68347 0.06726
 C4297 C 0.19037 0.68884 0.05583
 C4298 C 0.20082 0.69804 0.05679
 C4299 C 0.19872 0.69502 0.10560
 C4300 C 0.19360 0.69050 0.11549
 C4301 C 0.22214 0.71729 0.05840
 C4302 C 0.22669 0.72219 0.04842
 H4303 H 0.23673 0.72895 0.07565
 H4304 H 0.24488 0.73536 0.09752
 H4305 H 0.23477 0.72583 0.11782
 H4306 H 0.21644 0.70984 0.11638
 H4307 H 0.18466 0.68279 0.08833
 H4308 H 0.17656 0.67632 0.06646
 H4309 H 0.18667 0.68587 0.04617
 H4310 H 0.20492 0.70193 0.04761
 C4311 C 0.21577 0.21192 0.57048
 C4312 C 0.21698 0.21882 0.58270
 C4313 C 0.21117 0.21336 0.59442
 C4314 C 0.20419 0.20103 0.59384
 C4315 C 0.20305 0.19409 0.58163
 C4316 C 0.20885 0.19955 0.56991
 C4317 C 0.20756 0.19244 0.55781
 C4318 C 0.20073 0.18028 0.55731
 C4319 C 0.19506 0.17494 0.56876
 C4320 C 0.19617 0.18172 0.58081
 C4321 C 0.21248 0.22046 0.60652
 C4322 C 0.21935 0.23260 0.60703
 C4323 C 0.22503 0.23794 0.59558
 C4324 C 0.22389 0.23117 0.58352
 C4325 C 0.19816 0.19550 0.60578
 C4326 C 0.19314 0.19086 0.61565
 C4327 C 0.22145 0.21762 0.55845
 C4328 C 0.22603 0.22237 0.54841
 H4329 H 0.21180 0.19618 0.54864
 H4330 H 0.19983 0.17498 0.54797
 H4331 H 0.18976 0.16549 0.56831
 H4332 H 0.19159 0.17716 0.58944
 H4333 H 0.20824 0.21672 0.61569
 H4334 H 0.22026 0.23790 0.61637
 H4335 H 0.23035 0.24737 0.59603
 H4336 H 0.22849 0.23571 0.57489
   
