data_POSCAR
  _audit_creation_date              2014-09-24
  _audit_creation_method            'ToBaCCo'
  _symmetry_space_group_name_H-M    'P1'
  _symmetry_Int_Tables_number       1
  _symmetry_cell_setting            triclinic
  loop_
  _symmetry_equiv_pos_as_xyz
 x,y,z
_cell_length_a 54.2139
_cell_length_b 54.1987
_cell_length_c 58.3690
_cell_angle_alpha 88.704100
_cell_angle_beta 91.267100
_cell_angle_gamma 90.973800
loop_
  _atom_site_label
  _atom_site_type_symbol
  _atom_site_fract_x
  _atom_site_fract_y
  _atom_site_fract_z
C1 C 0.41558 0.01694 0.28090
 C2 C 0.39675 0.03779 0.27808
 C3 C 0.38187 0.03631 0.25895
 C4 C 0.38749 0.01400 0.24405
 C5 C 0.40024 -0.00681 0.27940
 C6 C 0.38560 -0.00871 0.26040
 C7 C 0.42987 0.01842 0.25851
 C8 C 0.41539 0.01698 0.23909
 H9 H 0.39670 0.05361 0.28904
 H10 H 0.37534 0.01257 0.22859
 H11 H 0.40042 -0.02078 0.29299
 H12 H 0.44973 0.02063 0.25820
 C13 C 0.08262 -0.00554 0.77409
 C14 C 0.09960 -0.02781 0.77220
 C15 C 0.11487 -0.02658 0.75391
 C16 C 0.11129 -0.00296 0.73881
 C17 C 0.09998 0.01688 0.77380
 C18 C 0.11513 0.01851 0.75565
 C19 C 0.06938 -0.00461 0.75224
 C20 C 0.08479 -0.00327 0.73247
 H21 H 0.09818 -0.04414 0.78313
 H22 H 0.12435 -0.00198 0.72453
 H23 H 0.09997 0.03063 0.78701
 H24 H 0.04948 -0.00499 0.75132
 C25 C 0.58551 0.48825 0.27315
 C26 C 0.60225 0.46584 0.27114
 C27 C 0.61821 0.46732 0.25338
 C28 C 0.61545 0.49118 0.23866
 C29 C 0.60306 0.51048 0.27358
 C30 C 0.61895 0.51220 0.25598
 C31 C 0.57228 0.48996 0.24972
 C32 C 0.58769 0.49120 0.23147
 H33 H 0.60066 0.44958 0.28216
 H34 H 0.62845 0.49251 0.22427
 H35 H 0.60295 0.52382 0.28714
 H36 H 0.55242 0.48902 0.24777
 C37 C 0.91328 0.52030 0.77606
 C38 C 0.89380 0.54064 0.77406
 C39 C 0.87841 0.53909 0.75526
 C40 C 0.88427 0.51728 0.73983
 C41 C 0.89853 0.49618 0.77453
 C42 C 0.88329 0.49428 0.75591
 C43 C 0.92689 0.52265 0.75335
 C44 C 0.91194 0.52123 0.73425
 H45 H 0.89349 0.55606 0.78548
 H46 H 0.87183 0.51575 0.72458
 H47 H 0.89902 0.48229 0.78819
 H48 H 0.94663 0.52571 0.75257
 C49 C 0.27846 0.36859 0.99169
 C50 C 0.27508 0.35056 1.01203
 C51 C 0.25421 0.33642 1.01085
 C52 C 0.23795 0.34163 0.98937
 C53 C 0.27640 0.35237 0.97055
 C54 C 0.25532 0.33832 0.96917
 C55 C 0.25444 0.38351 0.99114
 C56 C 0.23323 0.36958 0.98993
 H57 H 0.28743 0.35006 1.02689
 H58 H 0.22103 0.32983 0.98863
 H59 H 0.29050 0.35212 0.95769
 H60 H 0.25404 0.40331 0.99256
 C61 C 0.77144 0.13615 0.99594
 C62 C 0.76797 0.15331 0.97500
 C63 C 0.74918 0.16950 0.97645
 C64 C 0.73436 0.16602 0.99871
 C65 C 0.77335 0.15352 1.01631
 C66 C 0.75403 0.16911 1.01795
 C67 C 0.74760 0.12364 0.99823
 C68 C 0.72696 0.13977 1.00011
 H69 H 0.77992 0.15300 0.96038
 H70 H 0.71930 0.17942 1.00007
 H71 H 0.78825 0.15262 1.02898
 H72 H 0.74494 0.10416 0.99545
 C73 C 0.27595 0.62999 0.49653
 C74 C 0.27509 0.64876 0.47665
 C75 C 0.25705 0.66576 0.47771
 C76 C 0.24028 0.66178 0.49859
 C77 C 0.27679 0.64561 0.51812
 C78 C 0.25803 0.66199 0.51958
 C79 C 0.24988 0.61816 0.49637
 C80 C 0.23119 0.63465 0.49776
 H81 H 0.28776 0.64830 0.46257
 H82 H 0.22516 0.67523 0.49943
 H83 H 0.29078 0.64311 0.53145
 H84 H 0.24617 0.59857 0.49575
 C85 C 0.77500 0.86664 0.49514
 C86 C 0.77151 0.84855 0.51538
 C87 C 0.75101 0.83380 0.51385
 C88 C 0.73510 0.83882 0.49207
 C89 C 0.77373 0.85043 0.47399
 C90 C 0.75306 0.83586 0.47224
 C91 C 0.75071 0.88108 0.49413
 C92 C 0.72979 0.86670 0.49269
 H93 H 0.78371 0.84840 0.53033
 H94 H 0.71841 0.82674 0.49083
 H95 H 0.78829 0.85027 0.46159
 H96 H 0.74982 0.90084 0.49563
 C97 C 0.00803 0.27365 0.41249
 C98 C 0.02442 0.27745 0.39138
 C99 C 0.02168 0.25936 0.37566
 C100 C 0.00296 0.23918 0.38248
 C101 C -0.01675 0.27145 0.40255
 C102 C -0.01978 0.25243 0.38605
 C103 C 0.01415 0.24791 0.42202
 C104 C 0.01174 0.23003 0.40621
 H105 H 0.03620 0.29344 0.38847
 H106 H 0.00145 0.22430 0.36986
 H107 H -0.03140 0.28372 0.40677
 H108 H 0.01985 0.24418 0.43965
 C109 C 0.00994 0.76195 0.09751
 C110 C -0.00993 0.76700 0.11513
 C111 C -0.01406 0.74789 0.13009
 C112 C 0.00209 0.72558 0.12640
 C113 C 0.03257 0.75504 0.11243
 C114 C 0.02821 0.73611 0.12749
 C115 C 0.00159 0.73795 0.08620
 C116 C -0.00256 0.71897 0.10135
 H117 H -0.01982 0.78417 0.11561
 H118 H -0.00089 0.71024 0.13899
 H119 H 0.04898 0.76647 0.11432
 H120 H -0.00010 0.73607 0.06780
 C121 C 0.50821 0.26360 0.61175
 C122 C 0.49385 0.26486 0.63398
 C123 C 0.49141 0.24285 0.64545
 C124 C 0.50313 0.22130 0.63320
 C125 C 0.53251 0.25145 0.61855
 C126 C 0.52991 0.22944 0.62980
 C127 C 0.49383 0.24424 0.59787
 C128 C 0.49163 0.22186 0.60882
 H129 H 0.48367 0.28091 0.63864
 H130 H 0.50173 0.20326 0.64242
 H131 H 0.55024 0.26071 0.61652
 H132 H 0.48676 0.24776 0.58065
 C133 C 0.48575 0.77618 0.90813
 C134 C 0.50296 0.78565 0.88925
 C135 C 0.50797 0.76867 0.87330
 C136 C 0.49487 0.74370 0.87760
 C137 C 0.46269 0.76662 0.89531
 C138 C 0.46760 0.75015 0.87891
 C139 C 0.49740 0.75415 0.91758
 C140 C 0.50249 0.73609 0.90080
 H141 H 0.51074 0.80418 0.88901
 H142 H 0.49851 0.73021 0.86424
 H143 H 0.44449 0.77415 0.89725
 H144 H 0.49830 0.74978 0.93574
 C145 C -0.23484 0.66947 0.97356
 C146 C -0.21406 0.65047 0.97591
 C147 C -0.21591 0.63443 0.99426
 C148 C -0.23828 0.63976 1.00927
 C149 C -0.25865 0.65412 0.97423
 C150 C -0.26077 0.63860 0.99264
 C151 C -0.23364 0.68278 0.99644
 C152 C -0.23527 0.66746 1.01523
 H153 H -0.19826 0.65095 0.96493
 H154 H -0.24041 0.62733 1.02445
 H155 H -0.27227 0.65470 0.96036
 H156 H -0.22982 0.70239 0.99768
 C157 C -0.25315 0.33161 0.47361
 C158 C -0.27456 0.34966 0.47571
 C159 C -0.27196 0.36552 0.49347
 C160 C -0.24802 0.36133 0.50793
 C161 C -0.23003 0.34800 0.47267
 C162 C -0.22709 0.36370 0.49034
 C163 C -0.25193 0.31906 0.49581
 C164 C -0.24899 0.33503 0.51512
 H165 H -0.29127 0.34877 0.46528
 H166 H -0.24546 0.37491 0.52163
 H167 H -0.21679 0.34683 0.45911
 H168 H -0.25629 0.29959 0.49740
 C169 C 0.24352 -0.16527 -0.02782
 C170 C 0.22268 -0.14648 -0.02629
 C171 C 0.22486 -0.13114 -0.00814
 C172 C 0.24792 -0.13639 0.00717
 C173 C 0.26726 -0.14974 -0.02743
 C174 C 0.26998 -0.13463 -0.00927
 C175 C 0.24319 -0.17831 -0.00577
 C176 C 0.24557 -0.16274 0.01392
 H177 H 0.20620 -0.14694 -0.03707
 H178 H 0.25027 -0.12319 0.02119
 H179 H 0.28052 -0.15031 -0.04101
 H180 H 0.23844 -0.19772 -0.00470
 C181 C 0.26099 1.16660 0.47114
 C182 C 0.28159 1.14742 0.47367
 C183 C 0.28011 1.13250 0.49281
 C184 C 0.25799 1.13830 0.50786
 C185 C 0.23706 1.15156 0.47272
 C186 C 0.23516 1.13665 0.49159
 C187 C 0.26293 1.18070 0.49362
 C188 C 0.26153 1.16609 0.51295
 H189 H 0.29725 1.14718 0.46251
 H190 H 0.25650 1.12615 0.52333
 H191 H 0.22332 1.15160 0.45894
 H192 H 0.26604 1.20046 0.49412
 C193 C 0.11559 0.53052 0.25263
 C194 C 0.09586 0.52878 0.23357
 C195 C 0.08033 0.50891 0.23528
 C196 C 0.08606 0.49197 0.25627
 C197 C 0.10120 0.52908 0.27490
 C198 C 0.08557 0.50913 0.27710
 C199 C 0.12873 0.50557 0.25187
 C200 C 0.11346 0.48536 0.25378
 H201 H 0.09560 0.54131 0.21883
 H202 H 0.07339 0.47574 0.25738
 H203 H 0.10439 0.54234 0.28827
 H204 H 0.14828 0.50369 0.24954
 C205 C -0.11028 1.01733 0.25016
 C206 C -0.09258 1.01462 0.27073
 C207 C -0.07769 0.99472 0.27028
 C208 C -0.08264 0.97837 0.24924
 C209 C -0.09365 1.01668 0.22925
 C210 C -0.07913 0.99636 0.22865
 C211 C -0.12406 0.99408 0.24945
 C212 C -0.10920 0.97233 0.24920
 H213 H -0.09186 1.02774 0.28447
 H214 H -0.07009 0.96250 0.24909
 H215 H -0.09403 1.03069 0.21572
 H216 H -0.14326 0.99328 0.24431
 C217 C 0.38668 0.52265 -0.25351
 C218 C 0.40518 0.52233 -0.23341
 C219 C 0.42169 0.50377 -0.23342
 C220 C 0.41754 0.48603 -0.25354
 C221 C 0.40262 0.52197 -0.27492
 C222 C 0.41890 0.50296 -0.27512
 C223 C 0.37420 0.49692 -0.25225
 C224 C 0.39015 0.47776 -0.25245
 H225 H 0.40489 0.53577 -0.21996
 H226 H 0.43061 0.47051 -0.25314
 H227 H 0.40020 0.53495 -0.28912
 H228 H 0.35452 0.49362 -0.25204
 C229 C 0.61731 0.03483 -0.24090
 C230 C 0.59829 0.03304 -0.26060
 C231 C 0.58347 0.01253 -0.25986
 C232 C 0.58885 -0.00466 -0.23896
 C233 C 0.60145 0.03276 -0.21935
 C234 C 0.58666 0.01219 -0.21825
 C235 C 0.63122 0.01043 -0.24121
 C236 C 0.61659 -0.01033 -0.24024
 H237 H 0.59721 0.04667 -0.27442
 H238 H 0.57650 -0.02118 -0.23818
 H239 H 0.60052 0.04685 -0.20663
 H240 H 0.65115 0.00986 -0.24167
 C241 C 0.02165 0.24877 0.83716
 C242 C 0.02897 0.26734 0.85586
 C243 C 0.01258 0.26819 0.87306
 C244 C -0.00914 0.25001 0.87045
 C245 C 0.01908 0.22418 0.85072
 C246 C 0.00295 0.22496 0.86814
 C247 C -0.00322 0.25523 0.82989
 C248 C -0.02043 0.25615 0.84819
 H249 H 0.04509 0.27937 0.85511
 H250 H -0.02109 0.25039 0.88549
 H251 H 0.03068 0.20843 0.84851
 H252 H -0.00823 0.25800 0.81198
 C253 C 0.51760 0.26847 0.15258
 C254 C 0.52021 0.24559 0.13794
 C255 C 0.50014 0.24029 0.12453
 C256 C 0.47883 0.25800 0.12736
 C257 C 0.51009 0.28910 0.13564
 C258 C 0.49029 0.28326 0.12213
 C259 C 0.49432 0.26336 0.16649
 C260 C 0.47400 0.25786 0.15323
 H261 H 0.53683 0.23477 0.13808
 H262 H 0.46241 0.25425 0.11623
 H263 H 0.52078 0.30598 0.13307
 H264 H 0.49353 0.26502 0.18486
 C265 C 0.00471 0.75063 0.64663
 C266 C 0.00719 0.73667 0.62433
 C267 C -0.01397 0.73478 0.61162
 C268 C -0.03606 0.74674 0.62253
 C269 C -0.00660 0.77539 0.63948
 C270 C -0.02761 0.77332 0.62657
 C271 C -0.01606 0.73675 0.65925
 C272 C -0.03756 0.73503 0.64673
 H273 H 0.02417 0.72799 0.61965
 H274 H -0.05338 0.74580 0.61208
 H275 H 0.00298 0.79291 0.64175
 H276 H -0.01489 0.73072 0.67696
 C277 C 0.52934 0.74765 0.35605
 C278 C 0.53251 0.76355 0.37734
 C279 C 0.51184 0.76497 0.39007
 C280 C 0.48957 0.75083 0.37978
 C281 C 0.51923 0.72282 0.36491
 C282 C 0.49863 0.72452 0.37749
 C283 C 0.50782 0.75965 0.34281
 C284 C 0.48683 0.76095 0.35504
 H285 H 0.54916 0.77421 0.38088
 H286 H 0.47243 0.75126 0.38969
 H287 H 0.52901 0.70570 0.36326
 H288 H 0.50920 0.76736 0.32564
 Zr289 Zr 0.02304 -0.01550 1.03114
 O290 O 0.04793 -0.00454 1.05762
 O291 O 0.01986 -0.05375 1.03735
 O292 O 0.00741 -0.01915 1.06420
 O293 O 0.06807 -0.01748 0.99011
 O294 O -0.02976 -0.00035 1.05947
 O295 O 0.05901 -0.02947 1.02672
 O296 O -0.00736 -0.06656 1.00961
 O297 O -0.01446 -0.02269 1.02394
 O298 O 0.02086 -0.02913 0.99790
 O299 O 0.00544 0.01868 1.03394
 O300 O 0.03958 0.01204 1.00992
 Zr301 Zr -0.01955 0.02489 0.97063
 Zr302 Zr -0.03162 0.01157 1.02518
 Zr303 Zr 0.03555 -0.00157 0.97672
 Zr304 Zr -0.01639 -0.03497 0.99026
 O305 O 0.06629 0.02152 0.96910
 O306 O -0.04987 -0.05045 1.00260
 O307 O -0.00142 -0.00891 0.96722
 O308 O -0.03570 -0.00215 0.99210
 O309 O -0.01749 0.03939 1.00357
 O310 O 0.01787 0.03215 0.97793
 C311 C 0.00727 -0.07054 1.02681
 C312 C 0.07363 -0.02796 1.00952
 C313 C -0.01310 -0.01115 1.07185
 O314 O -0.06338 -0.01051 1.03159
 O315 O -0.06280 0.03060 1.01292
 O316 O -0.05455 0.04068 0.97573
 C317 C -0.06844 0.04077 0.99343
 O318 O 0.04622 0.04974 1.03829
 Zr319 Zr 0.01991 0.04517 1.01110
 O320 O -0.01664 0.06266 0.96373
 O321 O -0.03851 0.04123 1.04701
 O322 O 0.00505 0.07001 1.03452
 O323 O 0.05261 0.06201 0.99839
 O324 O 0.00904 0.07699 0.99210
 C325 C -0.00501 0.08004 0.97419
 O326 O -0.04580 0.01407 0.94524
 O327 O 0.04402 -0.03188 0.95620
 O328 O -0.00515 0.02606 0.93710
 O329 O 0.03263 0.00842 0.94198
 O330 O -0.00240 -0.06133 0.96779
 O331 O -0.04014 -0.03887 0.96105
 C332 C 0.01559 0.01858 0.92956
 H333 H 0.03011 -0.04452 0.99610
 H334 H -0.05326 -0.00514 0.98784
 H335 H 0.02538 0.04417 0.96701
 H336 H 0.00735 0.02509 1.04963
 H337 H -0.05048 -0.06806 0.99836
 H338 H -0.07305 -0.00178 1.04302
 H339 H -0.05464 0.03774 1.05419
 H340 H 0.01355 0.08617 1.03224
 H341 H -0.01230 -0.07675 0.96975
 H342 H 0.06009 -0.02799 0.94908
 H343 H 0.07594 0.01294 0.95755
 H344 H 0.05240 0.07969 1.00237
 H345 H -0.04769 -0.05564 0.96122
 H346 H -0.05000 0.02906 0.93597
 H347 H 0.05234 -0.01964 1.06663
 H348 H 0.04998 0.06754 1.04013
 Zr349 Zr 0.52894 0.48377 0.53144
 O350 O 0.55343 0.49911 0.55625
 O351 O 0.52895 0.44619 0.54064
 O352 O 0.51442 0.48106 0.56482
 O353 O 0.57341 0.48211 0.48996
 O354 O 0.47434 0.49266 0.55956
 O355 O 0.56562 0.47181 0.52724
 O356 O 0.50300 0.42881 0.51407
 O357 O 0.49224 0.47241 0.52528
 O358 O 0.52767 0.46775 0.49918
 O359 O 0.50786 0.51598 0.53294
 O360 O 0.54264 0.51128 0.50861
 Zr361 Zr 0.48205 0.51577 0.46979
 Zr362 Zr 0.47155 0.50464 0.52514
 Zr363 Zr 0.53959 0.49516 0.47636
 Zr364 Zr 0.49110 0.45784 0.49247
 O365 O 0.56814 0.52054 0.46764
 O366 O 0.45907 0.44020 0.50573
 O367 O 0.50335 0.48373 0.46786
 O368 O 0.46859 0.48872 0.49284
 O369 O 0.48291 0.53223 0.50189
 O370 O 0.51866 0.52708 0.47613
 C371 C 0.51763 0.42761 0.53166
 C372 C 0.57980 0.47290 0.50972
 C373 C 0.49258 0.48506 0.57212
 O374 O 0.44126 0.48069 0.53202
 O375 O 0.43900 0.52111 0.51245
 O376 O 0.44621 0.52952 0.47469
 C377 C 0.43265 0.53001 0.49260
 O378 O 0.54608 0.55054 0.53471
 Zr379 Zr 0.51958 0.54223 0.50850
 O380 O 0.48113 0.55305 0.46056
 O381 O 0.46273 0.53403 0.54661
 O382 O 0.50307 0.56679 0.53118
 O383 O 0.54970 0.56215 0.49409
 O384 O 0.50437 0.57152 0.48854
 C385 C 0.49018 0.57214 0.47051
 O386 O 0.45648 0.50067 0.44578
 O387 O 0.55055 0.46485 0.45695
 O388 O 0.49588 0.51637 0.43603
 O389 O 0.53543 0.50310 0.44124
 O390 O 0.50747 0.43113 0.47187
 O391 O 0.46800 0.44985 0.46360
 C392 C 0.51728 0.51073 0.42858
 H393 H 0.53812 0.45304 0.49818
 H394 H 0.45132 0.48398 0.48891
 H395 H 0.52478 0.53917 0.46453
 H396 H 0.50922 0.52332 0.54830
 H397 H 0.46023 0.42236 0.50266
 H398 H 0.43107 0.48894 0.54337
 H399 H 0.44702 0.52937 0.55407
 H400 H 0.51002 0.58351 0.52795
 H401 H 0.49902 0.41509 0.47503
 H402 H 0.56612 0.46984 0.44941
 H403 H 0.57849 0.51232 0.45640
 H404 H 0.54753 0.57980 0.49749
 H405 H 0.46192 0.43255 0.46482
 H406 H 0.45066 0.51451 0.43576
 H407 H 0.55931 0.48530 0.56628
 H408 H 0.54825 0.56866 0.53568
 Zr409 Zr 0.47236 1.00044 0.54289
 O410 O 0.44728 0.98693 0.56766
 O411 O 0.47633 1.03748 0.55165
 O412 O 0.48855 1.00050 0.57637
 O413 O 0.42759 1.00905 0.50043
 O414 O 0.52516 0.98119 0.57207
 O415 O 0.43709 1.01663 0.53793
 O416 O 0.50434 1.05281 0.52623
 O417 O 0.51008 1.00708 0.53755
 O418 O 0.47502 1.01782 0.51067
 O419 O 0.48894 0.96558 0.54461
 O420 O 0.45470 0.97625 0.51958
 Zr421 Zr 0.51329 0.96561 0.48181
 Zr422 Zr 0.52621 0.97221 0.53741
 Zr423 Zr 0.45938 0.99334 0.48738
 Zr424 Zr 0.51239 1.02333 0.50492
 O425 O 0.42796 0.97216 0.47738
 O426 O 0.54642 1.03584 0.51943
 O427 O 0.49656 1.00046 0.47982
 O428 O 0.53049 0.98957 0.50533
 O429 O 0.51078 0.94771 0.51386
 O430 O 0.47574 0.95882 0.48739
 C431 C 0.48959 1.05505 0.54300
 C432 C 0.42255 1.01777 0.52008
 C433 C 0.50915 0.99174 0.58431
 O434 O 0.55917 0.99179 0.54571
 O435 O 0.55631 0.95271 0.52499
 O436 O 0.54789 0.94846 0.48685
 C437 C 0.56166 0.94512 0.50495
 O438 O 0.44580 0.93715 0.54504
 Zr439 Zr 0.47325 0.94251 0.51988
 O440 O 0.50968 0.92832 0.47367
 O441 O 0.53166 0.94009 0.55807
 O442 O 0.48566 0.91484 0.54349
 O443 O 0.44102 0.92728 0.50407
 O444 O 0.48482 0.91215 0.50142
 C445 C 0.49887 0.91016 0.48413
 O446 O 0.53957 0.97824 0.45772
 O447 O 0.45185 1.02618 0.46835
 O448 O 0.49874 0.96876 0.44776
 O449 O 0.46185 0.98755 0.45223
 O450 O 0.49938 1.05290 0.48378
 O451 O 0.53623 1.03004 0.47695
 C452 C 0.47845 0.97821 0.43985
 H453 H 0.46638 1.03374 0.50944
 H454 H 0.54812 0.99236 0.50182
 H455 H 0.46803 0.94817 0.47557
 H456 H 0.48688 0.95766 0.55992
 H457 H 0.54755 1.05392 0.51661
 H458 H 0.56841 0.98139 0.55700
 H459 H 0.54790 0.94212 0.56601
 H460 H 0.47612 0.89949 0.54029
 H461 H 0.50965 1.06769 0.48733
 H462 H 0.43562 1.02372 0.46050
 H463 H 0.41847 0.98241 0.46615
 H464 H 0.44078 0.90933 0.50770
 H465 H 0.54438 1.04642 0.47856
 H466 H 0.54321 0.96417 0.44780
 H467 H 0.44331 1.00101 0.57743
 H468 H 0.44053 0.91957 0.54563
 Zr469 Zr -0.02773 0.49651 1.03682
 O470 O -0.05270 0.48021 1.06031
 O471 O -0.02550 0.53300 1.04771
 O472 O -0.01227 0.49574 1.07056
 O473 O -0.07196 0.50574 0.99403
 O474 O 0.02545 0.47867 1.06617
 O475 O -0.06349 0.51151 1.03201
 O476 O 0.00128 0.55131 1.02266
 O477 O 0.00969 0.50547 1.03242
 O478 O -0.02535 0.51572 1.00545
 O479 O -0.00939 0.46256 1.03725
 O480 O -0.04362 0.47273 1.01214
 Zr481 Zr 0.01623 0.46757 0.97487
 Zr482 Zr 0.02761 0.47163 1.03108
 Zr483 Zr -0.03933 0.49185 0.98085
 Zr484 Zr 0.01179 0.52352 1.00054
 O485 O -0.06962 0.46966 0.96984
 O486 O 0.04464 0.53714 1.01648
 O487 O -0.00241 0.50140 0.97415
 O488 O 0.03169 0.49090 0.99986
 O489 O 0.01410 0.44776 1.00603
 O490 O -0.02104 0.45843 0.97952
 C491 C -0.01347 0.55173 1.03960
 C492 C -0.07766 0.51331 1.01395
 C493 C 0.00864 0.48779 1.07852
 O494 O 0.05938 0.49241 1.04077
 O495 O 0.05882 0.45439 1.01837
 O496 O 0.05148 0.45167 0.97990
 C497 C 0.06494 0.44804 0.99817
 O498 O -0.05067 0.43141 1.03555
 Zr499 Zr -0.02319 0.44010 1.01110
 O500 O 0.01468 0.43103 0.96443
 O501 O 0.03438 0.43889 1.05050
 O502 O -0.00924 0.41197 1.03342
 O503 O -0.05439 0.42406 0.99426
 O504 O -0.00970 0.41175 0.99092
 C505 C 0.00458 0.41171 0.97358
 O506 O 0.04240 0.48313 0.95209
 O507 O -0.04812 0.52504 0.96288
 O508 O 0.00207 0.47178 0.94071
 O509 O -0.03610 0.48780 0.94553
 O510 O -0.00214 0.55335 0.98029
 O511 O 0.03601 0.53287 0.97343
 C512 C -0.01878 0.48014 0.93296
 H513 H -0.03473 0.53123 1.00473
 H514 H 0.04925 0.49478 0.99682
 H515 H -0.02801 0.44810 0.96711
 H516 H -0.01133 0.45374 1.05216
 H517 H 0.04479 0.55534 1.01445
 H518 H 0.06897 0.48193 1.05175
 H519 H 0.05036 0.44136 1.05878
 H520 H -0.01756 0.39625 1.02918
 H521 H 0.00739 0.56839 0.98456
 H522 H -0.06410 0.52216 0.95472
 H523 H -0.07944 0.47989 0.95884
 H524 H -0.05356 0.40596 0.99686
 H525 H 0.04348 0.54939 0.97605
 H526 H 0.04702 0.46994 0.94154
 H527 H -0.05760 0.49339 1.07074
 H528 H -0.05451 0.41349 1.03541
 Zr529 Zr -0.02033 0.48704 0.47466
 O530 O -0.04508 0.49160 0.44636
 O531 O -0.01133 0.44974 0.47211
 O532 O -0.00274 0.48446 0.44249
 O533 O -0.06587 0.47921 0.51515
 O534 O 0.03150 0.50907 0.44674
 O535 O -0.05462 0.46804 0.47950
 O536 O 0.01757 0.44350 0.50057
 O537 O 0.01747 0.48741 0.48319
 O538 O -0.01711 0.47538 0.50900
 O539 O -0.00815 0.52373 0.46900
 O540 O -0.04153 0.51174 0.49331
 Zr541 Zr 0.01327 0.53775 0.53235
 Zr542 Zr 0.02910 0.52425 0.47923
 Zr543 Zr -0.03630 0.50070 0.52770
 Zr544 Zr 0.02027 0.47704 0.51779
 O545 O -0.06992 0.51847 0.53381
 O546 O 0.05627 0.46800 0.50765
 O547 O 0.00094 0.50105 0.53830
 O548 O 0.03403 0.51306 0.51355
 O549 O 0.01003 0.54980 0.49805
 O550 O -0.02443 0.53730 0.52372
 C551 C 0.00400 0.43618 0.48365
 C552 C -0.06977 0.46775 0.49634
 C553 C 0.01747 0.49449 0.43503
 O554 O 0.06468 0.50935 0.47623
 O555 O 0.05563 0.55046 0.48980
 O556 O 0.04660 0.55823 0.52691
 C557 C 0.06000 0.56114 0.50895
 O558 O -0.05379 0.54497 0.46189
 Zr559 Zr -0.02745 0.54787 0.48926
 O560 O 0.00497 0.57519 0.53436
 O561 O 0.03130 0.55294 0.45410
 O562 O -0.01683 0.57356 0.46320
 O563 O -0.06231 0.55938 0.50045
 O564 O -0.02166 0.58245 0.50423
 C565 C -0.00841 0.58944 0.52149
 O566 O 0.03913 0.53371 0.55984
 O567 O -0.04109 0.46953 0.54981
 O568 O -0.00307 0.53827 0.56533
 O569 O -0.03516 0.51070 0.56203
 O570 O 0.00932 0.44945 0.54202
 O571 O 0.04339 0.47864 0.54763
 C572 C -0.02125 0.52539 0.57368
 H573 H -0.02402 0.45858 0.51180
 H574 H 0.05166 0.51361 0.51835
 H575 H -0.03393 0.54828 0.53345
 H576 H -0.01034 0.52873 0.45267
 H577 H 0.05959 0.45097 0.51332
 H578 H 0.07308 0.51908 0.46402
 H579 H 0.04797 0.55231 0.44750
 H580 H -0.02828 0.58761 0.46348
 H581 H 0.02120 0.43579 0.54135
 H582 H -0.05766 0.47070 0.55651
 H583 H -0.07845 0.50853 0.54579
 H584 H -0.06486 0.57637 0.49434
 H585 H 0.05269 0.46312 0.54939
 H586 H 0.04050 0.54986 0.56750
 H587 H -0.04682 0.47536 0.43892
 H588 H -0.06069 0.56143 0.45825
 Zr589 Zr 0.47262 -0.00535 -0.02456
 O590 O 0.44656 0.00530 -0.05029
 O591 O 0.47770 -0.04246 -0.03192
 O592 O 0.48802 -0.00530 -0.05785
 O593 O 0.42989 -0.01724 0.01788
 O594 O 0.52295 0.01843 -0.05368
 O595 O 0.43787 -0.02325 -0.01977
 O596 O 0.50801 -0.05468 -0.00658
 O597 O 0.51081 -0.00835 -0.01897
 O598 O 0.47754 -0.02198 0.00788
 O599 O 0.48679 0.03101 -0.02659
 O600 O 0.45455 0.01743 -0.00148
 Zr601 Zr 0.51373 0.03420 0.03636
 Zr602 Zr 0.52458 0.02803 -0.01916
 Zr603 Zr 0.46148 0.00118 0.03092
 Zr604 Zr 0.51542 -0.02385 0.01387
 O605 O 0.42954 0.01957 0.04113
 O606 O 0.54926 -0.03349 -0.00081
 O607 O 0.49932 -0.00217 0.03872
 O608 O 0.53131 0.01158 0.01311
 O609 O 0.50878 0.05140 0.00413
 O610 O 0.47562 0.03717 0.03051
 C611 C 0.49216 -0.05868 -0.02284
 C612 C 0.42411 -0.02569 -0.00200
 C613 C 0.50751 0.00570 -0.06578
 O614 O 0.55855 0.01175 -0.02676
 O615 O 0.55331 0.05125 -0.00729
 O616 O 0.54745 0.05406 0.03114
 C617 C 0.55951 0.05911 0.01268
 O618 O 0.44237 0.05564 -0.02760
 Zr619 Zr 0.47082 0.05291 -0.00207
 O620 O 0.50839 0.07107 0.04403
 O621 O 0.52700 0.06001 -0.04056
 O622 O 0.48124 0.08149 -0.02551
 O623 O 0.43797 0.06485 0.01301
 O624 O 0.48048 0.08437 0.01688
 C625 C 0.49531 0.08786 0.03406
 O626 O 0.54110 0.02391 0.06101
 O627 O 0.45647 -0.03228 0.04982
 O628 O 0.49964 0.03187 0.07015
 O629 O 0.46561 0.00681 0.06614
 O630 O 0.50509 -0.05381 0.03583
 O631 O 0.54131 -0.02780 0.04154
 C632 C 0.48107 0.01945 0.07828
 H633 H 0.46968 -0.03854 0.00934
 H634 H 0.54922 0.01058 0.01663
 H635 H 0.46763 0.04719 0.04212
 H636 H 0.48366 0.03841 -0.04202
 H637 H 0.55166 -0.05134 0.00232
 H638 H 0.56662 0.02276 -0.03823
 H639 H 0.54305 0.05953 -0.04834
 H640 H 0.47108 0.09604 -0.02244
 H641 H 0.51588 -0.06783 0.03257
 H642 H 0.44055 -0.03119 0.05773
 H643 H 0.42125 0.00855 0.05245
 H644 H 0.43639 0.08270 0.00931
 H645 H 0.54999 -0.04362 0.04025
 H646 H 0.54447 0.03848 0.07065
 H647 H 0.44294 -0.00944 -0.05965
 H648 H 0.43657 0.07286 -0.02873
 Zr649 Zr 0.53803 0.51249 -0.03779
 O650 O 0.56317 0.49823 -0.06115
 O651 O 0.53683 0.54975 -0.04853
 O652 O 0.52332 0.51183 -0.07202
 O653 O 0.58216 0.51849 0.00587
 O654 O 0.48485 0.49496 -0.06752
 O655 O 0.57444 0.52664 -0.03211
 O656 O 0.51052 0.56639 -0.02335
 O657 O 0.50086 0.52130 -0.03363
 O658 O 0.53593 0.52988 -0.00624
 O659 O 0.51859 0.47851 -0.03829
 O660 O 0.55266 0.48732 -0.01291
 Zr661 Zr 0.49222 0.47989 0.02373
 Zr662 Zr 0.48184 0.48738 -0.03247
 Zr663 Zr 0.54859 0.50465 0.01851
 Zr664 Zr 0.49900 0.53740 -0.00153
 O665 O 0.57743 0.48154 0.03043
 O666 O 0.46673 0.55202 -0.01747
 O667 O 0.51192 0.51374 0.02487
 O668 O 0.47798 0.50478 -0.00116
 O669 O 0.49416 0.46209 -0.00759
 O670 O 0.52927 0.47104 0.01950
 C671 C 0.52529 0.56798 -0.04026
 C672 C 0.58849 0.52707 -0.01390
 C673 C 0.50239 0.50349 -0.07999
 O674 O 0.45145 0.50922 -0.04288
 O675 O 0.44956 0.47026 -0.02033
 O676 O 0.45637 0.46431 0.01808
 C677 C 0.44297 0.46233 -0.00043
 O678 O 0.55968 0.44784 -0.03565
 Zr679 Zr 0.53123 0.45457 -0.01221
 O680 O 0.49160 0.44263 0.03320
 O681 O 0.47376 0.45527 -0.05141
 O682 O 0.51814 0.42779 -0.03571
 O683 O 0.56064 0.43698 0.00589
 O684 O 0.51454 0.42489 0.00600
 C685 C 0.49982 0.42381 0.02303
 O686 O 0.46679 0.49447 0.04664
 O687 O 0.55894 0.53711 0.03611
 O688 O 0.50677 0.48066 0.05795
 O689 O 0.54407 0.50026 0.05387
 O690 O 0.51419 0.56572 0.01922
 O691 O 0.47465 0.54557 0.02522
 C692 C 0.52699 0.49040 0.06611
 H693 H 0.54590 0.54531 -0.00540
 H694 H 0.46053 0.50856 0.00171
 H695 H 0.53554 0.45994 0.03193
 H696 H 0.52049 0.47024 -0.05307
 H697 H 0.46724 0.57012 -0.01538
 H698 H 0.44145 0.49933 -0.05386
 H699 H 0.45797 0.45812 -0.05988
 H700 H 0.52612 0.41196 -0.03150
 H701 H 0.50561 0.58122 0.01495
 H702 H 0.57452 0.53362 0.04470
 H703 H 0.58737 0.49117 0.04165
 H704 H 0.55888 0.41906 0.00313
 H705 H 0.46856 0.56259 0.02299
 H706 H 0.46137 0.48063 0.05685
 H707 H 0.56849 0.51218 -0.07129
 H708 H 0.56382 0.43011 -0.03500
 Zr709 Zr 0.03713 1.00254 0.46459
 O710 O 0.06381 0.98508 0.44490
 O711 O 0.03513 1.03740 0.44832
 O712 O 0.02385 0.99710 0.43044
 O713 O 0.07850 1.01751 0.50850
 O714 O -0.01395 0.97886 0.43540
 O715 O 0.07277 1.01898 0.46966
 O716 O 0.00407 1.05546 0.46735
 O717 O -0.00060 1.01026 0.46589
 O718 O 0.03259 1.02508 0.49276
 O719 O 0.01884 0.96803 0.46789
 O720 O 0.05113 0.98219 0.49325
 Zr721 Zr -0.01097 0.97861 0.52759
 Zr722 Zr -0.01854 0.97624 0.47083
 Zr723 Zr 0.04473 1.00455 0.52130
 Zr724 Zr -0.00492 1.03160 0.49477
 O725 O 0.07414 0.98515 0.53744
 O726 O -0.03818 1.04206 0.47764
 O727 O 0.00741 1.01314 0.52479
 O728 O -0.02471 0.99854 0.49889
 O729 O -0.00688 0.95568 0.49954
 O730 O 0.02660 0.97065 0.52607
 C731 C 0.02014 1.05504 0.45151
 C732 C 0.08577 1.02286 0.48815
 C733 C 0.00353 0.98719 0.42273
 O734 O -0.04906 0.99502 0.45599
 O735 O -0.05120 0.96072 0.48375
 O736 O -0.04618 0.96118 0.52267
 C737 C -0.05874 0.95626 0.50417
 O738 O 0.06054 0.93922 0.47672
 Zr739 Zr 0.03072 0.94900 0.49756
 O740 O -0.01006 0.94380 0.54320
 O741 O -0.02437 0.94105 0.45649
 O742 O 0.01926 0.91833 0.47778
 O743 O 0.05995 0.93550 0.51884
 O744 O 0.01430 0.92221 0.51959
 C745 C -0.00052 0.92386 0.53642
 O746 O -0.03794 0.99611 0.54692
 O747 O 0.05217 1.04007 0.53443
 O748 O 0.00200 0.98473 0.56168
 O749 O 0.03895 1.00468 0.55661
 O750 O 0.00907 1.06458 0.50947
 O751 O -0.02943 1.04345 0.52008
 C752 C 0.02181 0.99569 0.56931
 H753 H 0.04182 1.04094 0.49144
 H754 H -0.04242 1.00217 0.50048
 H755 H 0.03282 0.96188 0.54003
 H756 H 0.02180 0.95769 0.45449
 H757 H -0.03855 1.06035 0.47711
 H758 H -0.05810 0.98308 0.44615
 H759 H -0.03963 0.94200 0.44688
 H760 H 0.02709 0.90347 0.48472
 H761 H -0.00003 1.07848 0.50217
 H762 H 0.06743 1.03887 0.54404
 H763 H 0.08304 0.99698 0.54749
 H764 H 0.05887 0.91723 0.51865
 H765 H -0.03548 1.06011 0.51586
 H766 H -0.04347 0.98394 0.55875
 H767 H 0.06924 0.99730 0.43307
 H768 H 0.06463 0.92167 0.47966
 Zr769 Zr 0.74375 0.27075 0.21654
 O770 O 0.75788 0.29764 0.19323
 O771 O 0.70688 0.26742 0.20551
 O772 O 0.74426 0.25711 0.18271
 O773 O 0.73324 0.31192 0.25949
 O774 O 0.76560 0.22133 0.18707
 O775 O 0.72759 0.30563 0.22119
 O776 O 0.69139 0.23665 0.22857
 O777 O 0.73776 0.23256 0.22009
 O778 O 0.72507 0.26495 0.24722
 O779 O 0.77909 0.25523 0.21701
 O780 O 0.76651 0.28663 0.24235
 Zr781 Zr 0.77713 0.22514 0.27871
 Zr782 Zr 0.77299 0.21733 0.22232
 Zr783 Zr 0.74803 0.27884 0.27292
 Zr784 Zr 0.72032 0.22698 0.25132
 O785 O 0.76807 0.30903 0.28684
 O786 O 0.70907 0.19432 0.23441
 O787 O 0.74177 0.24087 0.27859
 O788 O 0.75451 0.20976 0.25283
 O789 O 0.79640 0.23083 0.24829
 O790 O 0.78288 0.26331 0.27503
 C791 C 0.68925 0.25327 0.21262
 C792 C 0.72577 0.31875 0.23926
 C793 C 0.75428 0.23771 0.17474
 O794 O 0.75435 0.18508 0.21095
 O795 O 0.79141 0.18597 0.23495
 O796 O 0.79571 0.19162 0.27347
 C797 C 0.79879 0.17917 0.25517
 O798 O 0.80764 0.29772 0.21963
 Zr799 Zr 0.80077 0.26896 0.24415
 O800 O 0.81342 0.22936 0.29088
 O801 O 0.80623 0.21421 0.20435
 O802 O 0.83013 0.25767 0.22360
 O803 O 0.81339 0.30123 0.26097
 O804 O 0.82998 0.25834 0.26654
 C805 C 0.83135 0.24305 0.28371
 O806 O 0.76390 0.19637 0.30055
 O807 O 0.71391 0.28492 0.28868
 O808 O 0.77286 0.23676 0.31289
 O809 O 0.75039 0.27188 0.30832
 O810 O 0.69011 0.23757 0.27117
 O811 O 0.71297 0.20002 0.27741
 C812 C 0.76078 0.25497 0.32072
 H813 H 0.70904 0.27339 0.24757
 H814 H 0.75193 0.19180 0.25548
 H815 H 0.79251 0.27037 0.28800
 H816 H 0.78755 0.25877 0.20241
 H817 H 0.69093 0.19260 0.23583
 H818 H 0.76534 0.17709 0.20009
 H819 H 0.80486 0.19876 0.19560
 H820 H 0.84519 0.26688 0.22859
 H821 H 0.67547 0.22774 0.26612
 H822 H 0.71585 0.30028 0.29748
 H823 H 0.75694 0.31710 0.29751
 H824 H 0.83153 0.30238 0.25930
 H825 H 0.69659 0.19224 0.27444
 H826 H 0.77758 0.19203 0.31140
 H827 H 0.74410 0.30234 0.18263
 H828 H 0.82533 0.30257 0.22035
 Zr829 Zr 0.73900 0.72693 0.71183
 O830 O 0.72229 0.70121 0.68930
 O831 O 0.77492 0.72980 0.69954
 O832 O 0.73647 0.74196 0.67804
 O833 O 0.75150 0.68358 0.75469
 O834 O 0.71829 0.77912 0.68256
 O835 O 0.75521 0.69169 0.71638
 O836 O 0.79301 0.75879 0.72244
 O837 O 0.74695 0.76468 0.71537
 O838 O 0.75966 0.73039 0.74228
 O839 O 0.70454 0.74424 0.71253
 O840 O 0.71688 0.71074 0.73767
 Zr841 Zr 0.71168 0.77093 0.77440
 Zr842 Zr 0.71272 0.78159 0.71790
 Zr843 Zr 0.73741 0.71606 0.76805
 Zr844 Zr 0.76644 0.76785 0.74639
 O845 O 0.71685 0.68520 0.78041
 O846 O 0.77807 0.80133 0.73016
 O847 O 0.74608 0.75337 0.77392
 O848 O 0.73331 0.78669 0.74825
 O849 O 0.69043 0.76782 0.74413
 O850 O 0.70355 0.73332 0.77048
 C851 C 0.79333 0.74335 0.70603
 C852 C 0.75817 0.67781 0.73450
 C853 C 0.72761 0.76250 0.67012
 O854 O 0.73203 0.81378 0.70680
 O855 O 0.69560 0.81267 0.73094
 O856 O 0.69472 0.80579 0.76959
 C857 C 0.69019 0.81903 0.75132
 O858 O 0.67474 0.70214 0.71600
 Zr859 Zr 0.68373 0.73021 0.73977
 O860 O 0.67597 0.76777 0.78679
 O861 O 0.67886 0.78704 0.69990
 O862 O 0.65425 0.74301 0.71841
 O863 O 0.66944 0.69878 0.75763
 O864 O 0.65591 0.74311 0.76096
 C865 C 0.65653 0.75707 0.77853
 O866 O 0.72746 0.79782 0.79630
 O867 O 0.77169 0.70876 0.78469
 O868 O 0.71766 0.75731 0.80853
 O869 O 0.73466 0.71963 0.80349
 O870 O 0.79794 0.75485 0.76485
 O871 O 0.77644 0.79223 0.77319
 C872 C 0.72681 0.73677 0.81617
 H873 H 0.77547 0.72154 0.74236
 H874 H 0.73684 0.80439 0.75094
 H875 H 0.69405 0.72613 0.78337
 H876 H 0.69514 0.74182 0.69800
 H877 H 0.79633 0.80214 0.73137
 H878 H 0.72078 0.82284 0.69612
 H879 H 0.68046 0.80292 0.69126
 H880 H 0.63899 0.73431 0.72340
 H881 H 0.81236 0.76479 0.75964
 H882 H 0.76975 0.69282 0.79319
 H883 H 0.72793 0.67589 0.79108
 H884 H 0.65124 0.69901 0.75575
 H885 H 0.79273 0.79996 0.77003
 H886 H 0.71464 0.80218 0.80733
 H887 H 0.73507 0.69656 0.67836
 H888 H 0.65697 0.69777 0.71693
 Zr889 Zr 0.23569 0.22592 0.77406
 O890 O 0.24094 0.19973 0.80112
 O891 O 0.19844 0.23441 0.77795
 O892 O 0.23439 0.24166 0.80726
 O893 O 0.22670 0.18276 0.73141
 O894 O 0.26032 0.27514 0.80436
 O895 O 0.21692 0.19169 0.76806
 O896 O 0.19103 0.26429 0.75067
 O897 O 0.23581 0.26414 0.76747
 O898 O 0.22300 0.23105 0.74019
 O899 O 0.27257 0.23774 0.77910
 O900 O 0.25970 0.20592 0.75355
 Zr901 Zr 0.28466 0.26293 0.71650
 Zr902 Zr 0.27283 0.27551 0.77077
 Zr903 Zr 0.24765 0.21315 0.71973
 Zr904 Zr 0.22436 0.26886 0.73327
 O905 O 0.26520 0.18006 0.71132
 O906 O 0.21539 0.30381 0.74611
 O907 O 0.24775 0.25093 0.71107
 O908 O 0.26053 0.28241 0.73705
 O909 O 0.29772 0.25765 0.75028
 O910 O 0.28436 0.22479 0.72320
 C911 C 0.18424 0.24971 0.76711
 C912 C 0.21608 0.17758 0.75043
 C913 C 0.24606 0.26051 0.81577
 O914 O 0.25738 0.31032 0.77671
 O915 O 0.29794 0.30324 0.76052
 O916 O 0.30549 0.29587 0.72305
 C917 C 0.30845 0.30856 0.74147
 O918 O 0.29379 0.19172 0.78321
 Zr919 Zr 0.29593 0.21971 0.75719
 O920 O 0.32205 0.25480 0.71301
 O921 O 0.30310 0.27668 0.79430
 O922 O 0.32244 0.22856 0.78313
 O923 O 0.30697 0.18569 0.74374
 O924 O 0.32998 0.22657 0.74170
 C925 C 0.33659 0.24078 0.72495
 O926 O 0.27972 0.29036 0.69047
 O927 O 0.21578 0.20954 0.69833
 O928 O 0.28411 0.24851 0.68270
 O929 O 0.25639 0.21644 0.68515
 O930 O 0.19659 0.25940 0.70869
 O931 O 0.22486 0.29432 0.70503
 C932 C 0.27081 0.23093 0.67380
 H933 H 0.20620 0.22416 0.73743
 H934 H 0.26090 0.30028 0.73316
 H935 H 0.29500 0.21591 0.71267
 H936 H 0.27825 0.23449 0.79509
 H937 H 0.19815 0.30730 0.74125
 H938 H 0.26769 0.31812 0.78886
 H939 H 0.30274 0.29285 0.80188
 H940 H 0.33638 0.21711 0.78185
 H941 H 0.18274 0.27088 0.71035
 H942 H 0.21671 0.19340 0.69076
 H943 H 0.25490 0.17226 0.69916
 H944 H 0.32416 0.18280 0.74916
 H945 H 0.20925 0.30355 0.70436
 H946 H 0.29559 0.29220 0.68238
 H947 H 0.22488 0.19753 0.80882
 H948 H 0.31028 0.18448 0.78588
 Zr949 Zr 0.26288 0.78620 0.28396
 O950 O 0.24856 0.81094 0.30766
 O951 O 0.29971 0.78373 0.29549
 O952 O 0.26162 0.77050 0.31778
 O953 O 0.27063 0.83125 0.24137
 O954 O 0.24375 0.73262 0.31230
 O955 O 0.27772 0.82256 0.27935
 O956 O 0.31571 0.75603 0.27126
 O957 O 0.27088 0.74895 0.27908
 O958 O 0.28103 0.78450 0.25277
 O959 O 0.22853 0.76742 0.28355
 O960 O 0.23859 0.80195 0.25899
 Zr961 Zr 0.23071 0.74264 0.22087
 Zr962 Zr 0.23671 0.73064 0.27703
 Zr963 Zr 0.25654 0.79827 0.22784
 Zr964 Zr 0.28771 0.74750 0.24731
 O965 O 0.23456 0.82812 0.21619
 O966 O 0.30099 0.71373 0.26144
 O967 O 0.26499 0.76162 0.22075
 O968 O 0.25469 0.72722 0.24593
 O969 O 0.21227 0.74414 0.25195
 O970 O 0.22256 0.77972 0.22586
 C971 C 0.31730 0.77042 0.28844
 C972 C 0.27866 0.83707 0.26145
 C973 C 0.25283 0.74952 0.32522
 O974 O 0.25778 0.69965 0.28729
 O975 O 0.21955 0.69887 0.26386
 O976 O 0.21436 0.70693 0.22552
 C977 C 0.21198 0.69299 0.24365
 O978 O 0.19892 0.80928 0.28122
 Zr979 Zr 0.20547 0.78124 0.25732
 O980 O 0.19367 0.74319 0.21072
 O981 O 0.20396 0.72277 0.29509
 O982 O 0.17794 0.76819 0.28009
 O983 O 0.18882 0.81142 0.23954
 O984 O 0.17590 0.76560 0.23831
 C985 C 0.17485 0.75140 0.22091
 O986 O 0.24511 0.71741 0.19766
 O987 O 0.28965 0.80792 0.21100
 O988 O 0.23272 0.75793 0.18691
 O989 O 0.25206 0.79508 0.19236
 O990 O 0.31759 0.76313 0.22878
 O991 O 0.29593 0.72482 0.21933
 C992 C 0.24244 0.77848 0.17940
 H993 H 0.29674 0.79407 0.25266
 H994 H 0.25821 0.70980 0.24268
 H995 H 0.21185 0.78658 0.21340
 H996 H 0.22005 0.76912 0.29826
 H997 H 0.31911 0.71376 0.25957
 H998 H 0.24745 0.68954 0.29783
 H999 H 0.20638 0.70682 0.30343
 H1000 H 0.16238 0.77663 0.27578
 H1001 H 0.33259 0.75388 0.23338
 H1002 H 0.28684 0.82384 0.20273
 H1003 H 0.24468 0.83809 0.20536
 H1004 H 0.17082 0.80997 0.24201
 H1005 H 0.31291 0.71855 0.22129
 H1006 H 0.23135 0.71259 0.18710
 H1007 H 0.26237 0.81570 0.31818
 H1008 H 0.18130 0.81382 0.28039
 Zr1009 Zr 0.23164 0.77136 0.71421
 O1010 O 0.24466 0.79853 0.69059
 O1011 O 0.19469 0.76689 0.70341
 O1012 O 0.23249 0.75799 0.68023
 O1013 O 0.22286 0.81300 0.75721
 O1014 O 0.25363 0.72204 0.68458
 O1015 O 0.21559 0.80631 0.71918
 O1016 O 0.18050 0.73575 0.72680
 O1017 O 0.22585 0.73316 0.71829
 O1018 O 0.21384 0.76583 0.74538
 O1019 O 0.26699 0.75581 0.71405
 O1020 O 0.25520 0.78739 0.73938
 Zr1021 Zr 0.26684 0.72622 0.77605
 Zr1022 Zr 0.26104 0.71792 0.71977
 Zr1023 Zr 0.23767 0.77990 0.77048
 Zr1024 Zr 0.20938 0.72788 0.75006
 O1025 O 0.25817 0.81016 0.78372
 O1026 O 0.19780 0.69421 0.73506
 O1027 O 0.23155 0.74202 0.77671
 O1028 O 0.24351 0.71060 0.75083
 O1029 O 0.28504 0.73167 0.74503
 O1030 O 0.27263 0.76434 0.77191
 C1031 C 0.17786 0.75164 0.71032
 C1032 C 0.21475 0.81973 0.73717
 C1033 C 0.24275 0.73870 0.67228
 O1034 O 0.24162 0.68596 0.70882
 O1035 O 0.27972 0.68661 0.73215
 O1036 O 0.28492 0.69241 0.77057
 C1037 C 0.28765 0.67991 0.75222
 O1038 O 0.29484 0.79935 0.71654
 Zr1039 Zr 0.28946 0.76972 0.74049
 O1040 O 0.30378 0.72964 0.78644
 O1041 O 0.29398 0.71429 0.70142
 O1042 O 0.31769 0.75974 0.71804
 O1043 O 0.30359 0.80094 0.75803
 O1044 O 0.31980 0.75709 0.76039
 C1045 C 0.32185 0.74172 0.77745
 O1046 O 0.25413 0.69799 0.79873
 O1047 O 0.20396 0.78613 0.78689
 O1048 O 0.26407 0.73859 0.81026
 O1049 O 0.24119 0.77346 0.80590
 O1050 O 0.17918 0.73939 0.76946
 O1051 O 0.20278 0.70217 0.77738
 C1052 C 0.25220 0.75690 0.81826
 H1053 H 0.19774 0.77414 0.74576
 H1054 H 0.24096 0.69268 0.75371
 H1055 H 0.28289 0.77129 0.78453
 H1056 H 0.27517 0.75934 0.69931
 H1057 H 0.17976 0.69240 0.73713
 H1058 H 0.25235 0.67767 0.69793
 H1059 H 0.29228 0.69889 0.69265
 H1060 H 0.33286 0.76909 0.72247
 H1061 H 0.16458 0.72928 0.76482
 H1062 H 0.20615 0.80154 0.79559
 H1063 H 0.24734 0.81841 0.79455
 H1064 H 0.32164 0.80168 0.75568
 H1065 H 0.18610 0.69469 0.77544
 H1066 H 0.26819 0.69365 0.80914
 H1067 H 0.23056 0.80296 0.68026
 H1068 H 0.31235 0.80486 0.71710
 Zr1069 Zr 0.24766 0.22803 0.20996
 O1070 O 0.23497 0.20167 0.18603
 O1071 O 0.28428 0.23409 0.20021
 O1072 O 0.24679 0.24341 0.17624
 O1073 O 0.25934 0.18505 0.25328
 O1074 O 0.22395 0.27819 0.17928
 O1075 O 0.26552 0.19369 0.21539
 O1076 O 0.29759 0.26504 0.22353
 O1077 O 0.25215 0.26619 0.21412
 O1078 O 0.26566 0.23267 0.24163
 O1079 O 0.21179 0.24249 0.20849
 O1080 O 0.22481 0.20999 0.23424
 Zr1081 Zr 0.21208 0.26907 0.27059
 Zr1082 Zr 0.21646 0.28028 0.21434
 Zr1083 Zr 0.24249 0.21649 0.26584
 Zr1084 Zr 0.26898 0.27050 0.24632
 O1085 O 0.22342 0.18420 0.27712
 O1086 O 0.27918 0.30538 0.23192
 O1087 O 0.24776 0.25420 0.27238
 O1088 O 0.23434 0.28668 0.24590
 O1089 O 0.19344 0.26459 0.23906
 O1090 O 0.20715 0.23106 0.26615
 C1091 C 0.30053 0.24987 0.20727
 C1092 C 0.26759 0.17968 0.23353
 C1093 C 0.23606 0.26273 0.16770
 O1094 O 0.23439 0.31361 0.20421
 O1095 O 0.19613 0.30989 0.22636
 O1096 O 0.19345 0.30289 0.26490
 C1097 C 0.18908 0.31581 0.24641
 O1098 O 0.18522 0.19806 0.21019
 Zr1099 Zr 0.19002 0.22668 0.23427
 O1100 O 0.17539 0.26400 0.27971
 O1101 O 0.18337 0.28349 0.19465
 O1102 O 0.16133 0.23713 0.21091
 O1103 O 0.17690 0.19424 0.25132
 O1104 O 0.15949 0.23737 0.25332
 C1105 C 0.15742 0.25200 0.27022
 O1106 O 0.22408 0.29646 0.29382
 O1107 O 0.27616 0.21156 0.28430
 O1108 O 0.21614 0.25528 0.30495
 O1109 O 0.23690 0.21937 0.30096
 O1110 O 0.30029 0.25929 0.26609
 O1111 O 0.27479 0.29463 0.27420
 C1112 C 0.22648 0.23551 0.31310
 H1113 H 0.28210 0.22500 0.24255
 H1114 H 0.23632 0.30453 0.24883
 H1115 H 0.19714 0.22316 0.27836
 H1116 H 0.20369 0.23941 0.19344
 H1117 H 0.29717 0.30771 0.23464
 H1118 H 0.22313 0.32205 0.19309
 H1119 H 0.18436 0.29948 0.18610
 H1120 H 0.14643 0.22721 0.21485
 H1121 H 0.31419 0.27052 0.26196
 H1122 H 0.27485 0.19545 0.29260
 H1123 H 0.23446 0.17560 0.28833
 H1124 H 0.15886 0.19307 0.24829
 H1125 H 0.29099 0.30316 0.27273
 H1126 H 0.21005 0.29973 0.30390
 H1127 H 0.24901 0.19823 0.17603
 H1128 H 0.16780 0.19226 0.21000
 Zr1129 Zr 0.74490 0.71529 0.28101
 O1130 O 0.75566 0.68987 0.30727
 O1131 O 0.70758 0.71962 0.28770
 O1132 O 0.74294 0.73110 0.31410
 O1133 O 0.73762 0.67148 0.23884
 O1134 O 0.76404 0.76767 0.30985
 O1135 O 0.72859 0.67971 0.27583
 O1136 O 0.69493 0.74822 0.26090
 O1137 O 0.73976 0.75304 0.27420
 O1138 O 0.72970 0.71848 0.24783
 O1139 O 0.78017 0.73189 0.28427
 O1140 O 0.77017 0.69831 0.25948
 Zr1141 Zr 0.78514 0.75761 0.22093
 Zr1142 Zr 0.77503 0.76919 0.27573
 Zr1143 Zr 0.75532 0.70352 0.22629
 Zr1144 Zr 0.72581 0.75593 0.24064
 O1145 O 0.77595 0.67211 0.21850
 O1146 O 0.71337 0.79001 0.25284
 O1147 O 0.74992 0.74078 0.21726
 O1148 O 0.76006 0.77414 0.24263
 O1149 O 0.80077 0.75452 0.25401
 O1150 O 0.79031 0.71996 0.22795
 C1151 C 0.69122 0.73360 0.27820
 C1152 C 0.72796 0.66564 0.25816
 C1153 C 0.75214 0.75153 0.32191
 O1154 O 0.75561 0.80179 0.28208
 O1155 O 0.79602 0.79951 0.26394
 O1156 O 0.80319 0.79227 0.22638
 C1157 C 0.80537 0.80552 0.24450
 O1158 O 0.80773 0.68925 0.28747
 Zr1159 Zr 0.80450 0.71692 0.26124
 O1160 O 0.82270 0.75438 0.21502
 O1161 O 0.80591 0.77459 0.29800
 O1162 O 0.83096 0.72971 0.28571
 O1163 O 0.81951 0.68467 0.24751
 O1164 O 0.83639 0.72836 0.24365
 C1165 C 0.83980 0.74288 0.22622
 O1166 O 0.77460 0.78408 0.19550
 O1167 O 0.72356 0.69669 0.20548
 O1168 O 0.78501 0.74290 0.18731
 O1169 O 0.76402 0.70632 0.19164
 O1170 O 0.69724 0.74257 0.21856
 O1171 O 0.72161 0.77998 0.21159
 C1172 C 0.77563 0.72256 0.17946
 H1173 H 0.71357 0.70982 0.24605
 H1174 H 0.75804 0.79184 0.23857
 H1175 H 0.80153 0.71235 0.21708
 H1176 H 0.78700 0.72961 0.30003
 H1177 H 0.69555 0.79113 0.24886
 H1178 H 0.76552 0.81105 0.29360
 H1179 H 0.80382 0.79070 0.30538
 H1180 H 0.84635 0.72049 0.28360
 H1181 H 0.68243 0.75255 0.22106
 H1182 H 0.72593 0.68064 0.19810
 H1183 H 0.76623 0.66286 0.20684
 H1184 H 0.83724 0.68440 0.25201
 H1185 H 0.70500 0.78729 0.21152
 H1186 H 0.78944 0.78801 0.18638
 H1187 H 0.74070 0.68576 0.31616
 H1188 H 0.82525 0.68462 0.28949
 Zr1189 Zr 0.75641 0.29281 0.78536
 O1190 O 0.73660 0.31805 0.80473
 O1191 O 0.79108 0.29363 0.80196
 O1192 O 0.75166 0.27909 0.81956
 O1193 O 0.76883 0.33504 0.74140
 O1194 O 0.73632 0.24006 0.81452
 O1195 O 0.77032 0.32947 0.78027
 O1196 O 0.81207 0.26439 0.78305
 O1197 O 0.76715 0.25585 0.78429
 O1198 O 0.77957 0.28999 0.75736
 O1199 O 0.72346 0.27193 0.78181
 O1200 O 0.73540 0.30519 0.75648
 Zr1201 Zr 0.73709 0.24295 0.72229
 Zr1202 Zr 0.73466 0.23535 0.77909
 Zr1203 Zr 0.75847 0.30046 0.72861
 Zr1204 Zr 0.78914 0.25318 0.75560
 O1205 O 0.73700 0.32835 0.71242
 O1206 O 0.80191 0.22101 0.77317
 O1207 O 0.77007 0.26397 0.72537
 O1208 O 0.75771 0.23086 0.75124
 O1209 O 0.71366 0.24542 0.75019
 O1210 O 0.72611 0.27974 0.72356
 C1211 C 0.80999 0.28027 0.79889
 C1212 C 0.77352 0.34264 0.76176
 C1213 C 0.74313 0.25810 0.82722
 O1214 O 0.75560 0.20633 0.79401
 O1215 O 0.72137 0.20185 0.76610
 O1216 O 0.72225 0.20660 0.72717
 C1217 C 0.71758 0.19396 0.74570
 O1218 O 0.69164 0.31131 0.77252
 Zr1219 Zr 0.70395 0.28231 0.75192
 O1220 O 0.70206 0.24007 0.70724
 O1221 O 0.69985 0.22685 0.79327
 O1222 O 0.67393 0.26858 0.77142
 O1223 O 0.68851 0.31035 0.73039
 O1224 O 0.67877 0.26384 0.72980
 C1225 C 0.68132 0.24814 0.71377
 O1226 O 0.75702 0.21757 0.70319
 O1227 O 0.79345 0.31048 0.71554
 O1228 O 0.74244 0.25641 0.68809
 O1229 O 0.75912 0.29483 0.69331
 O1230 O 0.82107 0.26959 0.74092
 O1231 O 0.80324 0.22950 0.73065
 C1232 C 0.75176 0.27710 0.68048
 H1233 H 0.79469 0.30040 0.75873
 H1234 H 0.76267 0.21348 0.74976
 H1235 H 0.71695 0.28513 0.70951
 H1236 H 0.71273 0.27408 0.79510
 H1237 H 0.82018 0.22211 0.77395
 H1238 H 0.74425 0.19637 0.80373
 H1239 H 0.70185 0.21167 0.80289
 H1240 H 0.65860 0.27532 0.76437
 H1241 H 0.83561 0.26168 0.74838
 H1242 H 0.79119 0.32565 0.70597
 H1243 H 0.74819 0.33813 0.70240
 H1244 H 0.67036 0.30785 0.73039
 H1245 H 0.82025 0.22472 0.73515
 H1246 H 0.74543 0.21100 0.69134
 H1247 H 0.74821 0.32441 0.81665
 H1248 H 0.67386 0.31407 0.76938
 C1249 C 0.45217 1.00291 0.34642
 C1250 C 0.46271 0.99484 0.32623
 C1251 C 0.45215 1.00124 0.30480
 C1252 C 0.43110 1.01623 0.30305
 C1253 C 0.42158 1.02532 0.32341
 C1254 C 0.43212 1.01895 0.34469
 C1255 C 0.46009 0.99297 0.36929
 C1256 C 0.44203 0.98492 0.38474
 C1257 C 0.44848 0.97825 0.40721
 C1258 C 0.47320 0.97933 0.41488
 C1259 C 0.49162 0.98551 0.39906
 C1260 C 0.48509 0.99227 0.37633
 H1261 H 0.45946 0.99302 0.28971
 H1262 H 0.40491 1.03597 0.32327
 H1263 H 0.43392 0.97328 0.41895
 H1264 H 0.51079 0.98667 0.40461
 H1265 H 0.42375 1.02564 0.36000
 H1266 H 0.42270 0.98454 0.37961
 H1267 H 0.47805 0.98228 0.32708
 H1268 H 0.49938 0.99819 0.36466
 C1269 C -0.04778 0.50625 0.84050
 C1270 C -0.03710 0.49980 0.81985
 C1271 C -0.04856 0.50619 0.79880
 C1272 C -0.07065 0.51968 0.79791
 C1273 C -0.08042 0.52714 0.81876
 C1274 C -0.06903 0.52072 0.83966
 C1275 C -0.03873 0.49602 0.86293
 C1276 C -0.05586 0.48556 0.87813
 C1277 C -0.04866 0.47855 0.90033
 C1278 C -0.02410 0.48177 0.90800
 C1279 C -0.00643 0.49044 0.89235
 C1280 C -0.01371 0.49750 0.86987
 H1281 H -0.04097 0.49913 0.78331
 H1282 H -0.09785 0.53649 0.81923
 H1283 H -0.06264 0.47167 0.91194
 H1284 H 0.01258 0.49326 0.89791
 H1285 H -0.07759 0.52608 0.85535
 H1286 H -0.07512 0.48354 0.87305
 H1287 H -0.02087 0.48841 0.82003
 H1288 H -0.00011 0.50532 0.85837
 C1289 C 0.04424 0.00528 0.83733
 C1290 C 0.06411 -0.01091 0.83674
 C1291 C 0.07534 -0.01584 0.81614
 C1292 C 0.06674 -0.00504 0.79536
 C1293 C 0.04620 0.01065 0.79602
 C1294 C 0.03485 0.01545 0.81674
 C1295 C 0.03535 0.01315 0.85974
 C1296 C 0.01030 0.01134 0.86542
 C1297 C 0.00311 0.01523 0.88802
 C1298 C 0.02096 0.02100 0.90497
 C1299 C 0.04557 0.02489 0.89865
 C1300 C 0.05268 0.02100 0.87631
 H1301 H 0.09174 -0.02691 0.81694
 H1302 H 0.03972 0.02040 0.78073
 H1303 H -0.01595 0.01199 0.89256
 H1304 H 0.05964 0.02961 0.91136
 H1305 H 0.01976 0.02829 0.81686
 H1306 H -0.00338 0.00546 0.85279
 H1307 H 0.07169 -0.01894 0.85249
 H1308 H 0.07200 0.02311 0.87218
 C1309 C 0.54644 0.49739 0.33626
 C1310 C 0.56830 0.48393 0.33597
 C1311 C 0.57980 0.47953 0.31541
 C1312 C 0.56957 0.48802 0.29436
 C1313 C 0.54707 0.50077 0.29465
 C1314 C 0.53546 0.50512 0.31540
 C1315 C 0.53689 0.50499 0.35857
 C1316 C 0.51223 0.50053 0.36470
 C1317 C 0.50490 0.50429 0.38730
 C1318 C 0.52219 0.51256 0.40383
 C1319 C 0.54618 0.51893 0.39704
 C1320 C 0.55342 0.51524 0.37469
 H1321 H 0.59756 0.47070 0.31624
 H1322 H 0.53908 0.50869 0.27909
 H1323 H 0.48633 0.49914 0.39220
 H1324 H 0.55979 0.52562 0.40939
 H1325 H 0.51874 0.51579 0.31525
 H1326 H 0.49914 0.49275 0.35246
 H1327 H 0.57710 0.47769 0.35186
 H1328 H 0.57236 0.51940 0.37023
 C1329 C 0.55928 0.48941 0.16146
 C1330 C 0.58219 0.50090 0.16673
 C1331 C 0.59149 0.50135 0.18932
 C1332 C 0.57824 0.49018 0.20727
 C1333 C 0.55571 0.47803 0.20188
 C1334 C 0.54632 0.47777 0.17936
 C1335 C 0.54888 0.48999 0.13749
 C1336 C 0.53514 0.46990 0.12850
 C1337 C 0.52657 0.47034 0.10557
 C1338 C 0.53185 0.49075 0.09118
 C1339 C 0.54470 0.51110 0.10040
 C1340 C 0.55291 0.51082 0.12321
 H1341 H 0.60884 0.51087 0.19270
 H1342 H 0.54521 0.46852 0.21503
 H1343 H 0.51693 0.45432 0.09882
 H1344 H 0.54883 0.52721 0.08974
 H1345 H 0.52863 0.46882 0.17610
 H1346 H 0.53175 0.45347 0.13891
 H1347 H 0.59305 0.50959 0.15336
 H1348 H 0.56265 0.52695 0.12959
 C1349 C 0.05450 0.99683 0.66415
 C1350 C 0.07925 1.00385 0.66834
 C1351 C 0.08933 1.00371 0.69064
 C1352 C 0.07495 0.99655 0.70962
 C1353 C 0.05016 0.98914 0.70506
 C1354 C 0.04018 0.98931 0.68278
 C1355 C 0.04372 0.99757 0.64043
 C1356 C 0.02732 0.97893 0.63264
 C1357 C 0.01871 0.97898 0.60977
 C1358 C 0.02647 0.99760 0.59431
 C1359 C 0.04182 1.01681 0.60244
 C1360 C 0.05026 1.01684 0.62517
 H1361 H 0.10820 1.01011 0.69266
 H1362 H 0.03819 0.98242 0.71843
 H1363 H 0.00713 0.96381 0.60391
 H1364 H 0.04794 1.03157 0.59097
 H1365 H 0.02104 0.98379 0.68020
 H1366 H 0.02197 0.96375 0.64394
 H1367 H 0.09097 1.00944 0.65430
 H1368 H 0.06224 1.03184 0.63072
 C1369 C -0.05807 0.52747 0.66613
 C1370 C -0.07944 0.51304 0.67040
 C1371 C -0.08943 0.51142 0.69232
 C1372 C -0.07837 0.52420 0.71059
 C1373 C -0.05755 0.53938 0.70615
 C1374 C -0.04754 0.54099 0.68421
 C1375 C -0.04639 0.52733 0.64316
 C1376 C -0.03601 0.54885 0.63290
 C1377 C -0.02644 0.54837 0.61065
 C1378 C -0.02721 0.52638 0.59835
 C1379 C -0.03646 0.50479 0.60913
 C1380 C -0.04580 0.50522 0.63115
 H1381 H -0.10539 0.49953 0.69504
 H1382 H -0.04884 0.55000 0.71966
 H1383 H -0.01954 0.56530 0.60272
 H1384 H -0.03696 0.48744 0.60025
 H1385 H -0.03111 0.55225 0.68160
 H1386 H -0.03611 0.56620 0.64172
 H1387 H -0.08838 0.50275 0.65677
 H1388 H -0.05281 0.48815 0.63871
 C1389 C 0.44666 0.02019 0.17141
 C1390 C 0.42458 0.00690 0.17561
 C1391 C 0.41432 0.00612 0.19741
 C1392 C 0.42575 0.01870 0.21563
 C1393 C 0.44745 0.03258 0.21130
 C1394 C 0.45778 0.03328 0.18950
 C1395 C 0.45811 0.01984 0.14836
 C1396 C 0.46971 0.04099 0.13862
 C1397 C 0.47876 0.04070 0.11622
 C1398 C 0.47616 0.01934 0.10316
 C1399 C 0.46568 -0.00201 0.11332
 C1400 C 0.45695 -0.00182 0.13559
 H1401 H 0.39774 -0.00488 0.20006
 H1402 H 0.45653 0.04300 0.22475
 H1403 H 0.48654 0.05747 0.10872
 H1404 H 0.46368 -0.01885 0.10374
 H1405 H 0.47478 0.04365 0.18697
 H1406 H 0.47090 0.05803 0.14793
 H1407 H 0.41516 -0.00299 0.16199
 H1408 H 0.44892 -0.01866 0.14271
 C1409 C 0.34841 0.41004 -0.00255
 C1410 C 0.32678 0.42186 -0.01026
 C1411 C 0.30445 0.40873 -0.01259
 C1412 C 0.30288 0.38335 -0.00687
 C1413 C 0.32483 0.37140 0.00007
 C1414 C 0.34718 0.38459 0.00248
 C1415 C 0.37233 0.42404 -0.00100
 C1416 C 0.38938 0.41999 0.01725
 C1417 C 0.41208 0.43296 0.01808
 C1418 C 0.41826 0.45000 0.00052
 C1419 C 0.40101 0.45419 -0.01748
 C1420 C 0.37844 0.44145 -0.01820
 H1421 H 0.28868 0.41870 -0.01921
 H1422 H 0.32470 0.35174 0.00379
 H1423 H 0.42501 0.42918 0.03207
 H1424 H 0.40507 0.46718 -0.03131
 H1425 H 0.36362 0.37476 0.00783
 H1426 H 0.38515 0.40682 0.03088
 H1427 H 0.32708 0.44142 -0.01448
 H1428 H 0.36599 0.44481 -0.03266
 C1429 C -0.15477 0.90726 0.50276
 C1430 C -0.17648 0.91989 0.49666
 C1431 C -0.19903 0.90719 0.49387
 C1432 C -0.20062 0.88137 0.49725
 C1433 C -0.17863 0.86876 0.50276
 C1434 C -0.15613 0.88151 0.50576
 C1435 C -0.13061 0.92075 0.50449
 C1436 C -0.11325 0.91547 0.52221
 C1437 C -0.09012 0.92768 0.52292
 C1438 C -0.08384 0.94502 0.50567
 C1439 C -0.10140 0.95050 0.48827
 C1440 C -0.12445 0.93865 0.48775
 H1441 H -0.21490 0.91787 0.48875
 H1442 H -0.17889 0.84885 0.50491
 H1443 H -0.07689 0.92296 0.53642
 H1444 H -0.09716 0.96382 0.47475
 H1445 H -0.13966 0.87115 0.50990
 H1446 H -0.11753 0.90184 0.53544
 H1447 H -0.17602 0.93974 0.49403
 H1448 H -0.13721 0.94298 0.47375
 C1449 C -0.16132 0.09292 0.99151
 C1450 C -0.18360 0.08124 0.99781
 C1451 C -0.20533 0.09469 0.99934
 C1452 C -0.20547 0.12029 0.99436
 C1453 C -0.18290 0.13190 0.98850
 C1454 C -0.16126 0.11842 0.98686
 C1455 C -0.13795 0.07882 0.99103
 C1456 C -0.12057 0.08317 0.97374
 C1457 C -0.09819 0.07046 0.97404
 C1458 C -0.09263 0.05335 0.99180
 C1459 C -0.11021 0.04885 1.00886
 C1460 C -0.13254 0.06134 1.00845
 H1461 H -0.22168 0.08483 1.00486
 H1462 H -0.18199 0.15165 0.98525
 H1463 H -0.08506 0.07441 0.96068
 H1464 H -0.10666 0.03576 1.02279
 H1465 H -0.14431 0.12812 0.98252
 H1466 H -0.12430 0.09640 0.95997
 H1467 H -0.18425 0.06160 1.00162
 H1468 H -0.14531 0.05777 1.02219
 C1469 C 0.34116 0.58394 0.49191
 C1470 C 0.31788 0.57281 0.49527
 C1471 C 0.29673 0.58718 0.49687
 C1472 C 0.29835 0.61317 0.49526
 C1473 C 0.32191 0.62414 0.49250
 C1474 C 0.34292 0.60978 0.49058
 C1475 C 0.36376 0.56880 0.49072
 C1476 C 0.38181 0.57418 0.47428
 C1477 C 0.40378 0.56088 0.47418
 C1478 C 0.40832 0.54219 0.49075
 C1479 C 0.38999 0.53648 0.50683
 C1480 C 0.36793 0.54950 0.50671
 H1481 H 0.27941 0.57761 0.49958
 H1482 H 0.32404 0.64405 0.49168
 H1483 H 0.41757 0.56583 0.46167
 H1484 H 0.39289 0.52216 0.51981
 H1485 H 0.36066 0.61894 0.48851
 H1486 H 0.37901 0.58885 0.46163
 H1487 H 0.31599 0.55290 0.49649
 H1488 H 0.35448 0.54504 0.51967
 C1489 C 0.15534 0.61089 0.50740
 C1490 C 0.16090 0.63226 0.49419
 C1491 C 0.18544 0.64019 0.49129
 C1492 C 0.20502 0.62674 0.50121
 C1493 C 0.19941 0.60567 0.51479
 C1494 C 0.17492 0.59790 0.51790
 C1495 C 0.12950 0.60107 0.50889
 C1496 C 0.12032 0.59090 0.52952
 C1497 C 0.09697 0.57923 0.53006
 C1498 C 0.08254 0.57713 0.50988
 C1499 C 0.09132 0.58823 0.48953
 C1500 C 0.11438 0.60014 0.48907
 H1501 H 0.18910 0.65651 0.48082
 H1502 H 0.21399 0.59515 0.52311
 H1503 H 0.09078 0.57077 0.54595
 H1504 H 0.08062 0.58702 0.47369
 H1505 H 0.17135 0.58126 0.52799
 H1506 H 0.13145 0.59152 0.54514
 H1507 H 0.14624 0.64277 0.48598
 H1508 H 0.12089 0.60757 0.47288
 C1509 C 0.65381 0.11134 0.01093
 C1510 C 0.65754 0.13545 0.00212
 C1511 C 0.68148 0.14512 -0.00108
 C1512 C 0.70248 0.13068 0.00387
 C1513 C 0.69841 0.10655 0.01295
 C1514 C 0.67456 0.09718 0.01656
 C1515 C 0.62850 0.10025 0.01282
 C1516 C 0.62156 0.08619 0.03232
 C1517 C 0.59855 0.07381 0.03296
 C1518 C 0.58229 0.07479 0.01389
 C1519 C 0.58898 0.08946 -0.00527
 C1520 C 0.61165 0.10218 -0.00572
 H1521 H 0.68316 0.16351 -0.00846
 H1522 H 0.71361 0.09480 0.01796
 H1523 H 0.59398 0.06260 0.04791
 H1524 H 0.57682 0.09069 -0.02021
 H1525 H 0.67233 0.07849 0.02326
 H1526 H 0.63412 0.08446 0.04693
 H1527 H 0.64187 0.14682 -0.00244
 H1528 H 0.61647 0.11267 -0.02104
 C1529 C 0.65670 0.89745 0.49717
 C1530 C 0.66060 0.87668 0.48371
 C1531 C 0.68421 0.86653 0.48235
 C1532 C 0.70453 0.87709 0.49417
 C1533 C 0.70052 0.89779 0.50765
 C1534 C 0.67704 0.90782 0.50908
 C1535 C 0.63169 0.90840 0.49909
 C1536 C 0.62397 0.91715 0.52023
 C1537 C 0.60125 0.92871 0.52206
 C1538 C 0.58543 0.93191 0.50281
 C1539 C 0.59284 0.92264 0.48172
 C1540 C 0.61567 0.91099 0.47990
 H1541 H 0.68660 0.85062 0.47180
 H1542 H 0.71551 0.90617 0.51743
 H1543 H 0.59622 0.93534 0.53865
 H1544 H 0.58114 0.92464 0.46654
 H1545 H 0.67487 0.92395 0.51942
 H1546 H 0.63556 0.91506 0.53547
 H1547 H 0.64533 0.86809 0.47447
 H1548 H 0.62106 0.90459 0.46333
 C1549 C 0.16070 0.40180 0.99207
 C1550 C 0.16440 0.38023 0.97972
 C1551 C 0.18782 0.36961 0.97919
 C1552 C 0.20816 0.38049 0.99072
 C1553 C 0.20436 0.40204 1.00309
 C1554 C 0.18102 0.41254 1.00371
 C1555 C 0.13580 0.41295 0.99337
 C1556 C 0.12791 0.42231 1.01418
 C1557 C 0.10501 0.43353 1.01558
 C1558 C 0.08920 0.43579 0.99621
 C1559 C 0.09690 0.42616 0.97538
 C1560 C 0.11992 0.41480 0.97400
 H1561 H 0.18999 0.35305 0.96952
 H1562 H 0.21934 0.41071 1.01265
 H1563 H 0.09978 0.44053 1.03198
 H1564 H 0.08519 0.42745 0.96015
 H1565 H 0.17893 0.42926 1.01324
 H1566 H 0.13942 0.42082 1.02952
 H1567 H 0.14910 0.37133 0.97078
 H1568 H 0.12550 0.40790 0.95768
 C1569 C 0.01120 0.33525 0.45774
 C1570 C -0.00869 0.31847 0.45873
 C1571 C -0.00869 0.29733 0.44564
 C1572 C 0.01073 0.29326 0.43060
 C1573 C 0.03212 0.30825 0.43238
 C1574 C 0.03223 0.32927 0.44565
 C1575 C 0.00868 0.36031 0.46633
 C1576 C 0.02799 0.37165 0.47874
 C1577 C 0.02643 0.39638 0.48449
 C1578 C 0.00570 0.41015 0.47759
 C1579 C -0.01371 0.39865 0.46541
 C1580 C -0.01228 0.37389 0.45993
 H1581 H -0.02464 0.28504 0.44615
 H1582 H 0.04846 0.30452 0.42287
 H1583 H 0.04162 0.40483 0.49398
 H1584 H -0.03001 0.40877 0.46012
 H1585 H 0.04806 0.34172 0.44513
 H1586 H 0.04433 0.36146 0.48372
 H1587 H -0.02475 0.32239 0.46867
 H1588 H -0.02719 0.36556 0.44997
 C1589 C 0.47925 -0.15820 -0.05258
 C1590 C 0.49213 -0.17830 -0.04294
 C1591 C 0.49302 -0.20047 -0.05456
 C1592 C 0.48061 -0.20303 -0.07586
 C1593 C 0.46655 -0.18323 -0.08461
 C1594 C 0.46583 -0.16117 -0.07313
 C1595 C 0.48209 -0.13336 -0.04302
 C1596 C 0.50534 -0.12495 -0.03509
 C1597 C 0.50877 -0.10052 -0.02865
 C1598 C 0.48911 -0.08408 -0.03046
 C1599 C 0.46580 -0.09254 -0.03802
 C1600 C 0.46226 -0.11702 -0.04404
 H1601 H 0.50471 -0.21476 -0.04740
 H1602 H 0.45754 -0.18411 -0.10133
 H1603 H 0.52685 -0.09437 -0.02266
 H1604 H 0.45019 -0.08030 -0.03891
 H1605 H 0.45620 -0.14587 -0.08129
 H1606 H 0.52109 -0.13699 -0.03456
 H1607 H 0.50247 -0.17650 -0.02697
 H1608 H 0.44406 -0.12312 -0.04973
 C1609 C 0.01510 -0.17180 1.05606
 C1610 C 0.03683 -0.18232 1.06485
 C1611 C 0.03588 -0.20483 1.07677
 C1612 C 0.01301 -0.21681 1.08053
 C1613 C -0.00823 -0.20749 1.06941
 C1614 C -0.00725 -0.18506 1.05747
 C1615 C 0.01515 -0.14617 1.04742
 C1616 C 0.00108 -0.13981 1.02787
 C1617 C -0.00141 -0.11521 1.02129
 C1618 C 0.01020 -0.09646 1.03412
 C1619 C 0.02492 -0.10289 1.05333
 C1620 C 0.02735 -0.12761 1.05995
 H1621 H 0.05305 -0.21209 1.08344
 H1622 H -0.02594 -0.21678 1.07133
 H1623 H -0.01260 -0.11095 1.00616
 H1624 H 0.03422 -0.08887 1.06342
 H1625 H -0.02427 -0.17737 1.05065
 H1626 H -0.00829 -0.15388 1.01787
 H1627 H 0.05440 -0.17270 1.06318
 H1628 H 0.03804 -0.13216 1.07532
 C1629 C 0.52335 0.33275 0.57627
 C1630 C 0.52450 0.31041 0.56472
 C1631 C 0.51955 0.28818 0.57622
 C1632 C 0.51291 0.28791 0.59937
 C1633 C 0.51360 0.31023 0.61125
 C1634 C 0.51842 0.33244 0.59973
 C1635 C 0.52493 0.35641 0.56357
 C1636 C 0.53722 0.37687 0.57313
 C1637 C 0.53551 0.40006 0.56245
 C1638 C 0.52146 0.40303 0.54211
 C1639 C 0.51022 0.38225 0.53205
 C1640 C 0.51192 0.35919 0.54270
 H1641 H 0.52087 0.27119 0.56695
 H1642 H 0.51051 0.31078 0.62946
 H1643 H 0.54460 0.41570 0.57045
 H1644 H 0.49945 0.38385 0.51626
 H1645 H 0.51754 0.34944 0.60906
 H1646 H 0.54762 0.37503 0.58911
 H1647 H 0.52895 0.31019 0.54672
 H1648 H 0.50202 0.34376 0.53514
 C1649 C 0.47845 1.15291 0.57668
 C1650 C 0.47170 1.15593 0.59949
 C1651 C 0.47418 1.17892 0.60949
 C1652 C 0.48361 1.19923 0.59697
 C1653 C 0.48843 1.19658 0.57359
 C1654 C 0.48573 1.17365 0.56352
 C1655 C 0.48063 1.12796 0.56753
 C1656 C 0.46311 1.10941 0.57263
 C1657 C 0.46629 1.08548 0.56509
 C1658 C 0.48696 1.07981 0.55222
 C1659 C 0.50444 1.09840 0.54713
 C1660 C 0.50135 1.12221 0.55480
 H1661 H 0.46977 1.18036 0.62732
 H1662 H 0.49591 1.21172 0.56337
 H1663 H 0.45236 1.07155 0.56901
 H1664 H 0.52059 1.09453 0.53731
 H1665 H 0.49055 1.17187 0.54573
 H1666 H 0.44692 1.11343 0.58233
 H1667 H 0.46602 1.14024 0.61004
 H1668 H 0.51549 1.13601 0.55115
 C1669 C -0.02131 0.64648 1.07935
 C1670 C -0.00664 0.64978 1.09913
 C1671 C -0.00103 0.67344 1.10658
 C1672 C -0.01016 0.69408 1.09442
 C1673 C -0.02601 0.69072 1.07538
 C1674 C -0.03152 0.66704 1.06786
 C1675 C -0.02260 0.62218 1.06885
 C1676 C -0.01632 0.62027 1.04582
 C1677 C -0.01362 0.59726 1.03637
 C1678 C -0.01735 0.57575 1.04974
 C1679 C -0.02472 0.57756 1.07253
 C1680 C -0.02711 0.60072 1.08212
 H1681 H 0.01149 0.67550 1.12113
 H1682 H -0.03373 0.70639 1.06607
 H1683 H -0.00832 0.59633 1.01863
 H1684 H -0.02782 0.56115 1.08309
 H1685 H -0.04302 0.66477 1.05261
 H1686 H -0.01239 0.63660 1.03540
 H1687 H 0.00177 0.63416 1.10797
 H1688 H -0.03193 0.60192 1.09997
 C1689 C 0.52917 0.66591 -0.07910
 C1690 C 0.53555 0.68680 -0.06635
 C1691 C 0.52723 0.71000 -0.07329
 C1692 C 0.51274 0.71300 -0.09345
 C1693 C 0.50821 0.69223 -0.10718
 C1694 C 0.51622 0.66896 -0.09998
 C1695 C 0.53220 0.64098 -0.06884
 C1696 C 0.53788 0.62065 -0.08224
 C1697 C 0.53663 0.59668 -0.07285
 C1698 C 0.52939 0.59286 -0.05009
 C1699 C 0.52497 0.61329 -0.03651
 C1700 C 0.52633 0.63702 -0.04576
 H1701 H 0.53224 0.72554 -0.06273
 H1702 H 0.49672 0.69314 -0.12251
 H1703 H 0.54030 0.58118 -0.08359
 H1704 H 0.51977 0.61093 -0.01878
 H1705 H 0.51069 0.65312 -0.10997
 H1706 H 0.54259 0.62327 -0.10007
 H1707 H 0.54609 0.68503 -0.05044
 H1708 H 0.52144 0.65219 -0.03508
 C1709 C 0.01994 1.15292 0.41777
 C1710 C 0.00324 1.16617 0.43064
 C1711 C 0.00130 1.19157 0.42751
 C1712 C 0.01594 1.20397 0.41141
 C1713 C 0.03322 1.19100 0.39909
 C1714 C 0.03534 1.16554 0.40233
 C1715 C 0.02100 1.12598 0.42082
 C1716 C 0.04354 1.11432 0.42562
 C1717 C 0.04366 1.08978 0.43353
 C1718 C 0.02125 1.07702 0.43669
 C1719 C -0.00097 1.08793 0.42962
 C1720 C -0.00109 1.11223 0.42164
 H1721 H -0.01213 1.20144 0.43710
 H1722 H 0.04501 1.20055 0.38699
 H1723 H 0.06094 1.08160 0.43910
 H1724 H -0.01841 1.07818 0.43183
 H1725 H 0.04849 1.15566 0.39246
 H1726 H 0.06077 1.12469 0.42500
 H1727 H -0.00844 1.15680 0.44302
 H1728 H -0.01860 1.12079 0.41751
 C1729 C 0.75251 0.70883 0.90913
 C1730 C 0.74483 0.71900 0.92961
 C1731 C 0.75078 0.70749 0.95077
 C1732 C 0.76495 0.68583 0.95190
 C1733 C 0.77367 0.67666 0.93125
 C1734 C 0.76777 0.68814 0.91027
 C1735 C 0.74262 0.71750 0.88647
 C1736 C 0.73323 0.69996 0.87113
 C1737 C 0.72648 0.70684 0.84880
 C1738 C 0.72885 0.73148 0.84112
 C1739 C 0.73648 0.74951 0.85684
 C1740 C 0.74332 0.74254 0.87947
 H1741 H 0.74287 0.71461 0.96609
 H1742 H 0.78361 0.65957 0.93089
 H1743 H 0.72031 0.69259 0.83716
 H1744 H 0.73856 0.76862 0.85130
 H1745 H 0.77407 0.67999 0.89471
 H1746 H 0.73180 0.68065 0.87624
 H1747 H 0.73285 0.73479 0.92918
 H1748 H 0.75029 0.75644 0.89108
 C1749 C 0.24827 0.20516 0.40610
 C1750 C 0.26270 0.18386 0.40738
 C1751 C 0.26850 0.17250 0.42846
 C1752 C 0.26047 0.18235 0.44908
 C1753 C 0.24688 0.20438 0.44777
 C1754 C 0.24111 0.21581 0.42655
 C1755 C 0.23906 0.21448 0.38337
 C1756 C 0.24043 0.23966 0.37687
 C1757 C 0.23437 0.24730 0.35424
 C1758 C 0.22681 0.22981 0.33799
 C1759 C 0.22371 0.20506 0.34511
 C1760 C 0.22969 0.19751 0.36746
 H1761 H 0.27796 0.15512 0.42831
 H1762 H 0.23938 0.21202 0.46305
 H1763 H 0.23714 0.26645 0.34909
 H1764 H 0.21774 0.19123 0.33296
 H1765 H 0.22975 0.23206 0.42606
 H1766 H 0.24743 0.25315 0.38889
 H1767 H 0.26863 0.17532 0.39187
 H1768 H 0.22774 0.17813 0.37212
 C1769 C 0.74946 0.28702 0.41246
 C1770 C 0.76242 0.27990 0.43255
 C1771 C 0.76068 0.29363 0.45250
 C1772 C 0.74572 0.31470 0.45297
 C1773 C 0.73309 0.32184 0.43261
 C1774 C 0.73473 0.30809 0.41281
 C1775 C 0.75211 0.27374 0.39064
 C1776 C 0.73152 0.27073 0.37589
 C1777 C 0.73438 0.26280 0.35360
 C1778 C 0.75782 0.25727 0.34560
 C1779 C 0.77822 0.25814 0.36078
 C1780 C 0.77539 0.26641 0.38320
 H1781 H 0.77165 0.28816 0.46742
 H1782 H 0.72273 0.33869 0.43143
 H1783 H 0.71838 0.26212 0.34216
 H1784 H 0.79649 0.25419 0.35484
 H1785 H 0.72523 0.31464 0.39739
 H1786 H 0.71328 0.27565 0.38127
 H1787 H 0.77412 0.26390 0.43277
 H1788 H 0.79163 0.26861 0.39414
 C1789 C 0.24544 0.79096 0.91019
 C1790 C 0.25778 0.78298 0.93036
 C1791 C 0.25645 0.79657 0.95050
 C1792 C 0.24257 0.81838 0.95105
 C1793 C 0.23091 0.82654 0.93051
 C1794 C 0.23208 0.81292 0.91057
 C1795 C 0.24688 0.77737 0.88835
 C1796 C 0.22577 0.77527 0.87410
 C1797 C 0.22749 0.76681 0.85184
 C1798 C 0.25029 0.75989 0.84326
 C1799 C 0.27114 0.75993 0.85797
 C1800 C 0.26946 0.76868 0.88040
 H1801 H 0.26672 0.79026 0.96557
 H1802 H 0.22152 0.84396 0.92935
 H1803 H 0.21111 0.76677 0.84087
 H1804 H 0.28896 0.75490 0.85165
 H1805 H 0.22313 0.82012 0.89511
 H1806 H 0.20802 0.78124 0.87986
 H1807 H 0.26850 0.76630 0.93054
 H1808 H 0.28606 0.77011 0.89098
 C1809 C 0.24198 0.80898 0.08314
 C1810 C 0.24093 0.83443 0.07829
 C1811 C 0.24212 0.84373 0.05579
 C1812 C 0.24429 0.82789 0.03703
 C1813 C 0.24505 0.80218 0.04219
 C1814 C 0.24378 0.79294 0.06480
 C1815 C 0.24258 0.79968 0.10741
 C1816 C 0.22889 0.77867 0.11467
 C1817 C 0.22899 0.77115 0.13796
 C1818 C 0.24287 0.78448 0.15432
 C1819 C 0.25714 0.80491 0.14668
 C1820 C 0.25697 0.81235 0.12370
 H1821 H 0.24094 0.86345 0.05370
 H1822 H 0.24743 0.78878 0.02906
 H1823 H 0.21785 0.75532 0.14320
 H1824 H 0.26846 0.81551 0.15853
 H1825 H 0.24502 0.77323 0.06798
 H1826 H 0.21763 0.76848 0.10246
 H1827 H 0.23914 0.84734 0.09203
 H1828 H 0.26823 0.82818 0.11866
 C1829 C 0.75201 0.30698 0.58444
 C1830 C 0.75386 0.29104 0.56606
 C1831 C 0.75385 0.30027 0.54346
 C1832 C 0.75151 0.32586 0.53831
 C1833 C 0.74957 0.34168 0.55710
 C1834 C 0.74985 0.33238 0.57968
 C1835 C 0.75322 0.29748 0.60858
 C1836 C 0.76783 0.31003 0.62479
 C1837 C 0.76811 0.30246 0.64777
 C1838 C 0.75366 0.28215 0.65538
 C1839 C 0.73981 0.26881 0.63903
 C1840 C 0.73966 0.27638 0.61579
 H1841 H 0.75641 0.28696 0.53029
 H1842 H 0.74731 0.36130 0.55490
 H1843 H 0.77935 0.31304 0.65971
 H1844 H 0.72843 0.25317 0.64429
 H1845 H 0.74810 0.34516 0.59353
 H1846 H 0.77894 0.32594 0.61972
 H1847 H 0.75603 0.27141 0.56920
 H1848 H 0.72826 0.26631 0.60361
 C1849 C 0.26940 0.19657 0.58070
 C1850 C 0.25420 0.17567 0.57672
 C1851 C 0.25198 0.16556 0.55489
 C1852 C 0.26485 0.17610 0.53642
 C1853 C 0.28066 0.19653 0.54053
 C1854 C 0.28295 0.20661 0.56240
 C1855 C 0.27018 0.20819 0.60367
 C1856 C 0.29239 0.21704 0.61386
 C1857 C 0.29279 0.22609 0.63632
 C1858 C 0.27099 0.22637 0.64885
 C1859 C 0.24873 0.21885 0.63810
 C1860 C 0.24831 0.20998 0.61588
 H1861 H 0.23964 0.14990 0.55238
 H1862 H 0.29134 0.20480 0.52682
 H1863 H 0.31021 0.23159 0.64426
 H1864 H 0.23155 0.21913 0.64724
 H1865 H 0.29480 0.22265 0.56484
 H1866 H 0.30958 0.21598 0.60485
 H1867 H 0.24384 0.16717 0.59054
 H1868 H 0.23080 0.20411 0.60838
 C1869 C 0.77514 0.69461 0.08396
 C1870 C 0.78581 0.67242 0.07740
 C1871 C 0.78216 0.66359 0.05525
 C1872 C 0.76798 0.67675 0.03892
 C1873 C 0.75783 0.69930 0.04518
 C1874 C 0.76132 0.70811 0.06747
 C1875 C 0.77712 0.70249 0.10830
 C1876 C 0.77988 0.72751 0.11425
 C1877 C 0.78052 0.73436 0.13741
 C1878 C 0.77810 0.71632 0.15494
 C1879 C 0.77599 0.69138 0.14884
 C1880 C 0.77545 0.68461 0.12597
 H1881 H 0.79093 0.64671 0.05082
 H1882 H 0.74680 0.70991 0.03295
 H1883 H 0.78208 0.75371 0.14155
 H1884 H 0.77424 0.67691 0.16183
 H1885 H 0.75260 0.72511 0.07197
 H1886 H 0.78143 0.74174 0.10103
 H1887 H 0.79705 0.66179 0.08944
 H1888 H 0.77290 0.66526 0.12217
 C1889 C 0.15894 0.59910 0.24477
 C1890 C 0.17089 0.57654 0.24875
 C1891 C 0.15735 0.55447 0.25156
 C1892 C 0.13133 0.55426 0.25034
 C1893 C 0.11948 0.57707 0.24689
 C1894 C 0.13304 0.59909 0.24387
 C1895 C 0.17344 0.62268 0.24297
 C1896 C 0.16729 0.64125 0.22661
 C1897 C 0.18046 0.66383 0.22594
 C1898 C 0.19974 0.66836 0.24187
 C1899 C 0.20611 0.64958 0.25784
 C1900 C 0.19325 0.62705 0.25831
 H1901 H 0.16762 0.53789 0.25498
 H1902 H 0.09952 0.57782 0.24638
 H1903 H 0.17501 0.67802 0.21357
 H1904 H 0.22089 0.65246 0.27033
 H1905 H 0.12325 0.61622 0.24138
 H1906 H 0.15220 0.63834 0.21446
 H1907 H 0.19084 0.57593 0.24967
 H1908 H 0.19831 0.61332 0.27126
 C1909 C 0.66501 0.10025 0.75006
 C1910 C 0.66007 0.08424 0.73190
 C1911 C 0.64532 0.06299 0.73520
 C1912 C 0.63448 0.05751 0.75654
 C1913 C 0.64017 0.07328 0.77484
 C1914 C 0.65504 0.09436 0.77158
 C1915 C 0.68066 0.12294 0.74696
 C1916 C 0.69783 0.12954 0.76418
 C1917 C 0.71067 0.15202 0.76292
 C1918 C 0.70684 0.16862 0.74435
 C1919 C 0.69079 0.16151 0.72634
 C1920 C 0.67779 0.13883 0.72764
 H1921 H 0.64211 0.05091 0.72088
 H1922 H 0.63348 0.06957 0.79186
 H1923 H 0.72318 0.15673 0.77693
 H1924 H 0.68736 0.17396 0.71189
 H1925 H 0.65851 0.10628 0.78598
 H1926 H 0.70098 0.11749 0.77897
 H1927 H 0.66786 0.08797 0.71523
 H1928 H 0.66467 0.13426 0.71408
 C1929 C 0.84988 0.08632 0.25608
 C1930 C 0.87548 0.08629 0.25319
 C1931 C 0.88783 0.06403 0.25085
 C1932 C 0.87499 0.04117 0.25159
 C1933 C 0.84931 0.04141 0.25519
 C1934 C 0.83695 0.06370 0.25706
 C1935 C 0.83640 0.10987 0.25699
 C1936 C 0.81595 0.11377 0.24231
 C1937 C 0.80367 0.13619 0.24213
 C1938 C 0.81122 0.15509 0.25695
 C1939 C 0.83124 0.15102 0.27218
 C1940 C 0.84396 0.12866 0.27198
 H1941 H 0.90761 0.06462 0.24861
 H1942 H 0.83847 0.02465 0.25699
 H1943 H 0.78824 0.13879 0.23026
 H1944 H 0.83749 0.16537 0.28367
 H1945 H 0.81721 0.06326 0.25957
 H1946 H 0.80985 0.09966 0.23051
 H1947 H 0.88586 0.10352 0.25228
 H1948 H 0.85965 0.12600 0.28353
 C1949 C 0.34230 0.58899 0.75107
 C1950 C 0.36815 0.59036 0.75071
 C1951 C 0.38196 0.56901 0.74843
 C1952 C 0.37043 0.54554 0.74700
 C1953 C 0.34441 0.54435 0.74700
 C1954 C 0.33060 0.56580 0.74892
 C1955 C 0.32755 0.61177 0.75265
 C1956 C 0.30746 0.61568 0.73752
 C1957 C 0.29430 0.63757 0.73791
 C1958 C 0.30060 0.65602 0.75367
 C1959 C 0.32019 0.65187 0.76938
 C1960 C 0.33372 0.63002 0.76871
 H1961 H 0.40189 0.57076 0.74818
 H1962 H 0.33435 0.52713 0.74554
 H1963 H 0.27924 0.64019 0.72563
 H1964 H 0.32554 0.66583 0.78160
 H1965 H 0.31066 0.56421 0.74901
 H1966 H 0.30239 0.60207 0.72487
 H1967 H 0.37767 0.60803 0.75186
 H1968 H 0.34905 0.62740 0.78068
 C1969 C 0.36073 0.40313 0.74432
 C1970 C 0.35328 0.41930 0.76132
 C1971 C 0.36328 0.44324 0.76264
 C1972 C 0.38114 0.45165 0.74713
 C1973 C 0.38870 0.43555 0.73020
 C1974 C 0.37860 0.41159 0.72876
 C1975 C 0.34958 0.37773 0.74294
 C1976 C 0.34288 0.36717 0.72177
 C1977 C 0.33042 0.34416 0.72098
 C1978 C 0.32439 0.33129 0.74135
 C1979 C 0.33220 0.34141 0.76237
 C1980 C 0.34458 0.36419 0.76314
 H1981 H 0.35689 0.45532 0.77572
 H1982 H 0.40168 0.44175 0.71751
 H1983 H 0.32468 0.33695 0.70451
 H1984 H 0.32830 0.33192 0.77844
 H1985 H 0.38479 0.39968 0.71547
 H1986 H 0.34639 0.37712 0.70586
 H1987 H 0.33925 0.41365 0.77336
 H1988 H 0.35001 0.37136 0.77970
 C1989 C 0.85722 0.90045 0.24409
 C1990 C 0.84379 0.92080 0.25086
 C1991 C 0.85492 0.94407 0.25266
 C1992 C 0.88007 0.94814 0.24757
 C1993 C 0.89360 0.92746 0.24090
 C1994 C 0.88223 0.90403 0.23894
 C1995 C 0.84511 0.87555 0.24387
 C1996 C 0.84729 0.85946 0.22542
 C1997 C 0.83435 0.83668 0.22525
 C1998 C 0.81926 0.82951 0.24367
 C1999 C 0.81763 0.84558 0.26219
 C2000 C 0.83030 0.86815 0.26227
 H2001 H 0.84359 0.95858 0.25889
 H2002 H 0.91282 0.92902 0.23665
 H2003 H 0.83617 0.82471 0.21080
 H2004 H 0.80634 0.84087 0.27677
 H2005 H 0.89313 0.88859 0.23388
 H2006 H 0.85855 0.86473 0.21097
 H2007 H 0.82447 0.91869 0.25500
 H2008 H 0.82850 0.87991 0.27688
 C2009 C 0.64657 0.91609 0.75793
 C2010 C 0.65793 0.93605 0.74626
 C2011 C 0.64818 0.95975 0.74685
 C2012 C 0.62673 0.96424 0.75913
 C2013 C 0.61527 0.94427 0.77075
 C2014 C 0.62518 0.92050 0.77030
 C2015 C 0.65684 0.89078 0.75654
 C2016 C 0.65878 0.87496 0.77597
 C2017 C 0.66948 0.85160 0.77446
 C2018 C 0.67826 0.84348 0.75344
 C2019 C 0.67579 0.85921 0.73401
 C2020 C 0.66531 0.88246 0.73556
 H2021 H 0.65734 0.97449 0.73735
 H2022 H 0.59880 0.94697 0.78042
 H2023 H 0.67099 0.83999 0.78975
 H2024 H 0.68218 0.85371 0.71747
 H2025 H 0.61585 0.90548 0.77931
 H2026 H 0.65252 0.88088 0.79242
 H2027 H 0.67454 0.93338 0.73671
 H2028 H 0.66374 0.89395 0.72019
 C2029 C 0.14196 0.41129 0.25101
 C2030 C 0.12240 0.41648 0.26550
 C2031 C 0.11279 0.44036 0.26610
 C2032 C 0.12270 0.45966 0.25248
 C2033 C 0.14213 0.45435 0.23788
 C2034 C 0.15161 0.43056 0.23717
 C2035 C 0.15243 0.38601 0.25008
 C2036 C 0.15917 0.37650 0.22897
 C2037 C 0.17050 0.35362 0.22790
 C2038 C 0.17550 0.33943 0.24793
 C2039 C 0.16810 0.34855 0.26906
 C2040 C 0.15665 0.37157 0.27011
 H2041 H 0.09798 0.44378 0.27761
 H2042 H 0.15000 0.46861 0.22686
 H2043 H 0.17565 0.34723 0.21125
 H2044 H 0.17155 0.33813 0.28482
 H2045 H 0.16683 0.42735 0.22597
 H2046 H 0.15575 0.38685 0.21316
 H2047 H 0.11439 0.40204 0.27623
 H2048 H 0.15178 0.37840 0.28667
 C2049 C 0.08181 0.24894 0.79070
 C2050 C 0.06877 0.22682 0.79501
 C2051 C 0.04765 0.22679 0.80814
 C2052 C 0.03964 0.24886 0.81758
 C2053 C 0.05029 0.27131 0.80982
 C2054 C 0.07150 0.27135 0.79680
 C2055 C 0.10756 0.24836 0.78324
 C2056 C 0.11675 0.26606 0.76761
 C2057 C 0.14177 0.26672 0.76254
 C2058 C 0.15802 0.24977 0.77315
 C2059 C 0.14871 0.23201 0.78870
 C2060 C 0.12375 0.23132 0.79367
 H2061 H 0.03854 0.20930 0.81174
 H2062 H 0.04346 0.28878 0.81544
 H2063 H 0.14835 0.28053 0.75034
 H2064 H 0.16068 0.21860 0.79705
 H2065 H 0.08091 0.28875 0.79323
 H2066 H 0.10460 0.27940 0.75941
 H2067 H 0.07580 0.20940 0.78945
 H2068 H 0.11722 0.21785 0.80622
 C2069 C 0.59675 0.73620 0.32008
 C2070 C 0.59681 0.73669 0.34406
 C2071 C 0.57501 0.74040 0.35546
 C2072 C 0.55280 0.74431 0.34310
 C2073 C 0.55264 0.74252 0.31908
 C2074 C 0.57449 0.73880 0.30767
 C2075 C 0.62009 0.73389 0.30810
 C2076 C 0.62527 0.74951 0.28929
 C2077 C 0.64825 0.74904 0.27922
 C2078 C 0.66643 0.73294 0.28786
 C2079 C 0.66090 0.71672 0.30621
 C2080 C 0.63790 0.71720 0.31625
 H2081 H 0.57557 0.74025 0.37401
 H2082 H 0.53575 0.74356 0.30897
 H2083 H 0.65193 0.76171 0.26505
 H2084 H 0.67445 0.70393 0.31309
 H2085 H 0.57399 0.73775 0.28916
 H2086 H 0.61186 0.76271 0.28289
 H2087 H 0.61379 0.73467 0.35400
 H2088 H 0.63410 0.70475 0.33056
 C2089 C 0.58998 0.27351 0.18339
 C2090 C 0.56997 0.26675 0.19718
 C2091 C 0.54599 0.26681 0.18804
 C2092 C 0.54172 0.27390 0.16499
 C2093 C 0.56184 0.28203 0.15177
 C2094 C 0.58564 0.28202 0.16090
 C2095 C 0.61541 0.26871 0.19117
 C2096 C 0.63451 0.28560 0.18607
 C2097 C 0.65882 0.28006 0.19204
 C2098 C 0.66433 0.25760 0.20333
 C2099 C 0.64521 0.24058 0.20809
 C2100 C 0.62097 0.24608 0.20203
 H2101 H 0.53132 0.25976 0.19868
 H2102 H 0.55943 0.28672 0.13374
 H2103 H 0.67316 0.29367 0.18846
 H2104 H 0.64893 0.22312 0.21676
 H2105 H 0.60079 0.28688 0.14979
 H2106 H 0.63060 0.30315 0.17763
 H2107 H 0.57302 0.26024 0.21467
 H2108 H 0.60661 0.23247 0.20553
 C2109 C 0.07828 0.75678 0.67592
 C2110 C 0.05964 0.74515 0.68877
 C2111 C 0.03554 0.74364 0.68008
 C2112 C 0.02964 0.75396 0.65838
 C2113 C 0.04821 0.76671 0.64617
 C2114 C 0.07226 0.76808 0.65480
 C2115 C 0.10420 0.75556 0.68377
 C2116 C 0.12016 0.77613 0.68154
 C2117 C 0.14464 0.77467 0.68927
 C2118 C 0.15331 0.75267 0.69941
 C2119 C 0.13751 0.73194 0.70092
 C2120 C 0.11322 0.73336 0.69311
 H2121 H 0.02211 0.73379 0.69028
 H2122 H 0.04423 0.77481 0.62938
 H2123 H 0.15647 0.79094 0.68813
 H2124 H 0.14386 0.71466 0.70843
 H2125 H 0.08633 0.77699 0.64448
 H2126 H 0.11356 0.79346 0.67437
 H2127 H 0.06385 0.73669 0.70536
 H2128 H 0.10147 0.71704 0.69438
 C2129 C 0.89025 0.72694 0.67311
 C2130 C 0.90998 0.73381 0.68767
 C2131 C 0.93392 0.73464 0.67966
 C2132 C 0.93856 0.72829 0.65697
 C2133 C 0.91910 0.71904 0.64321
 C2134 C 0.89505 0.71842 0.65119
 C2135 C 0.86480 0.73141 0.67996
 C2136 C 0.84583 0.71400 0.67599
 C2137 C 0.82204 0.71839 0.68342
 C2138 C 0.81705 0.74020 0.69493
 C2139 C 0.83582 0.75804 0.69783
 C2140 C 0.85943 0.75371 0.69036
 H2141 H 0.94833 0.74206 0.69075
 H2142 H 0.92216 0.71350 0.62587
 H2143 H 0.80785 0.70432 0.68100
 H2144 H 0.83242 0.77516 0.70636
 H2145 H 0.88010 0.71288 0.63972
 H2146 H 0.84958 0.69676 0.66783
 H2147 H 0.90670 0.73993 0.70487
 H2148 H 0.87360 0.76777 0.69290
 C2149 C 0.39999 0.25089 0.17656
 C2150 C 0.41728 0.26572 0.18842
 C2151 C 0.44160 0.26747 0.18133
 C2152 C 0.44910 0.25419 0.16241
 C2153 C 0.43205 0.23854 0.15127
 C2154 C 0.40770 0.23698 0.15818
 C2155 C 0.37383 0.25067 0.18283
 C2156 C 0.35977 0.22864 0.18273
 C2157 C 0.33528 0.22852 0.18953
 C2158 C 0.32475 0.25037 0.19679
 C2159 C 0.33850 0.27250 0.19612
 C2160 C 0.36277 0.27268 0.18904
 H2161 H 0.45421 0.27989 0.19017
 H2162 H 0.43732 0.22771 0.13699
 H2163 H 0.32499 0.21122 0.19016
 H2164 H 0.33057 0.28961 0.20143
 H2165 H 0.39476 0.22547 0.14867
 H2166 H 0.36791 0.21138 0.17812
 H2167 H 0.41190 0.27628 0.20298
 H2168 H 0.37296 0.29004 0.18861
 C2169 C 0.41540 0.77626 0.32656
 C2170 C 0.42104 0.78254 0.34924
 C2171 C 0.44478 0.77893 0.35824
 C2172 C 0.46311 0.76897 0.34470
 C2173 C 0.45777 0.76450 0.32150
 C2174 C 0.43419 0.76828 0.31250
 C2175 C 0.38966 0.77490 0.31824
 C2176 C 0.38150 0.75364 0.30694
 C2177 C 0.35767 0.75203 0.29804
 C2178 C 0.34139 0.77162 0.30031
 C2179 C 0.34906 0.79251 0.31257
 C2180 C 0.37316 0.79413 0.32154
 H2181 H 0.44841 0.78318 0.37595
 H2182 H 0.47129 0.75665 0.31055
 H2183 H 0.35210 0.73550 0.28907
 H2184 H 0.33677 0.80784 0.31451
 H2185 H 0.43026 0.76370 0.29480
 H2186 H 0.39367 0.73824 0.30486
 H2187 H 0.40679 0.78881 0.36034
 H2188 H 0.37913 0.81059 0.33042
 C2189 C 0.90525 0.27816 0.83883
 C2190 C 0.92275 0.28418 0.82221
 C2191 C 0.94720 0.27704 0.82531
 C2192 C 0.95485 0.26374 0.84522
 C2193 C 0.93712 0.25857 0.86214
 C2194 C 0.91275 0.26575 0.85898
 C2195 C 0.87881 0.28148 0.83355
 C2196 C 0.87032 0.30314 0.82252
 C2197 C 0.84646 0.30382 0.81302
 C2198 C 0.83118 0.28278 0.81436
 C2199 C 0.83892 0.26191 0.82687
 C2200 C 0.86253 0.26131 0.83658
 H2201 H 0.95995 0.28236 0.81204
 H2202 H 0.94120 0.24784 0.87748
 H2203 H 0.84069 0.31993 0.80309
 H2204 H 0.82730 0.24546 0.82773
 H2205 H 0.89948 0.26078 0.87198
 H2206 H 0.88258 0.31893 0.82013
 H2207 H 0.91732 0.29351 0.80633
 H2208 H 0.86871 0.24430 0.84475
 C2209 C 0.53845 0.99907 0.68016
 C2210 C 0.53961 1.02265 0.68963
 C2211 C 0.55285 1.02667 0.71004
 C2212 C 0.56532 1.00724 0.72143
 C2213 C 0.56247 0.98329 0.71305
 C2214 C 0.54915 0.97924 0.69261
 C2215 C 0.52906 0.99586 0.65622
 C2216 C 0.54217 0.98114 0.64141
 C2217 C 0.53539 0.97978 0.61832
 C2218 C 0.51524 0.99312 0.60921
 C2219 C 0.50162 1.00743 0.62407
 C2220 C 0.50854 1.00887 0.64735
 H2221 H 0.55426 1.04528 0.71639
 H2222 H 0.57182 0.96796 0.72146
 H2223 H 0.54629 0.96838 0.60755
 H2224 H 0.48593 1.01781 0.61765
 H2225 H 0.54817 0.96073 0.68600
 H2226 H 0.55835 0.97128 0.64745
 H2227 H 0.53166 1.03834 0.68053
 H2228 H 0.49798 1.02032 0.65837
 C2229 C 0.03630 0.49467 1.17484
 C2230 C 0.03708 0.51830 1.18425
 C2231 C 0.04990 0.52253 1.20486
 C2232 C 0.06228 0.50324 1.21656
 C2233 C 0.05982 0.47924 1.20822
 C2234 C 0.04697 0.47499 1.18755
 C2235 C 0.02724 0.49130 1.15079
 C2236 C 0.04064 0.47665 1.13611
 C2237 C 0.03423 0.47537 1.11290
 C2238 C 0.01416 0.48867 1.10357
 C2239 C 0.00019 0.50278 1.11831
 C2240 C 0.00675 0.50417 1.14168
 H2241 H 0.05120 0.54119 1.21108
 H2242 H 0.06918 0.46404 1.21683
 H2243 H 0.04534 0.46412 1.10218
 H2244 H -0.01541 0.51317 1.11172
 H2245 H 0.04631 0.45646 1.18098
 H2246 H 0.05678 0.46687 1.14234
 H2247 H 0.02919 0.53390 1.17496
 H2248 H -0.00405 0.51554 1.15257
 C2249 C -0.03733 -0.01263 1.16796
 C2250 C -0.03609 0.00963 1.17986
 C2251 C -0.04859 0.01207 1.20029
 C2252 C -0.06243 -0.00778 1.20942
 C2253 C -0.06196 -0.03069 1.19865
 C2254 C -0.04952 -0.03311 1.17801
 C2255 C -0.02966 -0.01285 1.14371
 C2256 C -0.01556 -0.03188 1.13481
 C2257 C -0.00943 -0.03148 1.11145
 C2258 C -0.01796 -0.01242 1.09673
 C2259 C -0.03198 0.00643 1.10587
 C2260 C -0.03767 0.00624 1.12894
 H2261 H -0.04828 0.02980 1.20849
 H2262 H -0.07259 -0.04622 1.20529
 H2263 H 0.00143 -0.04621 1.10484
 H2264 H -0.03861 0.02158 1.09513
 H2265 H -0.05091 -0.05041 1.16910
 H2266 H -0.00925 -0.04687 1.14590
 H2267 H -0.02653 0.02561 1.17266
 H2268 H -0.04889 0.02092 1.13516
 C2269 C 0.46198 0.49007 0.66506
 C2270 C 0.45634 0.51421 0.67106
 C2271 C 0.44306 0.51849 0.69083
 C2272 C 0.43537 0.49871 0.70520
 C2273 C 0.44274 0.47475 0.69993
 C2274 C 0.45545 0.47042 0.67984
 C2275 C 0.47239 0.48536 0.64238
 C2276 C 0.49446 0.49697 0.63546
 C2277 C 0.50232 0.49502 0.61286
 C2278 C 0.48784 0.48203 0.59678
 C2279 C 0.46629 0.46970 0.60395
 C2280 C 0.45882 0.47105 0.62664
 H2281 H 0.43857 0.53731 0.69465
 H2282 H 0.43808 0.45909 0.71077
 H2283 H 0.51877 0.50503 0.60756
 H2284 H 0.45471 0.45985 0.59173
 H2285 H 0.45982 0.45166 0.67561
 H2286 H 0.50512 0.50817 0.64734
 H2287 H 0.46125 0.52967 0.65989
 H2288 H 0.44165 0.46213 0.63157
 C2289 C 0.47251 0.50001 -0.17579
 C2290 C 0.46396 0.47817 -0.18632
 C2291 C 0.44859 0.47917 -0.20596
 C2292 C 0.44161 0.50202 -0.21554
 C2293 C 0.45213 0.52370 -0.20635
 C2294 C 0.46727 0.52273 -0.18669
 C2295 C 0.48343 0.49938 -0.15206
 C2296 C 0.50123 0.51695 -0.14455
 C2297 C 0.50839 0.51810 -0.12124
 C2298 C 0.49762 0.50189 -0.10508
 C2299 C 0.48078 0.48373 -0.11289
 C2300 C 0.47378 0.48252 -0.13589
 H2301 H 0.44100 0.46217 -0.21275
 H2302 H 0.44773 0.54162 -0.21378
 H2303 H 0.52156 0.53214 -0.11577
 H2304 H 0.47242 0.47058 -0.10103
 H2305 H 0.47343 0.53991 -0.17920
 H2306 H 0.50922 0.53011 -0.15660
 H2307 H 0.46816 0.46028 -0.17873
 H2308 H 0.45978 0.46903 -0.14074
 C2309 C -0.02698 0.98514 0.32738
 C2310 C -0.03757 0.96436 0.31651
 C2311 C -0.05301 0.96719 0.29705
 C2312 C -0.05806 0.99081 0.28808
 C2313 C -0.04569 1.01129 0.29766
 C2314 C -0.03047 1.00853 0.31710
 C2315 C -0.01554 0.98306 0.35083
 C2316 C 0.00351 0.99933 0.35821
 C2317 C 0.01083 1.00008 0.38145
 C2318 C -0.00084 0.98465 0.39769
 C2319 C -0.01867 0.96738 0.38999
 C2320 C -0.02594 0.96663 0.36699
 H2321 H -0.06208 0.95107 0.28990
 H2322 H -0.04862 1.02973 0.29069
 H2323 H 0.02473 1.01345 0.38682
 H2324 H -0.02781 0.95490 0.40196
 H2325 H -0.02280 1.02497 0.32488
 H2326 H 0.01220 1.01201 0.34616
 H2327 H -0.03481 0.94598 0.32365
 H2328 H -0.04083 0.95410 0.36221
 C2329 C 0.04781 0.49560 0.34090
 C2330 C 0.05209 0.47597 0.32633
 C2331 C 0.06339 0.48034 0.30513
 C2332 C 0.07067 0.50442 0.29816
 C2333 C 0.06468 0.52410 0.31229
 C2334 C 0.05367 0.51970 0.33344
 C2335 C 0.04027 0.49127 0.36494
 C2336 C 0.05709 0.49725 0.38255
 C2337 C 0.04988 0.49661 0.40532
 C2338 C 0.02547 0.49027 0.41118
 C2339 C 0.00888 0.48289 0.39362
 C2340 C 0.01628 0.48334 0.37060
 H2341 H 0.06727 0.46468 0.29481
 H2342 H 0.06891 0.54302 0.30732
 H2343 H 0.06333 0.50210 0.41831
 H2344 H -0.01003 0.47798 0.39752
 H2345 H 0.05036 0.53515 0.34436
 H2346 H 0.07572 0.50322 0.37858
 H2347 H 0.04779 0.45719 0.33182
 H2348 H 0.00301 0.47867 0.35719
 C2349 C 0.54037 0.00397 -0.15954
 C2350 C 0.55431 -0.01605 -0.16665
 C2351 C 0.56837 -0.01400 -0.18657
 C2352 C 0.56885 0.00813 -0.19956
 C2353 C 0.55365 0.02744 -0.19332
 C2354 C 0.53945 0.02533 -0.17368
 C2355 C 0.52953 0.00416 -0.13626
 C2356 C 0.53248 0.02544 -0.12314
 C2357 C 0.52438 0.02583 -0.10071
 C2358 C 0.51299 0.00498 -0.09054
 C2359 C 0.50913 -0.01620 -0.10371
 C2360 C 0.51757 -0.01669 -0.12637
 H2361 H 0.58001 -0.02911 -0.19100
 H2362 H 0.55336 0.04454 -0.20329
 H2363 H 0.52753 0.04248 -0.09107
 H2364 H 0.50052 -0.03256 -0.09623
 H2365 H 0.52847 0.04088 -0.16904
 H2366 H 0.54196 0.04167 -0.12993
 H2367 H 0.55554 -0.03269 -0.15610
 H2368 H 0.51499 -0.03336 -0.13607
 C2369 C 0.67762 0.58729 -0.00928
 C2370 C 0.67446 0.61242 -0.01472
 C2371 C 0.69419 0.62918 -0.01281
 C2372 C 0.71773 0.62131 -0.00551
 C2373 C 0.72078 0.59642 0.00096
 C2374 C 0.70089 0.57954 -0.00090
 C2375 C 0.65644 0.56959 -0.01209
 C2376 C 0.65167 0.55136 0.00477
 C2377 C 0.63027 0.53663 0.00343
 C2378 C 0.61309 0.53962 -0.01488
 C2379 C 0.61856 0.55687 -0.03244
 C2380 C 0.63995 0.57172 -0.03102
 H2381 H 0.69113 0.64834 -0.01751
 H2382 H 0.73875 0.58980 0.00643
 H2383 H 0.62673 0.52346 0.01725
 H2384 H 0.60577 0.55972 -0.04673
 H2385 H 0.70393 0.56030 0.00349
 H2386 H 0.66389 0.54926 0.01959
 H2387 H 0.65665 0.61918 -0.02051
 H2388 H 0.64333 0.58529 -0.04454
 C2389 C 0.17412 1.08445 0.49094
 C2390 C 0.17070 1.10933 0.48465
 C2391 C 0.19020 1.12643 0.48621
 C2392 C 0.21381 1.11917 0.49395
 C2393 C 0.21710 1.09454 0.50124
 C2394 C 0.19744 1.07734 0.49977
 C2395 C 0.15316 1.06635 0.48864
 C2396 C 0.14845 1.04885 0.50616
 C2397 C 0.12725 1.03378 0.50525
 C2398 C 0.11024 1.03561 0.48670
 C2399 C 0.11563 1.05208 0.46850
 C2400 C 0.13680 1.06735 0.46952
 H2401 H 0.18690 1.14538 0.48087
 H2402 H 0.23511 1.08834 0.50705
 H2403 H 0.12372 1.02124 0.51956
 H2404 H 0.10289 1.05407 0.45405
 H2405 H 0.20068 1.05832 0.50484
 H2406 H 0.16054 1.04762 0.52115
 H2407 H 0.15286 1.11563 0.47847
 H2408 H 0.14010 1.08037 0.45553
 C2409 C 0.16500 -0.08178 1.00511
 C2410 C 0.17768 -0.09374 1.02341
 C2411 C 0.19773 -0.10908 1.01931
 C2412 C 0.20536 -0.11301 0.99683
 C2413 C 0.19298 -0.10066 0.97865
 C2414 C 0.17314 -0.08534 0.98271
 C2415 C 0.14294 -0.06621 1.00886
 C2416 C 0.13895 -0.04492 0.99515
 C2417 C 0.11695 -0.03198 0.99626
 C2418 C 0.09827 -0.03972 1.01128
 C2419 C 0.10275 -0.06010 1.02607
 C2420 C 0.12484 -0.07325 1.02483
 H2421 H 0.20665 -0.11850 1.03367
 H2422 H 0.19847 -0.10308 0.96113
 H2423 H 0.11431 -0.01617 0.98484
 H2424 H 0.08870 -0.06663 1.03775
 H2425 H 0.16370 -0.07682 0.96812
 H2426 H 0.15268 -0.03851 0.98311
 H2427 H 0.17205 -0.09132 1.04088
 H2428 H 0.12720 -0.08960 1.03559
 C2429 C 0.67017 0.41755 0.50583
 C2430 C 0.68338 0.40655 0.52435
 C2431 C 0.70270 0.39021 0.52049
 C2432 C 0.70903 0.38430 0.49805
 C2433 C 0.69614 0.39570 0.47964
 C2434 C 0.67703 0.41199 0.48345
 C2435 C 0.64873 0.43404 0.50938
 C2436 C 0.64437 0.45424 0.49434
 C2437 C 0.62260 0.46763 0.49533
 C2438 C 0.60460 0.46146 0.51156
 C2439 C 0.60960 0.44233 0.52763
 C2440 C 0.63139 0.42874 0.52652
 H2441 H 0.71213 0.38166 0.53505
 H2442 H 0.70071 0.39188 0.46212
 H2443 H 0.61953 0.48241 0.48284
 H2444 H 0.59606 0.43697 0.54025
 H2445 H 0.66715 0.41970 0.46872
 H2446 H 0.65755 0.45933 0.48132
 H2447 H 0.67874 0.41052 0.54181
 H2448 H 0.63402 0.41326 0.53832
 C2449 C -0.16148 0.41009 0.49296
 C2450 C -0.17428 0.40617 0.47216
 C2451 C -0.19599 0.39188 0.47154
 C2452 C -0.20552 0.38102 0.49170
 C2453 C -0.19325 0.38553 0.51264
 C2454 C -0.17142 0.39984 0.51327
 C2455 C -0.13798 0.42492 0.49343
 C2456 C -0.13282 0.44111 0.51139
 C2457 C -0.11089 0.45500 0.51203
 C2458 C -0.09333 0.45321 0.49470
 C2459 C -0.09850 0.43717 0.47656
 C2460 C -0.12056 0.42318 0.47594
 H2461 H -0.20529 0.38922 0.45516
 H2462 H -0.20000 0.37724 0.52841
 H2463 H -0.10777 0.46724 0.52626
 H2464 H -0.08540 0.43520 0.46301
 H2465 H -0.16196 0.40231 0.52960
 H2466 H -0.14592 0.44331 0.52490
 H2467 H -0.16759 0.41425 0.45629
 H2468 H -0.12379 0.41068 0.46194
 C2469 C 0.33426 -0.08615 -0.00553
 C2470 C 0.31136 -0.07844 0.00253
 C2471 C 0.29057 -0.09432 0.00202
 C2472 C 0.29224 -0.11825 -0.00652
 C2473 C 0.31534 -0.12614 -0.01385
 C2474 C 0.33597 -0.11032 -0.01344
 C2475 C 0.35646 -0.06938 -0.00546
 C2476 C 0.37313 -0.06916 -0.02367
 C2477 C 0.39471 -0.05448 -0.02298
 C2478 C 0.40027 -0.03975 -0.00397
 C2479 C 0.38329 -0.03956 0.01397
 C2480 C 0.36168 -0.05408 0.01320
 H2481 H 0.27306 -0.08756 0.00759
 H2482 H 0.31751 -0.14465 -0.02001
 H2483 H 0.40729 -0.05513 -0.03710
 H2484 H 0.38685 -0.02843 0.02890
 H2485 H 0.35340 -0.11715 -0.01917
 H2486 H 0.36952 -0.08046 -0.03848
 H2487 H 0.30935 -0.05990 0.00868
 H2488 H 0.34944 -0.05391 0.02760
 C2489 C 0.33682 1.07949 0.51034
 C2490 C 0.32499 1.09223 0.52763
 C2491 C 0.30629 1.10912 0.52205
 C2492 C 0.29917 1.11384 0.49904
 C2493 C 0.31094 1.10101 0.48184
 C2494 C 0.32947 1.08413 0.48739
 C2495 C 0.35708 1.06174 0.51578
 C2496 C 0.35896 1.04017 0.50304
 C2497 C 0.37954 1.02513 0.50561
 C2498 C 0.39882 1.03102 0.52116
 C2499 C 0.39626 1.05160 0.53513
 C2500 C 0.37560 1.06685 0.53243
 H2501 H 0.29783 1.11890 0.53572
 H2502 H 0.30580 1.10398 0.46397
 H2503 H 0.38079 1.00927 0.49476
 H2504 H 0.41088 1.05674 0.54712
 H2505 H 0.33839 1.07503 0.47356
 H2506 H 0.34477 1.03526 0.49053
 H2507 H 0.33012 1.08905 0.54547
 H2508 H 0.37479 1.08333 0.54250
 C2509 C -0.16205 0.57697 1.00731
 C2510 C -0.16651 0.58655 0.98506
 C2511 C -0.18412 0.60475 0.98091
 C2512 C -0.19785 0.61413 0.99889
 C2513 C -0.19394 0.60388 1.02106
 C2514 C -0.17606 0.58578 1.02527
 C2515 C -0.14252 0.55819 1.01146
 C2516 C -0.12560 0.55997 1.03003
 C2517 C -0.10525 0.54425 1.03188
 C2518 C -0.10147 0.52644 1.01520
 C2519 C -0.11934 0.52368 0.99755
 C2520 C -0.13956 0.53929 0.99572
 H2521 H -0.18698 0.61128 0.96342
 H2522 H -0.20437 0.60986 1.03535
 H2523 H -0.09175 0.54702 1.04558
 H2524 H -0.11720 0.51000 0.98452
 H2525 H -0.17333 0.57852 1.04256
 H2526 H -0.12733 0.57439 1.04241
 H2527 H -0.15601 0.58028 0.97080
 H2528 H -0.15255 0.53702 0.98153
 C2529 C -0.01435 0.68706 0.55483
 C2530 C 0.00553 0.70355 0.55824
 C2531 C 0.00496 0.72053 0.57576
 C2532 C -0.01547 0.72111 0.59012
 C2533 C -0.03637 0.70652 0.58503
 C2534 C -0.03584 0.68959 0.56748
 C2535 C -0.01095 0.66429 0.54214
 C2536 C -0.03009 0.65451 0.52835
 C2537 C -0.02885 0.63037 0.52071
 C2538 C -0.00863 0.61567 0.52711
 C2539 C 0.01112 0.62599 0.53973
 C2540 C 0.01002 0.65013 0.54709
 H2541 H 0.02102 0.73223 0.57887
 H2542 H -0.05236 0.70661 0.59572
 H2543 H -0.04422 0.62283 0.51082
 H2544 H 0.02711 0.61515 0.54452
 H2545 H -0.05134 0.67694 0.56529
 H2546 H -0.04641 0.66517 0.52437
 H2547 H 0.02215 0.70212 0.54842
 H2548 H 0.02486 0.65712 0.55799
 C2549 C 0.49965 0.18188 0.07657
 C2550 C 0.52147 0.19536 0.08098
 C2551 C 0.52156 0.21471 0.09626
 C2552 C 0.49986 0.22072 0.10746
 C2553 C 0.47787 0.20789 0.10221
 C2554 C 0.47775 0.18862 0.08691
 C2555 C 0.50011 0.15923 0.06330
 C2556 C 0.48099 0.15368 0.04756
 C2557 C 0.47973 0.13064 0.03747
 C2558 C 0.49748 0.11282 0.04316
 C2559 C 0.51715 0.11883 0.05818
 C2560 C 0.51847 0.14186 0.06813
 H2561 H 0.53865 0.22483 0.09937
 H2562 H 0.46091 0.21202 0.11048
 H2563 H 0.46447 0.12652 0.02581
 H2564 H 0.53129 0.10557 0.06263
 H2565 H 0.46077 0.17822 0.08401
 H2566 H 0.46674 0.16696 0.04352
 H2567 H 0.53851 0.19062 0.07292
 H2568 H 0.53322 0.14566 0.08043
 C2569 C -0.00405 0.16946 0.92092
 C2570 C 0.01907 0.17486 0.91146
 C2571 C 0.02132 0.19265 0.89404
 C2572 C 0.00048 0.20530 0.88574
 C2573 C -0.02256 0.20014 0.89534
 C2574 C -0.02483 0.18236 0.91281
 C2575 C -0.00667 0.14888 0.93766
 C2576 C -0.02600 0.13162 0.93488
 C2577 C -0.02628 0.10987 0.94795
 C2578 C -0.00720 0.10496 0.96399
 C2579 C 0.01109 0.12306 0.96807
 C2580 C 0.01138 0.14488 0.95493
 H2581 H 0.03941 0.19671 0.88727
 H2582 H -0.03888 0.20962 0.88916
 H2583 H -0.04082 0.09636 0.94467
 H2584 H 0.02593 0.11978 0.98043
 H2585 H -0.04284 0.17857 0.91988
 H2586 H -0.04008 0.13418 0.92163
 H2587 H 0.03531 0.16488 0.91714
 H2588 H 0.02624 0.15817 0.95761
 C2589 C 0.47869 0.66272 0.41983
 C2590 C 0.47853 0.68658 0.42862
 C2591 C 0.48359 0.70694 0.41439
 C2592 C 0.48909 0.70364 0.39129
 C2593 C 0.48786 0.67993 0.38221
 C2594 C 0.48259 0.65961 0.39637
 C2595 C 0.47798 0.64094 0.43531
 C2596 C 0.46432 0.61987 0.42910
 C2597 C 0.46743 0.59776 0.44130
 C2598 C 0.48437 0.59631 0.45988
 C2599 C 0.49674 0.61785 0.46706
 C2600 C 0.49356 0.64001 0.45485
 H2601 H 0.48467 0.72508 0.42181
 H2602 H 0.49190 0.67707 0.36438
 H2603 H 0.45724 0.58159 0.43558
 H2604 H 0.50975 0.61735 0.48140
 H2605 H 0.48306 0.64133 0.38926
 H2606 H 0.45200 0.62030 0.41423
 H2607 H 0.47548 0.68934 0.44665
 H2608 H 0.50445 0.65603 0.45984
 C2609 C 0.50954 0.81552 0.44502
 C2610 C 0.48762 0.80748 0.43425
 C2611 C 0.48821 0.79001 0.41725
 C2612 C 0.51072 0.78020 0.41071
 C2613 C 0.53236 0.78651 0.42318
 C2614 C 0.53180 0.80424 0.44006
 C2615 C 0.50941 0.83822 0.45823
 C2616 C 0.52575 0.85760 0.45247
 C2617 C 0.52254 0.88096 0.46118
 C2618 C 0.50300 0.88523 0.47589
 C2619 C 0.48754 0.86546 0.48270
 C2620 C 0.49067 0.84212 0.47385
 H2621 H 0.47111 0.78561 0.40846
 H2622 H 0.54990 0.77850 0.41938
 H2623 H 0.53503 0.89577 0.45601
 H2624 H 0.47250 0.86818 0.49424
 H2625 H 0.54888 0.80998 0.44850
 H2626 H 0.54013 0.85505 0.44019
 H2627 H 0.47023 0.81608 0.43769
 H2628 H 0.47792 0.82734 0.47849
 C2629 C 0.01551 0.32265 0.92482
 C2630 C -0.00718 0.31435 0.91570
 C2631 C -0.00794 0.29652 0.89902
 C2632 C 0.01394 0.28642 0.89132
 C2633 C 0.03670 0.29432 0.90075
 C2634 C 0.03748 0.31245 0.91738
 C2635 C 0.01588 0.34374 0.94017
 C2636 C 0.03104 0.36430 0.93527
 C2637 C 0.02788 0.38624 0.94670
 C2638 C 0.00955 0.38789 0.96323
 C2639 C -0.00444 0.36677 0.96921
 C2640 C -0.00132 0.34487 0.95771
 H2641 H -0.02571 0.29138 0.89158
 H2642 H 0.05381 0.28661 0.89521
 H2643 H 0.03927 0.40210 0.94204
 H2644 H -0.01848 0.36741 0.98209
 H2645 H 0.05517 0.31871 0.92423
 H2646 H 0.04429 0.36386 0.92168
 H2647 H -0.02431 0.32246 0.92071
 H2648 H -0.01304 0.32907 0.96184
 C2649 C 0.47868 0.32992 0.06390
 C2650 C 0.50115 0.31770 0.06721
 C2651 C 0.50434 0.30136 0.08559
 C2652 C 0.48511 0.29693 0.10082
 C2653 C 0.46181 0.30679 0.09622
 C2654 C 0.45860 0.32337 0.07779
 C2655 C 0.47854 0.35286 0.04992
 C2656 C 0.46955 0.37435 0.05950
 C2657 C 0.47589 0.39738 0.05029
 C2658 C 0.49141 0.39936 0.03136
 C2659 C 0.49860 0.37782 0.02054
 C2660 C 0.49211 0.35472 0.02971
 H2661 H 0.52227 0.29326 0.08873
 H2662 H 0.44673 0.30301 0.10772
 H2663 H 0.46953 0.41362 0.05871
 H2664 H 0.50999 0.37878 0.00552
 H2665 H 0.44102 0.33237 0.07535
 H2666 H 0.45930 0.37354 0.07522
 H2667 H 0.51702 0.32245 0.05697
 H2668 H 0.49897 0.33835 0.02186
 C2669 C -0.03460 0.83727 0.58498
 C2670 C -0.04108 0.83805 0.60817
 C2671 C -0.04111 0.81655 0.62171
 C2672 C -0.03566 0.79401 0.61197
 C2673 C -0.03252 0.79268 0.58830
 C2674 C -0.03170 0.81420 0.57490
 C2675 C -0.02715 0.86013 0.57241
 C2676 C -0.02994 0.86211 0.54842
 C2677 C -0.02014 0.88247 0.53652
 C2678 C -0.00805 0.90136 0.54850
 C2679 C -0.00578 0.89990 0.57237
 C2680 C -0.01487 0.87928 0.58422
 H2681 H -0.04370 0.81772 0.64000
 H2682 H -0.02810 0.77537 0.58058
 H2683 H -0.02264 0.88385 0.51807
 H2684 H 0.00327 0.91463 0.58179
 H2685 H -0.02657 0.81278 0.55718
 H2686 H -0.03965 0.84798 0.53881
 H2687 H -0.04439 0.85543 0.61626
 H2688 H -0.01169 0.87816 0.60258
 C2689 C 0.24081 0.29477 0.07264
 C2690 C 0.22497 0.31401 0.06544
 C2691 C 0.22808 0.32627 0.04432
 C2692 C 0.24734 0.31993 0.03015
 C2693 C 0.26258 0.30024 0.03669
 C2694 C 0.25914 0.28754 0.05754
 C2695 C 0.23925 0.28364 0.09630
 C2696 C 0.26060 0.27544 0.10832
 C2697 C 0.25945 0.26730 0.13126
 C2698 C 0.23710 0.26777 0.14280
 C2699 C 0.21568 0.27515 0.13077
 C2700 C 0.21665 0.28260 0.10773
 H2701 H 0.21648 0.34178 0.03973
 H2702 H 0.27768 0.29523 0.02596
 H2703 H 0.27624 0.26188 0.14030
 H2704 H 0.19815 0.27540 0.13932
 H2705 H 0.27130 0.27248 0.06203
 H2706 H 0.27847 0.27628 0.10043
 H2707 H 0.21095 0.32060 0.07658
 H2708 H 0.19966 0.28794 0.09906
 C2709 C 0.73455 0.79023 0.57402
 C2710 C 0.75836 0.79048 0.56502
 C2711 C 0.76328 0.80331 0.54459
 C2712 C 0.74454 0.81623 0.53267
 C2713 C 0.72034 0.81442 0.54061
 C2714 C 0.71539 0.80157 0.56115
 C2715 C 0.73059 0.78096 0.59789
 C2716 C 0.71618 0.79457 0.61262
 C2717 C 0.71487 0.78812 0.63582
 C2718 C 0.72793 0.76784 0.64505
 C2719 C 0.74159 0.75356 0.63020
 C2720 C 0.74297 0.76011 0.60687
 H2721 H 0.78206 0.80408 0.53862
 H2722 H 0.70557 0.82420 0.53176
 H2723 H 0.70397 0.79946 0.64664
 H2724 H 0.75174 0.73776 0.63671
 H2725 H 0.69675 0.80136 0.56744
 H2726 H 0.70675 0.81095 0.60645
 H2727 H 0.77357 0.78211 0.57447
 H2728 H 0.75407 0.74911 0.59592
 C2729 C 0.24722 0.70292 0.58111
 C2730 C 0.25763 0.67939 0.58209
 C2731 C 0.26074 0.66616 0.56222
 C2732 C 0.25376 0.67617 0.54066
 C2733 C 0.24256 0.69946 0.53967
 C2734 C 0.23922 0.71271 0.55978
 C2735 C 0.24615 0.71709 0.60250
 C2736 C 0.22385 0.72626 0.61055
 C2737 C 0.22267 0.73528 0.63294
 C2738 C 0.24380 0.73515 0.64733
 C2739 C 0.26632 0.72778 0.63850
 C2740 C 0.26750 0.71893 0.61638
 H2741 H 0.26853 0.64794 0.56387
 H2742 H 0.23698 0.70773 0.52336
 H2743 H 0.20509 0.74074 0.63948
 H2744 H 0.28291 0.72772 0.64921
 H2745 H 0.23115 0.73084 0.55863
 H2746 H 0.20714 0.72498 0.60011
 H2747 H 0.26350 0.67122 0.59838
 H2748 H 0.28495 0.71233 0.61047
 C2749 C 0.75077 0.21161 0.07902
 C2750 C 0.72914 0.20068 0.06976
 C2751 C 0.72975 0.18804 0.04905
 C2752 C 0.75202 0.18602 0.03741
 C2753 C 0.77312 0.19847 0.04582
 C2754 C 0.77247 0.21122 0.06629
 C2755 C 0.75180 0.22045 0.10300
 C2756 C 0.73280 0.23435 0.11220
 C2757 C 0.73379 0.24103 0.13538
 C2758 C 0.75355 0.23344 0.14974
 C2759 C 0.77262 0.21997 0.14031
 C2760 C 0.77178 0.21362 0.11734
 H2761 H 0.71323 0.17854 0.04293
 H2762 H 0.79040 0.19764 0.03692
 H2763 H 0.71880 0.25134 0.14224
 H2764 H 0.78818 0.21394 0.15085
 H2765 H 0.78930 0.21993 0.07270
 H2766 H 0.71718 0.23989 0.10153
 H2767 H 0.71218 0.20056 0.07921
 H2768 H 0.78650 0.20256 0.11099
 C2769 C 0.74110 0.22309 0.92116
 C2770 C 0.76449 0.21729 0.93038
 C2771 C 0.76686 0.20097 0.94911
 C2772 C 0.74596 0.18978 0.95910
 C2773 C 0.72250 0.19695 0.95117
 C2774 C 0.72008 0.21343 0.93235
 C2775 C 0.73901 0.23620 0.89839
 C2776 C 0.72128 0.22813 0.88222
 C2777 C 0.72194 0.23663 0.85953
 C2778 C 0.74034 0.25345 0.85219
 C2779 C 0.75703 0.26305 0.86855
 C2780 C 0.75641 0.25445 0.89146
 H2781 H 0.78525 0.19640 0.95527
 H2782 H 0.70608 0.18885 0.95868
 H2783 H 0.70858 0.22909 0.84739
 H2784 H 0.77136 0.27607 0.86341
 H2785 H 0.70173 0.21789 0.92603
 H2786 H 0.70779 0.21396 0.88665
 H2787 H 0.78111 0.22411 0.92230
 H2788 H 0.77012 0.26141 0.90354
 C2789 C 0.25183 0.71709 0.42052
 C2790 C 0.27482 0.71156 0.43072
 C2791 C 0.27631 0.69624 0.45026
 C2792 C 0.25488 0.68588 0.46006
 C2793 C 0.23182 0.69313 0.45117
 C2794 C 0.23030 0.70858 0.43159
 C2795 C 0.25053 0.72846 0.39698
 C2796 C 0.23340 0.71901 0.38095
 C2797 C 0.23399 0.72661 0.35803
 C2798 C 0.25173 0.74393 0.35023
 C2799 C 0.26821 0.75443 0.36632
 C2800 C 0.26771 0.74663 0.38949
 H2801 H 0.29441 0.69156 0.45711
 H2802 H 0.21501 0.68568 0.45843
 H2803 H 0.22071 0.71838 0.34623
 H2804 H 0.28196 0.76791 0.36088
 H2805 H 0.21224 0.71294 0.42449
 H2806 H 0.22019 0.70475 0.38583
 H2807 H 0.29178 0.71767 0.42278
 H2808 H 0.28107 0.75445 0.40145
 C2809 C 0.74706 0.78787 0.41437
 C2810 C 0.76801 0.78764 0.42907
 C2811 C 0.76942 0.80252 0.44829
 C2812 C 0.74976 0.81770 0.45368
 C2813 C 0.72800 0.81658 0.44018
 C2814 C 0.72670 0.80189 0.42059
 C2815 C 0.74802 0.77599 0.39151
 C2816 C 0.72742 0.76391 0.38129
 C2817 C 0.72873 0.75446 0.35900
 C2818 C 0.75053 0.75738 0.34654
 C2819 C 0.77111 0.76884 0.35708
 C2820 C 0.76990 0.77797 0.37911
 H2821 H 0.78622 0.80264 0.45870
 H2822 H 0.71259 0.82811 0.44401
 H2823 H 0.71252 0.74591 0.35119
 H2824 H 0.78818 0.77137 0.34793
 H2825 H 0.71033 0.80260 0.40965
 H2826 H 0.71029 0.76202 0.39040
 H2827 H 0.78378 0.77658 0.42523
 H2828 H 0.78599 0.78752 0.38606
 C2829 C 0.24493 0.29322 0.90974
 C2830 C 0.26600 0.29083 0.92414
 C2831 C 0.26886 0.30482 0.94387
 C2832 C 0.25050 0.32116 0.95007
 C2833 C 0.22859 0.32224 0.93680
 C2834 C 0.22586 0.30849 0.91673
 C2835 C 0.24460 0.28234 0.88640
 C2836 C 0.22294 0.27257 0.87589
 C2837 C 0.22317 0.26415 0.85317
 C2838 C 0.24496 0.26583 0.84058
 C2839 C 0.26654 0.27495 0.85140
 C2840 C 0.26637 0.28307 0.87382
 H2841 H 0.28576 0.30336 0.95402
 H2842 H 0.21423 0.33481 0.94116
 H2843 H 0.20624 0.25730 0.84522
 H2844 H 0.28370 0.27635 0.84225
 H2845 H 0.20947 0.31092 0.90603
 H2846 H 0.20584 0.27167 0.88514
 H2847 H 0.28080 0.27878 0.91968
 H2848 H 0.28329 0.29088 0.88098
 C2849 C 0.83195 0.43268 0.75767
 C2850 C 0.82425 0.45594 0.74919
 C2851 C 0.84115 0.47582 0.74729
 C2852 C 0.86605 0.47275 0.75374
 C2853 C 0.87387 0.44917 0.76102
 C2854 C 0.85707 0.42948 0.76305
 C2855 C 0.81425 0.41150 0.76055
 C2856 C 0.81614 0.39527 0.77971
 C2857 C 0.80156 0.37367 0.78107
 C2858 C 0.78492 0.36772 0.76318
 C2859 C 0.78205 0.38468 0.74469
 C2860 C 0.79643 0.40634 0.74344
 H2861 H 0.83454 0.49381 0.74183
 H2862 H 0.89302 0.44608 0.76572
 H2863 H 0.80434 0.36096 0.79545
 H2864 H 0.76935 0.38069 0.73062
 H2865 H 0.86379 0.41167 0.76891
 H2866 H 0.82943 0.39895 0.79338
 H2867 H 0.80502 0.45897 0.74479
 H2868 H 0.79453 0.41836 0.72846
 C2869 C 0.33662 0.92789 0.25963
 C2870 C 0.32809 0.95117 0.25198
 C2871 C 0.34425 0.97172 0.25085
 C2872 C 0.36918 0.96932 0.25736
 C2873 C 0.37787 0.94582 0.26386
 C2874 C 0.36184 0.92543 0.26502
 C2875 C 0.31966 0.90601 0.26173
 C2876 C 0.32237 0.88878 0.28006
 C2877 C 0.30810 0.86694 0.28081
 C2878 C 0.29087 0.86178 0.26316
 C2879 C 0.28735 0.87960 0.24547
 C2880 C 0.30149 0.90142 0.24479
 H2881 H 0.33703 0.98964 0.24598
 H2882 H 0.39711 0.94332 0.26862
 H2883 H 0.31133 0.85364 0.29463
 H2884 H 0.27416 0.87632 0.23162
 H2885 H 0.36922 0.90769 0.27025
 H2886 H 0.33591 0.89197 0.29363
 H2887 H 0.30876 0.95369 0.24763
 H2888 H 0.29896 0.91417 0.23042
 C2889 C 0.16231 0.91191 0.74104
 C2890 C 0.15808 0.91962 0.76344
 C2891 C 0.14333 0.93989 0.76738
 C2892 C 0.13210 0.95309 0.74908
 C2893 C 0.13657 0.94580 0.72658
 C2894 C 0.15141 0.92533 0.72260
 C2895 C 0.17763 0.88963 0.73746
 C2896 C 0.17106 0.87202 0.72088
 C2897 C 0.18386 0.84969 0.71981
 C2898 C 0.20333 0.84450 0.73542
 C2899 C 0.21064 0.86267 0.75109
 C2900 C 0.19814 0.88493 0.75198
 H2901 H 0.14057 0.94513 0.78492
 H2902 H 0.12804 0.95546 0.71211
 H2903 H 0.17774 0.83603 0.70759
 H2904 H 0.22581 0.85945 0.76312
 H2905 H 0.15438 0.92002 0.70512
 H2906 H 0.15532 0.87496 0.70947
 H2907 H 0.16573 0.90961 0.77813
 H2908 H 0.20424 0.89828 0.76450
 C2909 C 0.66885 0.40807 0.24208
 C2910 C 0.66268 0.41483 0.26433
 C2911 C 0.64672 0.43425 0.26782
 C2912 C 0.63618 0.44749 0.24919
 C2913 C 0.64249 0.44107 0.22687
 C2914 C 0.65856 0.42147 0.22334
 C2915 C 0.68552 0.38676 0.23892
 C2916 C 0.68088 0.36940 0.22166
 C2917 C 0.69483 0.34780 0.22083
 C2918 C 0.71354 0.34308 0.23736
 C2919 C 0.71899 0.36107 0.25376
 C2920 C 0.70533 0.38264 0.25442
 H2921 H 0.64261 0.43888 0.28526
 H2922 H 0.63456 0.45078 0.21214
 H2923 H 0.69013 0.33424 0.20804
 H2924 H 0.73352 0.35819 0.26653
 H2925 H 0.66300 0.41685 0.20598
 H2926 H 0.66573 0.37190 0.20949
 H2927 H 0.66983 0.40476 0.27920
 H2928 H 0.70993 0.39587 0.26753
 C2929 C 0.67032 0.57396 0.25678
 C2930 C 0.65936 0.56621 0.23591
 C2931 C 0.64359 0.54536 0.23526
 C2932 C 0.63836 0.53196 0.25546
 C2933 C 0.65023 0.53905 0.27604
 C2934 C 0.66591 0.55975 0.27671
 C2935 C 0.68594 0.59693 0.25792
 C2936 C 0.68450 0.61303 0.27650
 C2937 C 0.69864 0.63499 0.27714
 C2938 C 0.71454 0.64138 0.25918
 C2939 C 0.71635 0.62492 0.24093
 C2940 C 0.70227 0.60309 0.24030
 H2941 H 0.63462 0.54042 0.21921
 H2942 H 0.64702 0.52876 0.29185
 H2943 H 0.69660 0.64725 0.29134
 H2944 H 0.72850 0.62902 0.22681
 H2945 H 0.67450 0.56471 0.29292
 H2946 H 0.67193 0.60899 0.29029
 H2947 H 0.66226 0.57678 0.22022
 H2948 H 0.70422 0.59099 0.22598
 C2949 C 0.16150 0.08387 0.75215
 C2950 C 0.14954 0.07492 0.73218
 C2951 C 0.13558 0.05283 0.73284
 C2952 C 0.13318 0.03935 0.75348
 C2953 C 0.14603 0.04770 0.77312
 C2954 C 0.15997 0.06961 0.77248
 C2955 C 0.17536 0.10797 0.75195
 C2956 C 0.17479 0.12392 0.77071
 C2957 C 0.18797 0.14648 0.77046
 C2958 C 0.20201 0.15366 0.75141
 C2959 C 0.20251 0.13764 0.73271
 C2960 C 0.18942 0.11520 0.73298
 H2961 H 0.12569 0.04697 0.71753
 H2962 H 0.14482 0.03747 0.78923
 H2963 H 0.18703 0.15834 0.78509
 H2964 H 0.21316 0.14233 0.71770
 H2965 H 0.16943 0.07548 0.78800
 H2966 H 0.16387 0.11913 0.78551
 H2967 H 0.15020 0.08546 0.71623
 H2968 H 0.19065 0.10331 0.71840
 C2969 C 0.32904 0.09348 0.24223
 C2970 C 0.33393 0.08591 0.26508
 C2971 C 0.35064 0.06717 0.27032
 C2972 C 0.36317 0.05541 0.25290
 C2973 C 0.35819 0.06268 0.22999
 C2974 C 0.34140 0.08161 0.22471
 C2975 C 0.31143 0.11397 0.23720
 C2976 C 0.31631 0.13248 0.22045
 C2977 C 0.30120 0.15330 0.21809
 C2978 C 0.28104 0.15605 0.23253
 C2979 C 0.27541 0.13686 0.24825
 C2980 C 0.29025 0.11610 0.25045
 H2981 H 0.35377 0.06189 0.28813
 H2982 H 0.36769 0.05420 0.21616
 H2983 H 0.30609 0.16784 0.20591
 H2984 H 0.25983 0.13823 0.25943
 H2985 H 0.33802 0.08687 0.20693
 H2986 H 0.33248 0.13150 0.20999
 H2987 H 0.32515 0.09483 0.27910
 H2988 H 0.28547 0.10194 0.26304
 C2989 C 0.82208 0.59350 0.74091
 C2990 C 0.82859 0.58639 0.76355
 C2991 C 0.84650 0.56859 0.76807
 C2992 C 0.85866 0.55738 0.75011
 C2993 C 0.85208 0.56422 0.72741
 C2994 C 0.83405 0.58213 0.72286
 C2995 C 0.80340 0.61319 0.73655
 C2996 C 0.80651 0.63137 0.71914
 C2997 C 0.79066 0.65162 0.71728
 C2998 C 0.77153 0.65420 0.73288
 C2999 C 0.76755 0.63528 0.74932
 C3000 C 0.78312 0.61500 0.75101
 H3001 H 0.85080 0.56359 0.78575
 H3002 H 0.86123 0.55618 0.71314
 H3003 H 0.79434 0.66600 0.70457
 H3004 H 0.75284 0.63658 0.76146
 H3005 H 0.82945 0.58702 0.70521
 H3006 H 0.82195 0.63068 0.70775
 H3007 H 0.82018 0.59497 0.77795
 H3008 H 0.77967 0.60105 0.76417
 C3009 C 0.93240 0.74913 0.18246
 C3010 C 0.94614 0.77059 0.17714
 C3011 C 0.96388 0.77023 0.16024
 C3012 C 0.96794 0.74844 0.14844
 C3013 C 0.95466 0.72688 0.15424
 C3014 C 0.93708 0.72720 0.17117
 C3015 C 0.91101 0.75009 0.19736
 C3016 C 0.90601 0.73068 0.21299
 C3017 C 0.88316 0.72891 0.22340
 C3018 C 0.86502 0.74642 0.21809
 C3019 C 0.87074 0.76677 0.20374
 C3020 C 0.89359 0.76862 0.19350
 H3021 H 0.97430 0.78697 0.15633
 H3022 H 0.95714 0.70996 0.14511
 H3023 H 0.87925 0.71318 0.23459
 H3024 H 0.85721 0.78079 0.19973
 H3025 H 0.92626 0.71059 0.17460
 H3026 H 0.91937 0.71632 0.21631
 H3027 H 0.94278 0.78768 0.18572
 H3028 H 0.89700 0.78365 0.18137
 C3029 C 0.43685 0.23890 0.69658
 C3030 C 0.44226 0.21775 0.68438
 C3031 C 0.46153 0.21829 0.66902
 C3032 C 0.47563 0.23995 0.66566
 C3033 C 0.47211 0.26000 0.68005
 C3034 C 0.45269 0.25956 0.69528
 C3035 C 0.41250 0.24083 0.70687
 C3036 C 0.39758 0.26090 0.70058
 C3037 C 0.37290 0.26096 0.70661
 C3038 C 0.36282 0.24105 0.71921
 C3039 C 0.37805 0.22148 0.72639
 C3040 C 0.40269 0.22130 0.72011
 H3041 H 0.46384 0.20243 0.65856
 H3042 H 0.48337 0.27663 0.67852
 H3043 H 0.36166 0.27644 0.70116
 H3044 H 0.37075 0.20595 0.73626
 H3045 H 0.44905 0.27590 0.70492
 H3046 H 0.40467 0.27597 0.69000
 H3047 H 0.43023 0.20160 0.68511
 H3048 H 0.41392 0.20562 0.72503
 C3049 C 0.41433 0.73793 0.82558
 C3050 C 0.42182 0.76195 0.83126
 C3051 C 0.43949 0.76570 0.84841
 C3052 C 0.45004 0.74551 0.86009
 C3053 C 0.44372 0.72144 0.85371
 C3054 C 0.42565 0.71763 0.83663
 C3055 C 0.39263 0.73472 0.81032
 C3056 C 0.37282 0.71974 0.81752
 C3057 C 0.34997 0.72130 0.80626
 C3058 C 0.34662 0.73790 0.78762
 C3059 C 0.36702 0.75140 0.77934
 C3060 C 0.38985 0.74980 0.79061
 H3061 H 0.44463 0.78442 0.85288
 H3062 H 0.45204 0.70574 0.86247
 H3063 H 0.33471 0.71030 0.81280
 H3064 H 0.36517 0.76398 0.76475
 H3065 H 0.42009 0.69896 0.83244
 H3066 H 0.37450 0.70811 0.83280
 H3067 H 0.41313 0.77790 0.82325
 H3068 H 0.40504 0.76131 0.78465
 C3069 C 0.91778 0.24457 0.34203
 C3070 C 0.92243 0.26677 0.35325
 C3071 C 0.94245 0.26907 0.36840
 C3072 C 0.95865 0.24926 0.37243
 C3073 C 0.95328 0.22670 0.36162
 C3074 C 0.93301 0.22439 0.34665
 C3075 C 0.89697 0.24272 0.32555
 C3076 C 0.88003 0.22297 0.32708
 C3077 C 0.85903 0.22259 0.31286
 C3078 C 0.85483 0.24187 0.29679
 C3079 C 0.87249 0.26096 0.29454
 C3080 C 0.89333 0.26143 0.30889
 H3081 H 0.94578 0.28698 0.37573
 H3082 H 0.96425 0.21049 0.36498
 H3083 H 0.84581 0.20752 0.31484
 H3084 H 0.86978 0.27604 0.28230
 H3085 H 0.92948 0.20696 0.33836
 H3086 H 0.88253 0.20837 0.33986
 H3087 H 0.91062 0.28247 0.35015
 H3088 H 0.90643 0.27666 0.30727
 C3089 C 0.06592 0.26010 0.31602
 C3090 C 0.05795 0.23761 0.32591
 C3091 C 0.04242 0.23738 0.34456
 C3092 C 0.03483 0.25960 0.35381
 C3093 C 0.04093 0.28200 0.34259
 C3094 C 0.05630 0.28224 0.32377
 C3095 C 0.08732 0.26051 0.30087
 C3096 C 0.10665 0.27746 0.30504
 C3097 C 0.12912 0.27504 0.29447
 C3098 C 0.13280 0.25555 0.27954
 C3099 C 0.11301 0.23951 0.27415
 C3100 C 0.09040 0.24195 0.28480
 H3101 H 0.03774 0.21979 0.35247
 H3102 H 0.03446 0.29938 0.34874
 H3103 H 0.14387 0.28804 0.29860
 H3104 H 0.11526 0.22454 0.26243
 H3105 H 0.06172 0.29980 0.31604
 H3106 H 0.10499 0.29174 0.31757
 H3107 H 0.06518 0.22026 0.32043
 H3108 H 0.07566 0.22880 0.28115
 C3109 C 0.56649 0.77365 0.82555
 C3110 C 0.56637 0.78945 0.84427
 C3111 C 0.54675 0.78880 0.85920
 C3112 C 0.52648 0.77282 0.85535
 C3113 C 0.52541 0.75903 0.83526
 C3114 C 0.54538 0.75919 0.82062
 C3115 C 0.58947 0.77032 0.81292
 C3116 C 0.58891 0.76542 0.78936
 C3117 C 0.61073 0.76068 0.77812
 C3118 C 0.63338 0.76117 0.79021
 C3119 C 0.63397 0.76627 0.81363
 C3120 C 0.61223 0.77054 0.82492
 H3121 H 0.54834 0.79975 0.87444
 H3122 H 0.50961 0.74736 0.83119
 H3123 H 0.60995 0.75705 0.75995
 H3124 H 0.65123 0.76649 0.82335
 H3125 H 0.54479 0.74692 0.80624
 H3126 H 0.57168 0.76533 0.77963
 H3127 H 0.58204 0.80145 0.84807
 H3128 H 0.61328 0.77344 0.84320
 C3129 C 0.59426 0.21166 0.66755
 C3130 C 0.57123 0.20842 0.67785
 C3131 C 0.54962 0.21139 0.66481
 C3132 C 0.55098 0.21765 0.64144
 C3133 C 0.57379 0.21738 0.63062
 C3134 C 0.59537 0.21436 0.64362
 C3135 C 0.61626 0.21792 0.68156
 C3136 C 0.63958 0.20971 0.67558
 C3137 C 0.66074 0.21960 0.68603
 C3138 C 0.65893 0.23791 0.70260
 C3139 C 0.63553 0.24542 0.70915
 C3140 C 0.61440 0.23551 0.69872
 H3141 H 0.53215 0.21143 0.67346
 H3142 H 0.57506 0.22182 0.61249
 H3143 H 0.67852 0.21308 0.68088
 H3144 H 0.63350 0.25925 0.72205
 H3145 H 0.61288 0.21690 0.63524
 H3146 H 0.64142 0.19618 0.66238
 H3147 H 0.57003 0.20591 0.69626
 H3148 H 0.59664 0.24257 0.70328
 C3149 C 0.08019 0.72834 0.18210
 C3150 C 0.06639 0.74994 0.17957
 C3151 C 0.04844 0.75187 0.16238
 C3152 C 0.04405 0.73224 0.14763
 C3153 C 0.05583 0.70975 0.15149
 C3154 C 0.07398 0.70779 0.16871
 C3155 C 0.10381 0.72954 0.19486
 C3156 C 0.12522 0.72191 0.18418
 C3157 C 0.14832 0.72873 0.19288
 C3158 C 0.15041 0.74336 0.21240
 C3159 C 0.12902 0.74957 0.22398
 C3160 C 0.10588 0.74262 0.21531
 H3161 H 0.03892 0.76917 0.15975
 H3162 H 0.05213 0.69436 0.14033
 H3163 H 0.16447 0.72323 0.18381
 H3164 H 0.13010 0.76029 0.23942
 H3165 H 0.08425 0.69087 0.17059
 H3166 H 0.12417 0.71214 0.16820
 H3167 H 0.07091 0.76613 0.18946
 H3168 H 0.08956 0.74851 0.22392
   
