data_POSCAR
  _audit_creation_date              2014-09-24
  _audit_creation_method            'ToBaCCo'
  _symmetry_space_group_name_H-M    'P1'
  _symmetry_Int_Tables_number       1
  _symmetry_cell_setting            triclinic
  loop_
  _symmetry_equiv_pos_as_xyz
 x,y,z
_cell_length_a 53.0517
_cell_length_b 54.2886
_cell_length_c 55.6796
_cell_angle_alpha 90.523900
_cell_angle_beta 90.097600
_cell_angle_gamma 89.992300
loop_
  _atom_site_label
  _atom_site_type_symbol
  _atom_site_fract_x
  _atom_site_fract_y
  _atom_site_fract_z
C1 C 0.38832 -0.00371 0.25370
 C2 C 0.11297 0.00424 0.74729
 C3 C 0.61043 0.50331 0.25564
 C4 C 0.88787 0.49372 0.74799
 C5 C 0.24906 0.35753 1.00045
 C6 C 0.74942 0.14197 0.99809
 C7 C 0.24710 0.64197 0.50380
 C8 C 0.75645 0.86010 0.50379
 C9 C -0.00028 0.25167 0.36838
 C10 C 0.00043 0.75105 0.11711
 C11 C 0.50049 0.25026 0.62410
 C12 C 0.50209 0.74945 0.87573
 C13 C -0.25154 0.64573 1.00322
 C14 C -0.25395 0.35630 0.50062
 C15 C 0.25008 -0.14248 0.00547
 C16 C 0.25609 1.14271 0.49817
 C17 C 0.11268 0.49635 0.24855
 C18 C -0.11352 1.00396 0.24602
 C19 C 0.38518 0.50428 -0.24482
 C20 C 0.61640 -0.00634 -0.24647
 C21 C -0.00100 0.25216 0.87699
 C22 C 0.49696 0.25078 0.10621
 C23 C 0.00035 0.75135 0.60978
 C24 C 0.49938 0.74742 0.38455
 Zr25 Zr 0.02149 -0.01544 1.02959
 O26 O 0.04707 -0.00101 1.05532
 O27 O 0.01780 -0.05188 1.04083
 O28 O 0.00526 -0.01385 1.06449
 O29 O 0.06659 -0.02738 0.98572
 O30 O -0.03252 0.00540 1.05851
 O31 O 0.05803 -0.03104 1.02576
 O32 O -0.01118 -0.06813 1.01470
 O33 O -0.01705 -0.02193 1.02390
 O34 O 0.01840 -0.03448 0.99684
 O35 O 0.00443 0.01954 1.02925
 O36 O 0.03899 0.00709 1.00375
 Zr37 Zr -0.02142 0.01667 0.96316
 Zr38 Zr -0.03369 0.01297 1.02169
 Zr39 Zr 0.03386 -0.01166 0.97095
 Zr40 Zr -0.01986 -0.03974 0.99062
 O41 O 0.06593 0.00824 0.95960
 O42 O -0.05433 -0.05119 1.00617
 O43 O -0.00428 -0.01843 0.96306
 O44 O -0.03846 -0.00584 0.98902
 O45 O -0.01846 0.03613 0.99570
 O46 O 0.01706 0.02294 0.96912
 C47 C 0.00409 -0.06948 1.03255
 C48 C 0.07235 -0.03386 1.00719
 C49 C -0.01592 -0.00483 1.07190
 O50 O -0.06719 -0.00582 1.03094
 O51 O -0.06474 0.03207 1.00751
 O52 O -0.05678 0.03459 0.96730
 C53 C -0.07041 0.03875 0.98610
 O54 O 0.04777 0.04762 1.02892
 Zr55 Zr 0.01999 0.04100 1.00207
 O56 O -0.01757 0.05299 0.95176
 O57 O -0.03895 0.04597 1.04159
 O58 O 0.00652 0.07014 1.02419
 O59 O 0.05336 0.05456 0.98595
 O60 O 0.00923 0.07001 0.97949
 C61 C -0.00518 0.07101 0.96097
 O62 O -0.04835 0.00256 0.93853
 O63 O 0.04075 -0.04554 0.95301
 O64 O -0.00643 0.01318 0.92797
 O65 O 0.03077 -0.00725 0.93363
 O66 O -0.00655 -0.07021 0.97018
 O67 O -0.04483 -0.04757 0.96165
 C68 C 0.01405 0.00297 0.92031
 H69 H 0.02735 -0.05047 0.99666
 H70 H -0.05651 -0.00857 0.98532
 H71 H 0.02501 0.03281 0.95633
 H72 H 0.00668 0.02815 1.04485
 H73 H -0.05542 -0.06932 1.00420
 H74 H -0.07659 0.00511 1.04213
 H75 H -0.05541 0.04456 1.04987
 H76 H 0.01601 0.08519 1.01993
 H77 H -0.01674 -0.08476 0.97467
 H78 H 0.05713 -0.04387 0.94465
 H79 H 0.07530 -0.00268 0.94839
 H80 H 0.05378 0.07261 0.98870
 H81 H -0.05258 -0.06397 0.96397
 H82 H -0.05251 0.01604 0.92728
 H83 H 0.05138 -0.01462 1.06638
 H84 H 0.05225 0.06533 1.02917
 Zr85 Zr 0.51985 0.48349 0.53879
 O86 O 0.54443 0.49651 0.56607
 O87 O 0.51681 0.44618 0.54699
 O88 O 0.50288 0.48135 0.57326
 O89 O 0.56659 0.47700 0.49561
 O90 O 0.46421 0.49901 0.56786
 O91 O 0.55670 0.46881 0.53467
 O92 O 0.48959 0.43116 0.51855
 O93 O 0.48188 0.47584 0.53131
 O94 O 0.51864 0.46758 0.50442
 O95 O 0.50113 0.51757 0.54114
 O96 O 0.53713 0.50922 0.51581
 Zr97 Zr 0.47757 0.51997 0.47432
 Zr98 Zr 0.46363 0.50999 0.53184
 Zr99 Zr 0.53393 0.49352 0.48135
 Zr100 Zr 0.48093 0.46126 0.49648
 O101 O 0.56547 0.51587 0.47349
 O102 O 0.44630 0.44695 0.50920
 O103 O 0.49643 0.48583 0.47160
 O104 O 0.46078 0.49432 0.49743
 O105 O 0.47855 0.53616 0.50860
 O106 O 0.51546 0.52746 0.48207
 C107 C 0.50395 0.42893 0.53698
 C108 C 0.57164 0.46811 0.51640
 C109 C 0.48108 0.48859 0.58082
 O110 O 0.43089 0.48881 0.53828
 O111 O 0.43217 0.52902 0.51849
 O112 O 0.44114 0.53561 0.47894
 C113 C 0.42682 0.53743 0.49761
 O114 O 0.54374 0.54705 0.54426
 Zr115 Zr 0.51646 0.54229 0.51661
 O116 O 0.47922 0.55757 0.46711
 O117 O 0.45607 0.54071 0.55438
 O118 O 0.50177 0.56823 0.54163
 O119 O 0.54889 0.55948 0.50213
 O120 O 0.50355 0.57316 0.49756
 C121 C 0.48945 0.57531 0.47893
 O122 O 0.45234 0.50725 0.44745
 O123 O 0.54299 0.46209 0.46029
 O124 O 0.49401 0.52070 0.43949
 O125 O 0.53203 0.50160 0.44460
 O126 O 0.49649 0.43321 0.47426
 O127 O 0.45778 0.45537 0.46577
 C128 C 0.51525 0.51220 0.43165
 H129 H 0.52812 0.45192 0.50313
 H130 H 0.44301 0.49116 0.49289
 H131 H 0.52312 0.53903 0.47054
 H132 H 0.50253 0.52472 0.55751
 H133 H 0.44610 0.42907 0.50548
 H134 H 0.42062 0.49817 0.55009
 H135 H 0.43953 0.53769 0.56205
 H136 H 0.51076 0.58401 0.53919
 H137 H 0.48668 0.41796 0.47703
 H138 H 0.55959 0.46529 0.45280
 H139 H 0.57581 0.50658 0.46170
 H140 H 0.54814 0.57714 0.50672
 H141 H 0.45071 0.43850 0.46616
 H142 H 0.44784 0.52165 0.43747
 H143 H 0.54893 0.48217 0.57614
 H144 H 0.54788 0.56476 0.54604
 Zr145 Zr 0.48403 1.01756 0.53578
 O146 O 0.45920 1.00612 0.56323
 O147 O 0.48868 1.05491 0.54388
 O148 O 0.50134 1.01947 0.57025
 O149 O 0.43714 1.02474 0.49281
 O150 O 0.53919 1.00020 0.56468
 O151 O 0.44765 1.03333 0.53183
 O152 O 0.51611 1.06842 0.51524
 O153 O 0.52220 1.02370 0.52810
 O154 O 0.48552 1.03278 0.50140
 O155 O 0.50143 0.98285 0.53798
 O156 O 0.46560 0.99206 0.51284
 Zr157 Zr 0.52433 0.97835 0.47101
 Zr158 Zr 0.53910 0.98890 0.52853
 Zr159 Zr 0.46908 1.00699 0.47836
 Zr160 Zr 0.52336 1.03757 0.49325
 O161 O 0.43669 0.98563 0.47055
 O162 O 0.55863 1.05086 0.50579
 O163 O 0.50675 1.01311 0.46842
 O164 O 0.54222 1.00382 0.49409
 O165 O 0.52304 0.96283 0.50532
 O166 O 0.48624 0.97241 0.47895
 C167 C 0.50203 1.07151 0.53374
 C168 C 0.43254 1.03412 0.51364
 C169 C 0.52283 1.01140 0.57776
 O170 O 0.57251 1.00918 0.53508
 O171 O 0.56992 0.96894 0.51496
 O172 O 0.56044 0.96191 0.47544
 C173 C 0.57493 0.96017 0.49402
 O174 O 0.45783 0.95499 0.54132
 Zr175 Zr 0.48497 0.95827 0.51350
 O176 O 0.52115 0.94065 0.46388
 O177 O 0.54578 0.95813 0.55072
 O178 O 0.49895 0.93221 0.53836
 O179 O 0.45168 0.94215 0.49922
 O180 O 0.49631 0.92661 0.49433
 C181 C 0.51019 0.92355 0.47568
 O182 O 0.54968 0.98950 0.44388
 O183 O 0.46102 1.03841 0.45746
 O184 O 0.50748 0.97769 0.43624
 O185 O 0.47030 0.99831 0.44158
 O186 O 0.50860 1.06567 0.47104
 O187 O 0.54649 1.04202 0.46245
 C188 C 0.48651 0.98688 0.42851
 H189 H 0.47659 1.04873 0.50016
 H190 H 0.56004 1.00634 0.48949
 H191 H 0.47803 0.96094 0.46744
 H192 H 0.49989 0.97600 0.55433
 H193 H 0.55950 1.06864 0.50200
 H194 H 0.58257 0.99963 0.54678
 H195 H 0.56246 0.96069 0.55840
 H196 H 0.48929 0.91675 0.53599
 H197 H 0.51899 1.08062 0.47369
 H198 H 0.44422 1.03572 0.45006
 H199 H 0.42658 0.99511 0.45884
 H200 H 0.45172 0.92455 0.50379
 H201 H 0.55410 1.05868 0.46274
 H202 H 0.55348 0.97471 0.43392
 H203 H 0.45538 1.02084 0.57328
 H204 H 0.45306 0.93747 0.54313
 Zr205 Zr -0.01957 0.52420 1.03093
 O206 O -0.04418 0.51705 1.05994
 O207 O -0.01266 0.56191 1.03572
 O208 O -0.00137 0.52719 1.06501
 O209 O -0.06720 0.53005 0.98820
 O210 O 0.03487 0.50494 1.06024
 O211 O -0.05562 0.54077 1.02645
 O212 O 0.01498 0.57132 1.00573
 O213 O 0.01880 0.52715 1.02230
 O214 O -0.01784 0.53661 0.99547
 O215 O -0.00451 0.48865 1.03528
 O216 O -0.04002 0.49830 1.01005
 Zr217 Zr 0.01674 0.47755 0.96859
 Zr218 Zr 0.03334 0.49136 1.02489
 Zr219 Zr -0.03625 0.51026 0.97447
 Zr220 Zr 0.02014 0.53826 0.98649
 O221 O -0.06989 0.49034 0.96790
 O222 O 0.05626 0.55028 0.99798
 O223 O 0.00156 0.51311 0.96371
 O224 O 0.03672 0.50350 0.98946
 O225 O 0.01506 0.46469 1.00391
 O226 O -0.02152 0.47483 0.97737
 C227 C 0.00131 0.57686 1.02396
 C228 C -0.07118 0.54068 1.00855
 C229 C 0.01957 0.51802 1.07281
 O230 O 0.06808 0.50994 1.02961
 O231 O 0.06265 0.46858 1.01224
 O232 O 0.05159 0.45899 0.97361
 C233 C 0.06651 0.45784 0.99192
 O234 O -0.04940 0.46403 1.04169
 Zr235 Zr -0.02312 0.46347 1.01291
 O236 O 0.01008 0.43985 0.96401
 O237 O 0.03844 0.46188 1.04903
 O238 O -0.01002 0.43821 1.03896
 O239 O -0.05816 0.44926 1.00072
 O240 O -0.01551 0.42986 0.99544
 C241 C -0.00244 0.42455 0.97675
 O242 O 0.04255 0.48464 0.94052
 O243 O -0.04280 0.54086 0.95199
 O244 O -0.00029 0.47586 0.93403
 O245 O -0.03581 0.49933 0.93818
 O246 O 0.00690 0.56511 0.96207
 O247 O 0.04329 0.53886 0.95537
 C248 C -0.02048 0.48607 0.92577
 H249 H -0.02596 0.55284 0.99322
 H250 H 0.05458 0.50448 0.98444
 H251 H -0.03078 0.46325 0.96673
 H252 H -0.00618 0.48308 1.05208
 H253 H 0.05828 0.56759 0.99283
 H254 H 0.07776 0.50061 1.04175
 H255 H 0.05546 0.46382 1.05618
 H256 H -0.02086 0.42336 1.03795
 H257 H 0.01823 0.57958 0.96335
 H258 H -0.05977 0.53861 0.94483
 H259 H -0.07944 0.49959 0.95561
 H260 H -0.05954 0.43213 1.00657
 H261 H 0.05200 0.55495 0.95444
 H262 H 0.04501 0.46895 0.93153
 H263 H -0.04679 0.53287 1.06866
 H264 H -0.05515 0.44704 1.04495
 Zr265 Zr -0.02116 0.47398 0.46538
 O266 O -0.04579 0.48187 0.43649
 O267 O -0.01458 0.43631 0.46023
 O268 O -0.00305 0.47087 0.43138
 O269 O -0.06859 0.46770 0.50787
 O270 O 0.03324 0.49300 0.43625
 O271 O -0.05709 0.45732 0.46954
 O272 O 0.01309 0.42620 0.49008
 O273 O 0.01721 0.47068 0.47390
 O274 O -0.01933 0.46109 0.50066
 O275 O -0.00600 0.50950 0.46139
 O276 O -0.04144 0.49969 0.48655
 Zr277 Zr 0.01564 0.51966 0.52821
 Zr278 Zr 0.03186 0.50642 0.47168
 Zr279 Zr -0.03755 0.48724 0.52195
 Zr280 Zr 0.01868 0.45911 0.50957
 O281 O -0.07097 0.50735 0.52885
 O282 O 0.05462 0.44701 0.49773
 O283 O 0.00031 0.48409 0.53260
 O284 O 0.03538 0.49386 0.50697
 O285 O 0.01383 0.53292 0.49303
 O286 O -0.02267 0.52267 0.51956
 C287 C -0.00074 0.42106 0.47178
 C288 C -0.07257 0.45722 0.48742
 C289 C 0.01793 0.47991 0.42365
 O290 O 0.06659 0.48787 0.46681
 O291 O 0.06126 0.52899 0.48439
 O292 O 0.05054 0.53814 0.52317
 C293 C 0.06529 0.53948 0.50480
 O294 O -0.05090 0.53443 0.45548
 Zr295 Zr -0.02438 0.53448 0.48414
 O296 O 0.00916 0.55739 0.53335
 O297 O 0.03686 0.53608 0.44774
 O298 O -0.01141 0.55997 0.45830
 O299 O -0.05921 0.54878 0.49668
 O300 O -0.01630 0.56786 0.50190
 C301 C -0.00315 0.57294 0.52064
 O302 O 0.04173 0.51233 0.55608
 O303 O -0.04440 0.45638 0.54399
 O304 O -0.00100 0.52041 0.56295
 O305 O -0.03672 0.49729 0.55842
 O306 O 0.00545 0.43215 0.53384
 O307 O 0.04212 0.45802 0.54054
 C308 C -0.02112 0.51001 0.57108
 H309 H -0.02752 0.44488 0.50276
 H310 H 0.05327 0.49275 0.51194
 H311 H -0.03177 0.53414 0.53042
 H312 H -0.00771 0.51521 0.44464
 H313 H 0.05658 0.42962 0.50267
 H314 H 0.07618 0.49722 0.45465
 H315 H 0.05380 0.53413 0.44050
 H316 H -0.02216 0.57486 0.45952
 H317 H 0.01666 0.41760 0.53238
 H318 H -0.06137 0.45864 0.55109
 H319 H -0.08058 0.49794 0.54095
 H320 H -0.06050 0.56601 0.49108
 H321 H 0.05075 0.44187 0.54124
 H322 H 0.04422 0.52793 0.56521
 H323 H -0.04858 0.46623 0.42751
 H324 H -0.05668 0.55148 0.45252
 Zr325 Zr 0.48600 -0.02944 -0.02760
 O326 O 0.46091 -0.02362 -0.05663
 O327 O 0.49600 -0.06627 -0.03319
 O328 O 0.50418 -0.03130 -0.06164
 O329 O 0.43883 -0.03769 0.01493
 O330 O 0.53919 -0.00725 -0.05673
 O331 O 0.45079 -0.04771 -0.02335
 O332 O 0.52522 -0.07405 -0.00402
 O333 O 0.52446 -0.03022 -0.01888
 O334 O 0.48861 -0.04221 0.00768
 O335 O 0.49894 0.00688 -0.03181
 O336 O 0.46418 -0.00497 -0.00652
 Zr337 Zr 0.51974 0.01874 0.03509
 Zr338 Zr 0.53690 0.00621 -0.02135
 Zr339 Zr 0.46888 -0.01696 0.02894
 Zr340 Zr 0.52665 -0.04162 0.01679
 O341 O 0.43424 0.00100 0.03610
 O342 O 0.56401 -0.05102 0.00673
 O343 O 0.50679 -0.01769 0.03975
 O344 O 0.54110 -0.00595 0.01403
 O345 O 0.51714 0.03160 -0.00021
 O346 O 0.48137 0.01932 0.02626
 C347 C 0.51213 -0.08000 -0.02256
 C348 C 0.43519 -0.04815 -0.00554
 C349 C 0.52465 -0.02118 -0.06933
 O350 O 0.57263 -0.01043 -0.02619
 O351 O 0.56494 0.03032 -0.00850
 O352 O 0.55373 0.03881 0.03030
 C353 C 0.56845 0.04085 0.01197
 O354 O 0.45222 0.02842 -0.03768
 Zr355 Zr 0.47893 0.03070 -0.00925
 O356 O 0.51138 0.05623 0.03939
 O357 O 0.54012 0.03615 -0.04522
 O358 O 0.48981 0.05663 -0.03556
 O359 O 0.44345 0.04324 0.00342
 O360 O 0.48532 0.06465 0.00778
 C361 C 0.49837 0.07082 0.02625
 O362 O 0.54577 0.01304 0.06337
 O363 O 0.46427 -0.04830 0.05085
 O364 O 0.50252 0.01938 0.06960
 O365 O 0.46881 -0.00649 0.06530
 O366 O 0.51448 -0.07016 0.03981
 O367 O 0.54885 -0.04122 0.04861
 C368 C 0.48313 0.00776 0.07778
 H369 H 0.48154 -0.05897 0.00949
 H370 H 0.55899 -0.00601 0.01910
 H371 H 0.47156 0.03038 0.03695
 H372 H 0.49688 0.01242 -0.04859
 H373 H 0.56713 -0.06817 0.01194
 H374 H 0.58174 -0.00049 -0.03823
 H375 H 0.55714 0.03513 -0.05248
 H376 H 0.47796 0.07072 -0.03452
 H377 H 0.52674 -0.08386 0.03829
 H378 H 0.44725 -0.04712 0.05807
 H379 H 0.42529 -0.00902 0.04819
 H380 H 0.44110 0.06026 -0.00246
 H381 H 0.55783 -0.05712 0.05012
 H382 H 0.54731 0.02884 0.07237
 H383 H 0.45928 -0.03952 -0.06545
 H384 H 0.44513 0.04497 -0.04076
 Zr385 Zr 0.51390 0.52894 -0.02494
 O386 O 0.53909 0.52066 -0.05335
 O387 O 0.50599 0.56600 -0.03126
 O388 O 0.49633 0.53079 -0.05923
 O389 O 0.56089 0.53657 0.01817
 O390 O 0.45987 0.50893 -0.05459
 O391 O 0.54977 0.54591 -0.02036
 O392 O 0.47688 0.57627 -0.00266
 O393 O 0.47543 0.53203 -0.01685
 O394 O 0.51155 0.54299 0.01012
 O395 O 0.49898 0.49326 -0.02896
 O396 O 0.53414 0.50405 -0.00330
 Zr397 Zr 0.47678 0.48472 0.03767
 Zr398 Zr 0.46097 0.49626 -0.01911
 Zr399 Zr 0.52970 0.51745 0.03192
 Zr400 Zr 0.47341 0.54469 0.01862
 O401 O 0.56331 0.49800 0.03955
 O402 O 0.43674 0.55569 0.00790
 O403 O 0.49174 0.52052 0.04214
 O404 O 0.45700 0.50975 0.01604
 O405 O 0.47910 0.47060 0.00261
 O406 O 0.51517 0.48180 0.02946
 C407 C 0.49048 0.58089 -0.02110
 C408 C 0.56517 0.54635 -0.00234
 C409 C 0.47537 0.52164 -0.06709
 O410 O 0.42617 0.51443 -0.02451
 O411 O 0.43172 0.47366 -0.00649
 O412 O 0.44202 0.46593 0.03258
 C413 C 0.42754 0.46380 0.01401
 O414 O 0.54466 0.46909 -0.03376
 Zr415 Zr 0.51739 0.46913 -0.00583
 O416 O 0.48275 0.44702 0.04264
 O417 O 0.45645 0.46595 -0.04291
 O418 O 0.50558 0.44307 -0.03215
 O419 O 0.55177 0.45486 0.00769
 O420 O 0.50843 0.43611 0.01139
 C421 C 0.49480 0.43128 0.02973
 O422 O 0.45074 0.49304 0.06537
 O423 O 0.53567 0.54904 0.05376
 O424 O 0.49357 0.48395 0.07234
 O425 O 0.52879 0.50780 0.06832
 O426 O 0.48677 0.57339 0.04140
 O427 O 0.45094 0.54645 0.05016
 C428 C 0.51356 0.49462 0.08066
 H429 H 0.51943 0.55943 0.01185
 H430 H 0.43907 0.51083 0.02084
 H431 H 0.52421 0.47052 0.04039
 H432 H 0.50094 0.48711 -0.04564
 H433 H 0.43453 0.57314 0.01282
 H434 H 0.41672 0.50461 -0.03662
 H435 H 0.43958 0.46764 -0.05040
 H436 H 0.51654 0.42837 -0.03067
 H437 H 0.47524 0.58761 0.03949
 H438 H 0.55252 0.54716 0.06126
 H439 H 0.57265 0.50787 0.05170
 H440 H 0.55310 0.43754 0.00206
 H441 H 0.44269 0.56278 0.05128
 H442 H 0.44807 0.47770 0.07457
 H443 H 0.54174 0.53609 -0.06244
 H444 H 0.55096 0.45212 -0.03643
 Zr445 Zr 0.02628 1.01955 0.46062
 O446 O 0.05166 1.00396 0.43544
 O447 O 0.02269 1.05544 0.44803
 O448 O 0.00975 1.01709 0.42585
 O449 O 0.07148 1.03299 0.50400
 O450 O -0.02804 0.99817 0.43251
 O451 O 0.06277 1.03538 0.46385
 O452 O -0.00608 1.07288 0.47355
 O453 O -0.01220 1.02640 0.46615
 O454 O 0.02341 1.03977 0.49271
 O455 O 0.00908 0.98471 0.46209
 O456 O 0.04387 0.99795 0.48719
 Zr457 Zr -0.01638 0.98991 0.52817
 Zr458 Zr -0.02897 0.99169 0.46954
 Zr459 Zr 0.03887 1.01782 0.51937
 Zr460 Zr -0.01477 1.04543 0.49876
 O461 O 0.07094 0.99823 0.53133
 O462 O -0.04930 1.05641 0.48289
 O463 O 0.00080 1.02498 0.52703
 O464 O -0.03345 1.01164 0.50160
 O465 O -0.01364 0.96939 0.49623
 O466 O 0.02204 0.98333 0.52235
 C467 C 0.00906 1.07339 0.45556
 C468 C 0.07711 1.03884 0.48235
 C469 C -0.01157 1.00805 0.41879
 O470 O -0.06251 1.01021 0.45975
 O471 O -0.06006 0.97330 0.48437
 O472 O -0.05193 0.97221 0.52465
 C473 C -0.06570 0.96749 0.50602
 O474 O 0.05252 0.95679 0.46335
 Zr475 Zr 0.02477 0.96421 0.48994
 O476 O -0.01268 0.95380 0.54054
 O477 O -0.03439 0.95804 0.45075
 O478 O 0.01132 0.93440 0.46863
 O479 O 0.05807 0.95103 0.50660
 O480 O 0.01388 0.93593 0.51319
 C481 C -0.00050 0.93545 0.53168
 O482 O -0.04308 1.00482 0.55250
 O483 O 0.04597 1.05226 0.53618
 O484 O -0.00116 0.99465 0.56322
 O485 O 0.03599 1.01485 0.55682
 O486 O -0.00117 1.07652 0.51815
 O487 O -0.03960 1.05451 0.52743
 C488 C 0.01934 1.00517 0.57051
 H489 H 0.03238 1.05574 0.49233
 H490 H -0.05146 1.01459 0.50523
 H491 H 0.02999 0.97387 0.53545
 H492 H 0.01119 0.97560 0.44674
 H493 H -0.05027 1.07461 0.48413
 H494 H -0.07197 0.99896 0.44890
 H495 H -0.05086 0.95923 0.44240
 H496 H 0.02090 0.91951 0.47329
 H497 H -0.01118 1.09098 0.51305
 H498 H 0.06243 1.05086 0.54451
 H499 H 0.08045 1.00953 0.54210
 H500 H 0.05845 0.93291 0.50432
 H501 H -0.04716 1.07090 0.52457
 H502 H -0.04718 0.99171 0.56416
 H503 H 0.05597 1.01709 0.42387
 H504 H 0.05710 0.93911 0.46368
 Zr505 Zr 0.72283 0.27181 0.21572
 O506 O 0.73547 0.29657 0.18917
 O507 O 0.68482 0.26788 0.20672
 O508 O 0.72157 0.25590 0.18074
 O509 O 0.71501 0.31640 0.26029
 O510 O 0.74112 0.21871 0.18528
 O511 O 0.70770 0.30779 0.22064
 O512 O 0.67013 0.23964 0.23350
 O513 O 0.71637 0.23423 0.22175
 O514 O 0.70598 0.26920 0.24956
 O515 O 0.75836 0.25471 0.21358
 O516 O 0.74816 0.28883 0.23996
 Zr517 Zr 0.76091 0.22989 0.27953
 Zr518 Zr 0.75196 0.21756 0.22146
 Zr519 Zr 0.73167 0.28419 0.27386
 Zr520 Zr 0.70090 0.23188 0.25608
 O521 O 0.75319 0.31536 0.28420
 O522 O 0.68766 0.19786 0.24191
 O523 O 0.72522 0.24702 0.28209
 O524 O 0.73548 0.21335 0.25530
 O525 O 0.77805 0.23238 0.24578
 O526 O 0.76698 0.26743 0.27325
 C527 C 0.66757 0.25418 0.21560
 C528 C 0.70677 0.32206 0.23933
 C529 C 0.72990 0.23507 0.17268
 O530 O 0.73147 0.18510 0.21330
 O531 O 0.77206 0.18685 0.23407
 O532 O 0.77838 0.19495 0.27395
 C533 C 0.78067 0.18131 0.25491
 O534 O 0.78746 0.29654 0.21181
 Zr535 Zr 0.78270 0.26991 0.23920
 O536 O 0.79898 0.23384 0.28850
 O537 O 0.78394 0.21186 0.19942
 O538 O 0.81054 0.25604 0.21536
 O539 O 0.79797 0.30275 0.25416
 O540 O 0.81409 0.25995 0.25994
 C541 C 0.81656 0.24618 0.27839
 O542 O 0.74872 0.20382 0.30506
 O543 O 0.69855 0.29132 0.29390
 O544 O 0.76023 0.24484 0.31492
 O545 O 0.73921 0.28133 0.31072
 O546 O 0.67147 0.24570 0.27815
 O547 O 0.69517 0.20823 0.28580
 C548 C 0.75056 0.26499 0.32327
 H549 H 0.68972 0.27809 0.25067
 H550 H 0.73281 0.19577 0.25913
 H551 H 0.77813 0.27528 0.28536
 H552 H 0.76589 0.25671 0.19746
 H553 H 0.66935 0.19691 0.24526
 H554 H 0.74148 0.17574 0.20130
 H555 H 0.78151 0.19582 0.19108
 H556 H 0.82633 0.26527 0.21853
 H557 H 0.65617 0.23582 0.27463
 H558 H 0.70107 0.30736 0.30221
 H559 H 0.74301 0.32469 0.29610
 H560 H 0.81614 0.30316 0.25006
 H561 H 0.67805 0.20103 0.28489
 H562 H 0.76348 0.19985 0.31529
 H563 H 0.72068 0.30080 0.17908
 H564 H 0.80557 0.30064 0.21026
 Zr565 Zr 0.77131 0.72281 0.71566
 O566 O 0.75523 0.69836 0.69007
 O567 O 0.80868 0.72449 0.70415
 O568 O 0.77091 0.73836 0.68079
 O569 O 0.78116 0.67865 0.75942
 O570 O 0.75309 0.77627 0.68665
 O571 O 0.78552 0.68649 0.71938
 O572 O 0.82682 0.75227 0.72999
 O573 O 0.77980 0.76017 0.72120
 O574 O 0.79087 0.72522 0.74828
 O575 O 0.73643 0.74121 0.71600
 O576 O 0.74739 0.70704 0.74159
 Zr577 Zr 0.74024 0.76691 0.78203
 Zr578 Zr 0.74495 0.77819 0.72348
 Zr579 Zr 0.76668 0.71153 0.77430
 Zr580 Zr 0.79810 0.76236 0.75434
 O581 O 0.74471 0.68140 0.78596
 O582 O 0.81149 0.79532 0.73870
 O583 O 0.77535 0.74853 0.78199
 O584 O 0.76427 0.78218 0.75609
 O585 O 0.72043 0.76461 0.74952
 O586 O 0.73207 0.72958 0.77620
 C587 C 0.82734 0.73719 0.71206
 C588 C 0.78761 0.67254 0.73793
 C589 C 0.76292 0.75942 0.67334
 O590 O 0.76572 0.80999 0.71427
 O591 O 0.72663 0.80951 0.73766
 O592 O 0.72349 0.80217 0.77787
 C593 C 0.71987 0.81550 0.75909
 O594 O 0.70594 0.70005 0.71653
 Zr595 Zr 0.71367 0.72724 0.74325
 O596 O 0.70271 0.76492 0.79345
 O597 O 0.71165 0.78464 0.70351
 O598 O 0.68466 0.74133 0.72100
 O599 O 0.69805 0.69561 0.75963
 O600 O 0.68430 0.73950 0.76557
 C601 C 0.68375 0.75370 0.78410
 O602 O 0.75563 0.79292 0.80654
 O603 O 0.80094 0.70321 0.79202
 O604 O 0.74335 0.75258 0.81728
 O605 O 0.76254 0.71528 0.81165
 O606 O 0.82849 0.74803 0.77469
 O607 O 0.80730 0.78664 0.78321
 C608 C 0.75301 0.73230 0.82498
 H609 H 0.80679 0.71571 0.74836
 H610 H 0.76788 0.79971 0.75977
 H611 H 0.72156 0.72247 0.78908
 H612 H 0.72763 0.73928 0.70040
 H613 H 0.83008 0.79550 0.74053
 H614 H 0.75511 0.81950 0.70300
 H615 H 0.71396 0.80054 0.69518
 H616 H 0.66884 0.73270 0.72523
 H617 H 0.84391 0.75710 0.77002
 H618 H 0.79840 0.68736 0.80037
 H619 H 0.75543 0.67180 0.79706
 H620 H 0.67961 0.69598 0.75677
 H621 H 0.82448 0.79329 0.78082
 H622 H 0.74198 0.79764 0.81784
 H623 H 0.76890 0.69333 0.67892
 H624 H 0.68766 0.69634 0.71637
 Zr625 Zr 0.23309 0.23142 0.77961
 O626 O 0.24786 0.20758 0.80601
 O627 O 0.19490 0.23235 0.78850
 O628 O 0.23036 0.24723 0.81454
 O629 O 0.22832 0.18639 0.73508
 O630 O 0.24650 0.28595 0.81002
 O631 O 0.21998 0.19474 0.77457
 O632 O 0.17793 0.25894 0.76128
 O633 O 0.22348 0.26832 0.77343
 O634 O 0.21632 0.23261 0.74561
 O635 O 0.26707 0.25129 0.78197
 O636 O 0.25994 0.21629 0.75572
 Zr637 Zr 0.26767 0.27581 0.71590
 Zr638 Zr 0.25754 0.28777 0.77392
 Zr639 Zr 0.24330 0.21944 0.72167
 Zr640 Zr 0.20804 0.26930 0.73895
 O641 O 0.26751 0.18989 0.71235
 O642 O 0.19201 0.30215 0.75305
 O643 O 0.23360 0.25588 0.71319
 O644 O 0.24094 0.29053 0.73991
 O645 O 0.28472 0.27488 0.74983
 O646 O 0.27713 0.23900 0.72238
 C647 C 0.17654 0.24440 0.77929
 C648 C 0.21982 0.18050 0.75585
 C649 C 0.23674 0.26872 0.82261
 O650 O 0.23460 0.31875 0.78150
 O651 O 0.27580 0.31951 0.76121
 O652 O 0.28245 0.31180 0.72131
 C653 C 0.28409 0.32545 0.74037
 O654 O 0.29940 0.21123 0.78350
 Zr655 Zr 0.29279 0.23801 0.75660
 O656 O 0.30603 0.27589 0.70773
 O657 O 0.28867 0.29600 0.79643
 O658 O 0.31894 0.25330 0.78143
 O659 O 0.31156 0.20728 0.74106
 O660 O 0.32345 0.25212 0.73709
 C661 C 0.32476 0.26625 0.71876
 O662 O 0.25304 0.30052 0.69019
 O663 O 0.21130 0.20960 0.70093
 O664 O 0.26875 0.26058 0.68060
 O665 O 0.25100 0.22251 0.68493
 O666 O 0.17985 0.25331 0.71671
 O667 O 0.20052 0.29232 0.70911
 C668 C 0.26095 0.23961 0.67233
 H669 H 0.20078 0.22261 0.74430
 H670 H 0.23691 0.30784 0.73596
 H671 H 0.28915 0.23226 0.71043
 H672 H 0.27461 0.24993 0.79817
 H673 H 0.17367 0.30159 0.74967
 H674 H 0.24383 0.32892 0.79349
 H675 H 0.28493 0.31190 0.80455
 H676 H 0.33549 0.24540 0.77840
 H677 H 0.16383 0.26206 0.72008
 H678 H 0.21526 0.19375 0.69280
 H679 H 0.25837 0.17968 0.70034
 H680 H 0.32965 0.20872 0.74531
 H681 H 0.18296 0.29844 0.71005
 H682 H 0.26737 0.30577 0.68002
 H683 H 0.23351 0.20224 0.81611
 H684 H 0.31774 0.20813 0.78490
 Zr685 Zr 0.26369 0.76999 0.28640
 O686 O 0.24972 0.79552 0.31209
 O687 O 0.30102 0.76556 0.29770
 O688 O 0.26242 0.75474 0.32136
 O689 O 0.27489 0.81374 0.24246
 O690 O 0.24269 0.71769 0.31569
 O691 O 0.28000 0.80555 0.28236
 O692 O 0.31687 0.73684 0.27152
 O693 O 0.27009 0.73224 0.28062
 O694 O 0.28244 0.76666 0.25351
 O695 O 0.22789 0.75323 0.28649
 O696 O 0.23993 0.78688 0.26092
 Zr697 Zr 0.22906 0.72737 0.22047
 Zr698 Zr 0.23439 0.71586 0.27890
 Zr699 Zr 0.25833 0.78157 0.22795
 Zr700 Zr 0.28754 0.72921 0.24716
 O701 O 0.23756 0.81273 0.21679
 O702 O 0.29956 0.69521 0.26172
 O703 O 0.26496 0.74421 0.21997
 O704 O 0.25285 0.71100 0.24601
 O705 O 0.21001 0.73054 0.25327
 O706 O 0.22282 0.76506 0.22646
 C707 C 0.31857 0.75149 0.28966
 C708 C 0.28231 0.81950 0.26379
 C709 C 0.25328 0.73418 0.32891
 O710 O 0.25417 0.68353 0.28841
 O711 O 0.21522 0.68489 0.26493
 O712 O 0.21171 0.69234 0.22475
 C713 C 0.20824 0.67894 0.24353
 O714 O 0.19948 0.79595 0.28629
 Zr715 Zr 0.20522 0.76822 0.25966
 O716 O 0.19125 0.73057 0.21016
 O717 O 0.20085 0.71071 0.29875
 O718 O 0.17612 0.75590 0.28271
 O719 O 0.19068 0.80029 0.24313
 O720 O 0.17464 0.75684 0.23827
 C721 C 0.17296 0.74236 0.21999
 O722 O 0.24265 0.70115 0.19526
 O723 O 0.29254 0.78825 0.20961
 O724 O 0.23191 0.74182 0.18526
 O725 O 0.25315 0.77809 0.19075
 O726 O 0.31847 0.74246 0.22694
 O727 O 0.29479 0.70526 0.21755
 C728 C 0.24247 0.76165 0.17753
 H729 H 0.29887 0.77529 0.25332
 H730 H 0.25570 0.69336 0.24226
 H731 H 0.21230 0.77258 0.21378
 H732 H 0.21941 0.75561 0.30216
 H733 H 0.31803 0.69402 0.25933
 H734 H 0.24326 0.67440 0.29970
 H735 H 0.20261 0.69483 0.30723
 H736 H 0.16067 0.76530 0.27875
 H737 H 0.33340 0.73243 0.23124
 H738 H 0.29058 0.80417 0.20124
 H739 H 0.24844 0.82181 0.20545
 H740 H 0.17231 0.80073 0.24627
 H741 H 0.31173 0.69784 0.21935
 H742 H 0.22846 0.69701 0.18430
 H743 H 0.26390 0.79972 0.32303
 H744 H 0.18150 0.80086 0.28648
 Zr745 Zr 0.22945 0.77404 0.72052
 O746 O 0.24511 0.79906 0.69570
 O747 O 0.19238 0.77103 0.70806
 O748 O 0.23130 0.75875 0.68535
 O749 O 0.21780 0.81782 0.76504
 O750 O 0.25015 0.72136 0.69084
 O751 O 0.21442 0.81009 0.72475
 O752 O 0.17477 0.74242 0.73278
 O753 O 0.22206 0.73642 0.72511
 O754 O 0.20924 0.77093 0.75259
 O755 O 0.26489 0.75668 0.72132
 O756 O 0.25235 0.79032 0.74733
 Zr757 Zr 0.26047 0.73054 0.78667
 Zr758 Zr 0.25739 0.71943 0.72780
 Zr759 Zr 0.23249 0.78514 0.77945
 Zr760 Zr 0.20313 0.73353 0.75776
 O761 O 0.25325 0.81574 0.79253
 O762 O 0.19112 0.70008 0.74145
 O763 O 0.22482 0.74789 0.78621
 O764 O 0.23749 0.71471 0.75986
 O765 O 0.28094 0.73355 0.75470
 O766 O 0.26759 0.76811 0.78182
 C767 C 0.17410 0.75748 0.71514
 C768 C 0.21181 0.82397 0.74355
 C769 C 0.24018 0.73800 0.67766
 O770 O 0.23772 0.68719 0.71725
 O771 O 0.27608 0.68847 0.74174
 O772 O 0.27814 0.69570 0.78217
 C773 C 0.28242 0.68252 0.76321
 O774 O 0.29421 0.79861 0.72341
 Zr775 Zr 0.28665 0.77113 0.74939
 O776 O 0.29767 0.73351 0.79902
 O777 O 0.29137 0.71396 0.70862
 O778 O 0.31657 0.75794 0.72757
 O779 O 0.30083 0.80319 0.76677
 O780 O 0.31584 0.75971 0.77221
 C781 C 0.31646 0.74538 0.79040
 O782 O 0.24532 0.70407 0.81032
 O783 O 0.19752 0.79245 0.79633
 O784 O 0.25624 0.74463 0.82209
 O785 O 0.23579 0.78124 0.81674
 O786 O 0.17181 0.74707 0.77749
 O787 O 0.19409 0.70909 0.78609
 C788 C 0.24568 0.76454 0.82992
 H789 H 0.19306 0.78000 0.75242
 H790 H 0.23430 0.69708 0.76306
 H791 H 0.27759 0.77547 0.79509
 H792 H 0.27400 0.75894 0.70599
 H793 H 0.17253 0.69928 0.74295
 H794 H 0.24888 0.67801 0.70607
 H795 H 0.28972 0.69806 0.69987
 H796 H 0.33203 0.76697 0.73239
 H797 H 0.15680 0.73752 0.77231
 H798 H 0.19940 0.80827 0.80517
 H799 H 0.24198 0.82492 0.80361
 H800 H 0.31935 0.80337 0.76441
 H801 H 0.17709 0.70208 0.78333
 H802 H 0.25887 0.69967 0.82183
 H803 H 0.23145 0.80372 0.68442
 H804 H 0.31236 0.80284 0.72379
 Zr805 Zr 0.27581 0.22781 0.21595
 O806 O 0.26457 0.20343 0.18803
 O807 O 0.31423 0.23195 0.20885
 O808 O 0.27834 0.24427 0.18153
 O809 O 0.28160 0.18241 0.25930
 O810 O 0.25860 0.28140 0.18652
 O811 O 0.29087 0.19175 0.22037
 O812 O 0.32771 0.25954 0.23735
 O813 O 0.28193 0.26529 0.22351
 O814 O 0.29106 0.22984 0.25059
 O815 O 0.24036 0.24493 0.21290
 O816 O 0.24941 0.21034 0.23844
 Zr817 Zr 0.23486 0.26859 0.27947
 Zr818 Zr 0.24635 0.28197 0.22228
 Zr819 Zr 0.26430 0.21440 0.27318
 Zr820 Zr 0.29583 0.26704 0.25858
 O821 O 0.24216 0.18321 0.28152
 O822 O 0.30966 0.30123 0.24602
 O823 O 0.27040 0.25141 0.28292
 O824 O 0.26130 0.28559 0.25694
 O825 O 0.21930 0.26666 0.24491
 O826 O 0.22899 0.23118 0.27172
 C827 C 0.33109 0.24535 0.21909
 C828 C 0.29096 0.17716 0.23860
 C829 C 0.27024 0.26519 0.17380
 O830 O 0.26714 0.31455 0.21610
 O831 O 0.22555 0.31242 0.23514
 O832 O 0.21764 0.30360 0.27443
 C833 C 0.21605 0.31756 0.25581
 O834 O 0.21170 0.20271 0.20875
 Zr835 Zr 0.21491 0.22926 0.23688
 O836 O 0.19630 0.26483 0.28624
 O837 O 0.21530 0.28804 0.19915
 O838 O 0.18834 0.24293 0.21180
 O839 O 0.19872 0.19656 0.25060
 O840 O 0.18239 0.23971 0.25584
 C841 C 0.17905 0.25334 0.27449
 O842 O 0.24574 0.29424 0.30642
 O843 O 0.29650 0.20664 0.29432
 O844 O 0.23439 0.25319 0.31442
 O845 O 0.25559 0.21679 0.30982
 O846 O 0.32416 0.25292 0.28159
 O847 O 0.30011 0.29023 0.28929
 C848 C 0.24399 0.23303 0.32251
 H849 H 0.30725 0.22093 0.25214
 H850 H 0.26377 0.30310 0.26149
 H851 H 0.21725 0.22329 0.28312
 H852 H 0.23354 0.24317 0.19642
 H853 H 0.32778 0.30216 0.25026
 H854 H 0.25759 0.32414 0.20406
 H855 H 0.21803 0.30423 0.19149
 H856 H 0.17249 0.23352 0.21388
 H857 H 0.33958 0.26291 0.27918
 H858 H 0.29354 0.19049 0.30198
 H859 H 0.25176 0.17364 0.29353
 H860 H 0.18077 0.19629 0.24565
 H861 H 0.31719 0.29758 0.28931
 H862 H 0.23052 0.29800 0.31612
 H863 H 0.27985 0.19942 0.17851
 H864 H 0.19377 0.19815 0.20654
 Zr865 Zr 0.73578 0.72917 0.28719
 O866 O 0.75039 0.70330 0.31180
 O867 O 0.69864 0.73323 0.29911
 O868 O 0.73755 0.74381 0.32260
 O869 O 0.72342 0.68617 0.24210
 O870 O 0.75752 0.78077 0.31805
 O871 O 0.71948 0.69372 0.28236
 O872 O 0.68228 0.76248 0.27425
 O873 O 0.72937 0.76701 0.28288
 O874 O 0.71626 0.73311 0.25477
 O875 O 0.77164 0.74574 0.28729
 O876 O 0.75882 0.71265 0.26070
 Zr877 Zr 0.76903 0.77279 0.22220
 Zr878 Zr 0.76512 0.78324 0.28116
 Zr879 Zr 0.73964 0.71857 0.22826
 Zr880 Zr 0.71118 0.77069 0.24984
 O881 O 0.75993 0.68754 0.21555
 O882 O 0.69959 0.80435 0.26600
 O883 O 0.73303 0.75611 0.22173
 O884 O 0.74593 0.78876 0.24875
 O885 O 0.78888 0.76898 0.25452
 O886 O 0.77515 0.73497 0.22677
 C887 C 0.68089 0.74736 0.29178
 C888 C 0.71667 0.68007 0.26342
 C889 C 0.74693 0.76413 0.33080
 O890 O 0.74571 0.81547 0.29214
 O891 O 0.78401 0.81443 0.26801
 O892 O 0.78670 0.80765 0.22754
 C893 C 0.79054 0.82074 0.24672
 O894 O 0.80011 0.70331 0.28536
 Zr895 Zr 0.79358 0.73117 0.25949
 O896 O 0.80638 0.76915 0.21068
 O897 O 0.79910 0.78789 0.30062
 O898 O 0.82342 0.74354 0.28196
 O899 O 0.80728 0.69893 0.24210
 O900 O 0.82348 0.74198 0.23726
 C901 C 0.82471 0.75657 0.21931
 O902 O 0.75509 0.79965 0.19825
 O903 O 0.70494 0.71237 0.21039
 O904 O 0.76513 0.75907 0.18652
 O905 O 0.74399 0.72270 0.19106
 O906 O 0.67980 0.75804 0.22955
 O907 O 0.70341 0.79539 0.22136
 C908 C 0.75441 0.73939 0.17824
 H909 H 0.69981 0.72450 0.25454
 H910 H 0.74306 0.80647 0.24569
 H911 H 0.78523 0.72754 0.21364
 H912 H 0.78045 0.74306 0.30273
 H913 H 0.68107 0.80563 0.26399
 H914 H 0.75686 0.82430 0.30363
 H915 H 0.79758 0.80359 0.30972
 H916 H 0.83876 0.73423 0.27736
 H917 H 0.66501 0.76803 0.23445
 H918 H 0.70659 0.69657 0.20148
 H919 H 0.74868 0.67869 0.20417
 H920 H 0.82573 0.69824 0.24485
 H921 H 0.68656 0.80285 0.22375
 H922 H 0.76905 0.80387 0.18718
 H923 H 0.73650 0.69887 0.32286
 H924 H 0.81817 0.69873 0.28530
 Zr925 Zr 0.76870 0.26663 0.77972
 O926 O 0.75491 0.29013 0.80726
 O927 O 0.80724 0.26578 0.78721
 O928 O 0.77249 0.25047 0.81410
 O929 O 0.77218 0.31225 0.73659
 O930 O 0.75600 0.21189 0.80894
 O931 O 0.78175 0.30329 0.77557
 O932 O 0.82339 0.23990 0.75850
 O933 O 0.77806 0.22979 0.77225
 O934 O 0.78424 0.26584 0.74522
 O935 O 0.73476 0.24684 0.78243
 O936 O 0.74109 0.28218 0.75708
 Zr937 Zr 0.73177 0.22312 0.71575
 Zr938 Zr 0.74391 0.21045 0.77308
 Zr939 Zr 0.75652 0.27943 0.72249
 Zr940 Zr 0.79224 0.22922 0.73730
 O941 O 0.73203 0.30907 0.71473
 O942 O 0.80878 0.19646 0.75051
 O943 O 0.76579 0.24303 0.71272
 O944 O 0.75931 0.20806 0.73853
 O945 O 0.71593 0.22371 0.75016
 O946 O 0.72268 0.25990 0.72353
 C947 C 0.82539 0.25437 0.77679
 C948 C 0.78140 0.31779 0.75733
 C949 C 0.76615 0.22899 0.82175
 O950 O 0.76705 0.17937 0.77915
 O951 O 0.72517 0.17886 0.76001
 O952 O 0.71700 0.18710 0.72060
 C953 C 0.71606 0.17320 0.73929
 O954 O 0.70268 0.28695 0.78611
 Zr955 Zr 0.70824 0.26054 0.75821
 O956 O 0.69311 0.22342 0.70864
 O957 O 0.71351 0.20196 0.79613
 O958 O 0.68286 0.24502 0.78328
 O959 O 0.68911 0.29153 0.74410
 O960 O 0.67684 0.24685 0.73920
 C961 C 0.67481 0.23301 0.72048
 O962 O 0.74524 0.19856 0.68895
 O963 O 0.78777 0.28961 0.70116
 O964 O 0.72991 0.23869 0.68087
 O965 O 0.74778 0.27672 0.68586
 O966 O 0.81939 0.24516 0.71424
 O967 O 0.79864 0.20616 0.70686
 C968 C 0.73760 0.25970 0.67299
 H969 H 0.79970 0.27588 0.74366
 H970 H 0.76314 0.19079 0.73399
 H971 H 0.71032 0.26681 0.71208
 H972 H 0.72775 0.24803 0.79886
 H973 H 0.82699 0.19703 0.74662
 H974 H 0.75825 0.16911 0.79114
 H975 H 0.71750 0.18598 0.80372
 H976 H 0.66627 0.25308 0.78100
 H977 H 0.83555 0.23639 0.71681
 H978 H 0.78356 0.30560 0.69370
 H979 H 0.74080 0.31946 0.70283
 H980 H 0.67118 0.29016 0.74886
 H981 H 0.81613 0.19980 0.70733
 H982 H 0.73051 0.19353 0.67906
 H983 H 0.76961 0.29533 0.81712
 H984 H 0.68443 0.29017 0.78807
 C985 C 0.43793 0.97375 0.29967
 C986 C 0.43339 0.98890 0.31965
 C987 C 0.41397 1.00633 0.31862
 C988 C 0.39952 1.00896 0.29771
 C989 C 0.40458 0.99464 0.27691
 C990 C 0.42349 0.97634 0.27872
 C991 C 0.44799 0.98627 0.34153
 C992 C 0.45938 0.98473 0.36035
 C993 C 0.47134 0.98393 0.38321
 C994 C 0.47970 0.98442 0.40348
 H995 H 0.45251 0.95981 0.30030
 H996 H 0.40976 1.01776 0.33415
 H997 H 0.38410 1.02197 0.29818
 H998 H 0.42723 0.96408 0.26370
 C999 C -0.06328 0.47202 0.79501
 C1000 C -0.06915 0.48659 0.81508
 C1001 C -0.08886 0.50363 0.81358
 C1002 C -0.10244 0.50632 0.79220
 C1003 C -0.09619 0.49249 0.77139
 C1004 C -0.07685 0.47468 0.77355
 C1005 C -0.05570 0.48381 0.83756
 C1006 C -0.04540 0.48236 0.85692
 C1007 C -0.03468 0.48189 0.88029
 C1008 C -0.02708 0.48286 0.90079
 H1009 H -0.04841 0.45838 0.79599
 H1010 H -0.09406 0.51462 0.82914
 H1011 H -0.11824 0.51889 0.79237
 H1012 H -0.07227 0.46274 0.75850
 C1013 C 0.09124 0.00164 0.81323
 C1014 C 0.06505 -0.00024 0.81127
 C1015 C 0.05402 -0.00280 0.78855
 C1016 C 0.06901 -0.00230 0.76784
 C1017 C 0.09535 0.00170 0.76943
 C1018 C 0.10622 0.00217 0.79264
 C1019 C 0.04987 0.00063 0.83278
 C1020 C 0.03856 0.00163 0.85158
 C1021 C 0.02727 0.00274 0.87460
 C1022 C 0.01977 0.00327 0.89507
 H1023 H 0.10013 0.00305 0.83072
 H1024 H 0.03381 -0.00510 0.78681
 H1025 H 0.05973 -0.00517 0.75078
 H1026 H 0.12643 0.00395 0.79477
 C1027 C 0.56185 0.52604 0.30271
 C1028 C 0.56666 0.51079 0.32230
 C1029 C 0.58605 0.49337 0.32071
 C1030 C 0.60016 0.49079 0.29960
 C1031 C 0.59474 0.50514 0.27915
 C1032 C 0.57595 0.52351 0.28156
 C1033 C 0.55236 0.51325 0.34433
 C1034 C 0.54126 0.51460 0.36329
 C1035 C 0.52969 0.51518 0.38627
 C1036 C 0.52167 0.51458 0.40661
 H1037 H 0.54729 0.54000 0.30380
 H1038 H 0.59048 0.48187 0.33596
 H1039 H 0.61555 0.47775 0.29965
 H1040 H 0.57199 0.53580 0.26682
 C1041 C 0.55369 0.49238 0.21233
 C1042 C 0.56499 0.49598 0.18997
 C1043 C 0.59060 0.50197 0.18890
 C1044 C 0.60475 0.50462 0.20997
 C1045 C 0.59353 0.50204 0.23283
 C1046 C 0.56781 0.49502 0.23350
 C1047 C 0.55063 0.49346 0.16798
 C1048 C 0.53961 0.49197 0.14898
 C1049 C 0.52820 0.49124 0.12593
 C1050 C 0.52023 0.49188 0.10559
 H1051 H 0.53400 0.48721 0.21342
 H1052 H 0.59974 0.50445 0.17170
 H1053 H 0.62465 0.50872 0.20847
 H1054 H 0.55854 0.49088 0.25025
 C1055 C 0.09040 0.99332 0.68161
 C1056 C 0.07002 1.00949 0.67999
 C1057 C 0.06486 1.02554 0.69919
 C1058 C 0.07925 1.02443 0.72034
 C1059 C 0.09838 1.00650 0.72313
 C1060 C 0.10469 0.99215 0.70263
 C1061 C 0.05513 1.00958 0.65823
 C1062 C 0.04394 1.00869 0.63931
 C1063 C 0.03268 1.00711 0.61624
 C1064 C 0.02514 1.00589 0.59577
 H1065 H 0.09529 0.98149 0.66654
 H1066 H 0.04963 1.03876 0.69791
 H1067 H 0.07483 1.03699 0.73495
 H1068 H 0.12069 0.97984 0.70253
 C1069 C -0.05689 0.50668 0.70392
 C1070 C -0.06860 0.50282 0.68167
 C1071 C -0.09383 0.49538 0.68097
 C1072 C -0.10725 0.49183 0.70225
 C1073 C -0.09567 0.49498 0.72496
 C1074 C -0.07030 0.50312 0.72531
 C1075 C -0.05516 0.50681 0.65942
 C1076 C -0.04498 0.50955 0.64018
 C1077 C -0.03450 0.51167 0.61684
 C1078 C -0.02720 0.51201 0.59626
 H1079 H -0.03750 0.51290 0.70477
 H1080 H -0.10330 0.49265 0.66389
 H1081 H -0.12698 0.48686 0.70101
 H1082 H -0.06085 0.50760 0.74199
 C1083 C 0.40674 -0.00257 0.18660
 C1084 C 0.43220 0.00413 0.18733
 C1085 C 0.44389 0.00794 0.20959
 C1086 C 0.43030 0.00496 0.23094
 C1087 C 0.40473 -0.00261 0.23060
 C1088 C 0.39312 -0.00557 0.20788
 C1089 C 0.44603 0.00728 0.16515
 C1090 C 0.45678 0.00934 0.14610
 C1091 C 0.46810 0.01068 0.12304
 C1092 C 0.47617 0.01042 0.10271
 H1093 H 0.39728 -0.00524 0.16951
 H1094 H 0.46345 0.01362 0.21046
 H1095 H 0.43983 0.00935 0.24760
 H1096 H 0.37328 -0.01009 0.20663
 C1097 C 0.31716 0.38185 -0.00924
 C1098 C 0.31876 0.40056 0.00814
 C1099 C 0.29766 0.40593 0.02229
 C1100 C 0.27521 0.39266 0.01913
 C1101 C 0.27300 0.37405 0.00129
 C1102 C 0.29476 0.36855 -0.01244
 C1103 C 0.34220 0.41389 0.01159
 C1104 C 0.36191 0.42495 0.01390
 C1105 C 0.38505 0.43806 0.01563
 C1106 C 0.40463 0.44955 0.01584
 H1107 H 0.33346 0.37715 -0.02005
 H1108 H 0.29865 0.42013 0.03606
 H1109 H 0.25952 0.39668 0.03095
 H1110 H 0.29498 0.35340 -0.02516
 C1111 C -0.18288 0.89516 0.48423
 C1112 C -0.17660 0.90770 0.50551
 C1113 C -0.19316 0.90682 0.52499
 C1114 C -0.21504 0.89246 0.52367
 C1115 C -0.22049 0.87781 0.50315
 C1116 C -0.20478 0.88074 0.48287
 C1117 C -0.15300 0.92102 0.50747
 C1118 C -0.13305 0.93180 0.50885
 C1119 C -0.10948 0.94423 0.50965
 C1120 C -0.08939 0.95481 0.50903
 H1121 H -0.17067 0.89630 0.46870
 H1122 H -0.18892 0.91686 0.54142
 H1123 H -0.22725 0.89179 0.53922
 H1124 H -0.20910 0.87192 0.46590
 C1125 C -0.20214 0.09288 0.97777
 C1126 C -0.18064 0.09936 0.99097
 C1127 C -0.18194 0.11903 1.00734
 C1128 C -0.20443 0.13220 1.01044
 C1129 C -0.22654 0.12563 0.99765
 C1130 C -0.22467 0.10601 0.98084
 C1131 C -0.15712 0.08622 0.98750
 C1132 C -0.13728 0.07540 0.98518
 C1133 C -0.11389 0.06273 0.98354
 C1134 C -0.09395 0.05185 0.98360
 H1135 H -0.20140 0.07792 0.96478
 H1136 H -0.16534 0.12457 1.01739
 H1137 H -0.20406 0.14807 1.02230
 H1138 H -0.24067 0.10111 0.96969
 C1139 C 0.31718 0.62338 0.50170
 C1140 C 0.31642 0.59772 0.50295
 C1141 C 0.29328 0.58597 0.50690
 C1142 C 0.27089 0.59974 0.50836
 C1143 C 0.27113 0.62555 0.50508
 C1144 C 0.29496 0.63711 0.50312
 C1145 C 0.33952 0.58376 0.50019
 C1146 C 0.35926 0.57279 0.49794
 C1147 C 0.38276 0.56039 0.49601
 C1148 C 0.40292 0.54994 0.49565
 H1149 H 0.33496 0.63283 0.49920
 H1150 H 0.29250 0.56614 0.50871
 H1151 H 0.25363 0.58995 0.51197
 H1152 H 0.29622 0.65694 0.50152
 C1153 C 0.17856 0.62183 0.51915
 C1154 C 0.17499 0.60165 0.50384
 C1155 C 0.19416 0.59510 0.48769
 C1156 C 0.21702 0.60818 0.48752
 C1157 C 0.22170 0.62749 0.50416
 C1158 C 0.20127 0.63485 0.51902
 C1159 C 0.15143 0.58819 0.50465
 C1160 C 0.13154 0.57729 0.50573
 C1161 C 0.10816 0.56457 0.50678
 C1162 C 0.08838 0.55343 0.50675
 H1163 H 0.16363 0.62771 0.53116
 H1164 H 0.19144 0.57992 0.47519
 H1165 H 0.23131 0.60296 0.47457
 H1166 H 0.20234 0.65096 0.53049
 C1167 C 0.67835 0.12655 -0.00218
 C1168 C 0.67787 0.10243 0.00640
 C1169 C 0.70063 0.09054 0.01159
 C1170 C 0.72369 0.10266 0.00828
 C1171 C 0.72460 0.12685 -0.00096
 C1172 C 0.70133 0.13869 -0.00551
 C1173 C 0.65401 0.08999 0.00988
 C1174 C 0.63402 0.07953 0.01224
 C1175 C 0.61067 0.06688 0.01399
 C1176 C 0.59106 0.05548 0.01410
 H1177 H 0.66091 0.13613 -0.00602
 H1178 H 0.70056 0.07200 0.01861
 H1179 H 0.74068 0.09321 0.01370
 H1180 H 0.70094 0.15763 -0.01140
 C1181 C 0.69419 0.89361 0.52175
 C1182 C 0.68819 0.90545 0.50022
 C1183 C 0.70566 0.90523 0.48147
 C1184 C 0.72812 0.89193 0.48360
 C1185 C 0.73331 0.87771 0.50422
 C1186 C 0.71672 0.88025 0.52393
 C1187 C 0.66391 0.91720 0.49709
 C1188 C 0.64345 0.92673 0.49453
 C1189 C 0.61935 0.93790 0.49233
 C1190 C 0.59889 0.94776 0.49189
 H1191 H 0.68122 0.89431 0.53675
 H1192 H 0.70162 0.91476 0.46489
 H1193 H 0.74088 0.89145 0.46844
 H1194 H 0.72068 0.87169 0.54096
 C1195 C 0.17781 0.37241 1.00187
 C1196 C 0.17704 0.39716 0.99515
 C1197 C 0.19968 0.40955 0.99070
 C1198 C 0.22287 0.39736 0.99298
 C1199 C 0.22407 0.37251 1.00040
 C1200 C 0.20092 0.36019 1.00416
 C1201 C 0.15303 0.40969 0.99265
 C1202 C 0.13293 0.42018 0.99097
 C1203 C 0.10942 0.43272 0.98981
 C1204 C 0.08960 0.44384 0.98991
 H1205 H 0.16048 0.36242 1.00509
 H1206 H 0.19941 0.42860 0.98507
 H1207 H 0.23972 0.40735 0.98818
 H1208 H 0.20075 0.34084 1.00869
 C1209 C -0.00800 0.28864 0.42768
 C1210 C -0.00659 0.31259 0.41889
 C1211 C -0.00504 0.31677 0.39430
 C1212 C -0.00360 0.29702 0.37844
 C1213 C -0.00289 0.27262 0.38693
 C1214 C -0.00668 0.26870 0.41173
 C1215 C -0.00581 0.33336 0.43461
 C1216 C -0.00450 0.35225 0.44574
 C1217 C -0.00269 0.37554 0.45635
 C1218 C -0.00142 0.39618 0.46390
 H1219 H -0.00993 0.28540 0.44676
 H1220 H -0.00445 0.33536 0.38738
 H1221 H -0.00215 0.30076 0.35942
 H1222 H -0.00869 0.25042 0.41899
 C1223 C 0.52279 -0.20863 -0.07168
 C1224 C 0.51782 -0.18549 -0.08117
 C1225 C 0.50895 -0.18312 -0.10462
 C1226 C 0.50402 -0.20406 -0.11837
 C1227 C 0.50701 -0.22772 -0.10852
 C1228 C 0.51793 -0.22962 -0.08541
 C1229 C 0.51997 -0.16409 -0.06644
 C1230 C 0.52012 -0.14559 -0.05469
 C1231 C 0.51851 -0.12335 -0.04213
 C1232 C 0.51596 -0.10376 -0.03253
 H1233 H 0.53014 -0.21046 -0.05361
 H1234 H 0.50543 -0.16510 -0.11215
 H1235 H 0.49737 -0.20180 -0.13661
 H1236 H 0.52274 -0.24727 -0.07781
 C1237 C -0.01195 -0.19498 1.07515
 C1238 C 0.01053 -0.18181 1.07682
 C1239 C 0.03110 -0.19138 1.08926
 C1240 C 0.02862 -0.21351 1.10148
 C1241 C 0.00510 -0.22572 1.10221
 C1242 C -0.01451 -0.21700 1.08738
 C1243 C 0.01153 -0.15762 1.06733
 C1244 C 0.01098 -0.13706 1.05987
 C1245 C 0.00907 -0.11313 1.05120
 C1246 C 0.00684 -0.09290 1.04321
 H1247 H -0.02781 -0.18780 1.06512
 H1248 H 0.04881 -0.18147 1.09000
 H1249 H 0.04507 -0.22066 1.11051
 H1250 H -0.03234 -0.22666 1.08633
 C1251 C 0.49235 0.30078 0.57731
 C1252 C 0.50962 0.31836 0.58530
 C1253 C 0.52468 0.31398 0.60535
 C1254 C 0.52244 0.29186 0.61755
 C1255 C 0.50554 0.27347 0.60940
 C1256 C 0.49003 0.27868 0.58945
 C1257 C 0.51008 0.34183 0.57426
 C1258 C 0.50948 0.36174 0.56537
 C1259 C 0.50789 0.38509 0.55536
 C1260 C 0.50612 0.40516 0.54694
 H1261 H 0.48013 0.30445 0.56214
 H1262 H 0.53752 0.32798 0.61202
 H1263 H 0.53334 0.28963 0.63381
 H1264 H 0.47576 0.26573 0.58350
 C1265 C 0.48453 1.18401 0.60598
 C1266 C 0.49505 1.18240 0.58312
 C1267 C 0.50659 1.20277 0.57278
 C1268 C 0.50773 1.22493 0.58544
 C1269 C 0.49669 1.22719 0.60843
 C1270 C 0.48566 1.20610 0.61869
 C1271 C 0.49600 1.15917 0.57125
 C1272 C 0.49730 1.13931 0.56199
 C1273 C 0.49912 1.11585 0.55187
 C1274 C 0.50063 1.09558 0.54354
 H1275 H 0.47616 1.16800 0.61428
 H1276 H 0.51545 1.20128 0.55530
 H1277 H 0.51813 1.23991 0.57748
 H1278 H 0.47834 1.20662 0.63683
 C1279 C 0.01979 0.70425 1.06877
 C1280 C -0.00261 0.69140 1.06493
 C1281 C -0.02497 0.69939 1.07559
 C1282 C -0.02461 0.71921 1.09161
 C1283 C -0.00156 0.73059 1.09794
 C1284 C 0.02021 0.72405 1.08477
 C1285 C -0.00190 0.66805 1.05313
 C1286 C -0.00099 0.64760 1.04504
 C1287 C 0.00014 0.62314 1.03721
 C1288 C 0.00091 0.60197 1.03117
 H1289 H 0.03716 0.69826 1.06033
 H1290 H -0.04251 0.68971 1.07224
 H1291 H -0.04234 0.72511 1.09926
 H1292 H 0.03793 0.73343 1.08800
 C1293 C 0.50313 0.68230 -0.10289
 C1294 C 0.48857 0.68412 -0.08211
 C1295 C 0.47731 0.70634 -0.07557
 C1296 C 0.48150 0.72714 -0.08936
 C1297 C 0.49788 0.72621 -0.10935
 C1298 C 0.50739 0.70308 -0.11670
 C1299 C 0.48624 0.66324 -0.06710
 C1300 C 0.48561 0.64525 -0.05495
 C1301 C 0.48635 0.62358 -0.04178
 C1302 C 0.48793 0.60437 -0.03163
 H1303 H 0.51139 0.66486 -0.10831
 H1304 H 0.46558 0.70766 -0.05969
 H1305 H 0.47242 0.74420 -0.08406
 H1306 H 0.51821 0.70095 -0.13303
 C1307 C -0.00342 1.18213 0.38097
 C1308 C 0.01420 1.17997 0.39939
 C1309 C 0.02834 1.20031 0.40686
 C1310 C 0.02393 1.22321 0.39654
 C1311 C 0.00446 1.22626 0.37949
 C1312 C -0.00794 1.20492 0.37077
 C1313 C 0.01611 1.15710 0.41151
 C1314 C 0.01582 1.13777 0.42159
 C1315 C 0.01388 1.11525 0.43329
 C1316 C 0.01161 1.09604 0.44338
 H1317 H -0.01398 1.16622 0.37472
 H1318 H 0.04240 1.19857 0.42088
 H1319 H 0.03522 1.23878 0.40236
 H1320 H -0.02120 1.20557 0.35603
 C1321 C 0.77080 0.69178 0.95473
 C1322 C 0.75435 0.68660 0.93564
 C1323 C 0.73732 0.66714 0.93761
 C1324 C 0.73581 0.65366 0.95877
 C1325 C 0.75068 0.65987 0.97911
 C1326 C 0.76933 0.67822 0.97604
 C1327 C 0.75504 0.70038 0.91356
 C1328 C 0.75465 0.71058 0.89435
 C1329 C 0.75369 0.72070 0.87099
 C1330 C 0.75302 0.72735 0.85034
 H1331 H 0.78469 0.70630 0.95319
 H1332 H 0.72516 0.66226 0.92265
 H1333 H 0.72291 0.63827 0.95883
 H1334 H 0.78232 0.68254 0.99049
 C1335 C 0.26756 0.16666 0.43351
 C1336 C 0.24949 0.18538 0.43200
 C1337 C 0.23387 0.19026 0.45163
 C1338 C 0.23646 0.17669 0.47270
 C1339 C 0.25520 0.15827 0.47496
 C1340 C 0.27021 0.15303 0.45460
 C1341 C 0.24631 0.19880 0.40993
 C1342 C 0.24403 0.20925 0.39099
 C1343 C 0.24227 0.22006 0.36802
 C1344 C 0.24207 0.22741 0.34761
 H1345 H 0.27934 0.16227 0.41819
 H1346 H 0.21945 0.20434 0.45058
 H1347 H 0.22371 0.18057 0.48742
 H1348 H 0.28359 0.13802 0.45454
 C1349 C 0.76545 0.30804 0.45277
 C1350 C 0.74951 0.31345 0.43354
 C1351 C 0.73238 0.33296 0.43565
 C1352 C 0.73088 0.34676 0.45697
 C1353 C 0.74609 0.34091 0.47700
 C1354 C 0.76400 0.32178 0.47408
 C1355 C 0.75132 0.29974 0.41126
 C1356 C 0.75246 0.28910 0.39214
 C1357 C 0.75305 0.27812 0.36898
 C1358 C 0.75261 0.27068 0.34848
 H1359 H 0.77918 0.29334 0.45124
 H1360 H 0.72040 0.33779 0.42063
 H1361 H 0.71817 0.36231 0.45735
 H1362 H 0.77689 0.31740 0.48853
 C1363 C 0.22570 0.81076 0.95785
 C1364 C 0.24252 0.81441 0.93888
 C1365 C 0.26003 0.83354 0.94030
 C1366 C 0.26186 0.84800 0.96102
 C1367 C 0.24685 0.84306 0.98143
 C1368 C 0.22747 0.82534 0.97871
 C1369 C 0.24191 0.79925 0.91751
 C1370 C 0.24256 0.78795 0.89877
 C1371 C 0.24401 0.77680 0.87578
 C1372 C 0.24514 0.76962 0.85525
 H1373 H 0.21142 0.79654 0.95664
 H1374 H 0.27243 0.83726 0.92532
 H1375 H 0.27527 0.86298 0.96080
 H1376 H 0.21437 0.82207 0.99322
 C1377 C 0.25123 0.83650 0.07135
 C1378 C 0.25133 0.81082 0.06925
 C1379 C 0.25374 0.79984 0.04656
 C1380 C 0.25455 0.81444 0.02597
 C1381 C 0.25195 0.84038 0.02762
 C1382 C 0.25202 0.85110 0.05085
 C1383 C 0.24868 0.79606 0.09051
 C1384 C 0.24627 0.78500 0.10908
 C1385 C 0.24375 0.77399 0.13187
 C1386 C 0.24243 0.76681 0.15228
 H1387 H 0.25005 0.84528 0.08887
 H1388 H 0.25477 0.77998 0.04475
 H1389 H 0.25719 0.80515 0.00894
 H1390 H 0.25143 0.87094 0.05302
 C1391 C 0.74649 0.33559 0.56682
 C1392 C 0.73859 0.31104 0.56513
 C1393 C 0.73283 0.30092 0.54263
 C1394 C 0.73536 0.31509 0.52190
 C1395 C 0.74450 0.33961 0.52308
 C1396 C 0.74904 0.34980 0.54612
 C1397 C 0.73622 0.29647 0.58661
 C1398 C 0.73482 0.28514 0.60514
 C1399 C 0.73419 0.27345 0.62777
 C1400 C 0.73488 0.26557 0.64799
 H1401 H 0.75057 0.34383 0.58419
 H1402 H 0.72610 0.28213 0.54110
 H1403 H 0.72955 0.30677 0.50507
 H1404 H 0.75469 0.36888 0.54807
 C1405 C 0.25426 0.16326 0.56477
 C1406 C 0.26148 0.18802 0.56363
 C1407 C 0.26728 0.19828 0.54141
 C1408 C 0.26543 0.18406 0.52040
 C1409 C 0.25691 0.15932 0.52100
 C1410 C 0.25239 0.14899 0.54379
 C1411 C 0.26318 0.20266 0.58537
 C1412 C 0.26411 0.21408 0.60409
 C1413 C 0.26434 0.22587 0.62688
 C1414 C 0.26352 0.23378 0.64721
 H1415 H 0.25019 0.15492 0.58193
 H1416 H 0.27352 0.21724 0.54032
 H1417 H 0.27121 0.19252 0.50380
 H1418 H 0.24726 0.12976 0.54530
 C1419 C 0.74344 0.70340 0.04541
 C1420 C 0.74590 0.69238 0.06792
 C1421 C 0.74657 0.66672 0.06944
 C1422 C 0.74622 0.65220 0.04862
 C1423 C 0.74603 0.66296 0.02559
 C1424 C 0.74303 0.68885 0.02445
 C1425 C 0.74812 0.70697 0.08966
 C1426 C 0.75028 0.71763 0.10871
 C1427 C 0.75265 0.72803 0.13203
 C1428 C 0.75405 0.73470 0.15276
 H1429 H 0.74206 0.72324 0.04402
 H1430 H 0.74790 0.65787 0.08676
 H1431 H 0.74733 0.63238 0.05042
 H1432 H 0.74043 0.69812 0.00756
 C1433 C 0.16024 0.54702 0.23025
 C1434 C 0.15312 0.56701 0.24481
 C1435 C 0.13371 0.56384 0.26149
 C1436 C 0.12141 0.54110 0.26351
 C1437 C 0.12856 0.52051 0.24927
 C1438 C 0.14795 0.52420 0.23224
 C1439 C 0.16512 0.59097 0.24241
 C1440 C 0.17484 0.61116 0.24100
 C1441 C 0.18618 0.63498 0.24028
 C1442 C 0.19603 0.65518 0.24085
 H1443 H 0.17497 0.54918 0.21699
 H1444 H 0.12762 0.57918 0.27263
 H1445 H 0.10560 0.54016 0.27568
 H1446 H 0.15325 0.50945 0.22005
 C1447 C 0.63918 0.06115 0.76319
 C1448 C 0.65813 0.06314 0.74585
 C1449 C 0.66420 0.04248 0.73178
 C1450 C 0.65141 0.02014 0.73496
 C1451 C 0.63255 0.01758 0.75273
 C1452 C 0.62635 0.03885 0.76641
 C1453 C 0.67083 0.08652 0.74225
 C1454 C 0.68123 0.10624 0.73978
 C1455 C 0.69334 0.12956 0.73785
 C1456 C 0.70367 0.14949 0.73750
 H1457 H 0.63390 0.07706 0.77394
 H1458 H 0.67856 0.04373 0.71803
 H1459 H 0.65595 0.00480 0.72318
 H1460 H 0.61096 0.03872 0.77909
 C1461 C 0.82935 0.04976 0.24500
 C1462 C 0.84171 0.07239 0.24843
 C1463 C 0.86804 0.07279 0.24896
 C1464 C 0.88182 0.05088 0.24718
 C1465 C 0.86974 0.02764 0.24548
 C1466 C 0.84317 0.02766 0.24319
 C1467 C 0.82776 0.09531 0.25133
 C1468 C 0.81681 0.11484 0.25368
 C1469 C 0.80433 0.13806 0.25580
 C1470 C 0.79369 0.15788 0.25643
 H1471 H 0.80898 0.04916 0.24383
 H1472 H 0.87802 0.09008 0.25110
 H1473 H 0.90218 0.05194 0.24816
 H1474 H 0.83282 0.01083 0.24002
 C1475 C 0.33588 0.55308 0.77453
 C1476 C 0.34257 0.57350 0.76076
 C1477 C 0.36258 0.57142 0.74453
 C1478 C 0.37581 0.54922 0.74205
 C1479 C 0.36895 0.52814 0.75532
 C1480 C 0.34909 0.53082 0.77208
 C1481 C 0.32934 0.59674 0.76345
 C1482 C 0.31852 0.61635 0.76512
 C1483 C 0.30596 0.63948 0.76609
 C1484 C 0.29526 0.65919 0.76569
 H1485 H 0.32068 0.55445 0.78744
 H1486 H 0.36832 0.58718 0.73406
 H1487 H 0.39195 0.54902 0.73023
 H1488 H 0.34399 0.51565 0.78358
 C1489 C 0.33115 0.45745 0.74217
 C1490 C 0.34304 0.43500 0.74703
 C1491 C 0.36802 0.43510 0.75510
 C1492 C 0.38099 0.45735 0.75828
 C1493 C 0.36918 0.48029 0.75409
 C1494 C 0.34411 0.47979 0.74535
 C1495 C 0.32985 0.41182 0.74358
 C1496 C 0.31914 0.39222 0.74118
 C1497 C 0.30681 0.36902 0.73926
 C1498 C 0.29640 0.34914 0.73883
 H1499 H 0.31196 0.45769 0.73551
 H1500 H 0.37764 0.41791 0.75865
 H1501 H 0.40055 0.45667 0.76383
 H1502 H 0.33457 0.49652 0.74019
 C1503 C 0.86614 0.93664 0.23019
 C1504 C 0.84637 0.93256 0.24615
 C1505 C 0.83978 0.95130 0.26250
 C1506 C 0.85253 0.97406 0.26241
 C1507 C 0.87161 0.97905 0.24539
 C1508 C 0.87884 0.95921 0.23007
 C1509 C 0.83369 0.90879 0.24591
 C1510 C 0.82374 0.88864 0.24521
 C1511 C 0.81238 0.86482 0.24449
 C1512 C 0.80262 0.84458 0.24468
 H1513 H 0.87211 0.92215 0.21796
 H1514 H 0.82495 0.94827 0.27548
 H1515 H 0.84744 0.98789 0.27566
 H1516 H 0.89482 0.96051 0.21818
 C1517 C 0.63379 0.92449 0.75197
 C1518 C 0.65927 0.92451 0.75845
 C1519 C 0.67134 0.94704 0.76298
 C1520 C 0.65809 0.96933 0.76095
 C1521 C 0.63250 0.96969 0.75371
 C1522 C 0.62053 0.94668 0.74994
 C1523 C 0.67282 0.90138 0.76052
 C1524 C 0.68382 0.88183 0.76177
 C1525 C 0.69648 0.85871 0.76237
 C1526 C 0.70718 0.83897 0.76175
 H1527 H 0.62403 0.90725 0.74870
 H1528 H 0.69095 0.94738 0.76843
 H1529 H 0.66789 0.98613 0.76573
 H1530 H 0.60067 0.94590 0.74551
 C1531 C 0.16735 0.44932 0.25802
 C1532 C 0.15538 0.42691 0.25265
 C1533 C 0.13018 0.42721 0.24522
 C1534 C 0.11708 0.44952 0.24324
 C1535 C 0.12891 0.47242 0.24809
 C1536 C 0.15427 0.47175 0.25604
 C1537 C 0.16865 0.40356 0.25506
 C1538 C 0.17942 0.38387 0.25668
 C1539 C 0.19196 0.36062 0.25784
 C1540 C 0.20277 0.34088 0.25777
 H1541 H 0.18673 0.44947 0.26418
 H1542 H 0.12046 0.41009 0.24126
 H1543 H 0.09738 0.44891 0.23818
 H1544 H 0.16392 0.48840 0.26154
 C1545 C 0.04598 0.22893 0.82960
 C1546 C 0.06823 0.24028 0.83713
 C1547 C 0.06875 0.25459 0.85803
 C1548 C 0.04675 0.25843 0.87102
 C1549 C 0.02358 0.24869 0.86279
 C1550 C 0.02392 0.23269 0.84262
 C1551 C 0.09054 0.23827 0.82315
 C1552 C 0.10977 0.23807 0.81200
 C1553 C 0.13267 0.23938 0.79983
 C1554 C 0.15261 0.24142 0.79011
 H1555 H 0.04564 0.21741 0.81361
 H1556 H 0.08618 0.26291 0.86425
 H1557 H 0.04819 0.26887 0.88759
 H1558 H 0.00687 0.22351 0.83667
 C1559 C 0.56828 0.73463 0.36879
 C1560 C 0.56966 0.74288 0.34523
 C1561 C 0.54836 0.75226 0.33376
 C1562 C 0.52546 0.75330 0.34592
 C1563 C 0.52345 0.74432 0.36957
 C1564 C 0.54550 0.73568 0.38098
 C1565 C 0.59341 0.74312 0.33344
 C1566 C 0.61360 0.74366 0.32399
 C1567 C 0.63723 0.74467 0.31314
 C1568 C 0.65736 0.74581 0.30364
 H1569 H 0.58493 0.72790 0.37793
 H1570 H 0.54960 0.75933 0.31567
 H1571 H 0.50968 0.76188 0.33698
 H1572 H 0.54510 0.72995 0.39955
 C1573 C 0.55177 0.27700 0.14414
 C1574 C 0.56047 0.25563 0.15511
 C1575 C 0.54879 0.23307 0.15068
 C1576 C 0.52865 0.23172 0.13477
 C1577 C 0.52036 0.25282 0.12238
 C1578 C 0.53158 0.27573 0.12820
 C1579 C 0.58218 0.25650 0.17007
 C1580 C 0.60102 0.25657 0.18184
 C1581 C 0.62366 0.25601 0.19453
 C1582 C 0.64356 0.25522 0.20456
 H1583 H 0.56058 0.29463 0.14792
 H1584 H 0.55532 0.21649 0.15943
 H1585 H 0.51955 0.21408 0.13196
 H1586 H 0.52462 0.29281 0.12087
 C1587 C 0.04363 0.76347 0.66451
 C1588 C 0.06726 0.76226 0.65360
 C1589 C 0.06929 0.75899 0.62883
 C1590 C 0.04768 0.75582 0.61502
 C1591 C 0.02366 0.75496 0.62587
 C1592 C 0.02191 0.76034 0.65069
 C1593 C 0.08961 0.76305 0.66780
 C1594 C 0.10875 0.76267 0.67918
 C1595 C 0.13140 0.76128 0.69192
 C1596 C 0.15091 0.75961 0.70258
 H1597 H 0.04199 0.76662 0.68369
 H1598 H 0.08759 0.75847 0.62023
 H1599 H 0.04972 0.75337 0.59580
 H1600 H 0.00391 0.76226 0.65956
 C1601 C 0.95531 0.72074 0.65466
 C1602 C 0.93261 0.73241 0.64916
 C1603 C 0.93111 0.74849 0.62986
 C1604 C 0.95261 0.75419 0.61691
 C1605 C 0.97631 0.74458 0.62364
 C1606 C 0.97692 0.72630 0.64154
 C1607 C 0.91103 0.72974 0.66409
 C1608 C 0.89234 0.72965 0.67608
 C1609 C 0.87006 0.73150 0.68930
 C1610 C 0.85067 0.73400 0.69998
 H1611 H 0.95642 0.70782 0.66934
 H1612 H 0.91336 0.75710 0.62514
 H1613 H 0.95057 0.76642 0.60181
 H1614 H 0.99436 0.71700 0.64594
 C1615 C 0.45028 0.26712 0.15623
 C1616 C 0.43884 0.24449 0.16049
 C1617 C 0.44645 0.22343 0.14795
 C1618 C 0.46504 0.22513 0.13045
 C1619 C 0.47560 0.24821 0.12460
 C1620 C 0.46882 0.26890 0.13875
 C1621 C 0.41767 0.24345 0.17605
 C1622 C 0.39888 0.24325 0.18784
 C1623 C 0.37595 0.24367 0.20000
 C1624 C 0.35565 0.24438 0.20922
 H1625 H 0.44456 0.28348 0.16610
 H1626 H 0.43781 0.20575 0.15151
 H1627 H 0.47115 0.20828 0.12176
 H1628 H 0.47765 0.28661 0.13593
 C1629 C 0.43325 0.76766 0.36440
 C1630 C 0.42942 0.75229 0.34457
 C1631 C 0.44802 0.73568 0.33730
 C1632 C 0.47069 0.73458 0.34986
 C1633 C 0.47541 0.75064 0.36944
 C1634 C 0.45586 0.76660 0.37700
 C1635 C 0.40577 0.75267 0.33250
 C1636 C 0.38571 0.75283 0.32270
 C1637 C 0.36221 0.75272 0.31142
 C1638 C 0.34215 0.75233 0.30164
 H1639 H 0.41853 0.78006 0.37049
 H1640 H 0.44482 0.72327 0.32225
 H1641 H 0.48450 0.72096 0.34443
 H1642 H 0.45759 0.77786 0.39303
 C1643 C 0.93094 0.26287 0.85716
 C1644 C 0.93379 0.26858 0.83297
 C1645 C 0.95774 0.27168 0.82315
 C1646 C 0.97900 0.26748 0.83728
 C1647 C 0.97641 0.25898 0.86108
 C1648 C 0.95206 0.25851 0.87121
 C1649 C 0.91203 0.26837 0.81803
 C1650 C 0.89299 0.26632 0.80670
 C1651 C 0.87003 0.26242 0.79504
 C1652 C 0.84985 0.25859 0.78622
 H1653 H 0.91235 0.26078 0.86493
 H1654 H 0.95997 0.27665 0.80447
 H1655 H 0.99726 0.27056 0.82929
 H1656 H 0.94938 0.25350 0.88982
 C1657 C 0.59150 0.98692 0.68813
 C1658 C 0.57196 1.00423 0.68780
 C1659 C 0.56646 1.01763 0.70871
 C1660 C 0.58033 1.01366 0.72977
 C1661 C 0.59968 0.99573 0.73069
 C1662 C 0.60540 0.98292 0.70913
 C1663 C 0.55839 1.00865 0.66565
 C1664 C 0.54797 1.01154 0.64652
 C1665 C 0.53709 1.01362 0.62330
 C1666 C 0.52941 1.01378 0.60282
 H1667 H 0.59638 0.97679 0.67193
 H1668 H 0.55171 1.03143 0.70866
 H1669 H 0.57610 1.02485 0.74545
 H1670 H 0.62111 0.97029 0.70808
 C1671 C 0.08920 0.49245 1.18241
 C1672 C 0.06956 0.50968 1.18242
 C1673 C 0.06358 0.52212 1.20377
 C1674 C 0.07705 0.51729 1.22490
 C1675 C 0.09647 0.49940 1.22546
 C1676 C 0.10270 0.48758 1.20350
 C1677 C 0.05616 0.51484 1.16030
 C1678 C 0.04571 0.51829 1.14124
 C1679 C 0.03461 0.52081 1.11813
 C1680 C 0.02661 0.52102 1.09773
 H1681 H 0.09443 0.48303 1.16592
 H1682 H 0.04873 0.53581 1.20405
 H1683 H 0.07240 0.52774 1.24094
 H1684 H 0.11847 0.47504 1.20225
 C1685 C -0.05588 0.00884 1.20282
 C1686 C -0.06753 0.00466 1.18059
 C1687 C -0.09383 0.00331 1.17939
 C1688 C -0.10826 0.00454 1.20035
 C1689 C -0.09671 0.00622 1.22323
 C1690 C -0.07031 0.01010 1.22387
 C1691 C -0.05279 0.00151 1.15895
 C1692 C -0.04154 -0.00126 1.14023
 C1693 C -0.03001 -0.00405 1.11741
 C1694 C -0.02214 -0.00535 1.09706
 H1695 H -0.03560 0.01086 1.20393
 H1696 H -0.10320 0.00074 1.16224
 H1697 H -0.12854 0.00277 1.19889
 H1698 H -0.06049 0.01394 1.24048
 C1699 C 0.40513 0.50072 0.68862
 C1700 C 0.43041 0.49356 0.69000
 C1701 C 0.44147 0.49002 0.71253
 C1702 C 0.42741 0.49383 0.73353
 C1703 C 0.40206 0.50198 0.73251
 C1704 C 0.39106 0.50454 0.70953
 C1705 C 0.44467 0.48983 0.66816
 C1706 C 0.45558 0.48743 0.64922
 C1707 C 0.46682 0.48585 0.62617
 C1708 C 0.47463 0.48601 0.60578
 H1709 H 0.39617 0.50318 0.67130
 H1710 H 0.46088 0.48400 0.71387
 H1711 H 0.43640 0.48974 0.75047
 H1712 H 0.37137 0.50947 0.70780
 C1713 C 0.40740 0.49827 -0.17862
 C1714 C 0.42693 0.51557 -0.17750
 C1715 C 0.43313 0.52887 -0.19805
 C1716 C 0.42002 0.52476 -0.21957
 C1717 C 0.40079 0.50674 -0.22131
 C1718 C 0.39426 0.49412 -0.20010
 C1719 C 0.43997 0.51994 -0.15502
 C1720 C 0.45012 0.52276 -0.13572
 C1721 C 0.46083 0.52464 -0.11241
 C1722 C 0.46853 0.52452 -0.09195
 H1723 H 0.40200 0.48823 -0.16271
 H1724 H 0.44789 0.54264 -0.19738
 H1725 H 0.42483 0.53580 -0.23499
 H1726 H 0.37855 0.48145 -0.19973
 C1727 C -0.06296 0.98584 0.29314
 C1728 C -0.06725 1.00299 0.31162
 C1729 C -0.08785 1.01890 0.31004
 C1730 C -0.10324 1.01870 0.28967
 C1731 C -0.09788 1.00317 0.26973
 C1732 C -0.07843 0.98558 0.27266
 C1733 C -0.05132 1.00410 0.33270
 C1734 C -0.03918 1.00566 0.35106
 C1735 C -0.02677 1.00754 0.37357
 C1736 C -0.01829 1.00849 0.39373
 H1737 H -0.04757 0.97280 0.29445
 H1738 H -0.09207 1.03157 0.32464
 H1739 H -0.11932 1.03091 0.28986
 H1740 H -0.07458 0.97223 0.25858
 C1741 C 0.05747 0.48081 0.29195
 C1742 C 0.06909 0.48375 0.31438
 C1743 C 0.09444 0.49076 0.31543
 C1744 C 0.10799 0.49507 0.29434
 C1745 C 0.09639 0.49317 0.27151
 C1746 C 0.07100 0.48512 0.27076
 C1747 C 0.05523 0.47982 0.33643
 C1748 C 0.04451 0.47737 0.35546
 C1749 C 0.03322 0.47591 0.37854
 C1750 C 0.02510 0.47643 0.39885
 H1751 H 0.03798 0.47496 0.29079
 H1752 H 0.10385 0.49280 0.33262
 H1753 H 0.12772 0.49996 0.29581
 H1754 H 0.06156 0.48155 0.25387
 C1755 C 0.56237 -0.02049 -0.20140
 C1756 C 0.57453 -0.01685 -0.17932
 C1757 C 0.59980 -0.00947 -0.17904
 C1758 C 0.61276 -0.00563 -0.20056
 C1759 C 0.60065 -0.00840 -0.22306
 C1760 C 0.57531 -0.01665 -0.22299
 C1761 C 0.56132 -0.02067 -0.15689
 C1762 C 0.55103 -0.02314 -0.13766
 C1763 C 0.54005 -0.02472 -0.11446
 C1764 C 0.53202 -0.02438 -0.09411
 H1765 H 0.54295 -0.02663 -0.20195
 H1766 H 0.60961 -0.00689 -0.16212
 H1767 H 0.63249 -0.00058 -0.19967
 H1768 H 0.56549 -0.02086 -0.23955
 C1769 C 0.69960 0.59186 0.00609
 C1770 C 0.67709 0.60446 0.00133
 C1771 C 0.67761 0.63007 -0.00087
 C1772 C 0.70044 0.64284 0.00064
 C1773 C 0.72365 0.63035 0.00369
 C1774 C 0.72260 0.60466 0.00762
 C1775 C 0.65334 0.59144 -0.00110
 C1776 C 0.63318 0.58107 -0.00301
 C1777 C 0.60934 0.56917 -0.00454
 C1778 C 0.58904 0.55894 -0.00459
 H1779 H 0.69941 0.57210 0.00857
 H1780 H 0.66035 0.64021 -0.00403
 H1781 H 0.70015 0.66265 -0.00151
 H1782 H 0.73930 0.59423 0.01195
 C1783 C 0.18718 1.11924 0.50483
 C1784 C 0.18648 1.10018 0.48775
 C1785 C 0.20815 1.09470 0.47450
 C1786 C 0.23037 1.10807 0.47839
 C1787 C 0.23176 1.12688 0.49612
 C1788 C 0.20939 1.13266 0.50878
 C1789 C 0.16343 1.08645 0.48376
 C1790 C 0.14398 1.07510 0.48111
 C1791 C 0.12089 1.06201 0.47929
 C1792 C 0.10097 1.05115 0.47942
 H1793 H 0.17039 1.12402 0.51490
 H1794 H 0.20784 1.08024 0.46096
 H1795 H 0.24663 1.10381 0.46739
 H1796 H 0.20860 1.14799 0.52127
 C1797 C 0.18443 -0.11615 1.02363
 C1798 C 0.18183 -0.09624 1.00814
 C1799 C 0.20086 -0.09159 0.99135
 C1800 C 0.22258 -0.10639 0.99056
 C1801 C 0.22626 -0.12570 1.00710
 C1802 C 0.20600 -0.13091 1.02287
 C1803 C 0.15906 -0.08149 1.00900
 C1804 C 0.13962 -0.06981 1.00989
 C1805 C 0.11642 -0.05672 1.01049
 C1806 C 0.09638 -0.04602 1.00994
 H1807 H 0.16951 -0.12057 1.03614
 H1808 H 0.19883 -0.07666 0.97871
 H1809 H 0.23668 -0.10267 0.97705
 H1810 H 0.20620 -0.14676 1.03444
 C1811 C 0.67657 0.37761 0.50438
 C1812 C 0.67873 0.40235 0.51134
 C1813 C 0.70272 0.41246 0.51491
 C1814 C 0.72436 0.39810 0.51125
 C1815 C 0.72261 0.37333 0.50321
 C1816 C 0.69816 0.36321 0.50071
 C1817 C 0.65634 0.41727 0.51471
 C1818 C 0.63739 0.42954 0.51692
 C1819 C 0.61484 0.44360 0.51849
 C1820 C 0.59530 0.45515 0.51852
 H1821 H 0.65815 0.36936 0.50188
 H1822 H 0.70472 0.43145 0.52077
 H1823 H 0.74237 0.40647 0.51531
 H1824 H 0.69579 0.34400 0.49583
 C1825 C -0.18414 0.37696 0.50868
 C1826 C -0.18239 0.39599 0.49198
 C1827 C -0.20363 0.40226 0.47843
 C1828 C -0.22644 0.38975 0.48170
 C1829 C -0.22889 0.37105 0.49909
 C1830 C -0.20694 0.36441 0.51200
 C1831 C -0.15880 0.40897 0.48873
 C1832 C -0.13902 0.41987 0.48656
 C1833 C -0.11578 0.43276 0.48505
 C1834 C -0.09599 0.44386 0.48511
 H1835 H -0.16773 0.37156 0.51898
 H1836 H -0.20254 0.41670 0.46518
 H1837 H -0.24235 0.39464 0.47051
 H1838 H -0.20694 0.34909 0.52424
 C1839 C 0.30133 -0.09082 0.00686
 C1840 C 0.32305 -0.10453 0.00156
 C1841 C 0.32140 -0.13016 -0.00004
 C1842 C 0.29813 -0.14190 0.00239
 C1843 C 0.27560 -0.12830 0.00574
 C1844 C 0.27790 -0.10257 0.00931
 C1845 C 0.34711 -0.09255 -0.00212
 C1846 C 0.36744 -0.08287 -0.00500
 C1847 C 0.39137 -0.07146 -0.00744
 C1848 C 0.41165 -0.06125 -0.00790
 H1849 H 0.30247 -0.07099 0.00894
 H1850 H 0.33809 -0.14112 -0.00356
 H1851 H 0.29747 -0.16176 0.00049
 H1852 H 0.26182 -0.09130 0.01389
 C1853 C 0.32637 1.12390 0.50146
 C1854 C 0.32511 1.09926 0.50856
 C1855 C 0.30152 1.08845 0.51225
 C1856 C 0.27939 1.10199 0.50861
 C1857 C 0.28020 1.12662 0.50045
 C1858 C 0.30426 1.13749 0.49781
 C1859 C 0.34795 1.08507 0.51196
 C1860 C 0.36710 1.07315 0.51424
 C1861 C 0.38971 1.05922 0.51588
 C1862 C 0.40916 1.04754 0.51590
 H1863 H 0.34449 1.13269 0.49887
 H1864 H 0.30021 1.06955 0.51821
 H1865 H 0.26171 1.09313 0.51280
 H1866 H 0.30591 1.15667 0.49290
 C1867 C -0.19993 0.59666 0.98955
 C1868 C -0.18110 0.60266 1.00632
 C1869 C -0.18456 0.62298 1.02148
 C1870 C -0.20678 0.63677 1.02048
 C1871 C -0.22685 0.63015 1.00481
 C1872 C -0.22231 0.61051 0.98851
 C1873 C -0.15783 0.58869 1.00774
 C1874 C -0.13809 0.57753 1.00922
 C1875 C -0.11472 0.56476 1.01058
 C1876 C -0.09476 0.55387 1.01066
 H1877 H -0.19728 0.58138 0.97717
 H1878 H -0.16987 0.62842 1.03399
 H1879 H -0.20769 0.65295 1.03188
 H1880 H -0.23629 0.60572 0.97507
 C1881 C 0.01974 0.68860 0.58330
 C1882 C 0.00342 0.68661 0.56376
 C1883 C -0.01292 0.70587 0.55816
 C1884 C -0.01308 0.72712 0.57239
 C1885 C 0.00352 0.72967 0.59214
 C1886 C 0.01955 0.70968 0.59760
 C1887 C 0.00160 0.66354 0.55151
 C1888 C 0.00023 0.64333 0.54286
 C1889 C -0.00116 0.61909 0.53437
 C1890 C -0.00216 0.59803 0.52793
 H1891 H 0.03186 0.67335 0.58816
 H1892 H -0.02616 0.70408 0.54341
 H1893 H -0.02672 0.74134 0.56841
 H1894 H 0.03121 0.70966 0.61354
 C1895 C 0.52213 0.19765 0.06696
 C1896 C 0.49964 0.18812 0.05786
 C1897 C 0.47687 0.20029 0.06185
 C1898 C 0.47635 0.22104 0.07664
 C1899 C 0.49843 0.22910 0.08849
 C1900 C 0.52164 0.21834 0.08179
 C1901 C 0.49944 0.16389 0.04812
 C1902 C 0.49924 0.14278 0.04200
 C1903 C 0.49896 0.11774 0.03650
 C1904 C 0.49870 0.09619 0.03213
 H1905 H 0.53990 0.18843 0.06351
 H1906 H 0.45939 0.19305 0.05457
 H1907 H 0.45845 0.23002 0.07996
 H1908 H 0.53942 0.22537 0.08845
 C1909 C 0.01056 0.19735 0.91830
 C1910 C -0.00729 0.18045 0.91003
 C1911 C -0.02323 0.18624 0.89099
 C1912 C -0.02162 0.20926 0.88037
 C1913 C -0.00450 0.22716 0.88919
 C1914 C 0.01223 0.22037 0.90773
 C1915 C -0.00845 0.15672 0.92052
 C1916 C -0.00878 0.13683 0.92947
 C1917 C -0.00832 0.11374 0.94016
 C1918 C -0.00721 0.09410 0.94955
 H1919 H 0.02338 0.19264 0.93272
 H1920 H -0.03658 0.17282 0.88409
 H1921 H -0.03341 0.21258 0.86488
 H1922 H 0.02661 0.23302 0.91405
 C1923 C 0.49620 0.68018 0.40498
 C1924 C 0.48180 0.68233 0.42579
 C1925 C 0.47168 0.70501 0.43272
 C1926 C 0.47701 0.72587 0.41921
 C1927 C 0.49356 0.72444 0.39938
 C1928 C 0.50168 0.70092 0.39164
 C1929 C 0.47910 0.66112 0.44034
 C1930 C 0.47921 0.64228 0.45125
 C1931 C 0.48164 0.61944 0.46225
 C1932 C 0.48497 0.59941 0.47038
 H1933 H 0.50356 0.66246 0.39924
 H1934 H 0.46003 0.70662 0.44862
 H1935 H 0.46874 0.74329 0.42461
 H1936 H 0.51241 0.69839 0.37530
 C1937 C 0.51892 0.79050 0.43692
 C1938 C 0.51663 0.81335 0.42587
 C1939 C 0.51041 0.81486 0.40161
 C1940 C 0.50520 0.79358 0.38859
 C1941 C 0.50533 0.77038 0.39981
 C1942 C 0.51385 0.76905 0.42383
 C1943 C 0.51846 0.83559 0.43943
 C1944 C 0.51822 0.85513 0.44946
 C1945 C 0.51623 0.87862 0.45959
 C1946 C 0.51364 0.89909 0.46726
 H1947 H 0.52425 0.78929 0.45567
 H1948 H 0.50895 0.83258 0.39289
 H1949 H 0.50035 0.79525 0.36978
 H1950 H 0.51659 0.75159 0.43263
 C1951 C 0.00810 0.31740 0.90173
 C1952 C 0.00014 0.31509 0.92543
 C1953 C -0.00838 0.29253 0.93399
 C1954 C -0.00860 0.27202 0.91880
 C1955 C 0.00041 0.27372 0.89497
 C1956 C 0.00786 0.29702 0.88652
 C1957 C -0.00066 0.33654 0.94020
 C1958 C -0.00124 0.35564 0.95099
 C1959 C -0.00179 0.37897 0.96156
 C1960 C -0.00215 0.39962 0.96911
 H1961 H 0.01410 0.33507 0.89486
 H1962 H -0.01534 0.29094 0.95219
 H1963 H -0.01653 0.25517 0.92567
 H1964 H 0.01352 0.29939 0.86800
 C1965 C 0.51209 0.30213 0.06206
 C1966 C 0.48916 0.31461 0.06098
 C1967 C 0.46781 0.30520 0.07219
 C1968 C 0.46982 0.28414 0.08607
 C1969 C 0.49354 0.27296 0.08974
 C1970 C 0.51415 0.28112 0.07595
 C1971 C 0.48864 0.33887 0.05176
 C1972 C 0.48916 0.35991 0.04581
 C1973 C 0.49070 0.38479 0.04025
 C1974 C 0.49251 0.40616 0.03575
 H1975 H 0.52864 0.30930 0.05314
 H1976 H 0.44988 0.31467 0.07101
 H1977 H 0.45288 0.27712 0.09433
 H1978 H 0.53223 0.27193 0.07698
 C1979 C -0.01177 0.82021 0.60195
 C1980 C -0.00413 0.82397 0.57837
 C1981 C 0.00518 0.80446 0.56449
 C1982 C 0.00651 0.78091 0.57414
 C1983 C -0.00215 0.77651 0.59767
 C1984 C -0.01045 0.79679 0.61164
 C1985 C -0.00472 0.84821 0.56891
 C1986 C -0.00480 0.86865 0.56114
 C1987 C -0.00419 0.89238 0.55180
 C1988 C -0.00292 0.91238 0.54311
 H1989 H -0.01844 0.83543 0.61296
 H1990 H 0.01181 0.80755 0.54637
 H1991 H 0.01487 0.76645 0.56332
 H1992 H -0.01596 0.79443 0.63019
 C1993 C 0.24373 0.33236 0.06529
 C1994 C 0.26209 0.31384 0.06514
 C1995 C 0.27588 0.30929 0.04421
 C1996 C 0.27121 0.32304 0.02354
 C1997 C 0.25214 0.34129 0.02305
 C1998 C 0.23902 0.34615 0.04465
 C1999 C 0.26713 0.30024 0.08681
 C2000 C 0.27047 0.28974 0.10560
 C2001 C 0.27285 0.27886 0.12852
 C2002 C 0.27300 0.27132 0.14887
 H2003 H 0.23332 0.33648 0.08157
 H2004 H 0.29048 0.29533 0.04394
 H2005 H 0.28264 0.31950 0.00779
 H2006 H 0.22554 0.36103 0.04601
 C2007 C 0.78248 0.82215 0.55729
 C2008 C 0.76115 0.80919 0.56458
 C2009 C 0.73864 0.81170 0.55168
 C2010 C 0.73731 0.82776 0.53213
 C2011 C 0.75815 0.84255 0.52568
 C2012 C 0.78119 0.83820 0.53787
 C2013 C 0.76225 0.79453 0.58608
 C2014 C 0.76338 0.78358 0.60485
 C2015 C 0.76441 0.77258 0.62781
 C2016 C 0.76446 0.76520 0.64821
 H2017 H 0.80020 0.81996 0.56674
 H2018 H 0.72203 0.80144 0.55686
 H2019 H 0.71976 0.82902 0.52228
 H2020 H 0.79855 0.84692 0.53246
 C2021 C 0.24648 0.66266 0.57010
 C2022 C 0.24853 0.68826 0.56864
 C2023 C 0.25302 0.69913 0.54638
 C2024 C 0.25393 0.68458 0.52548
 C2025 C 0.24936 0.65891 0.52637
 C2026 C 0.24735 0.64813 0.54931
 C2027 C 0.24582 0.70302 0.59015
 C2028 C 0.24336 0.71405 0.60892
 C2029 C 0.24086 0.72507 0.63191
 C2030 C 0.23970 0.73239 0.65240
 H2031 H 0.24368 0.65391 0.58730
 H2032 H 0.25559 0.71887 0.54513
 H2033 H 0.25812 0.69371 0.50882
 H2034 H 0.24512 0.62839 0.55096
 C2035 C 0.74658 0.16184 0.06469
 C2036 C 0.73828 0.18625 0.06333
 C2037 C 0.73420 0.19681 0.04087
 C2038 C 0.73843 0.18307 0.01987
 C2039 C 0.74755 0.15856 0.02082
 C2040 C 0.75082 0.14807 0.04374
 C2041 C 0.73369 0.20012 0.08513
 C2042 C 0.73051 0.21077 0.10403
 C2043 C 0.72809 0.22170 0.12707
 C2044 C 0.72770 0.22916 0.14756
 H2045 H 0.74945 0.15330 0.08199
 H2046 H 0.72730 0.21553 0.03957
 H2047 H 0.73374 0.19158 0.00296
 H2048 H 0.75640 0.12898 0.04542
 C2049 C 0.74323 0.16393 0.93226
 C2050 C 0.76083 0.18311 0.93169
 C2051 C 0.77452 0.18904 0.95240
 C2052 C 0.77043 0.17604 0.97362
 C2053 C 0.75202 0.15722 0.97484
 C2054 C 0.73909 0.15090 0.95344
 C2055 C 0.76515 0.19605 0.90956
 C2056 C 0.76786 0.20600 0.89043
 C2057 C 0.76955 0.21625 0.86723
 C2058 C 0.76922 0.22329 0.84673
 H2059 H 0.73293 0.15877 0.91617
 H2060 H 0.78856 0.20352 0.95211
 H2061 H 0.78174 0.18065 0.98922
 H2062 H 0.72617 0.13552 0.95273
 C2063 C 0.22976 0.69022 0.45560
 C2064 C 0.24713 0.68486 0.43739
 C2065 C 0.26276 0.66433 0.43948
 C2066 C 0.26216 0.65002 0.46013
 C2067 C 0.24658 0.65648 0.47984
 C2068 C 0.22910 0.67582 0.47638
 C2069 C 0.24871 0.69958 0.41601
 C2070 C 0.25071 0.71054 0.39734
 C2071 C 0.25298 0.72145 0.37449
 C2072 C 0.25403 0.72867 0.35408
 H2073 H 0.21687 0.70557 0.45383
 H2074 H 0.27551 0.65931 0.42505
 H2075 H 0.27412 0.63392 0.46037
 H2076 H 0.21557 0.68039 0.49026
 C2077 C 0.77428 0.81198 0.45475
 C2078 C 0.75159 0.80930 0.44212
 C2079 C 0.73011 0.82160 0.45022
 C2080 C 0.73146 0.83743 0.47005
 C2081 C 0.75468 0.84222 0.48185
 C2082 C 0.77565 0.82779 0.47477
 C2083 C 0.75035 0.79545 0.41991
 C2084 C 0.74879 0.78539 0.40053
 C2085 C 0.74703 0.77557 0.37697
 C2086 C 0.74625 0.76912 0.35618
 H2087 H 0.79100 0.80217 0.44892
 H2088 H 0.71226 0.81923 0.44099
 H2089 H 0.71404 0.84579 0.47598
 H2090 H 0.79335 0.82934 0.48437
 C2091 C 0.24611 0.34055 0.93306
 C2092 C 0.23951 0.31562 0.93336
 C2093 C 0.23603 0.30390 0.95536
 C2094 C 0.23942 0.31696 0.97694
 C2095 C 0.24712 0.34195 0.97703
 C2096 C 0.24951 0.35363 0.95457
 C2097 C 0.23633 0.30230 0.91098
 C2098 C 0.23438 0.29208 0.89169
 C2099 C 0.23330 0.28159 0.86833
 C2100 C 0.23383 0.27442 0.84773
 H2101 H 0.24849 0.34998 0.91615
 H2102 H 0.23041 0.28473 0.95586
 H2103 H 0.23538 0.30744 0.99346
 H2104 H 0.25403 0.37305 0.95372
 C2105 C 0.83796 0.44648 0.76875
 C2106 C 0.84350 0.42571 0.75466
 C2107 C 0.86337 0.42680 0.73820
 C2108 C 0.87741 0.44848 0.73561
 C2109 C 0.87148 0.47000 0.74900
 C2110 C 0.85197 0.46820 0.76620
 C2111 C 0.82919 0.40311 0.75725
 C2112 C 0.81753 0.38399 0.75885
 C2113 C 0.80428 0.36125 0.75982
 C2114 C 0.79347 0.34158 0.75952
 H2115 H 0.82293 0.44585 0.78188
 H2116 H 0.86828 0.41072 0.72753
 H2117 H 0.89327 0.44800 0.72347
 H2118 H 0.84758 0.48374 0.77777
 C2119 C 0.36358 0.92933 0.24412
 C2120 C 0.34396 0.92809 0.26085
 C2121 C 0.33839 0.94899 0.27481
 C2122 C 0.35222 0.97085 0.27198
 C2123 C 0.37161 0.97269 0.25465
 C2124 C 0.37741 0.95112 0.24126
 C2125 C 0.33001 0.90521 0.26382
 C2126 C 0.31870 0.88585 0.26563
 C2127 C 0.30571 0.86285 0.26672
 C2128 C 0.29489 0.84312 0.26638
 H2129 H 0.36853 0.91323 0.23349
 H2130 H 0.32356 0.94833 0.28813
 H2131 H 0.34791 0.98641 0.28356
 H2132 H 0.39316 0.95062 0.22898
 C2133 C 0.16818 0.95673 0.75111
 C2134 C 0.15549 0.93473 0.74568
 C2135 C 0.12936 0.93513 0.74261
 C2136 C 0.11616 0.95736 0.74396
 C2137 C 0.12877 0.98006 0.74769
 C2138 C 0.15496 0.97912 0.75248
 C2139 C 0.16891 0.91157 0.74358
 C2140 C 0.17942 0.89182 0.74195
 C2141 C 0.19112 0.86831 0.74077
 C2142 C 0.20073 0.84809 0.74101
 H2143 H 0.18832 0.95659 0.75431
 H2144 H 0.11914 0.91822 0.73895
 H2145 H 0.09595 0.95700 0.74121
 H2146 H 0.16544 0.99544 0.75741
 C2147 C 0.66374 0.45558 0.24245
 C2148 C 0.65106 0.43326 0.24591
 C2149 C 0.62579 0.43373 0.25300
 C2150 C 0.61334 0.45619 0.25662
 C2151 C 0.62591 0.47898 0.25388
 C2152 C 0.65129 0.47816 0.24608
 C2153 C 0.66370 0.40980 0.24217
 C2154 C 0.67382 0.38990 0.23962
 C2155 C 0.68539 0.36629 0.23766
 C2156 C 0.69515 0.34608 0.23736
 H2157 H 0.68320 0.45557 0.23657
 H2158 H 0.61556 0.41668 0.25549
 H2159 H 0.59358 0.45579 0.26145
 H2160 H 0.66150 0.49482 0.24201
 C2161 C 0.63502 0.57000 0.24558
 C2162 C 0.65512 0.57147 0.26183
 C2163 C 0.66093 0.55090 0.27580
 C2164 C 0.64691 0.52907 0.27338
 C2165 C 0.62710 0.52694 0.25642
 C2166 C 0.62100 0.54826 0.24312
 C2167 C 0.66928 0.59429 0.26427
 C2168 C 0.68067 0.61365 0.26563
 C2169 C 0.69363 0.63665 0.26626
 C2170 C 0.70434 0.65640 0.26574
 H2171 H 0.62988 0.58589 0.23499
 H2172 H 0.67614 0.55180 0.28879
 H2173 H 0.65144 0.51373 0.28491
 H2174 H 0.60492 0.54860 0.23119
 C2175 C 0.13704 0.06934 0.76643
 C2176 C 0.15797 0.07240 0.75158
 C2177 C 0.16375 0.05405 0.73460
 C2178 C 0.14916 0.03247 0.73310
 C2179 C 0.12900 0.02828 0.74916
 C2180 C 0.12251 0.04790 0.76497
 C2181 C 0.17274 0.09482 0.75345
 C2182 C 0.18444 0.11393 0.75526
 C2183 C 0.19749 0.13677 0.75698
 C2184 C 0.20805 0.15657 0.75742
 H2185 H 0.13173 0.08372 0.77906
 H2186 H 0.17946 0.05642 0.72245
 H2187 H 0.15387 0.01878 0.71958
 H2188 H 0.10593 0.04716 0.77617
 C2189 C 0.33485 0.04391 0.24129
 C2190 C 0.34753 0.06630 0.24486
 C2191 C 0.37284 0.06590 0.25192
 C2192 C 0.38534 0.04348 0.25535
 C2193 C 0.37279 0.02063 0.25243
 C2194 C 0.34735 0.02137 0.24473
 C2195 C 0.33485 0.08973 0.24119
 C2196 C 0.32464 0.10957 0.23866
 C2197 C 0.31289 0.13310 0.23673
 C2198 C 0.30292 0.15324 0.23647
 H2199 H 0.31537 0.04384 0.23544
 H2200 H 0.38309 0.08298 0.25450
 H2201 H 0.40514 0.04395 0.26010
 H2202 H 0.33713 0.00465 0.24057
 C2203 C 0.83337 0.54003 0.73567
 C2204 C 0.84537 0.56263 0.73988
 C2205 C 0.87070 0.56286 0.74687
 C2206 C 0.88385 0.54076 0.74983
 C2207 C 0.87189 0.51768 0.74652
 C2208 C 0.84651 0.51783 0.73862
 C2209 C 0.83191 0.58564 0.73710
 C2210 C 0.82110 0.60520 0.73542
 C2211 C 0.80889 0.62846 0.73452
 C2212 C 0.79891 0.64851 0.73509
 H2213 H 0.81389 0.53956 0.72981
 H2214 H 0.88039 0.58018 0.74989
 H2215 H 0.90360 0.54165 0.75469
 H2216 H 0.83679 0.50093 0.73406
 C2217 C 0.94433 0.77799 0.15280
 C2218 C 0.93432 0.75668 0.16275
 C2219 C 0.94605 0.73397 0.15909
 C2220 C 0.96736 0.73242 0.14462
 C2221 C 0.97670 0.75343 0.13282
 C2222 C 0.96561 0.77650 0.13832
 C2223 C 0.91139 0.75800 0.17593
 C2224 C 0.89173 0.75877 0.18636
 C2225 C 0.86845 0.75898 0.19798
 C2226 C 0.84840 0.75836 0.20773
 H2227 H 0.93562 0.79575 0.15613
 H2228 H 0.93857 0.71743 0.16718
 H2229 H 0.97632 0.71465 0.14215
 H2230 H 0.97332 0.79358 0.13176
 C2231 C 0.45731 0.27983 0.67158
 C2232 C 0.43370 0.27172 0.66383
 C2233 C 0.43128 0.25787 0.64275
 C2234 C 0.45258 0.25102 0.62992
 C2235 C 0.47685 0.25724 0.63844
 C2236 C 0.47872 0.27314 0.65861
 C2237 C 0.41185 0.27546 0.67815
 C2238 C 0.39257 0.27615 0.68919
 C2239 C 0.36934 0.27434 0.70069
 C2240 C 0.34906 0.27115 0.70943
 H2241 H 0.45919 0.29092 0.68776
 H2242 H 0.41289 0.25194 0.63645
 H2243 H 0.44990 0.24078 0.61337
 H2244 H 0.49688 0.27988 0.66466
 C2245 C 0.43340 0.76302 0.85877
 C2246 C 0.43004 0.74694 0.83938
 C2247 C 0.45015 0.73299 0.83062
 C2248 C 0.47368 0.73485 0.84159
 C2249 C 0.47761 0.75117 0.86115
 C2250 C 0.45684 0.76491 0.86979
 C2251 C 0.40559 0.74431 0.82908
 C2252 C 0.38486 0.74282 0.82074
 C2253 C 0.36064 0.74226 0.81090
 C2254 C 0.34016 0.74300 0.80196
 H2255 H 0.41768 0.77356 0.86584
 H2256 H 0.44748 0.72022 0.81577
 H2257 H 0.48869 0.72294 0.83529
 H2258 H 0.45825 0.77634 0.88573
 C2259 C 0.92932 0.24466 0.35554
 C2260 C 0.92769 0.25202 0.33170
 C2261 C 0.94876 0.26117 0.31980
 C2262 C 0.97197 0.26184 0.33145
 C2263 C 0.97446 0.25248 0.35492
 C2264 C 0.95244 0.24530 0.36722
 C2265 C 0.90427 0.24997 0.31948
 C2266 C 0.88441 0.24809 0.30956
 C2267 C 0.86099 0.24629 0.29839
 C2268 C 0.84071 0.24560 0.28912
 H2269 H 0.91282 0.23813 0.36499
 H2270 H 0.94727 0.26765 0.30150
 H2271 H 0.98773 0.26973 0.32197
 H2272 H 0.95339 0.23934 0.38571
 C2273 C 0.04673 0.24198 0.31693
 C2274 C 0.06605 0.25810 0.32346
 C2275 C 0.06424 0.27240 0.34428
 C2276 C 0.04296 0.27077 0.35864
 C2277 C 0.02263 0.25531 0.35196
 C2278 C 0.02533 0.24033 0.33123
 C2279 C 0.08903 0.25813 0.31042
 C2280 C 0.10908 0.25777 0.30073
 C2281 C 0.13313 0.25680 0.29080
 C2282 C 0.15408 0.25546 0.28311
 H2283 H 0.04848 0.23025 0.30117
 H2284 H 0.07969 0.28422 0.34986
 H2285 H 0.04305 0.28107 0.37534
 H2286 H 0.01086 0.22719 0.32624
 C2287 C 0.57138 0.74256 0.85854
 C2288 C 0.57183 0.75310 0.83583
 C2289 C 0.54962 0.76128 0.82508
 C2290 C 0.52681 0.75914 0.83726
 C2291 C 0.52587 0.74818 0.86016
 C2292 C 0.54871 0.74043 0.87073
 C2293 C 0.59541 0.75582 0.82400
 C2294 C 0.61566 0.75726 0.81475
 C2295 C 0.63956 0.75761 0.80435
 C2296 C 0.65997 0.75657 0.79534
 H2297 H 0.58865 0.73649 0.86706
 H2298 H 0.55003 0.76984 0.80758
 H2299 H 0.51018 0.76696 0.82906
 H2300 H 0.54910 0.73326 0.88880
 C2301 C 0.54067 0.22692 0.67706
 C2302 C 0.56472 0.22820 0.66707
 C2303 C 0.56795 0.23534 0.64330
 C2304 C 0.54724 0.24231 0.62974
 C2305 C 0.52293 0.24303 0.63995
 C2306 C 0.51980 0.23375 0.66341
 C2307 C 0.58656 0.22480 0.68149
 C2308 C 0.60600 0.22410 0.69234
 C2309 C 0.62955 0.22563 0.70340
 C2310 C 0.65015 0.22848 0.71167
 H2311 H 0.53810 0.22101 0.69543
 H2312 H 0.58660 0.23612 0.63541
 H2313 H 0.55027 0.24772 0.61130
 H2314 H 0.50133 0.23177 0.67134
 C2315 C 0.05253 0.71926 0.15420
 C2316 C 0.06079 0.73895 0.16839
 C2317 C 0.04824 0.76151 0.16784
 C2318 C 0.02839 0.76489 0.15187
 C2319 C 0.02146 0.74606 0.13549
 C2320 C 0.03263 0.72258 0.13823
 C2321 C 0.08385 0.73706 0.18135
 C2322 C 0.10397 0.73667 0.19104
 C2323 C 0.12797 0.73759 0.20133
 C2324 C 0.14863 0.73938 0.20979
 H2325 H 0.06191 0.70155 0.15499
 H2326 H 0.05440 0.77676 0.17908
 H2327 H 0.01914 0.78266 0.15147
 H2328 H 0.02639 0.70674 0.12796
   
