data_POSCAR
  _audit_creation_date              2014-09-24
  _audit_creation_method            'ToBaCCo'
  _symmetry_space_group_name_H-M    'P1'
  _symmetry_Int_Tables_number       1
  _symmetry_cell_setting            triclinic
  loop_
  _symmetry_equiv_pos_as_xyz
 x,y,z
_cell_length_a 77.5009
_cell_length_b 78.3133
_cell_length_c 78.4524
_cell_angle_alpha 90.526600
_cell_angle_beta 90.690700
_cell_angle_gamma 89.188100
loop_
  _atom_site_label
  _atom_site_type_symbol
  _atom_site_fract_x
  _atom_site_fract_y
  _atom_site_fract_z
C1 C 0.34960 0.33919 0.35160
 N2 N 0.34222 0.33196 0.36533
 C3 C 0.32701 0.33790 0.37147
 N4 N 0.31910 0.35133 0.36371
 C5 C 0.32619 0.35881 0.34994
 N6 N 0.34148 0.35264 0.34385
 C7 C 0.35604 0.83503 -0.15994
 N8 N 0.35006 0.82747 -0.14562
 C9 C 0.33597 0.83389 -0.13750
 N10 N 0.32786 0.84793 -0.14385
 C11 C 0.33346 0.85567 -0.15810
 N12 N 0.34759 0.84911 -0.16610
 C13 C 0.85047 0.33701 -0.15818
 N14 N 0.84164 0.33023 -0.14502
 C15 C 0.82691 0.33800 -0.13932
 N16 N 0.82108 0.35253 -0.14702
 C17 C 0.82975 0.35938 -0.16021
 N18 N 0.84438 0.35148 -0.16559
 C19 C 0.85790 0.84145 0.34031
 N20 N 0.85025 0.85566 0.33340
 C21 C 0.83505 0.86185 0.33978
 N22 N 0.82757 0.85364 0.35288
 C23 C 0.83493 0.83950 0.35976
 N24 N 0.85005 0.83358 0.35344
 C25 C 0.62837 0.66414 0.34123
 N26 N 0.63549 0.64983 0.33406
 C27 C 0.64892 0.64157 0.34187
 N28 N 0.65524 0.64785 0.35682
 C29 C 0.64838 0.66212 0.36408
 N30 N 0.63496 0.67022 0.35619
 C31 C 0.64642 0.14271 -0.16076
 N32 N 0.65273 0.15080 -0.14660
 C33 C 0.66712 0.14469 -0.13842
 N34 N 0.67525 0.13048 -0.14465
 C35 C 0.66917 0.12229 -0.15876
 N36 N 0.65476 0.12851 -0.16661
 C37 C 0.14238 0.65114 -0.16309
 N38 N 0.14921 0.65852 -0.14883
 C39 C 0.16373 0.65194 -0.14134
 N40 N 0.17145 0.63789 -0.14834
 C41 C 0.16481 0.63035 -0.16260
 N42 N 0.15028 0.63711 -0.16984
 C43 C 0.13656 0.16898 0.33741
 N44 N 0.14483 0.15521 0.33041
 C45 C 0.15860 0.14773 0.33838
 N46 N 0.16401 0.15418 0.35361
 C47 C 0.15596 0.16788 0.36086
 N48 N 0.14228 0.17527 0.35266
 C49 C 0.64081 0.33024 0.66850
 N50 N 0.64762 0.32376 0.65397
 C51 C 0.66096 0.33150 0.64618
 N52 N 0.66764 0.34604 0.65321
 C53 C 0.66076 0.35276 0.66780
 N54 N 0.64744 0.34471 0.67524
 C55 C 0.64261 0.83802 1.16156
 N56 N 0.65033 0.85237 1.16772
 C57 C 0.66472 0.85851 1.16029
 N58 N 0.67137 0.85014 1.14661
 C59 C 0.66391 0.83583 1.14026
 N60 N 0.64955 0.82984 1.14781
 C61 C 0.13861 0.33452 1.15544
 N62 N 0.14620 0.34852 1.16246
 C63 C 0.16060 0.35525 1.15553
 N64 N 0.16740 0.34772 1.14137
 C65 C 0.15997 0.33376 1.13416
 N66 N 0.14563 0.32729 1.14129
 C67 C 0.14781 0.82431 0.66227
 N68 N 0.15469 0.83879 0.66904
 C69 C 0.16857 0.84623 0.66182
 N70 N 0.17555 0.83893 0.64762
 C71 C 0.16888 0.82448 0.64068
 N72 N 0.15505 0.81730 0.64809
 C73 C 0.36033 0.66061 0.66385
 N74 N 0.35327 0.66666 0.64912
 C75 C 0.33955 0.65890 0.64159
 N76 N 0.33285 0.64489 0.64902
 C77 C 0.33973 0.63863 0.66377
 N78 N 0.35346 0.64660 0.67110
 C79 C 0.36528 0.17613 1.16659
 N80 N 0.35794 0.16252 1.17417
 C81 C 0.34437 0.15435 1.16674
 N82 N 0.33814 0.16003 1.15150
 C83 C 0.34533 0.17355 1.14370
 N84 N 0.35886 0.18150 1.15134
 C85 C 0.86537 0.67045 1.17428
 N86 N 0.85764 0.65678 1.18132
 C87 C 0.84404 0.64913 1.17352
 N88 N 0.83823 0.65534 1.15840
 C89 C 0.84571 0.66899 1.15108
 N90 N 0.85929 0.67658 1.15912
 C91 C 0.85979 0.16023 0.66641
 N92 N 0.85296 0.14601 0.67312
 C93 C 0.83931 0.13806 0.66565
 N94 N 0.83236 0.14464 0.65099
 C95 C 0.83919 0.15889 0.64397
 N96 N 0.85281 0.16653 0.65181
 C97 C 0.34516 0.35028 0.66332
 N98 N 0.33699 0.34276 0.64993
 C99 C 0.34279 0.32772 0.64328
 N100 N 0.35706 0.32009 0.65025
 C101 C 0.36546 0.32749 0.66368
 N102 N 0.35938 0.34256 0.67015
 C103 C 0.33180 0.86910 0.15204
 N104 N 0.32495 0.86048 0.13851
 C105 C 0.33252 0.84586 0.13263
 N106 N 0.34707 0.83988 0.14047
 C107 C 0.35410 0.84831 0.15402
 N108 N 0.34635 0.86290 0.15975
 C109 C 0.82950 0.36661 0.15619
 N110 N 0.84390 0.36084 0.16440
 C111 C 0.85202 0.34621 0.15938
 N112 N 0.84551 0.33721 0.14592
 C113 C 0.83109 0.34281 0.13750
 N114 N 0.82315 0.35751 0.14275
 C115 C 0.85473 0.86119 0.64275
 N116 N 0.86825 0.85320 0.65068
 C117 C 0.87542 0.83875 0.64385
 N118 N 0.86875 0.83223 0.62910
 C119 C 0.85523 0.84006 0.62108
 N120 N 0.84833 0.85449 0.62801
 C121 C 0.66372 0.64528 0.65919
 N122 N 0.64941 0.65242 0.66636
 C123 C 0.64202 0.66679 0.65966
 N124 N 0.64912 0.67396 0.64572
 C125 C 0.66339 0.66693 0.63845
 N126 N 0.67057 0.65265 0.64530
 C127 C 0.65804 0.15101 0.17159
 N128 N 0.66524 0.15662 0.15699
 C129 C 0.65927 0.17111 0.14932
 N130 N 0.64594 0.18000 0.15646
 C131 C 0.63861 0.17453 0.17107
 N132 N 0.64477 0.16007 0.17850
 C133 C 0.16198 0.64370 0.16377
 N134 N 0.14870 0.65234 0.17137
 C135 C 0.14238 0.66711 0.16449
 N136 N 0.14951 0.67312 0.15004
 C137 C 0.16273 0.66473 0.14237
 N138 N 0.16888 0.65004 0.14932
 C139 C 0.15293 0.13529 0.66525
 N140 N 0.13940 0.14312 0.67317
 C141 C 0.13254 0.15795 0.66699
 N142 N 0.13942 0.16492 0.65286
 C143 C 0.15293 0.15730 0.64485
 N144 N 0.15960 0.14250 0.65113
 C145 C 0.33653 0.63863 0.32556
 N146 N 0.34986 0.64622 0.31776
 C147 C 0.35693 0.66070 0.32421
 N148 N 0.35044 0.66770 0.33880
 C149 C 0.33705 0.66019 0.34683
 N150 N 0.33021 0.64570 0.34007
 C151 C 0.33957 0.13069 0.83688
 N152 N 0.33317 0.13726 0.85170
 C153 C 0.34157 0.15003 0.86010
 N154 N 0.35625 0.15623 0.85346
 C155 C 0.36273 0.14996 0.83870
 N156 N 0.35432 0.13717 0.83046
 C157 C 0.83710 0.64222 0.83361
 N158 N 0.83042 0.64778 0.84866
 C159 C 0.83751 0.66112 0.85726
 N160 N 0.85136 0.66894 0.85062
 C161 C 0.85824 0.66366 0.83562
 N162 N 0.85104 0.65025 0.82713
 C163 C 0.83655 0.14649 0.33305
 N164 N 0.85054 0.15390 0.32623
 C165 C 0.85765 0.16798 0.33338
 N166 N 0.85056 0.17476 0.34769
 C167 C 0.83651 0.16756 0.35486
 N168 N 0.82950 0.15340 0.34742
 C169 C 0.67177 0.36924 0.34263
 N170 N 0.65677 0.36305 0.33620
 C171 C 0.64913 0.34937 0.34323
 N172 N 0.65674 0.34177 0.35696
 C173 C 0.67181 0.34779 0.36362
 N174 N 0.67924 0.36153 0.35635
 C175 C 0.67360 0.84909 0.83170
 N176 N 0.68203 0.84379 0.84603
 C177 C 0.67593 0.83076 0.85542
 N178 N 0.66118 0.82296 0.85030
 C179 C 0.65252 0.82808 0.83602
 N180 N 0.65883 0.84116 0.82677
 C181 C 0.16482 0.35947 0.83691
 N182 N 0.17147 0.35223 0.85134
 C183 C 0.16285 0.33967 0.85934
 N184 N 0.14759 0.33438 0.85275
 C185 C 0.14078 0.34133 0.83839
 N186 N 0.14949 0.35387 0.83047
 C187 C 0.17750 0.87125 0.33783
 N188 N 0.16295 0.86447 0.33103
 C189 C 0.15592 0.85022 0.33762
 N190 N 0.16372 0.84262 0.35130
 C191 C 0.17836 0.84931 0.35832
 N192 N 0.18511 0.86359 0.35146
 O193 O 0.25012 1.02985 0.21919
 O194 O 0.22753 0.99618 0.24212
 O195 O 0.22551 1.02936 0.24145
 O196 O 0.25193 0.99659 0.21973
 O197 O 0.27138 0.99801 0.24043
 O198 O 0.24482 1.03060 0.26228
 O199 O 0.24700 0.99743 0.26282
 O200 O 0.26943 1.03128 0.24000
 Cu201 Cu 0.23684 1.01288 0.22852
 Cu202 Cu 0.26011 1.01449 0.25345
 C203 C 0.26362 1.03638 0.22570
 C204 C 0.23344 0.99098 0.25636
 C205 C 0.23061 1.03556 0.25562
 C206 C 0.26612 0.99160 0.22640
 O207 O 0.22493 0.47712 0.73756
 O208 O 0.24765 0.51098 0.71514
 O209 O 0.24881 0.47770 0.71459
 O210 O 0.22408 0.51025 0.73836
 O211 O 0.24416 0.51033 0.75853
 O212 O 0.26893 0.47778 0.73471
 O213 O 0.26777 0.51118 0.73525
 O214 O 0.24499 0.47710 0.75775
 Cu215 Cu 0.23439 0.49400 0.72438
 Cu216 Cu 0.25851 0.49409 0.74856
 C217 C 0.23099 0.47132 0.75150
 C218 C 0.26152 0.51699 0.72138
 C219 C 0.26306 0.47208 0.72062
 C220 C 0.22987 0.51587 0.75252
 O221 O 0.74992 -0.01389 0.27047
 O222 O 0.72482 0.01993 0.24765
 O223 O 0.72403 -0.01343 0.24884
 O224 O 0.74722 0.01933 0.27262
 O225 O 0.76701 0.02024 0.25271
 O226 O 0.74374 -0.01380 0.22880
 O227 O 0.74460 0.01948 0.22769
 O228 O 0.76955 -0.01302 0.25040
 Cu229 Cu 0.73456 0.00292 0.26183
 Cu230 Cu 0.75815 0.00326 0.23795
 C231 C 0.76416 -0.01918 0.26418
 C232 C 0.73063 0.02546 0.23363
 C233 C 0.72975 -0.01937 0.23491
 C234 C 0.76091 0.02559 0.26685
 O235 O 0.74201 0.48475 0.77437
 O236 O 0.71892 0.51637 0.74878
 O237 O 0.72209 0.48316 0.74753
 O238 O 0.74206 0.51795 0.77304
 O239 O 0.76372 0.51805 0.75508
 O240 O 0.74380 0.48402 0.72967
 O241 O 0.74053 0.51740 0.73081
 O242 O 0.76385 0.48471 0.75662
 Cu243 Cu 0.72913 0.50051 0.76266
 Cu244 Cu 0.75511 0.50109 0.74126
 C245 C 0.75673 0.47916 0.77001
 C246 C 0.72565 0.52251 0.73559
 C247 C 0.72968 0.47759 0.73422
 C248 C 0.75641 0.52395 0.76830
 O249 O 0.23489 0.47952 0.23138
 O250 O 0.25920 0.51245 0.25483
 O251 O 0.26009 0.47923 0.25362
 O252 O 0.23426 0.51288 0.23246
 O253 O 0.21536 0.51246 0.25323
 O254 O 0.24115 0.47862 0.27436
 O255 O 0.24028 0.51184 0.27558
 O256 O 0.21589 0.47902 0.25207
 Cu257 Cu 0.24897 0.49606 0.24097
 Cu258 Cu 0.22625 0.49537 0.26586
 C259 C 0.22126 0.47356 0.23775
 C260 C 0.25386 0.51785 0.26918
 C261 C 0.25507 0.47318 0.26766
 C262 C 0.22055 0.51862 0.23929
 O263 O 0.75558 1.00624 0.76483
 O264 O 0.78358 0.97607 0.74172
 O265 O 0.77781 1.00889 0.74053
 O266 O 0.76012 0.97335 0.76492
 O267 O 0.73981 0.97003 0.74529
 O268 O 0.75743 1.00572 0.72094
 O269 O 0.76338 0.97289 0.72194
 O270 O 0.73516 1.00306 0.74528
 Cu271 Cu 0.77132 0.99145 0.75493
 Cu272 Cu 0.74691 0.98755 0.73139
 C273 C 0.74061 1.00985 0.75907
 C274 C 0.77834 0.96932 0.72788
 C275 C 0.77062 1.01347 0.72661
 C276 C 0.74686 0.96564 0.75931
 O277 O 0.74508 0.52641 0.22210
 O278 O 0.72236 0.49232 0.24456
 O279 O 0.71962 0.52550 0.24348
 O280 O 0.74681 0.49313 0.22221
 O281 O 0.76587 0.49467 0.24325
 O282 O 0.73841 0.52678 0.26478
 O283 O 0.74151 0.49376 0.26554
 O284 O 0.76383 0.52786 0.24341
 Cu285 Cu 0.73157 0.50921 0.23096
 Cu286 Cu 0.75431 0.51097 0.25634
 C287 C 0.75839 0.53297 0.22899
 C288 C 0.72815 0.48715 0.25888
 C289 C 0.72429 0.53162 0.25782
 C290 C 0.76094 0.48828 0.22909
 O291 O 0.21549 0.00870 0.75533
 O292 O 0.24384 -0.02360 0.77575
 O293 O 0.24066 0.00950 0.77754
 O294 O 0.21791 -0.02464 0.75442
 O295 O 0.23636 -0.02303 0.73333
 O296 O 0.25907 0.01147 0.75646
 O297 O 0.26220 -0.02161 0.75462
 O298 O 0.23387 0.01026 0.73419
 Cu299 Cu 0.22762 -0.00770 0.76786
 Cu300 Cu 0.24967 -0.00551 0.74251
 C301 C 0.21994 0.01506 0.74123
 C302 C 0.25787 -0.02815 0.76865
 C303 C 0.25375 0.01635 0.77102
 C304 C 0.22330 -0.02984 0.74003
 O305 O 0.23194 0.25150 1.01243
 O306 O 0.25143 0.22364 0.98003
 O307 O 0.25265 0.22514 1.01333
 O308 O 0.23246 0.25138 0.97936
 O309 O 0.25547 0.26763 0.97924
 O310 O 0.27540 0.24172 1.01286
 O311 O 0.27443 0.23991 0.97977
 O312 O 0.25469 0.26810 1.01244
 Cu313 Cu 0.23985 0.23626 0.99628
 Cu314 Cu 0.26729 0.25596 0.99603
 C315 C 0.23984 0.26451 1.01804
 C316 C 0.26624 0.22695 0.97431
 C317 C 0.26754 0.22911 1.01897
 C318 C 0.24056 0.26405 0.97354
 O319 O 0.26086 0.77274 0.47907
 O320 O 0.28665 0.74974 0.51170
 O321 O 0.28614 0.75054 0.47831
 O322 O 0.26248 0.77303 0.51227
 O323 O 0.24320 0.75260 0.51246
 O324 O 0.26695 0.73004 0.47822
 O325 O 0.26739 0.72929 0.51162
 O326 O 0.24166 0.75222 0.47920
 Cu327 Cu 0.27597 0.76352 0.49532
 Cu328 Cu 0.25291 0.73897 0.49537
 C329 C 0.24684 0.76637 0.47353
 C330 C 0.28127 0.73565 0.51741
 C331 C 0.28054 0.73656 0.47228
 C332 C 0.24888 0.76669 0.51828
 O333 O 0.28327 0.73390 -0.01675
 O334 O 0.25984 0.71156 0.01679
 O335 O 0.26002 0.71023 -0.01651
 O336 O 0.28249 0.73584 0.01643
 O337 O 0.26160 0.75522 0.01511
 O338 O 0.23926 0.72976 -0.01766
 O339 O 0.23904 0.73104 0.01552
 O340 O 0.26248 0.75339 -0.01787
 Cu341 Cu 0.27348 0.72090 0.00013
 Cu342 Cu 0.24850 0.74427 -0.00136
 C343 C 0.27689 0.74751 -0.02303
 C344 C 0.24547 0.71751 0.02196
 C345 C 0.24580 0.71569 -0.02278
 C346 C 0.27586 0.74996 0.02139
 O347 O 0.23198 0.27970 0.52622
 O348 O 0.20622 0.25873 0.49236
 O349 O 0.20713 0.25759 0.52561
 O350 O 0.23027 0.28143 0.49314
 O351 O 0.24984 0.26077 0.49162
 O352 O 0.22665 0.23687 0.52422
 O353 O 0.22579 0.23804 0.49113
 O354 O 0.25142 0.25892 0.52466
 Cu355 Cu 0.21693 0.27144 0.50953
 Cu356 Cu 0.24037 0.24656 0.50777
 C357 C 0.24615 0.27290 0.53118
 C358 C 0.21173 0.24477 0.48589
 C359 C 0.21290 0.24317 0.53050
 C360 C 0.24397 0.27519 0.48676
 O361 O 0.76023 0.77335 0.98526
 O362 O 0.78684 0.75476 1.01993
 O363 O 0.78594 0.75176 0.98677
 O364 O 0.76112 0.77637 1.01836
 O365 O 0.74293 0.75513 1.02057
 O366 O 0.76746 0.73069 0.98837
 O367 O 0.76867 0.73343 1.02152
 O368 O 0.74182 0.75229 0.98749
 Cu369 Cu 0.77537 0.76618 1.00239
 Cu370 Cu 0.75340 0.74075 1.00472
 C371 C 0.74649 0.76596 0.98041
 C372 C 0.78225 0.74087 1.02667
 C373 C 0.78086 0.73711 0.98198
 C374 C 0.74783 0.76997 1.02496
 O375 O 0.74642 0.26575 0.48621
 O376 O 0.76886 0.23903 0.51855
 O377 O 0.76834 0.24028 0.48523
 O378 O 0.74888 0.26606 0.51950
 O379 O 0.72664 0.24882 0.51989
 O380 O 0.74628 0.22282 0.48523
 O381 O 0.74665 0.22176 0.51865
 O382 O 0.72440 0.24825 0.48670
 Cu383 Cu 0.76034 0.25448 0.50235
 Cu384 Cu 0.73382 0.23368 0.50267
 C385 C 0.73152 0.26143 0.48087
 C386 C 0.76147 0.22585 0.52422
 C387 C 0.76069 0.22730 0.47919
 C388 C 0.73447 0.26190 0.52563
 O389 O 0.71590 0.24922 -0.01710
 O390 O 0.73883 0.27540 0.01473
 O391 O 0.74048 0.27152 -0.01822
 O392 O 0.71504 0.25243 0.01613
 O393 O 0.73477 0.23206 0.01891
 O394 O 0.76020 0.25117 -0.01516
 O395 O 0.75859 0.25510 0.01785
 O396 O 0.73563 0.22885 -0.01431
 Cu397 Cu 0.72557 0.26414 -0.00142
 Cu398 Cu 0.74924 0.23974 0.00210
 C399 C 0.72187 0.23463 -0.02130
 C400 C 0.75256 0.26978 0.02180
 C401 C 0.75474 0.26460 -0.02255
 C402 C 0.72067 0.23904 0.02352
 O403 O 0.78098 0.73649 0.47718
 O404 O 0.75983 0.71548 0.51304
 O405 O 0.75673 0.71401 0.48004
 O406 O 0.78463 0.73728 0.51011
 O407 O 0.76545 0.75834 0.51110
 O408 O 0.73737 0.73489 0.48121
 O409 O 0.74066 0.73654 0.51412
 O410 O 0.76153 0.75729 0.47832
 Cu411 Cu 0.77248 0.72368 0.49497
 Cu412 Cu 0.74930 0.74886 0.49631
 C413 C 0.77488 0.75058 0.47168
 C414 C 0.74658 0.72244 0.51969
 C415 C 0.74227 0.72041 0.47550
 C416 C 0.77988 0.75186 0.51567
 O417 O 1.01224 0.28603 0.24995
 O418 O 0.97883 0.26411 0.27384
 O419 O 1.01247 0.26421 0.27481
 O420 O 0.97862 0.28441 0.24770
 O421 O 0.98033 0.26256 0.22984
 O422 O 1.01376 0.24265 0.25658
 O423 O 0.98025 0.24231 0.25589
 O424 O 1.01381 0.26439 0.23182
 Cu425 Cu 0.99538 0.27689 0.26336
 Cu426 Cu 0.99718 0.25082 0.24173
 C427 C 1.01884 0.27900 0.23688
 C428 C 0.97379 0.24948 0.26901
 C429 C 1.01892 0.24989 0.27020
 C430 C 0.97365 0.27681 0.23413
 O431 O 0.52078 0.24989 0.74407
 O432 O 0.48709 0.22620 0.76634
 O433 O 0.52041 0.22872 0.76936
 O434 O 0.48734 0.24921 0.74267
 O435 O 0.48921 0.22838 0.72364
 O436 O 0.52288 0.20766 0.75065
 O437 O 0.48943 0.20537 0.74737
 O438 O 0.52283 0.22890 0.72523
 Cu439 Cu 0.50367 0.24058 0.75749
 Cu440 Cu 0.50633 0.21547 0.73485
 C441 C 0.52755 0.24339 0.73077
 C442 C 0.48246 0.21171 0.76057
 C443 C 0.52740 0.21475 0.76465
 C444 C 0.48254 0.24247 0.72866
 O445 O 0.01301 0.26666 0.76631
 O446 O -0.02056 0.24202 0.74361
 O447 O 0.01300 0.24187 0.74398
 O448 O -0.02060 0.26517 0.76760
 O449 O -0.02165 0.28482 0.74765
 O450 O 0.01192 0.26123 0.72374
 O451 O -0.02161 0.26169 0.72366
 O452 O 0.01190 0.28597 0.74602
 Cu453 Cu -0.00367 0.25201 0.75741
 Cu454 Cu -0.00499 0.27539 0.73329
 C455 C 0.01829 0.28050 0.75992
 C456 C -0.02682 0.24772 0.72968
 C457 C 0.01820 0.24746 0.72984
 C458 C -0.02696 0.27893 0.76168
 O459 O 0.51760 0.25804 0.24645
 O460 O 0.48360 0.28346 0.26726
 O461 O 0.51737 0.28180 0.26983
 O462 O 0.48403 0.25796 0.24569
 O463 O 0.48324 0.23925 0.26650
 O464 O 0.51619 0.26282 0.29036
 O465 O 0.48256 0.26466 0.28797
 O466 O 0.51676 0.23906 0.26701
 Cu467 Cu 0.50073 0.27224 0.25529
 Cu468 Cu 0.49959 0.24962 0.28004
 C469 C 0.52302 0.24422 0.25308
 C470 C 0.47710 0.27838 0.28105
 C471 C 0.52261 0.27619 0.28420
 C472 C 0.47797 0.24443 0.25205
 O473 O 0.98424 0.74655 0.77219
 O474 O 1.02007 0.77066 0.75343
 O475 O 0.98653 0.77178 0.75090
 O476 O 1.01772 0.74687 0.77621
 O477 O 1.01965 0.72768 0.75555
 O478 O 0.98823 0.75286 0.72997
 O479 O 1.02165 0.75142 0.73278
 O480 O 0.98618 0.72764 0.75128
 Cu481 Cu 1.00193 0.76085 0.76527
 Cu482 Cu 1.00408 0.73798 0.74035
 C483 C 0.97907 0.73295 0.76485
 C484 C 1.02699 0.76505 0.73981
 C485 C 0.98206 0.76672 0.73611
 C486 C 1.02415 0.73311 0.77026
 O487 O 0.51351 0.77273 0.23520
 O488 O 0.47872 0.75319 0.25942
 O489 O 0.51222 0.74979 0.25903
 O490 O 0.47978 0.77466 0.23426
 O491 O 0.47870 0.75366 0.21538
 O492 O 0.51068 0.72907 0.23987
 O493 O 0.47731 0.73224 0.24050
 O494 O 0.51229 0.75185 0.21619
 Cu495 Cu 0.49620 0.76470 0.24886
 Cu496 Cu 0.49457 0.73966 0.22608
 C497 C 0.51897 0.76564 0.22164
 C498 C 0.47207 0.73936 0.25418
 C499 C 0.51698 0.73512 0.25360
 C500 C 0.47367 0.76828 0.22053
 O501 O -0.00727 0.78623 0.25795
 O502 O 0.02571 0.75850 0.23784
 O503 O -0.00765 0.76198 0.23517
 O504 O 0.02637 0.78284 0.26075
 O505 O 0.02355 0.76368 0.28092
 O506 O -0.01060 0.74296 0.25545
 O507 O 0.02274 0.73945 0.25809
 O508 O -0.01001 0.76721 0.27826
 Cu509 Cu 0.00964 0.77433 0.24595
 Cu510 Cu 0.00611 0.75147 0.27024
 C511 C -0.01447 0.78131 0.27148
 C512 C 0.02984 0.74422 0.24445
 C513 C -0.01500 0.74889 0.24098
 C514 C 0.03093 0.77675 0.27511
 O515 O 0.51641 0.74168 0.73725
 O516 O 0.48295 0.76515 0.76166
 O517 O 0.51650 0.76685 0.75907
 O518 O 0.48290 0.74097 0.73872
 O519 O 0.48508 0.72211 0.75936
 O520 O 0.51938 0.74802 0.77967
 O521 O 0.48578 0.74635 0.78229
 O522 O 0.51862 0.72282 0.75789
 Cu523 Cu 0.49943 0.75556 0.74714
 Cu524 Cu 0.50245 0.73298 0.77190
 C525 C 0.52323 0.72819 0.74345
 C526 C 0.47857 0.75962 0.77616
 C527 C 0.52390 0.76184 0.77268
 C528 C 0.47816 0.72716 0.74547
 C529 C 0.38977 0.31140 0.34828
 C530 C 0.39710 0.31653 0.33275
 C531 C 0.38872 0.33001 0.32376
 C532 C 0.37344 0.33761 0.33000
 C533 C 0.36615 0.33199 0.34519
 C534 C 0.37464 0.31897 0.35429
 C535 C 0.39552 0.33570 0.30850
 C536 C 0.41032 0.32819 0.30174
 C537 C 0.41896 0.31450 0.30998
 C538 C 0.41228 0.30862 0.32579
 C539 C 0.42082 0.29485 0.33398
 C540 C 0.43513 0.28685 0.32690
 C541 C 0.44168 0.29224 0.31144
 C542 C 0.43390 0.30628 0.30282
 C543 C 0.44136 0.31131 0.28728
 C544 C 0.45550 0.30246 0.28048
 C545 C 0.46278 0.28833 0.28887
 C546 C 0.45590 0.28345 0.30448
 H547 H 0.39528 0.30152 0.35616
 H548 H 0.36709 0.34773 0.32285
 H549 H 0.36952 0.31441 0.36617
 H550 H 0.38926 0.34604 0.30160
 H551 H 0.41451 0.33336 0.28985
 H552 H 0.41667 0.28967 0.34587
 H553 H 0.44108 0.27620 0.33359
 H554 H 0.43656 0.32194 0.27994
 H555 H 0.46058 0.30660 0.26843
 H556 H 0.46149 0.27261 0.31118
 C557 C 0.39072 0.82867 0.80793
 C558 C 0.39963 0.81401 0.81405
 C559 C 0.39380 0.80681 0.82943
 C560 C 0.37948 0.81382 0.83795
 C561 C 0.37059 0.82823 0.83159
 C562 C 0.37653 0.83559 0.81653
 C563 C 0.40220 0.79256 0.83627
 C564 C 0.41630 0.78516 0.82821
 C565 C 0.42259 0.79165 0.81277
 C566 C 0.41404 0.80625 0.80550
 C567 C 0.42005 0.81244 0.78981
 C568 C 0.43381 0.80465 0.78147
 C569 C 0.44229 0.79047 0.78838
 C570 C 0.43698 0.78385 0.80423
 C571 C 0.44629 0.76963 0.81080
 C572 C 0.45984 0.76209 0.80178
 C573 C 0.46473 0.76840 0.78594
 C574 C 0.45599 0.78275 0.77941
 H575 H 0.39435 0.83521 0.79653
 H576 H 0.37529 0.80792 0.84962
 H577 H 0.37018 0.84677 0.81119
 H578 H 0.39780 0.78701 0.84803
 H579 H 0.42183 0.77413 0.83440
 H580 H 0.41424 0.82322 0.78343
 H581 H 0.43782 0.80979 0.76938
 H582 H 0.44349 0.76392 0.82286
 H583 H 0.46641 0.75110 0.80725
 H584 H 0.45970 0.78783 0.76720
 C585 C -0.11362 0.30460 0.83307
 C586 C -0.10436 0.31254 0.81986
 C587 C -0.11009 0.32896 0.81465
 C588 C -0.12444 0.33684 0.82222
 C589 C -0.13370 0.32869 0.83498
 C590 C -0.12803 0.31258 0.84045
 C591 C -0.10165 0.33747 0.80174
 C592 C -0.08785 0.32990 0.79340
 C593 C -0.08182 0.31339 0.79769
 C594 C -0.08988 0.30474 0.81146
 C595 C -0.08321 0.28861 0.81629
 C596 C -0.06944 0.28100 0.80780
 C597 C -0.06188 0.28899 0.79400
 C598 C -0.06796 0.30526 0.78866
 C599 C -0.06008 0.31256 0.77429
 C600 C -0.04679 0.30406 0.76571
 C601 C -0.04078 0.28805 0.77111
 C602 C -0.04834 0.28064 0.78537
 H603 H -0.11028 0.29210 0.83780
 H604 H -0.12853 0.34938 0.81787
 H605 H -0.13491 0.30596 0.85029
 H606 H -0.10589 0.35013 0.79789
 H607 H -0.08213 0.33749 0.78366
 H608 H -0.08829 0.28149 0.82673
 H609 H -0.06479 0.26859 0.81197
 H610 H -0.06402 0.32468 0.76907
 H611 H -0.04124 0.31007 0.75470
 H612 H -0.04389 0.26819 0.78962
 C613 C -0.10365 0.81282 0.33624
 C614 C -0.09507 0.81940 0.32200
 C615 C -0.10262 0.83380 0.31380
 C616 C -0.11801 0.84137 0.31996
 C617 C -0.12641 0.83456 0.33412
 C618 C -0.11890 0.82021 0.34209
 C619 C -0.09488 0.84041 0.29936
 C620 C -0.08008 0.83283 0.29260
 C621 C -0.07217 0.81837 0.30022
 C622 C -0.07952 0.81189 0.31547
 C623 C -0.07110 0.79808 0.32371
 C624 C -0.05660 0.79024 0.31688
 C625 C -0.04978 0.79579 0.30161
 C626 C -0.05723 0.81005 0.29310
 C627 C -0.04956 0.81509 0.27765
 C628 C -0.03545 0.80607 0.27089
 C629 C -0.02849 0.79175 0.27923
 C630 C -0.03560 0.78690 0.29474
 H631 H -0.09922 0.80170 0.34305
 H632 H -0.12355 0.85236 0.31349
 H633 H -0.12481 0.81441 0.35302
 H634 H -0.10048 0.85146 0.29302
 H635 H -0.07509 0.83869 0.28136
 H636 H -0.07529 0.79297 0.33562
 H637 H -0.05076 0.77953 0.32358
 H638 H -0.05432 0.82573 0.27028
 H639 H -0.03022 0.81013 0.25887
 H640 H -0.03029 0.77591 0.30140
 C641 C 0.59436 0.69799 0.33147
 C642 C 0.58770 0.69268 0.31543
 C643 C 0.59439 0.67727 0.30833
 C644 C 0.60744 0.66792 0.31684
 C645 C 0.61411 0.67358 0.33254
 C646 C 0.60731 0.68861 0.33979
 C647 C 0.58816 0.67126 0.29271
 C648 C 0.57543 0.68021 0.28382
 C649 C 0.56841 0.69572 0.29017
 C650 C 0.57472 0.70213 0.30619
 C651 C 0.56802 0.71786 0.31233
 C652 C 0.55562 0.72704 0.30322
 C653 C 0.54926 0.72095 0.28767
 C654 C 0.55542 0.70515 0.28095
 C655 C 0.54830 0.69950 0.26522
 C656 C 0.53587 0.70922 0.25655
 C657 C 0.53002 0.72491 0.26315
 C658 C 0.53675 0.73067 0.27879
 H659 H 0.58991 0.70932 0.33803
 H660 H 0.61249 0.65627 0.31109
 H661 H 0.61207 0.69330 0.35197
 H662 H 0.59322 0.65949 0.28723
 H663 H 0.57152 0.67462 0.27184
 H664 H 0.57220 0.72364 0.32414
 H665 H 0.55096 0.73910 0.30843
 H666 H 0.55193 0.68760 0.25921
 H667 H 0.53086 0.70437 0.24453
 H668 H 0.53227 0.74275 0.28408
 C669 C 0.61188 0.14680 0.80611
 C670 C 0.60338 0.16221 0.81076
 C671 C 0.60926 0.17073 0.82573
 C672 C 0.62328 0.16416 0.83532
 C673 C 0.63186 0.14905 0.83027
 C674 C 0.62577 0.14044 0.81563
 C675 C 0.60124 0.18588 0.83099
 C676 C 0.58764 0.19296 0.82165
 C677 C 0.58145 0.18517 0.80649
 C678 C 0.58940 0.16948 0.80100
 C679 C 0.58324 0.16168 0.78583
 C680 C 0.56997 0.16898 0.77624
 C681 C 0.56221 0.18432 0.78129
 C682 C 0.56770 0.19261 0.79654
 C683 C 0.55923 0.20810 0.80106
 C684 C 0.54616 0.21506 0.79077
 C685 C 0.54099 0.20691 0.77562
 C686 C 0.54902 0.19145 0.77103
 H687 H 0.60827 0.13930 0.79512
 H688 H 0.62761 0.17103 0.84662
 H689 H 0.63183 0.12866 0.81127
 H690 H 0.60561 0.19244 0.84245
 H691 H 0.58234 0.20471 0.82668
 H692 H 0.58846 0.14989 0.78083
 H693 H 0.56580 0.16255 0.76463
 H694 H 0.56236 0.21528 0.81242
 H695 H 0.54016 0.22700 0.79472
 H696 H 0.54510 0.18497 0.75936
 C697 C 1.10663 0.65889 0.80442
 C698 C 1.09851 0.67400 0.81057
 C699 C 1.10476 0.68099 0.82617
 C700 C 1.11880 0.67337 0.83484
 C701 C 1.12696 0.65868 0.82830
 C702 C 1.12057 0.65144 0.81313
 C703 C 1.09712 0.69569 0.83299
 C704 C 1.08354 0.70387 0.82459
 C705 C 1.07703 0.69771 0.80884
 C706 C 1.08459 0.68248 0.80173
 C707 C 1.07816 0.67639 0.78591
 C708 C 1.06505 0.68496 0.77718
 C709 C 1.05769 0.69989 0.78380
 C710 C 1.06339 0.70642 0.79981
 C711 C 1.05528 0.72152 0.80598
 C712 C 1.04247 0.72990 0.79647
 C713 C 1.03718 0.72359 0.78052
 C714 C 1.04474 0.70844 0.77435
 H715 H 1.10265 0.65247 0.79287
 H716 H 1.12351 0.67907 0.84662
 H717 H 1.12647 0.64001 0.80778
 H718 H 1.10178 0.70104 0.84496
 H719 H 1.07859 0.71519 0.83080
 H720 H 1.08312 0.66507 0.77972
 H721 H 1.06070 0.67987 0.76499
 H722 H 1.05851 0.72734 0.81806
 H723 H 1.03681 0.74154 0.80164
 H724 H 1.04071 0.70336 0.76206
 C725 C 1.10287 0.17774 0.30430
 C726 C 1.09442 0.19253 0.31074
 C727 C 1.10047 0.19936 0.32647
 C728 C 1.11422 0.19143 0.33536
 C729 C 1.12250 0.17674 0.32876
 C730 C 1.11658 0.17007 0.31312
 C731 C 1.09288 0.21414 0.33322
 C732 C 1.07953 0.22254 0.32461
 C733 C 1.07304 0.21634 0.30887
 C734 C 1.08036 0.20087 0.30202
 C735 C 1.07335 0.19420 0.28670
 C736 C 1.06002 0.20249 0.27811
 C737 C 1.05310 0.21779 0.28431
 C738 C 1.05943 0.22503 0.29975
 C739 C 1.05192 0.24074 0.30524
 C740 C 1.03876 0.24876 0.29576
 C741 C 1.03263 0.24145 0.28055
 C742 C 1.03987 0.22591 0.27499
 H743 H 1.09945 0.17181 0.29232
 H744 H 1.11857 0.19693 0.34737
 H745 H 1.12257 0.15881 0.30749
 H746 H 1.09741 0.21941 0.34526
 H747 H 1.07448 0.23385 0.33077
 H748 H 1.07775 0.18242 0.28097
 H749 H 1.05511 0.19687 0.26636
 H750 H 1.05600 0.24730 0.31668
 H751 H 1.03344 0.26079 0.30034
 H752 H 1.03529 0.22009 0.26322
 C753 C 0.60590 0.32035 0.70018
 C754 C 0.59933 0.30466 0.69397
 C755 C 0.60674 0.29766 0.67897
 C756 C 0.62006 0.30610 0.67065
 C757 C 0.62645 0.32156 0.67705
 C758 C 0.61919 0.32857 0.69186
 C759 C 0.60091 0.28220 0.67232
 C760 C 0.58800 0.27331 0.68032
 C761 C 0.58027 0.27957 0.69539
 C762 C 0.58583 0.29564 0.70219
 C763 C 0.57772 0.30215 0.71696
 C764 C 0.56485 0.29322 0.72499
 C765 C 0.55953 0.27742 0.71875
 C766 C 0.56712 0.27031 0.70388
 C767 C 0.56129 0.25414 0.69824
 C768 C 0.54850 0.24556 0.70696
 C769 C 0.54105 0.25269 0.72161
 C770 C 0.54664 0.26867 0.72741
 H771 H 0.60123 0.32660 0.71153
 H772 H 0.62556 0.30048 0.65923
 H773 H 0.62384 0.34050 0.69715
 H774 H 0.60647 0.27683 0.66081
 H775 H 0.58434 0.26152 0.67422
 H776 H 0.58093 0.31424 0.72270
 H777 H 0.55904 0.29875 0.73631
 H778 H 0.56636 0.24761 0.68722
 H779 H 0.54449 0.23320 0.70218
 H780 H 0.54099 0.27433 0.73875
 C781 C 0.60625 0.83313 0.19180
 C782 C 0.59824 0.81805 0.18576
 C783 C 0.60534 0.80996 0.17116
 C784 C 0.61987 0.81667 0.16318
 C785 C 0.62781 0.83155 0.16943
 C786 C 0.62070 0.83969 0.18379
 C787 C 0.59799 0.79513 0.16456
 C788 C 0.58378 0.78796 0.17217
 C789 C 0.57625 0.79534 0.18684
 C790 C 0.58356 0.81069 0.19372
 C791 C 0.57600 0.81809 0.20837
 C792 C 0.56199 0.81075 0.21616
 C793 C 0.55484 0.79575 0.20975
 C794 C 0.56174 0.78782 0.19495
 C795 C 0.55384 0.77263 0.18902
 C796 C 0.53994 0.76561 0.19756
 C797 C 0.53335 0.77342 0.21228
 C798 C 0.54084 0.78858 0.21821
 H799 H 0.60177 0.84021 0.20274
 H800 H 0.62501 0.81012 0.15207
 H801 H 0.62633 0.85121 0.18904
 H802 H 0.60334 0.78892 0.15336
 H803 H 0.57905 0.77649 0.16618
 H804 H 0.58064 0.82963 0.21428
 H805 H 0.55672 0.81689 0.22744
 H806 H 0.55809 0.76573 0.17788
 H807 H 0.53442 0.75390 0.19265
 H808 H 0.53585 0.79481 0.22956
 C809 C 1.10231 0.30507 0.16346
 C810 C 1.09509 0.31188 0.17859
 C811 C 1.10244 0.32696 0.18546
 C812 C 1.11667 0.33449 0.17770
 C813 C 1.12397 0.32734 0.16291
 C814 C 1.11642 0.31264 0.15584
 C815 C 1.09567 0.33444 0.20015
 C816 C 1.08179 0.32728 0.20833
 C817 C 1.07411 0.31213 0.20221
 C818 C 1.08093 0.30424 0.18714
 C819 C 1.07354 0.28884 0.18126
 C820 C 1.06007 0.28134 0.18980
 C821 C 1.05327 0.28885 0.20445
 C822 C 1.06001 0.30444 0.21081
 C823 C 1.05235 0.31161 0.22559
 C824 C 1.03896 0.30343 0.23381
 C825 C 1.03263 0.28785 0.22766
 C826 C 1.03979 0.28071 0.21286
 H827 H 1.09742 0.29388 0.15708
 H828 H 1.12212 0.34593 0.18337
 H829 H 1.12147 0.30675 0.14435
 H830 H 1.10122 0.34599 0.20546
 H831 H 1.07755 0.33391 0.21964
 H832 H 1.07801 0.28203 0.17016
 H833 H 1.05496 0.26944 0.18486
 H834 H 1.05633 0.32354 0.23119
 H835 H 1.03363 0.30932 0.24517
 H836 H 1.03494 0.26871 0.20790
 C837 C 1.11265 0.79353 0.67009
 C838 C 1.10491 0.80012 0.68507
 C839 C 1.11184 0.81527 0.69224
 C840 C 1.12592 0.82330 0.68466
 C841 C 1.13353 0.81650 0.66983
 C842 C 1.12661 0.80154 0.66270
 C843 C 1.10472 0.82232 0.70700
 C844 C 1.09092 0.81467 0.71493
 C845 C 1.08357 0.79953 0.70839
 C846 C 1.09065 0.79218 0.69315
 C847 C 1.08325 0.77711 0.68650
 C848 C 1.06955 0.76940 0.69441
 C849 C 1.06260 0.77628 0.70928
 C850 C 1.06940 0.79144 0.71655
 C851 C 1.06169 0.79773 0.73172
 C852 C 1.04796 0.78926 0.73923
 C853 C 1.04142 0.77427 0.73193
 C854 C 1.04884 0.76792 0.71691
 H855 H 1.10834 0.78213 0.66368
 H856 H 1.13097 0.83486 0.69044
 H857 H 1.13198 0.79582 0.65128
 H858 H 1.10993 0.83392 0.71255
 H859 H 1.08630 0.82101 0.72625
 H860 H 1.08771 0.77081 0.67511
 H861 H 1.06436 0.75782 0.68880
 H862 H 1.06595 0.80913 0.73818
 H863 H 1.04249 0.79448 0.75083
 H864 H 1.04392 0.75633 0.71108
 C865 C 0.39574 0.69262 0.67214
 C866 C 0.40306 0.68716 0.68783
 C867 C 0.39608 0.67243 0.69537
 C868 C 0.38231 0.66376 0.68749
 C869 C 0.37513 0.66948 0.67202
 C870 C 0.38207 0.68394 0.66446
 C871 C 0.40280 0.66644 0.71079
 C872 C 0.41627 0.67477 0.71906
 C873 C 0.42363 0.68957 0.71221
 C874 C 0.41694 0.69583 0.69630
 C875 C 0.42430 0.71062 0.68942
 C876 C 0.43755 0.71910 0.69775
 C877 C 0.44412 0.71327 0.71327
 C878 C 0.43739 0.69840 0.72076
 C879 C 0.44473 0.69312 0.73655
 C880 C 0.45798 0.70233 0.74448
 C881 C 0.46439 0.71709 0.73701
 C882 C 0.45740 0.72239 0.72135
 H883 H 0.40016 0.70360 0.66538
 H884 H 0.37711 0.65257 0.69352
 H885 H 0.37689 0.68870 0.65250
 H886 H 0.39755 0.65517 0.71661
 H887 H 0.42057 0.66924 0.73090
 H888 H 0.42009 0.71612 0.67754
 H889 H 0.44270 0.73044 0.69196
 H890 H 0.44054 0.68198 0.74319
 H891 H 0.46314 0.69791 0.75657
 H892 H 0.46226 0.73375 0.71536
 C893 C 0.39972 0.20800 0.17491
 C894 C 0.40623 0.20310 0.19111
 C895 C 0.39894 0.18856 0.19872
 C896 C 0.38559 0.17961 0.19050
 C897 C 0.37905 0.18480 0.17456
 C898 C 0.38644 0.19904 0.16687
 C899 C 0.40488 0.18303 0.21458
 C900 C 0.41784 0.19165 0.22325
 C901 C 0.42544 0.20634 0.21641
 C902 C 0.41960 0.21213 0.20003
 C903 C 0.42722 0.22682 0.19320
 C904 C 0.43997 0.23562 0.20203
 C905 C 0.44573 0.23023 0.21801
 C906 C 0.43864 0.21548 0.22544
 C907 C 0.44504 0.21057 0.24168
 C908 C 0.45774 0.21995 0.25010
 C909 C 0.46461 0.23457 0.24275
 C910 C 0.45855 0.23960 0.22664
 H911 H 0.40452 0.21875 0.16805
 H912 H 0.38021 0.16861 0.19672
 H913 H 0.38190 0.20347 0.15454
 H914 H 0.39939 0.17188 0.22043
 H915 H 0.42151 0.18643 0.23542
 H916 H 0.42357 0.23199 0.18100
 H917 H 0.44537 0.24686 0.19627
 H918 H 0.44055 0.19957 0.24834
 H919 H 0.46217 0.21570 0.26253
 H920 H 0.46379 0.25086 0.22079
 C921 C -0.10013 0.67917 0.20768
 C922 C -0.09182 0.69377 0.20141
 C923 C -0.09788 0.70052 0.18568
 C924 C -0.11173 0.69291 0.17681
 C925 C -0.11986 0.67852 0.18333
 C926 C -0.11383 0.67177 0.19881
 C927 C -0.09014 0.71486 0.17889
 C928 C -0.07654 0.72278 0.18735
 C929 C -0.07005 0.71666 0.20310
 C930 C -0.07780 0.70188 0.21022
 C931 C -0.07134 0.69573 0.22595
 C932 C -0.05792 0.70372 0.23452
 C933 C -0.05031 0.71816 0.22786
 C934 C -0.05614 0.72486 0.21203
 C935 C -0.04778 0.73954 0.20593
 C936 C -0.03443 0.74719 0.21524
 C937 C -0.02889 0.74055 0.23092
 C938 C -0.03688 0.72595 0.23708
 H939 H -0.09648 0.67307 0.21944
 H940 H -0.11621 0.69829 0.16483
 H941 H -0.11974 0.66065 0.20424
 H942 H -0.09468 0.72008 0.16686
 H943 H -0.07141 0.73377 0.18115
 H944 H -0.07638 0.68470 0.23216
 H945 H -0.05347 0.69853 0.24659
 H946 H -0.05123 0.74552 0.19404
 H947 H -0.02848 0.75846 0.21013
 H948 H -0.03271 0.72063 0.24919
 C949 C -0.10592 0.17041 0.69845
 C950 C -0.09906 0.18572 0.69210
 C951 C -0.10611 0.19209 0.67662
 C952 C -0.11951 0.18352 0.66808
 C953 C -0.12637 0.16848 0.67468
 C954 C -0.11927 0.16202 0.68991
 C955 C -0.09989 0.20709 0.66972
 C956 C -0.08691 0.21612 0.67790
 C957 C -0.07954 0.21052 0.69346
 C958 C -0.08559 0.19497 0.70061
 C959 C -0.07804 0.18925 0.71605
 C960 C -0.06520 0.19841 0.72434
 C961 C -0.05932 0.21366 0.71768
 C962 C -0.06635 0.21997 0.70214
 C963 C -0.05990 0.23557 0.69604
 C964 C -0.04715 0.24441 0.70498
 C965 C -0.04029 0.23811 0.72032
 C966 C -0.04644 0.22267 0.72657
 H967 H -0.10140 0.16454 0.71005
 H968 H -0.12469 0.18879 0.65632
 H969 H -0.12409 0.15042 0.69544
 H970 H -0.10519 0.21198 0.65785
 H971 H -0.08298 0.22754 0.67159
 H972 H -0.08176 0.17766 0.72219
 H973 H -0.05985 0.19350 0.73619
 H974 H -0.06443 0.24143 0.68443
 H975 H -0.04267 0.25631 0.69982
 H976 H -0.04124 0.21765 0.73843
 C977 C 0.29281 0.39357 0.34139
 C978 C 0.29815 0.40057 0.32578
 C979 C 0.31335 0.39365 0.31834
 C980 C 0.32262 0.38024 0.32629
 C981 C 0.31696 0.37335 0.34165
 C982 C 0.30203 0.38026 0.34909
 C983 C 0.31917 0.40003 0.30295
 C984 C 0.31019 0.41303 0.29460
 C985 C 0.29490 0.42029 0.30134
 C986 C 0.28888 0.41406 0.31729
 C987 C 0.27374 0.42148 0.32418
 C988 C 0.26465 0.43431 0.31578
 C989 C 0.27018 0.44036 0.30017
 C990 C 0.28539 0.43354 0.29268
 C991 C 0.29031 0.44025 0.27676
 C992 C 0.28052 0.45306 0.26877
 C993 C 0.26549 0.45967 0.27625
 C994 C 0.26045 0.45324 0.29201
 H995 H 0.28148 0.39792 0.34803
 H996 H 0.33413 0.37503 0.32035
 H997 H 0.29730 0.37534 0.36098
 H998 H 0.33080 0.39485 0.29721
 H999 H 0.31565 0.41710 0.28278
 H1000 H 0.26845 0.41768 0.33616
 H1001 H 0.25308 0.43953 0.32160
 H1002 H 0.30159 0.43588 0.27006
 H1003 H 0.28475 0.45777 0.25659
 H1004 H 0.24887 0.45825 0.29798
 C1005 C 0.30015 -0.10995 0.83734
 C1006 C 0.30480 -0.10198 0.82199
 C1007 C 0.31979 -0.10822 0.81365
 C1008 C 0.32942 -0.12203 0.82035
 C1009 C 0.32438 -0.13004 0.83542
 C1010 C 0.30972 -0.12364 0.84384
 C1011 C 0.32505 -0.10076 0.79855
 C1012 C 0.31565 -0.08740 0.79132
 C1013 C 0.30046 -0.08088 0.79891
 C1014 C 0.29501 -0.08822 0.81458
 C1015 C 0.27986 -0.08167 0.82224
 C1016 C 0.27019 -0.06865 0.81479
 C1017 C 0.27515 -0.06154 0.79944
 C1018 C 0.29040 -0.06740 0.79129
 C1019 C 0.29480 -0.05958 0.77576
 C1020 C 0.28435 -0.04680 0.76861
 C1021 C 0.26918 -0.04129 0.77663
 C1022 C 0.26476 -0.04865 0.79214
 H1023 H 0.28912 -0.10606 0.84468
 H1024 H 0.34074 -0.12663 0.81363
 H1025 H 0.30538 -0.12929 0.85557
 H1026 H 0.33654 -0.10540 0.79214
 H1027 H 0.32067 -0.08253 0.77962
 H1028 H 0.27493 -0.08637 0.83403
 H1029 H 0.25859 -0.06417 0.82111
 H1030 H 0.30615 -0.06305 0.76868
 H1031 H 0.28814 -0.04131 0.75662
 H1032 H 0.25309 -0.04446 0.79853
 C1033 C 0.82621 0.39491 0.80866
 C1034 C 0.81059 0.40315 0.81332
 C1035 C 0.80185 0.39677 0.82766
 C1036 C 0.80830 0.38247 0.83652
 C1037 C 0.82357 0.37414 0.83143
 C1038 C 0.83251 0.38074 0.81752
 C1039 C 0.78658 0.40457 0.83305
 C1040 C 0.77958 0.41846 0.82442
 C1041 C 0.78753 0.42513 0.80984
 C1042 C 0.80331 0.41735 0.80419
 C1043 C 0.81110 0.42385 0.78944
 C1044 C 0.80367 0.43726 0.78037
 C1045 C 0.78826 0.44488 0.78561
 C1046 C 0.78006 0.43911 0.80054
 C1047 C 0.76460 0.44751 0.80543
 C1048 C 0.75739 0.46058 0.79563
 C1049 C 0.76527 0.46590 0.78063
 C1050 C 0.78088 0.45813 0.77582
 H1051 H 0.83395 0.39899 0.79819
 H1052 H 0.80121 0.37777 0.84731
 H1053 H 0.84445 0.37488 0.81321
 H1054 H 0.77987 0.39981 0.84404
 H1055 H 0.76769 0.42350 0.82947
 H1056 H 0.82291 0.41870 0.78432
 H1057 H 0.81005 0.44163 0.76902
 H1058 H 0.75761 0.44433 0.81670
 H1059 H 0.74541 0.46644 0.79981
 H1060 H 0.78716 0.46220 0.76430
 C1061 C 0.80243 -0.10219 0.33398
 C1062 C 0.80760 -0.09439 0.31872
 C1063 C 0.82267 -0.10099 0.31075
 C1064 C 0.83183 -0.11502 0.31770
 C1065 C 0.82621 -0.12281 0.33261
 C1066 C 0.81153 -0.11607 0.34070
 C1067 C 0.82844 -0.09368 0.29577
 C1068 C 0.81951 -0.08010 0.28834
 C1069 C 0.80428 -0.07322 0.29559
 C1070 C 0.79826 -0.08044 0.31108
 C1071 C 0.78299 -0.07361 0.31830
 C1072 C 0.77379 -0.06038 0.31062
 C1073 C 0.77935 -0.05330 0.29547
 C1074 C 0.79474 -0.05948 0.28777
 C1075 C 0.79984 -0.05168 0.27247
 C1076 C 0.78996 -0.03862 0.26511
 C1077 C 0.77463 -0.03275 0.27262
 C1078 C 0.76947 -0.04010 0.28791
 H1079 H 0.79135 -0.09800 0.34110
 H1080 H 0.84319 -0.12002 0.31132
 H1081 H 0.80687 -0.12161 0.35234
 H1082 H 0.83997 -0.09858 0.28963
 H1083 H 0.82492 -0.07538 0.27676
 H1084 H 0.77761 -0.07827 0.32992
 H1085 H 0.76209 -0.05569 0.31662
 H1086 H 0.81135 -0.05534 0.26576
 H1087 H 0.79437 -0.03318 0.25332
 H1088 H 0.75768 -0.03564 0.29390
 C1089 C 0.33182 0.60303 0.69514
 C1090 C 0.31729 0.59470 0.68797
 C1091 C 0.31045 0.60115 0.67242
 C1092 C 0.31787 0.61530 0.66458
 C1093 C 0.33217 0.62346 0.67193
 C1094 C 0.33906 0.61711 0.68724
 C1095 C 0.29618 0.59352 0.66474
 C1096 C 0.28832 0.57968 0.67218
 C1097 C 0.29444 0.57281 0.68774
 C1098 C 0.30927 0.58035 0.69570
 C1099 C 0.31553 0.57331 0.71114
 C1100 C 0.30754 0.55959 0.71867
 C1101 C 0.29297 0.55226 0.71123
 C1102 C 0.28620 0.55869 0.69564
 C1103 C 0.27133 0.55074 0.68872
 C1104 C 0.26356 0.53722 0.69701
 C1105 C 0.27025 0.53102 0.71246
 C1106 C 0.28506 0.53857 0.71943
 H1107 H 0.33792 0.59911 0.70689
 H1108 H 0.31236 0.62002 0.65273
 H1109 H 0.35011 0.62308 0.69327
 H1110 H 0.29094 0.59835 0.65282
 H1111 H 0.27737 0.57469 0.66531
 H1112 H 0.32667 0.57812 0.71784
 H1113 H 0.31281 0.55470 0.73056
 H1114 H 0.26523 0.55468 0.67698
 H1115 H 0.25214 0.53165 0.69128
 H1116 H 0.29039 0.53392 0.73139
 C1117 C 0.33527 1.12091 0.19880
 C1118 C 0.32092 1.11244 0.19145
 C1119 C 0.31474 1.11829 0.17542
 C1120 C 0.32259 1.13202 0.16730
 C1121 C 0.33674 1.14039 0.17481
 C1122 C 0.34297 1.13456 0.19064
 C1123 C 0.30068 1.11049 0.16753
 C1124 C 0.29241 1.09704 0.17521
 C1125 C 0.29789 1.09076 0.19123
 C1126 C 0.31247 1.09851 0.19944
 C1127 C 0.31806 1.09210 0.21538
 C1128 C 0.30968 1.07876 0.22313
 C1129 C 0.29536 1.07123 0.21543
 C1130 C 0.28924 1.07703 0.19935
 C1131 C 0.27461 1.06887 0.19219
 C1132 C 0.26646 1.05570 0.20069
 C1133 C 0.27254 1.05013 0.21660
 C1134 C 0.28709 1.05793 0.22383
 H1135 H 0.34089 1.11741 0.21091
 H1136 H 0.31750 1.13620 0.15507
 H1137 H 0.35386 1.14058 0.19691
 H1138 H 0.29593 1.11487 0.15525
 H1139 H 0.28168 1.09186 0.16815
 H1140 H 0.32895 1.09711 0.22232
 H1141 H 0.31444 1.07434 0.23540
 H1142 H 0.26900 1.07234 0.18007
 H1143 H 0.25526 1.04991 0.19476
 H1144 H 0.29194 1.05374 0.23615
 C1145 C 0.83332 0.61534 0.20464
 C1146 C 0.81877 0.60755 0.19690
 C1147 C 0.81309 0.61388 0.18089
 C1148 C 0.82159 0.62745 0.17317
 C1149 C 0.83588 0.63520 0.18110
 C1150 C 0.84164 0.62885 0.19688
 C1151 C 0.79887 0.60672 0.17264
 C1152 C 0.78994 0.59349 0.17995
 C1153 C 0.79489 0.58679 0.19596
 C1154 C 0.80963 0.59385 0.20452
 C1155 C 0.81470 0.58703 0.22044
 C1156 C 0.80567 0.57392 0.22784
 C1157 C 0.79121 0.56705 0.21978
 C1158 C 0.78556 0.57329 0.20372
 C1159 C 0.77073 0.56577 0.19622
 C1160 C 0.76199 0.55273 0.20438
 C1161 C 0.76768 0.54670 0.22025
 C1162 C 0.78235 0.55394 0.22783
 H1163 H 0.83862 0.61143 0.21675
 H1164 H 0.81687 0.63203 0.16095
 H1165 H 0.85263 0.63439 0.20345
 H1166 H 0.79452 0.61147 0.16036
 H1167 H 0.77914 0.58881 0.17264
 H1168 H 0.82565 0.59152 0.22764
 H1169 H 0.81005 0.56916 0.24011
 H1170 H 0.76543 0.56965 0.18409
 H1171 H 0.75069 0.54739 0.19820
 H1172 H 0.78691 0.54939 0.24012
 C1173 C 0.83419 1.10271 0.69642
 C1174 C 0.81973 1.09390 0.68992
 C1175 C 0.81178 1.10020 0.67480
 C1176 C 0.81826 1.11472 0.66662
 C1177 C 0.83265 1.12336 0.67335
 C1178 C 0.84044 1.11704 0.68834
 C1179 C 0.79735 1.09203 0.66798
 C1180 C 0.79051 1.07784 0.67585
 C1181 C 0.79790 1.07109 0.69095
 C1182 C 0.81287 1.07918 0.69800
 C1183 C 0.82050 1.07230 0.71293
 C1184 C 0.81368 1.05825 0.72088
 C1185 C 0.79900 1.05038 0.71438
 C1186 C 0.79086 1.05655 0.69931
 C1187 C 0.77597 1.04791 0.69337
 C1188 C 0.76953 1.03392 0.70213
 C1189 C 0.77762 1.02803 0.71707
 C1190 C 0.79242 1.03634 0.72304
 H1191 H 0.84105 1.09905 0.70784
 H1192 H 0.81197 1.11931 0.65509
 H1193 H 0.85155 1.12317 0.69408
 H1194 H 0.79120 1.09673 0.65642
 H1195 H 0.77934 1.07241 0.66970
 H1196 H 0.83188 1.07741 0.71892
 H1197 H 0.81999 1.05352 0.73235
 H1198 H 0.76891 1.05164 0.68208
 H1199 H 0.75805 1.02776 0.69720
 H1200 H 0.79885 1.03192 0.73456
 C1201 C 0.67963 0.60425 0.33511
 C1202 C 0.67648 0.59954 0.31791
 C1203 C 0.66293 0.60820 0.30909
 C1204 C 0.65359 0.62154 0.31704
 C1205 C 0.65749 0.62653 0.33384
 C1206 C 0.67036 0.61751 0.34283
 C1207 C 0.65893 0.60372 0.29228
 C1208 C 0.66821 0.59097 0.28387
 C1209 C 0.68213 0.58224 0.29190
 C1210 C 0.68640 0.58669 0.30917
 C1211 C 0.70070 0.57844 0.31702
 C1212 C 0.71052 0.56632 0.30838
 C1213 C 0.70649 0.56175 0.29163
 C1214 C 0.69213 0.56944 0.28315
 C1215 C 0.68850 0.56397 0.26623
 C1216 C 0.69887 0.55170 0.25813
 C1217 C 0.71321 0.54446 0.26651
 C1218 C 0.71687 0.54953 0.28331
 H1219 H 0.68919 0.59803 0.34305
 H1220 H 0.64356 0.62829 0.30996
 H1221 H 0.67349 0.62081 0.35593
 H1222 H 0.64855 0.61024 0.28548
 H1223 H 0.66430 0.58850 0.27088
 H1224 H 0.70496 0.58126 0.32983
 H1225 H 0.72148 0.56048 0.31491
 H1226 H 0.67772 0.56881 0.25887
 H1227 H 0.69566 0.54796 0.24516
 H1228 H 0.72783 0.54389 0.29001
 C1229 C 0.70258 1.08832 0.83426
 C1230 C 0.69667 1.08034 0.81903
 C1231 C 0.68082 1.08627 0.81194
 C1232 C 0.67165 1.09981 0.81957
 C1233 C 0.67794 1.10799 0.83436
 C1234 C 0.69339 1.10185 0.84173
 C1235 C 0.67421 1.07885 0.79708
 C1236 C 0.68318 1.06589 0.78874
 C1237 C 0.69928 1.05980 0.79491
 C1238 C 0.70602 1.06694 0.81047
 C1239 C 0.72198 1.06063 0.81680
 C1240 C 0.73127 1.04813 0.80809
 C1241 C 0.72511 1.04137 0.79273
 C1242 C 0.70897 1.04693 0.78595
 C1243 C 0.70339 1.03952 0.77031
 C1244 C 0.71354 1.02740 0.76177
 C1245 C 0.72957 1.02221 0.76845
 C1246 C 0.73518 1.02916 0.78404
 H1247 H 0.71437 1.08461 0.84070
 H1248 H 0.65966 1.10414 0.81367
 H1249 H 0.69864 1.10767 0.85322
 H1250 H 0.66200 1.08324 0.79170
 H1251 H 0.67709 1.06102 0.77733
 H1252 H 0.72781 1.06515 0.82847
 H1253 H 0.74355 1.04382 0.81338
 H1254 H 0.69134 1.04287 0.76416
 H1255 H 0.70886 1.02222 0.74976
 H1256 H 0.74754 1.02518 0.78941
 C1257 C 0.19717 0.59574 0.82883
 C1258 C 0.19073 0.58829 0.81355
 C1259 C 0.17499 0.59494 0.80683
 C1260 C 0.16639 0.60858 0.81492
 C1261 C 0.17313 0.61612 0.82985
 C1262 C 0.18852 0.60935 0.83678
 C1263 C 0.16791 0.58809 0.79191
 C1264 C 0.17622 0.57495 0.78322
 C1265 C 0.19212 0.56805 0.78909
 C1266 C 0.19940 0.57468 0.80463
 C1267 C 0.21516 0.56759 0.81063
 C1268 C 0.22369 0.55472 0.80169
 C1269 C 0.21695 0.54836 0.78641
 C1270 C 0.20104 0.55483 0.77988
 C1271 C 0.19486 0.54787 0.76426
 C1272 C 0.20418 0.53524 0.75555
 C1273 C 0.21993 0.52902 0.76203
 C1274 C 0.22618 0.53559 0.77755
 H1275 H 0.20894 0.59151 0.83498
 H1276 H 0.15445 0.61344 0.80933
 H1277 H 0.19414 0.61468 0.84833
 H1278 H 0.15580 0.59305 0.78679
 H1279 H 0.16977 0.57054 0.77181
 H1280 H 0.22140 0.57174 0.82225
 H1281 H 0.23582 0.54977 0.80677
 H1282 H 0.18295 0.55192 0.75827
 H1283 H 0.19900 0.53039 0.74359
 H1284 H 0.23835 0.53087 0.78273
 C1285 C 0.19127 1.11316 0.33114
 C1286 C 0.18648 1.10670 0.31487
 C1287 C 0.17160 1.11393 0.30691
 C1288 C 0.16230 1.12728 0.31481
 C1289 C 0.16747 1.13385 0.33078
 C1290 C 0.18197 1.12643 0.33886
 C1291 C 0.16611 1.10792 0.29101
 C1292 C 0.17512 1.09498 0.28264
 C1293 C 0.19019 1.08750 0.28982
 C1294 C 0.19597 1.09346 0.30622
 C1295 C 0.21115 1.08613 0.31332
 C1296 C 0.22045 1.07354 0.30475
 C1297 C 0.21504 1.06763 0.28880
 C1298 C 0.19979 1.07438 0.28109
 C1299 C 0.19489 1.06772 0.26491
 C1300 C 0.20483 1.05514 0.25678
 C1301 C 0.21998 1.04872 0.26441
 C1302 C 0.22494 1.05501 0.28048
 H1303 H 0.20217 1.10832 0.33832
 H1304 H 0.15107 1.13265 0.30832
 H1305 H 0.18637 1.13095 0.35124
 H1306 H 0.15471 1.11335 0.28488
 H1307 H 0.16994 1.09125 0.27040
 H1308 H 0.21641 1.08993 0.32550
 H1309 H 0.23209 1.06841 0.31070
 H1310 H 0.18348 1.07190 0.25811
 H1311 H 0.20064 1.05049 0.24439
 H1312 H 0.23659 1.05009 0.28657
 C1313 C 0.66436 0.39037 0.69819
 C1314 C 0.67961 0.39849 0.69310
 C1315 C 0.68854 0.39137 0.67895
 C1316 C 0.68237 0.37665 0.67047
 C1317 C 0.66735 0.36867 0.67594
 C1318 C 0.65845 0.37583 0.68979
 C1319 C 0.70366 0.39890 0.67346
 C1320 C 0.71031 0.41316 0.68178
 C1321 C 0.70205 0.42061 0.69607
 C1322 C 0.68632 0.41325 0.70169
 C1323 C 0.67788 0.42083 0.71579
 C1324 C 0.68466 0.43482 0.72435
 C1325 C 0.70010 0.44195 0.71928
 C1326 C 0.70901 0.43508 0.70502
 C1327 C 0.72462 0.44295 0.70048
 C1328 C 0.73108 0.45677 0.70983
 C1329 C 0.72229 0.46334 0.72403
 C1330 C 0.70671 0.45590 0.72857
 H1331 H 0.65667 0.39474 0.70873
 H1332 H 0.68942 0.37129 0.65978
 H1333 H 0.64673 0.37015 0.69436
 H1334 H 0.71054 0.39362 0.66263
 H1335 H 0.72206 0.41803 0.67666
 H1336 H 0.66592 0.41626 0.72070
 H1337 H 0.67774 0.44005 0.73518
 H1338 H 0.73229 0.43869 0.68987
 H1339 H 0.74317 0.46222 0.70597
 H1340 H 0.69974 0.46086 0.73950
 C1341 C 0.69736 -0.10627 0.16651
 C1342 C 0.69103 -0.09721 0.18088
 C1343 C 0.67541 -0.10287 0.18806
 C1344 C 0.66682 -0.11713 0.18125
 C1345 C 0.67345 -0.12610 0.16720
 C1346 C 0.68872 -0.12041 0.15986
 C1347 C 0.66845 -0.09437 0.20209
 C1348 C 0.67667 -0.08044 0.20939
 C1349 C 0.69239 -0.07439 0.20295
 C1350 C 0.69967 -0.08288 0.18842
 C1351 C 0.71544 -0.07687 0.18206
 C1352 C 0.72394 -0.06326 0.18972
 C1353 C 0.71713 -0.05497 0.20396
 C1354 C 0.70118 -0.06028 0.21071
 C1355 C 0.69478 -0.05128 0.22508
 C1356 C 0.70400 -0.03800 0.23258
 C1357 C 0.71992 -0.03303 0.22610
 C1358 C 0.72632 -0.04146 0.21162
 H1359 H 0.70899 -0.10288 0.16007
 H1360 H 0.65498 -0.12130 0.18703
 H1361 H 0.69419 -0.12698 0.14894
 H1362 H 0.65649 -0.09859 0.20760
 H1363 H 0.67034 -0.07481 0.22023
 H1364 H 0.72174 -0.08251 0.17119
 H1365 H 0.73608 -0.05924 0.18445
 H1366 H 0.68272 -0.05417 0.23098
 H1367 H 0.69860 -0.03166 0.24367
 H1368 H 0.73859 -0.03771 0.20644
 C1369 C 0.19156 0.39046 0.16388
 C1370 C 0.18497 0.39816 0.17891
 C1371 C 0.16978 0.39124 0.18577
 C1372 C 0.16171 0.37723 0.17792
 C1373 C 0.16850 0.36959 0.16311
 C1374 C 0.18348 0.37649 0.15620
 C1375 C 0.16269 0.39824 0.20055
 C1376 C 0.17043 0.41187 0.20890
 C1377 C 0.18570 0.41915 0.20278
 C1378 C 0.19298 0.41233 0.18741
 C1379 C 0.20806 0.41984 0.18110
 C1380 C 0.21596 0.43329 0.18960
 C1381 C 0.20925 0.43985 0.20474
 C1382 C 0.19399 0.43298 0.21156
 C1383 C 0.18783 0.44018 0.22701
 C1384 C 0.19657 0.45339 0.23531
 C1385 C 0.21171 0.45998 0.22856
 C1386 C 0.21788 0.45320 0.21316
 H1387 H 0.20302 0.39476 0.15773
 H1388 H 0.15014 0.37221 0.18355
 H1389 H 0.18916 0.37106 0.14479
 H1390 H 0.15102 0.39305 0.20582
 H1391 H 0.16403 0.41637 0.22021
 H1392 H 0.21420 0.41562 0.16955
 H1393 H 0.22757 0.43854 0.18429
 H1394 H 0.17639 0.43585 0.23320
 H1395 H 0.19148 0.45837 0.24718
 H1396 H 0.22959 0.45818 0.20778
 C1397 C 0.19749 -0.11662 0.66883
 C1398 C 0.19075 -0.10893 0.68379
 C1399 C 0.17616 -0.11658 0.69113
 C1400 C 0.16882 -0.13126 0.68378
 C1401 C 0.17575 -0.13884 0.66901
 C1402 C 0.19014 -0.13122 0.66165
 C1403 C 0.16895 -0.10961 0.70586
 C1404 C 0.17597 -0.09530 0.71369
 C1405 C 0.19061 -0.08725 0.70706
 C1406 C 0.19802 -0.09407 0.69175
 C1407 C 0.21250 -0.08586 0.68498
 C1408 C 0.21969 -0.07171 0.69295
 C1409 C 0.21284 -0.06509 0.70800
 C1410 C 0.19815 -0.07266 0.71527
 C1411 C 0.19178 -0.06536 0.73059
 C1412 C 0.19981 -0.05142 0.73836
 C1413 C 0.21443 -0.04414 0.73121
 C1414 C 0.22076 -0.05099 0.71591
 H1415 H 0.20853 -0.11178 0.66233
 H1416 H 0.15769 -0.13682 0.68975
 H1417 H 0.19593 -0.13657 0.65025
 H1418 H 0.15775 -0.11535 0.71151
 H1419 H 0.16953 -0.09088 0.72501
 H1420 H 0.21871 -0.09005 0.67346
 H1421 H 0.23087 -0.06593 0.68729
 H1422 H 0.18072 -0.07016 0.73707
 H1423 H 0.19458 -0.04641 0.75016
 H1424 H 0.23207 -0.04549 0.71022
 C1425 C 0.31900 0.30669 0.40703
 C1426 C 0.30308 0.31257 0.41376
 C1427 C 0.29547 0.32741 0.40646
 C1428 C 0.30336 0.33568 0.39286
 C1429 C 0.31896 0.32950 0.38619
 C1430 C 0.32672 0.31501 0.39352
 C1431 C 0.27993 0.33392 0.41268
 C1432 C 0.27161 0.32601 0.42595
 C1433 C 0.27848 0.31109 0.43358
 C1434 C 0.29446 0.30421 0.42735
 C1435 C 0.30118 0.28912 0.43478
 C1436 C 0.29261 0.28093 0.44771
 C1437 C 0.27706 0.28743 0.45391
 C1438 C 0.26981 0.30267 0.44710
 C1439 C 0.25410 0.30877 0.45411
 C1440 C 0.24592 0.29993 0.46700
 C1441 C 0.25302 0.28473 0.47343
 C1442 C 0.26869 0.27862 0.46687
 H1443 H 0.32589 0.29569 0.41183
 H1444 H 0.29723 0.34693 0.38739
 H1445 H 0.33881 0.30994 0.38873
 H1446 H 0.27407 0.34528 0.40717
 H1447 H 0.25964 0.33191 0.42980
 H1448 H 0.31304 0.28310 0.43078
 H1449 H 0.29823 0.26931 0.45291
 H1450 H 0.24771 0.32033 0.44998
 H1451 H 0.23385 0.30500 0.47187
 H1452 H 0.27439 0.26692 0.47182
 C1453 C 0.30765 0.82517 -0.09976
 C1454 C 0.31327 0.80877 -0.09447
 C1455 C 0.32745 0.80117 -0.10310
 C1456 C 0.33513 0.80950 -0.11685
 C1457 C 0.32891 0.82546 -0.12230
 C1458 C 0.31530 0.83326 -0.11341
 C1459 C 0.33378 0.78521 -0.09811
 C1460 C 0.32627 0.77646 -0.08485
 C1461 C 0.31188 0.78326 -0.07607
 C1462 C 0.30521 0.79966 -0.08104
 C1463 C 0.29050 0.80626 -0.07265
 C1464 C 0.28254 0.79727 -0.05991
 C1465 C 0.28888 0.78137 -0.05485
 C1466 C 0.30372 0.77413 -0.06267
 C1467 C 0.30967 0.75802 -0.05673
 C1468 C 0.30105 0.74949 -0.04386
 C1469 C 0.28623 0.75664 -0.03646
 C1470 C 0.28030 0.77264 -0.04200
 H1471 H 0.29737 0.83221 -0.09370
 H1472 H 0.34575 0.80336 -0.12351
 H1473 H 0.31034 0.84571 -0.11708
 H1474 H 0.34465 0.77935 -0.10461
 H1475 H 0.33194 0.76418 -0.08197
 H1476 H 0.28453 0.81833 -0.07578
 H1477 H 0.27120 0.80284 -0.05396
 H1478 H 0.32096 0.75163 -0.06169
 H1479 H 0.30598 0.73716 -0.03977
 H1480 H 0.26892 0.77839 -0.03629
 C1481 C 0.79217 0.33184 -0.10636
 C1482 C 0.79753 0.31667 -0.09802
 C1483 C 0.81308 0.30872 -0.10353
 C1484 C 0.82262 0.31568 -0.11689
 C1485 C 0.81702 0.33066 -0.12506
 C1486 C 0.80173 0.33863 -0.11958
 C1487 C 0.81905 0.29382 -0.09573
 C1488 C 0.80998 0.28652 -0.08255
 C1489 C 0.79439 0.29384 -0.07658
 C1490 C 0.78804 0.30916 -0.08447
 C1491 C 0.77237 0.31640 -0.07861
 C1492 C 0.76321 0.30903 -0.06556
 C1493 C 0.76920 0.29416 -0.05772
 C1494 C 0.78488 0.28633 -0.06303
 C1495 C 0.79033 0.27128 -0.05450
 C1496 C 0.78058 0.26438 -0.04145
 C1497 C 0.76506 0.27215 -0.03634
 C1498 C 0.75949 0.28709 -0.04456
 H1499 H 0.78064 0.33887 -0.10304
 H1500 H 0.83443 0.30936 -0.12094
 H1501 H 0.79702 0.35023 -0.12555
 H1502 H 0.83092 0.28767 -0.09987
 H1503 H 0.81559 0.27502 -0.07736
 H1504 H 0.76669 0.32783 -0.08387
 H1505 H 0.75123 0.31507 -0.06156
 H1506 H 0.80206 0.26445 -0.05755
 H1507 H 0.78526 0.25283 -0.03534
 H1508 H 0.74752 0.29327 -0.04073
 C1509 C 0.80266 0.82800 0.39349
 C1510 C 0.80940 0.81236 0.39986
 C1511 C 0.82498 0.80600 0.39276
 C1512 C 0.83331 0.81498 0.37991
 C1513 C 0.82637 0.83037 0.37370
 C1514 C 0.81101 0.83677 0.38066
 C1515 C 0.83220 0.79066 0.39844
 C1516 C 0.82430 0.78131 0.41099
 C1517 C 0.80873 0.78697 0.41848
 C1518 C 0.80122 0.80283 0.41291
 C1519 C 0.78582 0.80865 0.42061
 C1520 C 0.77799 0.79939 0.43325
 C1521 C 0.78506 0.78392 0.43874
 C1522 C 0.80046 0.77737 0.43143
 C1523 C 0.80687 0.76145 0.43745
 C1524 C 0.79849 0.75272 0.45032
 C1525 C 0.78345 0.75946 0.45762
 C1526 C 0.77677 0.77503 0.45165
 H1527 H 0.79090 0.83383 0.39800
 H1528 H 0.84517 0.80983 0.37463
 H1529 H 0.80532 0.84863 0.37615
 H1530 H 0.84414 0.78577 0.39307
 H1531 H 0.83085 0.76966 0.41459
 H1532 H 0.77942 0.82044 0.41724
 H1533 H 0.76622 0.80444 0.43882
 H1534 H 0.81833 0.75534 0.43256
 H1535 H 0.80390 0.74066 0.45464
 H1536 H 0.76508 0.78037 0.45714
 C1537 C 0.66440 0.30304 0.60714
 C1538 C 0.68111 0.30629 0.60102
 C1539 C 0.69086 0.31904 0.60959
 C1540 C 0.68420 0.32767 0.62402
 C1541 C 0.66785 0.32371 0.63026
 C1542 C 0.65802 0.31152 0.62146
 C1543 C 0.70729 0.32293 0.60387
 C1544 C 0.71443 0.31433 0.58998
 C1545 C 0.70543 0.30128 0.58121
 C1546 C 0.68848 0.29721 0.58684
 C1547 C 0.67955 0.28397 0.57829
 C1548 C 0.68688 0.27493 0.56486
 C1549 C 0.70336 0.27867 0.55924
 C1550 C 0.71286 0.29199 0.56716
 C1551 C 0.72945 0.29531 0.56068
 C1552 C 0.73628 0.28566 0.54721
 C1553 C 0.72691 0.27234 0.53966
 C1554 C 0.71039 0.26900 0.54574
 H1555 H 0.65584 0.29396 0.60128
 H1556 H 0.69193 0.33713 0.63064
 H1557 H 0.64522 0.30835 0.62570
 H1558 H 0.71482 0.33268 0.61028
 H1559 H 0.72722 0.31813 0.58657
 H1560 H 0.66685 0.28002 0.58177
 H1561 H 0.67954 0.26481 0.55884
 H1562 H 0.73755 0.30527 0.56570
 H1563 H 0.74907 0.28861 0.54278
 H1564 H 0.70294 0.25881 0.53997
 C1565 C 0.67328 0.80207 1.10648
 C1566 C 0.68782 0.80874 1.09815
 C1567 C 0.69386 0.82487 1.10375
 C1568 C 0.68587 0.83363 1.11724
 C1569 C 0.67171 0.82670 1.12555
 C1570 C 0.66542 0.81093 1.11992
 C1571 C 0.70798 0.83221 1.09599
 C1572 C 0.71652 0.82384 1.08288
 C1573 C 0.71131 0.80762 1.07694
 C1574 C 0.69665 0.79996 1.08462
 C1575 C 0.69144 0.78375 1.07864
 C1576 C 0.70031 0.77517 1.06582
 C1577 C 0.71470 0.78235 1.05836
 C1578 C 0.72037 0.79871 1.06368
 C1579 C 0.73502 0.80539 1.05557
 C1580 C 0.74370 0.79610 1.04300
 C1581 C 0.73816 0.77987 1.03797
 C1582 C 0.72354 0.77312 1.04564
 H1583 H 0.66766 0.79001 1.10305
 H1584 H 0.69084 0.84589 1.12134
 H1585 H 0.65446 0.80526 1.12604
 H1586 H 0.71257 0.84459 1.10019
 H1587 H 0.72730 0.83051 1.07775
 H1588 H 0.68056 0.77717 1.08369
 H1589 H 0.69588 0.76269 1.06175
 H1590 H 0.74026 0.81771 1.05863
 H1591 H 0.75493 0.80168 1.03728
 H1592 H 0.71908 0.76058 1.04182
 C1593 C 0.16627 0.30318 1.09707
 C1594 C 0.18243 0.30796 1.09052
 C1595 C 0.19098 0.32180 1.09859
 C1596 C 0.18351 0.33039 1.11255
 C1597 C 0.16758 0.32530 1.11896
 C1598 C 0.15907 0.31168 1.11101
 C1599 C 0.20705 0.32687 1.09283
 C1600 C 0.21509 0.31830 1.07946
 C1601 C 0.20727 0.30429 1.07112
 C1602 C 0.19047 0.29931 1.07648
 C1603 C 0.18228 0.28582 1.06766
 C1604 C 0.19036 0.27708 1.05451
 C1605 C 0.20692 0.28133 1.04955
 C1606 C 0.21567 0.29503 1.05763
 C1607 C 0.23254 0.29865 1.05197
 C1608 C 0.24029 0.28894 1.03902
 C1609 C 0.23157 0.27532 1.03129
 C1610 C 0.21481 0.27174 1.03657
 H1611 H 0.15889 0.29273 1.09198
 H1612 H 0.19029 0.34088 1.11860
 H1613 H 0.14676 0.30740 1.11562
 H1614 H 0.21362 0.33750 1.09888
 H1615 H 0.22750 0.32306 1.07593
 H1616 H 0.16948 0.28165 1.07053
 H1617 H 0.18357 0.26673 1.04822
 H1618 H 0.24022 0.30871 1.05740
 H1619 H 0.25326 0.29199 1.03520
 H1620 H 0.20786 0.26128 1.03066
 C1621 C 0.17752 0.79333 0.60434
 C1622 C 0.19201 0.80040 0.59630
 C1623 C 0.19858 0.81586 0.60316
 C1624 C 0.19097 0.82368 0.61748
 C1625 C 0.17671 0.81641 0.62534
 C1626 C 0.17008 0.80121 0.61855
 C1627 C 0.21278 0.82345 0.59578
 C1628 C 0.22080 0.81603 0.58178
 C1629 C 0.21495 0.80056 0.57450
 C1630 C 0.20025 0.79266 0.58182
 C1631 C 0.19434 0.77723 0.57449
 C1632 C 0.20255 0.76965 0.56068
 C1633 C 0.21698 0.77705 0.55352
 C1634 C 0.22337 0.79266 0.56022
 C1635 C 0.23803 0.79959 0.55236
 C1636 C 0.24605 0.79124 0.53873
 C1637 C 0.23980 0.77573 0.53234
 C1638 C 0.22514 0.76878 0.53975
 H1639 H 0.17159 0.78169 0.60008
 H1640 H 0.19626 0.83545 0.62254
 H1641 H 0.15907 0.79524 0.62428
 H1642 H 0.21782 0.83529 0.60093
 H1643 H 0.23169 0.82281 0.57701
 H1644 H 0.18335 0.77054 0.57916
 H1645 H 0.19757 0.75776 0.55558
 H1646 H 0.24378 0.81139 0.55643
 H1647 H 0.25733 0.79697 0.53326
 H1648 H 0.22014 0.75679 0.53491
 C1649 C 0.30958 0.66532 0.60347
 C1650 C 0.31632 0.68002 0.59566
 C1651 C 0.33120 0.68737 0.60322
 C1652 C 0.33877 0.68033 0.61799
 C1653 C 0.33179 0.66591 0.62567
 C1654 C 0.31720 0.65846 0.61817
 C1655 C 0.33845 0.70182 0.59614
 C1656 C 0.33114 0.70941 0.58180
 C1657 C 0.31616 0.70284 0.57388
 C1658 C 0.30873 0.68777 0.58080
 C1659 C 0.29390 0.68105 0.57271
 C1660 C 0.28633 0.68890 0.55865
 C1661 C 0.29315 0.70376 0.55200
 C1662 C 0.30823 0.71092 0.55936
 C1663 C 0.31455 0.72603 0.55198
 C1664 C 0.30602 0.73378 0.53822
 C1665 C 0.29095 0.72679 0.53125
 C1666 C 0.28474 0.71162 0.53811
 H1667 H 0.29836 0.65883 0.59868
 H1668 H 0.35009 0.68625 0.62357
 H1669 H 0.31149 0.64730 0.62374
 H1670 H 0.34988 0.70744 0.60182
 H1671 H 0.33761 0.72054 0.57730
 H1672 H 0.28767 0.66968 0.57697
 H1673 H 0.27485 0.68332 0.55301
 H1674 H 0.32594 0.73237 0.55660
 H1675 H 0.31116 0.74547 0.53319
 H1676 H 0.27310 0.70603 0.53283
 C1677 C 0.34017 0.19906 1.10319
 C1678 C 0.32419 0.19339 1.09644
 C1679 C 0.31541 0.18068 1.10557
 C1680 C 0.32252 0.17396 1.12071
 C1681 C 0.33824 0.17993 1.12729
 C1682 C 0.34698 0.19246 1.11832
 C1683 C 0.29946 0.17489 1.09972
 C1684 C 0.29169 0.18177 1.08523
 C1685 C 0.29972 0.19467 1.07582
 C1686 C 0.31649 0.20018 1.08123
 C1687 C 0.32498 0.21234 1.07129
 C1688 C 0.31712 0.21952 1.05707
 C1689 C 0.30049 0.21493 1.05213
 C1690 C 0.29154 0.20234 1.06124
 C1691 C 0.27463 0.19829 1.05551
 C1692 C 0.26698 0.20667 1.04161
 C1693 C 0.27586 0.21932 1.03295
 C1694 C 0.29272 0.22316 1.03817
 H1695 H 0.34764 0.20885 1.09736
 H1696 H 0.31555 0.16433 1.12756
 H1697 H 0.35916 0.19734 1.12304
 H1698 H 0.29274 0.16509 1.10657
 H1699 H 0.27933 0.17662 1.08172
 H1700 H 0.33784 0.21663 1.07408
 H1701 H 0.32410 0.22896 1.04997
 H1702 H 0.26680 0.18898 1.06166
 H1703 H 0.25393 0.20344 1.03785
 H1704 H 0.29981 0.23285 1.03152
 C1705 C 0.81871 0.67212 1.11076
 C1706 C 0.82295 0.68832 1.10428
 C1707 C 0.83572 0.69779 1.11322
 C1708 C 0.84346 0.69136 1.12823
 C1709 C 0.83861 0.67552 1.13471
 C1710 C 0.82635 0.66596 1.12567
 C1711 C 0.84051 0.71374 1.10728
 C1712 C 0.83275 0.72071 1.09282
 C1713 C 0.81971 0.71199 1.08366
 C1714 C 0.81481 0.69547 1.08944
 C1715 C 0.80171 0.68675 1.08037
 C1716 C 0.79342 0.69397 1.06640
 C1717 C 0.79783 0.71010 1.06076
 C1718 C 0.81117 0.71932 1.06907
 C1719 C 0.81519 0.73557 1.06248
 C1720 C 0.80604 0.74240 1.04859
 C1721 C 0.79259 0.73335 1.04079
 C1722 C 0.78873 0.71711 1.04687
 H1723 H 0.80943 0.66384 1.10478
 H1724 H 0.85298 0.69888 1.13505
 H1725 H 0.82246 0.65357 1.13016
 H1726 H 0.85030 0.72103 1.11399
 H1727 H 0.83717 0.73313 1.08928
 H1728 H 0.79730 0.67430 1.08381
 H1729 H 0.78331 0.68683 1.06001
 H1730 H 0.82525 0.74342 1.06777
 H1731 H 0.80937 0.75497 1.04412
 H1732 H 0.77845 0.70988 1.04085
 C1733 C 0.83423 0.18760 0.60565
 C1734 C 0.81785 0.18332 0.59888
 C1735 C 0.80885 0.16996 0.60687
 C1736 C 0.81592 0.16167 0.62129
 C1737 C 0.83194 0.16654 0.62811
 C1738 C 0.84103 0.17941 0.61995
 C1739 C 0.79274 0.16510 0.60058
 C1740 C 0.78514 0.17336 0.58673
 C1741 C 0.79335 0.18699 0.57854
 C1742 C 0.81004 0.19197 0.58465
 C1743 C 0.81826 0.20562 0.57651
 C1744 C 0.81042 0.21433 0.56313
 C1745 C 0.79410 0.20983 0.55717
 C1746 C 0.78536 0.19599 0.56460
 C1747 C 0.76889 0.19192 0.55782
 C1748 C 0.76139 0.20144 0.54462
 C1749 C 0.76995 0.21533 0.53763
 C1750 C 0.78642 0.21931 0.54389
 H1751 H 0.84219 0.19732 0.60035
 H1752 H 0.80875 0.15169 0.62741
 H1753 H 0.85355 0.18336 0.62470
 H1754 H 0.78581 0.15486 0.60654
 H1755 H 0.77263 0.16882 0.58288
 H1756 H 0.83080 0.21013 0.58026
 H1757 H 0.81720 0.22483 0.55746
 H1758 H 0.76134 0.18154 0.56245
 H1759 H 0.74867 0.19797 0.54002
 H1760 H 0.79325 0.22996 0.53855
 C1761 C 0.65933 0.69285 0.40005
 C1762 C 0.67407 0.68499 0.40766
 C1763 C 0.67936 0.66881 0.40119
 C1764 C 0.67048 0.66116 0.38752
 C1765 C 0.65638 0.66945 0.37970
 C1766 C 0.65072 0.68519 0.38631
 C1767 C 0.69375 0.66043 0.40809
 C1768 C 0.70359 0.66806 0.42082
 C1769 C 0.69938 0.68448 0.42724
 C1770 C 0.68399 0.69279 0.42104
 C1771 C 0.67918 0.70870 0.42829
 C1772 C 0.68938 0.71659 0.44061
 C1773 C 0.70485 0.70909 0.44610
 C1774 C 0.71010 0.69290 0.43957
 C1775 C 0.72611 0.68607 0.44537
 C1776 C 0.73637 0.69495 0.45706
 C1777 C 0.73111 0.71092 0.46342
 C1778 C 0.71524 0.71785 0.45796
 H1779 H 0.65436 0.70513 0.40405
 H1780 H 0.67496 0.64890 0.38264
 H1781 H 0.63981 0.69189 0.38059
 H1782 H 0.69767 0.64793 0.40337
 H1783 H 0.71447 0.66064 0.42538
 H1784 H 0.66752 0.71548 0.42476
 H1785 H 0.68523 0.72887 0.44569
 H1786 H 0.73134 0.67405 0.44091
 H1787 H 0.74859 0.68929 0.46102
 H1788 H 0.71103 0.73023 0.46277
 C1789 C 0.69628 0.15543 -0.10081
 C1790 C 0.68912 0.17097 -0.09455
 C1791 C 0.67415 0.17751 -0.10294
 C1792 C 0.66688 0.16884 -0.11702
 C1793 C 0.67432 0.15360 -0.12318
 C1794 C 0.68900 0.14699 -0.11482
 C1795 C 0.66656 0.19276 -0.09736
 C1796 C 0.67361 0.20191 -0.08379
 C1797 C 0.68866 0.19616 -0.07514
 C1798 C 0.69641 0.18029 -0.08045
 C1799 C 0.71125 0.17434 -0.07157
 C1800 C 0.71851 0.18366 -0.05825
 C1801 C 0.71139 0.19929 -0.05317
 C1802 C 0.69631 0.20577 -0.06142
 C1803 C 0.68969 0.22174 -0.05567
 C1804 C 0.69785 0.23086 -0.04257
 C1805 C 0.71287 0.22446 -0.03465
 C1806 C 0.71946 0.20855 -0.03995
 H1807 H 0.70760 0.14945 -0.09533
 H1808 H 0.65550 0.17412 -0.12331
 H1809 H 0.69508 0.13523 -0.11917
 H1810 H 0.65506 0.19778 -0.10365
 H1811 H 0.66687 0.21355 -0.08044
 H1812 H 0.71769 0.16246 -0.07457
 H1813 H 0.72997 0.17859 -0.05193
 H1814 H 0.67834 0.22772 -0.06111
 H1815 H 0.69242 0.24310 -0.03875
 H1816 H 0.73106 0.20343 -0.03393
 C1817 C 0.17136 0.68341 -0.10509
 C1818 C 0.18697 0.67729 -0.09761
 C1819 C 0.19449 0.66225 -0.10467
 C1820 C 0.18674 0.65395 -0.11868
 C1821 C 0.17145 0.66036 -0.12609
 C1822 C 0.16381 0.67508 -0.11905
 C1823 C 0.20982 0.65560 -0.09785
 C1824 C 0.21809 0.66363 -0.08427
 C1825 C 0.21135 0.67877 -0.07687
 C1826 C 0.19543 0.68563 -0.08354
 C1827 C 0.18857 0.70067 -0.07602
 C1828 C 0.19704 0.70891 -0.06269
 C1829 C 0.21266 0.70258 -0.05625
 C1830 C 0.22005 0.68738 -0.06311
 C1831 C 0.23594 0.68158 -0.05595
 C1832 C 0.24413 0.69065 -0.04281
 C1833 C 0.23683 0.70576 -0.03629
 C1834 C 0.22099 0.71155 -0.04302
 H1835 H 0.16464 0.69468 -0.10063
 H1836 H 0.19282 0.64255 -0.12394
 H1837 H 0.15197 0.68034 -0.12443
 H1838 H 0.21558 0.64406 -0.10316
 H1839 H 0.22988 0.65758 -0.07993
 H1840 H 0.17663 0.70654 -0.08015
 H1841 H 0.19130 0.72049 -0.05743
 H1842 H 0.24253 0.67017 -0.06024
 H1843 H 0.25635 0.68584 -0.03785
 H1844 H 0.21514 0.72320 -0.03806
 C1845 C 0.18284 0.17318 0.40107
 C1846 C 0.17655 0.18878 0.40803
 C1847 C 0.16278 0.19715 0.39927
 C1848 C 0.15584 0.19016 0.38414
 C1849 C 0.16252 0.17488 0.37728
 C1850 C 0.17595 0.16645 0.38602
 C1851 C 0.15613 0.21258 0.40551
 C1852 C 0.16309 0.22019 0.42005
 C1853 C 0.17706 0.21260 0.42906
 C1854 C 0.18368 0.19646 0.42312
 C1855 C 0.19734 0.18863 0.43236
 C1856 C 0.20473 0.19647 0.44648
 C1857 C 0.19885 0.21240 0.45209
 C1858 C 0.18481 0.22068 0.44368
 C1859 C 0.17938 0.23683 0.45014
 C1860 C 0.18786 0.24447 0.46401
 C1861 C 0.20198 0.23633 0.47192
 C1862 C 0.20721 0.22018 0.46599
 H1863 H 0.19324 0.16587 0.40674
 H1864 H 0.14543 0.19684 0.37754
 H1865 H 0.18137 0.15457 0.38114
 H1866 H 0.14553 0.21900 0.39894
 H1867 H 0.15721 0.23214 0.42385
 H1868 H 0.20280 0.17636 0.42900
 H1869 H 0.21535 0.19003 0.45300
 H1870 H 0.16880 0.24405 0.44468
 H1871 H 0.18350 0.25696 0.46835
 H1872 H 0.21805 0.21367 0.47208
 C1873 C 0.33777 0.38784 0.69336
 C1874 C 0.32296 0.39596 0.68615
 C1875 C 0.31618 0.38902 0.67076
 C1876 C 0.32373 0.37446 0.66325
 C1877 C 0.33807 0.36632 0.67080
 C1878 C 0.34513 0.37330 0.68579
 C1879 C 0.30173 0.39646 0.66298
 C1880 C 0.29345 0.41045 0.67031
 C1881 C 0.29929 0.41762 0.68588
 C1882 C 0.31449 0.41047 0.69378
 C1883 C 0.32058 0.41794 0.70912
 C1884 C 0.31192 0.43156 0.71676
 C1885 C 0.29685 0.43833 0.70951
 C1886 C 0.29034 0.43159 0.69391
 C1887 C 0.27493 0.43897 0.68719
 C1888 C 0.26633 0.45218 0.69575
 C1889 C 0.27272 0.45860 0.71126
 C1890 C 0.28811 0.45171 0.71796
 H1891 H 0.34389 0.39221 0.70495
 H1892 H 0.31818 0.36932 0.65157
 H1893 H 0.35624 0.36734 0.69192
 H1894 H 0.29661 0.39129 0.65112
 H1895 H 0.28238 0.41527 0.66338
 H1896 H 0.33203 0.41351 0.71570
 H1897 H 0.31702 0.43675 0.72862
 H1898 H 0.26896 0.43473 0.67547
 H1899 H 0.25447 0.45727 0.69023
 H1900 H 0.29321 0.45657 0.72996
 C1901 C 0.29936 0.90536 0.15765
 C1902 C 0.30583 0.91417 0.17217
 C1903 C 0.32141 0.90796 0.17966
 C1904 C 0.32991 0.89350 0.17290
 C1905 C 0.32316 0.88479 0.15868
 C1906 C 0.30788 0.89096 0.15109
 C1907 C 0.32841 0.91606 0.19397
 C1908 C 0.32015 0.93006 0.20134
 C1909 C 0.30444 0.93662 0.19465
 C1910 C 0.29730 0.92873 0.17965
 C1911 C 0.28182 0.93557 0.17270
 C1912 C 0.27334 0.94930 0.18031
 C1913 C 0.27984 0.95682 0.19516
 C1914 C 0.29554 0.95073 0.20253
 C1915 C 0.30147 0.95891 0.21764
 C1916 C 0.29206 0.97225 0.22516
 C1917 C 0.27646 0.97801 0.21792
 C1918 C 0.27055 0.97032 0.20279
 H1919 H 0.28763 0.90906 0.15110
 H1920 H 0.34174 0.88892 0.17892
 H1921 H 0.30233 0.88456 0.14007
 H1922 H 0.34038 0.91143 0.19967
 H1923 H 0.32650 0.93542 0.21238
 H1924 H 0.27579 0.93058 0.16131
 H1925 H 0.26141 0.95398 0.17457
 H1926 H 0.31322 0.95523 0.22417
 H1927 H 0.29699 0.97797 0.23683
 H1928 H 0.25849 0.97466 0.19703
 C1929 C 0.79612 0.40217 0.16110
 C1930 C 0.80252 0.41151 0.17534
 C1931 C 0.81838 0.40593 0.18273
 C1932 C 0.82720 0.39159 0.17620
 C1933 C 0.82051 0.38230 0.16232
 C1934 C 0.80498 0.38785 0.15477
 C1935 C 0.82534 0.41453 0.19677
 C1936 C 0.81673 0.42836 0.20403
 C1937 C 0.80069 0.43425 0.19750
 C1938 C 0.79365 0.42594 0.18266
 C1939 C 0.77795 0.43227 0.17574
 C1940 C 0.76914 0.44586 0.18326
 C1941 C 0.77549 0.45368 0.19802
 C1942 C 0.79138 0.44810 0.20535
 C1943 C 0.79710 0.45647 0.22045
 C1944 C 0.78734 0.46957 0.22794
 C1945 C 0.77159 0.47489 0.22068
 C1946 C 0.76586 0.46697 0.20560
 H1947 H 0.78418 0.40537 0.15467
 H1948 H 0.83924 0.38752 0.18217
 H1949 H 0.79947 0.38097 0.14402
 H1950 H 0.83755 0.41040 0.20236
 H1951 H 0.82309 0.43417 0.21484
 H1952 H 0.77202 0.42700 0.16442
 H1953 H 0.75706 0.45016 0.17753
 H1954 H 0.80890 0.45308 0.22703
 H1955 H 0.79211 0.47544 0.23959
 H1956 H 0.75367 0.47095 0.19985
 C1957 C 0.82297 0.89761 0.64971
 C1958 C 0.82671 0.90293 0.66663
 C1959 C 0.84104 0.89510 0.67503
 C1960 C 0.85051 0.88191 0.66704
 C1961 C 0.84601 0.87622 0.65061
 C1962 C 0.83240 0.88448 0.64195
 C1963 C 0.84566 0.90023 0.69148
 C1964 C 0.83625 0.91280 0.70000
 C1965 C 0.82155 0.92065 0.69245
 C1966 C 0.81663 0.91554 0.67552
 C1967 C 0.80154 0.92286 0.66821
 C1968 C 0.79152 0.93464 0.67709
 C1969 C 0.79614 0.93980 0.69353
 C1970 C 0.81135 0.93314 0.70139
 C1971 C 0.81561 0.93925 0.71795
 C1972 C 0.80498 0.95103 0.72637
 C1973 C 0.78974 0.95715 0.71868
 C1974 C 0.78548 0.95155 0.70218
 H1975 H 0.81281 0.90324 0.64206
 H1976 H 0.86114 0.87578 0.67384
 H1977 H 0.82878 0.88064 0.62912
 H1978 H 0.85665 0.89436 0.69795
 H1979 H 0.84067 0.91578 0.71272
 H1980 H 0.79679 0.91948 0.65571
 H1981 H 0.77993 0.93973 0.67101
 H1982 H 0.82708 0.93527 0.72478
 H1983 H 0.80867 0.95524 0.73907
 H1984 H 0.77382 0.95637 0.69601
 C1985 C 0.69638 0.60969 0.66697
 C1986 C 0.68936 0.60087 0.68088
 C1987 C 0.67325 0.60679 0.68720
 C1988 C 0.66490 0.62117 0.68013
 C1989 C 0.67223 0.62989 0.66655
 C1990 C 0.68796 0.62388 0.66001
 C1991 C 0.66553 0.59838 0.70062
 C1992 C 0.67341 0.58422 0.70802
 C1993 C 0.68955 0.57790 0.70238
 C1994 C 0.69777 0.58648 0.68872
 C1995 C 0.71424 0.58059 0.68355
 C1996 C 0.72246 0.56688 0.69147
 C1997 C 0.71461 0.55832 0.70472
 C1998 C 0.69793 0.56350 0.71020
 C1999 C 0.69039 0.55406 0.72340
 C2000 C 0.69932 0.54065 0.73121
 C2001 C 0.71603 0.53598 0.72617
 C2002 C 0.72349 0.54471 0.71268
 H2003 H 0.70833 0.60596 0.66105
 H2004 H 0.65267 0.62557 0.68524
 H2005 H 0.69395 0.63024 0.64945
 H2006 H 0.65322 0.60283 0.70552
 H2007 H 0.66654 0.57871 0.71841
 H2008 H 0.72138 0.58649 0.67357
 H2009 H 0.73518 0.56299 0.68719
 H2010 H 0.67761 0.55664 0.72807
 H2011 H 0.69308 0.53400 0.74145
 H2012 H 0.73637 0.54114 0.70857
 C2013 C 0.66448 0.11606 0.20432
 C2014 C 0.67781 0.10581 0.19720
 C2015 C 0.68425 0.11069 0.18113
 C2016 C 0.67774 0.12529 0.17282
 C2017 C 0.66469 0.13538 0.18017
 C2018 C 0.65809 0.13051 0.19594
 C2019 C 0.69725 0.10105 0.17341
 C2020 C 0.70426 0.08674 0.18131
 C2021 C 0.69856 0.08142 0.19743
 C2022 C 0.68504 0.09105 0.20549
 C2023 C 0.67936 0.08571 0.22162
 C2024 C 0.68681 0.07170 0.22978
 C2025 C 0.70016 0.06234 0.22225
 C2026 C 0.70611 0.06692 0.20588
 C2027 C 0.71956 0.05687 0.19876
 C2028 C 0.72707 0.04336 0.20771
 C2029 C 0.72148 0.03916 0.22404
 C2030 C 0.70777 0.04855 0.23113
 H2031 H 0.65869 0.11336 0.21638
 H2032 H 0.68294 0.12882 0.16060
 H2033 H 0.64797 0.13798 0.20198
 H2034 H 0.70218 0.10466 0.16109
 H2035 H 0.71431 0.08022 0.17438
 H2036 H 0.66921 0.09218 0.22847
 H2037 H 0.68212 0.06824 0.24223
 H2038 H 0.72478 0.05912 0.18635
 H2039 H 0.73751 0.03625 0.20177
 H2040 H 0.70329 0.04540 0.24374
 C2041 C 0.18996 0.60407 0.16932
 C2042 C 0.18437 0.59733 0.18496
 C2043 C 0.17077 0.60611 0.19343
 C2044 C 0.16334 0.62108 0.18649
 C2045 C 0.16926 0.62766 0.17108
 C2046 C 0.18256 0.61889 0.16260
 C2047 C 0.16473 0.59999 0.20886
 C2048 C 0.17198 0.58546 0.21624
 C2049 C 0.18570 0.57636 0.20847
 C2050 C 0.19192 0.58234 0.19250
 C2051 C 0.20559 0.57323 0.18466
 C2052 C 0.21319 0.55904 0.19222
 C2053 C 0.20751 0.55320 0.20786
 C2054 C 0.19359 0.56159 0.21620
 C2055 C 0.18833 0.55487 0.23200
 C2056 C 0.19683 0.54079 0.23927
 C2057 C 0.21082 0.53286 0.23110
 C2058 C 0.21592 0.53906 0.21528
 H2059 H 0.20012 0.59833 0.16189
 H2060 H 0.15304 0.62769 0.19321
 H2061 H 0.18743 0.62351 0.15064
 H2062 H 0.15430 0.60659 0.21539
 H2063 H 0.16655 0.58176 0.22819
 H2064 H 0.21092 0.57676 0.17262
 H2065 H 0.22376 0.55260 0.18576
 H2066 H 0.17780 0.56025 0.23920
 H2067 H 0.19256 0.53627 0.25151
 H2068 H 0.22667 0.53300 0.20875
 C2069 C 0.18240 0.09665 0.67002
 C2070 C 0.17752 0.08984 0.68588
 C2071 C 0.16372 0.09807 0.69457
 C2072 C 0.15549 0.11262 0.68768
 C2073 C 0.16084 0.11940 0.67216
 C2074 C 0.17424 0.11113 0.66338
 C2075 C 0.15833 0.09189 0.71020
 C2076 C 0.16653 0.07791 0.71768
 C2077 C 0.18058 0.06946 0.70978
 C2078 C 0.18600 0.07539 0.69349
 C2079 C 0.19988 0.06681 0.68545
 C2080 C 0.20852 0.05329 0.69317
 C2081 C 0.20372 0.04766 0.70918
 C2082 C 0.18956 0.05543 0.71770
 C2083 C 0.18524 0.04894 0.73389
 C2084 C 0.19485 0.03567 0.74134
 C2085 C 0.20907 0.02840 0.73298
 C2086 C 0.21324 0.03435 0.71679
 H2087 H 0.19262 0.09128 0.66241
 H2088 H 0.14511 0.11884 0.69461
 H2089 H 0.17862 0.11594 0.65130
 H2090 H 0.14772 0.09805 0.71686
 H2091 H 0.16156 0.07413 0.72981
 H2092 H 0.20460 0.07028 0.67314
 H2093 H 0.21923 0.04727 0.68656
 H2094 H 0.17464 0.05390 0.74126
 H2095 H 0.19128 0.03128 0.75385
 H2096 H 0.22414 0.02875 0.71011
 C2097 C 0.32767 0.60160 0.29544
 C2098 C 0.31306 0.59394 0.30268
 C2099 C 0.30665 0.60113 0.31805
 C2100 C 0.31446 0.61548 0.32556
 C2101 C 0.32872 0.62307 0.31802
 C2102 C 0.33528 0.61588 0.30298
 C2103 C 0.29236 0.59410 0.32582
 C2104 C 0.28402 0.58021 0.31858
 C2105 C 0.28963 0.57270 0.30314
 C2106 C 0.30450 0.57958 0.29513
 C2107 C 0.31020 0.57200 0.27975
 C2108 C 0.30157 0.55843 0.27225
 C2109 C 0.28693 0.55178 0.27970
 C2110 C 0.28078 0.55866 0.29532
 C2111 C 0.26587 0.55126 0.30230
 C2112 C 0.25738 0.53794 0.29393
 C2113 C 0.26338 0.53144 0.27838
 C2114 C 0.27830 0.53834 0.27145
 H2115 H 0.33355 0.59703 0.28387
 H2116 H 0.30925 0.62085 0.33723
 H2117 H 0.34634 0.62136 0.29685
 H2118 H 0.28746 0.59949 0.33761
 H2119 H 0.27306 0.57573 0.32546
 H2120 H 0.32131 0.57629 0.27301
 H2121 H 0.30637 0.55316 0.26036
 H2122 H 0.26029 0.55551 0.31412
 H2123 H 0.24592 0.53282 0.29964
 H2124 H 0.28313 0.53339 0.25944
 C2125 C 0.32853 0.09763 0.80299
 C2126 C 0.31329 0.09026 0.80923
 C2127 C 0.30693 0.09651 0.82502
 C2128 C 0.31547 0.10962 0.83396
 C2129 C 0.33052 0.11679 0.82754
 C2130 C 0.33691 0.11060 0.81199
 C2131 C 0.29205 0.08966 0.83184
 C2132 C 0.28328 0.07669 0.82342
 C2133 C 0.28900 0.06999 0.80765
 C2134 C 0.30421 0.07696 0.80038
 C2135 C 0.30979 0.07044 0.78449
 C2136 C 0.30094 0.05758 0.77600
 C2137 C 0.28620 0.05058 0.78293
 C2138 C 0.27999 0.05660 0.79886
 C2139 C 0.26500 0.04889 0.80530
 C2140 C 0.25663 0.03593 0.79625
 C2141 C 0.26280 0.03011 0.78049
 C2142 C 0.27763 0.03753 0.77393
 H2143 H 0.33444 0.09370 0.79122
 H2144 H 0.31036 0.11422 0.84599
 H2145 H 0.34851 0.11581 0.80665
 H2146 H 0.28711 0.09439 0.84389
 H2147 H 0.27192 0.07226 0.82967
 H2148 H 0.32099 0.07505 0.77811
 H2149 H 0.30574 0.05304 0.76382
 H2150 H 0.25937 0.05248 0.81730
 H2151 H 0.24521 0.03044 0.80169
 H2152 H 0.28259 0.03313 0.76177
 C2153 C 0.82836 0.60766 0.80044
 C2154 C 0.81326 0.59988 0.80660
 C2155 C 0.80622 0.60648 0.82194
 C2156 C 0.81408 0.62013 0.83064
 C2157 C 0.82902 0.62767 0.82436
 C2158 C 0.83603 0.62128 0.80918
 C2159 C 0.79131 0.59948 0.82856
 C2160 C 0.78304 0.58611 0.82029
 C2161 C 0.78942 0.57903 0.80495
 C2162 C 0.80489 0.58592 0.79808
 C2163 C 0.81151 0.57858 0.78297
 C2164 C 0.80330 0.56516 0.77473
 C2165 C 0.78812 0.55848 0.78109
 C2166 C 0.78088 0.56527 0.79625
 C2167 C 0.76532 0.55800 0.80195
 C2168 C 0.75745 0.54463 0.79296
 C2169 C 0.76476 0.53800 0.77803
 C2170 C 0.78014 0.54502 0.77223
 H2171 H 0.83458 0.60365 0.78886
 H2172 H 0.80842 0.62492 0.84234
 H2173 H 0.84753 0.62681 0.80396
 H2174 H 0.78589 0.60446 0.84031
 H2175 H 0.77165 0.58154 0.82637
 H2176 H 0.82315 0.58284 0.77711
 H2177 H 0.80890 0.55997 0.76316
 H2178 H 0.75877 0.56237 0.81323
 H2179 H 0.74556 0.53951 0.79774
 H2180 H 0.78594 0.54007 0.76065
 C2181 C 0.83025 0.11058 0.30105
 C2182 C 0.81508 0.10265 0.30663
 C2183 C 0.80728 0.10923 0.32166
 C2184 C 0.81429 0.12338 0.33037
 C2185 C 0.82916 0.13124 0.32442
 C2186 C 0.83707 0.12455 0.30977
 C2187 C 0.79247 0.10172 0.32787
 C2188 C 0.78510 0.08785 0.31953
 C2189 C 0.79221 0.08091 0.30442
 C2190 C 0.80740 0.08850 0.29780
 C2191 C 0.81426 0.08185 0.28246
 C2192 C 0.80661 0.06833 0.27384
 C2193 C 0.79186 0.06076 0.28010
 C2194 C 0.78452 0.06679 0.29557
 C2195 C 0.76970 0.05842 0.30145
 C2196 C 0.76236 0.04504 0.29219
 C2197 C 0.76945 0.03938 0.27674
 C2198 C 0.78433 0.04723 0.27085
 H2199 H 0.83728 0.10636 0.29001
 H2200 H 0.80807 0.12833 0.34173
 H2201 H 0.84866 0.13017 0.30484
 H2202 H 0.78644 0.10665 0.33934
 H2203 H 0.77363 0.08301 0.32525
 H2204 H 0.82552 0.08692 0.27654
 H2205 H 0.81230 0.06379 0.26205
 H2206 H 0.76339 0.06182 0.31317
 H2207 H 0.75092 0.03918 0.29718
 H2208 H 0.79000 0.04293 0.25897
 C2209 C 0.70305 0.40462 0.33293
 C2210 C 0.69567 0.41206 0.31808
 C2211 C 0.68014 0.40502 0.31162
 C2212 C 0.67244 0.39127 0.31977
 C2213 C 0.67993 0.38402 0.33442
 C2214 C 0.69529 0.39086 0.34090
 C2215 C 0.67233 0.41164 0.29698
 C2216 C 0.67966 0.42503 0.28834
 C2217 C 0.69519 0.43249 0.29408
 C2218 C 0.70319 0.42608 0.30935
 C2219 C 0.71840 0.43392 0.31539
 C2220 C 0.72572 0.44734 0.30675
 C2221 C 0.71830 0.45347 0.29170
 C2222 C 0.70296 0.44617 0.28507
 C2223 C 0.69617 0.45283 0.26959
 C2224 C 0.70429 0.46611 0.26121
 C2225 C 0.71940 0.47325 0.26790
 C2226 C 0.72628 0.46687 0.28320
 H2227 H 0.71489 0.40896 0.33869
 H2228 H 0.66057 0.38613 0.31454
 H2229 H 0.70143 0.38553 0.35217
 H2230 H 0.66041 0.40633 0.29204
 H2231 H 0.67268 0.42930 0.27720
 H2232 H 0.72502 0.43007 0.32689
 H2233 H 0.73742 0.45293 0.31190
 H2234 H 0.68471 0.44802 0.26346
 H2235 H 0.69869 0.47075 0.24938
 H2236 H 0.73802 0.47224 0.28850
 C2237 C 0.67933 0.88165 0.79669
 C2238 C 0.69471 0.88998 0.80177
 C2239 C 0.70282 0.88456 0.81712
 C2240 C 0.69584 0.87137 0.82676
 C2241 C 0.68067 0.86321 0.82149
 C2242 C 0.67249 0.86854 0.80640
 C2243 C 0.71792 0.89228 0.82286
 C2244 C 0.72529 0.90532 0.81374
 C2245 C 0.71784 0.91125 0.79834
 C2246 C 0.70231 0.90343 0.79222
 C2247 C 0.69494 0.90929 0.77675
 C2248 C 0.70237 0.92231 0.76759
 C2249 C 0.71742 0.93010 0.77340
 C2250 C 0.72541 0.92473 0.78884
 C2251 C 0.74067 0.93315 0.79411
 C2252 C 0.74754 0.94627 0.78449
 C2253 C 0.73956 0.95152 0.76928
 C2254 C 0.72449 0.94331 0.76380
 H2255 H 0.67220 0.88491 0.78529
 H2256 H 0.70234 0.86745 0.83842
 H2257 H 0.66074 0.86252 0.80197
 H2258 H 0.72417 0.88817 0.83460
 H2259 H 0.73694 0.91045 0.81918
 H2260 H 0.68335 0.90406 0.77126
 H2261 H 0.69621 0.92635 0.75579
 H2262 H 0.74766 0.93003 0.80562
 H2263 H 0.75919 0.95236 0.78907
 H2264 H 0.71815 0.94726 0.75206
 C2265 C 0.19907 0.39184 0.82651
 C2266 C 0.19274 0.39915 0.81115
 C2267 C 0.17689 0.39300 0.80450
 C2268 C 0.16788 0.38019 0.81295
 C2269 C 0.17435 0.37310 0.82812
 C2270 C 0.19002 0.37909 0.83477
 C2271 C 0.17003 0.39961 0.78941
 C2272 C 0.17852 0.41222 0.78064
 C2273 C 0.19436 0.41884 0.78663
 C2274 C 0.20156 0.41225 0.80219
 C2275 C 0.21732 0.41899 0.80825
 C2276 C 0.22579 0.43165 0.79949
 C2277 C 0.21900 0.43815 0.78431
 C2278 C 0.20321 0.43186 0.77760
 C2279 C 0.19701 0.43891 0.76209
 C2280 C 0.20605 0.45158 0.75375
 C2281 C 0.22160 0.45777 0.76048
 C2282 C 0.22799 0.45095 0.77580
 H2283 H 0.21100 0.39561 0.83252
 H2284 H 0.15579 0.37570 0.80758
 H2285 H 0.19540 0.37390 0.84646
 H2286 H 0.15790 0.39496 0.78428
 H2287 H 0.17220 0.41652 0.76914
 H2288 H 0.22354 0.41480 0.81984
 H2289 H 0.23784 0.43641 0.80468
 H2290 H 0.18521 0.43495 0.75595
 H2291 H 0.20077 0.45657 0.74193
 H2292 H 0.24002 0.45561 0.78116
 C2293 C 0.20786 0.90774 0.32947
 C2294 C 0.20056 0.91533 0.31466
 C2295 C 0.18522 0.90815 0.30787
 C2296 C 0.17770 0.89402 0.31560
 C2297 C 0.18521 0.88656 0.33013
 C2298 C 0.20030 0.89364 0.33700
 C2299 C 0.17748 0.91497 0.29329
 C2300 C 0.18472 0.92863 0.28501
 C2301 C 0.20011 0.93616 0.29102
 C2302 C 0.20801 0.92960 0.30627
 C2303 C 0.22309 0.93749 0.31259
 C2304 C 0.23045 0.95103 0.30418
 C2305 C 0.22319 0.95728 0.28910
 C2306 C 0.20791 0.95001 0.28228
 C2307 C 0.20123 0.95682 0.26683
 C2308 C 0.20944 0.97012 0.25861
 C2309 C 0.22455 0.97718 0.26541
 C2310 C 0.23128 0.97073 0.28075
 H2311 H 0.21951 0.91221 0.33550
 H2312 H 0.16603 0.88872 0.31011
 H2313 H 0.20643 0.88819 0.34821
 H2314 H 0.16569 0.90958 0.28812
 H2315 H 0.17781 0.93301 0.27387
 H2316 H 0.22961 0.93354 0.32411
 H2317 H 0.24207 0.95661 0.30950
 H2318 H 0.18979 0.95209 0.26059
 H2319 H 0.20393 0.97483 0.24677
 H2320 H 0.24299 0.97605 0.28615
 C2321 C 0.40361 0.31934 0.69319
 C2322 C 0.40933 0.30277 0.68833
 C2323 C 0.40058 0.29468 0.67454
 C2324 C 0.38649 0.30283 0.66636
 C2325 C 0.38078 0.31909 0.67167
 C2326 C 0.38962 0.32725 0.68504
 C2327 C 0.40581 0.27845 0.66908
 C2328 C 0.41943 0.26987 0.67709
 C2329 C 0.42840 0.27719 0.69106
 C2330 C 0.42327 0.29394 0.69675
 C2331 C 0.43207 0.30122 0.71084
 C2332 C 0.44524 0.29249 0.71923
 C2333 C 0.45032 0.27619 0.71396
 C2334 C 0.44218 0.26828 0.69972
 C2335 C 0.44818 0.25173 0.69492
 C2336 C 0.46139 0.24343 0.70411
 C2337 C 0.46903 0.25127 0.71836
 C2338 C 0.46348 0.26773 0.72306
 H2339 H 0.40956 0.32664 0.70329
 H2340 H 0.37985 0.29636 0.65597
 H2341 H 0.38568 0.33986 0.68938
 H2342 H 0.39921 0.27221 0.65852
 H2343 H 0.42248 0.25737 0.67208
 H2344 H 0.42902 0.31368 0.71594
 H2345 H 0.45149 0.29859 0.73008
 H2346 H 0.44296 0.24479 0.68418
 H2347 H 0.46547 0.23073 0.70015
 H2348 H 0.46939 0.27404 0.73398
 C2349 C 0.39018 0.84163 0.18652
 C2350 C 0.39856 0.82662 0.18040
 C2351 C 0.39224 0.81935 0.16496
 C2352 C 0.37803 0.82665 0.15636
 C2353 C 0.36966 0.84127 0.16279
 C2354 C 0.37601 0.84877 0.17784
 C2355 C 0.39997 0.80469 0.15820
 C2356 C 0.41367 0.79672 0.16656
 C2357 C 0.42025 0.80310 0.18219
 C2358 C 0.41275 0.81845 0.18912
 C2359 C 0.41959 0.82498 0.20459
 C2360 C 0.43296 0.81667 0.21322
 C2361 C 0.44010 0.80150 0.20688
 C2362 C 0.43396 0.79453 0.19122
 C2363 C 0.44167 0.77908 0.18540
 C2364 C 0.45458 0.77087 0.19486
 C2365 C 0.46043 0.77767 0.21041
 C2366 C 0.45324 0.79313 0.21626
 H2367 H 0.39408 0.84813 0.19805
 H2368 H 0.37336 0.82074 0.14466
 H2369 H 0.36987 0.86012 0.18312
 H2370 H 0.39528 0.79918 0.14631
 H2371 H 0.41874 0.78546 0.16034
 H2372 H 0.41482 0.83654 0.21051
 H2373 H 0.43765 0.82212 0.22513
 H2374 H 0.43795 0.77280 0.17370
 H2375 H 0.45992 0.75897 0.18994
 H2376 H 0.45767 0.79855 0.22828
 C2377 C 0.88779 0.34317 0.19261
 C2378 C 0.89629 0.32762 0.18833
 C2379 C 0.89013 0.31855 0.17379
 C2380 C 0.87590 0.32472 0.16430
 C2381 C 0.86746 0.33997 0.16895
 C2382 C 0.87368 0.34915 0.18311
 C2383 C 0.89809 0.30328 0.16883
 C2384 C 0.91196 0.29660 0.17804
 C2385 C 0.91848 0.30493 0.19277
 C2386 C 0.91053 0.32073 0.19799
 C2387 C 0.91697 0.32899 0.21279
 C2388 C 0.93052 0.32205 0.22228
 C2389 C 0.93831 0.30665 0.21747
 C2390 C 0.93255 0.29790 0.20258
 C2391 C 0.94108 0.28239 0.19823
 C2392 C 0.95442 0.27580 0.20839
 C2393 C 0.95986 0.28436 0.22322
 C2394 C 0.95181 0.29989 0.22760
 H2395 H 0.89161 0.35106 0.20326
 H2396 H 0.87131 0.31750 0.15333
 H2397 H 0.86754 0.36104 0.18702
 H2398 H 0.89349 0.29633 0.15770
 H2399 H 0.91718 0.28471 0.17327
 H2400 H 0.91172 0.34086 0.21758
 H2401 H 0.93489 0.32882 0.23362
 H2402 H 0.93780 0.27492 0.18711
 H2403 H 0.96043 0.26380 0.20461
 H2404 H 0.95593 0.30668 0.23901
 C2405 C 0.90981 0.80550 0.65437
 C2406 C 0.91558 0.81058 0.67082
 C2407 C 0.90820 0.82570 0.67791
 C2408 C 0.89546 0.83501 0.66894
 C2409 C 0.88963 0.82954 0.65285
 C2410 C 0.89708 0.81480 0.64563
 C2411 C 0.91340 0.83139 0.69401
 C2412 C 0.92559 0.82231 0.70347
 C2413 C 0.93315 0.80701 0.69720
 C2414 C 0.92819 0.80113 0.68053
 C2415 C 0.93590 0.78594 0.67419
 C2416 C 0.94782 0.77666 0.68381
 C2417 C 0.95260 0.78206 0.70013
 C2418 C 0.94542 0.79733 0.70709
 C2419 C 0.95078 0.80215 0.72375
 C2420 C 0.96259 0.79222 0.73299
 C2421 C 0.96957 0.77713 0.72607
 C2422 C 0.96452 0.77216 0.70957
 H2423 H 0.91470 0.79431 0.64787
 H2424 H 0.88986 0.84641 0.67470
 H2425 H 0.89296 0.81026 0.63318
 H2426 H 0.90787 0.84298 0.69945
 H2427 H 0.92874 0.82769 0.71576
 H2428 H 0.93298 0.78072 0.66177
 H2429 H 0.95330 0.76503 0.67840
 H2430 H 0.94608 0.81348 0.73014
 H2431 H 0.96625 0.79642 0.74571
 H2432 H 0.96985 0.76052 0.70404
 C2433 C 0.61106 0.34382 0.31307
 C2434 C 0.60262 0.32946 0.31969
 C2435 C 0.60959 0.32211 0.33479
 C2436 C 0.62459 0.32869 0.34253
 C2437 C 0.63296 0.34269 0.33554
 C2438 C 0.62590 0.35024 0.32085
 C2439 C 0.60165 0.30813 0.34205
 C2440 C 0.58704 0.30107 0.33460
 C2441 C 0.57974 0.30765 0.31939
 C2442 C 0.58766 0.32210 0.31180
 C2443 C 0.58052 0.32852 0.29644
 C2444 C 0.56637 0.32100 0.28860
 C2445 C 0.55860 0.30686 0.29571
 C2446 C 0.56497 0.30009 0.31132
 C2447 C 0.55635 0.28589 0.31807
 C2448 C 0.54249 0.27848 0.30940
 C2449 C 0.53659 0.28493 0.29375
 C2450 C 0.54459 0.29931 0.28711
 H2451 H 0.60662 0.35046 0.30186
 H2452 H 0.62980 0.32277 0.35396
 H2453 H 0.63194 0.36116 0.31516
 H2454 H 0.60687 0.30249 0.35362
 H2455 H 0.58192 0.29022 0.34106
 H2456 H 0.58571 0.33928 0.28991
 H2457 H 0.56152 0.32628 0.27671
 H2458 H 0.55998 0.28005 0.32998
 H2459 H 0.53650 0.26746 0.31495
 H2460 H 0.54009 0.30450 0.27505
 C2461 C 0.61613 0.79619 0.83386
 C2462 C 0.60627 0.80174 0.81958
 C2463 C 0.61185 0.81654 0.81106
 C2464 C 0.62681 0.82507 0.81649
 C2465 C 0.63653 0.81925 0.83050
 C2466 C 0.63094 0.80480 0.83916
 C2467 C 0.60257 0.82275 0.79707
 C2468 C 0.58788 0.81457 0.79116
 C2469 C 0.58183 0.79965 0.79898
 C2470 C 0.59118 0.79311 0.81343
 C2471 C 0.58526 0.77806 0.82110
 C2472 C 0.57090 0.76955 0.81480
 C2473 C 0.56174 0.77566 0.80068
 C2474 C 0.56690 0.79090 0.79267
 C2475 C 0.55692 0.79663 0.77854
 C2476 C 0.54290 0.78734 0.77240
 C2477 C 0.53815 0.77207 0.78010
 C2478 C 0.54752 0.76643 0.79441
 H2479 H 0.61284 0.78523 0.84127
 H2480 H 0.63088 0.83629 0.80970
 H2481 H 0.63809 0.79999 0.85009
 H2482 H 0.60675 0.83408 0.79053
 H2483 H 0.58167 0.82026 0.78022
 H2484 H 0.59155 0.77231 0.83196
 H2485 H 0.56700 0.75794 0.82103
 H2486 H 0.55960 0.80818 0.77180
 H2487 H 0.53585 0.79213 0.76140
 H2488 H 0.54394 0.75466 0.80055
 C2489 C 0.10074 0.31466 0.83327
 C2490 C 0.09454 0.31907 0.81683
 C2491 C 0.10329 0.33208 0.80807
 C2492 C 0.11809 0.33965 0.81524
 C2493 C 0.12445 0.33451 0.83122
 C2494 C 0.11541 0.32220 0.84022
 C2495 C 0.09741 0.33730 0.79207
 C2496 C 0.08315 0.32978 0.78439
 C2497 C 0.07424 0.31645 0.79234
 C2498 C 0.08012 0.31093 0.80879
 C2499 C 0.07166 0.29716 0.81648
 C2500 C 0.05804 0.28898 0.80841
 C2501 C 0.05211 0.29422 0.79245
 C2502 C 0.05990 0.30818 0.78425
 C2503 C 0.05302 0.31315 0.76821
 C2504 C 0.03943 0.30431 0.76055
 C2505 C 0.03217 0.29023 0.76853
 C2506 C 0.03849 0.28538 0.78458
 H2507 H 0.09462 0.30542 0.84117
 H2508 H 0.12483 0.34929 0.80820
 H2509 H 0.11977 0.31815 0.85274
 H2510 H 0.10398 0.34728 0.78533
 H2511 H 0.07966 0.33453 0.77197
 H2512 H 0.07547 0.29204 0.82865
 H2513 H 0.05212 0.27834 0.81474
 H2514 H 0.05778 0.32381 0.76120
 H2515 H 0.03474 0.30845 0.74818
 H2516 H 0.03287 0.27460 0.79096
 C2517 C 0.11804 0.84459 0.30727
 C2518 C 0.11037 0.82940 0.31293
 C2519 C 0.11781 0.82136 0.32745
 C2520 C 0.13254 0.82816 0.33558
 C2521 C 0.14012 0.84306 0.32955
 C2522 C 0.13258 0.85120 0.31541
 C2523 C 0.11058 0.80652 0.33375
 C2524 C 0.09617 0.79937 0.32594
 C2525 C 0.08838 0.80671 0.31132
 C2526 C 0.09567 0.82194 0.30465
 C2527 C 0.08818 0.82908 0.28979
 C2528 C 0.07416 0.82166 0.28165
 C2529 C 0.06688 0.80689 0.28795
 C2530 C 0.07370 0.79924 0.30296
 C2531 C 0.06553 0.78436 0.30886
 C2532 C 0.05155 0.77730 0.29999
 C2533 C 0.04518 0.78475 0.28497
 C2534 C 0.05286 0.79965 0.27914
 H2535 H 0.11317 0.85181 0.29660
 H2536 H 0.13814 0.82175 0.34657
 H2537 H 0.13796 0.86281 0.31045
 H2538 H 0.11617 0.80032 0.34485
 H2539 H 0.09156 0.78787 0.33164
 H2540 H 0.09295 0.84038 0.28386
 H2541 H 0.06899 0.82756 0.27019
 H2542 H 0.06959 0.77781 0.32025
 H2543 H 0.04584 0.76581 0.30485
 H2544 H 0.04800 0.80562 0.26759
 C2545 C 0.60511 0.69781 0.66848
 C2546 C 0.59794 0.69138 0.68361
 C2547 C 0.60549 0.67629 0.69049
 C2548 C 0.61962 0.66822 0.68255
 C2549 C 0.62668 0.67492 0.66770
 C2550 C 0.61918 0.68972 0.66075
 C2551 C 0.59902 0.66937 0.70536
 C2552 C 0.58537 0.67718 0.71382
 C2553 C 0.57753 0.69238 0.70772
 C2554 C 0.58375 0.69946 0.69222
 C2555 C 0.57564 0.71444 0.68592
 C2556 C 0.56221 0.72244 0.69456
 C2557 C 0.55627 0.71595 0.70985
 C2558 C 0.56375 0.70079 0.71666
 C2559 C 0.55720 0.69484 0.73227
 C2560 C 0.54403 0.70366 0.74072
 C2561 C 0.53681 0.71869 0.73400
 C2562 C 0.54294 0.72468 0.71845
 H2563 H 0.60033 0.70918 0.66231
 H2564 H 0.62524 0.65676 0.68810
 H2565 H 0.62427 0.69525 0.64928
 H2566 H 0.60466 0.65779 0.71062
 H2567 H 0.58130 0.67090 0.72519
 H2568 H 0.57936 0.72041 0.67426
 H2569 H 0.55650 0.73396 0.68925
 H2570 H 0.56203 0.68352 0.73847
 H2571 H 0.53957 0.69868 0.75270
 H2572 H 0.53747 0.73630 0.71309
 C2573 C 0.60458 0.20878 0.17979
 C2574 C 0.59707 0.20313 0.19510
 C2575 C 0.60351 0.18766 0.20213
 C2576 C 0.61687 0.17846 0.19417
 C2577 C 0.62425 0.18429 0.17910
 C2578 C 0.61791 0.19951 0.17199
 C2579 C 0.59667 0.18141 0.21714
 C2580 C 0.58358 0.19018 0.22553
 C2581 C 0.57671 0.20570 0.21922
 C2582 C 0.58350 0.21226 0.20370
 C2583 C 0.57654 0.22773 0.19734
 C2584 C 0.56351 0.23655 0.20580
 C2585 C 0.55685 0.23041 0.22094
 C2586 C 0.56329 0.21492 0.22793
 C2587 C 0.55600 0.20937 0.24339
 C2588 C 0.54300 0.21884 0.25145
 C2589 C 0.53675 0.23413 0.24446
 C2590 C 0.54376 0.23980 0.22916
 H2591 H 0.60057 0.22034 0.17348
 H2592 H 0.62157 0.16669 0.19985
 H2593 H 0.62332 0.20436 0.16035
 H2594 H 0.60154 0.16956 0.22253
 H2595 H 0.57915 0.18435 0.23701
 H2596 H 0.58086 0.23346 0.18576
 H2597 H 0.55861 0.24838 0.20040
 H2598 H 0.56004 0.19782 0.24970
 H2599 H 0.53784 0.21413 0.26326
 H2600 H 0.53905 0.25163 0.22359
 C2601 C 0.10865 0.70166 0.17213
 C2602 C 0.10154 0.69720 0.18798
 C2603 C 0.10789 0.68207 0.19583
 C2604 C 0.12103 0.67213 0.18815
 C2605 C 0.12811 0.67700 0.17258
 C2606 C 0.12163 0.69178 0.16468
 C2607 C 0.10118 0.67697 0.21135
 C2608 C 0.08837 0.68656 0.21938
 C2609 C 0.08172 0.70183 0.21222
 C2610 C 0.08845 0.70724 0.19626
 C2611 C 0.08199 0.72261 0.18917
 C2612 C 0.06947 0.73238 0.19730
 C2613 C 0.06277 0.72733 0.21281
 C2614 C 0.06866 0.71196 0.22052
 C2615 C 0.06120 0.70748 0.23624
 C2616 C 0.04864 0.71789 0.24390
 C2617 C 0.04303 0.73311 0.23623
 C2618 C 0.05017 0.73769 0.22064
 H2619 H 0.10455 0.71273 0.16505
 H2620 H 0.12584 0.66070 0.19440
 H2621 H 0.12665 0.69589 0.15258
 H2622 H 0.10592 0.66541 0.21742
 H2623 H 0.08402 0.68166 0.23133
 H2624 H 0.08641 0.72764 0.17731
 H2625 H 0.06500 0.74411 0.19135
 H2626 H 0.06474 0.69604 0.24301
 H2627 H 0.04334 0.71399 0.25594
 H2628 H 0.04591 0.74939 0.21452
 C2629 C 0.09801 0.16902 0.69934
 C2630 C 0.09096 0.18456 0.69300
 C2631 C 0.09775 0.19085 0.67762
 C2632 C 0.11108 0.18203 0.66921
 C2633 C 0.11806 0.16680 0.67577
 C2634 C 0.11131 0.16036 0.69085
 C2635 C 0.09133 0.20600 0.67069
 C2636 C 0.07832 0.21525 0.67870
 C2637 C 0.07116 0.20972 0.69413
 C2638 C 0.07754 0.19409 0.70139
 C2639 C 0.07038 0.18857 0.71682
 C2640 C 0.05755 0.19796 0.72497
 C2641 C 0.05127 0.21322 0.71813
 C2642 C 0.05788 0.21935 0.70261
 C2643 C 0.05092 0.23494 0.69630
 C2644 C 0.03810 0.24395 0.70509
 C2645 C 0.03171 0.23782 0.72045
 C2646 C 0.03837 0.22240 0.72686
 H2647 H 0.09366 0.16318 0.71085
 H2648 H 0.11610 0.18718 0.65752
 H2649 H 0.11639 0.14862 0.69624
 H2650 H 0.09647 0.21083 0.65891
 H2651 H 0.07423 0.22678 0.67240
 H2652 H 0.07443 0.17700 0.72308
 H2653 H 0.05251 0.19322 0.73683
 H2654 H 0.05507 0.24061 0.68463
 H2655 H 0.03320 0.25582 0.69982
 H2656 H 0.03352 0.21747 0.73873
 C2657 C 0.39148 0.66788 0.29144
 C2658 C 0.39833 0.68390 0.29625
 C2659 C 0.39144 0.69206 0.31094
 C2660 C 0.37811 0.68448 0.32017
 C2661 C 0.37135 0.66871 0.31502
 C2662 C 0.37829 0.66053 0.30063
 C2663 C 0.39782 0.70779 0.31633
 C2664 C 0.41088 0.71569 0.30748
 C2665 C 0.41814 0.70818 0.29271
 C2666 C 0.41171 0.69203 0.28697
 C2667 C 0.41879 0.68460 0.27209
 C2668 C 0.43168 0.69254 0.26313
 C2669 C 0.43814 0.70819 0.26855
 C2670 C 0.43155 0.71629 0.28342
 C2671 C 0.43874 0.73216 0.28830
 C2672 C 0.45177 0.73955 0.27881
 C2673 C 0.45816 0.73148 0.26413
 C2674 C 0.45123 0.71577 0.25910
 H2675 H 0.39595 0.66060 0.28063
 H2676 H 0.37292 0.69097 0.33129
 H2677 H 0.37350 0.64829 0.29632
 H2678 H 0.39264 0.71411 0.32754
 H2679 H 0.41494 0.72781 0.31257
 H2680 H 0.41462 0.67259 0.26685
 H2681 H 0.43666 0.68631 0.25177
 H2682 H 0.43466 0.73924 0.29940
 H2683 H 0.45687 0.75170 0.28304
 H2684 H 0.45607 0.70935 0.24778
 C2685 C 0.40057 0.17925 0.83285
 C2686 C 0.40713 0.17404 0.81684
 C2687 C 0.39928 0.15989 0.80860
 C2688 C 0.38503 0.15188 0.81585
 C2689 C 0.37836 0.15764 0.83143
 C2690 C 0.38646 0.17121 0.83992
 C2691 C 0.40553 0.15387 0.79306
 C2692 C 0.41938 0.16162 0.78537
 C2693 C 0.42748 0.17595 0.79285
 C2694 C 0.42111 0.18240 0.80874
 C2695 C 0.42866 0.19722 0.81582
 C2696 C 0.44195 0.20546 0.80774
 C2697 C 0.44844 0.19925 0.79239
 C2698 C 0.44153 0.18428 0.78480
 C2699 C 0.44898 0.17833 0.76942
 C2700 C 0.46230 0.18715 0.76177
 C2701 C 0.46872 0.20218 0.76912
 C2702 C 0.46180 0.20807 0.78452
 H2703 H 0.40602 0.18946 0.84034
 H2704 H 0.37902 0.14128 0.80921
 H2705 H 0.38180 0.17584 0.85210
 H2706 H 0.39961 0.14305 0.78671
 H2707 H 0.42319 0.15620 0.77331
 H2708 H 0.42436 0.20308 0.82751
 H2709 H 0.44719 0.21689 0.81360
 H2710 H 0.44494 0.16686 0.76295
 H2711 H 0.46750 0.18220 0.74993
 H2712 H 0.46678 0.21959 0.79043
 C2713 C 0.89392 0.69587 0.83127
 C2714 C 0.90143 0.69144 0.81546
 C2715 C 0.89455 0.67721 0.80648
 C2716 C 0.88059 0.66812 0.81304
 C2717 C 0.87321 0.67287 0.82864
 C2718 C 0.88013 0.68677 0.83766
 C2719 C 0.90160 0.67213 0.79095
 C2720 C 0.91535 0.68080 0.78406
 C2721 C 0.92264 0.69510 0.79240
 C2722 C 0.91546 0.70060 0.80830
 C2723 C 0.92245 0.71517 0.81644
 C2724 C 0.93598 0.72402 0.80941
 C2725 C 0.94323 0.71876 0.79405
 C2726 C 0.93678 0.70419 0.78532
 C2727 C 0.94482 0.69936 0.76986
 C2728 C 0.95845 0.70868 0.76339
 C2729 C 0.96465 0.72314 0.77200
 C2730 C 0.95695 0.72808 0.78738
 H2731 H 0.89836 0.70627 0.83915
 H2732 H 0.87545 0.65736 0.80593
 H2733 H 0.87485 0.69077 0.84980
 H2734 H 0.89641 0.66129 0.78400
 H2735 H 0.91986 0.67597 0.77200
 H2736 H 0.91767 0.72026 0.82828
 H2737 H 0.94083 0.73515 0.81614
 H2738 H 0.94099 0.68841 0.76242
 H2739 H 0.96414 0.70449 0.75149
 H2740 H 0.96166 0.73920 0.79422
 C2741 C 0.89427 0.17530 0.30294
 C2742 C 0.90083 0.19125 0.30836
 C2743 C 0.89300 0.19927 0.32267
 C2744 C 0.87918 0.19156 0.33100
 C2745 C 0.87272 0.17588 0.32523
 C2746 C 0.88051 0.16785 0.31121
 C2747 C 0.89887 0.21502 0.32852
 C2748 C 0.91217 0.22324 0.32035
 C2749 C 0.92026 0.21596 0.30591
 C2750 C 0.91467 0.19957 0.29997
 C2751 C 0.92306 0.19207 0.28581
 C2752 C 0.93617 0.20037 0.27749
 C2753 C 0.94150 0.21647 0.28285
 C2754 C 0.93372 0.22453 0.29714
 C2755 C 0.93967 0.24093 0.30192
 C2756 C 0.95267 0.24886 0.29286
 C2757 C 0.96022 0.24082 0.27871
 C2758 C 0.95458 0.22457 0.27384
 H2759 H 0.89928 0.16824 0.29221
 H2760 H 0.87329 0.19795 0.34182
 H2761 H 0.87591 0.15569 0.30644
 H2762 H 0.89302 0.22118 0.33950
 H2763 H 0.91579 0.23536 0.32577
 H2764 H 0.91986 0.17970 0.28073
 H2765 H 0.94214 0.19410 0.26664
 H2766 H 0.93452 0.24811 0.31250
 H2767 H 0.95673 0.26144 0.29693
 H2768 H 0.96032 0.21819 0.26292
 C2769 C 0.32878 0.29612 0.60898
 C2770 C 0.31355 0.30395 0.60229
 C2771 C 0.30848 0.31996 0.60930
 C2772 C 0.31821 0.32761 0.62238
 C2773 C 0.33312 0.31963 0.62899
 C2774 C 0.33833 0.30386 0.62209
 C2775 C 0.29364 0.32831 0.60336
 C2776 C 0.28344 0.32107 0.59069
 C2777 C 0.28770 0.30507 0.58333
 C2778 C 0.30313 0.29645 0.58906
 C2779 C 0.30761 0.28065 0.58138
 C2780 C 0.29736 0.27341 0.56871
 C2781 C 0.28219 0.28149 0.56319
 C2782 C 0.27706 0.29741 0.57039
 C2783 C 0.26140 0.30489 0.56437
 C2784 C 0.25145 0.29694 0.55174
 C2785 C 0.25668 0.28128 0.54463
 C2786 C 0.27210 0.27365 0.55045
 H2787 H 0.33363 0.28395 0.60452
 H2788 H 0.31397 0.33984 0.62753
 H2789 H 0.34979 0.29736 0.62692
 H2790 H 0.28977 0.34060 0.60866
 H2791 H 0.27227 0.32848 0.58692
 H2792 H 0.31905 0.27349 0.58482
 H2793 H 0.30134 0.26125 0.56321
 H2794 H 0.25633 0.31684 0.56917
 H2795 H 0.23957 0.30312 0.54754
 H2796 H 0.27629 0.26149 0.54509
 C2797 C 0.30177 0.83271 0.09706
 C2798 C 0.30897 0.81697 0.09133
 C2799 C 0.32446 0.81120 0.09934
 C2800 C 0.33215 0.82076 0.11254
 C2801 C 0.32469 0.83618 0.11821
 C2802 C 0.30950 0.84207 0.11024
 C2803 C 0.33218 0.79584 0.09425
 C2804 C 0.32482 0.78585 0.08149
 C2805 C 0.30930 0.79082 0.07321
 C2806 C 0.30131 0.80672 0.07811
 C2807 C 0.28590 0.81180 0.06969
 C2808 C 0.27840 0.80170 0.05711
 C2809 C 0.28587 0.78612 0.05235
 C2810 C 0.30144 0.78041 0.06023
 C2811 C 0.30838 0.76444 0.05480
 C2812 C 0.30013 0.75467 0.04222
 C2813 C 0.28472 0.76039 0.03459
 C2814 C 0.27771 0.77619 0.03972
 H2815 H 0.29009 0.83817 0.09177
 H2816 H 0.34393 0.81602 0.11854
 H2817 H 0.30342 0.85395 0.11427
 H2818 H 0.34406 0.79141 0.10029
 H2819 H 0.33170 0.77420 0.07847
 H2820 H 0.27917 0.82358 0.07251
 H2821 H 0.26652 0.80613 0.05108
 H2822 H 0.32011 0.75902 0.06002
 H2823 H 0.30586 0.74251 0.03852
 H2824 H 0.26580 0.78081 0.03390
 C2825 C 0.82372 0.30726 0.10508
 C2826 C 0.80893 0.31314 0.09594
 C2827 C 0.80191 0.32930 0.10063
 C2828 C 0.80928 0.33890 0.11399
 C2829 C 0.82376 0.33278 0.12304
 C2830 C 0.83094 0.31693 0.11835
 C2831 C 0.78747 0.33586 0.09207
 C2832 C 0.77960 0.32669 0.07901
 C2833 C 0.78585 0.31042 0.07391
 C2834 C 0.80082 0.30355 0.08246
 C2835 C 0.80708 0.28729 0.07733
 C2836 C 0.79896 0.27797 0.06448
 C2837 C 0.78430 0.28439 0.05615
 C2838 C 0.77756 0.30074 0.06064
 C2839 C 0.76267 0.30662 0.05169
 C2840 C 0.75480 0.29662 0.03911
 C2841 C 0.76141 0.28042 0.03487
 C2842 C 0.77627 0.27444 0.04340
 H2843 H 0.83003 0.29522 0.10241
 H2844 H 0.80358 0.35117 0.11738
 H2845 H 0.84215 0.31185 0.12505
 H2846 H 0.78210 0.34825 0.09556
 H2847 H 0.76850 0.33279 0.07322
 H2848 H 0.81825 0.28127 0.08306
 H2849 H 0.80421 0.26551 0.06108
 H2850 H 0.75665 0.31886 0.05408
 H2851 H 0.74336 0.30163 0.03273
 H2852 H 0.78156 0.26193 0.04023
 C2853 C 0.82423 0.83256 0.58431
 C2854 C 0.82833 0.81560 0.57920
 C2855 C 0.84267 0.80746 0.58727
 C2856 C 0.85188 0.81576 0.60037
 C2857 C 0.84700 0.83218 0.60587
 C2858 C 0.83337 0.84060 0.59744
 C2859 C 0.84751 0.79091 0.58256
 C2860 C 0.83814 0.78193 0.57036
 C2861 C 0.82334 0.78914 0.56240
 C2862 C 0.81851 0.80636 0.56670
 C2863 C 0.80378 0.81362 0.55867
 C2864 C 0.79384 0.80434 0.54719
 C2865 C 0.79814 0.78747 0.54315
 C2866 C 0.81304 0.77963 0.55049
 C2867 C 0.81680 0.76249 0.54574
 C2868 C 0.80608 0.75359 0.53444
 C2869 C 0.79127 0.76138 0.52749
 C2870 C 0.78745 0.77838 0.53185
 H2871 H 0.81387 0.83995 0.57868
 H2872 H 0.86251 0.80913 0.60667
 H2873 H 0.82944 0.85340 0.60121
 H2874 H 0.85857 0.78469 0.58856
 H2875 H 0.84277 0.76918 0.56767
 H2876 H 0.79933 0.82648 0.56110
 H2877 H 0.78253 0.81042 0.54151
 H2878 H 0.82784 0.75547 0.55053
 H2879 H 0.80938 0.74047 0.53126
 H2880 H 0.77609 0.78460 0.52642
 C2881 C 0.30823 0.66667 0.38510
 C2882 C 0.31447 0.68188 0.39267
 C2883 C 0.32872 0.68974 0.38488
 C2884 C 0.33613 0.68266 0.37006
 C2885 C 0.32961 0.66767 0.36266
 C2886 C 0.31566 0.65978 0.37043
 C2887 C 0.33547 0.70469 0.39186
 C2888 C 0.32835 0.71217 0.40634
 C2889 C 0.31404 0.70500 0.41451
 C2890 C 0.30701 0.68957 0.40758
 C2891 C 0.29266 0.68241 0.41570
 C2892 C 0.28527 0.69010 0.42988
 C2893 C 0.29182 0.70519 0.43669
 C2894 C 0.30638 0.71283 0.42926
 C2895 C 0.31253 0.72809 0.43688
 C2896 C 0.30431 0.73551 0.45092
 C2897 C 0.28973 0.72806 0.45797
 C2898 C 0.28368 0.71276 0.45085
 H2899 H 0.29757 0.65969 0.39009
 H2900 H 0.34695 0.68892 0.36425
 H2901 H 0.31030 0.64816 0.36514
 H2902 H 0.34638 0.71075 0.38601
 H2903 H 0.33439 0.72372 0.41073
 H2904 H 0.28664 0.67084 0.41136
 H2905 H 0.27418 0.68417 0.43555
 H2906 H 0.32358 0.73474 0.43229
 H2907 H 0.30934 0.74731 0.45616
 H2908 H 0.27244 0.70681 0.45620
 C2909 C 0.33863 0.17765 0.89968
 C2910 C 0.32109 0.17643 0.90421
 C2911 C 0.31069 0.16486 0.89474
 C2912 C 0.31749 0.15572 0.88074
 C2913 C 0.33465 0.15793 0.87588
 C2914 C 0.34518 0.16865 0.88576
 C2915 C 0.29347 0.16273 0.89905
 C2916 C 0.28618 0.17202 0.91237
 C2917 C 0.29579 0.18411 0.92186
 C2918 C 0.31352 0.18641 0.91763
 C2919 C 0.32297 0.19897 0.92662
 C2920 C 0.31545 0.20899 0.93922
 C2921 C 0.29826 0.20686 0.94358
 C2922 C 0.28820 0.19425 0.93518
 C2923 C 0.27092 0.19243 0.94047
 C2924 C 0.26396 0.20294 0.95320
 C2925 C 0.27388 0.21563 0.96110
 C2926 C 0.29107 0.21743 0.95627
 H2927 H 0.34772 0.18548 0.90653
 H2928 H 0.30925 0.14733 0.87332
 H2929 H 0.35862 0.17031 0.88260
 H2930 H 0.28547 0.15386 0.89194
 H2931 H 0.27276 0.16965 0.91465
 H2932 H 0.33623 0.20174 0.92399
 H2933 H 0.32320 0.21859 0.94561
 H2934 H 0.26239 0.18300 0.93514
 H2935 H 0.25064 0.20116 0.95675
 H2936 H 0.29894 0.22709 0.96242
 C2937 C 0.80740 0.66719 0.89470
 C2938 C 0.81500 0.68095 0.90381
 C2939 C 0.83053 0.68759 0.89740
 C2940 C 0.83788 0.68085 0.88250
 C2941 C 0.83001 0.66748 0.87347
 C2942 C 0.81481 0.66063 0.87981
 C2943 C 0.83863 0.70111 0.90574
 C2944 C 0.83143 0.70865 0.92008
 C2945 C 0.81572 0.70292 0.92676
 C2946 C 0.80760 0.68853 0.91879
 C2947 C 0.79232 0.68233 0.92597
 C2948 C 0.78485 0.69022 0.94003
 C2949 C 0.79218 0.70467 0.94748
 C2950 C 0.80777 0.71120 0.94106
 C2951 C 0.81451 0.72603 0.94903
 C2952 C 0.80593 0.73411 0.96245
 C2953 C 0.79042 0.72773 0.96854
 C2954 C 0.78376 0.71282 0.96115
 H2955 H 0.79558 0.66136 0.89852
 H2956 H 0.84970 0.68626 0.87783
 H2957 H 0.80842 0.65029 0.87314
 H2958 H 0.85062 0.70609 0.90099
 H2959 H 0.83860 0.71901 0.92562
 H2960 H 0.78571 0.67132 0.92102
 H2961 H 0.77301 0.68508 0.94498
 H2962 H 0.82618 0.73201 0.94502
 H2963 H 0.81142 0.74559 0.96793
 H2964 H 0.77174 0.70776 0.96573
 C2965 C 0.83037 0.19671 0.39322
 C2966 C 0.81482 0.19097 0.40037
 C2967 C 0.80650 0.17707 0.39216
 C2968 C 0.81360 0.16935 0.37748
 C2969 C 0.82899 0.17532 0.37055
 C2970 C 0.83723 0.18904 0.37864
 C2971 C 0.79106 0.17099 0.39859
 C2972 C 0.78353 0.17848 0.41288
 C2973 C 0.79121 0.19242 0.42149
 C2974 C 0.80722 0.19864 0.41522
 C2975 C 0.81511 0.21235 0.42399
 C2976 C 0.80756 0.21996 0.43812
 C2977 C 0.79185 0.21431 0.44420
 C2978 C 0.78341 0.20042 0.43611
 C2979 C 0.76745 0.19532 0.44299
 C2980 C 0.76023 0.20382 0.45705
 C2981 C 0.76860 0.21765 0.46479
 C2982 C 0.78451 0.22268 0.45832
 H2983 H 0.83759 0.20721 0.39842
 H2984 H 0.80702 0.15877 0.37136
 H2985 H 0.84913 0.19400 0.37371
 H2986 H 0.78463 0.16035 0.39242
 H2987 H 0.77161 0.17298 0.41688
 H2988 H 0.82723 0.21762 0.42030
 H2989 H 0.81410 0.23052 0.44433
 H2990 H 0.76010 0.18492 0.43774
 H2991 H 0.74792 0.19963 0.46174
 H2992 H 0.79119 0.23335 0.46417
 C2993 C 0.70454 0.33655 0.39828
 C2994 C 0.69707 0.32229 0.40620
 C2995 C 0.68077 0.31689 0.39994
 C2996 C 0.67260 0.32528 0.38622
 C2997 C 0.68029 0.33923 0.37840
 C2998 C 0.69628 0.34480 0.38466
 C2999 C 0.67269 0.30306 0.40730
 C3000 C 0.68040 0.29429 0.42071
 C3001 C 0.69670 0.29896 0.42737
 C3002 C 0.70520 0.31319 0.41999
 C3003 C 0.72159 0.31773 0.42654
 C3004 C 0.72950 0.30865 0.43968
 C3005 C 0.72145 0.29474 0.44696
 C3006 C 0.70488 0.28975 0.44105
 C3007 C 0.69725 0.27563 0.44904
 C3008 C 0.70586 0.26675 0.46199
 C3009 C 0.72235 0.27154 0.46757
 C3010 C 0.73000 0.28569 0.46007
 H3011 H 0.71678 0.34171 0.40222
 H3012 H 0.66019 0.32084 0.38160
 H3013 H 0.70258 0.35557 0.37897
 H3014 H 0.66022 0.29889 0.40258
 H3015 H 0.67319 0.28375 0.42547
 H3016 H 0.72883 0.32821 0.42168
 H3017 H 0.74214 0.31256 0.44415
 H3018 H 0.68465 0.27101 0.44563
 H3019 H 0.69953 0.25593 0.46758
 H3020 H 0.74274 0.28958 0.46429
 C3021 C 0.70985 0.82739 0.89052
 C3022 C 0.70409 0.81348 0.90027
 C3023 C 0.68860 0.80550 0.89491
 C3024 C 0.67945 0.81126 0.88045
 C3025 C 0.68543 0.82497 0.87090
 C3026 C 0.70067 0.83297 0.87615
 C3027 C 0.68232 0.79172 0.90393
 C3028 C 0.69114 0.78542 0.91806
 C3029 C 0.70674 0.79271 0.92387
 C3030 C 0.71319 0.80714 0.91497
 C3031 C 0.72855 0.81470 0.92105
 C3032 C 0.73749 0.80826 0.93507
 C3033 C 0.73160 0.79401 0.94363
 C3034 C 0.71613 0.78602 0.93824
 C3035 C 0.71085 0.77152 0.94739
 C3036 C 0.72060 0.76525 0.96109
 C3037 C 0.73592 0.77314 0.96625
 C3038 C 0.74126 0.78763 0.95751
 H3039 H 0.72148 0.83421 0.89350
 H3040 H 0.66768 0.80491 0.87658
 H3041 H 0.70566 0.84359 0.86907
 H3042 H 0.67043 0.78563 0.89994
 H3043 H 0.68529 0.77474 0.92417
 H3044 H 0.73410 0.82572 0.91527
 H3045 H 0.74926 0.81448 0.93918
 H3046 H 0.69937 0.76454 0.94425
 H3047 H 0.71613 0.75403 0.96759
 H3048 H 0.75311 0.79386 0.96136
 C3049 C 0.16706 0.31020 0.89710
 C3050 C 0.18441 0.31227 0.90242
 C3051 C 0.19429 0.32459 0.89384
 C3052 C 0.18715 0.33387 0.88013
 C3053 C 0.17014 0.33109 0.87463
 C3054 C 0.16015 0.31939 0.88346
 C3055 C 0.21133 0.32742 0.89881
 C3056 C 0.21897 0.31817 0.91196
 C3057 C 0.20986 0.30547 0.92067
 C3058 C 0.19229 0.30246 0.91580
 C3059 C 0.18328 0.28952 0.92424
 C3060 C 0.19108 0.27981 0.93694
 C3061 C 0.20814 0.28258 0.94185
 C3062 C 0.21778 0.29552 0.93395
 C3063 C 0.23499 0.29786 0.93967
 C3064 C 0.24223 0.28768 0.95246
 C3065 C 0.23268 0.27479 0.96003
 C3066 C 0.21560 0.27236 0.95467
 H3067 H 0.15839 0.30154 0.90308
 H3068 H 0.19500 0.34297 0.87351
 H3069 H 0.14688 0.31711 0.87973
 H3070 H 0.21894 0.33686 0.89236
 H3071 H 0.23220 0.32118 0.91481
 H3072 H 0.17014 0.28631 0.92123
 H3073 H 0.18365 0.26996 0.94294
 H3074 H 0.24327 0.30745 0.93461
 H3075 H 0.25547 0.28991 0.95638
 H3076 H 0.20803 0.26250 0.96051
 C3077 C 0.21087 0.84080 0.39379
 C3078 C 0.20538 0.82516 0.40064
 C3079 C 0.19034 0.81775 0.39341
 C3080 C 0.18143 0.82569 0.37980
 C3081 C 0.18726 0.84106 0.37304
 C3082 C 0.20199 0.84852 0.38029
 C3083 C 0.18429 0.80240 0.39970
 C3084 C 0.19289 0.79405 0.41293
 C3085 C 0.20803 0.80074 0.42047
 C3086 C 0.21434 0.81661 0.41427
 C3087 C 0.22946 0.82333 0.42182
 C3088 C 0.23825 0.81485 0.43479
 C3089 C 0.23241 0.79934 0.44086
 C3090 C 0.21718 0.79205 0.43392
 C3091 C 0.21187 0.77629 0.44071
 C3092 C 0.22140 0.76815 0.45358
 C3093 C 0.23653 0.77535 0.46022
 C3094 C 0.24188 0.79104 0.45382
 H3095 H 0.22204 0.84748 0.39844
 H3096 H 0.17004 0.81975 0.37438
 H3097 H 0.20683 0.86043 0.37548
 H3098 H 0.17278 0.79668 0.39428
 H3099 H 0.18729 0.78226 0.41688
 H3100 H 0.23502 0.83517 0.41797
 H3101 H 0.24985 0.82050 0.44008
 H3102 H 0.20046 0.76981 0.43636
 H3103 H 0.21690 0.75606 0.45827
 H3104 H 0.25354 0.79679 0.45886
 C3105 C 0.67274 0.69788 0.60295
 C3106 C 0.68782 0.69067 0.59556
 C3107 C 0.69434 0.67519 0.60248
 C3108 C 0.68620 0.66751 0.61623
 C3109 C 0.67145 0.67493 0.62353
 C3110 C 0.66476 0.69012 0.61668
 C3111 C 0.70906 0.66741 0.59575
 C3112 C 0.71766 0.67468 0.58232
 C3113 C 0.71189 0.69018 0.57501
 C3114 C 0.69667 0.69828 0.58169
 C3115 C 0.69088 0.71376 0.57434
 C3116 C 0.69960 0.72112 0.56101
 C3117 C 0.71444 0.71345 0.55442
 C3118 C 0.72085 0.69787 0.56126
 C3119 C 0.73602 0.69072 0.55401
 C3120 C 0.74432 0.69871 0.54062
 C3121 C 0.73787 0.71406 0.53397
 C3122 C 0.72290 0.72135 0.54097
 H3123 H 0.66676 0.70953 0.59853
 H3124 H 0.69152 0.65571 0.62133
 H3125 H 0.65335 0.69615 0.62201
 H3126 H 0.71405 0.65553 0.60098
 H3127 H 0.72889 0.66775 0.57800
 H3128 H 0.67959 0.72063 0.57859
 H3129 H 0.69466 0.73303 0.55581
 H3130 H 0.74190 0.67898 0.55833
 H3131 H 0.75587 0.69278 0.53547
 H3132 H 0.71775 0.73324 0.53592
 C3133 C 0.68988 0.17463 0.11213
 C3134 C 0.68386 0.18953 0.10370
 C3135 C 0.66917 0.19805 0.11050
 C3136 C 0.66117 0.19196 0.12522
 C3137 C 0.66747 0.17730 0.13352
 C3138 C 0.68183 0.16870 0.12672
 C3139 C 0.66255 0.21267 0.10266
 C3140 C 0.67022 0.21923 0.08825
 C3141 C 0.68500 0.21142 0.08104
 C3142 C 0.69192 0.19630 0.08888
 C3143 C 0.70677 0.18855 0.08175
 C3144 C 0.71472 0.19536 0.06764
 C3145 C 0.70824 0.21011 0.05994
 C3146 C 0.69321 0.21832 0.06636
 C3147 C 0.68718 0.23318 0.05784
 C3148 C 0.69592 0.23968 0.04387
 C3149 C 0.71093 0.23165 0.03782
 C3150 C 0.71690 0.21675 0.04587
 H3151 H 0.70082 0.16720 0.10788
 H3152 H 0.65003 0.19875 0.13024
 H3153 H 0.68701 0.15731 0.13275
 H3154 H 0.65129 0.21921 0.10776
 H3155 H 0.66424 0.23060 0.08315
 H3156 H 0.71277 0.17720 0.08685
 H3157 H 0.72618 0.18900 0.06275
 H3158 H 0.67580 0.24020 0.06164
 H3159 H 0.69095 0.25119 0.03790
 H3160 H 0.72847 0.21034 0.04130
 C3161 C 0.17140 0.69374 0.10515
 C3162 C 0.18625 0.68618 0.09771
 C3163 C 0.19303 0.67108 0.10525
 C3164 C 0.18519 0.66401 0.11956
 C3165 C 0.17061 0.67180 0.12685
 C3166 C 0.16379 0.68666 0.11942
 C3167 C 0.20772 0.66317 0.09860
 C3168 C 0.21614 0.67004 0.08480
 C3169 C 0.21013 0.68519 0.07694
 C3170 C 0.19471 0.69319 0.08328
 C3171 C 0.18831 0.70795 0.07500
 C3172 C 0.19684 0.71497 0.06136
 C3173 C 0.21213 0.70767 0.05539
 C3174 C 0.21902 0.69265 0.06300
 C3175 C 0.23469 0.68593 0.05642
 C3176 C 0.24309 0.69388 0.04306
 C3177 C 0.23623 0.70877 0.03572
 C3178 C 0.22065 0.71550 0.04191
 H3179 H 0.16540 0.70528 0.10046
 H3180 H 0.19065 0.65251 0.12517
 H3181 H 0.15254 0.69301 0.12472
 H3182 H 0.21290 0.65156 0.10424
 H3183 H 0.22738 0.66306 0.08057
 H3184 H 0.17661 0.71448 0.07869
 H3185 H 0.19145 0.72637 0.05550
 H3186 H 0.24098 0.67467 0.06141
 H3187 H 0.25512 0.68838 0.03856
 H3188 H 0.21518 0.72703 0.03635
 C3189 C 0.18311 0.16598 0.60837
 C3190 C 0.17678 0.18178 0.60201
 C3191 C 0.16194 0.18901 0.60982
 C3192 C 0.15408 0.18084 0.62350
 C3193 C 0.16075 0.16540 0.62984
 C3194 C 0.17523 0.15801 0.62202
 C3195 C 0.15505 0.20447 0.60410
 C3196 C 0.16269 0.21319 0.59094
 C3197 C 0.17768 0.20679 0.58290
 C3198 C 0.18474 0.19071 0.58839
 C3199 C 0.19959 0.18419 0.58018
 C3200 C 0.20748 0.19313 0.56731
 C3201 C 0.20098 0.20892 0.56204
 C3202 C 0.18595 0.21598 0.56964
 C3203 C 0.17996 0.23208 0.56372
 C3204 C 0.18864 0.24072 0.55101
 C3205 C 0.20356 0.23371 0.54370
 C3206 C 0.20959 0.21773 0.54924
 H3207 H 0.19423 0.15945 0.60325
 H3208 H 0.14284 0.18670 0.62935
 H3209 H 0.18068 0.14606 0.62656
 H3210 H 0.14364 0.21000 0.60996
 H3211 H 0.15646 0.22504 0.58744
 H3212 H 0.20557 0.17216 0.58342
 H3213 H 0.21892 0.18763 0.56148
 H3214 H 0.16869 0.23848 0.56867
 H3215 H 0.18365 0.25304 0.54698
 H3216 H 0.22112 0.21214 0.54366
   
