data_POSCAR
  _audit_creation_date              2014-09-24
  _audit_creation_method            'ToBaCCo'
  _symmetry_space_group_name_H-M    'P1'
  _symmetry_Int_Tables_number       1
  _symmetry_cell_setting            triclinic
  loop_
  _symmetry_equiv_pos_as_xyz
 x,y,z
_cell_length_a 88.8801
_cell_length_b 88.5858
_cell_length_c 89.1809
_cell_angle_alpha 89.799300
_cell_angle_beta 89.887600
_cell_angle_gamma 89.915900
loop_
  _atom_site_label
  _atom_site_type_symbol
  _atom_site_fract_x
  _atom_site_fract_y
  _atom_site_fract_z
N1 N 0.36479 0.32276 0.33301
 N2 N 0.36397 0.33295 0.32232
 C3 C 0.37571 0.33117 0.31294
 C4 C 0.38437 0.31918 0.31798
 C5 C 0.37704 0.31410 0.33076
 H6 H 0.37776 0.33809 0.30315
 H7 H 0.38044 0.30493 0.33803
 Cu8 Cu 0.34791 0.34784 0.32165
 Cu9 Cu 0.35010 0.32176 0.34913
 Cu10 Cu 0.32215 0.34907 0.34953
 N11 N 0.33261 0.36347 0.32264
 N12 N 0.32258 0.36403 0.33345
 C13 C 0.31363 0.37614 0.33127
 C14 C 0.31835 0.38361 0.31838
 C15 C 0.33044 0.37518 0.31327
 H16 H 0.30443 0.37926 0.33857
 H17 H 0.33725 0.37739 0.30347
 N18 N 0.32363 0.33294 0.36479
 N19 N 0.33428 0.32256 0.36455
 C20 C 0.33237 0.31317 0.37628
 C21 C 0.31990 0.31779 0.38439
 C22 C 0.31464 0.33039 0.37673
 H23 H 0.33955 0.30362 0.37866
 H24 H 0.30497 0.33721 0.37959
 H25 H 0.33242 0.33185 0.33780
 H26 H 0.34503 0.34464 0.34867
 N27 N 0.36525 0.82259 -0.16776
 N28 N 0.36511 0.83318 -0.17808
 C29 C 0.37702 0.83129 -0.18723
 C30 C 0.38512 0.81875 -0.18244
 C31 C 0.37720 0.81353 -0.17001
 H32 H 0.37951 0.83854 -0.19666
 H33 H 0.37996 0.80398 -0.16295
 Cu34 Cu 0.34957 0.84859 -0.17864
 Cu35 Cu 0.35018 0.82172 -0.15192
 Cu36 Cu 0.32276 0.84963 -0.15191
 N37 N 0.33439 0.86435 -0.17816
 N38 N 0.32388 0.86475 -0.16781
 C39 C 0.31493 0.87678 -0.17029
 C40 C 0.32012 0.88442 -0.18293
 C41 C 0.33254 0.87611 -0.18755
 H42 H 0.30535 0.87966 -0.16338
 H43 H 0.33973 0.87833 -0.19707
 N44 N 0.32357 0.83333 -0.13680
 N45 N 0.33403 0.82275 -0.13682
 C46 C 0.33177 0.81349 -0.12504
 C47 C 0.31927 0.81843 -0.11717
 C48 C 0.31435 0.83104 -0.12500
 H49 H 0.33872 0.80383 -0.12242
 H50 H 0.30488 0.83815 -0.12220
 H51 H 0.33316 0.83247 -0.16361
 H52 H 0.34554 0.84467 -0.15187
 N53 N 0.86448 0.32304 -0.16575
 N54 N 0.86341 0.33184 -0.17758
 C55 C 0.87518 0.32925 -0.18673
 C56 C 0.88416 0.31815 -0.18032
 C57 C 0.87695 0.31451 -0.16698
 H58 H 0.87698 0.33499 -0.19730
 H59 H 0.88035 0.30615 -0.15881
 Cu60 Cu 0.84669 0.34577 -0.17997
 Cu61 Cu 0.84929 0.32278 -0.14999
 Cu62 Cu 0.81945 0.34778 -0.15399
 N63 N 0.83323 0.36303 -0.17885
 N64 N 0.82249 0.36373 -0.16875
 C65 C 0.81435 0.37635 -0.17099
 C66 C 0.82033 0.38412 -0.18320
 C67 C 0.83240 0.37525 -0.18782
 H68 H 0.80470 0.37942 -0.16427
 H69 H 0.83986 0.37723 -0.19719
 N70 N 0.82124 0.33360 -0.13700
 N71 N 0.83267 0.32421 -0.13538
 C72 C 0.83060 0.31603 -0.12280
 C73 C 0.81725 0.32049 -0.11611
 C74 C 0.81165 0.33170 -0.12544
 H75 H 0.83825 0.30743 -0.11881
 H76 H 0.80126 0.33789 -0.12406
 H77 H 0.83171 0.32985 -0.16294
 H78 H 0.84231 0.34498 -0.15307
 N79 N 0.86519 0.82301 0.33214
 N80 N 0.86493 0.83377 0.32198
 C81 C 0.87663 0.83189 0.31256
 C82 C 0.88469 0.81926 0.31704
 C83 C 0.87704 0.81392 0.32954
 H84 H 0.87905 0.83915 0.30310
 H85 H 0.87993 0.80423 0.33635
 Cu86 Cu 0.84938 0.84921 0.32225
 Cu87 Cu 0.85028 0.82171 0.34812
 Cu88 Cu 0.82222 0.84903 0.34855
 N89 N 0.83363 0.86443 0.32248
 N90 N 0.82295 0.86425 0.33268
 C91 C 0.81361 0.87601 0.33029
 C92 C 0.81875 0.88411 0.31792
 C93 C 0.83152 0.87632 0.31330
 H94 H 0.80394 0.87849 0.33720
 H95 H 0.83877 0.87902 0.30396
 N96 N 0.82356 0.83266 0.36360
 N97 N 0.83424 0.82230 0.36337
 C98 C 0.83227 0.81285 0.37504
 C99 C 0.81975 0.81742 0.38309
 C100 C 0.81451 0.83005 0.37547
 H101 H 0.83956 0.80342 0.37758
 H102 H 0.80480 0.83681 0.37832
 H103 H 0.83307 0.83244 0.33658
 H104 H 0.84500 0.84455 0.34884
 N105 N 0.63613 0.67763 0.33145
 N106 N 0.63602 0.66629 0.32200
 C107 C 0.62397 0.66761 0.31297
 C108 C 0.61610 0.68054 0.31692
 C109 C 0.62420 0.68659 0.32873
 H110 H 0.62114 0.65974 0.30419
 H111 H 0.62176 0.69684 0.33480
 Cu112 Cu 0.65170 0.65097 0.32263
 Cu113 Cu 0.65206 0.68020 0.34625
 Cu114 Cu 0.67780 0.65084 0.34970
 N115 N 0.66730 0.63559 0.32327
 N116 N 0.67733 0.63548 0.33408
 C117 C 0.68659 0.62361 0.33220
 C118 C 0.68215 0.61581 0.31952
 C119 C 0.66984 0.62378 0.31415
 H120 H 0.69593 0.62098 0.33949
 H121 H 0.66315 0.62110 0.30442
 N122 N 0.67642 0.66760 0.36416
 N123 N 0.66669 0.67879 0.36281
 C124 C 0.66855 0.68837 0.37435
 C125 C 0.68006 0.68301 0.38338
 C126 C 0.68477 0.66982 0.37653
 H127 H 0.66207 0.69857 0.37598
 H128 H 0.69359 0.66233 0.38031
 H129 H 0.66897 0.66729 0.33630
 H130 H 0.65533 0.65734 0.34880
 N131 N 0.63762 0.17873 -0.16672
 N132 N 0.63681 0.16776 -0.17655
 C133 C 0.62446 0.16980 -0.18508
 C134 C 0.61714 0.18280 -0.18036
 C135 C 0.62589 0.18815 -0.16867
 H136 H 0.62107 0.16235 -0.19401
 H137 H 0.62398 0.19815 -0.16203
 Cu138 Cu 0.65193 0.15180 -0.17683
 Cu139 Cu 0.65394 0.18022 -0.15218
 Cu140 Cu 0.67825 0.14961 -0.15015
 N141 N 0.66703 0.13582 -0.17711
 N142 N 0.67698 0.13492 -0.16629
 C143 C 0.68587 0.12286 -0.16855
 C144 C 0.68135 0.11567 -0.18159
 C145 C 0.66929 0.12430 -0.18673
 H146 H 0.69504 0.11978 -0.16124
 H147 H 0.66258 0.12235 -0.19662
 N148 N 0.67783 0.16580 -0.13509
 N149 N 0.66876 0.17758 -0.13591
 C150 C 0.67152 0.18673 -0.12418
 C151 C 0.68297 0.18046 -0.11565
 C152 C 0.68663 0.16718 -0.12292
 H153 H 0.66578 0.19729 -0.12216
 H154 H 0.69513 0.15910 -0.11964
 H155 H 0.67006 0.16697 -0.16288
 H156 H 0.65610 0.15724 -0.15054
 N157 N 0.13584 0.67834 -0.16772
 N158 N 0.13589 0.66772 -0.17796
 C159 C 0.12345 0.66906 -0.18643
 C160 C 0.11514 0.68128 -0.18133
 C161 C 0.12341 0.68688 -0.16939
 H162 H 0.12094 0.66191 -0.19589
 H163 H 0.12077 0.69659 -0.16255
 Cu164 Cu 0.15273 0.65389 -0.18020
 Cu165 Cu 0.15248 0.68075 -0.15376
 Cu166 Cu 0.17697 0.65031 -0.15140
 N167 N 0.16639 0.63684 -0.17862
 N168 N 0.17575 0.63537 -0.16734
 C169 C 0.18400 0.62277 -0.16927
 C170 C 0.17957 0.61591 -0.18251
 C171 C 0.16831 0.62521 -0.18810
 H172 H 0.19270 0.61902 -0.16166
 H173 H 0.16207 0.62380 -0.19838
 N174 N 0.17648 0.66669 -0.13651
 N175 N 0.16732 0.67838 -0.13753
 C176 C 0.16985 0.68768 -0.12588
 C177 C 0.18120 0.68159 -0.11708
 C178 C 0.18511 0.66827 -0.12423
 H179 H 0.16378 0.69807 -0.12395
 H180 H 0.19372 0.66036 -0.12085
 H181 H 0.16961 0.66820 -0.16380
 H182 H 0.15479 0.65764 -0.15329
 N183 N 0.13545 0.17678 0.33294
 N184 N 0.13598 0.16607 0.32280
 C185 C 0.12437 0.16789 0.31325
 C186 C 0.11610 0.18044 0.31764
 C187 C 0.12354 0.18577 0.33020
 H188 H 0.12215 0.16065 0.30379
 H189 H 0.12048 0.19539 0.33697
 Cu190 Cu 0.15172 0.15073 0.32319
 Cu191 Cu 0.15009 0.17823 0.34908
 Cu192 Cu 0.17819 0.15109 0.35008
 N193 N 0.16763 0.13555 0.32390
 N194 N 0.17792 0.13581 0.33445
 C195 C 0.18746 0.12418 0.33248
 C196 C 0.18296 0.11609 0.32000
 C197 C 0.17030 0.12368 0.31485
 H198 H 0.19691 0.12177 0.33971
 H199 H 0.16357 0.12084 0.30519
 N200 N 0.17661 0.16744 0.36491
 N201 N 0.16592 0.17777 0.36454
 C202 C 0.16777 0.18722 0.37619
 C203 C 0.18025 0.18264 0.38433
 C204 C 0.18556 0.17006 0.37679
 H205 H 0.16059 0.19678 0.37853
 H206 H 0.19514 0.16319 0.37983
 H207 H 0.16746 0.16775 0.33777
 H208 H 0.15532 0.15553 0.34985
 N209 N 0.63679 0.32240 0.66755
 N210 N 0.63663 0.33333 0.67747
 C211 C 0.62436 0.33193 0.68621
 C212 C 0.61637 0.31931 0.68169
 C213 C 0.62464 0.31357 0.66974
 H214 H 0.62163 0.33943 0.69535
 H215 H 0.62218 0.30361 0.66323
 Cu216 Cu 0.65294 0.34785 0.67829
 Cu217 Cu 0.65325 0.32023 0.65304
 Cu218 Cu 0.67849 0.35031 0.65097
 N219 N 0.66723 0.36439 0.67780
 N220 N 0.67727 0.36527 0.66701
 C221 C 0.68591 0.37753 0.66921
 C222 C 0.68104 0.38476 0.68211
 C223 C 0.66909 0.37609 0.68721
 H224 H 0.69505 0.38090 0.66193
 H225 H 0.66239 0.37800 0.69715
 N226 N 0.67779 0.33394 0.63598
 N227 N 0.66835 0.32246 0.63678
 C228 C 0.67081 0.31328 0.62500
 C229 C 0.68240 0.31922 0.61635
 C230 C 0.68648 0.33234 0.62371
 H231 H 0.66462 0.30302 0.62290
 H232 H 0.69519 0.34017 0.62043
 H233 H 0.67035 0.33253 0.66324
 H234 H 0.65634 0.34307 0.65181
 N235 N 0.63647 0.82279 1.16877
 N236 N 0.63688 0.83376 1.17861
 C237 C 0.62457 0.83295 1.18740
 C238 C 0.61599 0.82071 1.18286
 C239 C 0.62396 0.81455 1.17098
 H240 H 0.62222 0.84057 1.19655
 H241 H 0.62115 0.80458 1.16463
 Cu242 Cu 0.65397 0.84740 1.17968
 Cu243 Cu 0.65270 0.81940 1.15454
 Cu244 Cu 0.67743 0.84936 1.15001
 N245 N 0.66817 0.86388 1.17727
 N246 N 0.67716 0.86472 1.16559
 C247 C 0.68588 0.87705 1.16687
 C248 C 0.68218 0.88440 1.18009
 C249 C 0.67083 0.87567 1.18636
 H250 H 0.69445 0.88023 1.15886
 H251 H 0.66499 0.87762 1.19681
 N252 N 0.67600 0.83254 1.13565
 N253 N 0.66681 0.82102 1.13759
 C254 C 0.66866 0.81125 1.12622
 C255 C 0.67962 0.81680 1.11661
 C256 C 0.68401 0.83035 1.12300
 H257 H 0.66246 0.80083 1.12511
 H258 H 0.69250 0.83801 1.11884
 H259 H 0.67033 0.83211 1.16341
 H260 H 0.65528 0.84235 1.15295
 N261 N 0.13622 0.32267 1.16741
 N262 N 0.13712 0.33260 1.17828
 C263 C 0.12508 0.33120 1.18730
 C264 C 0.11608 0.31966 1.18193
 C265 C 0.12355 0.31452 1.16922
 H266 H 0.12320 0.33799 1.19717
 H267 H 0.12027 0.30530 1.16203
 Cu268 Cu 0.15416 0.34607 1.18016
 Cu269 Cu 0.15224 0.32064 1.15250
 Cu270 Cu 0.17991 0.34829 1.15282
 N271 N 0.16767 0.36316 1.17857
 N272 N 0.17771 0.36415 1.16779
 C273 C 0.18585 0.37681 1.16972
 C274 C 0.18059 0.38418 1.18242
 C275 C 0.16899 0.37515 1.18767
 H276 H 0.19515 0.38015 1.16262
 H277 H 0.16208 0.37699 1.19747
 N278 N 0.17820 0.33308 1.13678
 N279 N 0.16771 0.32253 1.13663
 C280 C 0.16972 0.31382 1.12443
 C281 C 0.18207 0.31911 1.11648
 C282 C 0.18711 0.33136 1.12468
 H283 H 0.16269 0.30432 1.12156
 H284 H 0.19672 0.33839 1.12217
 H285 H 0.16984 0.33040 1.16363
 H286 H 0.15711 0.34343 1.15325
 N287 N 0.13468 0.82368 0.66741
 N288 N 0.13521 0.83437 0.67756
 C289 C 0.12366 0.83259 0.68718
 C290 C 0.11540 0.82010 0.68285
 C291 C 0.12276 0.81473 0.67022
 H292 H 0.12137 0.83994 0.69656
 H293 H 0.11976 0.80501 0.66359
 Cu294 Cu 0.15085 0.84962 0.67708
 Cu295 Cu 0.14940 0.82231 0.65125
 Cu296 Cu 0.17754 0.84949 0.65036
 N297 N 0.16661 0.86474 0.67661
 N298 N 0.17706 0.86468 0.66617
 C299 C 0.18637 0.87645 0.66838
 C300 C 0.18145 0.88435 0.68089
 C301 C 0.16890 0.87651 0.68580
 H302 H 0.19588 0.87914 0.66130
 H303 H 0.16193 0.87915 0.69537
 N304 N 0.17598 0.83317 0.63542
 N305 N 0.16529 0.82286 0.63581
 C306 C 0.16719 0.81337 0.62421
 C307 C 0.17967 0.81788 0.61603
 C308 C 0.18496 0.83049 0.62352
 H309 H 0.15999 0.80385 0.62194
 H310 H 0.19462 0.83727 0.62054
 H311 H 0.16679 0.83283 0.66247
 H312 H 0.15471 0.84509 0.65041
 N313 N 0.36491 0.67841 0.66683
 N314 N 0.36468 0.66824 0.67758
 C315 C 0.37646 0.67057 0.68676
 C316 C 0.38454 0.68287 0.68146
 C317 C 0.37682 0.68753 0.66878
 H318 H 0.37906 0.66370 0.69645
 H319 H 0.37959 0.69690 0.66150
 Cu320 Cu 0.34918 0.65276 0.67839
 Cu321 Cu 0.34997 0.67894 0.65099
 Cu322 Cu 0.32274 0.65103 0.65131
 N323 N 0.33417 0.63682 0.67796
 N324 N 0.32388 0.63618 0.66742
 C325 C 0.31512 0.62402 0.66982
 C326 C 0.32019 0.61657 0.68255
 C327 C 0.33232 0.62508 0.68738
 H328 H 0.30578 0.62088 0.66277
 H329 H 0.33935 0.62289 0.69701
 N330 N 0.32354 0.66709 0.63596
 N331 N 0.33396 0.67768 0.63587
 C332 C 0.33172 0.68680 0.62399
 C333 C 0.31928 0.68177 0.61616
 C334 C 0.31437 0.66924 0.62413
 H335 H 0.33862 0.69647 0.62130
 H336 H 0.30492 0.66209 0.62141
 H337 H 0.33280 0.66839 0.66283
 H338 H 0.34542 0.65593 0.65150
 N339 N 0.36539 0.17685 1.16703
 N340 N 0.36506 0.16614 1.17723
 C341 C 0.37666 0.16801 1.18671
 C342 C 0.38477 0.18060 1.18224
 C343 C 0.37724 0.18592 1.16967
 H344 H 0.37897 0.16075 1.19617
 H345 H 0.38009 0.19567 1.16293
 Cu346 Cu 0.34952 0.15078 1.17714
 Cu347 Cu 0.35043 0.17811 1.15110
 Cu348 Cu 0.32250 0.15068 1.15088
 N349 N 0.33386 0.13556 1.17707
 N350 N 0.32330 0.13547 1.16678
 C351 C 0.31406 0.12368 1.16932
 C352 C 0.31910 0.11599 1.18193
 C353 C 0.33169 0.12389 1.18650
 H354 H 0.30435 0.12101 1.16256
 H355 H 0.33886 0.12125 1.19592
 N356 N 0.32372 0.16703 1.13582
 N357 N 0.33434 0.17743 1.13594
 C358 C 0.33224 0.18684 1.12425
 C359 C 0.31970 0.18219 1.11633
 C360 C 0.31458 0.16958 1.12404
 H361 H 0.33932 0.19642 1.12174
 H362 H 0.30501 0.16267 1.12120
 H363 H 0.33325 0.16743 1.16269
 H364 H 0.34527 0.15528 1.15051
 N365 N 0.86495 0.67724 1.16569
 N366 N 0.86465 0.66752 1.17682
 C367 C 0.87653 0.67004 1.18584
 C368 C 0.88470 0.68206 1.18008
 C369 C 0.87697 0.68633 1.16725
 H370 H 0.87902 0.66356 1.19581
 H371 H 0.87971 0.69547 1.15968
 Cu372 Cu 0.84901 0.65227 1.17851
 Cu373 Cu 0.84949 0.67777 1.15024
 Cu374 Cu 0.81959 0.65314 1.15486
 N375 N 0.83404 0.63624 1.17818
 N376 N 0.82262 0.63667 1.16893
 C377 C 0.81375 0.62463 1.17136
 C378 C 0.81997 0.61604 1.18281
 C379 C 0.83291 0.62378 1.18684
 H380 H 0.80349 0.62243 1.16528
 H381 H 0.84078 0.62077 1.19557
 N382 N 0.82108 0.66742 1.13803
 N383 N 0.83259 0.67658 1.13603
 C384 C 0.83038 0.68460 1.12336
 C385 C 0.81683 0.68024 1.11703
 C386 C 0.81130 0.66928 1.12669
 H387 H 0.83807 0.69303 1.11911
 H388 H 0.80093 0.66304 1.12559
 H389 H 0.83326 0.66998 1.16429
 H390 H 0.84259 0.65547 1.15223
 N391 N 0.86481 0.17798 0.66643
 N392 N 0.86516 0.16737 0.67674
 C393 C 0.87695 0.16988 0.68590
 C394 C 0.88434 0.18279 0.68103
 C395 C 0.87628 0.18757 0.66863
 H396 H 0.87985 0.16292 0.69544
 H397 H 0.87864 0.19723 0.66158
 Cu398 Cu 0.85011 0.15141 0.67694
 Cu399 Cu 0.84971 0.17865 0.65074
 Cu400 Cu 0.82248 0.15074 0.65107
 N401 N 0.83456 0.13595 0.67722
 N402 N 0.82382 0.13579 0.66711
 C403 C 0.81470 0.12396 0.66979
 C404 C 0.81999 0.11623 0.68226
 C405 C 0.83263 0.12422 0.68667
 H406 H 0.80503 0.12115 0.66303
 H407 H 0.83986 0.12173 0.69608
 N408 N 0.82318 0.16692 0.63580
 N409 N 0.83358 0.17751 0.63577
 C410 C 0.83133 0.18672 0.62396
 C411 C 0.81890 0.18174 0.61608
 C412 C 0.81401 0.16913 0.62397
 H413 H 0.83833 0.19631 0.62130
 H414 H 0.80455 0.16201 0.62124
 H415 H 0.83300 0.16758 0.66285
 H416 H 0.84506 0.15567 0.65041
 N417 N 0.32369 0.36427 0.66679
 N418 N 0.33440 0.36363 0.67690
 C419 C 0.33270 0.37523 0.68649
 C420 C 0.32023 0.38363 0.68217
 C421 C 0.31482 0.37626 0.66959
 H422 H 0.34004 0.37742 0.69587
 H423 H 0.30515 0.37934 0.66293
 Cu424 Cu 0.34959 0.34777 0.67641
 Cu425 Cu 0.32210 0.34963 0.65061
 Cu426 Cu 0.34900 0.32125 0.64958
 N427 N 0.36467 0.33181 0.67569
 N428 N 0.36432 0.32146 0.66518
 C429 C 0.37593 0.31189 0.66714
 C430 C 0.38407 0.31645 0.67958
 C431 C 0.37654 0.32917 0.68470
 H432 H 0.37829 0.30239 0.65995
 H433 H 0.37945 0.33597 0.69428
 N434 N 0.33263 0.32295 0.63478
 N435 N 0.32242 0.33377 0.63514
 C436 C 0.31298 0.33199 0.62348
 C437 C 0.31743 0.31943 0.61536
 C438 C 0.32994 0.31401 0.62291
 H439 H 0.30351 0.33927 0.62112
 H440 H 0.33672 0.30435 0.61988
 H441 H 0.33248 0.33210 0.66188
 H442 H 0.34469 0.34419 0.64977
 N443 N 0.32180 0.86371 0.16500
 N444 N 0.33200 0.86350 0.17564
 C445 C 0.32961 0.87530 0.18486
 C446 C 0.31722 0.88334 0.17972
 C447 C 0.31259 0.87558 0.16708
 H448 H 0.33643 0.87787 0.19453
 H449 H 0.30320 0.87828 0.15988
 Cu450 Cu 0.34748 0.84786 0.17626
 Cu451 Cu 0.32116 0.84879 0.14906
 Cu452 Cu 0.34895 0.82147 0.14918
 N453 N 0.36336 0.83260 0.17579
 N454 N 0.36374 0.82238 0.16516
 C455 C 0.37566 0.81329 0.16729
 C456 C 0.38330 0.81797 0.17996
 C457 C 0.37513 0.83032 0.18507
 H458 H 0.37853 0.80398 0.16003
 H459 H 0.37753 0.83712 0.19481
 N460 N 0.33303 0.82237 0.13390
 N461 N 0.32240 0.83276 0.13386
 C462 C 0.31331 0.83044 0.12202
 C463 C 0.31847 0.81798 0.11419
 C464 C 0.33100 0.81317 0.12209
 H465 H 0.30373 0.83742 0.11922
 H466 H 0.33810 0.80362 0.11950
 H467 H 0.33162 0.83165 0.16087
 H468 H 0.34397 0.84429 0.14940
 N469 N 0.82306 0.36439 0.16676
 N470 N 0.83351 0.36371 0.17714
 C471 C 0.83167 0.37537 0.18664
 C472 C 0.81937 0.38380 0.18198
 C473 C 0.81421 0.37644 0.16931
 H474 H 0.83870 0.37749 0.19627
 H475 H 0.80480 0.37967 0.16235
 Cu476 Cu 0.84857 0.34773 0.17725
 Cu477 Cu 0.82180 0.34975 0.15062
 Cu478 Cu 0.84896 0.32172 0.14976
 N479 N 0.86403 0.33218 0.17622
 N480 N 0.86411 0.32207 0.16548
 C481 C 0.87598 0.31282 0.16736
 C482 C 0.88384 0.31734 0.17998
 C483 C 0.87588 0.32970 0.18530
 H484 H 0.87861 0.30345 0.16009
 H485 H 0.87857 0.33647 0.19497
 N486 N 0.83271 0.32325 0.13483
 N487 N 0.82238 0.33394 0.13516
 C488 C 0.81300 0.33209 0.12348
 C489 C 0.81762 0.31961 0.11534
 C490 C 0.83016 0.31430 0.12292
 H491 H 0.80346 0.33928 0.12112
 H492 H 0.83704 0.30471 0.11992
 H493 H 0.83209 0.33213 0.16190
 H494 H 0.84453 0.34465 0.15041
 N495 N 0.82236 0.86496 0.66555
 N496 N 0.83263 0.86465 0.67611
 C497 C 0.83041 0.87649 0.68533
 C498 C 0.81807 0.88466 0.68022
 C499 C 0.81329 0.87691 0.66765
 H500 H 0.83727 0.87898 0.69500
 H501 H 0.80384 0.87963 0.66055
 Cu502 Cu 0.84782 0.84871 0.67664
 Cu503 Cu 0.82128 0.84999 0.64975
 Cu504 Cu 0.84853 0.82215 0.64956
 N505 N 0.86344 0.83322 0.67594
 N506 N 0.86359 0.82294 0.66536
 C507 C 0.87548 0.81376 0.66739
 C508 C 0.88331 0.81848 0.67995
 C509 C 0.87529 0.83089 0.68509
 H510 H 0.87814 0.80429 0.66026
 H511 H 0.87794 0.83780 0.69469
 N512 N 0.83235 0.82327 0.63452
 N513 N 0.82197 0.83392 0.63464
 C514 C 0.81261 0.83183 0.62300
 C515 C 0.81729 0.81924 0.61506
 C516 C 0.82986 0.81411 0.62275
 H517 H 0.80310 0.83899 0.62049
 H518 H 0.83676 0.80447 0.61996
 H519 H 0.83162 0.83263 0.66147
 H520 H 0.84410 0.84500 0.64983
 N521 N 0.67730 0.63567 0.66669
 N522 N 0.66663 0.63587 0.67691
 C523 C 0.66860 0.62413 0.68633
 C524 C 0.68120 0.61609 0.68181
 C525 C 0.68643 0.62381 0.66928
 H526 H 0.66142 0.62167 0.69582
 H527 H 0.69606 0.62096 0.66245
 Cu528 Cu 0.65110 0.65136 0.67678
 Cu529 Cu 0.67846 0.65069 0.65065
 Cu530 Cu 0.65092 0.67849 0.65052
 N531 N 0.63578 0.66707 0.67667
 N532 N 0.63583 0.67764 0.66631
 C533 C 0.62405 0.68691 0.66850
 C534 C 0.61612 0.68194 0.68095
 C535 C 0.62393 0.66930 0.68586
 H536 H 0.62152 0.69659 0.66154
 H537 H 0.62110 0.66214 0.69528
 N538 N 0.66708 0.67747 0.63547
 N539 N 0.67757 0.66692 0.63543
 C540 C 0.68673 0.66923 0.62357
 C541 C 0.68174 0.68184 0.61575
 C542 C 0.66926 0.68672 0.62369
 H543 H 0.69628 0.66220 0.62083
 H544 H 0.66215 0.69624 0.62103
 H545 H 0.66785 0.66764 0.66236
 H546 H 0.65580 0.65560 0.65016
 N547 N 0.67691 0.13581 0.16709
 N548 N 0.66651 0.13654 0.17755
 C549 C 0.66833 0.12493 0.18714
 C550 C 0.68056 0.11642 0.18251
 C551 C 0.68572 0.12370 0.16970
 H552 H 0.66118 0.12279 0.19672
 H553 H 0.69524 0.12053 0.16284
 Cu554 Cu 0.65140 0.15241 0.17783
 Cu555 Cu 0.67819 0.15062 0.15092
 Cu556 Cu 0.65082 0.17847 0.15036
 N557 N 0.63576 0.16775 0.17675
 N558 N 0.63562 0.17789 0.16598
 C559 C 0.62360 0.18695 0.16776
 C560 C 0.61571 0.18226 0.18034
 C561 C 0.62380 0.17002 0.18576
 H562 H 0.62088 0.19630 0.16043
 H563 H 0.62110 0.16316 0.19543
 N564 N 0.66705 0.17729 0.13544
 N565 N 0.67749 0.16670 0.13554
 C566 C 0.68673 0.16888 0.12371
 C567 C 0.68181 0.18143 0.11577
 C568 C 0.66934 0.18645 0.12361
 H569 H 0.69621 0.16174 0.12099
 H570 H 0.66240 0.19610 0.12092
 H571 H 0.66797 0.16793 0.16233
 H572 H 0.65552 0.15543 0.15096
 N573 N 0.17670 0.63558 0.16486
 N574 N 0.16758 0.63678 0.17639
 C575 C 0.17004 0.62512 0.18583
 C576 C 0.18139 0.61614 0.17989
 C577 C 0.18527 0.62319 0.16654
 H578 H 0.16414 0.62344 0.19630
 H579 H 0.19386 0.61974 0.15867
 Cu580 Cu 0.15352 0.65357 0.17805
 Cu581 Cu 0.17758 0.65056 0.14894
 Cu582 Cu 0.15394 0.68144 0.15226
 N583 N 0.13720 0.66818 0.17647
 N584 N 0.13745 0.67901 0.16638
 C585 C 0.12520 0.68777 0.16809
 C586 C 0.11672 0.68214 0.17990
 C587 C 0.12472 0.66966 0.18494
 H588 H 0.12288 0.69769 0.16139
 H589 H 0.12178 0.66224 0.19414
 N590 N 0.16818 0.67895 0.13553
 N591 N 0.17692 0.66700 0.13409
 C592 C 0.18516 0.66848 0.12150
 C593 C 0.18145 0.68201 0.11460
 C594 C 0.17059 0.68833 0.12385
 H595 H 0.19340 0.66034 0.11777
 H596 H 0.16480 0.69894 0.12224
 H597 H 0.17076 0.66818 0.16199
 H598 H 0.15561 0.65842 0.15128
 N599 N 0.17735 0.13571 0.66633
 N600 N 0.16700 0.13595 0.67685
 C601 C 0.16914 0.12417 0.68618
 C602 C 0.18154 0.11607 0.68126
 C603 C 0.18648 0.12378 0.66862
 H604 H 0.16223 0.12171 0.69586
 H605 H 0.19591 0.12090 0.66152
 Cu606 Cu 0.15140 0.15131 0.67707
 Cu607 Cu 0.17817 0.15088 0.65046
 Cu608 Cu 0.15270 0.18058 0.65330
 N609 N 0.13588 0.16679 0.67712
 N610 N 0.13641 0.17822 0.66774
 C611 C 0.12454 0.18733 0.67024
 C612 C 0.11603 0.18125 0.68184
 C613 C 0.12362 0.16818 0.68589
 H614 H 0.12235 0.19761 0.66407
 H615 H 0.12056 0.16033 0.69468
 N616 N 0.16753 0.17886 0.63692
 N617 N 0.17711 0.16752 0.63574
 C618 C 0.18549 0.16950 0.62329
 C619 C 0.18093 0.18268 0.61623
 C620 C 0.16950 0.18828 0.62521
 H621 H 0.19418 0.16183 0.61956
 H622 H 0.16311 0.19850 0.62339
 H623 H 0.16929 0.16736 0.66362
 H624 H 0.15578 0.15761 0.65095
 N625 N 0.32209 0.63623 0.33446
 N626 N 0.33267 0.63598 0.32415
 C627 C 0.33020 0.62419 0.31494
 C628 C 0.31738 0.61664 0.31978
 C629 C 0.31260 0.62467 0.33221
 H630 H 0.33716 0.62137 0.30541
 H631 H 0.30298 0.62226 0.33924
 Cu632 Cu 0.34865 0.65109 0.32393
 Cu633 Cu 0.32131 0.65133 0.35024
 Cu634 Cu 0.34897 0.67870 0.34975
 N635 N 0.36390 0.66696 0.32360
 N636 N 0.36382 0.67765 0.33378
 C637 C 0.37544 0.68701 0.33132
 C638 C 0.38336 0.68205 0.31889
 C639 C 0.37565 0.66924 0.31426
 H640 H 0.37796 0.69666 0.33823
 H641 H 0.37840 0.66210 0.30484
 N642 N 0.33303 0.67795 0.36506
 N643 N 0.32244 0.66755 0.36525
 C644 C 0.31336 0.66997 0.37711
 C645 C 0.31850 0.68250 0.38481
 C646 C 0.33099 0.68725 0.37680
 H647 H 0.30383 0.66300 0.38004
 H648 H 0.33807 0.69681 0.37929
 H649 H 0.33209 0.66787 0.33796
 H650 H 0.34403 0.65588 0.35048
 N651 N 0.32214 0.13518 0.83386
 N652 N 0.33253 0.13531 0.82337
 C653 C 0.33034 0.12348 0.81417
 C654 C 0.31787 0.11550 0.81918
 C655 C 0.31298 0.12332 0.83170
 H656 H 0.33738 0.12078 0.80465
 H657 H 0.30344 0.12066 0.83875
 Cu658 Cu 0.34802 0.15082 0.82322
 Cu659 Cu 0.32133 0.15025 0.84967
 Cu660 Cu 0.34903 0.17790 0.84959
 N661 N 0.36351 0.16631 0.82308
 N662 N 0.36395 0.17683 0.83342
 C663 C 0.37585 0.18588 0.83076
 C664 C 0.38332 0.18074 0.81806
 C665 C 0.37509 0.16827 0.81355
 H666 H 0.37882 0.19546 0.83761
 H667 H 0.37740 0.16109 0.80405
 N668 N 0.33285 0.17688 0.86488
 N669 N 0.32234 0.16637 0.86475
 C670 C 0.31297 0.16857 0.87640
 C671 C 0.31771 0.18108 0.88433
 C672 C 0.33040 0.18605 0.87669
 H673 H 0.30345 0.16147 0.87900
 H674 H 0.33725 0.19572 0.87944
 H675 H 0.33200 0.16756 0.83796
 H676 H 0.34413 0.15526 0.84990
 N677 N 0.82258 0.63602 0.83439
 N678 N 0.83320 0.63590 0.82412
 C679 C 0.83093 0.62411 0.81489
 C680 C 0.81822 0.61638 0.81968
 C681 C 0.81324 0.62433 0.83208
 H682 H 0.83809 0.62126 0.80551
 H683 H 0.80351 0.62187 0.83894
 Cu684 Cu 0.84908 0.65106 0.82406
 Cu685 Cu 0.82160 0.65112 0.85017
 Cu686 Cu 0.84920 0.67860 0.84987
 N687 N 0.86439 0.66679 0.82392
 N688 N 0.86424 0.67749 0.83409
 C689 C 0.87592 0.68681 0.83173
 C690 C 0.88394 0.68175 0.81941
 C691 C 0.87624 0.66899 0.81470
 H692 H 0.87830 0.69660 0.83850
 H693 H 0.87910 0.66180 0.80536
 N694 N 0.83308 0.67786 0.86497
 N695 N 0.82256 0.66738 0.86517
 C696 C 0.81344 0.66980 0.87701
 C697 C 0.81848 0.68241 0.88467
 C698 C 0.83095 0.68721 0.87663
 H699 H 0.80394 0.66278 0.87993
 H700 H 0.83801 0.69678 0.87909
 H701 H 0.83241 0.66773 0.83806
 H702 H 0.84433 0.65576 0.85060
 N703 N 0.82207 0.13630 0.33220
 N704 N 0.83314 0.13617 0.32244
 C705 C 0.83200 0.12371 0.31390
 C706 C 0.81942 0.11562 0.31848
 C707 C 0.81343 0.12403 0.33017
 H708 H 0.83953 0.12103 0.30477
 H709 H 0.80338 0.12162 0.33658
 Cu710 Cu 0.84717 0.15294 0.32093
 Cu711 Cu 0.81916 0.15295 0.34606
 Cu712 Cu 0.84932 0.17758 0.34963
 N713 N 0.86374 0.16711 0.32271
 N714 N 0.86458 0.17672 0.33387
 C715 C 0.87694 0.18534 0.33203
 C716 C 0.88429 0.18083 0.31905
 C717 C 0.87555 0.16919 0.31349
 H718 H 0.88026 0.19426 0.33956
 H719 H 0.87748 0.16285 0.30333
 N720 N 0.83256 0.17664 0.36421
 N721 N 0.82102 0.16744 0.36262
 C722 C 0.81140 0.16946 0.37410
 C723 C 0.81705 0.18054 0.38345
 C724 C 0.83052 0.18483 0.37678
 H725 H 0.80105 0.16325 0.37549
 H726 H 0.83826 0.19331 0.38074
 H727 H 0.83223 0.17018 0.33658
 H728 H 0.84221 0.15534 0.34763
 N729 N 0.67694 0.36404 0.33399
 N730 N 0.66637 0.36419 0.32369
 C731 C 0.66864 0.37604 0.31446
 C732 C 0.68130 0.38378 0.31925
 C733 C 0.68624 0.37577 0.33168
 H734 H 0.66151 0.37893 0.30508
 H735 H 0.69593 0.37823 0.33854
 Cu736 Cu 0.65052 0.34902 0.32363
 Cu737 Cu 0.67784 0.34883 0.34981
 Cu738 Cu 0.65017 0.32140 0.34949
 N739 N 0.63520 0.33329 0.32346
 N740 N 0.63525 0.32257 0.33367
 C741 C 0.62362 0.31324 0.33128
 C742 C 0.61570 0.31833 0.31889
 C743 C 0.62344 0.33111 0.31418
 H744 H 0.62119 0.30344 0.33809
 H745 H 0.62069 0.33831 0.30477
 N746 N 0.66617 0.32203 0.36464
 N747 N 0.67673 0.33246 0.36485
 C748 C 0.68581 0.32989 0.37668
 C749 C 0.68070 0.31721 0.38429
 C750 C 0.66822 0.31257 0.37628
 H751 H 0.69545 0.33672 0.37952
 H752 H 0.66102 0.30309 0.37883
 H753 H 0.66713 0.33231 0.33771
 H754 H 0.65515 0.34425 0.35018
 N755 N 0.67700 0.86440 0.83336
 N756 N 0.66621 0.86435 0.82331
 C757 C 0.66814 0.87621 0.81398
 C758 C 0.68079 0.88414 0.81851
 C759 C 0.68610 0.87623 0.83082
 H760 H 0.66076 0.87901 0.80476
 H761 H 0.69587 0.87885 0.83750
 Cu762 Cu 0.65058 0.84893 0.82386
 Cu763 Cu 0.67840 0.84947 0.84932
 Cu764 Cu 0.65109 0.82170 0.85032
 N765 N 0.63547 0.83301 0.82433
 N766 N 0.63580 0.82248 0.83473
 C767 C 0.62421 0.81298 0.83267
 C768 C 0.61607 0.81776 0.82029
 C769 C 0.62361 0.83054 0.81527
 H770 H 0.62198 0.80327 0.83968
 H771 H 0.62067 0.83754 0.80577
 N772 N 0.66752 0.82288 0.86507
 N773 N 0.67794 0.83345 0.86464
 C774 C 0.68738 0.83144 0.87626
 C775 C 0.68270 0.81900 0.88448
 C776 C 0.67007 0.81385 0.87699
 H777 H 0.69694 0.83857 0.87857
 H778 H 0.66310 0.80436 0.88009
 H779 H 0.66742 0.83241 0.83788
 H780 H 0.65562 0.84449 0.85039
 N781 N 0.17648 0.36435 0.83288
 N782 N 0.16584 0.36376 0.82271
 C783 C 0.16753 0.37537 0.81308
 C784 C 0.17995 0.38374 0.81742
 C785 C 0.18534 0.37634 0.83004
 H786 H 0.16021 0.37761 0.80367
 H787 H 0.19500 0.37937 0.83671
 Cu788 Cu 0.15062 0.34802 0.82321
 Cu789 Cu 0.17799 0.34962 0.84910
 Cu790 Cu 0.15090 0.32144 0.85020
 N791 N 0.13551 0.33219 0.82391
 N792 N 0.13565 0.32187 0.83453
 C793 C 0.12391 0.31251 0.83257
 C794 C 0.11591 0.31721 0.82005
 C795 C 0.12366 0.32975 0.81485
 H796 H 0.12145 0.30296 0.83972
 H797 H 0.12078 0.33671 0.80529
 N798 N 0.16726 0.32298 0.86504
 N799 N 0.17755 0.33369 0.86462
 C800 C 0.18701 0.33178 0.87625
 C801 C 0.18248 0.31925 0.88444
 C802 C 0.16991 0.31398 0.87695
 H803 H 0.19652 0.33898 0.87855
 H804 H 0.16307 0.30437 0.88002
 H805 H 0.16756 0.33213 0.83799
 H806 H 0.15540 0.34430 0.84996
 N807 N 0.17608 0.86416 0.33291
 N808 N 0.16538 0.86357 0.32279
 C809 C 0.16711 0.87515 0.31311
 C810 C 0.17959 0.88349 0.31739
 C811 C 0.18496 0.87611 0.33003
 H812 H 0.15983 0.87732 0.30367
 H813 H 0.19458 0.87920 0.33674
 Cu814 Cu 0.15020 0.84773 0.32337
 Cu815 Cu 0.17767 0.84955 0.34919
 Cu816 Cu 0.15079 0.82126 0.35045
 N817 N 0.13516 0.83177 0.32422
 N818 N 0.13554 0.82144 0.33482
 C819 C 0.12404 0.81180 0.33290
 C820 C 0.11593 0.81628 0.32040
 C821 C 0.12334 0.82903 0.31518
 H822 H 0.12170 0.80231 0.34017
 H823 H 0.12044 0.83573 0.30545
 N824 N 0.16711 0.82298 0.36526
 N825 N 0.17734 0.83374 0.36479
 C826 C 0.18678 0.83198 0.37647
 C827 C 0.18229 0.81949 0.38473
 C828 C 0.16978 0.81408 0.37724
 H829 H 0.19625 0.83923 0.37875
 H830 H 0.16299 0.80447 0.38037
 H831 H 0.16729 0.83202 0.33807
 H832 H 0.15507 0.84419 0.35006
 C833 C 0.24170 1.04671 0.25251
 C834 C 0.25248 1.04668 0.24152
 C835 C 0.25700 1.03179 0.23973
 N836 N 0.24938 1.02279 0.24936
 C837 C 0.23991 1.03185 0.25711
 C838 C 0.26879 1.02703 0.23015
 C839 C 0.27311 1.01176 0.22819
 C840 C 0.28625 1.00709 0.22116
 C841 C 0.28606 0.99157 0.22107
 C842 C 0.27277 0.98715 0.22796
 N843 N 0.26488 0.99953 0.23212
 C844 C 0.26800 0.97199 0.22955
 C845 C 0.25584 0.96746 0.23876
 C846 C 0.24977 0.95305 0.23905
 C847 C 0.23878 0.95310 0.24984
 C848 C 0.23846 0.96754 0.25579
 N849 N 0.24896 0.97627 0.24905
 C850 C 0.22904 0.97213 0.26774
 C851 C 0.22755 0.98724 0.27261
 C852 C 0.22025 0.99163 0.28565
 C853 C 0.22060 1.00714 0.28598
 C854 C 0.22816 1.01185 0.27316
 N855 N 0.23219 0.99963 0.26501
 C856 C 0.23042 1.02713 0.26899
 H857 H 0.23604 1.05663 0.25678
 H858 H 0.25672 1.05657 0.23576
 H859 H 0.23643 0.99975 0.25419
 H860 H 0.29508 1.01409 0.21651
 H861 H 0.29470 0.98437 0.21637
 H862 H 0.25292 0.94349 0.23220
 H863 H 0.23182 0.94356 0.25294
 H864 H 0.21567 1.01413 0.29462
 H865 H 0.25384 0.99965 0.23590
 H866 H 0.21504 0.98441 0.29399
 C867 C 0.24415 0.45250 0.75460
 C868 C 0.25589 0.45249 0.74464
 C869 C 0.25927 0.46747 0.74164
 N870 N 0.25007 0.47659 0.74961
 C871 C 0.24083 0.46749 0.75760
 C872 C 0.27048 0.47233 0.73140
 C873 C 0.27367 0.48764 0.72796
 C874 C 0.28296 0.49223 0.71629
 C875 C 0.28292 0.50773 0.71627
 C876 C 0.27363 0.51228 0.72793
 N877 N 0.26822 0.49994 0.73515
 C878 C 0.27043 0.52758 0.73135
 C879 C 0.25932 0.53244 0.74168
 C880 C 0.25603 0.54743 0.74473
 C881 C 0.24439 0.54744 0.75479
 C882 C 0.24102 0.53245 0.75780
 N883 N 0.25015 0.52334 0.74974
 C884 C 0.22988 0.52760 0.76812
 C885 C 0.22662 0.51228 0.77146
 C886 C 0.21731 0.50766 0.78311
 C887 C 0.21724 0.49217 0.78303
 C888 C 0.22651 0.48764 0.77134
 N889 N 0.23199 0.49998 0.76420
 C890 C 0.22966 0.47235 0.76786
 H891 H 0.23877 0.44253 0.75915
 H892 H 0.26123 0.44252 0.74009
 H893 H 0.23812 0.50001 0.75432
 H894 H 0.28894 0.48516 0.70841
 H895 H 0.28889 0.51483 0.70836
 H896 H 0.26139 0.55740 0.74015
 H897 H 0.23908 0.55741 0.75939
 H898 H 0.21123 0.48505 0.79089
 H899 H 0.26210 0.49993 0.74503
 H900 H 0.21136 0.51471 0.79104
 C901 C 0.74942 -0.04649 0.24020
 C902 C 0.76004 -0.04651 0.25131
 C903 C 0.76006 -0.03213 0.25739
 N904 N 0.74974 -0.02336 0.25043
 C905 C 0.74327 -0.03211 0.23986
 C906 C 0.76901 -0.02759 0.26965
 C907 C 0.77054 -0.01241 0.27427
 C908 C 0.77715 -0.00789 0.28759
 C909 C 0.77729 0.00764 0.28747
 C910 C 0.77075 0.01219 0.27409
 N911 N 0.76675 -0.00011 0.26608
 C912 C 0.76929 0.02738 0.26935
 C913 C 0.75998 0.03200 0.25733
 C914 C 0.75928 0.04657 0.25165
 C915 C 0.74830 0.04659 0.24089
 C916 C 0.74276 0.03199 0.24019
 N917 N 0.74983 0.02313 0.25034
 C918 C 0.73063 0.02739 0.23106
 C919 C 0.72614 0.01218 0.22930
 C920 C 0.71299 0.00758 0.22234
 C921 C 0.71320 -0.00794 0.22214
 C922 C 0.72649 -0.01241 0.22895
 N923 N 0.73437 -0.00009 0.23316
 C924 C 0.73134 -0.02755 0.23042
 H925 H 0.74654 -0.05601 0.23319
 H926 H 0.76697 -0.05604 0.25452
 H927 H 0.74541 -0.00003 0.23690
 H928 H 0.78154 -0.01504 0.29643
 H929 H 0.78177 0.01476 0.29623
 H930 H 0.76587 0.05624 0.25502
 H931 H 0.74475 0.05631 0.23441
 H932 H 0.70459 -0.01511 0.21741
 H933 H 0.76325 -0.00012 0.25499
 H934 H 0.70419 0.01465 0.21771
 C935 C 0.74181 0.45353 0.74927
 C936 C 0.75307 0.45359 0.75976
 C937 C 0.75864 0.46820 0.76017
 N938 N 0.75129 0.47699 0.75015
 C939 C 0.74095 0.46807 0.74351
 C940 C 0.77102 0.47287 0.76891
 C941 C 0.77552 0.48809 0.77044
 C942 C 0.78889 0.49275 0.77694
 C943 C 0.78863 0.50828 0.77708
 C944 C 0.77509 0.51268 0.77069
 N945 N 0.76714 0.50030 0.76678
 C946 C 0.77009 0.52778 0.76939
 C947 C 0.75778 0.53222 0.76038
 C948 C 0.75137 0.54650 0.76039
 C949 C 0.74039 0.54644 0.74962
 C950 C 0.74043 0.53212 0.74340
 N951 N 0.75111 0.52346 0.74995
 C952 C 0.73121 0.52756 0.73135
 C953 C 0.72971 0.51237 0.72677
 C954 C 0.72296 0.50779 0.71354
 C955 C 0.72295 0.49226 0.71367
 C956 C 0.72972 0.48777 0.72696
 N957 N 0.73372 0.50010 0.73492
 C958 C 0.73138 0.47260 0.73167
 H959 H 0.73513 0.44384 0.74615
 H960 H 0.75680 0.44395 0.76625
 H961 H 0.73739 0.50015 0.74596
 H962 H 0.79784 0.48571 0.78130
 H963 H 0.79735 0.51550 0.78151
 H964 H 0.75428 0.55598 0.76742
 H965 H 0.73319 0.55587 0.74673
 H966 H 0.71842 0.48509 0.70498
 H967 H 0.75597 0.50019 0.76340
 H968 H 0.71842 0.51489 0.70474
 C969 C 0.24756 0.54737 0.24153
 C970 C 0.25847 0.54736 0.25235
 C971 C 0.25987 0.53259 0.25735
 N972 N 0.24996 0.52364 0.25010
 C973 C 0.24247 0.53263 0.24035
 C974 C 0.26945 0.52787 0.26915
 C975 C 0.27138 0.51259 0.27352
 C976 C 0.27857 0.50792 0.28655
 C977 C 0.27853 0.49240 0.28651
 C978 C 0.27138 0.48797 0.27344
 N979 N 0.26724 0.50034 0.26549
 C980 C 0.26938 0.47277 0.26905
 C981 C 0.25967 0.46811 0.25741
 C982 C 0.25830 0.45336 0.25245
 C983 C 0.24721 0.45337 0.24181
 C984 C 0.24224 0.46816 0.24045
 N985 N 0.24978 0.47711 0.25012
 C986 C 0.23032 0.47290 0.23104
 C987 C 0.22594 0.48816 0.22905
 C988 C 0.21311 0.49282 0.22149
 C989 C 0.21321 0.50834 0.22144
 C990 C 0.22613 0.51279 0.22891
 N991 N 0.23388 0.50042 0.23337
 C992 C 0.23065 0.52798 0.23081
 H993 H 0.24371 0.55718 0.23536
 H994 H 0.26453 0.55720 0.25617
 H995 H 0.24467 0.50036 0.23772
 H996 H 0.28339 0.51492 0.29523
 H997 H 0.28321 0.48520 0.29516
 H998 H 0.26450 0.44354 0.25624
 H999 H 0.24319 0.44353 0.23589
 H1000 H 0.20477 0.51552 0.21635
 H1001 H 0.26332 0.50039 0.25453
 H1002 H 0.20459 0.48581 0.21638
 C1003 C 0.74837 1.04657 0.75950
 C1004 C 0.75975 1.04649 0.74911
 C1005 C 0.75999 1.03216 0.74292
 N1006 N 0.74911 1.02350 0.74913
 C1007 C 0.74202 1.03228 0.75932
 C1008 C 0.76961 1.02761 0.73113
 C1009 C 0.77123 1.01243 0.72652
 C1010 C 0.77821 1.00788 0.71336
 C1011 C 0.77804 0.99235 0.71334
 C1012 C 0.77097 0.98784 0.72649
 N1013 N 0.76699 1.00015 0.73452
 C1014 C 0.76900 0.97267 0.73105
 C1015 C 0.75950 0.96822 0.74296
 C1016 C 0.75890 0.95377 0.74892
 C1017 C 0.74765 0.95384 0.75946
 C1018 C 0.74167 0.96831 0.75950
 N1019 N 0.74891 0.97707 0.74937
 C1020 C 0.72916 0.97292 0.76816
 C1021 C 0.72441 0.98812 0.76931
 C1022 C 0.71075 0.99274 0.77530
 C1023 C 0.71082 1.00827 0.77523
 C1024 C 0.72451 1.01271 0.76919
 N1025 N 0.73274 1.00036 0.76567
 C1026 C 0.72943 1.02784 0.76795
 H1027 H 0.74515 1.05607 0.76640
 H1028 H 0.76700 1.05592 0.74642
 H1029 H 0.74403 1.00030 0.76266
 H1030 H 0.78296 1.01500 0.70469
 H1031 H 0.78266 0.98519 0.70466
 H1032 H 0.76581 0.94416 0.74595
 H1033 H 0.74423 0.94429 0.76624
 H1034 H 0.70186 1.01547 0.77929
 H1035 H 0.76304 1.00016 0.74548
 H1036 H 0.70172 0.98566 0.77943
 C1037 C 0.74863 0.45345 0.25998
 C1038 C 0.75980 0.45343 0.24936
 C1039 C 0.76005 0.46778 0.24313
 N1040 N 0.74937 0.47654 0.24952
 C1041 C 0.74241 0.46781 0.25988
 C1042 C 0.76951 0.47231 0.23119
 C1043 C 0.77119 0.48749 0.22657
 C1044 C 0.77806 0.49208 0.21334
 C1045 C 0.77820 0.50761 0.21345
 C1046 C 0.77142 0.51208 0.22673
 N1047 N 0.76726 0.49974 0.23469
 C1048 C 0.77002 0.52720 0.23154
 C1049 C 0.76073 0.53170 0.24359
 C1050 C 0.76072 0.54596 0.24994
 C1051 C 0.74962 0.54597 0.26063
 C1052 C 0.74320 0.53172 0.26045
 N1053 N 0.74996 0.52303 0.24999
 C1054 C 0.73076 0.52725 0.26929
 C1055 C 0.72572 0.51216 0.27038
 C1056 C 0.71207 0.50775 0.27654
 C1057 C 0.71186 0.49222 0.27636
 C1058 C 0.72538 0.48758 0.27011
 N1059 N 0.73378 0.49980 0.26655
 C1060 C 0.73003 0.47237 0.26874
 H1061 H 0.74548 0.44396 0.26698
 H1062 H 0.76693 0.44393 0.24657
 H1063 H 0.74503 0.49967 0.26337
 H1064 H 0.78260 0.48498 0.20458
 H1065 H 0.78289 0.51479 0.20478
 H1066 H 0.76794 0.55539 0.24715
 H1067 H 0.74663 0.55541 0.26771
 H1068 H 0.70282 0.48516 0.28050
 H1069 H 0.76354 0.49966 0.24574
 H1070 H 0.70324 0.51497 0.28084
 C1071 C 0.24078 -0.04662 0.74795
 C1072 C 0.25164 -0.04673 0.75883
 C1073 C 0.25767 -0.03232 0.75918
 N1074 N 0.25095 -0.02344 0.74883
 C1075 C 0.24059 -0.03215 0.74197
 C1076 C 0.26992 -0.02793 0.76821
 C1077 C 0.27456 -0.01280 0.76995
 C1078 C 0.28802 -0.00836 0.77640
 C1079 C 0.28797 0.00717 0.77659
 C1080 C 0.27448 0.01178 0.77024
 N1081 N 0.26633 -0.00047 0.76633
 C1082 C 0.26971 0.02695 0.76894
 C1083 C 0.25751 0.03154 0.75985
 C1084 C 0.25114 0.04583 0.75995
 C1085 C 0.24036 0.04595 0.74899
 C1086 C 0.24049 0.03173 0.74255
 N1087 N 0.25102 0.02295 0.74917
 C1088 C 0.23156 0.02738 0.73022
 C1089 C 0.23025 0.01229 0.72531
 C1090 C 0.22394 0.00793 0.71179
 C1091 C 0.22392 -0.00760 0.71168
 C1092 C 0.23023 -0.01229 0.72512
 N1093 N 0.23398 -0.00010 0.73339
 C1094 C 0.23160 -0.02750 0.72976
 H1095 H 0.23388 -0.05613 0.74476
 H1096 H 0.25481 -0.05636 0.76565
 H1097 H 0.23725 -0.00022 0.74456
 H1098 H 0.29692 -0.01555 0.78060
 H1099 H 0.29684 0.01426 0.78095
 H1100 H 0.25397 0.05520 0.76716
 H1101 H 0.23325 0.05545 0.74609
 H1102 H 0.21965 -0.01463 0.70275
 H1103 H 0.25517 -0.00043 0.76291
 H1104 H 0.21967 0.01518 0.70298
 C1105 C 0.24950 0.26014 0.95421
 C1106 C 0.26033 0.24911 0.95424
 C1107 C 0.26101 0.24349 0.96875
 N1108 N 0.25077 0.25056 0.97751
 C1109 C 0.24376 0.26078 0.96866
 C1110 C 0.27013 0.23123 0.97336
 C1111 C 0.27165 0.22657 0.98848
 C1112 C 0.27845 0.21325 0.99311
 C1113 C 0.27836 0.21329 1.00854
 C1114 C 0.27158 0.22668 1.01293
 N1115 N 0.26764 0.23475 1.00065
 C1116 C 0.26997 0.23146 1.02797
 C1117 C 0.26065 0.24361 1.03239
 C1118 C 0.26044 0.24986 1.04662
 C1119 C 0.24942 0.26069 1.04658
 C1120 C 0.24324 0.26073 1.03232
 N1121 N 0.25009 0.25024 1.02368
 C1122 C 0.23100 0.26986 1.02777
 C1123 C 0.22645 0.27142 1.01264
 C1124 C 0.21308 0.27802 1.00802
 C1125 C 0.21328 0.27811 0.99259
 C1126 C 0.22676 0.27155 0.98820
 N1127 N 0.23475 0.26759 1.00050
 C1128 C 0.23159 0.27004 0.97315
 H1129 H 0.24612 0.26677 0.94458
 H1130 H 0.26682 0.24557 0.94460
 H1131 H 0.24590 0.26406 1.00059
 H1132 H 0.28314 0.20444 0.98613
 H1133 H 0.28291 0.20452 1.01569
 H1134 H 0.26751 0.24695 1.05607
 H1135 H 0.24633 0.26775 1.05598
 H1136 H 0.20451 0.28257 0.98542
 H1137 H 0.26397 0.24588 1.00060
 H1138 H 0.20414 0.28240 1.01502
 C1139 C 0.24828 0.75948 0.54696
 C1140 C 0.25925 0.74859 0.54693
 C1141 C 0.25966 0.74270 0.53255
 N1142 N 0.24934 0.74965 0.52380
 C1143 C 0.24243 0.75997 0.53257
 C1144 C 0.26884 0.73049 0.52799
 C1145 C 0.27031 0.72590 0.51289
 C1146 C 0.27662 0.71236 0.50829
 C1147 C 0.27668 0.71254 0.49286
 C1148 C 0.27043 0.72621 0.48847
 N1149 N 0.26664 0.73430 0.50074
 C1150 C 0.26917 0.73121 0.47345
 C1151 C 0.26034 0.74373 0.46907
 C1152 C 0.26057 0.75027 0.45492
 C1153 C 0.24982 0.76137 0.45496
 C1154 C 0.24338 0.76127 0.46913
 N1155 N 0.24980 0.75045 0.47773
 C1156 C 0.23116 0.77045 0.47357
 C1157 C 0.22623 0.77172 0.48859
 C1158 C 0.21273 0.77821 0.49301
 C1159 C 0.21246 0.77783 0.50844
 C1160 C 0.22580 0.77113 0.51300
 N1161 N 0.23418 0.76756 0.50084
 C1162 C 0.23021 0.76913 0.52810
 H1163 H 0.24495 0.76624 0.55650
 H1164 H 0.26607 0.74534 0.55645
 H1165 H 0.24531 0.76397 0.50093
 H1166 H 0.28082 0.70330 0.51532
 H1167 H 0.28095 0.70367 0.48570
 H1168 H 0.26771 0.74732 0.44553
 H1169 H 0.24704 0.76865 0.44560
 H1170 H 0.20349 0.78209 0.51549
 H1171 H 0.26339 0.74557 0.50083
 H1172 H 0.20400 0.78279 0.48587
 C1173 C 0.24819 0.74058 0.04431
 C1174 C 0.25920 0.75139 0.04433
 C1175 C 0.25922 0.75786 0.03015
 N1176 N 0.24856 0.75140 0.02150
 C1177 C 0.24183 0.74079 0.03013
 C1178 C 0.26842 0.77008 0.02571
 C1179 C 0.26984 0.77492 0.01065
 C1180 C 0.27636 0.78840 0.00613
 C1181 C 0.27635 0.78845 -0.00930
 C1182 C 0.26983 0.77499 -0.01378
 N1183 N 0.26595 0.76679 -0.00156
 C1184 C 0.26846 0.77022 -0.02883
 C1185 C 0.25934 0.75798 -0.03330
 C1186 C 0.25946 0.75158 -0.04746
 C1187 C 0.24851 0.74071 -0.04748
 C1188 C 0.24204 0.74081 -0.03333
 N1189 N 0.24865 0.75141 -0.02468
 C1190 C 0.22972 0.73176 -0.02889
 C1191 C 0.22484 0.73047 -0.01384
 C1192 C 0.21128 0.72418 -0.00934
 C1193 C 0.21120 0.72424 0.00609
 C1194 C 0.22472 0.73055 0.01059
 N1195 N 0.23299 0.73426 -0.00162
 C1196 C 0.22948 0.73187 0.02565
 H1197 H 0.24521 0.73338 0.05369
 H1198 H 0.26637 0.75416 0.05372
 H1199 H 0.24421 0.73753 -0.00159
 H1200 H 0.28079 0.79724 0.01321
 H1201 H 0.28077 0.79733 -0.01641
 H1202 H 0.26670 0.75444 -0.05682
 H1203 H 0.24566 0.73355 -0.05686
 H1204 H 0.20226 0.71999 0.01319
 H1205 H 0.26249 0.75559 -0.00156
 H1206 H 0.20241 0.71988 -0.01643
 C1207 C 0.23958 0.24958 0.45370
 C1208 C 0.25079 0.26018 0.45366
 C1209 C 0.25662 0.26046 0.46806
 N1210 N 0.24944 0.25030 0.47685
 C1211 C 0.23899 0.24365 0.46809
 C1212 C 0.26903 0.26929 0.47253
 C1213 C 0.27350 0.27107 0.48762
 C1214 C 0.28696 0.27749 0.49216
 C1215 C 0.28673 0.27777 0.50759
 C1216 C 0.27315 0.27150 0.51204
 N1217 N 0.26510 0.26758 0.49981
 C1218 C 0.26823 0.27022 0.52708
 C1219 C 0.25594 0.26115 0.53155
 C1220 C 0.24961 0.26115 0.54577
 C1221 C 0.23871 0.25022 0.54581
 C1222 C 0.23872 0.24390 0.53161
 N1223 N 0.24930 0.25056 0.52292
 C1224 C 0.22961 0.23164 0.52720
 C1225 C 0.22809 0.22691 0.51216
 C1226 C 0.22144 0.21350 0.50772
 C1227 C 0.22137 0.21353 0.49229
 C1228 C 0.22799 0.22694 0.48773
 N1229 N 0.23197 0.23507 0.49990
 C1230 C 0.22955 0.23164 0.47264
 H1231 H 0.23274 0.24650 0.44416
 H1232 H 0.25431 0.26686 0.44410
 H1233 H 0.23554 0.24622 0.49987
 H1234 H 0.29599 0.28161 0.48509
 H1235 H 0.29556 0.28211 0.51470
 H1236 H 0.25255 0.26826 0.55516
 H1237 H 0.23160 0.24726 0.55523
 H1238 H 0.21689 0.20469 0.48524
 H1239 H 0.25391 0.26422 0.49975
 H1240 H 0.21702 0.20464 0.51486
 C1241 C 0.74641 0.75741 1.04756
 C1242 C 0.75729 0.74644 1.04757
 C1243 C 0.75898 0.74178 1.03283
 N1244 N 0.74939 0.74948 1.02387
 C1245 C 0.74177 0.75914 1.03281
 C1246 C 0.76845 0.72982 1.02815
 C1247 C 0.77054 0.72554 1.01301
 C1248 C 0.77777 0.71246 1.00839
 C1249 C 0.77800 0.71274 0.99297
 C1250 C 0.77098 0.72602 0.98857
 N1251 N 0.76660 0.73381 1.00085
 C1252 C 0.76951 0.73094 0.97353
 C1253 C 0.76040 0.74323 0.96903
 C1254 C 0.76034 0.74947 0.95475
 C1255 C 0.74953 0.76052 0.95475
 C1256 C 0.74333 0.76067 0.96902
 N1257 N 0.74994 0.75005 0.97772
 C1258 C 0.73120 0.76996 0.97349
 C1259 C 0.72627 0.77138 0.98851
 C1260 C 0.71290 0.77818 0.99285
 C1261 C 0.71255 0.77786 1.00826
 C1262 C 0.72569 0.77080 1.01294
 N1263 N 0.73407 0.76707 1.00082
 C1264 C 0.72988 0.76866 1.02811
 H1265 H 0.74221 0.76322 1.05737
 H1266 H 0.76306 0.74219 1.05740
 H1267 H 0.74513 0.76332 1.00096
 H1268 H 0.78253 0.70366 1.01537
 H1269 H 0.78293 0.70419 0.98583
 H1270 H 0.76734 0.74640 0.94529
 H1271 H 0.74658 0.76761 0.94529
 H1272 H 0.70363 0.78238 1.01520
 H1273 H 0.76265 0.74482 1.00094
 H1274 H 0.70430 0.78294 0.98566
 C1275 C 0.74910 0.25907 0.54659
 C1276 C 0.75986 0.24798 0.54645
 C1277 C 0.76018 0.24223 0.53201
 N1278 N 0.74992 0.24938 0.52336
 C1279 C 0.74318 0.25974 0.53224
 C1280 C 0.76941 0.23011 0.52732
 C1281 C 0.77107 0.22555 0.51222
 C1282 C 0.77811 0.21234 0.50769
 C1283 C 0.77811 0.21239 0.49228
 C1284 C 0.77098 0.22559 0.48776
 N1285 N 0.76691 0.23362 0.50000
 C1286 C 0.76904 0.23014 0.47263
 C1287 C 0.75958 0.24218 0.46807
 C1288 C 0.75778 0.24694 0.45335
 C1289 C 0.74694 0.25795 0.45349
 C1290 C 0.74243 0.25963 0.46830
 N1291 N 0.75008 0.24987 0.47715
 C1292 C 0.73063 0.26924 0.47311
 C1293 C 0.72635 0.27123 0.48830
 C1294 C 0.71341 0.27866 0.49298
 C1295 C 0.71357 0.27866 0.50839
 C1296 C 0.72663 0.27129 0.51276
 N1297 N 0.73442 0.26696 0.50044
 C1298 C 0.73129 0.26938 0.52781
 H1299 H 0.74602 0.26585 0.55619
 H1300 H 0.76667 0.24456 0.55592
 H1301 H 0.74532 0.26278 0.50032
 H1302 H 0.78287 0.20361 0.51476
 H1303 H 0.78291 0.20370 0.48524
 H1304 H 0.76341 0.24271 0.44345
 H1305 H 0.74267 0.26379 0.44371
 H1306 H 0.70507 0.28360 0.51556
 H1307 H 0.76302 0.24466 0.50006
 H1308 H 0.70475 0.28368 0.48605
 C1309 C 0.74005 0.24927 -0.04645
 C1310 C 0.75052 0.26060 -0.04648
 C1311 C 0.75626 0.26134 -0.03206
 N1312 N 0.74962 0.25085 -0.02323
 C1313 C 0.73961 0.24352 -0.03197
 C1314 C 0.76813 0.27093 -0.02758
 C1315 C 0.77286 0.27251 -0.01254
 C1316 C 0.78613 0.27940 -0.00814
 C1317 C 0.78630 0.27922 0.00729
 C1318 C 0.77311 0.27224 0.01189
 N1319 N 0.76495 0.26827 -0.00025
 C1320 C 0.76860 0.27043 0.02701
 C1321 C 0.75670 0.26089 0.03156
 C1322 C 0.75056 0.26055 0.04585
 C1323 C 0.73998 0.24932 0.04591
 C1324 C 0.74001 0.24313 0.03165
 N1325 N 0.75028 0.25020 0.02290
 C1326 C 0.73119 0.23067 0.02720
 C1327 C 0.72977 0.22597 0.01213
 C1328 C 0.72349 0.21239 0.00765
 C1329 C 0.72337 0.21249 -0.00777
 C1330 C 0.72965 0.22610 -0.01231
 N1331 N 0.73338 0.23429 -0.00010
 C1332 C 0.73094 0.23096 -0.02739
 H1333 H 0.73363 0.24559 -0.05606
 H1334 H 0.75367 0.26740 -0.05609
 H1335 H 0.73660 0.24554 -0.00008
 H1336 H 0.79479 0.28411 -0.01529
 H1337 H 0.79510 0.28378 0.01431
 H1338 H 0.75339 0.26766 0.05528
 H1339 H 0.73306 0.24608 0.05538
 H1340 H 0.71900 0.20360 -0.01481
 H1341 H 0.75391 0.26445 -0.00014
 H1342 H 0.71929 0.20341 0.01476
 C1343 C 0.74405 0.74564 0.45198
 C1344 C 0.75486 0.75665 0.45210
 C1345 C 0.75843 0.75921 0.46701
 N1346 N 0.75020 0.75003 0.47593
 C1347 C 0.74134 0.74175 0.46682
 C1348 C 0.76969 0.76933 0.47193
 C1349 C 0.77353 0.77179 0.48717
 C1350 C 0.78594 0.78001 0.49183
 C1351 C 0.78583 0.77985 0.50723
 C1352 C 0.77333 0.77160 0.51164
 N1353 N 0.76575 0.76694 0.49934
 C1354 C 0.76920 0.76897 0.52678
 C1355 C 0.75812 0.75847 0.53144
 C1356 C 0.75344 0.75647 0.54615
 C1357 C 0.74306 0.74507 0.54604
 C1358 C 0.74162 0.74046 0.53126
 N1359 N 0.75090 0.74866 0.52239
 C1360 C 0.73154 0.72911 0.52636
 C1361 C 0.72848 0.72563 0.51113
 C1362 C 0.71763 0.71542 0.50648
 C1363 C 0.71732 0.71598 0.49108
 C1364 C 0.72808 0.72642 0.48663
 N1365 N 0.73497 0.73202 0.49893
 C1366 C 0.73082 0.73067 0.47151
 H1367 H 0.73891 0.74095 0.44205
 H1368 H 0.75966 0.76197 0.44226
 H1369 H 0.74377 0.73958 0.49901
 H1370 H 0.79428 0.78554 0.48489
 H1371 H 0.79410 0.78517 0.51436
 H1372 H 0.75703 0.76263 0.55596
 H1373 H 0.73706 0.74086 0.55577
 H1374 H 0.70983 0.70956 0.48399
 H1375 H 0.75520 0.76200 0.49930
 H1376 H 0.71042 0.70848 0.51344
 C1377 C 0.95376 0.23963 0.25104
 C1378 C 0.95369 0.25035 0.23993
 C1379 C 0.96799 0.25657 0.23956
 N1380 N 0.97678 0.25002 0.25009
 C1381 C 0.96811 0.23960 0.25708
 C1382 C 0.97241 0.26864 0.23012
 C1383 C 0.98749 0.27345 0.22848
 C1384 C 0.99187 0.28685 0.22169
 C1385 C 1.00735 0.28696 0.22160
 C1386 C 1.01202 0.27364 0.22839
 N1387 N 0.99983 0.26542 0.23241
 C1388 C 1.02720 0.26904 0.22988
 C1389 C 1.03186 0.25677 0.23892
 C1390 C 1.04642 0.25116 0.23951
 C1391 C 1.04649 0.24009 0.25029
 C1392 C 1.03202 0.23939 0.25608
 N1393 N 1.02312 0.24964 0.24915
 C1394 C 1.02756 0.23007 0.26820
 C1395 C 1.01249 0.22861 0.27314
 C1396 C 1.00816 0.22199 0.28659
 C1397 C 0.99269 0.22218 0.28694
 C1398 C 0.98796 0.22888 0.27369
 N1399 N 1.00010 0.23268 0.26531
 C1400 C 0.97274 0.23053 0.26931
 H1401 H 0.94431 0.23263 0.25425
 H1402 H 0.94417 0.25323 0.23292
 H1403 H 0.99992 0.23628 0.25422
 H1404 H 0.98467 0.29560 0.21716
 H1405 H 1.01433 0.29580 0.21692
 H1406 H 1.05605 0.25475 0.23298
 H1407 H 1.05617 0.23346 0.25360
 H1408 H 0.98571 0.21779 0.29591
 H1409 H 0.99989 0.25429 0.23608
 H1410 H 1.01541 0.21744 0.29524
 C1411 C 0.45300 0.25459 0.74399
 C1412 C 0.45292 0.24333 0.75453
 C1413 C 0.46783 0.24028 0.75798
 N1414 N 0.47697 0.24930 0.74979
 C1415 C 0.46796 0.25808 0.74122
 C1416 C 0.47258 0.22933 0.76860
 C1417 C 0.48781 0.22609 0.77214
 C1418 C 0.49229 0.21654 0.78366
 C1419 C 0.50774 0.21659 0.78382
 C1420 C 0.51241 0.22626 0.77245
 N1421 N 0.50017 0.23176 0.76521
 C1422 C 0.52768 0.22988 0.76942
 C1423 C 0.53255 0.24110 0.75912
 C1424 C 0.54738 0.24570 0.75747
 C1425 C 0.54743 0.25703 0.74698
 C1426 C 0.53264 0.25898 0.74243
 N1427 N 0.52360 0.24924 0.74989
 C1428 C 0.52793 0.26936 0.73128
 C1429 C 0.51273 0.27182 0.72713
 C1430 C 0.50831 0.28006 0.71464
 C1431 C 0.49287 0.27994 0.71442
 C1432 C 0.48817 0.27154 0.72672
 N1433 N 0.50037 0.26685 0.73457
 C1434 C 0.47288 0.26862 0.73029
 H1435 H 0.44312 0.25943 0.73876
 H1436 H 0.44296 0.23793 0.75902
 H1437 H 0.50026 0.26172 0.74503
 H1438 H 0.48516 0.21034 0.79137
 H1439 H 0.51470 0.21038 0.79164
 H1440 H 0.55717 0.24155 0.76340
 H1441 H 0.55726 0.26316 0.74321
 H1442 H 0.48593 0.28533 0.70600
 H1443 H 0.50026 0.23833 0.75562
 H1444 H 0.51547 0.28550 0.70642
 C1445 C 0.04633 0.23948 0.75001
 C1446 C 0.04629 0.25028 0.76097
 C1447 C 0.03199 0.25655 0.76108
 N1448 N 0.02332 0.24999 0.75052
 C1449 C 0.03205 0.23950 0.74377
 C1450 C 0.02745 0.26869 0.77028
 C1451 C 0.01232 0.27341 0.77178
 C1452 C 0.00778 0.28681 0.77839
 C1453 C -0.00770 0.28680 0.77841
 C1454 C -0.01218 0.27339 0.77181
 N1455 N 0.00009 0.26526 0.76788
 C1456 C -0.02730 0.26870 0.77027
 C1457 C -0.03184 0.25665 0.76097
 C1458 C -0.04633 0.25093 0.76030
 C1459 C -0.04631 0.24021 0.74927
 C1460 C -0.03176 0.23960 0.74365
 N1461 N -0.02297 0.24975 0.75074
 C1462 C -0.02716 0.23064 0.73138
 C1463 C -0.01202 0.22914 0.72671
 C1464 C -0.00743 0.22255 0.71336
 C1465 C 0.00804 0.22255 0.71339
 C1466 C 0.01250 0.22907 0.72678
 N1467 N 0.00021 0.23293 0.73487
 C1468 C 0.02759 0.23048 0.73154
 H1469 H 0.05580 0.23242 0.74698
 H1470 H 0.05573 0.25318 0.76804
 H1471 H 0.00018 0.23636 0.74599
 H1472 H 0.01487 0.29566 0.78282
 H1473 H -0.01484 0.29563 0.78285
 H1474 H -0.05598 0.25424 0.76694
 H1475 H -0.05597 0.23375 0.74570
 H1476 H 0.01520 0.21812 0.70461
 H1477 H 0.00013 0.25411 0.76434
 H1478 H -0.01446 0.21804 0.70456
 C1479 C 0.54650 0.26072 0.24916
 C1480 C 0.54628 0.24978 0.23834
 C1481 C 0.53184 0.24385 0.23831
 N1482 N 0.52325 0.25083 0.24870
 C1483 C 0.53217 0.26120 0.25529
 C1484 C 0.52715 0.23151 0.22949
 C1485 C 0.51201 0.22680 0.22839
 C1486 C 0.50737 0.21316 0.22238
 C1487 C 0.49190 0.21317 0.22278
 C1488 C 0.48753 0.22680 0.22903
 N1489 N 0.49985 0.23509 0.23230
 C1490 C 0.47246 0.23152 0.23089
 C1491 C 0.46815 0.24403 0.23968
 C1492 C 0.45376 0.25006 0.24014
 C1493 C 0.45398 0.26126 0.25068
 C1494 C 0.46848 0.26166 0.25638
 N1495 N 0.47712 0.25109 0.24966
 C1496 C 0.47320 0.27098 0.26829
 C1497 C 0.48839 0.27250 0.27269
 C1498 C 0.49313 0.27904 0.28596
 C1499 C 0.50861 0.27884 0.28575
 C1500 C 0.51289 0.27219 0.27235
 N1501 N 0.50050 0.26849 0.26439
 C1502 C 0.52792 0.27032 0.26753
 H1503 H 0.55613 0.26750 0.25222
 H1504 H 0.55572 0.24648 0.23140
 H1505 H 0.50032 0.26490 0.25332
 H1506 H 0.51440 0.20415 0.21811
 H1507 H 0.48469 0.20417 0.21887
 H1508 H 0.44409 0.24667 0.23362
 H1509 H 0.44450 0.26824 0.25387
 H1510 H 0.51588 0.28315 0.29446
 H1511 H 0.49991 0.24635 0.23550
 H1512 H 0.48617 0.28351 0.29488
 C1513 C 1.04577 0.74082 0.75133
 C1514 C 1.04576 0.75192 0.74059
 C1515 C 1.03117 0.75744 0.73983
 N1516 N 1.02233 0.75021 0.74988
 C1517 C 1.03122 0.74001 0.75690
 C1518 C 1.02658 0.76973 0.73078
 C1519 C 1.01143 0.77426 0.72896
 C1520 C 1.00686 0.78765 0.72226
 C1521 C 0.99139 0.78745 0.72192
 C1522 C 0.98692 0.77392 0.72839
 N1523 N 0.99921 0.76590 0.73252
 C1524 C 0.97182 0.76906 0.72970
 C1525 C 0.96732 0.75678 0.73882
 C1526 C 0.95293 0.75075 0.73917
 C1527 C 0.95294 0.73983 0.75009
 C1528 C 0.96736 0.73946 0.75598
 N1529 N 0.97611 0.74987 0.74913
 C1530 C 0.97184 0.73035 0.76821
 C1531 C 0.98691 0.72868 0.77297
 C1532 C 0.99128 0.72197 0.78635
 C1533 C 1.00675 0.72202 0.78653
 C1534 C 1.01142 0.72876 0.77326
 N1535 N 0.99926 0.73265 0.76500
 C1536 C 1.02662 0.73058 0.76888
 H1537 H 1.05543 0.73421 0.75473
 H1538 H 1.05546 0.75558 0.73420
 H1539 H 0.99936 0.73634 0.75394
 H1540 H 1.01392 0.79661 0.71793
 H1541 H 0.98425 0.79624 0.71737
 H1542 H 0.94338 0.75396 0.73236
 H1543 H 0.94339 0.73301 0.75339
 H1544 H 1.01376 0.71758 0.79543
 H1545 H 0.99932 0.75472 0.73603
 H1546 H 0.98407 0.71744 0.79506
 C1547 C 0.45237 0.74453 0.25482
 C1548 C 0.45237 0.75500 0.24351
 C1549 C 0.46730 0.75843 0.24053
 N1550 N 0.47639 0.75016 0.24951
 C1551 C 0.46732 0.74158 0.25823
 C1552 C 0.47211 0.76941 0.22998
 C1553 C 0.48734 0.77340 0.22737
 C1554 C 0.49181 0.78593 0.21914
 C1555 C 0.50725 0.78616 0.21934
 C1556 C 0.51189 0.77378 0.22772
 N1557 N 0.49966 0.76592 0.23237
 C1558 C 0.52716 0.77014 0.23062
 C1559 C 0.53203 0.75894 0.24089
 C1560 C 0.54698 0.75567 0.24394
 C1561 C 0.54700 0.74478 0.25487
 C1562 C 0.53207 0.74174 0.25824
 N1563 N 0.52297 0.75041 0.24966
 C1564 C 0.52725 0.73070 0.26872
 C1565 C 0.51199 0.72704 0.27171
 C1566 C 0.50743 0.71482 0.28037
 C1567 C 0.49198 0.71488 0.28046
 C1568 C 0.48743 0.72716 0.27190
 N1569 N 0.49970 0.73465 0.26680
 C1570 C 0.47217 0.73083 0.26900
 H1571 H 0.44244 0.73959 0.25984
 H1572 H 0.44244 0.75960 0.23819
 H1573 H 0.49969 0.74494 0.26127
 H1574 H 0.48468 0.79422 0.21373
 H1575 H 0.51424 0.79462 0.21402
 H1576 H 0.55689 0.76065 0.23891
 H1577 H 0.55694 0.73963 0.25969
 H1578 H 0.48492 0.70662 0.28599
 H1579 H 0.49974 0.75544 0.23758
 H1580 H 0.51447 0.70653 0.28591
 C1581 C 0.04711 0.74780 0.24029
 C1582 C 0.04713 0.75842 0.25141
 C1583 C 0.03256 0.75913 0.25695
 N1584 N 0.02372 0.74911 0.24973
 C1585 C 0.03258 0.74220 0.23950
 C1586 C 0.02796 0.76813 0.26919
 C1587 C 0.01277 0.76996 0.27361
 C1588 C 0.00810 0.77677 0.28682
 C1589 C -0.00737 0.77712 0.28652
 C1590 C -0.01174 0.77056 0.27312
 N1591 N 0.00060 0.76636 0.26528
 C1592 C -0.02678 0.76936 0.26814
 C1593 C -0.03124 0.76032 0.25591
 C1594 C -0.04547 0.76046 0.24957
 C1595 C -0.04548 0.74957 0.23870
 C1596 C -0.03126 0.74313 0.23875
 N1597 N -0.02258 0.74968 0.24932
 C1598 C -0.02679 0.73088 0.22967
 C1599 C -0.01170 0.72599 0.22829
 C1600 C -0.00725 0.71252 0.22174
 C1601 C 0.00823 0.71238 0.22182
 C1602 C 0.01281 0.72575 0.22843
 N1603 N 0.00060 0.73402 0.23226
 C1604 C 0.02797 0.73028 0.23007
 H1605 H 0.05676 0.74448 0.23365
 H1606 H 0.05682 0.76481 0.25506
 H1607 H 0.00067 0.74518 0.23577
 H1608 H 0.01509 0.78120 0.29569
 H1609 H -0.01457 0.78181 0.29513
 H1610 H -0.05489 0.76764 0.25248
 H1611 H -0.05490 0.74671 0.23159
 H1612 H 0.01530 0.70346 0.21744
 H1613 H 0.00074 0.76280 0.25421
 H1614 H -0.01440 0.70375 0.21729
 C1615 C 0.54698 0.75956 0.75134
 C1616 C 0.54684 0.74874 0.74039
 C1617 C 0.53241 0.74282 0.74017
 N1618 N 0.52373 0.74968 0.75058
 C1619 C 0.53260 0.75998 0.75736
 C1620 C 0.52777 0.73063 0.73112
 C1621 C 0.51262 0.72599 0.72981
 C1622 C 0.50800 0.71249 0.72349
 C1623 C 0.49252 0.71261 0.72358
 C1624 C 0.48813 0.72619 0.72993
 N1625 N 0.50044 0.73430 0.73363
 C1626 C 0.47306 0.73111 0.73136
 C1627 C 0.46869 0.74342 0.74042
 C1628 C 0.45446 0.74984 0.74052
 C1629 C 0.45459 0.76076 0.75136
 C1630 C 0.46891 0.76067 0.75751
 N1631 N 0.47749 0.75002 0.75085
 C1632 C 0.47351 0.76974 0.76964
 C1633 C 0.48863 0.77112 0.77431
 C1634 C 0.49320 0.77763 0.78766
 C1635 C 0.50868 0.77744 0.78764
 C1636 C 0.51313 0.77084 0.77427
 N1637 N 0.50084 0.76714 0.76616
 C1638 C 0.52822 0.76902 0.76961
 H1639 H 0.55658 0.76631 0.75454
 H1640 H 0.55633 0.74554 0.73348
 H1641 H 0.50078 0.76362 0.75507
 H1642 H 0.51504 0.70351 0.71919
 H1643 H 0.48533 0.70375 0.71934
 H1644 H 0.44495 0.74696 0.73353
 H1645 H 0.44520 0.76793 0.75439
 H1646 H 0.51584 0.78176 0.79644
 H1647 H 0.50053 0.74553 0.73692
 H1648 H 0.48611 0.78211 0.79648
 C1649 C 0.42453 0.30134 0.29815
 C1650 C 0.41894 0.31537 0.29331
 C1651 C 0.40593 0.32123 0.29986
 C1652 C 0.39839 0.31319 0.31118
 C1653 C 0.40438 0.29922 0.31572
 N1654 N 0.41703 0.29371 0.30911
 C1655 C 0.43781 0.29416 0.29108
 N1656 N 0.43926 0.27887 0.29200
 C1657 C 0.45071 0.27132 0.28524
 C1658 C 0.46149 0.27922 0.27687
 C1659 C 0.46058 0.29498 0.27614
 C1660 C 0.44879 0.30251 0.28328
 H1661 H 0.40181 0.33204 0.29596
 H1662 H 0.39893 0.29252 0.32430
 H1663 H 0.45121 0.25913 0.28610
 H1664 H 0.46883 0.30137 0.26983
 H1665 H 0.42422 0.32163 0.28431
 H1666 H 0.44836 0.31469 0.28264
 C1667 C 0.42458 0.80049 0.79851
 C1668 C 0.41843 0.81380 0.79257
 C1669 C 0.40543 0.81987 0.79890
 C1670 C 0.39839 0.81277 0.81120
 C1671 C 0.40500 0.79943 0.81679
 N1672 N 0.41762 0.79369 0.81033
 C1673 C 0.43790 0.79317 0.79172
 N1674 N 0.43949 0.77793 0.79310
 C1675 C 0.45101 0.77030 0.78656
 C1676 C 0.46174 0.77808 0.77801
 C1677 C 0.46066 0.79379 0.77680
 C1678 C 0.44877 0.80140 0.78367
 H1679 H 0.40099 0.83011 0.79399
 H1680 H 0.40014 0.79336 0.82614
 H1681 H 0.45163 0.75815 0.78774
 H1682 H 0.46885 0.80008 0.77029
 H1683 H 0.42331 0.81932 0.78288
 H1684 H 0.44816 0.81356 0.78265
 C1685 C -0.07598 0.29812 0.80116
 C1686 C -0.08148 0.29307 0.81507
 C1687 C -0.09435 0.29969 0.82116
 C1688 C -0.10189 0.31130 0.81346
 C1689 C -0.09600 0.31602 0.79958
 N1690 N -0.08346 0.30936 0.79386
 C1691 C -0.06278 0.29106 0.79380
 N1692 N -0.06139 0.29224 0.77863
 C1693 C -0.04997 0.28558 0.77095
 C1694 C -0.03912 0.27705 0.77860
 C1695 C -0.04000 0.27603 0.79424
 C1696 C -0.05177 0.28305 0.80191
 H1697 H -0.09844 0.29550 0.83181
 H1698 H -0.10135 0.32488 0.79315
 H1699 H -0.04950 0.28668 0.75886
 H1700 H -0.03170 0.26960 0.80045
 H1701 H -0.07624 0.28383 0.82106
 H1702 H -0.05214 0.28220 0.81400
 C1703 C -0.07572 0.80045 0.29687
 C1704 C -0.08101 0.81461 0.29208
 C1705 C -0.09385 0.82078 0.29869
 C1706 C -0.10154 0.81289 0.31003
 C1707 C -0.09590 0.79873 0.31445
 N1708 N -0.08340 0.79295 0.30780
 C1709 C -0.06250 0.79305 0.28992
 N1710 N -0.06126 0.77775 0.29090
 C1711 C -0.04976 0.77003 0.28442
 C1712 C -0.03865 0.77778 0.27633
 C1713 C -0.03939 0.79354 0.27550
 C1714 C -0.05126 0.80124 0.28231
 H1715 H -0.09771 0.83170 0.29485
 H1716 H -0.10147 0.79212 0.32302
 H1717 H -0.04943 0.75785 0.28532
 H1718 H -0.03090 0.79981 0.26938
 H1719 H -0.07559 0.82078 0.28309
 H1720 H -0.05153 0.81343 0.28163
 C1721 C 0.57650 0.69891 0.29633
 C1722 C 0.58423 0.68696 0.28940
 C1723 C 0.59700 0.68088 0.29619
 C1724 C 0.60229 0.68670 0.30981
 C1725 C 0.59427 0.69867 0.31636
 N1726 N 0.58183 0.70439 0.30954
 C1727 C 0.56317 0.70627 0.28943
 N1728 N 0.55900 0.72021 0.29436
 C1729 C 0.54729 0.72798 0.28826
 C1730 C 0.53911 0.72177 0.27640
 C1731 C 0.54291 0.70734 0.27131
 C1732 C 0.55483 0.69948 0.27787
 H1733 H 0.60286 0.67181 0.29055
 H1734 H 0.59784 0.70353 0.32687
 H1735 H 0.54459 0.73912 0.29243
 H1736 H 0.53673 0.70225 0.26218
 H1737 H 0.58082 0.68251 0.27867
 H1738 H 0.55734 0.68826 0.27386
 C1739 C 0.57700 0.20252 0.80129
 C1740 C 0.58386 0.20913 0.81384
 C1741 C 0.59682 0.20263 0.81988
 C1742 C 0.60313 0.18960 0.81348
 C1743 C 0.59590 0.18335 0.80095
 N1744 N 0.58330 0.18990 0.79525
 C1745 C 0.56359 0.20922 0.79389
 N1746 N 0.56038 0.20508 0.77955
 C1747 C 0.54870 0.21112 0.77173
 C1748 C 0.53950 0.22210 0.77833
 C1749 C 0.54230 0.22634 0.79316
 C1750 C 0.55424 0.21985 0.80104
 H1751 H 0.60191 0.20796 0.82950
 H1752 H 0.60028 0.17337 0.79554
 H1753 H 0.54680 0.20763 0.76027
 H1754 H 0.53534 0.23478 0.79855
 H1755 H 0.57962 0.21939 0.81880
 H1756 H 0.55600 0.22319 0.81254
 C1757 C 1.07525 0.69994 0.79886
 C1758 C 1.08061 0.68581 0.79414
 C1759 C 1.09342 0.67965 0.80078
 C1760 C 1.10109 0.68751 0.81206
 C1761 C 1.09534 0.70160 0.81650
 N1762 N 1.08283 0.70740 0.80983
 C1763 C 1.06205 0.70730 0.79174
 N1764 N 1.06067 0.72260 0.79253
 C1765 C 1.04926 0.73021 0.78573
 C1766 C 1.03843 0.72236 0.77742
 C1767 C 1.03931 0.70660 0.77681
 C1768 C 1.05104 0.69902 0.78400
 H1769 H 1.09732 0.66877 0.79692
 H1770 H 1.10087 0.70817 0.82506
 H1771 H 1.04879 0.74239 0.78652
 H1772 H 1.03104 0.70023 0.77058
 H1773 H 1.07531 0.67968 0.78513
 H1774 H 1.05138 0.68683 0.78346
 C1775 C 1.07651 0.19906 0.29720
 C1776 C 1.08217 0.18514 0.29222
 C1777 C 1.09502 0.17904 0.29890
 C1778 C 1.10234 0.18675 0.31052
 C1779 C 1.09632 0.20066 0.31513
 N1780 N 1.08383 0.20639 0.30841
 C1781 C 1.06328 0.20643 0.29017
 N1782 N 1.06169 0.22167 0.29148
 C1783 C 1.05019 0.22937 0.28493
 C1784 C 1.03946 0.22167 0.27641
 C1785 C 1.04054 0.20596 0.27522
 C1786 C 1.05240 0.19827 0.28212
 H1787 H 1.09919 0.16832 0.29487
 H1788 H 1.10156 0.20713 0.32394
 H1789 H 1.04958 0.24151 0.28613
 H1790 H 1.03234 0.19971 0.26878
 H1791 H 1.07704 0.17911 0.28303
 H1792 H 1.05292 0.18612 0.28115
 C1793 C 0.57657 0.30077 0.70199
 C1794 C 0.58288 0.31408 0.70772
 C1795 C 0.59571 0.32016 0.70102
 C1796 C 0.60245 0.31306 0.68863
 C1797 C 0.59581 0.29974 0.68328
 N1798 N 0.58330 0.29401 0.69003
 C1799 C 0.56334 0.29339 0.70907
 N1800 N 0.56100 0.27841 0.70656
 C1801 C 0.54957 0.27064 0.71317
 C1802 C 0.53977 0.27795 0.72311
 C1803 C 0.54159 0.29344 0.72552
 C1804 C 0.55329 0.30123 0.71847
 H1805 H 0.60040 0.33033 0.70576
 H1806 H 0.60057 0.29375 0.67387
 H1807 H 0.54831 0.25871 0.71092
 H1808 H 0.53405 0.29943 0.73299
 H1809 H 0.57831 0.31959 0.71752
 H1810 H 0.55433 0.31322 0.72040
 C1811 C 0.57608 0.80267 0.20322
 C1812 C 0.58386 0.81448 0.21028
 C1813 C 0.59669 0.82054 0.20352
 C1814 C 0.60194 0.81485 0.18980
 C1815 C 0.59378 0.80313 0.18307
 N1816 N 0.58132 0.79741 0.18987
 C1817 C 0.56283 0.79516 0.21013
 N1818 N 0.55859 0.78139 0.20483
 C1819 C 0.54698 0.77344 0.21087
 C1820 C 0.53897 0.77927 0.22308
 C1821 C 0.54284 0.79351 0.22857
 C1822 C 0.55466 0.80157 0.22207
 H1823 H 0.60263 0.82945 0.20927
 H1824 H 0.59727 0.79839 0.17247
 H1825 H 0.54423 0.76245 0.20639
 H1826 H 0.53678 0.79829 0.23798
 H1827 H 0.58048 0.81881 0.22108
 H1828 H 0.55723 0.81263 0.22642
 C1829 C 1.07627 0.30147 0.20249
 C1830 C 1.08432 0.31303 0.20965
 C1831 C 1.09709 0.31907 0.20283
 C1832 C 1.10210 0.31364 0.18891
 C1833 C 1.09370 0.30216 0.18205
 N1834 N 1.08126 0.29644 0.18894
 C1835 C 1.06296 0.29404 0.20946
 N1836 N 1.05760 0.28111 0.20317
 C1837 C 1.04592 0.27321 0.20917
 C1838 C 1.03904 0.27816 0.22240
 C1839 C 1.04407 0.29155 0.22896
 C1840 C 1.05589 0.29960 0.22248
 H1841 H 1.10312 0.32782 0.20869
 H1842 H 1.09702 0.29761 0.17131
 H1843 H 1.04225 0.26289 0.20384
 H1844 H 1.03890 0.29566 0.23917
 H1845 H 1.08120 0.31729 0.22054
 H1846 H 1.05932 0.30996 0.22779
 C1847 C 1.07610 0.80174 0.70405
 C1848 C 1.08446 0.81302 0.71131
 C1849 C 1.09716 0.81905 0.70435
 C1850 C 1.10175 0.81388 0.69021
 C1851 C 1.09314 0.80259 0.68332
 N1852 N 1.08077 0.79691 0.69032
 C1853 C 1.06274 0.79443 0.71096
 N1854 N 1.05699 0.78188 0.70428
 C1855 C 1.04515 0.77413 0.71010
 C1856 C 1.03850 0.77884 0.72352
 C1857 C 1.04393 0.79184 0.73050
 C1858 C 1.05595 0.79975 0.72422
 H1859 H 1.10348 0.82760 0.71023
 H1860 H 1.09614 0.79825 0.67241
 H1861 H 1.04117 0.76409 0.70448
 H1862 H 1.03895 0.79572 0.74089
 H1863 H 1.08158 0.81708 0.72234
 H1864 H 1.05973 0.80981 0.72985
 C1865 C 0.42428 0.70235 0.70038
 C1866 C 0.41948 0.70690 0.68606
 C1867 C 0.40661 0.70048 0.67987
 C1868 C 0.39839 0.68957 0.68787
 C1869 C 0.40357 0.68534 0.70216
 N1870 N 0.41612 0.69180 0.70798
 C1871 C 0.43748 0.70921 0.70780
 N1872 N 0.43832 0.70868 0.72305
 C1873 C 0.44975 0.71521 0.73076
 C1874 C 0.46118 0.72290 0.72306
 C1875 C 0.46084 0.72324 0.70737
 C1876 C 0.44905 0.71636 0.69968
 H1877 H 0.40313 0.70415 0.66883
 H1878 H 0.39758 0.67710 0.70884
 H1879 H 0.44979 0.71465 0.74288
 H1880 H 0.46958 0.72901 0.70112
 H1881 H 0.42529 0.71559 0.67979
 H1882 H 0.44912 0.71665 0.68757
 C1883 C 0.42346 0.19968 0.20359
 C1884 C 0.41700 0.18646 0.20941
 C1885 C 0.40449 0.18020 0.20240
 C1886 C 0.39835 0.18699 0.18953
 C1887 C 0.40540 0.20002 0.18386
 N1888 N 0.41757 0.20593 0.19093
 C1889 C 0.43644 0.20707 0.21087
 N1890 N 0.44570 0.21596 0.20245
 C1891 C 0.45753 0.22351 0.20850
 C1892 C 0.46037 0.22249 0.22390
 C1893 C 0.45104 0.21344 0.23282
 C1894 C 0.43905 0.20571 0.22636
 H1895 H 0.39970 0.17005 0.20716
 H1896 H 0.40123 0.20561 0.17391
 H1897 H 0.46450 0.23054 0.20138
 H1898 H 0.45289 0.21261 0.24479
 H1899 H 0.42160 0.18085 0.21918
 H1900 H 0.43170 0.19918 0.23355
 C1901 C -0.07559 0.70199 0.19874
 C1902 C -0.08067 0.70668 0.18456
 C1903 C -0.09353 0.70013 0.17843
 C1904 C -0.10145 0.68895 0.18637
 C1905 C -0.09601 0.68463 0.20054
 N1906 N -0.08348 0.69120 0.20628
 C1907 C -0.06239 0.70893 0.20612
 N1908 N -0.06133 0.70813 0.22134
 C1909 C -0.04988 0.71466 0.22902
 C1910 C -0.03865 0.72264 0.22133
 C1911 C -0.03920 0.72326 0.20565
 C1912 C -0.05101 0.71638 0.19799
 H1913 H -0.09725 0.70394 0.16752
 H1914 H -0.10173 0.67618 0.20719
 H1915 H -0.04969 0.71389 0.24114
 H1916 H -0.03061 0.72927 0.19941
 H1917 H -0.07508 0.71555 0.17835
 H1918 H -0.05112 0.71690 0.18588
 C1919 C -0.07656 0.20370 0.69980
 C1920 C -0.08527 0.21153 0.68918
 C1921 C -0.09794 0.20467 0.68307
 C1922 C -0.10215 0.19007 0.68753
 C1923 C -0.09328 0.18268 0.69831
 N1924 N -0.08092 0.18958 0.70407
 C1925 C -0.06319 0.21052 0.70703
 N1926 N -0.05775 0.20407 0.71982
 C1927 C -0.04593 0.20996 0.72748
 C1928 C -0.03903 0.22323 0.72242
 C1929 C -0.04411 0.22990 0.70913
 C1930 C -0.05607 0.22352 0.70131
 H1931 H -0.10453 0.21099 0.67502
 H1932 H -0.09605 0.17142 0.70212
 H1933 H -0.04219 0.20454 0.73772
 H1934 H -0.03889 0.24011 0.70492
 H1935 H -0.08270 0.22294 0.68576
 H1936 H -0.05955 0.22882 0.69096
 C1937 C 0.29983 0.42356 0.29825
 C1938 C 0.31249 0.41663 0.29184
 C1939 C 0.31854 0.40373 0.29846
 C1940 C 0.31203 0.39753 0.31145
 C1941 C 0.29932 0.40477 0.31750
 N1942 N 0.29359 0.41735 0.31080
 C1943 C 0.29262 0.43694 0.29129
 N1944 N 0.27772 0.43952 0.29384
 C1945 C 0.27019 0.45113 0.28724
 C1946 C 0.27770 0.46089 0.27737
 C1947 C 0.29310 0.45880 0.27490
 C1948 C 0.30064 0.44688 0.28188
 H1949 H 0.32824 0.39861 0.29321
 H1950 H 0.29384 0.40045 0.32744
 H1951 H 0.25829 0.45257 0.28942
 H1952 H 0.29920 0.46624 0.26739
 H1953 H 0.31751 0.42081 0.28158
 H1954 H 0.31257 0.44555 0.27988
 C1955 C 0.30152 -0.07708 0.79618
 C1956 C 0.31468 -0.08357 0.79038
 C1957 C 0.32087 -0.09622 0.79735
 C1958 C 0.31412 -0.10251 0.81023
 C1959 C 0.30115 -0.09532 0.81590
 N1960 N 0.29529 -0.08302 0.80883
 C1961 C 0.29416 -0.06405 0.78878
 N1962 N 0.28537 -0.05461 0.79709
 C1963 C 0.27789 -0.04274 0.79087
 C1964 C 0.27888 -0.04003 0.77542
 C1965 C 0.28783 -0.04955 0.76664
 C1966 C 0.29548 -0.06157 0.77325
 H1967 H 0.33095 -0.10095 0.79247
 H1968 H 0.29550 -0.09947 0.82583
 H1969 H 0.27094 -0.03562 0.79789
 H1970 H 0.28863 -0.04781 0.75464
 H1971 H 0.32029 -0.07891 0.78064
 H1972 H 0.30191 -0.06906 0.76615
 C1973 C 0.80330 0.42370 0.79637
 C1974 C 0.81659 0.41709 0.79088
 C1975 C 0.82230 0.40411 0.79772
 C1976 C 0.81498 0.39759 0.81016
 C1977 C 0.80197 0.40488 0.81557
 N1978 N 0.79656 0.41742 0.80860
 C1979 C 0.79604 0.43704 0.78923
 N1980 N 0.78396 0.44341 0.79625
 C1981 C 0.77611 0.45513 0.79023
 C1982 C 0.78021 0.46100 0.77623
 C1983 C 0.79264 0.45485 0.76880
 C1984 C 0.80060 0.44288 0.77523
 H1985 H 0.83246 0.39926 0.79311
 H1986 H 0.79586 0.40060 0.82516
 H1987 H 0.76648 0.45963 0.79618
 H1988 H 0.79598 0.45915 0.75791
 H1989 H 0.82267 0.42171 0.78144
 H1990 H 0.80990 0.43820 0.76898
 C1991 C 0.79982 -0.07671 0.29858
 C1992 C 0.81327 -0.08260 0.29280
 C1993 C 0.81955 -0.09550 0.29922
 C1994 C 0.81252 -0.10273 0.31146
 C1995 C 0.79902 -0.09639 0.31688
 N1996 N 0.79308 -0.08384 0.31034
 C1997 C 0.79241 -0.06340 0.29176
 N1998 N 0.77718 -0.06200 0.29288
 C1999 C 0.76954 -0.05044 0.28632
 C2000 C 0.77729 -0.03946 0.27802
 C2001 C 0.79298 -0.04037 0.27707
 C2002 C 0.80060 -0.05229 0.28395
 H2003 H 0.82991 -0.09971 0.29444
 H2004 H 0.79301 -0.10139 0.32619
 H2005 H 0.75740 -0.04998 0.28730
 H2006 H 0.79926 -0.03200 0.27077
 H2007 H 0.81876 -0.07759 0.28316
 H2008 H 0.81273 -0.05274 0.28314
 C2009 C 0.30185 0.57664 0.70285
 C2010 C 0.31424 0.58383 0.70945
 C2011 C 0.32027 0.59673 0.70278
 C2012 C 0.31400 0.60265 0.68956
 C2013 C 0.30160 0.59513 0.68333
 N2014 N 0.29591 0.58257 0.69006
 C2015 C 0.29453 0.56328 0.70976
 N2016 N 0.28007 0.56001 0.70593
 C2017 C 0.27232 0.54840 0.71227
 C2018 C 0.27912 0.53941 0.72331
 C2019 C 0.29411 0.54218 0.72711
 C2020 C 0.30191 0.55404 0.72032
 H2021 H 0.32973 0.60210 0.70816
 H2022 H 0.29631 0.59920 0.67319
 H2023 H 0.26077 0.54642 0.70901
 H2024 H 0.29969 0.53529 0.73549
 H2025 H 0.31906 0.57990 0.71988
 H2026 H 0.31353 0.55583 0.72336
 C2027 C 0.30023 1.07663 0.20270
 C2028 C 0.31097 1.08525 0.21039
 C2029 C 0.31711 1.09800 0.20358
 C2030 C 0.31256 1.10238 0.18914
 C2031 C 0.30168 1.09357 0.18187
 N2032 N 0.29587 1.08114 0.18874
 C2033 C 0.29300 1.06320 0.20957
 N2034 N 0.27971 1.05822 0.20382
 C2035 C 0.27207 1.04637 0.20985
 C2036 C 0.27772 1.03891 0.22252
 C2037 C 0.29150 1.04355 0.22847
 C2038 C 0.29926 1.05556 0.22195
 H2039 H 0.32523 1.10452 0.20980
 H2040 H 0.29783 1.09647 0.17073
 H2041 H 0.26141 1.04304 0.20505
 H2042 H 0.29613 1.03795 0.23825
 H2043 H 0.31442 1.08254 0.22169
 H2044 H 0.31000 1.05872 0.22665
 C2045 C 0.80141 0.57604 0.20271
 C2046 C 0.81539 0.58144 0.20765
 C2047 C 0.82152 0.59437 0.20107
 C2048 C 0.81378 0.60203 0.18962
 C2049 C 0.79983 0.59621 0.18502
 N2050 N 0.79408 0.58364 0.19163
 C2051 C 0.79395 0.56283 0.20969
 N2052 N 0.77872 0.56158 0.20853
 C2053 C 0.77093 0.55012 0.21506
 C2054 C 0.77852 0.53907 0.22340
 C2055 C 0.79422 0.53981 0.22442
 C2056 C 0.80200 0.55164 0.21755
 H2057 H 0.83224 0.59839 0.20513
 H2058 H 0.79335 0.60167 0.17631
 H2059 H 0.75881 0.54976 0.21398
 H2060 H 0.80038 0.53136 0.23072
 H2061 H 0.82140 0.57608 0.21675
 H2062 H 0.81413 0.55191 0.21838
 C2063 C 0.80105 1.07655 0.70245
 C2064 C 0.81509 1.08187 0.70734
 C2065 C 0.82129 1.09474 0.70073
 C2066 C 0.81357 1.10244 0.68929
 C2067 C 0.79953 1.09678 0.68479
 N2068 N 0.79371 1.08424 0.69143
 C2069 C 0.79358 1.06331 0.70940
 N2070 N 0.77836 1.06205 0.70820
 C2071 C 0.77057 1.05055 0.71466
 C2072 C 0.77814 1.03948 0.72299
 C2073 C 0.79383 1.04023 0.72405
 C2074 C 0.80162 1.05210 0.71723
 H2075 H 0.83210 1.09863 0.70467
 H2076 H 0.79304 1.10234 0.67615
 H2077 H 0.75845 1.05019 0.71354
 H2078 H 0.79999 1.03177 0.73034
 H2079 H 0.82112 1.07645 0.71640
 H2080 H 0.81375 1.05237 0.71809
 C2081 C 0.70197 0.57606 0.30056
 C2082 C 0.70651 0.58092 0.31482
 C2083 C 0.70002 0.59383 0.32103
 C2084 C 0.68904 0.60198 0.31309
 C2085 C 0.68488 0.59676 0.29884
 N2086 N 0.69140 0.58420 0.29301
 C2087 C 0.70885 0.56284 0.29308
 N2088 N 0.70827 0.56202 0.27784
 C2089 C 0.71478 0.55056 0.27007
 C2090 C 0.72250 0.53909 0.27770
 C2091 C 0.72288 0.53939 0.29338
 C2092 C 0.71603 0.55121 0.30114
 H2093 H 0.70367 0.59737 0.33203
 H2094 H 0.67661 0.60271 0.29219
 H2095 H 0.71419 0.55056 0.25795
 H2096 H 0.72868 0.53060 0.29957
 H2097 H 0.71522 0.57513 0.32104
 H2098 H 0.71636 0.55113 0.31326
 C2099 C 0.70037 1.07666 0.79897
 C2100 C 0.70593 1.08203 0.81263
 C2101 C 0.69963 1.09488 0.81905
 C2102 C 0.68771 1.10258 0.81196
 C2103 C 0.68251 1.09679 0.79821
 N2104 N 0.68895 1.08426 0.79214
 C2105 C 0.70713 1.06340 0.79145
 N2106 N 0.70656 1.06250 0.77621
 C2107 C 0.71320 1.05105 0.76851
 C2108 C 0.72102 1.03968 0.77622
 C2109 C 0.72136 1.04006 0.79190
 C2110 C 0.71440 1.05187 0.79957
 H2111 H 0.70428 1.09868 0.82956
 H2112 H 0.67348 1.10220 0.79213
 H2113 H 0.71265 1.05097 0.75639
 H2114 H 0.72723 1.03137 0.79815
 H2115 H 0.71533 1.07664 0.81820
 H2116 H 0.71474 1.05191 0.81169
 C2117 C 0.19832 0.57633 0.79698
 C2118 C 0.18583 0.58352 0.79045
 C2119 C 0.17964 0.59625 0.79725
 C2120 C 0.18585 0.60204 0.81049
 C2121 C 0.19835 0.59454 0.81666
 N2122 N 0.20420 0.58213 0.80982
 C2123 C 0.20573 0.56310 0.78994
 N2124 N 0.22022 0.55979 0.79372
 C2125 C 0.22800 0.54827 0.78728
 C2126 C 0.22122 0.53941 0.77619
 C2127 C 0.20621 0.54225 0.77243
 C2128 C 0.19839 0.55399 0.77933
 H2129 H 0.17006 0.60157 0.79196
 H2130 H 0.20364 0.59856 0.82679
 H2131 H 0.23956 0.54623 0.79052
 H2132 H 0.20064 0.53547 0.76403
 H2133 H 0.18104 0.57972 0.78001
 H2134 H 0.18675 0.55580 0.77633
 C2135 C 0.20368 1.07662 0.30120
 C2136 C 0.21090 1.08447 0.31280
 C2137 C 0.20411 1.09723 0.31897
 C2138 C 0.19017 1.10238 0.31360
 C2139 C 0.18335 1.09426 0.30195
 N2140 N 0.19018 1.08184 0.29614
 C2141 C 0.21047 1.06323 0.29378
 N2142 N 0.20453 1.05849 0.28052
 C2143 C 0.21037 1.04671 0.27269
 C2144 C 0.22305 1.03904 0.27808
 C2145 C 0.22920 1.04341 0.29181
 C2146 C 0.22289 1.05538 0.29978
 H2147 H 0.20996 1.10312 0.32780
 H2148 H 0.17260 1.09771 0.29743
 H2149 H 0.20537 1.04356 0.26209
 H2150 H 0.23897 1.03762 0.29626
 H2151 H 0.22182 1.08115 0.31698
 H2152 H 0.22779 1.05831 0.31044
 C2153 C 0.70002 0.42412 0.70252
 C2154 C 0.68611 0.41858 0.70761
 C2155 C 0.67987 0.40584 0.70090
 C2156 C 0.68743 0.39849 0.68916
 C2157 C 0.70136 0.40435 0.68447
 N2158 N 0.70723 0.41675 0.69122
 C2159 C 0.70750 0.43723 0.70958
 N2160 N 0.72272 0.43858 0.70829
 C2161 C 0.73050 0.44994 0.71491
 C2162 C 0.72292 0.46075 0.72353
 C2163 C 0.70723 0.45993 0.72465
 C2164 C 0.69946 0.44824 0.71765
 H2165 H 0.66916 0.40176 0.70500
 H2166 H 0.70774 0.39899 0.67564
 H2167 H 0.74261 0.45041 0.71367
 H2168 H 0.70106 0.46824 0.73109
 H2169 H 0.68021 0.42372 0.71690
 H2170 H 0.68733 0.44793 0.71854
 C2171 C 0.70256 -0.07610 0.19891
 C2172 C 0.70775 -0.08168 0.18511
 C2173 C 0.70104 -0.09444 0.17891
 C2174 C 0.68918 -0.10177 0.18639
 C2175 C 0.68433 -0.09580 0.20016
 N2176 N 0.69109 -0.08339 0.20599
 C2177 C 0.70963 -0.06302 0.20640
 N2178 N 0.70820 -0.06172 0.22156
 C2179 C 0.71471 -0.05033 0.22937
 C2180 C 0.72329 -0.03940 0.22188
 C2181 C 0.72463 -0.04021 0.20627
 C2182 C 0.71779 -0.05198 0.19846
 H2183 H 0.70532 -0.09861 0.16835
 H2184 H 0.67528 -0.10098 0.20642
 H2185 H 0.71340 -0.04994 0.24143
 H2186 H 0.73112 -0.03185 0.20019
 H2187 H 0.71716 -0.07657 0.17930
 H2188 H 0.71887 -0.05231 0.18639
 C2189 C 0.19863 0.42390 0.20309
 C2190 C 0.18754 0.41541 0.21054
 C2191 C 0.18154 0.40266 0.20369
 C2192 C 0.18656 0.39812 0.18947
 C2193 C 0.19763 0.40693 0.18236
 N2194 N 0.20332 0.41934 0.18927
 C2195 C 0.20594 0.43717 0.21010
 N2196 N 0.21939 0.44202 0.20453
 C2197 C 0.22714 0.45366 0.21072
 C2198 C 0.22144 0.46103 0.22339
 C2199 C 0.20750 0.45654 0.22915
 C2200 C 0.19963 0.44474 0.22247
 H2201 H 0.17317 0.39623 0.20978
 H2202 H 0.20185 0.40397 0.17138
 H2203 H 0.23789 0.45692 0.20601
 H2204 H 0.20278 0.46212 0.23888
 H2205 H 0.18375 0.41818 0.22171
 H2206 H 0.18877 0.44172 0.22702
 C2207 C 0.20066 -0.07602 0.70045
 C2208 C 0.18664 -0.08127 0.70549
 C2209 C 0.18036 -0.09408 0.69902
 C2210 C 0.18799 -0.10183 0.68759
 C2211 C 0.20201 -0.09622 0.68288
 N2212 N 0.20793 -0.08371 0.68940
 C2213 C 0.20811 -0.06284 0.70736
 N2214 N 0.22338 -0.06179 0.70665
 C2215 C 0.23107 -0.05039 0.71330
 C2216 C 0.22331 -0.03923 0.72132
 C2217 C 0.20759 -0.03977 0.72185
 C2218 C 0.19993 -0.05151 0.71484
 H2219 H 0.16953 -0.09787 0.70309
 H2220 H 0.20839 -0.10182 0.67419
 H2221 H 0.24323 -0.05019 0.71262
 H2222 H 0.20130 -0.03125 0.72789
 H2223 H 0.18067 -0.07586 0.71459
 H2224 H 0.18777 -0.05164 0.71531
 C2225 C 0.30107 0.29672 0.42352
 C2226 C 0.31440 0.29101 0.41725
 C2227 C 0.32055 0.29793 0.40460
 C2228 C 0.31357 0.31061 0.39811
 C2229 C 0.30044 0.31617 0.40496
 N2230 N 0.29462 0.30919 0.41728
 C2231 C 0.29375 0.28947 0.43662
 N2232 N 0.28462 0.29790 0.44561
 C2233 C 0.27704 0.29184 0.45744
 C2234 C 0.27825 0.27638 0.46058
 C2235 C 0.28758 0.26747 0.45156
 C2236 C 0.29536 0.27395 0.43959
 H2237 H 0.33079 0.29326 0.39997
 H2238 H 0.29467 0.32595 0.40051
 H2239 H 0.26981 0.29896 0.46417
 H2240 H 0.28856 0.25546 0.45364
 H2241 H 0.32016 0.28141 0.42210
 H2242 H 0.30211 0.26674 0.43248
 C2243 C 0.30001 0.79905 -0.07744
 C2244 C 0.31432 0.79435 -0.08226
 C2245 C 0.32061 0.80072 -0.09515
 C2246 C 0.31273 0.81173 -0.10334
 C2247 C 0.29845 0.81610 -0.09815
 N2248 N 0.29252 0.80968 -0.08559
 C2249 C 0.29246 0.79223 -0.06424
 N2250 N 0.27716 0.79283 -0.06341
 C2251 C 0.26933 0.78630 -0.05201
 C2252 C 0.27694 0.77851 -0.04062
 C2253 C 0.29268 0.77812 -0.04093
 C2254 C 0.30050 0.78501 -0.05268
 H2255 H 0.33165 0.79694 -0.09864
 H2256 H 0.29185 0.82442 -0.10413
 H2257 H 0.25716 0.78691 -0.05199
 H2258 H 0.29887 0.77227 -0.03221
 H2259 H 0.32050 0.78560 -0.07645
 H2260 H 0.31266 0.78466 -0.05262
 C2261 C 0.79710 0.30212 -0.07635
 C2262 C 0.79172 0.31582 -0.08226
 C2263 C 0.79834 0.32187 -0.09515
 C2264 C 0.81029 0.31434 -0.10223
 C2265 C 0.81533 0.30068 -0.09595
 N2266 N 0.80865 0.29497 -0.08344
 C2267 C 0.79010 0.29474 -0.06314
 N2268 N 0.79171 0.27953 -0.06144
 C2269 C 0.78517 0.27179 -0.04998
 C2270 C 0.77632 0.27941 -0.03941
 C2271 C 0.77485 0.29510 -0.04059
 C2272 C 0.78175 0.30284 -0.05241
 H2273 H 0.79403 0.33241 -0.09955
 H2274 H 0.82438 0.29434 -0.10106
 H2275 H 0.78662 0.25968 -0.04927
 H2276 H 0.76819 0.30130 -0.03250
 H2277 H 0.78227 0.32167 -0.07729
 H2278 H 0.78055 0.31497 -0.05304
 C2279 C 0.80138 0.79694 0.42274
 C2280 C 0.81267 0.78944 0.41459
 C2281 C 0.81867 0.79616 0.40175
 C2282 C 0.81345 0.81030 0.39683
 C2283 C 0.80210 0.81738 0.40524
 N2284 N 0.79642 0.81061 0.41773
 C2285 C 0.79413 0.79012 0.43614
 N2286 N 0.78047 0.79551 0.44062
 C2287 C 0.77275 0.78945 0.45234
 C2288 C 0.77869 0.77711 0.46021
 C2289 C 0.79286 0.77157 0.45613
 C2290 C 0.80069 0.77812 0.44421
 H2291 H 0.82721 0.79007 0.39558
 H2292 H 0.79770 0.82829 0.40196
 H2293 H 0.76181 0.79396 0.45527
 H2294 H 0.79773 0.76207 0.46207
 H2295 H 0.81665 0.77835 0.41773
 H2296 H 0.81170 0.77374 0.44145
 C2297 C 0.70254 0.30030 0.57683
 C2298 C 0.70801 0.31393 0.58263
 C2299 C 0.70134 0.32016 0.59536
 C2300 C 0.68928 0.31283 0.60252
 C2301 C 0.68418 0.29917 0.59637
 N2302 N 0.69088 0.29333 0.58394
 C2303 C 0.70950 0.29293 0.56360
 N2304 N 0.70781 0.27776 0.56183
 C2305 C 0.71429 0.27010 0.55030
 C2306 C 0.72313 0.27778 0.53973
 C2307 C 0.72471 0.29343 0.54101
 C2308 C 0.71789 0.30107 0.55289
 H2309 H 0.70584 0.33062 0.59961
 H2310 H 0.67497 0.29303 0.60144
 H2311 H 0.71277 0.25801 0.54953
 H2312 H 0.73140 0.29968 0.53295
 H2313 H 0.71759 0.31962 0.57771
 H2314 H 0.71917 0.31318 0.55357
 C2315 C 0.69759 0.79587 1.07707
 C2316 C 0.68577 0.78889 1.08496
 C2317 C 0.67982 0.79579 1.09771
 C2318 C 0.68559 0.80960 1.10278
 C2319 C 0.69734 0.81624 1.09453
 N2320 N 0.70296 0.80930 1.08216
 C2321 C 0.70496 0.78891 1.06381
 N2322 N 0.71808 0.79504 1.05871
 C2323 C 0.72595 0.78908 1.04706
 C2324 C 0.72074 0.77608 1.03990
 C2325 C 0.70716 0.76968 1.04465
 C2326 C 0.69915 0.77611 1.05649
 H2327 H 0.67080 0.79013 1.10360
 H2328 H 0.70223 0.82685 1.09792
 H2329 H 0.73642 0.79427 1.04362
 H2330 H 0.70286 0.75964 1.03926
 H2331 H 0.68124 0.77810 1.08170
 H2332 H 0.68863 0.77096 1.05974
 C2333 C 0.20151 0.30062 1.07645
 C2334 C 0.20612 0.31488 1.08152
 C2335 C 0.19971 0.32093 1.09447
 C2336 C 0.18872 0.31288 1.10250
 C2337 C 0.18442 0.29866 1.09704
 N2338 N 0.19089 0.29296 1.08444
 C2339 C 0.20845 0.29328 1.06320
 N2340 N 0.20791 0.27795 1.06213
 C2341 C 0.21459 0.27031 1.05071
 C2342 C 0.22250 0.27815 1.03953
 C2343 C 0.22282 0.29394 1.04008
 C2344 C 0.21578 0.30156 1.05184
 H2345 H 0.20346 0.33191 1.09818
 H2346 H 0.17612 0.29192 1.10288
 H2347 H 0.21401 0.25810 1.05052
 H2348 H 0.22875 0.30032 1.03154
 H2349 H 0.21486 0.32120 1.07586
 H2350 H 0.21610 0.31376 1.05195
 C2351 C 0.19838 0.79677 0.57699
 C2352 C 0.18500 0.79118 0.58325
 C2353 C 0.17889 0.79809 0.59590
 C2354 C 0.18597 0.81065 0.60236
 C2355 C 0.19917 0.81610 0.59552
 N2356 N 0.20494 0.80912 0.58321
 C2357 C 0.20566 0.78950 0.56392
 N2358 N 0.21487 0.79785 0.55492
 C2359 C 0.22242 0.79174 0.54312
 C2360 C 0.22108 0.77631 0.54004
 C2361 C 0.21167 0.76748 0.54907
 C2362 C 0.20392 0.77401 0.56101
 H2363 H 0.16861 0.79352 0.60053
 H2364 H 0.20503 0.82577 0.59996
 H2365 H 0.22972 0.79880 0.53637
 H2366 H 0.21057 0.75548 0.54704
 H2367 H 0.17916 0.78168 0.57841
 H2368 H 0.19710 0.76685 0.56813
 C2369 C 0.30008 0.70111 0.57643
 C2370 C 0.31433 0.70585 0.58128
 C2371 C 0.32061 0.69945 0.59414
 C2372 C 0.31276 0.68839 0.60230
 C2373 C 0.29853 0.68398 0.59708
 N2374 N 0.29262 0.69042 0.58454
 C2375 C 0.29257 0.70799 0.56324
 N2376 N 0.27728 0.70740 0.56234
 C2377 C 0.26952 0.71405 0.55098
 C2378 C 0.27720 0.72199 0.53971
 C2379 C 0.29294 0.72233 0.54007
 C2380 C 0.30068 0.71529 0.55176
 H2381 H 0.33160 0.70326 0.59764
 H2382 H 0.29197 0.67562 0.60304
 H2383 H 0.25736 0.71345 0.55091
 H2384 H 0.29918 0.72825 0.53143
 H2385 H 0.32048 0.71465 0.57553
 H2386 H 0.31284 0.71562 0.55172
 C2387 C 0.30088 0.20231 1.07677
 C2388 C 0.31499 0.20709 1.08195
 C2389 C 0.32113 0.20049 1.09477
 C2390 C 0.31329 0.18916 1.10257
 C2391 C 0.29918 0.18474 1.09704
 N2392 N 0.29340 0.19138 1.08454
 C2393 C 0.29351 0.20931 1.06357
 N2394 N 0.27825 0.20848 1.06240
 C2395 C 0.27057 0.21508 1.05096
 C2396 C 0.27831 0.22317 1.03984
 C2397 C 0.29403 0.22384 1.04051
 C2398 C 0.30169 0.21688 1.05231
 H2399 H 0.33202 0.20435 1.09854
 H2400 H 0.29261 0.17617 1.10269
 H2401 H 0.25843 0.21428 1.05067
 H2402 H 0.30032 0.22992 1.03201
 H2403 H 0.32114 0.21607 1.07646
 H2404 H 0.31384 0.21743 1.05251
 C2405 C 0.79592 0.69791 1.07730
 C2406 C 0.78907 0.68600 1.08522
 C2407 C 0.79597 0.68015 1.09802
 C2408 C 0.80965 0.68612 1.10314
 C2409 C 0.81616 0.69796 1.09488
 N2410 N 0.80922 0.70347 1.08244
 C2411 C 0.78894 0.70515 1.06396
 N2412 N 0.79497 0.71831 1.05874
 C2413 C 0.78895 0.72609 1.04703
 C2414 C 0.77597 0.72076 1.03997
 C2415 C 0.76969 0.70713 1.04483
 C2416 C 0.77619 0.69921 1.05671
 H2417 H 0.79043 0.67104 1.10391
 H2418 H 0.82666 0.70301 1.09832
 H2419 H 0.79405 0.73660 1.04347
 H2420 H 0.75968 0.70273 1.03951
 H2421 H 0.77838 0.68130 1.08193
 H2422 H 0.77112 0.68866 1.06006
 C2423 C 0.80016 0.20113 0.57614
 C2424 C 0.81324 0.20733 0.58238
 C2425 C 0.81934 0.20097 0.59531
 C2426 C 0.81249 0.18844 0.60219
 C2427 C 0.79938 0.18261 0.59560
 N2428 N 0.79360 0.18906 0.58300
 C2429 C 0.79287 0.20789 0.56281
 N2430 N 0.77778 0.20603 0.56093
 C2431 C 0.77016 0.21258 0.54942
 C2432 C 0.77779 0.22168 0.53902
 C2433 C 0.79337 0.22337 0.54038
 C2434 C 0.80098 0.21645 0.55222
 H2435 H 0.82938 0.20603 0.59989
 H2436 H 0.79362 0.17303 0.60046
 H2437 H 0.75811 0.21099 0.54856
 H2438 H 0.79955 0.23027 0.53244
 H2439 H 0.81853 0.21724 0.57763
 H2440 H 0.81303 0.21785 0.55302
 C2441 C 0.69848 0.70351 0.42275
 C2442 C 0.68432 0.70817 0.41744
 C2443 C 0.67829 0.70146 0.40465
 C2444 C 0.68620 0.69000 0.39717
 C2445 C 0.70011 0.68540 0.40307
 N2446 N 0.70581 0.69220 0.41545
 C2447 C 0.70584 0.71054 0.43591
 N2448 N 0.71756 0.70316 0.44254
 C2449 C 0.72539 0.70913 0.45419
 C2450 C 0.72163 0.72343 0.45968
 C2451 C 0.70960 0.73124 0.45317
 C2452 C 0.70170 0.72489 0.44126
 H2453 H 0.66739 0.70520 0.40073
 H2454 H 0.70664 0.67662 0.39773
 H2455 H 0.73471 0.70288 0.45894
 H2456 H 0.70660 0.74241 0.45708
 H2457 H 0.67779 0.71674 0.42309
 H2458 H 0.69283 0.73144 0.43611
 C2459 C 0.70400 0.19888 -0.07652
 C2460 C 0.71088 0.18690 -0.08426
 C2461 C 0.70395 0.18088 -0.09690
 C2462 C 0.69020 0.18671 -0.10203
 C2463 C 0.68367 0.19867 -0.09403
 N2464 N 0.69063 0.20435 -0.08171
 C2465 C 0.71094 0.20620 -0.06323
 N2466 N 0.70426 0.21881 -0.05753
 C2467 C 0.71012 0.22659 -0.04580
 C2468 C 0.72362 0.22186 -0.03923
 C2469 C 0.73061 0.20882 -0.04462
 C2470 C 0.72429 0.20087 -0.05651
 H2471 H 0.70958 0.17182 -0.10276
 H2472 H 0.67305 0.20351 -0.09749
 H2473 H 0.70447 0.23666 -0.04185
 H2474 H 0.74106 0.20490 -0.03971
 H2475 H 0.72158 0.18222 -0.08096
 H2476 H 0.73001 0.19083 -0.06027
 C2477 C 0.20069 0.70051 -0.07737
 C2478 C 0.20492 0.68596 -0.08199
 C2479 C 0.19848 0.67976 -0.09483
 C2480 C 0.18788 0.68798 -0.10321
 C2481 C 0.18396 0.70249 -0.09819
 N2482 N 0.19043 0.70830 -0.08567
 C2483 C 0.20761 0.70799 -0.06423
 N2484 N 0.20732 0.72334 -0.06351
 C2485 C 0.21390 0.73111 -0.05216
 C2486 C 0.22143 0.72337 -0.04068
 C2487 C 0.22152 0.70756 -0.04088
 C2488 C 0.21458 0.69981 -0.05259
 H2489 H 0.20196 0.66857 -0.09818
 H2490 H 0.17594 0.70934 -0.10425
 H2491 H 0.21352 0.74333 -0.05224
 H2492 H 0.22714 0.70126 -0.03209
 H2493 H 0.21337 0.67950 -0.07606
 H2494 H 0.21470 0.68761 -0.05242
 C2495 C 0.19871 0.20267 0.42394
 C2496 C 0.18460 0.20746 0.41866
 C2497 C 0.17856 0.20090 0.40580
 C2498 C 0.18650 0.18961 0.39810
 C2499 C 0.20060 0.18519 0.40373
 N2500 N 0.20626 0.19178 0.41625
 C2501 C 0.20602 0.20960 0.43716
 N2502 N 0.22126 0.20852 0.43849
 C2503 C 0.22892 0.21504 0.44993
 C2504 C 0.22120 0.22333 0.46087
 C2505 C 0.20549 0.22423 0.46006
 C2506 C 0.19784 0.21735 0.44826
 H2507 H 0.16768 0.20474 0.40194
 H2508 H 0.20725 0.17667 0.39816
 H2509 H 0.24105 0.21403 0.45033
 H2510 H 0.19922 0.23047 0.46842
 H2511 H 0.17837 0.21640 0.42409
 H2512 H 0.18571 0.21811 0.44795
 C2513 C 0.30189 0.42326 0.70296
 C2514 C 0.31420 0.41583 0.70956
 C2515 C 0.32023 0.40301 0.70275
 C2516 C 0.31404 0.39741 0.68941
 C2517 C 0.30170 0.40516 0.68321
 N2518 N 0.29602 0.41762 0.69006
 C2519 C 0.29458 0.43658 0.70994
 N2520 N 0.28020 0.44009 0.70593
 C2521 C 0.27247 0.45171 0.71223
 C2522 C 0.27919 0.46049 0.72340
 C2523 C 0.29411 0.45748 0.72740
 C2524 C 0.30189 0.44559 0.72065
 H2525 H 0.32962 0.39743 0.70812
 H2526 H 0.29648 0.40136 0.67297
 H2527 H 0.26098 0.45387 0.70882
 H2528 H 0.29963 0.46419 0.73588
 H2529 H 0.31897 0.41953 0.72006
 H2530 H 0.31345 0.44361 0.72384
 C2531 C 0.29715 0.92300 0.19875
 C2532 C 0.29184 0.91740 0.18505
 C2533 C 0.29845 0.90458 0.17883
 C2534 C 0.31032 0.89717 0.18620
 C2535 C 0.31527 0.90311 0.19992
 N2536 N 0.30861 0.91562 0.20579
 C2537 C 0.29017 0.93626 0.20612
 N2538 N 0.29143 0.93772 0.22127
 C2539 C 0.28481 0.94922 0.22891
 C2540 C 0.27628 0.96008 0.22123
 C2541 C 0.27516 0.95911 0.20562
 C2542 C 0.28212 0.94726 0.19800
 H2543 H 0.29412 0.90051 0.16828
 H2544 H 0.32429 0.89781 0.20611
 H2545 H 0.28596 0.94975 0.24097
 H2546 H 0.26870 0.96739 0.19939
 H2547 H 0.28244 0.92255 0.17929
 H2548 H 0.28120 0.94683 0.18593
 C2549 C 0.80068 0.42343 0.20227
 C2550 C 0.81482 0.41812 0.20694
 C2551 C 0.82095 0.40526 0.20029
 C2552 C 0.81306 0.39760 0.18902
 C2553 C 0.79894 0.40326 0.18472
 N2554 N 0.79318 0.41577 0.19140
 C2555 C 0.79327 0.43664 0.20928
 N2556 N 0.77802 0.43787 0.20834
 C2557 C 0.77028 0.44934 0.21488
 C2558 C 0.77794 0.46042 0.22300
 C2559 C 0.79365 0.45970 0.22380
 C2560 C 0.80138 0.44785 0.21692
 H2561 H 0.83186 0.40137 0.20403
 H2562 H 0.79233 0.39770 0.17622
 H2563 H 0.75814 0.44967 0.21397
 H2564 H 0.79988 0.46817 0.22992
 H2565 H 0.82100 0.42354 0.21586
 H2566 H 0.81352 0.44761 0.21757
 C2567 C 0.79737 0.92375 0.69961
 C2568 C 0.79241 0.91841 0.68569
 C2569 C 0.79926 0.90581 0.67936
 C2570 C 0.81115 0.89845 0.68674
 C2571 C 0.81609 0.90444 0.70045
 N2572 N 0.80916 0.91674 0.70646
 C2573 C 0.78995 0.93669 0.70706
 N2574 N 0.79799 0.94544 0.71669
 C2575 C 0.79169 0.95725 0.72415
 C2576 C 0.77640 0.96060 0.72225
 C2577 C 0.76788 0.95175 0.71248
 C2578 C 0.77459 0.93979 0.70487
 H2579 H 0.79516 0.90192 0.66865
 H2580 H 0.82528 0.89929 0.70654
 H2581 H 0.79849 0.96382 0.73177
 H2582 H 0.75599 0.95397 0.71098
 H2583 H 0.78341 0.92394 0.67964
 H2584 H 0.76767 0.93283 0.69772
 C2585 C 0.70012 0.57646 0.70215
 C2586 C 0.68594 0.58167 0.70683
 C2587 C 0.67975 0.59451 0.70015
 C2588 C 0.68761 0.60229 0.68884
 C2589 C 0.70177 0.59672 0.68452
 N2590 N 0.70759 0.58421 0.69124
 C2591 C 0.70754 0.56324 0.70919
 N2592 N 0.72281 0.56209 0.70837
 C2593 C 0.73053 0.55061 0.71497
 C2594 C 0.72282 0.53942 0.72303
 C2595 C 0.70710 0.54006 0.72369
 C2596 C 0.69940 0.55192 0.71676
 H2597 H 0.66881 0.59831 0.70392
 H2598 H 0.70835 0.60235 0.67597
 H2599 H 0.74268 0.55036 0.71418
 H2600 H 0.70085 0.53152 0.72977
 H2601 H 0.67978 0.57620 0.71578
 H2602 H 0.68725 0.55210 0.71732
 C2603 C 0.69888 0.07696 0.20375
 C2604 C 0.68775 0.08548 0.21110
 C2605 C 0.68174 0.09822 0.20412
 C2606 C 0.68678 0.10271 0.18986
 C2607 C 0.69795 0.09394 0.18290
 N2608 N 0.70363 0.08153 0.18992
 C2609 C 0.70615 0.06357 0.21073
 N2610 N 0.71900 0.05803 0.20440
 C2611 C 0.72671 0.04620 0.21037
 C2612 C 0.72164 0.03934 0.22361
 C2613 C 0.70832 0.04452 0.23019
 C2614 C 0.70046 0.05652 0.22374
 H2615 H 0.67331 0.10465 0.21009
 H2616 H 0.70220 0.09688 0.17191
 H2617 H 0.73698 0.04240 0.20503
 H2618 H 0.70413 0.03935 0.24039
 H2619 H 0.68384 0.08271 0.22224
 H2620 H 0.69012 0.06009 0.22902
 C2621 C 0.20165 0.57669 0.19930
 C2622 C 0.20769 0.58296 0.18613
 C2623 C 0.20101 0.59570 0.17978
 C2624 C 0.18834 0.60238 0.18649
 C2625 C 0.18269 0.59579 0.19971
 N2626 N 0.18942 0.58336 0.20571
 C2627 C 0.20864 0.56349 0.20681
 N2628 N 0.20628 0.56142 0.22178
 C2629 C 0.21284 0.54995 0.22958
 C2630 C 0.22247 0.53982 0.22228
 C2631 C 0.22474 0.54140 0.20683
 C2632 C 0.21781 0.55317 0.19903
 H2633 H 0.20600 0.60038 0.16973
 H2634 H 0.17297 0.60048 0.20533
 H2635 H 0.21078 0.54891 0.24151
 H2636 H 0.23203 0.53365 0.20089
 H2637 H 0.21771 0.57843 0.18093
 H2638 H 0.21963 0.55407 0.18707
 C2639 C 0.20058 0.07631 0.70110
 C2640 C 0.18633 0.08133 0.70573
 C2641 C 0.18009 0.09420 0.69919
 C2642 C 0.18799 0.10220 0.68807
 C2643 C 0.20222 0.09681 0.68377
 N2644 N 0.20809 0.08426 0.69036
 C2645 C 0.20802 0.06309 0.70808
 N2646 N 0.22331 0.06218 0.70762
 C2647 C 0.23102 0.05071 0.71425
 C2648 C 0.22326 0.03932 0.72197
 C2649 C 0.20752 0.03974 0.72225
 C2650 C 0.19984 0.05157 0.71528
 H2651 H 0.16909 0.09785 0.70291
 H2652 H 0.20881 0.10264 0.67536
 H2653 H 0.24319 0.05061 0.71374
 H2654 H 0.20124 0.03102 0.72804
 H2655 H 0.18014 0.07569 0.71457
 H2656 H 0.18768 0.05157 0.71553
 C2657 C 0.29684 0.57726 0.30080
 C2658 C 0.28935 0.58537 0.31209
 C2659 C 0.29607 0.59812 0.31826
 C2660 C 0.31023 0.60301 0.31323
 C2661 C 0.31731 0.59468 0.30183
 N2662 N 0.31053 0.58225 0.29599
 C2663 C 0.29003 0.56387 0.29348
 N2664 N 0.29553 0.55932 0.27994
 C2665 C 0.28950 0.54757 0.27223
 C2666 C 0.27706 0.53978 0.27803
 C2667 C 0.27141 0.54396 0.29206
 C2668 C 0.27795 0.55585 0.29991
 H2669 H 0.28999 0.60422 0.32683
 H2670 H 0.32821 0.59796 0.29754
 H2671 H 0.29413 0.54457 0.26140
 H2672 H 0.26188 0.53806 0.29687
 H2673 H 0.27825 0.58227 0.31597
 H2674 H 0.27351 0.55860 0.31085
 C2675 C 0.29865 0.07559 0.80013
 C2676 C 0.29397 0.08042 0.81438
 C2677 C 0.30029 0.09336 0.82060
 C2678 C 0.31125 0.10159 0.81271
 C2679 C 0.31559 0.09639 0.79848
 N2680 N 0.30921 0.08378 0.79262
 C2681 C 0.29183 0.06235 0.79265
 N2682 N 0.29236 0.06156 0.77741
 C2683 C 0.28579 0.05016 0.76966
 C2684 C 0.27801 0.03873 0.77731
 C2685 C 0.27770 0.03899 0.79300
 C2686 C 0.28464 0.05074 0.80073
 H2687 H 0.29652 0.09686 0.83159
 H2688 H 0.32386 0.10241 0.79188
 H2689 H 0.28636 0.05016 0.75754
 H2690 H 0.27188 0.03024 0.79921
 H2691 H 0.28526 0.07459 0.82057
 H2692 H 0.28435 0.05063 0.81285
 C2693 C 0.79870 0.57668 0.80051
 C2694 C 0.79379 0.58172 0.81461
 C2695 C 0.80019 0.59460 0.82086
 C2696 C 0.81147 0.60257 0.81314
 C2697 C 0.81603 0.59718 0.79906
 N2698 N 0.80957 0.58462 0.79316
 C2699 C 0.79188 0.56344 0.79305
 N2700 N 0.79260 0.56251 0.77782
 C2701 C 0.78611 0.55105 0.77009
 C2702 C 0.77826 0.53968 0.77775
 C2703 C 0.77773 0.54010 0.79343
 C2704 C 0.78456 0.55192 0.80114
 H2705 H 0.79624 0.59826 0.83173
 H2706 H 0.82456 0.60298 0.79259
 H2707 H 0.78681 0.55095 0.75797
 H2708 H 0.77183 0.53139 0.79964
 H2709 H 0.78485 0.57609 0.82065
 H2710 H 0.78411 0.55193 0.81326
 C2711 C 0.80071 0.07585 0.29850
 C2712 C 0.81472 0.08128 0.29354
 C2713 C 0.82090 0.09409 0.30018
 C2714 C 0.81321 0.10163 0.31172
 C2715 C 0.79926 0.09577 0.31638
 N2716 N 0.79344 0.08331 0.30969
 C2717 C 0.79321 0.06275 0.29142
 N2718 N 0.77798 0.06147 0.29264
 C2719 C 0.77018 0.05010 0.28606
 C2720 C 0.77775 0.03917 0.27758
 C2721 C 0.79345 0.03995 0.27648
 C2722 C 0.80124 0.05168 0.28341
 H2723 H 0.83164 0.09813 0.29611
 H2724 H 0.79281 0.10115 0.32514
 H2725 H 0.75806 0.04973 0.28720
 H2726 H 0.79961 0.03159 0.27009
 H2727 H 0.82071 0.07604 0.28437
 H2728 H 0.81336 0.05197 0.28250
 C2729 C 0.70078 0.42361 0.29993
 C2730 C 0.70550 0.41864 0.31414
 C2731 C 0.69909 0.40573 0.32044
 C2732 C 0.68802 0.39764 0.31267
 C2733 C 0.68364 0.40297 0.29848
 N2734 N 0.69010 0.41555 0.29253
 C2735 C 0.70765 0.43686 0.29241
 N2736 N 0.70720 0.43775 0.27717
 C2737 C 0.71384 0.44919 0.26941
 C2738 C 0.72157 0.46058 0.27707
 C2739 C 0.72179 0.46021 0.29276
 C2740 C 0.71480 0.44842 0.30049
 H2741 H 0.70289 0.40214 0.33140
 H2742 H 0.67527 0.39706 0.29197
 H2743 H 0.71336 0.44925 0.25729
 H2744 H 0.72760 0.46891 0.29898
 H2745 H 0.71429 0.42437 0.32024
 H2746 H 0.71503 0.44845 0.31261
 C2747 C 0.69968 0.92422 0.79917
 C2748 C 0.70448 0.91930 0.81335
 C2749 C 0.69823 0.90634 0.81966
 C2750 C 0.68723 0.89812 0.81191
 C2751 C 0.68272 0.90341 0.79775
 N2752 N 0.68904 0.91607 0.79179
 C2753 C 0.70647 0.93752 0.79167
 N2754 N 0.70619 0.93835 0.77642
 C2755 C 0.71290 0.94978 0.76871
 C2756 C 0.72057 0.96117 0.77642
 C2757 C 0.72059 0.96088 0.79211
 C2758 C 0.71350 0.94912 0.79979
 H2759 H 0.70209 0.90280 0.83061
 H2760 H 0.67438 0.89742 0.79128
 H2761 H 0.71257 0.94979 0.75658
 H2762 H 0.72633 0.96960 0.79836
 H2763 H 0.71325 0.92509 0.81943
 H2764 H 0.71359 0.94920 0.81191
 C2765 C 0.19822 0.42338 0.79649
 C2766 C 0.18590 0.41602 0.78993
 C2767 C 0.17989 0.40319 0.79678
 C2768 C 0.18612 0.39753 0.81014
 C2769 C 0.19845 0.40522 0.81630
 N2770 N 0.20412 0.41769 0.80940
 C2771 C 0.20552 0.43668 0.78945
 N2772 N 0.21992 0.44009 0.79343
 C2773 C 0.22767 0.45168 0.78706
 C2774 C 0.22095 0.46052 0.77587
 C2775 C 0.20602 0.45760 0.77189
 C2776 C 0.19822 0.44575 0.77870
 H2777 H 0.17051 0.39765 0.79143
 H2778 H 0.20370 0.40137 0.82654
 H2779 H 0.23916 0.45377 0.79045
 H2780 H 0.20051 0.46437 0.76338
 H2781 H 0.18111 0.41978 0.77943
 H2782 H 0.18666 0.44384 0.77553
 C2783 C 0.19796 0.92311 0.29655
 C2784 C 0.18469 0.91675 0.29087
 C2785 C 0.17867 0.90388 0.29767
 C2786 C 0.18581 0.89725 0.31010
 C2787 C 0.19910 0.90396 0.31536
 N2788 N 0.20477 0.91644 0.30852
 C2789 C 0.20528 0.93635 0.28947
 N2790 N 0.22031 0.93840 0.29161
 C2791 C 0.22800 0.94994 0.28513
 C2792 C 0.22052 0.96025 0.27583
 C2793 C 0.20499 0.95871 0.27376
 C2794 C 0.19730 0.94679 0.28059
 H2795 H 0.16849 0.89913 0.29306
 H2796 H 0.20514 0.89929 0.32481
 H2797 H 0.23999 0.95094 0.28700
 H2798 H 0.19892 0.96659 0.26669
 H2799 H 0.17916 0.92134 0.28107
 H2800 H 0.18529 0.94588 0.27894
 C2801 C 0.42359 0.29588 0.69834
 C2802 C 0.41594 0.28873 0.68656
 C2803 C 0.40316 0.29547 0.68041
 C2804 C 0.39779 0.30928 0.68596
 C2805 C 0.40570 0.31601 0.69781
 N2806 N 0.41815 0.30923 0.70361
 C2807 C 0.43696 0.28910 0.70571
 N2808 N 0.44104 0.29423 0.71951
 C2809 C 0.45278 0.28825 0.72729
 C2810 C 0.46110 0.27629 0.72126
 C2811 C 0.45741 0.27101 0.70697
 C2812 C 0.44546 0.27745 0.69908
 H2813 H 0.39742 0.28968 0.67143
 H2814 H 0.40207 0.32663 0.70253
 H2815 H 0.45538 0.29256 0.73833
 H2816 H 0.46369 0.26179 0.70202
 H2817 H 0.41945 0.27789 0.68228
 H2818 H 0.44303 0.27329 0.68798
 C2819 C 0.42312 0.79812 0.19883
 C2820 C 0.41621 0.79142 0.18638
 C2821 C 0.40333 0.79793 0.18026
 C2822 C 0.39713 0.81111 0.18646
 C2823 C 0.40432 0.81741 0.19898
 N2824 N 0.41689 0.81082 0.20479
 C2825 C 0.43649 0.79130 0.20614
 N2826 N 0.43930 0.79455 0.22079
 C2827 C 0.45088 0.78813 0.22847
 C2828 C 0.46032 0.77764 0.22142
 C2829 C 0.45804 0.77450 0.20623
 C2830 C 0.44620 0.78135 0.19852
 H2831 H 0.39819 0.79243 0.17077
 H2832 H 0.40001 0.82752 0.20422
 H2833 H 0.45248 0.79088 0.24018
 H2834 H 0.46527 0.76656 0.20045
 H2835 H 0.42037 0.78103 0.18158
 H2836 H 0.44475 0.77882 0.18676
 C2837 C 0.92351 0.29736 0.19889
 C2838 C 0.91838 0.29256 0.18480
 C2839 C 0.90553 0.29914 0.17860
 C2840 C 0.89767 0.31044 0.18637
 C2841 C 0.90317 0.31489 0.20044
 N2842 N 0.91568 0.30828 0.20626
 C2843 C 0.93672 0.29042 0.20633
 N2844 N 0.93787 0.29142 0.22153
 C2845 C 0.94934 0.28493 0.22928
 C2846 C 0.96051 0.27679 0.22169
 C2847 C 0.95986 0.27593 0.20604
 C2848 C 0.94802 0.28277 0.19829
 H2849 H 0.90178 0.29526 0.16775
 H2850 H 0.89749 0.32344 0.20695
 H2851 H 0.94962 0.28588 0.24138
 H2852 H 0.96839 0.26979 0.19987
 H2853 H 0.92391 0.28359 0.17872
 H2854 H 0.94784 0.28206 0.18620
 C2855 C 0.92307 0.79859 0.69885
 C2856 C 0.91793 0.79382 0.68476
 C2857 C 0.90507 0.80037 0.67859
 C2858 C 0.89718 0.81165 0.68637
 C2859 C 0.90268 0.81608 0.70045
 N2860 N 0.91522 0.80948 0.70626
 C2861 C 0.93630 0.79158 0.70623
 N2862 N 0.93739 0.79224 0.72145
 C2863 C 0.94882 0.78553 0.72911
 C2864 C 0.95998 0.77749 0.72140
 C2865 C 0.95941 0.77702 0.70572
 C2866 C 0.94764 0.78409 0.69808
 H2867 H 0.90134 0.79649 0.66774
 H2868 H 0.89696 0.82462 0.70696
 H2869 H 0.94904 0.78621 0.74123
 H2870 H 0.96795 0.77099 0.69945
 H2871 H 0.92348 0.78487 0.67866
 H2872 H 0.94751 0.78367 0.68597
 C2873 C 0.57690 0.29775 0.29923
 C2874 C 0.58244 0.29234 0.31295
 C2875 C 0.59497 0.29913 0.31937
 C2876 C 0.60205 0.31139 0.31226
 C2877 C 0.59589 0.31674 0.29874
 N2878 N 0.58366 0.30988 0.29266
 C2879 C 0.56398 0.29052 0.29171
 N2880 N 0.55515 0.29889 0.28237
 C2881 C 0.54334 0.29281 0.27483
 C2882 C 0.54007 0.27742 0.27636
 C2883 C 0.54899 0.26856 0.28583
 C2884 C 0.56096 0.27505 0.29353
 H2885 H 0.59901 0.29471 0.32993
 H2886 H 0.60084 0.32621 0.29287
 H2887 H 0.53668 0.29988 0.26746
 H2888 H 0.54681 0.25659 0.28706
 H2889 H 0.57711 0.28305 0.31879
 H2890 H 0.56797 0.26789 0.30046
 C2891 C 0.57719 0.79669 0.80120
 C2892 C 0.58316 0.79118 0.81471
 C2893 C 0.59573 0.79810 0.82094
 C2894 C 0.60243 0.81059 0.81386
 C2895 C 0.59587 0.81599 0.80054
 N2896 N 0.58362 0.80900 0.79465
 C2897 C 0.56419 0.78939 0.79384
 N2898 N 0.55527 0.79773 0.78454
 C2899 C 0.54346 0.79160 0.77704
 C2900 C 0.54027 0.77619 0.77855
 C2901 C 0.54926 0.76737 0.78800
 C2902 C 0.56122 0.77391 0.79568
 H2903 H 0.60011 0.79360 0.83134
 H2904 H 0.60051 0.82562 0.79469
 H2905 H 0.53676 0.79864 0.76968
 H2906 H 0.54715 0.75539 0.78921
 H2907 H 0.57812 0.78173 0.82055
 H2908 H 0.56829 0.76677 0.80256
 C2909 C 0.07617 0.29751 0.80132
 C2910 C 0.08128 0.29268 0.81543
 C2911 C 0.09419 0.29913 0.82156
 C2912 C 0.10209 0.31037 0.81370
 C2913 C 0.09660 0.31486 0.79960
 N2914 N 0.08405 0.30835 0.79384
 C2915 C 0.06295 0.29065 0.79392
 N2916 N 0.06188 0.29153 0.77871
 C2917 C 0.05045 0.28501 0.77100
 C2918 C 0.03925 0.27695 0.77866
 C2919 C 0.03980 0.27625 0.79433
 C2920 C 0.05159 0.28312 0.80202
 H2921 H 0.09793 0.29524 0.83243
 H2922 H 0.10233 0.32335 0.79301
 H2923 H 0.05025 0.28584 0.75888
 H2924 H 0.03124 0.27018 0.80055
 H2925 H 0.07570 0.28377 0.82159
 H2926 H 0.05172 0.28253 0.81413
 C2927 C 0.07702 0.79502 0.30150
 C2928 C 0.08557 0.78739 0.31241
 C2929 C 0.09813 0.79437 0.31863
 C2930 C 0.10241 0.80890 0.31399
 C2931 C 0.09362 0.81613 0.30304
 N2932 N 0.08139 0.80911 0.29717
 C2933 C 0.06381 0.78807 0.29404
 N2934 N 0.05837 0.79467 0.28131
 C2935 C 0.04667 0.78879 0.27347
 C2936 C 0.03983 0.77540 0.27828
 C2937 C 0.04493 0.76854 0.29147
 C2938 C 0.05681 0.77488 0.29947
 H2939 H 0.10462 0.78821 0.32688
 H2940 H 0.09639 0.82736 0.29913
 H2941 H 0.04294 0.79436 0.26331
 H2942 H 0.03978 0.75820 0.29548
 H2943 H 0.08295 0.77603 0.31598
 H2944 H 0.06031 0.76940 0.30972
 C2945 C 0.57630 0.70138 0.69999
 C2946 C 0.58132 0.70622 0.68584
 C2947 C 0.59422 0.69982 0.67961
 C2948 C 0.60226 0.68865 0.68742
 C2949 C 0.59689 0.68415 0.70157
 N2950 N 0.58431 0.69059 0.70743
 C2951 C 0.56307 0.70822 0.70745
 N2952 N 0.56207 0.70748 0.72268
 C2953 C 0.55067 0.71410 0.73041
 C2954 C 0.53947 0.72216 0.72277
 C2955 C 0.53992 0.72266 0.70709
 C2956 C 0.55165 0.71565 0.69937
 H2957 H 0.59785 0.70371 0.66868
 H2958 H 0.60275 0.67570 0.70811
 H2959 H 0.55052 0.71339 0.74253
 H2960 H 0.53133 0.72870 0.70088
 H2961 H 0.57565 0.71511 0.67972
 H2962 H 0.55170 0.71611 0.68725
 C2963 C 0.57563 0.20170 0.19881
 C2964 C 0.58061 0.20624 0.18454
 C2965 C 0.59359 0.19982 0.17849
 C2966 C 0.60172 0.18892 0.18658
 C2967 C 0.59637 0.18470 0.20081
 N2968 N 0.58371 0.19116 0.20650
 C2969 C 0.56238 0.20865 0.20614
 N2970 N 0.56141 0.20819 0.22138
 C2971 C 0.55003 0.21495 0.22902
 C2972 C 0.53882 0.22288 0.22125
 C2973 C 0.53923 0.22309 0.20557
 C2974 C 0.55095 0.21593 0.19795
 H2975 H 0.59721 0.20350 0.16749
 H2976 H 0.60229 0.17648 0.20757
 H2977 H 0.54990 0.21446 0.24115
 H2978 H 0.53064 0.22901 0.19927
 H2979 H 0.57487 0.21493 0.17821
 H2980 H 0.55098 0.21616 0.18583
 C2981 C 0.07655 0.70123 0.19864
 C2982 C 0.08186 0.70639 0.18469
 C2983 C 0.09480 0.70001 0.17850
 C2984 C 0.10259 0.68854 0.18614
 C2985 C 0.09685 0.68363 0.20001
 N2986 N 0.08425 0.69007 0.20585
 C2987 C 0.06334 0.70812 0.20615
 N2988 N 0.06210 0.70688 0.22133
 C2989 C 0.05070 0.71345 0.22914
 C2990 C 0.03974 0.72195 0.22161
 C2991 C 0.04047 0.72302 0.20597
 C2992 C 0.05220 0.71608 0.19817
 H2993 H 0.09870 0.70419 0.16777
 H2994 H 0.10247 0.67490 0.20639
 H2995 H 0.05036 0.71232 0.24122
 H2996 H 0.03208 0.72942 0.19985
 H2997 H 0.07642 0.71554 0.17874
 H2998 H 0.05245 0.71698 0.18608
 C2999 C 0.07623 0.19976 0.70191
 C3000 C 0.08138 0.18546 0.70640
 C3001 C 0.09423 0.17938 0.69977
 C3002 C 0.10210 0.18748 0.68870
 C3003 C 0.09657 0.20175 0.68453
 N3004 N 0.08403 0.20746 0.69120
 C3005 C 0.06306 0.20710 0.70902
 N3006 N 0.06197 0.22243 0.70848
 C3007 C 0.05057 0.23007 0.71523
 C3008 C 0.03944 0.22221 0.72317
 C3009 C 0.04001 0.20643 0.72354
 C3010 C 0.05176 0.19880 0.71643
 H3011 H 0.09800 0.16837 0.70346
 H3012 H 0.10223 0.20851 0.67614
 H3013 H 0.05033 0.24228 0.71464
 H3014 H 0.03148 0.20006 0.72950
 H3015 H 0.07586 0.17913 0.71522
 H3016 H 0.05189 0.18660 0.71674
 C3017 C 0.42313 0.70200 0.29998
 C3018 C 0.41580 0.70901 0.31206
 C3019 C 0.40291 0.70248 0.31816
 C3020 C 0.39712 0.68899 0.31231
 C3021 C 0.40470 0.68240 0.30012
 N3022 N 0.41727 0.68901 0.29433
 C3023 C 0.43655 0.70881 0.29275
 N3024 N 0.43973 0.70528 0.27822
 C3025 C 0.45134 0.71172 0.27059
 C3026 C 0.46040 0.72256 0.27755
 C3027 C 0.45776 0.72598 0.29263
 C3028 C 0.44592 0.71907 0.30030
 H3029 H 0.39747 0.70822 0.32737
 H3030 H 0.40069 0.67205 0.29515
 H3031 H 0.45323 0.70875 0.25897
 H3032 H 0.46471 0.73416 0.29835
 H3033 H 0.41965 0.71962 0.31658
 H3034 H 0.44419 0.72182 0.31198
 C3035 C 0.42314 0.19883 0.79741
 C3036 C 0.41568 0.18659 0.79080
 C3037 C 0.40278 0.18072 0.79754
 C3038 C 0.39711 0.18697 0.81087
 C3039 C 0.40483 0.19930 0.81705
 N3040 N 0.41740 0.20485 0.81025
 C3041 C 0.43658 0.20590 0.79043
 N3042 N 0.44010 0.22039 0.79410
 C3043 C 0.45180 0.22790 0.78768
 C3044 C 0.46067 0.22083 0.77675
 C3045 C 0.45764 0.20579 0.77311
 C3046 C 0.44568 0.19824 0.77998
 H3047 H 0.39722 0.17136 0.79214
 H3048 H 0.40093 0.20460 0.82725
 H3049 H 0.45397 0.23949 0.79080
 H3050 H 0.46440 0.20000 0.76480
 H3051 H 0.41943 0.18174 0.78033
 H3052 H 0.44369 0.18658 0.77707
 C3053 C 0.92300 0.70232 0.79997
 C3054 C 0.91769 0.70726 0.81394
 C3055 C 0.90507 0.70046 0.82028
 C3056 C 0.89769 0.68865 0.81285
 C3057 C 0.90363 0.68374 0.79909
 N3058 N 0.91594 0.69061 0.79308
 C3059 C 0.93597 0.70964 0.79251
 N3060 N 0.94450 0.70155 0.78268
 C3061 C 0.95628 0.70777 0.77513
 C3062 C 0.95983 0.72302 0.77715
 C3063 C 0.95124 0.73160 0.78714
 C3064 C 0.93930 0.72497 0.79485
 H3065 H 0.90121 0.70450 0.83105
 H3066 H 0.89842 0.67464 0.79296
 H3067 H 0.96268 0.70094 0.76735
 H3068 H 0.95363 0.74347 0.78874
 H3069 H 0.92326 0.71618 0.82003
 H3070 H 0.93252 0.73193 0.80217
 C3071 C 0.92402 0.19979 0.29916
 C3072 C 0.91873 0.18569 0.29433
 C3073 C 0.90590 0.17948 0.30091
 C3074 C 0.89820 0.18723 0.31229
 C3075 C 0.90385 0.20131 0.31681
 N3076 N 0.91635 0.20718 0.31016
 C3077 C 0.93725 0.20719 0.29210
 N3078 N 0.93839 0.22252 0.29264
 C3079 C 0.94983 0.23014 0.28587
 C3080 C 0.96096 0.22228 0.27790
 C3081 C 0.96031 0.20650 0.27756
 C3082 C 0.94853 0.19890 0.28468
 H3083 H 0.90203 0.16861 0.29701
 H3084 H 0.89822 0.20780 0.32540
 H3085 H 0.95009 0.24235 0.28643
 H3086 H 0.96879 0.20011 0.27157
 H3087 H 0.92414 0.17962 0.28530
 H3088 H 0.94835 0.18671 0.28435
 C3089 C 0.29730 0.30099 0.57578
 C3090 C 0.29276 0.31527 0.58090
 C3091 C 0.29934 0.32131 0.59375
 C3092 C 0.31042 0.31320 0.60160
 C3093 C 0.31459 0.29894 0.59611
 N3094 N 0.30798 0.29328 0.58361
 C3095 C 0.29033 0.29367 0.56259
 N3096 N 0.29099 0.27835 0.56149
 C3097 C 0.28443 0.27070 0.55006
 C3098 C 0.27655 0.27854 0.53888
 C3099 C 0.27607 0.29432 0.53946
 C3100 C 0.28297 0.30195 0.55127
 H3101 H 0.29569 0.33232 0.59750
 H3102 H 0.32294 0.29215 0.60180
 H3103 H 0.28510 0.25850 0.54984
 H3104 H 0.27014 0.30068 0.53092
 H3105 H 0.28399 0.32163 0.57535
 H3106 H 0.28255 0.31414 0.55142
 C3107 C 0.29956 0.79864 0.07445
 C3108 C 0.31383 0.79394 0.07937
 C3109 C 0.32001 0.80027 0.09226
 C3110 C 0.31205 0.81127 0.10037
 C3111 C 0.29780 0.81561 0.09510
 N3112 N 0.29199 0.80923 0.08254
 C3113 C 0.29213 0.79189 0.06122
 N3114 N 0.27684 0.79253 0.06027
 C3115 C 0.26911 0.78608 0.04884
 C3116 C 0.27681 0.77832 0.03751
 C3117 C 0.29255 0.77789 0.03793
 C3118 C 0.30027 0.78470 0.04972
 H3119 H 0.33101 0.79649 0.09583
 H3120 H 0.29113 0.82390 0.10101
 H3121 H 0.25694 0.78673 0.04874
 H3122 H 0.29881 0.77207 0.02926
 H3123 H 0.32007 0.78521 0.07362
 H3124 H 0.31243 0.78433 0.04974
 C3125 C 0.79762 0.30119 0.07571
 C3126 C 0.79277 0.31528 0.08107
 C3127 C 0.79933 0.32131 0.09392
 C3128 C 0.81068 0.31337 0.10155
 C3129 C 0.81517 0.29931 0.09583
 N3130 N 0.80857 0.29364 0.08332
 C3131 C 0.79067 0.29389 0.06250
 N3132 N 0.79171 0.27861 0.06116
 C3133 C 0.78516 0.27097 0.04972
 C3134 C 0.77689 0.27877 0.03880
 C3135 C 0.77602 0.29453 0.03963
 C3136 C 0.78293 0.30215 0.05142
 H3137 H 0.79542 0.33216 0.09784
 H3138 H 0.82375 0.29266 0.10135
 H3139 H 0.78613 0.25880 0.04930
 H3140 H 0.76978 0.30086 0.03128
 H3141 H 0.78377 0.32148 0.07570
 H3142 H 0.78220 0.31433 0.05175
 C3143 C 0.79737 0.80041 0.57555
 C3144 C 0.79131 0.81361 0.58182
 C3145 C 0.79783 0.81976 0.59462
 C3146 C 0.81036 0.81282 0.60134
 C3147 C 0.81602 0.79959 0.59474
 N3148 N 0.80944 0.79379 0.58228
 C3149 C 0.79057 0.79300 0.56232
 N3150 N 0.79332 0.77805 0.56003
 C3151 C 0.78701 0.77027 0.54854
 C3152 C 0.77718 0.77756 0.53861
 C3153 C 0.77452 0.79302 0.54039
 C3154 C 0.78124 0.80082 0.55218
 H3155 H 0.79291 0.82989 0.59925
 H3156 H 0.82557 0.79373 0.59948
 H3157 H 0.78938 0.75835 0.54734
 H3158 H 0.76708 0.79897 0.53279
 H3159 H 0.78142 0.81901 0.57722
 H3160 H 0.77912 0.81279 0.55322
 C3161 C 0.29977 0.70215 0.42455
 C3162 C 0.31408 0.70666 0.41957
 C3163 C 0.32020 0.70020 0.40668
 C3164 C 0.31214 0.68930 0.39863
 C3165 C 0.29784 0.68514 0.40396
 N3166 N 0.29209 0.69164 0.41653
 C3167 C 0.29244 0.70903 0.43780
 N3168 N 0.27715 0.70867 0.43881
 C3169 C 0.26954 0.71526 0.45029
 C3170 C 0.27739 0.72284 0.46160
 C3171 C 0.29313 0.72298 0.46110
 C3172 C 0.30072 0.71604 0.44926
 H3173 H 0.33125 0.70382 0.40308
 H3174 H 0.29111 0.67692 0.39809
 H3175 H 0.25737 0.71485 0.45045
 H3176 H 0.29949 0.72868 0.46974
 H3177 H 0.32041 0.71533 0.42526
 H3178 H 0.31288 0.71620 0.44919
 C3179 C 0.29714 0.19974 0.92373
 C3180 C 0.28940 0.18897 0.91519
 C3181 C 0.29614 0.18292 0.90243
 C3182 C 0.31056 0.18756 0.89795
 C3183 C 0.31788 0.19848 0.90668
 N3184 N 0.31108 0.20420 0.91913
 C3185 C 0.29038 0.20692 0.93721
 N3186 N 0.29663 0.21987 0.94257
 C3187 C 0.29074 0.22750 0.95443
 C3188 C 0.27766 0.22224 0.96150
 C3189 C 0.27121 0.20878 0.95651
 C3190 C 0.27759 0.20100 0.94450
 H3191 H 0.28986 0.17476 0.89599
 H3192 H 0.32900 0.20243 0.90371
 H3193 H 0.29598 0.23788 0.95806
 H3194 H 0.26114 0.20442 0.96181
 H3195 H 0.27812 0.18538 0.91795
 H3196 H 0.27244 0.19053 0.94108
 C3197 C 0.80000 0.70207 0.92452
 C3198 C 0.81364 0.70752 0.91870
 C3199 C 0.81966 0.70108 0.90578
 C3200 C 0.81217 0.68923 0.89851
 C3201 C 0.79852 0.68415 0.90468
 N3202 N 0.79284 0.69066 0.91727
 C3203 C 0.79276 0.70892 0.93783
 N3204 N 0.77758 0.70766 0.93944
 C3205 C 0.77001 0.71419 0.95098
 C3206 C 0.77780 0.72264 0.96169
 C3207 C 0.79346 0.72374 0.96058
 C3208 C 0.80101 0.71685 0.94870
 H3209 H 0.83017 0.70550 0.90152
 H3210 H 0.79223 0.67515 0.89948
 H3211 H 0.75790 0.71308 0.95162
 H3212 H 0.79977 0.73013 0.96877
 H3213 H 0.81947 0.71691 0.92377
 H3214 H 0.81313 0.71776 0.94812
 C3215 C 0.79652 0.19846 0.42328
 C3216 C 0.78967 0.18644 0.41565
 C3217 C 0.79645 0.18054 0.40283
 C3218 C 0.81002 0.18654 0.39738
 C3219 C 0.81654 0.19851 0.40535
 N3220 N 0.80971 0.20409 0.41783
 C3221 C 0.78960 0.20572 0.43666
 N3222 N 0.79520 0.21920 0.44139
 C3223 C 0.78917 0.22693 0.45310
 C3224 C 0.77660 0.22121 0.46071
 C3225 C 0.77077 0.20725 0.45632
 C3226 C 0.77730 0.19938 0.44444
 H3227 H 0.79089 0.17133 0.39718
 H3228 H 0.82696 0.20359 0.40165
 H3229 H 0.79392 0.23770 0.45625
 H3230 H 0.76109 0.20252 0.46205
 H3231 H 0.77904 0.18173 0.41916
 H3232 H 0.77263 0.18854 0.44152
 C3233 C 0.69907 0.29674 0.42388
 C3234 C 0.68790 0.28919 0.41569
 C3235 C 0.68191 0.29589 0.40287
 C3236 C 0.68703 0.31008 0.39799
 C3237 C 0.69830 0.31720 0.40640
 N3238 N 0.70396 0.31044 0.41890
 C3239 C 0.70626 0.28995 0.43731
 N3240 N 0.71972 0.29557 0.44198
 C3241 C 0.72741 0.28953 0.45373
 C3242 C 0.72165 0.27696 0.46137
 C3243 C 0.70767 0.27120 0.45709
 C3244 C 0.69984 0.27775 0.44519
 H3245 H 0.67344 0.28977 0.39669
 H3246 H 0.70263 0.32812 0.40313
 H3247 H 0.73819 0.29423 0.45683
 H3248 H 0.70291 0.26155 0.46288
 H3249 H 0.68399 0.27807 0.41879
 H3250 H 0.68896 0.27321 0.44232
 C3251 C 0.70251 0.80065 0.92438
 C3252 C 0.70793 0.81431 0.91847
 C3253 C 0.70145 0.82031 0.90552
 C3254 C 0.68960 0.81276 0.89834
 C3255 C 0.68456 0.79910 0.90462
 N3256 N 0.69110 0.79345 0.91721
 C3257 C 0.70937 0.79339 0.93770
 N3258 N 0.70797 0.77817 0.93941
 C3259 C 0.71445 0.77056 0.95097
 C3260 C 0.72298 0.77833 0.96163
 C3261 C 0.72423 0.79403 0.96043
 C3262 C 0.71741 0.80163 0.94851
 H3263 H 0.70583 0.83083 0.90117
 H3264 H 0.67555 0.79277 0.89950
 H3265 H 0.71321 0.75842 0.95169
 H3266 H 0.73070 0.80032 0.96857
 H3267 H 0.71730 0.82018 0.92349
 H3268 H 0.71843 0.81378 0.94785
 C3269 C 0.20260 0.30074 0.92415
 C3270 C 0.20768 0.31464 0.91848
 C3271 C 0.20111 0.32069 0.90559
 C3272 C 0.18950 0.31296 0.89823
 C3273 C 0.18481 0.29905 0.90423
 N3274 N 0.19142 0.29336 0.91678
 C3275 C 0.20951 0.29345 0.93744
 N3276 N 0.20826 0.27821 0.93907
 C3277 C 0.21479 0.27059 0.95060
 C3278 C 0.22325 0.27837 0.96131
 C3279 C 0.22432 0.29409 0.96021
 C3280 C 0.21743 0.30170 0.94833
 H3281 H 0.20521 0.33140 0.90143
 H3282 H 0.17603 0.29255 0.89894
 H3283 H 0.21366 0.25843 0.95125
 H3284 H 0.23071 0.30041 0.96839
 H3285 H 0.21687 0.32068 0.92363
 H3286 H 0.21832 0.31386 0.94777
 C3287 C 0.20228 0.80124 0.42457
 C3288 C 0.20684 0.81548 0.41929
 C3289 C 0.20030 0.82146 0.40634
 C3290 C 0.18925 0.81332 0.39858
 C3291 C 0.18505 0.79912 0.40423
 N3292 N 0.19163 0.79351 0.41682
 C3293 C 0.20922 0.79396 0.43785
 N3294 N 0.20844 0.77865 0.43913
 C3295 C 0.21496 0.77100 0.45064
 C3296 C 0.22290 0.77881 0.46172
 C3297 C 0.22351 0.79458 0.46095
 C3298 C 0.21665 0.80222 0.44906
 H3299 H 0.20396 0.83244 0.40247
 H3300 H 0.17672 0.79232 0.39860
 H3301 H 0.21421 0.75880 0.45100
 H3302 H 0.22950 0.80092 0.46941
 H3303 H 0.21560 0.82185 0.42479
 H3304 H 0.21718 0.81441 0.44875
 C3305 C 0.70032 0.70139 0.57574
 C3306 C 0.68807 0.70836 0.58288
 C3307 C 0.68202 0.70195 0.59583
 C3308 C 0.68812 0.68863 0.60187
 C3309 C 0.70044 0.68206 0.59445
 N3310 N 0.70616 0.68853 0.58182
 C3311 C 0.70757 0.70802 0.56227
 N3312 N 0.72207 0.70415 0.55905
 C3313 C 0.72973 0.71029 0.54733
 C3314 C 0.72280 0.72108 0.53812
 C3315 C 0.70781 0.72497 0.54091
 C3316 C 0.70009 0.71838 0.55288
 H3317 H 0.67266 0.70763 0.60113
 H3318 H 0.70560 0.67183 0.59863
 H3319 H 0.74133 0.70707 0.54542
 H3320 H 0.70218 0.73327 0.53394
 H3321 H 0.68336 0.71887 0.57884
 H3322 H 0.68846 0.72146 0.55467
 C3323 C 0.70072 0.20093 0.07593
 C3324 C 0.68652 0.20568 0.08098
 C3325 C 0.68035 0.19923 0.09386
 C3326 C 0.68825 0.18809 0.10187
 C3327 C 0.70243 0.18365 0.09645
 N3328 N 0.70825 0.19016 0.08387
 C3329 C 0.70806 0.20789 0.06269
 N3330 N 0.72335 0.20756 0.06168
 C3331 C 0.73093 0.21433 0.05024
 C3332 C 0.72305 0.22210 0.03901
 C3333 C 0.70731 0.22221 0.03951
 C3334 C 0.69976 0.21507 0.05128
 H3335 H 0.66939 0.20307 0.09750
 H3336 H 0.70902 0.17520 0.10226
 H3337 H 0.74311 0.21395 0.05008
 H3338 H 0.70092 0.22804 0.03093
 H3339 H 0.68033 0.21455 0.07536
 H3340 H 0.68760 0.21521 0.05136
 C3341 C 0.20042 0.70085 0.07444
 C3342 C 0.20486 0.68641 0.07923
 C3343 C 0.19859 0.68023 0.09221
 C3344 C 0.18793 0.68838 0.10057
 C3345 C 0.18380 0.70280 0.09539
 N3346 N 0.19011 0.70859 0.08272
 C3347 C 0.20721 0.70828 0.06116
 N3348 N 0.20686 0.72363 0.06026
 C3349 C 0.21345 0.73135 0.04882
 C3350 C 0.22105 0.72355 0.03744
 C3351 C 0.22116 0.70775 0.03781
 C3352 C 0.21420 0.70006 0.04960
 H3353 H 0.20227 0.66913 0.09569
 H3354 H 0.17572 0.70960 0.10142
 H3355 H 0.21305 0.74356 0.04875
 H3356 H 0.22686 0.70143 0.02911
 H3357 H 0.21339 0.68002 0.07335
 H3358 H 0.21434 0.68786 0.04957
 C3359 C 0.19907 0.20234 0.57616
 C3360 C 0.18507 0.20728 0.58161
 C3361 C 0.17910 0.20078 0.59459
 C3362 C 0.18701 0.18940 0.60223
 C3363 C 0.20094 0.18476 0.59639
 N3364 N 0.20657 0.19132 0.58378
 C3365 C 0.20635 0.20933 0.56289
 N3366 N 0.22160 0.20854 0.56161
 C3367 C 0.22920 0.21518 0.55011
 C3368 C 0.22136 0.22326 0.53907
 C3369 C 0.20564 0.22387 0.53985
 C3370 C 0.19807 0.21689 0.55172
 H3371 H 0.16830 0.20473 0.59861
 H3372 H 0.20754 0.17614 0.60195
 H3373 H 0.24135 0.21443 0.54975
 H3374 H 0.19929 0.22996 0.53142
 H3375 H 0.17890 0.21631 0.57621
 H3376 H 0.18592 0.21742 0.55204
   
