data_POSCAR
  _audit_creation_date              2014-09-24
  _audit_creation_method            'ToBaCCo'
  _symmetry_space_group_name_H-M    'P1'
  _symmetry_Int_Tables_number       1
  _symmetry_cell_setting            triclinic
  loop_
  _symmetry_equiv_pos_as_xyz
 x,y,z
_cell_length_a 46.8531
_cell_length_b 46.8122
_cell_length_c 46.8270
_cell_angle_alpha 89.883300
_cell_angle_beta 90.182900
_cell_angle_gamma 89.874500
loop_
  _atom_site_label
  _atom_site_type_symbol
  _atom_site_fract_x
  _atom_site_fract_y
  _atom_site_fract_z
C1 C 0.25370 1.01924 0.00635
 C2 C 0.25146 1.01955 -0.02368
 C3 C 0.24878 0.99363 -0.03845
 C4 C 0.24813 0.96745 -0.02372
 C5 C 0.25008 0.96733 0.00635
 C6 C 0.25291 0.99319 0.02098
 H7 H 0.25449 0.99300 0.04414
 H8 H 0.24718 0.99383 -0.06160
 C9 C 0.74748 0.46423 0.47673
 C10 C 0.74967 0.46439 0.50675
 C11 C 0.75310 0.49035 0.52109
 C12 C 0.75425 0.51616 0.50614
 C13 C 0.75176 0.51619 0.47622
 C14 C 0.74848 0.49021 0.46172
 H15 H 0.74671 0.49022 0.43861
 H16 H 0.75488 0.49047 0.54422
 C17 C 0.74613 1.00658 1.01691
 C18 C 0.74824 0.97658 1.01724
 C19 C 0.75098 0.96175 0.99142
 C20 C 0.75164 0.97638 0.96523
 C21 C 0.74944 1.00644 0.96499
 C22 C 0.74672 1.02118 0.99084
 H23 H 0.74507 1.04435 0.99069
 H24 H 0.75263 0.93862 0.99171
 C25 C 0.24640 0.50795 0.51751
 C26 C 0.24786 0.47795 0.51788
 C27 C 0.25011 0.46302 0.49206
 C28 C 0.25089 0.47763 0.46586
 C29 C 0.24930 0.50771 0.46562
 C30 C 0.24709 0.52250 0.49146
 H31 H 0.24593 0.54567 0.49129
 H32 H 0.25128 0.43987 0.49236
 C33 C 1.01676 0.25012 0.02429
 C34 C 1.01637 0.25194 -0.00571
 C35 C 0.99034 0.25108 -0.02029
 C36 C 0.96456 0.24836 -0.00557
 C37 C 0.96478 0.24640 0.02446
 C38 C 0.99094 0.24733 0.03914
 H39 H 0.99115 0.24589 0.06229
 H40 H 0.99015 0.25253 -0.04344
 C41 C 0.46675 0.74953 0.49330
 C42 C 0.46704 0.74774 0.52335
 C43 C 0.49327 0.74823 0.53793
 C44 C 0.51906 0.75041 0.52299
 C45 C 0.51863 0.75207 0.49302
 C46 C 0.49255 0.75164 0.47849
 H47 H 0.49234 0.75297 0.45534
 H48 H 0.49362 0.74691 0.56107
 C49 C 0.00707 0.75091 0.03410
 C50 C -0.02298 0.75292 0.03414
 C51 C -0.03785 0.75243 0.00802
 C52 C -0.02322 0.74981 -0.01795
 C53 C 0.00673 0.74746 -0.01777
 C54 C 0.02152 0.74811 0.00816
 H55 H 0.04464 0.74647 0.00814
 H56 H -0.06098 0.75410 0.00790
 C57 C 0.47506 0.24938 0.48288
 C58 C 0.50490 0.24626 0.48277
 C59 C 0.51996 0.24664 0.50855
 C60 C 0.50581 0.24991 0.53459
 C61 C 0.47585 0.25264 0.53489
 C62 C 0.46074 0.25242 0.50894
 H63 H 0.43768 0.25465 0.50903
 H64 H 0.54304 0.24443 0.50832
 C65 C 1.03363 0.02351 0.24815
 C66 C 1.03407 -0.00657 0.25020
 C67 C 1.00839 -0.02147 0.25315
 C68 C 0.98223 -0.00709 0.25393
 C69 C 0.98161 0.02289 0.25155
 C70 C 1.00731 0.03794 0.24877
 H71 H 1.00675 0.06107 0.24708
 H72 H 1.00881 -0.04463 0.25481
 C73 C 0.53469 0.49277 0.75049
 C74 C 0.53535 0.52280 0.74848
 C75 C 0.50965 0.53824 0.74945
 C76 C 0.48345 0.52419 0.75254
 C77 C 0.48296 0.49426 0.75483
 C78 C 0.50850 0.47886 0.75371
 H79 H 0.50798 0.45572 0.75536
 H80 H 0.51004 0.56137 0.74783
 C81 C 1.02334 0.98361 0.74766
 C82 C 0.99340 0.98373 0.74582
 C83 C 0.97860 1.00965 0.74648
 C84 C 0.99313 1.03563 0.74904
 C85 C 1.02318 1.03563 0.75106
 C86 C 1.03800 1.00954 0.75029
 H87 H 1.06113 1.00940 0.75177
 H88 H 0.95545 1.00952 0.74501
 C89 C 0.52260 0.48191 0.24757
 C90 C 0.49266 0.48266 0.24576
 C91 C 0.47844 0.50890 0.24632
 C92 C 0.49352 0.53456 0.24874
 C93 C 0.52355 0.53395 0.25071
 C94 C 0.53782 0.50755 0.25005
 H95 H 0.56094 0.50696 0.25150
 H96 H 0.45531 0.50936 0.24488
 O97 O 0.26634 0.17673 0.19226
 O98 O 0.29832 0.16865 0.23239
 O99 O 0.19179 0.21000 0.23418
 O100 O 0.18138 0.24712 0.26247
 O101 O 0.22583 0.25151 0.15859
 O102 O 0.26566 0.28315 0.15121
 O103 O 0.26532 0.28984 0.30662
 O104 O 0.23234 0.25062 0.31353
 O105 O 0.33916 0.25081 0.27267
 O106 O 0.34764 0.21819 0.23196
 O107 O 0.30500 0.32381 0.23430
 O108 O 0.26364 0.33219 0.20069
 O109 O 0.26578 0.32410 0.27208
 O110 O 0.23436 0.33336 0.23185
 O111 O 0.33926 0.28927 0.23424
 O112 O 0.34809 0.24888 0.20180
 O113 O 0.30477 0.25204 0.30685
 O114 O 0.27063 0.21981 0.31624
 O115 O 0.26602 0.21160 0.15826
 O116 O 0.29706 0.25106 0.15054
 O117 O 0.19158 0.25027 0.19299
 O118 O 0.18444 0.28280 0.23299
 O119 O 0.22641 0.17585 0.23252
 O120 O 0.26739 0.16658 0.26288
 Zr121 Zr 0.26483 0.19900 0.23141
 O122 O 0.29098 0.22346 0.25858
 Zr123 Zr 0.21438 0.24887 0.23180
 O124 O 0.23871 0.27576 0.25849
 Zr125 Zr 0.26447 0.24974 0.18163
 O126 O 0.29123 0.27607 0.20629
 Zr127 Zr 0.26628 0.25104 0.28382
 O128 O 0.23960 0.22358 0.25953
 Zr129 Zr 0.31636 0.25083 0.23383
 O130 O 0.29224 0.22423 0.20639
 Zr131 Zr 0.26611 0.30117 0.23359
 O132 O 0.23904 0.27689 0.20669
 O133 O 0.23812 0.22280 0.20502
 O134 O 0.29296 0.27777 0.26045
 C135 C 0.26677 0.18539 0.16620
 C136 C 0.20029 0.18388 0.23417
 C137 C 0.19974 0.25161 0.16688
 C138 C 0.26531 0.31599 0.29823
 C139 C 0.33088 0.25154 0.29874
 C140 C 0.33111 0.31540 0.23450
 H141 H 0.30249 0.21051 0.27074
 H142 H 0.30304 0.28788 0.19344
 H143 H 0.22590 0.21062 0.19281
 H144 H 0.22575 0.28738 0.27039
 H145 H 0.22007 0.23414 0.30860
 H146 H 0.18821 0.25734 0.27962
 H147 H 0.34392 0.26405 0.18765
 H148 H 0.31240 0.23815 0.15739
 H149 H 0.26098 0.20251 0.30912
 H150 H 0.25166 0.16987 0.27654
 H151 H 0.28018 0.32940 0.18792
 H152 H 0.25197 0.29786 0.15776
 H153 H 0.31274 0.17516 0.21842
 H154 H 0.34363 0.20437 0.24744
 H155 H 0.19037 0.29684 0.21834
 H156 H 0.21934 0.32820 0.24571
 O157 O 0.75004 0.84031 0.22691
 O158 O 0.71863 0.84790 0.26679
 O159 O 0.82515 0.80665 0.26818
 O160 O 0.83527 0.76977 0.29748
 O161 O 0.79165 0.76573 0.19299
 O162 O 0.75167 0.73428 0.18487
 O163 O 0.75170 0.72644 0.34058
 O164 O 0.78480 0.76514 0.34765
 O165 O 0.67811 0.76460 0.30642
 O166 O 0.66949 0.79823 0.26560
 O167 O 0.71214 0.69249 0.26695
 O168 O 0.75382 0.68436 0.23459
 O169 O 0.75085 0.69234 0.30602
 O170 O 0.78290 0.68325 0.26596
 O171 O 0.67780 0.72694 0.26693
 O172 O 0.66858 0.76757 0.23562
 O173 O 0.71262 0.76378 0.34072
 O174 O 0.74647 0.79647 0.34992
 O175 O 0.75087 0.80592 0.19258
 O176 O 0.72036 0.76620 0.18403
 O177 O 0.82575 0.76644 0.22775
 O178 O 0.83277 0.73395 0.26745
 O179 O 0.79036 0.84068 0.26663
 O180 O 0.74949 0.84928 0.29767
 Zr181 Zr 0.75203 0.81748 0.26570
 O182 O 0.72590 0.79272 0.29252
 Zr183 Zr 0.80268 0.76775 0.26617
 O184 O 0.77838 0.74057 0.29253
 Zr185 Zr 0.75272 0.76732 0.21557
 O186 O 0.72598 0.74068 0.23994
 Zr187 Zr 0.75084 0.76516 0.31773
 O188 O 0.77747 0.79283 0.29380
 Zr189 Zr 0.70066 0.76545 0.26750
 O190 O 0.72475 0.79236 0.24034
 Zr191 Zr 0.75100 0.71531 0.26737
 O192 O 0.77805 0.73992 0.24076
 O193 O 0.77888 0.79403 0.23933
 O194 O 0.72416 0.73844 0.29416
 C195 C 0.74965 0.83203 0.20079
 C196 C 0.81652 0.83272 0.26798
 C197 C 0.81775 0.76533 0.20156
 C198 C 0.75136 0.70038 0.33218
 C199 C 0.68652 0.76384 0.33254
 C200 C 0.68598 0.70081 0.26670
 H201 H 0.71434 0.80552 0.30467
 H202 H 0.71425 0.72899 0.22686
 H203 H 0.79098 0.80629 0.22713
 H204 H 0.79131 0.72886 0.30451
 H205 H 0.79713 0.78163 0.34290
 H206 H 0.82890 0.75839 0.31408
 H207 H 0.67348 0.75349 0.22069
 H208 H 0.70488 0.77887 0.19084
 H209 H 0.75717 0.81337 0.34334
 H210 H 0.76585 0.84639 0.31079
 H211 H 0.73791 0.68779 0.22106
 H212 H 0.76535 0.71950 0.19145
 H213 H 0.70384 0.84121 0.25324
 H214 H 0.67284 0.81129 0.28183
 H215 H 0.82651 0.71967 0.25320
 H216 H 0.79751 0.68802 0.28046
 O217 O 0.75016 0.17355 0.78779
 O218 O 0.72108 0.16456 0.74836
 O219 O 0.82459 0.21128 0.74931
 O220 O 0.83593 0.24921 0.72439
 O221 O 0.78692 0.24825 0.82543
 O222 O 0.74759 0.27746 0.83402
 O223 O 0.74822 0.28721 0.67563
 O224 O 0.78017 0.25123 0.66698
 O225 O 0.67545 0.24939 0.71105
 O226 O 0.66511 0.21924 0.74938
 O227 O 0.71064 0.32274 0.74890
 O228 O 0.74894 0.33316 0.77907
 O229 O 0.74822 0.32192 0.70959
 O230 O 0.78277 0.32904 0.75236
 O231 O 0.67603 0.28873 0.74886
 O232 O 0.66916 0.24585 0.78327
 O233 O 0.70935 0.24985 0.67636
 O234 O 0.75052 0.21525 0.66916
 O235 O 0.74834 0.20691 0.82309
 O236 O 0.71488 0.24748 0.83020
 O237 O 0.82223 0.24959 0.79217
 O238 O 0.82796 0.28475 0.75106
 O239 O 0.79145 0.17575 0.74900
 O240 O 0.75104 0.16834 0.71568
 Zr241 Zr 0.75177 0.19753 0.75009
 O242 O 0.72393 0.22189 0.72436
 Zr243 Zr 0.80059 0.24883 0.75231
 O244 O 0.77610 0.27429 0.72421
 Zr245 Zr 0.74941 0.24657 0.80121
 O246 O 0.72374 0.27431 0.77661
 Zr247 Zr 0.74854 0.24923 0.69902
 O248 O 0.77680 0.22348 0.72343
 Zr249 Zr 0.69861 0.24945 0.74925
 O250 O 0.72293 0.22136 0.77527
 Zr251 Zr 0.74875 0.29952 0.74899
 O252 O 0.77464 0.27535 0.77739
 O253 O 0.77712 0.22119 0.77773
 O254 O 0.72189 0.27612 0.72236
 C255 C 0.74866 0.18096 0.81404
 C256 C 0.81731 0.18496 0.74849
 C257 C 0.81317 0.24948 0.81809
 C258 C 0.74805 0.31335 0.68350
 C259 C 0.68328 0.24974 0.68492
 C260 C 0.68454 0.31484 0.74875
 H261 H 0.71200 0.20890 0.71280
 H262 H 0.71204 0.28621 0.78950
 H263 H 0.78941 0.20891 0.78987
 H264 H 0.78892 0.28586 0.71210
 H265 H 0.79643 0.23953 0.67386
 H266 H 0.82855 0.25495 0.70543
 H267 H 0.66995 0.26372 0.79448
 H268 H 0.70201 0.23159 0.82491
 H269 H 0.73302 0.20364 0.67100
 H270 H 0.76643 0.17412 0.70245
 H271 H 0.73868 0.32623 0.79614
 H272 H 0.75904 0.29391 0.82735
 H273 H 0.70462 0.17120 0.75978
 H274 H 0.67214 0.20212 0.73925
 H275 H 0.82413 0.29613 0.76843
 H276 H 0.79365 0.32849 0.73430
 O277 O 0.23410 0.80841 0.79066
 O278 O 0.26538 0.81683 0.75074
 O279 O 0.15964 0.77379 0.74808
 O280 O 0.15021 0.73677 0.71955
 O281 O 0.19366 0.73386 0.82404
 O282 O 0.23387 0.70212 0.83218
 O283 O 0.23546 0.69479 0.67691
 O284 O 0.20116 0.73315 0.66952
 O285 O 0.30775 0.73468 0.71106
 O286 O 0.31584 0.76727 0.75208
 O287 O 0.27426 0.66119 0.75051
 O288 O 0.23292 0.65268 0.78284
 O289 O 0.23612 0.66070 0.71163
 O290 O 0.20367 0.65153 0.75145
 O291 O 0.30815 0.69593 0.75010
 O292 O 0.31673 0.73665 0.78207
 O293 O 0.27342 0.73353 0.67660
 O294 O 0.23871 0.76491 0.66704
 O295 O 0.23406 0.77376 0.82486
 O296 O 0.26485 0.73439 0.83335
 O297 O 0.15974 0.73419 0.78907
 O298 O 0.15366 0.70100 0.74953
 O299 O 0.19367 0.80839 0.75019
 O300 O 0.23476 0.81800 0.71984
 Zr301 Zr 0.23261 0.78587 0.75162
 O302 O 0.25928 0.76152 0.72489
 Zr303 Zr 0.18292 0.73540 0.75078
 O304 O 0.20776 0.70867 0.72452
 Zr305 Zr 0.23264 0.73545 0.80166
 O306 O 0.25992 0.70925 0.77742
 Zr307 Zr 0.23506 0.73366 0.69949
 O308 O 0.20787 0.76093 0.72331
 Zr309 Zr 0.28495 0.73441 0.74992
 O310 O 0.26027 0.76094 0.77698
 Zr311 Zr 0.23530 0.68373 0.75000
 O312 O 0.20778 0.70787 0.77647
 O313 O 0.20609 0.76195 0.77777
 O314 O 0.26198 0.70719 0.72324
 C315 C 0.23481 0.79993 0.81679
 C316 C 0.16768 0.79998 0.74831
 C317 C 0.16764 0.73344 0.81530
 C318 C 0.23604 0.66872 0.68546
 C319 C 0.29950 0.73426 0.68487
 C320 C 0.30026 0.66972 0.75045
 H321 H 0.27065 0.77458 0.71283
 H322 H 0.27179 0.69764 0.79052
 H323 H 0.19377 0.77414 0.78982
 H324 H 0.19512 0.69683 0.71246
 H325 H 0.18851 0.74946 0.67419
 H326 H 0.15696 0.72581 0.70285
 H327 H 0.31251 0.72175 0.79644
 H328 H 0.28044 0.74680 0.82638
 H329 H 0.22832 0.78192 0.67388
 H330 H 0.21882 0.81471 0.70635
 H331 H 0.24861 0.65638 0.79651
 H332 H 0.21996 0.68757 0.82578
 H333 H 0.28027 0.81024 0.76429
 H334 H 0.31174 0.78102 0.73653
 H335 H 0.15974 0.68719 0.76440
 H336 H 0.18930 0.65595 0.73656
 O337 O 0.24814 0.34299 0.72860
 O338 O 0.21646 0.35050 0.76833
 O339 O 0.32307 0.30949 0.77025
 O340 O 0.33320 0.27267 0.79955
 O341 O 0.28998 0.26838 0.69492
 O342 O 0.25006 0.23696 0.68662
 O343 O 0.24962 0.22914 0.84236
 O344 O 0.28254 0.26807 0.84952
 O345 O 0.17599 0.26712 0.80787
 O346 O 0.16748 0.30076 0.76703
 O347 O 0.21035 0.19513 0.76861
 O348 O 0.25213 0.18702 0.73642
 O349 O 0.24892 0.19503 0.80780
 O350 O 0.28116 0.18604 0.76783
 O351 O 0.17594 0.22950 0.76839
 O352 O 0.16676 0.27009 0.73704
 O353 O 0.21036 0.26633 0.84231
 O354 O 0.24403 0.29909 0.85173
 O355 O 0.24921 0.30857 0.69430
 O356 O 0.21871 0.26882 0.68569
 O357 O 0.32393 0.26920 0.72983
 O358 O 0.33087 0.23682 0.76962
 O359 O 0.28822 0.34345 0.76854
 O360 O 0.24723 0.35202 0.79933
 Zr361 Zr 0.24995 0.32018 0.76742
 O362 O 0.22379 0.29538 0.79417
 Zr363 Zr 0.30070 0.27054 0.76814
 O364 O 0.27638 0.24333 0.79442
 Zr365 Zr 0.25096 0.26999 0.71733
 O366 O 0.22419 0.24331 0.74161
 Zr367 Zr 0.24868 0.26786 0.81950
 O368 O 0.27532 0.29559 0.79565
 Zr369 Zr 0.19871 0.26805 0.76905
 O370 O 0.22284 0.29499 0.74196
 Zr371 Zr 0.24916 0.21800 0.76915
 O372 O 0.27625 0.24266 0.74263
 O373 O 0.27697 0.29677 0.74119
 O374 O 0.22216 0.24109 0.79582
 C375 C 0.24792 0.33469 0.70248
 C376 C 0.31438 0.33554 0.77002
 C377 C 0.31603 0.26800 0.70361
 C378 C 0.24937 0.20307 0.83397
 C379 C 0.18429 0.26635 0.83402
 C380 C 0.18419 0.20340 0.76823
 H381 H 0.21215 0.30815 0.80627
 H382 H 0.21254 0.23159 0.72849
 H383 H 0.28912 0.30903 0.72902
 H384 H 0.28929 0.23166 0.80646
 H385 H 0.29477 0.28465 0.84482
 H386 H 0.32673 0.26140 0.81619
 H387 H 0.17178 0.25605 0.72212
 H388 H 0.20322 0.28154 0.69239
 H389 H 0.25442 0.31616 0.84507
 H390 H 0.26348 0.34912 0.81258
 H391 H 0.23627 0.19041 0.72283
 H392 H 0.26365 0.22215 0.69330
 H393 H 0.20178 0.34378 0.75467
 H394 H 0.17073 0.31382 0.78330
 H395 H 0.32468 0.22248 0.75540
 H396 H 0.29562 0.19074 0.78250
 O397 O 0.77028 0.67549 0.69185
 O398 O 0.80233 0.66749 0.73195
 O399 O 0.69566 0.70847 0.73372
 O400 O 0.68506 0.74551 0.76203
 O401 O 0.72959 0.75019 0.65820
 O402 O 0.76938 0.78196 0.65090
 O403 O 0.76880 0.78849 0.80631
 O404 O 0.73595 0.74915 0.81313
 O405 O 0.84282 0.74970 0.77241
 O406 O 0.85143 0.71716 0.73162
 O407 O 0.80840 0.82264 0.73403
 O408 O 0.76708 0.83093 0.70042
 O409 O 0.76916 0.82278 0.77179
 O410 O 0.73775 0.83195 0.73153
 O411 O 0.84280 0.78824 0.73399
 O412 O 0.85189 0.74797 0.70160
 O413 O 0.80839 0.75081 0.80656
 O414 O 0.77435 0.71848 0.81589
 O415 O 0.76987 0.71038 0.65786
 O416 O 0.80082 0.74990 0.65019
 O417 O 0.69532 0.74877 0.69258
 O418 O 0.68804 0.78125 0.73259
 O419 O 0.73042 0.67445 0.73210
 O420 O 0.77142 0.66528 0.76245
 Zr421 Zr 0.76874 0.69772 0.73101
 O422 O 0.79476 0.72225 0.75824
 Zr423 Zr 0.71809 0.74742 0.73140
 O424 O 0.74229 0.77436 0.75814
 Zr425 Zr 0.76822 0.74849 0.68127
 O426 O 0.79486 0.77489 0.70599
 Zr427 Zr 0.76993 0.74971 0.78348
 O428 O 0.74338 0.72219 0.75912
 Zr429 Zr 0.82006 0.74972 0.73354
 O430 O 0.79607 0.72308 0.70604
 Zr431 Zr 0.76962 0.79988 0.73329
 O432 O 0.74267 0.77553 0.70632
 O433 O 0.74195 0.72145 0.70462
 O434 O 0.79653 0.77656 0.76016
 C435 C 0.77067 0.68417 0.66580
 C436 C 0.70427 0.68239 0.73370
 C437 C 0.70349 0.75020 0.66647
 C438 C 0.76868 0.81465 0.79793
 C439 C 0.83451 0.75037 0.79849
 C440 C 0.83454 0.81433 0.73424
 H441 H 0.80630 0.70931 0.77040
 H442 H 0.80664 0.78675 0.69316
 H443 H 0.72977 0.70925 0.69239
 H444 H 0.72928 0.78592 0.77004
 H445 H 0.72374 0.73263 0.80816
 H446 H 0.69182 0.75576 0.77919
 H447 H 0.84758 0.76301 0.68736
 H448 H 0.81620 0.73706 0.65706
 H449 H 0.76473 0.70116 0.80876
 H450 H 0.75568 0.66851 0.77611
 H451 H 0.78364 0.82820 0.68765
 H452 H 0.75561 0.79660 0.65742
 H453 H 0.81670 0.67403 0.71794
 H454 H 0.84744 0.70330 0.74707
 H455 H 0.69392 0.79530 0.71794
 H456 H 0.72274 0.82673 0.74540
 O457 O 0.25126 0.67626 0.28763
 O458 O 0.22199 0.66726 0.24834
 O459 O 0.32577 0.71340 0.24870
 O460 O 0.33722 0.75117 0.22357
 O461 O 0.28857 0.75092 0.32480
 O462 O 0.24945 0.78039 0.33339
 O463 O 0.24952 0.78945 0.17494
 O464 O 0.28129 0.75329 0.16636
 O465 O 0.17670 0.75214 0.21079
 O466 O 0.16636 0.72221 0.24932
 O467 O 0.21241 0.82550 0.24826
 O468 O 0.25092 0.83582 0.27820
 O469 O 0.24983 0.82430 0.20876
 O470 O 0.28458 0.83142 0.25136
 O471 O 0.17763 0.79167 0.24849
 O472 O 0.17062 0.74897 0.28302
 O473 O 0.21047 0.75218 0.17597
 O474 O 0.25149 0.71747 0.16877
 O475 O 0.24973 0.70978 0.32279
 O476 O 0.21655 0.75057 0.32983
 O477 O 0.32377 0.75191 0.29141
 O478 O 0.32954 0.78687 0.25013
 O479 O 0.29243 0.67806 0.24868
 O480 O 0.25188 0.67071 0.21555
 Zr481 Zr 0.25288 0.70006 0.24981
 O482 O 0.22509 0.72446 0.22406
 Zr483 Zr 0.30199 0.75110 0.25162
 O484 O 0.27753 0.77657 0.22349
 Zr485 Zr 0.25097 0.74934 0.30072
 O486 O 0.22536 0.77711 0.27607
 Zr487 Zr 0.24975 0.75157 0.19850
 O488 O 0.27795 0.72576 0.22294
 Zr489 Zr 0.20000 0.75227 0.24891
 O490 O 0.22425 0.72416 0.27498
 Zr491 Zr 0.25039 0.80207 0.24825
 O492 O 0.27626 0.77787 0.27667
 O493 O 0.27846 0.72370 0.27726
 O494 O 0.22332 0.77871 0.22181
 C495 C 0.24987 0.68378 0.31385
 C496 C 0.31835 0.68711 0.24803
 C497 C 0.31480 0.75197 0.31737
 C498 C 0.24952 0.81563 0.18270
 C499 C 0.18444 0.75225 0.18463
 C500 C 0.18627 0.81773 0.24827
 H501 H 0.21306 0.71148 0.21260
 H502 H 0.21377 0.78911 0.28896
 H503 H 0.29072 0.71141 0.28941
 H504 H 0.29036 0.78803 0.21129
 H505 H 0.29751 0.74154 0.17323
 H506 H 0.32982 0.75694 0.20463
 H507 H 0.17160 0.76685 0.29420
 H508 H 0.20355 0.73476 0.32463
 H509 H 0.23402 0.70583 0.17083
 H510 H 0.26724 0.67634 0.20223
 H511 H 0.24063 0.82905 0.29532
 H512 H 0.26094 0.79675 0.32659
 H513 H 0.20560 0.67407 0.25977
 H514 H 0.17323 0.70505 0.23914
 H515 H 0.32581 0.79835 0.26746
 H516 H 0.29540 0.83071 0.23326
 O517 O 0.73096 0.30409 0.29057
 O518 O 0.76239 0.31256 0.25078
 O519 O 0.65635 0.27030 0.24757
 O520 O 0.64676 0.23353 0.21873
 O521 O 0.68986 0.22966 0.32335
 O522 O 0.72978 0.19753 0.33141
 O523 O 0.73204 0.19121 0.17613
 O524 O 0.69790 0.22969 0.16882
 O525 O 0.80433 0.23041 0.21079
 O526 O 0.81253 0.26261 0.25208
 O527 O 0.77017 0.15687 0.24956
 O528 O 0.72865 0.14846 0.28178
 O529 O 0.73222 0.15689 0.21063
 O530 O 0.69952 0.14770 0.25024
 O531 O 0.80433 0.19136 0.24946
 O532 O 0.81305 0.23178 0.28186
 O533 O 0.77012 0.22978 0.17619
 O534 O 0.73555 0.26144 0.16676
 O535 O 0.73059 0.26923 0.32456
 O536 O 0.76099 0.22956 0.33292
 O537 O 0.65604 0.23045 0.28829
 O538 O 0.64987 0.19752 0.24853
 O539 O 0.69063 0.30463 0.25000
 O540 O 0.73188 0.31413 0.21982
 Zr541 Zr 0.72940 0.28182 0.25139
 O542 O 0.75600 0.25745 0.22461
 Zr543 Zr 0.67936 0.23172 0.25007
 O544 O 0.70410 0.20498 0.22372
 Zr545 Zr 0.72892 0.23108 0.30110
 O546 O 0.75610 0.20484 0.27680
 Zr547 Zr 0.73167 0.22994 0.19894
 O548 O 0.70457 0.25724 0.22284
 Zr549 Zr 0.78139 0.23000 0.24956
 O550 O 0.75681 0.25653 0.27669
 Zr551 Zr 0.73137 0.17969 0.24913
 O552 O 0.70394 0.20385 0.27566
 O553 O 0.70264 0.25792 0.27730
 O554 O 0.75832 0.20314 0.22263
 C555 C 0.73156 0.29544 0.31664
 C556 C 0.66458 0.29643 0.24800
 C557 C 0.66386 0.22949 0.31453
 C558 C 0.73241 0.16508 0.18451
 C559 C 0.79617 0.23027 0.18457
 C560 C 0.79624 0.16521 0.24958
 H561 H 0.76750 0.27052 0.21269
 H562 H 0.76784 0.19305 0.28986
 H563 H 0.69038 0.27014 0.28940
 H564 H 0.69144 0.19330 0.21153
 H565 H 0.68525 0.24597 0.17357
 H566 H 0.65343 0.22253 0.20203
 H567 H 0.80876 0.21670 0.29603
 H568 H 0.77675 0.24181 0.32604
 H569 H 0.72497 0.27834 0.17358
 H570 H 0.71594 0.31105 0.20627
 H571 H 0.74441 0.15187 0.29545
 H572 H 0.71579 0.18313 0.32484
 H573 H 0.77720 0.30578 0.26433
 H574 H 0.80858 0.27650 0.23661
 H575 H 0.65583 0.18357 0.26332
 H576 H 0.68525 0.15230 0.23530
 C577 C 0.25660 0.04353 0.02218
 C578 C 0.25916 0.06382 0.03774
 C579 C 0.26206 0.08664 0.05800
 C580 C 0.28663 0.08829 0.07506
 C581 C 0.28836 0.10856 0.09687
 C582 C 0.26548 0.12719 0.10173
 C583 C 0.24112 0.12590 0.08433
 C584 C 0.23940 0.10562 0.06253
 C585 C 0.26664 0.14727 0.12487
 C586 C 0.26705 0.16436 0.14406
 H587 H 0.30416 0.07349 0.07191
 H588 H 0.30728 0.10939 0.11020
 H589 H 0.22331 0.14024 0.08793
 H590 H 0.22019 0.10433 0.04965
 C591 C 0.75795 0.54195 0.52245
 C592 C 0.76103 0.56228 0.53786
 C593 C 0.76453 0.58515 0.55795
 C594 C 0.74267 0.60522 0.56176
 C595 C 0.74483 0.62560 0.58343
 C596 C 0.76880 0.62591 0.60140
 C597 C 0.79091 0.60620 0.59724
 C598 C 0.78875 0.58582 0.57557
 C599 C 0.77027 0.64604 0.62449
 C600 C 0.77086 0.66314 0.64365
 H601 H 0.72373 0.60468 0.54845
 H602 H 0.72761 0.64076 0.58650
 H603 H 0.80952 0.60626 0.61104
 H604 H 0.80563 0.57020 0.57298
 C605 C 0.74766 0.96046 0.04354
 C606 C 0.74722 0.94637 0.06510
 C607 C 0.74676 0.92878 0.09030
 C608 C 0.77120 0.92629 0.10745
 C609 C 0.77131 0.90773 0.13089
 C610 C 0.74698 0.89160 0.13726
 C611 C 0.72240 0.89443 0.12037
 C612 C 0.72229 0.91299 0.09693
 C613 C 0.74767 0.87116 0.16023
 C614 C 0.74844 0.85353 0.17900
 H615 H 0.79028 0.93830 0.10242
 H616 H 0.79047 0.90559 0.14374
 H617 H 0.70352 0.88196 0.12503
 H618 H 0.70333 0.91465 0.08372
 C619 C 0.24710 0.46202 0.54427
 C620 C 0.24651 0.44810 0.56594
 C621 C 0.24586 0.43072 0.59130
 C622 C 0.27021 0.42829 0.60859
 C623 C 0.27013 0.40995 0.63221
 C624 C 0.24570 0.39398 0.63863
 C625 C 0.22122 0.39676 0.62159
 C626 C 0.22129 0.41509 0.59798
 C627 C 0.24621 0.37371 0.66176
 C628 C 0.24685 0.35617 0.68063
 H629 H 0.28936 0.44017 0.60354
 H630 H 0.28923 0.40785 0.64516
 H631 H 0.20226 0.38441 0.62628
 H632 H 0.20240 0.41671 0.58467
 C633 C 0.74984 0.02249 0.94065
 C634 C 0.74989 0.03943 0.92123
 C635 C 0.74964 0.06220 0.90056
 C636 C 0.77523 0.07567 0.89307
 C637 C 0.77475 0.10043 0.87630
 C638 C 0.74866 0.11196 0.86712
 C639 C 0.72309 0.09822 0.87417
 C640 C 0.72358 0.07345 0.89094
 C641 C 0.74822 0.13742 0.84985
 C642 C 0.74818 0.15804 0.83438
 H643 H 0.79548 0.06746 0.90079
 H644 H 0.79466 0.11078 0.87081
 H645 H 0.70280 0.10683 0.86703
 H646 H 0.70363 0.06351 0.89702
 C647 C 0.24982 0.52476 0.43996
 C648 C 0.24998 0.54197 0.42078
 C649 C 0.24992 0.56497 0.40035
 C650 C 0.22395 0.57654 0.39083
 C651 C 0.22369 0.60138 0.37416
 C652 C 0.24938 0.61488 0.36710
 C653 C 0.27537 0.60306 0.37621
 C654 C 0.27563 0.57822 0.39287
 C655 C 0.24917 0.64035 0.34981
 C656 C 0.24927 0.66094 0.33428
 H657 H 0.20391 0.56676 0.39687
 H658 H 0.20348 0.61021 0.36706
 H659 H 0.29538 0.61321 0.37071
 H660 H 0.29581 0.56976 0.40051
 C661 C 0.24584 0.94297 0.96060
 C662 C 0.24395 0.92255 0.94501
 C663 C 0.24186 0.89959 0.92467
 C664 C 0.21558 0.89341 0.91172
 C665 C 0.21400 0.87307 0.88991
 C666 C 0.23872 0.85887 0.88086
 C667 C 0.26493 0.86472 0.89410
 C668 C 0.26650 0.88507 0.91591
 C669 C 0.23726 0.83847 0.85788
 C670 C 0.23611 0.82117 0.83884
 H671 H 0.19644 0.90472 0.91809
 H672 H 0.19362 0.86871 0.87987
 H673 H 0.28418 0.85386 0.88731
 H674 H 0.28700 0.88987 0.92553
 C675 C 0.74451 0.43829 0.46040
 C676 C 0.74222 0.41788 0.44487
 C677 C 0.73972 0.39489 0.42461
 C678 C 0.76398 0.37937 0.41650
 C679 C 0.76212 0.35901 0.39474
 C680 C 0.73602 0.35412 0.38089
 C681 C 0.71167 0.36932 0.38931
 C682 C 0.71352 0.38968 0.41107
 C683 C 0.73433 0.33377 0.35790
 C684 C 0.73302 0.31655 0.33881
 H685 H 0.78441 0.38342 0.42659
 H686 H 0.78109 0.34737 0.38844
 H687 H 0.69137 0.36572 0.37878
 H688 H 0.69469 0.40176 0.41693
 C689 C 0.04169 0.25104 0.03942
 C690 C 0.06336 0.25182 0.05333
 C691 C 0.08870 0.25269 0.07071
 C692 C 0.09536 0.27746 0.08608
 C693 C 0.11895 0.27776 0.10445
 C694 C 0.13596 0.25330 0.10753
 C695 C 0.12957 0.22867 0.09181
 C696 C 0.10599 0.22837 0.07343
 C697 C 0.15905 0.25301 0.12784
 C698 C 0.17790 0.25253 0.14540
 H699 H 0.08206 0.29634 0.08424
 H700 H 0.12361 0.29686 0.11661
 H701 H 0.14251 0.20959 0.09414
 H702 H 0.10094 0.20907 0.06174
 C703 C 0.54546 0.75097 0.53890
 C704 C 0.56713 0.75144 0.55283
 C705 C 0.59248 0.75195 0.57022
 C706 C 0.60031 0.77709 0.58440
 C707 C 0.62388 0.77716 0.60279
 C708 C 0.63973 0.75209 0.60707
 C709 C 0.63218 0.72706 0.59255
 C710 C 0.60860 0.72700 0.57415
 C711 C 0.66281 0.75169 0.62741
 C712 C 0.68165 0.75114 0.64498
 H713 H 0.58791 0.79646 0.58162
 H714 H 0.62945 0.79658 0.61402
 H715 H 0.64420 0.70753 0.59581
 H716 H 0.60265 0.70741 0.56340
 C717 C 0.02333 0.74440 0.95653
 C718 C 0.03894 0.74181 0.93632
 C719 C 0.05926 0.73884 0.91361
 C720 C 0.06437 0.76173 0.89502
 C721 C 0.08623 0.75987 0.87486
 C722 C 0.10309 0.73516 0.87328
 C723 C 0.09765 0.71208 0.89152
 C724 C 0.07579 0.71394 0.91168
 C725 C 0.12626 0.73382 0.85329
 C726 C 0.14546 0.73328 0.83627
 H727 H 0.05191 0.78119 0.89655
 H728 H 0.09028 0.77783 0.86083
 H729 H 0.11057 0.69290 0.89046
 H730 H 0.07220 0.69624 0.92617
 C731 C 0.52102 0.24271 0.45687
 C732 C 0.53627 0.23968 0.43645
 C733 C 0.55619 0.23618 0.41348
 C734 C 0.56061 0.25843 0.39397
 C735 C 0.58218 0.25619 0.37354
 C736 C 0.59945 0.23173 0.37262
 C737 C 0.59468 0.20924 0.39177
 C738 C 0.57310 0.21149 0.41219
 C739 C 0.62249 0.23014 0.35251
 C740 C 0.64165 0.22944 0.33545
 H741 H 0.54785 0.27774 0.39498
 H742 H 0.58574 0.27370 0.35882
 H743 H 0.60793 0.19026 0.39124
 H744 H 0.57004 0.19429 0.42739
 C745 C 0.96148 0.75509 0.05869
 C746 C 0.94598 0.75685 0.07915
 C747 C 0.92571 0.75877 0.10215
 C748 C 0.91296 0.78507 0.10866
 C749 C 0.89116 0.78651 0.12899
 C750 C 0.88192 0.76165 0.14284
 C751 C 0.89498 0.73542 0.13666
 C752 C 0.91678 0.73398 0.11634
 C753 C 0.85892 0.76298 0.16318
 C754 C 0.83985 0.76406 0.18042
 H755 H 0.91945 0.80434 0.09762
 H756 H 0.88126 0.80692 0.13360
 H757 H 0.88805 0.71605 0.14725
 H758 H 0.92624 0.71348 0.11126
 C759 C 0.45967 0.25538 0.56092
 C760 C 0.44422 0.25751 0.58138
 C761 C 0.42402 0.25985 0.60439
 C762 C 0.41149 0.28632 0.61063
 C763 C 0.38974 0.28816 0.63097
 C764 C 0.38033 0.26352 0.64510
 C765 C 0.39317 0.23712 0.63919
 C766 C 0.41492 0.23528 0.61886
 C767 C 0.35732 0.26523 0.66538
 C768 C 0.33821 0.26654 0.68256
 H769 H 0.41812 0.30541 0.59936
 H770 H 0.37999 0.30869 0.63536
 H771 H 0.38609 0.21792 0.65000
 H772 H 0.42421 0.21464 0.61400
 C773 C 0.93892 0.24780 0.97735
 C774 C 0.91974 0.24773 0.96014
 C775 C 0.89932 0.24799 0.93714
 C776 C 0.88951 0.27409 0.92611
 C777 C 0.87288 0.27466 0.90125
 C778 C 0.86615 0.24915 0.88719
 C779 C 0.87555 0.22301 0.89848
 C780 C 0.89217 0.22244 0.92334
 C781 C 0.84893 0.24968 0.86169
 C782 C 0.83348 0.24983 0.84105
 H783 H 0.89530 0.29402 0.93632
 H784 H 0.86556 0.29498 0.89282
 H785 H 0.87030 0.20314 0.88789
 H786 H 0.90004 0.20218 0.93138
 C787 C 0.44105 0.74940 0.47630
 C788 C 0.42184 0.74961 0.45912
 C789 C 0.40137 0.75012 0.43615
 C790 C 0.39346 0.72458 0.42274
 C791 C 0.37676 0.72526 0.39793
 C792 C 0.36805 0.75147 0.38629
 C793 C 0.37555 0.77699 0.39995
 C794 C 0.39225 0.77632 0.42477
 C795 C 0.35073 0.75209 0.36084
 C796 C 0.33521 0.75228 0.34025
 H797 H 0.40079 0.70423 0.43106
 H798 H 0.37093 0.70538 0.38766
 H799 H 0.36876 0.79738 0.39125
 H800 H 0.39863 0.79622 0.43466
 C801 C 0.05792 0.03944 0.24580
 C802 C 0.07818 0.05521 0.24386
 C803 C 0.10099 0.07571 0.24173
 C804 C 0.11568 0.08444 0.26631
 C805 C 0.13593 0.10633 0.26468
 C806 C 0.14154 0.11966 0.23847
 C807 C 0.12715 0.11065 0.21381
 C808 C 0.10690 0.08877 0.21544
 C809 C 0.16188 0.14269 0.23693
 C810 C 0.17912 0.16176 0.23566
 H811 H 0.11108 0.07473 0.28681
 H812 H 0.14693 0.11308 0.28389
 H813 H 0.13131 0.12076 0.19342
 H814 H 0.09547 0.08242 0.19634
 C815 C 0.56152 0.53874 0.74575
 C816 C 0.58206 0.55409 0.74366
 C817 C 0.60513 0.57424 0.74139
 C818 C 0.61973 0.58311 0.76598
 C819 C 0.64004 0.60491 0.76427
 C820 C 0.64578 0.61802 0.73798
 C821 C 0.63153 0.60883 0.71331
 C822 C 0.61122 0.58703 0.71502
 C823 C 0.66604 0.64108 0.73641
 C824 C 0.68321 0.66021 0.73516
 H825 H 0.61497 0.57362 0.78653
 H826 H 0.65095 0.61181 0.78348
 H827 H 0.63581 0.61879 0.69287
 H828 H 0.59983 0.58059 0.69593
 C829 C 0.97688 0.05985 0.74945
 C830 C 0.95977 0.07911 0.74948
 C831 C 0.93679 0.09955 0.74922
 C832 C 0.92530 0.10885 0.72313
 C833 C 0.90036 0.12534 0.72265
 C834 C 0.88669 0.13242 0.74825
 C835 C 0.89845 0.12356 0.77436
 C836 C 0.92339 0.10707 0.77484
 C837 C 0.86107 0.14944 0.74784
 C838 C 0.84034 0.16475 0.74786
 H839 H 0.93519 0.10274 0.70317
 H840 H 0.89156 0.13225 0.70235
 H841 H 0.88817 0.12908 0.79430
 H842 H 0.93178 0.09958 0.79511
 C843 C 0.47679 0.56043 0.24905
 C844 C 0.45979 0.57979 0.24899
 C845 C 0.43697 0.60043 0.24863
 C846 C 0.42415 0.60879 0.27429
 C847 C 0.39942 0.62558 0.27384
 C848 C 0.38726 0.63392 0.24774
 C849 C 0.40036 0.62599 0.22208
 C850 C 0.42510 0.60920 0.22253
 C851 C 0.36183 0.65124 0.24736
 C852 C 0.34124 0.66674 0.24740
 H853 H 0.43285 0.60174 0.29458
 H854 H 0.38958 0.63175 0.29382
 H855 H 0.39126 0.63247 0.20177
 H856 H 0.43453 0.60245 0.20254
 C857 C 0.03947 0.95735 0.74694
 C858 C 0.05351 0.93576 0.74637
 C859 C 0.07100 0.91049 0.74579
 C860 C 0.07363 0.89336 0.77022
 C861 C 0.09208 0.86983 0.77021
 C862 C 0.10797 0.86336 0.74575
 C863 C 0.10499 0.88022 0.72116
 C864 C 0.08654 0.90374 0.72118
 C865 C 0.12839 0.84038 0.74634
 C866 C 0.14605 0.82164 0.74708
 H867 H 0.06181 0.89847 0.78940
 H868 H 0.09435 0.85702 0.78938
 H869 H 0.11728 0.87549 0.70219
 H870 H 0.08476 0.91692 0.70221
 C871 C 0.53821 0.45533 0.24691
 C872 C 0.55189 0.43350 0.24639
 C873 C 0.56902 0.40797 0.24582
 C874 C 0.57216 0.39131 0.27053
 C875 C 0.59034 0.36757 0.27048
 C876 C 0.60543 0.36039 0.24572
 C877 C 0.60192 0.37676 0.22087
 C878 C 0.58375 0.40050 0.22092
 C879 C 0.62562 0.33718 0.24622
 C880 C 0.64311 0.31828 0.24687
 H881 H 0.56098 0.39698 0.28994
 H882 H 0.59301 0.35514 0.28985
 H883 H 0.61360 0.37149 0.20165
 H884 H 0.58159 0.41332 0.20174
 C885 C 0.95808 0.97697 0.25694
 C886 C 0.93789 0.96131 0.25962
 C887 C 0.91520 0.94095 0.26270
 C888 C 0.89565 0.93678 0.24042
 C889 C 0.87542 0.91496 0.24229
 C890 C 0.87473 0.89718 0.26640
 C891 C 0.89395 0.90167 0.28889
 C892 C 0.91418 0.92350 0.28703
 C893 C 0.85465 0.87404 0.26769
 C894 C 0.83756 0.85487 0.26819
 H895 H 0.89646 0.94997 0.22140
 H896 H 0.86063 0.91165 0.22477
 H897 H 0.89359 0.88804 0.30762
 H898 H 0.92940 0.92636 0.30425
 C899 C 0.45692 0.47837 0.75836
 C900 C 0.43641 0.46322 0.76131
 C901 C 0.41337 0.44333 0.76466
 C902 C 0.39358 0.43945 0.74255
 C903 C 0.37316 0.41782 0.74453
 C904 C 0.37253 0.39998 0.76858
 C905 C 0.39194 0.40424 0.79095
 C906 C 0.41236 0.42587 0.78897
 C907 C 0.35243 0.37689 0.76986
 C908 C 0.33536 0.35771 0.77032
 H909 H 0.39440 0.45264 0.72353
 H910 H 0.35823 0.41467 0.72711
 H911 H 0.39163 0.39054 0.80962
 H912 H 0.42778 0.42851 0.80605
 C913 C 0.04197 0.25458 0.97746
 C914 C 0.06214 0.25669 0.96174
 C915 C 0.08489 0.25906 0.94138
 C916 C 0.08964 0.28509 0.92738
 C917 C 0.10988 0.28682 0.90558
 C918 C 0.12538 0.26249 0.89766
 C919 C 0.12095 0.23657 0.91195
 C920 C 0.10070 0.23484 0.93375
 C921 C 0.14569 0.26406 0.87477
 C922 C 0.16299 0.26520 0.85585
 H923 H 0.07731 0.30388 0.93292
 H924 H 0.11318 0.30698 0.89468
 H925 H 0.13287 0.21764 0.90600
 H926 H 0.09698 0.21454 0.94425
 C927 C 0.54427 0.75414 0.47623
 C928 C 0.56451 0.75581 0.46053
 C929 C 0.58732 0.75773 0.44018
 C930 C 0.59336 0.78394 0.42706
 C931 C 0.61360 0.78536 0.40523
 C932 C 0.62779 0.76056 0.39640
 C933 C 0.62209 0.73443 0.40983
 C934 C 0.60184 0.73301 0.43166
 C935 C 0.64806 0.76187 0.37346
 C936 C 0.66530 0.76285 0.35446
 H937 H 0.58203 0.80313 0.43330
 H938 H 0.61790 0.80568 0.39501
 H939 H 0.63300 0.71514 0.40318
 H940 H 0.59712 0.71258 0.44147
 C941 C 0.96154 0.74980 0.95714
 C942 C 0.94757 0.74996 0.93547
 C943 C 0.93021 0.75034 0.91006
 C944 C 0.91834 0.77610 0.90035
 C945 C 0.90008 0.77628 0.87666
 C946 C 0.89361 0.75071 0.86259
 C947 C 0.90582 0.72501 0.87204
 C948 C 0.92408 0.72482 0.89573
 C949 C 0.87342 0.75067 0.83936
 C950 C 0.85594 0.75058 0.82041
 H951 H 0.92284 0.79593 0.91135
 H952 H 0.89066 0.79626 0.86962
 H953 H 0.90085 0.70509 0.86140
 H954 H 0.93305 0.70477 0.90314
 C955 C 0.45870 0.24979 0.45673
 C956 C 0.44448 0.25040 0.43524
 C957 C 0.42680 0.25136 0.41009
 C958 C 0.40905 0.27501 0.40519
 C959 C 0.39068 0.27542 0.38161
 C960 C 0.38997 0.25219 0.36282
 C961 C 0.40800 0.22870 0.36747
 C962 C 0.42640 0.22829 0.39107
 C963 C 0.36980 0.25198 0.33958
 C964 C 0.35233 0.25179 0.32064
 H965 H 0.40912 0.29292 0.41981
 H966 H 0.37674 0.29363 0.37828
 H967 H 0.40753 0.21057 0.35313
 H968 H 0.43997 0.20986 0.39471
 C969 C 0.02454 0.75177 0.05952
 C970 C 0.04207 0.75228 0.07842
 C971 C 0.06540 0.75265 0.09849
 C972 C 0.07915 0.77845 0.10482
 C973 C 0.10417 0.77844 0.12122
 C974 C 0.11567 0.75262 0.13121
 C975 C 0.10169 0.72687 0.12524
 C976 C 0.07668 0.72687 0.10885
 C977 C 0.14120 0.75258 0.14842
 C978 C 0.16175 0.75246 0.16398
 H979 H 0.07090 0.79846 0.09653
 H980 H 0.11467 0.79850 0.12589
 H981 H 0.11026 0.70679 0.13303
 H982 H 0.06652 0.70675 0.10369
 C983 C 0.52340 0.25059 0.55989
 C984 C 0.54099 0.25094 0.57873
 C985 C 0.56436 0.25109 0.59874
 C986 C 0.57837 0.27676 0.60500
 C987 C 0.60340 0.27654 0.62137
 C988 C 0.61466 0.25061 0.63138
 C989 C 0.60042 0.22499 0.62548
 C990 C 0.57540 0.22522 0.60911
 C991 C 0.64016 0.25037 0.64861
 C992 C 0.66068 0.25009 0.66422
 H993 H 0.57032 0.29685 0.59669
 H994 H 0.61410 0.29650 0.62600
 H995 H 0.60880 0.20485 0.63330
 H996 H 0.56503 0.20520 0.60400
 C997 C 0.93907 0.24346 0.04110
 C998 C 0.91887 0.24102 0.05683
 C999 C 0.89610 0.23822 0.07726
 C1000 C 0.87950 0.26203 0.08454
 C1001 C 0.85919 0.25996 0.10630
 C1002 C 0.85544 0.23410 0.12095
 C1003 C 0.87175 0.21018 0.11339
 C1004 C 0.89206 0.21224 0.09163
 C1005 C 0.83502 0.23228 0.14383
 C1006 C 0.81762 0.23112 0.16274
 H1007 H 0.88262 0.28229 0.07379
 H1008 H 0.84668 0.27859 0.11193
 H1009 H 0.86902 0.19007 0.12454
 H1010 H 0.90497 0.19377 0.08639
 C1011 C 0.44135 0.74539 0.54013
 C1012 C 0.42122 0.74340 0.55602
 C1013 C 0.39859 0.74108 0.57667
 C1014 C 0.39335 0.71488 0.59019
 C1015 C 0.37326 0.71312 0.61218
 C1016 C 0.35837 0.73759 0.62084
 C1017 C 0.36331 0.76371 0.60704
 C1018 C 0.38340 0.76547 0.58505
 C1019 C 0.33813 0.73601 0.64390
 C1020 C 0.32085 0.73500 0.66294
 H1021 H 0.40517 0.69594 0.58410
 H1022 H 0.36960 0.69280 0.62264
 H1023 H 0.35190 0.78277 0.61351
 H1024 H 0.38747 0.78591 0.57498
 C1025 C 0.25168 0.04448 0.96105
 C1026 C 0.25172 0.06614 0.94707
 C1027 C 0.25164 0.09152 0.92968
 C1028 C 0.22605 0.10622 0.92452
 C1029 C 0.22567 0.12987 0.90621
 C1030 C 0.25089 0.13891 0.89299
 C1031 C 0.27655 0.12446 0.89850
 C1032 C 0.27693 0.10082 0.91680
 C1033 C 0.25025 0.16213 0.87280
 C1034 C 0.24979 0.18110 0.85535
 H1035 H 0.20635 0.09913 0.93427
 H1036 H 0.20569 0.14081 0.90200
 H1037 H 0.29615 0.13119 0.88830
 H1038 H 0.29681 0.08953 0.92054
 C1039 C 0.75233 0.54238 0.45995
 C1040 C 0.75262 0.56392 0.44582
 C1041 C 0.75281 0.58917 0.42826
 C1042 C 0.72748 0.60445 0.42349
 C1043 C 0.72733 0.62800 0.40506
 C1044 C 0.75250 0.63636 0.39133
 C1045 C 0.77791 0.62134 0.39644
 C1046 C 0.77807 0.59779 0.41487
 C1047 C 0.75204 0.65950 0.37107
 C1048 C 0.75170 0.67842 0.35357
 H1049 H 0.70781 0.59789 0.43365
 H1050 H 0.70754 0.63940 0.40117
 H1051 H 0.79747 0.62755 0.38585
 H1052 H 0.79774 0.58605 0.41831
 C1053 C 0.74366 0.02232 0.04126
 C1054 C 0.74154 0.03779 0.06167
 C1055 C 0.73913 0.05789 0.08468
 C1056 C 0.76324 0.06509 0.10087
 C1057 C 0.76155 0.08674 0.12132
 C1058 C 0.73577 0.10134 0.12555
 C1059 C 0.71154 0.09382 0.10969
 C1060 C 0.71323 0.07216 0.08926
 C1061 C 0.73431 0.12420 0.14594
 C1062 C 0.73330 0.14315 0.16325
 H1063 H 0.78344 0.05439 0.09728
 H1064 H 0.78040 0.09239 0.13350
 H1065 H 0.69151 0.10496 0.11283
 H1066 H 0.69455 0.06696 0.07663
 C1067 C 0.24436 0.52472 0.54319
 C1068 C 0.24275 0.54043 0.56346
 C1069 C 0.24094 0.56078 0.58631
 C1070 C 0.26555 0.56848 0.60149
 C1071 C 0.26434 0.59032 0.62177
 C1072 C 0.23854 0.60459 0.62686
 C1073 C 0.21383 0.59658 0.61201
 C1074 C 0.21505 0.57474 0.59173
 C1075 C 0.23749 0.62759 0.64713
 C1076 C 0.23675 0.64666 0.66434
 H1077 H 0.28574 0.55802 0.59723
 H1078 H 0.28355 0.59634 0.63318
 H1079 H 0.19377 0.60746 0.61582
 H1080 H 0.19596 0.56915 0.57989
 C1081 C 0.75456 0.95957 0.93956
 C1082 C 0.75701 0.94367 0.91946
 C1083 C 0.75985 0.92302 0.89686
 C1084 C 0.78607 0.90928 0.89241
 C1085 C 0.78826 0.88730 0.87232
 C1086 C 0.76420 0.87886 0.85664
 C1087 C 0.73808 0.89288 0.86079
 C1088 C 0.73589 0.91486 0.88088
 C1089 C 0.76620 0.85577 0.83643
 C1090 C 0.76754 0.83668 0.81920
 H1091 H 0.80467 0.91520 0.90485
 H1092 H 0.80858 0.87665 0.86928
 H1093 H 0.71934 0.88657 0.84876
 H1094 H 0.71543 0.92510 0.88433
 C1095 C 0.25335 0.46088 0.44013
 C1096 C 0.25543 0.44500 0.41997
 C1097 C 0.25786 0.42437 0.39730
 C1098 C 0.23358 0.41603 0.38191
 C1099 C 0.23542 0.39405 0.36178
 C1100 C 0.26153 0.38022 0.35699
 C1101 C 0.28590 0.38882 0.37209
 C1102 C 0.28406 0.41080 0.39222
 C1103 C 0.26321 0.35713 0.33674
 C1104 C 0.26434 0.33804 0.31949
 H1105 H 0.21315 0.42614 0.38586
 H1106 H 0.21644 0.38762 0.35021
 H1107 H 0.30621 0.37832 0.36855
 H1108 H 0.30292 0.41684 0.40420
 C1109 C 0.24919 0.94179 0.02364
 C1110 C 0.24869 0.92275 0.04100
 C1111 C 0.24839 0.90246 0.06414
 C1112 C 0.22274 0.89638 0.07821
 C1113 C 0.22288 0.87975 0.10307
 C1114 C 0.24871 0.86929 0.11411
 C1115 C 0.27431 0.87499 0.09980
 C1116 C 0.27416 0.89161 0.07494
 C1117 C 0.24890 0.85192 0.13953
 C1118 C 0.24916 0.83628 0.16003
 H1119 H 0.20274 0.90505 0.07034
 H1120 H 0.20294 0.87531 0.11384
 H1121 H 0.29438 0.86684 0.10802
 H1122 H 0.29417 0.89656 0.06453
 C1123 C 0.74841 0.43903 0.52419
 C1124 C 0.74768 0.42011 0.54166
 C1125 C 0.74716 0.39996 0.56491
 C1126 C 0.72159 0.39477 0.57946
 C1127 C 0.72167 0.37826 0.60440
 C1128 C 0.74735 0.36703 0.61500
 C1129 C 0.77285 0.37185 0.60021
 C1130 C 0.77277 0.38836 0.57528
 C1131 C 0.74746 0.34972 0.64044
 C1132 C 0.74769 0.33407 0.66092
 H1133 H 0.70174 0.40403 0.57191
 H1134 H 0.70179 0.37448 0.61553
 H1135 H 0.79280 0.36309 0.60810
 H1136 H 0.79274 0.39262 0.56449
 C1137 C 0.03979 0.06142 0.75397
 C1138 C 0.05557 0.08161 0.75642
 C1139 C 0.07611 0.10428 0.75928
 C1140 C 0.08959 0.10900 0.78562
 C1141 C 0.11154 0.12911 0.78785
 C1142 C 0.12020 0.14453 0.76372
 C1143 C 0.10643 0.14012 0.73748
 C1144 C 0.08448 0.12001 0.73525
 C1145 C 0.14324 0.16476 0.76575
 C1146 C 0.16227 0.18204 0.76711
 H1147 H 0.08351 0.09675 0.80429
 H1148 H 0.12199 0.13236 0.80825
 H1149 H 0.11291 0.15195 0.71868
 H1150 H 0.07444 0.11634 0.71471
 C1151 C 0.54059 0.55948 0.25344
 C1152 C 0.55666 0.57946 0.25576
 C1153 C 0.57748 0.60193 0.25849
 C1154 C 0.59168 0.60608 0.28455
 C1155 C 0.61375 0.62609 0.28660
 C1156 C 0.62181 0.64200 0.26258
 C1157 C 0.60735 0.63814 0.23662
 C1158 C 0.58529 0.61813 0.23456
 C1159 C 0.64493 0.66221 0.26446
 C1160 C 0.66400 0.67947 0.26569
 H1161 H 0.58605 0.59348 0.30312
 H1162 H 0.62473 0.62891 0.30680
 H1163 H 0.61336 0.65034 0.21791
 H1164 H 0.57468 0.61492 0.21423
 C1165 C 0.05974 0.97639 0.24919
 C1166 C 0.07891 0.95919 0.24855
 C1167 C 0.09933 0.93618 0.24804
 C1168 C 0.10512 0.92208 0.22231
 C1169 C 0.12181 0.89726 0.22228
 C1170 C 0.13263 0.88631 0.24800
 C1171 C 0.12724 0.90066 0.27366
 C1172 C 0.11055 0.92548 0.27369
 C1173 C 0.14999 0.86089 0.24800
 C1174 C 0.16563 0.84040 0.24810
 H1175 H 0.09616 0.92988 0.20240
 H1176 H 0.12602 0.88647 0.20228
 H1177 H 0.13568 0.89251 0.29365
 H1178 H 0.10583 0.93591 0.29377
 C1179 C 0.55976 0.47492 0.74932
 C1180 C 0.57845 0.45719 0.74863
 C1181 C 0.59834 0.43373 0.74815
 C1182 C 0.60950 0.42301 0.77382
 C1183 C 0.62585 0.39796 0.77386
 C1184 C 0.63095 0.38341 0.74825
 C1185 C 0.62014 0.39435 0.72251
 C1186 C 0.60379 0.41940 0.72248
 C1187 C 0.64819 0.35791 0.74831
 C1188 C 0.66381 0.33741 0.74848
 H1189 H 0.60505 0.43364 0.79386
 H1190 H 0.63430 0.38983 0.79385
 H1191 H 0.62415 0.38341 0.70255
 H1192 H 0.59488 0.42724 0.70256
 C1193 C 0.95513 0.03874 0.25174
 C1194 C 0.93338 0.05254 0.25173
 C1195 C 0.90789 0.06974 0.25159
 C1196 C 0.89779 0.08160 0.27708
 C1197 C 0.87407 0.09978 0.27671
 C1198 C 0.86034 0.10617 0.25084
 C1199 C 0.87016 0.09396 0.22540
 C1200 C 0.89389 0.07577 0.22577
 C1201 C 0.83710 0.12632 0.25027
 C1202 C 0.81815 0.14377 0.24989
 H1203 H 0.90853 0.07718 0.29714
 H1204 H 0.86673 0.10921 0.29649
 H1205 H 0.85979 0.09887 0.20526
 H1206 H 0.90160 0.06682 0.20592
 C1207 C 0.45761 0.54098 0.75317
 C1208 C 0.43653 0.55578 0.75353
 C1209 C 0.41206 0.57439 0.75383
 C1210 C 0.41502 0.60246 0.76365
 C1211 C 0.39167 0.62107 0.76315
 C1212 C 0.36522 0.61171 0.75280
 C1213 C 0.36215 0.58356 0.74315
 C1214 C 0.38556 0.56491 0.74366
 C1215 C 0.34156 0.63133 0.75176
 C1216 C 0.32235 0.64850 0.75105
 H1217 H 0.43543 0.61004 0.77147
 H1218 H 0.39429 0.64280 0.77062
 H1219 H 0.34180 0.57613 0.73507
 H1220 H 0.38307 0.54325 0.73594
 C1221 C 0.97692 0.95790 0.74345
 C1222 C 0.96147 0.93748 0.74159
 C1223 C 0.94139 0.91443 0.73953
 C1224 C 0.92696 0.90956 0.71376
 C1225 C 0.90534 0.88907 0.71241
 C1226 C 0.89805 0.87346 0.73686
 C1227 C 0.91281 0.87800 0.76252
 C1228 C 0.93442 0.89849 0.76386
 C1229 C 0.87526 0.85301 0.73573
 C1230 C 0.85637 0.83564 0.73496
 H1231 H 0.93199 0.92199 0.69491
 H1232 H 0.89407 0.88568 0.69247
 H1233 H 0.90733 0.86600 0.78153
 H1234 H 0.94526 0.90232 0.78397
 C1235 C 0.47559 0.45717 0.24350
 C1236 C 0.45967 0.43708 0.24172
 C1237 C 0.43911 0.41443 0.23973
 C1238 C 0.42451 0.40980 0.21400
 C1239 C 0.40258 0.38964 0.21269
 C1240 C 0.39511 0.37411 0.23713
 C1241 C 0.40999 0.37843 0.26276
 C1242 C 0.43192 0.39859 0.26407
 C1243 C 0.37209 0.35387 0.23600
 C1244 C 0.35306 0.33663 0.23522
 H1245 H 0.42972 0.42214 0.19513
 H1246 H 0.39124 0.38642 0.19276
 H1247 H 0.40440 0.36649 0.28177
 H1248 H 0.44288 0.40222 0.28415
   
