data_POSCAR
  _audit_creation_date              2014-09-24
  _audit_creation_method            'ToBaCCo'
  _symmetry_space_group_name_H-M    'P1'
  _symmetry_Int_Tables_number       1
  _symmetry_cell_setting            triclinic
  loop_
  _symmetry_equiv_pos_as_xyz
 x,y,z
_cell_length_a 60.4821
_cell_length_b 60.2768
_cell_length_c 50.7076
_cell_angle_alpha 90.506400
_cell_angle_beta 91.600400
_cell_angle_gamma 89.153400
loop_
  _atom_site_label
  _atom_site_type_symbol
  _atom_site_fract_x
  _atom_site_fract_y
  _atom_site_fract_z
C1 C 0.32996 -0.03356 0.25616
 C2 C 0.34245 -0.01543 0.24806
 C3 C 0.35727 -0.01804 0.22749
 C4 C 0.35973 -0.03852 0.21482
 C5 C 0.34763 -0.05658 0.22310
 C6 C 0.33284 -0.05460 0.24412
 C7 C 0.34204 0.00593 0.26230
 C8 C 0.35581 0.00860 0.28478
 C9 C 0.36025 0.02988 0.29541
 C10 C 0.34984 0.04831 0.28311
 C11 C 0.33551 0.04570 0.26104
 C12 C 0.33165 0.02447 0.25068
 H13 H 0.31912 -0.03146 0.27266
 H14 H 0.36699 -0.00409 0.22142
 H15 H 0.36459 -0.00591 0.29228
 H16 H 0.32156 0.02250 0.23284
 H17 H 0.34949 -0.07214 0.21247
 H18 H 0.35220 0.06488 0.29100
 C19 C 0.16376 -0.02109 0.74471
 C20 C 0.15398 -0.00219 0.75615
 C21 C 0.14246 -0.00408 0.77959
 C22 C 0.14057 -0.02473 0.79198
 C23 C 0.15077 -0.04341 0.78054
 C24 C 0.16198 -0.04183 0.75675
 C25 C 0.15309 0.01909 0.74208
 C26 C 0.13705 0.02233 0.72198
 C27 C 0.13479 0.04285 0.70893
 C28 C 0.14900 0.06016 0.71692
 C29 C 0.16471 0.05725 0.73762
 C30 C 0.16684 0.03656 0.74996
 H31 H 0.17184 -0.01980 0.72598
 H32 H 0.13397 0.01044 0.78727
 H33 H 0.12681 0.00843 0.71614
 H34 H 0.17874 0.03422 0.76612
 H35 H 0.14973 -0.05944 0.78988
 H36 H 0.14735 0.07634 0.70787
 C37 C 0.65637 0.48078 0.25421
 C38 C 0.64410 0.49810 0.26574
 C39 C 0.63105 0.49385 0.28753
 C40 C 0.63045 0.47247 0.29810
 C41 C 0.64286 0.45535 0.28666
 C42 C 0.65553 0.45927 0.26444
 C43 C 0.64238 0.51987 0.25296
 C44 C 0.62697 0.52280 0.23209
 C45 C 0.62413 0.54355 0.22018
 C46 C 0.63670 0.56145 0.22943
 C47 C 0.65192 0.55885 0.25066
 C48 C 0.65492 0.53790 0.26227
 H49 H 0.66566 0.48382 0.23666
 H50 H 0.62106 0.50708 0.29591
 H51 H 0.61720 0.50889 0.22511
 H52 H 0.66648 0.53577 0.27880
 H53 H 0.64206 0.43872 0.29454
 H54 H 0.63439 0.57756 0.22032
 C55 C 0.83040 0.48770 0.74535
 C56 C 0.84631 0.50302 0.73784
 C57 C 0.86021 0.49792 0.71685
 C58 C 0.85807 0.47779 0.70297
 C59 C 0.84219 0.46263 0.71065
 C60 C 0.82863 0.46726 0.73207
 C61 C 0.85048 0.52300 0.75405
 C62 C 0.86848 0.52293 0.77202
 C63 C 0.87287 0.54136 0.78865
 C64 C 0.85887 0.56019 0.78600
 C65 C 0.84077 0.56044 0.76796
 C66 C 0.83665 0.54177 0.75196
 H67 H 0.82044 0.49109 0.76240
 H68 H 0.87276 0.50958 0.71146
 H69 H 0.87924 0.50842 0.77239
 H70 H 0.82259 0.54171 0.73823
 H71 H 0.84099 0.44671 0.70061
 H72 H 0.86117 0.57450 0.79877
 C73 C 0.25573 0.38798 1.04281
 C74 C 0.26559 0.40066 1.02342
 C75 C 0.28515 0.41190 1.02934
 C76 C 0.29507 0.41058 1.05456
 C77 C 0.28523 0.39774 1.07392
 C78 C 0.26536 0.38616 1.06843
 C79 C 0.25526 0.40223 0.99686
 C80 C 0.23495 0.41332 0.99339
 C81 C 0.22429 0.41418 0.96847
 C82 C 0.23427 0.40367 0.94689
 C83 C 0.25459 0.39207 0.95021
 C84 C 0.26515 0.39186 0.97528
 H85 H 0.24019 0.38012 1.03779
 H86 H 0.29280 0.42147 1.01414
 H87 H 0.22740 0.42123 1.01026
 H88 H 0.28082 0.38317 0.97823
 H89 H 0.29375 0.39623 1.09288
 H90 H 0.22556 0.40346 0.92793
 C91 C 0.75183 0.09899 1.02758
 C92 C 0.74644 0.08428 1.00690
 C93 C 0.73033 0.06830 1.01015
 C94 C 0.71887 0.06726 1.03373
 C95 C 0.72455 0.08182 1.05453
 C96 C 0.74082 0.09821 1.05175
 C97 C 0.75622 0.08691 0.98093
 C98 C 0.77252 0.07189 0.97250
 C99 C 0.78314 0.07521 0.94859
 C100 C 0.77656 0.09334 0.93284
 C101 C 0.76027 0.10845 0.94116
 C102 C 0.75002 0.10510 0.96517
 H103 H 0.76361 0.11187 1.02388
 H104 H 0.72601 0.05734 0.99380
 H105 H 0.77778 0.05845 0.98538
 H106 H 0.73785 0.11704 0.97206
 H107 H 0.71579 0.08047 1.07272
 H108 H 0.78467 0.09623 0.91442
 C109 C 0.24038 0.61362 0.52017
 C110 C 0.23053 0.59880 0.50217
 C111 C 0.21109 0.58809 0.50853
 C112 C 0.20156 0.59162 0.53321
 C113 C 0.21155 0.60661 0.55118
 C114 C 0.23094 0.61777 0.54469
 C115 C 0.24113 0.59397 0.47703
 C116 C 0.26146 0.58265 0.47706
 C117 C 0.27269 0.57920 0.45353
 C118 C 0.26326 0.58721 0.42982
 C119 C 0.24296 0.59901 0.42961
 C120 C 0.23177 0.60190 0.45333
 H121 H 0.25558 0.62170 0.51517
 H122 H 0.20352 0.57686 0.49424
 H123 H 0.26871 0.57684 0.49559
 H124 H 0.21620 0.61103 0.45358
 H125 H 0.20433 0.60952 0.57023
 H126 H 0.27252 0.58563 0.41190
 C127 C 0.74297 0.88651 0.52815
 C128 C 0.75232 0.89769 0.50720
 C129 C 0.77298 0.90770 0.51076
 C130 C 0.78470 0.90673 0.53523
 C131 C 0.77499 0.89514 0.55595
 C132 C 0.75423 0.88511 0.55259
 C133 C 0.74065 0.89860 0.48129
 C134 C 0.71945 0.90821 0.47899
 C135 C 0.70822 0.90914 0.45440
 C136 C 0.71838 0.90000 0.43213
 C137 C 0.73965 0.89027 0.43418
 C138 C 0.75072 0.88978 0.45886
 H139 H 0.72697 0.87884 0.52536
 H140 H 0.78005 0.91557 0.49391
 H141 H 0.71169 0.91492 0.49641
 H142 H 0.76715 0.88244 0.46071
 H143 H 0.78316 0.89430 0.57517
 H144 H 0.70964 0.90040 0.41318
 C145 C -0.03004 0.23554 0.35244
 C146 C -0.01043 0.23413 0.36756
 C147 C -0.00581 0.21538 0.38286
 C148 C -0.02117 0.19810 0.38423
 C149 C -0.04104 0.19990 0.36894
 C150 C -0.04562 0.21833 0.35237
 C151 C 0.00496 0.25283 0.36816
 C152 C -0.00059 0.27233 0.38183
 C153 C 0.01431 0.28991 0.38369
 C154 C 0.03465 0.28803 0.37110
 C155 C 0.04014 0.26879 0.35661
 C156 C 0.02524 0.25111 0.35552
 H157 H -0.03229 0.24984 0.33987
 H158 H 0.00924 0.21513 0.39494
 H159 H -0.01627 0.27357 0.39163
 H160 H 0.02942 0.23595 0.34502
 H161 H -0.05290 0.18674 0.36986
 H162 H 0.04593 0.30183 0.37203
 C163 C -0.02541 0.75218 0.13816
 C164 C -0.00593 0.75233 0.12395
 C165 C -0.00084 0.77078 0.10895
 C166 C -0.01549 0.78891 0.10729
 C167 C -0.03519 0.78866 0.12136
 C168 C -0.04031 0.77045 0.13752
 C169 C 0.00897 0.73288 0.12419
 C170 C 0.00312 0.71374 0.10997
 C171 C 0.01797 0.69555 0.10815
 C172 C 0.03851 0.69688 0.12204
 C173 C 0.04422 0.71582 0.13703
 C174 C 0.02941 0.73390 0.13759
 H175 H -0.02907 0.73729 0.14888
 H176 H 0.01430 0.77076 0.09799
 H177 H -0.01250 0.71384 0.09900
 H178 H 0.03382 0.74896 0.14820
 H179 H -0.04570 0.80333 0.12067
 H180 H 0.04974 0.68273 0.12237
 C181 C 0.47668 0.25678 0.64211
 C182 C 0.49489 0.25848 0.62575
 C183 C 0.49574 0.27578 0.60757
 C184 C 0.47829 0.29128 0.60527
 C185 C 0.46008 0.28942 0.62163
 C186 C 0.45910 0.27223 0.64017
 C187 C 0.51247 0.24141 0.62647
 C188 C 0.51040 0.22250 0.61046
 C189 C 0.52730 0.20631 0.61014
 C190 C 0.54630 0.20922 0.62637
 C191 C 0.54857 0.22818 0.64272
 C192 C 0.53148 0.24428 0.64243
 H193 H 0.47598 0.24308 0.65573
 H194 H 0.50976 0.27686 0.59480
 H195 H 0.49574 0.22061 0.59789
 H196 H 0.53303 0.25929 0.65421
 H197 H 0.44682 0.30167 0.62022
 H198 H 0.55902 0.19639 0.62669
 C199 C 0.47436 0.74431 0.85619
 C200 C 0.49437 0.74290 0.87054
 C201 C 0.49932 0.72423 0.88599
 C202 C 0.48387 0.70709 0.88823
 C203 C 0.46371 0.70890 0.87364
 C204 C 0.45897 0.72726 0.85745
 C205 C 0.50916 0.76198 0.87165
 C206 C 0.50401 0.78011 0.88791
 C207 C 0.51854 0.79791 0.89053
 C208 C 0.53800 0.79771 0.87611
 C209 C 0.54318 0.77974 0.85932
 C210 C 0.52867 0.76177 0.85742
 H211 H 0.47050 0.75905 0.84475
 H212 H 0.51459 0.72404 0.89768
 H213 H 0.48901 0.78003 0.89912
 H214 H 0.53263 0.74747 0.84526
 H215 H 0.45188 0.69559 0.87391
 H216 H 0.54888 0.81181 0.87765
 C217 C -0.28128 0.57839 0.98340
 C218 C -0.26084 0.58602 0.99370
 C219 C -0.26039 0.60028 1.01569
 C220 C -0.28006 0.60764 1.02701
 C221 C -0.30027 0.60028 1.01639
 C222 C -0.30136 0.58566 0.99449
 C223 C -0.24020 0.58278 0.97908
 C224 C -0.23735 0.59557 0.95645
 C225 C -0.21648 0.59726 0.94468
 C226 C -0.19894 0.58429 0.95562
 C227 C -0.20135 0.57193 0.97867
 C228 C -0.22206 0.57112 0.99035
 H229 H -0.28146 0.56803 0.96584
 H230 H -0.24470 0.60664 1.02304
 H231 H -0.25123 0.60588 0.95010
 H232 H -0.22377 0.56252 1.00884
 H233 H -0.31521 0.60529 1.02626
 H234 H -0.18289 0.58383 0.94680
 C235 C -0.28783 0.42403 0.50034
 C236 C -0.26724 0.41665 0.49124
 C237 C -0.26613 0.40511 0.46726
 C238 C -0.28535 0.40011 0.45261
 C239 C -0.30588 0.40719 0.46193
 C240 C -0.30753 0.41933 0.48584
 C241 C -0.24700 0.41784 0.50805
 C242 C -0.24577 0.40558 0.53146
 C243 C -0.22533 0.40177 0.54466
 C244 C -0.20627 0.41117 0.53464
 C245 C -0.20731 0.42352 0.51131
 C246 C -0.22773 0.42701 0.49819
 H247 H -0.28842 0.43224 0.51940
 H248 H -0.25028 0.39882 0.46077
 H249 H -0.26044 0.39741 0.53804
 H250 H -0.22841 0.43555 0.47945
 H251 H -0.32045 0.40389 0.44971
 H252 H -0.19039 0.40834 0.54456
 C253 C 0.22397 -0.07271 -0.00733
 C254 C 0.24307 -0.08435 -0.01474
 C255 C 0.24282 -0.09711 -0.03794
 C256 C 0.22345 -0.09904 -0.05384
 C257 C 0.20452 -0.08695 -0.04632
 C258 C 0.20481 -0.07349 -0.02355
 C259 C 0.26299 -0.08542 0.00259
 C260 C 0.26325 -0.09982 0.02413
 C261 C 0.28329 -0.10588 0.03737
 C262 C 0.30290 -0.09614 0.02896
 C263 C 0.30276 -0.08144 0.00762
 C264 C 0.28275 -0.07608 -0.00550
 H265 H 0.22413 -0.06284 0.01064
 H266 H 0.25749 -0.10683 -0.04232
 H267 H 0.24796 -0.10796 0.02850
 H268 H 0.28269 -0.06570 -0.02285
 H269 H 0.18959 -0.08724 -0.05861
 H270 H 0.31852 -0.09959 0.03916
 C271 C 0.21642 1.07628 0.50117
 C272 C 0.23604 1.08433 0.51304
 C273 C 0.23511 1.09615 0.53695
 C274 C 0.21478 1.10070 0.54866
 C275 C 0.19535 1.09272 0.53660
 C276 C 0.19601 1.08041 0.51298
 C277 C 0.25712 1.08350 0.49902
 C278 C 0.25854 1.09473 0.47503
 C279 C 0.27919 1.09869 0.46374
 C280 C 0.29834 1.09015 0.47677
 C281 C 0.29703 1.07811 0.50028
 C282 C 0.27640 1.07490 0.51140
 H283 H 0.21697 1.06749 0.48246
 H284 H 0.25015 1.10302 0.54558
 H285 H 0.24356 1.10223 0.46673
 H286 H 0.27542 1.06656 0.53018
 H287 H 0.17962 1.09598 0.54573
 H288 H 0.31443 1.09213 0.46833
 C289 C 0.15843 0.48169 0.23127
 C290 C 0.16998 0.49153 0.25255
 C291 C 0.18220 0.51061 0.24865
 C292 C 0.18283 0.52034 0.22368
 C293 C 0.17145 0.51031 0.20230
 C294 C 0.15888 0.49108 0.20598
 C295 C 0.16734 0.48358 0.27956
 C296 C 0.17915 0.46496 0.28874
 C297 C 0.17653 0.45748 0.31463
 C298 C 0.16193 0.46896 0.33122
 C299 C 0.14991 0.48763 0.32205
 C300 C 0.15290 0.49494 0.29623
 H301 H 0.14862 0.46714 0.23461
 H302 H 0.19062 0.51838 0.26540
 H303 H 0.18994 0.45602 0.27550
 H304 H 0.14381 0.50936 0.28892
 H305 H 0.17114 0.51837 0.18328
 H306 H 0.15940 0.46294 0.35096
 C307 C -0.14956 1.00772 0.20869
 C308 C -0.15872 0.99957 0.23161
 C309 C -0.17030 0.97973 0.23079
 C310 C -0.17315 0.96760 0.20711
 C311 C -0.16414 0.97628 0.18402
 C312 C -0.15179 0.99610 0.18454
 C313 C -0.15669 1.01199 0.25667
 C314 C -0.16617 1.03317 0.25879
 C315 C -0.16570 1.04498 0.28299
 C316 C -0.15458 1.03498 0.30485
 C317 C -0.14472 1.01376 0.30272
 C318 C -0.14608 1.00230 0.27861
 H319 H -0.14110 1.02341 0.20988
 H320 H -0.17788 0.97443 0.24872
 H321 H -0.17351 1.04039 0.24110
 H322 H -0.13895 0.98576 0.27687
 H323 H -0.16472 0.96629 0.16623
 H324 H -0.15395 1.04324 0.32387
 C325 C 0.34473 0.51120 -0.29212
 C326 C 0.33639 0.50137 -0.26961
 C327 C 0.32640 0.48069 -0.27158
 C328 C 0.32430 0.46975 -0.29598
 C329 C 0.33236 0.47978 -0.31860
 C330 C 0.34333 0.50042 -0.31696
 C331 C 0.33865 0.51241 -0.24368
 C332 C 0.32754 0.53248 -0.23899
 C333 C 0.32901 0.54319 -0.21411
 C334 C 0.34210 0.53293 -0.19396
 C335 C 0.35393 0.51303 -0.19885
 C336 C 0.35175 0.50274 -0.22366
 H337 H 0.35214 0.52738 -0.29000
 H338 H 0.32030 0.47304 -0.25398
 H339 H 0.31692 0.53901 -0.25470
 H340 H 0.36040 0.48723 -0.22755
 H341 H 0.33175 0.47035 -0.33685
 H342 H 0.34450 0.54109 -0.17503
 C343 C 0.64547 0.00860 -0.26920
 C344 C 0.65802 0.01676 -0.24762
 C345 C 0.67166 0.03498 -0.25061
 C346 C 0.67298 0.04521 -0.27511
 C347 C 0.66073 0.03680 -0.29676
 C348 C 0.64628 0.01867 -0.29426
 C349 C 0.65634 0.00676 -0.22146
 C350 C 0.66875 -0.01236 -0.21529
 C351 C 0.66746 -0.02202 -0.19033
 C352 C 0.65371 -0.01221 -0.17153
 C353 C 0.64131 0.00715 -0.17743
 C354 C 0.64268 0.01652 -0.20257
 H355 H 0.63432 -0.00483 -0.26560
 H356 H 0.68074 0.04159 -0.23362
 H357 H 0.67906 -0.01994 -0.23012
 H358 H 0.63329 0.03146 -0.20742
 H359 H 0.66314 0.04448 -0.31561
 H360 H 0.65244 -0.01985 -0.15238
 C361 C -0.00481 0.21262 0.89068
 C362 C -0.00390 0.23214 0.87601
 C363 C -0.02127 0.23777 0.85835
 C364 C -0.03947 0.22376 0.85491
 C365 C -0.04033 0.20431 0.86993
 C366 C -0.02312 0.19862 0.88800
 C367 C 0.01531 0.24668 0.87905
 C368 C 0.03500 0.24138 0.86622
 C369 C 0.05319 0.25556 0.86843
 C370 C 0.05134 0.27501 0.88378
 C371 C 0.03168 0.28054 0.89660
 C372 C 0.01370 0.26617 0.89423
 H373 H 0.00889 0.20833 0.90399
 H374 H -0.02032 0.25279 0.84686
 H375 H 0.03605 0.22631 0.85450
 H376 H -0.00172 0.27036 0.90360
 H377 H -0.05471 0.19387 0.86791
 H378 H 0.06515 0.28623 0.88532
 C379 C 0.50384 0.22762 0.11566
 C380 C 0.50528 0.24823 0.12851
 C381 C 0.52494 0.25426 0.14167
 C382 C 0.54314 0.23964 0.14266
 C383 C 0.54163 0.21895 0.12982
 C384 C 0.52209 0.21288 0.11598
 C385 C 0.48610 0.26341 0.12931
 C386 C 0.46918 0.25950 0.14691
 C387 C 0.45244 0.27548 0.15071
 C388 C 0.45250 0.29519 0.13611
 C389 C 0.46921 0.29910 0.11804
 C390 C 0.48604 0.28310 0.11487
 H391 H 0.48847 0.22300 0.10573
 H392 H 0.52581 0.27014 0.15181
 H393 H 0.46969 0.24451 0.15857
 H394 H 0.49960 0.28628 0.10196
 H395 H 0.55587 0.20782 0.13009
 H396 H 0.43943 0.30744 0.13873
 C397 C 0.00160 0.71677 0.62110
 C398 C 0.00316 0.73711 0.63462
 C399 C 0.02141 0.74123 0.65148
 C400 C 0.03789 0.72491 0.65552
 C401 C 0.03616 0.70457 0.64202
 C402 C 0.01818 0.70043 0.62463
 C403 C -0.01508 0.75349 0.63305
 C404 C -0.03445 0.74963 0.64661
 C405 C -0.05111 0.76618 0.64859
 C406 C -0.04812 0.78643 0.63527
 C407 C -0.02886 0.79021 0.62110
 C408 C -0.01229 0.77371 0.62043
 H409 H -0.01270 0.71352 0.60838
 H410 H 0.02236 0.75686 0.66216
 H411 H -0.03542 0.73428 0.65740
 H412 H 0.00284 0.77655 0.61009
 H413 H 0.04909 0.69208 0.64463
 H414 H -0.06074 0.79933 0.63561
 C415 C 0.49645 0.72288 0.38222
 C416 C 0.49586 0.74124 0.36542
 C417 C 0.47929 0.74311 0.34566
 C418 C 0.46330 0.72660 0.34237
 C419 C 0.46397 0.70833 0.35939
 C420 C 0.48051 0.70624 0.37935
 C421 C 0.51338 0.75787 0.36737
 C422 C 0.53282 0.75457 0.35349
 C423 C 0.54932 0.77067 0.35415
 C424 C 0.54633 0.79015 0.36920
 C425 C 0.52695 0.79350 0.38359
 C426 C 0.51049 0.77722 0.38241
 H427 H 0.50966 0.72133 0.39699
 H428 H 0.47921 0.75717 0.33246
 H429 H 0.53490 0.73960 0.34175
 H430 H 0.49546 0.77946 0.39333
 H431 H 0.45130 0.69586 0.35733
 H432 H 0.55904 0.80264 0.36964
 B433 B -0.02701 -0.00303 1.00506
 B434 B -0.03748 -0.01042 0.97529
 B435 B -0.02008 0.01101 0.97791
 B436 B -0.00062 0.00531 1.00156
 B437 B -0.00611 -0.02037 1.01341
 B438 B -0.02911 -0.03017 0.99695
 B439 B 0.00285 -0.02481 0.96094
 B440 B 0.01348 -0.01702 0.99060
 B441 B -0.00389 -0.03870 0.98810
 B442 B -0.02344 -0.03293 0.96439
 B443 B -0.01804 -0.00731 0.95268
 B444 B 0.00497 0.00246 0.96885
 B445 B 0.46790 0.51110 0.50807
 B446 B 0.46019 0.50317 0.47731
 B447 B 0.48029 0.52192 0.48169
 B448 B 0.49562 0.51521 0.50897
 B449 B 0.48479 0.49161 0.52127
 B450 B 0.46264 0.48415 0.50158
 B451 B 0.49947 0.48222 0.47172
 B452 B 0.50734 0.49021 0.50236
 B453 B 0.48713 0.47144 0.49812
 B454 B 0.47182 0.47818 0.47084
 B455 B 0.48271 0.50170 0.45853
 B456 B 0.50480 0.50921 0.47814
 B457 B 0.52188 0.98601 0.52384
 B458 B 0.52737 0.99113 0.49187
 B459 B 0.50879 0.97175 0.49961
 B460 B 0.49450 0.98067 0.52595
 B461 B 0.50464 1.00593 0.53481
 B462 B 0.52517 1.01234 0.51379
 B463 B 0.48667 1.00908 0.48474
 B464 B 0.48102 1.00417 0.51637
 B465 B 0.49988 1.02336 0.50930
 B466 B 0.51386 1.01448 0.48262
 B467 B 0.50376 0.98904 0.47382
 B468 B 0.48334 0.98280 0.49497
 B469 B 0.02381 0.47966 1.02592
 B470 B 0.03342 0.48203 0.99524
 B471 B 0.01386 0.46336 1.00107
 B472 B -0.00356 0.47409 1.02362
 B473 B 0.00536 0.50015 1.03131
 B474 B 0.02850 0.50501 1.01361
 B475 B -0.00596 0.49908 0.97865
 B476 B -0.01571 0.49650 1.00912
 B477 B 0.00394 0.51528 1.00340
 B478 B 0.02139 0.50446 0.98087
 B479 B 0.01229 0.47858 0.97316
 B480 B -0.01066 0.47357 0.99086
 B481 B 0.01660 0.50691 0.48635
 B482 B 0.02609 0.49950 0.51667
 B483 B 0.00593 0.51900 0.51325
 B484 B -0.01090 0.51188 0.48750
 B485 B -0.00106 0.48736 0.47514
 B486 B 0.02210 0.47995 0.49303
 B487 B -0.01288 0.48039 0.52601
 B488 B -0.02230 0.48753 0.49570
 B489 B -0.00208 0.46817 0.49914
 B490 B 0.01475 0.47539 0.52481
 B491 B 0.00472 0.49968 0.53726
 B492 B -0.01839 0.50730 0.51911
 B493 B 0.52710 0.00769 0.00906
 B494 B 0.53438 0.00036 0.04012
 B495 B 0.51452 0.01977 0.03496
 B496 B 0.49946 0.01281 0.00762
 B497 B 0.51021 -0.01155 -0.00404
 B498 B 0.53206 -0.01923 0.01616
 B499 B 0.49488 -0.01886 0.04540
 B500 B 0.48745 -0.01148 0.01451
 B501 B 0.50741 -0.03088 0.01951
 B502 B 0.52243 -0.02390 0.04685
 B503 B 0.51164 0.00039 0.05854
 B504 B 0.48983 0.00814 0.03838
 B505 B 0.47667 0.49087 -0.01266
 B506 B 0.47126 0.49638 0.01920
 B507 B 0.49187 0.47851 0.01171
 B508 B 0.50450 0.48752 -0.01534
 B509 B 0.49157 0.51167 -0.02459
 B510 B 0.47072 0.51710 -0.00320
 B511 B 0.50988 0.51784 0.02484
 B512 B 0.51563 0.51219 -0.00676
 B513 B 0.49493 0.53010 0.00037
 B514 B 0.48223 0.52108 0.02744
 B515 B 0.49523 0.49708 0.03677
 B516 B 0.51601 0.49154 0.01547
 B517 B -0.02525 0.98422 0.48741
 B518 B -0.03525 0.99074 0.51747
 B519 B -0.01436 0.97205 0.51469
 B520 B 0.00245 0.98032 0.49072
 B521 B -0.00832 1.00459 0.47851
 B522 B -0.03188 1.01080 0.49488
 B523 B 0.00277 1.01128 0.53057
 B524 B 0.01277 1.00500 0.50080
 B525 B -0.00826 1.02343 0.50329
 B526 B -0.02489 1.01513 0.52741
 B527 B -0.01402 0.99093 0.53969
 B528 B 0.00951 0.98476 0.52304
 B529 B 0.75883 0.24185 0.21928
 B530 B 0.75752 0.23074 0.24967
 B531 B 0.77648 0.25023 0.24363
 B532 B 0.76489 0.26905 0.22255
 B533 B 0.73845 0.26099 0.21590
 B534 B 0.73408 0.23698 0.23266
 B535 B 0.74232 0.26963 0.26879
 B536 B 0.74344 0.28083 0.23869
 B537 B 0.72481 0.26112 0.24446
 B538 B 0.73644 0.24250 0.26563
 B539 B 0.76287 0.25082 0.27239
 B540 B 0.76704 0.27466 0.25555
 B541 B 0.74760 0.78632 0.75619
 B542 B 0.75273 0.79594 0.78694
 B543 B 0.73265 0.77738 0.78154
 B544 B 0.74071 0.75930 0.75792
 B545 B 0.76665 0.76676 0.74904
 B546 B 0.77388 0.78970 0.76714
 B547 B 0.76867 0.75561 0.80130
 B548 B 0.76305 0.74590 0.77053
 B549 B 0.78358 0.76448 0.77608
 B550 B 0.77533 0.78264 0.79967
 B551 B 0.74963 0.77522 0.80841
 B552 B 0.74211 0.75233 0.79051
 B553 B 0.26065 0.27721 0.75706
 B554 B 0.25399 0.28229 0.72519
 B555 B 0.27376 0.26333 0.73276
 B556 B 0.26661 0.24984 0.76038
 B557 B 0.24157 0.26054 0.76943
 B558 B 0.23394 0.28085 0.74746
 B559 B 0.23624 0.24154 0.72048
 B560 B 0.24306 0.23653 0.75240
 B561 B 0.22307 0.25538 0.74451
 B562 B 0.23026 0.26898 0.71711
 B563 B 0.25507 0.25822 0.70801
 B564 B 0.26311 0.23809 0.72990
 B565 B 0.25206 0.72055 0.24431
 B566 B 0.25720 0.70816 0.21525
 B567 B 0.23687 0.72736 0.21710
 B568 B 0.24480 0.74734 0.23891
 B569 B 0.27075 0.74033 0.25020
 B570 B 0.27843 0.71586 0.23546
 B571 B 0.27232 0.74667 0.19672
 B572 B 0.26707 0.75917 0.22583
 B573 B 0.28756 0.73996 0.22411
 B574 B 0.27959 0.71991 0.20227
 B575 B 0.25364 0.72693 0.19104
 B576 B 0.24590 0.75139 0.20585
 B577 B 0.26334 0.73718 0.72797
 B578 B 0.25987 0.73084 0.75995
 B579 B 0.27639 0.75189 0.75217
 B580 B 0.26548 0.76515 0.72561
 B581 B 0.24145 0.75221 0.71699
 B582 B 0.23800 0.73066 0.73826
 B583 B 0.23727 0.76921 0.76679
 B584 B 0.24101 0.77585 0.73520
 B585 B 0.22431 0.75474 0.74252
 B586 B 0.23520 0.74135 0.76921
 B587 B 0.25910 0.75439 0.77789
 B588 B 0.26274 0.77576 0.75667
 B589 B 0.24332 0.26979 0.25359
 B590 B 0.25089 0.27503 0.28527
 B591 B 0.23100 0.25649 0.27834
 B592 B 0.23747 0.24238 0.25056
 B593 B 0.26201 0.25237 0.24044
 B594 B 0.27027 0.27286 0.26198
 B595 B 0.26901 0.23408 0.28925
 B596 B 0.26136 0.22859 0.25784
 B597 B 0.28127 0.24730 0.26440
 B598 B 0.27483 0.26133 0.29226
 B599 B 0.25034 0.25129 0.30244
 B600 B 0.24192 0.23098 0.28094
 B601 B 0.75990 0.77418 0.24665
 B602 B 0.75300 0.78194 0.21568
 B603 B 0.77203 0.76173 0.22069
 B604 B 0.76467 0.74643 0.24679
 B605 B 0.74037 0.75746 0.25761
 B606 B 0.73320 0.77964 0.23823
 B607 B 0.73341 0.74253 0.20695
 B608 B 0.74032 0.73481 0.23787
 B609 B 0.72127 0.75512 0.23283
 B610 B 0.72870 0.77031 0.20671
 B611 B 0.75289 0.75925 0.19592
 B612 B 0.76022 0.73715 0.21530
 B613 B 0.75080 0.24282 0.76876
 B614 B 0.75572 0.22751 0.74151
 B615 B 0.73497 0.24649 0.74103
 B616 B 0.74306 0.26874 0.75957
 B617 B 0.76939 0.26325 0.77082
 B618 B 0.77702 0.23743 0.75957
 B619 B 0.76977 0.26402 0.71687
 B620 B 0.76504 0.27929 0.74411
 B621 B 0.78566 0.26009 0.74447
 B622 B 0.77743 0.23812 0.72598
 B623 B 0.75131 0.24366 0.71470
 B624 B 0.74350 0.26936 0.72610
 C625 C 0.38806 1.05210 0.32036
 C626 C 0.40357 1.05426 0.34127
 C627 C 0.40643 1.03738 0.35981
 C628 C 0.39372 1.01813 0.35701
 C629 C 0.37859 1.01572 0.33596
 C630 C 0.37539 1.03263 0.31712
 N631 N 0.42237 1.03964 0.38116
 N632 N 0.42117 1.02709 0.40108
 C633 C 0.43660 1.02641 0.42294
 C634 C 0.43157 1.01255 0.44362
 C635 C 0.44700 1.00825 0.46370
 C636 C 0.46806 1.01804 0.46405
 C637 C 0.47279 1.03298 0.44380
 C638 C 0.45713 1.03713 0.42325
 H639 H 0.38693 1.06536 0.30614
 H640 H 0.41336 1.06912 0.34300
 H641 H 0.39558 1.00476 0.37105
 H642 H 0.36888 1.00078 0.33517
 H643 H 0.41586 1.00413 0.44350
 H644 H 0.44246 0.99639 0.47840
 H645 H 0.48884 1.04064 0.44319
 H646 H 0.46137 1.04786 0.40721
 C647 C -0.09941 0.55998 0.81793
 C648 C -0.08331 0.55896 0.83834
 C649 C -0.07752 0.53865 0.84990
 C650 C -0.08727 0.51920 0.83994
 C651 C -0.10303 0.52008 0.81943
 C652 C -0.10983 0.54052 0.80824
 N653 N -0.06270 0.53788 0.87249
 N654 N -0.06313 0.52117 0.88759
 C655 C -0.04925 0.51781 0.91049
 C656 C -0.05460 0.50044 0.92690
 C657 C -0.04121 0.49513 0.94863
 C658 C -0.02176 0.50701 0.95453
 C659 C -0.01653 0.52489 0.93822
 C660 C -0.03027 0.53035 0.91630
 H661 H -0.10323 0.57605 0.80951
 H662 H -0.07578 0.57409 0.84563
 H663 H -0.08302 0.50322 0.84843
 H664 H -0.11076 0.50464 0.81370
 H665 H -0.06922 0.49074 0.92260
 H666 H -0.04626 0.48144 0.96060
 H667 H -0.00171 0.53434 0.94207
 H668 H -0.02584 0.54385 0.90365
 C669 C 0.12457 -0.00952 0.83386
 C670 C 0.10942 -0.01058 0.85407
 C671 C 0.09635 -0.02931 0.85681
 C672 C 0.09889 -0.04733 0.83944
 C673 C 0.11369 -0.04611 0.81880
 C674 C 0.12649 -0.02701 0.81546
 N675 N 0.07912 -0.02857 0.87554
 N676 N 0.06985 -0.04575 0.88425
 C677 C 0.05144 -0.04310 0.90117
 C678 C 0.04931 -0.05677 0.92311
 C679 C 0.03296 -0.05212 0.94155
 C680 C 0.01818 -0.03402 0.93786
 C681 C 0.01945 -0.02163 0.91451
 C682 C 0.03600 -0.02597 0.89662
 H683 H 0.13445 0.00522 0.83236
 H684 H 0.10755 0.00343 0.86738
 H685 H 0.08867 -0.06182 0.84100
 H686 H 0.11431 -0.05976 0.80481
 H687 H 0.06114 -0.07012 0.92680
 H688 H 0.03296 -0.06181 0.95934
 H689 H 0.00852 -0.00759 0.91063
 H690 H 0.03716 -0.01550 0.87948
 C691 C 0.62536 0.45953 0.34407
 C692 C 0.61187 0.45554 0.36540
 C693 C 0.58895 0.45891 0.36303
 C694 C 0.57956 0.46630 0.33896
 C695 C 0.59311 0.47084 0.31780
 C696 C 0.61611 0.46763 0.32032
 N697 N 0.57606 0.45768 0.38617
 N698 N 0.55518 0.45519 0.38547
 C699 C 0.54280 0.45769 0.40904
 C700 C 0.52091 0.45042 0.40976
 C701 C 0.50755 0.45626 0.43105
 C702 C 0.51576 0.47005 0.45155
 C703 C 0.53801 0.47664 0.45079
 C704 C 0.55143 0.47012 0.43027
 H705 H 0.64307 0.45691 0.34631
 H706 H 0.61931 0.45019 0.38399
 H707 H 0.56193 0.46943 0.33689
 H708 H 0.58571 0.47693 0.29951
 H709 H 0.51393 0.44099 0.39335
 H710 H 0.49045 0.45118 0.43052
 H711 H 0.54495 0.48813 0.46512
 H712 H 0.56812 0.47635 0.43003
 C713 C 0.58577 0.54071 0.20100
 C714 C 0.57074 0.54237 0.17964
 C715 C 0.57779 0.54924 0.15500
 C716 C 0.59989 0.55559 0.15225
 C717 C 0.61480 0.55444 0.17376
 C718 C 0.60796 0.54650 0.19810
 N719 N 0.56285 0.54770 0.13269
 N720 N 0.56994 0.54652 0.10934
 C721 C 0.55548 0.54316 0.08693
 C722 C 0.56366 0.53141 0.06542
 C723 C 0.54937 0.52419 0.04524
 C724 C 0.52664 0.52971 0.04529
 C725 C 0.51875 0.54289 0.06621
 C726 C 0.53299 0.54927 0.08709
 H727 H 0.58017 0.53469 0.21970
 H728 H 0.55379 0.53735 0.18197
 H729 H 0.60568 0.56100 0.13339
 H730 H 0.63186 0.55899 0.17119
 H731 H 0.58093 0.52640 0.06528
 H732 H 0.55614 0.51337 0.03029
 H733 H 0.50138 0.54726 0.06728
 H734 H 0.52638 0.55842 0.10364
 C735 C 0.12297 1.05946 0.66650
 C736 C 0.10813 1.06045 0.64486
 C737 C 0.08831 1.04882 0.64497
 C738 C 0.08329 1.03631 0.66711
 C739 C 0.09844 1.03455 0.68832
 C740 C 0.11877 1.04582 0.68826
 N741 N 0.07511 1.04718 0.62120
 N742 N 0.05427 1.04448 0.62128
 C743 C 0.04228 1.03905 0.59740
 C744 C 0.01990 1.04505 0.59411
 C745 C 0.00756 1.03751 0.57202
 C746 C 0.01727 1.02319 0.55339
 C747 C 0.03974 1.01716 0.55719
 C748 C 0.05217 1.02543 0.57846
 H749 H 0.13845 1.06810 0.66514
 H750 H 0.11236 1.06984 0.62766
 H751 H 0.06813 1.02698 0.66741
 H752 H 0.09399 1.02453 0.70492
 H753 H 0.01195 1.05527 0.60884
 H754 H -0.00977 1.04216 0.57020
 H755 H 0.04776 1.00543 0.54420
 H756 H 0.06926 1.02006 0.58100
 C757 C -0.13651 0.46503 0.65660
 C758 C -0.12293 0.46048 0.63534
 C759 C -0.09996 0.46246 0.63812
 C760 C -0.09059 0.46893 0.66260
 C761 C -0.10422 0.47394 0.68380
 C762 C -0.12732 0.47219 0.68087
 N763 N -0.08702 0.46070 0.61499
 N764 N -0.06611 0.45783 0.61545
 C765 C -0.05408 0.45953 0.59157
 C766 C -0.03204 0.45208 0.59050
 C767 C -0.01930 0.45680 0.56851
 C768 C -0.02831 0.46958 0.54757
 C769 C -0.05063 0.47647 0.54882
 C770 C -0.06341 0.47110 0.57008
 H771 H -0.15426 0.46364 0.65387
 H772 H -0.13036 0.45585 0.61644
 H773 H -0.07289 0.47094 0.66501
 H774 H -0.09678 0.47926 0.70243
 H775 H -0.02450 0.44332 0.60707
 H776 H -0.00208 0.45162 0.56870
 H777 H -0.05816 0.48739 0.53427
 H778 H -0.08022 0.47750 0.57054
 C779 C 0.36628 -0.04637 0.16740
 C780 C 0.38037 -0.04811 0.14611
 C781 C 0.40317 -0.04533 0.14991
 C782 C 0.41184 -0.04078 0.17536
 C783 C 0.39767 -0.03849 0.19658
 C784 C 0.37480 -0.04117 0.19266
 N785 N 0.41672 -0.04461 0.12730
 N786 N 0.43762 -0.04745 0.12852
 C787 C 0.45064 -0.04356 0.10590
 C788 C 0.47253 -0.05145 0.10515
 C789 C 0.48626 -0.04514 0.08474
 C790 C 0.47840 -0.03035 0.06515
 C791 C 0.45623 -0.02292 0.06594
 C792 C 0.44245 -0.02978 0.08567
 H793 H 0.34866 -0.04847 0.16407
 H794 H 0.37350 -0.05130 0.12652
 H795 H 0.42938 -0.03817 0.17860
 H796 H 0.40448 -0.03455 0.21602
 H797 H 0.47914 -0.06194 0.12079
 H798 H 0.50329 -0.05093 0.08516
 H799 H 0.44957 -0.01090 0.05205
 H800 H 0.42574 -0.02312 0.08601
 C801 C 0.31929 0.44394 0.05326
 C802 C 0.34023 0.45353 0.05522
 C803 C 0.35870 0.44074 0.06350
 C804 C 0.35575 0.41872 0.07107
 C805 C 0.33479 0.40925 0.06958
 C806 C 0.31649 0.42159 0.05994
 N807 N 0.38076 0.44853 0.06086
 N808 N 0.38545 0.46888 0.05788
 C809 C 0.40749 0.47510 0.05158
 C810 C 0.41420 0.49715 0.05452
 C811 C 0.43488 0.50372 0.04558
 C812 C 0.44899 0.48840 0.03288
 C813 C 0.44189 0.46631 0.03019
 C814 C 0.42174 0.45969 0.03978
 H815 H 0.30538 0.45377 0.04582
 H816 H 0.34217 0.47049 0.04895
 H817 H 0.36991 0.40861 0.07715
 H818 H 0.33307 0.39193 0.07457
 H819 H 0.40324 0.50935 0.06325
 H820 H 0.43935 0.52097 0.04770
 H821 H 0.45082 0.45420 0.01892
 H822 H 0.41670 0.44271 0.03643
 C823 C -0.17831 0.90877 0.55718
 C824 C -0.15752 0.91853 0.55998
 C825 C -0.15228 0.93693 0.54495
 C826 C -0.16818 0.94560 0.52702
 C827 C -0.18886 0.93574 0.52388
 C828 C -0.19438 0.91700 0.53879
 N829 N -0.13040 0.94574 0.54705
 N830 N -0.12543 0.96368 0.53572
 C831 C -0.10336 0.97196 0.53573
 C832 C -0.09948 0.99159 0.52229
 C833 C -0.07790 0.99839 0.51818
 C834 C -0.05966 0.98524 0.52687
 C835 C -0.06371 0.96691 0.54295
 C836 C -0.08536 0.96007 0.54698
 H837 H -0.18114 0.89405 0.56856
 H838 H -0.14531 0.91150 0.57364
 H839 H -0.16455 0.95986 0.51514
 H840 H -0.20067 0.94343 0.51026
 H841 H -0.11323 1.00111 0.51390
 H842 H -0.07564 1.01317 0.50667
 H843 H -0.05024 0.95737 0.55181
 H844 H -0.08797 0.94512 0.55808
 C845 C -0.17818 0.07262 0.93283
 C846 C -0.15813 0.06121 0.93074
 C847 C -0.15628 0.03889 0.93769
 C848 C -0.17514 0.02754 0.94531
 C849 C -0.19536 0.03899 0.94749
 C850 C -0.19689 0.06185 0.94204
 N851 N -0.13452 0.02982 0.94148
 N852 N -0.12985 0.00939 0.94506
 C853 C -0.10759 0.00357 0.95286
 C854 C -0.09539 0.01835 0.96869
 C855 C -0.07369 0.01350 0.97612
 C856 C -0.06313 -0.00616 0.96765
 C857 C -0.07560 -0.02138 0.95231
 C858 C -0.09781 -0.01662 0.94520
 H859 H -0.17857 0.09025 0.92894
 H860 H -0.14358 0.07018 0.92528
 H861 H -0.17393 0.01031 0.95111
 H862 H -0.20955 0.03023 0.95443
 H863 H -0.10277 0.03377 0.97549
 H864 H -0.06526 0.02554 0.98849
 H865 H -0.06821 -0.03683 0.94565
 H866 H -0.10715 -0.02835 0.93324
 C867 C 0.31077 0.57735 0.47326
 C868 C 0.33224 0.56876 0.47429
 C869 C 0.33871 0.55204 0.45677
 C870 C 0.32343 0.54395 0.43779
 C871 C 0.30182 0.55279 0.43650
 C872 C 0.29532 0.56948 0.45440
 N873 N 0.36112 0.54435 0.45875
 N874 N 0.36919 0.52771 0.44649
 C875 C 0.39222 0.52230 0.45064
 C876 C 0.40060 0.50115 0.44432
 C877 C 0.42251 0.49517 0.45155
 C878 C 0.43633 0.51036 0.46512
 C879 C 0.42787 0.53184 0.47010
 C880 C 0.40634 0.53773 0.46287
 H881 H 0.30633 0.59045 0.48697
 H882 H 0.34398 0.57519 0.48885
 H883 H 0.32823 0.53110 0.42395
 H884 H 0.29015 0.54651 0.42176
 H885 H 0.38995 0.48903 0.43481
 H886 H 0.42829 0.47846 0.44739
 H887 H 0.43723 0.54397 0.48127
 H888 H 0.40048 0.55426 0.46788
 C889 C 0.16372 0.59046 0.55257
 C890 C 0.14384 0.57949 0.55650
 C891 C 0.14114 0.55756 0.54779
 C892 C 0.15895 0.54633 0.53615
 C893 C 0.17880 0.55721 0.53233
 C894 C 0.18124 0.57956 0.53987
 N895 N 0.11977 0.54769 0.54892
 N896 N 0.11582 0.52901 0.53801
 C897 C 0.09427 0.51952 0.53694
 C898 C 0.09045 0.50160 0.51985
 C899 C 0.06898 0.49422 0.51479
 C900 C 0.05081 0.50467 0.52685
 C901 C 0.05507 0.52114 0.54610
 C902 C 0.07655 0.52880 0.55078
 H903 H 0.16505 0.60770 0.55848
 H904 H 0.13022 0.58837 0.56541
 H905 H 0.15737 0.52933 0.52940
 H906 H 0.19216 0.54820 0.52305
 H907 H 0.10402 0.49417 0.50924
 H908 H 0.06665 0.48115 0.50026
 H909 H 0.04181 0.52875 0.55686
 H910 H 0.07921 0.54238 0.56457
 C911 C 0.69349 0.04256 0.05862
 C912 C 0.67275 0.03277 0.06097
 C913 C 0.65720 0.03393 0.03994
 C914 C 0.66292 0.04378 0.01632
 C915 C 0.68349 0.05344 0.01390
 C916 C 0.69881 0.05350 0.03524
 N917 N 0.63467 0.02791 0.04264
 N918 N 0.62716 0.01686 0.06161
 C919 C 0.60373 0.01404 0.06223
 C920 C 0.59475 -0.00636 0.06894
 C921 C 0.57218 -0.01029 0.06400
 C922 C 0.55835 0.00625 0.05246
 C923 C 0.56737 0.02728 0.04822
 C924 C 0.58966 0.03110 0.05310
 H925 H 0.70504 0.04224 0.07532
 H926 H 0.66852 0.02532 0.07947
 H927 H 0.65091 0.04491 0.00011
 H928 H 0.68684 0.06206 -0.00418
 H929 H 0.60544 -0.01966 0.07617
 H930 H 0.56597 -0.02670 0.06763
 H931 H 0.55805 0.04033 0.03846
 H932 H 0.59626 0.04707 0.04803
 C933 C 0.66865 0.90879 0.43806
 C934 C 0.64732 0.91812 0.43702
 C935 C 0.64289 0.93839 0.44966
 C936 C 0.66018 0.94941 0.46317
 C937 C 0.68144 0.93999 0.46446
 C938 C 0.68585 0.91950 0.45210
 N939 N 0.62054 0.94663 0.45012
 N940 N 0.61576 0.96569 0.45955
 C941 C 0.59340 0.97336 0.46235
 C942 C 0.58961 0.99419 0.47381
 C943 C 0.56834 1.00057 0.48118
 C944 C 0.55061 0.98576 0.47831
 C945 C 0.55400 0.96630 0.46331
 C946 C 0.57529 0.95985 0.45595
 H947 H 0.67156 0.89291 0.42854
 H948 H 0.63412 0.90936 0.42674
 H949 H 0.65718 0.96503 0.47324
 H950 H 0.69445 0.94869 0.47518
 H951 H 0.60334 1.00507 0.47820
 H952 H 0.56620 1.01652 0.49084
 H953 H 0.54043 0.95567 0.45775
 H954 H 0.57764 0.94402 0.44609
 C955 C 0.19638 0.43952 0.94549
 C956 C 0.17538 0.44982 0.94429
 C957 C 0.15966 0.44506 0.96317
 C958 C 0.16524 0.42976 0.98320
 C959 C 0.18608 0.41969 0.98449
 C960 C 0.20196 0.42455 0.96585
 N961 N 0.13816 0.45561 0.96214
 N962 N 0.12367 0.44920 0.97799
 C963 C 0.10170 0.45788 0.98024
 C964 C 0.08825 0.44705 0.99759
 C965 C 0.06696 0.45466 1.00190
 C966 C 0.05823 0.47365 0.98905
 C967 C 0.07182 0.48460 0.97126
 C968 C 0.09351 0.47674 0.96683
 H969 H 0.20840 0.44355 0.93091
 H970 H 0.17138 0.46150 0.92872
 H971 H 0.15354 0.42561 0.99809
 H972 H 0.18979 0.40797 1.00014
 H973 H 0.09443 0.43255 1.00807
 H974 H 0.05750 0.44547 1.01573
 H975 H 0.06579 0.49922 0.96094
 H976 H 0.10383 0.48543 0.95334
 C977 C -0.01151 0.32154 0.39356
 C978 C -0.01659 0.34116 0.40716
 C979 C -0.00195 0.34950 0.42656
 C980 C 0.01799 0.33801 0.43220
 C981 C 0.02330 0.31863 0.41820
 C982 C 0.00860 0.31026 0.39874
 N983 N -0.00698 0.37038 0.43888
 N984 N 0.00268 0.37689 0.46014
 C985 C -0.00125 0.39865 0.47085
 C986 C -0.01123 0.41541 0.45541
 C987 C -0.01239 0.43717 0.46491
 C988 C -0.00405 0.44267 0.49034
 C989 C 0.00495 0.42555 0.50623
 C990 C 0.00652 0.40380 0.49642
 H991 H -0.02303 0.31544 0.37855
 H992 H -0.03190 0.34998 0.40247
 H993 H 0.02967 0.34431 0.44689
 H994 H 0.03886 0.31013 0.42258
 H995 H -0.01727 0.41191 0.43554
 H996 H -0.01939 0.44978 0.45196
 H997 H 0.01162 0.42905 0.52582
 H998 H 0.01431 0.39103 0.50852
 C999 C 0.49294 -0.17222 -0.09363
 C1000 C 0.48852 -0.15385 -0.07752
 C1001 C 0.50426 -0.14667 -0.05870
 C1002 C 0.52457 -0.15814 -0.05602
 C1003 C 0.52920 -0.17624 -0.07252
 C1004 C 0.51346 -0.18333 -0.09155
 N1005 N 0.50006 -0.12654 -0.04444
 N1006 N 0.51098 -0.12094 -0.02366
 C1007 C 0.50772 -0.09952 -0.01178
 C1008 C 0.49794 -0.08215 -0.02637
 C1009 C 0.49723 -0.06073 -0.01599
 C1010 C 0.50564 -0.05611 0.00965
 C1011 C 0.51472 -0.07375 0.02463
 C1012 C 0.51595 -0.09524 0.01384
 H1013 H 0.48061 -0.17736 -0.10825
 H1014 H 0.47291 -0.14497 -0.07995
 H1015 H 0.53709 -0.15267 -0.04183
 H1016 H 0.54509 -0.18469 -0.07051
 H1017 H 0.49170 -0.08492 -0.04633
 H1018 H 0.49041 -0.04769 -0.02844
 H1019 H 0.52164 -0.07087 0.04425
 H1020 H 0.52371 -0.10846 0.02524
 C1021 C 0.01056 -0.18130 1.09523
 C1022 C 0.01596 -0.16295 1.08018
 C1023 C 0.00138 -0.15513 1.06035
 C1024 C -0.01892 -0.16579 1.05583
 C1025 C -0.02457 -0.18387 1.07132
 C1026 C -0.00985 -0.19176 1.09113
 N1027 N 0.00669 -0.13522 1.04685
 N1028 N -0.00262 -0.12944 1.02510
 C1029 C 0.00143 -0.10818 1.01382
 C1030 C 0.01126 -0.09129 1.02904
 C1031 C 0.01122 -0.06957 1.01990
 C1032 C 0.00192 -0.06411 0.99500
 C1033 C -0.00633 -0.08151 0.97892
 C1034 C -0.00677 -0.10329 0.98840
 H1035 H 0.02211 -0.18707 1.11046
 H1036 H 0.03151 -0.15469 1.08407
 H1037 H -0.03059 -0.15977 1.04089
 H1038 H -0.04035 -0.19180 1.06776
 H1039 H 0.01753 -0.09451 1.04887
 H1040 H 0.01683 -0.05696 1.03350
 H1041 H -0.01373 -0.07815 0.95966
 H1042 H -0.01443 -0.11614 0.97640
 C1043 C 0.46091 0.31437 0.56911
 C1044 C 0.46129 0.33255 0.55212
 C1045 C 0.47962 0.34646 0.55227
 C1046 C 0.49810 0.34132 0.56869
 C1047 C 0.49790 0.32294 0.58527
 C1048 C 0.47913 0.30960 0.58607
 N1049 N 0.47853 0.36662 0.53742
 N1050 N 0.49108 0.38264 0.54384
 C1051 C 0.49051 0.40369 0.53107
 C1052 C 0.49907 0.42170 0.54514
 C1053 C 0.49790 0.44287 0.53459
 C1054 C 0.48906 0.44654 0.50893
 C1055 C 0.48081 0.42824 0.49446
 C1056 C 0.48130 0.40694 0.50559
 H1057 H 0.44633 0.30417 0.56923
 H1058 H 0.44693 0.33632 0.53963
 H1059 H 0.51251 0.35176 0.56908
 H1060 H 0.51211 0.31962 0.59819
 H1061 H 0.50612 0.41938 0.56481
 H1062 H 0.50423 0.45637 0.54668
 H1063 H 0.47364 0.43042 0.47484
 H1064 H 0.47459 0.39310 0.49439
 C1065 C 0.54214 1.17879 0.57719
 C1066 C 0.53957 1.15989 0.56114
 C1067 C 0.51984 1.14799 0.56106
 C1068 C 0.50244 1.15561 0.57678
 C1069 C 0.50487 1.17462 0.59249
 C1070 C 0.52481 1.18629 0.59309
 N1071 N 0.51821 1.12757 0.54634
 N1072 N 0.50290 1.11399 0.55096
 C1073 C 0.50067 1.09279 0.53831
 C1074 C 0.48949 1.07653 0.55170
 C1075 C 0.48869 1.05493 0.54197
 C1076 C 0.49792 1.04914 0.51755
 C1077 C 0.50843 1.06588 0.50345
 C1078 C 0.51006 1.08752 0.51393
 H1079 H 0.55760 1.18763 0.57710
 H1080 H 0.55316 1.15420 0.54924
 H1081 H 0.48701 1.14676 0.57712
 H1082 H 0.49130 1.17995 0.60462
 H1083 H 0.48237 1.08035 0.57060
 H1084 H 0.48125 1.04263 0.55419
 H1085 H 0.51620 1.06207 0.48495
 H1086 H 0.51881 1.09998 0.50325
 C1087 C -0.00966 0.66983 1.08908
 C1088 C -0.01486 0.65071 1.07453
 C1089 C 0.00173 0.63827 1.06241
 C1090 C 0.02375 0.64507 1.06509
 C1091 C 0.02912 0.66381 1.08024
 C1092 C 0.01252 0.67658 1.09263
 N1093 N -0.00385 0.61776 1.04962
 N1094 N 0.00853 0.60848 1.03274
 C1095 C 0.00400 0.58671 1.02254
 C1096 C -0.00962 0.57233 1.03607
 C1097 C -0.01074 0.55002 1.02884
 C1098 C 0.00111 0.54159 1.00729
 C1099 C 0.01373 0.55645 0.99283
 C1100 C 0.01530 0.57875 1.00059
 H1101 H -0.02302 0.67851 1.09871
 H1102 H -0.03188 0.64539 1.07299
 H1103 H 0.03688 0.63554 1.05606
 H1104 H 0.04630 0.66857 1.08147
 H1105 H -0.01828 0.57798 1.05334
 H1106 H -0.02008 0.53917 1.04110
 H1107 H 0.02352 0.55065 0.97655
 H1108 H 0.02605 0.58963 0.99012
 C1109 C 0.51008 0.68051 -0.09082
 C1110 C 0.51417 0.66155 -0.07568
 C1111 C 0.49685 0.65088 -0.06356
 C1112 C 0.47526 0.65938 -0.06662
 C1113 C 0.47097 0.67790 -0.08243
 C1114 C 0.48829 0.68872 -0.09507
 N1115 N 0.50112 0.63009 -0.05093
 N1116 N 0.48874 0.62248 -0.03335
 C1117 C 0.49198 0.60033 -0.02393
 C1118 C 0.48475 0.59444 0.00104
 C1119 C 0.48653 0.57236 0.00948
 C1120 C 0.49501 0.55577 -0.00732
 C1121 C 0.50189 0.56193 -0.03252
 C1122 C 0.50082 0.58394 -0.04047
 H1123 H 0.52392 0.68777 -0.10050
 H1124 H 0.53086 0.65488 -0.07381
 H1125 H 0.46160 0.65121 -0.05758
 H1126 H 0.45406 0.68395 -0.08416
 H1127 H 0.47761 0.60691 0.01386
 H1128 H 0.48070 0.56824 0.02879
 H1129 H 0.50810 0.54973 -0.04635
 H1130 H 0.50608 0.58801 -0.06006
 C1131 C 0.00517 1.17157 0.40514
 C1132 C 0.00952 1.15276 0.42046
 C1133 C -0.00765 1.14178 0.43247
 C1134 C -0.02943 1.14972 0.42884
 C1135 C -0.03396 1.16815 0.41286
 C1136 C -0.01672 1.17947 0.40064
 N1137 N -0.00281 1.12161 0.44632
 N1138 N -0.01530 1.11404 0.46382
 C1139 C -0.01108 1.09269 0.47534
 C1140 C -0.02094 1.08716 0.49903
 C1141 C -0.01876 1.06561 0.50910
 C1142 C -0.00710 1.04905 0.49521
 C1143 C 0.00298 1.05493 0.47158
 C1144 C 0.00134 1.07652 0.46203
 H1145 H 0.01899 1.17909 0.39569
 H1146 H 0.02635 1.14656 0.42275
 H1147 H -0.04299 1.14133 0.43780
 H1148 H -0.05096 1.17385 0.41090
 H1149 H -0.03071 1.09944 0.50942
 H1150 H -0.02703 1.06176 0.52711
 H1151 H 0.01171 1.04270 0.45990
 H1152 H 0.00888 1.08026 0.44350
 C1153 C 0.80873 0.62093 0.91938
 C1154 C 0.81193 0.63840 0.90196
 C1155 C 0.79387 0.64896 0.88958
 C1156 C 0.77262 0.64071 0.89304
 C1157 C 0.76936 0.62284 0.90976
 C1158 C 0.78720 0.61310 0.92441
 N1159 N 0.79702 0.66864 0.87459
 N1160 N 0.78243 0.68404 0.87500
 C1161 C 0.78318 0.70387 0.85980
 C1162 C 0.76738 0.72035 0.86461
 C1163 C 0.76452 0.73814 0.84751
 C1164 C 0.77728 0.73970 0.82476
 C1165 C 0.79476 0.72427 0.82150
 C1166 C 0.79759 0.70632 0.83880
 H1167 H 0.82330 0.61492 0.92997
 H1168 H 0.82845 0.64457 0.89935
 H1169 H 0.75847 0.64824 0.88286
 H1170 H 0.75267 0.61689 0.91090
 H1171 H 0.75633 0.71873 0.88091
 H1172 H 0.75107 0.74965 0.85128
 H1173 H 0.80497 0.72482 0.80443
 H1174 H 0.81003 0.69373 0.83480
 C1175 C 0.26298 0.11258 0.42188
 C1176 C 0.26375 0.12636 0.39999
 C1177 C 0.28182 0.14003 0.39639
 C1178 C 0.29974 0.13924 0.41449
 C1179 C 0.29927 0.12508 0.43626
 C1180 C 0.28060 0.11181 0.44071
 N1181 N 0.28092 0.15479 0.37445
 N1182 N 0.29450 0.17036 0.37078
 C1183 C 0.29126 0.18461 0.34838
 C1184 C 0.30212 0.20499 0.34725
 C1185 C 0.29636 0.22038 0.32742
 C1186 C 0.27965 0.21550 0.30843
 C1187 C 0.26987 0.19442 0.30901
 C1188 C 0.27570 0.17921 0.32845
 H1189 H 0.24869 0.10214 0.42352
 H1190 H 0.24994 0.12667 0.38592
 H1191 H 0.31390 0.14971 0.41201
 H1192 H 0.31306 0.12565 0.45028
 H1193 H 0.31424 0.20941 0.36245
 H1194 H 0.30419 0.23642 0.32773
 H1195 H 0.25686 0.18977 0.29507
 H1196 H 0.26722 0.16352 0.32850
 C1197 C 0.73239 0.39106 0.40984
 C1198 C 0.73516 0.37721 0.38798
 C1199 C 0.72190 0.35858 0.38415
 C1200 C 0.70520 0.35426 0.40202
 C1201 C 0.70229 0.36825 0.42388
 C1202 C 0.71614 0.38655 0.42821
 N1203 N 0.72656 0.34404 0.36253
 N1204 N 0.71645 0.32599 0.35780
 C1205 C 0.72274 0.31205 0.33611
 C1206 C 0.71121 0.29250 0.33042
 C1207 C 0.71742 0.27873 0.30935
 C1208 C 0.73530 0.28436 0.29366
 C1209 C 0.74693 0.30389 0.29987
 C1210 C 0.74070 0.31755 0.32066
 H1211 H 0.74313 0.40517 0.41259
 H1212 H 0.74803 0.38069 0.37425
 H1213 H 0.69477 0.33993 0.39938
 H1214 H 0.68977 0.36432 0.43789
 H1215 H 0.69740 0.28796 0.34229
 H1216 H 0.70822 0.26378 0.30537
 H1217 H 0.76074 0.30906 0.28840
 H1218 H 0.75001 0.33247 0.32460
 C1219 C 0.24238 0.88328 0.90910
 C1220 C 0.24227 0.86908 0.88731
 C1221 C 0.22317 0.85775 0.87966
 C1222 C 0.20372 0.86122 0.89357
 C1223 C 0.20356 0.87592 0.91512
 C1224 C 0.22305 0.88696 0.92357
 N1225 N 0.22427 0.84321 0.85737
 N1226 N 0.21008 0.82849 0.85134
 C1227 C 0.21337 0.81504 0.82829
 C1228 C 0.20463 0.79364 0.82637
 C1229 C 0.21103 0.77919 0.80595
 C1230 C 0.22609 0.78615 0.78712
 C1231 C 0.23354 0.80818 0.78845
 C1232 C 0.22716 0.82240 0.80855
 H1233 H 0.25752 0.89196 0.91388
 H1234 H 0.25727 0.86672 0.87637
 H1235 H 0.18873 0.85264 0.88778
 H1236 H 0.18840 0.87770 0.92582
 H1237 H 0.19390 0.78774 0.84145
 H1238 H 0.20504 0.76237 0.80568
 H1239 H 0.24510 0.81445 0.77453
 H1240 H 0.23383 0.83897 0.80927
 C1241 C 0.26491 0.87360 0.07215
 C1242 C 0.26461 0.85610 0.08987
 C1243 C 0.28298 0.84206 0.09333
 C1244 C 0.30222 0.84612 0.07956
 C1245 C 0.30267 0.86376 0.06177
 C1246 C 0.28377 0.87756 0.05720
 N1247 N 0.28083 0.82336 0.11011
 N1248 N 0.29600 0.80911 0.11562
 C1249 C 0.29080 0.79084 0.13222
 C1250 C 0.30749 0.77842 0.14535
 C1251 C 0.30196 0.76278 0.16448
 C1252 C 0.27971 0.76005 0.17119
 C1253 C 0.26321 0.77077 0.15557
 C1254 C 0.26865 0.78592 0.13656
 H1255 H 0.25033 0.88417 0.07064
 H1256 H 0.24976 0.85321 0.10073
 H1257 H 0.31659 0.83533 0.08194
 H1258 H 0.31746 0.86546 0.05051
 H1259 H 0.32471 0.78159 0.14173
 H1260 H 0.31509 0.75414 0.17526
 H1261 H 0.24578 0.76833 0.15851
 H1262 H 0.25535 0.79446 0.12590
 C1263 C 0.75976 0.38551 0.58577
 C1264 C 0.76021 0.36926 0.60520
 C1265 C 0.77729 0.35337 0.60645
 C1266 C 0.79443 0.35420 0.58846
 C1267 C 0.79395 0.37040 0.56884
 C1268 C 0.77640 0.38604 0.56704
 N1269 N 0.77567 0.33581 0.62500
 N1270 N 0.79070 0.32124 0.62977
 C1271 C 0.78627 0.30383 0.64790
 C1272 C 0.80347 0.29305 0.66209
 C1273 C 0.79863 0.27860 0.68273
 C1274 C 0.77654 0.27526 0.68967
 C1275 C 0.75960 0.28403 0.67298
 C1276 C 0.76438 0.29821 0.65263
 H1277 H 0.74619 0.39744 0.58512
 H1278 H 0.74690 0.36871 0.61902
 H1279 H 0.80768 0.34193 0.58898
 H1280 H 0.80684 0.37010 0.55445
 H1281 H 0.82052 0.29675 0.65817
 H1282 H 0.81214 0.27139 0.69428
 H1283 H 0.74232 0.28095 0.67619
 H1284 H 0.75080 0.30550 0.64117
 C1285 C 0.22909 0.11125 0.59365
 C1286 C 0.22943 0.12553 0.61544
 C1287 C 0.21475 0.14363 0.61662
 C1288 C 0.19901 0.14695 0.59612
 C1289 C 0.19851 0.13251 0.57432
 C1290 C 0.21386 0.11478 0.57269
 N1291 N 0.21756 0.15904 0.63797
 N1292 N 0.20631 0.17689 0.64080
 C1293 C 0.21189 0.19188 0.66205
 C1294 C 0.20021 0.21197 0.66522
 C1295 C 0.20720 0.22755 0.68440
 C1296 C 0.22597 0.22318 0.70076
 C1297 C 0.23739 0.20291 0.69723
 C1298 C 0.23031 0.18743 0.67863
 H1299 H 0.24093 0.09761 0.59300
 H1300 H 0.24165 0.12288 0.63116
 H1301 H 0.18758 0.16093 0.59663
 H1302 H 0.18671 0.13568 0.55829
 H1303 H 0.18607 0.21580 0.65241
 H1304 H 0.19822 0.24315 0.68605
 H1305 H 0.25261 0.19911 0.70783
 H1306 H 0.23997 0.17228 0.67650
 C1307 C 0.73543 0.62015 0.07088
 C1308 C 0.73537 0.63455 0.09258
 C1309 C 0.72037 0.65242 0.09351
 C1310 C 0.70528 0.65586 0.07239
 C1311 C 0.70522 0.64136 0.05066
 C1312 C 0.72029 0.62333 0.04973
 N1313 N 0.72121 0.66671 0.11616
 N1314 N 0.70928 0.68412 0.11906
 C1315 C 0.71200 0.69741 0.14254
 C1316 C 0.70261 0.71881 0.14403
 C1317 C 0.70788 0.73291 0.16551
 C1318 C 0.72262 0.72569 0.18576
 C1319 C 0.73090 0.70372 0.18456
 C1320 C 0.72551 0.68980 0.16354
 H1321 H 0.74705 0.60631 0.07083
 H1322 H 0.74708 0.63179 0.10881
 H1323 H 0.69361 0.66964 0.07269
 H1324 H 0.69353 0.64434 0.03448
 H1325 H 0.69206 0.72493 0.12801
 H1326 H 0.70134 0.74972 0.16554
 H1327 H 0.74261 0.69735 0.19921
 H1328 H 0.73284 0.67330 0.16320
 C1329 C 0.18772 0.55906 0.23960
 C1330 C 0.19696 0.57995 0.23804
 C1331 C 0.21165 0.58475 0.21822
 C1332 C 0.21700 0.56835 0.19948
 C1333 C 0.20752 0.54725 0.20088
 C1334 C 0.19293 0.54243 0.22116
 N1335 N 0.21979 0.60684 0.21759
 N1336 N 0.23473 0.61397 0.20276
 C1337 C 0.24024 0.63707 0.20458
 C1338 C 0.22673 0.65175 0.21870
 C1339 C 0.23216 0.67385 0.22165
 C1340 C 0.25132 0.68241 0.21059
 C1341 C 0.26478 0.66780 0.19596
 C1342 C 0.25921 0.64528 0.19292
 H1343 H 0.17622 0.55596 0.25510
 H1344 H 0.19256 0.59259 0.25236
 H1345 H 0.22820 0.57190 0.18383
 H1346 H 0.21171 0.53466 0.18641
 H1347 H 0.21182 0.64616 0.22776
 H1348 H 0.22111 0.68407 0.23304
 H1349 H 0.27963 0.67368 0.18705
 H1350 H 0.26983 0.63422 0.18187
 C1351 C 0.70708 0.06796 0.73298
 C1352 C 0.71775 0.08844 0.73275
 C1353 C 0.70664 0.10719 0.72239
 C1354 C 0.68532 0.10508 0.71141
 C1355 C 0.67485 0.08464 0.71116
 C1356 C 0.68543 0.06600 0.72246
 N1357 N 0.71534 0.12898 0.72541
 N1358 N 0.73570 0.13316 0.72965
 C1359 C 0.74195 0.15565 0.73468
 C1360 C 0.72756 0.17002 0.74788
 C1361 C 0.73249 0.19232 0.75098
 C1362 C 0.75168 0.20120 0.74048
 C1363 C 0.76670 0.18644 0.72833
 C1364 C 0.76193 0.16378 0.72567
 H1365 H 0.71552 0.05377 0.74181
 H1366 H 0.73414 0.08985 0.74167
 H1367 H 0.67655 0.11952 0.70368
 H1368 H 0.65807 0.08363 0.70325
 H1369 H 0.71220 0.16402 0.75542
 H1370 H 0.72039 0.20265 0.76035
 H1371 H 0.78190 0.19238 0.72034
 H1372 H 0.77334 0.15279 0.71566
 C1373 C 0.83120 0.08227 0.30368
 C1374 C 0.82171 0.10360 0.30416
 C1375 C 0.80474 0.10944 0.28617
 C1376 C 0.79670 0.09343 0.26829
 C1377 C 0.80604 0.07218 0.26775
 C1378 C 0.82391 0.06623 0.28496
 N1379 N 0.79668 0.13189 0.28535
 N1380 N 0.78318 0.13826 0.26716
 C1381 C 0.77541 0.16067 0.26472
 C1382 C 0.76323 0.16654 0.24199
 C1383 C 0.75703 0.18859 0.23756
 C1384 C 0.76303 0.20529 0.25584
 C1385 C 0.77402 0.19904 0.27959
 C1386 C 0.78047 0.17695 0.28381
 H1387 H 0.84508 0.07904 0.31706
 H1388 H 0.82812 0.11584 0.31803
 H1389 H 0.78326 0.09737 0.25448
 H1390 H 0.79869 0.06037 0.25407
 H1391 H 0.75902 0.15405 0.22729
 H1392 H 0.74777 0.19245 0.21961
 H1393 H 0.77853 0.21131 0.29442
 H1394 H 0.78969 0.17269 0.30170
 C1395 C 0.31092 0.57088 0.81513
 C1396 C 0.30026 0.59154 0.81864
 C1397 C 0.29726 0.60601 0.79736
 C1398 C 0.30428 0.59927 0.77239
 C1399 C 0.31441 0.57865 0.76870
 C1400 C 0.31815 0.56399 0.78998
 N1401 N 0.28812 0.62791 0.80102
 N1402 N 0.29526 0.64334 0.78674
 C1403 C 0.28722 0.66573 0.78585
 C1404 C 0.30020 0.68076 0.77292
 C1405 C 0.29194 0.70157 0.76623
 C1406 C 0.27027 0.70830 0.77245
 C1407 C 0.25752 0.69349 0.78696
 C1408 C 0.26592 0.67224 0.79358
 H1409 H 0.31280 0.56013 0.83205
 H1410 H 0.29487 0.59647 0.83804
 H1411 H 0.30213 0.61016 0.75561
 H1412 H 0.32032 0.57492 0.74920
 H1413 H 0.31641 0.67572 0.76630
 H1414 H 0.30206 0.71113 0.75369
 H1415 H 0.24070 0.69782 0.79195
 H1416 H 0.25546 0.66062 0.80331
 C1417 C 0.32473 0.43120 0.72089
 C1418 C 0.31687 0.40965 0.72095
 C1419 C 0.29985 0.40321 0.70346
 C1420 C 0.29088 0.41858 0.68529
 C1421 C 0.29902 0.44031 0.68496
 C1422 C 0.31585 0.44681 0.70305
 N1423 N 0.29257 0.38084 0.70514
 N1424 N 0.27596 0.37241 0.69297
 C1425 C 0.27119 0.34946 0.69759
 C1426 C 0.28649 0.33623 0.71179
 C1427 C 0.28115 0.31505 0.71944
 C1428 C 0.26048 0.30578 0.71270
 C1429 C 0.24542 0.31862 0.69729
 C1430 C 0.25076 0.34034 0.68981
 H1431 H 0.33790 0.43568 0.73476
 H1432 H 0.32396 0.39785 0.73490
 H1433 H 0.27777 0.41381 0.67151
 H1434 H 0.29196 0.45213 0.67101
 H1435 H 0.30244 0.34259 0.71814
 H1436 H 0.29304 0.30670 0.73225
 H1437 H 0.22926 0.31226 0.69188
 H1438 H 0.23869 0.35028 0.67883
 C1439 C 0.81684 0.93344 0.22975
 C1440 C 0.80735 0.91257 0.22956
 C1441 C 0.79661 0.90437 0.20693
 C1442 C 0.79524 0.91737 0.18416
 C1443 C 0.80507 0.93831 0.18408
 C1444 C 0.81615 0.94675 0.20694
 N1445 N 0.78905 0.88206 0.20753
 N1446 N 0.77606 0.87309 0.19050
 C1447 C 0.77118 0.85004 0.19341
 C1448 C 0.78614 0.83622 0.20727
 C1449 C 0.78064 0.81464 0.21312
 C1450 C 0.76000 0.80590 0.20526
 C1451 C 0.74540 0.81941 0.19005
 C1452 C 0.75104 0.84133 0.18405
 H1453 H 0.82586 0.93835 0.24752
 H1454 H 0.80881 0.90243 0.24708
 H1455 H 0.78707 0.91117 0.16637
 H1456 H 0.80345 0.94799 0.16624
 H1457 H 0.80194 0.84239 0.21444
 H1458 H 0.79236 0.80538 0.22528
 H1459 H 0.72938 0.81336 0.18355
 H1460 H 0.73933 0.85177 0.17318
 C1461 C 0.66769 0.93875 0.82493
 C1462 C 0.67788 0.91788 0.82683
 C1463 C 0.69990 0.91481 0.81971
 C1464 C 0.71201 0.93307 0.81149
 C1465 C 0.70170 0.95394 0.80910
 C1466 C 0.67931 0.95682 0.81530
 N1467 N 0.70823 0.89262 0.81705
 N1468 N 0.72867 0.88753 0.81561
 C1469 C 0.73489 0.86516 0.80908
 C1470 C 0.75513 0.85596 0.81804
 C1471 C 0.76092 0.83398 0.81134
 C1472 C 0.74674 0.82115 0.79501
 C1473 C 0.72693 0.83109 0.78536
 C1474 C 0.72097 0.85255 0.79259
 H1475 H 0.65038 0.94050 0.82958
 H1476 H 0.66831 0.90383 0.83282
 H1477 H 0.72895 0.93095 0.80550
 H1478 H 0.71098 0.96768 0.80171
 H1479 H 0.76623 0.86566 0.83048
 H1480 H 0.77647 0.82715 0.81885
 H1481 H 0.71586 0.82247 0.77187
 H1482 H 0.70557 0.85951 0.78473
 C1483 C 0.17488 0.41995 0.33488
 C1484 C 0.18384 0.39872 0.33869
 C1485 C 0.20547 0.39372 0.33129
 C1486 C 0.21861 0.41058 0.32141
 C1487 C 0.20958 0.43182 0.31729
 C1488 C 0.18739 0.43647 0.32322
 N1489 N 0.21198 0.37090 0.32933
 N1490 N 0.23175 0.36429 0.32566
 C1491 C 0.23600 0.34151 0.31900
 C1492 C 0.21948 0.32918 0.30605
 C1493 C 0.22417 0.30825 0.29591
 C1494 C 0.24532 0.29841 0.29928
 C1495 C 0.26178 0.31060 0.31302
 C1496 C 0.25721 0.33213 0.32244
 H1497 H 0.15770 0.42300 0.33939
 H1498 H 0.17347 0.38575 0.34596
 H1499 H 0.23528 0.40698 0.31523
 H1500 H 0.21959 0.44434 0.30845
 H1501 H 0.20319 0.33632 0.30221
 H1502 H 0.21141 0.30066 0.28381
 H1503 H 0.27840 0.30392 0.31562
 H1504 H 0.27027 0.34162 0.33198
 C1505 C 0.07326 0.24347 0.82762
 C1506 C 0.09272 0.24207 0.81321
 C1507 C 0.11301 0.24820 0.82509
 C1508 C 0.11376 0.25462 0.85164
 C1509 C 0.09449 0.25581 0.86607
 C1510 C 0.07389 0.25093 0.85405
 N1511 N 0.13278 0.25010 0.81046
 N1512 N 0.13545 0.24216 0.78739
 C1513 C 0.15561 0.24644 0.77418
 C1514 C 0.16779 0.26542 0.78053
 C1515 C 0.18834 0.26869 0.76968
 C1516 C 0.19759 0.25293 0.75230
 C1517 C 0.18477 0.23438 0.74495
 C1518 C 0.16386 0.23130 0.75564
 H1519 H 0.05763 0.23975 0.81774
 H1520 H 0.09178 0.23720 0.79262
 H1521 H 0.12933 0.25933 0.86100
 H1522 H 0.09564 0.26115 0.88650
 H1523 H 0.16160 0.27758 0.79445
 H1524 H 0.19733 0.28325 0.77609
 H1525 H 0.19133 0.22145 0.73248
 H1526 H 0.15466 0.21653 0.75055
 C1527 C 0.58195 0.74711 0.34274
 C1528 C 0.60074 0.74288 0.32803
 C1529 C 0.60723 0.75793 0.30899
 C1530 C 0.59490 0.77764 0.30510
 C1531 C 0.57629 0.78213 0.32026
 C1532 C 0.56962 0.76679 0.33907
 N1533 N 0.62711 0.75327 0.29518
 N1534 N 0.63231 0.76306 0.27412
 C1535 C 0.65328 0.75862 0.26241
 C1536 C 0.65763 0.76682 0.23732
 C1537 C 0.67877 0.76434 0.22681
 C1538 C 0.69602 0.75390 0.24149
 C1539 C 0.69123 0.74527 0.26642
 C1540 C 0.67015 0.74732 0.27654
 H1541 H 0.57712 0.73509 0.35718
 H1542 H 0.61026 0.72776 0.33140
 H1543 H 0.59983 0.78963 0.29071
 H1544 H 0.56690 0.79734 0.31702
 H1545 H 0.64478 0.77563 0.22619
 H1546 H 0.68179 0.77145 0.20774
 H1547 H 0.70397 0.73746 0.27871
 H1548 H 0.66736 0.74091 0.29603
 C1549 C 0.57282 0.26700 0.15321
 C1550 C 0.59211 0.27320 0.16696
 C1551 C 0.60227 0.25883 0.18526
 C1552 C 0.59299 0.23798 0.18962
 C1553 C 0.57385 0.23161 0.17555
 C1554 C 0.56361 0.24609 0.15724
 N1555 N 0.62284 0.26512 0.19756
 N1556 N 0.63161 0.25475 0.21704
 C1557 C 0.65324 0.26012 0.22720
 C1558 C 0.66204 0.24868 0.24906
 C1559 C 0.68441 0.25068 0.25643
 C1560 C 0.69845 0.26411 0.24187
 C1561 C 0.68905 0.27651 0.22083
 C1562 C 0.66671 0.27475 0.21379
 H1563 H 0.56529 0.27839 0.13908
 H1564 H 0.59928 0.28918 0.16321
 H1565 H 0.60074 0.22650 0.20345
 H1566 H 0.56693 0.21547 0.17911
 H1567 H 0.65185 0.23724 0.25950
 H1568 H 0.69093 0.24042 0.27231
 H1569 H 0.69920 0.28657 0.20855
 H1570 H 0.66038 0.28374 0.19673
 C1571 C 0.06451 0.71306 0.69171
 C1572 C 0.08378 0.71639 0.70705
 C1573 C 0.09612 0.73560 0.70399
 C1574 C 0.08827 0.75208 0.68646
 C1575 C 0.06888 0.74892 0.67144
 C1576 C 0.05713 0.72914 0.67342
 N1577 N 0.11748 0.73719 0.71674
 N1578 N 0.13153 0.75062 0.70812
 C1579 C 0.15363 0.75246 0.71844
 C1580 C 0.16898 0.76230 0.70249
 C1581 C 0.19113 0.76301 0.71031
 C1582 C 0.19842 0.75486 0.73509
 C1583 C 0.18279 0.74530 0.75148
 C1584 C 0.16051 0.74392 0.74310
 H1585 H 0.05555 0.69778 0.69379
 H1586 H 0.08964 0.70355 0.72044
 H1587 H 0.09746 0.76715 0.68384
 H1588 H 0.06357 0.76154 0.65746
 H1589 H 0.16386 0.76875 0.68337
 H1590 H 0.20253 0.77009 0.69674
 H1591 H 0.18781 0.73840 0.77038
 H1592 H 0.14877 0.73613 0.75568
 C1593 C 0.92242 0.74124 0.66913
 C1594 C 0.90511 0.73777 0.68624
 C1595 C 0.89554 0.75555 0.69980
 C1596 C 0.90300 0.77712 0.69539
 C1597 C 0.92004 0.78074 0.67789
 C1598 C 0.93041 0.76280 0.66473
 N1599 N 0.87767 0.75144 0.71698
 N1600 N 0.87081 0.76604 0.73322
 C1601 C 0.85186 0.76273 0.74898
 C1602 C 0.84466 0.78004 0.76522
 C1603 C 0.82395 0.77925 0.77665
 C1604 C 0.80974 0.76119 0.77168
 C1605 C 0.81836 0.74274 0.75804
 C1606 C 0.83911 0.74352 0.74658
 H1607 H 0.92897 0.72693 0.65877
 H1608 H 0.89918 0.72111 0.68903
 H1609 H 0.89565 0.79120 0.70545
 H1610 H 0.92572 0.79756 0.67592
 H1611 H 0.85450 0.79483 0.76764
 H1612 H 0.81844 0.79373 0.78756
 H1613 H 0.80900 0.72796 0.75520
 H1614 H 0.84461 0.72957 0.73474
 C1615 C 0.42956 0.28863 0.18848
 C1616 C 0.41282 0.28532 0.20648
 C1617 C 0.40127 0.26537 0.20637
 C1618 C 0.40731 0.24834 0.18871
 C1619 C 0.42423 0.25150 0.17100
 C1620 C 0.43523 0.27182 0.17037
 N1621 N 0.38232 0.26342 0.22253
 N1622 N 0.36823 0.24838 0.21767
 C1623 C 0.34813 0.24629 0.23152
 C1624 C 0.33062 0.23586 0.21835
 C1625 C 0.30981 0.23573 0.22918
 C1626 C 0.30614 0.24485 0.25444
 C1627 C 0.32415 0.25453 0.26828
 C1628 C 0.34498 0.25553 0.25673
 H1629 H 0.43803 0.30434 0.18860
 H1630 H 0.40831 0.29861 0.21990
 H1631 H 0.39866 0.23274 0.18824
 H1632 H 0.42829 0.23830 0.15725
 H1633 H 0.33283 0.22891 0.19881
 H1634 H 0.29644 0.22885 0.21725
 H1635 H 0.32195 0.26216 0.28745
 H1636 H 0.35843 0.26374 0.26720
 C1637 C 0.44014 0.70980 0.30568
 C1638 C 0.42273 0.71111 0.28697
 C1639 C 0.41055 0.73087 0.28375
 C1640 C 0.41664 0.74967 0.29876
 C1641 C 0.43420 0.74845 0.31725
 C1642 C 0.44583 0.72837 0.32130
 N1643 N 0.39101 0.73093 0.26702
 N1644 N 0.37726 0.74710 0.26749
 C1645 C 0.35661 0.74728 0.25300
 C1646 C 0.34011 0.76179 0.26152
 C1647 C 0.31859 0.76020 0.25137
 C1648 C 0.31313 0.74481 0.23117
 C1649 C 0.33019 0.73104 0.22150
 C1650 C 0.35173 0.73209 0.23254
 H1651 H 0.44903 0.69419 0.30816
 H1652 H 0.41821 0.69648 0.27562
 H1653 H 0.40750 0.76516 0.29668
 H1654 H 0.43816 0.76298 0.32907
 H1655 H 0.34359 0.77334 0.27754
 H1656 H 0.30606 0.77030 0.26064
 H1657 H 0.32668 0.71863 0.20648
 H1658 H 0.36432 0.72063 0.22570
 C1659 C 0.93402 0.21293 0.81834
 C1660 C 0.91641 0.21785 0.80082
 C1661 C 0.90672 0.23907 0.80044
 C1662 C 0.91536 0.25565 0.81731
 C1663 C 0.93318 0.25082 0.83463
 C1664 C 0.94244 0.22930 0.83561
 N1665 N 0.88726 0.24281 0.78420
 N1666 N 0.87569 0.26057 0.78573
 C1667 C 0.85530 0.26345 0.77098
 C1668 C 0.84015 0.27949 0.77948
 C1669 C 0.81845 0.27978 0.76937
 C1670 C 0.81157 0.26443 0.74974
 C1671 C 0.82754 0.24961 0.73961
 C1672 C 0.84913 0.24898 0.75028
 H1673 H 0.94103 0.19629 0.81847
 H1674 H 0.90988 0.20492 0.78799
 H1675 H 0.90812 0.27218 0.81744
 H1676 H 0.93930 0.26371 0.84781
 H1677 H 0.84468 0.29070 0.79548
 H1678 H 0.80673 0.29111 0.77828
 H1679 H 0.82305 0.23739 0.72471
 H1680 H 0.86065 0.23652 0.74323
 C1681 C 0.62764 1.02585 0.66261
 C1682 C 0.61465 1.01899 0.64107
 C1683 C 0.60561 0.99789 0.64016
 C1684 C 0.60978 0.98335 0.66117
 C1685 C 0.62324 0.99000 0.68277
 C1686 C 0.63262 1.01147 0.68395
 N1687 N 0.59258 0.99208 0.61726
 N1688 N 0.57981 0.97551 0.61512
 C1689 C 0.56762 0.97238 0.59070
 C1690 C 0.54651 0.96307 0.59039
 C1691 C 0.53246 0.96517 0.56795
 C1692 C 0.53941 0.97662 0.54553
 C1693 C 0.56142 0.98373 0.54536
 C1694 C 0.57534 0.98152 0.56745
 H1695 H 0.63288 1.04289 0.66254
 H1696 H 0.61125 1.03043 0.62505
 H1697 H 0.60304 0.96681 0.66066
 H1698 H 0.62676 0.97783 0.69787
 H1699 H 0.54031 0.95580 0.60812
 H1700 H 0.51567 0.95934 0.56900
 H1701 H 0.56757 0.99296 0.52929
 H1702 H 0.59171 0.98853 0.56698
 C1703 C 0.15257 0.48148 1.15816
 C1704 C 0.13846 0.47583 1.13697
 C1705 C 0.11634 0.47070 1.14106
 C1706 C 0.10862 0.47028 1.16690
 C1707 C 0.12275 0.47596 1.18821
 C1708 C 0.14474 0.48219 1.18397
 N1709 N 0.10176 0.46902 1.11843
 N1710 N 0.08149 0.46356 1.11896
 C1711 C 0.06788 0.46531 1.09533
 C1712 C 0.04675 0.45589 1.09366
 C1713 C 0.03287 0.45936 1.07122
 C1714 C 0.03983 0.47267 1.05042
 C1715 C 0.06107 0.48200 1.05258
 C1716 C 0.07491 0.47809 1.07431
 H1717 H 0.16946 0.48590 1.15428
 H1718 H 0.14456 0.47634 1.11711
 H1719 H 0.09149 0.46663 1.17047
 H1720 H 0.11613 0.47658 1.20783
 H1721 H 0.04093 0.44616 1.10984
 H1722 H 0.01655 0.45220 1.07052
 H1723 H 0.06719 0.49275 1.03755
 H1724 H 0.09092 0.48591 1.07507
 C1725 C -0.14902 -0.00227 1.13622
 C1726 C -0.13687 0.00226 1.11400
 C1727 C -0.11632 0.01241 1.11648
 C1728 C -0.10855 0.01941 1.14142
 C1729 C -0.12078 0.01509 1.16381
 C1730 C -0.14087 0.00330 1.16175
 N1731 N -0.10275 0.01244 1.09387
 N1732 N -0.08347 0.02062 1.09324
 C1733 C -0.07038 0.01678 1.07041
 C1734 C -0.05046 0.02798 1.06714
 C1735 C -0.03681 0.02255 1.04590
 C1736 C -0.04282 0.00556 1.02797
 C1737 C -0.06283 -0.00551 1.03170
 C1738 C -0.07649 0.00023 1.05218
 H1739 H -0.16484 -0.01019 1.13318
 H1740 H -0.14307 -0.00308 1.09476
 H1741 H -0.09255 0.02713 1.14376
 H1742 H -0.11338 0.01948 1.18277
 H1743 H -0.04534 0.04062 1.08124
 H1744 H -0.02138 0.03117 1.04398
 H1745 H -0.06811 -0.01901 1.01892
 H1746 H -0.09154 -0.00902 1.05430
 C1747 C 0.34624 0.50413 0.63489
 C1748 C 0.35799 0.51067 0.61306
 C1749 C 0.37770 0.52229 0.61629
 C1750 C 0.38498 0.52857 0.64170
 C1751 C 0.37307 0.52233 0.66369
 C1752 C 0.35385 0.50924 0.66077
 N1753 N 0.39093 0.52499 0.59363
 N1754 N 0.41001 0.53371 0.59387
 C1755 C 0.42283 0.53287 0.57041
 C1756 C 0.44457 0.54078 0.57067
 C1757 C 0.45856 0.53592 0.54957
 C1758 C 0.45106 0.52277 0.52810
 C1759 C 0.42884 0.51595 0.52772
 C1760 C 0.41490 0.52133 0.54808
 H1761 H 0.33109 0.49514 0.63125
 H1762 H 0.35216 0.50586 0.59348
 H1763 H 0.40030 0.53742 0.64463
 H1764 H 0.38008 0.52642 0.68294
 H1765 H 0.45104 0.54962 0.58781
 H1766 H 0.47561 0.54114 0.55096
 H1767 H 0.42231 0.50492 0.51262
 H1768 H 0.39829 0.51486 0.54717
 C1769 C 0.39059 0.49573 -0.18568
 C1770 C 0.40562 0.48752 -0.16655
 C1771 C 0.39981 0.48673 -0.14008
 C1772 C 0.37851 0.49398 -0.13302
 C1773 C 0.36353 0.50233 -0.15209
 C1774 C 0.36946 0.50346 -0.17860
 N1775 N 0.41627 0.48052 -0.12045
 N1776 N 0.41141 0.47951 -0.09626
 C1777 C 0.42733 0.47609 -0.07523
 C1778 C 0.44979 0.47136 -0.07948
 C1779 C 0.46543 0.47315 -0.05853
 C1780 C 0.45891 0.48041 -0.03332
 C1781 C 0.43609 0.48378 -0.02940
 C1782 C 0.42059 0.48101 -0.04983
 H1783 H 0.39574 0.49663 -0.20592
 H1784 H 0.42201 0.48227 -0.17227
 H1785 H 0.37360 0.49371 -0.11266
 H1786 H 0.34732 0.50795 -0.14612
 H1787 H 0.45539 0.46752 -0.09911
 H1788 H 0.48276 0.47076 -0.06268
 H1789 H 0.42992 0.49089 -0.01149
 H1790 H 0.40338 0.48504 -0.04642
 C1791 C -0.14217 1.00408 0.35073
 C1792 C -0.13055 0.99516 0.37246
 C1793 C -0.10947 0.98573 0.36956
 C1794 C -0.10032 0.98466 0.34441
 C1795 C -0.11200 0.99341 0.32262
 C1796 C -0.13288 1.00352 0.32564
 N1797 N -0.09704 0.97925 0.39273
 N1798 N -0.07692 0.97280 0.39212
 C1799 C -0.06429 0.96867 0.41593
 C1800 C -0.04122 0.96834 0.41517
 C1801 C -0.02850 0.97038 0.43851
 C1802 C -0.03873 0.97290 0.46308
 C1803 C -0.06173 0.96985 0.46372
 C1804 C -0.07443 0.96805 0.44044
 H1805 H -0.15836 1.01150 0.35353
 H1806 H -0.13772 0.99616 0.39177
 H1807 H -0.08398 0.97757 0.34171
 H1808 H -0.10442 0.99287 0.30352
 H1809 H -0.03313 0.96845 0.39639
 H1810 H -0.01078 0.97198 0.43694
 H1811 H -0.07032 0.96977 0.48187
 H1812 H -0.09226 0.96746 0.44159
 C1813 C 0.11180 0.50313 0.32787
 C1814 C 0.09507 0.51127 0.34387
 C1815 C 0.09925 0.51514 0.37076
 C1816 C 0.12066 0.51139 0.38145
 C1817 C 0.13739 0.50298 0.36549
 C1818 C 0.13300 0.49843 0.33863
 N1819 N 0.08090 0.51985 0.38719
 N1820 N 0.08310 0.52570 0.41129
 C1821 C 0.06439 0.52696 0.42799
 C1822 C 0.06723 0.53409 0.45417
 C1823 C 0.05074 0.53043 0.47241
 C1824 C 0.03162 0.51858 0.46498
 C1825 C 0.02778 0.51408 0.43792
 C1826 C 0.04397 0.51819 0.41966
 H1827 H 0.10787 0.49953 0.30732
 H1828 H 0.07856 0.51379 0.33551
 H1829 H 0.12418 0.51400 0.40229
 H1830 H 0.15364 0.49963 0.37421
 H1831 H 0.08269 0.54137 0.46080
 H1832 H 0.05365 0.53582 0.49253
 H1833 H 0.01290 0.50593 0.43087
 H1834 H 0.04111 0.51293 0.39940
 C1835 C 0.60469 0.02328 -0.16385
 C1836 C 0.59020 0.02989 -0.14405
 C1837 C 0.59750 0.03046 -0.11759
 C1838 C 0.61990 0.02568 -0.11139
 C1839 C 0.63429 0.01903 -0.13106
 C1840 C 0.62669 0.01708 -0.15736
 N1841 N 0.58167 0.03292 -0.09714
 N1842 N 0.58769 0.02944 -0.07328
 C1843 C 0.57305 0.02859 -0.05169
 C1844 C 0.58081 0.01744 -0.02934
 C1845 C 0.56644 0.01175 -0.00976
 C1846 C 0.54401 0.01851 -0.01088
 C1847 C 0.53650 0.03113 -0.03276
 C1848 C 0.55085 0.03583 -0.05330
 H1849 H 0.59841 0.02189 -0.18400
 H1850 H 0.57301 0.03339 -0.14916
 H1851 H 0.62611 0.02614 -0.09117
 H1852 H 0.65126 0.01478 -0.12560
 H1853 H 0.59776 0.01138 -0.02817
 H1854 H 0.57292 0.00074 0.00532
 H1855 H 0.51928 0.03613 -0.03483
 H1856 H 0.54449 0.04438 -0.07067
 C1857 C 0.65921 0.59338 -0.01401
 C1858 C 0.63795 0.58612 -0.02010
 C1859 C 0.63429 0.56421 -0.02780
 C1860 C 0.65249 0.54984 -0.03144
 C1861 C 0.67411 0.55727 -0.02590
 C1862 C 0.67767 0.57888 -0.01564
 N1863 N 0.61184 0.55699 -0.02867
 N1864 N 0.60541 0.53735 -0.03378
 C1865 C 0.58247 0.53210 -0.03089
 C1866 C 0.57460 0.51095 -0.03756
 C1867 C 0.55291 0.50499 -0.03157
 C1868 C 0.53879 0.52001 -0.01842
 C1869 C 0.54682 0.54134 -0.01250
 C1870 C 0.56808 0.54737 -0.01892
 H1871 H 0.66107 0.61051 -0.00785
 H1872 H 0.62406 0.59742 -0.01757
 H1873 H 0.64996 0.53276 -0.03744
 H1874 H 0.68772 0.54552 -0.02757
 H1875 H 0.58548 0.49885 -0.04661
 H1876 H 0.54762 0.48829 -0.03616
 H1877 H 0.53742 0.55316 -0.00113
 H1878 H 0.57363 0.56372 -0.01304
 C1879 C 0.15727 1.08764 0.49732
 C1880 C 0.13625 1.08004 0.49036
 C1881 C 0.13254 1.05736 0.48685
 C1882 C 0.15049 1.04231 0.48862
 C1883 C 0.17171 1.04996 0.49542
 C1884 C 0.17503 1.07261 0.50077
 N1885 N 0.11010 1.05025 0.48517
 N1886 N 0.10424 1.03016 0.48227
 C1887 C 0.08135 1.02459 0.48417
 C1888 C 0.07409 1.00331 0.47723
 C1889 C 0.05213 0.99725 0.48143
 C1890 C 0.03718 1.01233 0.49308
 C1891 C 0.04477 1.03366 0.49981
 C1892 C 0.06635 1.03978 0.49515
 H1893 H 0.15950 1.10518 0.50117
 H1894 H 0.12251 1.09176 0.48914
 H1895 H 0.14793 1.02467 0.48613
 H1896 H 0.18520 1.03810 0.49810
 H1897 H 0.08552 0.99129 0.46902
 H1898 H 0.04713 0.98057 0.47626
 H1899 H 0.03445 1.04555 0.50992
 H1900 H 0.07155 1.05619 0.50129
 C1901 C 0.17621 -0.04560 0.96298
 C1902 C 0.15580 -0.03510 0.96635
 C1903 C 0.14372 -0.03890 0.98892
 C1904 C 0.15287 -0.05243 1.00901
 C1905 C 0.17355 -0.06281 1.00577
 C1906 C 0.18499 -0.05996 0.98233
 N1907 N 0.12145 -0.03065 0.98925
 N1908 N 0.10818 -0.03398 1.00781
 C1909 C 0.08547 -0.02690 1.00507
 C1910 C 0.07088 -0.03025 1.02558
 C1911 C 0.04816 -0.02592 1.02177
 C1912 C 0.03958 -0.01916 0.99698
 C1913 C 0.05468 -0.01387 0.97743
 C1914 C 0.07723 -0.01791 0.98127
 H1915 H 0.18482 -0.04314 0.94481
 H1916 H 0.14886 -0.02478 0.95073
 H1917 H 0.14372 -0.05564 1.02659
 H1918 H 0.18004 -0.07394 1.02084
 H1919 H 0.07705 -0.03656 1.04435
 H1920 H 0.03744 -0.02796 1.03822
 H1921 H 0.04917 -0.00710 0.95866
 H1922 H 0.08810 -0.01461 0.96520
 C1923 C 0.65263 0.41330 0.48885
 C1924 C 0.63167 0.42045 0.49603
 C1925 C 0.62869 0.44063 0.50918
 C1926 C 0.64716 0.45332 0.51644
 C1927 C 0.66845 0.44592 0.50977
 C1928 C 0.67145 0.42610 0.49499
 N1929 N 0.60642 0.44789 0.51301
 N1930 N 0.60025 0.46677 0.52185
 C1931 C 0.57693 0.47181 0.52224
 C1932 C 0.56165 0.45577 0.51392
 C1933 C 0.53967 0.46145 0.50912
 C1934 C 0.53168 0.48320 0.51343
 C1935 C 0.54670 0.49902 0.52362
 C1936 C 0.56920 0.49337 0.52784
 H1937 H 0.65395 0.39740 0.47890
 H1938 H 0.61749 0.41044 0.49064
 H1939 H 0.64511 0.46903 0.52664
 H1940 H 0.68229 0.45648 0.51479
 H1941 H 0.56692 0.43898 0.50923
 H1942 H 0.52964 0.44892 0.49967
 H1943 H 0.54139 0.51603 0.52684
 H1944 H 0.58073 0.50603 0.53419
 C1945 C -0.17003 0.41422 0.49504
 C1946 C -0.14937 0.42046 0.48656
 C1947 C -0.14481 0.44278 0.48240
 C1948 C -0.16163 0.45889 0.48532
 C1949 C -0.18255 0.45260 0.49358
 C1950 C -0.18657 0.43029 0.49933
 N1951 N -0.12227 0.44846 0.47895
 N1952 N -0.11542 0.46809 0.47584
 C1953 C -0.09209 0.47202 0.47632
 C1954 C -0.08410 0.49321 0.47127
 C1955 C -0.06162 0.49787 0.47568
 C1956 C -0.04688 0.48146 0.48571
 C1957 C -0.05511 0.46012 0.48995
 C1958 C -0.07720 0.45538 0.48495
 H1959 H -0.17291 0.39690 0.49907
 H1960 H -0.13646 0.40796 0.48452
 H1961 H -0.15833 0.47629 0.48237
 H1962 H -0.19519 0.46519 0.49673
 H1963 H -0.09540 0.50630 0.46486
 H1964 H -0.05610 0.51461 0.47249
 H1965 H -0.04508 0.44727 0.49914
 H1966 H -0.08287 0.43895 0.48957
 C1967 C 0.34128 -0.08846 -0.00642
 C1968 C 0.36229 -0.08102 -0.01203
 C1969 C 0.36649 -0.05833 -0.01311
 C1970 C 0.34901 -0.04295 -0.01010
 C1971 C 0.32776 -0.05044 -0.00468
 C1972 C 0.32400 -0.07325 -0.00190
 N1973 N 0.38908 -0.05181 -0.01344
 N1974 N 0.39564 -0.03187 -0.01442
 C1975 C 0.41879 -0.02747 -0.01084
 C1976 C 0.42707 -0.00631 -0.01556
 C1977 C 0.44924 -0.00145 -0.00904
 C1978 C 0.46331 -0.01760 0.00280
 C1979 C 0.45470 -0.03879 0.00709
 C1980 C 0.43302 -0.04374 0.00002
 H1981 H 0.33867 -0.10613 -0.00470
 H1982 H 0.37568 -0.09298 -0.01418
 H1983 H 0.35200 -0.02530 -0.01065
 H1984 H 0.31461 -0.03845 -0.00126
 H1985 H 0.41625 0.00654 -0.02363
 H1986 H 0.45502 0.01519 -0.01227
 H1987 H 0.46412 -0.05143 0.01753
 H1988 H 0.42705 -0.06008 0.00455
 C1989 C 0.33485 1.08484 0.51877
 C1990 C 0.35553 1.07707 0.52759
 C1991 C 0.35950 1.05437 0.53114
 C1992 C 0.34202 1.03945 0.52742
 C1993 C 0.32108 1.04729 0.51883
 C1994 C 0.31763 1.06997 0.51355
 N1995 N 0.38205 1.04719 0.53422
 N1996 N 0.38870 1.02722 0.53748
 C1997 C 0.41197 1.02228 0.53601
 C1998 C 0.42081 1.00160 0.54379
 C1999 C 0.44316 0.99616 0.53931
 C2000 C 0.45681 1.01117 0.52642
 C2001 C 0.44753 1.03183 0.51893
 C2002 C 0.42580 1.03743 0.52407
 H2003 H 0.33250 1.10239 0.51500
 H2004 H 0.36894 1.08867 0.53017
 H2005 H 0.34484 1.02179 0.52979
 H2006 H 0.30798 1.03556 0.51484
 H2007 H 0.41032 0.98953 0.55269
 H2008 H 0.44941 0.97988 0.54482
 H2009 H 0.45648 1.04348 0.50743
 H2010 H 0.41946 1.05328 0.51710
 C2011 C -0.16401 0.57748 0.99872
 C2012 C -0.14331 0.56939 1.00704
 C2013 C -0.13923 0.54658 1.00889
 C2014 C -0.15663 0.53177 1.00370
 C2015 C -0.17758 0.53992 0.99534
 C2016 C -0.18113 0.56285 0.99201
 N2017 N -0.11668 0.53941 1.01252
 N2018 N -0.11015 0.51953 1.01665
 C2019 C -0.08683 0.51444 1.01688
 C2020 C -0.07843 0.49465 1.02785
 C2021 C -0.05573 0.48932 1.02664
 C2022 C -0.04112 0.50354 1.01398
 C2023 C -0.04996 0.52322 1.00289
 C2024 C -0.07226 0.52871 1.00463
 H2025 H -0.16640 0.59521 0.99634
 H2026 H -0.13002 0.58095 1.01082
 H2027 H -0.15373 0.51403 1.00475
 H2028 H -0.19055 0.52837 0.99010
 H2029 H -0.08945 0.48328 1.03711
 H2030 H -0.04978 0.47379 1.03493
 H2031 H -0.03993 0.53426 0.99181
 H2032 H -0.07826 0.54384 0.99537
 C2033 C 0.02004 0.65912 0.62536
 C2034 C 0.01903 0.63853 0.61274
 C2035 C 0.01482 0.63707 0.58554
 C2036 C 0.01127 0.65655 0.57092
 C2037 C 0.01199 0.67728 0.58365
 C2038 C 0.01656 0.67870 0.61097
 N2039 N 0.01359 0.61546 0.57386
 N2040 N 0.01260 0.61152 0.54914
 C2041 C 0.01076 0.58904 0.53988
 C2042 C 0.01358 0.58372 0.51319
 C2043 C 0.01221 0.56159 0.50437
 C2044 C 0.00815 0.54445 0.52224
 C2045 C 0.00441 0.55026 0.54874
 C2046 C 0.00597 0.57207 0.55746
 H2047 H 0.02336 0.65976 0.64646
 H2048 H 0.02159 0.62358 0.62418
 H2049 H 0.00779 0.65572 0.54988
 H2050 H 0.00934 0.69220 0.57217
 H2051 H 0.01692 0.59668 0.49926
 H2052 H 0.01406 0.55803 0.48362
 H2053 H 0.00040 0.53796 0.56319
 H2054 H 0.00323 0.57565 0.57808
 C2055 C 0.51076 0.18927 0.07686
 C2056 C 0.50953 0.16864 0.06401
 C2057 C 0.51804 0.14952 0.07632
 C2058 C 0.52803 0.15134 0.10164
 C2059 C 0.52938 0.17190 0.11439
 C2060 C 0.52071 0.19109 0.10220
 N2061 N 0.51605 0.12840 0.06324
 N2062 N 0.52189 0.11070 0.07518
 C2063 C 0.52028 0.08890 0.06400
 C2064 C 0.52494 0.07104 0.08058
 C2065 C 0.52316 0.04939 0.07124
 C2066 C 0.51699 0.04496 0.04471
 C2067 C 0.51257 0.06302 0.02784
 C2068 C 0.51410 0.08491 0.03745
 H2069 H 0.50414 0.20383 0.06689
 H2070 H 0.50180 0.16751 0.04454
 H2071 H 0.53473 0.13685 0.11168
 H2072 H 0.53690 0.17274 0.13400
 H2073 H 0.52978 0.07395 0.10103
 H2074 H 0.52690 0.03614 0.08499
 H2075 H 0.50776 0.06027 0.00736
 H2076 H 0.51048 0.09859 0.02426
 C2077 C -0.01629 0.17739 0.93015
 C2078 C -0.01683 0.15773 0.94462
 C2079 C -0.02537 0.13838 0.93309
 C2080 C -0.03346 0.13895 0.90682
 C2081 C -0.03279 0.15848 0.89231
 C2082 C -0.02414 0.17795 0.90374
 N2083 N -0.02482 0.11812 0.94778
 N2084 N -0.03356 0.10067 0.93815
 C2085 C -0.03254 0.07950 0.95068
 C2086 C -0.04154 0.06153 0.93690
 C2087 C -0.03854 0.04008 0.94631
 C2088 C -0.02676 0.03601 0.97022
 C2089 C -0.01862 0.05431 0.98477
 C2090 C -0.02140 0.07593 0.97502
 H2091 H -0.00981 0.19216 0.93967
 H2092 H -0.01050 0.15755 0.96481
 H2093 H -0.03996 0.12419 0.89729
 H2094 H -0.03861 0.15819 0.87193
 H2095 H -0.05010 0.06409 0.91810
 H2096 H -0.04495 0.02661 0.93424
 H2097 H -0.00927 0.05190 1.00306
 H2098 H -0.01426 0.08968 0.98599
 C2099 C 0.48684 0.68784 0.42358
 C2100 C 0.48732 0.66883 0.43939
 C2101 C 0.48241 0.64803 0.42834
 C2102 C 0.47728 0.64648 0.40114
 C2103 C 0.47687 0.66533 0.38542
 C2104 C 0.48145 0.68628 0.39641
 N2105 N 0.48277 0.62861 0.44461
 N2106 N 0.47678 0.61015 0.43461
 C2107 C 0.47677 0.58941 0.44805
 C2108 C 0.47003 0.57099 0.43338
 C2109 C 0.47075 0.55001 0.44436
 C2110 C 0.47802 0.54677 0.47074
 C2111 C 0.48435 0.56548 0.48586
 C2112 C 0.48379 0.58675 0.47454
 H2113 H 0.49032 0.70377 0.43266
 H2114 H 0.49135 0.67033 0.46026
 H2115 H 0.47365 0.63065 0.39189
 H2116 H 0.47318 0.66343 0.36451
 H2117 H 0.46455 0.57288 0.41299
 H2118 H 0.46555 0.53630 0.43186
 H2119 H 0.49010 0.56364 0.50614
 H2120 H 0.48908 0.60092 0.48623
 C2121 C 0.50287 0.82498 0.39877
 C2122 C 0.49934 0.84408 0.41392
 C2123 C 0.51625 0.85259 0.43024
 C2124 C 0.53701 0.84180 0.43117
 C2125 C 0.54064 0.82267 0.41582
 C2126 C 0.52355 0.81403 0.39952
 N2127 N 0.51189 0.87268 0.44460
 N2128 N 0.52534 0.88145 0.46128
 C2129 C 0.51994 0.90227 0.47376
 C2130 C 0.50027 0.91372 0.46699
 C2131 C 0.49635 0.93508 0.47657
 C2132 C 0.51193 0.94572 0.49336
 C2133 C 0.53094 0.93357 0.50166
 C2134 C 0.53498 0.91210 0.49170
 H2135 H 0.48948 0.81893 0.38616
 H2136 H 0.48335 0.85239 0.41284
 H2137 H 0.55037 0.84820 0.44353
 H2138 H 0.55668 0.81447 0.41694
 H2139 H 0.48821 0.90654 0.45337
 H2140 H 0.48142 0.94352 0.46964
 H2141 H 0.54344 0.94107 0.51433
 H2142 H 0.55023 0.90349 0.49719
 C2143 C 0.03816 0.32122 0.89984
 C2144 C 0.03708 0.34144 0.91321
 C2145 C 0.02758 0.34300 0.93795
 C2146 C 0.01883 0.32399 0.94933
 C2147 C 0.01988 0.30355 0.93585
 C2148 C 0.02977 0.30198 0.91103
 N2149 N 0.02707 0.36438 0.95030
 N2150 N 0.01918 0.36909 0.97274
 C2151 C 0.01975 0.39176 0.98183
 C2152 C 0.00939 0.39840 1.00513
 C2153 C 0.00839 0.42101 1.01245
 C2154 C 0.01774 0.43721 0.99646
 C2155 C 0.02859 0.43009 0.97360
 C2156 C 0.02982 0.40787 0.96663
 H2157 H 0.04543 0.32069 0.88056
 H2158 H 0.04368 0.35607 0.90421
 H2159 H 0.01132 0.32494 0.96844
 H2160 H 0.01333 0.28894 0.94494
 H2161 H 0.00155 0.38621 1.01716
 H2162 H -0.00031 0.42583 1.03001
 H2163 H 0.03586 0.44173 0.96036
 H2164 H 0.03814 0.40345 0.94865
 C2165 C 0.46611 0.34047 0.11755
 C2166 C 0.46841 0.36075 0.10501
 C2167 C 0.47453 0.36153 0.07865
 C2168 C 0.47802 0.34168 0.06461
 C2169 C 0.47585 0.32127 0.07722
 C2170 C 0.47005 0.32050 0.10391
 N2171 N 0.47821 0.38281 0.06752
 N2172 N 0.48239 0.38620 0.04342
 C2173 C 0.48668 0.40836 0.03500
 C2174 C 0.48559 0.41385 0.00816
 C2175 C 0.48814 0.43596 0.00029
 C2176 C 0.49182 0.45280 0.01929
 C2177 C 0.49419 0.44675 0.04601
 C2178 C 0.49156 0.42495 0.05371
 H2179 H 0.46197 0.34045 0.13819
 H2180 H 0.46584 0.37601 0.11603
 H2181 H 0.48285 0.34196 0.04422
 H2182 H 0.47884 0.30609 0.06622
 H2183 H 0.48209 0.40116 -0.00656
 H2184 H 0.48648 0.43996 -0.02044
 H2185 H 0.49743 0.45886 0.06143
 H2186 H 0.49302 0.42116 0.07452
 C2187 C -0.00542 0.82275 0.61098
 C2188 C -0.00202 0.84277 0.59817
 C2189 C -0.01852 0.85195 0.58156
 C2190 C -0.03874 0.84095 0.57809
 C2191 C -0.04228 0.82098 0.59119
 C2192 C -0.02558 0.81164 0.60766
 N2193 N -0.01441 0.87277 0.56933
 N2194 N -0.02714 0.88138 0.55167
 C2195 C -0.02264 0.90274 0.54089
 C2196 C -0.00551 0.91586 0.55142
 C2197 C -0.00249 0.93730 0.54224
 C2198 C -0.01639 0.94629 0.52211
 C2199 C -0.03289 0.93264 0.51082
 C2200 C -0.03608 0.91117 0.52029
 H2201 H 0.00764 0.81605 0.62376
 H2202 H 0.01355 0.85118 0.60117
 H2203 H -0.05180 0.84785 0.56549
 H2204 H -0.05791 0.81267 0.58820
 H2205 H 0.00517 0.90981 0.56735
 H2206 H 0.01042 0.94702 0.55170
 H2207 H -0.04406 0.93873 0.49556
 H2208 H -0.04937 0.90127 0.51195
 C2209 C 0.24270 0.35415 0.08094
 C2210 C 0.23424 0.34040 0.10029
 C2211 C 0.23801 0.34511 0.12706
 C2212 C 0.25009 0.36408 0.13425
 C2213 C 0.25882 0.37763 0.11506
 C2214 C 0.25561 0.37285 0.08793
 N2215 N 0.23121 0.32969 0.14662
 N2216 N 0.23355 0.33449 0.17101
 C2217 C 0.22993 0.31953 0.19217
 C2218 C 0.23762 0.32603 0.21710
 C2219 C 0.24003 0.31069 0.23726
 C2220 C 0.23358 0.28844 0.23367
 C2221 C 0.22372 0.28246 0.20909
 C2222 C 0.22224 0.29780 0.18829
 H2223 H 0.24011 0.34916 0.06057
 H2224 H 0.22521 0.32571 0.09438
 H2225 H 0.25326 0.36823 0.15481
 H2226 H 0.26765 0.39220 0.12177
 H2227 H 0.24393 0.34261 0.22019
 H2228 H 0.24914 0.31615 0.25461
 H2229 H 0.21895 0.26548 0.20517
 H2230 H 0.21628 0.29239 0.16900
 C2231 C 0.73601 0.85162 0.57108
 C2232 C 0.72936 0.83934 0.59275
 C2233 C 0.73108 0.84832 0.61828
 C2234 C 0.73839 0.87026 0.62169
 C2235 C 0.74507 0.88245 0.60017
 C2236 C 0.74457 0.87305 0.57476
 N2237 N 0.72791 0.83436 0.64063
 N2238 N 0.73297 0.84147 0.66366
 C2239 C 0.73279 0.82848 0.68707
 C2240 C 0.74426 0.83680 0.70905
 C2241 C 0.74813 0.82371 0.73108
 C2242 C 0.73951 0.80215 0.73246
 C2243 C 0.72686 0.79416 0.71071
 C2244 C 0.72373 0.80715 0.68795
 H2245 H 0.73548 0.84399 0.55166
 H2246 H 0.72386 0.82246 0.58979
 H2247 H 0.73974 0.87774 0.64114
 H2248 H 0.75117 0.89908 0.60347
 H2249 H 0.75158 0.85308 0.70840
 H2250 H 0.75882 0.83036 0.74654
 H2251 H 0.72034 0.77753 0.71072
 H2252 H 0.71489 0.80037 0.67094
 C2253 C 0.24878 0.65427 0.55534
 C2254 C 0.25833 0.66921 0.57350
 C2255 C 0.26119 0.66340 0.60005
 C2256 C 0.25461 0.64225 0.60815
 C2257 C 0.24486 0.62747 0.59014
 C2258 C 0.24165 0.63339 0.56362
 N2259 N 0.26866 0.67968 0.61898
 N2260 N 0.27179 0.67427 0.64298
 C2261 C 0.27617 0.68959 0.66408
 C2262 C 0.27254 0.68208 0.68938
 C2263 C 0.27020 0.69702 0.71009
 C2264 C 0.27313 0.71999 0.70665
 C2265 C 0.27915 0.72726 0.68148
 C2266 C 0.28021 0.71221 0.66015
 H2267 H 0.24640 0.65925 0.53498
 H2268 H 0.26306 0.68548 0.56699
 H2269 H 0.25644 0.63731 0.62858
 H2270 H 0.23981 0.61138 0.59694
 H2271 H 0.26894 0.66476 0.69250
 H2272 H 0.26375 0.69037 0.72787
 H2273 H 0.28104 0.74477 0.67767
 H2274 H 0.28297 0.71837 0.64054
 C2275 C 0.72775 0.12085 0.08902
 C2276 C 0.73091 0.13772 0.10759
 C2277 C 0.75105 0.14860 0.10995
 C2278 C 0.76839 0.14226 0.09362
 C2279 C 0.76524 0.12544 0.07464
 C2280 C 0.74474 0.11444 0.07183
 N2281 N 0.75256 0.16677 0.12817
 N2282 N 0.77028 0.17673 0.13491
 C2283 C 0.76895 0.19523 0.15285
 C2284 C 0.78727 0.20141 0.16863
 C2285 C 0.78490 0.21745 0.18871
 C2286 C 0.76414 0.22740 0.19333
 C2287 C 0.74646 0.22246 0.17559
 C2288 C 0.74880 0.20659 0.15584
 H2289 H 0.71136 0.11398 0.08731
 H2290 H 0.71734 0.14274 0.11992
 H2291 H 0.78415 0.15052 0.09520
 H2292 H 0.77912 0.12083 0.06266
 H2293 H 0.80310 0.19315 0.16618
 H2294 H 0.79918 0.22146 0.20081
 H2295 H 0.73021 0.22992 0.17765
 H2296 H 0.73451 0.20266 0.14342
 C2297 C 0.77416 0.14306 0.92214
 C2298 C 0.77142 0.16180 0.90652
 C2299 C 0.75093 0.16680 0.89442
 C2300 C 0.73271 0.15330 0.89904
 C2301 C 0.73537 0.13456 0.91516
 C2302 C 0.75631 0.12908 0.92623
 N2303 N 0.75024 0.18440 0.87574
 N2304 N 0.73348 0.19035 0.86163
 C2305 C 0.73622 0.20686 0.84173
 C2306 C 0.71863 0.21295 0.82452
 C2307 C 0.72245 0.22609 0.80233
 C2308 C 0.74412 0.23228 0.79641
 C2309 C 0.76110 0.22790 0.81533
 C2310 C 0.75723 0.21551 0.83756
 H2311 H 0.79037 0.13921 0.93069
 H2312 H 0.78556 0.17206 0.90295
 H2313 H 0.71675 0.15687 0.88970
 H2314 H 0.72141 0.12392 0.91818
 H2315 H 0.70219 0.20682 0.82768
 H2316 H 0.70871 0.23018 0.78913
 H2317 H 0.77790 0.23321 0.81263
 H2318 H 0.77112 0.21171 0.85075
 C2319 C 0.23733 0.60041 0.38050
 C2320 C 0.23384 0.61270 0.35752
 C2321 C 0.22794 0.63520 0.35894
 C2322 C 0.22403 0.64501 0.38359
 C2323 C 0.22757 0.63276 0.40664
 C2324 C 0.23506 0.61055 0.40533
 N2325 N 0.22973 0.64822 0.33573
 N2326 N 0.22435 0.66869 0.33436
 C2327 C 0.23004 0.68115 0.31165
 C2328 C 0.21964 0.70158 0.30607
 C2329 C 0.22624 0.71422 0.28458
 C2330 C 0.24364 0.70671 0.26877
 C2331 C 0.25431 0.68645 0.27518
 C2332 C 0.24738 0.67374 0.29595
 H2333 H 0.24278 0.58327 0.37888
 H2334 H 0.23700 0.60501 0.33858
 H2335 H 0.21968 0.66246 0.38513
 H2336 H 0.22590 0.64112 0.42548
 H2337 H 0.20648 0.70771 0.31834
 H2338 H 0.21796 0.72992 0.28063
 H2339 H 0.26797 0.68003 0.26393
 H2340 H 0.25608 0.65828 0.30015
 C2341 C 0.76060 0.85927 0.41211
 C2342 C 0.76833 0.84882 0.38931
 C2343 C 0.76562 0.85925 0.36475
 C2344 C 0.75602 0.88048 0.36347
 C2345 C 0.74825 0.89089 0.38616
 C2346 C 0.74996 0.88017 0.41063
 N2347 N 0.76962 0.84778 0.34050
 N2348 N 0.77810 0.82836 0.33902
 C2349 C 0.77858 0.81688 0.31411
 C2350 C 0.78729 0.79523 0.31262
 C2351 C 0.78351 0.78215 0.28992
 C2352 C 0.77062 0.79047 0.26853
 C2353 C 0.76318 0.81272 0.26978
 C2354 C 0.76746 0.82582 0.29194
 H2355 H 0.76202 0.85056 0.43069
 H2356 H 0.77549 0.83230 0.39069
 H2357 H 0.75373 0.88860 0.34461
 H2358 H 0.74047 0.90713 0.38449
 H2359 H 0.79583 0.78804 0.32961
 H2360 H 0.78928 0.76506 0.28999
 H2361 H 0.75255 0.81979 0.25447
 H2362 H 0.76043 0.84244 0.29243
 C2363 C 0.27287 0.35743 0.93266
 C2364 C 0.27952 0.34399 0.91160
 C2365 C 0.27719 0.35151 0.88566
 C2366 C 0.26903 0.37317 0.88109
 C2367 C 0.26242 0.38665 0.90211
 C2368 C 0.26380 0.37877 0.92811
 N2369 N 0.28086 0.33624 0.86429
 N2370 N 0.27632 0.34177 0.84058
 C2371 C 0.27718 0.32670 0.81866
 C2372 C 0.26619 0.33309 0.79542
 C2373 C 0.26221 0.31775 0.77531
 C2374 C 0.27022 0.29569 0.77719
 C2375 C 0.28283 0.28974 0.79992
 C2376 C 0.28605 0.30506 0.82070
 H2377 H 0.27390 0.35070 0.95239
 H2378 H 0.28558 0.32730 0.91543
 H2379 H 0.26708 0.37946 0.86121
 H2380 H 0.25585 0.40310 0.89797
 H2381 H 0.25903 0.34962 0.79377
 H2382 H 0.25153 0.32307 0.75907
 H2383 H 0.28894 0.27290 0.80245
 H2384 H 0.29459 0.29976 0.83865
 C2385 C 0.79185 0.44987 0.74021
 C2386 C 0.77973 0.43075 0.74547
 C2387 C 0.79078 0.41097 0.75263
 C2388 C 0.81390 0.41111 0.75663
 C2389 C 0.82588 0.43000 0.75140
 C2390 C 0.81508 0.44926 0.74226
 N2391 N 0.77921 0.39032 0.75260
 N2392 N 0.79020 0.37276 0.74733
 C2393 C 0.78209 0.35064 0.74600
 C2394 C 0.79590 0.33484 0.73469
 C2395 C 0.79011 0.31273 0.73372
 C2396 C 0.77037 0.30540 0.74451
 C2397 C 0.75607 0.32149 0.75560
 C2398 C 0.76187 0.34409 0.75629
 H2399 H 0.78328 0.46465 0.73313
 H2400 H 0.76195 0.43096 0.74230
 H2401 H 0.82284 0.39620 0.76258
 H2402 H 0.84377 0.42930 0.75329
 H2403 H 0.81154 0.33972 0.72676
 H2404 H 0.80181 0.30144 0.72517
 H2405 H 0.74061 0.31663 0.76395
 H2406 H 0.75095 0.35620 0.76523
 C2407 C 0.29943 0.92735 0.26068
 C2408 C 0.28751 0.90769 0.26387
 C2409 C 0.29774 0.88698 0.25961
 C2410 C 0.32047 0.88617 0.25467
 C2411 C 0.33211 0.90547 0.25096
 C2412 C 0.32158 0.92640 0.25245
 N2413 N 0.28507 0.86700 0.25750
 N2414 N 0.29338 0.85111 0.24419
 C2415 C 0.28460 0.82958 0.23940
 C2416 C 0.29676 0.81589 0.22291
 C2417 C 0.29082 0.79410 0.21852
 C2418 C 0.27228 0.78507 0.23033
 C2419 C 0.25953 0.79912 0.24664
 C2420 C 0.26569 0.82135 0.25125
 H2421 H 0.29071 0.94309 0.26237
 H2422 H 0.27006 0.90866 0.26806
 H2423 H 0.32913 0.87044 0.25242
 H2424 H 0.34949 0.90387 0.24659
 H2425 H 0.31154 0.82201 0.21401
 H2426 H 0.30189 0.78413 0.20712
 H2427 H 0.24515 0.79286 0.25622
 H2428 H 0.25611 0.83179 0.26427
 C2429 C 0.15531 0.91996 0.73997
 C2430 C 0.16293 0.89939 0.73110
 C2431 C 0.18530 0.89594 0.72596
 C2432 C 0.19995 0.91380 0.72837
 C2433 C 0.19224 0.93464 0.73710
 C2434 C 0.16997 0.93759 0.74379
 N2435 N 0.19269 0.87355 0.72198
 N2436 N 0.21243 0.86755 0.71702
 C2437 C 0.21820 0.84432 0.71699
 C2438 C 0.23916 0.83700 0.70920
 C2439 C 0.24586 0.81477 0.71286
 C2440 C 0.23184 0.79959 0.72491
 C2441 C 0.21062 0.80717 0.73187
 C2442 C 0.20380 0.82894 0.72758
 H2443 H 0.13803 0.92193 0.74475
 H2444 H 0.15155 0.88571 0.72946
 H2445 H 0.21737 0.91140 0.72471
 H2446 H 0.20380 0.94805 0.73994
 H2447 H 0.25059 0.84867 0.70121
 H2448 H 0.26247 0.80985 0.70765
 H2449 H 0.19961 0.79695 0.74268
 H2450 H 0.18767 0.83406 0.73431
 C2451 C 0.65313 0.42202 0.24364
 C2452 C 0.66304 0.40239 0.23503
 C2453 C 0.68603 0.40055 0.23368
 C2454 C 0.69912 0.41917 0.23935
 C2455 C 0.68913 0.43905 0.24788
 C2456 C 0.66612 0.44024 0.25102
 N2457 N 0.69526 0.37874 0.23098
 N2458 N 0.71565 0.37409 0.22807
 C2459 C 0.72262 0.35128 0.22972
 C2460 C 0.74196 0.34360 0.21780
 C2461 C 0.74854 0.32117 0.22002
 C2462 C 0.73604 0.30630 0.23466
 C2463 C 0.71708 0.31458 0.24711
 C2464 C 0.71037 0.33652 0.24445
 H2465 H 0.63535 0.42268 0.24572
 H2466 H 0.65285 0.38808 0.23091
 H2467 H 0.71697 0.41796 0.23871
 H2468 H 0.69939 0.45297 0.25354
 H2469 H 0.75181 0.35487 0.20667
 H2470 H 0.76346 0.31560 0.21055
 H2471 H 0.70724 0.30427 0.25935
 H2472 H 0.69573 0.34209 0.25454
 C2473 C 0.65147 0.59753 0.26773
 C2474 C 0.66201 0.61761 0.27249
 C2475 C 0.68492 0.61914 0.27041
 C2476 C 0.69755 0.59987 0.26535
 C2477 C 0.68696 0.57957 0.26072
 C2478 C 0.66375 0.57854 0.26087
 N2479 N 0.69391 0.64088 0.26902
 N2480 N 0.71441 0.64527 0.26816
 C2481 C 0.72072 0.66759 0.26263
 C2482 C 0.74206 0.67514 0.26899
 C2483 C 0.74825 0.69670 0.26208
 C2484 C 0.73331 0.71080 0.24816
 C2485 C 0.71213 0.70269 0.24157
 C2486 C 0.70586 0.68168 0.24899
 H2487 H 0.63358 0.59706 0.26806
 H2488 H 0.65212 0.63239 0.27617
 H2489 H 0.71528 0.60078 0.26336
 H2490 H 0.69669 0.56509 0.25532
 H2491 H 0.75387 0.66434 0.27916
 H2492 H 0.76485 0.70209 0.26709
 H2493 H 0.70035 0.71218 0.22975
 H2494 H 0.68950 0.67613 0.24306
 C2495 C 0.20140 0.07450 0.74843
 C2496 C 0.21407 0.09304 0.75540
 C2497 C 0.20377 0.11333 0.76153
 C2498 C 0.18054 0.11482 0.76094
 C2499 C 0.16790 0.09646 0.75349
 C2500 C 0.17822 0.07622 0.74690
 N2501 N 0.21700 0.13267 0.76571
 N2502 N 0.20890 0.15063 0.77502
 C2503 C 0.22094 0.17094 0.77612
 C2504 C 0.21073 0.18995 0.78645
 C2505 C 0.21941 0.21091 0.78195
 C2506 C 0.23778 0.21319 0.76581
 C2507 C 0.25001 0.19390 0.75951
 C2508 C 0.24144 0.17290 0.76409
 H2509 H 0.20968 0.05906 0.74333
 H2510 H 0.23195 0.09171 0.75551
 H2511 H 0.17216 0.13036 0.76529
 H2512 H 0.15004 0.09810 0.75262
 H2513 H 0.19529 0.18866 0.79659
 H2514 H 0.21080 0.22529 0.78965
 H2515 H 0.26549 0.19491 0.74944
 H2516 H 0.25012 0.15839 0.75674
 C2517 C 0.33985 0.08232 0.24000
 C2518 C 0.33112 0.10269 0.23176
 C2519 C 0.30831 0.10678 0.23176
 C2520 C 0.29401 0.08962 0.23829
 C2521 C 0.30278 0.06898 0.24629
 C2522 C 0.32581 0.06557 0.24816
 N2523 N 0.30104 0.12938 0.22998
 N2524 N 0.28098 0.13611 0.22984
 C2525 C 0.27654 0.15944 0.23298
 C2526 C 0.25550 0.16863 0.22730
 C2527 C 0.25086 0.19103 0.23349
 C2528 C 0.26707 0.20433 0.24607
 C2529 C 0.28801 0.19467 0.25155
 C2530 C 0.29279 0.17292 0.24466
 H2531 H 0.35765 0.07995 0.24117
 H2532 H 0.34228 0.11588 0.22705
 H2533 H 0.27633 0.09257 0.23875
 H2534 H 0.29172 0.05622 0.25258
 H2535 H 0.24261 0.15837 0.21868
 H2536 H 0.23435 0.19758 0.22951
 H2537 H 0.30067 0.20333 0.26273
 H2538 H 0.30898 0.16624 0.25011
 C2539 C 0.81692 0.58854 0.79025
 C2540 C 0.80422 0.60805 0.78991
 C2541 C 0.80038 0.61956 0.76636
 C2542 C 0.80866 0.61084 0.74273
 C2543 C 0.82115 0.59105 0.74299
 C2544 C 0.82578 0.58005 0.76688
 N2545 N 0.78935 0.64069 0.76767
 N2546 N 0.78727 0.65392 0.74830
 C2547 C 0.77741 0.67551 0.75181
 C2548 C 0.77919 0.69154 0.73217
 C2549 C 0.77326 0.71373 0.73726
 C2550 C 0.76622 0.72026 0.76248
 C2551 C 0.76173 0.70353 0.78069
 C2552 C 0.76764 0.68152 0.77566
 H2553 H 0.82012 0.58023 0.80885
 H2554 H 0.79794 0.61463 0.80822
 H2555 H 0.80588 0.61951 0.72431
 H2556 H 0.82788 0.58479 0.72477
 H2557 H 0.78624 0.68709 0.71343
 H2558 H 0.77576 0.72595 0.72216
 H2559 H 0.75450 0.70744 0.79946
 H2560 H 0.76530 0.66936 0.79088
 C2561 C 0.93889 0.75755 0.17573
 C2562 C 0.91930 0.75656 0.18968
 C2563 C 0.90035 0.76799 0.18075
 C2564 C 0.90146 0.78120 0.15814
 C2565 C 0.92103 0.78244 0.14429
 C2566 C 0.94010 0.77027 0.15244
 N2567 N 0.87988 0.76512 0.19389
 N2568 N 0.86188 0.77211 0.18316
 C2569 C 0.84048 0.76956 0.19390
 C2570 C 0.82234 0.77487 0.17760
 C2571 C 0.80101 0.77216 0.18619
 C2572 C 0.79708 0.76453 0.21185
 C2573 C 0.81542 0.75936 0.22851
 C2574 C 0.83708 0.76172 0.21952
 H2575 H 0.95318 0.74870 0.18379
 H2576 H 0.91878 0.74648 0.20722
 H2577 H 0.88702 0.79026 0.15075
 H2578 H 0.92056 0.79201 0.12635
 H2579 H 0.82480 0.78090 0.15785
 H2580 H 0.78759 0.77649 0.17255
 H2581 H 0.81306 0.75340 0.24829
 H2582 H 0.85102 0.75753 0.23246
 C2583 C 0.44111 0.26440 0.68347
 C2584 C 0.42214 0.26281 0.69865
 C2585 C 0.40112 0.26678 0.68720
 C2586 C 0.39936 0.27217 0.66023
 C2587 C 0.41816 0.27373 0.64517
 C2588 C 0.43927 0.27004 0.65657
 N2589 N 0.38165 0.26522 0.70271
 N2590 N 0.36291 0.26947 0.69178
 C2591 C 0.34189 0.26842 0.70381
 C2592 C 0.32353 0.27289 0.68756
 C2593 C 0.30238 0.27149 0.69704
 C2594 C 0.29879 0.26584 0.72352
 C2595 C 0.31739 0.26164 0.74022
 C2596 C 0.33893 0.26286 0.73038
 H2597 H 0.45721 0.26156 0.69281
 H2598 H 0.42383 0.25860 0.71933
 H2599 H 0.38340 0.27514 0.65063
 H2600 H 0.41612 0.27763 0.62443
 H2601 H 0.32566 0.27723 0.66710
 H2602 H 0.28884 0.27507 0.68328
 H2603 H 0.31529 0.25718 0.76062
 H2604 H 0.35308 0.25937 0.74329
 C2605 C 0.41790 0.72399 0.85593
 C2606 C 0.39741 0.72666 0.84308
 C2607 C 0.39593 0.73439 0.81719
 C2608 C 0.41529 0.73930 0.80393
 C2609 C 0.43594 0.73678 0.81688
 C2610 C 0.43738 0.72918 0.84308
 N2611 N 0.37436 0.73819 0.80587
 N2612 N 0.37014 0.74355 0.78200
 C2613 C 0.34755 0.74776 0.77392
 C2614 C 0.34097 0.74743 0.74716
 C2615 C 0.31846 0.74965 0.73977
 C2616 C 0.30234 0.75214 0.75917
 C2617 C 0.30944 0.75381 0.78579
 C2618 C 0.33160 0.75161 0.79300
 H2619 H 0.41846 0.71845 0.87620
 H2620 H 0.38251 0.72302 0.85350
 H2621 H 0.41443 0.74544 0.78392
 H2622 H 0.45075 0.74077 0.80650
 H2623 H 0.35313 0.74472 0.73216
 H2624 H 0.31360 0.74857 0.71909
 H2625 H 0.29796 0.75620 0.80155
 H2626 H 0.33620 0.75253 0.81377
 C2627 C 0.92391 0.20007 0.32712
 C2628 C 0.90493 0.20133 0.31075
 C2629 C 0.89638 0.22186 0.30255
 C2630 C 0.90701 0.24127 0.31099
 C2631 C 0.92589 0.24013 0.32745
 C2632 C 0.93488 0.21948 0.33592
 N2633 N 0.87627 0.22265 0.28692
 N2634 N 0.86832 0.24079 0.27781
 C2635 C 0.84740 0.24206 0.26391
 C2636 C 0.83870 0.26290 0.25718
 C2637 C 0.81678 0.26516 0.24803
 C2638 C 0.80295 0.24654 0.24568
 C2639 C 0.81272 0.22542 0.24965
 C2640 C 0.83460 0.22319 0.25896
 H2641 H 0.93025 0.18368 0.33185
 H2642 H 0.89686 0.18620 0.30437
 H2643 H 0.90047 0.25741 0.30534
 H2644 H 0.93268 0.25570 0.33430
 H2645 H 0.84852 0.27760 0.26046
 H2646 H 0.81039 0.28175 0.24441
 H2647 H 0.80359 0.21049 0.24608
 H2648 H 0.84120 0.20677 0.26321
 C2649 C 0.06250 0.25834 0.31713
 C2650 C 0.08271 0.25691 0.30430
 C2651 C 0.10219 0.26407 0.31705
 C2652 C 0.10115 0.27294 0.34277
 C2653 C 0.08102 0.27451 0.35548
 C2654 C 0.06147 0.26716 0.34288
 N2655 N 0.12292 0.26176 0.30406
 N2656 N 0.14090 0.26595 0.31659
 C2657 C 0.16244 0.26391 0.30580
 C2658 C 0.18049 0.26625 0.32318
 C2659 C 0.20192 0.26392 0.31434
 C2660 C 0.20599 0.25961 0.28750
 C2661 C 0.18773 0.25757 0.26981
 C2662 C 0.16603 0.25959 0.27893
 H2663 H 0.04765 0.25277 0.30683
 H2664 H 0.08322 0.25005 0.28452
 H2665 H 0.11593 0.27860 0.35316
 H2666 H 0.08079 0.28115 0.37539
 H2667 H 0.17790 0.26966 0.34388
 H2668 H 0.21529 0.26584 0.32876
 H2669 H 0.19021 0.25427 0.24907
 H2670 H 0.15218 0.25781 0.26513
 C2671 C 0.56473 0.77119 0.81848
 C2672 C 0.58455 0.77107 0.80479
 C2673 C 0.60386 0.77940 0.81679
 C2674 C 0.60311 0.78778 0.84276
 C2675 C 0.58347 0.78778 0.85642
 C2676 C 0.56401 0.77957 0.84448
 N2677 N 0.62427 0.77864 0.80302
 N2678 N 0.64135 0.78745 0.81356
 C2679 C 0.66293 0.78680 0.80288
 C2680 C 0.67996 0.79561 0.81849
 C2681 C 0.70175 0.79329 0.81108
 C2682 C 0.70718 0.78256 0.78724
 C2683 C 0.68985 0.77447 0.77085
 C2684 C 0.66778 0.77645 0.77872
 H2685 H 0.54994 0.76493 0.80865
 H2686 H 0.58486 0.76449 0.78487
 H2687 H 0.61781 0.79409 0.85273
 H2688 H 0.58364 0.79389 0.87657
 H2689 H 0.67637 0.80354 0.83717
 H2690 H 0.71438 0.79961 0.82456
 H2691 H 0.69336 0.76593 0.75254
 H2692 H 0.65470 0.76946 0.76638
 C2693 C 0.56774 0.24165 0.68473
 C2694 C 0.58695 0.24486 0.70035
 C2695 C 0.60753 0.23757 0.69147
 C2696 C 0.60868 0.22726 0.66652
 C2697 C 0.58962 0.22430 0.65081
 C2698 C 0.56885 0.23135 0.65970
 N2699 N 0.62716 0.24090 0.70757
 N2700 N 0.64499 0.23078 0.70173
 C2701 C 0.66595 0.23340 0.71507
 C2702 C 0.68342 0.22047 0.70600
 C2703 C 0.70484 0.22392 0.71541
 C2704 C 0.70956 0.24018 0.73489
 C2705 C 0.69173 0.25279 0.74476
 C2706 C 0.66999 0.24942 0.73492
 H2707 H 0.55201 0.24703 0.69241
 H2708 H 0.58575 0.25283 0.71949
 H2709 H 0.62440 0.22172 0.65893
 H2710 H 0.59127 0.21681 0.63147
 H2711 H 0.68053 0.20825 0.69054
 H2712 H 0.71782 0.21425 0.70634
 H2713 H 0.69467 0.26580 0.75924
 H2714 H 0.65662 0.25977 0.74205
 C2715 C 0.06743 0.72710 0.17681
 C2716 C 0.08791 0.72861 0.19020
 C2717 C 0.10701 0.71984 0.17890
 C2718 C 0.10536 0.70941 0.15398
 C2719 C 0.08499 0.70802 0.14055
 C2720 C 0.06578 0.71689 0.15173
 N2721 N 0.12802 0.72225 0.19235
 N2722 N 0.14523 0.71329 0.18284
 C2723 C 0.16708 0.71556 0.19384
 C2724 C 0.18423 0.70543 0.18030
 C2725 C 0.20607 0.70870 0.18828
 C2726 C 0.21144 0.72189 0.21061
 C2727 C 0.19404 0.73169 0.22472
 C2728 C 0.17194 0.72856 0.21638
 H2729 H 0.05287 0.73384 0.18612
 H2730 H 0.08892 0.73669 0.20934
 H2731 H 0.11987 0.70263 0.14463
 H2732 H 0.08439 0.70040 0.12113
 H2733 H 0.18066 0.69549 0.16283
 H2734 H 0.21875 0.70105 0.17646
 H2735 H 0.19745 0.74233 0.24158
 H2736 H 0.15880 0.73669 0.22703
   
