data_POSCAR
  _audit_creation_date              2014-09-24
  _audit_creation_method            'ToBaCCo'
  _symmetry_space_group_name_H-M    'P1'
  _symmetry_Int_Tables_number       1
  _symmetry_cell_setting            triclinic
  loop_
  _symmetry_equiv_pos_as_xyz
 x,y,z
_cell_length_a 88.5917
_cell_length_b 88.7153
_cell_length_c 88.9845
_cell_angle_alpha 89.966000
_cell_angle_beta 89.961700
_cell_angle_gamma 89.933800
loop_
  _atom_site_label
  _atom_site_type_symbol
  _atom_site_fract_x
  _atom_site_fract_y
  _atom_site_fract_z
N1 N 0.35990 0.31806 0.32898
 N2 N 0.35981 0.32866 0.31864
 C3 C 0.37162 0.32654 0.30931
 C4 C 0.37942 0.31400 0.31415
 C5 C 0.37175 0.30884 0.32660
 H6 H 0.37444 0.33362 0.29981
 H7 H 0.37465 0.29920 0.33347
 Cu8 Cu 0.34442 0.34430 0.31863
 Cu9 Cu 0.34487 0.31716 0.34495
 Cu10 Cu 0.31720 0.34488 0.34492
 N11 N 0.32881 0.35974 0.31860
 N12 N 0.31817 0.35987 0.32893
 C13 C 0.30898 0.37172 0.32652
 C14 C 0.31418 0.37934 0.31406
 C15 C 0.32674 0.37152 0.30925
 H16 H 0.29932 0.37465 0.33336
 H17 H 0.33384 0.37430 0.29976
 N18 N 0.31816 0.32876 0.36014
 N19 N 0.32870 0.31821 0.36015
 C20 C 0.32652 0.30908 0.37207
 C21 C 0.31407 0.31419 0.37982
 C22 C 0.30901 0.32663 0.37205
 H23 H 0.33352 0.29953 0.37499
 H24 H 0.29946 0.33365 0.37497
 H25 H 0.32788 0.32784 0.33313
 H26 H 0.33999 0.33991 0.34532
 N27 N 0.36032 0.81838 -0.17130
 N28 N 0.36008 0.82884 -0.18179
 C29 C 0.37195 0.82679 -0.19106
 C30 C 0.37991 0.81442 -0.18603
 C31 C 0.37231 0.80931 -0.17352
 H32 H 0.37467 0.83378 -0.20064
 H33 H 0.37532 0.79979 -0.16652
 Cu34 Cu 0.34443 0.84426 -0.18218
 Cu35 Cu 0.34527 0.81749 -0.15537
 Cu36 Cu 0.31762 0.84516 -0.15538
 N37 N 0.32904 0.85993 -0.18179
 N38 N 0.31856 0.86018 -0.17130
 C39 C 0.30947 0.87215 -0.17354
 C40 C 0.31461 0.87973 -0.18606
 C41 C 0.32699 0.87177 -0.19108
 H42 H 0.29992 0.87515 -0.16657
 H43 H 0.33397 0.87445 -0.20068
 N44 N 0.31856 0.82901 -0.14019
 N45 N 0.32911 0.81847 -0.14019
 C46 C 0.32689 0.80929 -0.12832
 C47 C 0.31442 0.81435 -0.12058
 C48 C 0.30937 0.82681 -0.12832
 H49 H 0.33387 0.79971 -0.12543
 H50 H 0.29978 0.83379 -0.12543
 H51 H 0.32813 0.82801 -0.16714
 H52 H 0.34046 0.84030 -0.15535
 N53 N 0.85956 0.31847 -0.17135
 N54 N 0.85939 0.32901 -0.18177
 C55 C 0.87119 0.32687 -0.19111
 C56 C 0.87904 0.31438 -0.18622
 C57 C 0.87144 0.30929 -0.17370
 H58 H 0.87399 0.33393 -0.20063
 H59 H 0.87444 0.29975 -0.16673
 Cu60 Cu 0.84400 0.34467 -0.18173
 Cu61 Cu 0.84467 0.31771 -0.15525
 Cu62 Cu 0.81705 0.34549 -0.15520
 N63 N 0.82844 0.36016 -0.18171
 N64 N 0.81791 0.36038 -0.17127
 C65 C 0.80876 0.37229 -0.17360
 C66 C 0.81390 0.37985 -0.18612
 C67 C 0.82636 0.37196 -0.19105
 H68 H 0.79922 0.37531 -0.16662
 H69 H 0.83341 0.37469 -0.20060
 N70 N 0.81812 0.32944 -0.13989
 N71 N 0.82864 0.31886 -0.13991
 C72 C 0.82648 0.30975 -0.12798
 C73 C 0.81408 0.31489 -0.12018
 C74 C 0.80900 0.32732 -0.12795
 H75 H 0.83342 0.30014 -0.12511
 H76 H 0.79943 0.33431 -0.12505
 H77 H 0.82758 0.32837 -0.16695
 H78 H 0.83984 0.34050 -0.15496
 N79 N 0.85958 0.81847 0.32882
 N80 N 0.85941 0.82901 0.31842
 C81 C 0.87125 0.82693 0.30913
 C82 C 0.87913 0.81446 0.31403
 C83 C 0.87150 0.80932 0.32651
 H84 H 0.87404 0.83399 0.29962
 H85 H 0.87448 0.79977 0.33346
 Cu86 Cu 0.84397 0.84463 0.31832
 Cu87 Cu 0.84459 0.81761 0.34481
 Cu88 Cu 0.81693 0.84532 0.34485
 N89 N 0.82839 0.86012 0.31847
 N90 N 0.81783 0.86030 0.32888
 C91 C 0.80870 0.87223 0.32659
 C92 C 0.81387 0.87983 0.31410
 C93 C 0.82634 0.87195 0.30917
 H94 H 0.79913 0.87522 0.33354
 H95 H 0.83340 0.87470 0.29965
 N96 N 0.81794 0.82920 0.36007
 N97 N 0.82848 0.81865 0.36005
 C98 C 0.82628 0.80948 0.37193
 C99 C 0.81383 0.81456 0.37970
 C100 C 0.80876 0.82701 0.37196
 H101 H 0.83325 0.79989 0.37482
 H102 H 0.79918 0.83399 0.37486
 H103 H 0.82753 0.82827 0.33305
 H104 H 0.83975 0.84042 0.34508
 N105 N 0.64024 0.68195 0.32908
 N106 N 0.64033 0.67130 0.31879
 C107 C 0.62849 0.67336 0.30950
 C108 C 0.62069 0.68591 0.31430
 C109 C 0.62837 0.69113 0.32670
 H110 H 0.62565 0.66623 0.30007
 H111 H 0.62545 0.70078 0.33355
 Cu112 Cu 0.65571 0.65564 0.31885
 Cu113 Cu 0.65526 0.68290 0.34502
 Cu114 Cu 0.68295 0.65520 0.34509
 N115 N 0.67135 0.64024 0.31887
 N116 N 0.68200 0.64015 0.32918
 C117 C 0.69118 0.62828 0.32682
 C118 C 0.68596 0.62061 0.31442
 C119 C 0.67341 0.62841 0.30960
 H120 H 0.70084 0.62537 0.33367
 H121 H 0.66629 0.62560 0.30014
 N122 N 0.68198 0.67138 0.36023
 N123 N 0.67143 0.68193 0.36020
 C124 C 0.67361 0.69110 0.37207
 C125 C 0.68607 0.68604 0.37982
 C126 C 0.69114 0.67358 0.37211
 H127 H 0.66660 0.70065 0.37497
 H128 H 0.70069 0.66658 0.37504
 H129 H 0.67225 0.67215 0.33324
 H130 H 0.66015 0.66012 0.34552
 N131 N 0.64023 0.18140 -0.17096
 N132 N 0.64040 0.17084 -0.18135
 C133 C 0.62853 0.17287 -0.19060
 C134 C 0.62062 0.18532 -0.18569
 C135 C 0.62828 0.19050 -0.17326
 H136 H 0.62576 0.16582 -0.20012
 H137 H 0.62531 0.20009 -0.16636
 Cu138 Cu 0.65595 0.15534 -0.18148
 Cu139 Cu 0.65532 0.18238 -0.15506
 Cu140 Cu 0.68311 0.15479 -0.15514
 N141 N 0.67158 0.13993 -0.18146
 N142 N 0.68218 0.13978 -0.17110
 C143 C 0.69135 0.12790 -0.17345
 C144 C 0.68616 0.12028 -0.18590
 C145 C 0.67364 0.12811 -0.19077
 H146 H 0.70097 0.12495 -0.16656
 H147 H 0.66654 0.12533 -0.20025
 N148 N 0.68212 0.17094 -0.13995
 N149 N 0.67153 0.18145 -0.13994
 C150 C 0.67372 0.19062 -0.12807
 C151 C 0.68622 0.18560 -0.12035
 C152 C 0.69131 0.17315 -0.12809
 H153 H 0.66669 0.20015 -0.12516
 H154 H 0.70090 0.16618 -0.12520
 H155 H 0.67239 0.17180 -0.16689
 H156 H 0.66029 0.15961 -0.15476
 N157 N 0.14017 0.68187 -0.17099
 N158 N 0.14034 0.67131 -0.18138
 C159 C 0.12852 0.67340 -0.19068
 C160 C 0.12064 0.68587 -0.18579
 C161 C 0.12826 0.69102 -0.17333
 H162 H 0.12576 0.66636 -0.20021
 H163 H 0.12530 0.70060 -0.16641
 Cu164 Cu 0.15581 0.65574 -0.18139
 Cu165 Cu 0.15517 0.68276 -0.15501
 Cu166 Cu 0.18290 0.65508 -0.15504
 N167 N 0.17141 0.64030 -0.18142
 N168 N 0.18199 0.64012 -0.17105
 C169 C 0.19113 0.62821 -0.17339
 C170 C 0.18595 0.62061 -0.18585
 C171 C 0.17347 0.62849 -0.19072
 H172 H 0.20071 0.62522 -0.16647
 H173 H 0.16638 0.62573 -0.20022
 N174 N 0.18188 0.67118 -0.13982
 N175 N 0.17132 0.68172 -0.13981
 C176 C 0.17351 0.69087 -0.12792
 C177 C 0.18597 0.68579 -0.12018
 C178 C 0.19105 0.67335 -0.12793
 H179 H 0.16652 0.70043 -0.12501
 H180 H 0.20062 0.66636 -0.12504
 H181 H 0.17225 0.67214 -0.16677
 H182 H 0.16010 0.65998 -0.15467
 N183 N 0.14004 0.18178 0.32913
 N184 N 0.14016 0.17116 0.31881
 C185 C 0.12833 0.17321 0.30951
 C186 C 0.12049 0.18573 0.31433
 C187 C 0.12815 0.19094 0.32675
 H188 H 0.12554 0.16612 0.30004
 H189 H 0.12523 0.20060 0.33359
 Cu190 Cu 0.15562 0.15558 0.31880
 Cu191 Cu 0.15509 0.18277 0.34504
 Cu192 Cu 0.18289 0.15517 0.34500
 N193 N 0.17132 0.14023 0.31876
 N194 N 0.18197 0.14015 0.32906
 C195 C 0.19118 0.12830 0.32668
 C196 C 0.18597 0.12063 0.31427
 C197 C 0.17340 0.12842 0.30947
 H198 H 0.20084 0.12540 0.33353
 H199 H 0.16627 0.12558 0.30003
 N200 N 0.18187 0.17132 0.36018
 N201 N 0.17129 0.18183 0.36019
 C202 C 0.17346 0.19099 0.37207
 C203 C 0.18595 0.18595 0.37979
 C204 C 0.19105 0.17352 0.37204
 H205 H 0.16643 0.20052 0.37500
 H206 H 0.20063 0.16656 0.37494
 H207 H 0.17211 0.17211 0.33322
 H208 H 0.16007 0.16000 0.34548
 N209 N 0.64007 0.31830 0.67105
 N210 N 0.64015 0.32890 0.68139
 C211 C 0.62832 0.32681 0.69069
 C212 C 0.62052 0.31430 0.68584
 C213 C 0.62820 0.30912 0.67340
 H214 H 0.62550 0.33389 0.70017
 H215 H 0.62530 0.29950 0.66653
 Cu216 Cu 0.65556 0.34451 0.68142
 Cu217 Cu 0.65510 0.31739 0.65509
 Cu218 Cu 0.68283 0.34498 0.65517
 N219 N 0.67126 0.35984 0.68149
 N220 N 0.68191 0.35993 0.67117
 C221 C 0.69112 0.37175 0.67358
 C222 C 0.68591 0.37940 0.68602
 C223 C 0.67334 0.37162 0.69081
 H224 H 0.70077 0.37466 0.66672
 H225 H 0.66620 0.37445 0.70027
 N226 N 0.68183 0.32890 0.63992
 N227 N 0.67128 0.31839 0.63991
 C228 C 0.67347 0.30924 0.62801
 C229 C 0.68594 0.31430 0.62027
 C230 C 0.69102 0.32671 0.62804
 H231 H 0.66649 0.29970 0.62510
 H232 H 0.70061 0.33367 0.62515
 H233 H 0.67209 0.32802 0.66694
 H234 H 0.66002 0.34016 0.65472
 N235 N 0.64012 0.81831 1.17108
 N236 N 0.64038 0.82873 1.18159
 C237 C 0.62852 0.82670 1.19085
 C238 C 0.62052 0.81439 1.18583
 C239 C 0.62811 0.80929 1.17331
 H240 H 0.62580 0.83368 1.20044
 H241 H 0.62505 0.79982 1.16629
 Cu242 Cu 0.65602 0.84411 1.18199
 Cu243 Cu 0.65512 0.81741 1.15513
 Cu244 Cu 0.68274 0.84505 1.15508
 N245 N 0.67137 0.85977 1.18152
 N246 N 0.68182 0.86005 1.17101
 C247 C 0.69084 0.87206 1.17321
 C248 C 0.68572 0.87963 1.18573
 C249 C 0.67340 0.87162 1.19078
 H250 H 0.70033 0.87511 1.16619
 H251 H 0.66642 0.87430 1.20039
 N252 N 0.68178 0.82893 1.13990
 N253 N 0.67125 0.81840 1.13992
 C254 C 0.67345 0.80922 1.12805
 C255 C 0.68591 0.81428 1.12030
 C256 C 0.69097 0.82673 1.12802
 H257 H 0.66649 0.79965 1.12518
 H258 H 0.70054 0.83369 1.12512
 H259 H 0.67228 0.82788 1.16685
 H260 H 0.65989 0.84022 1.15513
 N261 N 0.13996 0.31850 1.17092
 N262 N 0.14019 0.32896 1.18140
 C263 C 0.12830 0.32694 1.19064
 C264 C 0.12032 0.31461 1.18562
 C265 C 0.12795 0.30948 1.17314
 H266 H 0.12558 0.33392 1.20023
 H267 H 0.12495 0.29996 1.16617
 Cu268 Cu 0.15585 0.34431 1.18184
 Cu269 Cu 0.15505 0.31756 1.15504
 Cu270 Cu 0.18270 0.34517 1.15508
 N271 N 0.17122 0.35994 1.18145
 N272 N 0.18172 0.36018 1.17099
 C273 C 0.19074 0.37218 1.17321
 C274 C 0.18557 0.37979 1.18569
 C275 C 0.17321 0.37181 1.19069
 H276 H 0.20026 0.37521 1.16623
 H277 H 0.16618 0.37452 1.20026
 N278 N 0.18180 0.32902 1.13992
 N279 N 0.17126 0.31850 1.13991
 C280 C 0.17352 0.30929 1.12808
 C281 C 0.18602 0.31432 1.12036
 C282 C 0.19104 0.32679 1.12809
 H283 H 0.16657 0.29971 1.12520
 H284 H 0.20064 0.33374 1.12522
 H285 H 0.17217 0.32805 1.16680
 H286 H 0.15985 0.34038 1.15501
 N287 N 0.14003 0.81848 0.67097
 N288 N 0.14029 0.82891 0.68147
 C289 C 0.12843 0.82688 0.69074
 C290 C 0.12043 0.81456 0.68573
 C291 C 0.12803 0.80946 0.67321
 H292 H 0.12574 0.83385 0.70035
 H293 H 0.12499 0.79997 0.66621
 Cu294 Cu 0.15597 0.84426 0.68187
 Cu295 Cu 0.15505 0.81755 0.65503
 Cu296 Cu 0.18273 0.84513 0.65500
 N297 N 0.17137 0.85988 0.68143
 N298 N 0.18182 0.86013 0.67093
 C299 C 0.19088 0.87210 0.67315
 C300 C 0.18577 0.87968 0.68566
 C301 C 0.17341 0.87172 0.69070
 H302 H 0.20038 0.87513 0.66614
 H303 H 0.16643 0.87441 0.70030
 N304 N 0.18175 0.82901 0.63982
 N305 N 0.17120 0.81850 0.63983
 C306 C 0.17339 0.80933 0.62796
 C307 C 0.18586 0.81438 0.62020
 C308 C 0.19093 0.82681 0.62794
 H309 H 0.16641 0.79978 0.62507
 H310 H 0.20051 0.83377 0.62503
 H311 H 0.17223 0.82799 0.66676
 H312 H 0.15988 0.84035 0.65502
 N313 N 0.35987 0.68180 0.67104
 N314 N 0.35965 0.67132 0.68151
 C315 C 0.37151 0.67335 0.69076
 C316 C 0.37947 0.68572 0.68577
 C317 C 0.37186 0.69085 0.67328
 H318 H 0.37424 0.66634 0.70033
 H319 H 0.37488 0.70037 0.66630
 Cu320 Cu 0.34404 0.65591 0.68189
 Cu321 Cu 0.34483 0.68275 0.65514
 Cu322 Cu 0.31727 0.65505 0.65506
 N323 N 0.32871 0.64021 0.68141
 N324 N 0.31826 0.63996 0.67092
 C325 C 0.30925 0.62794 0.67312
 C326 C 0.31439 0.62033 0.68561
 C327 C 0.32671 0.62832 0.69064
 H328 H 0.29974 0.62492 0.66613
 H329 H 0.33368 0.62563 0.70025
 N330 N 0.31816 0.67126 0.63994
 N331 N 0.32867 0.68181 0.63997
 C332 C 0.32643 0.69103 0.62813
 C333 C 0.31398 0.68598 0.62038
 C334 C 0.30896 0.67349 0.62808
 H335 H 0.33340 0.70060 0.62524
 H336 H 0.29942 0.66649 0.62515
 H337 H 0.32770 0.67217 0.66687
 H338 H 0.34010 0.65991 0.65506
 N339 N 0.36002 0.18169 1.17105
 N340 N 0.35983 0.17115 1.18147
 C341 C 0.37162 0.17323 1.19080
 C342 C 0.37950 0.18568 1.18590
 C343 C 0.37191 0.19082 1.17339
 H344 H 0.37436 0.16620 1.20034
 H345 H 0.37490 0.20038 1.16646
 Cu346 Cu 0.34436 0.15562 1.18149
 Cu347 Cu 0.34507 0.18258 1.15502
 Cu348 Cu 0.31733 0.15498 1.15509
 N349 N 0.32874 0.14023 1.18154
 N350 N 0.31817 0.14007 1.17116
 C351 C 0.30902 0.12820 1.17352
 C352 C 0.31416 0.12060 1.18601
 C353 C 0.32665 0.12845 1.19088
 H354 H 0.29946 0.12521 1.16658
 H355 H 0.33373 0.12566 1.20038
 N356 N 0.31842 0.17103 1.13979
 N357 N 0.32898 0.18154 1.13977
 C358 C 0.32681 0.19067 1.12785
 C359 C 0.31437 0.18561 1.12010
 C360 C 0.30927 0.17320 1.12789
 H361 H 0.33379 0.20023 1.12494
 H362 H 0.29967 0.16626 1.12502
 H363 H 0.32797 0.17204 1.16680
 H364 H 0.34015 0.15982 1.15475
 N365 N 0.85997 0.68164 1.17091
 N366 N 0.85972 0.67118 1.18139
 C367 C 0.87162 0.67317 1.19062
 C368 C 0.87961 0.68550 1.18559
 C369 C 0.87199 0.69065 1.17311
 H370 H 0.87431 0.66619 1.20021
 H371 H 0.87500 0.70017 1.16614
 Cu372 Cu 0.84406 0.65583 1.18187
 Cu373 Cu 0.84486 0.68264 1.15508
 Cu374 Cu 0.81724 0.65502 1.15508
 N375 N 0.82871 0.64017 1.18139
 N376 N 0.81825 0.63992 1.17092
 C377 C 0.80924 0.62790 1.17311
 C378 C 0.81440 0.62028 1.18559
 C379 C 0.82673 0.62828 1.19062
 H380 H 0.79973 0.62488 1.16613
 H381 H 0.83372 0.62557 1.20021
 N382 N 0.81811 0.67124 1.13998
 N383 N 0.82864 0.68177 1.13998
 C384 C 0.82639 0.69099 1.12815
 C385 C 0.81390 0.68597 1.12044
 C386 C 0.80888 0.67348 1.12815
 H387 H 0.83338 0.70055 1.12524
 H388 H 0.79933 0.66650 1.12523
 H389 H 0.82774 0.67213 1.16686
 H390 H 0.84009 0.65982 1.15505
 N391 N 0.85975 0.18192 0.67116
 N392 N 0.85959 0.17137 0.68156
 C393 C 0.87137 0.17347 0.69090
 C394 C 0.87922 0.18595 0.68602
 C395 C 0.87162 0.19108 0.67352
 H396 H 0.87416 0.16640 0.70041
 H397 H 0.87461 0.20063 0.66657
 Cu398 Cu 0.84420 0.15574 0.68153
 Cu399 Cu 0.84483 0.18275 0.65510
 Cu400 Cu 0.81723 0.15501 0.65506
 N401 N 0.82866 0.14028 0.68152
 N402 N 0.81812 0.14008 0.67111
 C403 C 0.80900 0.12817 0.67344
 C404 C 0.81415 0.12059 0.68595
 C405 C 0.82659 0.12848 0.69085
 H406 H 0.79945 0.12517 0.66650
 H407 H 0.83364 0.12573 0.70038
 N408 N 0.81826 0.17108 0.63980
 N409 N 0.82877 0.18164 0.63981
 C410 C 0.82660 0.19077 0.62789
 C411 C 0.81419 0.18565 0.62011
 C412 C 0.80913 0.17322 0.62787
 H413 H 0.83355 0.20035 0.62499
 H414 H 0.79959 0.16622 0.62496
 H415 H 0.82776 0.17210 0.66682
 H416 H 0.84002 0.15996 0.65478
 N417 N 0.31809 0.35987 0.67106
 N418 N 0.32850 0.35953 0.68160
 C419 C 0.32644 0.37136 0.69089
 C420 C 0.31413 0.37940 0.68584
 C421 C 0.30906 0.37188 0.67328
 H422 H 0.33340 0.37400 0.70051
 H423 H 0.29960 0.37498 0.66625
 Cu424 Cu 0.34389 0.34388 0.68202
 Cu425 Cu 0.31722 0.34493 0.65508
 Cu426 Cu 0.34493 0.31734 0.65500
 N427 N 0.35962 0.32856 0.68149
 N428 N 0.35995 0.31820 0.67091
 C429 C 0.37199 0.30918 0.67309
 C430 C 0.37954 0.31422 0.68565
 C431 C 0.37147 0.32649 0.69075
 H432 H 0.37507 0.29974 0.66605
 H433 H 0.37410 0.33338 0.70041
 N434 N 0.32879 0.31834 0.63982
 N435 N 0.31823 0.32887 0.63984
 C436 C 0.30905 0.32670 0.62797
 C437 C 0.31414 0.31427 0.62020
 C438 C 0.32661 0.30920 0.62793
 H439 H 0.29945 0.33367 0.62510
 H440 H 0.33360 0.29964 0.62502
 H441 H 0.32770 0.32772 0.66678
 H442 H 0.34008 0.34015 0.65515
 N443 N 0.31827 0.86016 0.17077
 N444 N 0.32885 0.86000 0.18114
 C445 C 0.32678 0.87181 0.19044
 C446 C 0.31428 0.87967 0.18557
 C447 C 0.30912 0.87205 0.17311
 H448 H 0.33386 0.87459 0.19993
 H449 H 0.29951 0.87501 0.16621
 Cu450 Cu 0.34446 0.84456 0.18122
 Cu451 Cu 0.31734 0.84517 0.15482
 Cu452 Cu 0.34507 0.81751 0.15478
 N453 N 0.35996 0.82901 0.18108
 N454 N 0.36011 0.81845 0.17070
 C455 C 0.37203 0.80931 0.17301
 C456 C 0.37968 0.81447 0.18546
 C457 C 0.37180 0.82694 0.19035
 H458 H 0.37497 0.79970 0.16613
 H459 H 0.37457 0.83398 0.19987
 N460 N 0.32888 0.81850 0.13963
 N461 N 0.31833 0.82904 0.13963
 C462 C 0.30915 0.82685 0.12776
 C463 C 0.31422 0.81439 0.12003
 C464 C 0.32669 0.80933 0.12776
 H465 H 0.29957 0.83383 0.12486
 H466 H 0.33368 0.79976 0.12486
 H467 H 0.32802 0.82814 0.16662
 H468 H 0.34017 0.84031 0.15450
 N469 N 0.81810 0.36012 0.17082
 N470 N 0.82862 0.35989 0.18125
 C471 C 0.82654 0.37168 0.19058
 C472 C 0.81412 0.37962 0.18564
 C473 C 0.80898 0.37205 0.17314
 H474 H 0.83357 0.37441 0.20012
 H475 H 0.79943 0.37506 0.16620
 Cu476 Cu 0.84410 0.34433 0.18143
 Cu477 Cu 0.81723 0.34518 0.15482
 Cu478 Cu 0.84494 0.31752 0.15479
 N479 N 0.85971 0.32889 0.18121
 N480 N 0.85992 0.31839 0.17077
 C481 C 0.87187 0.30928 0.17307
 C482 C 0.87947 0.31440 0.18556
 C483 C 0.87152 0.32680 0.19052
 H484 H 0.87486 0.29972 0.16613
 H485 H 0.87425 0.33380 0.20008
 N486 N 0.82882 0.31857 0.13957
 N487 N 0.81827 0.32911 0.13957
 C488 C 0.80912 0.32696 0.12767
 C489 C 0.81421 0.31452 0.11992
 C490 C 0.82665 0.30944 0.12767
 H491 H 0.79954 0.33394 0.12477
 H492 H 0.83364 0.29987 0.12477
 H493 H 0.82776 0.32802 0.16660
 H494 H 0.84004 0.34029 0.15468
 N495 N 0.81819 0.86045 0.67084
 N496 N 0.82876 0.86026 0.68123
 C497 C 0.82670 0.87209 0.69051
 C498 C 0.81422 0.87998 0.68562
 C499 C 0.80906 0.87237 0.67316
 H500 H 0.83375 0.87484 0.70003
 H501 H 0.79947 0.87534 0.66624
 Cu502 Cu 0.84433 0.84477 0.68138
 Cu503 Cu 0.81727 0.84544 0.65491
 Cu504 Cu 0.84490 0.81770 0.65496
 N505 N 0.85977 0.82915 0.68126
 N506 N 0.85991 0.81858 0.67090
 C507 C 0.87183 0.80943 0.67321
 C508 C 0.87948 0.81459 0.68566
 C509 C 0.87162 0.82708 0.69053
 H510 H 0.87479 0.79984 0.66630
 H511 H 0.87442 0.83415 0.70002
 N512 N 0.82877 0.81873 0.63975
 N513 N 0.81825 0.82930 0.63973
 C514 C 0.80906 0.82710 0.62787
 C515 C 0.81410 0.81462 0.62016
 C516 C 0.82655 0.80954 0.62791
 H517 H 0.79948 0.83408 0.62497
 H518 H 0.83349 0.79993 0.62505
 H519 H 0.82787 0.82839 0.66674
 H520 H 0.84009 0.84051 0.65464
 N521 N 0.68198 0.64011 0.67125
 N522 N 0.67145 0.64031 0.68168
 C523 C 0.67351 0.62849 0.69098
 C524 C 0.68595 0.62056 0.68605
 C525 C 0.69110 0.62816 0.67355
 H526 H 0.66645 0.62573 0.70051
 H527 H 0.70064 0.62515 0.66658
 Cu528 Cu 0.65582 0.65574 0.68180
 Cu529 Cu 0.68285 0.65508 0.65526
 Cu530 Cu 0.65511 0.68271 0.65523
 N531 N 0.64032 0.67131 0.68165
 N532 N 0.64010 0.68182 0.67121
 C533 C 0.62814 0.69092 0.67351
 C534 C 0.62053 0.68579 0.68601
 C535 C 0.62848 0.67338 0.69095
 H536 H 0.62513 0.70045 0.66654
 H537 H 0.62574 0.66635 0.70050
 N538 N 0.67126 0.68171 0.64002
 N539 N 0.68182 0.67118 0.64002
 C540 C 0.69100 0.67337 0.62813
 C541 C 0.68591 0.68581 0.62038
 C542 C 0.67344 0.69087 0.62813
 H543 H 0.70058 0.66640 0.62522
 H544 H 0.66643 0.70042 0.62521
 H545 H 0.67219 0.67211 0.66702
 H546 H 0.65998 0.65988 0.65500
 N547 N 0.68168 0.13938 0.17037
 N548 N 0.67148 0.13986 0.18112
 C549 C 0.67411 0.12852 0.19086
 C550 C 0.68654 0.12063 0.18588
 C551 C 0.69111 0.12774 0.17288
 H552 H 0.66735 0.12600 0.20067
 H553 H 0.70038 0.12450 0.16565
 Cu554 Cu 0.65538 0.15479 0.18094
 Cu555 Cu 0.68133 0.15328 0.15346
 Cu556 Cu 0.65556 0.18265 0.15518
 N557 N 0.64008 0.17055 0.18090
 N558 N 0.64034 0.18150 0.17093
 C559 C 0.62854 0.19077 0.17337
 C560 C 0.62056 0.18529 0.18549
 C561 C 0.62811 0.17250 0.19005
 H562 H 0.62588 0.20066 0.16677
 H563 H 0.62506 0.16517 0.19928
 N564 N 0.67176 0.18159 0.14002
 N565 N 0.68148 0.17031 0.13926
 C566 C 0.69072 0.17252 0.12743
 C567 C 0.68653 0.18575 0.12048
 C568 C 0.67453 0.19125 0.12866
 H569 H 0.69969 0.16499 0.12400
 H570 H 0.66813 0.20137 0.12630
 H571 H 0.67230 0.17049 0.16618
 H572 H 0.65872 0.15988 0.15412
 N573 N 0.18173 0.63996 0.17070
 N574 N 0.17108 0.64006 0.18102
 C575 C 0.17313 0.62823 0.19031
 C576 C 0.18569 0.62042 0.18550
 C577 C 0.19091 0.62808 0.17307
 H578 H 0.16600 0.62541 0.19976
 H579 H 0.20056 0.62515 0.16621
 Cu580 Cu 0.15541 0.65543 0.18098
 Cu581 Cu 0.18267 0.65496 0.15473
 Cu582 Cu 0.15495 0.68264 0.15473
 N583 N 0.14000 0.67107 0.18099
 N584 N 0.13991 0.68170 0.17067
 C585 C 0.12803 0.69088 0.17304
 C586 C 0.12035 0.68567 0.18547
 C587 C 0.12816 0.67313 0.19028
 H588 H 0.12513 0.70053 0.16620
 H589 H 0.12534 0.66602 0.19976
 N590 N 0.17113 0.68166 0.13954
 N591 N 0.18168 0.67112 0.13953
 C592 C 0.19089 0.67334 0.12767
 C593 C 0.18584 0.68581 0.11995
 C594 C 0.17336 0.69086 0.12768
 H595 H 0.20050 0.66638 0.12479
 H596 H 0.16640 0.70045 0.12481
 H597 H 0.17194 0.67193 0.16653
 H598 H 0.15986 0.65986 0.15429
 N599 N 0.18170 0.13944 0.67097
 N600 N 0.17122 0.13968 0.68146
 C601 C 0.17327 0.12782 0.69071
 C602 C 0.18564 0.11984 0.68569
 C603 C 0.19076 0.12745 0.67319
 H604 H 0.16630 0.12513 0.70032
 H605 H 0.20031 0.12445 0.66623
 Cu606 Cu 0.15584 0.15535 0.68193
 Cu607 Cu 0.18268 0.15454 0.65513
 Cu608 Cu 0.15503 0.18221 0.65520
 N609 N 0.14017 0.17074 0.68153
 N610 N 0.13994 0.18123 0.67107
 C611 C 0.12795 0.19030 0.67332
 C612 C 0.12033 0.18516 0.68580
 C613 C 0.12829 0.17278 0.69079
 H614 H 0.12496 0.19985 0.66637
 H615 H 0.12558 0.16579 0.70038
 N616 N 0.17124 0.18131 0.64006
 N617 N 0.18178 0.17076 0.64002
 C618 C 0.19097 0.17299 0.62815
 C619 C 0.18593 0.18550 0.62046
 C620 C 0.17346 0.19053 0.62822
 H621 H 0.20052 0.16599 0.62520
 H622 H 0.16646 0.20010 0.62534
 H623 H 0.17217 0.17164 0.66696
 H624 H 0.15984 0.15939 0.65512
 N625 N 0.31800 0.64005 0.32878
 N626 N 0.32859 0.64020 0.31840
 C627 C 0.32651 0.62842 0.30907
 C628 C 0.31400 0.62059 0.31393
 C629 C 0.30883 0.62819 0.32640
 H630 H 0.33359 0.62565 0.29956
 H631 H 0.29921 0.62525 0.33329
 Cu632 Cu 0.34418 0.65561 0.31842
 Cu633 Cu 0.31706 0.65501 0.34478
 Cu634 Cu 0.34480 0.68262 0.34481
 N635 N 0.35966 0.67113 0.31843
 N636 N 0.35982 0.68168 0.32882
 C637 C 0.37170 0.69083 0.32645
 C638 C 0.37932 0.68568 0.31397
 C639 C 0.37146 0.67321 0.30909
 H640 H 0.37464 0.70044 0.33332
 H641 H 0.37421 0.66618 0.29955
 N642 N 0.32864 0.68162 0.36002
 N643 N 0.31808 0.67111 0.36001
 C644 C 0.30891 0.67329 0.37191
 C645 C 0.31399 0.68572 0.37966
 C646 C 0.32646 0.69076 0.37191
 H647 H 0.29934 0.66632 0.37482
 H648 H 0.33347 0.70029 0.37483
 H649 H 0.32771 0.67206 0.33305
 H650 H 0.33984 0.65988 0.34514
 N651 N 0.31805 0.13988 0.82892
 N652 N 0.32860 0.14007 0.81851
 C653 C 0.32655 0.12826 0.80921
 C654 C 0.31410 0.12037 0.81413
 C655 C 0.30893 0.12796 0.82661
 H656 H 0.33362 0.12550 0.79969
 H657 H 0.29937 0.12497 0.83356
 Cu658 Cu 0.34415 0.15553 0.81848
 Cu659 Cu 0.31713 0.15482 0.84494
 Cu660 Cu 0.34475 0.18254 0.84487
 N661 N 0.35954 0.17115 0.81842
 N662 N 0.35970 0.18169 0.82881
 C663 C 0.37158 0.19085 0.82645
 C664 C 0.37920 0.18572 0.81395
 C665 C 0.37135 0.17324 0.80908
 H666 H 0.37456 0.20039 0.83339
 H667 H 0.37414 0.16618 0.79958
 N668 N 0.32867 0.18146 0.86015
 N669 N 0.31814 0.17092 0.86017
 C670 C 0.30900 0.17307 0.87209
 C671 C 0.31406 0.18550 0.87984
 C672 C 0.32649 0.19059 0.87206
 H673 H 0.29944 0.16608 0.87502
 H674 H 0.33346 0.20016 0.87495
 H675 H 0.32769 0.17190 0.83316
 H676 H 0.33992 0.15976 0.84522
 N677 N 0.81829 0.63977 0.82913
 N678 N 0.82886 0.63993 0.81874
 C679 C 0.82683 0.62808 0.80949
 C680 C 0.81437 0.62020 0.81441
 C681 C 0.80918 0.62785 0.82685
 H682 H 0.83390 0.62531 0.79997
 H683 H 0.79957 0.62491 0.83376
 Cu684 Cu 0.84438 0.65543 0.81854
 Cu685 Cu 0.81730 0.65483 0.84502
 Cu686 Cu 0.84487 0.68256 0.84489
 N687 N 0.85978 0.67105 0.81858
 N688 N 0.85989 0.68164 0.82893
 C689 C 0.87178 0.69079 0.82659
 C690 C 0.87946 0.68561 0.81415
 C691 C 0.87163 0.67311 0.80929
 H692 H 0.87470 0.70039 0.83348
 H693 H 0.87446 0.66602 0.79982
 N694 N 0.82873 0.68158 0.86010
 N695 N 0.81822 0.67102 0.86015
 C696 C 0.80902 0.67325 0.87201
 C697 C 0.81404 0.68574 0.87970
 C698 C 0.82649 0.69079 0.87193
 H699 H 0.79948 0.66625 0.87496
 H700 H 0.83345 0.70037 0.87480
 H701 H 0.82787 0.67183 0.83315
 H702 H 0.84011 0.65974 0.84526
 N703 N 0.81832 0.13969 0.32910
 N704 N 0.82878 0.13994 0.31860
 C705 C 0.82677 0.12808 0.30937
 C706 C 0.81444 0.12008 0.31441
 C707 C 0.80930 0.12768 0.32690
 H708 H 0.83375 0.12540 0.29976
 H709 H 0.79978 0.12466 0.33390
 Cu710 Cu 0.84410 0.15565 0.31810
 Cu711 Cu 0.81731 0.15476 0.34495
 Cu712 Cu 0.84488 0.18245 0.34486
 N713 N 0.85973 0.17105 0.31849
 N714 N 0.85994 0.18151 0.32896
 C715 C 0.87191 0.19058 0.32671
 C716 C 0.87952 0.18548 0.31420
 C717 C 0.87158 0.17311 0.30922
 H718 H 0.87490 0.20011 0.33368
 H719 H 0.87430 0.16613 0.29963
 N720 N 0.82870 0.18151 0.36002
 N721 N 0.81818 0.17096 0.36005
 C722 C 0.80899 0.17316 0.37193
 C723 C 0.81401 0.18564 0.37963
 C724 C 0.82647 0.19070 0.37187
 H725 H 0.79946 0.16615 0.37488
 H726 H 0.83345 0.20025 0.37477
 H727 H 0.82775 0.17190 0.33311
 H728 H 0.84014 0.15963 0.34492
 N729 N 0.68183 0.35986 0.32870
 N730 N 0.67129 0.35967 0.31829
 C731 C 0.67335 0.37146 0.30896
 C732 C 0.68581 0.37935 0.31385
 C733 C 0.69095 0.37176 0.32635
 H734 H 0.66629 0.37422 0.29943
 H735 H 0.70050 0.37477 0.33329
 Cu736 Cu 0.65573 0.34421 0.31830
 Cu737 Cu 0.68272 0.34496 0.34476
 Cu738 Cu 0.65512 0.31723 0.34477
 N739 N 0.64036 0.32857 0.31829
 N740 N 0.64021 0.31804 0.32870
 C741 C 0.62834 0.30887 0.32637
 C742 C 0.62073 0.31398 0.31386
 C743 C 0.62858 0.32646 0.30896
 H744 H 0.62535 0.29933 0.33333
 H745 H 0.62578 0.33352 0.29945
 N746 N 0.67117 0.31836 0.36006
 N747 N 0.68168 0.32891 0.36005
 C748 C 0.69081 0.32679 0.37198
 C749 C 0.68575 0.31436 0.37976
 C750 C 0.67334 0.30924 0.37198
 H751 H 0.70037 0.33377 0.37486
 H752 H 0.66640 0.29965 0.37488
 H753 H 0.67218 0.32786 0.33303
 H754 H 0.65993 0.34002 0.34505
 N755 N 0.68169 0.86004 0.82885
 N756 N 0.67114 0.85984 0.81845
 C757 C 0.67321 0.87164 0.80912
 C758 C 0.68566 0.87953 0.81402
 C759 C 0.69081 0.87194 0.82651
 H760 H 0.66615 0.87439 0.79958
 H761 H 0.70037 0.87493 0.83344
 Cu762 Cu 0.65560 0.84438 0.81846
 Cu763 Cu 0.68258 0.84514 0.84492
 Cu764 Cu 0.65496 0.81742 0.84495
 N765 N 0.64021 0.82875 0.81845
 N766 N 0.64004 0.81823 0.82888
 C767 C 0.62816 0.80907 0.82655
 C768 C 0.62056 0.81417 0.81403
 C769 C 0.62842 0.82664 0.80913
 H770 H 0.62517 0.79953 0.83351
 H771 H 0.62563 0.83369 0.79960
 N772 N 0.67102 0.81855 0.86024
 N773 N 0.68154 0.82909 0.86021
 C774 C 0.69069 0.82697 0.87213
 C775 C 0.68562 0.81455 0.87992
 C776 C 0.67320 0.80944 0.87217
 H777 H 0.70026 0.83394 0.87500
 H778 H 0.66626 0.79985 0.87507
 H779 H 0.67204 0.82804 0.83320
 H780 H 0.65979 0.84021 0.84522
 N781 N 0.18148 0.36010 0.82908
 N782 N 0.17101 0.35984 0.81860
 C783 C 0.17306 0.37167 0.80931
 C784 C 0.18542 0.37964 0.81431
 C785 C 0.19054 0.37206 0.82682
 H786 H 0.16611 0.37433 0.79968
 H787 H 0.20009 0.37506 0.83377
 Cu788 Cu 0.15568 0.34415 0.81817
 Cu789 Cu 0.18247 0.34506 0.84497
 Cu790 Cu 0.15489 0.31738 0.84499
 N791 N 0.14005 0.32875 0.81861
 N792 N 0.13984 0.31829 0.82910
 C793 C 0.12789 0.30920 0.82686
 C794 C 0.12028 0.31429 0.81435
 C795 C 0.12822 0.32666 0.80934
 H796 H 0.12490 0.29967 0.83385
 H797 H 0.12550 0.33363 0.79973
 N798 N 0.17106 0.31835 0.86014
 N799 N 0.18158 0.32890 0.86013
 C800 C 0.19075 0.32672 0.87202
 C801 C 0.18572 0.31426 0.87976
 C802 C 0.17328 0.30919 0.87202
 H803 H 0.20029 0.33373 0.87493
 H804 H 0.16630 0.29963 0.87494
 H805 H 0.17203 0.32788 0.83319
 H806 H 0.15965 0.34017 0.84499
 N807 N 0.18158 0.86007 0.32883
 N808 N 0.17094 0.85997 0.31851
 C809 C 0.17300 0.87178 0.30919
 C810 C 0.18554 0.87958 0.31400
 C811 C 0.19075 0.87192 0.32644
 H812 H 0.16589 0.87458 0.29972
 H813 H 0.20040 0.87483 0.33329
 Cu814 Cu 0.15532 0.84457 0.31854
 Cu815 Cu 0.18253 0.84510 0.34481
 Cu816 Cu 0.15491 0.81739 0.34485
 N817 N 0.13999 0.82890 0.31854
 N818 N 0.13991 0.81828 0.32887
 C819 C 0.12807 0.80908 0.32650
 C820 C 0.12040 0.81425 0.31406
 C821 C 0.12818 0.82680 0.30923
 H822 H 0.12517 0.79945 0.33338
 H823 H 0.12533 0.83390 0.29976
 N824 N 0.17105 0.81844 0.36006
 N825 N 0.18157 0.82898 0.36004
 C826 C 0.19075 0.82682 0.37192
 C827 C 0.18571 0.81438 0.37969
 C828 C 0.17326 0.80929 0.37195
 H829 H 0.20031 0.83380 0.37480
 H830 H 0.16631 0.79971 0.37486
 H831 H 0.17188 0.82810 0.33302
 H832 H 0.15974 0.84018 0.34524
 O833 O 0.24835 1.01477 0.26903
 O834 O 0.26913 0.98523 0.24855
 O835 O 0.26916 1.01473 0.24858
 O836 O 0.24831 0.98525 0.26900
 O837 O 0.23078 0.98531 0.25133
 O838 O 0.25162 1.01482 0.23090
 O839 O 0.25159 0.98532 0.23087
 O840 O 0.23081 1.01482 0.25136
 Cu841 Cu 0.26050 0.99999 0.26058
 Cu842 Cu 0.23943 1.00007 0.23933
 C843 C 0.23618 1.01993 0.26354
 C844 C 0.26376 0.98016 0.23635
 C845 C 0.26381 1.01989 0.23640
 C846 C 0.23614 0.98015 0.26351
 O847 O 0.23081 0.48519 0.75138
 O848 O 0.25159 0.51476 0.73095
 O849 O 0.25163 0.48524 0.73092
 O850 O 0.23078 0.51470 0.75142
 O851 O 0.24833 0.51469 0.76909
 O852 O 0.26917 0.48520 0.74859
 O853 O 0.26913 0.51471 0.74862
 O854 O 0.24835 0.48517 0.76905
 Cu855 Cu 0.23943 0.49997 0.73938
 Cu856 Cu 0.26052 0.49994 0.76062
 C857 C 0.23619 0.48005 0.76356
 C858 C 0.26376 0.51987 0.73644
 C859 C 0.26380 0.48010 0.73640
 C860 C 0.23615 0.51982 0.76360
 O861 O 0.75182 -0.01500 0.26920
 O862 O 0.73109 0.01460 0.24877
 O863 O 0.73101 -0.01492 0.24876
 O864 O 0.75190 0.01451 0.26918
 O865 O 0.76942 0.01446 0.25147
 O866 O 0.74853 -0.01498 0.23105
 O867 O 0.74861 0.01454 0.23106
 O868 O 0.76935 -0.01505 0.25149
 Cu869 Cu 0.73968 -0.00020 0.26076
 Cu870 Cu 0.76075 -0.00027 0.23948
 C871 C 0.76398 -0.02016 0.26369
 C872 C 0.73647 0.01972 0.23658
 C873 C 0.73635 -0.02006 0.23657
 C874 C 0.76407 0.01960 0.26367
 O875 O 0.74850 0.48508 0.73107
 O876 O 0.76930 0.51457 0.75151
 O877 O 0.76930 0.48505 0.75153
 O878 O 0.74849 0.51460 0.73106
 O879 O 0.73094 0.51460 0.74875
 O880 O 0.75175 0.48509 0.76921
 O881 O 0.75174 0.51460 0.76919
 O882 O 0.73095 0.48509 0.74877
 Cu883 Cu 0.76067 0.49982 0.73951
 Cu884 Cu 0.73958 0.49985 0.76076
 C885 C 0.73632 0.47996 0.73658
 C886 C 0.76392 0.51971 0.76369
 C887 C 0.76392 0.47994 0.76372
 C888 C 0.73630 0.51973 0.73656
 O889 O 0.25158 0.48524 0.26906
 O890 O 0.23080 0.51478 0.24860
 O891 O 0.23078 0.48528 0.24862
 O892 O 0.25159 0.51477 0.26905
 O893 O 0.26914 0.51473 0.25136
 O894 O 0.24833 0.48528 0.23093
 O895 O 0.24836 0.51478 0.23091
 O896 O 0.26913 0.48521 0.25137
 Cu897 Cu 0.23942 0.50002 0.26062
 Cu898 Cu 0.26051 0.49999 0.23936
 C899 C 0.26375 0.48009 0.26356
 C900 C 0.23617 0.51990 0.23641
 C901 C 0.23615 0.48017 0.23642
 C902 C 0.26377 0.51988 0.26354
 O903 O 0.75141 1.01501 0.73110
 O904 O 0.73057 0.98556 0.75161
 O905 O 0.73063 1.01509 0.75159
 O906 O 0.75140 0.98551 0.73116
 O907 O 0.76893 0.98549 0.74884
 O908 O 0.74816 1.01508 0.76927
 O909 O 0.74811 0.98555 0.76928
 O910 O 0.76894 1.01498 0.74879
 Cu911 Cu 0.73923 1.00030 0.73959
 Cu912 Cu 0.76030 1.00027 0.76084
 C913 C 0.76360 1.02010 0.73659
 C914 C 0.73594 0.98042 0.76379
 C915 C 0.73600 1.02023 0.76377
 C916 C 0.76357 0.98037 0.73666
 O917 O 0.75158 0.51482 0.23099
 O918 O 0.73078 0.48530 0.25144
 O919 O 0.73079 0.51482 0.25147
 O920 O 0.75159 0.48533 0.23098
 O921 O 0.76915 0.48527 0.24864
 O922 O 0.74835 0.51479 0.26913
 O923 O 0.74834 0.48527 0.26910
 O924 O 0.76914 0.51476 0.24865
 Cu925 Cu 0.73941 0.50007 0.23944
 Cu926 Cu 0.76051 0.50002 0.26067
 C927 C 0.76376 0.51991 0.23647
 C928 C 0.73617 0.48016 0.26362
 C929 C 0.73618 0.51993 0.26364
 C930 C 0.76378 0.48018 0.23644
 O931 O 0.23122 0.01440 0.74890
 O932 O 0.25204 -0.01521 0.76924
 O933 O 0.25205 0.01432 0.76931
 O934 O 0.23121 -0.01510 0.74883
 O935 O 0.24872 -0.01508 0.73110
 O936 O 0.26957 0.01432 0.75160
 O937 O 0.26956 -0.01521 0.75152
 O938 O 0.24874 0.01442 0.73118
 Cu939 Cu 0.23987 -0.00040 0.76086
 Cu940 Cu 0.26092 -0.00039 0.73957
 C941 C 0.23656 0.01954 0.73670
 C942 C 0.26419 -0.02036 0.76371
 C943 C 0.26421 0.01945 0.76379
 C944 C 0.23654 -0.02018 0.73661
 O945 O 0.24842 0.26906 0.98524
 O946 O 0.26909 0.24839 1.01466
 O947 O 0.26906 0.24834 0.98526
 O948 O 0.24845 0.26908 1.01467
 O949 O 0.23078 0.25149 1.01473
 O950 O 0.25139 0.23075 0.98532
 O951 O 0.25142 0.23080 1.01473
 O952 O 0.23076 0.25147 0.98530
 Cu953 Cu 0.26053 0.26050 0.99995
 Cu954 Cu 0.23930 0.23936 1.00002
 C955 C 0.23621 0.26365 0.98016
 C956 C 0.26364 0.23622 1.01981
 C957 C 0.26361 0.23614 0.98019
 C958 C 0.23625 0.26366 1.01983
 O959 O 0.24855 0.76929 0.48518
 O960 O 0.26920 0.74862 0.51463
 O961 O 0.26919 0.74858 0.48521
 O962 O 0.24855 0.76931 0.51461
 O963 O 0.23089 0.75171 0.51465
 O964 O 0.25152 0.73098 0.48525
 O965 O 0.25154 0.73102 0.51467
 O966 O 0.23089 0.75169 0.48523
 Cu967 Cu 0.26066 0.76072 0.49990
 Cu968 Cu 0.23942 0.73958 0.49995
 C969 C 0.23634 0.76386 0.48009
 C970 C 0.26375 0.73644 0.51976
 C971 C 0.26374 0.73638 0.48013
 C972 C 0.23634 0.76389 0.51974
 O973 O 0.26947 0.75153 -0.01495
 O974 O 0.24879 0.73095 0.01454
 O975 O 0.24879 0.73090 -0.01488
 O976 O 0.26947 0.75157 0.01449
 O977 O 0.25183 0.76923 0.01448
 O978 O 0.23116 0.74857 -0.01489
 O979 O 0.23116 0.74862 0.01451
 O980 O 0.25183 0.76919 -0.01496
 Cu981 Cu 0.26092 0.73946 -0.00020
 Cu982 Cu 0.23972 0.76069 -0.00022
 C983 C 0.26403 0.76372 -0.02008
 C984 C 0.23659 0.73642 0.01964
 C985 C 0.23658 0.73635 -0.01998
 C986 C 0.26402 0.76377 0.01960
 O987 O 0.26904 0.25145 0.48543
 O988 O 0.24840 0.23082 0.51490
 O989 O 0.24840 0.23080 0.48548
 O990 O 0.26904 0.25149 0.51484
 O991 O 0.25137 0.26912 0.51482
 O992 O 0.23072 0.24843 0.48543
 O993 O 0.23072 0.24845 0.51486
 O994 O 0.25138 0.26909 0.48539
 Cu995 Cu 0.26050 0.23936 0.50016
 Cu996 Cu 0.23926 0.26055 0.50013
 C997 C 0.26359 0.26364 0.48029
 C998 C 0.23618 0.23626 0.52000
 C999 C 0.23619 0.23623 0.48035
 C1000 C 0.26358 0.26368 0.51993
 O1001 O 0.74856 0.76925 0.98527
 O1002 O 0.76918 0.74851 1.01468
 O1003 O 0.76919 0.74853 0.98526
 O1004 O 0.74854 0.76921 1.01470
 O1005 O 0.73087 0.75162 1.01469
 O1006 O 0.75152 0.73095 0.98526
 O1007 O 0.75150 0.73092 1.01468
 O1008 O 0.73089 0.75166 0.98527
 Cu1009 Cu 0.76065 0.76065 0.99997
 Cu1010 Cu 0.73941 0.73952 0.99997
 C1011 C 0.73634 0.76385 0.98017
 C1012 C 0.76372 0.73633 1.01979
 C1013 C 0.76374 0.73635 0.98015
 C1014 C 0.73633 0.76379 1.01981
 O1015 O 0.74839 0.26905 0.48522
 O1016 O 0.76904 0.24830 0.51460
 O1017 O 0.76903 0.24834 0.48519
 O1018 O 0.74840 0.26901 0.51465
 O1019 O 0.73073 0.25142 0.51466
 O1020 O 0.75136 0.23074 0.48520
 O1021 O 0.75137 0.23071 0.51462
 O1022 O 0.73072 0.25146 0.48523
 Cu1023 Cu 0.76049 0.26045 0.49991
 Cu1024 Cu 0.73926 0.23931 0.49993
 C1025 C 0.73618 0.26364 0.48012
 C1026 C 0.76359 0.23612 0.51971
 C1027 C 0.76358 0.23616 0.48009
 C1028 C 0.73619 0.26359 0.51977
 O1029 O 0.75144 0.26922 0.01463
 O1030 O 0.73082 0.24853 -0.01477
 O1031 O 0.73087 0.24851 0.01466
 O1032 O 0.75138 0.26927 -0.01479
 O1033 O 0.76911 0.25170 -0.01486
 O1034 O 0.74860 0.23094 0.01460
 O1035 O 0.74854 0.23096 -0.01483
 O1036 O 0.76917 0.25165 0.01455
 Cu1037 Cu 0.73934 0.26065 -0.00006
 Cu1038 Cu 0.76064 0.23954 -0.00014
 C1039 C 0.76369 0.26381 0.01970
 C1040 C 0.73630 0.23637 -0.01991
 C1041 C 0.73638 0.23633 0.01975
 C1042 C 0.76361 0.26389 -0.01994
 O1043 O 0.76911 0.75172 0.48535
 O1044 O 0.74851 0.73103 0.51481
 O1045 O 0.74848 0.73105 0.48540
 O1046 O 0.76914 0.75170 0.51478
 O1047 O 0.75146 0.76932 0.51481
 O1048 O 0.73080 0.74866 0.48542
 O1049 O 0.73083 0.74865 0.51484
 O1050 O 0.75143 0.76934 0.48537
 Cu1051 Cu 0.76060 0.73960 0.50008
 Cu1052 Cu 0.73935 0.76077 0.50011
 C1053 C 0.76363 0.76390 0.48024
 C1054 C 0.73629 0.73645 0.51994
 C1055 C 0.73626 0.73647 0.48031
 C1056 C 0.76368 0.76389 0.51990
 O1057 O 1.01466 0.26926 0.24869
 O1058 O 0.98512 0.24840 0.26906
 O1059 O 1.01468 0.24845 0.26911
 O1060 O 0.98512 0.26925 0.24866
 O1061 O 0.98522 0.25177 0.23095
 O1062 O 1.01476 0.23098 0.25140
 O1063 O 0.98520 0.23092 0.25135
 O1064 O 1.01476 0.25178 0.23098
 Cu1065 Cu 0.99988 0.26060 0.26067
 Cu1066 Cu 0.99999 0.23960 0.23938
 C1067 C 1.01984 0.26393 0.23651
 C1068 C 0.98004 0.23624 0.26355
 C1069 C 1.01986 0.23632 0.26359
 C1070 C 0.98004 0.26391 0.23645
 O1071 O 0.51478 0.26897 0.74875
 O1072 O 0.48524 0.24814 0.76916
 O1073 O 0.51480 0.24816 0.76919
 O1074 O 0.48523 0.26896 0.74874
 O1075 O 0.48528 0.25148 0.73102
 O1076 O 0.51484 0.23069 0.75147
 O1077 O 0.48529 0.23066 0.75145
 O1078 O 0.51484 0.25149 0.73104
 Cu1079 Cu 0.50001 0.26032 0.76075
 Cu1080 Cu 0.50007 0.23931 0.73946
 C1081 C 0.51994 0.26364 0.73656
 C1082 C 0.48013 0.23599 0.76365
 C1083 C 0.51996 0.23602 0.76367
 C1084 C 0.48012 0.26362 0.73654
 O1085 O -0.01488 0.23079 0.74875
 O1086 O 0.01464 0.25160 0.76915
 O1087 O -0.01491 0.25162 0.76914
 O1088 O 0.01468 0.23077 0.74876
 O1089 O 0.01467 0.24825 0.73102
 O1090 O -0.01490 0.26910 0.75141
 O1091 O 0.01465 0.26908 0.75141
 O1092 O -0.01488 0.24827 0.73102
 Cu1093 Cu -0.00012 0.23944 0.76074
 Cu1094 Cu -0.00012 0.26044 0.73942
 C1095 C -0.02000 0.23612 0.73654
 C1096 C 0.01977 0.26375 0.76362
 C1097 C -0.02004 0.26378 0.76361
 C1098 C 0.01981 0.23610 0.73655
 O1099 O 0.51489 0.24808 0.23091
 O1100 O 0.48531 0.26890 0.25132
 O1101 O 0.51486 0.26891 0.25129
 O1102 O 0.48533 0.24806 0.23095
 O1103 O 0.48538 0.23060 0.24871
 O1104 O 0.51490 0.25146 0.26905
 O1105 O 0.48535 0.25144 0.26907
 O1106 O 0.51493 0.23062 0.24867
 Cu1107 Cu 0.50009 0.26025 0.23932
 Cu1108 Cu 0.50014 0.23927 0.26066
 C1109 C 0.52004 0.23594 0.23645
 C1110 C 0.48020 0.26358 0.26354
 C1111 C 0.52000 0.26361 0.26350
 C1112 C 0.48022 0.23592 0.23651
 O1113 O 1.01472 0.73101 0.75141
 O1114 O 0.98518 0.75186 0.73099
 O1115 O 1.01472 0.75180 0.73098
 O1116 O 0.98517 0.73103 0.75143
 O1117 O 0.98518 0.74853 0.76912
 O1118 O 1.01474 0.76930 0.74867
 O1119 O 0.98519 0.76936 0.74869
 O1120 O 1.01473 0.74850 0.76911
 Cu1121 Cu 0.99994 0.73966 0.73942
 Cu1122 Cu 0.99995 0.76068 0.76069
 C1123 C 1.01987 0.73635 0.76359
 C1124 C 0.98007 0.76403 0.73649
 C1125 C 1.01987 0.76394 0.73648
 C1126 C 0.98005 0.73637 0.76363
 O1127 O 0.51477 0.76922 0.24875
 O1128 O 0.48520 0.74838 0.26910
 O1129 O 0.51476 0.74839 0.26918
 O1130 O 0.48524 0.76919 0.24870
 O1131 O 0.48532 0.75171 0.23098
 O1132 O 0.51486 0.73091 0.25147
 O1133 O 0.48530 0.73090 0.25139
 O1134 O 0.51486 0.75175 0.23104
 Cu1135 Cu 0.49999 0.76056 0.26072
 Cu1136 Cu 0.50010 0.73955 0.23944
 C1137 C 0.51993 0.76391 0.23655
 C1138 C 0.48010 0.73623 0.26357
 C1139 C 0.51993 0.73625 0.26368
 C1140 C 0.48015 0.76385 0.23649
 O1141 O 0.01461 0.74841 0.23089
 O1142 O -0.01497 0.76924 0.25131
 O1143 O 0.01458 0.76924 0.25128
 O1144 O -0.01494 0.74838 0.23094
 O1145 O -0.01490 0.73092 0.24868
 O1146 O 0.01462 0.75177 0.26903
 O1147 O -0.01492 0.75177 0.26905
 O1148 O 0.01465 0.73095 0.24864
 Cu1149 Cu -0.00019 0.76058 0.23931
 Cu1150 Cu -0.00014 0.73959 0.26064
 C1151 C 0.01978 0.73628 0.23643
 C1152 C -0.02007 0.76392 0.26354
 C1153 C 0.01973 0.76391 0.26349
 C1154 C -0.02004 0.73624 0.23648
 O1155 O 0.48498 0.76932 0.75149
 O1156 O 0.51459 0.74847 0.73113
 O1157 O 0.48502 0.74847 0.73110
 O1158 O 0.51453 0.76930 0.75151
 O1159 O 0.51453 0.75184 0.76926
 O1160 O 0.48501 0.73101 0.74885
 O1161 O 0.51457 0.73101 0.74888
 O1162 O 0.48497 0.75186 0.76924
 Cu1163 Cu 0.49978 0.76065 0.73952
 Cu1164 Cu 0.49976 0.73966 0.76085
 C1165 C 0.47984 0.76401 0.76371
 C1166 C 0.51973 0.73633 0.73668
 C1167 C 0.47990 0.73632 0.73663
 C1168 C 0.51966 0.76398 0.76372
 C1169 C 0.39299 0.30782 0.30780
 C1170 C 0.40440 0.30266 0.30251
 C1171 C 0.41800 0.29649 0.29613
 C1172 C 0.42143 0.29904 0.28097
 C1173 C 0.43449 0.29283 0.27468
 C1174 C 0.44420 0.28406 0.28352
 C1175 C 0.44084 0.28159 0.29871
 C1176 C 0.42777 0.28781 0.30501
 C1177 C 0.45727 0.27714 0.27681
 C1178 C 0.46794 0.27111 0.27092
 H1179 H 0.41395 0.30573 0.27401
 H1180 H 0.43694 0.29474 0.26290
 H1181 H 0.44823 0.27475 0.30562
 H1182 H 0.42522 0.28576 0.31674
 C1183 C 0.39278 0.80861 0.80798
 C1184 C 0.40418 0.80343 0.80266
 C1185 C 0.41776 0.79721 0.79628
 C1186 C 0.42119 0.79972 0.78111
 C1187 C 0.43422 0.79343 0.77482
 C1188 C 0.44390 0.78462 0.78366
 C1189 C 0.44051 0.78218 0.79886
 C1190 C 0.42748 0.78847 0.80515
 C1191 C 0.45694 0.77764 0.77697
 C1192 C 0.46760 0.77157 0.77109
 H1193 H 0.41375 0.80643 0.77414
 H1194 H 0.43668 0.79531 0.76304
 H1195 H 0.44786 0.77531 0.80578
 H1196 H 0.42492 0.78644 0.81689
 C1197 C -0.10735 0.30824 0.80748
 C1198 C -0.09591 0.30307 0.80224
 C1199 C -0.08227 0.29682 0.79602
 C1200 C -0.07507 0.28475 0.80322
 C1201 C -0.06196 0.27849 0.79704
 C1202 C -0.05600 0.28429 0.78364
 C1203 C -0.06315 0.29643 0.77650
 C1204 C -0.07626 0.30269 0.78268
 C1205 C -0.04294 0.27738 0.77690
 C1206 C -0.03229 0.27134 0.77100
 H1207 H -0.07964 0.28010 0.81352
 H1208 H -0.05658 0.26904 0.80260
 H1209 H -0.05869 0.30094 0.76609
 H1210 H -0.08176 0.31200 0.77701
 C1211 C -0.10726 0.80834 0.30771
 C1212 C -0.09583 0.80318 0.30245
 C1213 C -0.08221 0.79693 0.29619
 C1214 C -0.07586 0.80321 0.28319
 C1215 C -0.06278 0.79693 0.27696
 C1216 C -0.05599 0.78437 0.28371
 C1217 C -0.06230 0.77814 0.29675
 C1218 C -0.07537 0.78442 0.30298
 C1219 C -0.04296 0.77748 0.27690
 C1220 C -0.03231 0.77146 0.27095
 H1221 H -0.08107 0.81286 0.27782
 H1222 H -0.05806 0.80177 0.26681
 H1223 H -0.05720 0.76837 0.30201
 H1224 H -0.08020 0.77946 0.31302
 C1225 C 0.60711 0.69206 0.30795
 C1226 C 0.59570 0.69724 0.30269
 C1227 C 0.58210 0.70351 0.29644
 C1228 C 0.57665 0.71739 0.30163
 C1229 C 0.56357 0.72363 0.29539
 C1230 C 0.55587 0.71600 0.28395
 C1231 C 0.56127 0.70207 0.27881
 C1232 C 0.57435 0.69583 0.28505
 C1233 C 0.54283 0.72277 0.27708
 C1234 C 0.53217 0.72874 0.27111
 H1235 H 0.58256 0.72344 0.31041
 H1236 H 0.55955 0.73445 0.29937
 H1237 H 0.55546 0.69612 0.26990
 H1238 H 0.57848 0.68510 0.28094
 C1239 C 0.60710 0.19154 0.80790
 C1240 C 0.59579 0.19682 0.80252
 C1241 C 0.58236 0.20323 0.79602
 C1242 C 0.56815 0.20005 0.80219
 C1243 C 0.55514 0.20635 0.79584
 C1244 C 0.55631 0.21586 0.78331
 C1245 C 0.57052 0.21901 0.77715
 C1246 C 0.58351 0.21272 0.78349
 C1247 C 0.54305 0.22258 0.77679
 C1248 C 0.53227 0.22853 0.77100
 H1249 H 0.56714 0.19275 0.81190
 H1250 H 0.54421 0.20386 0.80070
 H1251 H 0.57155 0.22635 0.76747
 H1252 H 0.59444 0.21527 0.77864
 C1253 C 1.10712 0.69208 0.80779
 C1254 C 1.09580 0.69732 0.80239
 C1255 C 1.08236 0.70368 0.79587
 C1256 C 1.08347 0.71315 0.78332
 C1257 C 1.07047 0.71944 0.77701
 C1258 C 1.05627 0.71629 0.78321
 C1259 C 1.05514 0.70680 0.79576
 C1260 C 1.06816 0.70050 0.80207
 C1261 C 1.04299 0.72296 0.77670
 C1262 C 1.03220 0.72888 0.77091
 H1263 H 1.09439 0.71569 0.77844
 H1264 H 1.07147 0.72678 0.76733
 H1265 H 1.04422 0.70431 0.80065
 H1266 H 1.06718 0.69320 0.81179
 C1267 C 1.10700 0.19194 0.30788
 C1268 C 1.09569 0.19719 0.30246
 C1269 C 1.08227 0.20356 0.29593
 C1270 C 1.08341 0.21306 0.28340
 C1271 C 1.07042 0.21938 0.27709
 C1272 C 1.05622 0.21624 0.28327
 C1273 C 1.05505 0.20671 0.29578
 C1274 C 1.06806 0.20038 0.30210
 C1275 C 1.04295 0.22293 0.27674
 C1276 C 1.03218 0.22885 0.27094
 H1277 H 1.09434 0.21560 0.27854
 H1278 H 1.07146 0.22674 0.26743
 H1279 H 1.04412 0.20422 0.30065
 H1280 H 1.06705 0.19305 0.31179
 C1281 C 0.60701 0.30809 0.69226
 C1282 C 0.59567 0.30288 0.69766
 C1283 C 0.58219 0.29662 0.70418
 C1284 C 0.56954 0.29377 0.69518
 C1285 C 0.55652 0.28748 0.70151
 C1286 C 0.55612 0.28403 0.71688
 C1287 C 0.56876 0.28694 0.72588
 C1288 C 0.58176 0.29322 0.71955
 C1289 C 0.54295 0.27716 0.72342
 C1290 C 0.53223 0.27115 0.72922
 H1291 H 0.56976 0.29633 0.68327
 H1292 H 0.54684 0.28522 0.69444
 H1293 H 0.56859 0.28426 0.73776
 H1294 H 0.59148 0.29536 0.72661
 C1295 C 0.60692 0.80829 0.19216
 C1296 C 0.59551 0.80315 0.19748
 C1297 C 0.58193 0.79698 0.20385
 C1298 C 0.57299 0.78708 0.19543
 C1299 C 0.55995 0.78084 0.20174
 C1300 C 0.55579 0.78450 0.21649
 C1301 C 0.56468 0.79447 0.22487
 C1302 C 0.57772 0.80070 0.21857
 C1303 C 0.54277 0.77755 0.22325
 C1304 C 0.53215 0.77149 0.22916
 H1305 H 0.57616 0.78410 0.18405
 H1306 H 0.55320 0.77307 0.19519
 H1307 H 0.56162 0.79730 0.23632
 H1308 H 0.58457 0.80832 0.22519
 C1309 C 1.10682 0.30840 0.19205
 C1310 C 1.09552 0.30313 0.19748
 C1311 C 1.08213 0.29675 0.20405
 C1312 C 1.08322 0.28807 0.21716
 C1313 C 1.07026 0.28178 0.22355
 C1314 C 1.05614 0.28413 0.21686
 C1315 C 1.05502 0.29283 0.20376
 C1316 C 1.06800 0.29913 0.19736
 C1317 C 1.04291 0.27739 0.22341
 C1318 C 1.03215 0.27144 0.22920
 H1319 H 1.09409 0.28614 0.22241
 H1320 H 1.07125 0.27506 0.23367
 H1321 H 1.04416 0.29469 0.19849
 H1322 H 1.06704 0.30580 0.18721
 C1323 C 1.10689 0.80838 0.69211
 C1324 C 1.09555 0.80310 0.69741
 C1325 C 1.08205 0.79665 0.70372
 C1326 C 1.07083 0.80598 0.70979
 C1327 C 1.05780 0.79965 0.71606
 C1328 C 1.05595 0.78396 0.71625
 C1329 C 1.06716 0.77465 0.71013
 C1330 C 1.08017 0.78097 0.70387
 C1331 C 1.04283 0.77733 0.72312
 C1332 C 1.03214 0.77142 0.72907
 H1333 H 1.07218 0.81811 0.70975
 H1334 H 1.04924 0.80695 0.72083
 H1335 H 1.06588 0.76250 0.71029
 H1336 H 1.08878 0.77365 0.69923
 C1337 C 0.39303 0.69185 0.69214
 C1338 C 0.40441 0.69702 0.69748
 C1339 C 0.41796 0.70323 0.70389
 C1340 C 0.42181 0.69998 0.71881
 C1341 C 0.43482 0.70625 0.72514
 C1342 C 0.44404 0.71577 0.71656
 C1343 C 0.44024 0.71895 0.70161
 C1344 C 0.42723 0.71269 0.69528
 C1345 C 0.45706 0.72271 0.72332
 C1346 C 0.46768 0.72877 0.72923
 H1347 H 0.41471 0.69272 0.72558
 H1348 H 0.43760 0.70378 0.73674
 H1349 H 0.44724 0.72637 0.69491
 H1350 H 0.42433 0.71530 0.68374
 C1351 C 0.39302 0.19184 0.19232
 C1352 C 0.40435 0.19703 0.19773
 C1353 C 0.41779 0.20331 0.20427
 C1354 C 0.43178 0.20148 0.19713
 C1355 C 0.44481 0.20773 0.20347
 C1356 C 0.44387 0.21581 0.21696
 C1357 C 0.42989 0.21758 0.22411
 C1358 C 0.41688 0.21134 0.21778
 C1359 C 0.45713 0.22251 0.22346
 C1360 C 0.46791 0.22844 0.22922
 H1361 H 0.43261 0.19529 0.18668
 H1362 H 0.45556 0.20631 0.19784
 H1363 H 0.42903 0.22383 0.23453
 H1364 H 0.40612 0.21283 0.22339
 C1365 C -0.10689 0.69169 0.19201
 C1366 C -0.09559 0.69693 0.19745
 C1367 C -0.08220 0.70328 0.20403
 C1368 C -0.06818 0.70155 0.19694
 C1369 C -0.05521 0.70788 0.20332
 C1370 C -0.05624 0.71596 0.21680
 C1371 C -0.07027 0.71765 0.22390
 C1372 C -0.08321 0.71133 0.21753
 C1373 C -0.04304 0.72273 0.22335
 C1374 C -0.03232 0.72871 0.22915
 H1375 H -0.06728 0.69535 0.18649
 H1376 H -0.04443 0.70653 0.19772
 H1377 H -0.07119 0.72391 0.23431
 H1378 H -0.09400 0.71276 0.22310
 C1379 C -0.10720 0.19206 0.69236
 C1380 C -0.09579 0.19718 0.69766
 C1381 C -0.08218 0.20332 0.70401
 C1382 C -0.07802 0.19965 0.71876
 C1383 C -0.06495 0.20583 0.72503
 C1384 C -0.05597 0.21569 0.71658
 C1385 C -0.06008 0.21929 0.70180
 C1386 C -0.07316 0.21311 0.69553
 C1387 C -0.04291 0.22257 0.72329
 C1388 C -0.03225 0.22859 0.72917
 H1389 H -0.08493 0.19212 0.72543
 H1390 H -0.06193 0.20305 0.73649
 H1391 H -0.05327 0.22698 0.69520
 H1392 H -0.07628 0.21604 0.68412
 C1393 C 0.30800 0.39287 0.30768
 C1394 C 0.30273 0.40424 0.30241
 C1395 C 0.29632 0.41777 0.29617
 C1396 C 0.28062 0.41952 0.29560
 C1397 C 0.27433 0.43256 0.28938
 C1398 C 0.28370 0.44393 0.28371
 C1399 C 0.29942 0.44222 0.28434
 C1400 C 0.30572 0.42917 0.29058
 C1401 C 0.27711 0.45708 0.27687
 C1402 C 0.27122 0.46780 0.27094
 H1403 H 0.27325 0.41078 0.29991
 H1404 H 0.26216 0.43373 0.28889
 H1405 H 0.30678 0.45091 0.27993
 H1406 H 0.31788 0.42793 0.29098
 C1407 C 0.30872 -0.10748 0.80788
 C1408 C 0.30341 -0.09616 0.80255
 C1409 C 0.29690 -0.08272 0.79620
 C1410 C 0.30588 -0.06996 0.79365
 C1411 C 0.29950 -0.05694 0.78740
 C1412 C 0.28414 -0.05664 0.78369
 C1413 C 0.27517 -0.06939 0.78628
 C1414 C 0.28154 -0.08238 0.79252
 C1415 C 0.27754 -0.04344 0.77693
 C1416 C 0.27166 -0.03269 0.77104
 H1417 H 0.31777 -0.07010 0.79645
 H1418 H 0.30655 -0.04717 0.78540
 H1419 H 0.26329 -0.06930 0.78340
 H1420 H 0.27449 -0.09218 0.79443
 C1421 C 0.80807 0.39269 0.80788
 C1422 C 0.80283 0.40407 0.80262
 C1423 C 0.79644 0.41762 0.79638
 C1424 C 0.78073 0.41940 0.79582
 C1425 C 0.77446 0.43246 0.78962
 C1426 C 0.78386 0.44381 0.78395
 C1427 C 0.79957 0.44208 0.78456
 C1428 C 0.80585 0.42900 0.79077
 C1429 C 0.77728 0.45697 0.77709
 C1430 C 0.77140 0.46767 0.77113
 H1431 H 0.77335 0.41067 0.80011
 H1432 H 0.76230 0.43366 0.78915
 H1433 H 0.80694 0.45076 0.78015
 H1434 H 0.81801 0.42773 0.79114
 C1435 C 0.80807 -0.10734 0.30806
 C1436 C 0.80294 -0.09597 0.30267
 C1437 C 0.79676 -0.08244 0.29617
 C1438 C 0.79281 -0.07024 0.30537
 C1439 C 0.78657 -0.05720 0.29903
 C1440 C 0.78430 -0.05632 0.28348
 C1441 C 0.78832 -0.06850 0.27428
 C1442 C 0.79455 -0.08152 0.28061
 C1443 C 0.77745 -0.04316 0.27690
 C1444 C 0.77147 -0.03244 0.27107
 H1445 H 0.79446 -0.07084 0.31741
 H1446 H 0.78343 -0.04789 0.30625
 H1447 H 0.78654 -0.06796 0.26225
 H1448 H 0.79756 -0.09089 0.27339
 C1449 C 0.30821 0.60681 0.69202
 C1450 C 0.30299 0.59550 0.69745
 C1451 C 0.29668 0.58208 0.70401
 C1452 C 0.29635 0.56859 0.69583
 C1453 C 0.29004 0.55561 0.70219
 C1454 C 0.28404 0.55608 0.71676
 C1455 C 0.28442 0.56956 0.72494
 C1456 C 0.29072 0.58253 0.71859
 C1457 C 0.27723 0.54289 0.72330
 C1458 C 0.27125 0.53216 0.72910
 H1459 H 0.30091 0.56812 0.68454
 H1460 H 0.28976 0.54525 0.69575
 H1461 H 0.27977 0.57007 0.73620
 H1462 H 0.29090 0.59290 0.72501
 C1463 C 0.30806 1.10703 0.19236
 C1464 C 0.30295 1.09564 0.19769
 C1465 C 0.29680 1.08207 0.20410
 C1466 C 0.29685 1.08002 0.21971
 C1467 C 0.29064 1.06697 0.22597
 C1468 C 0.28435 1.05591 0.21666
 C1469 C 0.28436 1.05791 0.20104
 C1470 C 0.29059 1.07097 0.19477
 C1471 C 0.27742 1.04280 0.22323
 C1472 C 0.27136 1.03213 0.22904
 H1473 H 0.30161 1.08854 0.22703
 H1474 H 0.29062 1.06556 0.23807
 H1475 H 0.27946 1.04947 0.19374
 H1476 H 0.29047 1.07246 0.18269
 C1477 C 0.80824 0.60676 0.19200
 C1478 C 0.80303 0.59545 0.19742
 C1479 C 0.79673 0.58203 0.20399
 C1480 C 0.79645 0.56853 0.19584
 C1481 C 0.79014 0.55555 0.20221
 C1482 C 0.78410 0.55605 0.21675
 C1483 C 0.78443 0.56955 0.22491
 C1484 C 0.79074 0.58251 0.21855
 C1485 C 0.77727 0.54288 0.22329
 C1486 C 0.77127 0.53217 0.22911
 H1487 H 0.80104 0.56805 0.18456
 H1488 H 0.78989 0.54519 0.19578
 H1489 H 0.77975 0.57008 0.23615
 H1490 H 0.79088 0.59289 0.22495
 C1491 C 0.80803 1.10704 0.69233
 C1492 C 0.80288 1.09567 0.69769
 C1493 C 0.79670 1.08215 0.70416
 C1494 C 0.79187 1.07035 0.69486
 C1495 C 0.78561 1.05733 0.70118
 C1496 C 0.78417 1.05607 0.71681
 C1497 C 0.78908 1.06783 0.72609
 C1498 C 0.79533 1.08083 0.71979
 C1499 C 0.77721 1.04297 0.72337
 C1500 C 0.77115 1.03231 0.72920
 H1501 H 0.79286 1.07126 0.68276
 H1502 H 0.78179 1.04833 0.69389
 H1503 H 0.78795 1.06699 0.73819
 H1504 H 0.79901 1.08989 0.72708
 C1505 C 0.69213 0.60709 0.30801
 C1506 C 0.69730 0.59574 0.30261
 C1507 C 0.70349 0.58225 0.29608
 C1508 C 0.70702 0.58187 0.28074
 C1509 C 0.71322 0.56885 0.27440
 C1510 C 0.71591 0.55613 0.28336
 C1511 C 0.71233 0.55648 0.29869
 C1512 C 0.70612 0.56952 0.30504
 C1513 C 0.72272 0.54295 0.27681
 C1514 C 0.72869 0.53222 0.27100
 H1515 H 0.70505 0.59165 0.27371
 H1516 H 0.71601 0.56873 0.26254
 H1517 H 0.71442 0.54673 0.30574
 H1518 H 0.70344 0.56970 0.31692
 C1519 C 0.69199 1.10745 0.80808
 C1520 C 0.69715 1.09607 0.80274
 C1521 C 0.70330 1.08252 0.79627
 C1522 C 0.70939 1.07128 0.80555
 C1523 C 0.71554 1.05821 0.79920
 C1524 C 0.71561 1.05634 0.78357
 C1525 C 0.70945 1.06755 0.77431
 C1526 C 0.70332 1.08061 0.78065
 C1527 C 0.72248 1.04322 0.77694
 C1528 C 0.72849 1.03251 0.77111
 H1529 H 0.70947 1.07266 0.81764
 H1530 H 0.72033 1.04964 0.80645
 H1531 H 0.70951 1.06626 0.76221
 H1532 H 0.69867 1.08925 0.77338
 C1533 C 0.19206 0.60705 0.80778
 C1534 C 0.19718 0.59566 0.80242
 C1535 C 0.20333 0.58212 0.79595
 C1536 C 0.20733 0.56995 0.80518
 C1537 C 0.21354 0.55689 0.79888
 C1538 C 0.21575 0.55596 0.78331
 C1539 C 0.21167 0.56810 0.77408
 C1540 C 0.20548 0.58114 0.78038
 C1541 C 0.22261 0.54279 0.77678
 C1542 C 0.22863 0.53208 0.77097
 H1543 H 0.20574 0.57060 0.81724
 H1544 H 0.21671 0.54760 0.80612
 H1545 H 0.21339 0.56752 0.76204
 H1546 H 0.20244 0.59049 0.77314
 C1547 C 0.19214 1.10711 0.30787
 C1548 C 0.19730 1.09575 0.30249
 C1549 C 0.20348 1.08223 0.29599
 C1550 C 0.20524 1.08112 0.28039
 C1551 C 0.21144 1.06809 0.27406
 C1552 C 0.21588 1.05609 0.28330
 C1553 C 0.21406 1.05716 0.29891
 C1554 C 0.20786 1.07020 0.30524
 C1555 C 0.22272 1.04293 0.27673
 C1556 C 0.22870 1.03221 0.27091
 H1557 H 0.20191 1.09036 0.27313
 H1558 H 0.21287 1.06741 0.26199
 H1559 H 0.21753 1.04798 0.30616
 H1560 H 0.20656 1.07095 0.31733
 C1561 C 0.69207 0.39293 0.69239
 C1562 C 0.69726 0.40431 0.69767
 C1563 C 0.70353 0.41788 0.70394
 C1564 C 0.71668 0.42411 0.69779
 C1565 C 0.72293 0.43716 0.70403
 C1566 C 0.71604 0.44404 0.71643
 C1567 C 0.70284 0.43786 0.72254
 C1568 C 0.69659 0.42481 0.71630
 C1569 C 0.72284 0.45708 0.72325
 C1570 C 0.72882 0.46773 0.72918
 H1571 H 0.72215 0.41883 0.68826
 H1572 H 0.73319 0.44179 0.69928
 H1573 H 0.69747 0.44304 0.73219
 H1574 H 0.68643 0.42007 0.72116
 C1575 C 0.69188 -0.10685 0.19212
 C1576 C 0.69706 -0.09553 0.19752
 C1577 C 0.70332 -0.08209 0.20407
 C1578 C 0.70689 -0.08177 0.21939
 C1579 C 0.71317 -0.06881 0.22575
 C1580 C 0.71589 -0.05609 0.21682
 C1581 C 0.71227 -0.05637 0.20149
 C1582 C 0.70599 -0.06935 0.19513
 C1583 C 0.72277 -0.04296 0.22338
 C1584 C 0.72880 -0.03229 0.22921
 H1585 H 0.70490 -0.09156 0.22640
 H1586 H 0.71599 -0.06874 0.23760
 H1587 H 0.71440 -0.04662 0.19447
 H1588 H 0.70329 -0.06948 0.18326
 C1589 C 0.19175 0.39331 0.19205
 C1590 C 0.19705 0.40463 0.19735
 C1591 C 0.20352 0.41808 0.20367
 C1592 C 0.21918 0.41915 0.20553
 C1593 C 0.22550 0.43213 0.21180
 C1594 C 0.21620 0.44412 0.21623
 C1595 C 0.20054 0.44309 0.21433
 C1596 C 0.19421 0.43009 0.20804
 C1597 C 0.22279 0.45724 0.22307
 C1598 C 0.22867 0.46793 0.22902
 H1599 H 0.22648 0.40993 0.20221
 H1600 H 0.23762 0.43279 0.21328
 H1601 H 0.19324 0.45226 0.21777
 H1602 H 0.18208 0.42937 0.20667
 C1603 C 0.19191 -0.10678 0.69201
 C1604 C 0.19708 -0.09542 0.69735
 C1605 C 0.20329 -0.08190 0.70379
 C1606 C 0.21152 -0.07185 0.69482
 C1607 C 0.21780 -0.05887 0.70118
 C1608 C 0.21586 -0.05590 0.71652
 C1609 C 0.20755 -0.06591 0.72546
 C1610 C 0.20127 -0.07887 0.71911
 C1611 C 0.22286 -0.04293 0.72325
 C1612 C 0.22896 -0.03235 0.72917
 H1613 H 0.21316 -0.07410 0.68297
 H1614 H 0.22428 -0.05125 0.69418
 H1615 H 0.20605 -0.06376 0.73735
 H1616 H 0.19495 -0.08658 0.72615
 C1617 C 0.30782 0.30793 0.39335
 C1618 C 0.30258 0.30261 0.40468
 C1619 C 0.29632 0.29612 0.41814
 C1620 C 0.29306 0.28069 0.41866
 C1621 C 0.28685 0.27436 0.43166
 C1622 C 0.28387 0.28343 0.44420
 C1623 C 0.28718 0.29887 0.44371
 C1624 C 0.29340 0.30520 0.43070
 C1625 C 0.27704 0.27688 0.45735
 C1626 C 0.27106 0.27105 0.46805
 H1627 H 0.29525 0.27356 0.40901
 H1628 H 0.28428 0.26242 0.43190
 H1629 H 0.28487 0.30599 0.45332
 H1630 H 0.29586 0.31716 0.43040
 C1631 C 0.30812 0.80805 -0.10709
 C1632 C 0.30281 0.80272 -0.09580
 C1633 C 0.29639 0.79626 -0.08240
 C1634 C 0.30141 0.80087 -0.06819
 C1635 C 0.29513 0.79453 -0.05520
 C1636 C 0.28383 0.78357 -0.05639
 C1637 C 0.27883 0.77897 -0.07060
 C1638 C 0.28509 0.78530 -0.08357
 C1639 C 0.27727 0.77696 -0.04314
 C1640 C 0.27144 0.77110 -0.03238
 H1641 H 0.31015 0.80934 -0.06716
 H1642 H 0.29908 0.79817 -0.04427
 H1643 H 0.27009 0.77050 -0.07165
 H1644 H 0.28113 0.78165 -0.09449
 C1645 C 0.80778 0.30860 -0.10669
 C1646 C 0.80248 0.30326 -0.09540
 C1647 C 0.79606 0.29673 -0.08204
 C1648 C 0.79943 0.30274 -0.06787
 C1649 C 0.79313 0.29634 -0.05492
 C1650 C 0.78346 0.28391 -0.05611
 C1651 C 0.78012 0.27792 -0.07029
 C1652 C 0.78640 0.28430 -0.08321
 C1653 C 0.77684 0.27727 -0.04291
 C1654 C 0.77099 0.27136 -0.03219
 H1655 H 0.80688 0.31235 -0.06683
 H1656 H 0.79578 0.30108 -0.04401
 H1657 H 0.77265 0.26831 -0.07134
 H1658 H 0.78372 0.27956 -0.09411
 C1659 C 0.80760 0.80829 0.39322
 C1660 C 0.80239 0.80296 0.40456
 C1661 C 0.79617 0.79647 0.41803
 C1662 C 0.79294 0.78102 0.41855
 C1663 C 0.78675 0.77468 0.43155
 C1664 C 0.78377 0.78375 0.44410
 C1665 C 0.78705 0.79918 0.44361
 C1666 C 0.79326 0.80553 0.43060
 C1667 C 0.77699 0.77718 0.45726
 C1668 C 0.77106 0.77133 0.46797
 H1669 H 0.79514 0.77391 0.40890
 H1670 H 0.78420 0.76274 0.43178
 H1671 H 0.78474 0.80630 0.45323
 H1672 H 0.79571 0.81749 0.43031
 C1673 C 0.69220 0.30802 0.60676
 C1674 C 0.69744 0.30268 0.59544
 C1675 C 0.70373 0.29616 0.58202
 C1676 C 0.71030 0.28181 0.58257
 C1677 C 0.71650 0.27545 0.56959
 C1678 C 0.71617 0.28340 0.55599
 C1679 C 0.70957 0.29775 0.55541
 C1680 C 0.70335 0.30412 0.56841
 C1681 C 0.72287 0.27685 0.54278
 C1682 C 0.72877 0.27100 0.53204
 H1683 H 0.71066 0.27556 0.59303
 H1684 H 0.72162 0.26436 0.57017
 H1685 H 0.70928 0.30402 0.54496
 H1686 H 0.69830 0.31523 0.56786
 C1687 C 0.69218 0.80800 1.10680
 C1688 C 0.69745 0.80267 1.09549
 C1689 C 0.70378 0.79619 1.08207
 C1690 C 0.70291 0.80394 1.06837
 C1691 C 0.70917 0.79762 1.05537
 C1692 C 0.71631 0.78353 1.05604
 C1693 C 0.71713 0.77578 1.06975
 C1694 C 0.71088 0.78209 1.08273
 C1695 C 0.72301 0.77701 1.04282
 C1696 C 0.72891 0.77119 1.03208
 H1697 H 0.69745 0.81485 1.06774
 H1698 H 0.70850 0.80371 1.04483
 H1699 H 0.72265 0.76490 1.07040
 H1700 H 0.71163 0.77601 1.09326
 C1701 C 0.19230 0.30804 1.10687
 C1702 C 0.19756 0.30271 1.09556
 C1703 C 0.20386 0.29621 1.08213
 C1704 C 0.21046 0.28186 1.08268
 C1705 C 0.21668 0.27552 1.06970
 C1706 C 0.21632 0.28347 1.05609
 C1707 C 0.20970 0.29781 1.05552
 C1708 C 0.20347 0.30417 1.06852
 C1709 C 0.22299 0.27692 1.04287
 C1710 C 0.22886 0.27108 1.03212
 H1711 H 0.21083 0.27561 1.09313
 H1712 H 0.22181 0.26444 1.07028
 H1713 H 0.20940 0.30407 1.04507
 H1714 H 0.19839 0.31527 1.06797
 C1715 C 0.19213 0.80809 0.60670
 C1716 C 0.19740 0.80277 0.59539
 C1717 C 0.20373 0.79629 0.58197
 C1718 C 0.20337 0.80429 0.56838
 C1719 C 0.20964 0.79798 0.55538
 C1720 C 0.21628 0.78365 0.55594
 C1721 C 0.21660 0.77565 0.56952
 C1722 C 0.21034 0.78195 0.58250
 C1723 C 0.22300 0.77714 0.54273
 C1724 C 0.22892 0.77131 0.53200
 H1725 H 0.19830 0.81540 0.56786
 H1726 H 0.20937 0.80427 0.54495
 H1727 H 0.22173 0.76457 0.57008
 H1728 H 0.21069 0.77567 0.59294
 C1729 C 0.30777 0.69222 0.60682
 C1730 C 0.30260 0.69746 0.59542
 C1731 C 0.29644 0.70378 0.58184
 C1732 C 0.30037 0.71843 0.57746
 C1733 C 0.29419 0.72469 0.56440
 C1734 C 0.28407 0.71632 0.55566
 C1735 C 0.28021 0.70163 0.55999
 C1736 C 0.28639 0.69537 0.57305
 C1737 C 0.27721 0.72305 0.54262
 C1738 C 0.27123 0.72898 0.53198
 H1739 H 0.30811 0.72504 0.58418
 H1740 H 0.29718 0.73609 0.56121
 H1741 H 0.27232 0.69509 0.55337
 H1742 H 0.28326 0.68404 0.57635
 C1743 C 0.30809 0.19189 1.10660
 C1744 C 0.30280 0.19722 1.09531
 C1745 C 0.29641 0.20372 1.08191
 C1746 C 0.28910 0.21770 1.08265
 C1747 C 0.28279 0.22403 1.06971
 C1748 C 0.28377 0.21641 1.05595
 C1749 C 0.29111 0.20244 1.05518
 C1750 C 0.29743 0.19610 1.06815
 C1751 C 0.27702 0.22295 1.04276
 C1752 C 0.27109 0.22880 1.03205
 H1753 H 0.28823 0.22368 1.09323
 H1754 H 0.27711 0.23482 1.07043
 H1755 H 0.29190 0.19644 1.04461
 H1756 H 0.30306 0.18527 1.06746
 C1757 C 0.80770 0.69219 1.10688
 C1758 C 0.80253 0.69742 1.09548
 C1759 C 0.79637 0.70372 1.08189
 C1760 C 0.80030 0.71837 1.07749
 C1761 C 0.79412 0.72460 1.06443
 C1762 C 0.78400 0.71622 1.05570
 C1763 C 0.78014 0.70154 1.06005
 C1764 C 0.78633 0.69529 1.07311
 C1765 C 0.77714 0.72293 1.04265
 C1766 C 0.77117 0.72886 1.03201
 H1767 H 0.80803 0.72499 1.08421
 H1768 H 0.79711 0.73600 1.06122
 H1769 H 0.77227 0.69499 1.05343
 H1770 H 0.78320 0.68397 1.07642
 C1771 C 0.80797 0.19187 0.60655
 C1772 C 0.80276 0.19713 0.59518
 C1773 C 0.79654 0.20354 0.58167
 C1774 C 0.79014 0.19420 0.57070
 C1775 C 0.78387 0.20049 0.55769
 C1776 C 0.78401 0.21615 0.55562
 C1777 C 0.79047 0.22547 0.56656
 C1778 C 0.79673 0.21918 0.57955
 C1779 C 0.77709 0.22277 0.54255
 C1780 C 0.77107 0.22865 0.53191
 H1781 H 0.78991 0.18208 0.57223
 H1782 H 0.77883 0.19319 0.54934
 H1783 H 0.79057 0.23760 0.56511
 H1784 H 0.80163 0.22651 0.58797
 C1785 C 0.69223 0.69224 0.39341
 C1786 C 0.69738 0.69744 0.40481
 C1787 C 0.70353 0.70371 0.41840
 C1788 C 0.71498 0.69607 0.42616
 C1789 C 0.72117 0.70232 0.43920
 C1790 C 0.71593 0.71623 0.44454
 C1791 C 0.70441 0.72382 0.43684
 C1792 C 0.69822 0.71757 0.42380
 C1793 C 0.72278 0.72303 0.45753
 C1794 C 0.72877 0.72900 0.46813
 H1795 H 0.71919 0.68536 0.42207
 H1796 H 0.73014 0.69640 0.44502
 H1797 H 0.70034 0.73463 0.44082
 H1798 H 0.68940 0.72359 0.41787
 C1799 C 0.69243 0.19187 -0.10682
 C1800 C 0.69759 0.19719 -0.09547
 C1801 C 0.70373 0.20365 -0.08195
 C1802 C 0.70283 0.21923 -0.07955
 C1803 C 0.70897 0.22556 -0.06653
 C1804 C 0.71604 0.21635 -0.05585
 C1805 C 0.71689 0.20075 -0.05821
 C1806 C 0.71074 0.19441 -0.07123
 C1807 C 0.72288 0.22302 -0.04277
 C1808 C 0.72885 0.22892 -0.03212
 H1809 H 0.69747 0.22648 -0.08777
 H1810 H 0.70833 0.23764 -0.06486
 H1811 H 0.72240 0.19353 -0.05006
 H1812 H 0.71152 0.18235 -0.07299
 C1813 C 0.19218 0.69200 -0.10663
 C1814 C 0.19737 0.69726 -0.09527
 C1815 C 0.20357 0.70363 -0.08175
 C1816 C 0.21219 0.69469 -0.07200
 C1817 C 0.21845 0.70099 -0.05901
 C1818 C 0.21608 0.71625 -0.05571
 C1819 C 0.20737 0.72516 -0.06541
 C1820 C 0.20113 0.71887 -0.07839
 C1821 C 0.22303 0.72296 -0.04273
 C1822 C 0.22907 0.72888 -0.03214
 H1823 H 0.21417 0.68290 -0.07450
 H1824 H 0.22523 0.69402 -0.05163
 H1825 H 0.20554 0.73700 -0.06301
 H1826 H 0.19449 0.72589 -0.08586
 C1827 C 0.19216 0.19214 0.39335
 C1828 C 0.19742 0.19731 0.40473
 C1829 C 0.20381 0.20347 0.41825
 C1830 C 0.21950 0.20375 0.42014
 C1831 C 0.22577 0.20995 0.43316
 C1832 C 0.21637 0.21589 0.44437
 C1833 C 0.20067 0.21555 0.44252
 C1834 C 0.19440 0.20934 0.42949
 C1835 C 0.22294 0.22276 0.45746
 C1836 C 0.22877 0.22876 0.46813
 H1837 H 0.22689 0.19926 0.41152
 H1838 H 0.23793 0.21022 0.43443
 H1839 H 0.19330 0.22018 0.45108
 H1840 H 0.18225 0.20920 0.42814
 C1841 C 0.30802 0.39299 0.69215
 C1842 C 0.30282 0.40440 0.69740
 C1843 C 0.29651 0.41798 0.70362
 C1844 C 0.30515 0.42705 0.71320
 C1845 C 0.29888 0.44011 0.71944
 C1846 C 0.28396 0.44416 0.71610
 C1847 C 0.27536 0.43513 0.70644
 C1848 C 0.28162 0.42208 0.70021
 C1849 C 0.27725 0.45721 0.72300
 C1850 C 0.27131 0.46787 0.72898
 H1851 H 0.31666 0.42398 0.71593
 H1852 H 0.30560 0.44696 0.72697
 H1853 H 0.26379 0.43811 0.70385
 H1854 H 0.27484 0.41514 0.69282
 C1855 C 0.30812 0.89323 0.19191
 C1856 C 0.30290 0.90461 0.19717
 C1857 C 0.29656 0.91817 0.20342
 C1858 C 0.30519 0.92724 0.21302
 C1859 C 0.29890 0.94028 0.21928
 C1860 C 0.28397 0.94430 0.21595
 C1861 C 0.27539 0.93528 0.20627
 C1862 C 0.28167 0.92225 0.20002
 C1863 C 0.27723 0.95732 0.22288
 C1864 C 0.27128 0.96795 0.22889
 H1865 H 0.31671 0.92418 0.21574
 H1866 H 0.30561 0.94713 0.22682
 H1867 H 0.26381 0.93825 0.20369
 H1868 H 0.27490 0.91532 0.19262
 C1869 C 0.80798 0.39318 0.19201
 C1870 C 0.80278 0.40456 0.19730
 C1871 C 0.79647 0.41812 0.20357
 C1872 C 0.80512 0.42718 0.21316
 C1873 C 0.79887 0.44024 0.21940
 C1874 C 0.78395 0.44429 0.21606
 C1875 C 0.77534 0.43528 0.20640
 C1876 C 0.78159 0.42223 0.20016
 C1877 C 0.77723 0.45733 0.22299
 C1878 C 0.77129 0.46796 0.22900
 H1879 H 0.81664 0.42410 0.21587
 H1880 H 0.80559 0.44709 0.22692
 H1881 H 0.76377 0.43827 0.20380
 H1882 H 0.77481 0.41530 0.19277
 C1883 C 0.80804 0.89349 0.69206
 C1884 C 0.80285 0.90481 0.69750
 C1885 C 0.79661 0.91827 0.70407
 C1886 C 0.79350 0.93085 0.69505
 C1887 C 0.78719 0.94383 0.70142
 C1888 C 0.78399 0.94428 0.71684
 C1889 C 0.78716 0.93172 0.72585
 C1890 C 0.79346 0.91875 0.71949
 C1891 C 0.77710 0.95741 0.72343
 C1892 C 0.77109 0.96810 0.72928
 H1893 H 0.79588 0.93059 0.68311
 H1894 H 0.78471 0.95345 0.69433
 H1895 H 0.78466 0.93191 0.73777
 H1896 H 0.79581 0.90909 0.72657
 C1897 C 0.69207 0.60699 0.69242
 C1898 C 0.69719 0.59560 0.69779
 C1899 C 0.70335 0.58204 0.70426
 C1900 C 0.70504 0.58084 0.71986
 C1901 C 0.71128 0.56779 0.72614
 C1902 C 0.71584 0.55588 0.71685
 C1903 C 0.71408 0.55704 0.70125
 C1904 C 0.70783 0.57010 0.69496
 C1905 C 0.72276 0.54272 0.72339
 C1906 C 0.72878 0.53201 0.72919
 H1907 H 0.70165 0.59001 0.72716
 H1908 H 0.71267 0.56705 0.73822
 H1909 H 0.71764 0.54793 0.69395
 H1910 H 0.70660 0.57093 0.68288
 C1911 C 0.69282 0.10719 0.19236
 C1912 C 0.69801 0.09585 0.19777
 C1913 C 0.70417 0.08233 0.20428
 C1914 C 0.70678 0.06962 0.19529
 C1915 C 0.71290 0.05653 0.20161
 C1916 C 0.71641 0.05610 0.21696
 C1917 C 0.71374 0.06879 0.22595
 C1918 C 0.70763 0.08187 0.21963
 C1919 C 0.72313 0.04285 0.22348
 C1920 C 0.72903 0.03207 0.22926
 H1921 H 0.70415 0.06986 0.18340
 H1922 H 0.71498 0.04680 0.19455
 H1923 H 0.71648 0.06860 0.23781
 H1924 H 0.70566 0.09163 0.22668
 C1925 C 0.19185 0.60689 0.19192
 C1926 C 0.19702 0.59555 0.19733
 C1927 C 0.20323 0.58205 0.20386
 C1928 C 0.20488 0.58093 0.21948
 C1929 C 0.21112 0.56792 0.22583
 C1930 C 0.21571 0.55597 0.21661
 C1931 C 0.21399 0.55705 0.20099
 C1932 C 0.20775 0.57007 0.19463
 C1933 C 0.22262 0.54285 0.22320
 C1934 C 0.22865 0.53216 0.22903
 H1935 H 0.20145 0.59013 0.22672
 H1936 H 0.21246 0.56723 0.23791
 H1937 H 0.21757 0.54790 0.19375
 H1938 H 0.20654 0.57083 0.18254
 C1939 C 0.19183 0.10632 0.69210
 C1940 C 0.19703 0.09498 0.69752
 C1941 C 0.20329 0.08152 0.70406
 C1942 C 0.20786 0.06953 0.69486
 C1943 C 0.21420 0.05657 0.70124
 C1944 C 0.21597 0.05554 0.71686
 C1945 C 0.21133 0.06749 0.72605
 C1946 C 0.20499 0.08044 0.71968
 C1947 C 0.22294 0.04246 0.72348
 C1948 C 0.22901 0.03179 0.72933
 H1949 H 0.20660 0.07024 0.68277
 H1950 H 0.21781 0.04742 0.69402
 H1951 H 0.21271 0.06685 0.73813
 H1952 H 0.20151 0.08964 0.72690
 C1953 C 0.30787 0.60704 0.30757
 C1954 C 0.30273 0.59566 0.30224
 C1955 C 0.29658 0.58213 0.29581
 C1956 C 0.29216 0.57015 0.30509
 C1957 C 0.28596 0.55710 0.29880
 C1958 C 0.28418 0.55598 0.28319
 C1959 C 0.28870 0.56792 0.27391
 C1960 C 0.29489 0.58096 0.28020
 C1961 C 0.27729 0.54285 0.27666
 C1962 C 0.27128 0.53214 0.27088
 H1963 H 0.29343 0.57093 0.31718
 H1964 H 0.28246 0.54795 0.30608
 H1965 H 0.28732 0.56720 0.26184
 H1966 H 0.29826 0.59015 0.27292
 C1967 C 0.30800 0.10681 0.80777
 C1968 C 0.30288 0.09543 0.80242
 C1969 C 0.29673 0.08190 0.79596
 C1970 C 0.29423 0.06917 0.80496
 C1971 C 0.28807 0.05610 0.79868
 C1972 C 0.28440 0.05571 0.78337
 C1973 C 0.28695 0.06842 0.77437
 C1974 C 0.29311 0.08148 0.78065
 C1975 C 0.27763 0.04249 0.77689
 C1976 C 0.27168 0.03174 0.77112
 H1977 H 0.29698 0.06939 0.81682
 H1978 H 0.28608 0.04636 0.80575
 H1979 H 0.28409 0.06827 0.76254
 H1980 H 0.29497 0.09126 0.77359
 C1981 C 0.80820 0.60669 0.80801
 C1982 C 0.80301 0.59537 0.80260
 C1983 C 0.79674 0.58193 0.79606
 C1984 C 0.79591 0.56858 0.80446
 C1985 C 0.78962 0.55559 0.79812
 C1986 C 0.78417 0.55591 0.78334
 C1987 C 0.78506 0.56924 0.77494
 C1988 C 0.79133 0.58221 0.78127
 C1989 C 0.77737 0.54272 0.77682
 C1990 C 0.77141 0.53199 0.77103
 H1991 H 0.80005 0.56824 0.81591
 H1992 H 0.78894 0.54536 0.80473
 H1993 H 0.78082 0.56962 0.76352
 H1994 H 0.79191 0.59246 0.77467
 C1995 C 0.80832 0.10654 0.30803
 C1996 C 0.80318 0.09519 0.30265
 C1997 C 0.79700 0.08169 0.29614
 C1998 C 0.79483 0.08079 0.28057
 C1999 C 0.78859 0.06780 0.27424
 C2000 C 0.78450 0.05564 0.28343
 C2001 C 0.78673 0.05650 0.29900
 C2002 C 0.79298 0.06951 0.30534
 C2003 C 0.77762 0.04252 0.27686
 C2004 C 0.77161 0.03184 0.27103
 H2005 H 0.79789 0.09014 0.27335
 H2006 H 0.78684 0.06727 0.26220
 H2007 H 0.78354 0.04720 0.30622
 H2008 H 0.79461 0.07010 0.31739
 C2009 C 0.69195 0.39290 0.30751
 C2010 C 0.69721 0.40427 0.30226
 C2011 C 0.70364 0.41780 0.29604
 C2012 C 0.69428 0.42968 0.29144
 C2013 C 0.70058 0.44275 0.28527
 C2014 C 0.71627 0.44398 0.28371
 C2015 C 0.72562 0.43212 0.28838
 C2016 C 0.71932 0.41907 0.29453
 C2017 C 0.72284 0.45716 0.27692
 C2018 C 0.72870 0.46788 0.27100
 H2019 H 0.68213 0.42881 0.29255
 H2020 H 0.69325 0.45183 0.28165
 H2021 H 0.73777 0.43294 0.28716
 H2022 H 0.72667 0.40995 0.29804
 C2023 C 0.69183 0.89306 0.80765
 C2024 C 0.69709 0.90441 0.80236
 C2025 C 0.70354 0.91789 0.79605
 C2026 C 0.71811 0.91751 0.78995
 C2027 C 0.72441 0.93055 0.78377
 C2028 C 0.71618 0.94405 0.78366
 C2029 C 0.70161 0.94445 0.78979
 C2030 C 0.69530 0.93139 0.79598
 C2031 C 0.72268 0.95732 0.77700
 C2032 C 0.72851 0.96811 0.77115
 H2033 H 0.72457 0.90713 0.78994
 H2034 H 0.73567 0.93010 0.77903
 H2035 H 0.69514 0.95482 0.78974
 H2036 H 0.68402 0.93180 0.80068
 C2037 C 0.19161 0.39317 0.80792
 C2038 C 0.19689 0.40450 0.80261
 C2039 C 0.20338 0.41795 0.79630
 C2040 C 0.21907 0.41912 0.79475
 C2041 C 0.22544 0.43210 0.78850
 C2042 C 0.21616 0.44399 0.78377
 C2043 C 0.20046 0.44286 0.78537
 C2044 C 0.19408 0.42986 0.79163
 C2045 C 0.22280 0.45710 0.77692
 C2046 C 0.22870 0.46779 0.77096
 H2047 H 0.22636 0.40999 0.79832
 H2048 H 0.23758 0.43283 0.78727
 H2049 H 0.19318 0.45196 0.78170
 H2050 H 0.18193 0.42907 0.79277
 C2051 C 0.19173 0.89309 0.30761
 C2052 C 0.19702 0.90443 0.30232
 C2053 C 0.20348 0.91791 0.29605
 C2054 C 0.21916 0.91914 0.29452
 C2055 C 0.22549 0.93216 0.28831
 C2056 C 0.21617 0.94403 0.28362
 C2057 C 0.20048 0.94284 0.28520
 C2058 C 0.19414 0.92980 0.29142
 C2059 C 0.22277 0.95718 0.27681
 C2060 C 0.22865 0.96789 0.27089
 H2061 H 0.22648 0.91001 0.29805
 H2062 H 0.23763 0.93293 0.28709
 H2063 H 0.19316 0.95192 0.28155
 H2064 H 0.18199 0.92896 0.29254
 C2065 C 0.39306 0.30802 0.69205
 C2066 C 0.40438 0.30276 0.69747
 C2067 C 0.41779 0.29640 0.70403
 C2068 C 0.43194 0.29894 0.69743
 C2069 C 0.44493 0.29263 0.70381
 C2070 C 0.44381 0.28376 0.71680
 C2071 C 0.42967 0.28127 0.72340
 C2072 C 0.41669 0.28757 0.71703
 C2073 C 0.45705 0.27705 0.72336
 C2074 C 0.46781 0.27111 0.72918
 H2075 H 0.43291 0.30575 0.68737
 H2076 H 0.45581 0.29461 0.69860
 H2077 H 0.42867 0.27441 0.73343
 H2078 H 0.40582 0.28552 0.72222
 C2079 C 0.39317 0.80825 0.19190
 C2080 C 0.40447 0.80299 0.19734
 C2081 C 0.41787 0.79663 0.20393
 C2082 C 0.43203 0.79918 0.19736
 C2083 C 0.44501 0.79286 0.20374
 C2084 C 0.44387 0.78399 0.21672
 C2085 C 0.42972 0.78148 0.22330
 C2086 C 0.41676 0.78778 0.21692
 C2087 C 0.45710 0.77727 0.22330
 C2088 C 0.46785 0.77133 0.22912
 H2089 H 0.43301 0.80600 0.18730
 H2090 H 0.45590 0.79485 0.19856
 H2091 H 0.42871 0.77461 0.23332
 H2092 H 0.40587 0.78573 0.22209
 C2093 C 0.89299 0.30820 0.19197
 C2094 C 0.90432 0.30292 0.19732
 C2095 C 0.91778 0.29647 0.20369
 C2096 C 0.93044 0.30551 0.20643
 C2097 C 0.94348 0.29919 0.21270
 C2098 C 0.94388 0.28381 0.21625
 C2099 C 0.93123 0.27477 0.21345
 C2100 C 0.91822 0.28108 0.20719
 C2101 C 0.95706 0.27726 0.22309
 C2102 C 0.96777 0.27139 0.22904
 H2103 H 0.93022 0.31743 0.20376
 H2104 H 0.95319 0.30629 0.21485
 H2105 H 0.93141 0.26286 0.21618
 H2106 H 0.90850 0.27398 0.20512
 C2107 C 0.89304 0.80844 0.69204
 C2108 C 0.90441 0.80329 0.69743
 C2109 C 0.91794 0.79710 0.70393
 C2110 C 0.92967 0.79201 0.69465
 C2111 C 0.94270 0.78573 0.70099
 C2112 C 0.94404 0.78455 0.71663
 C2113 C 0.93234 0.78972 0.72590
 C2114 C 0.91933 0.79599 0.71957
 C2115 C 0.95715 0.77763 0.72324
 C2116 C 0.96783 0.77158 0.72910
 H2117 H 0.92870 0.79281 0.68254
 H2118 H 0.95163 0.78170 0.69371
 H2119 H 0.93322 0.78878 0.73801
 H2120 H 0.91032 0.79987 0.72685
 C2121 C 0.60715 0.30787 0.30753
 C2122 C 0.59575 0.30274 0.30223
 C2123 C 0.58215 0.29659 0.29587
 C2124 C 0.57212 0.28841 0.30491
 C2125 C 0.55905 0.28220 0.29865
 C2126 C 0.55596 0.28416 0.28333
 C2127 C 0.56596 0.29242 0.27432
 C2128 C 0.57902 0.29863 0.28058
 C2129 C 0.54290 0.27722 0.27669
 C2130 C 0.53224 0.27117 0.27085
 H2131 H 0.57445 0.28675 0.31675
 H2132 H 0.55144 0.27576 0.30570
 H2133 H 0.56373 0.29393 0.26244
 H2134 H 0.58671 0.30491 0.27348
 C2135 C 0.60697 0.80806 0.80771
 C2136 C 0.59556 0.80293 0.80241
 C2137 C 0.58195 0.79679 0.79606
 C2138 C 0.57191 0.78862 0.80510
 C2139 C 0.55882 0.78243 0.79885
 C2140 C 0.55571 0.78441 0.78354
 C2141 C 0.56571 0.79266 0.77453
 C2142 C 0.57880 0.79884 0.78077
 C2143 C 0.54261 0.77752 0.77692
 C2144 C 0.53192 0.77150 0.77108
 H2145 H 0.57426 0.78695 0.81694
 H2146 H 0.55121 0.77601 0.80591
 H2147 H 0.56346 0.79419 0.76265
 H2148 H 0.58649 0.80512 0.77367
 C2149 C 0.10671 0.30815 0.80801
 C2150 C 0.09531 0.30301 0.80268
 C2151 C 0.08175 0.29682 0.79629
 C2152 C 0.07218 0.28784 0.80507
 C2153 C 0.05917 0.28157 0.79875
 C2154 C 0.05566 0.28428 0.78363
 C2155 C 0.06518 0.29334 0.77489
 C2156 C 0.07818 0.29961 0.78120
 C2157 C 0.04263 0.27734 0.77691
 C2158 C 0.03200 0.27129 0.77101
 H2159 H 0.07483 0.28562 0.81674
 H2160 H 0.05193 0.27451 0.80559
 H2161 H 0.06262 0.29544 0.76317
 H2162 H 0.08550 0.30654 0.77431
 C2163 C 0.10685 0.80810 0.30770
 C2164 C 0.09546 0.80295 0.30238
 C2165 C 0.08188 0.79679 0.29599
 C2166 C 0.07218 0.78802 0.30485
 C2167 C 0.05912 0.78182 0.29856
 C2168 C 0.05570 0.78438 0.28340
 C2169 C 0.06535 0.79321 0.27458
 C2170 C 0.07841 0.79941 0.28086
 C2171 C 0.04263 0.77748 0.27672
 C2172 C 0.03197 0.77145 0.27085
 H2173 H 0.07477 0.78590 0.31656
 H2174 H 0.05178 0.77493 0.30547
 H2175 H 0.06286 0.79519 0.26282
 H2176 H 0.08584 0.80615 0.27390
 C2177 C 0.60700 0.69197 0.69244
 C2178 C 0.59568 0.69720 0.69788
 C2179 C 0.58223 0.70353 0.70443
 C2180 C 0.56814 0.70120 0.69765
 C2181 C 0.55512 0.70752 0.70398
 C2182 C 0.55614 0.71618 0.71710
 C2183 C 0.57022 0.71846 0.72388
 C2184 C 0.58323 0.71216 0.71757
 C2185 C 0.54287 0.72291 0.72360
 C2186 C 0.53208 0.72884 0.72937
 H2187 H 0.56725 0.69457 0.68748
 H2188 H 0.54429 0.70571 0.69861
 H2189 H 0.57116 0.72517 0.73401
 H2190 H 0.59405 0.71405 0.72290
 C2191 C 0.60706 0.19152 0.19192
 C2192 C 0.59576 0.19677 0.19735
 C2193 C 0.58235 0.20313 0.20393
 C2194 C 0.58341 0.21174 0.21708
 C2195 C 0.57044 0.21804 0.22345
 C2196 C 0.55634 0.21578 0.21672
 C2197 C 0.55524 0.20715 0.20359
 C2198 C 0.56823 0.20083 0.19720
 C2199 C 0.54310 0.22251 0.22329
 C2200 C 0.53235 0.22845 0.22911
 H2201 H 0.59426 0.21360 0.22237
 H2202 H 0.57142 0.22473 0.23359
 H2203 H 0.54439 0.20535 0.19828
 H2204 H 0.56728 0.19420 0.18703
 C2205 C 0.10686 0.69191 0.19193
 C2206 C 0.09557 0.69717 0.19739
 C2207 C 0.08216 0.70353 0.20397
 C2208 C 0.06805 0.70121 0.19723
 C2209 C 0.05505 0.70752 0.20361
 C2210 C 0.05612 0.71615 0.21675
 C2211 C 0.07023 0.71842 0.22349
 C2212 C 0.08321 0.71213 0.21712
 C2213 C 0.04287 0.72287 0.22330
 C2214 C 0.03210 0.72880 0.22910
 H2215 H 0.06712 0.69458 0.18705
 H2216 H 0.04420 0.70571 0.19829
 H2217 H 0.07119 0.72510 0.23364
 H2218 H 0.09405 0.71399 0.22242
 C2219 C 0.10677 0.19136 0.69217
 C2220 C 0.09541 0.19665 0.69746
 C2221 C 0.08191 0.20313 0.70375
 C2222 C 0.07988 0.21879 0.70356
 C2223 C 0.06688 0.22516 0.70982
 C2224 C 0.05583 0.21591 0.71629
 C2225 C 0.05782 0.20024 0.71642
 C2226 C 0.07083 0.19386 0.71015
 C2227 C 0.04275 0.22262 0.72318
 C2228 C 0.03207 0.22857 0.72915
 H2229 H 0.08837 0.22606 0.69865
 H2230 H 0.06549 0.23730 0.70971
 H2231 H 0.04938 0.19299 0.72145
 H2232 H 0.07230 0.18173 0.71037
 C2233 C 0.39283 0.69187 0.30754
 C2234 C 0.40416 0.69712 0.30217
 C2235 C 0.41761 0.70347 0.29568
 C2236 C 0.41658 0.71236 0.28271
 C2237 C 0.42959 0.71865 0.27642
 C2238 C 0.44370 0.71610 0.28307
 C2239 C 0.44475 0.70717 0.29603
 C2240 C 0.43172 0.70087 0.30232
 C2241 C 0.45697 0.72282 0.27660
 C2242 C 0.46776 0.72875 0.27085
 H2243 H 0.40574 0.71445 0.27749
 H2244 H 0.42865 0.72555 0.26641
 H2245 H 0.45560 0.70513 0.30126
 H2246 H 0.43264 0.69401 0.31236
 C2247 C 0.39279 0.19183 0.80763
 C2248 C 0.40423 0.19698 0.80237
 C2249 C 0.41786 0.20319 0.79611
 C2250 C 0.42371 0.19745 0.78265
 C2251 C 0.43681 0.20366 0.77643
 C2252 C 0.44412 0.21562 0.78368
 C2253 C 0.43832 0.22130 0.79719
 C2254 C 0.42522 0.21509 0.80340
 C2255 C 0.45720 0.22247 0.77692
 C2256 C 0.46787 0.22846 0.77102
 H2257 H 0.41809 0.18827 0.77690
 H2258 H 0.44114 0.19925 0.76593
 H2259 H 0.44382 0.23061 0.80283
 H2260 H 0.42077 0.21963 0.81380
 C2261 C 0.89302 0.69177 0.80780
 C2262 C 0.90442 0.69700 0.80254
 C2263 C 0.91799 0.70336 0.79631
 C2264 C 0.92622 0.69542 0.78543
 C2265 C 0.93927 0.70175 0.77922
 C2266 C 0.94415 0.71602 0.78388
 C2267 C 0.93596 0.72391 0.79482
 C2268 C 0.92292 0.71759 0.80103
 C2269 C 0.95718 0.72285 0.77703
 C2270 C 0.96782 0.72885 0.77106
 H2271 H 0.92250 0.68442 0.78168
 H2272 H 0.94547 0.69559 0.77069
 H2273 H 0.93957 0.73499 0.79843
 H2274 H 0.91662 0.72383 0.80941
 C2275 C 0.89309 0.19162 0.30784
 C2276 C 0.90449 0.19680 0.30254
 C2277 C 0.91807 0.20306 0.29624
 C2278 C 0.92389 0.19737 0.28273
 C2279 C 0.93692 0.20369 0.27646
 C2280 C 0.94419 0.21569 0.28367
 C2281 C 0.93842 0.22130 0.29723
 C2282 C 0.92540 0.21499 0.30350
 C2283 C 0.95718 0.22262 0.27686
 C2284 C 0.96781 0.22868 0.27094
 H2285 H 0.91831 0.18816 0.27701
 H2286 H 0.94123 0.19932 0.26592
 H2287 H 0.94390 0.23063 0.30286
 H2288 H 0.92099 0.21948 0.31394
 C2289 C 0.30786 0.30800 0.60671
 C2290 C 0.30260 0.30266 0.59542
 C2291 C 0.29628 0.29616 0.58201
 C2292 C 0.29607 0.30438 0.56855
 C2293 C 0.28980 0.29804 0.55558
 C2294 C 0.28373 0.28347 0.55603
 C2295 C 0.28399 0.27526 0.56948
 C2296 C 0.29024 0.28158 0.58244
 C2297 C 0.27697 0.27694 0.54286
 C2298 C 0.27103 0.27111 0.53216
 H2299 H 0.30070 0.31566 0.56810
 H2300 H 0.28963 0.30450 0.54524
 H2301 H 0.27929 0.26400 0.56997
 H2302 H 0.29033 0.27514 0.59278
 C2303 C 0.30796 0.80811 0.10653
 C2304 C 0.30273 0.80277 0.09522
 C2305 C 0.29648 0.79626 0.08179
 C2306 C 0.29162 0.78124 0.08186
 C2307 C 0.28544 0.77490 0.06887
 C2308 C 0.28409 0.78354 0.05575
 C2309 C 0.28897 0.79856 0.05566
 C2310 C 0.29516 0.80491 0.06867
 C2311 C 0.27736 0.77700 0.04257
 C2312 C 0.27145 0.77117 0.03185
 H2313 H 0.29257 0.77446 0.09194
 H2314 H 0.28165 0.76329 0.06908
 H2315 H 0.28792 0.80535 0.04560
 H2316 H 0.29887 0.81654 0.06851
 C2317 C 0.80795 0.30825 0.10642
 C2318 C 0.80272 0.30291 0.09511
 C2319 C 0.79644 0.29639 0.08170
 C2320 C 0.79415 0.30529 0.06888
 C2321 C 0.78789 0.29893 0.05591
 C2322 C 0.78392 0.28365 0.05572
 C2323 C 0.78626 0.27475 0.06853
 C2324 C 0.79251 0.28110 0.08148
 C2325 C 0.77710 0.27709 0.04260
 C2326 C 0.77114 0.27124 0.03192
 H2327 H 0.79713 0.31713 0.06893
 H2328 H 0.78608 0.30593 0.04609
 H2329 H 0.78318 0.26294 0.06853
 H2330 H 0.79421 0.27412 0.09133
 C2331 C 0.80782 0.80832 0.60668
 C2332 C 0.80257 0.80296 0.59539
 C2333 C 0.79627 0.79644 0.58199
 C2334 C 0.79027 0.78185 0.58243
 C2335 C 0.78403 0.77549 0.56948
 C2336 C 0.78378 0.78368 0.55602
 C2337 C 0.78982 0.79826 0.55555
 C2338 C 0.79607 0.80463 0.56852
 C2339 C 0.77704 0.77713 0.54285
 C2340 C 0.77112 0.77129 0.53214
 H2341 H 0.79037 0.77541 0.59279
 H2342 H 0.77935 0.76422 0.56998
 H2343 H 0.78964 0.80471 0.54520
 H2344 H 0.80069 0.81592 0.56805
 C2345 C 0.30779 0.69194 0.39323
 C2346 C 0.30262 0.69719 0.40462
 C2347 C 0.29646 0.70353 0.41819
 C2348 C 0.28601 0.69533 0.42674
 C2349 C 0.27983 0.70163 0.43978
 C2350 C 0.28408 0.71613 0.44433
 C2351 C 0.29461 0.72428 0.43584
 C2352 C 0.30079 0.71799 0.42281
 C2353 C 0.27720 0.72292 0.45733
 C2354 C 0.27121 0.72889 0.46794
 H2355 H 0.28258 0.68415 0.42328
 H2356 H 0.27163 0.69526 0.44622
 H2357 H 0.29792 0.73553 0.43922
 H2358 H 0.30885 0.72443 0.41628
 C2359 C 0.30786 0.19170 0.89341
 C2360 C 0.30268 0.19694 0.90480
 C2361 C 0.29649 0.20326 0.91836
 C2362 C 0.30079 0.21773 0.92298
 C2363 C 0.29455 0.22402 0.93598
 C2364 C 0.28401 0.21587 0.94445
 C2365 C 0.27978 0.20136 0.93989
 C2366 C 0.28602 0.19506 0.92688
 C2367 C 0.27710 0.22266 0.95743
 C2368 C 0.27109 0.22863 0.96802
 H2369 H 0.30886 0.22418 0.91646
 H2370 H 0.29783 0.23529 0.93935
 H2371 H 0.27156 0.19500 0.94630
 H2372 H 0.28259 0.18388 0.92340
 C2373 C 0.80783 0.69197 0.89326
 C2374 C 0.80267 0.69721 0.90465
 C2375 C 0.79650 0.70354 0.91822
 C2376 C 0.78605 0.69534 0.92675
 C2377 C 0.77984 0.70163 0.93978
 C2378 C 0.78408 0.71613 0.94434
 C2379 C 0.79462 0.72429 0.93586
 C2380 C 0.80082 0.71800 0.92284
 C2381 C 0.77721 0.72291 0.95734
 C2382 C 0.77122 0.72887 0.96796
 H2383 H 0.78262 0.68415 0.92328
 H2384 H 0.77164 0.69526 0.94621
 H2385 H 0.79791 0.73554 0.93923
 H2386 H 0.80888 0.72444 0.91631
 C2387 C 0.80779 0.19187 0.39319
 C2388 C 0.80260 0.19711 0.40457
 C2389 C 0.79641 0.20342 0.41814
 C2390 C 0.78596 0.19520 0.42665
 C2391 C 0.77974 0.20147 0.43970
 C2392 C 0.78397 0.21597 0.44428
 C2393 C 0.79450 0.22414 0.43581
 C2394 C 0.80071 0.21788 0.42277
 C2395 C 0.77708 0.22272 0.45728
 C2396 C 0.77107 0.22868 0.46789
 H2397 H 0.78253 0.18402 0.42315
 H2398 H 0.77155 0.19508 0.44611
 H2399 H 0.79779 0.23540 0.43921
 H2400 H 0.80876 0.22435 0.41626
 C2401 C 0.69202 0.30811 0.39327
 C2402 C 0.69729 0.30278 0.40457
 C2403 C 0.70363 0.29626 0.41797
 C2404 C 0.71037 0.28199 0.41737
 C2405 C 0.71662 0.27563 0.43032
 C2406 C 0.71615 0.28351 0.44396
 C2407 C 0.70938 0.29778 0.44460
 C2408 C 0.70312 0.30415 0.43162
 C2409 C 0.72285 0.27694 0.45715
 C2410 C 0.72875 0.27108 0.46787
 H2411 H 0.71083 0.27581 0.40688
 H2412 H 0.72186 0.26461 0.42970
 H2413 H 0.70900 0.30398 0.45508
 H2414 H 0.69794 0.31520 0.43221
 C2415 C 0.69192 0.80829 0.89342
 C2416 C 0.69721 0.80297 0.90472
 C2417 C 0.70360 0.79646 0.91810
 C2418 C 0.70312 0.80434 0.93175
 C2419 C 0.70943 0.79798 0.94471
 C2420 C 0.71623 0.78373 0.94405
 C2421 C 0.71666 0.77586 0.93041
 C2422 C 0.71036 0.78220 0.91748
 C2423 C 0.72298 0.77716 0.95723
 C2424 C 0.72891 0.77130 0.96793
 H2425 H 0.69792 0.81538 0.93236
 H2426 H 0.70907 0.80418 0.95519
 H2427 H 0.72192 0.76484 0.92978
 H2428 H 0.71080 0.77601 0.90699
 C2429 C 0.19201 0.30798 0.89326
 C2430 C 0.19727 0.30264 0.90456
 C2431 C 0.20357 0.29614 0.91799
 C2432 C 0.20469 0.30473 0.93116
 C2433 C 0.21092 0.29839 0.94416
 C2434 C 0.21604 0.28344 0.94403
 C2435 C 0.21487 0.27486 0.93087
 C2436 C 0.20865 0.28119 0.91789
 C2437 C 0.22281 0.27690 0.95721
 C2438 C 0.22875 0.27107 0.96792
 H2439 H 0.20080 0.31631 0.93135
 H2440 H 0.21181 0.30514 0.95426
 H2441 H 0.21884 0.26330 0.93063
 H2442 H 0.20786 0.27445 0.90777
 C2443 C 0.19199 0.80812 0.39320
 C2444 C 0.19727 0.80280 0.40451
 C2445 C 0.20361 0.79632 0.41793
 C2446 C 0.20406 0.80465 0.43130
 C2447 C 0.21035 0.79832 0.44428
 C2448 C 0.21620 0.78364 0.44393
 C2449 C 0.21570 0.77532 0.43056
 C2450 C 0.20942 0.78163 0.41760
 C2451 C 0.22296 0.77711 0.45711
 C2452 C 0.22890 0.77128 0.46783
 H2453 H 0.19961 0.81602 0.43168
 H2454 H 0.21072 0.80487 0.45455
 H2455 H 0.22022 0.76397 0.43014
 H2456 H 0.20914 0.77510 0.40732
 C2457 C 0.69211 0.69203 0.60681
 C2458 C 0.69730 0.69727 0.59542
 C2459 C 0.70350 0.70359 0.58185
 C2460 C 0.69854 0.71769 0.57674
 C2461 C 0.70475 0.72397 0.56371
 C2462 C 0.71594 0.71617 0.55573
 C2463 C 0.72084 0.70203 0.56080
 C2464 C 0.71463 0.69575 0.57383
 C2465 C 0.72282 0.72298 0.54274
 C2466 C 0.72882 0.72895 0.53213
 H2467 H 0.68997 0.72387 0.58288
 H2468 H 0.70095 0.73495 0.55995
 H2469 H 0.72956 0.69595 0.55478
 H2470 H 0.71857 0.68486 0.57771
 C2471 C 0.69280 0.19206 0.10699
 C2472 C 0.69798 0.19733 0.09561
 C2473 C 0.70411 0.20364 0.08201
 C2474 C 0.71518 0.19578 0.07392
 C2475 C 0.72128 0.20202 0.06081
 C2476 C 0.71631 0.21613 0.05573
 C2477 C 0.70517 0.22394 0.06377
 C2478 C 0.69908 0.21770 0.07687
 C2479 C 0.72307 0.22289 0.04266
 C2480 C 0.72898 0.22885 0.03199
 H2481 H 0.71916 0.18490 0.07780
 H2482 H 0.72995 0.19593 0.05474
 H2483 H 0.70131 0.23490 0.05999
 H2484 H 0.69053 0.22388 0.08304
 C2485 C 0.19213 0.69211 0.10646
 C2486 C 0.19741 0.69745 0.09516
 C2487 C 0.20376 0.70396 0.08175
 C2488 C 0.21009 0.71841 0.08226
 C2489 C 0.21639 0.72475 0.06931
 C2490 C 0.21638 0.71667 0.05578
 C2491 C 0.21001 0.70224 0.05524
 C2492 C 0.20370 0.69589 0.06821
 C2493 C 0.22317 0.72321 0.04261
 C2494 C 0.22912 0.72903 0.03190
 H2495 H 0.21020 0.72475 0.09266
 H2496 H 0.22132 0.73590 0.06986
 H2497 H 0.20998 0.69588 0.04485
 H2498 H 0.19884 0.68470 0.06769
 C2499 C 0.19215 0.19178 0.60693
 C2500 C 0.19732 0.19711 0.59557
 C2501 C 0.20348 0.20356 0.58205
 C2502 C 0.21060 0.19433 0.57140
 C2503 C 0.21677 0.20067 0.55837
 C2504 C 0.21584 0.21625 0.55594
 C2505 C 0.20865 0.22545 0.56655
 C2506 C 0.20248 0.21912 0.57957
 C2507 C 0.22271 0.22292 0.54287
 C2508 C 0.22870 0.22882 0.53222
 H2509 H 0.21146 0.18229 0.57321
 H2510 H 0.22238 0.19346 0.55027
 H2511 H 0.20793 0.23752 0.56482
 H2512 H 0.19702 0.22637 0.58774
   
