data_POSCAR
  _audit_creation_date              2014-09-24
  _audit_creation_method            'ToBaCCo'
  _symmetry_space_group_name_H-M    'P1'
  _symmetry_Int_Tables_number       1
  _symmetry_cell_setting            triclinic
  loop_
  _symmetry_equiv_pos_as_xyz
 x,y,z
_cell_length_a 58.2297
_cell_length_b 56.2429
_cell_length_c 59.6047
_cell_angle_alpha 88.903300
_cell_angle_beta 91.177800
_cell_angle_gamma 91.096300
loop_
  _atom_site_label
  _atom_site_type_symbol
  _atom_site_fract_x
  _atom_site_fract_y
  _atom_site_fract_z
C1 C 0.19235 0.21181 0.22722
 C2 C 0.20434 0.21898 0.20804
 C3 C 0.22327 0.20653 0.20154
 C4 C 0.23053 0.18670 0.21431
 C5 C 0.21862 0.17965 0.23323
 C6 C 0.19946 0.19231 0.23975
 C7 C 0.17320 0.22037 0.23725
 N8 N 0.16855 0.20659 0.25564
 C9 C 0.18458 0.18932 0.25725
 C10 C 0.22921 0.15997 0.24225
 N11 N 0.24733 0.15479 0.22931
 C12 C 0.24832 0.17113 0.21223
 C13 C 0.23112 0.21735 0.18214
 N14 N 0.21750 0.23610 0.17687
 C15 C 0.20104 0.23714 0.19264
 H16 H 0.16333 0.23552 0.23154
 H17 H 0.18528 0.17530 0.26990
 H18 H 0.22422 0.15043 0.25737
 H19 H 0.26099 0.17157 0.19917
 H20 H 0.24567 0.21198 0.17254
 H21 H 0.18730 0.24980 0.19277
 C22 C 0.68557 0.73430 0.72147
 C23 C 0.69598 0.73834 0.70066
 C24 C 0.71412 0.72447 0.69448
 C25 C 0.72219 0.70644 0.70907
 C26 C 0.71203 0.70270 0.72960
 C27 C 0.69363 0.71662 0.73578
 C28 C 0.66735 0.74452 0.73185
 N29 N 0.66429 0.73342 0.75208
 C30 C 0.68036 0.71631 0.75453
 C31 C 0.72318 0.68436 0.74038
 N32 N 0.73997 0.67676 0.72692
 C33 C 0.73942 0.69007 0.70764
 C34 C 0.72091 0.73249 0.67366
 N35 N 0.70749 0.75097 0.66707
 C36 C 0.69209 0.75456 0.68349
 H37 H 0.65694 0.75880 0.72508
 H38 H 0.68207 0.70398 0.76857
 H39 H 0.71902 0.67686 0.75669
 H40 H 0.75079 0.68805 0.69368
 H41 H 0.73488 0.72562 0.66414
 H42 H 0.67898 0.76793 0.68315
 C43 C 0.30620 0.77258 0.70226
 C44 C 0.29196 0.76301 0.68541
 C45 C 0.27167 0.77395 0.67926
 C46 C 0.26531 0.79471 0.69012
 C47 C 0.27940 0.80412 0.70681
 C48 C 0.29997 0.79294 0.71298
 C49 C 0.32664 0.76531 0.71175
 N50 N 0.33303 0.78077 0.72807
 C51 C 0.31675 0.79771 0.72898
 C52 C 0.26900 0.82405 0.71444
 N53 N 0.24880 0.82709 0.70293
 C54 C 0.24647 0.80910 0.68796
 C55 C 0.26158 0.76064 0.66241
 N56 N 0.27523 0.74189 0.65839
 C57 C 0.29388 0.74331 0.67240
 H58 H 0.33576 0.74951 0.70742
 H59 H 0.31701 0.81232 0.74055
 H60 H 0.27567 0.83543 0.72761
 H61 H 0.23229 0.80641 0.67624
 H62 H 0.24548 0.76430 0.65372
 H63 H 0.30814 0.73126 0.67291
 C64 C 0.80167 0.30079 0.22127
 C65 C 0.78945 0.29506 0.20155
 C66 C 0.77020 0.30772 0.19516
 C67 C 0.76289 0.32631 0.20849
 C68 C 0.77500 0.33196 0.22793
 C69 C 0.79446 0.31905 0.23440
 C70 C 0.82105 0.29162 0.23146
 N71 N 0.82580 0.30377 0.25059
 C72 C 0.80948 0.32065 0.25245
 C73 C 0.76428 0.35078 0.23735
 N74 N 0.74593 0.35675 0.22409
 C75 C 0.74489 0.34177 0.20647
 C76 C 0.76188 0.29828 0.17539
 N77 N 0.77565 0.28017 0.16966
 C78 C 0.79250 0.27811 0.18565
 H79 H 0.83093 0.27706 0.22533
 H80 H 0.80844 0.33343 0.26568
 H81 H 0.76942 0.35924 0.25285
 H82 H 0.73211 0.34225 0.19302
 H83 H 0.74675 0.30406 0.16615
 H84 H 0.80606 0.26520 0.18569
 C85 C 0.81703 0.72193 0.27090
 C86 C 0.80692 0.72992 0.29057
 C87 C 0.78610 0.72022 0.29714
 C88 C 0.77496 0.70279 0.28428
 C89 C 0.78475 0.69488 0.26497
 C90 C 0.80604 0.70454 0.25823
 C91 C 0.83724 0.72787 0.26038
 N92 N 0.83893 0.71460 0.24160
 C93 C 0.81978 0.70028 0.24025
 C94 C 0.76990 0.67782 0.25616
 N95 N 0.75136 0.67549 0.26965
 C96 C 0.75450 0.69068 0.28694
 C97 C 0.78027 0.73082 0.31668
 N98 N 0.79690 0.74696 0.32229
 C99 C 0.81337 0.74659 0.30639
 H100 H 0.84983 0.74096 0.26607
 H101 H 0.81582 0.68754 0.22732
 H102 H 0.77234 0.66794 0.24102
 H103 H 0.74299 0.69264 0.30077
 H104 H 0.76485 0.72714 0.32610
 H105 H 0.82897 0.75736 0.30639
 C106 C 0.31355 0.22598 -0.21724
 C107 C 0.30080 0.23078 -0.19820
 C108 C 0.28124 0.21742 -0.19337
 C109 C 0.27429 0.19878 -0.20758
 C110 C 0.28700 0.19405 -0.22627
 C111 C 0.30667 0.20778 -0.23118
 C112 C 0.33336 0.23594 -0.22584
 N113 N 0.33874 0.22422 -0.24481
 C114 C 0.32237 0.20695 -0.24808
 C115 C 0.27695 0.17477 -0.23660
 N116 N 0.25829 0.16737 -0.22472
 C117 C 0.25655 0.18215 -0.20696
 C118 C 0.27270 0.22606 -0.17372
 N119 N 0.28675 0.24408 -0.16651
 C120 C 0.30391 0.24708 -0.18149
 H121 H 0.34294 0.25061 -0.21854
 H122 H 0.32192 0.19449 -0.26172
 H123 H 0.28321 0.16684 -0.25161
 H124 H 0.24356 0.18069 -0.19424
 H125 H 0.25760 0.21948 -0.16512
 H126 H 0.31762 0.26030 -0.18050
 C127 C 0.67670 0.27978 -0.20154
 C128 C 0.69072 0.27493 -0.18265
 C129 C 0.71031 0.28864 -0.17855
 C130 C 0.71598 0.30760 -0.19320
 C131 C 0.70208 0.31238 -0.21171
 C132 C 0.68244 0.29832 -0.21597
 C133 C 0.65697 0.26910 -0.21005
 N134 N 0.65069 0.28069 -0.22946
 C135 C 0.66628 0.29863 -0.23305
 C136 C 0.71143 0.33171 -0.22286
 N137 N 0.73082 0.33901 -0.21158
 C138 C 0.73371 0.32416 -0.19343
 C139 C 0.72073 0.27955 -0.15938
 N140 N 0.70786 0.26083 -0.15168
 C141 C 0.68950 0.25786 -0.16588
 H142 H 0.64834 0.25376 -0.20269
 H143 H 0.66605 0.31098 -0.24722
 H144 H 0.70433 0.33965 -0.23806
 H145 H 0.74758 0.32542 -0.18111
 H146 H 0.73651 0.28609 -0.15156
 H147 H 0.67642 0.24402 -0.16447
 C148 C 0.19578 0.77411 0.28913
 C149 C 0.20869 0.76639 0.30785
 C150 C 0.22972 0.77692 0.31260
 C151 C 0.23823 0.79516 0.29867
 C152 C 0.22557 0.80306 0.28021
 C153 C 0.20403 0.79228 0.27529
 C154 C 0.17484 0.76682 0.28065
 N155 N 0.16988 0.77999 0.26191
 C156 C 0.18769 0.79558 0.25841
 C157 C 0.23820 0.82145 0.27046
 N158 N 0.25818 0.82462 0.28251
 C159 C 0.25813 0.80843 0.29978
 C160 C 0.23832 0.76630 0.33186
 N161 N 0.22292 0.74948 0.33896
 C162 C 0.20478 0.74932 0.32426
 H163 H 0.16432 0.75246 0.28745
 H164 H 0.18872 0.80829 0.24458
 H165 H 0.23313 0.83180 0.25573
 H166 H 0.27113 0.80658 0.31286
 H167 H 0.25471 0.77042 0.33988
 H168 H 0.18973 0.73781 0.32557
 C169 C 0.47179 0.44248 0.46695
 C170 C 0.47868 0.45525 0.44761
 C171 C 0.46601 0.47444 0.43986
 C172 C 0.44636 0.48116 0.45121
 C173 C 0.43966 0.46859 0.47013
 C174 C 0.45243 0.44925 0.47805
 C175 C 0.48033 0.42291 0.47850
 N176 N 0.46666 0.41792 0.49631
 C177 C 0.44950 0.43396 0.49599
 C178 C 0.41997 0.47865 0.47752
 N179 N 0.41447 0.49714 0.46359
 C180 C 0.43057 0.49881 0.44737
 C181 C 0.47634 0.48328 0.42087
 N182 N 0.49504 0.47009 0.41675
 C183 C 0.49659 0.45284 0.43307
 H184 H 0.49540 0.41307 0.47429
 H185 H 0.43553 0.43437 0.50764
 H186 H 0.41028 0.47285 0.49201
 H187 H 0.43074 0.51157 0.43357
 H188 H 0.47057 0.49826 0.41071
 H189 H 0.50954 0.43933 0.43431
 C190 C -0.01972 -0.05657 0.97118
 C191 C -0.01091 -0.04279 0.95325
 C192 C -0.02029 -0.02089 0.94813
 C193 C -0.03856 -0.01256 0.96042
 C194 C -0.04735 -0.02609 0.97785
 C195 C -0.03776 -0.04819 0.98337
 C196 C -0.01382 -0.07823 0.98064
 N197 N -0.02764 -0.08312 0.99840
 C198 C -0.04243 -0.06474 0.99998
 C199 C -0.06521 -0.01361 0.98643
 N200 N -0.06742 0.00723 0.97460
 C201 C -0.05098 0.00792 0.95866
 C202 C -0.00867 -0.01122 0.93032
 N203 N 0.00768 -0.02660 0.92430
 C204 C 0.00639 -0.04609 0.93813
 H205 H -0.00009 -0.08937 0.97522
 H206 H -0.05561 -0.06304 1.01232
 H207 H -0.07589 -0.01940 1.00024
 H208 H -0.04824 0.02189 0.94625
 H209 H -0.01230 0.00563 0.92205
 H210 H 0.01724 -0.06144 0.93728
 C211 C 1.03125 0.55304 0.96528
 C212 C 1.02501 0.54072 0.94584
 C213 C 1.03626 0.52032 0.94071
 C214 C 1.05381 0.51189 0.95488
 C215 C 1.06035 0.52401 0.97402
 C216 C 1.04873 0.54494 0.97941
 C217 C 1.02276 0.57318 0.97425
 N218 N 1.03439 0.57795 0.99375
 C219 C 1.05037 0.56067 0.99701
 C220 C 1.07834 0.51145 0.98384
 N221 N 1.08242 0.49202 0.97118
 C222 C 1.06732 0.49242 0.95346
 C223 C 1.02681 0.51198 0.92101
 N224 N 1.00997 0.52695 0.91396
 C225 C 1.00869 0.54454 0.92916
 H226 H 1.00878 0.58318 0.96686
 H227 H 1.06227 0.55950 1.01117
 H228 H 1.08766 0.51610 0.99908
 H229 H 1.06639 0.48003 0.93983
 H230 H 1.03168 0.49594 0.91275
 H231 H 0.99678 0.55910 0.92813
 C232 C 0.54084 0.06066 0.46216
 C233 C 0.53560 0.04756 0.44300
 C234 C 0.54837 0.02799 0.43788
 C235 C 0.56697 0.02150 0.45204
 C236 C 0.57221 0.03463 0.47097
 C237 C 0.55895 0.05432 0.47615
 C238 C 0.53100 0.08029 0.47092
 N239 N 0.54265 0.08623 0.49004
 C240 C 0.55979 0.07035 0.49343
 C241 C 0.59126 0.02479 0.48117
 N242 N 0.59794 0.00594 0.46897
 C243 C 0.58299 0.00383 0.45116
 C244 C 0.53911 0.01902 0.41814
 N245 N 0.52138 0.03300 0.41127
 C246 C 0.51913 0.05037 0.42649
 H247 H 0.51609 0.08919 0.46397
 H248 H 0.57196 0.07048 0.50740
 H249 H 0.59951 0.03127 0.49632
 H250 H 0.58387 -0.00939 0.43825
 H251 H 0.54502 0.00375 0.40927
 H252 H 0.50625 0.06401 0.42576
 C253 C -0.02494 0.06254 0.53974
 C254 C -0.02048 0.04975 0.55970
 C255 C -0.03351 0.02964 0.56514
 C256 C -0.05159 0.02230 0.55061
 C257 C -0.05592 0.03515 0.53099
 C258 C -0.04249 0.05521 0.52550
 C259 C -0.01503 0.08265 0.53022
 N260 N -0.02627 0.08764 0.51049
 C261 C -0.04308 0.07087 0.50755
 C262 C -0.07448 0.02479 0.52032
 N263 N -0.08194 0.00592 0.53292
 C264 C -0.06790 0.00409 0.55142
 C265 C -0.02496 0.02102 0.58546
 N266 N -0.00742 0.03562 0.59241
 C267 C -0.00459 0.05315 0.57668
 H268 H -0.00064 0.09266 0.53720
 H269 H -0.05499 0.07015 0.49337
 H270 H -0.08186 0.03069 0.50443
 H271 H -0.06971 -0.00918 0.56469
 H272 H -0.03115 0.00545 0.59462
 H273 H 0.00837 0.06719 0.57733
 C274 C 0.46202 0.56798 0.01566
 C275 C 0.46825 0.55706 0.03617
 C276 C 0.45696 0.53649 0.04332
 C277 C 0.43933 0.52646 0.02988
 C278 C 0.43342 0.53716 0.00954
 C279 C 0.44479 0.55806 0.00243
 C280 C 0.46969 0.58829 0.00474
 N281 N 0.45754 0.59101 -0.01488
 C282 C 0.44226 0.57241 -0.01637
 C283 C 0.41586 0.52386 0.00010
 N284 N 0.41088 0.50525 0.01416
 C285 C 0.42511 0.50677 0.03248
 C286 C 0.46666 0.52998 0.06376
 N287 N 0.48367 0.54594 0.06902
 C288 C 0.48462 0.56264 0.05225
 H289 H 0.48310 0.60030 0.01078
 H290 H 0.42987 0.56941 -0.02981
 H291 H 0.40707 0.52787 -0.01564
 H292 H 0.42507 0.49447 0.04668
 H293 H 0.46193 0.51455 0.07390
 H294 H 0.49623 0.57788 0.05173
 C295 C 0.53227 -0.03960 0.02573
 C296 C 0.52520 -0.02982 0.04581
 C297 C 0.53801 -0.01173 0.05562
 C298 C 0.55804 -0.00309 0.04538
 C299 C 0.56504 -0.01281 0.02555
 C300 C 0.55202 -0.03115 0.01560
 C301 C 0.52354 -0.05782 0.01294
 N302 N 0.53741 -0.06062 -0.00482
 C303 C 0.55494 -0.04436 -0.00331
 C304 C 0.58534 -0.00159 0.01988
 N305 N 0.59072 0.01484 0.03565
 C306 C 0.57411 0.01400 0.05136
 C307 C 0.52753 -0.00634 0.07531
 N308 N 0.50861 -0.02064 0.07760
 C309 C 0.50710 -0.03510 0.05960
 H310 H 0.50827 -0.06844 0.01640
 H311 H 0.56912 -0.04259 -0.01471
 H312 H 0.59550 -0.00513 0.00535
 H313 H 0.57394 0.02459 0.06631
 H314 H 0.53334 0.00689 0.08721
 H315 H 0.49422 -0.04892 0.05693
 C316 C 1.01171 0.41973 0.54777
 C317 C 1.00510 0.43225 0.56665
 C318 C 1.01806 0.45166 0.57370
 C319 C 1.03768 0.45892 0.56202
 C320 C 1.04422 0.44657 0.54350
 C321 C 1.03113 0.42690 0.53628
 C322 C 1.00216 0.40061 0.53663
 N323 N 1.01533 0.39606 0.51866
 C324 C 1.03304 0.41212 0.51837
 C325 C 1.06361 0.45774 0.53535
 N326 N 1.06899 0.47675 0.54839
 C327 C 1.05309 0.47750 0.56481
 C328 C 1.00764 0.46052 0.59213
 N329 N 0.98858 0.44706 0.59650
 C330 C 0.98690 0.42966 0.58096
 H331 H 0.98648 0.39120 0.54107
 H332 H 1.04627 0.41313 0.50587
 H333 H 1.07294 0.45253 0.52076
 H334 H 1.05248 0.49044 0.57795
 H335 H 1.01343 0.47582 0.60161
 H336 H 0.97359 0.41602 0.58006
 C337 C 0.42787 0.00941 0.22225
 H338 H 0.42866 0.02359 0.23428
 C339 C 0.44358 0.00914 0.20494
 H340 H 0.45610 0.02353 0.20361
 C341 C 0.40982 -0.02598 0.20924
 H342 H 0.39677 -0.03975 0.21113
 C343 C 0.42522 -0.02697 0.19164
 H344 H 0.42377 -0.04152 0.18002
 N345 N 0.41124 -0.00777 0.22390
 C346 C 0.35747 0.02752 0.25945
 H347 H 0.35565 0.01594 0.27403
 C348 C 0.34327 0.04711 0.25651
 H349 H 0.33067 0.05060 0.26909
 C350 C 0.37572 0.03654 0.22509
 H351 H 0.38787 0.03198 0.21251
 C352 C 0.36186 0.05627 0.22146
 H353 H 0.36363 0.06646 0.20600
 Zn354 Zn 0.39092 -0.00514 0.24791
 N355 N 0.37344 0.02273 0.24393
 C356 C 0.40927 0.01508 0.28809
 N357 N 0.40945 -0.00395 0.27438
 C358 C 0.42431 -0.02202 0.27817
 C359 C 0.43978 -0.02146 0.29639
 C360 C 0.42440 0.01634 0.30653
 C361 C 0.35498 -0.03435 0.23147
 C362 C 0.33844 -0.05269 0.23205
 C363 C 0.35272 -0.06393 0.26901
 C364 C 0.36900 -0.04548 0.26767
 N365 N 0.36992 -0.03119 0.24906
 H366 H 0.39777 0.02956 0.28451
 H367 H 0.42445 -0.03668 0.26668
 H368 H 0.45183 -0.03575 0.29853
 H369 H 0.42400 0.03173 0.31715
 H370 H 0.35591 -0.02252 0.21698
 H371 H 0.32717 -0.05503 0.21760
 H372 H 0.35224 -0.07488 0.28413
 H373 H 0.38064 -0.04236 0.28169
 C374 C 0.34536 0.06186 0.23733
 C375 C 0.44240 -0.00925 0.18931
 C376 C 0.33700 -0.06773 0.25113
 C377 C 0.44001 -0.00204 0.31091
 C378 C 0.08961 -0.02125 0.72586
 H379 H 0.09082 -0.03721 0.73621
 C380 C 0.07321 -0.02003 0.70846
 H381 H 0.06176 -0.03514 0.70600
 C382 C 0.10261 0.01803 0.71767
 H383 H 0.11383 0.03297 0.72150
 C384 C 0.08657 0.01996 0.69999
 H385 H 0.08599 0.03640 0.69026
 N386 N 0.10409 -0.00251 0.72996
 C387 C 0.16387 -0.03440 0.76298
 H388 H 0.16444 -0.02480 0.77855
 C389 C 0.18000 -0.05185 0.75920
 H390 H 0.19253 -0.05574 0.77232
 C391 C 0.14601 -0.04125 0.72758
 H392 H 0.13285 -0.03694 0.71521
 C393 C 0.16189 -0.05874 0.72304
 H394 H 0.16064 -0.06775 0.70715
 Zn395 Zn 0.12561 -0.00615 0.75410
 N396 N 0.14710 -0.02970 0.74742
 C397 C 0.11265 -0.03612 0.79125
 N398 N 0.10872 -0.01539 0.77977
 C399 C 0.09215 -0.00038 0.78612
 C400 C 0.07938 -0.00547 0.80520
 C401 C 0.10018 -0.04197 0.81045
 C402 C 0.15565 0.03223 0.74327
 C403 C 0.16879 0.05289 0.74711
 C404 C 0.15497 0.05302 0.78500
 C405 C 0.14200 0.03247 0.78038
 N406 N 0.14234 0.02263 0.75972
 H407 H 0.12554 -0.04809 0.78568
 H408 H 0.08914 0.01580 0.77648
 H409 H 0.06647 0.00693 0.81008
 H410 H 0.10411 -0.05818 0.81968
 H411 H 0.15613 0.02375 0.72715
 H412 H 0.17912 0.06025 0.73367
 H413 H 0.15476 0.05989 0.80180
 H414 H 0.13210 0.02413 0.79358
 C415 C 0.17921 -0.06432 0.73894
 C416 C 0.07168 0.00070 0.69495
 C417 C 0.16853 0.06371 0.76819
 C418 C 0.08337 -0.02644 0.81775
 C419 C 0.56481 0.50304 0.21556
 H420 H 0.56450 0.48767 0.22676
 C421 C 0.54879 0.50473 0.19788
 H422 H 0.53656 0.49025 0.19554
 C423 C 0.58210 0.53984 0.20476
 H424 H 0.59504 0.55354 0.20757
 C425 C 0.56635 0.54231 0.18690
 H426 H 0.56745 0.55797 0.17609
 N427 N 0.58129 0.52022 0.21842
 C428 C 0.63666 0.48242 0.25260
 H429 H 0.63899 0.49322 0.26733
 C430 C 0.65077 0.46306 0.24950
 H431 H 0.66381 0.45897 0.26213
 C432 C 0.61707 0.47517 0.21811
 H433 H 0.60437 0.48037 0.20559
 C434 C 0.63090 0.45570 0.21426
 H435 H 0.62857 0.44634 0.19869
 Zn436 Zn 0.60302 0.51556 0.24210
 N437 N 0.62007 0.48796 0.23712
 C438 C 0.58674 0.49123 0.28102
 N439 N 0.58659 0.51216 0.26920
 C440 C 0.57361 0.53056 0.27568
 C441 C 0.56025 0.52838 0.29486
 C442 C 0.57358 0.48825 0.30023
 C443 C 0.63857 0.54399 0.22522
 C444 C 0.65641 0.56094 0.22539
 C445 C 0.64555 0.57172 0.26268
 C446 C 0.62792 0.55451 0.26180
 N447 N 0.62478 0.54105 0.24324
 H448 H 0.59663 0.47656 0.27532
 H449 H 0.57358 0.54693 0.26585
 H450 H 0.55049 0.54351 0.29981
 H451 H 0.57375 0.47131 0.30916
 H452 H 0.63588 0.53285 0.21077
 H453 H 0.66691 0.56304 0.21070
 H454 H 0.64799 0.58200 0.27776
 H455 H 0.61717 0.55155 0.27618
 C456 C 0.64803 0.44933 0.23014
 C457 C 0.54944 0.52456 0.18314
 C458 C 0.66034 0.57489 0.24446
 C459 C 0.55986 0.50685 0.30730
 C460 C 0.90486 0.51431 0.72696
 H461 H 0.90514 0.53142 0.73496
 C462 C 0.92044 0.50978 0.71019
 H463 H 0.93227 0.52383 0.70510
 C464 C 0.88850 0.47559 0.72378
 H465 H 0.87632 0.46217 0.72938
 C466 C 0.90381 0.47029 0.70693
 H467 H 0.90306 0.45281 0.69960
 N468 N 0.88912 0.49743 0.73322
 C469 C 0.83431 0.53812 0.76181
 H470 H 0.83289 0.52933 0.77804
 C471 C 0.81996 0.55694 0.75602
 H472 H 0.80746 0.56247 0.76798
 C473 C 0.85224 0.54123 0.72654
 H474 H 0.86470 0.53495 0.71499
 C475 C 0.83830 0.56020 0.72009
 H476 H 0.84086 0.56857 0.70383
 Zn477 Zn 0.86922 0.50540 0.75646
 N478 N 0.85025 0.53085 0.74723
 C479 C 0.88692 0.53550 0.79117
 N480 N 0.88810 0.51400 0.78123
 C481 C 0.90360 0.49761 0.78833
 C482 C 0.91827 0.50222 0.80654
 C483 C 0.90133 0.54090 0.80950
 C484 C 0.83545 0.46991 0.74877
 C485 C 0.82130 0.45035 0.75406
 C486 C 0.83661 0.45097 0.79201
 C487 C 0.85056 0.47039 0.78595
 N488 N 0.85006 0.47918 0.76453
 H489 H 0.87492 0.54855 0.78486
 H490 H 0.90438 0.48080 0.77988
 H491 H 0.93023 0.48870 0.81207
 H492 H 0.90029 0.55823 0.81692
 H493 H 0.83500 0.47758 0.73198
 H494 H 0.81011 0.44300 0.74111
 H495 H 0.83712 0.44474 0.80928
 H496 H 0.86159 0.47856 0.79850
 C497 C 0.82182 0.56834 0.73492
 C498 C 0.92013 0.48745 0.69998
 C499 C 0.82196 0.44038 0.77587
 C500 C 0.91715 0.52400 0.81757
 C501 C 0.21992 0.39566 0.02056
 H502 H 0.23141 0.39448 0.03502
 C503 C 0.20229 0.41222 0.02005
 H504 H 0.20022 0.42322 0.03451
 C505 C 0.20881 0.38217 -0.01552
 H506 H 0.21159 0.37068 -0.02948
 C507 C 0.19107 0.39852 -0.01679
 H508 H 0.18033 0.39921 -0.03183
 N509 N 0.22273 0.38092 0.00302
 C510 C 0.26022 0.32046 0.03146
 H511 H 0.27455 0.32004 0.02022
 C512 C 0.25877 0.30403 0.04928
 H513 H 0.27239 0.29139 0.05174
 C514 C 0.22564 0.33823 0.04209
 H515 H 0.21263 0.35141 0.03913
 C516 C 0.22347 0.32214 0.06007
 H517 H 0.20878 0.32328 0.07081
 Zn518 Zn 0.24771 0.35972 0.00452
 N519 N 0.24403 0.33740 0.02846
 C520 C 0.28865 0.37495 0.02753
 N521 N 0.27462 0.37860 0.00931
 C522 C 0.27862 0.39687 -0.00543
 C523 C 0.29745 0.41225 -0.00223
 C524 C 0.30773 0.38987 0.03134
 C525 C 0.23256 0.32624 -0.02717
 C526 C 0.23357 0.31214 -0.04619
 C527 C 0.26977 0.33130 -0.05510
 C528 C 0.26812 0.34491 -0.03585
 N529 N 0.24962 0.34231 -0.02241
 H530 H 0.28501 0.36065 0.03932
 H531 H 0.26698 0.39962 -0.01958
 H532 H 0.30015 0.42680 -0.01411
 H533 H 0.31881 0.38622 0.04573
 H534 H 0.21825 0.32414 -0.01595
 H535 H 0.21999 0.29913 -0.04909
 H536 H 0.28466 0.33381 -0.06553
 H537 H 0.28180 0.35736 -0.03158
 C538 C 0.24023 0.30480 0.06399
 C539 C 0.18758 0.41396 0.00110
 C540 C 0.25235 0.31461 -0.06062
 C541 C 0.31224 0.40904 0.01647
 C542 C 0.74025 0.09967 0.00015
 H543 H 0.75148 0.09985 -0.01409
 C544 C 0.72190 0.08345 0.00114
 H545 H 0.71899 0.07164 -0.01278
 C546 C 0.73028 0.11579 0.03498
 H547 H 0.73377 0.12823 0.04825
 C548 C 0.71175 0.09976 0.03673
 H549 H 0.70104 0.10020 0.05135
 N550 N 0.74385 0.11569 0.01669
 C551 C 0.78040 0.17340 -0.01811
 H552 H 0.79592 0.17500 -0.00792
 C553 C 0.77688 0.18883 -0.03650
 H554 H 0.78983 0.20233 -0.03997
 C555 C 0.74427 0.15457 -0.02478
 H556 H 0.73128 0.14165 -0.01991
 C557 C 0.74013 0.16942 -0.04333
 H558 H 0.72409 0.16725 -0.05265
 Zn559 Zn 0.76913 0.13687 0.01302
 N560 N 0.76426 0.15658 -0.01272
 C561 C 0.80756 0.11786 -0.00903
 N562 N 0.79499 0.11756 0.00994
 C563 C 0.79944 0.10195 0.02709
 C564 C 0.81722 0.08583 0.02567
 C565 C 0.82542 0.10188 -0.01125
 C566 C 0.75574 0.17141 0.04324
 C567 C 0.75786 0.18621 0.06175
 C568 C 0.79603 0.17134 0.06874
 C569 C 0.79314 0.15678 0.05017
 N570 N 0.77307 0.15673 0.03810
 H571 H 0.80342 0.13009 -0.02266
 H572 H 0.78900 0.10198 0.04190
 H573 H 0.82058 0.07405 0.03985
 H574 H 0.83498 0.10215 -0.02665
 H575 H 0.74016 0.17143 0.03304
 H576 H 0.74369 0.19745 0.06579
 H577 H 0.81233 0.17126 0.07777
 H578 H 0.80708 0.14571 0.04532
 C579 C 0.75651 0.18688 -0.04956
 C580 C 0.70731 0.08330 0.01964
 C581 C 0.77809 0.18606 0.07501
 C582 C 0.83030 0.08533 0.00612
 C583 C 0.20568 0.56833 0.48867
 H584 H 0.21516 0.56873 0.47324
 C585 C 0.18795 0.55162 0.49173
 H586 H 0.18376 0.53973 0.47817
 C587 C 0.19961 0.58421 0.52453
 H588 H 0.20443 0.59672 0.53740
 C589 C 0.18194 0.56764 0.52842
 H590 H 0.17325 0.56782 0.54430
 N591 N 0.21090 0.58441 0.50480
 C592 C 0.24554 0.64115 0.46741
 H593 H 0.26115 0.64278 0.47748
 C594 C 0.24237 0.65572 0.44848
 H595 H 0.25581 0.66840 0.44403
 C596 C 0.20912 0.62264 0.46136
 H597 H 0.19596 0.61015 0.46677
 C598 C 0.20514 0.63699 0.44234
 H599 H 0.18881 0.63528 0.43352
 Zn600 Zn 0.23523 0.60626 0.49938
 N601 N 0.22922 0.62473 0.47324
 C602 C 0.27360 0.58878 0.47644
 N603 N 0.26209 0.58835 0.49607
 C604 C 0.26884 0.57420 0.51363
 C605 C 0.28820 0.56012 0.51205
 C606 C 0.29301 0.57492 0.47409
 C607 C 0.22074 0.64213 0.52713
 C608 C 0.22232 0.65902 0.54398
 C609 C 0.26098 0.64625 0.55238
 C610 C 0.25866 0.62962 0.53536
 N611 N 0.23868 0.62775 0.52326
 H612 H 0.26762 0.59957 0.46241
 H613 H 0.25920 0.57398 0.52895
 H614 H 0.29351 0.54957 0.52653
 H615 H 0.30184 0.57543 0.45827
 H616 H 0.20513 0.64040 0.51708
 H617 H 0.20759 0.66985 0.54702
 H618 H 0.27709 0.64754 0.56173
 H619 H 0.27295 0.61849 0.53166
 C620 C 0.22203 0.65367 0.43550
 C621 C 0.17580 0.55099 0.51192
 C622 C 0.24274 0.66136 0.55680
 C623 C 0.30051 0.56021 0.49198
 C624 C 0.72507 0.89887 0.50147
 H625 H 0.73306 0.89848 0.51802
 C626 C 0.70659 0.91386 0.49692
 H627 H 0.70046 0.92482 0.51019
 C628 C 0.72346 0.88494 0.46426
 H629 H 0.73032 0.87399 0.45140
 C630 C 0.70510 0.89980 0.45891
 H631 H 0.69843 0.90004 0.44186
 N632 N 0.73273 0.88432 0.48539
 C633 C 0.76428 0.82532 0.52267
 H634 H 0.78035 0.82454 0.51394
 C635 C 0.76000 0.80969 0.54064
 H636 H 0.77317 0.79730 0.54574
 C637 C 0.72825 0.84334 0.52695
 H638 H 0.71580 0.85629 0.52146
 C639 C 0.72325 0.82804 0.54502
 H640 H 0.70699 0.82957 0.55332
 Zn641 Zn 0.75707 0.86327 0.49276
 N642 N 0.74873 0.84207 0.51651
 C643 C 0.79258 0.87910 0.52262
 N644 N 0.78327 0.88170 0.50160
 C645 C 0.79191 0.89808 0.48681
 C646 C 0.81096 0.91225 0.49279
 C647 C 0.81168 0.89282 0.52926
 C648 C 0.74611 0.82934 0.46098
 C649 C 0.74906 0.81423 0.44305
 C650 C 0.78785 0.82962 0.43951
 C651 C 0.78410 0.84457 0.45755
 N652 N 0.76341 0.84423 0.46778
 H653 H 0.78504 0.86664 0.53447
 H654 H 0.78396 0.90012 0.47034
 H655 H 0.81765 0.92510 0.48071
 H656 H 0.81844 0.89068 0.54621
 H657 H 0.72987 0.82937 0.46948
 H658 H 0.73468 0.80313 0.43768
 H659 H 0.80444 0.83002 0.43161
 H660 H 0.79779 0.85624 0.46344
 C661 C 0.73928 0.81101 0.55222
 C662 C 0.69601 0.91420 0.47548
 C663 C 0.77025 0.81399 0.43215
 C664 C 0.82124 0.90959 0.51422
 C665 C 0.00663 0.21514 0.40017
 H666 H 0.02260 0.22526 0.40104
 C667 C 0.00308 0.19576 0.41474
 H668 H 0.01656 0.19094 0.42667
 C669 C -0.03045 0.20957 0.38379
 H670 H -0.04374 0.21541 0.37217
 C671 C -0.03474 0.19008 0.39805
 H672 H -0.05141 0.18130 0.39715
 N673 N -0.00993 0.22147 0.38492
 C674 C 0.02727 0.26222 0.33399
 H675 H 0.01766 0.27849 0.33385
 C676 C 0.04565 0.25994 0.31957
 H677 H 0.05027 0.27486 0.30876
 C678 C 0.03297 0.22335 0.34883
 H679 H 0.02774 0.20898 0.35998
 C680 C 0.05145 0.22029 0.33468
 H681 H 0.06036 0.20356 0.33525
 Zn682 Zn -0.00409 0.24870 0.36672
 N683 N 0.02145 0.24415 0.34837
 C684 C 0.02213 0.28608 0.38678
 N685 N 0.00156 0.27422 0.38632
 C686 C -0.01518 0.27926 0.40095
 C687 C -0.01176 0.29720 0.41658
 C688 C 0.02632 0.30413 0.40217
 C689 C -0.03558 0.23810 0.33229
 C690 C -0.05392 0.24175 0.31726
 C691 C -0.05882 0.28054 0.33303
 C692 C -0.04048 0.27605 0.34786
 N693 N -0.02943 0.25500 0.34737
 H694 H 0.03553 0.28125 0.37556
 H695 H -0.03120 0.26920 0.40051
 H696 H -0.02539 0.30099 0.42800
 H697 H 0.04304 0.31283 0.40255
 H698 H -0.02630 0.22162 0.33210
 H699 H -0.05882 0.22760 0.30602
 H700 H -0.06730 0.29747 0.33367
 H701 H -0.03497 0.28952 0.35958
 C702 C 0.05795 0.23868 0.31969
 C703 C -0.01777 0.18283 0.41371
 C704 C -0.06578 0.26331 0.31737
 C705 C 0.00917 0.31002 0.41729
 C706 C 0.00064 0.70616 0.09476
 H707 H -0.01544 0.71535 0.09261
 C708 C 0.00467 0.68594 0.08231
 H709 H -0.00859 0.67958 0.07079
 C710 C 0.03760 0.70391 0.11187
 H711 H 0.05068 0.71136 0.12291
 C712 C 0.04239 0.68361 0.09972
 H713 H 0.05920 0.67591 0.10163
 N714 N 0.01699 0.71473 0.10921
 C715 C -0.01960 0.76003 0.15505
 H716 H -0.00937 0.77620 0.15322
 C717 C -0.03784 0.75916 0.16992
 H718 H -0.04168 0.77499 0.17904
 C719 C -0.02702 0.72012 0.14479
 H720 H -0.02257 0.70483 0.13520
 C721 C -0.04547 0.71846 0.15948
 H722 H -0.05508 0.70185 0.16092
 Zn723 Zn 0.01109 0.74379 0.12359
 N724 N -0.01460 0.74076 0.14274
 C725 C -0.01427 0.77930 0.09952
 N726 N 0.00565 0.76707 0.10069
 C727 C 0.02239 0.77108 0.08544
 C728 C 0.01998 0.78876 0.06883
 C729 C -0.01750 0.79702 0.08307
 C730 C 0.04240 0.73888 0.15953
 C731 C 0.06108 0.74474 0.17355
 C732 C 0.06772 0.78013 0.15084
 C733 C 0.04881 0.77366 0.13733
 N734 N 0.03681 0.75313 0.14165
 H735 H -0.02764 0.77550 0.11143
 H736 H 0.03798 0.76091 0.08660
 H737 H 0.03413 0.79215 0.05770
 H738 H -0.03341 0.80669 0.08267
 H739 H 0.03235 0.72286 0.16282
 H740 H 0.06537 0.73300 0.18757
 H741 H 0.07683 0.79666 0.14721
 H742 H 0.04368 0.78522 0.12354
 C743 C -0.05101 0.73809 0.17245
 C744 C 0.02583 0.67438 0.08456
 C745 C 0.07419 0.76547 0.16915
 C746 C -0.00018 0.80220 0.06750
 C747 C 0.49494 0.20919 0.59247
 H748 H 0.47885 0.21808 0.58930
 C749 C 0.50089 0.19010 0.57931
 H750 H 0.48912 0.18424 0.56615
 C751 C 0.53004 0.20659 0.61309
 H752 H 0.54171 0.21354 0.62576
 C753 C 0.53665 0.18734 0.60038
 H754 H 0.55338 0.17979 0.60354
 N755 N 0.50942 0.21699 0.60903
 C756 C 0.46562 0.25611 0.65359
 H757 H 0.47453 0.27317 0.65365
 C758 C 0.44628 0.25239 0.66678
 H759 H 0.44030 0.26683 0.67677
 C760 C 0.46302 0.21653 0.64081
 H761 H 0.46993 0.20240 0.63112
 C762 C 0.44364 0.21201 0.65378
 H763 H 0.43609 0.19430 0.65389
 Zn764 Zn 0.50065 0.24439 0.62448
 N765 N 0.47347 0.23836 0.64080
 C766 C 0.47645 0.28086 0.60032
 N767 N 0.49641 0.26879 0.60250
 C768 C 0.51429 0.27354 0.58868
 C769 C 0.51274 0.29143 0.57218
 C770 C 0.47420 0.29899 0.58411
 C771 C 0.52989 0.23824 0.66210
 C772 C 0.54725 0.24432 0.67758
 C773 C 0.55090 0.28273 0.65906
 C774 C 0.53366 0.27582 0.64382
 N775 N 0.52386 0.25373 0.64531
 H776 H 0.46228 0.27654 0.61116
 H777 H 0.52992 0.26357 0.59072
 H778 H 0.52748 0.29530 0.56188
 H779 H 0.45824 0.30854 0.58274
 H780 H 0.52140 0.22099 0.66324
 H781 H 0.55213 0.23145 0.69047
 H782 H 0.55799 0.30058 0.65760
 H783 H 0.52801 0.28824 0.63091
 C784 C 0.43490 0.23013 0.66696
 C785 C 0.52199 0.17888 0.58317
 C786 C 0.55832 0.26671 0.67600
 C787 C 0.49249 0.30450 0.56976
 C788 C 0.50844 0.73887 0.90058
 H789 H 0.52370 0.75016 0.90061
 C790 C 0.50700 0.71948 0.91547
 H791 H 0.52158 0.71580 0.92642
 C792 C 0.47127 0.73010 0.88574
 H793 H 0.45721 0.73455 0.87444
 C794 C 0.46903 0.71059 0.90045
 H795 H 0.45322 0.70013 0.90011
 N796 N 0.49083 0.74369 0.88599
 C797 C 0.52359 0.78667 0.83345
 H798 H 0.51301 0.80228 0.83336
 C799 C 0.54166 0.78532 0.81849
 H800 H 0.54510 0.80019 0.80720
 C801 C 0.53199 0.74849 0.84861
 H802 H 0.52791 0.73396 0.86002
 C803 C 0.55027 0.74645 0.83408
 H804 H 0.56019 0.73035 0.83464
 Zn805 Zn 0.49410 0.77123 0.86752
 N806 N 0.51924 0.76850 0.84824
 C807 C 0.51832 0.81042 0.88710
 N808 N 0.49873 0.79688 0.88709
 C809 C 0.48204 0.80026 0.90223
 C810 C 0.48454 0.81802 0.91812
 C811 C 0.52162 0.82831 0.90284
 C812 C 0.46186 0.75884 0.83424
 C813 C 0.44276 0.76153 0.81996
 C814 C 0.43617 0.79965 0.83644
 C815 C 0.45538 0.79620 0.85043
 N816 N 0.46759 0.77590 0.84929
 H817 H 0.53160 0.80708 0.87523
 H818 H 0.46673 0.78906 0.90193
 H819 H 0.47067 0.82063 0.92955
 H820 H 0.53746 0.83872 0.90279
 H821 H 0.47217 0.74310 0.83338
 H822 H 0.43838 0.74759 0.80826
 H823 H 0.42708 0.81618 0.83738
 H824 H 0.46070 0.80997 0.86191
 C825 C 0.55528 0.76495 0.81869
 C826 C 0.48696 0.70513 0.91574
 C827 C 0.42949 0.78207 0.82105
 C828 C 0.50472 0.83214 0.91882
 C829 C 0.11442 0.22885 0.27718
 C830 C 0.11275 0.21649 0.29773
 N831 N 0.12943 0.20114 0.30418
 C832 C 0.14774 0.19752 0.29095
 C833 C 0.14950 0.20984 0.27022
 N834 N 0.13268 0.22528 0.26397
 N835 N 0.09769 0.24411 0.27068
 C836 C 0.07936 0.24770 0.28389
 C837 C 0.07764 0.23548 0.30468
 N838 N 0.09448 0.22005 0.31094
 H839 H 0.16077 0.18532 0.29676
 H840 H 0.06615 0.25963 0.27791
 C841 C 0.61076 0.75617 0.77479
 C842 C 0.61091 0.74585 0.79638
 N843 N 0.62882 0.73235 0.80330
 C844 C 0.64655 0.72839 0.78949
 C845 C 0.64634 0.73823 0.76755
 N846 N 0.62840 0.75211 0.76087
 N847 N 0.59276 0.76968 0.76795
 C848 C 0.57483 0.77325 0.78172
 C849 C 0.57479 0.76267 0.80335
 N850 N 0.59299 0.74923 0.81003
 H851 H 0.66056 0.71767 0.79573
 H852 H 0.56054 0.78369 0.77556
 C853 C 0.37198 0.78950 0.77673
 C854 C 0.39045 0.77519 0.77136
 N855 N 0.38994 0.76331 0.75176
 C856 C 0.37166 0.76493 0.73731
 C857 C 0.35292 0.77909 0.74268
 N858 N 0.35370 0.79115 0.76232
 N859 N 0.37246 0.80122 0.79642
 C860 C 0.39064 0.79934 0.81100
 C861 C 0.40933 0.78505 0.80566
 N862 N 0.40858 0.77329 0.78587
 H863 H 0.37195 0.75539 0.72176
 H864 H 0.39016 0.80854 0.82673
 C865 C -0.12234 0.27756 0.27334
 C866 C -0.11917 0.28989 0.29336
 N867 N -0.13434 0.30672 0.29882
 C868 C -0.15263 0.31184 0.28513
 C869 C -0.15606 0.29940 0.26491
 N870 N -0.14062 0.28251 0.25970
 N871 N -0.10700 0.26095 0.26773
 C872 C -0.08864 0.25595 0.28136
 C873 C -0.08548 0.26805 0.30175
 N874 N -0.10093 0.28487 0.30705
 H875 H -0.16425 0.32532 0.29028
 H876 H -0.07656 0.24299 0.27598
 C877 C -0.10696 0.73309 0.21723
 C878 C -0.10647 0.71896 0.19817
 N879 N -0.12417 0.70356 0.19389
 C880 C -0.14240 0.70162 0.20779
 C881 C -0.14310 0.71584 0.22709
 N882 N -0.12512 0.73122 0.23114
 N883 N -0.08923 0.74842 0.22159
 C884 C -0.07106 0.75041 0.20764
 C885 C -0.07051 0.73643 0.18826
 N886 N -0.08834 0.72089 0.18419
 H887 H -0.15601 0.68911 0.20359
 H888 H -0.05708 0.76250 0.21195
 C889 C 0.37756 0.21847 0.70905
 C890 C 0.39409 0.23616 0.71379
 N891 N 0.39187 0.24968 0.73219
 C892 C 0.37385 0.24634 0.74615
 C893 C 0.35710 0.22844 0.74160
 N894 N 0.35959 0.21502 0.72297
 N895 N 0.37969 0.20504 0.69057
 C896 C 0.39775 0.20836 0.67666
 C897 C 0.41465 0.22593 0.68146
 N898 N 0.41216 0.23948 0.69997
 H899 H 0.37292 0.25755 0.76057
 H900 H 0.39858 0.19759 0.66188
 C901 C 0.61274 0.28341 0.72192
 C902 C 0.59669 0.26533 0.72683
 N903 N 0.59878 0.25269 0.74636
 C904 C 0.61628 0.25727 0.76124
 C905 C 0.63258 0.27549 0.75640
 N906 N 0.63013 0.28808 0.73673
 N907 N 0.61097 0.29579 0.70225
 C908 C 0.59373 0.29099 0.68721
 C909 C 0.57728 0.27297 0.69207
 N910 N 0.57939 0.26054 0.71188
 H911 H 0.61718 0.24677 0.77657
 H912 H 0.59338 0.30087 0.67150
 C913 C 0.13143 0.78120 0.21198
 C914 C 0.11202 0.76886 0.22001
 N915 N 0.11160 0.76134 0.24173
 C916 C 0.12988 0.76523 0.25577
 C917 C 0.14972 0.77705 0.24774
 N918 N 0.14984 0.78498 0.22596
 N919 N 0.13174 0.78866 0.19019
 C920 C 0.11354 0.78428 0.17605
 C921 C 0.09410 0.77165 0.18401
 N922 N 0.09398 0.76432 0.20591
 H923 H 0.12880 0.75912 0.27302
 H924 H 0.11457 0.79005 0.15869
 C925 C 0.29929 0.11877 0.22654
 C926 C 0.29344 0.09912 0.24023
 N927 N 0.27262 0.09805 0.25000
 C928 C 0.25733 0.11581 0.24678
 C929 C 0.26308 0.13564 0.23307
 N930 N 0.28401 0.13650 0.22322
 N931 N 0.32019 0.11986 0.21689
 C932 C 0.33547 0.10207 0.22014
 C933 C 0.32958 0.08207 0.23363
 N934 N 0.30863 0.08133 0.24342
 H935 H 0.24079 0.11420 0.25461
 H936 H 0.35210 0.10379 0.21248
 C937 C 0.77897 0.62695 0.71929
 C938 C 0.78369 0.61994 0.74158
 N939 N 0.77433 0.63189 0.75857
 C940 C 0.76026 0.65049 0.75430
 C941 C 0.75528 0.65754 0.73195
 N942 N 0.76496 0.64560 0.71496
 N943 N 0.78816 0.61475 0.70234
 C944 C 0.80197 0.59588 0.70666
 C945 C 0.80694 0.58884 0.72906
 N946 N 0.79749 0.60119 0.74590
 H947 H 0.75324 0.65975 0.76824
 H948 H 0.80851 0.58633 0.69267
 C949 C 0.77849 0.38105 0.79139
 C950 C 0.77360 0.39622 0.77309
 N951 N 0.75467 0.39198 0.76007
 C952 C 0.74029 0.37324 0.76452
 C953 C 0.74495 0.35788 0.78306
 N954 N 0.76412 0.36238 0.79597
 N955 N 0.79759 0.38516 0.80425
 C956 C 0.81196 0.40392 0.79974
 C957 C 0.80695 0.41951 0.78154
 N958 N 0.78784 0.41500 0.76862
 H959 H 0.72542 0.37075 0.75367
 H960 H 0.82724 0.40623 0.81011
 C961 C 0.28718 -0.12348 0.25871
 C962 C 0.30768 -0.12312 0.27140
 N963 N 0.31163 -0.14041 0.28700
 C964 C 0.29586 -0.15801 0.29081
 C965 C 0.27486 -0.15845 0.27843
 N966 N 0.27129 -0.14109 0.26243
 N967 N 0.28326 -0.10584 0.24330
 C968 C 0.29891 -0.08783 0.24008
 C969 C 0.31956 -0.08736 0.25293
 N970 N 0.32324 -0.10523 0.26823
 H971 H 0.30006 -0.17143 0.30332
 H972 H 0.29485 -0.07385 0.22806
 C973 C 0.22550 -0.11967 0.72587
 C974 C 0.20426 -0.11834 0.71456
 N975 N 0.19827 -0.13509 0.69932
 C976 C 0.21254 -0.15323 0.69490
 C977 C 0.23394 -0.15487 0.70642
 N978 N 0.23970 -0.13780 0.72163
 N979 N 0.23165 -0.10279 0.74090
 C980 C 0.21738 -0.08469 0.74535
 C981 C 0.19573 -0.08344 0.73437
 N982 N 0.18991 -0.10038 0.71906
 H983 H 0.20694 -0.16616 0.68272
 H984 H 0.22317 -0.07137 0.75710
 C985 C 0.69406 0.39306 0.21990
 C986 C 0.69980 0.41167 0.23439
 N987 N 0.72048 0.41193 0.24527
 C988 C 0.73574 0.39433 0.24236
 C989 C 0.73012 0.37555 0.22780
 N990 N 0.70931 0.37551 0.21688
 N991 N 0.67328 0.39277 0.20917
 C992 C 0.65801 0.41040 0.21212
 C993 C 0.66380 0.42937 0.22644
 N994 N 0.68464 0.42929 0.23727
 H995 H 0.75218 0.39529 0.25107
 H996 H 0.64148 0.40927 0.20360
 C997 C 0.71593 0.62473 0.24981
 C998 C 0.69561 0.62767 0.26159
 N999 N 0.69374 0.64649 0.27526
 C1000 C 0.71138 0.66241 0.27792
 C1001 C 0.73205 0.65939 0.26647
 N1002 N 0.73366 0.64059 0.25249
 N1003 N 0.71775 0.60580 0.23622
 C1004 C 0.70017 0.58967 0.23387
 C1005 C 0.67971 0.59248 0.24573
 N1006 N 0.67811 0.61155 0.25935
 H1007 H 0.70910 0.67729 0.28879
 H1008 H 0.70250 0.57454 0.22329
 C1009 C 0.21129 0.12456 0.78043
 C1010 C 0.21541 0.10943 0.76263
 N1011 N 0.23349 0.11402 0.74917
 C1012 C 0.24779 0.13303 0.75270
 C1013 C 0.24401 0.14832 0.77079
 N1014 N 0.22563 0.14350 0.78414
 N1015 N 0.19302 0.12005 0.79372
 C1016 C 0.17880 0.10094 0.79017
 C1017 C 0.18311 0.08531 0.77254
 N1018 N 0.20136 0.09027 0.75914
 H1019 H 0.26195 0.13573 0.74151
 H1020 H 0.16421 0.09831 0.80090
 C1021 C 0.23454 0.25893 0.12119
 C1022 C 0.22402 0.28114 0.12031
 N1023 N 0.21180 0.28826 0.13802
 C1024 C 0.20948 0.27410 0.15659
 C1025 C 0.21988 0.25167 0.15757
 N1026 N 0.23229 0.24474 0.13975
 N1027 N 0.24663 0.25182 0.10336
 C1028 C 0.24880 0.26598 0.08472
 C1029 C 0.23841 0.28844 0.08381
 N1030 N 0.22619 0.29528 0.10177
 H1031 H 0.19984 0.28050 0.17046
 H1032 H 0.25820 0.25948 0.07072
 C1033 C 0.72718 0.76884 0.61080
 C1034 C 0.71655 0.79079 0.60745
 N1035 N 0.70275 0.79909 0.62350
 C1036 C 0.69916 0.78646 0.64284
 C1037 C 0.71000 0.76447 0.64644
 N1038 N 0.72375 0.75627 0.63015
 N1039 N 0.74096 0.76053 0.59475
 C1040 C 0.74487 0.77335 0.57558
 C1041 C 0.73467 0.79573 0.57231
 N1042 N 0.72054 0.80369 0.58840
 H1043 H 0.68833 0.79385 0.65533
 H1044 H 0.75570 0.76597 0.56306
 C1045 C 0.77931 0.76874 0.37693
 C1046 C 0.79221 0.78992 0.37886
 N1047 N 0.80714 0.79626 0.36245
 C1048 C 0.80959 0.78246 0.34411
 C1049 C 0.79627 0.76142 0.34194
 N1050 N 0.78155 0.75518 0.35861
 N1051 N 0.76450 0.76219 0.39325
 C1052 C 0.76162 0.77607 0.41133
 C1053 C 0.77392 0.79781 0.41314
 N1054 N 0.78921 0.80399 0.39685
 H1055 H 0.82132 0.78820 0.33119
 H1056 H 0.74992 0.76998 0.42416
 C1057 C 0.25981 0.27248 -0.11862
 C1058 C 0.27869 0.28424 -0.10859
 N1059 N 0.29979 0.28238 -0.11753
 C1060 C 0.30288 0.26940 -0.13619
 C1061 C 0.28399 0.25762 -0.14649
 N1062 N 0.26285 0.25939 -0.13726
 N1063 N 0.23869 0.27465 -0.10973
 C1064 C 0.23559 0.28796 -0.09122
 C1065 C 0.25456 0.29969 -0.08090
 N1066 N 0.27564 0.29744 -0.09010
 H1067 H 0.31999 0.26812 -0.14271
 H1068 H 0.21839 0.28958 -0.08504
 C1069 C 0.74095 0.23177 -0.10592
 C1070 C 0.72382 0.21826 -0.09518
 N1071 N 0.70180 0.21912 -0.10298
 C1072 C 0.69612 0.23282 -0.12120
 C1073 C 0.71325 0.24638 -0.13218
 N1074 N 0.73532 0.24556 -0.12409
 N1075 N 0.76300 0.23057 -0.09820
 C1076 C 0.76872 0.21651 -0.08017
 C1077 C 0.75152 0.20295 -0.06917
 N1078 N 0.72947 0.20432 -0.07719
 H1079 H 0.67838 0.23327 -0.12685
 H1080 H 0.78655 0.21572 -0.07494
 C1081 C 0.21399 0.69912 0.37828
 C1082 C 0.22950 0.70481 0.39573
 N1083 N 0.24245 0.72505 0.39432
 C1084 C 0.24069 0.73989 0.37615
 C1085 C 0.22521 0.73425 0.35848
 N1086 N 0.21214 0.71395 0.36013
 N1087 N 0.20125 0.67872 0.37965
 C1088 C 0.20325 0.66373 0.39774
 C1089 C 0.21872 0.66943 0.41544
 N1090 N 0.23147 0.68993 0.41377
 H1091 H 0.25108 0.75601 0.37572
 H1092 H 0.19317 0.64740 0.39793
 C1093 C 0.25172 0.71215 0.60818
 C1094 C 0.26379 0.69081 0.60881
 N1095 N 0.27890 0.68637 0.62590
 C1096 C 0.28272 0.70244 0.64234
 C1097 C 0.27095 0.72412 0.64167
 N1098 N 0.25555 0.72829 0.62457
 N1099 N 0.23670 0.71657 0.59096
 C1100 C 0.23318 0.70059 0.57432
 C1101 C 0.24531 0.67912 0.57484
 N1102 N 0.26036 0.67492 0.59220
 H1103 H 0.29474 0.69815 0.65580
 H1104 H 0.22146 0.70498 0.56063
 C1105 C 0.78409 0.23046 0.13169
 C1106 C 0.76922 0.23614 0.11370
 N1107 N 0.75660 0.25615 0.11438
 C1108 C 0.75818 0.27077 0.13230
 C1109 C 0.77315 0.26516 0.15043
 N1110 N 0.78574 0.24505 0.14952
 N1111 N 0.79659 0.21040 0.13113
 C1112 C 0.79505 0.19578 0.11325
 C1113 C 0.78035 0.20149 0.09492
 N1114 N 0.76768 0.22159 0.09579
 H1115 H 0.74805 0.28667 0.13214
 H1116 H 0.80492 0.17969 0.11367
 C1117 C 0.48611 0.36171 0.52261
 C1118 C 0.47423 0.36145 0.54285
 N1119 N 0.46053 0.37980 0.54761
 C1120 C 0.45795 0.39840 0.53297
 C1121 C 0.46955 0.39871 0.51243
 N1122 N 0.48352 0.38028 0.50788
 N1123 N 0.49984 0.34329 0.51795
 C1124 C 0.50231 0.32464 0.53266
 C1125 C 0.49044 0.32432 0.55306
 N1126 N 0.47662 0.34286 0.55748
 H1127 H 0.44708 0.41280 0.53755
 H1128 H 0.51311 0.31010 0.52823
 C1129 C -0.00809 0.86076 0.02186
 C1130 C -0.02171 0.85820 0.04085
 N1131 N -0.03741 0.87491 0.04513
 C1132 C -0.04007 0.89424 0.03136
 C1133 C -0.02614 0.89728 0.01231
 N1134 N -0.01052 0.88017 0.00814
 N1135 N 0.00744 0.84386 0.01749
 C1136 C 0.01020 0.82464 0.03145
 C1137 C -0.00306 0.82223 0.05096
 N1138 N -0.01885 0.83918 0.05490
 H1139 H -0.05274 0.90703 0.03566
 H1140 H 0.02249 0.81144 0.02709
 C1141 C 0.03897 0.61662 0.04179
 C1142 C 0.02242 0.63358 0.03616
 N1143 N 0.01035 0.63186 0.01662
 C1144 C 0.01392 0.61388 0.00233
 C1145 C 0.03052 0.59648 0.00773
 N1146 N 0.04267 0.59851 0.02751
 N1147 N 0.05094 0.61848 0.06150
 C1148 C 0.04718 0.63663 0.07574
 C1149 C 0.03064 0.65386 0.07003
 N1150 N 0.01868 0.65164 0.05028
 H1151 H 0.00381 0.61359 -0.01301
 H1152 H 0.05681 0.63729 0.09142
 C1153 C 0.54068 0.12344 0.54018
 C1154 C 0.52608 0.14160 0.53269
 N1155 N 0.51768 0.14159 0.51133
 C1156 C 0.52301 0.12407 0.49708
 C1157 C 0.53737 0.10550 0.50453
 N1158 N 0.54599 0.10582 0.52599
 N1159 N 0.54905 0.12359 0.56161
 C1160 C 0.54351 0.14112 0.57588
 C1161 C 0.52880 0.15939 0.56841
 N1162 N 0.52048 0.15900 0.54690
 H1163 H 0.51616 0.12486 0.48012
 H1164 H 0.55020 0.14047 0.59293
 C1165 C -0.02923 0.12535 0.45948
 C1166 C -0.01386 0.14395 0.46481
 N1167 N -0.00266 0.14371 0.48501
 C1168 C -0.00615 0.12569 0.50018
 C1169 C -0.02166 0.10696 0.49493
 N1170 N -0.03278 0.10741 0.47459
 N1171 N -0.04038 0.12551 0.43928
 C1172 C -0.03702 0.14358 0.42417
 C1173 C -0.02181 0.16253 0.42951
 N1174 N -0.01050 0.16203 0.44977
 H1175 H 0.00293 0.12624 0.51614
 H1176 H -0.04590 0.14286 0.40809
 C1177 C 0.47884 0.64636 0.96089
 C1178 C 0.46619 0.64763 0.94069
 N1179 N 0.45094 0.62996 0.93554
 C1180 C 0.44767 0.61101 0.94971
 C1181 C 0.46033 0.60955 0.97017
 N1182 N 0.47567 0.62746 0.97504
 N1183 N 0.49388 0.66417 0.96619
 C1184 C 0.49697 0.68323 0.95213
 C1185 C 0.48446 0.68457 0.93163
 N1186 N 0.46926 0.66661 0.92659
 H1187 H 0.43537 0.59740 0.94478
 H1188 H 0.50871 0.69730 0.95726
 C1189 C 0.51565 0.88547 0.96748
 C1190 C 0.52693 0.88672 0.94695
 N1191 N 0.54157 0.90524 0.94259
 C1192 C 0.54545 0.92259 0.95789
 C1193 C 0.53409 0.92141 0.97854
 N1194 N 0.51941 0.90278 0.98269
 N1195 N 0.50122 0.86688 0.97200
 C1196 C 0.49737 0.84948 0.95681
 C1197 C 0.50837 0.85075 0.93594
 N1198 N 0.52305 0.86942 0.93170
 H1199 H 0.55702 0.93721 0.95379
 H1200 H 0.48618 0.83469 0.96130
 C1201 C 0.02000 0.36285 0.46647
 C1202 C 0.00419 0.34411 0.46981
 N1203 N -0.00775 0.34271 0.48912
 C1204 C -0.00462 0.35928 0.50529
 C1205 C 0.01128 0.37817 0.50202
 N1206 N 0.02321 0.37934 0.48258
 N1207 N 0.03186 0.36434 0.44712
 C1208 C 0.02875 0.34779 0.43096
 C1209 C 0.01307 0.32869 0.43430
 N1210 N 0.00109 0.32753 0.45373
 H1211 H -0.01426 0.35746 0.52053
 H1212 H 0.03819 0.34985 0.41560
 C1213 C 0.35937 0.51806 0.48402
 C1214 C 0.35630 0.53898 0.47128
 N1215 N 0.37235 0.54586 0.45617
 C1216 C 0.39139 0.53270 0.45317
 C1217 C 0.39458 0.51164 0.46595
 N1218 N 0.37834 0.50497 0.48109
 N1219 N 0.34329 0.51106 0.49902
 C1220 C 0.32424 0.52414 0.50201
 C1221 C 0.32109 0.54537 0.48944
 N1222 N 0.33731 0.55210 0.47426
 H1223 H 0.40388 0.53885 0.44113
 H1224 H 0.31159 0.51767 0.51377
 C1225 C 0.88297 0.03530 -0.00278
 C1226 C 0.88251 0.05671 -0.01514
 N1227 N 0.89889 0.06143 -0.03051
 C1228 C 0.91570 0.04564 -0.03423
 C1229 C 0.91628 0.02389 -0.02194
 N1230 N 0.89976 0.01950 -0.00639
 N1231 N 0.86636 0.03043 0.01234
 C1232 C 0.84931 0.04607 0.01575
 C1233 C 0.84882 0.06779 0.00348
 N1234 N 0.86556 0.07237 -0.01175
 H1235 H 0.92836 0.05033 -0.04660
 H1236 H 0.83611 0.04118 0.02752
 C1237 C 0.64860 0.03755 0.02261
 C1238 C 0.64968 0.05878 0.03456
 N1239 N 0.63151 0.06507 0.04689
 C1240 C 0.61223 0.05108 0.04779
 C1241 C 0.61097 0.02985 0.03564
 N1242 N 0.62931 0.02369 0.02333
 N1243 N 0.66683 0.03114 0.01047
 C1244 C 0.68606 0.04516 0.00945
 C1245 C 0.68709 0.06685 0.02096
 N1246 N 0.66879 0.07290 0.03342
 H1247 H 0.59794 0.05676 0.05752
 H1248 H 0.70036 0.03918 -0.00009
 C1249 C 0.12022 0.50268 0.52411
 C1250 C 0.12359 0.52303 0.53699
 N1251 N 0.10887 0.52753 0.55365
 C1252 C 0.09082 0.51259 0.55803
 C1253 C 0.08710 0.49212 0.54495
 N1254 N 0.10212 0.48785 0.52828
 N1255 N 0.13516 0.49800 0.50768
 C1256 C 0.15327 0.51290 0.50337
 C1257 C 0.15655 0.53373 0.51599
 N1258 N 0.14152 0.53803 0.53262
 H1259 H 0.07953 0.51705 0.57139
 H1260 H 0.16498 0.50816 0.49046
 C1261 C 0.13313 0.46333 -0.00555
 C1262 C 0.13373 0.44293 -0.01863
 N1263 N 0.11700 0.43890 -0.03424
 C1264 C 0.09977 0.45449 -0.03770
 C1265 C 0.09907 0.47545 -0.02495
 N1266 N 0.11583 0.47907 -0.00890
 N1267 N 0.15020 0.46732 0.00987
 C1268 C 0.16783 0.45186 0.01274
 C1269 C 0.16850 0.43130 -0.00048
 N1270 N 0.15122 0.42757 -0.01580
 H1271 H 0.08677 0.45012 -0.05017
 H1272 H 0.18132 0.45603 0.02481
 C1273 C 0.63853 0.95860 0.46297
 C1274 C 0.65376 0.96272 0.48101
 N1275 N 0.65007 0.98106 0.49484
 C1276 C 0.63184 0.99556 0.49147
 C1277 C 0.61639 0.99166 0.47321
 N1278 N 0.62035 0.97309 0.45947
 N1279 N 0.64206 0.94005 0.44931
 C1280 C 0.66025 0.92550 0.45278
 C1281 C 0.67589 0.92970 0.47076
 N1282 N 0.67198 0.94829 0.48447
 H1283 H 0.62978 1.00992 0.50295
 H1284 H 0.66203 0.91063 0.44181
 C1285 C 0.87811 0.95418 0.53237
 C1286 C 0.86153 0.96164 0.51649
 N1287 N 0.86354 0.98349 0.50670
 C1288 C 0.88152 0.99823 0.51189
 C1289 C 0.89850 0.99081 0.52759
 N1290 N 0.89620 0.96888 0.53759
 N1291 N 0.87596 0.93226 0.54212
 C1292 C 0.85794 0.91750 0.53675
 C1293 C 0.84121 0.92495 0.52081
 N1294 N 0.84363 0.94694 0.51108
 H1295 H 0.88229 1.01563 0.50393
 H1296 H 0.85701 0.90002 0.54458
 C1297 C 0.36775 0.45820 0.02612
 C1298 C 0.35804 0.45440 0.00474
 N1299 N 0.36614 0.46693 -0.01317
 C1300 C 0.38341 0.48333 -0.01067
 C1301 C 0.39307 0.48749 0.01081
 N1302 N 0.38500 0.47458 0.02868
 N1303 N 0.35944 0.44580 0.04403
 C1304 C 0.34186 0.42972 0.04156
 C1305 C 0.33200 0.42578 0.02010
 N1306 N 0.34049 0.43840 0.00225
 H1307 H 0.38954 0.49283 -0.02535
 H1308 H 0.33538 0.42066 0.05635
 C1309 C 0.51772 0.49537 0.36405
 C1310 C 0.53764 0.48224 0.36141
 N1311 N 0.54336 0.46537 0.37703
 C1312 C 0.53001 0.46098 0.39519
 C1313 C 0.50989 0.47408 0.39791
 N1314 N 0.50439 0.49102 0.38213
 N1315 N 0.51186 0.51210 0.34838
 C1316 C 0.52506 0.51639 0.33014
 C1317 C 0.54521 0.50333 0.32734
 N1318 N 0.55085 0.48646 0.34318
 H1319 H 0.53521 0.44748 0.40727
 H1320 H 0.51944 0.52945 0.31778
 C1321 C 0.04482 -0.03878 0.87670
 C1322 C 0.04978 -0.01566 0.86872
 N1323 N 0.04173 0.00326 0.87964
 C1324 C 0.02857 0.00017 0.89803
 C1325 C 0.02299 -0.02297 0.90586
 N1326 N 0.03154 -0.04196 0.89507
 N1327 N 0.05285 -0.05764 0.86554
 C1328 C 0.06555 -0.05443 0.84674
 C1329 C 0.07036 -0.03121 0.83856
 N1330 N 0.06228 -0.01247 0.84996
 H1331 H 0.02253 0.01568 0.90639
 H1332 H 0.07125 -0.06987 0.83804
 C1333 C 0.02473 0.00782 0.63957
 C1334 C 0.03504 0.02778 0.64964
 N1335 N 0.03062 0.04982 0.64123
 C1336 C 0.01654 0.05283 0.62298
 C1337 C 0.00635 0.03288 0.61256
 N1338 N 0.01058 0.01077 0.62132
 N1339 N 0.02960 -0.01421 0.64780
 C1340 C 0.04433 -0.01723 0.66562
 C1341 C 0.05478 0.00279 0.67587
 N1342 N 0.04970 0.02480 0.66741
 H1343 H 0.01333 0.07065 0.61670
 H1344 H 0.04814 -0.03513 0.67119
 C1345 C 0.50511 0.52974 0.12575
 C1346 C 0.52622 0.54211 0.12667
 N1347 N 0.53289 0.55565 0.10880
 C1348 C 0.51939 0.55739 0.08998
 C1349 C 0.49819 0.54492 0.08886
 N1350 N 0.49165 0.53132 0.10691
 N1351 N 0.49843 0.51633 0.14370
 C1352 C 0.51201 0.51450 0.16248
 C1353 C 0.53349 0.52653 0.16338
 N1354 N 0.53985 0.54020 0.14533
 H1355 H 0.52544 0.56807 0.07597
 H1356 H 0.50586 0.50397 0.17655
 C1357 C 0.48696 -0.01005 0.13396
 C1358 C 0.46505 -0.02075 0.13276
 N1359 N 0.45780 -0.03122 0.11349
 C1360 C 0.47152 -0.03152 0.09532
 C1361 C 0.49357 -0.02078 0.09643
 N1362 N 0.50064 -0.01025 0.11584
 N1363 N 0.49425 0.00031 0.15326
 C1364 C 0.48051 0.00067 0.17141
 C1365 C 0.45830 -0.00972 0.17021
 N1366 N 0.45128 -0.02034 0.15082
 H1367 H 0.46508 -0.03977 0.08017
 H1368 H 0.48707 0.00874 0.18662
 C1369 C 0.96561 0.47210 0.64774
 C1370 C 0.94416 0.46052 0.64918
 N1371 N 0.93772 0.44446 0.63343
 C1372 C 0.95177 0.43947 0.61624
 C1373 C 0.97330 0.45118 0.61464
 N1374 N 0.97957 0.46723 0.63059
 N1375 N 0.97214 0.48809 0.66348
 C1376 C 0.95806 0.49327 0.68054
 C1377 C 0.93628 0.48202 0.68192
 N1378 N 0.93003 0.46572 0.66616
 H1379 H 0.94595 0.42678 0.60390
 H1380 H 0.96405 0.50579 0.69299
 C1381 C 0.96161 0.53490 0.87392
 C1382 C 0.96715 0.51915 0.85702
 N1383 N 0.98678 0.50663 0.85884
 C1384 C 1.00110 0.50896 0.87697
 C1385 C 0.99552 0.52449 0.89423
 N1386 N 0.97587 0.53723 0.89210
 N1387 N 0.94184 0.54727 0.87209
 C1388 C 0.92731 0.54455 0.85409
 C1389 C 0.93275 0.52863 0.83709
 N1390 N 0.95267 0.51638 0.83915
 H1391 H 1.01669 0.49884 0.87771
 H1392 H 0.91148 0.55427 0.85350
 C1393 C 0.48770 0.00505 0.36551
 C1394 C 0.47743 0.02496 0.35527
 N1395 N 0.48242 0.04697 0.36304
 C1396 C 0.49701 0.05003 0.38084
 C1397 C 0.50713 0.03015 0.39149
 N1398 N 0.50235 0.00804 0.38336
 N1399 N 0.48235 -0.01697 0.35779
 C1400 C 0.46723 -0.01999 0.34028
 C1401 C 0.45686 -0.00001 0.32992
 N1402 N 0.46237 0.02196 0.33787
 H1403 H 0.50068 0.06784 0.38660
 H1404 H 0.46307 -0.03784 0.33495
   
