data_POSCAR
  _audit_creation_date              2014-09-24
  _audit_creation_method            'ToBaCCo'
  _symmetry_space_group_name_H-M    'P1'
  _symmetry_Int_Tables_number       1
  _symmetry_cell_setting            triclinic
  loop_
  _symmetry_equiv_pos_as_xyz
 x,y,z
_cell_length_a 58.3736
_cell_length_b 59.6706
_cell_length_c 61.4795
_cell_angle_alpha 89.905600
_cell_angle_beta 89.938000
_cell_angle_gamma 90.137300
loop_
  _atom_site_label
  _atom_site_type_symbol
  _atom_site_fract_x
  _atom_site_fract_y
  _atom_site_fract_z
O1 O 0.32431 0.35997 0.02781
 O2 O 0.35398 0.32512 -0.01327
 O3 O 0.32191 0.35554 -0.01430
 O4 O 0.35753 0.33115 0.02880
 O5 O 0.33233 0.30385 0.03332
 O6 O 0.29589 0.32913 -0.00927
 O7 O 0.32791 0.29866 -0.00855
 O8 O 0.29888 0.33289 0.03249
 Cu9 Cu 0.34205 0.34559 0.00674
 Cu10 Cu 0.31125 0.31339 0.01247
 C11 C 0.30643 0.35225 0.03705
 C12 C 0.34581 0.30593 -0.01791
 C13 C 0.30269 0.34677 -0.01895
 C14 C 0.35106 0.31342 0.03841
 O15 O 0.66602 0.63127 0.02077
 O16 O 0.62816 0.65670 -0.02059
 O17 O 0.66457 0.63163 -0.02171
 O18 O 0.62879 0.65538 0.02173
 O19 O 0.65029 0.68589 0.02174
 O20 O 0.68612 0.66209 -0.02176
 O21 O 0.64981 0.68711 -0.02050
 O22 O 0.68740 0.66187 0.02052
 Cu23 Cu 0.64476 0.64064 0.00007
 Cu24 Cu 0.67056 0.67729 0.00003
 C25 C 0.68317 0.64234 0.02765
 C26 C 0.63262 0.67629 -0.02757
 C27 C 0.68138 0.64280 -0.02922
 C28 C 0.63339 0.67472 0.02907
 O29 O 0.64054 0.32493 1.02404
 O30 O 0.66866 0.35222 0.97684
 O31 O 0.63948 0.31949 0.98178
 O32 O 0.66842 0.35898 1.01844
 O33 O 0.69774 0.33587 1.02125
 O34 O 0.66804 0.29557 0.98533
 O35 O 0.69718 0.32809 0.97940
 O36 O 0.67010 0.30209 1.02705
 Cu37 Cu 0.65131 0.34121 1.00003
 Cu38 Cu 0.68619 0.31310 1.00357
 C39 C 0.65071 0.30884 1.03357
 C40 C 0.68773 0.34463 0.97009
 C41 C 0.64875 0.30085 0.97728
 C42 C 0.68808 0.35435 1.02592
 O43 O 0.33729 0.62723 0.97837
 O44 O 0.36231 0.66738 1.01719
 O45 O 0.33224 0.63509 1.01983
 O46 O 0.36767 0.65899 0.97602
 O47 O 0.34075 0.68406 0.96941
 O48 O 0.30442 0.65871 1.01186
 O49 O 0.33404 0.69100 1.01060
 O50 O 0.31030 0.65179 0.97044
 Cu51 Cu 0.35262 0.64471 0.99862
 Cu52 Cu 0.31960 0.67379 0.98973
 C53 C 0.31958 0.63277 0.96770
 C54 C 0.35231 0.68595 1.02059
 C55 C 0.31227 0.64276 1.02329
 C56 C 0.36039 0.67583 0.96551
 O57 O 0.03061 0.34127 0.37030
 O58 O -0.01136 0.37938 0.34506
 O59 O -0.01333 0.34801 0.37464
 O60 O 0.03257 0.37269 0.34089
 O61 O 0.02579 0.34745 0.31544
 O62 O -0.01981 0.32277 0.34915
 O63 O -0.01796 0.35406 0.31966
 O64 O 0.02386 0.31621 0.34467
 Cu65 Cu 0.01028 0.36288 0.36031
 Cu66 Cu 0.00224 0.33262 0.32967
 C67 C 0.03440 0.32229 0.36169
 C68 C -0.02176 0.37315 0.32798
 C69 C -0.02434 0.33110 0.36767
 C70 C 0.03701 0.36419 0.32242
 O71 O 0.02413 0.65406 0.63129
 O72 O -0.02080 0.61888 0.65592
 O73 O -0.01992 0.64969 0.62567
 O74 O 0.02279 0.62370 0.66213
 O75 O 0.01607 0.64991 0.68666
 O76 O -0.02567 0.67629 0.64995
 O77 O -0.02773 0.64535 0.68012
 O78 O 0.01847 0.67989 0.65643
 Cu79 Cu 0.00219 0.63400 0.64124
 Cu80 Cu -0.00547 0.66552 0.67069
 C81 C 0.02913 0.67282 0.63981
 C82 C -0.03182 0.62605 0.67226
 C83 C -0.02998 0.66754 0.63156
 C84 C 0.02655 0.63236 0.68068
 O85 O 1.01572 0.62946 0.34229
 O86 O 0.97218 0.66686 0.36586
 O87 O 0.97291 0.63743 0.33434
 O88 O 1.01521 0.65921 0.37359
 O89 O 1.02583 0.68502 0.34985
 O90 O 0.98190 0.66470 0.31152
 O91 O 0.98283 0.69377 0.34328
 O92 O 1.02508 0.65576 0.31855
 Cu93 Cu 0.99301 0.64558 0.35636
 Cu94 Cu 1.00486 0.67745 0.32843
 C95 C 1.02766 0.63616 0.32628
 C96 C 0.97036 0.68680 0.35882
 C97 C 0.97021 0.64740 0.31624
 C98 C 1.02778 0.67580 0.36841
 O99 O 0.97134 0.33831 0.63203
 O100 O 1.01492 0.37359 0.65842
 O101 O 1.01530 0.34417 0.62736
 O102 O 0.97094 0.36743 0.66374
 O103 O 0.97800 0.34056 0.68753
 O104 O 1.02114 0.31672 0.65081
 O105 O 1.02199 0.34629 0.68175
 O106 O 0.97775 0.31140 0.65598
 Cu107 Cu 0.99238 0.35864 0.64304
 Cu108 Cu 1.00035 0.32612 0.67151
 C109 C 0.96732 0.31878 0.63936
 C110 C 1.02611 0.36580 0.67439
 C111 C 1.02559 0.32628 0.63281
 C112 C 0.96701 0.35792 0.68189
 O113 O 0.35599 0.02349 0.33248
 O114 O 0.32726 -0.02265 0.36236
 O115 O 0.36086 -0.01993 0.33445
 O116 O 0.32363 0.02092 0.36169
 O117 O 0.29788 0.01719 0.33564
 O118 O 0.33592 -0.02285 0.30761
 O119 O 0.30253 -0.02601 0.33538
 O120 O 0.33016 0.02039 0.30642
 Cu121 Cu 0.34448 0.00079 0.35041
 Cu122 Cu 0.31412 -0.00310 0.31859
 C123 C 0.34779 0.02976 0.31431
 C124 C 0.30997 -0.03218 0.35378
 C125 C 0.35482 -0.02830 0.31639
 C126 C 0.30436 0.02588 0.35346
 O127 O 0.62903 0.02892 0.66551
 O128 O 0.65278 -0.01476 0.62959
 O129 O 0.63013 -0.01460 0.66606
 O130 O 0.65118 0.02900 0.62853
 O131 O 0.68353 0.03087 0.64703
 O132 O 0.66317 -0.01402 0.68352
 O133 O 0.68576 -0.01258 0.64704
 O134 O 0.66151 0.02961 0.68391
 Cu135 Cu 0.63750 0.00705 0.64558
 Cu136 Cu 0.67677 0.00863 0.66718
 C137 C 0.64119 0.03649 0.68100
 C138 C 0.67339 -0.02099 0.63216
 C139 C 0.64309 -0.02183 0.68109
 C140 C 0.67092 0.03743 0.63145
 O141 O 0.35777 1.01936 0.61743
 O142 O 0.38933 0.97933 0.65143
 O143 O 0.35948 0.97569 0.61975
 O144 O 0.38627 1.02262 0.64961
 O145 O 0.35855 1.02088 0.67405
 O146 O 0.33016 0.97645 0.64247
 O147 O 0.35995 0.97725 0.67404
 O148 O 0.32976 1.01993 0.64160
 Cu149 Cu 0.37606 0.99920 0.63215
 Cu150 Cu 0.34173 0.99856 0.66041
 C151 C 0.33858 1.02673 0.62386
 C152 C 0.38003 0.97143 0.66845
 C153 C 0.34000 0.96841 0.62581
 C154 C 0.37711 1.02949 0.66712
 O155 O 0.63518 0.98036 0.33269
 O156 O 0.67686 1.01830 0.35784
 O157 O 0.64339 1.02304 0.32992
 O158 O 0.67008 0.97525 0.35909
 O159 O 0.69400 0.97091 0.33156
 O160 O 0.66662 1.01702 0.30215
 O161 O 0.70015 1.01422 0.32982
 O162 O 0.65909 0.97445 0.30543
 Cu163 Cu 0.65404 0.99974 0.34770
 Cu164 Cu 0.68238 0.99360 0.31454
 C165 C 0.63994 0.97103 0.31476
 C166 C 0.69551 1.02290 0.34817
 C167 C 0.65036 1.02783 0.31084
 C168 C 0.68681 0.96513 0.35021
 C169 C 0.81273 0.81542 0.51543
 C170 C 0.80973 0.81217 0.49368
 C171 C 0.82406 0.79617 0.48130
 C172 C 0.79308 0.82573 0.48092
 C173 C 0.80099 0.83402 0.52681
 C174 C 0.82871 0.80154 0.52868
 C175 C 0.84790 0.79899 0.48017
 C176 C 0.86124 0.78424 0.46792
 C177 C 0.85091 0.76640 0.45662
 C178 C 0.82710 0.76347 0.45803
 C179 C 0.81373 0.77843 0.47002
 C180 C 0.80065 0.83794 0.46277
 C181 C 0.78550 0.85155 0.45117
 C182 C 0.76233 0.85304 0.45738
 C183 C 0.75474 0.84062 0.47543
 C184 C 0.76990 0.82691 0.48697
 C185 C 0.78494 0.82937 0.54319
 C186 C 0.77375 0.84687 0.55390
 C187 C 0.77880 0.86929 0.54860
 C188 C 0.79530 0.87386 0.53257
 C189 C 0.80617 0.85636 0.52161
 C190 C 0.82780 0.77800 0.52831
 C191 C 0.84272 0.76531 0.54119
 C192 C 0.85867 0.77598 0.55489
 C193 C 0.85923 0.79948 0.55550
 C194 C 0.84450 0.81211 0.54251
 H195 H 0.85612 0.81271 0.48867
 H196 H 0.87962 0.78664 0.46756
 H197 H 0.81880 0.74977 0.44956
 H198 H 0.79533 0.77608 0.47067
 H199 H 0.81848 0.83740 0.45790
 H200 H 0.79223 0.86133 0.43778
 H201 H 0.76360 0.81736 0.50073
 H202 H 0.78097 0.81219 0.54753
 H203 H 0.76156 0.84284 0.56660
 H204 H 0.79963 0.89100 0.52841
 H205 H 0.81876 0.86019 0.50919
 H206 H 0.81530 0.76943 0.51829
 H207 H 0.84129 0.74724 0.54078
 H208 H 0.87120 0.80812 0.56603
 H209 H 0.84548 0.83022 0.54322
 H210 H 0.73702 0.84151 0.48060
 C211 C 0.18605 0.18532 0.51546
 C212 C 0.18908 0.18755 0.49364
 C213 C 0.17625 0.20454 0.48102
 C214 C 0.20415 0.17230 0.48118
 C215 C 0.19961 0.16932 0.52867
 C216 C 0.16815 0.19822 0.52698
 C217 C 0.16161 0.19772 0.46424
 C218 C 0.14859 0.21345 0.45290
 C219 C 0.15026 0.23641 0.45797
 C220 C 0.16518 0.24319 0.47461
 C221 C 0.17819 0.22741 0.48595
 C222 C 0.19938 0.14927 0.48019
 C223 C 0.21315 0.13510 0.46772
 C224 C 0.23200 0.14377 0.45615
 C225 C 0.23693 0.16676 0.45748
 C226 C 0.22290 0.18098 0.46963
 C227 C 0.22365 0.16960 0.52808
 C228 C 0.23624 0.15456 0.54074
 C229 C 0.22495 0.13904 0.55432
 C230 C 0.20094 0.13920 0.55525
 C231 C 0.18839 0.15415 0.54253
 C232 C 0.17433 0.21530 0.54146
 C233 C 0.15744 0.22728 0.55259
 C234 C 0.13418 0.22191 0.54973
 C235 C 0.12809 0.20457 0.53547
 C236 C 0.14495 0.19298 0.52394
 H237 H 0.15980 0.18010 0.46033
 H238 H 0.13683 0.20739 0.44068
 H239 H 0.16673 0.26073 0.47889
 H240 H 0.18964 0.23300 0.49869
 H241 H 0.18486 0.14235 0.48893
 H242 H 0.20924 0.11736 0.46738
 H243 H 0.22675 0.19873 0.47019
 H244 H 0.23267 0.18163 0.51801
 H245 H 0.25473 0.15553 0.54016
 H246 H 0.19186 0.12757 0.56573
 H247 H 0.16986 0.15375 0.54339
 H248 H 0.19221 0.21937 0.54406
 H249 H 0.16261 0.24025 0.56387
 H250 H 0.11027 0.20005 0.53321
 H251 H 0.13998 0.17968 0.51294
 H252 H 0.25144 0.17376 0.44880
 C253 C 0.18878 0.81040 0.49397
 C254 C 0.18616 0.81190 0.51594
 C255 C 0.17012 0.79717 0.52793
 C256 C 0.19836 0.82918 0.52878
 C257 C 0.20516 0.82516 0.48219
 C258 C 0.17481 0.79481 0.48042
 C259 C 0.14974 0.80610 0.53628
 C260 C 0.13342 0.79205 0.54583
 C261 C 0.13771 0.76906 0.54802
 C262 C 0.15854 0.76023 0.54047
 C263 C 0.17456 0.77420 0.53022
 C264 C 0.19301 0.85193 0.52620
 C265 C 0.20503 0.86825 0.53787
 C266 C 0.22289 0.86211 0.55193
 C267 C 0.22801 0.83926 0.55471
 C268 C 0.21566 0.82292 0.54335
 C269 C 0.22856 0.82546 0.48749
 C270 C 0.24359 0.83986 0.47653
 C271 C 0.23560 0.85383 0.45980
 C272 C 0.21216 0.85339 0.45448
 C273 C 0.19714 0.83910 0.46550
 C274 C 0.18568 0.78096 0.46513
 C275 C 0.17278 0.76742 0.45119
 C276 C 0.14879 0.76719 0.45245
 C277 C 0.13786 0.78106 0.46771
 C278 C 0.15075 0.79496 0.48134
 H279 H 0.14609 0.82381 0.53457
 H280 H 0.11742 0.79911 0.55152
 H281 H 0.16203 0.74247 0.54181
 H282 H 0.19025 0.76710 0.52385
 H283 H 0.17957 0.85701 0.51511
 H284 H 0.20064 0.88573 0.53564
 H285 H 0.21988 0.80540 0.54560
 H286 H 0.23515 0.81457 0.50010
 H287 H 0.26154 0.83996 0.48099
 H288 H 0.20519 0.86440 0.44217
 H289 H 0.17913 0.83919 0.46127
 H290 H 0.20418 0.78085 0.46382
 H291 H 0.18156 0.75710 0.43935
 H292 H 0.11936 0.78187 0.46854
 H293 H 0.14187 0.80631 0.49212
 H294 H 0.24129 0.83400 0.56586
 C295 C 0.81453 0.18646 0.48129
 C296 C 0.81304 0.19082 0.50300
 C297 C 0.82737 0.20837 0.51324
 C298 C 0.79864 0.17731 0.51810
 C299 C 0.80228 0.16736 0.47103
 C300 C 0.82940 0.20014 0.46669
 C301 C 0.85127 0.20620 0.51381
 C302 C 0.86459 0.22208 0.52468
 C303 C 0.85415 0.24037 0.53509
 C304 C 0.83029 0.24282 0.53396
 C305 C 0.81695 0.22674 0.52338
 C306 C 0.80880 0.16774 0.53656
 C307 C 0.79587 0.15483 0.55096
 C308 C 0.77246 0.15110 0.54727
 C309 C 0.76208 0.16104 0.52897
 C310 C 0.77508 0.17412 0.51454
 C311 C 0.78943 0.17105 0.45208
 C312 C 0.77839 0.15327 0.44171
 C313 C 0.77995 0.13145 0.45018
 C314 C 0.79272 0.12772 0.46914
 C315 C 0.80419 0.14545 0.47925
 C316 C 0.82731 0.22357 0.46559
 C317 C 0.84173 0.23611 0.45202
 C318 C 0.85826 0.22535 0.43907
 C319 C 0.85976 0.20190 0.43967
 C320 C 0.84556 0.18943 0.45341
 H321 H 0.85953 0.19201 0.50614
 H322 H 0.88301 0.22005 0.52490
 H323 H 0.82195 0.25686 0.54179
 H324 H 0.79849 0.22856 0.52311
 H325 H 0.82691 0.17002 0.53970
 H326 H 0.80429 0.14752 0.56496
 H327 H 0.76680 0.18175 0.50064
 H328 H 0.78786 0.18777 0.44537
 H329 H 0.76825 0.15670 0.42736
 H330 H 0.79414 0.11101 0.47590
 H331 H 0.81460 0.14204 0.49343
 H332 H 0.81446 0.23214 0.47517
 H333 H 0.83960 0.25410 0.45141
 H334 H 0.87219 0.19322 0.42968
 H335 H 0.84734 0.17136 0.45384
 H336 H 0.74398 0.15906 0.52582
 C337 C 0.51340 0.82262 0.81844
 C338 C 0.49026 0.81976 0.81827
 C339 C 0.47558 0.83110 0.80208
 C340 C 0.47823 0.80627 0.83498
 C341 C 0.52825 0.80941 0.83327
 C342 C 0.52471 0.83946 0.80412
 C343 C 0.46038 0.84785 0.80887
 C344 C 0.44711 0.85932 0.79365
 C345 C 0.44836 0.85370 0.77152
 C346 C 0.46286 0.83630 0.76484
 C347 C 0.47667 0.82526 0.78001
 C348 C 0.47927 0.81240 0.85698
 C349 C 0.46640 0.80071 0.87247
 C350 C 0.45261 0.78253 0.86625
 C351 C 0.45177 0.77629 0.84422
 C352 C 0.46436 0.78821 0.82869
 C353 C 0.52690 0.78592 0.83384
 C354 C 0.54054 0.77363 0.84821
 C355 C 0.55590 0.78467 0.86223
 C356 C 0.55772 0.80811 0.86110
 C357 C 0.54403 0.82037 0.84678
 C358 C 0.54294 0.83316 0.79055
 C359 C 0.55330 0.84889 0.77675
 C360 C 0.54558 0.87120 0.77638
 C361 C 0.52761 0.87751 0.79020
 C362 C 0.51755 0.86191 0.80421
 H363 H 0.45926 0.85241 0.82588
 H364 H 0.43576 0.87249 0.79914
 H365 H 0.46392 0.83169 0.74783
 H366 H 0.48818 0.81219 0.77461
 H367 H 0.48960 0.82656 0.86203
 H368 H 0.46710 0.80593 0.88932
 H369 H 0.46314 0.78349 0.81173
 H370 H 0.51531 0.77708 0.82309
 H371 H 0.53919 0.75557 0.84797
 H372 H 0.56959 0.81701 0.87154
 H373 H 0.54550 0.83847 0.84646
 H374 H 0.54884 0.81596 0.79035
 H375 H 0.56687 0.84341 0.76602
 H376 H 0.52145 0.89463 0.79027
 H377 H 0.50409 0.86736 0.81509
 H378 H 0.44083 0.76273 0.83884
 C379 C 0.51188 0.19387 0.19727
 C380 C 0.48866 0.19156 0.19678
 C381 C 0.47627 0.17702 0.21257
 C382 C 0.47467 0.20192 0.17936
 C383 C 0.52416 0.20936 0.18224
 C384 C 0.52603 0.17967 0.21182
 C385 C 0.46162 0.16012 0.20492
 C386 C 0.45012 0.14607 0.21947
 C387 C 0.45283 0.14881 0.24206
 C388 C 0.46752 0.16570 0.24971
 C389 C 0.47897 0.17984 0.23511
 C390 C 0.47781 0.19565 0.15757
 C391 C 0.46359 0.20433 0.14135
 C392 C 0.44629 0.21969 0.14661
 C393 C 0.44320 0.22598 0.16846
 C394 C 0.45717 0.21698 0.18471
 C395 C 0.51772 0.23195 0.18034
 C396 C 0.52874 0.24605 0.16542
 C397 C 0.54671 0.23800 0.15242
 C398 C 0.55335 0.21544 0.15458
 C399 C 0.54227 0.20134 0.16943
 C400 C 0.53932 0.18942 0.22828
 C401 C 0.55189 0.17589 0.24253
 C402 C 0.55188 0.15250 0.24013
 C403 C 0.53873 0.14281 0.22342
 C404 C 0.52594 0.15630 0.20940
 H405 H 0.45944 0.15752 0.18762
 H406 H 0.43957 0.13280 0.21290
 H407 H 0.46998 0.16807 0.26701
 H408 H 0.48994 0.19298 0.24138
 H409 H 0.49098 0.18370 0.15322
 H410 H 0.46612 0.19909 0.12466
 H411 H 0.45431 0.22171 0.20150
 H412 H 0.50404 0.23862 0.19030
 H413 H 0.52324 0.26332 0.16406
 H414 H 0.56663 0.20836 0.14445
 H415 H 0.54744 0.18395 0.17050
 H416 H 0.53954 0.20744 0.23036
 H417 H 0.56180 0.18370 0.25535
 H418 H 0.53791 0.12481 0.22144
 H419 H 0.51580 0.14851 0.19673
 H420 H 0.42962 0.23734 0.17308
 C421 C 0.48149 0.18456 0.82040
 C422 C 0.50470 0.18532 0.81824
 C423 C 0.51684 0.17169 0.80165
 C424 C 0.51905 0.19925 0.83283
 C425 C 0.46908 0.19991 0.83532
 C426 C 0.46769 0.16769 0.80848
 C427 C 0.53455 0.15723 0.80795
 C428 C 0.54566 0.14390 0.79255
 C429 C 0.53939 0.14498 0.77047
 C430 C 0.52180 0.15963 0.76420
 C431 C 0.51079 0.17303 0.77959
 C432 C 0.51933 0.19520 0.85532
 C433 C 0.53287 0.20839 0.86903
 C434 C 0.54623 0.22595 0.86043
 C435 C 0.54581 0.23000 0.83794
 C436 C 0.53260 0.21654 0.82420
 C437 C 0.47207 0.22322 0.83386
 C438 C 0.46100 0.23748 0.84848
 C439 C 0.44643 0.22879 0.86462
 C440 C 0.44327 0.20541 0.86589
 C441 C 0.45437 0.19116 0.85127
 C442 C 0.45211 0.17448 0.79244
 C443 C 0.44009 0.15849 0.78031
 C444 C 0.44315 0.13549 0.78442
 C445 C 0.45809 0.12882 0.80106
 C446 C 0.47047 0.14477 0.81284
 H447 H 0.53942 0.15591 0.82490
 H448 H 0.55868 0.13241 0.79815
 H449 H 0.51663 0.16076 0.74732
 H450 H 0.49748 0.18440 0.77430
 H451 H 0.50903 0.18183 0.86223
 H452 H 0.53244 0.20517 0.88636
 H453 H 0.53258 0.21986 0.80687
 H454 H 0.48307 0.23036 0.82144
 H455 H 0.46379 0.25539 0.84715
 H456 H 0.43273 0.19792 0.87842
 H457 H 0.45193 0.17322 0.85275
 H458 H 0.44968 0.19212 0.78900
 H459 H 0.42826 0.16412 0.76792
 H460 H 0.46055 0.11120 0.80462
 H461 H 0.48231 0.13929 0.82530
 H462 H 0.55586 0.24352 0.83099
 C463 C 0.48368 0.82320 0.17221
 C464 C 0.50668 0.82191 0.17573
 C465 C 0.51869 0.83545 0.19248
 C466 C 0.52173 0.80754 0.16216
 C467 C 0.47245 0.81011 0.15461
 C468 C 0.46843 0.83760 0.18558
 C469 C 0.51691 0.85892 0.19295
 C470 C 0.53069 0.87148 0.20703
 C471 C 0.54672 0.86073 0.22054
 C472 C 0.54822 0.83731 0.22022
 C473 C 0.53424 0.82478 0.20646
 C474 C 0.53997 0.81743 0.15080
 C475 C 0.55454 0.80438 0.13813
 C476 C 0.55120 0.78115 0.13650
 C477 C 0.53311 0.77112 0.14821
 C478 C 0.51853 0.78425 0.16100
 C479 C 0.45416 0.79576 0.15974
 C480 C 0.44399 0.78263 0.14364
 C481 C 0.45195 0.78366 0.12207
 C482 C 0.47000 0.79828 0.11687
 C483 C 0.47990 0.81172 0.13292
 C484 C 0.46803 0.83606 0.20838
 C485 C 0.45329 0.84964 0.22054
 C486 C 0.43854 0.86484 0.21004
 C487 C 0.43864 0.86590 0.18725
 C488 C 0.45345 0.85248 0.17515
 H489 H 0.50556 0.86756 0.18185
 H490 H 0.52957 0.88957 0.20652
 H491 H 0.56055 0.82870 0.23038
 H492 H 0.53605 0.80672 0.20620
 H493 H 0.54283 0.83536 0.15164
 H494 H 0.56841 0.81251 0.12942
 H495 H 0.50483 0.77627 0.17006
 H496 H 0.44812 0.79434 0.17636
 H497 H 0.43040 0.77118 0.14824
 H498 H 0.47636 0.79936 0.10034
 H499 H 0.49361 0.82310 0.12849
 H500 H 0.47896 0.82421 0.21674
 H501 H 0.45317 0.84781 0.23804
 H502 H 0.42731 0.87730 0.17875
 H503 H 0.45331 0.85379 0.15757
 H504 H 0.53032 0.75322 0.14789
 C505 C 0.80112 0.50944 0.80909
 C506 C 0.80233 0.48659 0.80990
 C507 C 0.79034 0.47354 0.82720
 C508 C 0.81601 0.47368 0.79384
 C509 C 0.81597 0.52309 0.79442
 C510 C 0.78544 0.52212 0.82360
 C511 C 0.79296 0.47915 0.84925
 C512 C 0.78041 0.46788 0.86525
 C513 C 0.76567 0.45024 0.85964
 C514 C 0.76372 0.44398 0.83767
 C515 C 0.77598 0.45555 0.82160
 C516 C 0.83251 0.45836 0.80110
 C517 C 0.84641 0.44704 0.78624
 C518 C 0.84383 0.45061 0.76372
 C519 C 0.82696 0.46562 0.75650
 C520 C 0.81305 0.47691 0.77139
 C521 C 0.80636 0.54058 0.78217
 C522 C 0.82024 0.55438 0.76932
 C523 C 0.84393 0.55077 0.76824
 C524 C 0.85363 0.53336 0.78058
 C525 C 0.83979 0.51981 0.79373
 C526 C 0.76190 0.51731 0.82426
 C527 C 0.74758 0.52870 0.83871
 C528 C 0.75644 0.54536 0.85247
 C529 C 0.77999 0.55040 0.85149
 C530 C 0.79429 0.53898 0.83709
 H531 H 0.80443 0.49254 0.85405
 H532 H 0.78226 0.47292 0.88208
 H533 H 0.75221 0.43067 0.83279
 H534 H 0.77379 0.45086 0.80472
 H535 H 0.83512 0.45569 0.81835
 H536 H 0.85955 0.43611 0.79258
 H537 H 0.80019 0.48843 0.76542
 H538 H 0.78808 0.54364 0.78267
 H539 H 0.81244 0.56786 0.76014
 H540 H 0.87195 0.53064 0.78065
 H541 H 0.84775 0.50702 0.80368
 H542 H 0.75470 0.50455 0.81377
 H543 H 0.72954 0.52444 0.83920
 H544 H 0.78765 0.56264 0.86221
 H545 H 0.81242 0.54285 0.83688
 H546 H 0.82463 0.46872 0.73928
 C547 C 0.20257 0.51925 0.19930
 C548 C 0.20366 0.49649 0.20088
 C549 C 0.21744 0.48326 0.18522
 C550 C 0.19014 0.48364 0.21715
 C551 C 0.18644 0.53292 0.21249
 C552 C 0.21690 0.53156 0.18326
 C553 C 0.21159 0.48296 0.16309
 C554 C 0.22479 0.47081 0.14829
 C555 C 0.24410 0.45880 0.15539
 C556 C 0.24998 0.45927 0.17752
 C557 C 0.23655 0.47116 0.19239
 C558 C 0.17558 0.46640 0.21012
 C559 C 0.16174 0.45490 0.22493
 C560 C 0.16245 0.46018 0.24723
 C561 C 0.17733 0.47721 0.25428
 C562 C 0.19119 0.48874 0.23941
 C563 C 0.19449 0.55213 0.22322
 C564 C 0.17944 0.56576 0.23486
 C565 C 0.15608 0.56036 0.23619
 C566 C 0.14792 0.54125 0.22527
 C567 C 0.16295 0.52779 0.21335
 C568 C 0.24087 0.52998 0.18372
 C569 C 0.25409 0.54083 0.16792
 C570 C 0.24362 0.55369 0.15158
 C571 C 0.21957 0.55546 0.15136
 C572 C 0.20638 0.54461 0.16717
 H573 H 0.19686 0.49222 0.15733
 H574 H 0.22012 0.47119 0.13126
 H575 H 0.26484 0.45023 0.18332
 H576 H 0.24128 0.47128 0.20942
 H577 H 0.17437 0.46231 0.19299
 H578 H 0.15007 0.44243 0.21862
 H579 H 0.20251 0.50184 0.24521
 H580 H 0.21247 0.55660 0.22252
 H581 H 0.18606 0.58055 0.24292
 H582 H 0.12988 0.53704 0.22534
 H583 H 0.15616 0.51357 0.20451
 H584 H 0.24930 0.52018 0.19619
 H585 H 0.27255 0.53913 0.16843
 H586 H 0.21072 0.56465 0.13877
 H587 H 0.18789 0.54590 0.16652
 H588 H 0.17814 0.48169 0.27133
 C589 C 0.82322 0.48710 0.17731
 C590 C 0.82250 0.50998 0.17732
 C591 C 0.80501 0.52240 0.16459
 C592 C 0.83928 0.52360 0.19000
 C593 C 0.83909 0.47450 0.19170
 C594 C 0.80867 0.47313 0.16268
 C595 C 0.81193 0.53904 0.14984
 C596 C 0.79582 0.55006 0.13691
 C597 C 0.77236 0.54481 0.13871
 C598 C 0.76545 0.52843 0.15378
 C599 C 0.78158 0.51748 0.16676
 C600 C 0.86295 0.51960 0.18841
 C601 C 0.87836 0.53115 0.20169
 C602 C 0.87057 0.54757 0.21621
 C603 C 0.84702 0.55240 0.21706
 C604 C 0.83153 0.54050 0.20407
 C605 C 0.83889 0.47755 0.21435
 C606 C 0.85345 0.46497 0.22765
 C607 C 0.86829 0.44900 0.21847
 C608 C 0.86820 0.44586 0.19586
 C609 C 0.85380 0.45850 0.18261
 C610 C 0.79725 0.45432 0.17121
 C611 C 0.78561 0.43954 0.15752
 C612 C 0.78478 0.44344 0.13505
 C613 C 0.79585 0.46245 0.12644
 C614 C 0.80791 0.47703 0.14012
 H615 H 0.82993 0.54304 0.14787
 H616 H 0.80196 0.56211 0.12511
 H617 H 0.74751 0.52405 0.15546
 H618 H 0.77583 0.50493 0.17830
 H619 H 0.86946 0.50715 0.17721
 H620 H 0.89644 0.52720 0.20070
 H621 H 0.81339 0.54400 0.20548
 H622 H 0.82726 0.48944 0.22171
 H623 H 0.85255 0.46740 0.24505
 H624 H 0.87933 0.43355 0.18841
 H625 H 0.85409 0.45578 0.16519
 H626 H 0.79775 0.45080 0.18849
 H627 H 0.77734 0.42493 0.16449
 H628 H 0.79601 0.46556 0.10910
 H629 H 0.81721 0.49096 0.13302
 H630 H 0.84044 0.56474 0.22833
 C631 C 0.18536 0.47830 0.81713
 C632 C 0.18083 0.50070 0.81692
 C633 C 0.19308 0.51636 0.83167
 C634 C 0.16349 0.51080 0.80210
 C635 C 0.17412 0.46236 0.80198
 C636 C 0.20109 0.46829 0.83336
 C637 C 0.18053 0.53071 0.84521
 C638 C 0.19180 0.54566 0.85901
 C639 C 0.21582 0.54648 0.85961
 C640 C 0.22840 0.53244 0.84567
 C641 C 0.21710 0.51759 0.83176
 C642 C 0.14098 0.50245 0.80101
 C643 C 0.12515 0.51192 0.78663
 C644 C 0.13126 0.53038 0.77368
 C645 C 0.15364 0.53900 0.77509
 C646 C 0.16956 0.52930 0.78918
 C647 C 0.17434 0.46588 0.77938
 C648 C 0.16244 0.45134 0.76559
 C649 C 0.15046 0.43285 0.77420
 C650 C 0.15135 0.42872 0.79663
 C651 C 0.16297 0.44338 0.81041
 C652 C 0.22138 0.45802 0.82641
 C653 C 0.23582 0.44762 0.84144
 C654 C 0.22980 0.44669 0.86351
 C655 C 0.20949 0.45709 0.87049
 C656 C 0.19529 0.46792 0.85551
 H657 H 0.16198 0.53020 0.84519
 H658 H 0.18173 0.55649 0.86940
 H659 H 0.24691 0.53318 0.84509
 H660 H 0.22709 0.50720 0.82090
 H661 H 0.13571 0.48853 0.81119
 H662 H 0.10799 0.50500 0.78582
 H663 H 0.18679 0.53605 0.78978
 H664 H 0.18344 0.48005 0.77248
 H665 H 0.16273 0.45456 0.74827
 H666 H 0.14246 0.41446 0.80361
 H667 H 0.16277 0.44018 0.82776
 H668 H 0.22602 0.45812 0.80935
 H669 H 0.25145 0.43982 0.83574
 H670 H 0.20469 0.45701 0.88750
 H671 H 0.17959 0.47568 0.86108
 H672 H 0.15906 0.55290 0.76498
 C673 C 0.29369 0.36570 0.05293
 C674 C 0.30261 0.38486 0.06271
 C675 C 0.28885 0.39806 0.07813
 N676 N 0.29911 0.41276 0.09187
 N677 N 0.28668 0.42461 0.10595
 C678 C 0.26352 0.42232 0.10664
 N679 N 0.25327 0.40783 0.09273
 N680 N 0.26570 0.39586 0.07881
 C681 C 0.24940 0.43538 0.12182
 C682 C 0.25854 0.44607 0.14000
 H683 H 0.32015 0.38987 0.05951
 H684 H 0.23107 0.43556 0.11916
 H685 H 0.27672 0.35993 0.05746
 H686 H 0.27650 0.44383 0.14385
 C687 C 0.69867 0.63281 0.04403
 C688 C 0.69522 0.61182 0.05347
 C689 C 0.71138 0.60259 0.06952
 N690 N 0.70740 0.58225 0.07870
 N691 N 0.72211 0.57367 0.09304
 C692 C 0.74133 0.58514 0.09871
 N693 N 0.74527 0.60547 0.08954
 N694 N 0.73058 0.61405 0.07525
 C695 C 0.75815 0.57578 0.11401
 C696 C 0.75488 0.55526 0.12450
 H697 H 0.68043 0.60187 0.04895
 H698 H 0.77345 0.58552 0.11705
 H699 H 0.71337 0.64278 0.04877
 H700 H 0.73870 0.54658 0.12249
 C701 C 0.69929 0.35483 0.95127
 C702 C 0.69449 0.37649 0.94417
 C703 C 0.70738 0.38691 0.92620
 N704 N 0.70760 0.40953 0.92390
 N705 N 0.71966 0.41917 0.90801
 C706 C 0.73178 0.40653 0.89371
 N707 N 0.73129 0.38390 0.89581
 N708 N 0.71940 0.37427 0.91183
 C709 C 0.74526 0.41694 0.87613
 C710 C 0.75187 0.43939 0.87689
 H711 H 0.68204 0.38652 0.95284
 H712 H 0.75114 0.40638 0.86297
 H713 H 0.71302 0.34550 0.94366
 H714 H 0.74791 0.44911 0.89128
 C715 C 0.30981 0.61680 0.95206
 C716 C 0.28951 0.62123 0.94097
 C717 C 0.27928 0.60521 0.92565
 N718 N 0.25863 0.60972 0.91658
 N719 N 0.24900 0.59533 0.90278
 C720 C 0.25971 0.57590 0.89750
 N721 N 0.28043 0.57143 0.90649
 N722 N 0.29003 0.58581 0.92034
 C723 C 0.24925 0.55980 0.88237
 C724 C 0.22705 0.56259 0.87444
 H725 H 0.28054 0.63682 0.94386
 H726 H 0.25904 0.54508 0.87809
 H727 H 0.31862 0.60106 0.94952
 H728 H 0.21698 0.57660 0.88023
 C729 C 0.05115 0.30687 0.37125
 C730 C 0.06334 0.31191 0.39009
 C731 C 0.07983 0.29603 0.39947
 N732 N 0.09047 0.30084 0.41852
 N733 N 0.10516 0.28637 0.42730
 C734 C 0.10979 0.26660 0.41731
 N735 N 0.09924 0.26185 0.39823
 N736 N 0.08454 0.27629 0.38947
 C737 C 0.12539 0.25009 0.42699
 C738 C 0.13603 0.25355 0.44701
 H739 H 0.06053 0.32770 0.39833
 H740 H 0.12829 0.23480 0.41800
 H741 H 0.05386 0.29098 0.36317
 H742 H 0.13400 0.26959 0.45500
 C743 C 0.04765 0.68655 0.63058
 C744 C 0.05368 0.68515 0.60872
 C745 C 0.07217 0.69892 0.59949
 N746 N 0.07119 0.70557 0.57841
 N747 N 0.08780 0.71819 0.56990
 C748 C 0.10617 0.72429 0.58208
 N749 N 0.10736 0.71732 0.60307
 N750 N 0.09057 0.70499 0.61168
 C751 C 0.12451 0.73823 0.57281
 C752 C 0.11977 0.75442 0.55715
 H753 H 0.04367 0.67476 0.59784
 H754 H 0.14164 0.73689 0.57944
 H755 H 0.05595 0.69880 0.64092
 H756 H 0.10212 0.75770 0.55274
 C757 C 0.95411 0.70239 0.36900
 C758 C 0.93858 0.69552 0.38492
 C759 C 0.92408 0.71153 0.39678
 N760 N 0.90721 0.70393 0.41009
 N761 N 0.89439 0.71823 0.42141
 C762 C 0.89810 0.74066 0.41995
 N763 N 0.91503 0.74826 0.40670
 N764 N 0.92776 0.73397 0.39528
 C765 C 0.88454 0.75667 0.43275
 C766 C 0.86457 0.75040 0.44369
 H767 H 0.93718 0.67791 0.38906
 H768 H 0.89007 0.77400 0.43296
 H769 H 0.95479 0.71985 0.36416
 H770 H 0.85798 0.73354 0.44167
 C771 C 0.95098 0.30401 0.62827
 C772 C 0.93793 0.31118 0.61065
 C773 C 0.92414 0.29542 0.59780
 N774 N 0.90907 0.30319 0.58280
 N775 N 0.89696 0.28898 0.57067
 C776 C 0.89966 0.26650 0.57299
 N777 N 0.91481 0.25875 0.58788
 N778 N 0.92680 0.27294 0.60010
 C779 C 0.88675 0.25054 0.55960
 C780 C 0.86773 0.25688 0.54742
 H781 H 0.93816 0.32867 0.60587
 H782 H 0.89169 0.23307 0.56029
 H783 H 0.94986 0.28675 0.63366
 H784 H 0.86145 0.27391 0.54852
 C785 C 0.35851 0.04793 0.30175
 C786 C 0.37856 0.05882 0.30812
 C787 C 0.38928 0.07601 0.29418
 N788 N 0.40929 0.08589 0.30016
 N789 N 0.41931 0.10104 0.28728
 C790 C 0.40966 0.10685 0.26798
 N791 N 0.38964 0.09705 0.26208
 N792 N 0.37965 0.08194 0.27492
 C793 C 0.42065 0.12289 0.25306
 C794 C 0.44113 0.13390 0.25786
 H795 H 0.38681 0.05430 0.32327
 H796 H 0.41212 0.12605 0.23775
 H797 H 0.35043 0.05251 0.28653
 H798 H 0.44856 0.13201 0.27390
 C799 C 0.63187 0.05325 0.69608
 C800 C 0.60973 0.06171 0.69411
 C801 C 0.60012 0.07753 0.71002
 N802 N 0.57859 0.08559 0.70731
 N803 N 0.56954 0.09958 0.72182
 C804 C 0.58167 0.10601 0.73960
 N805 N 0.60320 0.09796 0.74230
 N806 N 0.61226 0.08400 0.72778
 C807 C 0.57180 0.12103 0.75608
 C808 C 0.55013 0.13058 0.75374
 H809 H 0.59898 0.05637 0.68072
 H810 H 0.58211 0.12477 0.77022
 H811 H 0.64268 0.05877 0.70934
 H812 H 0.54082 0.12788 0.73873
 C813 C 0.39320 0.95598 0.68209
 C814 C 0.38272 0.94051 0.69582
 C815 C 0.39634 0.92690 0.71089
 N816 N 0.38903 0.90622 0.71700
 N817 N 0.40127 0.89398 0.73091
 C818 C 0.42105 0.90218 0.73943
 N819 N 0.42816 0.92297 0.73355
 N820 N 0.41612 0.93505 0.71941
 C821 C 0.43427 0.88933 0.75538
 C822 C 0.43473 0.86603 0.75535
 H823 H 0.36435 0.93799 0.69515
 H824 H 0.44500 0.89846 0.76670
 H825 H 0.41172 0.95661 0.68108
 H826 H 0.42654 0.85684 0.74230
 C827 C 0.62262 0.95663 0.30459
 C828 C 0.62754 0.94318 0.28674
 C829 C 0.60960 0.93034 0.27558
 N830 N 0.61543 0.91339 0.26202
 N831 N 0.59933 0.90182 0.25157
 C832 C 0.57681 0.90692 0.25413
 N833 N 0.57099 0.92404 0.26750
 N834 N 0.58709 0.93548 0.27812
 C835 C 0.55901 0.89448 0.24234
 C836 C 0.56342 0.87339 0.23366
 H837 H 0.64501 0.94181 0.28094
 H838 H 0.54207 0.90171 0.24107
 H839 H 0.60543 0.95679 0.31127
 H840 H 0.57970 0.86546 0.23715
 C841 C 0.35679 0.29151 0.96578
 C842 C 0.37635 0.29768 0.95418
 C843 C 0.38671 0.28253 0.93801
 N844 N 0.40575 0.28885 0.92686
 N845 N 0.41522 0.27516 0.91229
 C846 C 0.40597 0.25464 0.90832
 N847 N 0.38694 0.24835 0.91946
 N848 N 0.37749 0.26202 0.93400
 C849 C 0.41619 0.23907 0.89252
 C850 C 0.43552 0.24449 0.88017
 H851 H 0.38423 0.31387 0.95699
 H852 H 0.40786 0.22301 0.89046
 H853 H 0.34899 0.27531 0.96282
 H854 H 0.44267 0.26121 0.88151
 C855 C 0.61762 0.68650 0.95596
 C856 C 0.62204 0.70784 0.94765
 C857 C 0.60738 0.71869 0.93132
 N858 N 0.61282 0.73950 0.92403
 N859 N 0.59974 0.74973 0.90934
 C860 C 0.58071 0.73953 0.90138
 N861 N 0.57528 0.71868 0.90864
 N862 N 0.58837 0.70843 0.92335
 C863 C 0.56600 0.75073 0.88527
 C864 C 0.57058 0.77244 0.87787
 H865 H 0.63685 0.71710 0.95334
 H866 H 0.55096 0.74181 0.87975
 H867 H 0.60289 0.67709 0.95033
 H868 H 0.58510 0.78137 0.88463
 C869 C 0.36168 0.70195 0.03635
 C870 C 0.38419 0.70074 0.04370
 C871 C 0.39334 0.71690 0.05948
 N872 N 0.41631 0.71896 0.06225
 N873 N 0.42477 0.73353 0.07655
 C874 C 0.41055 0.74645 0.08872
 N875 N 0.38760 0.74423 0.08609
 N876 N 0.37914 0.72981 0.07166
 C877 C 0.41958 0.76213 0.10499
 C878 C 0.44241 0.76897 0.10502
 H879 H 0.39561 0.68813 0.03718
 H880 H 0.40777 0.76887 0.11687
 H881 H 0.35079 0.71556 0.04168
 H882 H 0.45349 0.76407 0.09171
 C883 C 0.64033 0.29733 0.05233
 C884 C 0.61852 0.30212 0.06033
 C885 C 0.60846 0.28897 0.07832
 N886 N 0.58692 0.29335 0.08549
 N887 N 0.57758 0.28111 0.10139
 C888 C 0.58947 0.26406 0.11072
 N889 N 0.61100 0.25976 0.10360
 N890 N 0.62032 0.27197 0.08773
 C891 C 0.57940 0.24979 0.12781
 C892 C 0.55747 0.25323 0.13625
 H893 H 0.60846 0.31534 0.05297
 H894 H 0.58981 0.23619 0.13390
 H895 H 0.65020 0.28402 0.05976
 H896 H 0.54796 0.26789 0.13115
 C897 C 0.32670 0.04336 0.61038
 C898 C 0.30537 0.05201 0.61602
 C899 C 0.29364 0.06866 0.60240
 N900 N 0.27254 0.07610 0.60812
 N901 N 0.26169 0.09113 0.59588
 C902 C 0.27156 0.09930 0.57747
 N903 N 0.29268 0.09192 0.57179
 N904 N 0.30352 0.07687 0.58402
 C905 C 0.25979 0.11582 0.56371
 C906 C 0.23752 0.12290 0.56812
 H907 H 0.29695 0.04635 0.63076
 H908 H 0.26874 0.12186 0.54944
 H909 H 0.33504 0.04889 0.59556
 H910 H 0.22841 0.11547 0.58171
 C911 C 0.71109 0.03765 0.35766
 C912 C 0.70786 0.04594 0.37866
 C913 C 0.72346 0.06224 0.38866
 N914 N 0.72229 0.06601 0.41037
 N915 N 0.73573 0.08127 0.41968
 C916 C 0.75072 0.09346 0.40756
 N917 N 0.75183 0.08976 0.38581
 N918 N 0.73850 0.07435 0.37652
 C919 C 0.76476 0.11112 0.41748
 C920 C 0.76772 0.11259 0.43993
 H921 H 0.69358 0.04004 0.38841
 H922 H 0.77304 0.12317 0.40686
 H923 H 0.72626 0.04243 0.34857
 H924 H 0.76151 0.09917 0.45028
 C925 C 0.68288 0.96165 0.61783
 C926 C 0.70635 0.95752 0.61689
 C927 C 0.71622 0.93952 0.60360
 N928 N 0.73917 0.93891 0.60016
 N929 N 0.74853 0.92242 0.58863
 C930 C 0.73529 0.90582 0.58024
 N931 N 0.71234 0.90634 0.58377
 N932 N 0.70295 0.92294 0.59518
 C933 C 0.74551 0.88716 0.56804
 C934 C 0.76791 0.88813 0.56017
 H935 H 0.71801 0.96803 0.62606
 H936 H 0.73497 0.87261 0.56474
 H937 H 0.67124 0.95216 0.60766
 H938 H 0.77748 0.90364 0.56164
 C939 C 0.29789 0.94948 0.36488
 C940 C 0.30338 0.94200 0.38572
 C941 C 0.28957 0.92450 0.39650
 N942 N 0.29436 0.91802 0.41717
 N943 N 0.28145 0.90263 0.42713
 C944 C 0.26330 0.89318 0.41674
 N945 N 0.25861 0.89960 0.39607
 N946 N 0.27149 0.91494 0.38614
 C947 C 0.24822 0.87681 0.42750
 C948 C 0.25184 0.86910 0.44864
 H949 H 0.31757 0.94947 0.39445
 H950 H 0.23374 0.87068 0.41827
 H951 H 0.28358 0.94198 0.35635
 H952 H 0.26736 0.87393 0.45711
 C953 C 0.04409 0.37967 0.68427
 C954 C 0.05793 0.37163 0.70097
 C955 C 0.07599 0.38535 0.71095
 N956 N 0.08840 0.37692 0.72768
 N957 N 0.10450 0.38929 0.73725
 C958 C 0.10882 0.41053 0.73039
 N959 N 0.09653 0.41891 0.71354
 N960 N 0.08040 0.40655 0.70398
 C961 C 0.12573 0.42475 0.74152
 C962 C 0.13662 0.41771 0.76051
 H963 H 0.05539 0.35477 0.70709
 H964 H 0.12818 0.44166 0.73556
 H965 H 0.04664 0.39649 0.67804
 H966 H 0.13282 0.40117 0.76688
 C967 C 0.04435 0.62075 0.31652
 C968 C 0.06003 0.62778 0.30080
 C969 C 0.07595 0.61218 0.29015
 N970 N 0.09306 0.62027 0.27740
 N971 N 0.10739 0.60635 0.26735
 C972 C 0.10504 0.58381 0.26956
 N973 N 0.08785 0.57571 0.28222
 N974 N 0.07360 0.58963 0.29238
 C975 C 0.12044 0.56824 0.25819
 C976 C 0.14057 0.57553 0.24816
 H977 H 0.06079 0.64530 0.29621
 H978 H 0.11610 0.55059 0.25828
 H979 H 0.04429 0.60344 0.32188
 H980 H 0.14574 0.59288 0.24995
 C981 C 0.96170 0.38836 0.31767
 C982 C 0.95063 0.38248 0.29843
 C983 C 0.93479 0.39750 0.28703
 N984 N 0.92590 0.39108 0.26766
 N985 N 0.91178 0.40450 0.25679
 C986 C 0.90596 0.42486 0.26490
 N987 N 0.91473 0.43126 0.28437
 N988 N 0.92893 0.41783 0.29524
 C989 C 0.89057 0.43985 0.25280
 C990 C 0.88337 0.43462 0.23177
 H991 H 0.95406 0.36636 0.29106
 H992 H 0.88560 0.45548 0.26032
 H993 H 0.95856 0.40452 0.32507
 H994 H 0.88991 0.41954 0.22420
 C995 C 0.95096 0.61135 0.68235
 C996 C 0.93630 0.61866 0.69874
 C997 C 0.92080 0.60314 0.71019
 N998 N 0.90407 0.61125 0.72332
 N999 N 0.89033 0.59733 0.73421
 C1000 C 0.89293 0.57478 0.73249
 N1001 N 0.90974 0.56668 0.71946
 N1002 N 0.92337 0.58060 0.70845
 C1003 C 0.87841 0.55919 0.74492
 C1004 C 0.85823 0.56606 0.75501
 H1005 H 0.93624 0.63616 0.70340
 H1006 H 0.88346 0.54176 0.74563
 H1007 H 0.95010 0.59411 0.67690
 H1008 H 0.85213 0.58298 0.75236
 C1009 C 0.69486 0.63406 0.95414
 C1010 C 0.69045 0.61320 0.94475
 C1011 C 0.70472 0.60401 0.92721
 N1012 N 0.69943 0.58383 0.91840
 N1013 N 0.71231 0.57516 0.90263
 C1014 C 0.73097 0.58639 0.89509
 N1015 N 0.73626 0.60658 0.90388
 N1016 N 0.72336 0.61526 0.91964
 C1017 C 0.74576 0.57682 0.87813
 C1018 C 0.74094 0.55628 0.86827
 H1019 H 0.67607 0.60320 0.95034
 H1020 H 0.76076 0.58632 0.87342
 H1021 H 0.70916 0.64400 0.94829
 H1022 H 0.72496 0.54788 0.87213
 C1023 C 0.28863 0.35668 0.96544
 C1024 C 0.29545 0.37559 0.95363
 C1025 C 0.28010 0.38729 0.93847
 N1026 N 0.28875 0.40303 0.92477
 N1027 N 0.27506 0.41422 0.91128
 C1028 C 0.25215 0.41021 0.91113
 N1029 N 0.24346 0.39458 0.92494
 N1030 N 0.25719 0.38327 0.93832
 C1031 C 0.23679 0.42265 0.89651
 C1032 C 0.24510 0.43497 0.87888
 H1033 H 0.31267 0.38214 0.95547
 H1034 H 0.21850 0.42116 0.89908
 H1035 H 0.27183 0.34950 0.96259
 H1036 H 0.26324 0.43451 0.87516
 C1037 C 0.29866 0.63385 0.03981
 C1038 C 0.30607 0.61653 0.05335
 C1039 C 0.29169 0.60756 0.07100
 N1040 N 0.29964 0.59070 0.08373
 N1041 N 0.28680 0.58239 0.09976
 C1042 C 0.26553 0.59066 0.10367
 N1043 N 0.25759 0.60752 0.09094
 N1044 N 0.27043 0.61583 0.07491
 C1045 C 0.25096 0.58149 0.12107
 C1046 C 0.25825 0.56415 0.13465
 H1047 H 0.32294 0.60934 0.05112
 H1048 H 0.23419 0.58882 0.12314
 H1049 H 0.28175 0.64089 0.04221
 H1050 H 0.27566 0.55810 0.13304
 C1051 C 0.69890 0.37005 0.03919
 C1052 C 0.71978 0.36608 0.04950
 C1053 C 0.73090 0.38332 0.06297
 N1054 N 0.74716 0.37741 0.07764
 N1055 N 0.75723 0.39288 0.09001
 C1056 C 0.75158 0.41486 0.08802
 N1057 N 0.73554 0.42081 0.07315
 N1058 N 0.72531 0.40532 0.06093
 C1059 C 0.76262 0.43210 0.10154
 C1060 C 0.77354 0.42664 0.12099
 H1061 H 0.72780 0.34976 0.04836
 H1062 H 0.76109 0.44948 0.09667
 H1063 H 0.69041 0.38597 0.04177
 H1064 H 0.77277 0.40949 0.12677
 C1065 C 0.95422 0.67751 0.61753
 C1066 C 0.94309 0.69755 0.62263
 C1067 C 0.92687 0.70860 0.60775
 N1068 N 0.91831 0.72901 0.61299
 N1069 N 0.90376 0.73943 0.59974
 C1070 C 0.89714 0.72981 0.58074
 N1071 N 0.90559 0.70932 0.57555
 N1072 N 0.92022 0.69891 0.58878
 C1073 C 0.88112 0.74128 0.56591
 C1074 C 0.87430 0.76341 0.56942
 H1075 H 0.94671 0.70585 0.63792
 H1076 H 0.87536 0.73234 0.55162
 H1077 H 0.95081 0.66951 0.60206
 H1078 H 0.88163 0.77242 0.58304
 C1079 C 0.95858 0.32167 0.38068
 C1080 C 0.94637 0.30259 0.37438
 C1081 C 0.92902 0.29192 0.38836
 N1082 N 0.91970 0.27204 0.38232
 N1083 N 0.90428 0.26186 0.39491
 C1084 C 0.89752 0.27121 0.41398
 N1085 N 0.90670 0.29120 0.41994
 N1086 N 0.92221 0.30136 0.40738
 C1087 C 0.88083 0.25988 0.42823
 C1088 C 0.87380 0.23786 0.42441
 H1089 H 0.95007 0.29469 0.35891
 H1090 H 0.87498 0.26867 0.44257
 H1091 H 0.95506 0.32924 0.39634
 H1092 H 0.88126 0.22881 0.41089
 C1093 C 0.04181 0.31708 0.61878
 C1094 C 0.05151 0.29608 0.62264
 C1095 C 0.06828 0.28588 0.60788
 N1096 N 0.07157 0.26340 0.60842
 N1097 N 0.08690 0.25380 0.59541
 C1098 C 0.09970 0.26637 0.58153
 N1099 N 0.09659 0.28891 0.58113
 N1100 N 0.08105 0.29850 0.59399
 C1101 C 0.11714 0.25592 0.56762
 C1102 C 0.11614 0.23322 0.56240
 H1103 H 0.04581 0.28614 0.63640
 H1104 H 0.13065 0.26634 0.56095
 H1105 H 0.04629 0.32615 0.60408
 H1106 H 0.10117 0.22355 0.56703
 C1107 C 0.04347 0.68406 0.38355
 C1108 C 0.05881 0.70137 0.37866
 C1109 C 0.07380 0.71155 0.39519
 N1110 N 0.09158 0.72476 0.38892
 N1111 N 0.10477 0.73483 0.40366
 C1112 C 0.10054 0.73223 0.42525
 N1113 N 0.08268 0.71911 0.43153
 N1114 N 0.06961 0.70888 0.41679
 C1115 C 0.11428 0.74416 0.44166
 C1116 C 0.13556 0.75360 0.43673
 H1117 H 0.05998 0.70774 0.36218
 H1118 H 0.10761 0.74524 0.45807
 H1119 H 0.04361 0.67675 0.39970
 H1120 H 0.14316 0.75038 0.42096
 C1121 C 0.63491 0.96053 0.69594
 C1122 C 0.61193 0.95417 0.69666
 C1123 C 0.60332 0.93683 0.71161
 N1124 N 0.58042 0.93435 0.71454
 N1125 N 0.57225 0.91879 0.72804
 C1126 C 0.58669 0.90501 0.73903
 N1127 N 0.60960 0.90734 0.73595
 N1128 N 0.61778 0.92302 0.72254
 C1129 C 0.57781 0.88775 0.75396
 C1130 C 0.55518 0.88805 0.76125
 H1131 H 0.59962 0.96270 0.68640
 H1132 H 0.58957 0.87521 0.76002
 H1133 H 0.64709 0.95289 0.70695
 H1134 H 0.54430 0.90195 0.75662
 C1135 C 0.37014 0.95553 0.30579
 C1136 C 0.36527 0.94618 0.28555
 C1137 C 0.38088 0.93027 0.27489
 N1138 N 0.37608 0.92269 0.25461
 N1139 N 0.39016 0.90846 0.24465
 C1140 C 0.40956 0.90125 0.25462
 N1141 N 0.41430 0.90874 0.27495
 N1142 N 0.40024 0.92300 0.28490
 C1143 C 0.42546 0.88579 0.24369
 C1144 C 0.42241 0.87939 0.22207
 H1145 H 0.34973 0.95088 0.27710
 H1146 H 0.44032 0.88020 0.25267
 H1147 H 0.38582 0.95105 0.31412
 H1148 H 0.40817 0.88640 0.21306
 C1149 C 0.63941 0.04551 0.29788
 C1150 C 0.62254 0.05981 0.30585
 C1151 C 0.61058 0.07552 0.29122
 N1152 N 0.59744 0.09226 0.29940
 N1153 N 0.58631 0.10619 0.28612
 C1154 C 0.58783 0.10376 0.26418
 N1155 N 0.60084 0.08695 0.25605
 N1156 N 0.61206 0.07316 0.26930
 C1157 C 0.57513 0.11833 0.24912
 C1158 C 0.56513 0.13848 0.25547
 H1159 H 0.61797 0.05940 0.32292
 H1160 H 0.57430 0.11325 0.23224
 H1161 H 0.64465 0.04698 0.28102
 H1162 H 0.56803 0.14469 0.27179
 C1163 C 0.38827 0.04765 0.67936
 C1164 C 0.38276 0.05211 0.70100
 C1165 C 0.39415 0.06994 0.71353
 N1166 N 0.39257 0.07008 0.73555
 N1167 N 0.40280 0.08607 0.74715
 C1168 C 0.41484 0.10264 0.73712
 N1169 N 0.41622 0.10264 0.71508
 N1170 N 0.40615 0.08653 0.70349
 C1171 C 0.42619 0.12046 0.74971
 C1172 C 0.43073 0.11820 0.77187
 H1173 H 0.37038 0.04160 0.70933
 H1174 H 0.43226 0.13514 0.74105
 H1175 H 0.40178 0.05710 0.67144
 H1176 H 0.42677 0.10248 0.77990
 C1177 C 0.61867 0.68419 0.04611
 C1178 C 0.62294 0.70519 0.05510
 C1179 C 0.60755 0.71548 0.07114
 N1180 N 0.61257 0.73604 0.07921
 N1181 N 0.59855 0.74591 0.09331
 C1182 C 0.57895 0.73560 0.09988
 N1183 N 0.57396 0.71498 0.09189
 N1184 N 0.58801 0.70509 0.07777
 C1185 C 0.56299 0.74668 0.11495
 C1186 C 0.56723 0.76826 0.12270
 H1187 H 0.63783 0.71468 0.04992
 H1188 H 0.54732 0.73797 0.11910
 H1189 H 0.60394 0.67455 0.05140
 H1190 H 0.58272 0.77674 0.11745
 C1191 C 0.36559 0.30436 0.05579
 C1192 C 0.36380 0.28236 0.06319
 C1193 C 0.37882 0.27383 0.08052
 N1194 N 0.38195 0.25145 0.08305
 N1195 N 0.39574 0.24363 0.09857
 C1196 C 0.40672 0.25793 0.11225
 N1197 N 0.40334 0.28028 0.10990
 N1198 N 0.38975 0.28809 0.09426
 C1199 C 0.42180 0.24963 0.12961
 C1200 C 0.43112 0.22815 0.12922
 H1201 H 0.35191 0.27091 0.05546
 H1202 H 0.42655 0.26113 0.14246
 H1203 H 0.37879 0.31519 0.06238
 H1204 H 0.42830 0.21765 0.11511
 C1205 C 0.63708 0.28507 0.96261
 C1206 C 0.61898 0.29191 0.94940
 C1207 C 0.60680 0.27651 0.93474
 N1208 N 0.59279 0.28490 0.91915
 N1209 N 0.58132 0.27124 0.90592
 C1210 C 0.58329 0.24866 0.90791
 N1211 N 0.59718 0.24025 0.92362
 N1212 N 0.60881 0.25392 0.93674
 C1213 C 0.57026 0.23340 0.89375
 C1214 C 0.55995 0.24080 0.87458
 H1215 H 0.61389 0.30936 0.94934
 H1216 H 0.56937 0.21586 0.89820
 H1217 H 0.64326 0.26800 0.96171
 H1218 H 0.56294 0.25785 0.86916
 C1219 C 0.37513 0.68582 0.94875
 C1220 C 0.37211 0.70778 0.94166
 C1221 C 0.38777 0.71828 0.92593
 N1222 N 0.38853 0.74092 0.92407
 N1223 N 0.40282 0.75068 0.91004
 C1224 C 0.41676 0.73813 0.89724
 N1225 N 0.41581 0.71548 0.89892
 N1226 N 0.40166 0.70572 0.91309
 C1227 C 0.43225 0.74868 0.88139
 C1228 C 0.43825 0.77125 0.88275
 H1229 H 0.35873 0.71798 0.94877
 H1230 H 0.43958 0.73827 0.86877
 H1231 H 0.38960 0.67619 0.94294
 H1232 H 0.43284 0.78086 0.89678
 C1233 C 0.69860 0.94657 0.36125
 C1234 C 0.69383 0.93982 0.38251
 C1235 C 0.70764 0.92237 0.39332
 N1236 N 0.70347 0.91664 0.41435
 N1237 N 0.71640 0.90137 0.42436
 C1238 C 0.73396 0.89126 0.41368
 N1239 N 0.73802 0.89692 0.39266
 N1240 N 0.72513 0.91215 0.38268
 C1241 C 0.74909 0.87499 0.42449
 C1242 C 0.74602 0.86804 0.44600
 H1243 H 0.68029 0.94794 0.39159
 H1244 H 0.76315 0.86836 0.41502
 H1245 H 0.71229 0.93844 0.35237
 H1246 H 0.73089 0.87346 0.45474
 C1247 C 0.32874 0.95050 0.61326
 C1248 C 0.30545 0.94586 0.61575
 C1249 C 0.29351 0.92833 0.60329
 N1250 N 0.27027 0.92784 0.60301
 N1251 N 0.25910 0.91200 0.59202
 C1252 C 0.27076 0.89593 0.58102
 N1253 N 0.29401 0.89631 0.58144
 N1254 N 0.30520 0.91226 0.59230
 C1255 C 0.25859 0.87812 0.56912
 C1256 C 0.23537 0.87977 0.56394
 H1257 H 0.29531 0.95598 0.62675
 H1258 H 0.26836 0.86382 0.56357
 H1259 H 0.33870 0.94146 0.60128
 H1260 H 0.22635 0.89516 0.56761
 C1261 C 0.28913 0.04165 0.36476
 C1262 C 0.29680 0.05451 0.38223
 C1263 C 0.28158 0.06938 0.39462
 N1264 N 0.29066 0.08428 0.40887
 N1265 N 0.27714 0.09756 0.42060
 C1266 C 0.25400 0.09630 0.41863
 N1267 N 0.24490 0.08129 0.40447
 N1268 N 0.25844 0.06812 0.39263
 C1269 C 0.23885 0.11055 0.43179
 C1270 C 0.24704 0.12921 0.44302
 H1271 H 0.31467 0.05382 0.38693
 H1272 H 0.22071 0.10673 0.43194
 H1273 H 0.27161 0.04321 0.35918
 H1274 H 0.26478 0.13418 0.44100
 C1275 C 0.67921 0.05482 0.61636
 C1276 C 0.70032 0.06535 0.61929
 C1277 C 0.70961 0.08188 0.60384
 N1278 N 0.73010 0.09172 0.60801
 N1279 N 0.73917 0.10629 0.59402
 C1280 C 0.72813 0.11160 0.57527
 N1281 N 0.70758 0.10181 0.57111
 N1282 N 0.69847 0.08723 0.58514
 C1283 C 0.73846 0.12716 0.55938
 C1284 C 0.75985 0.13696 0.56311
 H1285 H 0.71066 0.06114 0.63333
 H1286 H 0.72944 0.13005 0.54429
 H1287 H 0.66860 0.05923 0.60257
 H1288 H 0.76855 0.13306 0.57821
 C1289 C 0.95349 0.63882 0.30038
 C1290 C 0.94594 0.61664 0.30092
 C1291 C 0.93012 0.60738 0.28459
 N1292 N 0.92852 0.58485 0.28199
 N1293 N 0.91427 0.57612 0.26735
 C1294 C 0.90090 0.58959 0.25488
 N1295 N 0.90231 0.61212 0.25763
 N1296 N 0.91675 0.62087 0.27213
 C1297 C 0.88471 0.58004 0.23901
 C1298 C 0.88713 0.55823 0.23118
 H1299 H 0.95281 0.60532 0.31305
 H1300 H 0.87108 0.59059 0.23292
 H1301 H 0.94815 0.64973 0.28724
 H1302 H 0.90225 0.54877 0.23563
 C1303 C 0.94963 0.36686 0.69684
 C1304 C 0.93649 0.38569 0.69199
 C1305 C 0.91945 0.39459 0.70739
 N1306 N 0.90718 0.41313 0.70221
 N1307 N 0.89194 0.42149 0.71615
 C1308 C 0.88839 0.41159 0.73579
 N1309 N 0.90063 0.39303 0.74094
 N1310 N 0.91585 0.38467 0.72701
 C1311 C 0.87212 0.42085 0.75170
 C1312 C 0.85903 0.43991 0.74743
 H1313 H 0.93885 0.39426 0.67660
 H1314 H 0.87057 0.41227 0.76713
 H1315 H 0.94719 0.35828 0.71222
 H1316 H 0.85978 0.44730 0.73133
 C1317 C 0.04328 0.62233 0.69563
 C1318 C 0.05101 0.60036 0.69346
 C1319 C 0.06736 0.59055 0.70900
 N1320 N 0.07035 0.56801 0.70986
 N1321 N 0.08503 0.55898 0.72396
 C1322 C 0.09738 0.57221 0.73761
 N1323 N 0.09455 0.59474 0.73659
 N1324 N 0.07975 0.60374 0.72262
 C1325 C 0.11401 0.56266 0.75300
 C1326 C 0.11428 0.53996 0.75844
 H1327 H 0.04423 0.58985 0.68063
 H1328 H 0.12580 0.57407 0.76088
 H1329 H 0.04886 0.63226 0.70938
 H1330 H 0.10092 0.52907 0.75224
 C1331 C 0.05532 0.37355 0.30871
 C1332 C 0.06813 0.39228 0.31473
 C1333 C 0.08623 0.40149 0.30059
 N1334 N 0.09719 0.42073 0.30614
 N1335 N 0.11332 0.42940 0.29324
 C1336 C 0.11911 0.41907 0.27434
 N1337 N 0.10824 0.39977 0.26888
 N1338 N 0.09211 0.39115 0.28174
 C1339 C 0.13625 0.42865 0.25942
 C1340 C 0.14713 0.44912 0.26327
 H1341 H 0.06460 0.40062 0.33000
 H1342 H 0.13997 0.41926 0.24482
 H1343 H 0.05868 0.36542 0.29329
 H1344 H 0.14428 0.45749 0.27866
   
