data_POSCAR
  _audit_creation_date              2014-09-24
  _audit_creation_method            'ToBaCCo'
  _symmetry_space_group_name_H-M    'P1'
  _symmetry_Int_Tables_number       1
  _symmetry_cell_setting            triclinic
  loop_
  _symmetry_equiv_pos_as_xyz
 x,y,z
_cell_length_a 67.7504
_cell_length_b 67.7605
_cell_length_c 67.7571
_cell_angle_alpha 89.996500
_cell_angle_beta 89.988200
_cell_angle_gamma 89.981100
loop_
  _atom_site_label
  _atom_site_type_symbol
  _atom_site_fract_x
  _atom_site_fract_y
  _atom_site_fract_z
C1 C 0.20520 0.19582 0.22447
 C2 C 0.18921 0.19913 0.23720
 C3 C 0.17645 0.21508 0.23399
 C4 C 0.17956 0.22785 0.21803
 C5 C 0.19548 0.22477 0.20515
 C6 C 0.20838 0.20869 0.20836
 C7 C 0.21807 0.17989 0.22754
 C8 C 0.23399 0.17674 0.21472
 C9 C 0.23718 0.18947 0.19874
 C10 C 0.22445 0.20547 0.19545
 C11 C 0.22750 0.21831 0.17950
 C12 C 0.21469 0.23424 0.17636
 C13 C 0.19875 0.23746 0.18913
 H14 H 0.18666 0.18932 0.24960
 H15 H 0.16960 0.24016 0.21568
 H16 H 0.21573 0.16995 0.23986
 H17 H 0.24955 0.18689 0.18891
 H18 H 0.23980 0.21595 0.16953
 H19 H 0.18892 0.24984 0.18656
 C20 C 0.70522 0.69545 0.72419
 C21 C 0.68921 0.69869 0.73692
 C22 C 0.67640 0.71461 0.73372
 C23 C 0.67949 0.72741 0.71778
 C24 C 0.69543 0.72439 0.70490
 C25 C 0.70837 0.70834 0.70810
 C26 C 0.71814 0.67956 0.72725
 C27 C 0.73408 0.67647 0.71445
 C28 C 0.73724 0.68922 0.69849
 C29 C 0.72447 0.70519 0.69521
 C30 C 0.72748 0.71806 0.67927
 C31 C 0.71463 0.73395 0.67614
 C32 C 0.69867 0.73711 0.68890
 H33 H 0.68669 0.68887 0.74930
 H34 H 0.66949 0.73969 0.71543
 H35 H 0.71583 0.66960 0.73957
 H36 H 0.74963 0.68670 0.68866
 H37 H 0.73980 0.71575 0.66931
 H38 H 0.68881 0.74946 0.68634
 C39 C 0.29404 0.80455 0.72487
 C40 C 0.31003 0.80125 0.73761
 C41 C 0.32277 0.78527 0.73443
 C42 C 0.31964 0.77247 0.71851
 C43 C 0.30372 0.77555 0.70562
 C44 C 0.29085 0.79166 0.70879
 C45 C 0.28119 0.82051 0.72792
 C46 C 0.26527 0.82367 0.71509
 C47 C 0.26208 0.81090 0.69913
 C48 C 0.27479 0.79487 0.69588
 C49 C 0.27173 0.78200 0.67995
 C50 C 0.28452 0.76605 0.67684
 C51 C 0.30045 0.76283 0.68962
 H52 H 0.31259 0.81107 0.74999
 H53 H 0.32959 0.76015 0.71617
 H54 H 0.28359 0.83045 0.74024
 H55 H 0.24972 0.81343 0.68925
 H56 H 0.25944 0.78437 0.66997
 H57 H 0.31027 0.75044 0.68708
 C58 C 0.79513 0.30437 0.22458
 C59 C 0.81110 0.30114 0.23735
 C60 C 0.82390 0.28517 0.23423
 C61 C 0.82081 0.27233 0.21831
 C62 C 0.80490 0.27535 0.20540
 C63 C 0.79199 0.29144 0.20852
 C64 C 0.78223 0.32029 0.22757
 C65 C 0.76633 0.32338 0.21472
 C66 C 0.76318 0.31059 0.19880
 C67 C 0.77593 0.29459 0.19559
 C68 C 0.77292 0.28168 0.17968
 C69 C 0.78575 0.26575 0.17662
 C70 C 0.80167 0.26259 0.18942
 H71 H 0.81357 0.31102 0.24971
 H72 H 0.83077 0.26000 0.21597
 H73 H 0.78453 0.33029 0.23986
 H74 H 0.75082 0.31311 0.18894
 H75 H 0.76063 0.28399 0.16969
 H76 H 0.81151 0.25021 0.18691
 C77 C 0.79526 0.69581 0.27497
 C78 C 0.81127 0.69903 0.26224
 C79 C 0.82406 0.71498 0.26539
 C80 C 0.82092 0.72783 0.28129
 C81 C 0.80498 0.72483 0.29416
 C82 C 0.79207 0.70875 0.29101
 C83 C 0.78237 0.67989 0.27195
 C84 C 0.76643 0.67682 0.28476
 C85 C 0.76323 0.68963 0.30067
 C86 C 0.77597 0.70562 0.30391
 C87 C 0.77291 0.71854 0.31979
 C88 C 0.78573 0.73446 0.32289
 C89 C 0.80170 0.73760 0.31013
 H90 H 0.81378 0.68913 0.24990
 H91 H 0.83087 0.74016 0.28365
 H92 H 0.78471 0.66989 0.25967
 H93 H 0.75084 0.68712 0.31050
 H94 H 0.76060 0.71624 0.32976
 H95 H 0.81153 0.74997 0.31266
 C96 C 0.29526 0.19599 -0.22487
 C97 C 0.31129 0.19922 -0.23757
 C98 C 0.32403 0.21521 -0.23441
 C99 C 0.32082 0.22809 -0.21854
 C100 C 0.30485 0.22506 -0.20571
 C101 C 0.29200 0.20895 -0.20886
 C102 C 0.28242 0.18003 -0.22789
 C103 C 0.26645 0.17694 -0.21511
 C104 C 0.26319 0.18977 -0.19923
 C105 C 0.27588 0.20580 -0.19600
 C106 C 0.27275 0.21873 -0.18014
 C107 C 0.28552 0.23469 -0.17704
 C108 C 0.30150 0.23785 -0.18977
 H109 H 0.31386 0.18930 -0.24988
 H110 H 0.33074 0.24044 -0.21618
 H111 H 0.28481 0.17001 -0.24014
 H112 H 0.25078 0.18724 -0.18943
 H113 H 0.26042 0.21642 -0.17019
 H114 H 0.31130 0.25026 -0.18724
 C115 C 0.70503 0.30406 -0.22468
 C116 C 0.68902 0.30081 -0.23740
 C117 C 0.67626 0.28484 -0.23423
 C118 C 0.67941 0.27200 -0.21831
 C119 C 0.69535 0.27505 -0.20545
 C120 C 0.70823 0.29114 -0.20862
 C121 C 0.71789 0.32000 -0.22771
 C122 C 0.73383 0.32310 -0.21491
 C123 C 0.73704 0.31032 -0.19899
 C124 C 0.72432 0.29431 -0.19573
 C125 C 0.72740 0.28141 -0.17983
 C126 C 0.71461 0.26547 -0.17672
 C127 C 0.69865 0.26229 -0.18947
 H128 H 0.68650 0.31069 -0.24975
 H129 H 0.66948 0.25967 -0.21594
 H130 H 0.71554 0.32999 -0.24000
 H131 H 0.74942 0.31285 -0.18917
 H132 H 0.73971 0.28374 -0.16987
 H133 H 0.68883 0.24991 -0.18693
 C134 C 0.20552 0.80467 0.27499
 C135 C 0.18955 0.80139 0.26223
 C136 C 0.17680 0.78542 0.26539
 C137 C 0.17992 0.77260 0.28131
 C138 C 0.19582 0.77566 0.29421
 C139 C 0.20870 0.79176 0.29106
 C140 C 0.21837 0.82062 0.27197
 C141 C 0.23429 0.82376 0.28481
 C142 C 0.23746 0.81097 0.30077
 C143 C 0.22475 0.79496 0.30399
 C144 C 0.22778 0.78207 0.31991
 C145 C 0.21499 0.76613 0.32300
 C146 C 0.19907 0.76293 0.31021
 H147 H 0.18700 0.81122 0.24986
 H148 H 0.16996 0.76028 0.28362
 H149 H 0.21599 0.83057 0.25965
 H150 H 0.24981 0.81348 0.31065
 H151 H 0.24007 0.78441 0.32991
 H152 H 0.18926 0.75054 0.31273
 C153 C 0.44589 0.45532 0.47485
 C154 C 0.44916 0.43931 0.48757
 C155 C 0.46510 0.42654 0.48437
 C156 C 0.47791 0.42966 0.46844
 C157 C 0.47486 0.44559 0.45557
 C158 C 0.45878 0.45850 0.45877
 C159 C 0.42996 0.46820 0.47791
 C160 C 0.42684 0.48413 0.46511
 C161 C 0.43960 0.48732 0.44915
 C162 C 0.45560 0.47458 0.44587
 C163 C 0.46847 0.47763 0.42994
 C164 C 0.48439 0.46481 0.42681
 C165 C 0.48759 0.44886 0.43957
 H166 H 0.43933 0.43676 0.49995
 H167 H 0.49021 0.41968 0.46609
 H168 H 0.41999 0.46586 0.49022
 H169 H 0.43705 0.49970 0.43933
 H170 H 0.46613 0.48994 0.41998
 H171 H 0.49996 0.43902 0.43701
 C172 C -0.05456 -0.04465 0.97455
 C173 C -0.05136 -0.06071 0.98722
 C174 C -0.03542 -0.07350 0.98403
 C175 C -0.02256 -0.07034 0.96815
 C176 C -0.02554 -0.05436 0.95533
 C177 C -0.04160 -0.04144 0.95852
 C178 C -0.07047 -0.03176 0.97761
 C179 C -0.07353 -0.01576 0.96485
 C180 C -0.06070 -0.01254 0.94894
 C181 C -0.04471 -0.02530 0.94567
 C182 C -0.03178 -0.02222 0.92979
 C183 C -0.01587 -0.03506 0.92667
 C184 C -0.01275 -0.05106 0.93938
 H185 H -0.06123 -0.06329 0.99956
 H186 H -0.01026 -0.08033 0.96581
 H187 H -0.08046 -0.03417 0.98990
 H188 H -0.06315 -0.00013 0.93911
 H189 H -0.03407 -0.00988 0.91986
 H190 H -0.00039 -0.06091 0.93683
 C191 C 1.05431 0.54459 0.97518
 C192 C 1.05103 0.56059 0.98790
 C193 C 1.03505 0.57335 0.98472
 C194 C 1.02223 0.57020 0.96879
 C195 C 1.02531 0.55427 0.95593
 C196 C 1.04141 0.54139 0.95911
 C197 C 1.07027 0.53174 0.97822
 C198 C 1.07342 0.51580 0.96541
 C199 C 1.06063 0.51260 0.94947
 C200 C 1.04461 0.52531 0.94621
 C201 C 1.03174 0.52224 0.93030
 C202 C 1.01579 0.53503 0.92718
 C203 C 1.01258 0.55098 0.93993
 H204 H 1.06090 0.56312 1.00026
 H205 H 1.00989 0.58012 0.96641
 H206 H 1.08022 0.53414 0.99054
 H207 H 1.06315 0.50023 0.93960
 H208 H 1.03409 0.50994 0.92033
 H209 H 1.00019 0.56079 0.93738
 C210 C 0.55442 0.04410 0.47503
 C211 C 0.55119 0.06008 0.48780
 C212 C 0.53520 0.07283 0.48470
 C213 C 0.52233 0.06971 0.46883
 C214 C 0.52534 0.05381 0.45592
 C215 C 0.54146 0.04093 0.45901
 C216 C 0.57039 0.03125 0.47798
 C217 C 0.57349 0.01534 0.46512
 C218 C 0.56064 0.01216 0.44922
 C219 C 0.54461 0.02488 0.44606
 C220 C 0.53166 0.02185 0.43019
 C221 C 0.51570 0.03465 0.42717
 C222 C 0.51254 0.05056 0.43997
 H223 H 0.56107 0.06262 0.50013
 H224 H 0.51000 0.07967 0.46657
 H225 H 0.58039 0.03362 0.49026
 H226 H 0.56312 -0.00018 0.43932
 H227 H 0.53398 0.00957 0.42018
 H228 H 0.50014 0.06039 0.43750
 C229 C -0.05438 0.04503 0.52559
 C230 C -0.05114 0.06104 0.51287
 C231 C -0.03519 0.07380 0.51605
 C232 C -0.02235 0.07067 0.53195
 C233 C -0.02537 0.05473 0.54481
 C234 C -0.04145 0.04183 0.54165
 C235 C -0.07030 0.03216 0.52256
 C236 C -0.07340 0.01622 0.53536
 C237 C -0.06061 0.01301 0.55128
 C238 C -0.04461 0.02574 0.55454
 C239 C -0.03170 0.02268 0.57043
 C240 C -0.01578 0.03549 0.57354
 C241 C -0.01261 0.05145 0.56079
 H242 H -0.06099 0.06360 0.50052
 H243 H -0.01005 0.08064 0.53427
 H244 H -0.08029 0.03450 0.51028
 H245 H -0.06313 0.00063 0.56111
 H246 H -0.03402 0.01036 0.58040
 H247 H -0.00024 0.06128 0.56332
 C248 C 0.44554 0.54518 0.02522
 C249 C 0.44884 0.56116 0.01247
 C250 C 0.46483 0.57390 0.01564
 C251 C 0.47764 0.57075 0.03157
 C252 C 0.47456 0.55483 0.04446
 C253 C 0.45844 0.54198 0.04129
 C254 C 0.42959 0.53234 0.02219
 C255 C 0.42644 0.51643 0.03501
 C256 C 0.43920 0.51322 0.05096
 C257 C 0.45523 0.52591 0.05421
 C258 C 0.46811 0.52284 0.07012
 C259 C 0.48407 0.53560 0.07323
 C260 C 0.48729 0.55154 0.06045
 H261 H 0.43897 0.56368 0.00011
 H262 H 0.49000 0.58066 0.03394
 H263 H 0.41962 0.53470 0.00989
 H264 H 0.43663 0.50086 0.06079
 H265 H 0.46575 0.51054 0.08010
 H266 H 0.49969 0.56133 0.06299
 C267 C 0.55459 -0.04507 0.02579
 C268 C 0.55130 -0.06104 0.01305
 C269 C 0.53533 -0.07378 0.01622
 C270 C 0.52252 -0.07066 0.03215
 C271 C 0.52559 -0.05476 0.04504
 C272 C 0.54169 -0.04188 0.04188
 C273 C 0.57053 -0.03222 0.02276
 C274 C 0.57367 -0.01631 0.03559
 C275 C 0.56090 -0.01312 0.05154
 C276 C 0.54489 -0.02582 0.05479
 C277 C 0.53201 -0.02277 0.07072
 C278 C 0.51606 -0.03555 0.07382
 C279 C 0.51285 -0.05148 0.06104
 H280 H 0.56113 -0.06359 0.00067
 H281 H 0.51020 -0.08061 0.03447
 H282 H 0.58050 -0.03455 0.01045
 H283 H 0.56346 -0.00075 0.06138
 H284 H 0.53435 -0.01048 0.08070
 H285 H 0.50046 -0.06129 0.06357
 C286 C 1.05418 0.45508 0.52493
 C287 C 1.05087 0.43914 0.51215
 C288 C 1.03492 0.42635 0.51535
 C289 C 1.02218 0.42942 0.53136
 C290 C 1.02528 0.44529 0.54428
 C291 C 1.04135 0.45820 0.54108
 C292 C 1.07009 0.46797 0.52187
 C293 C 1.07326 0.48384 0.53473
 C294 C 1.06056 0.48697 0.55074
 C295 C 1.04458 0.47423 0.55403
 C296 C 1.03177 0.47721 0.57002
 C297 C 1.01585 0.46440 0.57316
 C298 C 1.01262 0.44850 0.56035
 H299 H 1.06068 0.43668 0.49973
 H300 H 1.00986 0.41946 0.53376
 H301 H 1.08001 0.46568 0.50951
 H302 H 1.06315 0.49930 0.56061
 H303 H 1.03414 0.48948 0.58003
 H304 H 1.00025 0.43866 0.56291
 C305 C 0.40494 0.00894 0.22385
 H306 H 0.40572 0.02232 0.23253
 C307 C 0.41787 0.00615 0.20804
 H308 H 0.42861 0.01743 0.20444
 C309 C 0.39020 -0.02228 0.21808
 H310 H 0.37963 -0.03346 0.22221
 C311 C 0.40286 -0.02566 0.20215
 H312 H 0.40186 -0.03935 0.19395
 N313 N 0.39131 -0.00509 0.22842
 C314 C 0.34451 0.02637 0.25955
 H315 H 0.34367 0.01771 0.27294
 C316 C 0.33166 0.04224 0.25674
 H317 H 0.32092 0.04589 0.26801
 C318 C 0.35931 0.03205 0.22833
 H319 H 0.36988 0.02786 0.21716
 C320 C 0.34673 0.04803 0.22493
 H321 H 0.34779 0.05621 0.21123
 Zn322 Zn 0.37467 -0.00029 0.25036
 N323 N 0.35814 0.02173 0.24554
 C324 C 0.39009 0.02166 0.28271
 N325 N 0.39120 0.00446 0.27238
 C326 C 0.40477 -0.00962 0.27702
 C327 C 0.41763 -0.00686 0.29289
 C328 C 0.40268 0.02500 0.29869
 C329 C 0.34448 -0.02682 0.24100
 C330 C 0.33157 -0.04265 0.24373
 C331 C 0.34645 -0.04852 0.27561
 C332 C 0.35910 -0.03258 0.27228
 N333 N 0.35804 -0.02224 0.25508
 H334 H 0.37958 0.03288 0.27852
 H335 H 0.40555 -0.02301 0.26835
 H336 H 0.42832 -0.01818 0.29653
 H337 H 0.40169 0.03870 0.30687
 H338 H 0.34374 -0.01814 0.22761
 H339 H 0.32089 -0.04626 0.23240
 H340 H 0.34741 -0.05673 0.28930
 H341 H 0.36961 -0.02844 0.28351
 C342 C 0.33282 0.05318 0.23928
 C343 C 0.41677 -0.01130 0.19707
 C344 C 0.33262 -0.05362 0.26117
 C345 C 0.41653 0.01059 0.30384
 C346 C 0.09526 -0.00913 0.72354
 H347 H 0.09447 -0.02252 0.73221
 C348 C 0.08236 -0.00633 0.70771
 H349 H 0.07162 -0.01761 0.70410
 C350 C 0.11002 0.02209 0.71780
 H351 H 0.12058 0.03327 0.72195
 C352 C 0.09739 0.02548 0.70186
 H353 H 0.09840 0.03917 0.69367
 N354 N 0.10889 0.00489 0.72813
 C355 C 0.15561 -0.02659 0.75935
 H356 H 0.15641 -0.01793 0.77273
 C357 C 0.16845 -0.04248 0.75656
 H358 H 0.17916 -0.04614 0.76786
 C359 C 0.14087 -0.03227 0.72810
 H360 H 0.13033 -0.02807 0.71691
 C361 C 0.15344 -0.04826 0.72473
 H362 H 0.15241 -0.05645 0.71103
 Zn363 Zn 0.12548 0.00008 0.75009
 N364 N 0.14201 -0.02195 0.74530
 C365 C 0.10997 -0.02187 0.78241
 N366 N 0.10890 -0.00466 0.77209
 C367 C 0.09533 0.00942 0.77671
 C368 C 0.08244 0.00666 0.79255
 C369 C 0.09734 -0.02522 0.79836
 C370 C 0.15570 0.02660 0.74078
 C371 C 0.16860 0.04243 0.74353
 C372 C 0.15366 0.04830 0.77540
 C373 C 0.14103 0.03236 0.77205
 N374 N 0.14211 0.02202 0.75485
 H375 H 0.12049 -0.03309 0.77824
 H376 H 0.09458 0.02281 0.76805
 H377 H 0.07174 0.01799 0.79618
 H378 H 0.09831 -0.03892 0.80654
 H379 H 0.15645 0.01793 0.72739
 H380 H 0.17931 0.04605 0.73222
 H381 H 0.15268 0.05649 0.78909
 H382 H 0.13049 0.02821 0.78326
 C383 C 0.16731 -0.05343 0.73911
 C384 C 0.08348 0.01112 0.69675
 C385 C 0.16753 0.05340 0.76098
 C386 C 0.08349 -0.01080 0.80349
 C387 C 0.59501 0.49093 0.22330
 H388 H 0.59424 0.47753 0.23195
 C389 C 0.58211 0.49373 0.20747
 H390 H 0.57139 0.48244 0.20384
 C391 C 0.60971 0.52219 0.21760
 H392 H 0.62025 0.53338 0.22176
 C393 C 0.59707 0.52558 0.20166
 H394 H 0.59806 0.53928 0.19349
 N395 N 0.60861 0.50497 0.22790
 C396 C 0.65541 0.47356 0.25907
 H397 H 0.65620 0.48221 0.27246
 C398 C 0.66829 0.45771 0.25626
 H399 H 0.67901 0.45407 0.26755
 C400 C 0.64066 0.46787 0.22783
 H401 H 0.63011 0.47205 0.21665
 C402 C 0.65328 0.45191 0.22444
 H403 H 0.65226 0.44373 0.21073
 Zn404 Zn 0.62522 0.50017 0.24986
 N405 N 0.64179 0.47818 0.24504
 C406 C 0.60979 0.47817 0.28217
 N407 N 0.60867 0.49538 0.27187
 C408 C 0.59510 0.50944 0.27652
 C409 C 0.58223 0.50666 0.29238
 C410 C 0.59719 0.47479 0.29814
 C411 C 0.65540 0.52673 0.24054
 C412 C 0.66830 0.54257 0.24330
 C413 C 0.65339 0.54840 0.27517
 C414 C 0.64075 0.53246 0.27183
 N415 N 0.64182 0.52213 0.25462
 H416 H 0.62031 0.46696 0.27796
 H417 H 0.59431 0.52285 0.26787
 H418 H 0.57153 0.51796 0.29605
 H419 H 0.59819 0.46108 0.30630
 H420 H 0.65615 0.51807 0.22715
 H421 H 0.67899 0.54619 0.23197
 H422 H 0.65241 0.55658 0.28887
 H423 H 0.63023 0.52829 0.28305
 C424 C 0.66717 0.44677 0.23881
 C425 C 0.58319 0.51120 0.19654
 C426 C 0.66724 0.55351 0.26075
 C427 C 0.58333 0.48919 0.30331
 C428 C 0.90534 0.50889 0.72362
 H429 H 0.90613 0.52229 0.73226
 C430 C 0.91823 0.50606 0.70778
 H431 H 0.92896 0.51733 0.70413
 C432 C 0.89058 0.47765 0.71794
 H433 H 0.88002 0.46648 0.72211
 C434 C 0.90321 0.47423 0.70200
 H435 H 0.90219 0.46053 0.69383
 N436 N 0.89171 0.49487 0.72823
 C437 C 0.84494 0.52640 0.75934
 H438 H 0.84412 0.51777 0.77275
 C439 C 0.83209 0.54226 0.75651
 H440 H 0.82135 0.54594 0.76778
 C441 C 0.85972 0.53203 0.72810
 H442 H 0.87028 0.52782 0.71693
 C443 C 0.84713 0.54800 0.72468
 H444 H 0.84817 0.55615 0.71096
 Zn445 Zn 0.87509 0.49973 0.75018
 N446 N 0.85856 0.52174 0.74533
 C447 C 0.89054 0.52173 0.78247
 N448 N 0.89163 0.50450 0.77219
 C449 C 0.90517 0.49042 0.77686
 C450 C 0.91803 0.49320 0.79273
 C451 C 0.90312 0.52510 0.79844
 C452 C 0.84487 0.47321 0.74087
 C453 C 0.83195 0.45740 0.74363
 C454 C 0.84683 0.45156 0.77552
 C455 C 0.85949 0.46748 0.77217
 N456 N 0.85844 0.47779 0.75495
 H457 H 0.88004 0.53295 0.77825
 H458 H 0.90594 0.47701 0.76824
 H459 H 0.92870 0.48188 0.79642
 H460 H 0.90214 0.53882 0.80659
 H461 H 0.84415 0.48186 0.72747
 H462 H 0.82126 0.45378 0.73231
 H463 H 0.84778 0.44338 0.78922
 H464 H 0.87001 0.47163 0.78339
 C465 C 0.83324 0.55318 0.73903
 C466 C 0.91711 0.48859 0.69685
 C467 C 0.83298 0.44645 0.76109
 C468 C 0.91695 0.51068 0.80364
 C469 C 0.22297 0.40566 0.00915
 H470 H 0.23165 0.40640 0.02253
 C471 C 0.20710 0.41854 0.00644
 H472 H 0.20347 0.42920 0.01779
 C473 C 0.21723 0.39107 -0.02215
 H474 H 0.22140 0.38058 -0.03340
 C475 C 0.20125 0.40368 -0.02545
 H476 H 0.19305 0.40273 -0.03914
 N477 N 0.22758 0.39212 -0.00496
 C478 C 0.25893 0.34530 0.02622
 H479 H 0.27232 0.34457 0.01754
 C480 C 0.25618 0.33235 0.04202
 H481 H 0.26751 0.32165 0.04562
 C482 C 0.22765 0.35993 0.03200
 H483 H 0.21642 0.37046 0.02787
 C484 C 0.22431 0.34726 0.04791
 H485 H 0.21061 0.34821 0.05611
 Zn486 Zn 0.24959 0.37555 -0.00026
 N487 N 0.24485 0.35888 0.02166
 C488 C 0.28189 0.39099 0.02175
 N489 N 0.27155 0.39215 0.00456
 C490 C 0.27612 0.40580 -0.00945
 C491 C 0.29196 0.41869 -0.00664
 C492 C 0.29784 0.40361 0.02515
 C493 C 0.24037 0.34547 -0.02698
 C494 C 0.24319 0.33263 -0.04286
 C495 C 0.27503 0.34766 -0.04860
 C496 C 0.27162 0.36023 -0.03262
 N497 N 0.25440 0.35907 -0.02231
 H498 H 0.27775 0.38040 0.03292
 H499 H 0.26745 0.40662 -0.02282
 H500 H 0.29556 0.42945 -0.01791
 H501 H 0.30604 0.40257 0.03883
 H502 H 0.22697 0.34465 -0.01833
 H503 H 0.23192 0.32191 -0.04653
 H504 H 0.28874 0.34870 -0.05676
 H505 H 0.28280 0.37076 -0.02840
 C506 C 0.23873 0.33339 0.05299
 C507 C 0.19613 0.41750 -0.01100
 C508 C 0.26067 0.33378 -0.05378
 C509 C 0.30293 0.41754 0.01079
 C510 C 0.72390 0.09434 -0.00913
 H511 H 0.73253 0.09356 -0.02255
 C512 C 0.70807 0.08146 -0.00629
 H513 H 0.70441 0.07074 -0.01757
 C514 C 0.71827 0.10907 0.02213
 H515 H 0.72247 0.11962 0.03330
 C516 C 0.70233 0.09646 0.02556
 H517 H 0.69418 0.09747 0.03928
 N518 N 0.72855 0.10795 0.00489
 C519 C 0.75965 0.15469 -0.02666
 H520 H 0.77307 0.15549 -0.01805
 C521 C 0.75680 0.16756 -0.04250
 H522 H 0.76807 0.17827 -0.04619
 C523 C 0.72838 0.13996 -0.03223
 H524 H 0.71720 0.12943 -0.02800
 C525 C 0.72494 0.15256 -0.04818
 H526 H 0.71120 0.15155 -0.05631
 Zn527 Zn 0.75050 0.12455 0.00002
 N528 N 0.74562 0.14110 -0.02197
 C529 C 0.78276 0.10907 -0.02205
 N530 N 0.77249 0.10798 -0.00481
 C531 C 0.77716 0.09441 0.00924
 C532 C 0.79301 0.08153 0.00643
 C533 C 0.79872 0.09646 -0.02546
 C534 C 0.74126 0.15474 0.02660
 C535 C 0.74407 0.16764 0.04242
 C536 C 0.77596 0.15272 0.04816
 C537 C 0.77256 0.14008 0.03223
 N538 N 0.75532 0.14116 0.02196
 H539 H 0.77854 0.11959 -0.03326
 H540 H 0.76854 0.09364 0.02266
 H541 H 0.79669 0.07084 0.01774
 H542 H 0.80686 0.09745 -0.03919
 H543 H 0.72785 0.15550 0.01798
 H544 H 0.73276 0.17835 0.04608
 H545 H 0.78968 0.15174 0.05631
 H546 H 0.78376 0.12955 0.02804
 C547 C 0.73930 0.16644 -0.05338
 C548 C 0.69716 0.08258 0.01119
 C549 C 0.76156 0.16658 0.05332
 C550 C 0.80390 0.08261 -0.01106
 C551 C 0.22337 0.59493 0.49053
 H552 H 0.23208 0.59416 0.47717
 C553 C 0.20754 0.58202 0.49326
 H554 H 0.20396 0.57130 0.48195
 C555 C 0.21752 0.60963 0.52177
 H556 H 0.22164 0.62017 0.53298
 C557 C 0.20158 0.59698 0.52509
 H558 H 0.19335 0.59797 0.53877
 N559 N 0.22791 0.60853 0.50460
 C560 C 0.25921 0.65531 0.47332
 H561 H 0.27257 0.65611 0.48202
 C562 C 0.25646 0.66819 0.45746
 H563 H 0.26776 0.67892 0.45386
 C564 C 0.22798 0.64058 0.46751
 H565 H 0.21678 0.63003 0.47165
 C566 C 0.22465 0.65319 0.45155
 H567 H 0.21097 0.65218 0.44332
 Zn568 Zn 0.24989 0.62513 0.49989
 N569 N 0.24516 0.64171 0.47789
 C570 C 0.28229 0.60969 0.47801
 N571 N 0.27191 0.60857 0.49518
 C572 C 0.27648 0.59498 0.50925
 C573 C 0.29235 0.58211 0.50652
 C574 C 0.29827 0.59708 0.47470
 C575 C 0.24048 0.65529 0.52646
 C576 C 0.24319 0.66818 0.54232
 C577 C 0.27505 0.65324 0.54823
 C578 C 0.27174 0.64062 0.53226
 N579 N 0.25457 0.64172 0.52189
 H580 H 0.27816 0.62023 0.46680
 H581 H 0.26777 0.59420 0.52261
 H582 H 0.29595 0.57140 0.51784
 H583 H 0.30651 0.59809 0.46102
 H584 H 0.22712 0.65606 0.51775
 H585 H 0.23187 0.67887 0.54592
 H586 H 0.28872 0.65225 0.55646
 H587 H 0.28297 0.63010 0.52812
 C588 C 0.23904 0.66708 0.44646
 C589 C 0.19652 0.58310 0.51069
 C590 C 0.26061 0.66709 0.55332
 C591 C 0.30336 0.58321 0.48911
 C592 C 0.72315 0.90545 0.50894
 H593 H 0.73178 0.90620 0.52236
 C594 C 0.70728 0.91831 0.50617
 H595 H 0.70359 0.92897 0.51750
 C596 C 0.71756 0.89084 0.47762
 H597 H 0.72178 0.88035 0.46640
 C598 C 0.70158 0.90344 0.47426
 H599 H 0.69342 0.90247 0.46054
 N600 N 0.72783 0.89191 0.49486
 C601 C 0.75909 0.84511 0.52616
 H602 H 0.77250 0.84438 0.51754
 C603 C 0.75629 0.83217 0.54196
 H604 H 0.76760 0.82147 0.54560
 C605 C 0.72778 0.85974 0.53184
 H606 H 0.71657 0.87027 0.52767
 C607 C 0.72439 0.84707 0.54775
 H608 H 0.71067 0.84802 0.55590
 Zn609 Zn 0.74983 0.87535 0.49964
 N610 N 0.74502 0.85869 0.52156
 C611 C 0.78205 0.89079 0.52177
 N612 N 0.77178 0.89194 0.50454
 C613 C 0.77642 0.90558 0.49054
 C614 C 0.79225 0.91846 0.49339
 C615 C 0.79799 0.90341 0.52522
 C616 C 0.74070 0.84525 0.47293
 C617 C 0.74355 0.83240 0.45707
 C618 C 0.77540 0.84742 0.45139
 C619 C 0.77196 0.86000 0.46736
 N620 N 0.75471 0.85884 0.47762
 H621 H 0.77786 0.88022 0.53293
 H622 H 0.76780 0.90639 0.47712
 H623 H 0.79591 0.92920 0.48213
 H624 H 0.80613 0.90237 0.53894
 H625 H 0.72727 0.84443 0.48155
 H626 H 0.73228 0.82168 0.45337
 H627 H 0.78913 0.84845 0.44326
 H628 H 0.78313 0.87053 0.47160
 C629 C 0.73880 0.83320 0.55287
 C630 C 0.69637 0.91724 0.48869
 C631 C 0.76105 0.83354 0.44618
 C632 C 0.80315 0.91732 0.51088
 C633 C 0.00889 0.22408 0.40516
 H634 H 0.02227 0.23276 0.40593
 C635 C 0.00613 0.20825 0.41807
 H636 H 0.01744 0.20464 0.42879
 C637 C -0.02235 0.21830 0.39046
 H638 H -0.03356 0.22243 0.37991
 C639 C -0.02570 0.20236 0.40310
 H640 H -0.03939 0.19415 0.40211
 N641 N -0.00516 0.22864 0.39156
 C642 C 0.02620 0.25981 0.34474
 H643 H 0.01753 0.27320 0.34393
 C644 C 0.04205 0.25700 0.33186
 H645 H 0.04569 0.26828 0.32112
 C646 C 0.03193 0.22858 0.35951
 H647 H 0.02776 0.21741 0.37007
 C648 C 0.04788 0.22519 0.34690
 H649 H 0.05608 0.21149 0.34793
 Zn650 Zn -0.00040 0.25059 0.37493
 N651 N 0.02159 0.24579 0.35836
 C652 C 0.02158 0.28292 0.39034
 N653 N 0.00437 0.27261 0.39146
 C654 C -0.00969 0.27725 0.40505
 C655 C -0.00691 0.29311 0.41792
 C656 C 0.02496 0.29888 0.40295
 C657 C -0.02696 0.24124 0.34477
 C658 C -0.04279 0.24398 0.33186
 C659 C -0.04867 0.27585 0.34676
 C660 C -0.03273 0.27252 0.35940
 N661 N -0.02238 0.25532 0.35833
 H662 H 0.03278 0.27873 0.37982
 H663 H -0.02309 0.26860 0.40584
 H664 H -0.01821 0.29676 0.42863
 H665 H 0.03866 0.30705 0.40194
 H666 H -0.01828 0.22786 0.34402
 H667 H -0.04640 0.23265 0.32117
 H668 H -0.05688 0.28954 0.34772
 H669 H -0.02858 0.28374 0.36992
 C670 C 0.05301 0.23955 0.33300
 C671 C -0.01130 0.19727 0.41698
 C672 C -0.05377 0.26143 0.33291
 C673 C 0.01056 0.30404 0.41681
 C674 C -0.00942 0.72278 0.09469
 H675 H -0.02285 0.73140 0.09393
 C676 C -0.00663 0.70691 0.08184
 H677 H -0.01796 0.70321 0.07118
 C678 C 0.02191 0.71720 0.10930
 H679 H 0.03313 0.72143 0.11978
 C680 C 0.02529 0.70122 0.09671
 H681 H 0.03902 0.69308 0.09768
 N682 N 0.00466 0.72746 0.10822
 C683 C -0.02664 0.75880 0.15499
 H684 H -0.01799 0.77220 0.15570
 C685 C -0.04245 0.75605 0.16792
 H686 H -0.04608 0.76738 0.17861
 C687 C -0.03236 0.72750 0.14039
 H688 H -0.02820 0.71627 0.12987
 C689 C -0.04828 0.72415 0.15306
 H690 H -0.05646 0.71045 0.15212
 Zn691 Zn -0.00013 0.74948 0.12475
 N692 N -0.02205 0.74471 0.14142
 C693 C -0.02223 0.78172 0.10928
 N694 N -0.00501 0.77141 0.10813
 C695 C 0.00900 0.77602 0.09448
 C696 C 0.00616 0.79185 0.08159
 C697 C -0.02565 0.79766 0.09666
 C698 C 0.02660 0.74036 0.15486
 C699 C 0.04247 0.74322 0.16769
 C700 C 0.04815 0.77505 0.15262
 C701 C 0.03216 0.77159 0.14006
 N702 N 0.02190 0.75436 0.14125
 H703 H -0.03339 0.77755 0.11986
 H704 H 0.02240 0.76737 0.09367
 H705 H 0.01743 0.79549 0.07084
 H706 H -0.03935 0.80584 0.09770
 H707 H 0.01798 0.72695 0.15571
 H708 H 0.04617 0.73196 0.17842
 H709 H 0.05628 0.78877 0.15156
 H710 H 0.02793 0.78276 0.12951
 C711 C -0.05339 0.73859 0.16690
 C712 C 0.01086 0.69601 0.08290
 C713 C 0.05336 0.76070 0.16651
 C714 C -0.01130 0.80279 0.08274
 C715 C 0.49102 0.22319 0.59540
 H716 H 0.47763 0.23187 0.59460
 C717 C 0.49379 0.20731 0.58256
 H718 H 0.48249 0.20367 0.57185
 C719 C 0.52227 0.21748 0.61013
 H720 H 0.53347 0.22166 0.62066
 C721 C 0.52563 0.20149 0.59755
 H722 H 0.53932 0.19329 0.59857
 N723 N 0.50507 0.22782 0.60899
 C724 C 0.47366 0.25918 0.65567
 H725 H 0.48233 0.27257 0.65642
 C726 C 0.45780 0.25644 0.66854
 H727 H 0.45415 0.26776 0.67922
 C728 C 0.46796 0.22790 0.64103
 H729 H 0.47214 0.21667 0.63052
 C730 C 0.45199 0.22456 0.65363
 H731 H 0.44380 0.21087 0.65265
 Zn732 Zn 0.50029 0.24984 0.62553
 N733 N 0.47829 0.24510 0.64211
 C734 C 0.47831 0.28211 0.60998
 N735 N 0.49552 0.27179 0.60890
 C736 C 0.50958 0.27638 0.59531
 C737 C 0.50681 0.29221 0.58240
 C738 C 0.47494 0.29805 0.59733
 C739 C 0.52686 0.24060 0.65573
 C740 C 0.54270 0.24339 0.66861
 C741 C 0.54855 0.27520 0.65359
 C742 C 0.53260 0.27183 0.64097
 N743 N 0.52226 0.25463 0.64211
 H744 H 0.46710 0.27796 0.62051
 H745 H 0.52298 0.26772 0.59455
 H746 H 0.51812 0.29583 0.57169
 H747 H 0.46124 0.30623 0.59831
 H748 H 0.51819 0.22722 0.65653
 H749 H 0.54633 0.23210 0.67934
 H750 H 0.55675 0.28889 0.65256
 H751 H 0.52844 0.28301 0.63041
 C752 C 0.44684 0.23899 0.66747
 C753 C 0.51123 0.19634 0.58369
 C754 C 0.55367 0.26083 0.66748
 C755 C 0.48935 0.30316 0.58347
 C756 C 0.50914 0.72302 0.90520
 H757 H 0.52254 0.73166 0.90593
 C758 C 0.50638 0.70718 0.91810
 H759 H 0.51771 0.70354 0.92877
 C760 C 0.47782 0.71734 0.89060
 H761 H 0.46659 0.72153 0.88010
 C762 C 0.47447 0.70140 0.90324
 H763 H 0.46076 0.69324 0.90229
 N764 N 0.49504 0.72765 0.89165
 C765 C 0.52629 0.75891 0.84481
 H766 H 0.51762 0.77231 0.84407
 C767 C 0.54210 0.75614 0.83188
 H768 H 0.54571 0.76745 0.82117
 C769 C 0.53204 0.72764 0.85947
 H770 H 0.52790 0.71644 0.87002
 C771 C 0.54796 0.72428 0.84681
 H772 H 0.55615 0.71058 0.84777
 Zn773 Zn 0.49978 0.74963 0.87507
 N774 N 0.52171 0.74485 0.85841
 C775 C 0.52183 0.78192 0.89049
 N776 N 0.50462 0.77160 0.89165
 C777 C 0.49061 0.77620 0.90530
 C778 C 0.49343 0.79203 0.91819
 C779 C 0.52523 0.79786 0.90311
 C780 C 0.47307 0.74042 0.84498
 C781 C 0.45719 0.74324 0.83215
 C782 C 0.45147 0.77509 0.84715
 C783 C 0.46745 0.77168 0.85972
 N784 N 0.47775 0.75445 0.85856
 H785 H 0.53299 0.77776 0.87991
 H786 H 0.47722 0.76754 0.90611
 H787 H 0.48216 0.79565 0.92894
 H788 H 0.53893 0.80604 0.90208
 H789 H 0.48171 0.72701 0.84416
 H790 H 0.45351 0.73195 0.82144
 H791 H 0.44331 0.78880 0.84818
 H792 H 0.47167 0.78286 0.87025
 C793 C 0.55305 0.73868 0.83293
 C794 C 0.48891 0.69626 0.91706
 C795 C 0.44627 0.76071 0.83329
 C796 C 0.51088 0.80297 0.91704
 C797 C 0.11908 0.22002 0.30138
 C798 C 0.11822 0.20791 0.28200
 C799 C 0.12970 0.22440 0.27149
 C800 C 0.13082 0.23646 0.29065
 C801 C 0.09976 0.23034 0.29549
 C802 C 0.11124 0.24682 0.28497
 C803 C 0.09865 0.21827 0.27632
 C804 C 0.11038 0.23471 0.26560
 C805 C 0.14637 0.22108 0.25812
 C806 C 0.16008 0.21835 0.24713
 C807 C 0.08309 0.23363 0.30885
 C808 C 0.06938 0.23633 0.31985
 H809 H 0.12248 0.21402 0.31624
 H810 H 0.12129 0.19188 0.28063
 H811 H 0.14423 0.24390 0.29640
 H812 H 0.10818 0.26286 0.28634
 H813 H 0.08523 0.21083 0.27057
 H814 H 0.10699 0.24071 0.25073
 C815 C 0.60024 0.73620 0.77362
 C816 C 0.62144 0.74416 0.77680
 C817 C 0.62965 0.72376 0.77125
 C818 C 0.60871 0.71576 0.76786
 C819 C 0.59974 0.72960 0.79531
 C820 C 0.60795 0.70920 0.78976
 C821 C 0.62068 0.73760 0.79869
 C822 C 0.62915 0.71716 0.79293
 C823 C 0.64631 0.72051 0.75786
 C824 C 0.66002 0.71782 0.74685
 C825 C 0.58309 0.73284 0.80871
 C826 C 0.56940 0.73551 0.81975
 H827 H 0.58816 0.74407 0.76583
 H828 H 0.62717 0.75849 0.77132
 H829 H 0.60397 0.70674 0.75503
 H830 H 0.60222 0.69487 0.79523
 H831 H 0.62542 0.74662 0.81152
 H832 H 0.64123 0.70929 0.80072
 C833 C 0.39678 0.75963 0.77588
 C834 C 0.37482 0.75590 0.78107
 C835 C 0.36952 0.77595 0.77191
 C836 C 0.39122 0.77973 0.76651
 C837 C 0.39947 0.76999 0.79587
 C838 C 0.39416 0.79004 0.78670
 C839 C 0.37777 0.76621 0.80127
 C840 C 0.37221 0.78631 0.79189
 C841 C 0.35285 0.77927 0.75856
 C842 C 0.33913 0.78201 0.74757
 C843 C 0.41615 0.76667 0.80921
 C844 C 0.42988 0.76395 0.82019
 H845 H 0.40707 0.74862 0.76945
 H846 H 0.36668 0.74190 0.77861
 H847 H 0.39656 0.78532 0.75207
 H848 H 0.40230 0.80404 0.78917
 H849 H 0.37243 0.76061 0.81571
 H850 H 0.36191 0.79732 0.79833
 C851 C -0.10301 0.26000 0.27530
 C852 C -0.12498 0.25623 0.28041
 C853 C -0.13031 0.27623 0.27116
 C854 C -0.10860 0.28006 0.26584
 C855 C -0.10044 0.27044 0.29527
 C856 C -0.10576 0.29044 0.28601
 C857 C -0.12215 0.26661 0.30059
 C858 C -0.12773 0.28667 0.29112
 C859 C -0.14694 0.27947 0.25774
 C860 C -0.16063 0.28214 0.24670
 C861 C -0.08381 0.26721 0.30869
 C862 C -0.07012 0.26457 0.31973
 H863 H -0.09266 0.24900 0.26895
 H864 H -0.13307 0.24220 0.27796
 H865 H -0.10321 0.28562 0.25140
 H866 H -0.09768 0.30447 0.28846
 H867 H -0.12754 0.26105 0.31503
 H868 H -0.13808 0.29767 0.29747
 C869 C -0.11922 0.71882 0.19885
 C870 C -0.11824 0.70728 0.21856
 C871 C -0.13003 0.72386 0.22857
 C872 C -0.13128 0.73536 0.20906
 C873 C -0.10010 0.72961 0.20452
 C874 C -0.11190 0.74620 0.21452
 C875 C -0.09886 0.71811 0.22402
 C876 C -0.11092 0.73465 0.23423
 C877 C -0.14671 0.72065 0.24195
 C878 C -0.16043 0.71799 0.25296
 C879 C -0.08344 0.73281 0.19112
 C880 C -0.06974 0.73544 0.18008
 H881 H -0.12245 0.71235 0.18415
 H882 H -0.12104 0.69124 0.22037
 H883 H -0.14479 0.74242 0.20306
 H884 H -0.10910 0.76224 0.21271
 H885 H -0.08535 0.71105 0.23002
 H886 H -0.10769 0.74112 0.24893
 C887 C 0.40147 0.23003 0.72756
 C888 C 0.38265 0.24299 0.72848
 C889 C 0.37003 0.22416 0.72889
 C890 C 0.38859 0.21115 0.72817
 C891 C 0.40001 0.22997 0.70493
 C892 C 0.38739 0.21115 0.70534
 C893 C 0.38145 0.24298 0.70564
 C894 C 0.36857 0.22411 0.70626
 C895 C 0.35332 0.22092 0.74222
 C896 C 0.33958 0.21824 0.75319
 C897 C 0.41671 0.23320 0.69158
 C898 C 0.43045 0.23584 0.68059
 H899 H 0.41519 0.23250 0.73616
 H900 H 0.38051 0.25604 0.73814
 H901 H 0.39134 0.19803 0.73759
 H902 H 0.38952 0.19809 0.69568
 H903 H 0.37870 0.25611 0.69623
 H904 H 0.35485 0.22163 0.69765
 C905 C 0.62074 0.27765 0.69851
 C906 C 0.62071 0.29197 0.71633
 C907 C 0.63036 0.27582 0.72899
 C908 C 0.63065 0.26155 0.71138
 C909 C 0.60042 0.26997 0.70499
 C910 C 0.61006 0.25381 0.71766
 C911 C 0.60013 0.28424 0.72261
 C912 C 0.61003 0.26814 0.73548
 C913 C 0.64703 0.27909 0.74235
 C914 C 0.66075 0.28178 0.75335
 C915 C 0.58375 0.26670 0.69163
 C916 C 0.57003 0.26402 0.68063
 H917 H 0.62496 0.28152 0.68316
 H918 H 0.62528 0.30770 0.71594
 H919 H 0.64338 0.25225 0.70691
 H920 H 0.60550 0.23809 0.71805
 H921 H 0.58739 0.29353 0.72708
 H922 H 0.60582 0.26427 0.75083
 C923 C 0.11797 0.78325 0.19912
 C924 C 0.11647 0.79243 0.22001
 C925 C 0.13008 0.77609 0.22788
 C926 C 0.13185 0.76697 0.20720
 C927 C 0.10015 0.77008 0.20392
 C928 C 0.11377 0.75375 0.21179
 C929 C 0.09839 0.77921 0.22460
 C930 C 0.11226 0.76292 0.23267
 C931 C 0.14675 0.77943 0.24124
 C932 C 0.16045 0.78217 0.25224
 C933 C 0.08348 0.76673 0.19058
 C934 C 0.06975 0.76398 0.17961
 H935 H 0.12013 0.79157 0.18518
 H936 H 0.11776 0.80837 0.22354
 H937 H 0.14580 0.76197 0.20019
 H938 H 0.11247 0.73780 0.20825
 H939 H 0.08444 0.78420 0.23160
 H940 H 0.11010 0.75460 0.24662
 C941 C 0.28803 0.11397 0.24629
 C942 C 0.29236 0.13176 0.23259
 C943 C 0.27144 0.12995 0.22405
 C944 C 0.26689 0.11242 0.23770
 C945 C 0.29539 0.09999 0.23002
 C946 C 0.27446 0.09818 0.22148
 C947 C 0.29993 0.11752 0.21638
 C948 C 0.27880 0.11597 0.20779
 C949 C 0.25810 0.14664 0.22072
 C950 C 0.24711 0.16036 0.21798
 C951 C 0.30873 0.08330 0.23334
 C952 C 0.31971 0.06957 0.23605
 H953 H 0.29197 0.11296 0.26216
 H954 H 0.29957 0.14575 0.23713
 H955 H 0.25316 0.11051 0.24642
 H956 H 0.26725 0.08419 0.21695
 H957 H 0.31367 0.11943 0.20765
 H958 H 0.27486 0.11699 0.19192
 C959 C 0.79767 0.61473 0.71269
 C960 C 0.77518 0.61300 0.70895
 C961 C 0.77168 0.62980 0.72377
 C962 C 0.79396 0.63179 0.72746
 C963 C 0.79572 0.59991 0.72974
 C964 C 0.79221 0.61671 0.74455
 C965 C 0.77343 0.59791 0.72605
 C966 C 0.76972 0.61498 0.74081
 C967 C 0.75828 0.64644 0.72044
 C968 C 0.74726 0.66013 0.71771
 C969 C 0.80910 0.58325 0.73306
 C970 C 0.82011 0.56955 0.73578
 H971 H 0.80932 0.61444 0.70117
 H972 H 0.76803 0.61166 0.69428
 H973 H 0.80225 0.64591 0.72800
 H974 H 0.79937 0.61805 0.75923
 H975 H 0.76514 0.58380 0.72551
 H976 H 0.75808 0.61527 0.75234
 C977 C 0.79772 0.38445 0.78668
 C978 C 0.77536 0.38621 0.79112
 C979 C 0.77133 0.36986 0.77594
 C980 C 0.79349 0.36784 0.77155
 C981 C 0.79537 0.39977 0.77013
 C982 C 0.79135 0.38342 0.75495
 C983 C 0.77322 0.40179 0.77452
 C984 C 0.76898 0.38518 0.75939
 C985 C 0.75795 0.35320 0.77918
 C986 C 0.74695 0.33948 0.78186
 C987 C 0.80877 0.41642 0.76690
 C988 C 0.81980 0.43011 0.76425
 H989 H 0.80969 0.38433 0.79787
 H990 H 0.76863 0.38717 0.80603
 H991 H 0.80167 0.35369 0.77036
 H992 H 0.79807 0.38246 0.74004
 H993 H 0.76503 0.41593 0.77570
 H994 H 0.75701 0.38529 0.74820
 C995 C 0.29947 -0.11789 0.28384
 C996 C 0.27825 -0.11632 0.29223
 C997 C 0.27105 -0.13031 0.27590
 C998 C 0.29206 -0.13213 0.26756
 C999 C 0.29506 -0.10036 0.27014
 C1000 C 0.28786 -0.11435 0.25381
 C1001 C 0.27405 -0.09854 0.27848
 C1002 C 0.26664 -0.11279 0.26220
 C1003 C 0.25769 -0.14699 0.27912
 C1004 C 0.24670 -0.16072 0.28179
 C1005 C 0.30844 -0.08369 0.26694
 C1006 C 0.31945 -0.06998 0.26431
 H1007 H 0.31312 -0.11980 0.29270
 H1008 H 0.27415 -0.11732 0.30806
 H1009 H 0.29932 -0.14613 0.26311
 H1010 H 0.29196 -0.11335 0.23798
 H1011 H 0.26679 -0.08454 0.28293
 H1012 H 0.25299 -0.11088 0.25334
 C1013 C 0.20502 -0.11295 0.71117
 C1014 C 0.22786 -0.11178 0.71109
 C1015 C 0.22859 -0.13033 0.72411
 C1016 C 0.20596 -0.13176 0.72414
 C1017 C 0.20469 -0.10031 0.72999
 C1018 C 0.20542 -0.11886 0.74301
 C1019 C 0.22732 -0.09888 0.72996
 C1020 C 0.22826 -0.11769 0.74293
 C1021 C 0.24191 -0.14704 0.72083
 C1022 C 0.25287 -0.16079 0.71813
 C1023 C 0.19137 -0.08359 0.73325
 C1024 C 0.18041 -0.06984 0.73592
 H1025 H 0.19531 -0.11082 0.69814
 H1026 H 0.23723 -0.10906 0.69793
 H1027 H 0.19733 -0.14547 0.72170
 H1028 H 0.19605 -0.12158 0.75617
 H1029 H 0.23595 -0.08517 0.73239
 H1030 H 0.23797 -0.11982 0.75596
 C1031 C 0.71536 0.39575 0.21010
 C1032 C 0.73466 0.39192 0.22174
 C1033 C 0.72877 0.37012 0.22383
 C1034 C 0.70967 0.37370 0.21214
 C1035 C 0.70472 0.40003 0.22967
 C1036 C 0.69882 0.37824 0.23175
 C1037 C 0.72381 0.39645 0.24136
 C1038 C 0.71813 0.37440 0.24339
 C1039 C 0.74216 0.35347 0.22057
 C1040 C 0.75318 0.33976 0.21790
 C1041 C 0.69132 0.41669 0.23291
 C1042 C 0.68031 0.43040 0.23560
 H1043 H 0.71407 0.40472 0.19645
 H1044 H 0.74955 0.39735 0.21759
 H1045 H 0.70401 0.36416 0.20009
 H1046 H 0.68394 0.37280 0.23590
 H1047 H 0.72948 0.40599 0.25341
 H1048 H 0.71942 0.36543 0.25704
 C1049 C 0.70450 0.61945 0.25782
 C1050 C 0.70629 0.63130 0.27730
 C1051 C 0.72888 0.63010 0.27563
 C1052 C 0.72729 0.61852 0.25621
 C1053 C 0.70482 0.60021 0.26981
 C1054 C 0.72741 0.59901 0.26815
 C1055 C 0.70641 0.61180 0.28923
 C1056 C 0.72920 0.61086 0.28762
 C1057 C 0.74227 0.64676 0.27888
 C1058 C 0.75328 0.66046 0.28155
 C1059 C 0.69142 0.58356 0.26657
 C1060 C 0.68040 0.56987 0.26391
 H1061 H 0.69419 0.62280 0.24554
 H1062 H 0.69776 0.64477 0.28110
 H1063 H 0.73603 0.62146 0.24267
 H1064 H 0.73594 0.58555 0.26435
 H1065 H 0.69767 0.60885 0.30278
 H1066 H 0.73950 0.60751 0.29991
 C1067 C 0.20469 0.11938 0.75799
 C1068 C 0.20646 0.13125 0.77745
 C1069 C 0.22904 0.13010 0.77578
 C1070 C 0.22748 0.11850 0.75637
 C1071 C 0.20506 0.10015 0.76999
 C1072 C 0.22764 0.09900 0.76832
 C1073 C 0.20662 0.11176 0.78941
 C1074 C 0.22941 0.11087 0.78779
 C1075 C 0.24239 0.14679 0.77902
 C1076 C 0.25336 0.16053 0.78169
 C1077 C 0.19169 0.08347 0.76677
 C1078 C 0.18068 0.06976 0.76413
 H1079 H 0.19437 0.12269 0.74570
 H1080 H 0.19789 0.14470 0.78124
 H1081 H 0.23621 0.12145 0.74283
 H1082 H 0.23621 0.08556 0.76453
 H1083 H 0.19789 0.10880 0.80295
 H1084 H 0.23973 0.10756 0.80008
 C1085 C 0.22721 0.30243 0.12119
 C1086 C 0.20952 0.28811 0.12332
 C1087 C 0.22388 0.27171 0.12958
 C1088 C 0.24152 0.28582 0.12771
 C1089 C 0.22970 0.29576 0.09966
 C1090 C 0.24406 0.27936 0.10592
 C1091 C 0.21205 0.28165 0.10153
 C1092 C 0.22636 0.26504 0.10805
 C1093 C 0.22062 0.25834 0.14625
 C1094 C 0.21793 0.24735 0.15997
 C1095 C 0.23293 0.30916 0.08301
 C1096 C 0.23558 0.32020 0.06932
 H1097 H 0.22760 0.31795 0.12641
 H1098 H 0.19528 0.29156 0.13066
 H1099 H 0.25361 0.28739 0.13866
 H1100 H 0.25830 0.27591 0.09858
 H1101 H 0.19997 0.28008 0.09058
 H1102 H 0.22597 0.24951 0.10283
 C1103 C 0.72690 0.77314 0.59758
 C1104 C 0.74132 0.77011 0.61507
 C1105 C 0.72380 0.77149 0.62941
 C1106 C 0.70933 0.77431 0.61218
 C1107 C 0.72966 0.79556 0.59952
 C1108 C 0.71215 0.79694 0.61386
 C1109 C 0.74413 0.79274 0.61675
 C1110 C 0.72656 0.79391 0.63134
 C1111 C 0.72054 0.75810 0.64606
 C1112 C 0.71785 0.74709 0.65976
 C1113 C 0.73292 0.80897 0.58288
 C1114 C 0.73560 0.82001 0.56920
 H1115 H 0.72707 0.76475 0.58351
 H1116 H 0.75328 0.75893 0.61575
 H1117 H 0.69499 0.76659 0.61049
 H1118 H 0.70019 0.80812 0.61317
 H1119 H 0.75848 0.80047 0.61844
 H1120 H 0.72639 0.80231 0.64541
 C1121 C 0.75830 0.79616 0.38029
 C1122 C 0.77772 0.79463 0.36831
 C1123 C 0.77641 0.77203 0.36956
 C1124 C 0.75704 0.77335 0.38128
 C1125 C 0.77041 0.79606 0.39945
 C1126 C 0.76911 0.77346 0.40070
 C1127 C 0.78978 0.79474 0.38773
 C1128 C 0.78853 0.77193 0.38872
 C1129 C 0.77975 0.75865 0.35292
 C1130 C 0.78248 0.74763 0.33923
 C1131 C 0.76707 0.80943 0.41611
 C1132 C 0.76432 0.82042 0.42981
 H1133 H 0.74583 0.80627 0.37701
 H1134 H 0.78130 0.80319 0.35481
 H1135 H 0.74362 0.76440 0.37844
 H1136 H 0.76553 0.76490 0.41420
 H1137 H 0.80321 0.80368 0.39057
 H1138 H 0.80100 0.76182 0.39200
 C1139 C 0.28675 0.29860 -0.11565
 C1140 C 0.29107 0.27622 -0.11388
 C1141 C 0.27606 0.27228 -0.13041
 C1142 C 0.27179 0.29446 -0.13243
 C1143 C 0.27001 0.29630 -0.10052
 C1144 C 0.25500 0.29237 -0.11705
 C1145 C 0.27429 0.27412 -0.09849
 C1146 C 0.25932 0.26998 -0.11528
 C1147 C 0.27943 0.25890 -0.14705
 C1148 C 0.28221 0.24787 -0.16072
 C1149 C 0.26666 0.30967 -0.08386
 C1150 C 0.26392 0.32066 -0.07016
 H1151 H 0.29799 0.31052 -0.11561
 H1152 H 0.30594 0.26942 -0.11277
 H1153 H 0.27080 0.30267 -0.14658
 H1154 H 0.24013 0.29916 -0.11816
 H1155 H 0.27527 0.26591 -0.08435
 H1156 H 0.24808 0.25807 -0.11532
 C1157 C 0.72053 0.22450 -0.09837
 C1158 C 0.73686 0.23284 -0.11203
 C1159 C 0.72396 0.22794 -0.13002
 C1160 C 0.70757 0.21981 -0.11662
 C1161 C 0.72995 0.20394 -0.10010
 C1162 C 0.71704 0.19905 -0.11809
 C1163 C 0.74634 0.21207 -0.11350
 C1164 C 0.73338 0.20739 -0.13175
 C1165 C 0.72062 0.24131 -0.14667
 C1166 C 0.71787 0.25232 -0.16037
 C1167 C 0.73328 0.19057 -0.08344
 C1168 C 0.73603 0.17957 -0.06974
 H1169 H 0.71529 0.23138 -0.08446
 H1170 H 0.74498 0.24688 -0.10973
 H1171 H 0.69160 0.22314 -0.11808
 H1172 H 0.70893 0.18501 -0.12040
 H1173 H 0.76231 0.20874 -0.11204
 H1174 H 0.73862 0.20051 -0.14566
 C1175 C 0.24052 0.70294 0.37967
 C1176 C 0.22048 0.70625 0.36917
 C1177 C 0.22416 0.72862 0.36976
 C1178 C 0.24415 0.72551 0.38001
 C1179 C 0.22999 0.70460 0.39969
 C1180 C 0.23368 0.72697 0.40028
 C1181 C 0.21001 0.70771 0.38945
 C1182 C 0.21364 0.73028 0.38978
 C1183 C 0.22090 0.74199 0.35309
 C1184 C 0.21821 0.75299 0.33938
 C1185 C 0.23323 0.69123 0.41637
 C1186 C 0.23588 0.68022 0.43008
 H1187 H 0.25161 0.69155 0.37571
 H1188 H 0.21502 0.69789 0.35619
 H1189 H 0.25815 0.73298 0.37594
 H1190 H 0.23914 0.73533 0.41326
 H1191 H 0.19600 0.70024 0.39352
 H1192 H 0.20255 0.74167 0.39375
 C1193 C 0.28876 0.71608 0.60381
 C1194 C 0.27639 0.73479 0.60827
 C1195 C 0.27536 0.72859 0.63006
 C1196 C 0.28778 0.71009 0.62585
 C1197 C 0.26957 0.70460 0.60010
 C1198 C 0.26854 0.69840 0.62189
 C1199 C 0.25715 0.72310 0.60431
 C1200 C 0.25617 0.71711 0.62636
 C1201 C 0.27861 0.74195 0.64674
 C1202 C 0.28129 0.75294 0.66046
 C1203 C 0.26636 0.69123 0.58342
 C1204 C 0.26373 0.68023 0.56970
 H1205 H 0.30213 0.71551 0.59435
 H1206 H 0.27966 0.74990 0.60285
 H1207 H 0.30042 0.70490 0.63490
 H1208 H 0.26527 0.68329 0.62731
 H1209 H 0.24451 0.72830 0.59526
 H1210 H 0.24280 0.71768 0.63582
 C1211 C 0.75499 0.21802 0.10860
 C1212 C 0.76117 0.21157 0.12965
 C1213 C 0.77660 0.22818 0.12992
 C1214 C 0.77047 0.23483 0.10913
 C1215 C 0.77074 0.20414 0.10001
 C1216 C 0.78617 0.22075 0.10028
 C1217 C 0.77687 0.19749 0.12080
 C1218 C 0.79235 0.21431 0.12133
 C1219 C 0.77986 0.24156 0.14657
 C1220 C 0.78254 0.25258 0.16027
 C1221 C 0.76746 0.19076 0.08336
 C1222 C 0.76477 0.17974 0.06967
 H1223 H 0.73959 0.21939 0.10318
 H1224 H 0.75093 0.20795 0.14192
 H1225 H 0.76787 0.25034 0.10452
 H1226 H 0.79641 0.22438 0.08801
 H1227 H 0.77947 0.18199 0.12542
 H1228 H 0.80775 0.21293 0.12675
 C1229 C 0.49418 0.35567 0.52898
 C1230 C 0.47607 0.35816 0.51524
 C1231 C 0.47434 0.37978 0.52186
 C1232 C 0.49239 0.37755 0.53539
 C1233 C 0.48022 0.34986 0.54589
 C1234 C 0.47849 0.37148 0.55250
 C1235 C 0.46217 0.35209 0.53235
 C1236 C 0.46038 0.37397 0.53876
 C1237 C 0.47105 0.39644 0.50849
 C1238 C 0.46834 0.41016 0.49749
 C1239 C 0.48349 0.33321 0.55927
 C1240 C 0.48616 0.31951 0.57030
 H1241 H 0.50811 0.34797 0.52511
 H1242 H 0.47504 0.35287 0.49977
 H1243 H 0.50479 0.38821 0.53649
 H1244 H 0.47952 0.37677 0.56797
 H1245 H 0.44977 0.34143 0.53125
 H1246 H 0.44645 0.38167 0.54263
 C1247 C -0.00528 0.85717 0.03027
 C1248 C -0.02185 0.85845 0.01457
 C1249 C -0.02633 0.87961 0.02138
 C1250 C -0.00981 0.87859 0.03688
 C1251 C -0.02048 0.84960 0.04531
 C1252 C -0.02496 0.87076 0.05212
 C1253 C -0.03700 0.85062 0.02981
 C1254 C -0.04153 0.87204 0.03641
 C1255 C -0.02958 0.89632 0.00806
 C1256 C -0.03225 0.91007 -0.00289
 C1257 C -0.01722 0.83290 0.05864
 C1258 C -0.01453 0.81917 0.06962
 H1259 H 0.00965 0.85087 0.02790
 H1260 H -0.02061 0.85357 -0.00103
 H1261 H 0.00133 0.89027 0.03964
 H1262 H -0.02621 0.87564 0.06771
 H1263 H -0.04814 0.83893 0.02705
 H1264 H -0.05647 0.87834 0.03879
 C1265 C 0.00376 0.63906 0.03337
 C1266 C 0.01752 0.63932 0.01510
 C1267 C 0.02595 0.61926 0.02148
 C1268 C 0.01225 0.61874 0.03954
 C1269 C 0.02004 0.64922 0.04545
 C1270 C 0.02847 0.62916 0.05182
 C1271 C 0.03374 0.64974 0.02738
 C1272 C 0.04223 0.62942 0.03355
 C1273 C 0.02924 0.60258 0.00813
 C1274 C 0.03196 0.58886 -0.00286
 C1275 C 0.01676 0.66590 0.05880
 C1276 C 0.01407 0.67963 0.06978
 H1277 H -0.01209 0.64321 0.03345
 H1278 H 0.01305 0.64332 -0.00015
 H1279 H 0.00344 0.60580 0.04439
 H1280 H 0.03294 0.62516 0.06707
 H1281 H 0.04255 0.66268 0.02253
 H1282 H 0.05808 0.62527 0.03347
 C1283 C 0.53268 0.13122 0.55133
 C1284 C 0.51622 0.11798 0.54259
 C1285 C 0.52611 0.11957 0.52224
 C1286 C 0.54263 0.13255 0.53078
 C1287 C 0.52030 0.14952 0.54624
 C1288 C 0.53020 0.15111 0.52590
 C1289 C 0.50379 0.13655 0.53770
 C1290 C 0.51373 0.13788 0.51715
 C1291 C 0.52935 0.10290 0.50887
 C1292 C 0.53201 0.08919 0.49786
 C1293 C 0.51707 0.16621 0.55960
 C1294 C 0.51441 0.17994 0.57058
 H1295 H 0.54044 0.12867 0.56554
 H1296 H 0.51051 0.10417 0.54930
 H1297 H 0.55863 0.13071 0.52778
 H1298 H 0.53591 0.16492 0.51919
 H1299 H 0.48778 0.13838 0.54070
 H1300 H 0.50598 0.14043 0.50295
 C1301 C -0.00457 0.13508 0.45980
 C1302 C -0.01059 0.13681 0.48179
 C1303 C -0.02609 0.12059 0.47856
 C1304 C -0.02012 0.11859 0.45677
 C1305 C -0.02031 0.15053 0.45454
 C1306 C -0.03581 0.13430 0.45131
 C1307 C -0.02628 0.15252 0.47633
 C1308 C -0.04183 0.13604 0.47330
 C1309 C -0.02932 0.10391 0.49193
 C1310 C -0.03199 0.09019 0.50292
 C1311 C -0.01710 0.16720 0.44116
 C1312 C -0.01446 0.18091 0.43015
 H1313 H 0.01079 0.13487 0.45409
 H1314 H -0.00025 0.13765 0.49447
 H1315 H -0.01762 0.10445 0.44888
 H1316 H -0.04615 0.13346 0.43863
 H1317 H -0.02878 0.16666 0.48422
 H1318 H -0.05719 0.13625 0.47901
 C1319 C 0.47558 0.62835 0.94798
 C1320 C 0.49062 0.62075 0.96344
 C1321 C 0.47394 0.61971 0.97877
 C1322 C 0.45885 0.62706 0.96351
 C1323 C 0.47981 0.64959 0.95469
 C1324 C 0.46313 0.64855 0.97002
 C1325 C 0.49490 0.64224 0.96994
 C1326 C 0.47816 0.64095 0.98548
 C1327 C 0.47065 0.60308 0.99217
 C1328 C 0.46792 0.58938 1.00319
 C1329 C 0.48307 0.66622 0.94128
 C1330 C 0.48573 0.67991 0.93024
 H1331 H 0.47456 0.62335 0.93241
 H1332 H 0.50188 0.60912 0.96089
 H1333 H 0.44399 0.62063 0.96102
 H1334 H 0.45186 0.66017 0.97257
 H1335 H 0.50976 0.64867 0.97243
 H1336 H 0.47919 0.64595 1.00105
 C1337 C 0.52821 0.84774 0.97569
 C1338 C 0.54225 0.86531 0.97163
 C1339 C 0.52605 0.87954 0.97865
 C1340 C 0.51205 0.86223 0.98292
 C1341 C 0.52012 0.84966 0.95460
 C1342 C 0.50391 0.86389 0.96162
 C1343 C 0.53411 0.86698 0.95032
 C1344 C 0.51796 0.88147 0.95755
 C1345 C 0.52934 0.89618 0.99204
 C1346 C 0.53207 0.90987 1.00306
 C1347 C 0.51681 0.83302 0.94121
 C1348 C 0.51411 0.81933 0.93019
 H1349 H 0.53238 0.83368 0.98300
 H1350 H 0.55805 0.86609 0.97589
 H1351 H 0.50302 0.86046 0.99648
 H1352 H 0.48811 0.86312 0.95735
 H1353 H 0.54315 0.86875 0.93677
 H1354 H 0.51378 0.89552 0.95024
 C1355 C 0.03629 0.35159 0.46990
 C1356 C 0.04092 0.37301 0.46339
 C1357 C 0.02574 0.38059 0.47844
 C1358 C 0.02116 0.35942 0.48516
 C1359 C 0.01978 0.35072 0.45438
 C1360 C 0.00460 0.35830 0.46943
 C1361 C 0.02436 0.37189 0.44766
 C1362 C 0.00923 0.37972 0.46292
 C1363 C 0.02906 0.39722 0.49184
 C1364 C 0.03181 0.41089 0.50287
 C1365 C 0.01648 0.33409 0.44098
 C1366 C 0.01377 0.32039 0.42996
 H1367 H 0.04738 0.33984 0.47262
 H1368 H 0.05588 0.37925 0.46105
 H1369 H 0.01988 0.35449 0.50073
 H1370 H -0.01037 0.35206 0.47176
 H1371 H 0.02563 0.37683 0.43209
 H1372 H -0.00186 0.39148 0.46020
 C1373 C 0.35847 0.54026 0.45973
 C1374 C 0.37963 0.54337 0.46783
 C1375 C 0.38008 0.52164 0.47430
 C1376 C 0.35918 0.51832 0.46614
 C1377 C 0.35014 0.54567 0.48011
 C1378 C 0.35059 0.52395 0.48657
 C1379 C 0.37103 0.54900 0.48826
 C1380 C 0.37174 0.52706 0.49468
 C1381 C 0.39675 0.50827 0.47104
 C1382 C 0.41046 0.49726 0.46835
 C1383 C 0.33347 0.55906 0.48333
 C1384 C 0.31975 0.57007 0.48597
 H1385 H 0.35283 0.54583 0.44539
 H1386 H 0.39175 0.55121 0.46009
 H1387 H 0.35450 0.50555 0.45701
 H1388 H 0.33846 0.51611 0.49432
 H1389 H 0.37572 0.56176 0.49740
 H1390 H 0.37739 0.52149 0.50901
 C1391 C 0.86213 0.03462 -0.00372
 C1392 C 0.86127 0.01521 -0.01577
 C1393 C 0.88059 0.02107 -0.02610
 C1394 C 0.88171 0.04027 -0.01409
 C1395 C 0.85066 0.04509 -0.02023
 C1396 C 0.86998 0.05095 -0.03056
 C1397 C 0.84954 0.02589 -0.03224
 C1398 C 0.86912 0.03154 -0.04262
 C1399 C 0.89726 0.00769 -0.02938
 C1400 C 0.91097 -0.00331 -0.03209
 C1401 C 0.83399 0.05847 -0.01698
 C1402 C 0.82027 0.06947 -0.01429
 H1403 H 0.85907 0.03603 0.01232
 H1404 H 0.85788 0.00037 -0.00973
 H1405 H 0.89513 0.04603 -0.00667
 H1406 H 0.87337 0.06579 -0.03661
 H1407 H 0.83612 0.02012 -0.03967
 H1408 H 0.87217 0.03012 -0.05865
 C1409 C 0.62958 0.04829 0.01208
 C1410 C 0.62895 0.02627 0.00597
 C1411 C 0.62046 0.02113 0.02636
 C1412 C 0.62083 0.04295 0.03252
 C1413 C 0.65041 0.04510 0.02045
 C1414 C 0.64192 0.03996 0.04084
 C1415 C 0.65004 0.02328 0.01429
 C1416 C 0.64130 0.01794 0.03473
 C1417 C 0.60378 0.00778 0.02965
 C1418 C 0.59006 -0.00319 0.03235
 C1419 C 0.66709 0.05845 0.01715
 C1420 C 0.68080 0.06944 0.01443
 H1421 H 0.62495 0.06092 0.00273
 H1422 H 0.62343 0.02048 -0.00833
 H1423 H 0.60863 0.05088 0.04005
 H1424 H 0.64744 0.04575 0.05514
 H1425 H 0.66224 0.01535 0.00676
 H1426 H 0.64593 0.00531 0.04408
 C1427 C 0.15012 0.52793 0.53405
 C1428 C 0.12947 0.53417 0.54166
 C1429 C 0.11996 0.52141 0.52552
 C1430 C 0.14034 0.51496 0.51796
 C1431 C 0.14984 0.54548 0.51970
 C1432 C 0.14033 0.53272 0.50355
 C1433 C 0.12946 0.55193 0.52726
 C1434 C 0.11968 0.53896 0.51117
 C1435 C 0.10331 0.50801 0.52878
 C1436 C 0.08962 0.49699 0.53148
 C1437 C 0.16648 0.55889 0.51647
 C1438 C 0.18018 0.56993 0.51383
 H1439 H 0.16282 0.52354 0.54342
 H1440 H 0.12482 0.53461 0.55736
 H1441 H 0.14463 0.49961 0.51417
 H1442 H 0.14498 0.53228 0.48785
 H1443 H 0.12516 0.56728 0.53105
 H1444 H 0.10698 0.54335 0.50179
 C1445 C 0.13515 0.46197 -0.00363
 C1446 C 0.13673 0.48330 -0.01171
 C1447 C 0.11937 0.47904 -0.02565
 C1448 C 0.11752 0.45792 -0.01762
 C1449 C 0.14933 0.45503 -0.01991
 C1450 C 0.13196 0.45077 -0.03384
 C1451 C 0.15117 0.47615 -0.02794
 C1452 C 0.13355 0.47210 -0.04192
 C1453 C 0.10268 0.49240 -0.02887
 C1454 C 0.08894 0.50339 -0.03154
 C1455 C 0.16601 0.44165 -0.01672
 C1456 C 0.17974 0.43064 -0.01411
 H1457 H 0.13599 0.45766 0.01216
 H1458 H 0.13850 0.49683 -0.00264
 H1459 H 0.10349 0.45057 -0.01341
 H1460 H 0.13019 0.43724 -0.04291
 H1461 H 0.16520 0.48350 -0.03214
 H1462 H 0.13271 0.47641 -0.05771
 C1463 C 0.62853 0.94790 0.47437
 C1464 C 0.62019 0.96251 0.48986
 C1465 C 0.61950 0.97862 0.47392
 C1466 C 0.62759 0.96422 0.45838
 C1467 C 0.64952 0.95467 0.47967
 C1468 C 0.64883 0.97078 0.46372
 C1469 C 0.64143 0.96907 0.49521
 C1470 C 0.64049 0.98539 0.47921
 C1471 C 0.60279 0.99195 0.47071
 C1472 C 0.58904 1.00293 0.46808
 C1473 C 0.66623 0.94133 0.48287
 C1474 C 0.67997 0.93035 0.48552
 H1475 H 0.62381 0.93234 0.47241
 H1476 H 0.60822 0.95926 0.50057
 H1477 H 0.62171 0.96238 0.44320
 H1478 H 0.66080 0.97403 0.45301
 H1479 H 0.64731 0.97092 0.51039
 H1480 H 0.64521 1.00095 0.48117
 C1481 C 0.85892 0.96822 0.50430
 C1482 C 0.85923 0.98540 0.51939
 C1483 C 0.87984 0.97875 0.52612
 C1484 C 0.87978 0.96178 0.51108
 C1485 C 0.84989 0.95478 0.52018
 C1486 C 0.87051 0.94814 0.52691
 C1487 C 0.84995 0.97175 0.53522
 C1488 C 0.87082 0.96531 0.54200
 C1489 C 0.89651 0.99210 0.52942
 C1490 C 0.91023 1.00309 0.53213
 C1491 C 0.83322 0.94144 0.51686
 C1492 C 0.81951 0.93045 0.51413
 H1493 H 0.85383 0.96927 0.48876
 H1494 H 0.85478 1.00087 0.51634
 H1495 H 0.89224 0.95784 0.50119
 H1496 H 0.87496 0.93267 0.52996
 H1497 H 0.83749 0.97570 0.54511
 H1498 H 0.87590 0.96426 0.55754
 C1499 C 0.36517 0.46029 0.00425
 C1500 C 0.36344 0.48228 0.01029
 C1501 C 0.37963 0.47901 0.02582
 C1502 C 0.38162 0.45723 0.01983
 C1503 C 0.34968 0.45504 0.01995
 C1504 C 0.36587 0.45177 0.03549
 C1505 C 0.34769 0.47681 0.02594
 C1506 C 0.36414 0.47376 0.04152
 C1507 C 0.39631 0.49236 0.02909
 C1508 C 0.41004 0.50333 0.03178
 C1509 C 0.33301 0.44168 0.01669
 C1510 C 0.31929 0.43068 0.01400
 H1511 H 0.36541 0.45461 -0.01111
 H1512 H 0.36263 0.49497 -0.00004
 H1513 H 0.39576 0.44933 0.01736
 H1514 H 0.36668 0.43908 0.04581
 H1515 H 0.33354 0.48472 0.02841
 H1516 H 0.36390 0.47944 0.05689
 C1517 C 0.54943 0.48768 0.37111
 C1518 C 0.52762 0.49450 0.37206
 C1519 C 0.52186 0.47407 0.38002
 C1520 C 0.54346 0.46720 0.37933
 C1521 C 0.54584 0.48000 0.35008
 C1522 C 0.54007 0.45957 0.35804
 C1523 C 0.52424 0.48688 0.35077
 C1524 C 0.51827 0.46639 0.35899
 C1525 C 0.50850 0.47076 0.39670
 C1526 C 0.49752 0.46804 0.41042
 C1527 C 0.55921 0.48329 0.33341
 C1528 C 0.57020 0.48598 0.31969
 H1529 H 0.56240 0.49647 0.37591
 H1530 H 0.52235 0.50883 0.37802
 H1531 H 0.55121 0.45907 0.39126
 H1532 H 0.54534 0.44524 0.35209
 H1533 H 0.51649 0.49501 0.33885
 H1534 H 0.50530 0.45760 0.35420
 C1535 C 0.02712 -0.03263 0.84921
 C1536 C 0.03295 -0.04223 0.86913
 C1537 C 0.02177 -0.02579 0.88003
 C1538 C 0.01573 -0.01623 0.86037
 C1539 C 0.04586 -0.01991 0.85016
 C1540 C 0.03468 -0.00346 0.86106
 C1541 C 0.05190 -0.02946 0.86982
 C1542 C 0.04051 -0.01306 0.88098
 C1543 C 0.00835 -0.02908 0.89666
 C1544 C -0.00269 -0.03180 0.91034
 C1545 C 0.05928 -0.01664 0.83353
 C1546 C 0.07032 -0.01397 0.81984
 H1547 H 0.02177 -0.04064 0.83596
 H1548 H 0.03208 -0.05821 0.87263
 H1549 H 0.00071 -0.01083 0.85667
 H1550 H 0.03554 0.01252 0.85756
 H1551 H 0.06692 -0.03486 0.87352
 H1552 H 0.04586 -0.00505 0.89423
 C1553 C 0.02344 0.01720 0.65089
 C1554 C 0.02054 0.03713 0.64005
 C1555 C 0.02181 0.02623 0.62021
 C1556 C 0.02450 0.00635 0.63079
 C1557 C 0.04588 0.02032 0.65008
 C1558 C 0.04715 0.00941 0.63024
 C1559 C 0.04320 0.04019 0.63951
 C1560 C 0.04426 0.02934 0.61941
 C1561 C 0.00841 0.02952 0.60357
 C1562 C -0.00261 0.03223 0.58988
 C1563 C 0.05929 0.01703 0.66672
 C1564 C 0.07032 0.01433 0.68041
 H1565 H 0.01503 0.01217 0.66402
 H1566 H 0.00945 0.04856 0.64390
 H1567 H 0.01666 -0.00753 0.62701
 H1568 H 0.05824 -0.00202 0.62639
 H1569 H 0.05104 0.05407 0.64328
 H1570 H 0.05267 0.03437 0.60628
 C1571 C 0.52861 0.50653 0.14413
 C1572 C 0.51499 0.52473 0.14158
 C1573 C 0.52158 0.52630 0.11995
 C1574 C 0.53499 0.50816 0.12223
 C1575 C 0.54562 0.52039 0.14984
 C1576 C 0.55221 0.52196 0.12821
 C1577 C 0.53221 0.53853 0.14756
 C1578 C 0.53860 0.54016 0.12566
 C1579 C 0.50820 0.52961 0.10329
 C1580 C 0.49720 0.53234 0.08959
 C1581 C 0.55901 0.51710 0.16649
 C1582 C 0.57003 0.51440 0.18019
 H1583 H 0.52465 0.49267 0.15191
 H1584 H 0.49953 0.52590 0.14690
 H1585 H 0.53599 0.49571 0.11163
 H1586 H 0.56767 0.52079 0.12289
 H1587 H 0.53122 0.55098 0.15816
 H1588 H 0.54255 0.55402 0.11788
 C1589 C 0.45066 -0.01313 0.12928
 C1590 C 0.47232 -0.00589 0.12821
 C1591 C 0.47849 -0.02632 0.12053
 C1592 C 0.45704 -0.03360 0.12134
 C1593 C 0.45442 -0.02044 0.15041
 C1594 C 0.46059 -0.04086 0.14273
 C1595 C 0.47587 -0.01316 0.14960
 C1596 C 0.48225 -0.03363 0.14166
 C1597 C 0.49189 -0.02960 0.10388
 C1598 C 0.50291 -0.03231 0.09018
 C1599 C 0.44100 -0.01718 0.16705
 C1600 C 0.42996 -0.01450 0.18074
 H1601 H 0.43751 -0.00466 0.12438
 H1602 H 0.47730 0.00845 0.12205
 H1603 H 0.44944 -0.04204 0.10954
 H1604 H 0.45561 -0.05520 0.14889
 H1605 H 0.48347 -0.00471 0.16140
 H1606 H 0.49540 -0.04210 0.14656
 C1607 C 0.97425 0.46820 0.65134
 C1608 C 0.96882 0.45698 0.63217
 C1609 C 0.97850 0.47352 0.62006
 C1610 C 0.98414 0.48469 0.63897
 C1611 C 0.95457 0.47940 0.65006
 C1612 C 0.96425 0.49594 0.63795
 C1613 C 0.94893 0.46823 0.63115
 C1614 C 0.95883 0.48473 0.61878
 C1615 C 0.99182 0.47026 0.60335
 C1616 C 1.00278 0.46759 0.58959
 C1617 C 0.94123 0.48267 0.66675
 C1618 C 0.93024 0.48537 0.68048
 H1619 H 0.98044 0.46144 0.66492
 H1620 H 0.97085 0.44093 0.62961
 H1621 H 0.99877 0.49141 0.64200
 H1622 H 0.96223 0.51199 0.64051
 H1623 H 0.93431 0.46151 0.62811
 H1624 H 0.95263 0.49149 0.60520
 C1625 C 0.96054 0.50385 0.86529
 C1626 C 0.98220 0.51100 0.86362
 C1627 C 0.97834 0.52575 0.88040
 C1628 C 0.95689 0.51865 0.88234
 C1629 C 0.95439 0.51984 0.85044
 C1630 C 0.95053 0.53459 0.86722
 C1631 C 0.97583 0.52694 0.84851
 C1632 C 0.97218 0.54174 0.86555
 C1633 C 0.99168 0.52905 0.89708
 C1634 C 1.00267 0.53177 0.91080
 C1635 C 0.94104 0.51656 0.83375
 C1636 C 0.93006 0.51388 0.82003
 H1637 H 0.95561 0.48823 0.86500
 H1638 H 0.99537 0.50134 0.86232
 H1639 H 0.94926 0.51528 0.89643
 H1640 H 0.93736 0.54425 0.86852
 H1641 H 0.98347 0.53031 0.83441
 H1642 H 0.97712 0.55736 0.86584
 C1643 C 0.47560 0.02644 0.34859
 C1644 C 0.47216 0.04144 0.36550
 C1645 C 0.47809 0.02550 0.38049
 C1646 C 0.48174 0.01055 0.36384
 C1647 C 0.45405 0.01966 0.35059
 C1648 C 0.45998 0.00372 0.36558
 C1649 C 0.45041 0.03461 0.36724
 C1650 C 0.45655 0.01872 0.38249
 C1651 C 0.49149 0.02875 0.39714
 C1652 C 0.50252 0.03144 0.41083
 C1653 C 0.44067 0.01642 0.33393
 C1654 C 0.42966 0.01376 0.32021
 H1655 H 0.48328 0.02958 0.33446
 H1656 H 0.47731 0.05699 0.36566
 H1657 H 0.49477 0.00069 0.36263
 H1658 H 0.45483 -0.01183 0.36542
 H1659 H 0.43737 0.04447 0.36845
 H1660 H 0.44886 0.01558 0.39662
   
