data_POSCAR
  _audit_creation_date              2014-09-24
  _audit_creation_method            'ToBaCCo'
  _symmetry_space_group_name_H-M    'P1'
  _symmetry_Int_Tables_number       1
  _symmetry_cell_setting            triclinic
  loop_
  _symmetry_equiv_pos_as_xyz
 x,y,z
_cell_length_a 55.5758
_cell_length_b 55.5458
_cell_length_c 55.5908
_cell_angle_alpha 90.053100
_cell_angle_beta 89.998300
_cell_angle_gamma 90.029300
loop_
  _atom_site_label
  _atom_site_type_symbol
  _atom_site_fract_x
  _atom_site_fract_y
  _atom_site_fract_z
O1 O 0.87638 0.15818 0.81230
 O2 O 0.90234 0.12464 0.80527
 O3 O 0.81323 0.12362 0.84109
 O4 O 0.80411 0.10015 0.87218
 O5 O 0.84251 0.18727 0.87529
 O6 O 0.87591 0.19386 0.90155
 O7 O 0.87621 0.06202 0.90726
 O8 O 0.84822 0.05573 0.87570
 O9 O 0.93768 0.09120 0.87535
 O10 O 0.94539 0.12566 0.84843
 O11 O 0.90843 0.12346 0.93684
 O12 O 0.87416 0.15054 0.94435
 O13 O 0.87615 0.09088 0.93635
 O14 O 0.84844 0.12522 0.94368
 O15 O 0.93754 0.12351 0.90806
 O16 O 0.94500 0.15124 0.87380
 O17 O 0.90875 0.06221 0.87536
 O18 O 0.87576 0.05509 0.84732
 O19 O 0.87648 0.18711 0.84138
 O20 O 0.90278 0.19365 0.87511
 O21 O 0.81341 0.15839 0.87477
 O22 O 0.80780 0.12463 0.90271
 O23 O 0.84225 0.12430 0.81215
 O24 O 0.87578 0.09791 0.80533
 Zr25 Zr 0.87480 0.12554 0.83149
 O26 O 0.89728 0.10304 0.85202
 Zr27 Zr 0.83243 0.12559 0.87365
 O28 O 0.85294 0.10267 0.89586
 Zr29 Zr 0.87493 0.16774 0.87388
 O30 O 0.89716 0.14693 0.89642
 Zr31 Zr 0.87621 0.08153 0.87489
 O32 O 0.85344 0.10217 0.85236
 Zr33 Zr 0.91850 0.12388 0.87535
 O34 O 0.89816 0.14669 0.85260
 Zr35 Zr 0.87596 0.12366 0.91739
 O36 O 0.85351 0.14673 0.89699
 O37 O 0.85248 0.14797 0.85142
 O38 O 0.89864 0.10120 0.89768
 C39 C 0.87709 0.18019 0.81935
 C40 C 0.82024 0.12333 0.81908
 C41 C 0.82047 0.18039 0.87565
 C42 C 0.87624 0.06888 0.92930
 C43 C 0.93077 0.06916 0.87543
 C44 C 0.93048 0.12338 0.93002
 H45 H 0.90733 0.09327 0.84108
 H46 H 0.90704 0.15778 0.90647
 H47 H 0.84225 0.15826 0.84110
 H48 H 0.84209 0.09246 0.90557
 H49 H 0.83598 0.06102 0.86389
 H50 H 0.80937 0.08580 0.88128
 H51 H 0.94180 0.16273 0.88701
 H52 H 0.91545 0.18801 0.86392
 H53 H 0.88847 0.05904 0.83553
 H54 H 0.86465 0.08519 0.81096
 H55 H 0.88679 0.16260 0.94088
 H56 H 0.86498 0.18805 0.91436
 H57 H 0.91532 0.13531 0.81121
 H58 H 0.94189 0.11302 0.83638
 H59 H 0.81269 0.13742 0.91412
 H60 H 0.83699 0.11198 0.94041
 O61 O 0.84164 0.68757 0.37568
 O62 O 0.87511 0.69461 0.40171
 O63 O 0.87625 0.65839 0.31275
 O64 O 0.89971 0.62715 0.30387
 O65 O 0.81246 0.62450 0.34189
 O66 O 0.80567 0.59839 0.37533
 O67 O 0.93740 0.59222 0.37613
 O68 O 0.94389 0.62364 0.34809
 O69 O 0.90812 0.62453 0.43740
 O70 O 0.87373 0.65166 0.44485
 O71 O 0.87587 0.56298 0.40829
 O72 O 0.84880 0.55541 0.37395
 O73 O 0.90847 0.56320 0.37607
 O74 O 0.87420 0.55582 0.34834
 O75 O 0.87579 0.59193 0.43728
 O76 O 0.84812 0.62632 0.44449
 O77 O 0.93720 0.62426 0.40856
 O78 O 0.94454 0.65216 0.37553
 O79 O 0.81262 0.65858 0.37575
 O80 O 0.80588 0.62495 0.40212
 O81 O 0.84144 0.62482 0.31292
 O82 O 0.87507 0.59672 0.30750
 O83 O 0.87557 0.68747 0.34168
 O84 O 0.90189 0.69434 0.37525
 Zr85 Zr 0.87419 0.66825 0.37427
 O86 O 0.89653 0.64773 0.39689
 Zr87 Zr 0.87415 0.62589 0.33205
 O88 O 0.89689 0.60365 0.35272
 Zr89 Zr 0.83187 0.62598 0.37438
 O90 O 0.85251 0.60345 0.39677
 Zr91 Zr 0.91801 0.62468 0.37597
 O92 O 0.89755 0.64721 0.35306
 Zr93 Zr 0.87554 0.62456 0.41810
 O94 O 0.85290 0.64731 0.39760
 Zr95 Zr 0.87577 0.58228 0.37574
 O96 O 0.85287 0.60269 0.35312
 O97 O 0.85178 0.64829 0.35194
 O98 O 0.89821 0.60204 0.39841
 C99 C 0.81963 0.68060 0.37633
 C100 C 0.87657 0.68044 0.31969
 C101 C 0.81943 0.62404 0.31988
 C102 C 0.93047 0.57019 0.37620
 C103 C 0.93016 0.62433 0.43053
 C104 C 0.87591 0.56992 0.43031
 H105 H 0.90629 0.65869 0.40693
 H106 H 0.84160 0.59347 0.40664
 H107 H 0.84156 0.65861 0.34164
 H108 H 0.90709 0.59385 0.34194
 H109 H 0.93869 0.63544 0.33580
 H110 H 0.91397 0.61794 0.30919
 H111 H 0.83662 0.61310 0.44132
 H112 H 0.81152 0.63617 0.41477
 H113 H 0.94057 0.66405 0.38817
 H114 H 0.91461 0.68863 0.36417
 H115 H 0.83678 0.55893 0.38659
 H116 H 0.81150 0.58548 0.36452
 H117 H 0.86438 0.68877 0.41466
 H118 H 0.88647 0.66361 0.44141
 H119 H 0.86226 0.58534 0.31241
 H120 H 0.88741 0.55906 0.33687
 O121 O 0.37504 0.15822 0.31287
 O122 O 0.40111 0.12477 0.30582
 O123 O 0.31222 0.12344 0.34216
 O124 O 0.30338 0.10010 0.37343
 O125 O 0.34142 0.18740 0.37587
 O126 O 0.37487 0.19429 0.40195
 O127 O 0.37584 0.06248 0.40823
 O128 O 0.34769 0.05594 0.37686
 O129 O 0.43699 0.09185 0.37584
 O130 O 0.44445 0.12617 0.34881
 O131 O 0.40796 0.12416 0.43739
 O132 O 0.37359 0.15115 0.44497
 O133 O 0.37581 0.09145 0.43722
 O134 O 0.34799 0.12570 0.44456
 O135 O 0.43689 0.12424 0.40843
 O136 O 0.44397 0.15194 0.37399
 O137 O 0.40818 0.06272 0.37614
 O138 O 0.37509 0.05528 0.34835
 O139 O 0.37520 0.18727 0.34183
 O140 O 0.40165 0.19406 0.37542
 O141 O 0.31245 0.15839 0.37561
 O142 O 0.30712 0.12479 0.40380
 O143 O 0.34108 0.12417 0.31306
 O144 O 0.37472 0.09790 0.30617
 Zr145 Zr 0.37373 0.12566 0.33220
 O146 O 0.39642 0.10336 0.35271
 Zr147 Zr 0.33159 0.12568 0.37460
 O148 O 0.35232 0.10297 0.39681
 Zr149 Zr 0.37391 0.16803 0.37442
 O150 O 0.39635 0.14744 0.39694
 Zr151 Zr 0.37556 0.08186 0.37579
 O152 O 0.35258 0.10228 0.35328
 Zr153 Zr 0.41766 0.12442 0.37584
 O154 O 0.39711 0.14701 0.35309
 Zr155 Zr 0.37537 0.12415 0.41812
 O156 O 0.35270 0.14702 0.39773
 O157 O 0.35142 0.14806 0.35216
 O158 O 0.39803 0.10172 0.39837
 C159 C 0.37571 0.18026 0.31982
 C160 C 0.31911 0.12310 0.32012
 C161 C 0.31941 0.18041 0.37634
 C162 C 0.37596 0.06943 0.43024
 C163 C 0.43014 0.06980 0.37605
 C164 C 0.42996 0.12414 0.43044
 H165 H 0.40645 0.09360 0.34176
 H166 H 0.40622 0.15838 0.40689
 H167 H 0.34109 0.15825 0.34184
 H168 H 0.34158 0.09275 0.40662
 H169 H 0.33537 0.06112 0.36509
 H170 H 0.30875 0.08583 0.38259
 H171 H 0.44088 0.16339 0.38727
 H172 H 0.41426 0.18846 0.36416
 H173 H 0.38765 0.05929 0.33642
 H174 H 0.36362 0.08518 0.31187
 H175 H 0.38617 0.16322 0.44140
 H176 H 0.36407 0.18846 0.41486
 H177 H 0.41407 0.13555 0.31163
 H178 H 0.44085 0.11358 0.33674
 H179 H 0.31203 0.13766 0.41511
 H180 H 0.33656 0.11242 0.44139
 O181 O 0.12386 0.34157 0.31261
 O182 O 0.09795 0.37510 0.30559
 O183 O 0.18696 0.37620 0.34160
 O184 O 0.19601 0.39959 0.37281
 O185 O 0.15768 0.31244 0.37551
 O186 O 0.12428 0.30577 0.40173
 O187 O 0.12378 0.43755 0.40783
 O188 O 0.15185 0.44393 0.37637
 O189 O 0.06243 0.40834 0.37573
 O190 O 0.05478 0.37393 0.34872
 O191 O 0.09160 0.37610 0.43718
 O192 O 0.12591 0.34896 0.44462
 O193 O 0.12383 0.40865 0.43683
 O194 O 0.15155 0.37437 0.44415
 O195 O 0.06254 0.37607 0.40834
 O196 O 0.05520 0.34828 0.37397
 O197 O 0.09136 0.43737 0.37587
 O198 O 0.12436 0.44459 0.34793
 O199 O 0.12372 0.31261 0.34161
 O200 O 0.09744 0.30597 0.37528
 O201 O 0.18674 0.34137 0.37512
 O202 O 0.19229 0.37505 0.40321
 O203 O 0.15800 0.37548 0.31260
 O204 O 0.12444 0.40186 0.30581
 Zr205 Zr 0.12541 0.37418 0.33188
 O206 O 0.10287 0.39661 0.35244
 Zr207 Zr 0.16770 0.37413 0.37411
 O208 O 0.14713 0.39697 0.39637
 Zr209 Zr 0.12525 0.33193 0.37415
 O210 O 0.10295 0.35265 0.39671
 Zr211 Zr 0.12389 0.41810 0.37540
 O212 O 0.14673 0.39755 0.35284
 Zr213 Zr 0.08164 0.37570 0.37567
 O214 O 0.10204 0.35297 0.35288
 Zr215 Zr 0.12410 0.37592 0.41778
 O216 O 0.14662 0.35292 0.39734
 O217 O 0.14772 0.35175 0.35178
 O218 O 0.10144 0.39837 0.39809
 C219 C 0.12312 0.31957 0.31960
 C220 C 0.18000 0.37650 0.31958
 C221 C 0.17971 0.31937 0.37591
 C222 C 0.12371 0.43065 0.42984
 C223 C 0.06936 0.43037 0.37589
 C224 C 0.06957 0.37619 0.43032
 H225 H 0.09283 0.40637 0.34151
 H226 H 0.09307 0.34178 0.40672
 H227 H 0.15797 0.34149 0.34143
 H228 H 0.15795 0.40718 0.40613
 H229 H 0.16411 0.43869 0.36455
 H230 H 0.19071 0.41393 0.38192
 H231 H 0.05829 0.33687 0.38726
 H232 H 0.08476 0.31163 0.36414
 H233 H 0.11172 0.44060 0.33607
 H234 H 0.13560 0.41455 0.31146
 H235 H 0.11321 0.33696 0.44116
 H236 H 0.13518 0.31158 0.41458
 H237 H 0.08494 0.36445 0.31148
 H238 H 0.05830 0.38656 0.33669
 H239 H 0.18740 0.36223 0.41457
 H240 H 0.16304 0.38758 0.44088
 O241 O 0.62473 0.84212 0.31276
 O242 O 0.59873 0.87565 0.30575
 O243 O 0.68764 0.87677 0.34209
 O244 O 0.69652 0.90019 0.37332
 O245 O 0.65829 0.81297 0.37581
 O246 O 0.62482 0.80618 0.40182
 O247 O 0.62417 0.93807 0.40818
 O248 O 0.65234 0.94446 0.37679
 O249 O 0.56295 0.90875 0.37579
 O250 O 0.55539 0.87443 0.34878
 O251 O 0.59193 0.87649 0.43733
 O252 O 0.62618 0.84952 0.44496
 O253 O 0.62414 0.90917 0.43716
 O254 O 0.65195 0.87478 0.44442
 O255 O 0.56298 0.87639 0.40838
 O256 O 0.55585 0.84866 0.37391
 O257 O 0.59182 0.93783 0.37607
 O258 O 0.62490 0.94517 0.34831
 O259 O 0.62453 0.81311 0.34170
 O260 O 0.59800 0.80648 0.37531
 O261 O 0.68731 0.84194 0.37558
 O262 O 0.69272 0.87560 0.40372
 O263 O 0.65880 0.87608 0.31297
 O264 O 0.62523 0.90243 0.30609
 Zr265 Zr 0.62613 0.87472 0.33211
 O266 O 0.60350 0.89711 0.35265
 Zr267 Zr 0.66825 0.87469 0.37452
 O268 O 0.64759 0.89749 0.39674
 Zr269 Zr 0.62585 0.83242 0.37431
 O270 O 0.60348 0.85312 0.39686
 Zr271 Zr 0.62439 0.91861 0.37573
 O272 O 0.64732 0.89810 0.35321
 Zr273 Zr 0.58221 0.87614 0.37578
 O274 O 0.60269 0.85347 0.35300
 Zr275 Zr 0.62450 0.87641 0.41806
 O276 O 0.64708 0.85343 0.39764
 O277 O 0.64838 0.85230 0.35208
 O278 O 0.60188 0.89884 0.39831
 C279 C 0.62402 0.82009 0.31969
 C280 C 0.68076 0.87708 0.32004
 C281 C 0.68031 0.81993 0.37631
 C282 C 0.62404 0.93120 0.43021
 C283 C 0.56984 0.93079 0.37598
 C284 C 0.56992 0.87651 0.43039
 H285 H 0.59349 0.90687 0.34170
 H286 H 0.59358 0.84221 0.40682
 H287 H 0.65869 0.84206 0.34176
 H288 H 0.65836 0.90771 0.40655
 H289 H 0.66463 0.93924 0.36499
 H290 H 0.69119 0.91450 0.38247
 H291 H 0.55891 0.83723 0.38720
 H292 H 0.58545 0.81208 0.36399
 H293 H 0.61239 0.94110 0.33634
 H294 H 0.63636 0.91513 0.31180
 H295 H 0.61367 0.83737 0.44131
 H296 H 0.63556 0.81204 0.41477
 H297 H 0.58576 0.86491 0.31156
 H298 H 0.55904 0.88696 0.33668
 H299 H 0.68780 0.86276 0.41504
 H300 H 0.66330 0.88815 0.44135
 O301 O 0.62452 0.65835 0.18712
 O302 O 0.59852 0.62480 0.19417
 O303 O 0.68746 0.62374 0.15793
 O304 O 0.69638 0.60025 0.12675
 O305 O 0.65811 0.68740 0.12403
 O306 O 0.62463 0.69405 0.09795
 O307 O 0.62412 0.56215 0.09192
 O308 O 0.65226 0.55590 0.12337
 O309 O 0.56282 0.59143 0.12419
 O310 O 0.55527 0.62583 0.15120
 O311 O 0.59180 0.62363 0.06263
 O312 O 0.62606 0.65066 0.05496
 O313 O 0.62407 0.59100 0.06287
 O314 O 0.65181 0.62540 0.05552
 O315 O 0.56285 0.62373 0.09156
 O316 O 0.55564 0.65147 0.12592
 O317 O 0.59172 0.56240 0.12398
 O318 O 0.62480 0.55521 0.15182
 O319 O 0.62432 0.68728 0.15810
 O320 O 0.59783 0.69380 0.12447
 O321 O 0.68717 0.65850 0.12436
 O322 O 0.69261 0.62480 0.09629
 O323 O 0.65859 0.62444 0.18702
 O324 O 0.62505 0.59806 0.19394
 Zr325 Zr 0.62594 0.62571 0.16784
 O326 O 0.60336 0.60321 0.14735
 Zr327 Zr 0.66811 0.62572 0.12547
 O328 O 0.64748 0.60282 0.10329
 Zr329 Zr 0.62568 0.66790 0.12553
 O330 O 0.60333 0.64710 0.10304
 Zr331 Zr 0.62428 0.58169 0.12433
 O332 O 0.64717 0.60232 0.14682
 Zr333 Zr 0.58206 0.62408 0.12417
 O334 O 0.60252 0.64686 0.14689
 Zr335 Zr 0.62438 0.62380 0.08191
 O336 O 0.64694 0.64687 0.10227
 O337 O 0.64820 0.64811 0.14784
 O338 O 0.60176 0.60137 0.10169
 C339 C 0.62381 0.68037 0.18013
 C340 C 0.68056 0.62347 0.17997
 C341 C 0.68015 0.68050 0.12357
 C342 C 0.62399 0.56900 0.06988
 C343 C 0.56973 0.56939 0.12403
 C344 C 0.56979 0.62359 0.06957
 H345 H 0.59334 0.59345 0.15832
 H346 H 0.59342 0.65796 0.09305
 H347 H 0.65849 0.65840 0.15814
 H348 H 0.65827 0.59260 0.09351
 H349 H 0.66453 0.56119 0.13516
 H350 H 0.69109 0.58593 0.11759
 H351 H 0.55877 0.66294 0.11269
 H352 H 0.58525 0.68820 0.13576
 H353 H 0.61221 0.55923 0.16373
 H354 H 0.63614 0.58534 0.18824
 H355 H 0.61352 0.66276 0.05856
 H356 H 0.63544 0.68820 0.08505
 H357 H 0.58555 0.63552 0.18833
 H358 H 0.55886 0.61325 0.16325
 H359 H 0.68767 0.63759 0.08493
 H360 H 0.66323 0.61212 0.05868
 O361 O 0.37580 0.84168 0.68743
 O362 O 0.40181 0.87521 0.69442
 O363 O 0.31286 0.87628 0.65820
 O364 O 0.30392 0.89954 0.62693
 O365 O 0.34211 0.81236 0.62450
 O366 O 0.37555 0.80559 0.59834
 O367 O 0.37624 0.93740 0.59204
 O368 O 0.34815 0.94387 0.62346
 O369 O 0.43752 0.90824 0.62431
 O370 O 0.44506 0.87393 0.65139
 O371 O 0.40845 0.87583 0.56285
 O372 O 0.37417 0.84873 0.55530
 O373 O 0.37622 0.90842 0.56307
 O374 O 0.34846 0.87404 0.55579
 O375 O 0.43744 0.87584 0.59175
 O376 O 0.44464 0.84818 0.62619
 O377 O 0.40865 0.93728 0.62403
 O378 O 0.37560 0.94461 0.65193
 O379 O 0.37597 0.81262 0.65847
 O380 O 0.40236 0.80588 0.62485
 O381 O 0.31310 0.84130 0.62478
 O382 O 0.30768 0.87489 0.59658
 O383 O 0.34175 0.87564 0.68728
 O384 O 0.37535 0.90199 0.69412
 Zr385 Zr 0.37438 0.87423 0.66809
 O386 O 0.39700 0.89660 0.64754
 Zr387 Zr 0.33219 0.87407 0.62575
 O388 O 0.35284 0.89684 0.60351
 Zr389 Zr 0.37457 0.83184 0.62588
 O390 O 0.39695 0.85250 0.60333
 Zr391 Zr 0.37607 0.91803 0.62449
 O392 O 0.35316 0.89754 0.64702
 Zr393 Zr 0.41825 0.87561 0.62438
 O394 O 0.39777 0.85295 0.64716
 Zr395 Zr 0.37589 0.87572 0.58217
 O396 O 0.35330 0.85278 0.60259
 O397 O 0.35209 0.85175 0.64816
 O398 O 0.39854 0.89822 0.60188
 C399 C 0.37651 0.81964 0.68048
 C400 C 0.31977 0.87665 0.68024
 C401 C 0.32009 0.81929 0.62406
 C402 C 0.37633 0.93045 0.57003
 C403 C 0.43064 0.93028 0.62409
 C404 C 0.43046 0.87592 0.56976
 H405 H 0.40703 0.90639 0.65847
 H406 H 0.40684 0.84159 0.59336
 H407 H 0.34179 0.84154 0.65851
 H408 H 0.34206 0.90702 0.59371
 H409 H 0.33586 0.93865 0.63527
 H410 H 0.30927 0.91385 0.61782
 H411 H 0.44153 0.83670 0.61293
 H412 H 0.41500 0.81155 0.63606
 H413 H 0.38825 0.94069 0.66379
 H414 H 0.36427 0.91470 0.68839
 H415 H 0.38674 0.83666 0.55891
 H416 H 0.36469 0.81138 0.58546
 H417 H 0.41479 0.86450 0.68857
 H418 H 0.44151 0.88658 0.66341
 H419 H 0.31257 0.86200 0.58527
 H420 H 0.33704 0.88732 0.55895
 O421 O 0.87604 0.34228 0.68767
 O422 O 0.90198 0.37586 0.69470
 O423 O 0.81298 0.37679 0.65862
 O424 O 0.80399 0.40020 0.62746
 O425 O 0.84226 0.31305 0.62465
 O426 O 0.87571 0.30636 0.59852
 O427 O 0.87621 0.43819 0.59246
 O428 O 0.84815 0.44457 0.62395
 O429 O 0.93756 0.40904 0.62460
 O430 O 0.94517 0.37468 0.65162
 O431 O 0.90844 0.37668 0.56313
 O432 O 0.87416 0.34958 0.55559
 O433 O 0.87618 0.40926 0.56344
 O434 O 0.84846 0.37489 0.55613
 O435 O 0.93747 0.37666 0.59199
 O436 O 0.94476 0.34899 0.62637
 O437 O 0.90868 0.43804 0.62444
 O438 O 0.87566 0.44530 0.65236
 O439 O 0.87616 0.31327 0.65867
 O440 O 0.90252 0.30663 0.62501
 O441 O 0.81322 0.34196 0.62502
 O442 O 0.80772 0.37565 0.59700
 O443 O 0.84191 0.37615 0.68765
 O444 O 0.87545 0.40258 0.69448
 Zr445 Zr 0.87452 0.37487 0.66840
 O446 O 0.89708 0.39730 0.64787
 Zr447 Zr 0.83227 0.37475 0.62613
 O448 O 0.85287 0.39758 0.60390
 Zr449 Zr 0.87471 0.33256 0.62611
 O450 O 0.89703 0.35330 0.60358
 Zr451 Zr 0.87611 0.41876 0.62488
 O452 O 0.85325 0.39820 0.64742
 Zr453 Zr 0.91833 0.37638 0.62465
 O454 O 0.89790 0.35366 0.64741
 Zr455 Zr 0.87591 0.37653 0.58249
 O456 O 0.85338 0.35352 0.60290
 O457 O 0.85222 0.35240 0.64846
 O458 O 0.89857 0.39902 0.60220
 C459 C 0.87675 0.32025 0.68068
 C460 C 0.81992 0.37711 0.68065
 C461 C 0.82023 0.31996 0.62421
 C462 C 0.87628 0.43127 0.57044
 C463 C 0.93068 0.43108 0.62445
 C464 C 0.93047 0.37675 0.57001
 H465 H 0.90712 0.40709 0.65881
 H466 H 0.90691 0.34241 0.59357
 H467 H 0.84195 0.34213 0.65878
 H468 H 0.84206 0.40778 0.59414
 H469 H 0.83590 0.43932 0.63578
 H470 H 0.80930 0.41453 0.61835
 H471 H 0.94162 0.33750 0.61313
 H472 H 0.91516 0.31229 0.63622
 H473 H 0.88828 0.44133 0.66424
 H474 H 0.86434 0.41528 0.68879
 H475 H 0.88678 0.33754 0.55911
 H476 H 0.86487 0.31217 0.58565
 H477 H 0.91498 0.36519 0.68881
 H478 H 0.94165 0.38733 0.66365
 H479 H 0.81261 0.36282 0.58563
 H480 H 0.83702 0.38814 0.55934
 O481 O 0.81298 0.87595 0.15854
 O482 O 0.80589 0.90182 0.12498
 O483 O 0.84193 0.81276 0.12409
 O484 O 0.87307 0.80366 0.10067
 O485 O 0.87605 0.84233 0.18762
 O486 O 0.90225 0.87581 0.19412
 O487 O 0.90797 0.87578 0.06239
 O488 O 0.87649 0.84763 0.05622
 O489 O 0.87592 0.93726 0.09142
 O490 O 0.84897 0.94501 0.12584
 O491 O 0.93748 0.90830 0.12368
 O492 O 0.94507 0.87409 0.15081
 O493 O 0.93708 0.87591 0.09119
 O494 O 0.94449 0.84830 0.12556
 O495 O 0.90862 0.93733 0.12369
 O496 O 0.87432 0.94476 0.15139
 O497 O 0.87598 0.90820 0.06253
 O498 O 0.84804 0.87511 0.05550
 O499 O 0.84207 0.87622 0.18742
 O500 O 0.87576 0.90264 0.19387
 O501 O 0.87558 0.81313 0.15882
 O502 O 0.90357 0.80750 0.12513
 O503 O 0.81292 0.84172 0.12474
 O504 O 0.80602 0.87519 0.09833
 Zr505 Zr 0.83218 0.87434 0.12592
 O506 O 0.85267 0.89682 0.10336
 Zr507 Zr 0.87445 0.83207 0.12602
 O508 O 0.89664 0.85258 0.10307
 Zr509 Zr 0.87458 0.87470 0.16804
 O510 O 0.89708 0.89696 0.14718
 Zr511 Zr 0.87560 0.87573 0.08191
 O512 O 0.85310 0.85295 0.10260
 Zr513 Zr 0.87596 0.91817 0.12412
 O514 O 0.85324 0.89783 0.14697
 Zr515 Zr 0.91811 0.87574 0.12396
 O516 O 0.89774 0.85328 0.14708
 O517 O 0.85217 0.85212 0.14836
 O518 O 0.89834 0.89830 0.10148
 C519 C 0.82003 0.87675 0.18053
 C520 C 0.81990 0.81971 0.12379
 C521 C 0.87644 0.82025 0.18079
 C522 C 0.93002 0.87592 0.06922
 C523 C 0.87601 0.93024 0.06943
 C524 C 0.93062 0.93035 0.12357
 H525 H 0.84171 0.90680 0.09359
 H526 H 0.90711 0.90689 0.15800
 H527 H 0.84186 0.84189 0.15867
 H528 H 0.90638 0.84173 0.09288
 H529 H 0.86468 0.83538 0.06153
 H530 H 0.88219 0.80889 0.08632
 H531 H 0.88754 0.94162 0.16289
 H532 H 0.86453 0.91526 0.18822
 H533 H 0.83618 0.88777 0.05946
 H534 H 0.81165 0.86401 0.08565
 H535 H 0.94159 0.88677 0.16282
 H536 H 0.91509 0.86491 0.18831
 H537 H 0.81180 0.91485 0.13561
 H538 H 0.83691 0.94142 0.11325
 H539 H 0.91498 0.81248 0.13787
 H540 H 0.94123 0.83679 0.11237
 O541 O 0.37511 0.34158 0.18727
 O542 O 0.40114 0.37511 0.19424
 O543 O 0.31224 0.37614 0.15793
 O544 O 0.30337 0.39940 0.12660
 O545 O 0.34149 0.31217 0.12436
 O546 O 0.37494 0.30533 0.09825
 O547 O 0.37577 0.43712 0.09173
 O548 O 0.34764 0.44368 0.12308
 O549 O 0.43698 0.40797 0.12418
 O550 O 0.44441 0.37366 0.15133
 O551 O 0.40799 0.37547 0.06270
 O552 O 0.37368 0.34839 0.05515
 O553 O 0.37576 0.40810 0.06280
 O554 O 0.34800 0.37374 0.05553
 O555 O 0.43692 0.37552 0.09166
 O556 O 0.44407 0.34793 0.12610
 O557 O 0.40813 0.43704 0.12381
 O558 O 0.37501 0.44443 0.15161
 O559 O 0.37529 0.31246 0.15838
 O560 O 0.40174 0.30565 0.12480
 O561 O 0.31249 0.34113 0.12456
 O562 O 0.30714 0.37466 0.09628
 O563 O 0.34111 0.37554 0.18702
 O564 O 0.37469 0.40189 0.19386
 Zr565 Zr 0.37375 0.37409 0.16788
 O566 O 0.39641 0.39641 0.14733
 Zr567 Zr 0.33161 0.37389 0.12549
 O568 O 0.35232 0.39660 0.10324
 Zr569 Zr 0.37396 0.33163 0.12575
 O570 O 0.39639 0.35223 0.10320
 Zr571 Zr 0.37553 0.41781 0.12421
 O572 O 0.35257 0.39738 0.14675
 Zr573 Zr 0.41768 0.37535 0.12425
 O574 O 0.39715 0.35275 0.14703
 Zr575 Zr 0.37539 0.37543 0.08196
 O576 O 0.35275 0.35254 0.10240
 O577 O 0.35147 0.35160 0.14797
 O578 O 0.39803 0.39795 0.10167
 C579 C 0.37580 0.31953 0.18037
 C580 C 0.31913 0.37653 0.17997
 C581 C 0.31947 0.31911 0.12390
 C582 C 0.37588 0.43014 0.06973
 C583 C 0.43011 0.43001 0.12393
 C584 C 0.42999 0.37555 0.06965
 H585 H 0.40643 0.40621 0.15826
 H586 H 0.40628 0.34130 0.09326
 H587 H 0.34115 0.34141 0.15831
 H588 H 0.34156 0.40678 0.09340
 H589 H 0.33531 0.43848 0.13485
 H590 H 0.30872 0.41367 0.11743
 H591 H 0.44093 0.33639 0.11291
 H592 H 0.41436 0.31132 0.13603
 H593 H 0.38763 0.44051 0.16351
 H594 H 0.36360 0.41459 0.18811
 H595 H 0.38624 0.33632 0.05878
 H596 H 0.36412 0.31111 0.08535
 H597 H 0.41411 0.36434 0.18846
 H598 H 0.44089 0.38636 0.16329
 H599 H 0.31204 0.36175 0.08501
 H600 H 0.33655 0.38699 0.05869
 O601 O 0.37566 0.65808 0.81275
 O602 O 0.40167 0.62457 0.80584
 O603 O 0.31262 0.62348 0.84179
 O604 O 0.30356 0.60022 0.87305
 O605 O 0.34180 0.68742 0.87557
 O606 O 0.37518 0.69418 0.90184
 O607 O 0.37581 0.56237 0.90814
 O608 O 0.34779 0.55587 0.87668
 O609 O 0.43718 0.59155 0.87603
 O610 O 0.44476 0.62592 0.84892
 O611 O 0.40795 0.62399 0.93741
 O612 O 0.37366 0.65105 0.94486
 O613 O 0.37573 0.59136 0.93711
 O614 O 0.34794 0.62571 0.94431
 O615 O 0.43702 0.62397 0.90858
 O616 O 0.44438 0.65158 0.87422
 O617 O 0.40829 0.56249 0.87622
 O618 O 0.37526 0.55519 0.84823
 O619 O 0.37576 0.68716 0.84169
 O620 O 0.40206 0.69391 0.87538
 O621 O 0.31277 0.65847 0.87521
 O622 O 0.30728 0.62487 0.90342
 O623 O 0.34161 0.62411 0.81281
 O624 O 0.37520 0.59777 0.80608
 Zr625 Zr 0.37418 0.62553 0.83210
 O626 O 0.39673 0.60317 0.85270
 Zr627 Zr 0.33185 0.62570 0.87431
 O628 O 0.35244 0.60293 0.89660
 Zr629 Zr 0.37426 0.66794 0.87429
 O630 O 0.39657 0.64728 0.89689
 Zr631 Zr 0.37572 0.58174 0.87569
 O632 O 0.35288 0.60222 0.85310
 Zr633 Zr 0.41793 0.62418 0.87591
 O634 O 0.39751 0.64683 0.85308
 Zr635 Zr 0.37545 0.62406 0.91801
 O636 O 0.35292 0.64699 0.89752
 O637 O 0.35183 0.64801 0.85194
 O638 O 0.39814 0.60156 0.89836
 C639 C 0.37636 0.68012 0.81969
 C640 C 0.31961 0.62310 0.81977
 C641 C 0.31977 0.68049 0.87594
 C642 C 0.37586 0.56933 0.93015
 C643 C 0.43029 0.56950 0.87623
 C644 C 0.42999 0.62390 0.93055
 H645 H 0.40678 0.59338 0.84179
 H646 H 0.40644 0.65820 0.90689
 H647 H 0.34158 0.65822 0.84157
 H648 H 0.34163 0.59274 0.90637
 H649 H 0.33551 0.56109 0.86488
 H650 H 0.30888 0.58591 0.88218
 H651 H 0.44117 0.66312 0.88738
 H652 H 0.41473 0.68824 0.86422
 H653 H 0.38800 0.55907 0.83644
 H654 H 0.36409 0.58506 0.81177
 H655 H 0.38622 0.66314 0.94128
 H656 H 0.36425 0.68841 0.91467
 H657 H 0.41465 0.63529 0.81172
 H658 H 0.44131 0.61318 0.83696
 H659 H 0.31214 0.63777 0.91473
 H660 H 0.33652 0.61242 0.94112
 O661 O 0.12437 0.65797 0.68745
 O662 O 0.09840 0.62447 0.69447
 O663 O 0.18731 0.62331 0.65819
 O664 O 0.19619 0.59997 0.62689
 O665 O 0.15813 0.68721 0.62457
 O666 O 0.12469 0.69398 0.59839
 O667 O 0.12378 0.56223 0.59200
 O668 O 0.15188 0.55571 0.62337
 O669 O 0.06257 0.59147 0.62435
 O670 O 0.05512 0.62584 0.65150
 O671 O 0.09166 0.62385 0.56291
 O672 O 0.12602 0.65090 0.55541
 O673 O 0.12382 0.59120 0.56307
 O674 O 0.15160 0.62546 0.55576
 O675 O 0.06268 0.62386 0.59183
 O676 O 0.05552 0.65152 0.62629
 O677 O 0.09140 0.56238 0.62406
 O678 O 0.12449 0.55504 0.65188
 O679 O 0.12423 0.68700 0.65852
 O680 O 0.09792 0.69381 0.62494
 O681 O 0.18711 0.65823 0.62480
 O682 O 0.19245 0.62462 0.59656
 O683 O 0.15843 0.62401 0.68728
 O684 O 0.12482 0.59767 0.69409
 Zr685 Zr 0.12579 0.62541 0.66810
 O686 O 0.10312 0.60307 0.64756
 Zr687 Zr 0.16797 0.62549 0.62575
 O688 O 0.14725 0.60275 0.60350
 Zr689 Zr 0.12564 0.66777 0.62593
 O690 O 0.10320 0.64714 0.60340
 Zr691 Zr 0.12401 0.58160 0.62447
 O692 O 0.14697 0.60206 0.64701
 Zr693 Zr 0.08188 0.62408 0.62444
 O694 O 0.10243 0.64671 0.64722
 Zr695 Zr 0.12422 0.62389 0.58220
 O696 O 0.14688 0.64680 0.60262
 O697 O 0.14810 0.64785 0.64819
 O698 O 0.10155 0.60142 0.60190
 C699 C 0.12366 0.68000 0.68051
 C700 C 0.18040 0.62297 0.68023
 C701 C 0.18014 0.68026 0.62411
 C702 C 0.12368 0.56919 0.57001
 C703 C 0.06942 0.56942 0.62413
 C704 C 0.06964 0.62380 0.56983
 H705 H 0.09309 0.59330 0.65849
 H706 H 0.09332 0.65806 0.59345
 H707 H 0.15841 0.65807 0.65854
 H708 H 0.15802 0.59254 0.59368
 H709 H 0.16421 0.56092 0.63515
 H710 H 0.19083 0.58567 0.61774
 H711 H 0.05863 0.66300 0.61305
 H712 H 0.08523 0.68813 0.63606
 H713 H 0.11188 0.55901 0.66378
 H714 H 0.13593 0.58496 0.68837
 H715 H 0.11341 0.66294 0.55897
 H716 H 0.13558 0.68819 0.58554
 H717 H 0.08540 0.63515 0.68863
 H718 H 0.05861 0.61314 0.66345
 H719 H 0.18757 0.63749 0.58527
 H720 H 0.16306 0.61223 0.55896
 O721 O 0.12363 0.15758 0.18780
 O722 O 0.09770 0.12403 0.19469
 O723 O 0.18671 0.12310 0.15870
 O724 O 0.19573 0.09977 0.12742
 O725 O 0.15753 0.18696 0.12502
 O726 O 0.12413 0.19372 0.09880
 O727 O 0.12350 0.06197 0.09222
 O728 O 0.15152 0.05545 0.12367
 O729 O 0.06214 0.09105 0.12439
 O730 O 0.05454 0.12537 0.15157
 O731 O 0.09137 0.12355 0.06310
 O732 O 0.12571 0.15069 0.05576
 O733 O 0.12358 0.09098 0.06333
 O734 O 0.15133 0.12530 0.05615
 O735 O 0.06230 0.12348 0.09192
 O736 O 0.05498 0.15109 0.12641
 O737 O 0.09103 0.06202 0.12415
 O738 O 0.12403 0.05470 0.15210
 O739 O 0.12355 0.18665 0.15892
 O740 O 0.09731 0.19345 0.12527
 O741 O 0.18655 0.15803 0.12530
 O742 O 0.19207 0.12443 0.09709
 O743 O 0.15775 0.12369 0.18770
 O744 O 0.12416 0.09726 0.19436
 Zr745 Zr 0.12517 0.12505 0.16841
 O746 O 0.10260 0.10270 0.14776
 Zr747 Zr 0.16747 0.12526 0.12619
 O748 O 0.14687 0.10251 0.10385
 Zr749 Zr 0.12507 0.16747 0.12630
 O750 O 0.10274 0.14682 0.10366
 Zr751 Zr 0.12360 0.08129 0.12472
 O752 O 0.14645 0.10176 0.14736
 Zr753 Zr 0.08140 0.12370 0.12460
 O754 O 0.10183 0.14634 0.14748
 Zr755 Zr 0.12387 0.12364 0.08250
 O756 O 0.14642 0.14656 0.10303
 O757 O 0.14750 0.14756 0.14860
 O758 O 0.10118 0.10111 0.10210
 C759 C 0.12293 0.17961 0.18089
 C760 C 0.17975 0.12272 0.18071
 C761 C 0.17956 0.18004 0.12459
 C762 C 0.12345 0.06896 0.07024
 C763 C 0.06904 0.06901 0.12415
 C764 C 0.06934 0.12345 0.06995
 H765 H 0.09254 0.09289 0.15865
 H766 H 0.09288 0.15774 0.09370
 H767 H 0.15776 0.15778 0.15899
 H768 H 0.15768 0.09233 0.09405
 H769 H 0.16379 0.06065 0.13551
 H770 H 0.19042 0.08548 0.11823
 H771 H 0.05811 0.16259 0.11319
 H772 H 0.08459 0.18773 0.13636
 H773 H 0.11135 0.05862 0.16394
 H774 H 0.13531 0.08459 0.18865
 H775 H 0.11305 0.16269 0.05928
 H776 H 0.13505 0.18796 0.08596
 H777 H 0.08468 0.13467 0.18881
 H778 H 0.05800 0.11264 0.16351
 H779 H 0.18719 0.13730 0.08578
 H780 H 0.16280 0.11208 0.05937
 O781 O 0.68772 0.37599 0.84227
 O782 O 0.69465 0.40189 0.87588
 O783 O 0.65881 0.31272 0.87653
 O784 O 0.62763 0.30361 0.89996
 O785 O 0.62487 0.34206 0.81296
 O786 O 0.59855 0.37544 0.80642
 O787 O 0.59239 0.37568 0.93811
 O788 O 0.62392 0.34767 0.94441
 O789 O 0.62443 0.43722 0.90919
 O790 O 0.65149 0.44496 0.87484
 O791 O 0.56303 0.40799 0.87672
 O792 O 0.55562 0.37370 0.84955
 O793 O 0.56339 0.37563 0.90920
 O794 O 0.55616 0.34796 0.87481
 O795 O 0.59183 0.43711 0.87681
 O796 O 0.62621 0.44460 0.84922
 O797 O 0.62433 0.40825 0.93809
 O798 O 0.65232 0.37523 0.94520
 O799 O 0.65873 0.37610 0.81330
 O800 O 0.62500 0.40237 0.80672
 O801 O 0.62528 0.31292 0.84175
 O802 O 0.59717 0.30727 0.87537
 O803 O 0.68776 0.34177 0.87599
 O804 O 0.69447 0.37528 0.90253
 Zr805 Zr 0.66842 0.37434 0.87483
 O806 O 0.64781 0.39681 0.89732
 Zr807 Zr 0.62625 0.33193 0.87458
 O808 O 0.60394 0.35244 0.89746
 Zr809 Zr 0.62615 0.37449 0.83256
 O810 O 0.60355 0.39673 0.85335
 Zr811 Zr 0.62485 0.37571 0.91870
 O812 O 0.64746 0.35294 0.89808
 Zr813 Zr 0.62454 0.41806 0.87649
 O814 O 0.64737 0.39773 0.85371
 Zr815 Zr 0.58248 0.37549 0.87650
 O816 O 0.60297 0.35304 0.85345
 O817 O 0.64855 0.35203 0.85232
 O818 O 0.60212 0.39816 0.89905
 C819 C 0.68074 0.37672 0.82026
 C820 C 0.68083 0.31973 0.87686
 C821 C 0.62452 0.31999 0.81978
 C822 C 0.57037 0.37571 0.93119
 C823 C 0.62429 0.43029 0.93120
 C824 C 0.56985 0.43005 0.87686
 H825 H 0.65872 0.40685 0.90713
 H826 H 0.59353 0.40661 0.84250
 H827 H 0.65892 0.34182 0.84203
 H828 H 0.59419 0.34158 0.90761
 H829 H 0.63575 0.33543 0.93912
 H830 H 0.61841 0.30883 0.91426
 H831 H 0.61303 0.44140 0.83769
 H832 H 0.63614 0.41505 0.81242
 H833 H 0.66417 0.38791 0.94128
 H834 H 0.68881 0.36407 0.91517
 H835 H 0.55914 0.38636 0.83755
 H836 H 0.58575 0.36446 0.81216
 H837 H 0.68874 0.41490 0.86526
 H838 H 0.66349 0.44147 0.88750
 H839 H 0.58581 0.31218 0.86257
 H840 H 0.55944 0.33645 0.88797
 O841 O 0.12415 0.84199 0.81227
 O842 O 0.09820 0.87548 0.80527
 O843 O 0.18714 0.87663 0.84148
 O844 O 0.19606 0.89998 0.87277
 O845 O 0.15791 0.81273 0.87513
 O846 O 0.12446 0.80599 0.90134
 O847 O 0.12368 0.93773 0.90772
 O848 O 0.15177 0.94427 0.87636
 O849 O 0.06242 0.90851 0.87540
 O850 O 0.05497 0.87410 0.84824
 O851 O 0.09153 0.87612 0.93683
 O852 O 0.12587 0.84905 0.94429
 O853 O 0.12374 0.90875 0.93665
 O854 O 0.15147 0.87451 0.94395
 O855 O 0.06254 0.87612 0.90793
 O856 O 0.05530 0.84847 0.87351
 O857 O 0.09129 0.93759 0.87568
 O858 O 0.12440 0.94490 0.84782
 O859 O 0.12400 0.81295 0.84119
 O860 O 0.09770 0.80614 0.87479
 O861 O 0.18692 0.84170 0.87488
 O862 O 0.19231 0.87535 0.90312
 O863 O 0.15822 0.87594 0.81242
 O864 O 0.12465 0.90230 0.80564
 Zr865 Zr 0.12560 0.87455 0.83163
 O866 O 0.10296 0.89690 0.85218
 Zr867 Zr 0.16781 0.87446 0.87394
 O868 O 0.14713 0.89721 0.89619
 Zr869 Zr 0.12544 0.83218 0.87379
 O870 O 0.10303 0.85283 0.89633
 Zr871 Zr 0.12388 0.91836 0.87525
 O872 O 0.14682 0.89790 0.85270
 Zr873 Zr 0.08171 0.87589 0.87531
 O874 O 0.10223 0.85325 0.85253
 Zr875 Zr 0.12409 0.87607 0.91751
 O876 O 0.14671 0.85316 0.89709
 O877 O 0.14791 0.85210 0.85151
 O878 O 0.10142 0.89854 0.89784
 C879 C 0.12343 0.81996 0.81921
 C880 C 0.18021 0.87697 0.81944
 C881 C 0.17994 0.81968 0.87558
 C882 C 0.12360 0.93077 0.92971
 C883 C 0.06930 0.93057 0.87561
 C884 C 0.06951 0.87619 0.92992
 H885 H 0.09293 0.90667 0.84125
 H886 H 0.09314 0.84190 0.90628
 H887 H 0.15819 0.84189 0.84116
 H888 H 0.15790 0.90742 0.90601
 H889 H 0.16410 0.93906 0.86459
 H890 H 0.19072 0.91428 0.88192
 H891 H 0.05845 0.83696 0.88670
 H892 H 0.08500 0.81183 0.86368
 H893 H 0.11175 0.94096 0.83595
 H894 H 0.13578 0.91499 0.81134
 H895 H 0.11325 0.83701 0.94073
 H896 H 0.13541 0.81175 0.91417
 H897 H 0.08519 0.86481 0.81112
 H898 H 0.05842 0.88684 0.83632
 H899 H 0.18744 0.86246 0.91440
 H900 H 0.16297 0.88771 0.94071
 O901 O 0.68782 0.12444 0.65755
 O902 O 0.69470 0.09853 0.62393
 O903 O 0.65858 0.18755 0.62335
 O904 O 0.62730 0.19655 0.60006
 O905 O 0.62500 0.15816 0.68710
 O906 O 0.59880 0.12468 0.69377
 O907 O 0.59215 0.12432 0.56208
 O908 O 0.62358 0.15242 0.55564
 O909 O 0.62447 0.06290 0.59095
 O910 O 0.65171 0.05534 0.62523
 O911 O 0.56311 0.09195 0.62361
 O912 O 0.55566 0.12618 0.65075
 O913 O 0.56325 0.12428 0.59110
 O914 O 0.55611 0.15197 0.62554
 O915 O 0.59199 0.06293 0.62343
 O916 O 0.62645 0.05557 0.65089
 O917 O 0.62417 0.09186 0.56202
 O918 O 0.65205 0.12498 0.55477
 O919 O 0.65896 0.12423 0.68666
 O920 O 0.62531 0.09785 0.69338
 O921 O 0.62520 0.18726 0.65826
 O922 O 0.59694 0.19276 0.62474
 O923 O 0.68763 0.15862 0.62381
 O924 O 0.69435 0.12514 0.59728
 Zr925 Zr 0.66839 0.12598 0.62507
 O926 O 0.64777 0.10342 0.60268
 Zr927 Zr 0.62609 0.16823 0.62546
 O928 O 0.60378 0.14762 0.60267
 Zr929 Zr 0.62629 0.12571 0.66752
 O930 O 0.60368 0.10338 0.64683
 Zr931 Zr 0.62467 0.12442 0.58137
 O932 O 0.64728 0.14729 0.60189
 Zr933 Zr 0.62465 0.08211 0.62363
 O934 O 0.64750 0.10254 0.64630
 Zr935 Zr 0.58246 0.12451 0.62373
 O936 O 0.60296 0.14705 0.64670
 O937 O 0.64855 0.14824 0.64765
 O938 O 0.60208 0.10189 0.60113
 C939 C 0.68094 0.12368 0.67959
 C940 C 0.68062 0.18063 0.62296
 C941 C 0.62455 0.18022 0.68025
 C942 C 0.57016 0.12422 0.56908
 C943 C 0.62422 0.06984 0.56894
 C944 C 0.57000 0.06992 0.62345
 H945 H 0.65867 0.09341 0.59284
 H946 H 0.59373 0.09346 0.65772
 H947 H 0.65892 0.15850 0.65789
 H948 H 0.59395 0.15844 0.59254
 H949 H 0.63540 0.16472 0.56088
 H950 H 0.61808 0.19127 0.58579
 H951 H 0.61333 0.05875 0.66248
 H952 H 0.63646 0.08520 0.68764
 H953 H 0.66393 0.11233 0.55865
 H954 H 0.68860 0.13629 0.58465
 H955 H 0.55931 0.11361 0.66280
 H956 H 0.58594 0.13561 0.68807
 H957 H 0.68888 0.08552 0.63461
 H958 H 0.66361 0.05883 0.61248
 H959 H 0.58565 0.18784 0.63760
 H960 H 0.55924 0.16343 0.61229
 C961 C 0.37736 0.80141 0.69871
 C962 C 0.37785 0.78603 0.71398
 C963 C 0.37818 0.76760 0.73215
 C964 C 0.36840 0.74487 0.72724
 C965 C 0.36839 0.72704 0.74498
 C966 C 0.37816 0.73186 0.76772
 C967 C 0.38801 0.75457 0.77261
 C968 C 0.38802 0.77241 0.75486
 C969 C 0.37778 0.71361 0.78607
 C970 C 0.37726 0.69832 0.80143
 H971 H 0.36072 0.74097 0.70975
 H972 H 0.36069 0.70955 0.74102
 H973 H 0.39557 0.75850 0.79015
 H974 H 0.39560 0.78993 0.75886
 C975 C 0.37648 0.19848 0.30159
 C976 C 0.37690 0.21385 0.28631
 C977 C 0.37715 0.23225 0.26811
 C978 C 0.36230 0.25249 0.27045
 C979 C 0.36232 0.27028 0.25267
 C980 C 0.37720 0.26791 0.23247
 C981 C 0.39210 0.24770 0.23014
 C982 C 0.39208 0.22990 0.24792
 C983 C 0.37698 0.28611 0.21406
 C984 C 0.37657 0.30136 0.19866
 H985 H 0.35066 0.25447 0.28597
 H986 H 0.35070 0.28581 0.25464
 H987 H 0.40366 0.24568 0.21457
 H988 H 0.40362 0.21431 0.24592
 C989 C 0.62318 0.80184 0.30140
 C990 C 0.62268 0.78652 0.28601
 C991 C 0.62231 0.76826 0.26760
 C992 C 0.63196 0.77312 0.24482
 C993 C 0.63192 0.75530 0.22702
 C994 C 0.62224 0.73252 0.23189
 C995 C 0.61252 0.72768 0.25465
 C996 C 0.61256 0.74551 0.27246
 C997 C 0.62254 0.71409 0.21365
 C998 C 0.62299 0.69867 0.19835
 H999 H 0.63958 0.79063 0.24086
 H1000 H 0.63952 0.75924 0.20951
 H1001 H 0.60501 0.71013 0.25863
 H1002 H 0.60508 0.74153 0.29001
 C1003 C 0.12211 0.30131 0.30143
 C1004 C 0.12148 0.28590 0.28618
 C1005 C 0.12096 0.26748 0.26802
 C1006 C 0.12020 0.27381 0.24364
 C1007 C 0.12017 0.25589 0.22597
 C1008 C 0.12090 0.23158 0.23261
 C1009 C 0.12155 0.22524 0.25699
 C1010 C 0.12159 0.24316 0.27466
 C1011 C 0.12136 0.21318 0.21442
 C1012 C 0.12195 0.19781 0.19913
 H1013 H 0.11976 0.29257 0.23832
 H1014 H 0.11971 0.26097 0.20716
 H1015 H 0.12216 0.20649 0.26230
 H1016 H 0.12222 0.23808 0.29346
 C1017 C 0.12272 0.69822 0.69872
 C1018 C 0.12213 0.71362 0.71397
 C1019 C 0.12165 0.73207 0.73212
 C1020 C 0.11905 0.72584 0.75639
 C1021 C 0.11901 0.74377 0.77406
 C1022 C 0.12156 0.76798 0.76750
 C1023 C 0.12406 0.77422 0.74322
 C1024 C 0.12411 0.75629 0.72556
 C1025 C 0.12197 0.78638 0.78570
 C1026 C 0.12252 0.80175 0.80098
 H1027 H 0.11718 0.70715 0.76164
 H1028 H 0.11710 0.73876 0.79279
 H1029 H 0.12609 0.79290 0.73798
 H1030 H 0.12617 0.76129 0.70683
 C1031 C 0.87803 0.19849 0.80119
 C1032 C 0.87858 0.21392 0.78597
 C1033 C 0.87898 0.23237 0.76782
 C1034 C 0.87547 0.25651 0.77427
 C1035 C 0.87541 0.27441 0.75660
 C1036 C 0.87885 0.26826 0.73239
 C1037 C 0.88245 0.24413 0.72595
 C1038 C 0.88251 0.22623 0.74362
 C1039 C 0.87834 0.28663 0.71417
 C1040 C 0.87773 0.30200 0.69888
 H1041 H 0.87268 0.26146 0.79292
 H1042 H 0.87257 0.29301 0.76178
 H1043 H 0.88509 0.23917 0.70728
 H1044 H 0.88520 0.20762 0.73843
 C1045 C 0.80166 0.37800 0.69885
 C1046 C 0.78629 0.37846 0.71414
 C1047 C 0.76790 0.37868 0.73237
 C1048 C 0.74772 0.36374 0.73007
 C1049 C 0.72998 0.36367 0.74791
 C1050 C 0.73235 0.37854 0.76814
 C1051 C 0.75250 0.39355 0.77042
 C1052 C 0.77025 0.39362 0.75257
 C1053 C 0.71421 0.37820 0.78661
 C1054 C 0.69895 0.37767 0.80202
 H1055 H 0.74575 0.35209 0.71455
 H1056 H 0.71449 0.35197 0.74598
 H1057 H 0.75452 0.40510 0.78601
 H1058 H 0.78580 0.40522 0.75455
 C1059 C 0.30142 0.62207 0.80151
 C1060 C 0.28618 0.62149 0.78609
 C1061 C 0.26805 0.62111 0.76762
 C1062 C 0.24688 0.60778 0.77086
 C1063 C 0.22913 0.60776 0.75301
 C1064 C 0.23248 0.62106 0.73187
 C1065 C 0.25369 0.63431 0.72860
 C1066 C 0.27143 0.63434 0.74644
 C1067 C 0.21408 0.62141 0.71366
 C1068 C 0.19869 0.62197 0.69840
 H1069 H 0.24407 0.59752 0.78718
 H1070 H 0.21278 0.59748 0.75574
 H1071 H 0.25645 0.64469 0.71234
 H1072 H 0.28771 0.64473 0.74376
 C1073 C 0.30084 0.12205 0.30193
 C1074 C 0.28555 0.12145 0.28656
 C1075 C 0.26738 0.12106 0.26812
 C1076 C 0.24637 0.10746 0.27126
 C1077 C 0.22860 0.10741 0.25344
 C1078 C 0.23177 0.12095 0.23241
 C1079 C 0.25281 0.13448 0.22925
 C1080 C 0.27058 0.13453 0.24707
 C1081 C 0.21336 0.12123 0.21421
 C1082 C 0.19799 0.12175 0.19893
 H1083 H 0.24370 0.09701 0.28748
 H1084 H 0.21237 0.09691 0.25608
 H1085 H 0.25544 0.14504 0.21309
 H1086 H 0.28674 0.14514 0.24447
 C1087 C 0.80206 0.12247 0.80080
 C1088 C 0.78682 0.12204 0.78538
 C1089 C 0.76867 0.12183 0.76691
 C1090 C 0.74920 0.10586 0.76840
 C1091 C 0.73143 0.10592 0.75057
 C1092 C 0.73307 0.12195 0.73119
 C1093 C 0.75257 0.13787 0.72968
 C1094 C 0.77033 0.13781 0.74750
 C1095 C 0.71466 0.12227 0.71299
 C1096 C 0.69926 0.12278 0.69773
 H1097 H 0.74772 0.09345 0.78336
 H1098 H 0.71641 0.09355 0.75193
 H1099 H 0.75400 0.15036 0.71478
 H1100 H 0.78529 0.15026 0.74618
 C1101 C 0.69908 0.87801 0.30190
 C1102 C 0.71449 0.87849 0.28665
 C1103 C 0.73290 0.87876 0.26845
 C1104 C 0.73004 0.89281 0.24773
 C1105 C 0.74780 0.89274 0.22989
 C1106 C 0.76849 0.87861 0.23272
 C1107 C 0.77139 0.86463 0.25348
 C1108 C 0.75363 0.86470 0.27130
 C1109 C 0.78664 0.87824 0.21426
 C1110 C 0.80187 0.87769 0.19882
 H1111 H 0.71406 0.90371 0.24532
 H1112 H 0.74537 0.90359 0.21390
 H1113 H 0.78730 0.85362 0.25583
 H1114 H 0.75601 0.85374 0.28724
 C1115 C 0.80144 0.69885 0.37715
 C1116 C 0.78617 0.71423 0.37759
 C1117 C 0.76797 0.73263 0.37783
 C1118 C 0.74812 0.73062 0.39323
 C1119 C 0.73031 0.74840 0.39322
 C1120 C 0.73230 0.76824 0.37781
 C1121 C 0.75219 0.77028 0.36246
 C1122 C 0.76999 0.75251 0.36247
 C1123 C 0.71389 0.78642 0.37755
 C1124 C 0.69852 0.80170 0.37712
 H1125 H 0.74638 0.71530 0.40516
 H1126 H 0.71498 0.74665 0.40514
 H1127 H 0.75389 0.78554 0.35046
 H1128 H 0.78526 0.75422 0.35048
 C1129 C 0.80202 0.30169 0.62333
 C1130 C 0.78663 0.28640 0.62279
 C1131 C 0.76819 0.26821 0.62240
 C1132 C 0.76700 0.25171 0.60336
 C1133 C 0.74912 0.23396 0.60312
 C1134 C 0.73238 0.23266 0.62192
 C1135 C 0.73356 0.24919 0.64094
 C1136 C 0.75142 0.26693 0.64117
 C1137 C 0.71413 0.21428 0.62189
 C1138 C 0.69882 0.19891 0.62218
 H1139 H 0.77988 0.25254 0.58875
 H1140 H 0.74839 0.22125 0.58834
 H1141 H 0.72072 0.24834 0.65558
 H1142 H 0.75219 0.27959 0.65599
 C1143 C 0.69834 0.69880 0.12276
 C1144 C 0.71364 0.71417 0.12232
 C1145 C 0.73191 0.73254 0.12206
 C1146 C 0.75249 0.72975 0.10776
 C1147 C 0.77037 0.74749 0.10779
 C1148 C 0.76773 0.76808 0.12212
 C1149 C 0.74712 0.77090 0.13636
 C1150 C 0.72925 0.75317 0.13633
 C1151 C 0.78622 0.78623 0.12242
 C1152 C 0.80164 0.80148 0.12291
 H1153 H 0.75474 0.71385 0.09668
 H1154 H 0.78624 0.74511 0.09674
 H1155 H 0.74491 0.78675 0.14753
 H1156 H 0.71343 0.75550 0.14748
 C1157 C 0.30124 0.30085 0.12327
 C1158 C 0.28588 0.28551 0.12302
 C1159 C 0.26755 0.26721 0.12300
 C1160 C 0.25176 0.26507 0.10347
 C1161 C 0.23384 0.24737 0.10359
 C1162 C 0.23165 0.23175 0.12326
 C1163 C 0.24747 0.23388 0.14277
 C1164 C 0.26537 0.25158 0.14264
 C1165 C 0.21319 0.21358 0.12349
 C1166 C 0.19779 0.19830 0.12388
 H1167 H 0.25327 0.27708 0.08820
 H1168 H 0.22170 0.24587 0.08842
 H1169 H 0.24593 0.22191 0.15807
 H1170 H 0.27748 0.25309 0.15785
 C1171 C 0.30154 0.69876 0.87655
 C1172 C 0.28618 0.71409 0.87680
 C1173 C 0.26780 0.73235 0.87682
 C1174 C 0.25840 0.74091 0.89861
 C1175 C 0.24051 0.75863 0.89855
 C1176 C 0.23195 0.76786 0.87672
 C1177 C 0.24136 0.75931 0.85495
 C1178 C 0.25924 0.74160 0.85500
 C1179 C 0.21356 0.78611 0.87659
 C1180 C 0.19818 0.80142 0.87626
 H1181 H 0.26488 0.73388 0.91559
 H1182 H 0.23336 0.76511 0.91549
 H1183 H 0.23489 0.76632 0.83796
 H1184 H 0.26638 0.73512 0.83805
 C1185 C 0.30119 0.19863 0.37706
 C1186 C 0.28586 0.21396 0.37742
 C1187 C 0.26759 0.23228 0.37757
 C1188 C 0.24793 0.23044 0.39325
 C1189 C 0.23004 0.24814 0.39316
 C1190 C 0.23176 0.26774 0.37740
 C1191 C 0.25144 0.26959 0.36177
 C1192 C 0.26932 0.25190 0.36185
 C1193 C 0.21330 0.28587 0.37712
 C1194 C 0.19791 0.30113 0.37668
 H1195 H 0.24641 0.21532 0.40546
 H1196 H 0.21488 0.24654 0.40531
 H1197 H 0.25293 0.28467 0.34950
 H1198 H 0.28444 0.25347 0.34964
 C1199 C 0.55154 0.62344 0.05134
 C1200 C 0.53616 0.62338 0.03605
 C1201 C 0.51778 0.62340 0.01783
 C1202 C 0.50442 0.60248 0.01327
 C1203 C 0.48652 0.60255 -0.00442
 C1204 C 0.48190 0.62353 -0.01761
 C1205 C 0.49527 0.64444 -0.01305
 C1206 C 0.51316 0.64437 0.00463
 C1207 C 0.46353 0.62362 -0.03584
 C1208 C 0.44818 0.62374 -0.05116
 H1209 H 0.50784 0.58617 0.02337
 H1210 H 0.47630 0.58628 -0.00781
 H1211 H 0.49185 0.66076 -0.02315
 H1212 H 0.52338 0.66064 0.00802
 C1213 C 0.44823 0.12404 0.44865
 C1214 C 0.46363 0.12398 0.46392
 C1215 C 0.48206 0.12396 0.48210
 C1216 C 0.48812 0.10254 0.49392
 C1217 C 0.50606 0.10253 0.51157
 C1218 C 0.51801 0.12396 0.51746
 C1219 C 0.51195 0.14538 0.50564
 C1220 C 0.49401 0.14538 0.48800
 C1221 C 0.53644 0.12399 0.53564
 C1222 C 0.55186 0.12408 0.55089
 H1223 H 0.47899 0.08587 0.48949
 H1224 H 0.51060 0.08587 0.52060
 H1225 H 0.52107 0.16205 0.51006
 H1226 H 0.48947 0.16205 0.47896
 C1227 C 0.55167 0.87661 0.44862
 C1228 C 0.53632 0.87664 0.46394
 C1229 C 0.51798 0.87659 0.48221
 C1230 C 0.50251 0.85681 0.48448
 C1231 C 0.48470 0.85671 0.50226
 C1232 C 0.48230 0.87641 0.51784
 C1233 C 0.49776 0.89621 0.51556
 C1234 C 0.51557 0.89630 0.49777
 C1235 C 0.46401 0.87627 0.53616
 C1236 C 0.44868 0.87611 0.55150
 H1237 H 0.50421 0.84147 0.47254
 H1238 H 0.47284 0.84131 0.50387
 H1239 H 0.49606 0.91153 0.52751
 H1240 H 0.52744 0.91169 0.49617
 C1241 C 0.05139 0.37644 0.44861
 C1242 C 0.03609 0.37662 0.46397
 C1243 C 0.01779 0.37675 0.48229
 C1244 C 0.00198 0.35722 0.48445
 C1245 C -0.01578 0.35731 0.50227
 C1246 C -0.01781 0.37693 0.51799
 C1247 C -0.00202 0.39647 0.51582
 C1248 C 0.01575 0.39639 0.49800
 C1249 C -0.03606 0.37695 0.53635
 C1250 C -0.05135 0.37689 0.55173
 H1251 H 0.00340 0.34195 0.47239
 H1252 H -0.02790 0.34210 0.50379
 H1253 H -0.00343 0.41173 0.52789
 H1254 H 0.02789 0.41159 0.49648
 C1255 C -0.05182 0.87607 0.05091
 C1256 C -0.03650 0.87618 0.03557
 C1257 C -0.01816 0.87625 0.01730
 C1258 C -0.01424 0.89692 0.00339
 C1259 C 0.00361 0.89697 -0.01434
 C1260 C 0.01761 0.87636 -0.01824
 C1261 C 0.01369 0.85570 -0.00433
 C1262 C -0.00415 0.85565 0.01340
 C1263 C 0.03595 0.87636 -0.03651
 C1264 C 0.05129 0.87631 -0.05183
 H1265 H -0.02497 0.91295 0.00626
 H1266 H 0.00649 0.91303 -0.02500
 H1267 H 0.02442 0.83967 -0.00720
 H1268 H -0.00703 0.83958 0.02406
 C1269 C -0.05138 0.12320 -0.05165
 C1270 C -0.03612 0.12311 -0.03625
 C1271 C -0.01788 0.12310 -0.01789
 C1272 C -0.01177 0.10164 -0.00616
 C1273 C 0.00597 0.10167 0.01169
 C1274 C 0.01766 0.12315 0.01788
 C1275 C 0.01155 0.14461 0.00615
 C1276 C -0.00618 0.14458 -0.01170
 C1277 C 0.03590 0.12321 0.03626
 C1278 C 0.05117 0.12330 0.05164
 H1279 H -0.02070 0.08493 -0.01081
 H1280 H 0.01056 0.08498 0.02066
 H1281 H 0.02048 0.16132 0.01080
 H1282 H -0.01077 0.16128 -0.02066
 C1283 C 0.12327 0.05078 0.05195
 C1284 C 0.12316 0.03558 0.03649
 C1285 C 0.12312 0.01752 0.01796
 C1286 C 0.14130 0.01737 0.00051
 C1287 C 0.14130 -0.00020 -0.01752
 C1288 C 0.12312 -0.01765 -0.01815
 C1289 C 0.10491 -0.01749 -0.00072
 C1290 C 0.10491 0.00008 0.01731
 C1291 C 0.12322 -0.03579 -0.03661
 C1292 C 0.12337 -0.05103 -0.05203
 H1293 H 0.15545 0.03079 0.00085
 H1294 H 0.15546 -0.00018 -0.03091
 H1295 H 0.09078 -0.03093 -0.00105
 H1296 H 0.09077 0.00006 0.03073
 C1297 C 0.12349 0.44890 0.44804
 C1298 C 0.12334 0.46419 0.46342
 C1299 C 0.12324 0.48238 0.48182
 C1300 C 0.10526 0.48236 0.49949
 C1301 C 0.10526 0.49998 0.51747
 C1302 C 0.12324 0.51766 0.51783
 C1303 C 0.14120 0.51769 0.50014
 C1304 C 0.14119 0.50008 0.48216
 C1305 C 0.12331 0.53576 0.53632
 C1306 C 0.12345 0.55099 0.55176
 H1307 H 0.09130 0.46873 0.49938
 H1308 H 0.09130 0.49981 0.53107
 H1309 H 0.15517 0.53130 0.50026
 H1310 H 0.15518 0.50024 0.46858
 C1311 C 0.37610 0.44835 0.05148
 C1312 C 0.37622 0.46367 0.03613
 C1313 C 0.37625 0.48195 0.01781
 C1314 C 0.35511 0.49468 0.01268
 C1315 C 0.35510 0.51243 -0.00515
 C1316 C 0.37622 0.51752 -0.01792
 C1317 C 0.39737 0.50480 -0.01279
 C1318 C 0.39739 0.48704 0.00504
 C1319 C 0.37617 0.53578 -0.03627
 C1320 C 0.37605 0.55109 -0.05162
 H1321 H 0.33867 0.49088 0.02244
 H1322 H 0.33865 0.52216 -0.00897
 H1323 H 0.41381 0.50860 -0.02256
 H1324 H 0.41383 0.47731 0.00886
 C1325 C 0.87609 0.55168 0.44854
 C1326 C 0.87624 0.53641 0.46394
 C1327 C 0.87636 0.51823 0.48236
 C1328 C 0.85769 0.50131 0.48353
 C1329 C 0.85774 0.48370 0.50148
 C1330 C 0.87645 0.48292 0.51835
 C1331 C 0.89514 0.49983 0.51717
 C1332 C 0.89509 0.51745 0.49921
 C1333 C 0.87647 0.46478 0.53681
 C1334 C 0.87641 0.44952 0.55222
 H1335 H 0.84311 0.50176 0.47059
 H1336 H 0.84321 0.47070 0.50223
 H1337 H 0.90971 0.49938 0.53012
 H1338 H 0.90961 0.53045 0.49847
 C1339 C 0.87634 0.05059 -0.05252
 C1340 C 0.87639 0.03529 -0.03716
 C1341 C 0.87638 0.01711 -0.01874
 C1342 C 0.89670 0.00260 -0.01525
 C1343 C 0.89667 -0.01502 0.00271
 C1344 C 0.87633 -0.01820 0.01726
 C1345 C 0.85601 -0.00369 0.01376
 C1346 C 0.85604 0.01392 -0.00419
 C1347 C 0.87626 -0.03635 0.03571
 C1348 C 0.87616 -0.05158 0.05114
 H1349 H 0.91253 0.00492 -0.02639
 H1350 H 0.91248 -0.02615 0.00525
 H1351 H 0.84018 -0.00601 0.02490
 H1352 H 0.84023 0.02505 -0.00673
 C1353 C 0.62382 -0.05148 0.44747
 C1354 C 0.62367 -0.03609 0.46280
 C1355 C 0.62357 -0.01772 0.48111
 C1356 C 0.60988 -0.02080 0.50206
 C1357 C 0.60991 -0.00300 0.51990
 C1358 C 0.62364 0.01796 0.51687
 C1359 C 0.63729 0.02105 0.49590
 C1360 C 0.63726 0.00325 0.47807
 C1361 C 0.62378 0.03624 0.53527
 C1362 C 0.62397 0.05156 0.55066
 H1363 H 0.59923 -0.03694 0.50461
 H1364 H 0.59929 -0.00559 0.53603
 H1365 H 0.64797 0.03717 0.49337
 H1366 H 0.64791 0.00583 0.46195
 C1367 C 0.44846 0.05166 0.37618
 C1368 C 0.46384 0.03638 0.37625
 C1369 C 0.48218 0.01813 0.37626
 C1370 C 0.49243 0.01054 0.39799
 C1371 C 0.51025 -0.00723 0.39798
 C1372 C 0.51787 -0.01747 0.37624
 C1373 C 0.50762 -0.00987 0.35451
 C1374 C 0.48981 0.00789 0.35452
 C1375 C 0.53620 -0.03573 0.37620
 C1376 C 0.55156 -0.05103 0.37612
 H1377 H 0.48665 0.01834 0.41490
 H1378 H 0.51806 -0.01298 0.41488
 H1379 H 0.51340 -0.01767 0.33760
 H1380 H 0.48200 0.01364 0.33762
 C1381 C -0.05208 -0.05241 0.12339
 C1382 C -0.03675 -0.03705 0.12331
 C1383 C -0.01848 -0.01868 0.12335
 C1384 C -0.00548 -0.01370 0.10233
 C1385 C 0.01228 0.00416 0.10242
 C1386 C 0.01711 0.01711 0.12352
 C1387 C 0.00410 0.01213 0.14452
 C1388 C -0.01366 -0.00572 0.14444
 C1389 C 0.03541 0.03544 0.12366
 C1390 C 0.05076 0.05079 0.12386
 H1391 H -0.00906 -0.02362 0.08592
 H1392 H 0.02224 0.00785 0.08608
 H1393 H 0.00768 0.02203 0.16094
 H1394 H -0.02360 -0.00942 0.16078
 C1395 C 0.55145 0.55117 0.12388
 C1396 C 0.53611 0.53583 0.12378
 C1397 C 0.51781 0.51749 0.12372
 C1398 C 0.50476 0.51268 0.10269
 C1399 C 0.48696 0.49487 0.10266
 C1400 C 0.48214 0.48180 0.12367
 C1401 C 0.49519 0.48661 0.14469
 C1402 C 0.51299 0.50442 0.14472
 C1403 C 0.46379 0.46351 0.12369
 C1404 C 0.44842 0.44820 0.12377
 H1405 H 0.50834 0.52269 0.08635
 H1406 H 0.47697 0.49130 0.08631
 H1407 H 0.49161 0.47662 0.16103
 H1408 H 0.52297 0.50799 0.16108
 C1409 C -0.05203 0.44833 0.62426
 C1410 C -0.03668 0.46367 0.62411
 C1411 C -0.01837 0.48200 0.62401
 C1412 C -0.00394 0.48535 0.60361
 C1413 C 0.01388 0.50315 0.60355
 C1414 C 0.01733 0.51767 0.62389
 C1415 C 0.00289 0.51433 0.64427
 C1416 C -0.01492 0.49653 0.64433
 C1417 C 0.03571 0.53594 0.62389
 C1418 C 0.05110 0.55123 0.62397
 H1419 H -0.00646 0.47422 0.58779
 H1420 H 0.02495 0.50558 0.58769
 H1421 H 0.00542 0.52545 0.66010
 H1422 H -0.02598 0.49410 0.66020
 C1423 C 0.44857 0.55128 0.87650
 C1424 C 0.46393 0.53595 0.87670
 C1425 C 0.48225 0.51764 0.87685
 C1426 C 0.48501 0.50265 0.89693
 C1427 C 0.50278 0.48482 0.89702
 C1428 C 0.51787 0.48190 0.87703
 C1429 C 0.51512 0.49689 0.85697
 C1430 C 0.49735 0.51472 0.85687
 C1431 C 0.53616 0.46355 0.87708
 C1432 C 0.55152 0.44823 0.87702
 H1433 H 0.47343 0.50474 0.91247
 H1434 H 0.50475 0.47333 0.91263
 H1435 H 0.52669 0.49480 0.84142
 H1436 H 0.49538 0.52620 0.84125
 C1437 C 0.62379 0.55065 0.05167
 C1438 C 0.62366 0.53527 0.03634
 C1439 C 0.62356 0.51694 0.01798
 C1440 C 0.62658 0.52330 -0.00623
 C1441 C 0.62663 0.50549 -0.02405
 C1442 C 0.62367 0.48124 -0.01777
 C1443 C 0.62061 0.47489 0.00643
 C1444 C 0.62055 0.49270 0.02426
 C1445 C 0.62386 0.46291 -0.03612
 C1446 C 0.62405 0.44756 -0.05149
 H1447 H 0.62892 0.54198 -0.01130
 H1448 H 0.62902 0.51062 -0.04270
 H1449 H 0.61830 0.45621 0.01151
 H1450 H 0.61821 0.48757 0.04292
 C1451 C 0.37625 0.05118 0.44847
 C1452 C 0.37645 0.03587 0.46382
 C1453 C 0.37660 0.01760 0.48215
 C1454 C 0.36070 -0.00192 0.48066
 C1455 C 0.36074 -0.01962 0.49853
 C1456 C 0.37668 -0.01787 0.51798
 C1457 C 0.39262 0.00164 0.51946
 C1458 C 0.39257 0.01934 0.50158
 C1459 C 0.37664 -0.03605 0.53640
 C1460 C 0.37653 -0.05132 0.55179
 H1461 H 0.34828 -0.00344 0.46571
 H1462 H 0.34835 -0.03463 0.49721
 H1463 H 0.40502 0.00317 0.53443
 H1464 H 0.40494 0.03437 0.50291
 C1465 C -0.05166 0.62414 0.44883
 C1466 C -0.03635 0.62400 0.46417
 C1467 C -0.01802 0.62390 0.48245
 C1468 C -0.01289 0.60269 0.49507
 C1469 C 0.00495 0.60261 0.51282
 C1470 C 0.01773 0.62373 0.51801
 C1471 C 0.01259 0.64494 0.50539
 C1472 C -0.00524 0.64502 0.48765
 C1473 C 0.03606 0.62369 0.53628
 C1474 C 0.05141 0.62371 0.55160
 H1475 H -0.02267 0.58625 0.49119
 H1476 H 0.00877 0.58611 0.52248
 H1477 H 0.02236 0.66138 0.50927
 H1478 H -0.00906 0.66152 0.47799
 C1479 C 0.44827 0.37568 0.05145
 C1480 C 0.46371 0.37576 0.03622
 C1481 C 0.48220 0.37582 0.01811
 C1482 C 0.48519 0.39589 0.00315
 C1483 C 0.50319 0.39592 -0.01445
 C1484 C 0.51827 0.37589 -0.01714
 C1485 C 0.51529 0.35583 -0.00217
 C1486 C 0.49729 0.35580 0.01541
 C1487 C 0.53672 0.37587 -0.03531
 C1488 C 0.55213 0.37581 -0.05057
 H1489 H 0.47362 0.41147 0.00508
 H1490 H 0.50533 0.41152 -0.02593
 H1491 H 0.52684 0.34025 -0.00411
 H1492 H 0.49515 0.34019 0.02689
 C1493 C 0.44892 -0.05150 0.62386
 C1494 C 0.46425 -0.03615 0.62368
 C1495 C 0.48251 -0.01778 0.62355
 C1496 C 0.49651 -0.01402 0.60293
 C1497 C 0.51427 0.00385 0.60283
 C1498 C 0.51808 0.01801 0.62335
 C1499 C 0.50407 0.01426 0.64395
 C1500 C 0.48632 -0.00360 0.64405
 C1501 C 0.53639 0.03634 0.62330
 C1502 C 0.55173 0.05169 0.62334
 H1503 H 0.49371 -0.02488 0.58697
 H1504 H 0.52501 0.00660 0.58680
 H1505 H 0.50687 0.02511 0.65992
 H1506 H 0.47559 -0.00635 0.66009
 C1507 C -0.05130 0.55196 0.37637
 C1508 C -0.03601 0.53659 0.37644
 C1509 C -0.01781 0.51820 0.37643
 C1510 C -0.00715 0.51095 0.39808
 C1511 C 0.01054 0.49305 0.39803
 C1512 C 0.01761 0.48233 0.37633
 C1513 C 0.00694 0.48958 0.35468
 C1514 C -0.01073 0.50748 0.35473
 C1515 C 0.03583 0.46396 0.37624
 C1516 C 0.05113 0.44859 0.37609
 H1517 H -0.01249 0.51913 0.41495
 H1518 H 0.01868 0.48757 0.41487
 H1519 H 0.01229 0.48141 0.33781
 H1520 H -0.01887 0.51295 0.33790
 C1521 C -0.05196 0.05189 0.87561
 C1522 C -0.03661 0.03654 0.87574
 C1523 C -0.01829 0.01821 0.87582
 C1524 C -0.01590 0.00278 0.89562
 C1525 C 0.00188 -0.01505 0.89565
 C1526 C 0.01735 -0.01753 0.87589
 C1527 C 0.01496 -0.00209 0.85611
 C1528 C -0.00282 0.01573 0.85608
 C1529 C 0.03564 -0.03588 0.87587
 C1530 C 0.05099 -0.05122 0.87578
 H1531 H -0.02776 0.00453 0.91098
 H1532 H 0.00356 -0.02688 0.91104
 H1533 H 0.02681 -0.00385 0.84073
 H1534 H -0.00450 0.02755 0.84068
 C1535 C 0.80123 0.62320 0.30162
 C1536 C 0.78601 0.62270 0.28618
 C1537 C 0.76792 0.62234 0.26767
 C1538 C 0.74768 0.60746 0.26997
 C1539 C 0.73000 0.60732 0.25205
 C1540 C 0.73251 0.62206 0.23175
 C1541 C 0.75278 0.63688 0.22943
 C1542 C 0.77045 0.63702 0.24734
 C1543 C 0.71419 0.62222 0.21346
 C1544 C 0.69884 0.62263 0.19815
 H1545 H 0.74553 0.59606 0.28563
 H1546 H 0.71438 0.59583 0.25405
 H1547 H 0.75488 0.64837 0.21383
 H1548 H 0.78601 0.64860 0.24538
 C1549 C 0.30148 0.87769 0.69841
 C1550 C 0.28607 0.87828 0.71365
 C1551 C 0.26762 0.87868 0.73181
 C1552 C 0.24646 0.86536 0.72854
 C1553 C 0.22866 0.86540 0.74632
 C1554 C 0.23194 0.87878 0.76745
 C1555 C 0.25306 0.89218 0.77069
 C1556 C 0.27087 0.89213 0.75290
 C1557 C 0.21374 0.87848 0.78586
 C1558 C 0.19845 0.87795 0.80124
 H1559 H 0.24378 0.85487 0.71232
 H1560 H 0.21241 0.85495 0.74364
 H1561 H 0.25579 0.90255 0.78698
 H1562 H 0.28718 0.90247 0.75563
 C1563 C 0.19823 0.37747 0.30136
 C1564 C 0.21358 0.37802 0.28606
 C1565 C 0.23195 0.37838 0.26781
 C1566 C 0.22845 0.39147 0.24656
 C1567 C 0.24618 0.39149 0.22870
 C1568 C 0.26748 0.37841 0.23203
 C1569 C 0.27100 0.36539 0.25331
 C1570 C 0.25327 0.36537 0.27116
 C1571 C 0.28561 0.37809 0.21356
 C1572 C 0.30088 0.37754 0.19816
 H1573 H 0.21200 0.40156 0.24378
 H1574 H 0.24326 0.40159 0.21230
 H1575 H 0.28738 0.35518 0.25605
 H1576 H 0.25615 0.35516 0.28751
 C1577 C 0.87749 0.69868 0.30149
 C1578 C 0.87796 0.71412 0.28627
 C1579 C 0.87821 0.73265 0.26820
 C1580 C 0.86376 0.75313 0.27098
 C1581 C 0.86371 0.77103 0.25331
 C1582 C 0.87812 0.76854 0.23278
 C1583 C 0.89263 0.74810 0.23002
 C1584 C 0.89267 0.73018 0.24770
 C1585 C 0.87778 0.78682 0.21446
 C1586 C 0.87728 0.80211 0.19910
 H1587 H 0.85248 0.75520 0.28674
 H1588 H 0.85240 0.78675 0.25561
 H1589 H 0.90382 0.74598 0.21420
 H1590 H 0.90389 0.71441 0.24535
 C1591 C 0.62385 0.30180 0.80143
 C1592 C 0.62350 0.28648 0.78603
 C1593 C 0.62332 0.26818 0.76766
 C1594 C 0.63898 0.26991 0.74799
 C1595 C 0.63901 0.25203 0.73024
 C1596 C 0.62336 0.23232 0.73208
 C1597 C 0.60766 0.23060 0.75173
 C1598 C 0.60764 0.24849 0.76948
 C1599 C 0.62355 0.21385 0.71387
 C1600 C 0.62389 0.19845 0.69856
 H1601 H 0.65120 0.28503 0.74640
 H1602 H 0.65124 0.25354 0.71514
 H1603 H 0.59550 0.21544 0.75335
 H1604 H 0.59547 0.24694 0.78463
 C1605 C 0.80229 0.19871 0.87651
 C1606 C 0.78701 0.21410 0.87703
 C1607 C 0.76876 0.23249 0.87740
 C1608 C 0.75275 0.23412 0.89681
 C1609 C 0.73491 0.25188 0.89702
 C1610 C 0.73300 0.26810 0.87782
 C1611 C 0.74904 0.26649 0.85843
 C1612 C 0.76688 0.24873 0.85822
 C1613 C 0.71454 0.28628 0.87785
 C1614 C 0.69912 0.30153 0.87758
 H1615 H 0.75403 0.22164 0.91173
 H1616 H 0.72259 0.25295 0.91209
 H1617 H 0.74773 0.27892 0.84348
 H1618 H 0.77914 0.24764 0.84311
 C1619 C 0.30185 0.80103 0.62339
 C1620 C 0.28646 0.78574 0.62308
 C1621 C 0.26803 0.76754 0.62300
 C1622 C 0.26265 0.75498 0.60180
 C1623 C 0.24473 0.73727 0.60181
 C1624 C 0.23212 0.73208 0.62302
 C1625 C 0.23750 0.74466 0.64420
 C1626 C 0.25541 0.76235 0.64420
 C1627 C 0.21376 0.71381 0.62312
 C1628 C 0.19839 0.69850 0.62344
 H1629 H 0.27229 0.75885 0.58532
 H1630 H 0.24072 0.72764 0.58533
 H1631 H 0.22788 0.74077 0.66070
 H1632 H 0.25943 0.77195 0.66069
   
