data_POSCAR
  _audit_creation_date              2014-09-24
  _audit_creation_method            'ToBaCCo'
  _symmetry_space_group_name_H-M    'P1'
  _symmetry_Int_Tables_number       1
  _symmetry_cell_setting            triclinic
  loop_
  _symmetry_equiv_pos_as_xyz
 x,y,z
_cell_length_a 48.7301
_cell_length_b 48.9536
_cell_length_c 48.4693
_cell_angle_alpha 89.996900
_cell_angle_beta 89.592100
_cell_angle_gamma 89.834500
loop_
  _atom_site_label
  _atom_site_type_symbol
  _atom_site_fract_x
  _atom_site_fract_y
  _atom_site_fract_z
C1 C 0.28954 0.44896 0.94038
 C2 C 0.30906 0.44696 0.96121
 C3 C 0.31365 0.42221 0.97519
 C4 C 0.29783 0.39918 0.96826
 C5 C 0.27833 0.40068 0.94706
 C6 C 0.27420 0.42579 0.93352
 H7 H 0.32100 0.46477 0.96647
 H8 H 0.30134 0.37980 0.97838
 H9 H 0.25954 0.42740 0.91701
 C10 C 0.46220 0.85468 0.45141
 C11 C 0.47339 0.85823 0.42490
 C12 C 0.47152 0.83766 0.40470
 C13 C 0.45894 0.81275 0.41161
 C14 C 0.44769 0.80863 0.43812
 C15 C 0.44947 0.82959 0.45776
 H16 H 0.48342 0.87730 0.42004
 H17 H 0.45706 0.79705 0.39603
 H18 H 0.44046 0.82611 0.47787
 C19 C 0.93157 0.93476 0.79966
 C20 C 0.94717 0.93071 0.82354
 C21 C 0.93716 0.93884 0.84968
 C22 C 0.91080 0.95068 0.85136
 C23 C 0.89450 0.95388 0.82766
 C24 C 0.90515 0.94600 0.80196
 H25 H 0.96739 0.92180 0.82132
 H26 H 0.90261 0.95658 0.87131
 H27 H 0.89260 0.94836 0.78377
 C28 C 0.45355 -0.05977 0.28510
 C29 C 0.47101 -0.05110 0.30618
 C30 C 0.46014 -0.03959 0.33055
 C31 C 0.43155 -0.03763 0.33378
 C32 C 0.41393 -0.04705 0.31306
 C33 C 0.42513 -0.05744 0.28857
 H34 H 0.49295 -0.05333 0.30337
 H35 H 0.42312 -0.02903 0.35260
 H36 H 0.41161 -0.06512 0.27272
 C37 C 0.83495 0.27962 0.32931
 C38 C 0.85819 0.28311 0.31238
 C39 C 0.86089 0.30636 0.29564
 C40 C 0.84013 0.32628 0.29581
 C41 C 0.81696 0.32343 0.31271
 C42 C 0.81436 0.29983 0.32917
 H43 H 0.87453 0.26813 0.31256
 H44 H 0.84247 0.34470 0.28371
 H45 H 0.79654 0.29725 0.34231
 C46 C -0.22154 0.82952 0.81121
 C47 C -0.19943 0.83447 0.79316
 C48 C -0.18190 0.81341 0.78450
 C49 C -0.18649 0.78679 0.79395
 C50 C -0.20844 0.78111 0.81223
 C51 C -0.22567 0.80275 0.82089
 H52 H -0.19548 0.85505 0.78598
 H53 H -0.17260 0.77085 0.78718
 H54 H -0.24248 0.79856 0.83495
 C55 C 0.96570 0.33127 0.47056
 C56 C 0.94760 0.30954 0.47395
 C57 C 0.94508 0.28982 0.45332
 C58 C 0.96076 0.29184 0.42888
 C59 C 0.97880 0.31385 0.42504
 C60 C 0.98123 0.33322 0.44625
 H61 H 0.93504 0.30806 0.49239
 H62 H 0.95828 0.27687 0.41264
 H63 H 0.99479 0.35044 0.44384
 C64 C 0.43421 0.44283 0.85538
 C65 C 0.41180 0.46065 0.85221
 C66 C 0.39982 0.46481 0.82613
 C67 C 0.41026 0.45094 0.80300
 C68 C 0.43300 0.43343 0.80564
 C69 C 0.44441 0.42931 0.83176
 H70 H 0.40364 0.47147 0.86998
 H71 H 0.40107 0.45444 0.78305
 H72 H 0.46154 0.41542 0.83327
 C73 C 0.77918 0.88195 0.92646
 C74 C 0.80293 0.88347 0.94251
 C75 C 0.81601 0.90859 0.94754
 C76 C 0.80537 0.93243 0.93572
 C77 C 0.78162 0.93162 0.91938
 C78 C 0.76873 0.90626 0.91475
 H79 H 0.81123 0.86482 0.95103
 H80 H 0.81575 0.95156 0.93940
 H81 H 0.75050 0.90570 0.90219
 C82 C 0.30660 0.82590 0.31079
 C83 C 0.32913 0.82724 0.29247
 C84 C 0.35158 0.80919 0.29463
 C85 C 0.35158 0.78988 0.31604
 C86 C 0.32931 0.78832 0.33473
 C87 C 0.30707 0.80632 0.33197
 H88 H 0.32923 0.84265 0.27648
 H89 H 0.36892 0.77617 0.31809
 H90 H 0.29019 0.80478 0.34648
 C91 C 0.82358 0.40416 0.43916
 C92 C 0.83960 0.41193 0.46193
 C93 C 0.85034 0.43881 0.46378
 C94 C 0.84427 0.45763 0.44276
 C95 C 0.82683 0.45057 0.42105
 C96 C 0.81650 0.42403 0.41963
 H97 H 0.84490 0.39660 0.47707
 H98 H 0.85242 0.47814 0.44389
 H99 H 0.80303 0.41878 0.40281
 C100 C 0.93698 0.82060 -0.05501
 C101 C 0.91847 0.79870 -0.05783
 C102 C 0.91517 0.78543 -0.08312
 C103 C 0.93052 0.79391 -0.10602
 C104 C 0.94902 0.81567 -0.10410
 C105 C 0.95214 0.82903 -0.07849
 H106 H 0.90619 0.79177 -0.04058
 H107 H 0.92759 0.78389 -0.12568
 H108 H 0.96626 0.84594 -0.07677
 C109 C 0.29715 0.34995 0.80892
 C110 C 0.28954 0.32402 0.81874
 C111 C 0.30487 0.30063 0.81200
 C112 C 0.32807 0.30336 0.79493
 C113 C 0.33576 0.32897 0.78445
 C114 C 0.31997 0.35221 0.79119
 H115 H 0.27168 0.32200 0.83198
 H116 H 0.34055 0.28570 0.78997
 H117 H 0.32618 0.37218 0.78388
 C118 C 0.17691 0.55822 0.55380
 C119 C 0.17186 0.54489 0.57916
 C120 C 0.18823 0.55018 0.60249
 C121 C 0.20986 0.56874 0.60004
 C122 C 0.21536 0.58197 0.57498
 C123 C 0.19876 0.57688 0.55208
 H124 H 0.15491 0.53077 0.58072
 H125 H 0.22232 0.57313 0.61790
 H126 H 0.20325 0.58736 0.53295
 C127 C 0.58659 0.66448 0.03680
 C128 C 0.56150 0.65052 0.03409
 C129 C 0.53820 0.65844 0.04952
 C130 C 0.54034 0.68046 0.06800
 C131 C 0.56506 0.69469 0.07054
 C132 C 0.58798 0.68667 0.05488
 H133 H 0.55992 0.63343 0.02007
 H134 H 0.52296 0.68667 0.08052
 H135 H 0.60726 0.69732 0.05736
 C136 C 0.69572 0.20870 0.66604
 C137 C 0.68085 0.21979 0.68841
 C138 C 0.67294 0.20342 0.71083
 C139 C 0.67973 0.17542 0.71076
 C140 C 0.69356 0.16355 0.68812
 C141 C 0.70180 0.18070 0.66609
 H142 H 0.67559 0.24126 0.68880
 H143 H 0.67304 0.16261 0.72773
 H144 H 0.71318 0.17258 0.64872
 C145 C 1.08180 0.04310 0.18620
 C146 C 1.08341 0.06647 0.20281
 C147 C 1.06011 0.08290 0.20769
 C148 C 1.03495 0.07577 0.19580
 C149 C 1.03285 0.05202 0.17950
 C150 C 1.05642 0.03595 0.17505
 H151 H 1.10296 0.07215 0.21160
 H152 H 1.01726 0.08866 0.19962
 H153 H 1.05491 0.01758 0.16281
 C154 C 0.03373 0.15000 1.06114
 C155 C 0.03939 0.16819 1.08303
 C156 C 0.06010 0.18815 1.08039
 C157 C 0.07461 0.18969 1.05504
 C158 C 0.06920 0.17183 1.03311
 C159 C 0.04881 0.15196 1.03647
 H160 H 0.02812 0.16641 1.10228
 H161 H 0.09057 0.20461 1.05197
 H162 H 0.04448 0.13785 1.01991
 C163 C 0.16465 0.72371 0.68264
 C164 C 0.16174 0.70382 0.70323
 C165 C 0.18355 0.68634 0.70989
 C166 C 0.20864 0.68896 0.69588
 C167 C 0.21225 0.70903 0.67544
 C168 C 0.19008 0.72621 0.66882
 H169 H 0.14213 0.70148 0.71357
 H170 H 0.22517 0.67506 0.70086
 H171 H 0.19283 0.74144 0.65290
 C172 C 1.21632 0.15190 0.16788
 C173 C 1.20660 0.16505 0.19158
 C174 C 1.19072 0.18876 0.18945
 C175 C 1.18434 0.19902 0.16325
 C176 C 1.19355 0.18572 0.13926
 C177 C 1.21019 0.16247 0.14170
 H178 H 1.21101 0.15629 0.21156
 H179 H 1.17181 0.21723 0.16159
 H180 H 1.21716 0.15187 0.12331
 C181 C 0.65456 1.06826 0.56808
 C182 C 0.67683 1.08596 0.56315
 C183 C 0.70322 1.07989 0.57280
 C184 C 0.70731 1.05545 0.58735
 C185 C 0.68576 1.03703 0.59141
 C186 C 0.65953 1.04318 0.58126
 H187 H 0.67376 1.10477 0.55191
 H188 H 0.72726 1.05030 0.59551
 H189 H 0.64263 1.02943 0.58549
 C190 C 0.54019 0.57007 0.18842
 C191 C 0.54573 0.59667 0.19789
 C192 C 0.56574 0.60128 0.21804
 C193 C 0.57984 0.57877 0.22912
 C194 C 0.57437 0.55213 0.22024
 C195 C 0.55472 0.54792 0.19954
 H196 H 0.53488 0.61391 0.18911
 H197 H 0.59501 0.58166 0.24499
 H198 H 0.55064 0.52752 0.19201
 C199 C 0.68593 0.70440 0.18019
 C200 C 0.68184 0.68102 0.19657
 C201 C 0.69462 0.65598 0.18976
 C202 C 0.71173 0.65468 0.16656
 C203 C 0.71552 0.67759 0.14964
 C204 C 0.70245 0.70227 0.15631
 H205 H 0.66901 0.68260 0.21481
 H206 H 0.72147 0.63547 0.16111
 H207 H 0.70536 0.71968 0.14287
 C208 C 0.15000 0.02624 1.06229
 C209 C 0.17381 0.01943 1.07745
 C210 C 0.19936 0.03153 1.07170
 C211 C 0.20107 0.05105 1.05047
 C212 C 0.17789 0.05775 1.03484
 C213 C 0.15255 0.04525 1.04076
 H214 H 0.17286 0.00469 1.09396
 H215 H 0.22037 0.06088 1.04569
 H216 H 0.13462 0.05089 1.02893
 C217 C 0.59283 0.20821 0.54047
 C218 C 0.59559 0.21846 0.56725
 C219 C 0.57364 0.21718 0.58624
 C220 C 0.54837 0.20651 0.57765
 C221 C 0.54545 0.19634 0.55075
 C222 C 0.56754 0.19758 0.53230
 H223 H 0.61519 0.22665 0.57338
 H224 H 0.53161 0.20462 0.59232
 H225 H 0.56496 0.18946 0.51173
 C226 C 0.07269 0.57788 0.71390
 C227 C 0.08020 0.56507 0.68911
 C228 C 0.07073 0.57484 0.66381
 C229 C 0.05341 0.59761 0.66332
 C230 C 0.04609 0.61113 0.68781
 C231 C 0.05595 0.60142 0.71315
 H232 H 0.09286 0.54686 0.68963
 H233 H 0.04578 0.60501 0.64373
 H234 H 0.05018 0.61189 0.73198
 C235 C 0.65099 0.53884 0.05263
 C236 C 0.67427 0.55256 0.04248
 C237 C 0.70008 0.54892 0.05468
 C238 C 0.70234 0.53120 0.07754
 C239 C 0.67928 0.51695 0.08748
 C240 C 0.65384 0.52082 0.07481
 H241 H 0.67242 0.56641 0.02524
 H242 H 0.72180 0.52844 0.08777
 H243 H 0.63589 0.51054 0.08297
 C244 C 0.06295 0.70991 0.56386
 C245 C 0.06009 0.68595 0.54826
 C246 C 0.08286 0.67359 0.53568
 C247 C 0.10907 0.68504 0.53905
 C248 C 0.11262 0.70837 0.55545
 C249 C 0.08929 0.72081 0.56761
 H250 H 0.04013 0.67669 0.54577
 H251 H 0.12681 0.67525 0.52973
 H252 H 0.09141 0.73920 0.57976
 C253 C 0.52173 1.08195 0.67537
 C254 C 0.52287 1.10310 0.69508
 C255 C 0.54158 1.10225 0.71705
 C256 C 0.55900 1.07943 0.71951
 C257 C 0.55863 1.05824 0.70006
 C258 C 0.53996 1.05965 0.67804
 H259 H 0.50963 1.12073 0.69315
 H260 H 0.57374 1.07833 0.73602
 H261 H 0.53985 1.04357 0.66272
 C262 C 0.42655 0.32838 0.96886
 C263 C 0.43993 0.33502 0.94401
 C264 C 0.43461 0.32063 0.91950
 C265 C 0.41622 0.29878 0.92024
 C266 C 0.40233 0.29189 0.94475
 C267 C 0.40722 0.30694 0.96894
 H268 H 0.45480 0.35136 0.94396
 H269 H 0.41209 0.28753 0.90147
 H270 H 0.39628 0.30154 0.98764
 C271 C 0.94029 0.44696 0.34062
 C272 C 0.91846 0.45196 0.32225
 C273 C 0.91988 0.44384 0.29454
 C274 C 0.94320 0.42940 0.28522
 C275 C 0.96535 0.42459 0.30285
 C276 C 0.96400 0.43386 0.33036
 H277 H 0.90040 0.46297 0.32903
 H278 H 0.94461 0.42220 0.26417
 H279 H 0.98104 0.42984 0.34403
 C280 C 0.28897 0.93790 0.41098
 C281 C 0.30890 0.95849 0.41193
 C282 C 0.33136 0.95637 0.42962
 C283 C 0.33365 0.93363 0.44671
 C284 C 0.31390 0.91288 0.44651
 C285 C 0.29159 0.91487 0.42833
 H286 H 0.30676 0.97625 0.39883
 H287 H 0.35149 0.93181 0.45976
 H288 H 0.27662 0.89860 0.42772
 O289 O 0.15070 0.55023 0.79169
 O290 O 0.16578 0.55459 0.83657
 O291 O 0.21441 0.58975 0.74480
 O292 O 0.25934 0.58502 0.73764
 O293 O 0.18444 0.51022 0.71697
 O294 O 0.18754 0.46580 0.73295
 O295 O 0.30053 0.52972 0.81262
 O296 O 0.28817 0.57441 0.80602
 O297 O 0.23987 0.49216 0.85884
 O298 O 0.18893 0.49056 0.85645
 O299 O 0.26662 0.45189 0.78885
 O300 O 0.26196 0.45814 0.74010
 O301 O 0.30053 0.49130 0.78631
 O302 O 0.28623 0.49143 0.73444
 O303 O 0.23742 0.45306 0.82562
 O304 O 0.18709 0.45972 0.82905
 O305 O 0.26906 0.52790 0.85276
 O306 O 0.25744 0.57695 0.83945
 O307 O 0.14980 0.51710 0.75874
 O308 O 0.16314 0.46827 0.76846
 O309 O 0.21340 0.54572 0.70897
 O310 O 0.26394 0.54755 0.71541
 O311 O 0.18521 0.59024 0.78173
 O312 O 0.19538 0.58502 0.83084
 Zr313 Zr 0.19210 0.55299 0.80176
 O314 O 0.22035 0.53312 0.82732
 Zr315 Zr 0.23403 0.55124 0.74711
 O316 O 0.26505 0.53263 0.77106
 Zr317 Zr 0.19018 0.50060 0.75858
 O318 O 0.21986 0.47881 0.78119
 Zr319 Zr 0.25983 0.54247 0.81297
 O320 O 0.23164 0.56444 0.78863
 Zr321 Zr 0.21674 0.49064 0.82268
 O322 O 0.18539 0.51058 0.80044
 Zr323 Zr 0.26016 0.48997 0.76956
 O324 O 0.23026 0.50852 0.74371
 O325 O 0.19437 0.54271 0.76001
 O326 O 0.25682 0.50003 0.81104
 C327 C 0.13850 0.53627 0.77319
 C328 C 0.19599 0.60114 0.76018
 C329 C 0.19539 0.52815 0.70112
 C330 C 0.31230 0.50856 0.80249
 C331 C 0.25948 0.50766 0.86665
 C332 C 0.25587 0.44138 0.81064
 H333 H 0.21748 0.53883 0.84668
 H334 H 0.21661 0.45905 0.77862
 H335 H 0.18094 0.55239 0.74829
 H336 H 0.28336 0.53839 0.76439
 H337 H 0.27840 0.58861 0.79534
 H338 H 0.27553 0.58372 0.74975
 H339 H 0.18791 0.44728 0.81299
 H340 H 0.15345 0.47349 0.78570
 H341 H 0.24642 0.57206 0.85592
 H342 H 0.21095 0.59659 0.82483
 H343 H 0.24506 0.44722 0.74238
 H344 H 0.20553 0.46417 0.72348
 H345 H 0.16094 0.53544 0.84093
 H346 H 0.19190 0.50742 0.86725
 H347 H 0.26161 0.52923 0.70712
 H348 H 0.30065 0.50517 0.73787
 O349 O 0.18154 0.02090 0.21523
 O350 O 0.17885 0.02907 0.26124
 O351 O 0.26672 0.04906 0.19886
 O352 O 0.30909 0.03584 0.20996
 O353 O 0.23223 -0.01991 0.15936
 O354 O 0.23090 -0.06728 0.17201
 O355 O 0.30443 -0.01811 0.29619
 O356 O 0.30202 0.02768 0.28701
 O357 O 0.22462 -0.04533 0.31188
 O358 O 0.18087 -0.04056 0.28727
 O359 O 0.27565 -0.08916 0.26094
 O360 O 0.28819 -0.08952 0.21549
 O361 O 0.31343 -0.05383 0.26735
 O362 O 0.31691 -0.05735 0.21362
 O363 O 0.23409 -0.08393 0.28202
 O364 O 0.18749 -0.07200 0.26006
 O365 O 0.26137 -0.01768 0.31849
 O366 O 0.25920 0.03467 0.30337
 O367 O 0.18648 -0.01681 0.18805
 O368 O 0.19480 -0.06576 0.19564
 O369 O 0.26869 0.00843 0.16512
 O370 O 0.31383 -0.00226 0.19070
 O371 O 0.22439 0.05631 0.21776
 O372 O 0.21336 0.05284 0.26887
 Zr373 Zr 0.21610 0.01995 0.24066
 O374 O 0.22730 -0.00316 0.27559
 Zr375 Zr 0.27549 0.00876 0.20827
 O376 O 0.29064 -0.01194 0.24300
 Zr377 Zr 0.22427 -0.03441 0.19958
 O378 O 0.23857 -0.05896 0.23226
 Zr379 Zr 0.26983 -0.00012 0.27940
 O380 O 0.25864 0.02452 0.24541
 Zr381 Zr 0.22020 -0.04510 0.26898
 O382 O 0.20458 -0.02152 0.23614
 Zr383 Zr 0.28102 -0.05332 0.23816
 O384 O 0.26747 -0.03279 0.20211
 O385 O 0.23314 0.00676 0.20379
 O386 O 0.26222 -0.04150 0.27477
 C387 C 0.17317 0.00434 0.19663
 C388 C 0.24521 0.06352 0.20278
 C389 C 0.25002 -0.00275 0.15022
 C390 C 0.31851 -0.03887 0.28862
 C391 C 0.24343 -0.03507 0.32697
 C392 C 0.25648 -0.09715 0.27723
 H393 H 0.21764 0.00362 0.29224
 H394 H 0.23443 -0.07838 0.22858
 H395 H 0.22548 0.01789 0.18866
 H396 H 0.31061 -0.00867 0.24440
 H397 H 0.29962 0.04297 0.27387
 H398 H 0.31327 0.03825 0.22972
 H399 H 0.19524 -0.08834 0.25083
 H400 H 0.18014 -0.06184 0.20931
 H401 H 0.24663 0.02887 0.31836
 H402 H 0.23110 0.06262 0.26799
 H403 H 0.27318 -0.09077 0.20194
 H404 H 0.25063 -0.06703 0.16699
 H405 H 0.17045 0.01122 0.26580
 H406 H 0.18083 -0.02332 0.29790
 H407 H 0.31038 -0.01719 0.17740
 H408 H 0.33066 -0.04439 0.22082
 O409 O 0.60515 0.75588 0.23484
 O410 O 0.59615 0.77086 0.28229
 O411 O 0.53920 0.70633 0.21472
 O412 O 0.49418 0.70856 0.21097
 O413 O 0.56470 0.77382 0.16040
 O414 O 0.55821 0.82134 0.16107
 O415 O 0.45639 0.78603 0.26851
 O416 O 0.47016 0.74004 0.27402
 O417 O 0.52179 0.83381 0.29521
 O418 O 0.56889 0.83696 0.28695
 O419 O 0.48545 0.84996 0.21893
 O420 O 0.48892 0.82976 0.17280
 O421 O 0.45350 0.80994 0.22841
 O422 O 0.46461 0.79775 0.17956
 O423 O 0.51648 0.86073 0.25199
 O424 O 0.56936 0.85568 0.24879
 O425 O 0.49300 0.79829 0.30384
 O426 O 0.50228 0.74855 0.30471
 O427 O 0.60237 0.78368 0.19729
 O428 O 0.58676 0.83092 0.19164
 O429 O 0.53679 0.73714 0.16707
 O430 O 0.48665 0.73726 0.17841
 O431 O 0.57087 0.71754 0.24706
 O432 O 0.56851 0.73887 0.29166
 Zr433 Zr 0.56586 0.75954 0.25347
 O434 O 0.53854 0.78579 0.27460
 Zr435 Zr 0.51893 0.74372 0.20667
 O436 O 0.48935 0.76873 0.22644
 Zr437 Zr 0.56111 0.79646 0.19658
 O438 O 0.53296 0.82384 0.21450
 Zr439 Zr 0.49782 0.77287 0.26877
 O440 O 0.52539 0.74470 0.24981
 Zr441 Zr 0.53992 0.82497 0.25707
 O442 O 0.57027 0.79970 0.23868
 Zr443 Zr 0.49292 0.80855 0.21063
 O444 O 0.52079 0.78303 0.18912
 O445 O 0.55903 0.75660 0.21135
 O446 O 0.49933 0.81236 0.25289
 C447 C 0.61534 0.76694 0.21296
 C448 C 0.55877 0.70032 0.23137
 C449 C 0.55373 0.75145 0.15252
 C450 C 0.44303 0.80031 0.25078
 C451 C 0.50396 0.82133 0.31009
 C452 C 0.49619 0.86649 0.23628
 H453 H 0.54352 0.78636 0.29432
 H454 H 0.53503 0.84201 0.20584
 H455 H 0.57162 0.74371 0.20189
 H456 H 0.47083 0.76105 0.22370
 H457 H 0.48006 0.72330 0.26816
 H458 H 0.47868 0.71359 0.22325
 H459 H 0.56300 0.86636 0.23272
 H460 H 0.59717 0.83293 0.20899
 H461 H 0.51757 0.75598 0.31568
 H462 H 0.55152 0.72797 0.29353
 H463 H 0.50384 0.84339 0.17173
 H464 H 0.53997 0.81774 0.15301
 H465 H 0.60485 0.78773 0.27516
 H466 H 0.57539 0.82010 0.29605
 H467 H 0.48827 0.75154 0.16403
 H468 H 0.45401 0.78182 0.18620
 O469 O -0.04181 0.86196 0.71438
 O470 O -0.04345 0.84959 0.66724
 O471 O -0.07905 0.79327 0.75469
 O472 O -0.07092 0.74893 0.76011
 O473 O -0.00042 0.82654 0.78574
 O474 O 0.04299 0.82692 0.77182
 O475 O -0.01341 0.71476 0.68480
 O476 O -0.05946 0.72547 0.69183
 O477 O 0.02271 0.77703 0.64105
 O478 O 0.01782 0.82967 0.64552
 O479 O 0.06256 0.75137 0.70733
 O480 O 0.05836 0.75756 0.75574
 O481 O 0.02372 0.71491 0.71300
 O482 O 0.02641 0.72714 0.76180
 O483 O 0.06071 0.78375 0.67372
 O484 O 0.05085 0.83158 0.67134
 O485 O -0.01342 0.74800 0.64532
 O486 O -0.06227 0.75524 0.65847
 O487 O -0.00806 0.86246 0.74660
 O488 O 0.04143 0.85183 0.73465
 O489 O -0.03578 0.79671 0.79096
 O490 O -0.03374 0.74691 0.78325
 O491 O -0.08041 0.82436 0.71976
 O492 O -0.07370 0.81951 0.67077
 Zr493 Zr -0.04201 0.82146 0.70028
 O494 O -0.02098 0.79510 0.67314
 Zr495 Zr -0.03884 0.77696 0.75226
 O496 O -0.01805 0.74846 0.72705
 Zr497 Zr 0.01009 0.82329 0.74382
 O498 O 0.03346 0.79636 0.71899
 Zr499 Zr -0.02820 0.75474 0.68552
 O500 O -0.05172 0.78092 0.71093
 Zr501 Zr 0.02140 0.80050 0.67761
 O502 O 0.00024 0.82971 0.70214
 Zr503 Zr 0.02461 0.75538 0.72866
 O504 O 0.00389 0.78242 0.75628
 O505 O -0.03206 0.81737 0.74182
 O506 O 0.01425 0.75968 0.68740
 C507 C -0.02807 0.87359 0.73354
 C508 C -0.09136 0.81150 0.74009
 C509 C -0.01917 0.81489 0.80022
 C510 C 0.00697 0.70300 0.69646
 C511 C 0.00734 0.75768 0.63220
 C512 C 0.07299 0.76462 0.68681
 H513 H -0.02678 0.79846 0.65396
 H514 H 0.05315 0.80040 0.72147
 H515 H -0.04291 0.82947 0.75411
 H516 H -0.02303 0.72979 0.73297
 H517 H -0.07432 0.73468 0.70236
 H518 H -0.06780 0.73299 0.74794
 H519 H 0.06169 0.83295 0.68845
 H520 H 0.03508 0.86287 0.71880
 H521 H -0.05898 0.76906 0.64394
 H522 H -0.08320 0.80190 0.67376
 H523 H 0.05225 0.76853 0.77182
 H524 H 0.05738 0.81386 0.76592
 H525 H -0.02448 0.85630 0.66453
 H526 H 0.00482 0.82258 0.63169
 H527 H -0.01544 0.74990 0.79146
 H528 H 0.00884 0.71712 0.76253
 O529 O 0.04401 0.01377 0.03608
 O530 O 0.03788 0.01062 -0.01363
 O531 O -0.03600 0.05208 0.05698
 O532 O -0.08297 0.03788 0.04497
 O533 O -0.00482 -0.00968 0.10502
 O534 O -0.00506 -0.06091 0.10043
 O535 O -0.09201 -0.03925 -0.01651
 O536 O -0.08849 0.01517 -0.01353
 O537 O -0.01486 -0.06234 -0.04048
 O538 O 0.03197 -0.05663 -0.02195
 O539 O -0.05607 -0.09743 0.02861
 O540 O -0.05942 -0.08127 0.07972
 O541 O -0.09457 -0.06577 0.02191
 O542 O -0.09375 -0.05933 0.06995
 O543 O -0.02179 -0.09597 -0.00343
 O544 O 0.02782 -0.08416 0.00938
 O545 O -0.05094 -0.03376 -0.04795
 O546 O -0.05726 0.01324 -0.04334
 O547 O 0.03915 -0.01540 0.07230
 O548 O 0.03138 -0.06087 0.07771
 O549 O -0.04127 0.01847 0.09712
 O550 O -0.08627 0.01187 0.08005
 O551 O 0.00298 0.05183 0.03076
 O552 O 0.00717 0.03991 -0.01705
 Zr553 Zr 0.00540 0.01124 0.01552
 O554 O -0.01341 -0.01671 -0.01171
 Zr555 Zr -0.05021 0.01154 0.05554
 O556 O -0.07071 -0.01757 0.03122
 Zr557 Zr 0.00029 -0.03235 0.06809
 O558 O -0.01665 -0.06282 0.04285
 Zr559 Zr -0.05672 -0.01418 -0.00968
 O560 O -0.03767 0.01690 0.01429
 Zr561 Zr -0.00490 -0.05675 0.00140
 O562 O 0.01568 -0.02888 0.02736
 Zr563 Zr -0.05913 -0.05713 0.04346
 O564 O -0.04246 -0.02810 0.07063
 O565 O -0.00759 0.00749 0.05604
 O566 O -0.04737 -0.05376 0.00220
 C567 C 0.05325 0.00126 0.05760
 C568 C -0.01457 0.06372 0.04681
 C569 C -0.02189 0.00925 0.11226
 C570 C -0.10305 -0.05842 -0.00183
 C571 C -0.03348 -0.05185 -0.05592
 C572 C -0.04165 -0.10805 0.00905
 H573 H -0.00649 -0.01316 -0.03059
 H574 H -0.01140 -0.08113 0.04961
 H575 H 0.00220 0.02055 0.06800
 H576 H -0.09078 -0.01483 0.03260
 H577 H -0.10544 0.00732 -0.00550
 H578 H -0.07759 0.04721 0.02765
 H579 H 0.02112 -0.09833 0.02231
 H580 H 0.03916 -0.06690 0.05979
 H581 H -0.03802 0.01883 -0.04656
 H582 H -0.01153 0.04763 -0.01885
 H583 H -0.04511 -0.09553 0.07773
 H584 H -0.02287 -0.05668 0.10943
 H585 H 0.04854 -0.00624 -0.01008
 H586 H 0.03050 -0.04190 -0.03584
 H587 H -0.08602 -0.00521 0.09098
 H588 H -0.10430 -0.04222 0.06760
 O589 O -0.02234 0.43586 0.52607
 O590 O -0.00737 0.45471 0.56923
 O591 O -0.06770 0.50027 0.49017
 O592 O -0.05893 0.54777 0.48755
 O593 O -0.01174 0.46113 0.43954
 O594 O 0.03777 0.45988 0.43577
 O595 O 0.03166 0.57913 0.52499
 O596 O -0.01781 0.57734 0.53384
 O597 O 0.06630 0.51261 0.56225
 O598 O 0.05881 0.46207 0.55993
 O599 O 0.08320 0.53549 0.48259
 O600 O 0.05959 0.52110 0.43590
 O601 O 0.05009 0.57171 0.48239
 O602 O 0.03424 0.55513 0.43852
 O603 O 0.09080 0.50797 0.51956
 O604 O 0.08003 0.45752 0.52347
 O605 O 0.03645 0.54828 0.56652
 O606 O -0.01181 0.55135 0.57145
 O607 O -0.00145 0.42842 0.48446
 O608 O 0.04440 0.43378 0.46878
 O609 O -0.04210 0.49622 0.44515
 O610 O -0.03482 0.54454 0.44651
 O611 O -0.05876 0.47404 0.52784
 O612 O -0.03710 0.48622 0.57071
 Zr613 Zr -0.01623 0.47753 0.53331
 O614 O 0.01552 0.50275 0.54708
 Zr615 Zr -0.02884 0.51739 0.47998
 O616 O 0.00301 0.54461 0.49089
 Zr617 Zr 0.01586 0.46610 0.47305
 O618 O 0.04947 0.49048 0.48469
 Zr619 Zr 0.00890 0.54320 0.53373
 O620 O -0.02532 0.51844 0.52323
 Zr621 Zr 0.05241 0.49076 0.52793
 O622 O 0.02116 0.46361 0.51619
 Zr623 Zr 0.04076 0.53105 0.47413
 O624 O 0.00823 0.50630 0.45995
 O625 O -0.02124 0.47712 0.49077
 O626 O 0.04605 0.53119 0.51658
 C627 C -0.01517 0.42056 0.50581
 C628 C -0.07483 0.48290 0.50895
 C629 C -0.03310 0.47502 0.43239
 C630 C 0.04654 0.58622 0.50409
 C631 C 0.05740 0.53429 0.57420
 C632 C 0.09847 0.52594 0.50197
 H633 H 0.01645 0.50132 0.56739
 H634 H 0.06656 0.48397 0.47576
 H635 H -0.03543 0.46420 0.48446
 H636 H -0.00149 0.56339 0.48486
 H637 H -0.03674 0.57007 0.53325
 H638 H -0.04932 0.56548 0.48909
 H639 H 0.09011 0.45971 0.50582
 H640 H 0.05130 0.42997 0.48755
 H641 H -0.01259 0.53405 0.58191
 H642 H -0.04719 0.50358 0.56792
 H643 H 0.07674 0.51095 0.43970
 H644 H 0.03511 0.47657 0.42458
 H645 H 0.00877 0.44316 0.56480
 H646 H 0.04825 0.46829 0.57628
 H647 H -0.02036 0.54035 0.43269
 H648 H 0.01825 0.56707 0.44235
 O649 O 0.47257 0.10783 0.52622
 O650 O 0.42922 0.09576 0.51857
 O651 O 0.50143 0.04364 0.58022
 O652 O 0.50395 -0.00375 0.57692
 O653 O 0.55297 0.07289 0.51635
 O654 O 0.55692 0.06698 0.46898
 O655 O 0.45408 -0.04087 0.50137
 O656 O 0.43841 -0.02710 0.54245
 O657 O 0.42673 0.02516 0.44705
 O658 O 0.43279 0.07060 0.44739
 O659 O 0.50585 -0.01064 0.43628
 O660 O 0.54776 -0.00808 0.45693
 O661 O 0.49390 -0.04354 0.47678
 O662 O 0.54237 -0.02826 0.49325
 O663 O 0.47108 0.01755 0.42335
 O664 O 0.47752 0.06865 0.42691
 O665 O 0.41832 -0.00548 0.48140
 O666 O 0.41402 0.00576 0.53493
 O667 O 0.51417 0.10712 0.50456
 O668 O 0.52394 0.09130 0.45587
 O669 O 0.54805 0.04233 0.55144
 O670 O 0.53877 -0.00796 0.55201
 O671 O 0.46782 0.07387 0.56867
 O672 O 0.42178 0.06324 0.54543
 Zr673 Zr 0.46065 0.06698 0.52605
 O674 O 0.44325 0.04022 0.49713
 Zr675 Zr 0.50981 0.02308 0.54324
 O676 O 0.49229 -0.00684 0.51765
 Zr677 Zr 0.51942 0.06619 0.49112
 O678 O 0.50576 0.03674 0.46290
 Zr679 Zr 0.45012 0.00042 0.51094
 O680 O 0.46658 0.02721 0.54103
 Zr681 Zr 0.46356 0.04216 0.45865
 O682 O 0.47729 0.07286 0.48597
 Zr683 Zr 0.51017 -0.00326 0.47842
 O684 O 0.52892 0.02604 0.50437
 O685 O 0.50277 0.06288 0.53045
 O686 O 0.46825 0.00188 0.47202
 C687 C 0.49472 0.11928 0.51798
 C688 C 0.48460 0.06300 0.58600
 C689 C 0.56096 0.06158 0.53868
 C690 C 0.47233 -0.05422 0.48784
 C691 C 0.41245 0.00636 0.45832
 C692 C 0.48893 -0.00133 0.41850
 H693 H 0.42350 0.04448 0.49530
 H694 H 0.51550 0.03911 0.44507
 H695 H 0.51062 0.07648 0.54322
 H696 H 0.49551 -0.02497 0.52605
 H697 H 0.45493 -0.03011 0.55380
 H698 H 0.48391 -0.00446 0.58036
 H699 H 0.46652 0.06491 0.41020
 H700 H 0.50699 0.10239 0.45444
 H701 H 0.40029 0.01525 0.52340
 H702 H 0.42405 0.05062 0.56122
 H703 H 0.55294 0.01020 0.45000
 H704 H 0.56599 0.04921 0.47247
 H705 H 0.42512 0.09444 0.49867
 H706 H 0.43911 0.08874 0.45369
 H707 H 0.55424 -0.00560 0.53890
 H708 H 0.53433 -0.04164 0.50627
 O709 O 0.46229 0.56902 0.05090
 O710 O 0.41645 0.55137 0.05419
 O711 O 0.50966 0.51552 0.09900
 O712 O 0.51791 0.47062 0.10148
 O713 O 0.53717 0.53644 0.01650
 O714 O 0.52392 0.52517 -0.02823
 O715 O 0.44908 0.41615 0.04647
 O716 O 0.45613 0.43440 0.09127
 O717 O 0.40222 0.46695 0.00222
 O718 O 0.39767 0.51281 -0.00670
 O719 O 0.47674 0.44432 -0.03364
 O720 O 0.52475 0.45217 -0.02402
 O721 O 0.47519 0.41553 0.00747
 O722 O 0.52699 0.43024 0.01189
 O723 O 0.43816 0.46997 -0.03901
 O724 O 0.42910 0.52139 -0.03437
 O725 O 0.40888 0.44363 0.04231
 O726 O 0.41892 0.46203 0.08947
 O727 O 0.49442 0.56754 0.01662
 O728 O 0.48716 0.54777 -0.02987
 O729 O 0.54619 0.51208 0.05540
 O730 O 0.54332 0.46296 0.06506
 O731 O 0.47011 0.54013 0.09519
 O732 O 0.42216 0.52693 0.08919
 Zr733 Zr 0.45257 0.52765 0.05786
 O734 O 0.43041 0.49485 0.04101
 Zr735 Zr 0.50947 0.49012 0.06353
 O736 O 0.48918 0.45512 0.04811
 Zr737 Zr 0.49718 0.52583 0.00632
 O738 O 0.47805 0.49231 -0.01219
 Zr739 Zr 0.44691 0.45799 0.05596
 O740 O 0.46753 0.49093 0.07498
 Zr741 Zr 0.43607 0.49324 -0.00204
 O742 O 0.45484 0.52867 0.01448
 Zr743 Zr 0.49218 0.45528 0.00489
 O744 O 0.51463 0.48890 0.02033
 O745 O 0.49440 0.52695 0.04900
 O746 O 0.45048 0.45630 0.01309
 C747 C 0.47997 0.58032 0.03476
 C748 C 0.49235 0.53361 0.10769
 C749 C 0.55307 0.52862 0.03585
 C750 C 0.45884 0.40414 0.02498
 C751 C 0.39528 0.44912 0.02047
 C752 C 0.45606 0.45248 -0.04766
 H753 H 0.41074 0.49682 0.04570
 H754 H 0.48168 0.49383 -0.03223
 H755 H 0.50484 0.54221 0.05714
 H756 H 0.49678 0.43818 0.05618
 H757 H 0.46351 0.44716 0.10520
 H758 H 0.50884 0.45258 0.10097
 H759 H 0.44428 0.51915 -0.04786
 H760 H 0.46946 0.55715 -0.02628
 H761 H 0.40279 0.47255 0.08315
 H762 H 0.42782 0.51275 0.10257
 H763 H 0.52169 0.46645 -0.03812
 H764 H 0.53587 0.50895 -0.02599
 H765 H 0.41564 0.55757 0.03477
 H766 H 0.39435 0.52339 0.01036
 H767 H 0.55105 0.46198 0.04614
 H768 H 0.52158 0.41530 0.02454
 O769 O 0.80705 0.30374 0.47886
 O770 O 0.80800 0.30699 0.52365
 O771 O 0.85005 0.22181 0.47286
 O772 O 0.84012 0.17892 0.47996
 O773 O 0.78579 0.24605 0.41592
 O774 O 0.73763 0.24507 0.41843
 O775 O 0.76933 0.17416 0.55027
 O776 O 0.81288 0.18588 0.55560
 O777 O 0.72680 0.25184 0.55849
 O778 O 0.72989 0.29280 0.53790
 O779 O 0.70195 0.19695 0.49556
 O780 O 0.71743 0.18107 0.45504
 O781 O 0.73846 0.16407 0.51682
 O782 O 0.75124 0.15849 0.46438
 O783 O 0.69622 0.23752 0.51775
 O784 O 0.70876 0.28535 0.49990
 O785 O 0.75669 0.21944 0.57340
 O786 O 0.81032 0.22731 0.56968
 O787 O 0.78072 0.29223 0.44209
 O788 O 0.73117 0.28075 0.44111
 O789 O 0.81819 0.21533 0.42930
 O790 O 0.80789 0.16936 0.45386
 O791 O 0.84677 0.26495 0.49002
 O792 O 0.82853 0.27404 0.54018
 Zr793 Zr 0.80523 0.26865 0.50391
 O794 O 0.77571 0.25437 0.53262
 Zr795 Zr 0.80980 0.20871 0.47184
 O796 O 0.78362 0.19097 0.50134
 Zr797 Zr 0.76350 0.25402 0.45205
 O798 O 0.73402 0.23616 0.47807
 Zr799 Zr 0.78327 0.21271 0.53895
 O800 O 0.81382 0.22716 0.51114
 Zr801 Zr 0.73573 0.25563 0.51649
 O802 O 0.76452 0.27488 0.48997
 Zr803 Zr 0.74362 0.19503 0.48657
 O804 O 0.77008 0.21155 0.45598
 O805 O 0.80365 0.25028 0.46547
 O806 O 0.74302 0.21447 0.52482
 C807 C 0.79654 0.30868 0.45516
 C808 C 0.86025 0.24501 0.47880
 C809 C 0.80684 0.23098 0.41125
 C810 C 0.75116 0.15881 0.53944
 C811 C 0.73639 0.23603 0.57715
 C812 C 0.68715 0.21499 0.50763
 H813 H 0.77672 0.26506 0.54990
 H814 H 0.71592 0.23800 0.46918
 H815 H 0.81696 0.25886 0.45265
 H816 H 0.78917 0.17170 0.50393
 H817 H 0.82923 0.18722 0.54346
 H818 H 0.83850 0.17456 0.49981
 H819 H 0.69684 0.27627 0.48627
 H820 H 0.73201 0.29655 0.45381
 H821 H 0.80031 0.24069 0.58131
 H822 H 0.84247 0.25929 0.54047
 H823 H 0.71355 0.19705 0.44319
 H824 H 0.73916 0.22516 0.41518
 H825 H 0.78961 0.31075 0.53152
 H826 H 0.74416 0.30540 0.53090
 H827 H 0.79636 0.17089 0.43719
 H828 H 0.76201 0.14612 0.47631
 O829 O 0.82429 0.70780 -0.07676
 O830 O 0.82295 0.65995 -0.06876
 O831 O 0.74670 0.72688 -0.10883
 O832 O 0.70223 0.71633 -0.09681
 O833 O 0.77682 0.77701 -0.04611
 O834 O 0.78219 0.77242 0.00212
 O835 O 0.69174 0.65384 -0.02147
 O836 O 0.69741 0.64937 -0.06760
 O837 O 0.77132 0.63419 0.01123
 O838 O 0.81828 0.65126 -0.00063
 O839 O 0.72989 0.69900 0.04323
 O840 O 0.72056 0.74572 0.02979
 O841 O 0.68883 0.68899 0.00915
 O842 O 0.69114 0.73999 0.00194
 O843 O 0.76978 0.67479 0.04198
 O844 O 0.81644 0.68381 0.02465
 O845 O 0.73286 0.62589 -0.01359
 O846 O 0.73667 0.62653 -0.06803
 O847 O 0.82207 0.74453 -0.04792
 O848 O 0.81675 0.74713 0.00220
 O849 O 0.74052 0.76734 -0.07365
 O850 O 0.69555 0.74753 -0.06468
 O851 O 0.78336 0.69791 -0.10987
 O852 O 0.78955 0.65145 -0.09477
 Zr853 Zr 0.78829 0.68602 -0.06863
 O854 O 0.77256 0.65915 -0.03861
 Zr855 Zr 0.73284 0.72537 -0.06751
 O856 O 0.71405 0.69979 -0.03794
 Zr857 Zr 0.78470 0.73944 -0.02592
 O858 O 0.76785 0.71498 0.00570
 Zr859 Zr 0.72967 0.65972 -0.04064
 O860 O 0.74543 0.68445 -0.07299
 Zr861 Zr 0.78159 0.67454 0.00060
 O862 O 0.80061 0.69948 -0.02937
 Zr863 Zr 0.72481 0.71259 0.00202
 O864 O 0.74146 0.74012 -0.02765
 O865 O 0.77526 0.72652 -0.06534
 O866 O 0.73884 0.67262 -0.00087
 C867 C 0.83397 0.72995 -0.06667
 C868 C 0.76694 0.71504 -0.12120
 C869 C 0.75827 0.78393 -0.06358
 C870 C 0.67931 0.66729 -0.00245
 C871 C 0.75053 0.61948 0.00495
 C872 C 0.74893 0.68475 0.05469
 H873 H 0.78002 0.64055 -0.04132
 H874 H 0.77329 0.72256 0.02375
 H875 H 0.78361 0.73886 -0.07919
 H876 H 0.69401 0.70028 -0.04096
 H877 H 0.70170 0.65802 -0.08558
 H878 H 0.68999 0.70255 -0.08835
 H879 H 0.81252 0.70088 0.03487
 H880 H 0.82961 0.73150 0.00080
 H881 H 0.74788 0.61257 -0.05853
 H882 H 0.77071 0.64887 -0.10179
 H883 H 0.73901 0.74996 0.03696
 H884 H 0.76243 0.77684 0.00411
 H885 H 0.83303 0.66381 -0.05154
 H886 H 0.81568 0.63593 -0.01363
 H887 H 0.69712 0.75979 -0.04854
 H888 H 0.67790 0.73337 -0.01190
 O889 O 1.03442 0.18753 0.22639
 O890 O 0.98677 0.20261 0.22514
 O891 O 1.07431 0.25145 0.18129
 O892 O 1.08249 0.29536 0.18443
 O893 O 1.10612 0.22384 0.26214
 O894 O 1.09187 0.23121 0.30818
 O895 O 1.00703 0.33833 0.24766
 O896 O 1.01804 0.32680 0.19915
 O897 O 0.96364 0.27863 0.28122
 O898 O 0.96654 0.23133 0.28826
 O899 O 1.03570 0.30846 0.31876
 O900 O 1.08597 0.29875 0.31171
 O901 O 1.04188 0.33965 0.27851
 O902 O 1.08945 0.32515 0.28036
 O903 O 0.99919 0.27979 0.32202
 O904 O 0.99669 0.22776 0.31648
 O905 O 0.96929 0.30559 0.24340
 O906 O 0.98282 0.29760 0.19663
 O907 O 1.06422 0.18932 0.26226
 O908 O 1.05836 0.20534 0.30882
 O909 O 1.11111 0.24948 0.22323
 O910 O 1.10653 0.29992 0.22101
 O911 O 1.03902 0.22117 0.18289
 O912 O 0.99102 0.22860 0.19094
 Zr913 Zr 1.02113 0.22875 0.22214
 O914 O 0.99639 0.25869 0.24163
 Zr915 Zr 1.07406 0.27129 0.21970
 O916 O 1.05159 0.30318 0.23848
 Zr917 Zr 1.06525 0.23041 0.27393
 O918 O 1.04272 0.26029 0.29535
 Zr919 Zr 1.00965 0.29828 0.23087
 O920 O 1.03241 0.26835 0.20867
 Zr921 Zr 1.00110 0.25716 0.28474
 O922 O 1.02334 0.22494 0.26544
 Zr923 Zr 1.05490 0.29903 0.28139
 O924 O 1.07992 0.26918 0.26256
 O925 O 1.06254 0.23204 0.23106
 O926 O 1.01297 0.29643 0.27359
 C927 C 1.05126 0.17634 0.24344
 C928 C 1.05929 0.23278 0.17048
 C929 C 1.11997 0.23258 0.24140
 C930 C 1.02160 0.35061 0.26595
 C931 C 0.95506 0.29622 0.26354
 C932 C 1.01465 0.29889 0.33138
 H933 H 0.97712 0.25550 0.23632
 H934 H 1.04570 0.25789 0.31535
 H935 H 1.07362 0.21799 0.22135
 H936 H 1.05806 0.32121 0.23196
 H937 H 1.02665 0.31640 0.18383
 H938 H 1.07189 0.31251 0.18642
 H939 H 1.01094 0.23140 0.33043
 H940 H 1.03988 0.19729 0.30671
 H941 H 0.97079 0.28148 0.19861
 H942 H 0.99444 0.24496 0.17942
 H943 H 1.08000 0.28648 0.32681
 H944 H 1.10261 0.24828 0.30666
 H945 H 0.98674 0.19505 0.24409
 H946 H 0.96070 0.22686 0.26930
 H947 H 1.11576 0.29755 0.23899
 H948 H 1.09024 0.33379 0.26193
 O949 O 0.65063 1.02736 0.74420
 O950 O 0.65400 1.03830 0.79076
 O951 O 0.72680 1.05397 0.70957
 O952 O 0.77335 1.04544 0.71818
 O953 O 0.69632 0.97412 0.68945
 O954 O 0.69228 0.93342 0.71032
 O955 O 0.78868 1.00404 0.80681
 O956 O 0.77970 1.05038 0.79040
 O957 O 0.72121 0.97336 0.84079
 O958 O 0.67009 0.97946 0.82942
 O959 O 0.75648 0.92616 0.78734
 O960 O 0.75940 0.92175 0.74022
 O961 O 0.79273 0.96270 0.78564
 O962 O 0.79147 0.95814 0.73396
 O963 O 0.71774 0.93184 0.81342
 O964 O 0.66875 0.94443 0.80565
 O965 O 0.74995 1.00969 0.83720
 O966 O 0.74498 1.05717 0.81400
 O967 O 0.65372 0.98671 0.72153
 O968 O 0.66328 0.94009 0.74153
 O969 O 0.72791 1.00781 0.68358
 O970 O 0.77641 1.00658 0.69959
 O971 O 0.69084 1.06458 0.73793
 O972 O 0.68697 1.06631 0.78911
 Zr973 Zr 0.68827 1.03027 0.76508
 O974 O 0.70815 1.01358 0.80004
 Zr975 Zr 0.74160 1.01664 0.72389
 O976 O 0.76458 1.00167 0.75722
 Zr977 Zr 0.69255 0.97067 0.73227
 O978 O 0.71444 0.95223 0.76441
 Zr979 Zr 0.75044 1.01876 0.79457
 O980 O 0.73062 1.03725 0.76066
 Zr981 Zr 0.70285 0.97084 0.80173
 O982 O 0.67915 0.98822 0.76953
 Zr983 Zr 0.75695 0.95980 0.76086
 O984 O 0.73538 0.97425 0.72591
 O985 O 0.69940 1.01225 0.72791
 O986 O 0.74481 0.97685 0.79807
 C987 C 0.64102 1.00891 0.72808
 C988 C 0.70716 1.06966 0.71743
 C989 C 0.71005 0.99079 0.67443
 C990 C 0.80125 0.98147 0.80217
 C991 C 0.73939 0.98954 0.85055
 C992 C 0.73911 0.91823 0.80566
 H993 H 0.70155 1.02252 0.81712
 H994 H 0.71042 0.93244 0.76398
 H995 H 0.68938 1.02035 0.71222
 H996 H 0.78432 1.00521 0.75401
 H997 H 0.79288 1.04482 0.77583
 H998 H 0.77219 1.05810 0.73408
 H999 H 0.67210 0.92865 0.79330
 H1000 H 0.64941 0.94847 0.75395
 H1001 H 0.73104 1.05511 0.82879
 H1002 H 0.70458 1.07587 0.78589
 H1003 H 0.75592 0.92547 0.72047
 H1004 H 0.70972 0.92411 0.71474
 H1005 H 0.64943 1.02070 0.79971
 H1006 H 0.67587 0.99435 0.84188
 H1007 H 0.77390 0.98753 0.69324
 H1008 H 0.80417 0.94395 0.74101
 O1009 O 0.72463 0.55230 0.21517
 O1010 O 0.77634 0.54207 0.20920
 O1011 O 0.69262 0.47128 0.19852
 O1012 O 0.69706 0.42913 0.21655
 O1013 O 0.66671 0.51963 0.26827
 O1014 O 0.68858 0.52392 0.31546
 O1015 O 0.77895 0.41711 0.27007
 O1016 O 0.76145 0.41553 0.22309
 O1017 O 0.81963 0.49137 0.27576
 O1018 O 0.80426 0.54107 0.26185
 O1019 O 0.76500 0.46937 0.33504
 O1020 O 0.71117 0.47215 0.33776
 O1021 O 0.75404 0.42504 0.30913
 O1022 O 0.70946 0.43412 0.32077
 O1023 O 0.79271 0.50350 0.31971
 O1024 O 0.78867 0.54607 0.30079
 O1025 O 0.81294 0.45300 0.25025
 O1026 O 0.79493 0.44562 0.20906
 O1027 O 0.70051 0.55700 0.25523
 O1028 O 0.71298 0.55716 0.30148
 O1029 O 0.66218 0.48016 0.24394
 O1030 O 0.67512 0.43498 0.25629
 O1031 O 0.72150 0.50505 0.18429
 O1032 O 0.76556 0.51245 0.18057
 Zr1033 Zr 0.74510 0.51367 0.21912
 O1034 O 0.77795 0.49388 0.23920
 Zr1035 Zr 0.70222 0.46498 0.24040
 O1036 O 0.73253 0.44516 0.26373
 Zr1037 Zr 0.70930 0.52163 0.27703
 O1038 O 0.74203 0.50543 0.30011
 Zr1039 Zr 0.77065 0.45178 0.24489
 O1040 O 0.74020 0.47054 0.22026
 Zr1041 Zr 0.77996 0.50960 0.27927
 O1042 O 0.74780 0.53063 0.25875
 Zr1043 Zr 0.73624 0.46323 0.30302
 O1044 O 0.70236 0.47967 0.28134
 O1045 O 0.70695 0.50702 0.23685
 O1046 O 0.77470 0.46765 0.28451
 C1047 C 0.70817 0.56550 0.23149
 C1048 C 0.70236 0.48766 0.18014
 C1049 C 0.65241 0.50193 0.25495
 C1050 C 0.76996 0.41025 0.29421
 C1051 C 0.82830 0.46979 0.26311
 C1052 C 0.78505 0.48620 0.33792
 H1053 H 0.79513 0.49687 0.22866
 H1054 H 0.74233 0.51431 0.31843
 H1055 H 0.69243 0.51561 0.22558
 H1056 H 0.72811 0.42550 0.26501
 H1057 H 0.75071 0.42098 0.20671
 H1058 H 0.70808 0.41437 0.22498
 H1059 H 0.77184 0.55100 0.31118
 H1060 H 0.73030 0.56606 0.29569
 H1061 H 0.78425 0.45299 0.19346
 H1062 H 0.77808 0.49655 0.18126
 H1063 H 0.71994 0.48704 0.34827
 H1064 H 0.67669 0.50760 0.31684
 H1065 H 0.77403 0.55781 0.22185
 H1066 H 0.81687 0.53271 0.24814
 H1067 H 0.66962 0.44091 0.27506
 H1068 H 0.70172 0.42348 0.30535
 O1069 O 0.58110 0.24323 0.77408
 O1070 O 0.56078 0.25428 0.81787
 O1071 O 0.51750 0.20345 0.73118
 O1072 O 0.47599 0.21157 0.71594
 O1073 O 0.56505 0.26816 0.69235
 O1074 O 0.56408 0.31650 0.69495
 O1075 O 0.43504 0.29236 0.77081
 O1076 O 0.43885 0.24448 0.77453
 O1077 O 0.49679 0.32624 0.81734
 O1078 O 0.54464 0.32623 0.81829
 O1079 O 0.48125 0.35196 0.73351
 O1080 O 0.49468 0.33418 0.68891
 O1081 O 0.44480 0.31813 0.73292
 O1082 O 0.46650 0.30326 0.68664
 O1083 O 0.49945 0.35546 0.77638
 O1084 O 0.55378 0.34699 0.78157
 O1085 O 0.46281 0.29450 0.81554
 O1086 O 0.46411 0.24411 0.81212
 O1087 O 0.59162 0.26958 0.73678
 O1088 O 0.58445 0.32008 0.73397
 O1089 O 0.53112 0.23661 0.68759
 O1090 O 0.47943 0.24350 0.68638
 O1091 O 0.54122 0.20796 0.77124
 O1092 O 0.52780 0.22677 0.81594
 Zr1093 Zr 0.53882 0.24983 0.78068
 O1094 O 0.51097 0.27888 0.79625
 Zr1095 Zr 0.50450 0.24344 0.72190
 O1096 O 0.47403 0.27100 0.73590
 Zr1097 Zr 0.55427 0.28977 0.72778
 O1098 O 0.52569 0.32007 0.73973
 Zr1099 Zr 0.47203 0.27175 0.77935
 O1100 O 0.49945 0.24092 0.76528
 Zr1101 Zr 0.52121 0.31842 0.78264
 O1102 O 0.55190 0.28971 0.77104
 Zr1103 Zr 0.48655 0.31050 0.72455
 O1104 O 0.51605 0.28275 0.70879
 O1105 O 0.54307 0.25012 0.73810
 O1106 O 0.48230 0.31111 0.76735
 C1107 C 0.59776 0.25175 0.75528
 C1108 C 0.53170 0.19375 0.75120
 C1109 C 0.55362 0.24823 0.67985
 C1110 C 0.42857 0.30986 0.75214
 C1111 C 0.47504 0.31486 0.82687
 C1112 C 0.48511 0.36473 0.75618
 H1113 H 0.51107 0.27755 0.81660
 H1114 H 0.53190 0.33828 0.73354
 H1115 H 0.55603 0.23606 0.73123
 H1116 H 0.45597 0.26621 0.72812
 H1117 H 0.44687 0.22678 0.76870
 H1118 H 0.45896 0.21705 0.72569
 H1119 H 0.54794 0.36274 0.77022
 H1120 H 0.59062 0.31834 0.75330
 H1121 H 0.47725 0.24799 0.82707
 H1122 H 0.51101 0.21652 0.81115
 H1123 H 0.51172 0.34455 0.69228
 H1124 H 0.54860 0.31552 0.68187
 H1125 H 0.57155 0.27131 0.81610
 H1126 H 0.54518 0.30895 0.82885
 H1127 H 0.48748 0.25680 0.67325
 H1128 H 0.45009 0.29197 0.69040
 O1129 O 0.33044 0.80878 0.50260
 O1130 O 0.33782 0.80150 0.54977
 O1131 O 0.36366 0.73021 0.47104
 O1132 O 0.35360 0.68576 0.48142
 O1133 O 0.29460 0.76441 0.43556
 O1134 O 0.24600 0.76486 0.44870
 O1135 O 0.29169 0.67207 0.55704
 O1136 O 0.33983 0.67761 0.54802
 O1137 O 0.26294 0.74601 0.58700
 O1138 O 0.27231 0.79519 0.57215
 O1139 O 0.21925 0.71190 0.52585
 O1140 O 0.22543 0.70511 0.47637
 O1141 O 0.25407 0.67163 0.52950
 O1142 O 0.25293 0.67436 0.47754
 O1143 O 0.22576 0.74851 0.55386
 O1144 O 0.24075 0.79601 0.54493
 O1145 O 0.29467 0.71195 0.58912
 O1146 O 0.34030 0.71243 0.57999
 O1147 O 0.29584 0.80784 0.47132
 O1148 O 0.24854 0.79903 0.47404
 O1149 O 0.32266 0.72723 0.43781
 O1150 O 0.31641 0.68148 0.45555
 O1151 O 0.36806 0.76865 0.49706
 O1152 O 0.36534 0.77008 0.54763
 Zr1153 Zr 0.33138 0.77007 0.52067
 O1154 O 0.30787 0.75195 0.55231
 Zr1155 Zr 0.32341 0.71684 0.47961
 O1156 O 0.29931 0.69618 0.50924
 Zr1157 Zr 0.27904 0.76836 0.47651
 O1158 O 0.25320 0.75018 0.50642
 Zr1159 Zr 0.31037 0.70946 0.54877
 O1160 O 0.33704 0.72752 0.51934
 Zr1161 Zr 0.26615 0.76089 0.54631
 O1162 O 0.28990 0.78166 0.51644
 Zr1163 Zr 0.25769 0.70742 0.50525
 O1164 O 0.28150 0.72554 0.47317
 O1165 O 0.32026 0.75928 0.48090
 O1166 O 0.26873 0.71850 0.54499
 C1167 C 0.31497 0.82010 0.48458
 C1168 C 0.37688 0.75155 0.47884
 C1169 C 0.31123 0.74684 0.42463
 C1170 C 0.26953 0.66124 0.54822
 C1171 C 0.27552 0.72673 0.59972
 C1172 C 0.21098 0.72917 0.54422
 H1173 H 0.31441 0.75798 0.57059
 H1174 H 0.23408 0.75597 0.50299
 H1175 H 0.33103 0.76934 0.46685
 H1176 H 0.30211 0.67628 0.50720
 H1177 H 0.35692 0.68529 0.54004
 H1178 H 0.34729 0.67216 0.49513
 H1179 H 0.22659 0.79285 0.53076
 H1180 H 0.24904 0.80906 0.49175
 H1181 H 0.35476 0.72458 0.57272
 H1182 H 0.37626 0.75345 0.54357
 H1183 H 0.21763 0.72369 0.47449
 H1184 H 0.24667 0.74605 0.44121
 H1185 H 0.31963 0.80986 0.55336
 H1186 H 0.28598 0.79019 0.58629
 H1187 H 0.29792 0.68352 0.44745
 H1188 H 0.26776 0.66103 0.48117
 O1189 O 0.24470 0.25286 0.88644
 O1190 O 0.19488 0.24774 0.88719
 O1191 O 0.26111 0.29463 0.96099
 O1192 O 0.25769 0.28737 1.00615
 O1193 O 0.30735 0.22001 0.93733
 O1194 O 0.29647 0.17252 0.93951
 O1195 O 0.18409 0.22425 1.02599
 O1196 O 0.18728 0.27012 1.01403
 O1197 O 0.15836 0.18427 0.95303
 O1198 O 0.17626 0.18639 0.90372
 O1199 O 0.21913 0.15141 0.99844
 O1200 O 0.27032 0.16026 1.00226
 O1201 O 0.21632 0.19135 1.03334
 O1202 O 0.26605 0.19035 1.03019
 O1203 O 0.19454 0.14910 0.95881
 O1204 O 0.20433 0.15647 0.91000
 O1205 O 0.15417 0.21643 0.98665
 O1206 O 0.16153 0.26755 0.97680
 O1207 O 0.27620 0.21897 0.89269
 O1208 O 0.27169 0.17132 0.90446
 O1209 O 0.30197 0.25635 0.96613
 O1210 O 0.28389 0.25331 1.01398
 O1211 O 0.23379 0.29196 0.92320
 O1212 O 0.18825 0.27990 0.91466
 Zr1213 Zr 0.22007 0.25153 0.92232
 O1214 O 0.18984 0.22883 0.94338
 Zr1215 Zr 0.26004 0.25472 0.97766
 O1216 O 0.23158 0.23200 1.00111
 Zr1217 Zr 0.26768 0.20411 0.93260
 O1218 O 0.23968 0.17907 0.95411
 Zr1219 Zr 0.19173 0.23753 0.98571
 O1220 O 0.21969 0.26285 0.96429
 Zr1221 Zr 0.19970 0.18727 0.94034
 O1222 O 0.22814 0.20975 0.91639
 Zr1223 Zr 0.23913 0.18983 0.99615
 O1224 O 0.26973 0.21277 0.97506
 O1225 O 0.26009 0.24588 0.93588
 O1226 O 0.19929 0.19582 0.98248
 C1227 C 0.26553 0.23855 0.87867
 C1228 C 0.24900 0.30521 0.94001
 C1229 C 0.31667 0.24059 0.95074
 C1230 C 0.19587 0.20623 1.04105
 C1231 C 0.14500 0.19628 0.97252
 C1232 C 0.20271 0.13919 0.98179
 H1233 H 0.17150 0.23280 0.93579
 H1234 H 0.24474 0.15970 0.95137
 H1235 H 0.27339 0.25763 0.92595
 H1236 H 0.23288 0.23785 1.02058
 H1237 H 0.19743 0.28584 1.00617
 H1238 H 0.24184 0.28373 1.01843
 H1239 H 0.22102 0.14587 0.91447
 H1240 H 0.25558 0.17223 0.89217
 H1241 H 0.14800 0.25968 0.96395
 H1242 H 0.18281 0.28741 0.93285
 H1243 H 0.26870 0.14628 0.98764
 H1244 H 0.30128 0.17344 0.95929
 H1245 H 0.19886 0.22960 0.87904
 H1246 H 0.16239 0.20114 0.90480
 H1247 H 0.29529 0.23657 1.01288
 H1248 H 0.26440 0.20855 1.03892
 C1249 C 0.28190 0.37458 0.81824
 C1250 C 0.26719 0.37612 0.84269
 C1251 C 0.25598 0.40155 0.84315
 C1252 C 0.26465 0.41385 0.81907
 O1253 O 0.28058 0.39765 0.80392
 H1254 H 0.26494 0.36065 0.85847
 H1255 H 0.24281 0.41011 0.85901
 C1256 C 0.28450 -0.15573 0.30760
 C1257 C 0.26053 -0.15476 0.32325
 C1258 C 0.24587 -0.13313 0.31320
 C1259 C 0.26182 -0.12258 0.29223
 O1260 O 0.28502 -0.13617 0.28881
 H1261 H 0.25436 -0.16773 0.34022
 H1262 H 0.22641 -0.12544 0.32085
 C1263 C 0.76098 0.85141 0.81832
 C1264 C 0.73789 0.85062 0.83521
 C1265 C 0.72682 0.87637 0.83411
 C1266 C 0.74391 0.89080 0.81673
 O1267 O 0.76446 0.87585 0.80738
 H1268 H 0.72946 0.83344 0.84637
 H1269 H 0.70803 0.88338 0.84386
 C1270 C 0.46458 0.92543 0.26106
 C1271 C 0.45295 0.92566 0.23516
 C1272 C 0.46501 0.90456 0.22131
 C1273 C 0.48313 0.89316 0.23979
 O1274 O 0.48305 0.90588 0.26380
 H1275 H 0.43634 0.93846 0.22793
 H1276 H 0.45989 0.89719 0.20094
 C1277 C -0.05759 0.92548 0.77265
 C1278 C -0.06676 0.93426 0.74721
 C1279 C -0.05456 0.91732 0.72844
 C1280 C -0.03858 0.89975 0.74373
 O1281 O -0.04029 0.90475 0.77047
 H1282 H -0.08163 0.95011 0.74288
 H1283 H -0.05837 0.91659 0.70648
 C1284 C -0.06030 -0.16556 -0.02959
 C1285 C -0.07371 -0.17226 -0.00513
 C1286 C -0.06708 -0.15231 0.01314
 C1287 C -0.04992 -0.13499 -0.00110
 O1288 O -0.04564 -0.14295 -0.02689
 H1289 H -0.08739 -0.18907 -0.00082
 H1290 H -0.07478 -0.15001 0.03402
 C1291 C -0.03259 0.35347 0.49090
 C1292 C -0.04465 0.35428 0.51682
 C1293 C -0.03911 0.37976 0.52674
 C1294 C -0.02412 0.39228 0.50612
 O1295 O -0.02013 0.37647 0.48462
 H1296 H -0.05646 0.33859 0.52713
 H1297 H -0.04573 0.38838 0.54625
 C1298 C 0.46285 -0.12350 0.47044
 C1299 C 0.45154 -0.12395 0.49676
 C1300 C 0.45461 -0.09824 0.50673
 C1301 C 0.46782 -0.08386 0.48619
 O1302 O 0.47300 -0.09903 0.46418
 H1303 H 0.44144 -0.14048 0.50751
 H1304 H 0.44747 -0.09062 0.52649
 C1305 C 0.43297 0.34463 -0.00599
 C1306 C 0.42255 0.34019 0.02022
 C1307 C 0.43240 0.36107 0.03600
 C1308 C 0.44834 0.37665 0.01844
 O1309 O 0.44867 0.36673 -0.00695
 H1310 H 0.40874 0.32427 0.02703
 H1311 H 0.42747 0.36518 0.05741
 C1312 C 0.81481 0.37538 0.43463
 C1313 C 0.80751 0.36503 0.40910
 C1314 C 0.79984 0.33882 0.41368
 C1315 C 0.80324 0.33469 0.44152
 O1316 O 0.81257 0.35672 0.45440
 H1317 H 0.80789 0.37515 0.38927
 H1318 H 0.79279 0.32429 0.39848
 C1319 C 0.76565 0.85482 -0.07730
 C1320 C 0.74283 0.85003 -0.09333
 C1321 C 0.73737 0.82285 -0.09061
 C1322 C 0.75705 0.81278 -0.07297
 O1323 O 0.77424 0.83211 -0.06486
 H1324 H 0.73124 0.86448 -0.10546
 H1325 H 0.72078 0.81173 -0.10013
 C1326 C 0.83274 0.25642 0.34899
 C1327 C 0.85074 0.23460 0.35130
 C1328 C 0.84256 0.22068 0.37441
 C1329 C 0.82009 0.23484 0.38428
 O1330 O 0.81413 0.25631 0.36892
 H1331 H 0.86840 0.22986 0.33853
 H1332 H 0.85254 0.20319 0.38366
 C1333 C 0.78726 0.75478 -0.17695
 C1334 C 0.80149 0.73126 -0.18422
 C1335 C 0.79327 0.71189 -0.16575
 C1336 C 0.77449 0.72476 -0.14876
 O1337 O 0.77059 0.75053 -0.15572
 H1338 H 0.81701 0.72855 -0.20003
 H1339 H 0.80162 0.69150 -0.16355
 C1340 C 0.28602 0.47446 0.92428
 C1341 C 0.30169 0.49796 0.92633
 C1342 C 0.29305 0.51456 0.90547
 C1343 C 0.27271 0.50008 0.89248
 O1344 O 0.26843 0.47597 0.90379
 H1345 H 0.31822 0.50230 0.94041
 H1346 H 0.30128 0.53429 0.89976
 C1347 C 0.26662 -0.05917 0.39067
 C1348 C 0.24269 -0.07417 0.38990
 C1349 C 0.22950 -0.06563 0.36664
 C1350 C 0.24629 -0.04600 0.35505
 O1351 O 0.26869 -0.04209 0.36959
 H1352 H 0.23595 -0.08991 0.40404
 H1353 H 0.21064 -0.07377 0.35836
 C1354 C -0.04711 -0.06453 -0.12617
 C1355 C -0.02272 -0.07909 -0.12427
 C1356 C -0.01475 -0.07678 -0.09749
 C1357 C -0.03451 -0.06083 -0.08491
 O1358 O -0.05421 -0.05352 -0.10211
 H1359 H -0.01193 -0.09042 -0.14013
 H1360 H 0.00351 -0.08540 -0.08831
 C1361 C -0.06136 0.45524 0.36853
 C1362 C -0.08501 0.46481 0.38142
 C1363 C -0.07737 0.47203 0.40722
 C1364 C -0.04972 0.46636 0.40867
 O1365 O -0.03988 0.45586 0.38538
 H1366 H -0.10558 0.46658 0.37340
 H1367 H -0.09035 0.48104 0.42302
 C1368 C 0.47813 -0.03057 0.35327
 C1369 C 0.50519 -0.03837 0.35645
 C1370 C 0.51300 -0.02758 0.38101
 C1371 C 0.49029 -0.01379 0.39097
 O1372 O 0.46907 -0.01558 0.37426
 H1373 H 0.51754 -0.05135 0.34322
 H1374 H 0.53269 -0.03008 0.39091
 C1375 C 0.44644 0.43890 -0.11854
 C1376 C 0.46953 0.42300 -0.11392
 C1377 C 0.47466 0.42492 -0.08665
 C1378 C 0.45480 0.44211 -0.07615
 O1379 O 0.43762 0.45084 -0.09540
 H1380 H 0.48213 0.41175 -0.12836
 H1381 H 0.49173 0.41573 -0.07585
 C1382 C 0.48220 0.84239 0.37629
 C1383 C 0.49068 0.86747 0.36619
 C1384 C 0.49959 0.86266 0.34007
 C1385 C 0.49575 0.83512 0.33580
 O1386 O 0.48503 0.82270 0.35762
 H1387 H 0.49047 0.88715 0.37629
 H1388 H 0.50791 0.87750 0.32575
 C1389 C -0.03557 0.82374 0.87062
 C1390 C -0.01633 0.84436 0.86859
 C1391 C -0.00753 0.84392 0.84176
 C1392 C -0.02201 0.82314 0.82936
 O1393 O -0.03898 0.81097 0.84675
 H1394 H -0.00934 0.85804 0.88456
 H1395 H 0.00763 0.85716 0.83236
 C1396 C 0.37465 0.81050 0.27428
 C1397 C 0.37253 0.82248 0.24855
 C1398 C 0.39770 0.81997 0.23670
 C1399 C 0.41365 0.80649 0.25576
 O1400 O 0.39972 0.80053 0.27865
 H1401 H 0.35473 0.83176 0.23916
 H1402 H 0.40376 0.82713 0.21643
 C1403 C -0.15874 0.81954 0.76564
 C1404 C -0.15915 0.84016 0.74620
 C1405 C -0.13397 0.83962 0.73406
 C1406 C -0.11991 0.81878 0.74695
 O1407 O -0.13491 0.80638 0.76607
 H1408 H -0.17585 0.85390 0.74132
 H1409 H -0.12664 0.85296 0.71781
 C1410 C 0.92472 0.26824 0.45729
 C1411 C 0.92706 0.24205 0.44720
 C1412 C 0.90366 0.22937 0.45552
 C1413 C 0.88878 0.24887 0.46994
 O1414 O 0.90156 0.27247 0.47110
 H1415 H 0.94369 0.23335 0.43515
 H1416 H 0.89763 0.20865 0.45071
 C1417 C 0.89495 0.76322 -0.08558
 C1418 C 0.89615 0.74253 -0.10492
 C1419 C 0.87351 0.72704 -0.10008
 C1420 C 0.86015 0.73944 -0.07821
 O1421 O 0.87312 0.76132 -0.06929
 H1422 H 0.91170 0.73899 -0.12057
 H1423 H 0.86732 0.70900 -0.11131
 C1424 C -0.15993 -0.08991 -0.03391
 C1425 C -0.15341 -0.11007 -0.01513
 C1426 C -0.13148 -0.10056 -0.00128
 C1427 C -0.12589 -0.07516 -0.01232
 O1428 O -0.14313 -0.06851 -0.03228
 H1429 H -0.16374 -0.12921 -0.01119
 H1430 H -0.12078 -0.11094 0.01520
 C1431 C -0.13229 0.44704 0.48537
 C1432 C -0.12892 0.43344 0.51011
 C1433 C -0.10906 0.44748 0.52372
 C1434 C -0.10134 0.46853 0.50635
 O1435 O -0.11565 0.46845 0.48323
 H1436 H -0.13919 0.41521 0.51733
 H1437 H -0.09975 0.44170 0.54307
 C1438 C 0.35301 -0.02269 0.43040
 C1439 C 0.35692 -0.00259 0.41079
 C1440 C 0.37960 0.01110 0.41904
 C1441 C 0.38789 -0.00160 0.44303
 O1442 O 0.37186 -0.02213 0.44997
 H1443 H 0.34526 0.00132 0.39230
 H1444 H 0.38925 0.02811 0.40855
 C1445 C 0.33497 0.42117 -0.00556
 C1446 C 0.34131 0.39984 0.01210
 C1447 C 0.36439 0.40802 0.02570
 C1448 C 0.37043 0.43345 0.01509
 O1449 O 0.35273 0.44139 -0.00358
 H1450 H 0.33079 0.38059 0.01475
 H1451 H 0.37603 0.39640 0.04061
 C1452 C 0.37766 0.48515 0.82293
 C1453 C 0.37785 0.51010 0.83602
 C1454 C 0.35407 0.52243 0.82868
 C1455 C 0.34083 0.50412 0.81166
 O1456 O 0.35523 0.48136 0.80794
 H1457 H 0.39343 0.51820 0.84953
 H1458 H 0.34675 0.54215 0.83573
 C1459 C 0.38383 -0.04631 0.31633
 C1460 C 0.36979 -0.04218 0.34085
 C1461 C 0.34287 -0.04089 0.33373
 C1462 C 0.34246 -0.04474 0.30554
 O1463 O 0.36720 -0.04807 0.29493
 H1464 H 0.37803 -0.03961 0.36135
 H1465 H 0.32566 -0.03639 0.34723
 C1466 C 0.08364 0.56646 0.73981
 C1467 C 0.07610 0.57398 0.76625
 C1468 C 0.09418 0.56079 0.78306
 C1469 C 0.11113 0.54595 0.76567
 O1470 O 0.10466 0.54930 0.73957
 H1471 H 0.06043 0.58842 0.77255
 H1472 H 0.09622 0.56344 0.80512
 C1473 C 0.10652 0.02603 0.18089
 C1474 C 0.10823 0.00466 0.16221
 C1475 C 0.13390 -0.00592 0.16502
 C1476 C 0.14605 0.00975 0.18503
 O1477 O 0.12962 0.02912 0.19468
 H1478 H 0.09270 -0.00282 0.14839
 H1479 H 0.14251 -0.02338 0.15431
 C1480 C 0.67220 0.73056 0.18767
 C1481 C 0.67902 0.75589 0.17704
 C1482 C 0.65955 0.77344 0.18691
 C1483 C 0.64248 0.75779 0.20321
 O1484 O 0.65010 0.73180 0.20377
 H1485 H 0.69558 0.76096 0.16300
 H1486 H 0.65725 0.79483 0.18175
 C1487 C 0.14073 0.74124 0.67586
 C1488 C 0.13999 0.76051 0.65504
 C1489 C 0.11431 0.77144 0.65619
 C1490 C 0.10118 0.75822 0.67765
 O1491 O 0.11710 0.73989 0.68961
 H1492 H 0.15603 0.76613 0.64063
 H1493 H 0.10618 0.78737 0.64307
 C1494 C 0.61713 0.20631 0.52220
 C1495 C 0.61895 0.18952 0.49931
 C1496 C 0.64537 0.19129 0.49066
 C1497 C 0.65778 0.20904 0.50872
 O1498 O 0.64080 0.21826 0.52791
 H1499 H 0.60348 0.17639 0.49058
 H1500 H 0.65473 0.18036 0.47359
 C1501 C 0.61168 0.65628 0.02132
 C1502 C 0.61423 0.63325 0.00504
 C1503 C 0.64026 0.63396 -0.00523
 C1504 C 0.65183 0.65736 0.00541
 O1505 O 0.63458 0.67093 0.02155
 H1506 H 0.59904 0.61781 0.00081
 H1507 H 0.64956 0.61942 -0.01931
 C1508 C 0.12411 0.01456 0.06851
 C1509 C 0.11932 -0.00353 0.08994
 C1510 C 0.09233 -0.00970 0.08874
 C1511 C 0.08204 0.00474 0.06669
 O1512 O 0.10127 0.01956 0.05422
 H1513 H 0.13346 -0.01180 0.10480
 H1514 H 0.08149 -0.02379 0.10211
 C1515 C 0.15885 0.55297 0.52965
 C1516 C 0.15994 0.56642 0.50448
 C1517 C 0.13818 0.55689 0.48973
 C1518 C 0.12555 0.53815 0.50671
 O1519 O 0.13796 0.53580 0.53083
 H1520 H 0.17403 0.58215 0.49784
 H1521 H 0.13158 0.56373 0.46960
 C1522 C 0.62775 0.07577 0.56058
 C1523 C 0.61979 0.10196 0.55317
 C1524 C 0.59304 0.09998 0.54623
 C1525 C 0.58631 0.07291 0.54990
 O1526 O 0.60716 0.05811 0.55892
 H1527 H 0.63174 0.12053 0.55264
 H1528 H 0.58017 0.11616 0.53820
 C1529 C 0.62337 0.54337 0.04096
 C1530 C 0.61725 0.56108 0.01967
 C1531 C 0.58982 0.55844 0.01563
 C1532 C 0.58113 0.53936 0.03469
 O1533 O 0.60137 0.53018 0.05009
 H1534 H 0.63092 0.57413 0.00806
 H1535 H 0.57767 0.56877 0.00018
 C1536 C 0.00844 0.04418 0.16647
 C1537 C -0.01662 0.05756 0.16758
 C1538 C -0.03274 0.04440 0.14886
 C1539 C -0.01649 0.02386 0.13800
 O1540 O 0.00817 0.02361 0.14880
 H1541 H -0.02225 0.07556 0.17928
 H1542 H -0.05314 0.05032 0.14245
 C1543 C 0.07718 0.56026 0.63802
 C1544 C 0.09940 0.54312 0.63397
 C1545 C 0.09560 0.53179 0.60864
 C1546 C 0.07146 0.54300 0.59918
 O1547 O 0.06034 0.56036 0.61682
 H1548 H 0.11591 0.53883 0.64809
 H1549 H 0.10827 0.51646 0.59869
 C1550 C 0.50369 0.08331 0.65267
 C1551 C 0.48349 0.10292 0.64839
 C1552 C 0.47251 0.09714 0.62323
 C1553 C 0.48661 0.07454 0.61392
 O1554 O 0.50530 0.06605 0.63168
 H1555 H 0.47744 0.11975 0.66154
 H1556 H 0.45683 0.10864 0.61254
 C1557 C 0.51918 0.56545 0.16701
 C1558 C 0.49598 0.58137 0.16409
 C1559 C 0.48259 0.57086 0.14203
 C1560 C 0.49856 0.54930 0.13290
 O1561 O 0.52080 0.54584 0.14811
 H1562 H 0.48957 0.59860 0.17656
 H1563 H 0.46368 0.57842 0.13324
 C1564 C 0.18330 0.53685 0.62967
 C1565 C 0.16640 0.51467 0.63407
 C1566 C 0.16833 0.50899 0.66149
 C1567 C 0.18643 0.52790 0.67199
 O1568 O 0.19564 0.54478 0.65272
 H1569 H 0.15438 0.50356 0.61918
 H1570 H 0.15808 0.49264 0.67246
 C1571 C 0.22357 0.02400 0.08882
 C1572 C 0.24979 0.03455 0.08622
 C1573 C 0.26418 0.02420 0.10799
 C1574 C 0.24592 0.00780 0.12210
 O1575 O 0.22140 0.00768 0.11053
 H1576 H 0.25740 0.04901 0.07118
 H1577 H 0.28497 0.02924 0.11376
 C1578 C 0.70445 0.22583 0.64212
 C1579 C 0.69500 0.25197 0.63694
 C1580 C 0.70656 0.25932 0.61245
 C1581 C 0.72244 0.23736 0.60430
 O1582 O 0.72120 0.21693 0.62222
 H1583 H 0.68063 0.26408 0.64889
 H1584 H 0.70326 0.27826 0.60142
 C1585 C 0.73314 0.67541 0.12495
 C1586 C 0.75674 0.65985 0.12390
 C1587 C 0.76595 0.66198 0.09753
 C1588 C 0.74725 0.67860 0.08432
 O1589 O 0.72729 0.68697 0.10095
 H1590 H 0.76600 0.64818 0.14037
 H1591 H 0.78392 0.65210 0.08878
 C1592 C 0.56723 0.71768 0.08995
 C1593 C 0.58436 0.73974 0.08597
 C1594 C 0.58105 0.75543 0.10880
 C1595 C 0.56219 0.74180 0.12509
 O1596 O 0.55359 0.71889 0.11366
 H1597 H 0.59768 0.74390 0.06853
 H1598 H 0.59143 0.77443 0.11324
 C1599 C 0.03866 0.72294 0.57713
 C1600 C 0.01165 0.71761 0.57040
 C1601 C -0.00378 0.73128 0.58943
 C1602 C 0.01479 0.74433 0.60611
 O1603 O 0.04054 0.73941 0.59872
 H1604 H 0.00392 0.70472 0.55412
 H1605 H -0.02591 0.73099 0.59154
 C1606 C 0.57176 0.62952 0.22738
 C1607 C 0.59310 0.63661 0.24462
 C1608 C 0.59101 0.66404 0.24809
 C1609 C 0.56862 0.67192 0.23278
 O1610 O 0.55690 0.65109 0.22008
 H1611 H 0.60858 0.62365 0.25370
 H1612 H 0.60425 0.67683 0.26038
 C1613 C 0.02709 0.63452 0.68636
 C1614 C 0.00424 0.63460 0.66978
 C1615 C -0.00643 0.66009 0.67207
 C1616 C 0.01074 0.67388 0.68978
 O1617 O 0.03116 0.65835 0.69871
 H1618 H -0.00341 0.61810 0.65716
 H1619 H -0.02434 0.66791 0.66157
 C1620 C 0.01258 0.12835 0.06353
 C1621 C -0.00974 0.12899 0.08120
 C1622 C -0.02359 0.10530 0.07637
 C1623 C -0.00874 0.09184 0.05614
 O1624 O 0.01319 0.10578 0.04831
 H1625 H -0.01535 0.14479 0.09581
 H1626 H -0.04192 0.09830 0.08691
 C1627 C 0.07885 0.64860 0.51922
 C1628 C 0.09437 0.64163 0.49640
 C1629 C 0.08345 0.61783 0.48717
 C1630 C 0.06215 0.61189 0.50514
 O1631 O 0.05927 0.63056 0.52464
 H1632 H 0.11144 0.65268 0.48741
 H1633 H 0.09062 0.60581 0.46980
 C1634 C 0.52127 0.18048 0.54265
 C1635 C 0.49497 0.18400 0.55272
 C1636 C 0.48052 0.16246 0.54252
 C1637 C 0.49919 0.14743 0.52713
 O1638 O 0.52380 0.15843 0.52709
 H1639 H 0.48757 0.19961 0.56674
 H1640 H 0.45945 0.15727 0.54734
 C1641 C 0.51243 0.64252 0.04717
 C1642 C 0.48751 0.64897 0.05946
 C1643 C 0.47096 0.62703 0.05478
 C1644 C 0.48680 0.60902 0.03968
 O1645 O 0.51182 0.61837 0.03501
 H1646 H 0.48215 0.66687 0.07142
 H1647 H 0.45037 0.62392 0.06264
 C1648 C 0.72455 0.09864 0.56834
 C1649 C 0.75010 0.09792 0.58071
 C1650 C 0.76335 0.12059 0.57149
 C1651 C 0.74524 0.13326 0.55392
 O1652 O 0.72176 0.12015 0.55196
 H1653 H 0.75810 0.08336 0.59539
 H1654 H 0.78380 0.12715 0.57694
 C1655 C 0.72381 0.56482 0.04380
 C1656 C 0.75042 0.56361 0.05346
 C1657 C 0.76447 0.58313 0.03911
 C1658 C 0.74560 0.59470 0.02152
 O1659 O 0.72101 0.58365 0.02432
 H1660 H 0.75862 0.55076 0.06958
 H1661 H 0.78569 0.58894 0.04185
 C1662 C 0.18008 0.66476 0.73087
 C1663 C 0.16083 0.66525 0.75192
 C1664 C 0.16453 0.64149 0.76594
 C1665 C 0.18571 0.62823 0.75242
 O1666 O 0.19527 0.64230 0.73120
 H1667 H 0.14598 0.68106 0.75670
 H1668 H 0.15302 0.63453 0.78377
 C1669 C 0.23158 0.12632 0.17095
 C1670 C 0.25292 0.11825 0.15404
 C1671 C 0.26137 0.09397 0.16456
 C1672 C 0.24437 0.08899 0.18695
 O1673 O 0.22622 0.10860 0.19091
 H1674 H 0.26139 0.12890 0.13638
 H1675 H 0.27759 0.08105 0.15646
 C1676 C 0.69879 1.13512 0.68750
 C1677 C 0.70893 1.12108 0.66474
 C1678 C 0.71194 1.09486 0.67306
 C1679 C 0.70344 1.09427 0.70023
 O1680 O 0.69515 1.11860 0.70911
 H1681 H 0.71371 1.12855 0.64429
 H1682 H 0.71999 1.07809 0.66085
 C1683 C 0.69023 0.63095 0.20642
 C1684 C 0.66891 0.62753 0.22494
 C1685 C 0.67263 0.60228 0.23584
 C1686 C 0.69593 0.59188 0.22324
 O1687 O 0.70663 0.60916 0.20515
 H1688 H 0.65253 0.64164 0.22998
 H1689 H 0.65996 0.59264 0.25146
 C1690 C 0.54340 0.12468 0.73518
 C1691 C 0.55909 0.12589 0.75892
 C1692 C 0.55590 0.15178 0.76875
 C1693 C 0.53865 0.16457 0.75040
 O1694 O 0.53092 0.14824 0.73022
 H1695 H 0.57161 0.11015 0.76817
 H1696 H 0.56562 0.16053 0.78669
 C1697 C 1.06219 0.10720 0.22565
 C1698 C 1.07877 0.10825 0.24853
 C1699 C 1.07586 0.13396 0.25858
 C1700 C 1.05776 0.14695 0.24110
 O1701 O 1.04922 0.13068 0.22106
 H1702 H 1.09162 0.09219 0.25680
 H1703 H 1.08630 0.14250 0.27622
 C1704 C 0.23829 0.60146 0.57285
 C1705 C 0.26159 0.60041 0.58886
 C1706 C 0.27666 0.62245 0.58118
 C1707 C 0.26149 0.63533 0.56105
 O1708 O 0.23823 0.62259 0.55581
 H1709 H 0.26700 0.58544 0.60432
 H1710 H 0.29620 0.62867 0.58956
 C1711 C 0.18009 0.07781 1.01218
 C1712 C 0.16496 0.07646 0.98829
 C1713 C 0.17230 0.09884 0.97348
 C1714 C 0.19135 0.11235 0.98939
 O1715 O 0.19626 0.09956 1.01292
 H1716 H 0.15025 0.06105 0.98240
 H1717 H 0.16422 0.10498 0.95367
 C1718 C 0.23856 0.71137 0.66000
 C1719 C 0.26300 0.69885 0.66717
 C1720 C 0.28073 0.70414 0.64600
 C1721 C 0.26603 0.71976 0.62763
 O1722 O 0.24054 0.72425 0.63605
 H1723 H 0.26739 0.68668 0.68523
 H1724 H 0.30156 0.69671 0.64374
 C1725 C 0.18510 0.19551 1.11178
 C1726 C 0.16192 0.21103 1.10680
 C1727 C 0.16244 0.21627 1.07928
 C1728 C 0.18576 0.20348 1.06944
 O1729 O 0.19949 0.19071 1.08903
 H1730 H 0.14651 0.21787 1.12142
 H1731 H 0.14793 0.22849 1.06778
 C1732 C 0.68101 0.49952 0.11231
 C1733 C 0.66419 0.47744 0.11778
 C1734 C 0.67039 0.46942 0.14393
 C1735 C 0.69050 0.48719 0.15244
 O1736 O 0.69711 0.50533 0.13330
 H1737 H 0.64880 0.46858 0.10453
 H1738 H 0.66098 0.45306 0.15561
 C1739 C 0.69032 1.01351 0.60970
 C1740 C 0.67579 0.98938 0.60939
 C1741 C 0.68359 0.97588 0.63270
 C1742 C 0.70225 0.99285 0.64540
 O1743 O 0.70646 1.01551 0.63136
 H1744 H 0.66029 0.98311 0.59484
 H1745 H 0.67502 0.95705 0.64062
 C1746 C 0.57740 0.22567 0.61527
 C1747 C 0.60253 0.23073 0.62733
 C1748 C 0.59665 0.23894 0.65342
 C1749 C 0.56847 0.23801 0.65561
 O1750 O 0.55663 0.22983 0.63262
 H1751 H 0.62286 0.22890 0.61844
 H1752 H 0.61115 0.24528 0.66897
 C1753 C 1.06653 0.20591 0.10262
 C1754 C 1.08675 0.22582 0.10174
 C1755 C 1.08659 0.23777 0.12692
 C1756 C 1.06632 0.22480 0.14179
 O1757 O 1.05398 0.20542 0.12719
 H1758 H 1.10029 0.23154 0.08503
 H1759 H 1.09968 0.25430 0.13360
 C1760 C 0.65601 0.21540 0.73335
 C1761 C 0.65533 0.20601 0.76020
 C1762 C 0.63473 0.22031 0.77283
 C1763 C 0.62437 0.23751 0.75286
 O1764 O 0.63734 0.23463 0.72892
 H1765 H 0.66758 0.18989 0.76920
 H1766 H 0.62702 0.21733 0.79360
 C1767 C 1.17770 0.20116 0.21392
 C1768 C 1.18248 0.19419 0.24115
 C1769 C 1.16213 0.20675 0.25589
 C1770 C 1.14686 0.22060 0.23657
 O1771 O 1.15632 0.21743 0.21133
 H1772 H 1.19785 0.18047 0.24930
 H1773 H 1.15800 0.20481 0.27777
 C1774 C 0.14064 0.71933 0.56020
 C1775 C 0.14718 0.73686 0.58145
 C1776 C 0.17433 0.74218 0.57836
 C1777 C 0.18273 0.72752 0.55548
 O1778 O 0.16235 0.71341 0.54444
 H1779 H 0.13387 0.74482 0.59748
 H1780 H 0.18660 0.75539 0.59123
 C1781 C 0.08595 0.17376 1.00739
 C1782 C 0.08304 0.15784 0.98398
 C1783 C 0.10420 0.16508 0.96688
 C1784 C 0.11830 0.18503 0.98090
 O1785 O 0.10731 0.19029 1.00534
 H1786 H 0.06799 0.14220 0.97994
 H1787 H 0.10933 0.15619 0.94706
 C1788 C 0.59028 0.52925 0.23214
 C1789 C 0.58294 0.50206 0.23116
 C1790 C 0.60464 0.48820 0.24197
 C1791 C 0.62352 0.50791 0.24903
 O1792 O 0.61482 0.53281 0.24317
 H1793 H 0.56449 0.49323 0.22272
 H1794 H 0.60711 0.46625 0.24309
 C1795 C 0.57896 1.03567 0.70262
 C1796 C 0.57848 1.01115 0.68847
 C1797 C 0.60143 0.99734 0.69665
 C1798 C 0.61423 1.01435 0.71520
 O1799 O 0.60066 1.03751 0.71885
 H1800 H 0.56342 1.00409 0.67385
 H1801 H 0.60827 0.97747 0.68958
 C1802 C 0.89671 0.45057 0.27586
 C1803 C 0.89609 0.44499 0.24791
 C1804 C 0.87076 0.45292 0.23943
 C1805 C 0.85776 0.46318 0.26255
 O1806 O 0.87336 0.46179 0.28473
 H1807 H 0.91177 0.43566 0.23512
 H1808 H 0.86234 0.45069 0.21894
 C1809 C 0.86640 0.96553 0.82932
 C1810 C 0.85685 0.98176 0.85064
 C1811 C 0.83112 0.98942 0.84320
 C1812 C 0.82661 0.97721 0.81799
 O1813 O 0.84795 0.96266 0.80945
 H1814 H 0.86755 0.98810 0.86902
 H1815 H 0.81731 1.00264 0.85464
 C1816 C 0.36138 0.33107 0.76807
 C1817 C 0.36718 0.35104 0.74880
 C1818 C 0.39299 0.34516 0.73934
 C1819 C 0.40103 0.32215 0.75366
 O1820 O 0.38192 0.31359 0.77104
 H1821 H 0.35425 0.36787 0.74243
 H1822 H 0.40483 0.35669 0.72441
 C1823 C 0.88620 0.31038 0.27928
 C1824 C 0.88915 0.32861 0.25767
 C1825 C 0.91561 0.32585 0.24905
 C1826 C 0.92683 0.30620 0.26599
 O1827 O 0.90909 0.29672 0.28427
 H1828 H 0.87391 0.34208 0.24890
 H1829 H 0.92551 0.33671 0.23229
 C1830 C 0.43217 0.78352 0.44525
 C1831 C 0.43376 0.75885 0.43148
 C1832 C 0.41428 0.74266 0.44353
 C1833 C 0.40229 0.75856 0.46383
 O1834 O 0.41315 0.78325 0.46492
 H1835 H 0.44695 0.75346 0.41427
 H1836 H 0.40859 0.72221 0.43738
 C1837 C 0.38279 0.26887 0.94451
 C1838 C 0.38778 0.24467 0.93078
 C1839 C 0.36394 0.23041 0.93246
 C1840 C 0.34601 0.24695 0.94700
 O1841 O 0.35742 0.27034 0.95452
 H1842 H 0.40638 0.23856 0.92008
 H1843 H 0.35979 0.21071 0.92328
 C1844 C 0.81944 0.47014 0.39910
 C1845 C 0.83220 0.49483 0.39401
 C1846 C 0.82023 0.50467 0.37071
 C1847 C 0.80102 0.48538 0.36341
 O1848 O 0.80050 0.46448 0.38052
 H1849 H 0.84889 0.50416 0.40512
 H1850 H 0.82545 0.52329 0.35986
 C1851 C 0.77074 0.95696 0.90632
 C1852 C 0.77891 0.98335 0.91243
 C1853 C 0.76650 0.99966 0.89338
 C1854 C 0.75132 0.98224 0.87729
 O1855 O 0.75380 0.95642 0.88510
 H1856 H 0.79303 0.99005 0.92811
 H1857 H 0.76934 1.02141 0.89061
 C1858 C 0.32883 0.76816 0.35745
 C1859 C 0.34312 0.74380 0.35745
 C1860 C 0.33722 0.73202 0.38220
 C1861 C 0.31973 0.75000 0.39557
 O1862 O 0.31453 0.77193 0.38056
 H1863 H 0.35634 0.73559 0.34143
 H1864 H 0.34537 0.71294 0.38995
 C1865 C 0.29738 0.27414 0.82485
 C1866 C 0.31054 0.24937 0.82066
 C1867 C 0.29915 0.23187 0.83942
 C1868 C 0.27973 0.24710 0.85338
 O1869 O 0.27858 0.27258 0.84458
 H1870 H 0.32721 0.24468 0.80660
 H1871 H 0.30515 0.21092 0.84330
 C1872 C 0.44816 0.32835 0.89312
 C1873 C 0.46120 0.35293 0.88863
 C1874 C 0.47182 0.35136 0.86273
 C1875 C 0.46445 0.32600 0.85305
 O1876 O 0.44994 0.31192 0.87135
 H1877 H 0.46316 0.36986 0.90267
 H1878 H 0.48422 0.36654 0.85231
 C1879 C 0.99436 0.31727 0.39880
 C1880 C 1.01336 0.33774 0.39396
 C1881 C 1.02263 0.33365 0.36794
 C1882 C 1.00884 0.31102 0.35851
 O1883 O 0.99160 0.30093 0.37711
 H1884 H 1.02026 0.35377 0.40752
 H1885 H 1.03804 0.34556 0.35720
 C1886 C 0.44554 0.41887 0.78183
 C1887 C 0.43864 0.42194 0.75440
 C1888 C 0.45427 0.40317 0.74050
 C1889 C 0.46972 0.39024 0.76040
 O1890 O 0.46444 0.39973 0.78533
 H1891 H 0.42351 0.43548 0.74554
 H1892 H 0.45343 0.39848 0.71870
 C1893 C 0.98975 0.40949 0.29261
 C1894 C 1.01627 0.41538 0.30027
 C1895 C 1.03198 0.39522 0.28895
 C1896 C 1.01401 0.37840 0.27511
 O1897 O 0.98828 0.38710 0.27721
 H1898 H 1.02316 0.43182 0.31341
 H1899 H 1.05377 0.39215 0.29190
 C1900 C 0.31756 0.88933 0.46524
 C1901 C 0.33212 0.89089 0.48956
 C1902 C 0.33331 0.86508 0.49930
 C1903 C 0.31914 0.84949 0.48055
 O1904 O 0.30921 0.86412 0.45986
 H1905 H 0.34098 0.90874 0.49916
 H1906 H 0.34306 0.85841 0.51815
 C1907 C 0.26352 0.37571 0.93815
 C1908 C 0.24413 0.37490 0.91743
 C1909 C 0.23677 0.34831 0.91518
 C1910 C 0.25188 0.33465 0.93475
 O1911 O 0.26811 0.35114 0.94881
 H1912 H 0.23597 0.39145 0.90525
 H1913 H 0.22180 0.33992 0.90117
 C1914 C 0.79666 0.34605 0.31411
 C1915 C 0.77663 0.34866 0.33425
 C1916 C 0.76415 0.37292 0.32913
 C1917 C 0.77725 0.38351 0.30618
 O1918 O 0.79703 0.36728 0.29696
 H1919 H 0.77196 0.33507 0.35120
 H1920 H 0.74753 0.38200 0.34093
   
