data_POSCAR
  _audit_creation_date              2014-09-24
  _audit_creation_method            'ToBaCCo'
  _symmetry_space_group_name_H-M    'P1'
  _symmetry_Int_Tables_number       1
  _symmetry_cell_setting            triclinic
  loop_
  _symmetry_equiv_pos_as_xyz
 x,y,z
_cell_length_a 83.2137
_cell_length_b 83.2840
_cell_length_c 83.4719
_cell_angle_alpha 89.978200
_cell_angle_beta 89.972600
_cell_angle_gamma 89.938300
loop_
  _atom_site_label
  _atom_site_type_symbol
  _atom_site_fract_x
  _atom_site_fract_y
  _atom_site_fract_z
N1 N 0.36173 0.31714 0.32861
 N2 N 0.36140 0.32820 0.31736
 C3 C 0.37387 0.32583 0.30732
 C4 C 0.38240 0.31261 0.31261
 C5 C 0.37437 0.30738 0.32612
 H6 H 0.37665 0.33319 0.29701
 H7 H 0.37757 0.29727 0.33361
 Cu8 Cu 0.34483 0.34471 0.31734
 Cu9 Cu 0.34584 0.31623 0.34574
 Cu10 Cu 0.31631 0.34571 0.34572
 N11 N 0.32830 0.36124 0.31733
 N12 N 0.31722 0.36158 0.32857
 C13 C 0.30744 0.37420 0.32606
 C14 C 0.31268 0.38221 0.31254
 C15 C 0.32593 0.37369 0.30727
 H16 H 0.29731 0.37739 0.33354
 H17 H 0.33330 0.37646 0.29697
 N18 N 0.31744 0.32858 0.36200
 N19 N 0.32868 0.31736 0.36201
 C20 C 0.32621 0.30748 0.37455
 C21 C 0.31281 0.31274 0.38278
 C22 C 0.30754 0.32611 0.37453
 H23 H 0.33358 0.29720 0.37752
 H24 H 0.29725 0.33347 0.37750
 H25 H 0.32751 0.32739 0.33335
 H26 H 0.34058 0.34047 0.34593
 N27 N 0.36221 0.81748 -0.17153
 N28 N 0.36207 0.82870 -0.18261
 C29 C 0.37459 0.82634 -0.19261
 C30 C 0.38297 0.81294 -0.18745
 C31 C 0.37477 0.80760 -0.17407
 H32 H 0.37748 0.83381 -0.20282
 H33 H 0.37774 0.79732 -0.16671
 Cu34 Cu 0.34555 0.84529 -0.18275
 Cu35 Cu 0.34620 0.81648 -0.15454
 Cu36 Cu 0.31669 0.84590 -0.15456
 N37 N 0.32891 0.86177 -0.18265
 N38 N 0.31766 0.86190 -0.17157
 C39 C 0.30775 0.87442 -0.17416
 C40 C 0.31309 0.88260 -0.18756
 C41 C 0.32653 0.87426 -0.19267
 H42 H 0.29744 0.87737 -0.16682
 H43 H 0.33401 0.87713 -0.20288
 N44 N 0.31772 0.82868 -0.13835
 N45 N 0.32897 0.81748 -0.13835
 C46 C 0.32650 0.80757 -0.12582
 C47 C 0.31310 0.81281 -0.11757
 C48 C 0.30781 0.82618 -0.12582
 H49 H 0.33390 0.79732 -0.12284
 H50 H 0.29753 0.83354 -0.12284
 H51 H 0.32803 0.82774 -0.16715
 H52 H 0.34096 0.84070 -0.15427
 N53 N 0.86149 0.31781 -0.17142
 N54 N 0.86137 0.32906 -0.18247
 C55 C 0.87382 0.32664 -0.19253
 C56 C 0.88213 0.31321 -0.18744
 C57 C 0.87399 0.30788 -0.17404
 H58 H 0.87672 0.33411 -0.20273
 H59 H 0.87700 0.29759 -0.16672
 Cu60 Cu 0.84509 0.34587 -0.18242
 Cu61 Cu 0.84555 0.31688 -0.15438
 Cu62 Cu 0.81610 0.34636 -0.15435
 N63 N 0.82831 0.36217 -0.18245
 N64 N 0.81705 0.36231 -0.17138
 C65 C 0.80715 0.37483 -0.17398
 C66 C 0.81252 0.38299 -0.18738
 C67 C 0.82594 0.37462 -0.19249
 H68 H 0.79687 0.37784 -0.16663
 H69 H 0.83344 0.37747 -0.20269
 N70 N 0.81716 0.32918 -0.13813
 N71 N 0.82838 0.31796 -0.13815
 C72 C 0.82591 0.30805 -0.12563
 C73 C 0.81253 0.31330 -0.11737
 C74 C 0.80726 0.32670 -0.12560
 H75 H 0.83329 0.29778 -0.12267
 H76 H 0.79699 0.33407 -0.12260
 H77 H 0.82747 0.32829 -0.16700
 H78 H 0.84036 0.34113 -0.15395
 N79 N 0.86163 0.81773 0.32871
 N80 N 0.86143 0.82890 0.31758
 C81 C 0.87396 0.82656 0.30760
 C82 C 0.88237 0.81323 0.31279
 C83 C 0.87423 0.80791 0.32620
 H84 H 0.87681 0.83397 0.29734
 H85 H 0.87728 0.79768 0.33358
 Cu86 Cu 0.84480 0.84534 0.31731
 Cu87 Cu 0.84561 0.81671 0.34568
 Cu88 Cu 0.81612 0.84617 0.34567
 N89 N 0.82833 0.86196 0.31756
 N90 N 0.81714 0.86216 0.32868
 C91 C 0.80730 0.87475 0.32615
 C92 C 0.81265 0.88288 0.31273
 C93 C 0.82601 0.87446 0.30755
 H94 H 0.79705 0.87778 0.33353
 H95 H 0.83346 0.87727 0.29731
 N96 N 0.81713 0.82893 0.36184
 N97 N 0.82836 0.81772 0.36184
 C98 C 0.82588 0.80781 0.37436
 C99 C 0.81248 0.81305 0.38260
 C100 C 0.80721 0.82644 0.37436
 H101 H 0.83327 0.79755 0.37735
 H102 H 0.79694 0.83381 0.37735
 H103 H 0.82738 0.82794 0.33319
 H104 H 0.84041 0.84098 0.34588
 N105 N 0.63835 0.68287 0.32867
 N106 N 0.63879 0.67190 0.31734
 C107 C 0.62636 0.67429 0.30726
 C108 C 0.61775 0.68744 0.31260
 C109 C 0.62568 0.69261 0.32617
 H110 H 0.62363 0.66696 0.29692
 H111 H 0.62240 0.70263 0.33373
 Cu112 Cu 0.65527 0.65532 0.31749
 Cu113 Cu 0.65407 0.68372 0.34597
 Cu114 Cu 0.68452 0.65530 0.34481
 N115 N 0.67160 0.63856 0.31766
 N116 N 0.68286 0.63844 0.32872
 C117 C 0.69256 0.62572 0.32634
 C118 C 0.68708 0.61744 0.31309
 C119 C 0.67376 0.62588 0.30786
 H120 H 0.70291 0.62278 0.33361
 H121 H 0.66629 0.62299 0.29766
 N122 N 0.68280 0.67156 0.36189
 N123 N 0.67125 0.68246 0.36224
 C124 C 0.67350 0.69207 0.37502
 C125 C 0.68704 0.68694 0.38309
 C126 C 0.69264 0.67392 0.37449
 H127 H 0.66592 0.70213 0.37822
 H128 H 0.70316 0.66679 0.37719
 H129 H 0.67213 0.67349 0.33304
 H130 H 0.66011 0.65965 0.34586
 N131 N 0.63814 0.18223 -0.17122
 N132 N 0.63815 0.17085 -0.18214
 C133 C 0.62564 0.17318 -0.19214
 C134 C 0.61741 0.18672 -0.18715
 C135 C 0.62565 0.19216 -0.17387
 H136 H 0.62269 0.16565 -0.20226
 H137 H 0.62275 0.20256 -0.16667
 Cu138 Cu 0.65469 0.15431 -0.18209
 Cu139 Cu 0.65423 0.18337 -0.15430
 Cu140 Cu 0.68379 0.15390 -0.15431
 N141 N 0.67128 0.13781 -0.18216
 N142 N 0.68268 0.13780 -0.17125
 C143 C 0.69265 0.12535 -0.17393
 C144 C 0.68719 0.11710 -0.18724
 C145 C 0.67361 0.12533 -0.19219
 H146 H 0.70307 0.12248 -0.16674
 H147 H 0.66605 0.12241 -0.20231
 N148 N 0.68280 0.17122 -0.13820
 N149 N 0.67155 0.18243 -0.13820
 C150 C 0.67403 0.19236 -0.12571
 C151 C 0.68744 0.18714 -0.11747
 C152 C 0.69272 0.17375 -0.12569
 H153 H 0.66660 0.20259 -0.12272
 H154 H 0.70299 0.16638 -0.12268
 H155 H 0.67234 0.17198 -0.16686
 H156 H 0.65956 0.15917 -0.15370
 N157 N 0.13821 0.68265 -0.17119
 N158 N 0.13834 0.67139 -0.18223
 C159 C 0.12587 0.67375 -0.19226
 C160 C 0.11754 0.68718 -0.18718
 C161 C 0.12568 0.69254 -0.17380
 H162 H 0.12300 0.66629 -0.20246
 H163 H 0.12268 0.70284 -0.16650
 Cu164 Cu 0.15485 0.65484 -0.18222
 Cu165 Cu 0.15420 0.68366 -0.15418
 Cu166 Cu 0.18369 0.65412 -0.15417
 N167 N 0.17137 0.63830 -0.18223
 N168 N 0.18264 0.63814 -0.17118
 C169 C 0.19250 0.62560 -0.17379
 C170 C 0.18712 0.61747 -0.18717
 C171 C 0.17370 0.62583 -0.19225
 H172 H 0.20280 0.62257 -0.16649
 H173 H 0.16622 0.62297 -0.20245
 N174 N 0.18266 0.67135 -0.13800
 N175 N 0.17144 0.68259 -0.13800
 C176 C 0.17394 0.69250 -0.12550
 C177 C 0.18732 0.68722 -0.11726
 C178 C 0.19257 0.67383 -0.12549
 H179 H 0.16656 0.70277 -0.12251
 H180 H 0.20283 0.66644 -0.12250
 H181 H 0.17240 0.67234 -0.16667
 H182 H 0.15947 0.65945 -0.15375
 N183 N 0.13814 0.18263 0.32876
 N184 N 0.13834 0.17143 0.31766
 C185 C 0.12586 0.17377 0.30764
 C186 C 0.11745 0.18713 0.31278
 C187 C 0.12556 0.19247 0.32619
 H188 H 0.12302 0.16633 0.29741
 H189 H 0.12250 0.20272 0.33353
 Cu190 Cu 0.15488 0.15491 0.31764
 Cu191 Cu 0.15411 0.18363 0.34578
 Cu192 Cu 0.18364 0.15414 0.34576
 N193 N 0.17142 0.13840 0.31763
 N194 N 0.18264 0.13820 0.32872
 C195 C 0.19250 0.12564 0.32612
 C196 C 0.18715 0.11755 0.31271
 C197 C 0.17376 0.12594 0.30759
 H198 H 0.20276 0.12258 0.33345
 H199 H 0.16631 0.12311 0.29736
 N200 N 0.18257 0.17135 0.36196
 N201 N 0.17134 0.18256 0.36196
 C202 C 0.17382 0.19247 0.37448
 C203 C 0.18722 0.18721 0.38270
 C204 C 0.19249 0.17383 0.37447
 H205 H 0.16643 0.20272 0.37746
 H206 H 0.20276 0.16646 0.37744
 H207 H 0.17234 0.17236 0.33331
 H208 H 0.15938 0.15939 0.34615
 N209 N 0.63814 0.31741 0.67132
 N210 N 0.63832 0.32861 0.68240
 C211 C 0.62583 0.32626 0.69245
 C212 C 0.61744 0.31291 0.68729
 C213 C 0.62557 0.30758 0.67388
 H214 H 0.62298 0.33369 0.70269
 H215 H 0.62251 0.29736 0.66651
 Cu216 Cu 0.65484 0.34514 0.68244
 Cu217 Cu 0.65413 0.31639 0.65428
 Cu218 Cu 0.68365 0.34583 0.65428
 N219 N 0.67141 0.36163 0.68240
 N220 N 0.68264 0.36181 0.67132
 C221 C 0.69248 0.37436 0.67390
 C222 C 0.68714 0.38248 0.68731
 C223 C 0.67376 0.37410 0.69246
 H224 H 0.70272 0.37741 0.66652
 H225 H 0.66632 0.37694 0.70270
 N226 N 0.68260 0.32862 0.63806
 N227 N 0.67137 0.31742 0.63807
 C228 C 0.67386 0.30751 0.62555
 C229 C 0.68727 0.31273 0.61731
 C230 C 0.69252 0.32611 0.62554
 H231 H 0.66648 0.29726 0.62258
 H232 H 0.70280 0.33346 0.62256
 H233 H 0.67234 0.32765 0.66670
 H234 H 0.65939 0.34062 0.65386
 N235 N 0.63835 0.81735 1.17156
 N236 N 0.63847 0.82859 1.18263
 C237 C 0.62577 0.82646 1.19242
 C238 C 0.61732 0.81318 1.18717
 C239 C 0.62561 0.80770 1.17392
 H240 H 0.62287 0.83391 1.20263
 H241 H 0.62267 0.79737 1.16663
 Cu242 Cu 0.65523 0.84488 1.18280
 Cu243 Cu 0.65523 0.81566 1.15546
 Cu244 Cu 0.68369 0.84600 1.15432
 N245 N 0.67186 0.86128 1.18296
 N246 N 0.68285 0.86169 1.17163
 C247 C 0.69260 0.87431 1.17412
 C248 C 0.68743 0.88225 1.18770
 C249 C 0.67426 0.87369 1.19304
 H250 H 0.70264 0.87757 1.16655
 H251 H 0.66692 0.87644 1.20338
 N252 N 0.68243 0.82886 1.13804
 N253 N 0.67151 0.81735 1.13838
 C254 C 0.67387 0.80753 1.12577
 C255 C 0.68691 0.81308 1.11718
 C256 C 0.69205 0.82659 1.12526
 H257 H 0.66673 0.79703 1.12306
 H258 H 0.70213 0.83413 1.12207
 H259 H 0.67342 0.82799 1.16725
 H260 H 0.65959 0.84004 1.15443
 N261 N 0.13824 0.31750 1.17145
 N262 N 0.13855 0.32858 1.18269
 C263 C 0.12608 0.32623 1.19272
 C264 C 0.11756 0.31300 1.18746
 C265 C 0.12560 0.30775 1.17397
 H266 H 0.12329 0.33359 1.20303
 H267 H 0.12244 0.29763 1.16649
 Cu268 Cu 0.15512 0.34504 1.18268
 Cu269 Cu 0.15414 0.31655 1.15433
 Cu270 Cu 0.18363 0.34600 1.15431
 N271 N 0.17160 0.36158 1.18266
 N272 N 0.18269 0.36188 1.17141
 C273 C 0.19245 0.37450 1.17391
 C274 C 0.18719 0.38253 1.18740
 C275 C 0.17395 0.37403 1.19268
 H276 H 0.20258 0.37767 1.16643
 H277 H 0.16658 0.37682 1.20299
 N278 N 0.18252 0.32886 1.13805
 N279 N 0.17130 0.31766 1.13806
 C280 C 0.17379 0.30776 1.12554
 C281 C 0.18718 0.31300 1.11730
 C282 C 0.19243 0.32637 1.12553
 H283 H 0.16643 0.29749 1.12258
 H284 H 0.20272 0.33372 1.12255
 H285 H 0.17247 0.32769 1.16670
 H286 H 0.15939 0.34077 1.15410
 N287 N 0.13822 0.81759 0.67118
 N288 N 0.13837 0.82882 0.68224
 C289 C 0.12591 0.82648 0.69230
 C290 C 0.11755 0.81311 0.68719
 C291 C 0.12567 0.80775 0.67379
 H292 H 0.12305 0.83394 0.70251
 H293 H 0.12264 0.79747 0.66647
 Cu294 Cu 0.15491 0.84532 0.68225
 Cu295 Cu 0.15420 0.81655 0.65415
 Cu296 Cu 0.18371 0.84600 0.65414
 N297 N 0.17144 0.86181 0.68224
 N298 N 0.18269 0.86196 0.67117
 C299 C 0.19255 0.87449 0.67376
 C300 C 0.18718 0.88261 0.68715
 C301 C 0.17379 0.87426 0.69227
 H302 H 0.20283 0.87751 0.66643
 H303 H 0.16632 0.87713 0.70249
 N304 N 0.18267 0.82880 0.63796
 N305 N 0.17144 0.81759 0.63796
 C306 C 0.17393 0.80771 0.62543
 C307 C 0.18731 0.81296 0.61719
 C308 C 0.19257 0.82632 0.62543
 H309 H 0.16654 0.79747 0.62243
 H310 H 0.20283 0.83370 0.62243
 H311 H 0.17242 0.82779 0.66664
 H312 H 0.15947 0.84075 0.65376
 N313 N 0.36170 0.68283 0.67152
 N314 N 0.36128 0.67184 0.68284
 C315 C 0.37370 0.67424 0.69293
 C316 C 0.38229 0.68740 0.68760
 C317 C 0.37434 0.69257 0.67402
 H318 H 0.37644 0.66690 0.70327
 H319 H 0.37760 0.70260 0.66646
 Cu320 Cu 0.34481 0.65525 0.68268
 Cu321 Cu 0.34597 0.68368 0.65420
 Cu322 Cu 0.31558 0.65525 0.65531
 N323 N 0.32850 0.63847 0.68249
 N324 N 0.31725 0.63836 0.67141
 C325 C 0.30758 0.62564 0.67376
 C326 C 0.31305 0.61733 0.68701
 C327 C 0.32634 0.62577 0.69227
 H328 H 0.29725 0.62271 0.66647
 H329 H 0.33380 0.62287 0.70248
 N330 N 0.31728 0.67153 0.63823
 N331 N 0.32880 0.68244 0.63790
 C332 C 0.32654 0.69205 0.62511
 C333 C 0.31301 0.68692 0.61703
 C334 C 0.30745 0.67389 0.62562
 H335 H 0.33409 0.70212 0.62192
 H336 H 0.29694 0.66676 0.62291
 H337 H 0.32792 0.67342 0.66711
 H338 H 0.33998 0.65961 0.65429
 N339 N 0.36189 0.18251 1.17136
 N340 N 0.36170 0.17132 1.18250
 C341 C 0.37436 0.17348 1.19233
 C342 C 0.38286 0.18672 1.18705
 C343 C 0.37464 0.19215 1.17372
 H344 H 0.37719 0.16606 1.20258
 H345 H 0.37765 0.20242 1.16638
 Cu346 Cu 0.34489 0.15506 1.18272
 Cu347 Cu 0.34503 0.18415 1.15525
 Cu348 Cu 0.31608 0.15427 1.15457
 N349 N 0.32822 0.13869 1.18293
 N350 N 0.31703 0.13849 1.17180
 C351 C 0.30729 0.12585 1.17429
 C352 C 0.31269 0.11769 1.18764
 C353 C 0.32599 0.12612 1.19285
 H354 H 0.29715 0.12270 1.16683
 H355 H 0.33356 0.12313 1.20295
 N356 N 0.31735 0.17143 1.13828
 N357 N 0.32855 0.18267 1.13834
 C358 C 0.32628 0.19240 1.12563
 C359 C 0.31300 0.18706 1.11728
 C360 C 0.30764 0.17377 1.12559
 H361 H 0.33368 0.20264 1.12266
 H362 H 0.29740 0.16638 1.12257
 H363 H 0.32680 0.17216 1.16729
 H364 H 0.34024 0.15978 1.15436
 N365 N 0.86172 0.68253 1.17139
 N366 N 0.86160 0.67127 1.18243
 C367 C 0.87404 0.67364 1.19249
 C368 C 0.88236 0.68706 1.18740
 C369 C 0.87422 0.69242 1.17401
 H370 H 0.87692 0.66616 1.20268
 H371 H 0.87725 0.70270 1.16668
 Cu372 Cu 0.84533 0.65450 1.18240
 Cu373 Cu 0.84577 0.68348 1.15436
 Cu374 Cu 0.81634 0.65405 1.15436
 N375 N 0.82856 0.63824 1.18243
 N376 N 0.81730 0.63812 1.17139
 C377 C 0.80740 0.62562 1.17400
 C378 C 0.81276 0.61749 1.18739
 C379 C 0.82618 0.62580 1.19248
 H380 H 0.79713 0.62260 1.16667
 H381 H 0.83366 0.62291 1.20267
 N382 N 0.81739 0.67121 1.13815
 N383 N 0.82860 0.68242 1.13815
 C384 C 0.82610 0.69233 1.12563
 C385 C 0.81272 0.68708 1.11740
 C386 C 0.80748 0.67369 1.12564
 H387 H 0.83346 0.70259 1.12265
 H388 H 0.79721 0.66633 1.12267
 H389 H 0.82771 0.67209 1.16701
 H390 H 0.84060 0.65922 1.15394
 N391 N 0.86164 0.18257 0.67134
 N392 N 0.86131 0.17151 0.68259
 C393 C 0.87377 0.17387 0.69264
 C394 C 0.88228 0.18710 0.68736
 C395 C 0.87427 0.19233 0.67384
 H396 H 0.87654 0.16651 0.70295
 H397 H 0.87745 0.20244 0.66635
 Cu398 Cu 0.84479 0.15501 0.68259
 Cu399 Cu 0.84577 0.18348 0.65420
 Cu400 Cu 0.81630 0.15400 0.65421
 N401 N 0.82829 0.13848 0.68259
 N402 N 0.81723 0.13816 0.67135
 C403 C 0.80748 0.12552 0.67383
 C404 C 0.81273 0.11750 0.68733
 C405 C 0.82595 0.12602 0.69263
 H406 H 0.79739 0.12232 0.66633
 H407 H 0.83331 0.12324 0.70293
 N408 N 0.81742 0.17112 0.63793
 N409 N 0.82863 0.18234 0.63793
 C410 C 0.82614 0.19222 0.62538
 C411 C 0.81277 0.18694 0.61715
 C412 C 0.80752 0.17358 0.62540
 H413 H 0.83349 0.20249 0.62240
 H414 H 0.79726 0.16621 0.62244
 H415 H 0.82744 0.17231 0.66659
 H416 H 0.84056 0.15923 0.65400
 N417 N 0.31729 0.36183 0.67115
 N418 N 0.32850 0.36165 0.68223
 C419 C 0.32616 0.37414 0.69224
 C420 C 0.31279 0.38253 0.68709
 C421 C 0.30744 0.37441 0.67370
 H422 H 0.33361 0.37699 0.70245
 H423 H 0.29720 0.37748 0.66633
 Cu424 Cu 0.34511 0.34518 0.68239
 Cu425 Cu 0.31630 0.34585 0.65416
 Cu426 Cu 0.34577 0.31639 0.65418
 N427 N 0.36158 0.32857 0.68225
 N428 N 0.36175 0.31737 0.67117
 C429 C 0.37433 0.30751 0.67373
 C430 C 0.38246 0.31285 0.68712
 C431 C 0.37407 0.32622 0.69227
 H432 H 0.37740 0.29728 0.66636
 H433 H 0.37693 0.33367 0.70248
 N434 N 0.32855 0.31742 0.63801
 N435 N 0.31733 0.32864 0.63800
 C436 C 0.30741 0.32615 0.62549
 C437 C 0.31267 0.31275 0.61727
 C438 C 0.32607 0.30750 0.62550
 H439 H 0.29715 0.33353 0.62250
 H440 H 0.33345 0.29724 0.62252
 H441 H 0.32763 0.32773 0.66672
 H442 H 0.34061 0.34069 0.65385
 N443 N 0.31737 0.86188 0.17113
 N444 N 0.32863 0.86176 0.18219
 C445 C 0.32650 0.87447 0.19195
 C446 C 0.31322 0.88294 0.18668
 C447 C 0.30771 0.87464 0.17346
 H448 H 0.33397 0.87737 0.20214
 H449 H 0.29738 0.87758 0.16617
 Cu450 Cu 0.34494 0.84498 0.18240
 Cu451 Cu 0.31569 0.84499 0.15506
 Cu452 Cu 0.34611 0.81653 0.15397
 N453 N 0.36139 0.82838 0.18259
 N454 N 0.36182 0.81738 0.17128
 C455 C 0.37448 0.80764 0.17379
 C456 C 0.38240 0.81283 0.18736
 C457 C 0.37381 0.82599 0.19268
 H458 H 0.37776 0.79760 0.16625
 H459 H 0.37654 0.83334 0.20300
 N460 N 0.32894 0.81779 0.13769
 N461 N 0.31741 0.82870 0.13801
 C462 C 0.30757 0.82635 0.12541
 C463 C 0.31316 0.81330 0.11684
 C464 C 0.32669 0.80817 0.12492
 H465 H 0.29706 0.83348 0.12270
 H466 H 0.33425 0.79809 0.12175
 H467 H 0.32806 0.82681 0.16688
 H468 H 0.34010 0.84061 0.15403
 N469 N 0.81750 0.36213 0.17096
 N470 N 0.82870 0.36193 0.18207
 C471 C 0.82641 0.37445 0.19203
 C472 C 0.81307 0.38288 0.18686
 C473 C 0.80770 0.37474 0.17348
 H474 H 0.83385 0.37729 0.20227
 H475 H 0.79746 0.37781 0.16612
 Cu476 Cu 0.84514 0.34530 0.18234
 Cu477 Cu 0.81645 0.34611 0.15402
 Cu478 Cu 0.84592 0.31663 0.15403
 N479 N 0.86175 0.32885 0.18209
 N480 N 0.86194 0.31765 0.17099
 C481 C 0.87454 0.30784 0.17352
 C482 C 0.88267 0.31318 0.18691
 C483 C 0.87426 0.32653 0.19208
 H484 H 0.87759 0.29759 0.16617
 H485 H 0.87710 0.33395 0.20231
 N486 N 0.82866 0.31763 0.13789
 N487 N 0.81744 0.32885 0.13788
 C488 C 0.80751 0.32636 0.12539
 C489 C 0.81276 0.31296 0.11716
 C490 C 0.82616 0.30771 0.12539
 H491 H 0.79725 0.33375 0.12240
 H492 H 0.83355 0.29745 0.12241
 H493 H 0.82769 0.32790 0.16654
 H494 H 0.84073 0.34090 0.15379
 N495 N 0.81737 0.86212 0.67126
 N496 N 0.82845 0.86180 0.68249
 C497 C 0.82611 0.87428 0.69250
 C498 C 0.81289 0.88283 0.68722
 C499 C 0.80762 0.87479 0.67374
 H500 H 0.83350 0.87706 0.70279
 H501 H 0.79751 0.87798 0.66625
 Cu502 Cu 0.84496 0.84523 0.68251
 Cu503 Cu 0.81645 0.84622 0.65416
 Cu504 Cu 0.84594 0.81670 0.65417
 N505 N 0.86150 0.82870 0.68252
 N506 N 0.86183 0.81762 0.67129
 C507 C 0.87447 0.80785 0.67378
 C508 C 0.88250 0.81310 0.68727
 C509 C 0.87398 0.82633 0.69255
 H510 H 0.87766 0.79774 0.66631
 H511 H 0.87676 0.83370 0.70284
 N512 N 0.82879 0.81783 0.63791
 N513 N 0.81756 0.82905 0.63790
 C514 C 0.80766 0.82657 0.62538
 C515 C 0.81293 0.81318 0.61716
 C516 C 0.82632 0.80792 0.62539
 H517 H 0.79738 0.83393 0.62241
 H518 H 0.83369 0.79764 0.62244
 H519 H 0.82765 0.82789 0.66656
 H520 H 0.84072 0.84094 0.65393
 N521 N 0.68266 0.63812 0.67139
 N522 N 0.67145 0.63830 0.68251
 C523 C 0.67381 0.62582 0.69251
 C524 C 0.68717 0.61742 0.68734
 C525 C 0.69250 0.62555 0.67393
 H526 H 0.66637 0.62296 0.70274
 H527 H 0.70274 0.62249 0.66655
 Cu528 Cu 0.65483 0.65478 0.68265
 Cu529 Cu 0.68364 0.65411 0.65439
 Cu530 Cu 0.65417 0.68356 0.65440
 N531 N 0.63836 0.67140 0.68253
 N532 N 0.63818 0.68260 0.67141
 C533 C 0.62561 0.69244 0.67396
 C534 C 0.61747 0.68713 0.68737
 C535 C 0.62586 0.67377 0.69253
 H536 H 0.62255 0.70268 0.66658
 H537 H 0.62300 0.66633 0.70277
 N538 N 0.67139 0.68254 0.63820
 N539 N 0.68262 0.67132 0.63820
 C540 C 0.69254 0.67382 0.62568
 C541 C 0.68728 0.68721 0.61745
 C542 C 0.67388 0.69246 0.62569
 H543 H 0.70281 0.66644 0.62269
 H544 H 0.66650 0.70273 0.62272
 H545 H 0.67232 0.67223 0.66694
 H546 H 0.65934 0.65928 0.65410
 N547 N 0.68272 0.13772 0.17104
 N548 N 0.67152 0.13791 0.18217
 C549 C 0.67382 0.12537 0.19212
 C550 C 0.68715 0.11694 0.18692
 C551 C 0.69252 0.12510 0.17354
 H552 H 0.66638 0.12251 0.20235
 H553 H 0.70277 0.12205 0.16618
 Cu554 Cu 0.65508 0.15453 0.18246
 Cu555 Cu 0.68377 0.15375 0.15410
 Cu556 Cu 0.65429 0.18322 0.15415
 N557 N 0.63845 0.17098 0.18222
 N558 N 0.63826 0.18218 0.17111
 C559 C 0.62566 0.19199 0.17364
 C560 C 0.61751 0.18664 0.18703
 C561 C 0.62593 0.17329 0.19220
 H562 H 0.62261 0.20225 0.16629
 H563 H 0.62307 0.16586 0.20243
 N564 N 0.67155 0.18225 0.13800
 N565 N 0.68278 0.17103 0.13797
 C566 C 0.69271 0.17356 0.12547
 C567 C 0.68745 0.18697 0.11727
 C568 C 0.67405 0.19220 0.12551
 H569 H 0.70298 0.16618 0.12246
 H570 H 0.66665 0.20246 0.12254
 H571 H 0.67253 0.17195 0.16663
 H572 H 0.65949 0.15895 0.15391
 N573 N 0.18246 0.63803 0.17102
 N574 N 0.17120 0.63819 0.18209
 C575 C 0.17353 0.62571 0.19210
 C576 C 0.18692 0.61733 0.18699
 C577 C 0.19231 0.62547 0.17361
 H578 H 0.16605 0.62283 0.20232
 H579 H 0.20259 0.62244 0.16629
 Cu580 Cu 0.15466 0.65472 0.18214
 Cu581 Cu 0.18351 0.65405 0.15403
 Cu582 Cu 0.15403 0.68357 0.15406
 N583 N 0.13816 0.67128 0.18212
 N584 N 0.13802 0.68254 0.17106
 C585 C 0.12548 0.69242 0.17369
 C586 C 0.11734 0.68705 0.18708
 C587 C 0.12569 0.67363 0.19217
 H588 H 0.12246 0.70270 0.16638
 H589 H 0.12282 0.66617 0.20238
 N590 N 0.17128 0.68254 0.13788
 N591 N 0.18250 0.67131 0.13788
 C592 C 0.19241 0.67379 0.12535
 C593 C 0.18717 0.68719 0.11712
 C594 C 0.17377 0.69245 0.12536
 H595 H 0.20266 0.66639 0.12234
 H596 H 0.16638 0.70271 0.12237
 H597 H 0.17223 0.67225 0.16657
 H598 H 0.15930 0.65936 0.15366
 N599 N 0.18267 0.13791 0.67149
 N600 N 0.17149 0.13813 0.68265
 C601 C 0.17365 0.12545 0.69246
 C602 C 0.18687 0.11691 0.68714
 C603 C 0.19230 0.12514 0.67382
 H604 H 0.16621 0.12261 0.70270
 H605 H 0.20256 0.12211 0.66646
 Cu606 Cu 0.15509 0.15488 0.68270
 Cu607 Cu 0.18424 0.15466 0.65519
 Cu608 Cu 0.15486 0.18405 0.65521
 N609 N 0.13836 0.17130 0.68268
 N610 N 0.13814 0.18247 0.67152
 C611 C 0.12538 0.19213 0.67388
 C612 C 0.11717 0.18672 0.68721
 C613 C 0.12569 0.17349 0.69252
 H614 H 0.12236 0.20239 0.66652
 H615 H 0.12284 0.16606 0.70277
 N616 N 0.17125 0.18230 0.63817
 N617 N 0.18249 0.17107 0.63816
 C618 C 0.19208 0.17324 0.62533
 C619 C 0.18662 0.18646 0.61693
 C620 C 0.17340 0.19189 0.62535
 H621 H 0.20240 0.16592 0.62238
 H622 H 0.16606 0.20221 0.62243
 H623 H 0.17283 0.17265 0.66762
 H624 H 0.15999 0.15985 0.65454
 N625 N 0.31715 0.63818 0.32840
 N626 N 0.32814 0.63860 0.31707
 C627 C 0.32576 0.62618 0.30700
 C628 C 0.31259 0.61761 0.31234
 C629 C 0.30741 0.62555 0.32591
 H630 H 0.33310 0.62343 0.29666
 H631 H 0.29737 0.62229 0.33347
 Cu632 Cu 0.34475 0.65502 0.31722
 Cu633 Cu 0.31628 0.65389 0.34571
 Cu634 Cu 0.34472 0.68425 0.34455
 N635 N 0.36151 0.67133 0.31739
 N636 N 0.36161 0.68257 0.32846
 C637 C 0.37433 0.69225 0.32610
 C638 C 0.38264 0.68677 0.31286
 C639 C 0.37421 0.67349 0.30760
 H640 H 0.37725 0.70258 0.33339
 H641 H 0.37712 0.66603 0.29740
 N642 N 0.32844 0.68257 0.36162
 N643 N 0.31753 0.67106 0.36198
 C644 C 0.30791 0.67333 0.37476
 C645 C 0.31305 0.68685 0.38282
 C646 C 0.32609 0.69240 0.37422
 H647 H 0.29783 0.66579 0.37796
 H648 H 0.33322 0.70290 0.37691
 H649 H 0.32653 0.67188 0.33276
 H650 H 0.34036 0.65985 0.34560
 N651 N 0.31727 0.13796 0.82882
 N652 N 0.32869 0.13788 0.81792
 C653 C 0.32652 0.12520 0.80815
 C654 C 0.31304 0.11695 0.81322
 C655 C 0.30746 0.12536 0.82636
 H656 H 0.33407 0.12219 0.79803
 H657 H 0.29695 0.12261 0.83347
 Cu658 Cu 0.34518 0.15448 0.81759
 Cu659 Cu 0.31553 0.15489 0.84477
 Cu660 Cu 0.34584 0.18328 0.84591
 N661 N 0.36148 0.17123 0.81759
 N662 N 0.36168 0.18238 0.82875
 C663 C 0.37421 0.19225 0.82618
 C664 C 0.38230 0.18699 0.81271
 C665 C 0.37392 0.17365 0.80753
 H666 H 0.37727 0.20245 0.83358
 H667 H 0.37679 0.16625 0.79728
 N668 N 0.32861 0.18211 0.86212
 N669 N 0.31710 0.17121 0.86177
 C670 C 0.30723 0.17357 0.87436
 C671 C 0.31278 0.18660 0.88295
 C672 C 0.32633 0.19173 0.87489
 H673 H 0.29673 0.16643 0.87707
 H674 H 0.33389 0.20177 0.87810
 H675 H 0.32803 0.17288 0.83272
 H676 H 0.33993 0.15921 0.84588
 N677 N 0.81753 0.63809 0.82885
 N678 N 0.82873 0.63829 0.81773
 C679 C 0.82641 0.62579 0.80774
 C680 C 0.81307 0.61737 0.81292
 C681 C 0.80773 0.62550 0.82633
 H682 H 0.83387 0.62292 0.79752
 H683 H 0.79752 0.62242 0.83373
 Cu684 Cu 0.84532 0.65475 0.81772
 Cu685 Cu 0.81653 0.65406 0.84588
 Cu686 Cu 0.84597 0.68354 0.84584
 N687 N 0.86176 0.67137 0.81769
 N688 N 0.86193 0.68256 0.82880
 C689 C 0.87450 0.69240 0.82625
 C690 C 0.88263 0.68707 0.81283
 C691 C 0.87425 0.67373 0.80767
 H692 H 0.87756 0.70261 0.83363
 H693 H 0.87713 0.66628 0.79745
 N694 N 0.82876 0.68249 0.86205
 N695 N 0.81755 0.67128 0.86206
 C696 C 0.80762 0.67378 0.87458
 C697 C 0.81286 0.68717 0.88279
 C698 C 0.82625 0.69242 0.87455
 H699 H 0.79737 0.66641 0.87757
 H700 H 0.83362 0.70268 0.87752
 H701 H 0.82785 0.67221 0.83340
 H702 H 0.84084 0.65927 0.84626
 N703 N 0.81753 0.13783 0.32870
 N704 N 0.82886 0.13790 0.31771
 C705 C 0.82654 0.12540 0.30772
 C706 C 0.81309 0.11711 0.31279
 C707 C 0.80766 0.12531 0.32611
 H708 H 0.83406 0.12246 0.29756
 H709 H 0.79735 0.12232 0.33342
 Cu710 Cu 0.84554 0.15426 0.31757
 Cu711 Cu 0.81638 0.15387 0.34563
 Cu712 Cu 0.84683 0.18212 0.34655
 N713 N 0.86151 0.17135 0.31738
 N714 N 0.86180 0.18237 0.32864
 C715 C 0.87420 0.19238 0.32598
 C716 C 0.88212 0.18734 0.31233
 C717 C 0.87375 0.17400 0.30713
 H718 H 0.87745 0.20236 0.33361
 H719 H 0.87660 0.16664 0.29684
 N720 N 0.82897 0.18200 0.36204
 N721 N 0.81743 0.17113 0.36176
 C722 C 0.80729 0.17390 0.37403
 C723 C 0.81269 0.18715 0.38238
 C724 C 0.82641 0.19203 0.37444
 H725 H 0.79682 0.16675 0.37683
 H726 H 0.83403 0.20205 0.37762
 H727 H 0.82848 0.17177 0.33351
 H728 H 0.84059 0.15785 0.34624
 N729 N 0.68274 0.36176 0.32851
 N730 N 0.67167 0.36145 0.31727
 C731 C 0.67403 0.37392 0.30724
 C732 C 0.68725 0.38243 0.31253
 C733 C 0.69250 0.37440 0.32603
 H734 H 0.66666 0.37671 0.29694
 H735 H 0.70260 0.37757 0.33352
 Cu736 Cu 0.65517 0.34492 0.31727
 Cu737 Cu 0.68368 0.34589 0.34564
 Cu738 Cu 0.65421 0.31642 0.34563
 N739 N 0.63864 0.32841 0.31726
 N740 N 0.63833 0.31734 0.32850
 C741 C 0.62570 0.30758 0.32600
 C742 C 0.61766 0.31283 0.31251
 C743 C 0.62617 0.32606 0.30722
 H744 H 0.62252 0.29747 0.33349
 H745 H 0.62338 0.33343 0.29692
 N746 N 0.67135 0.31753 0.36189
 N747 N 0.68256 0.32875 0.36190
 C748 C 0.69246 0.32627 0.37443
 C749 C 0.68721 0.31289 0.38266
 C750 C 0.67383 0.30763 0.37442
 H751 H 0.70273 0.33363 0.37740
 H752 H 0.66648 0.29736 0.37739
 H753 H 0.67254 0.32762 0.33325
 H754 H 0.65943 0.34069 0.34585
 N755 N 0.68260 0.86204 0.82885
 N756 N 0.67138 0.86191 0.81778
 C757 C 0.67376 0.87437 0.80774
 C758 C 0.68716 0.88269 0.81287
 C759 C 0.69249 0.87456 0.82627
 H760 H 0.66631 0.87725 0.79753
 H761 H 0.70276 0.87757 0.83361
 Cu762 Cu 0.65475 0.84549 0.81763
 Cu763 Cu 0.68361 0.84609 0.84585
 Cu764 Cu 0.65415 0.81670 0.84588
 N765 N 0.63828 0.82890 0.81781
 N766 N 0.63814 0.81769 0.82890
 C767 C 0.62559 0.80784 0.82635
 C768 C 0.61743 0.81318 0.81297
 C769 C 0.62579 0.82655 0.80781
 H770 H 0.62257 0.79758 0.83371
 H771 H 0.62292 0.83400 0.79759
 N772 N 0.67137 0.81769 0.86206
 N773 N 0.68259 0.82889 0.86205
 C774 C 0.69251 0.82640 0.87456
 C775 C 0.68726 0.81303 0.88281
 C776 C 0.67387 0.80779 0.87459
 H777 H 0.70278 0.83377 0.87754
 H778 H 0.66649 0.79754 0.87759
 H779 H 0.67232 0.82800 0.83330
 H780 H 0.65936 0.84096 0.84617
 N781 N 0.18246 0.36176 0.82882
 N782 N 0.17108 0.36179 0.81790
 C783 C 0.17320 0.37451 0.80813
 C784 C 0.18663 0.38282 0.81324
 C785 C 0.19222 0.37442 0.82639
 H786 H 0.16564 0.37750 0.79803
 H787 H 0.20268 0.37722 0.83353
 Cu788 Cu 0.15465 0.34513 0.81768
 Cu789 Cu 0.18420 0.34479 0.84478
 Cu790 Cu 0.15381 0.31638 0.84595
 N791 N 0.13828 0.32844 0.81756
 N792 N 0.13798 0.31733 0.82876
 C793 C 0.12539 0.30753 0.82620
 C794 C 0.11736 0.31282 0.81271
 C795 C 0.12583 0.32610 0.80750
 H796 H 0.12224 0.29737 0.83362
 H797 H 0.12301 0.33353 0.79726
 N798 N 0.17107 0.31753 0.86214
 N799 N 0.18260 0.32842 0.86178
 C800 C 0.19245 0.32606 0.87437
 C801 C 0.18689 0.31303 0.88297
 C802 C 0.17334 0.30791 0.87492
 H803 H 0.20294 0.33321 0.87708
 H804 H 0.16577 0.29788 0.87814
 H805 H 0.17170 0.32675 0.83292
 H806 H 0.15980 0.34044 0.84599
 N807 N 0.18271 0.86180 0.32835
 N808 N 0.17154 0.86158 0.31719
 C809 C 0.17372 0.87422 0.30734
 C810 C 0.18694 0.88273 0.31265
 C811 C 0.19236 0.87453 0.32598
 H812 H 0.16630 0.87707 0.29710
 H813 H 0.20262 0.87755 0.33333
 Cu814 Cu 0.15515 0.84489 0.31717
 Cu815 Cu 0.18431 0.84510 0.34467
 Cu816 Cu 0.15493 0.81579 0.34470
 N817 N 0.13843 0.82852 0.31722
 N818 N 0.13821 0.81737 0.32839
 C819 C 0.12546 0.80773 0.32604
 C820 C 0.11726 0.81314 0.31270
 C821 C 0.12578 0.82635 0.30738
 H822 H 0.12243 0.79748 0.33340
 H823 H 0.12294 0.83377 0.29712
 N824 N 0.17132 0.81754 0.36173
 N825 N 0.18255 0.82875 0.36171
 C826 C 0.19213 0.82661 0.37454
 C827 C 0.18669 0.81342 0.38297
 C828 C 0.17348 0.80798 0.37458
 H829 H 0.20244 0.83393 0.37746
 H830 H 0.16614 0.79768 0.37753
 H831 H 0.17293 0.82716 0.33226
 H832 H 0.16009 0.84001 0.34533
 O833 O 0.27036 0.98425 0.24842
 O834 O 0.24827 1.01577 0.27016
 O835 O 0.24824 0.98428 0.27016
 O836 O 0.27041 1.01570 0.24842
 O837 O 0.25174 1.01575 0.22960
 O838 O 0.22958 0.98432 0.25134
 O839 O 0.22960 1.01582 0.25134
 O840 O 0.25169 0.98431 0.22960
 Cu841 Cu 0.26118 1.00000 0.26119
 Cu842 Cu 0.23877 1.00006 0.23858
 C843 C 0.26462 0.97872 0.23545
 C844 C 0.23535 1.02138 0.26429
 C845 C 0.23532 0.97873 0.26428
 C846 C 0.26469 1.02127 0.23546
 O847 O 0.25160 0.51578 0.72974
 O848 O 0.22957 0.48418 0.75148
 O849 O 0.22950 0.51570 0.75152
 O850 O 0.25165 0.48427 0.72970
 O851 O 0.27035 0.48425 0.74849
 O852 O 0.24819 0.51567 0.77031
 O853 O 0.24827 0.48416 0.77027
 O854 O 0.27028 0.51577 0.74854
 Cu855 Cu 0.23871 0.49998 0.73872
 Cu856 Cu 0.26115 0.49996 0.76129
 C857 C 0.26452 0.52136 0.73560
 C858 C 0.23535 0.47858 0.76441
 C859 C 0.23525 0.52125 0.76447
 C860 C 0.26460 0.47869 0.73554
 O861 O 0.72989 0.01552 0.24864
 O862 O 0.75189 -0.01605 0.27042
 O863 O 0.75197 0.01546 0.27039
 O864 O 0.72980 -0.01595 0.24868
 O865 O 0.74847 -0.01600 0.22985
 O866 O 0.77067 0.01539 0.25158
 O867 O 0.77057 -0.01613 0.25160
 O868 O 0.74858 0.01546 0.22983
 Cu869 Cu 0.73902 -0.00024 0.26143
 Cu870 Cu 0.76146 -0.00033 0.23883
 C871 C 0.73565 0.02106 0.23568
 C872 C 0.76480 -0.02169 0.26455
 C873 C 0.76491 0.02100 0.26452
 C874 C 0.73553 -0.02152 0.23572
 O875 O 0.75184 0.48416 0.77049
 O876 O 0.72971 0.51566 0.74871
 O877 O 0.72976 0.48413 0.74872
 O878 O 0.75183 0.51568 0.77045
 O879 O 0.77051 0.51565 0.75164
 O880 O 0.74843 0.48412 0.72990
 O881 O 0.74839 0.51564 0.72990
 O882 O 0.77052 0.48414 0.75168
 Cu883 Cu 0.73891 0.49991 0.76148
 Cu884 Cu 0.76134 0.49989 0.73889
 C885 C 0.76477 0.47857 0.76463
 C886 C 0.73546 0.52123 0.73577
 C887 C 0.73551 0.47854 0.73578
 C888 C 0.76476 0.52125 0.76458
 O889 O 0.22958 0.51574 0.24851
 O890 O 0.25170 0.48421 0.27024
 O891 O 0.25171 0.51570 0.27025
 O892 O 0.22956 0.48426 0.24853
 O893 O 0.24822 0.48425 0.22968
 O894 O 0.27037 0.51567 0.25141
 O895 O 0.27035 0.48417 0.25140
 O896 O 0.24825 0.51572 0.22967
 Cu897 Cu 0.23877 0.49998 0.26128
 Cu898 Cu 0.26118 0.49995 0.23865
 C899 C 0.23532 0.52130 0.23554
 C900 C 0.26461 0.47860 0.26435
 C901 C 0.26464 0.52125 0.26437
 C902 C 0.23529 0.47870 0.23556
 O903 O 0.72941 0.98454 0.75167
 O904 O 0.75157 1.01593 0.72986
 O905 O 0.75154 0.98448 0.72991
 O906 O 0.72945 1.01609 0.75162
 O907 O 0.74813 1.01607 0.77042
 O908 O 0.77021 0.98445 0.74873
 O909 O 0.77024 1.01591 0.74866
 O910 O 0.74808 0.98453 0.77047
 Cu911 Cu 0.73861 1.00026 0.73889
 Cu912 Cu 0.76103 1.00024 0.76147
 C913 C 0.73516 0.97896 0.76461
 C914 C 0.76452 1.02145 0.73570
 C915 C 0.76448 0.97890 0.73577
 C916 C 0.73523 1.02170 0.76454
 O917 O 0.75172 0.51577 0.22980
 O918 O 0.72960 0.48434 0.25157
 O919 O 0.72964 0.51584 0.25157
 O920 O 0.75170 0.48432 0.22979
 O921 O 0.77038 0.48426 0.24859
 O922 O 0.74833 0.51579 0.27036
 O923 O 0.74828 0.48429 0.27037
 O924 O 0.77041 0.51573 0.24860
 Cu925 Cu 0.73878 0.50007 0.23880
 Cu926 Cu 0.76122 0.50001 0.26138
 C927 C 0.76466 0.52131 0.23565
 C928 C 0.73535 0.47875 0.26451
 C929 C 0.73541 0.52140 0.26450
 C930 C 0.76463 0.47873 0.23563
 O931 O 0.25208 -0.01624 0.77037
 O932 O 0.22993 0.01541 0.74875
 O933 O 0.22992 -0.01606 0.74867
 O934 O 0.25199 0.01531 0.77053
 O935 O 0.27067 0.01539 0.75171
 O936 O 0.24860 -0.01602 0.72985
 O937 O 0.24861 0.01546 0.72992
 O938 O 0.27076 -0.01618 0.75156
 Cu939 Cu 0.23913 -0.00041 0.76148
 Cu940 Cu 0.26155 -0.00033 0.73888
 C941 C 0.26501 -0.02183 0.76448
 C942 C 0.23567 0.02102 0.73579
 C943 C 0.23566 -0.02158 0.73569
 C944 C 0.26489 0.02094 0.76466
 O945 O 0.24839 0.27023 0.98430
 O946 O 0.27030 0.24821 1.01573
 O947 O 0.27026 0.24818 0.98430
 O948 O 0.24842 0.27026 1.01574
 O949 O 0.22959 0.25158 1.01580
 O950 O 0.25142 0.22951 0.98436
 O951 O 0.25147 0.22953 1.01579
 O952 O 0.22955 0.25156 0.98436
 Cu953 Cu 0.26124 0.26110 1.00001
 Cu954 Cu 0.23861 0.23867 1.00008
 C955 C 0.23541 0.26447 0.97877
 C956 C 0.26445 0.23530 1.02132
 C957 C 0.26439 0.23526 0.97876
 C958 C 0.23546 0.26451 1.02134
 O959 O 0.27040 0.74848 0.51558
 O960 O 0.24852 0.77046 0.48409
 O961 O 0.24851 0.77051 0.51552
 O962 O 0.27043 0.74847 0.48413
 O963 O 0.25162 0.72976 0.48416
 O964 O 0.22969 0.75181 0.51554
 O965 O 0.22971 0.75175 0.48411
 O966 O 0.25158 0.72979 0.51561
 Cu967 Cu 0.26136 0.76136 0.49983
 Cu968 Cu 0.23876 0.73890 0.49986
 C969 C 0.26454 0.73557 0.52118
 C970 C 0.23556 0.76467 0.47852
 C971 C 0.23554 0.76474 0.52109
 C972 C 0.26458 0.73555 0.47857
 O973 O 0.27064 0.75157 -0.01584
 O974 O 0.24864 0.72969 0.01562
 O975 O 0.24864 0.72968 -0.01580
 O976 O 0.27057 0.75164 0.01562
 O977 O 0.25178 0.77041 0.01557
 O978 O 0.22987 0.74846 -0.01583
 O979 O 0.22986 0.74847 0.01559
 O980 O 0.25186 0.77034 -0.01588
 Cu981 Cu 0.26151 0.73876 -0.00010
 Cu982 Cu 0.23896 0.76131 -0.00014
 C983 C 0.26482 0.76451 -0.02144
 C984 C 0.23567 0.73553 0.02118
 C985 C 0.23569 0.73550 -0.02137
 C986 C 0.26473 0.76458 0.02117
 O987 O 0.22953 0.24830 0.48437
 O988 O 0.25148 0.27025 0.51575
 O989 O 0.25148 0.27022 0.48433
 O990 O 0.22955 0.24832 0.51582
 O991 O 0.24834 0.22955 0.51582
 O992 O 0.27027 0.25146 0.48434
 O993 O 0.27027 0.25148 0.51576
 O994 O 0.24832 0.22953 0.48437
 Cu995 Cu 0.23862 0.26116 0.50007
 Cu996 Cu 0.26118 0.23862 0.50007
 C997 C 0.23536 0.23535 0.47880
 C998 C 0.26445 0.26444 0.52131
 C999 C 0.26444 0.26440 0.47876
 C1000 C 0.23538 0.23538 0.52140
 O1001 O 0.74847 0.77043 0.98439
 O1002 O 0.77035 0.74838 1.01581
 O1003 O 0.77040 0.74843 0.98439
 O1004 O 0.74846 0.77039 1.01582
 O1005 O 0.72966 0.75167 1.01580
 O1006 O 0.75159 0.72972 0.98436
 O1007 O 0.75154 0.72966 1.01578
 O1008 O 0.72966 0.75172 0.98437
 Cu1009 Cu 0.76131 0.76128 1.00010
 Cu1010 Cu 0.73872 0.73882 1.00007
 C1011 C 0.73551 0.76466 0.97882
 C1012 C 0.76449 0.73544 1.02137
 C1013 C 0.76457 0.73550 0.97881
 C1014 C 0.73550 0.76459 1.02139
 O1015 O 0.74843 0.27018 0.48417
 O1016 O 0.77029 0.24815 0.51560
 O1017 O 0.77035 0.24817 0.48418
 O1018 O 0.74839 0.27016 0.51561
 O1019 O 0.72958 0.25146 0.51560
 O1020 O 0.75154 0.22947 0.48416
 O1021 O 0.75148 0.22944 0.51558
 O1022 O 0.72962 0.25148 0.48416
 Cu1023 Cu 0.76125 0.26104 0.49989
 Cu1024 Cu 0.73866 0.23858 0.49987
 C1025 C 0.73547 0.26440 0.47859
 C1026 C 0.76444 0.23522 0.52115
 C1027 C 0.76451 0.23525 0.47861
 C1028 C 0.73542 0.26438 0.52118
 O1029 O 0.77027 0.25179 -0.01583
 O1030 O 0.74844 0.22974 0.01562
 O1031 O 0.74840 0.22978 -0.01581
 O1032 O 0.77032 0.25174 0.01560
 O1033 O 0.75147 0.27045 0.01565
 O1034 O 0.72955 0.24848 -0.01578
 O1035 O 0.72959 0.24844 0.01567
 O1036 O 0.75143 0.27049 -0.01578
 Cu1037 Cu 0.76125 0.23888 -0.00011
 Cu1038 Cu 0.73862 0.26134 -0.00005
 C1039 C 0.76440 0.26472 -0.02138
 C1040 C 0.73547 0.23551 0.02122
 C1041 C 0.73541 0.23556 -0.02136
 C1042 C 0.76446 0.26467 0.02119
 O1043 O 0.77033 0.75180 0.48433
 O1044 O 0.74844 0.72980 0.51579
 O1045 O 0.74846 0.72980 0.48435
 O1046 O 0.77037 0.75176 0.51577
 O1047 O 0.75154 0.77049 0.51579
 O1048 O 0.72962 0.74852 0.48437
 O1049 O 0.72962 0.74853 0.51581
 O1050 O 0.75150 0.77052 0.48436
 Cu1051 Cu 0.76129 0.73891 0.50006
 Cu1052 Cu 0.73868 0.76139 0.50009
 C1053 C 0.76446 0.76473 0.47877
 C1054 C 0.73547 0.73559 0.52137
 C1055 C 0.73549 0.73560 0.47879
 C1056 C 0.76452 0.76469 0.52134
 O1057 O 0.98415 0.24831 0.27027
 O1058 O 1.01567 0.27050 0.24862
 O1059 O 0.98415 0.27045 0.24855
 O1060 O 1.01567 0.24834 0.27030
 O1061 O 1.01574 0.22973 0.25144
 O1062 O 0.98422 0.25183 0.22970
 O1063 O 1.01573 0.25189 0.22976
 O1064 O 0.98422 0.22969 0.25142
 Cu1065 Cu 0.99990 0.26126 0.26133
 Cu1066 Cu 0.99998 0.23892 0.23869
 C1067 C 0.97861 0.23539 0.26437
 C1068 C 1.02127 0.26480 0.23566
 C1069 C 0.97862 0.26473 0.23557
 C1070 C 1.02128 0.23545 0.26440
 O1071 O 0.51568 0.27026 0.74862
 O1072 O 0.48414 0.24819 0.77039
 O1073 O 0.51568 0.24816 0.77038
 O1074 O 0.48415 0.27028 0.74862
 O1075 O 0.48418 0.25163 0.72980
 O1076 O 0.51569 0.22950 0.75157
 O1077 O 0.48416 0.22954 0.75156
 O1078 O 0.51571 0.25160 0.72981
 Cu1079 Cu 0.49991 0.26109 0.76139
 Cu1080 Cu 0.49994 0.23870 0.73880
 C1081 C 0.52128 0.26451 0.73568
 C1082 C 0.47857 0.23528 0.76451
 C1083 C 0.52127 0.23524 0.76451
 C1084 C 0.47859 0.26455 0.73566
 O1085 O 0.01552 0.25177 0.77033
 O1086 O -0.01600 0.22964 0.74865
 O1087 O 0.01553 0.22964 0.74862
 O1088 O -0.01601 0.25184 0.77030
 O1089 O -0.01600 0.27044 0.75143
 O1090 O 0.01553 0.24825 0.72975
 O1091 O -0.01599 0.24825 0.72978
 O1092 O 0.01554 0.27038 0.75146
 Cu1093 Cu -0.00024 0.23886 0.76138
 Cu1094 Cu -0.00023 0.26120 0.73871
 C1095 C 0.02110 0.26467 0.76443
 C1096 C -0.02156 0.23535 0.73568
 C1097 C 0.02110 0.23534 0.73564
 C1098 C -0.02159 0.26474 0.76439
 O1099 O 0.48436 0.27016 0.25146
 O1100 O 0.51588 0.24803 0.22972
 O1101 O 0.48437 0.24800 0.22979
 O1102 O 0.51588 0.27016 0.25142
 O1103 O 0.51592 0.25155 0.27028
 O1104 O 0.48439 0.22938 0.24866
 O1105 O 0.51592 0.22941 0.24858
 O1106 O 0.48441 0.25155 0.27034
 Cu1107 Cu 0.50012 0.26095 0.23870
 Cu1108 Cu 0.50017 0.23860 0.26136
 C1109 C 0.47881 0.26445 0.26444
 C1110 C 0.52148 0.23512 0.23561
 C1111 C 0.47881 0.23509 0.23569
 C1112 C 0.52147 0.26446 0.26438
 O1113 O 0.98435 0.75196 0.72972
 O1114 O 1.01581 0.72981 0.75150
 O1115 O 0.98429 0.72985 0.75147
 O1116 O 1.01585 0.75194 0.72978
 O1117 O 1.01582 0.77057 0.74861
 O1118 O 0.98425 0.74848 0.77030
 O1119 O 1.01578 0.74845 0.77033
 O1120 O 0.98430 0.77060 0.74856
 Cu1121 Cu 1.00007 0.73902 0.73873
 Cu1122 Cu 1.00003 0.76139 0.76135
 C1123 C 0.97876 0.76489 0.73558
 C1124 C 1.02137 0.73553 0.76445
 C1125 C 0.97869 0.73557 0.76442
 C1126 C 1.02141 0.76485 0.73566
 O1127 O 0.51572 0.72967 0.25155
 O1128 O 0.48430 0.75187 0.22977
 O1129 O 0.51579 0.75181 0.22986
 O1130 O 0.48420 0.72971 0.25147
 O1131 O 0.48415 0.74833 0.27032
 O1132 O 0.51576 0.77043 0.24871
 O1133 O 0.48424 0.77048 0.24863
 O1134 O 0.51566 0.74828 0.27041
 Cu1135 Cu 0.50001 0.73890 0.23877
 Cu1136 Cu 0.49995 0.76125 0.26142
 C1137 C 0.52126 0.73537 0.26453
 C1138 C 0.47872 0.76479 0.23564
 C1139 C 0.52136 0.76471 0.23576
 C1140 C 0.47859 0.73543 0.26441
 O1141 O 0.01564 0.75179 0.27027
 O1142 O -0.01589 0.72963 0.24864
 O1143 O 0.01564 0.72965 0.24857
 O1144 O -0.01590 0.75178 0.27032
 O1145 O -0.01593 0.77039 0.25146
 O1146 O 0.01559 0.74827 0.22971
 O1147 O -0.01592 0.74825 0.22978
 O1148 O 0.01561 0.77040 0.25140
 Cu1149 Cu -0.00012 0.73885 0.26135
 Cu1150 Cu -0.00017 0.76120 0.23869
 C1151 C 0.02121 0.76469 0.26436
 C1152 C -0.02148 0.73534 0.23568
 C1153 C 0.02119 0.73536 0.23559
 C1154 C -0.02150 0.76468 0.26442
 O1155 O 0.51570 0.74848 0.72995
 O1156 O 0.48412 0.77061 0.75166
 O1157 O 0.51568 0.77063 0.75163
 O1158 O 0.48417 0.74848 0.72993
 O1159 O 0.48417 0.72986 0.74879
 O1160 O 0.51569 0.75199 0.77048
 O1161 O 0.48415 0.75199 0.77052
 O1162 O 0.51571 0.72984 0.74879
 Cu1163 Cu 0.49991 0.76142 0.73890
 Cu1164 Cu 0.49993 0.73906 0.76154
 C1165 C 0.52129 0.73556 0.73583
 C1166 C 0.47855 0.76489 0.76463
 C1167 C 0.52127 0.76490 0.76458
 C1168 C 0.47859 0.73557 0.73582
 C1169 C 0.42421 0.29301 0.29279
 N1170 N 0.41712 0.30604 0.28602
 N1171 N 0.40379 0.31228 0.29231
 C1172 C 0.39705 0.30571 0.30559
 N1173 N 0.40412 0.29267 0.31235
 N1174 N 0.41745 0.28643 0.30606
 C1175 C 0.43881 0.28600 0.28578
 N1176 N 0.44567 0.27279 0.29242
 N1177 N 0.45865 0.26613 0.28582
 C1178 C 0.46527 0.27249 0.27238
 N1179 N 0.45847 0.28577 0.26579
 N1180 N 0.44549 0.29242 0.27239
 C1181 C 0.42388 0.79345 0.79294
 N1182 N 0.41694 0.80663 0.78630
 N1183 N 0.40366 0.81294 0.79263
 C1184 C 0.39680 0.80630 0.80583
 N1185 N 0.40373 0.79309 0.81243
 N1186 N 0.41701 0.78678 0.80610
 C1187 C 0.43847 0.78641 0.78591
 N1188 N 0.44528 0.77314 0.79250
 N1189 N 0.45827 0.76650 0.78592
 C1190 C 0.46498 0.77292 0.77255
 N1191 N 0.45822 0.78625 0.76601
 N1192 N 0.44523 0.79289 0.77259
 C1193 C -0.07618 0.29342 0.79266
 N1194 N -0.08306 0.28675 0.80582
 N1195 N -0.09636 0.29304 0.81213
 C1196 C -0.10328 0.30622 0.80548
 N1197 N -0.09644 0.31288 0.79230
 N1198 N -0.08313 0.30658 0.78599
 C1199 C -0.06160 0.28637 0.78566
 N1200 N -0.05484 0.29282 0.77232
 N1201 N -0.04186 0.28613 0.76574
 C1202 C -0.03513 0.27280 0.77230
 N1203 N -0.04184 0.26642 0.78569
 N1204 N -0.05482 0.27310 0.79226
 C1205 C -0.07605 0.79335 0.29278
 N1206 N -0.08299 0.80653 0.28613
 N1207 N -0.09625 0.81286 0.29249
 C1208 C -0.10306 0.80623 0.30571
 N1209 N -0.09614 0.79304 0.31233
 N1210 N -0.08288 0.78671 0.30597
 C1211 C -0.06150 0.78628 0.28573
 N1212 N -0.05471 0.77300 0.29232
 N1213 N -0.04175 0.76632 0.28573
 C1214 C -0.03505 0.77271 0.27233
 N1215 N -0.04179 0.78604 0.26579
 N1216 N -0.05476 0.79272 0.27238
 C1217 C 0.57584 0.70686 0.29288
 N1218 N 0.58257 0.71345 0.30615
 N1219 N 0.59593 0.70726 0.31240
 C1220 C 0.60307 0.69428 0.30561
 N1221 N 0.59636 0.68769 0.29233
 N1222 N 0.58299 0.69388 0.28607
 C1223 C 0.56123 0.71383 0.28588
 N1224 N 0.55458 0.70742 0.27249
 N1225 N 0.54160 0.71406 0.26589
 C1226 C 0.53477 0.72732 0.27247
 N1227 N 0.54137 0.73368 0.28591
 N1228 N 0.55435 0.72704 0.29252
 C1229 C 0.57588 0.20665 0.79281
 N1230 N 0.58282 0.21340 0.80588
 N1231 N 0.59608 0.20706 0.81222
 C1232 C 0.60288 0.19375 0.80572
 N1233 N 0.59596 0.18702 0.79263
 N1234 N 0.58270 0.19336 0.78628
 C1235 C 0.56132 0.21372 0.78578
 N1236 N 0.55451 0.20719 0.77251
 N1237 N 0.54152 0.21385 0.76594
 C1238 C 0.53483 0.22723 0.77242
 N1239 N 0.54159 0.23370 0.78573
 N1240 N 0.55458 0.22705 0.79230
 C1241 C 1.07594 0.70696 0.79280
 N1242 N 1.08278 0.71365 0.80596
 N1243 N 1.09606 0.70736 0.81230
 C1244 C 1.10299 0.69417 0.80571
 N1245 N 1.09618 0.68749 0.79253
 N1246 N 1.08289 0.69378 0.78618
 C1247 C 1.06138 0.71400 0.78577
 N1248 N 1.05464 0.70752 0.77244
 N1249 N 1.04166 0.71417 0.76585
 C1250 C 1.03491 0.72750 0.77238
 N1251 N 1.04159 0.73392 0.78575
 N1252 N 1.05457 0.72727 0.79234
 C1253 C 1.07583 0.20687 0.29278
 N1254 N 1.08280 0.19371 0.28614
 N1255 N 1.09608 0.18742 0.29249
 C1256 C 1.10288 0.19409 0.30568
 N1257 N 1.09592 0.20726 0.31230
 N1258 N 1.08265 0.21354 0.30596
 C1259 C 1.06128 0.21392 0.28573
 N1260 N 1.05447 0.22718 0.29231
 N1261 N 1.04150 0.23384 0.28571
 C1262 C 1.03483 0.22743 0.27232
 N1263 N 1.04160 0.21411 0.26578
 N1264 N 1.05457 0.20746 0.27239
 C1265 C 0.57578 0.29317 0.70725
 N1266 N 0.58271 0.30633 0.71389
 N1267 N 0.59600 0.31262 0.70756
 C1268 C 0.60284 0.30596 0.69436
 N1269 N 0.59591 0.29280 0.68774
 N1270 N 0.58263 0.28651 0.69407
 C1271 C 0.56123 0.28611 0.71431
 N1272 N 0.55448 0.27281 0.70775
 N1273 N 0.54153 0.26613 0.71437
 C1274 C 0.53483 0.27254 0.72775
 N1275 N 0.54153 0.28589 0.73426
 N1276 N 0.55448 0.29257 0.72765
 C1277 C 0.57575 0.79341 0.20723
 N1278 N 0.58253 0.78679 0.19399
 N1279 N 0.59577 0.79310 0.18760
 C1280 C 0.60272 0.80625 0.19423
 N1281 N 0.59595 0.81287 0.20749
 N1282 N 0.58271 0.80655 0.21388
 C1283 C 0.56125 0.78632 0.21434
 N1284 N 0.55455 0.79275 0.22772
 N1285 N 0.54162 0.78607 0.23436
 C1286 C 0.53489 0.77275 0.22783
 N1287 N 0.54154 0.76637 0.21441
 N1288 N 0.55447 0.77305 0.20777
 C1289 C 1.07580 0.29343 0.20731
 N1290 N 1.08286 0.30646 0.21407
 N1291 N 1.09619 0.31269 0.20777
 C1292 C 1.10294 0.30610 0.19450
 N1293 N 1.09589 0.29307 0.18775
 N1294 N 1.08257 0.28684 0.19405
 C1295 C 1.06122 0.28640 0.21433
 N1296 N 1.05440 0.27318 0.20770
 N1297 N 1.04145 0.26652 0.21430
 C1298 C 1.03480 0.27286 0.22774
 N1299 N 1.04157 0.28614 0.23432
 N1300 N 1.05453 0.29281 0.22772
 C1301 C 1.07594 0.79340 0.70725
 N1302 N 1.08277 0.78672 0.69407
 N1303 N 1.09605 0.79298 0.68772
 C1304 C 1.10299 0.80615 0.69432
 N1305 N 1.09618 0.81282 0.70752
 N1306 N 1.08290 0.80655 0.71388
 C1307 C 1.06138 0.78638 0.71430
 N1308 N 1.05464 0.79285 0.72764
 N1309 N 1.04168 0.78620 0.73425
 C1310 C 1.03495 0.77287 0.72773
 N1311 N 1.04163 0.76646 0.71434
 N1312 N 1.05459 0.77311 0.70773
 C1313 C 0.42412 0.70692 0.70738
 N1314 N 0.41738 0.71349 0.69409
 N1315 N 0.40405 0.70727 0.68782
 C1316 C 0.39695 0.69427 0.69461
 N1317 N 0.40368 0.68770 0.70790
 N1318 N 0.41702 0.69392 0.71418
 C1319 C 0.43870 0.71394 0.71441
 N1320 N 0.44537 0.70754 0.72782
 N1321 N 0.45830 0.71422 0.73444
 C1322 C 0.46508 0.72751 0.72787
 N1323 N 0.45847 0.73385 0.71441
 N1324 N 0.44554 0.72717 0.70779
 C1325 C 0.42435 0.20652 0.20721
 N1326 N 0.41735 0.19339 0.21386
 N1327 N 0.40413 0.18707 0.20745
 C1328 C 0.39742 0.19367 0.19416
 N1329 N 0.40439 0.20682 0.18754
 N1330 N 0.41760 0.21314 0.19395
 C1331 C 0.43886 0.21357 0.21431
 N1332 N 0.44569 0.22682 0.20772
 N1333 N 0.45864 0.23346 0.21434
 C1334 C 0.46528 0.22706 0.22776
 N1335 N 0.45850 0.21376 0.23431
 N1336 N 0.44555 0.20712 0.22768
 C1337 C -0.07599 0.70674 0.20734
 N1338 N -0.08284 0.71343 0.19418
 N1339 N -0.09612 0.70717 0.18786
 C1340 C -0.10306 0.69401 0.19449
 N1341 N -0.09623 0.68732 0.20767
 N1342 N -0.08294 0.69358 0.21399
 C1343 C -0.06143 0.71377 0.21438
 N1344 N -0.05470 0.70732 0.22772
 N1345 N -0.04174 0.71398 0.23432
 C1346 C -0.03501 0.72730 0.22777
 N1347 N -0.04169 0.73370 0.21438
 N1348 N -0.05465 0.72704 0.20779
 C1349 C -0.07600 0.20670 0.70725
 N1350 N -0.08274 0.21328 0.69397
 N1351 N -0.09604 0.20704 0.68766
 C1352 C -0.10310 0.19400 0.69440
 N1353 N -0.09638 0.18741 0.70769
 N1354 N -0.08307 0.19366 0.71401
 C1355 C -0.06145 0.21374 0.71429
 N1356 N -0.05479 0.20734 0.72770
 N1357 N -0.04185 0.21401 0.73432
 C1358 C -0.03507 0.22730 0.72774
 N1359 N -0.04169 0.23364 0.71429
 N1360 N -0.05462 0.22696 0.70767
 C1361 C 0.29307 0.42396 0.29267
 N1362 N 0.30612 0.41687 0.28591
 N1363 N 0.31236 0.40355 0.29222
 C1364 C 0.30576 0.39683 0.30549
 N1365 N 0.29270 0.40389 0.31223
 N1366 N 0.28646 0.41721 0.30593
 C1367 C 0.28608 0.43856 0.28566
 N1368 N 0.27285 0.44543 0.29228
 N1369 N 0.26622 0.45841 0.28569
 C1370 C 0.27262 0.46505 0.27228
 N1371 N 0.28591 0.45824 0.26570
 N1372 N 0.29254 0.44524 0.27229
 C1373 C 0.29351 -0.07660 0.79269
 N1374 N 0.30673 -0.08352 0.78609
 N1375 N 0.31306 -0.09677 0.79247
 C1376 C 0.30640 -0.10361 0.80567
 N1377 N 0.29315 -0.09670 0.81223
 N1378 N 0.28682 -0.08346 0.80586
 C1379 C 0.28646 -0.06201 0.78565
 N1380 N 0.27318 -0.05520 0.79224
 N1381 N 0.26656 -0.04219 0.78569
 C1382 C 0.27301 -0.03545 0.77235
 N1383 N 0.28634 -0.04221 0.76580
 N1384 N 0.29296 -0.05523 0.77235
 C1385 C 0.79323 0.42395 0.79301
 N1386 N 0.80639 0.41696 0.78638
 N1387 N 0.81264 0.40366 0.79271
 C1388 C 0.80594 0.39683 0.80590
 N1389 N 0.79275 0.40382 0.81250
 N1390 N 0.78651 0.41712 0.80617
 C1391 C 0.78624 0.43855 0.78598
 N1392 N 0.77296 0.44538 0.79255
 N1393 N 0.76634 0.45836 0.78595
 C1394 C 0.77278 0.46502 0.77257
 N1395 N 0.78612 0.45825 0.76605
 N1396 N 0.79275 0.44527 0.77266
 C1397 C 0.79321 -0.07632 0.29294
 N1398 N 0.80640 -0.08329 0.28634
 N1399 N 0.81270 -0.09654 0.29274
 C1400 C 0.80603 -0.10332 0.30596
 N1401 N 0.79281 -0.09635 0.31253
 N1402 N 0.78652 -0.08311 0.30613
 C1403 C 0.78619 -0.06176 0.28587
 N1404 N 0.77291 -0.05493 0.29243
 N1405 N 0.76630 -0.04194 0.28583
 C1406 C 0.77277 -0.03527 0.27246
 N1407 N 0.78610 -0.04205 0.26595
 N1408 N 0.79271 -0.05504 0.27255
 C1409 C 0.29321 0.57577 0.70705
 N1410 N 0.30637 0.58272 0.71370
 N1411 N 0.31270 0.59595 0.70732
 C1412 C 0.30610 0.60272 0.69407
 N1413 N 0.29293 0.59579 0.68743
 N1414 N 0.28660 0.58256 0.69381
 C1415 C 0.28611 0.56127 0.71416
 N1416 N 0.27281 0.55449 0.70761
 N1417 N 0.26613 0.54157 0.71426
 C1418 C 0.27253 0.53491 0.72766
 N1419 N 0.28587 0.54164 0.73417
 N1420 N 0.29256 0.55456 0.72752
 C1421 C 0.29335 1.07568 0.20710
 N1422 N 0.30644 1.08267 0.21384
 N1423 N 0.31262 1.09606 0.20765
 C1424 C 0.30591 1.10295 0.19452
 N1425 N 0.29282 1.09596 0.18778
 N1426 N 0.28665 1.08258 0.19397
 C1427 C 0.28634 1.06110 0.21408
 N1428 N 0.27305 1.05435 0.20750
 N1429 N 0.26637 1.04142 0.21411
 C1430 C 0.27276 1.03474 0.22750
 N1431 N 0.28610 1.04144 0.23404
 N1432 N 0.29279 1.05437 0.22743
 C1433 C 0.79315 0.57581 0.20727
 N1434 N 0.78644 0.58267 0.19412
 N1435 N 0.79267 0.59597 0.18782
 C1436 C 0.80583 0.60291 0.19445
 N1437 N 0.81254 0.59607 0.20762
 N1438 N 0.80631 0.58276 0.21392
 C1439 C 0.78615 0.56124 0.21429
 N1440 N 0.79266 0.55451 0.22761
 N1441 N 0.78602 0.54154 0.23422
 C1442 C 0.77268 0.53482 0.22771
 N1443 N 0.76624 0.54150 0.21434
 N1444 N 0.77287 0.55446 0.20773
 C1445 C 0.79321 1.07575 0.70714
 N1446 N 0.80624 1.08281 0.71391
 N1447 N 0.81247 1.09613 0.70761
 C1448 C 0.80587 1.10287 0.69434
 N1449 N 0.79283 1.09580 0.68758
 N1450 N 0.78661 1.08249 0.69388
 C1451 C 0.78618 1.06121 0.71418
 N1452 N 0.77293 1.05440 0.70760
 N1453 N 0.76624 1.04150 0.71425
 C1454 C 0.77259 1.03490 0.72770
 N1455 N 0.78591 1.04164 0.73424
 N1456 N 0.79260 1.05455 0.72758
 C1457 C 0.70688 0.57590 0.29300
 N1458 N 0.71352 0.58266 0.30622
 N1459 N 0.70721 0.59590 0.31261
 C1460 C 0.69403 0.60286 0.30601
 N1461 N 0.68740 0.59612 0.29277
 N1462 N 0.69371 0.58289 0.28637
 C1463 C 0.71394 0.56138 0.28590
 N1464 N 0.70745 0.55470 0.27256
 N1465 N 0.71409 0.54174 0.26593
 C1466 C 0.72742 0.53496 0.27244
 N1467 N 0.73386 0.54160 0.28582
 N1468 N 0.72722 0.55456 0.29245
 C1469 C 0.70679 1.07641 0.79286
 N1470 N 0.71361 1.08334 0.80590
 N1471 N 0.70727 1.09656 0.81232
 C1472 C 0.69388 1.10336 0.80593
 N1473 N 0.68710 1.09644 0.79284
 N1474 N 0.69344 1.08322 0.78642
 C1475 C 0.71384 1.06185 0.78578
 N1476 N 0.70726 1.05504 0.77254
 N1477 N 0.71387 1.04204 0.76596
 C1478 C 0.72726 1.03532 0.77242
 N1479 N 0.73380 1.04209 0.78570
 N1480 N 0.72719 1.05510 0.79227
 C1481 C 0.20679 0.57584 0.79282
 N1482 N 0.19362 0.58282 0.78620
 N1483 N 0.18736 0.59611 0.79255
 C1484 C 0.19407 0.60291 0.80572
 N1485 N 0.20726 0.59595 0.81231
 N1486 N 0.21351 0.58267 0.80597
 C1487 C 0.21379 0.56127 0.78579
 N1488 N 0.22707 0.55444 0.79235
 N1489 N 0.23369 0.54146 0.78577
 C1490 C 0.22723 0.53478 0.77241
 N1491 N 0.21390 0.54155 0.76589
 N1492 N 0.20728 0.55454 0.77248
 C1493 C 0.20689 1.07598 0.29264
 N1494 N 0.21360 1.08279 0.30581
 N1495 N 0.20732 1.09606 0.31217
 C1496 C 0.19412 1.10301 0.30558
 N1497 N 0.18743 1.09622 0.29239
 N1498 N 0.19371 1.08295 0.28603
 C1499 C 0.21392 1.06143 0.28559
 N1500 N 0.20741 1.05471 0.27228
 N1501 N 0.21403 1.04172 0.26569
 C1502 C 0.22736 1.03494 0.27221
 N1503 N 0.23382 1.04162 0.28556
 N1504 N 0.22720 1.05460 0.29215
 C1505 C 0.70689 0.42407 0.70733
 N1506 N 0.69371 0.41712 0.71396
 N1507 N 0.68742 0.40386 0.70761
 C1508 C 0.69410 0.39705 0.69441
 N1509 N 0.70728 0.40398 0.68780
 N1510 N 0.71357 0.41724 0.69414
 C1511 C 0.71395 0.43860 0.71440
 N1512 N 0.72726 0.44537 0.70785
 N1513 N 0.73392 0.45831 0.71447
 C1514 C 0.72749 0.46499 0.72785
 N1515 N 0.71414 0.45827 0.73436
 N1516 N 0.70747 0.44533 0.72774
 C1517 C 0.70689 -0.07592 0.20737
 N1518 N 0.69390 -0.08302 0.21420
 N1519 N 0.68769 -0.09637 0.20795
 C1520 C 0.69428 -0.10310 0.19467
 N1521 N 0.70728 -0.09601 0.18786
 N1522 N 0.71348 -0.08267 0.19410
 C1523 C 0.71389 -0.06135 0.21436
 N1524 N 0.72713 -0.05454 0.20773
 N1525 N 0.73381 -0.04161 0.21434
 C1526 C 0.72746 -0.03499 0.22778
 N1527 N 0.71416 -0.04175 0.23436
 N1528 N 0.70748 -0.05468 0.22776
 C1529 C 0.20672 0.42428 0.20718
 N1530 N 0.19368 0.41721 0.21396
 N1531 N 0.18746 0.40389 0.20768
 C1532 C 0.19408 0.39715 0.19441
 N1533 N 0.20712 0.40421 0.18765
 N1534 N 0.21334 0.41752 0.19393
 C1535 C 0.21372 0.43884 0.21419
 N1536 N 0.22696 0.44567 0.20757
 N1537 N 0.23362 0.45860 0.21418
 C1538 C 0.22724 0.46522 0.22762
 N1539 N 0.21394 0.45846 0.23419
 N1540 N 0.20728 0.44552 0.22757
 C1541 C 0.20693 -0.07584 0.70713
 N1542 N 0.21362 -0.08267 0.69396
 N1543 N 0.20733 -0.09592 0.68762
 C1544 C 0.19415 -0.10284 0.69424
 N1545 N 0.18747 -0.09604 0.70744
 N1546 N 0.19376 -0.08278 0.71378
 C1547 C 0.21399 -0.06132 0.71419
 N1548 N 0.20752 -0.05462 0.72754
 N1549 N 0.21422 -0.04172 0.73419
 C1550 C 0.22759 -0.03502 0.72770
 N1551 N 0.23400 -0.04167 0.71429
 N1552 N 0.22730 -0.05457 0.70764
 C1553 C 0.29289 0.29282 0.42428
 N1554 N 0.30610 0.28616 0.41741
 N1555 N 0.31242 0.29249 0.40417
 C1556 C 0.30576 0.30569 0.39731
 N1557 N 0.29254 0.31234 0.40417
 N1558 N 0.28621 0.30601 0.41740
 C1559 C 0.28585 0.28578 0.43881
 N1560 N 0.27252 0.29233 0.44557
 N1561 N 0.26590 0.28571 0.45852
 C1562 C 0.27240 0.27236 0.46523
 N1563 N 0.28578 0.26586 0.45852
 N1564 N 0.29240 0.27247 0.44557
 C1565 C 0.29329 0.79294 -0.07596
 N1566 N 0.30649 0.78628 -0.08286
 N1567 N 0.31278 0.79259 -0.09612
 C1568 C 0.30609 0.80578 -0.10299
 N1569 N 0.29288 0.81242 -0.09611
 N1570 N 0.28659 0.80611 -0.08284
 C1571 C 0.28625 0.78589 -0.06141
 N1572 N 0.27292 0.79243 -0.05466
 N1573 N 0.26630 0.78582 -0.04170
 C1574 C 0.27280 0.77245 -0.03499
 N1575 N 0.28617 0.76595 -0.04171
 N1576 N 0.29279 0.77256 -0.05466
 C1577 C 0.79272 0.29334 -0.07583
 N1578 N 0.80592 0.28670 -0.08275
 N1579 N 0.81220 0.29304 -0.09600
 C1580 C 0.80551 0.30625 -0.10283
 N1581 N 0.79230 0.31287 -0.09593
 N1582 N 0.78601 0.30653 -0.08268
 C1583 C 0.78572 0.28627 -0.06130
 N1584 N 0.77238 0.29276 -0.05451
 N1585 N 0.76579 0.28610 -0.04157
 C1586 C 0.77233 0.27274 -0.03489
 N1587 N 0.78572 0.26629 -0.04163
 N1588 N 0.79230 0.27295 -0.05458
 C1589 C 0.79275 0.79321 0.42423
 N1590 N 0.80593 0.78655 0.41731
 N1591 N 0.81219 0.79285 0.40403
 C1592 C 0.80548 0.80603 0.39717
 N1593 N 0.79229 0.81268 0.40407
 N1594 N 0.78602 0.80638 0.41735
 C1595 C 0.78576 0.78618 0.43879
 N1596 N 0.77243 0.79269 0.44558
 N1597 N 0.76585 0.78607 0.45854
 C1598 C 0.77240 0.77272 0.46524
 N1599 N 0.78577 0.76625 0.45850
 N1600 N 0.79235 0.77287 0.44553
 C1601 C 0.70708 0.29283 0.57573
 N1602 N 0.71379 0.30599 0.58261
 N1603 N 0.70750 0.31230 0.59587
 C1604 C 0.69429 0.30568 0.60276
 N1605 N 0.68761 0.29250 0.59590
 N1606 N 0.69389 0.28619 0.58264
 C1607 C 0.71409 0.28579 0.56117
 N1608 N 0.70751 0.27251 0.55441
 N1609 N 0.71410 0.26589 0.54144
 C1610 C 0.72747 0.27235 0.53472
 N1611 N 0.73400 0.28569 0.54142
 N1612 N 0.72741 0.29230 0.55439
 C1613 C 0.70695 0.79307 1.07579
 N1614 N 0.71349 0.80637 1.08254
 N1615 N 0.70710 0.81274 1.09573
 C1616 C 0.69396 0.80604 1.10265
 N1617 N 0.68744 0.79272 1.09592
 N1618 N 0.69382 0.78635 1.08273
 C1619 C 0.71405 0.78599 1.06131
 N1620 N 0.70755 0.77265 1.05459
 N1621 N 0.71419 0.76603 1.04165
 C1622 C 0.72753 0.77254 1.03492
 N1623 N 0.73400 0.78592 1.04160
 N1624 N 0.72736 0.79254 1.05454
 C1625 C 0.20713 0.29303 1.07584
 N1626 N 0.19392 0.28639 1.08272
 N1627 N 0.18759 0.29274 1.09595
 C1628 C 0.19424 0.30594 1.10278
 N1629 N 0.20747 0.31256 1.09592
 N1630 N 0.21380 0.30621 1.08270
 C1631 C 0.21415 0.28597 1.06131
 N1632 N 0.22748 0.29247 1.05453
 N1633 N 0.23407 0.28583 1.04157
 C1634 C 0.22753 0.27251 1.03487
 N1635 N 0.21415 0.26606 1.04160
 N1636 N 0.20757 0.27269 1.05456
 C1637 C 0.20716 0.79316 0.57560
 N1638 N 0.21384 0.80632 0.58249
 N1639 N 0.20754 0.81261 0.59576
 C1640 C 0.19433 0.80596 0.60262
 N1641 N 0.18767 0.79278 0.59575
 N1642 N 0.19397 0.78649 0.58249
 C1643 C 0.21417 0.78614 0.56105
 N1644 N 0.20760 0.77286 0.55429
 N1645 N 0.21420 0.76625 0.54132
 C1646 C 0.22758 0.77272 0.53461
 N1647 N 0.23410 0.78605 0.54133
 N1648 N 0.22750 0.79266 0.55429
 C1649 C 0.29299 0.70697 0.57561
 N1650 N 0.30631 0.71348 0.58237
 N1651 N 0.31269 0.70709 0.59555
 C1652 C 0.30596 0.69397 0.60248
 N1653 N 0.29261 0.68748 0.59576
 N1654 N 0.28624 0.69386 0.58256
 C1655 C 0.28591 0.71408 0.56113
 N1656 N 0.27252 0.70764 0.55442
 N1657 N 0.26591 0.71429 0.54148
 C1658 C 0.27247 0.72759 0.53473
 N1659 N 0.28589 0.73400 0.54140
 N1660 N 0.29250 0.72735 0.55434
 C1661 C 0.29303 0.20687 1.07575
 N1662 N 0.30626 0.21352 1.08256
 N1663 N 0.31262 0.20722 1.09579
 C1664 C 0.30597 0.19405 1.10271
 N1665 N 0.29272 0.18743 1.09593
 N1666 N 0.28636 0.19373 1.08270
 C1667 C 0.28594 0.21390 1.06123
 N1668 N 0.27259 0.20739 1.05454
 N1669 N 0.26594 0.21400 1.04160
 C1670 C 0.27244 0.22732 1.03484
 N1671 N 0.28584 0.23378 1.04148
 N1672 N 0.29249 0.22717 1.05442
 C1673 C 0.79283 0.70696 1.07587
 N1674 N 0.80601 0.71362 1.08275
 N1675 N 0.81233 0.70731 1.09600
 C1676 C 0.80567 0.69411 1.10286
 N1677 N 0.79247 0.68747 1.09600
 N1678 N 0.78616 0.69378 1.08275
 C1679 C 0.78582 0.71400 1.06133
 N1680 N 0.77249 0.70749 1.05457
 N1681 N 0.76590 0.71412 1.04161
 C1682 C 0.77243 0.72746 1.03490
 N1683 N 0.78580 0.73392 1.04161
 N1684 N 0.79239 0.72729 1.05457
 C1685 C 0.79283 0.20679 0.57564
 N1686 N 0.80602 0.21346 0.58250
 N1687 N 0.81235 0.20716 0.59574
 C1688 C 0.80571 0.19397 0.60262
 N1689 N 0.79251 0.18731 0.59578
 N1690 N 0.78618 0.19361 0.58253
 C1691 C 0.78580 0.21381 0.56110
 N1692 N 0.77248 0.20729 0.55436
 N1693 N 0.76587 0.21390 0.54140
 C1694 C 0.77239 0.22724 0.53467
 N1695 N 0.78576 0.23371 0.54137
 N1696 N 0.79236 0.22710 0.55433
 C1697 C 0.70703 0.70698 0.42446
 N1698 N 0.71380 0.69387 0.41752
 N1699 N 0.70744 0.68749 0.40434
 C1700 C 0.69408 0.69398 0.39762
 N1701 N 0.68732 0.70710 0.40454
 N1702 N 0.69369 0.71349 0.41771
 C1703 C 0.71410 0.71409 0.43893
 N1704 N 0.70749 0.72737 0.44570
 N1705 N 0.71411 0.73403 0.45862
 C1706 C 0.72754 0.72761 0.46528
 N1707 N 0.73411 0.71429 0.45855
 N1708 N 0.72749 0.70764 0.44563
 C1709 C 0.70710 0.20702 -0.07584
 N1710 N 0.71385 0.19386 -0.08271
 N1711 N 0.70761 0.18755 -0.09599
 C1712 C 0.69440 0.19418 -0.10289
 N1713 N 0.68767 0.20735 -0.09604
 N1714 N 0.69391 0.21366 -0.08276
 C1715 C 0.71408 0.21407 -0.06128
 N1716 N 0.70749 0.22737 -0.05455
 N1717 N 0.71408 0.23402 -0.04160
 C1718 C 0.72746 0.22756 -0.03488
 N1719 N 0.73401 0.21421 -0.04157
 N1720 N 0.72742 0.20757 -0.05451
 C1721 C 0.20718 0.70703 -0.07573
 N1722 N 0.19400 0.71373 -0.08261
 N1723 N 0.18769 0.70743 -0.09586
 C1724 C 0.19435 0.69423 -0.10272
 N1725 N 0.20754 0.68755 -0.09585
 N1726 N 0.21385 0.69384 -0.08260
 C1727 C 0.21422 0.71406 -0.06121
 N1728 N 0.22755 0.70751 -0.05447
 N1729 N 0.23419 0.71414 -0.04154
 C1730 C 0.22770 0.72752 -0.03486
 N1731 N 0.21433 0.73402 -0.04155
 N1732 N 0.20769 0.72740 -0.05448
 C1733 C 0.20699 0.20698 0.42431
 N1734 N 0.19381 0.21367 0.41741
 N1735 N 0.18754 0.20739 0.40414
 C1736 C 0.19423 0.19421 0.39726
 N1737 N 0.20742 0.18754 0.40413
 N1738 N 0.21370 0.19382 0.41741
 C1739 C 0.21399 0.21398 0.43886
 N1740 N 0.22731 0.20743 0.44562
 N1741 N 0.23392 0.21404 0.45858
 C1742 C 0.22740 0.22739 0.46529
 N1743 N 0.21403 0.23389 0.45858
 N1744 N 0.20743 0.22729 0.44562
 C1745 C 0.29312 0.42416 0.70711
 N1746 N 0.28641 0.41735 0.69395
 N1747 N 0.29267 0.40408 0.68759
 C1748 C 0.30585 0.39711 0.69418
 N1749 N 0.31256 0.40390 0.70736
 N1750 N 0.30630 0.41718 0.71372
 C1751 C 0.28611 0.43872 0.71417
 N1752 N 0.29261 0.44544 0.72749
 N1753 N 0.28597 0.45841 0.73410
 C1754 C 0.27262 0.46516 0.72760
 N1755 N 0.26617 0.45849 0.71424
 N1756 N 0.27281 0.44553 0.70763
 C1757 C 0.29342 0.92449 0.20674
 N1758 N 0.28680 0.91774 0.19350
 N1759 N 0.29312 0.90451 0.18711
 C1760 C 0.30629 0.89755 0.19373
 N1761 N 0.31292 0.90429 0.20697
 N1762 N 0.30659 0.91752 0.21337
 C1763 C 0.28632 0.93896 0.21388
 N1764 N 0.29276 0.94561 0.22726
 N1765 N 0.28604 0.95850 0.23395
 C1766 C 0.27268 0.96524 0.22747
 N1767 N 0.26629 0.95864 0.21404
 N1768 N 0.27300 0.94575 0.20735
 C1769 C 0.79333 0.42443 0.20696
 N1770 N 0.80653 0.41746 0.21355
 N1771 N 0.81282 0.40422 0.20715
 C1772 C 0.80613 0.39745 0.19396
 N1773 N 0.79293 0.40440 0.18739
 N1774 N 0.78664 0.41764 0.19378
 C1775 C 0.78626 0.43892 0.21408
 N1776 N 0.77294 0.44571 0.20757
 N1777 N 0.76625 0.45861 0.21425
 C1778 C 0.77267 0.46524 0.22765
 N1779 N 0.78605 0.45850 0.23412
 N1780 N 0.79274 0.44559 0.22744
 C1781 C 0.79328 0.92459 0.70711
 N1782 N 0.78668 0.91786 0.69384
 N1783 N 0.79294 0.90456 0.68752
 C1784 C 0.80600 0.89749 0.69424
 N1785 N 0.81260 0.90421 0.70751
 N1786 N 0.80635 0.91751 0.71383
 C1787 C 0.78621 0.93912 0.71420
 N1788 N 0.79262 0.94575 0.72760
 N1789 N 0.78590 0.95865 0.73428
 C1790 C 0.77256 0.96541 0.72778
 N1791 N 0.76621 0.95883 0.71432
 N1792 N 0.77293 0.94594 0.70764
 C1793 C 0.70689 0.57577 0.70734
 N1794 N 0.69371 0.58274 0.71397
 N1795 N 0.68744 0.59603 0.70761
 C1796 C 0.69412 0.60283 0.69442
 N1797 N 0.70731 0.59587 0.68781
 N1798 N 0.71358 0.58259 0.69416
 C1799 C 0.71392 0.56121 0.71439
 N1800 N 0.72722 0.55441 0.70784
 N1801 N 0.73387 0.54145 0.71445
 C1802 C 0.72743 0.53477 0.72783
 N1803 N 0.71408 0.54152 0.73434
 N1804 N 0.70743 0.55449 0.72773
 C1805 C 0.70694 0.07539 0.20702
 N1806 N 0.71362 0.08219 0.19382
 N1807 N 0.70732 0.09543 0.18743
 C1808 C 0.69410 0.10236 0.19401
 N1809 N 0.68742 0.09558 0.20722
 N1810 N 0.69373 0.08234 0.21361
 C1811 C 0.71402 0.06089 0.21413
 N1812 N 0.70754 0.05421 0.22749
 N1813 N 0.71423 0.04130 0.23417
 C1814 C 0.72761 0.03457 0.22770
 N1815 N 0.73403 0.04120 0.21429
 N1816 N 0.72734 0.05411 0.20762
 C1817 C 0.20662 0.57569 0.20700
 N1818 N 0.19344 0.58267 0.21363
 N1819 N 0.18717 0.59595 0.20728
 C1820 C 0.19387 0.60275 0.19408
 N1821 N 0.20706 0.59579 0.18748
 N1822 N 0.21332 0.58251 0.19383
 C1823 C 0.21365 0.56114 0.21406
 N1824 N 0.22696 0.55436 0.20751
 N1825 N 0.23366 0.54144 0.21416
 C1826 C 0.22725 0.53479 0.22757
 N1827 N 0.21387 0.54151 0.23406
 N1828 N 0.20718 0.55443 0.22741
 C1829 C 0.20669 0.07527 0.70712
 N1830 N 0.21327 0.08203 0.69386
 N1831 N 0.20694 0.09528 0.68749
 C1832 C 0.19379 0.10226 0.69416
 N1833 N 0.18720 0.09550 0.70743
 N1834 N 0.19354 0.08225 0.71380
 C1835 C 0.21384 0.06079 0.71425
 N1836 N 0.20744 0.05412 0.72766
 N1837 N 0.21420 0.04124 0.73435
 C1838 C 0.22758 0.03453 0.72784
 N1839 N 0.23393 0.04115 0.71439
 N1840 N 0.22717 0.05403 0.70771
 C1841 C 0.29316 0.57575 0.29266
 N1842 N 0.28656 0.58251 0.30593
 N1843 N 0.29275 0.59585 0.31217
 C1844 C 0.30575 0.60295 0.30536
 N1845 N 0.31235 0.59621 0.29209
 N1846 N 0.30616 0.58286 0.28585
 C1847 C 0.28618 0.56116 0.28568
 N1848 N 0.29262 0.55448 0.27231
 N1849 N 0.28597 0.54152 0.26572
 C1850 C 0.27268 0.53474 0.27230
 N1851 N 0.26631 0.54137 0.28573
 N1852 N 0.27296 0.55433 0.29232
 C1853 C 0.29317 0.07555 0.79303
 N1854 N 0.30644 0.08242 0.78650
 N1855 N 0.31276 0.09563 0.79292
 C1856 C 0.30603 0.10245 0.80609
 N1857 N 0.29274 0.09560 0.81259
 N1858 N 0.28643 0.08240 0.80617
 C1859 C 0.28616 0.06102 0.78595
 N1860 N 0.27288 0.05420 0.79249
 N1861 N 0.26631 0.04121 0.78590
 C1862 C 0.27283 0.03451 0.77257
 N1863 N 0.28615 0.04129 0.76606
 N1864 N 0.29272 0.05429 0.77265
 C1865 C 0.79337 0.57573 0.79298
 N1866 N 0.80655 0.58268 0.78634
 N1867 N 0.81282 0.59595 0.79268
 C1868 C 0.80615 0.60277 0.80587
 N1869 N 0.79297 0.59583 0.81250
 N1870 N 0.78669 0.58256 0.80617
 C1871 C 0.78632 0.56119 0.78593
 N1872 N 0.77302 0.55442 0.79249
 N1873 N 0.76635 0.54148 0.78588
 C1874 C 0.77278 0.53479 0.77250
 N1875 N 0.78613 0.54151 0.76598
 N1876 N 0.79280 0.55445 0.77259
 C1877 C 0.79339 0.07553 0.29283
 N1878 N 0.78666 0.08239 0.30597
 N1879 N 0.79293 0.09565 0.31231
 C1880 C 0.80615 0.10254 0.30572
 N1881 N 0.81287 0.09571 0.29256
 N1882 N 0.80659 0.08244 0.28622
 C1883 C 0.78638 0.06097 0.28580
 N1884 N 0.79290 0.05422 0.27249
 N1885 N 0.78627 0.04125 0.26590
 C1886 C 0.77292 0.03453 0.27242
 N1887 N 0.76645 0.04124 0.28577
 N1888 N 0.77308 0.05420 0.29236
 C1889 C 0.70683 0.42420 0.29277
 N1890 N 0.71342 0.41741 0.30602
 N1891 N 0.70719 0.40410 0.31229
 C1892 C 0.69415 0.39706 0.30553
 N1893 N 0.68755 0.40382 0.29227
 N1894 N 0.69379 0.41715 0.28600
 C1895 C 0.71383 0.43878 0.28579
 N1896 N 0.70739 0.44549 0.27243
 N1897 N 0.71403 0.45847 0.26585
 C1898 C 0.72732 0.46523 0.27243
 N1899 N 0.73371 0.45856 0.28584
 N1900 N 0.72707 0.44559 0.29241
 C1901 C 0.70686 0.92429 0.79287
 N1902 N 0.69369 0.91734 0.78624
 N1903 N 0.68744 0.90405 0.79258
 C1904 C 0.69413 0.89723 0.80577
 N1905 N 0.70732 0.90416 0.81236
 N1906 N 0.71357 0.91744 0.80603
 C1907 C 0.71383 0.93887 0.78586
 N1908 N 0.72709 0.94569 0.79243
 N1909 N 0.73367 0.95870 0.78587
 C1910 C 0.72718 0.96541 0.77253
 N1911 N 0.71387 0.95864 0.76600
 N1912 N 0.70729 0.94563 0.77257
 C1913 C 0.20663 0.42420 0.79300
 N1914 N 0.19334 0.41738 0.78649
 N1915 N 0.18696 0.40420 0.79293
 C1916 C 0.19364 0.39736 0.80611
 N1917 N 0.20694 0.40417 0.81260
 N1918 N 0.21333 0.41734 0.80617
 C1919 C 0.21376 0.43868 0.78587
 N1920 N 0.22711 0.44540 0.79236
 N1921 N 0.23379 0.45832 0.78571
 C1922 C 0.22734 0.46503 0.77236
 N1923 N 0.21394 0.45835 0.76590
 N1924 N 0.20726 0.44543 0.77255
 C1925 C 0.20667 0.92433 0.29271
 N1926 N 0.21328 0.91755 0.30596
 N1927 N 0.20698 0.90430 0.31230
 C1928 C 0.19386 0.89733 0.30562
 N1929 N 0.18725 0.90409 0.29236
 N1930 N 0.19355 0.91735 0.28602
 C1931 C 0.21373 0.93885 0.28566
 N1932 N 0.20728 0.94556 0.27230
 N1933 N 0.21396 0.95849 0.26567
 C1934 C 0.22729 0.96522 0.27221
 N1935 N 0.23368 0.95856 0.28561
 N1936 N 0.22701 0.94563 0.29223
 C1937 C 0.42410 0.29316 0.70717
 N1938 N 0.41728 0.28647 0.69400
 N1939 N 0.40401 0.29273 0.68764
 C1940 C 0.39705 0.30591 0.69422
 N1941 N 0.40384 0.31261 0.70741
 N1942 N 0.41712 0.30634 0.71378
 C1943 C 0.43865 0.28612 0.71424
 N1944 N 0.44536 0.29260 0.72758
 N1945 N 0.45831 0.28593 0.73421
 C1946 C 0.46506 0.27259 0.72771
 N1947 N 0.45840 0.26616 0.71433
 N1948 N 0.44545 0.27283 0.70771
 C1949 C 0.42428 0.79341 0.20714
 N1950 N 0.41756 0.78681 0.19387
 N1951 N 0.40421 0.79300 0.18759
 C1952 C 0.39708 0.80599 0.19436
 N1953 N 0.40378 0.81259 0.20764
 N1954 N 0.41714 0.80640 0.21392
 C1955 C 0.43886 0.78641 0.21417
 N1956 N 0.44549 0.79282 0.22758
 N1957 N 0.45843 0.78615 0.23422
 C1958 C 0.46524 0.77286 0.22767
 N1959 N 0.45866 0.76651 0.21421
 N1960 N 0.44573 0.77318 0.20757
 C1961 C 0.92423 0.29340 0.20701
 N1962 N 0.91742 0.28672 0.19382
 N1963 N 0.90417 0.29302 0.18744
 C1964 C 0.89723 0.30622 0.19402
 N1965 N 0.90401 0.31288 0.20723
 N1966 N 0.91726 0.30658 0.21361
 C1967 C 0.93874 0.28634 0.21410
 N1968 N 0.94543 0.29280 0.22746
 N1969 N 0.95836 0.28612 0.23411
 C1970 C 0.96512 0.27278 0.22761
 N1971 N 0.95848 0.26638 0.21420
 N1972 N 0.94555 0.27305 0.20756
 C1973 C 0.92429 0.79351 0.70710
 N1974 N 0.91721 0.80655 0.71385
 N1975 N 0.90388 0.81279 0.70755
 C1976 C 0.89715 0.80620 0.69429
 N1977 N 0.90422 0.79315 0.68755
 N1978 N 0.91754 0.78691 0.69385
 C1979 C 0.93887 0.78649 0.71414
 N1980 N 0.94572 0.77325 0.70754
 N1981 N 0.95867 0.76658 0.71417
 C1982 C 0.96527 0.77294 0.72761
 N1983 N 0.95847 0.78624 0.73416
 N1984 N 0.94552 0.79291 0.72752
 C1985 C 0.57595 0.29317 0.29268
 N1986 N 0.58272 0.28660 0.30594
 N1987 N 0.59601 0.29286 0.31223
 C1988 C 0.60304 0.30591 0.30548
 N1989 N 0.59629 0.31249 0.29220
 N1990 N 0.58298 0.30622 0.28591
 C1991 C 0.56139 0.28611 0.28566
 N1992 N 0.55469 0.29251 0.27227
 N1993 N 0.54174 0.28582 0.26569
 C1994 C 0.53499 0.27252 0.27228
 N1995 N 0.54165 0.26618 0.28571
 N1996 N 0.55460 0.27287 0.29230
 C1997 C 0.57583 0.79344 0.79295
 N1998 N 0.58267 0.78676 0.80613
 N1999 N 0.59593 0.79304 0.81248
 C2000 C 0.60286 0.80622 0.80588
 N2001 N 0.59605 0.81289 0.79268
 N2002 N 0.58278 0.80661 0.78632
 C2003 C 0.56128 0.78641 0.78590
 N2004 N 0.55453 0.79289 0.77257
 N2005 N 0.54157 0.78624 0.76597
 C2006 C 0.53483 0.77291 0.77249
 N2007 N 0.54153 0.76648 0.78587
 N2008 N 0.55449 0.77313 0.79247
 C2009 C 0.07563 0.29322 0.79280
 N2010 N 0.08244 0.28656 0.80601
 N2011 N 0.09574 0.29280 0.81232
 C2012 C 0.10274 0.30592 0.80565
 N2013 N 0.09594 0.31257 0.79243
 N2014 N 0.08264 0.30633 0.78611
 C2015 C 0.06106 0.28621 0.78578
 N2016 N 0.05435 0.29266 0.77242
 N2017 N 0.04139 0.28601 0.76581
 C2018 C 0.03463 0.27270 0.77236
 N2019 N 0.04129 0.26630 0.78577
 N2020 N 0.05424 0.27295 0.79237
 C2021 C 0.07562 0.79341 0.29276
 N2022 N 0.08239 0.78683 0.30602
 N2023 N 0.09565 0.79313 0.31236
 C2024 C 0.10263 0.80624 0.30567
 N2025 N 0.09588 0.81282 0.29240
 N2026 N 0.08262 0.80652 0.28605
 C2027 C 0.06110 0.78633 0.28570
 N2028 N 0.05440 0.79274 0.27232
 N2029 N 0.04147 0.78605 0.26570
 C2030 C 0.03473 0.77274 0.27227
 N2031 N 0.04139 0.76638 0.28569
 N2032 N 0.05431 0.77307 0.29231
 C2033 C 0.57581 0.70690 0.70738
 N2034 N 0.58265 0.71357 0.69419
 N2035 N 0.59593 0.70728 0.68784
 C2036 C 0.60287 0.69409 0.69445
 N2037 N 0.59605 0.68742 0.70765
 N2038 N 0.58277 0.69372 0.71400
 C2039 C 0.56126 0.71396 0.71444
 N2040 N 0.55452 0.70749 0.72778
 N2041 N 0.54156 0.71417 0.73441
 C2042 C 0.53483 0.72752 0.72790
 N2043 N 0.54152 0.73393 0.71451
 N2044 N 0.55447 0.72725 0.70789
 C2045 C 0.57594 0.20645 0.20712
 N2046 N 0.58277 0.21313 0.19393
 N2047 N 0.59602 0.20682 0.18755
 C2048 C 0.60294 0.19361 0.19413
 N2049 N 0.59615 0.18695 0.20734
 N2050 N 0.58289 0.19326 0.21373
 C2051 C 0.56141 0.21351 0.21420
 N2052 N 0.55469 0.20705 0.22755
 N2053 N 0.54174 0.21373 0.23418
 C2054 C 0.53501 0.22708 0.22767
 N2055 N 0.54167 0.23348 0.21427
 N2056 N 0.55462 0.22681 0.20764
 C2057 C 0.07571 0.70677 0.20713
 N2058 N 0.08253 0.71346 0.19396
 N2059 N 0.09581 0.70719 0.18760
 C2060 C 0.10277 0.69401 0.19420
 N2061 N 0.09598 0.68733 0.20740
 N2062 N 0.08269 0.69361 0.21376
 C2063 C 0.06113 0.71378 0.21418
 N2064 N 0.05442 0.70731 0.22753
 N2065 N 0.04146 0.71397 0.23415
 C2066 C 0.03470 0.72731 0.22763
 N2067 N 0.04136 0.73371 0.21423
 N2068 N 0.05431 0.72705 0.20761
 C2069 C 0.07550 0.20652 0.70714
 N2070 N 0.08229 0.21310 0.69388
 N2071 N 0.09555 0.20678 0.68755
 C2072 C 0.10253 0.19365 0.69423
 N2073 N 0.09576 0.18707 0.70750
 N2074 N 0.08249 0.19340 0.71384
 C2075 C 0.06097 0.21362 0.71421
 N2076 N 0.05428 0.20722 0.72760
 N2077 N 0.04136 0.21394 0.73424
 C2078 C 0.03462 0.22726 0.72770
 N2079 N 0.04126 0.23361 0.71426
 N2080 N 0.05418 0.22690 0.70762
 C2081 C 0.42419 0.70665 0.29285
 N2082 N 0.41738 0.71324 0.30609
 N2083 N 0.40415 0.70689 0.31245
 C2084 C 0.39723 0.69373 0.30581
 N2085 N 0.40402 0.68715 0.29255
 N2086 N 0.41726 0.69349 0.28618
 C2087 C 0.43869 0.71376 0.28576
 N2088 N 0.44541 0.70735 0.27239
 N2089 N 0.45835 0.71406 0.26578
 C2090 C 0.46505 0.72738 0.27232
 N2091 N 0.45836 0.73375 0.28573
 N2092 N 0.44544 0.72705 0.29234
 C2093 C 0.42399 0.20671 0.79283
 N2094 N 0.41714 0.21335 0.80602
 N2095 N 0.40384 0.20709 0.81233
 C2096 C 0.39689 0.19395 0.80566
 N2097 N 0.40372 0.18731 0.79246
 N2098 N 0.41703 0.19358 0.78615
 C2099 C 0.43856 0.21374 0.78581
 N2100 N 0.44531 0.20729 0.77247
 N2101 N 0.45829 0.21394 0.76589
 C2102 C 0.46502 0.22726 0.77243
 N2103 N 0.45831 0.23366 0.78581
 N2104 N 0.44534 0.22701 0.79240
 C2105 C 0.92424 0.70686 0.79284
 N2106 N 0.91731 0.69369 0.78621
 N2107 N 0.90405 0.68739 0.79256
 C2108 C 0.89722 0.69404 0.80576
 N2109 N 0.90413 0.70721 0.81238
 N2110 N 0.91739 0.71352 0.80603
 C2111 C 0.93877 0.71395 0.78578
 N2112 N 0.94551 0.72724 0.79234
 N2113 N 0.95845 0.73393 0.78573
 C2114 C 0.96515 0.72753 0.77234
 N2115 N 0.95846 0.71419 0.76582
 N2116 N 0.94551 0.70750 0.77244
 C2117 C 0.92400 0.20685 0.29265
 N2118 N 0.91716 0.21349 0.30584
 N2119 N 0.90380 0.20729 0.31208
 C2120 C 0.89677 0.19424 0.30534
 N2121 N 0.90360 0.18760 0.29213
 N2122 N 0.91697 0.19380 0.28589
 C2123 C 0.93862 0.21383 0.28567
 N2124 N 0.94535 0.20740 0.27231
 N2125 N 0.95833 0.21405 0.26572
 C2126 C 0.96508 0.22735 0.27229
 N2127 N 0.95840 0.23372 0.28570
 N2128 N 0.94543 0.22706 0.29229
 C2129 C 0.29285 0.29289 0.57574
 N2130 N 0.28616 0.30608 0.58261
 N2131 N 0.29245 0.31239 0.59585
 C2132 C 0.30565 0.30573 0.60273
 N2133 N 0.31233 0.29252 0.59588
 N2134 N 0.30603 0.28621 0.58263
 C2135 C 0.28583 0.28586 0.56121
 N2136 N 0.29239 0.27254 0.55447
 N2137 N 0.28578 0.26592 0.54153
 C2138 C 0.27241 0.27241 0.53481
 N2139 N 0.26591 0.28578 0.54150
 N2140 N 0.27251 0.29240 0.55444
 C2141 C 0.29316 0.79321 0.07550
 N2142 N 0.28640 0.80635 0.08241
 N2143 N 0.29277 0.81275 0.09558
 C2144 C 0.30611 0.80625 0.10233
 N2145 N 0.31285 0.79310 0.09544
 N2146 N 0.30648 0.78669 0.08227
 C2147 C 0.28609 0.78609 0.06104
 N2148 N 0.29267 0.77279 0.05430
 N2149 N 0.28606 0.76612 0.04138
 C2150 C 0.27266 0.77256 0.03469
 N2151 N 0.26611 0.78591 0.04138
 N2152 N 0.27272 0.79257 0.05430
 C2153 C 0.79293 0.29314 0.07560
 N2154 N 0.80612 0.28646 0.08248
 N2155 N 0.81242 0.29276 0.09574
 C2156 C 0.80574 0.30594 0.10261
 N2157 N 0.79253 0.31260 0.09575
 N2158 N 0.78623 0.30631 0.08249
 C2159 C 0.78590 0.28611 0.06107
 N2160 N 0.77255 0.29263 0.05433
 N2161 N 0.76592 0.28601 0.04140
 C2162 C 0.77244 0.27265 0.03469
 N2163 N 0.78583 0.26618 0.04137
 N2164 N 0.79246 0.27281 0.05431
 C2165 C 0.79299 0.79320 0.57572
 N2166 N 0.80621 0.78655 0.58259
 N2167 N 0.81254 0.79289 0.59581
 C2168 C 0.80588 0.80611 0.60265
 N2169 N 0.79265 0.81274 0.59579
 N2170 N 0.78632 0.80639 0.58258
 C2171 C 0.78594 0.78614 0.56122
 N2172 N 0.77260 0.79266 0.55448
 N2173 N 0.76597 0.78603 0.54155
 C2174 C 0.77249 0.77267 0.53485
 N2175 N 0.78588 0.76619 0.54154
 N2176 N 0.79250 0.77282 0.55447
 C2177 C 0.29304 0.70695 0.42419
 N2178 N 0.30617 0.71366 0.41722
 N2179 N 0.31254 0.70726 0.40404
 C2180 C 0.30602 0.69393 0.39734
 N2181 N 0.29287 0.68724 0.40429
 N2182 N 0.28650 0.69364 0.41746
 C2183 C 0.28596 0.71407 0.43866
 N2184 N 0.27267 0.70753 0.44546
 N2185 N 0.26605 0.71418 0.45840
 C2186 C 0.27252 0.72757 0.46504
 N2187 N 0.28585 0.73407 0.45827
 N2188 N 0.29247 0.72742 0.44534
 C2189 C 0.29284 0.20655 0.92442
 N2190 N 0.30616 0.21307 0.91765
 N2191 N 0.31250 0.20670 0.90445
 C2192 C 0.30575 0.19361 0.89751
 N2193 N 0.29241 0.18711 0.90426
 N2194 N 0.28606 0.19347 0.91747
 C2195 C 0.28577 0.21366 0.93891
 N2196 N 0.27237 0.20724 0.94563
 N2197 N 0.26575 0.21392 0.95854
 C2198 C 0.27233 0.22723 0.96526
 N2199 N 0.28577 0.23361 0.95858
 N2200 N 0.29239 0.22692 0.94567
 C2201 C 0.79303 0.70703 0.92436
 N2202 N 0.80621 0.71369 0.91746
 N2203 N 0.81251 0.70739 0.90420
 C2204 C 0.80584 0.69420 0.89734
 N2205 N 0.79264 0.68756 0.90422
 N2206 N 0.78634 0.69387 0.91748
 C2207 C 0.78600 0.71406 0.93890
 N2208 N 0.77266 0.70755 0.94565
 N2209 N 0.76604 0.71418 0.95860
 C2210 C 0.77255 0.72752 0.96530
 N2211 N 0.78594 0.73398 0.95861
 N2212 N 0.79256 0.72735 0.94566
 C2213 C 0.79294 0.20687 0.42407
 N2214 N 0.78613 0.19384 0.41706
 N2215 N 0.79239 0.18760 0.40374
 C2216 C 0.80566 0.19418 0.39694
 N2217 N 0.81246 0.20722 0.40394
 N2218 N 0.80620 0.21347 0.41725
 C2219 C 0.78594 0.21385 0.43866
 N2220 N 0.79254 0.22709 0.44548
 N2221 N 0.78592 0.23369 0.45844
 C2222 C 0.77250 0.22726 0.46510
 N2223 N 0.76596 0.21396 0.45834
 N2224 N 0.77257 0.20736 0.44537
 C2225 C 0.70712 0.29294 0.42414
 N2226 N 0.71379 0.30613 0.41727
 N2227 N 0.70746 0.31247 0.40404
 C2228 C 0.69425 0.30584 0.39718
 N2229 N 0.68760 0.29263 0.40403
 N2230 N 0.69393 0.28629 0.41726
 C2231 C 0.71414 0.28588 0.43866
 N2232 N 0.70757 0.27258 0.44540
 N2233 N 0.71417 0.26594 0.45835
 C2234 C 0.72754 0.27240 0.46507
 N2235 N 0.73406 0.28574 0.45837
 N2236 N 0.72747 0.29238 0.44542
 C2237 C 0.70710 0.79320 0.92439
 N2238 N 0.69391 0.78654 0.91751
 N2239 N 0.68761 0.79284 0.90425
 C2240 C 0.69429 0.80601 0.89737
 N2241 N 0.70749 0.81266 0.90422
 N2242 N 0.71379 0.80636 0.91749
 C2243 C 0.71412 0.78616 0.93892
 N2244 N 0.72746 0.79266 0.94567
 N2245 N 0.73407 0.78601 0.95861
 C2246 C 0.72755 0.77267 0.96532
 N2247 N 0.71417 0.76622 0.95862
 N2248 N 0.70755 0.77287 0.94568
 C2249 C 0.20687 0.29309 0.92443
 N2250 N 0.19354 0.28657 0.91769
 N2251 N 0.18718 0.29293 0.90449
 C2252 C 0.19392 0.30603 0.89753
 N2253 N 0.20727 0.31253 0.90424
 N2254 N 0.21363 0.30618 0.91745
 C2255 C 0.21396 0.28600 0.93892
 N2256 N 0.22736 0.29243 0.94558
 N2257 N 0.23400 0.28577 0.95850
 C2258 C 0.22744 0.27247 0.96526
 N2259 N 0.21400 0.26608 0.95863
 N2260 N 0.20736 0.27274 0.94572
 C2261 C 0.20687 0.79333 0.42427
 N2262 N 0.21347 0.80656 0.41742
 N2263 N 0.20702 0.81298 0.40428
 C2264 C 0.19375 0.80639 0.39751
 N2265 N 0.18717 0.79314 0.40434
 N2266 N 0.19361 0.78673 0.41747
 C2267 C 0.21403 0.78620 0.43870
 N2268 N 0.20751 0.77287 0.44544
 N2269 N 0.21419 0.76620 0.45834
 C2270 C 0.22759 0.77265 0.46500
 N2271 N 0.23407 0.78601 0.45829
 N2272 N 0.22739 0.79268 0.44540
 C2273 C 0.70712 0.70710 0.57588
 N2274 N 0.71382 0.69392 0.58276
 N2275 N 0.70752 0.68761 0.59602
 C2276 C 0.69431 0.69426 0.60290
 N2277 N 0.68763 0.70745 0.59605
 N2278 N 0.69392 0.71377 0.58279
 C2279 C 0.71413 0.71415 0.56134
 N2280 N 0.70755 0.72745 0.55459
 N2281 N 0.71415 0.73408 0.54163
 C2282 C 0.72752 0.72760 0.53490
 N2283 N 0.73405 0.71425 0.54160
 N2284 N 0.72746 0.70762 0.55456
 C2285 C 0.70720 0.20691 0.07570
 N2286 N 0.69402 0.21356 0.08262
 N2287 N 0.68775 0.20723 0.09589
 C2288 C 0.69445 0.19403 0.10272
 N2289 N 0.70766 0.18740 0.09581
 N2290 N 0.71392 0.19373 0.08255
 C2291 C 0.71419 0.21398 0.06116
 N2292 N 0.72752 0.20748 0.05436
 N2293 N 0.73410 0.21414 0.04141
 C2294 C 0.72755 0.22750 0.03474
 N2295 N 0.71417 0.23395 0.04149
 N2296 N 0.70759 0.22729 0.05444
 C2297 C 0.20712 0.70710 0.07562
 N2298 N 0.19392 0.71377 0.08249
 N2299 N 0.18758 0.70745 0.09572
 C2300 C 0.19422 0.69423 0.10257
 N2301 N 0.20743 0.68757 0.09572
 N2302 N 0.21378 0.69389 0.08249
 C2303 C 0.21420 0.71414 0.06110
 N2304 N 0.22752 0.70759 0.05435
 N2305 N 0.23416 0.71420 0.04141
 C2306 C 0.22768 0.72757 0.03470
 N2307 N 0.21431 0.73409 0.04140
 N2308 N 0.20767 0.72747 0.05434
 C2309 C 0.20675 0.20669 0.57566
 N2310 N 0.19349 0.21328 0.58251
 N2311 N 0.18706 0.20682 0.59564
 C2312 C 0.19367 0.19354 0.60240
 N2313 N 0.20695 0.18697 0.59559
 N2314 N 0.21337 0.19343 0.58246
 C2315 C 0.21388 0.21384 0.56123
 N2316 N 0.22724 0.20734 0.55449
 N2317 N 0.23390 0.21402 0.54159
 C2318 C 0.22741 0.22741 0.53492
 N2319 N 0.21402 0.23388 0.54163
 N2320 N 0.20736 0.22720 0.55452
   
