data_POSCAR
  _audit_creation_date              2014-09-24
  _audit_creation_method            'ToBaCCo'
  _symmetry_space_group_name_H-M    'P1'
  _symmetry_Int_Tables_number       1
  _symmetry_cell_setting            triclinic
  loop_
  _symmetry_equiv_pos_as_xyz
 x,y,z
_cell_length_a 81.9823
_cell_length_b 81.8780
_cell_length_c 81.9648
_cell_angle_alpha 90.017200
_cell_angle_beta 90.032300
_cell_angle_gamma 90.070500
loop_
  _atom_site_label
  _atom_site_type_symbol
  _atom_site_fract_x
  _atom_site_fract_y
  _atom_site_fract_z
C1 C 0.32307 0.44875 0.92714
 C2 C 0.31620 0.45536 0.91292
 C3 C 0.30219 0.44836 0.90585
 C4 C 0.29493 0.43473 0.91339
 C5 C 0.30166 0.42799 0.92761
 C6 C 0.31580 0.43500 0.93450
 C7 C 0.33729 0.45549 0.93389
 C8 C 0.34455 0.44861 0.94791
 C9 C 0.33703 0.43495 0.95524
 C10 C 0.32279 0.42810 0.94862
 C11 C 0.31565 0.41424 0.95572
 C12 C 0.30164 0.40705 0.94884
 C13 C 0.29465 0.41413 0.93484
 H14 H 0.32194 0.46584 0.90724
 H15 H 0.28416 0.42918 0.90808
 H16 H 0.34280 0.46598 0.92800
 H17 H 0.34233 0.42942 0.96603
 H18 H 0.32120 0.40891 0.96647
 H19 H 0.28389 0.40872 0.92937
 C20 C 0.44890 0.82297 0.42836
 C21 C 0.45555 0.83721 0.43521
 C22 C 0.44823 0.84472 0.44886
 C23 C 0.43420 0.83746 0.45573
 C24 C 0.42743 0.82323 0.44898
 C25 C 0.43478 0.81597 0.43523
 C26 C 0.45598 0.81585 0.41449
 C27 C 0.44907 0.80184 0.40730
 C28 C 0.43507 0.79485 0.41436
 C29 C 0.42786 0.80184 0.42822
 C30 C 0.41362 0.79512 0.43493
 C31 C 0.40609 0.80237 0.44855
 C32 C 0.41320 0.81637 0.45557
 H33 H 0.46634 0.84252 0.42969
 H34 H 0.42832 0.84296 0.46621
 H35 H 0.46674 0.82139 0.40917
 H36 H 0.42957 0.78409 0.40895
 H37 H 0.40828 0.78435 0.42937
 H38 H 0.40753 0.82211 0.46604
 C39 C 0.94769 0.92622 0.82385
 C40 C 0.95442 0.91214 0.81679
 C41 C 0.94736 0.90497 0.80281
 C42 C 0.93349 0.91241 0.79583
 C43 C 0.92665 0.92649 0.80276
 C44 C 0.93374 0.93341 0.81683
 C45 C 0.95454 0.93302 0.83801
 C46 C 0.94758 0.94692 0.84543
 C47 C 0.93372 0.95408 0.83815
 C48 C 0.92676 0.94740 0.82400
 C49 C 0.91272 0.95435 0.81710
 C50 C 0.90546 0.94745 0.80314
 C51 C 0.91261 0.93357 0.79599
 H52 H 0.96508 0.90669 0.82241
 H53 H 0.92781 0.90717 0.78509
 H54 H 0.96519 0.92728 0.84332
 H55 H 0.92812 0.96477 0.84358
 H56 H 0.90735 0.96502 0.82277
 H57 H 0.90714 0.92809 0.78526
 C58 C 0.44934 -0.07097 0.32161
 C59 C 0.45633 -0.08484 0.31442
 C60 C 0.44930 -0.09201 0.30047
 C61 C 0.43527 -0.08489 0.29360
 C62 C 0.42815 -0.07102 0.30066
 C63 C 0.43518 -0.06404 0.31474
 C64 C 0.45608 -0.06416 0.33581
 C65 C 0.44881 -0.05054 0.34334
 C66 C 0.43478 -0.04361 0.33628
 C67 C 0.42790 -0.05029 0.32209
 C68 C 0.41363 -0.04366 0.31536
 C69 C 0.40642 -0.05064 0.30142
 C70 C 0.41388 -0.06426 0.29407
 H71 H 0.46711 -0.09020 0.31988
 H72 H 0.42969 -0.09029 0.28289
 H73 H 0.46687 -0.06966 0.34111
 H74 H 0.42902 -0.03314 0.34196
 H75 H 0.40801 -0.03319 0.32118
 H76 H 0.40847 -0.06980 0.28335
 C77 C 0.82208 0.30086 0.32187
 C78 C 0.81490 0.29394 0.33579
 C79 C 0.80094 0.30099 0.34288
 C80 C 0.79405 0.31496 0.33565
 C81 C 0.80109 0.32201 0.32173
 C82 C 0.81518 0.31496 0.31482
 C83 C 0.83626 0.29409 0.31512
 C84 C 0.84377 0.30128 0.30145
 C85 C 0.83669 0.31525 0.29440
 C86 C 0.82250 0.32216 0.30102
 C87 C 0.81574 0.33636 0.29425
 C88 C 0.80178 0.34358 0.30115
 C89 C 0.79447 0.33621 0.31483
 H90 H 0.82037 0.28321 0.34123
 H91 H 0.78333 0.32055 0.34099
 H92 H 0.84158 0.28335 0.32071
 H93 H 0.84234 0.32095 0.28389
 H94 H 0.82153 0.34192 0.28374
 H95 H 0.78374 0.34164 0.32031
 C96 C -0.19914 0.82260 0.82138
 C97 C -0.20579 0.83682 0.81455
 C98 C -0.19846 0.84438 0.80092
 C99 C -0.18444 0.83715 0.79405
 C100 C -0.17767 0.82294 0.80077
 C101 C -0.18502 0.81564 0.81449
 C102 C -0.20621 0.81544 0.83524
 C103 C -0.19929 0.80146 0.84242
 C104 C -0.18530 0.79450 0.83534
 C105 C -0.17809 0.80152 0.82149
 C106 C -0.16385 0.79484 0.81476
 C107 C -0.15633 0.80213 0.80116
 C108 C -0.16343 0.81612 0.79416
 H109 H -0.21658 0.84209 0.82009
 H110 H -0.17856 0.84269 0.78357
 H111 H -0.21697 0.82096 0.84057
 H112 H -0.17980 0.78375 0.84074
 H113 H -0.15852 0.78409 0.82031
 H114 H -0.15776 0.82189 0.78370
 C115 C 0.92837 0.32228 0.44900
 C116 C 0.93512 0.33654 0.45569
 C117 C 0.94874 0.34417 0.44840
 C118 C 0.95567 0.33698 0.43437
 C119 C 0.94902 0.32273 0.42756
 C120 C 0.93530 0.31536 0.43488
 C121 C 0.91454 0.31505 0.45605
 C122 C 0.90743 0.30101 0.44911
 C123 C 0.91455 0.29410 0.43510
 C124 C 0.92837 0.30120 0.42792
 C125 C 0.93515 0.29456 0.41368
 C126 C 0.94874 0.30191 0.40619
 C127 C 0.95567 0.31593 0.41332
 H128 H 0.92955 0.34179 0.46647
 H129 H 0.96614 0.34257 0.42852
 H130 H 0.90918 0.32053 0.46682
 H131 H 0.90920 0.28332 0.42958
 H132 H 0.92966 0.28377 0.40833
 H133 H 0.96612 0.32176 0.40767
 C134 C 0.42690 0.44820 0.82261
 C135 C 0.43385 0.45491 0.83675
 C136 C 0.44770 0.44778 0.84396
 C137 C 0.45472 0.43392 0.83664
 C138 C 0.44790 0.42707 0.82250
 C139 C 0.43392 0.43421 0.81546
 C140 C 0.41283 0.45507 0.81572
 C141 C 0.40555 0.44809 0.80181
 C142 C 0.41273 0.43421 0.79467
 C143 C 0.42682 0.42721 0.80143
 C144 C 0.43370 0.41311 0.79456
 C145 C 0.44756 0.40581 0.80159
 C146 C 0.45465 0.41299 0.81550
 H147 H 0.42829 0.46557 0.84225
 H148 H 0.46536 0.42826 0.84206
 H149 H 0.40742 0.46573 0.82137
 H150 H 0.40725 0.42867 0.78398
 H151 H 0.42808 0.40770 0.78387
 H152 H 0.46530 0.40749 0.82107
 C153 C 0.82347 0.92763 0.94853
 C154 C 0.81638 0.91372 0.95559
 C155 C 0.80231 0.90648 0.94875
 C156 C 0.79528 0.91371 0.93480
 C157 C 0.80227 0.92761 0.92761
 C158 C 0.81642 0.93458 0.93448
 C159 C 0.83772 0.93448 0.95514
 C160 C 0.84520 0.94818 0.94785
 C161 C 0.83789 0.95511 0.93388
 C162 C 0.82365 0.94838 0.92715
 C163 C 0.81673 0.95506 0.91299
 C164 C 0.80269 0.94808 0.90594
 C165 C 0.79548 0.93442 0.91345
 H166 H 0.82203 0.90843 0.96632
 H167 H 0.78448 0.90842 0.92928
 H168 H 0.84307 0.92891 0.96588
 H169 H 0.84336 0.96564 0.92802
 H170 H 0.82244 0.96557 0.90734
 H171 H 0.78468 0.92889 0.90816
 C172 C 0.32194 0.82271 0.30107
 C173 C 0.31525 0.83697 0.29435
 C174 C 0.30158 0.84457 0.30154
 C175 C 0.29455 0.83737 0.31551
 C176 C 0.30114 0.82312 0.32236
 C177 C 0.31490 0.81578 0.31514
 C178 C 0.33581 0.81550 0.29412
 C179 C 0.34286 0.80147 0.30109
 C180 C 0.33563 0.79454 0.31504
 C181 C 0.32176 0.80162 0.32212
 C182 C 0.31486 0.79495 0.33630
 C183 C 0.30122 0.80228 0.34370
 C184 C 0.29437 0.81631 0.33654
 H185 H 0.32090 0.84222 0.28360
 H186 H 0.28404 0.84293 0.32129
 H187 H 0.34126 0.82100 0.28339
 H188 H 0.34092 0.78376 0.32058
 H189 H 0.32029 0.78416 0.34168
 H190 H 0.28388 0.82211 0.34211
 C191 C 0.82230 0.42877 0.44925
 C192 C 0.81523 0.41487 0.45635
 C193 C 0.80120 0.40766 0.44952
 C194 C 0.79413 0.41476 0.43557
 C195 C 0.80106 0.42866 0.42835
 C196 C 0.81522 0.43568 0.43519
 C197 C 0.83656 0.43562 0.45582
 C198 C 0.84404 0.44929 0.44846
 C199 C 0.83670 0.45620 0.43450
 C200 C 0.82243 0.44946 0.42782
 C201 C 0.81549 0.45609 0.41364
 C202 C 0.80147 0.44906 0.40661
 C203 C 0.79427 0.43541 0.41416
 H204 H 0.82084 0.40953 0.46706
 H205 H 0.78335 0.40934 0.43014
 H206 H 0.84192 0.43006 0.46655
 H207 H 0.84217 0.46670 0.42860
 H208 H 0.82120 0.46658 0.40795
 H209 H 0.78349 0.42985 0.40888
 C210 C 0.94953 0.82189 -0.07261
 C211 C 0.95625 0.83605 -0.06567
 C212 C 0.94932 0.84310 -0.05163
 C213 C 0.93566 0.83558 -0.04441
 C214 C 0.92883 0.82142 -0.05122
 C215 C 0.93575 0.81456 -0.06539
 C216 C 0.95618 0.81518 -0.08688
 C217 C 0.94919 0.80124 -0.09423
 C218 C 0.93551 0.79393 -0.08675
 C219 C 0.92874 0.80051 -0.07247
 C220 C 0.91484 0.79346 -0.06537
 C221 C 0.90773 0.80032 -0.05133
 C222 C 0.91493 0.81424 -0.04426
 H223 H 0.96674 0.84171 -0.07138
 H224 H 0.93017 0.84087 -0.03362
 H225 H 0.96670 0.82106 -0.09236
 H226 H 0.92989 0.78321 -0.09212
 H227 H 0.90941 0.78276 -0.07098
 H228 H 0.90959 0.81969 -0.03347
 C229 C 0.32241 0.32244 0.80100
 C230 C 0.31558 0.33661 0.79423
 C231 C 0.30154 0.34372 0.80109
 C232 C 0.29423 0.33628 0.81473
 C233 C 0.30093 0.32210 0.82163
 C234 C 0.31508 0.31516 0.81476
 C235 C 0.33666 0.31564 0.79441
 C236 C 0.34380 0.30169 0.80145
 C237 C 0.33630 0.29443 0.81509
 C238 C 0.32204 0.30109 0.82180
 C239 C 0.31486 0.29410 0.83567
 C240 C 0.30084 0.30104 0.84273
 C241 C 0.29388 0.31498 0.83551
 H242 H 0.32137 0.34222 0.78375
 H243 H 0.28344 0.34162 0.82018
 H244 H 0.34231 0.32139 0.78393
 H245 H 0.34166 0.28370 0.82066
 H246 H 0.32039 0.28339 0.84111
 H247 H 0.28310 0.32049 0.84082
 C248 C 0.18006 0.54868 0.56940
 C249 C 0.16593 0.54196 0.56243
 C250 C 0.15872 0.54911 0.54859
 C251 C 0.16606 0.56297 0.54156
 C252 C 0.18019 0.56982 0.54838
 C253 C 0.18721 0.56269 0.56238
 C254 C 0.18689 0.54187 0.58353
 C255 C 0.20072 0.54893 0.59089
 C256 C 0.20788 0.56279 0.58367
 C257 C 0.20119 0.56974 0.56953
 C258 C 0.20801 0.58389 0.56270
 C259 C 0.20098 0.59122 0.54885
 C260 C 0.18715 0.58397 0.54168
 H261 H 0.16040 0.53131 0.56802
 H262 H 0.16062 0.56864 0.53092
 H263 H 0.18121 0.53122 0.58897
 H264 H 0.21851 0.56839 0.58921
 H265 H 0.21864 0.58935 0.56838
 H266 H 0.18156 0.58949 0.53104
 C267 C 0.57244 0.69925 0.07225
 C268 C 0.58661 0.70596 0.06538
 C269 C 0.59368 0.69901 0.05135
 C270 C 0.58618 0.68535 0.04409
 C271 C 0.57200 0.67852 0.05082
 C272 C 0.56511 0.68547 0.06496
 C273 C 0.56569 0.70591 0.08650
 C274 C 0.55175 0.69892 0.09369
 C275 C 0.54443 0.68527 0.08623
 C276 C 0.55103 0.67849 0.07197
 C277 C 0.54398 0.66459 0.06484
 C278 C 0.55086 0.65746 0.05083
 C279 C 0.56481 0.66462 0.04382
 H280 H 0.59226 0.71645 0.07114
 H281 H 0.59149 0.67985 0.03331
 H282 H 0.57149 0.71640 0.09212
 H283 H 0.53370 0.67973 0.09163
 H284 H 0.53326 0.65920 0.07041
 H285 H 0.57027 0.65924 0.03305
 C286 C 0.70012 0.17852 0.67893
 C287 C 0.70663 0.18528 0.66461
 C288 C 0.69940 0.19903 0.65729
 C289 C 0.68566 0.20617 0.66469
 C290 C 0.67902 0.19955 0.67901
 C291 C 0.68624 0.18565 0.68615
 C292 C 0.70706 0.16451 0.68590
 C293 C 0.70025 0.15731 0.69998
 C294 C 0.68648 0.16470 0.70719
 C295 C 0.67943 0.17873 0.70034
 C296 C 0.66543 0.18570 0.70728
 C297 C 0.65802 0.19947 0.70016
 C298 C 0.66503 0.20639 0.68609
 H299 H 0.71720 0.17963 0.65904
 H300 H 0.67994 0.21674 0.65919
 H301 H 0.71764 0.15909 0.68011
 H302 H 0.68100 0.15944 0.71801
 H303 H 0.66016 0.18021 0.71809
 H304 H 0.65945 0.21696 0.68043
 C305 C 1.06978 0.04851 0.17971
 C306 C 1.08388 0.04177 0.18671
 C307 C 1.09104 0.04886 0.20063
 C308 C 1.08368 0.06267 0.20771
 C309 C 1.06958 0.06953 0.20085
 C310 C 1.06262 0.06246 0.18678
 C311 C 1.06301 0.04175 0.16551
 C312 C 1.04918 0.04880 0.15807
 C313 C 1.04201 0.06262 0.16543
 C314 C 1.04866 0.06951 0.17963
 C315 C 1.04180 0.08360 0.18654
 C316 C 1.04877 0.09086 0.20046
 C317 C 1.06259 0.08362 0.20762
 H318 H 1.08943 0.03116 0.18109
 H319 H 1.08906 0.06829 0.21841
 H320 H 1.06877 0.03112 0.16014
 H321 H 1.03137 0.06828 0.15998
 H322 H 1.03118 0.08906 0.18086
 H323 H 1.06812 0.08908 0.21833
 C324 C 0.04988 0.17886 1.07052
 C325 C 0.04298 0.16478 1.06358
 C326 C 0.05012 0.15729 1.04982
 C327 C 0.06418 0.16444 1.04291
 C328 C 0.07120 0.17851 1.04975
 C329 C 0.06405 0.18573 1.06362
 C330 C 0.04302 0.18592 1.08452
 C331 C 0.05020 0.19973 1.09184
 C332 C 0.06424 0.20660 1.08474
 C333 C 0.07124 0.19967 1.07074
 C334 C 0.08553 0.20625 1.06400
 C335 C 0.09287 0.19903 1.05026
 C336 C 0.08550 0.18522 1.04313
 H337 H 0.03217 0.15956 1.06913
 H338 H 0.06992 0.15896 1.03234
 H339 H 0.03222 0.18046 1.08987
 H340 H 0.06994 0.21721 1.09025
 H341 H 0.09107 0.21686 1.06965
 H342 H 0.09102 0.17950 1.03257
 C343 C 0.18012 0.68043 0.70118
 C344 C 0.16600 0.68729 0.70799
 C345 C 0.15870 0.70114 0.70093
 C346 C 0.16593 0.70828 0.68709
 C347 C 0.18005 0.70155 0.68015
 C348 C 0.18716 0.68756 0.68720
 C349 C 0.18706 0.66629 0.70792
 C350 C 0.20090 0.65906 0.70080
 C351 C 0.20795 0.66638 0.68695
 C352 C 0.20115 0.68051 0.68008
 C353 C 0.20787 0.68746 0.66596
 C354 C 0.20075 0.70131 0.65872
 C355 C 0.18691 0.70836 0.66602
 H356 H 0.16056 0.68163 0.71862
 H357 H 0.16043 0.71892 0.68149
 H358 H 0.18146 0.66078 0.71856
 H359 H 0.21858 0.66093 0.68130
 H360 H 0.21851 0.68186 0.66046
 H361 H 0.18126 0.71901 0.66057
 C362 C 1.19990 0.17841 0.17865
 C363 C 1.20680 0.16436 0.18558
 C364 C 1.19999 0.15716 0.19966
 C365 C 1.18626 0.16460 0.20690
 C366 C 1.17925 0.17865 0.20008
 C367 C 1.18606 0.18557 0.18589
 C368 C 1.20642 0.18516 0.16433
 C369 C 1.19922 0.19895 0.15703
 C370 C 1.18551 0.20611 0.16446
 C371 C 1.17887 0.19949 0.17878
 C372 C 1.16489 0.20636 0.18587
 C373 C 1.15788 0.19943 0.19993
 C374 C 1.16527 0.18565 0.20703
 H375 H 1.21735 0.15891 0.17977
 H376 H 1.18077 0.15934 0.21772
 H377 H 1.21696 0.17949 0.15874
 H378 H 1.17981 0.21671 0.15897
 H379 H 1.15933 0.21695 0.18023
 H380 H 1.15999 0.18015 0.21784
 C381 C 0.67947 1.07181 0.54990
 C382 C 0.66546 1.06483 0.54294
 C383 C 0.65837 1.05070 0.54969
 C384 C 0.66572 1.04342 0.56340
 C385 C 0.67973 1.05026 0.57049
 C386 C 0.68662 1.06453 0.56374
 C387 C 0.68619 1.08619 0.54345
 C388 C 0.69996 1.09359 0.55071
 C389 C 0.70710 1.08604 0.56444
 C390 C 0.70049 1.07166 0.57100
 C391 C 0.70735 1.06452 0.58498
 C392 C 0.70044 1.05039 0.59192
 C393 C 0.68670 1.04327 0.58447
 H394 H 0.65992 1.07060 0.53241
 H395 H 0.66039 1.03256 0.56877
 H396 H 0.68045 1.09172 0.53289
 H397 H 0.71768 1.09144 0.57026
 H398 H 0.71791 1.07017 0.59060
 H399 H 0.68122 1.03241 0.58969
 C400 C 0.54966 0.57121 0.17915
 C401 C 0.54283 0.56410 0.16515
 C402 C 0.54976 0.55002 0.15816
 C403 C 0.56350 0.54292 0.16560
 C404 C 0.57046 0.54989 0.17961
 C405 C 0.56354 0.56410 0.18640
 C406 C 0.54305 0.58555 0.18578
 C407 C 0.55018 0.59300 0.19953
 C408 C 0.56393 0.58571 0.20678
 C409 C 0.57068 0.57137 0.20028
 C410 C 0.58469 0.56442 0.20723
 C411 C 0.59179 0.55033 0.20043
 C412 C 0.58447 0.54307 0.18669
 H413 H 0.53227 0.56974 0.15954
 H414 H 0.56899 0.53209 0.16034
 H415 H 0.53247 0.59103 0.18004
 H416 H 0.56958 0.59131 0.21735
 H417 H 0.59021 0.57018 0.21779
 H418 H 0.58981 0.53224 0.18128
 C419 C 0.67765 0.69936 0.17775
 C420 C 0.66349 0.70603 0.18464
 C421 C 0.65643 0.69907 0.19867
 C422 C 0.66393 0.68543 0.20592
 C423 C 0.67810 0.67863 0.19918
 C424 C 0.68498 0.68559 0.18503
 C425 C 0.68439 0.70602 0.16350
 C426 C 0.69832 0.69905 0.15629
 C427 C 0.70564 0.68541 0.16374
 C428 C 0.69904 0.67862 0.17800
 C429 C 0.70609 0.66474 0.18511
 C430 C 0.69921 0.65759 0.19914
 C431 C 0.68528 0.66474 0.20616
 H432 H 0.65783 0.71651 0.17889
 H433 H 0.65863 0.67991 0.21671
 H434 H 0.67860 0.71650 0.15789
 H435 H 0.71636 0.67989 0.15833
 H436 H 0.71679 0.65936 0.17954
 H437 H 0.67982 0.65936 0.21694
 C438 C 0.17880 0.04984 1.07132
 C439 C 0.16475 0.04303 1.06426
 C440 C 0.15739 0.05026 1.05047
 C441 C 0.16465 0.06432 1.04365
 C442 C 0.17870 0.07124 1.05060
 C443 C 0.18578 0.06400 1.06449
 C444 C 0.18573 0.04287 1.08535
 C445 C 0.19954 0.04993 1.09283
 C446 C 0.20653 0.06399 1.08572
 C447 C 0.19971 0.07108 1.07171
 C448 C 0.20642 0.08537 1.06503
 C449 C 0.19933 0.09279 1.05126
 C450 C 0.18554 0.08552 1.04405
 H451 H 0.15944 0.03222 1.06974
 H452 H 0.15927 0.07013 1.03306
 H453 H 0.18012 0.03206 1.09054
 H454 H 0.21715 0.06968 1.09120
 H455 H 0.21703 0.09083 1.07074
 H456 H 0.17992 0.09110 1.03346
 C457 C 0.57078 0.18004 0.54943
 C458 C 0.58512 0.18669 0.54287
 C459 C 0.59255 0.20043 0.55006
 C460 C 0.58522 0.20767 0.56380
 C461 C 0.57087 0.20115 0.57049
 C462 C 0.56364 0.18726 0.56331
 C463 C 0.56372 0.16601 0.54257
 C464 C 0.54966 0.15897 0.54947
 C465 C 0.54250 0.16639 0.56320
 C466 C 0.54943 0.18042 0.57018
 C467 C 0.54259 0.18745 0.58420
 C468 C 0.54982 0.20119 0.59158
 C469 C 0.56390 0.20805 0.58452
 H470 H 0.59064 0.18096 0.53231
 H471 H 0.59081 0.21823 0.56950
 H472 H 0.56940 0.16041 0.53202
 H473 H 0.53169 0.16110 0.56867
 H474 H 0.53177 0.18200 0.58951
 H475 H 0.56964 0.21860 0.59009
 C476 C 0.06970 0.54899 0.68008
 C477 C 0.08381 0.54227 0.68705
 C478 C 0.09104 0.54945 0.70089
 C479 C 0.08374 0.56333 0.70790
 C480 C 0.06963 0.57017 0.70106
 C481 C 0.06259 0.56301 0.68708
 C482 C 0.06284 0.54214 0.66595
 C483 C 0.04901 0.54918 0.65860
 C484 C 0.04189 0.56305 0.66580
 C485 C 0.04862 0.57004 0.67992
 C486 C 0.04182 0.58420 0.68674
 C487 C 0.04887 0.59156 0.70058
 C488 C 0.06269 0.58433 0.70775
 H489 H 0.08930 0.53161 0.68149
 H490 H 0.08918 0.56902 0.71853
 H491 H 0.06849 0.53147 0.66054
 H492 H 0.03127 0.56864 0.66027
 H493 H 0.03120 0.58964 0.68106
 H494 H 0.06829 0.58987 0.71838
 C495 C 0.67912 0.57140 0.04989
 C496 C 0.66511 0.56441 0.04296
 C497 C 0.65802 0.55030 0.04976
 C498 C 0.66537 0.54305 0.06348
 C499 C 0.67938 0.54991 0.07055
 C500 C 0.68628 0.56415 0.06376
 C501 C 0.68586 0.58575 0.04340
 C502 C 0.69962 0.59308 0.05063
 C503 C 0.70677 0.58565 0.06437
 C504 C 0.70017 0.57129 0.07099
 C505 C 0.70702 0.56420 0.08499
 C506 C 0.70011 0.55010 0.09197
 C507 C 0.68636 0.54295 0.08454
 H508 H 0.65957 0.57015 0.03241
 H509 H 0.66003 0.53221 0.06888
 H510 H 0.68019 0.59134 0.03284
 H511 H 0.71735 0.59116 0.07010
 H512 H 0.71758 0.56987 0.09058
 H513 H 0.68088 0.53211 0.08980
 C514 C 0.04851 0.68047 0.56982
 C515 C 0.04180 0.68745 0.58394
 C516 C 0.04896 0.70132 0.59115
 C517 C 0.06281 0.70836 0.58382
 C518 C 0.06965 0.70152 0.56971
 C519 C 0.06250 0.68751 0.56268
 C520 C 0.04167 0.66632 0.56297
 C521 C 0.04870 0.65898 0.54912
 C522 C 0.06255 0.66622 0.54199
 C523 C 0.06951 0.68036 0.54870
 C524 C 0.08365 0.68721 0.54188
 C525 C 0.09099 0.70107 0.54892
 C526 C 0.08378 0.70824 0.56275
 H527 H 0.03116 0.68186 0.58946
 H528 H 0.06848 0.71902 0.58925
 H529 H 0.03103 0.66087 0.56863
 H530 H 0.06812 0.66070 0.53135
 H531 H 0.08907 0.68153 0.53125
 H532 H 0.08931 0.71890 0.56834
 C533 C 0.54929 1.06993 0.67935
 C534 C 0.54260 1.06303 0.66518
 C535 C 0.54976 1.04920 0.65781
 C536 C 0.56363 1.04217 0.66520
 C537 C 0.57044 1.04895 0.67939
 C538 C 0.56327 1.06290 0.68647
 C539 C 0.54243 1.08401 0.68628
 C540 C 0.54942 1.09128 0.70019
 C541 C 0.56326 1.08405 0.70732
 C542 C 0.57025 1.06998 0.70053
 C543 C 0.58437 1.06312 0.70735
 C544 C 0.59173 1.04932 0.70027
 C545 C 0.58456 1.04223 0.68636
 H546 H 0.53194 1.06868 0.65977
 H547 H 0.56938 1.03154 0.65981
 H548 H 0.53179 1.08945 0.68063
 H549 H 0.56881 1.08953 0.71801
 H550 H 0.58976 1.06875 0.71805
 H551 H 0.59010 1.03162 0.68074
 C552 C 0.42832 0.32210 0.94916
 C553 C 0.43506 0.33638 0.95584
 C554 C 0.44872 0.34397 0.94861
 C555 C 0.45573 0.33673 0.93464
 C556 C 0.44910 0.32247 0.92783
 C557 C 0.43534 0.31513 0.93509
 C558 C 0.41445 0.31489 0.95614
 C559 C 0.40737 0.30085 0.94920
 C560 C 0.41457 0.29389 0.93525
 C561 C 0.42844 0.30096 0.92814
 C562 C 0.43530 0.29426 0.91396
 C563 C 0.44894 0.30159 0.90652
 C564 C 0.45583 0.31563 0.91365
 H565 H 0.42943 0.34166 0.96658
 H566 H 0.46623 0.34230 0.92883
 H567 H 0.40902 0.32042 0.96686
 H568 H 0.40924 0.28310 0.92974
 H569 H 0.42983 0.28346 0.90860
 H570 H 0.46632 0.32143 0.90805
 C571 C 0.92675 0.44760 0.32355
 C572 C 0.93364 0.45435 0.33770
 C573 C 0.94755 0.44731 0.34499
 C574 C 0.95464 0.43346 0.33758
 C575 C 0.94786 0.42660 0.32343
 C576 C 0.93385 0.43366 0.31639
 C577 C 0.91265 0.45440 0.31664
 C578 C 0.90543 0.44741 0.30270
 C579 C 0.91271 0.43358 0.29557
 C580 C 0.92681 0.42666 0.30233
 C581 C 0.93379 0.41262 0.29544
 C582 C 0.94768 0.40539 0.30244
 C583 C 0.95471 0.41257 0.31639
 H584 H 0.92795 0.46499 0.34311
 H585 H 0.96534 0.42781 0.34291
 H586 H 0.90717 0.46503 0.32230
 H587 H 0.90728 0.42804 0.28485
 H588 H 0.92821 0.40723 0.28472
 H589 H 0.96539 0.40712 0.32195
 C590 C 0.32374 0.94826 0.42672
 C591 C 0.31672 0.95504 0.41266
 C592 C 0.30272 0.94803 0.40556
 C593 C 0.29564 0.93420 0.41292
 C594 C 0.30253 0.92729 0.42698
 C595 C 0.31664 0.93432 0.43390
 C596 C 0.33794 0.95502 0.43351
 C597 C 0.34532 0.94799 0.44740
 C598 C 0.33796 0.93414 0.45454
 C599 C 0.32377 0.92727 0.44787
 C600 C 0.31679 0.91323 0.45479
 C601 C 0.30280 0.90603 0.44788
 C602 C 0.29569 0.91325 0.43403
 H603 H 0.32232 0.96567 0.40711
 H604 H 0.28488 0.92864 0.40759
 H605 H 0.34333 0.96566 0.42777
 H606 H 0.34335 0.92849 0.46521
 H607 H 0.32243 0.90779 0.46544
 H608 H 0.28493 0.90784 0.42854
 O609 O 0.20623 0.52138 0.74898
 O610 O 0.21159 0.51918 0.77680
 O611 O 0.24901 0.54383 0.72917
 O612 O 0.27585 0.53897 0.72854
 O613 O 0.22863 0.50100 0.70627
 O614 O 0.22974 0.47256 0.71231
 O615 O 0.29234 0.49939 0.77106
 O616 O 0.28781 0.52718 0.76790
 O617 O 0.25107 0.47909 0.79238
 O618 O 0.22164 0.48022 0.78684
 O619 O 0.27066 0.45753 0.75087
 O620 O 0.26970 0.46318 0.72166
 O621 O 0.29228 0.47970 0.75141
 O622 O 0.28627 0.48135 0.72119
 O623 O 0.25103 0.45735 0.77045
 O624 O 0.22101 0.46354 0.76877
 O625 O 0.27097 0.49848 0.79225
 O626 O 0.26555 0.52803 0.78703
 O627 O 0.20599 0.50140 0.72958
 O628 O 0.21206 0.47244 0.73081
 O629 O 0.24830 0.52064 0.70614
 O630 O 0.27776 0.51810 0.71273
 O631 O 0.22910 0.54376 0.74853
 O632 O 0.23282 0.53725 0.77791
 Zr633 Zr 0.22996 0.52013 0.75866
 O634 O 0.24419 0.50548 0.77426
 Zr635 Zr 0.25844 0.51995 0.72975
 O636 O 0.27407 0.50577 0.74439
 Zr637 Zr 0.22967 0.49132 0.73003
 O638 O 0.24423 0.47562 0.74425
 Zr639 Zr 0.26894 0.50955 0.76919
 O640 O 0.25479 0.52549 0.75460
 Zr641 Zr 0.24037 0.48067 0.76908
 O642 O 0.22452 0.49524 0.75484
 Zr643 Zr 0.26904 0.48093 0.74043
 O644 O 0.25445 0.49510 0.72445
 O645 O 0.23380 0.51601 0.73393
 O646 O 0.26512 0.48470 0.76520
 C647 C 0.19917 0.51295 0.73777
 C648 C 0.23754 0.55076 0.73731
 C649 C 0.23690 0.51234 0.69925
 C650 C 0.29908 0.48767 0.76311
 C651 C 0.26295 0.48686 0.79906
 C652 C 0.26274 0.45065 0.76250
 H653 H 0.24165 0.50815 0.78575
 H654 H 0.24160 0.46416 0.74152
 H655 H 0.22684 0.52300 0.72697
 H656 H 0.28555 0.50855 0.74193
 H657 H 0.28263 0.53755 0.76446
 H658 H 0.28426 0.53653 0.73682
 H659 H 0.22284 0.45601 0.75952
 H660 H 0.20659 0.47329 0.74154
 H661 H 0.27489 0.52756 0.79472
 H662 H 0.22418 0.54567 0.77694
 H663 H 0.25946 0.45681 0.72226
 H664 H 0.24068 0.47275 0.70721
 H665 H 0.20704 0.50798 0.77658
 H666 H 0.22264 0.49025 0.79349
 H667 H 0.27583 0.50804 0.70631
 H668 H 0.29392 0.49046 0.72326
 O669 O 0.24866 0.04338 0.22854
 O670 O 0.27652 0.03819 0.23070
 O671 O 0.22895 0.00045 0.20627
 O672 O 0.22859 -0.02647 0.21117
 O673 O 0.20611 0.02073 0.24900
 O674 O 0.21220 0.01969 0.27741
 O675 O 0.27123 -0.04263 0.25074
 O676 O 0.26798 -0.03819 0.22298
 O677 O 0.29236 -0.00105 0.27082
 O678 O 0.28662 0.02838 0.26960
 O679 O 0.25106 -0.02097 0.29251
 O680 O 0.22179 -0.02020 0.28690
 O681 O 0.25162 -0.04266 0.27043
 O682 O 0.22140 -0.03686 0.26884
 O683 O 0.27055 -0.00118 0.29256
 O684 O 0.26863 0.02886 0.28635
 O685 O 0.29232 -0.02103 0.25153
 O686 O 0.28697 -0.01577 0.22199
 O687 O 0.22930 0.04354 0.24851
 O688 O 0.23062 0.03752 0.27747
 O689 O 0.20603 0.00099 0.22944
 O690 O 0.21276 -0.02845 0.23206
 O691 O 0.24824 0.02049 0.20626
 O692 O 0.27764 0.01692 0.21268
 Zr693 Zr 0.25845 0.01970 0.22984
 O694 O 0.27415 0.00559 0.24449
 Zr695 Zr 0.22969 -0.00900 0.23014
 O696 O 0.24444 -0.02452 0.24434
 Zr697 Zr 0.22989 0.01986 0.25866
 O698 O 0.24422 0.00542 0.27437
 Zr699 Zr 0.26921 -0.01923 0.24051
 O700 O 0.25450 -0.00520 0.22456
 Zr701 Zr 0.26900 0.00946 0.26926
 O702 O 0.25465 0.02519 0.25468
 Zr703 Zr 0.24052 -0.01946 0.26915
 O704 O 0.22444 -0.00501 0.25496
 O705 O 0.23376 0.01570 0.23400
 O706 O 0.26526 -0.01536 0.26532
 C707 C 0.23742 0.05040 0.23694
 C708 C 0.23700 0.01200 0.19932
 C709 C 0.19911 0.01240 0.23770
 C710 C 0.26334 -0.04941 0.26248
 C711 C 0.29911 -0.01290 0.26309
 C712 C 0.26270 -0.01295 0.29931
 H713 H 0.28562 0.00822 0.24179
 H714 H 0.24151 0.00805 0.28582
 H715 H 0.22675 0.02262 0.22702
 H716 H 0.24204 -0.03604 0.24161
 H717 H 0.26445 -0.03307 0.21262
 H718 H 0.23683 -0.03489 0.21370
 H719 H 0.25942 0.02695 0.29390
 H720 H 0.24131 0.04308 0.27659
 H721 H 0.29471 -0.02505 0.22249
 H722 H 0.27662 0.02556 0.20426
 H723 H 0.22240 -0.00995 0.29327
 H724 H 0.20717 0.00870 0.27726
 H725 H 0.27627 0.04282 0.24185
 H726 H 0.29328 0.02738 0.25960
 H727 H 0.20638 -0.02656 0.24213
 H728 H 0.22344 -0.04449 0.25971
 O729 O 0.47885 0.79381 0.25097
 O730 O 0.48102 0.78846 0.22312
 O731 O 0.45643 0.75103 0.27079
 O732 O 0.46124 0.72410 0.27129
 O733 O 0.49915 0.77138 0.29363
 O734 O 0.52758 0.77016 0.28765
 O735 O 0.50071 0.70760 0.22879
 O736 O 0.47299 0.71218 0.23192
 O737 O 0.52103 0.74902 0.20753
 O738 O 0.51992 0.77846 0.21312
 O739 O 0.54259 0.72928 0.24898
 O740 O 0.53699 0.73014 0.27815
 O741 O 0.52038 0.70761 0.24844
 O742 O 0.51879 0.71364 0.27867
 O743 O 0.54274 0.74899 0.22944
 O744 O 0.53659 0.77904 0.23118
 O745 O 0.50168 0.72908 0.20760
 O746 O 0.47215 0.73449 0.21284
 O747 O 0.49882 0.79401 0.27037
 O748 O 0.52776 0.78789 0.26913
 O749 O 0.47953 0.75168 0.29375
 O750 O 0.48210 0.72216 0.28716
 O751 O 0.45650 0.77098 0.25144
 O752 O 0.46293 0.76723 0.22205
 Zr753 Zr 0.48008 0.77007 0.24126
 O754 O 0.49469 0.75584 0.22565
 Zr755 Zr 0.48025 0.74152 0.27014
 O756 O 0.49440 0.72588 0.25547
 Zr757 Zr 0.50887 0.77030 0.26990
 O758 O 0.52453 0.75573 0.25566
 Zr759 Zr 0.49062 0.73106 0.23067
 O760 O 0.47470 0.74520 0.24530
 Zr761 Zr 0.51946 0.75966 0.23084
 O762 O 0.50493 0.77551 0.24510
 Zr763 Zr 0.51922 0.73088 0.25943
 O764 O 0.50508 0.74547 0.27544
 O765 O 0.48421 0.76618 0.26598
 O766 O 0.51544 0.73486 0.23466
 C767 C 0.48727 0.80085 0.26221
 C768 C 0.44953 0.76257 0.26270
 C769 C 0.48779 0.76314 0.30063
 C770 C 0.51238 0.70081 0.23676
 C771 C 0.51327 0.73714 0.20081
 C772 C 0.54945 0.73726 0.23736
 H773 H 0.49202 0.75841 0.21416
 H774 H 0.53598 0.75835 0.25839
 H775 H 0.47724 0.77316 0.27294
 H776 H 0.49162 0.71439 0.25792
 H777 H 0.46266 0.71736 0.23541
 H778 H 0.46371 0.71565 0.26305
 H779 H 0.54412 0.77718 0.24042
 H780 H 0.52688 0.79343 0.25844
 H781 H 0.47263 0.72517 0.20512
 H782 H 0.45454 0.77590 0.22302
 H783 H 0.54326 0.74046 0.27766
 H784 H 0.52733 0.75921 0.29276
 H785 H 0.49219 0.79306 0.22338
 H786 H 0.50990 0.77748 0.20647
 H787 H 0.49213 0.72411 0.29360
 H788 H 0.50966 0.70600 0.27662
 O789 O 0.00091 0.70691 0.72859
 O790 O -0.02692 0.71221 0.73077
 O791 O 0.02071 0.74980 0.70627
 O792 O 0.02128 0.77669 0.71118
 O793 O 0.04357 0.72943 0.74902
 O794 O 0.03752 0.73055 0.77744
 O795 O -0.02133 0.79304 0.75075
 O796 O -0.01805 0.78858 0.72297
 O797 O -0.04257 0.75165 0.77084
 O798 O -0.03698 0.72219 0.76966
 O799 O -0.00109 0.77135 0.79253
 O800 O 0.02812 0.77051 0.78687
 O801 O -0.00171 0.79302 0.77045
 O802 O 0.02853 0.78715 0.76879
 O803 O -0.02067 0.75165 0.79260
 O804 O -0.01896 0.72162 0.78637
 O805 O -0.04245 0.77157 0.75150
 O806 O -0.03715 0.76623 0.72198
 O807 O 0.02028 0.70672 0.74858
 O808 O 0.01904 0.71279 0.77751
 O809 O 0.04371 0.74914 0.72944
 O810 O 0.03710 0.77862 0.73206
 O811 O 0.00136 0.72982 0.70628
 O812 O -0.02801 0.73346 0.71274
 Zr813 Zr -0.00879 0.73065 0.72988
 O814 O -0.02441 0.74485 0.74451
 Zr815 Zr 0.02009 0.75924 0.73015
 O816 O 0.00542 0.77485 0.74433
 Zr817 Zr 0.01981 0.73042 0.75869
 O818 O 0.00556 0.74495 0.77438
 Zr819 Zr -0.01936 0.76964 0.74051
 O820 O -0.00474 0.75553 0.72457
 Zr821 Zr -0.01925 0.74101 0.76929
 O822 O -0.00499 0.72520 0.75472
 Zr823 Zr 0.00935 0.76981 0.76914
 O824 O 0.02536 0.75526 0.75497
 O825 O 0.01593 0.73456 0.73402
 O826 O -0.01541 0.76581 0.76532
 C827 C 0.01211 0.69987 0.73702
 C828 C 0.01258 0.73829 0.69932
 C829 C 0.05059 0.73773 0.73771
 C830 C -0.01343 0.79980 0.76251
 C831 C -0.04927 0.76351 0.76308
 C832 C -0.01273 0.76337 0.79936
 H833 H -0.03589 0.74227 0.74182
 H834 H 0.00828 0.74231 0.78583
 H835 H 0.02289 0.72760 0.72703
 H836 H 0.00786 0.78635 0.74159
 H837 H -0.01458 0.78343 0.71261
 H838 H 0.01304 0.78513 0.71367
 H839 H -0.00970 0.72346 0.79389
 H840 H 0.00832 0.70728 0.77665
 H841 H -0.04484 0.77555 0.72245
 H842 H -0.02704 0.72481 0.70432
 H843 H 0.02753 0.76025 0.79321
 H844 H 0.04263 0.74151 0.77724
 H845 H -0.02669 0.70763 0.74194
 H846 H -0.04364 0.72320 0.75965
 H847 H 0.04349 0.77671 0.74213
 H848 H 0.02645 0.79481 0.75970
 O849 O 0.04391 0.02113 0.00109
 O850 O 0.03870 0.01886 -0.02679
 O851 O 0.00108 0.04347 0.02068
 O852 O -0.02579 0.03856 0.02111
 O853 O 0.02130 0.00071 0.04366
 O854 O 0.02020 -0.02775 0.03761
 O855 O -0.04209 -0.00107 -0.02147
 O856 O -0.03754 0.02674 -0.01828
 O857 O -0.00075 -0.02135 -0.04254
 O858 O 0.02870 -0.02006 -0.03690
 O859 O -0.02048 -0.04291 -0.00117
 O860 O -0.01971 -0.03722 0.02805
 O861 O -0.04213 -0.02078 -0.00184
 O862 O -0.03629 -0.01911 0.02841
 O863 O -0.00072 -0.04303 -0.02063
 O864 O 0.02926 -0.03674 -0.01883
 O865 O -0.02063 -0.00199 -0.04252
 O866 O -0.01520 0.02760 -0.03731
 O867 O 0.04404 0.00117 0.02050
 O868 O 0.03799 -0.02783 0.01920
 O869 O 0.00164 0.02032 0.04369
 O870 O -0.02779 0.01769 0.03696
 O871 O 0.02108 0.04343 0.00141
 O872 O 0.01749 0.03692 -0.02798
 Zr873 Zr 0.02024 0.01980 -0.00874
 O874 O 0.00609 0.00512 -0.02442
 Zr875 Zr -0.00838 0.01957 0.02003
 O876 O -0.02395 0.00535 0.00530
 Zr877 Zr 0.02038 -0.00899 0.01989
 O878 O 0.00589 -0.02473 0.00559
 Zr879 Zr -0.01868 0.00913 -0.01947
 O880 O -0.00461 0.02511 -0.00480
 Zr881 Zr 0.00989 -0.01967 -0.01921
 O882 O 0.02566 -0.00507 -0.00489
 Zr883 Zr -0.01894 -0.01949 0.00928
 O884 O -0.00444 -0.00527 0.02534
 O885 O 0.01627 0.01568 0.01597
 O886 O -0.01488 -0.01570 -0.01547
 C887 C 0.05091 0.01275 0.01237
 C888 C 0.01261 0.05041 0.01261
 C889 C 0.01302 0.01205 0.05063
 C890 C -0.04887 -0.01281 -0.01357
 C891 C -0.01261 -0.01364 -0.04928
 C892 C -0.01247 -0.04977 -0.01275
 H893 H 0.00868 0.00779 -0.03590
 H894 H 0.00851 -0.03618 0.00833
 H895 H 0.02319 0.02269 0.02297
 H896 H -0.03544 0.00810 0.00770
 H897 H -0.03237 0.03711 -0.01480
 H898 H -0.03420 0.03606 0.01283
 H899 H 0.02742 -0.04425 -0.00955
 H900 H 0.04355 -0.02694 0.00852
 H901 H -0.02450 0.02709 -0.04505
 H902 H 0.02615 0.04534 -0.02698
 H903 H -0.00946 -0.04355 0.02751
 H904 H 0.00924 -0.02756 0.04267
 H905 H 0.04326 0.00768 -0.02652
 H906 H 0.02768 -0.01006 -0.04359
 H907 H -0.02590 0.00763 0.04337
 H908 H -0.04391 -0.00999 0.02632
 O909 O 0.04331 0.52131 0.50079
 O910 O 0.03803 0.51919 0.47297
 O911 O 0.00046 0.54369 0.52053
 O912 O -0.02639 0.53876 0.52106
 O913 O 0.02077 0.50090 0.54341
 O914 O 0.01962 0.47246 0.53736
 O915 O -0.04275 0.49928 0.47840
 O916 O -0.03817 0.52705 0.48158
 O917 O -0.00140 0.47899 0.45722
 O918 O 0.02803 0.48021 0.46286
 O919 O -0.02116 0.45736 0.49858
 O920 O -0.02036 0.46295 0.52776
 O921 O -0.04279 0.47955 0.49801
 O922 O -0.03684 0.48114 0.52826
 O923 O -0.00144 0.45727 0.47907
 O924 O 0.02857 0.46350 0.48090
 O925 O -0.02131 0.49832 0.45729
 O926 O -0.01585 0.52790 0.46253
 O927 O 0.04347 0.50131 0.52015
 O928 O 0.03734 0.47234 0.51890
 O929 O 0.00110 0.52050 0.54351
 O930 O -0.02836 0.51788 0.53681
 O931 O 0.02045 0.54368 0.50124
 O932 O 0.01681 0.53721 0.47183
 Zr933 Zr 0.01960 0.52006 0.49105
 O934 O 0.00543 0.50540 0.47537
 Zr935 Zr -0.00897 0.51979 0.51987
 O936 O -0.02456 0.50561 0.50513
 Zr937 Zr 0.01978 0.49121 0.51964
 O938 O 0.00525 0.47550 0.50534
 Zr939 Zr -0.01933 0.50942 0.48036
 O940 O -0.00524 0.52538 0.49504
 Zr941 Zr 0.00922 0.48060 0.48055
 O942 O 0.02502 0.49518 0.49486
 Zr943 Zr -0.01957 0.48076 0.50907
 O944 O -0.00503 0.49494 0.52513
 O945 O 0.01568 0.51591 0.51577
 O946 O -0.01555 0.48458 0.48432
 C947 C 0.05033 0.51287 0.51200
 C948 C 0.01197 0.55065 0.51244
 C949 C 0.01249 0.51222 0.55042
 C950 C -0.04955 0.48756 0.48631
 C951 C -0.01327 0.48671 0.45050
 C952 C -0.01318 0.45052 0.48696
 H953 H 0.00801 0.50808 0.46390
 H954 H 0.00786 0.46404 0.50806
 H955 H 0.02263 0.52290 0.52275
 H956 H -0.03604 0.50837 0.50756
 H957 H -0.03298 0.53741 0.48507
 H958 H -0.03474 0.53635 0.51270
 H959 H 0.02668 0.45594 0.49012
 H960 H 0.04287 0.47321 0.50820
 H961 H -0.02515 0.52741 0.45480
 H962 H 0.02544 0.54565 0.47285
 H963 H -0.01006 0.45669 0.52728
 H964 H 0.00866 0.47264 0.54242
 H965 H 0.04254 0.50799 0.47314
 H966 H 0.02701 0.49021 0.45617
 H967 H -0.02643 0.50783 0.54325
 H968 H -0.04449 0.49025 0.52619
 O969 O 0.50117 0.04384 0.52129
 O970 O 0.47336 0.03852 0.51921
 O971 O 0.52095 0.00095 0.54365
 O972 O 0.52145 -0.02594 0.53874
 O973 O 0.54375 0.02134 0.50090
 O974 O 0.53771 0.02017 0.47249
 O975 O 0.47877 -0.04232 0.49927
 O976 O 0.48198 -0.03778 0.52703
 O977 O 0.45760 -0.00094 0.47902
 O978 O 0.46320 0.02852 0.48025
 O979 O 0.49896 -0.02064 0.45742
 O980 O 0.52814 -0.01984 0.46303
 O981 O 0.49836 -0.04233 0.47956
 O982 O 0.52860 -0.03639 0.48118
 O983 O 0.47947 -0.00090 0.45732
 O984 O 0.48126 0.02915 0.46360
 O985 O 0.45766 -0.02087 0.49835
 O986 O 0.46294 -0.01544 0.52791
 O987 O 0.52052 0.04401 0.50130
 O988 O 0.51925 0.03790 0.47236
 O989 O 0.54390 0.00163 0.52048
 O990 O 0.53720 -0.02789 0.51786
 O991 O 0.50167 0.02094 0.54365
 O992 O 0.47225 0.01726 0.53721
 Zr993 Zr 0.49144 0.02009 0.52006
 O994 O 0.47576 0.00590 0.50542
 Zr995 Zr 0.52026 -0.00849 0.51978
 O996 O 0.50551 -0.02410 0.50562
 Zr997 Zr 0.52000 0.02031 0.49123
 O998 O 0.50570 0.00577 0.47554
 Zr999 Zr 0.48074 -0.01889 0.50943
 O1000 O 0.49544 -0.00478 0.52537
 Zr1001 Zr 0.48091 0.00973 0.48064
 O1002 O 0.49523 0.02554 0.49521
 Zr1003 Zr 0.50943 -0.01909 0.48080
 O1004 O 0.52550 -0.00453 0.49495
 O1005 O 0.51615 0.01618 0.51589
 O1006 O 0.48469 -0.01507 0.48461
 C1007 C 0.51238 0.05088 0.51285
 C1008 C 0.51289 0.01247 0.55060
 C1009 C 0.55078 0.01306 0.51222
 C1010 C 0.48666 -0.04911 0.48755
 C1011 C 0.45088 -0.01283 0.48673
 C1012 C 0.48736 -0.01263 0.45058
 H1013 H 0.46428 0.00848 0.50810
 H1014 H 0.50842 0.00840 0.46410
 H1015 H 0.52313 0.02315 0.52287
 H1016 H 0.50793 -0.03560 0.50837
 H1017 H 0.48548 -0.03260 0.53738
 H1018 H 0.51310 -0.03431 0.53632
 H1019 H 0.49047 0.02727 0.45603
 H1020 H 0.50857 0.04345 0.47326
 H1021 H 0.45520 -0.02475 0.52741
 H1022 H 0.47327 0.02589 0.54565
 H1023 H 0.52765 -0.00953 0.45677
 H1024 H 0.54279 0.00921 0.47270
 H1025 H 0.47351 0.04304 0.50801
 H1026 H 0.45654 0.02750 0.49025
 H1027 H 0.54363 -0.02594 0.50782
 H1028 H 0.52653 -0.04405 0.49028
 O1029 O 0.54344 0.52108 0.00094
 O1030 O 0.53816 0.51887 -0.02691
 O1031 O 0.50069 0.54348 0.02067
 O1032 O 0.47380 0.53864 0.02112
 O1033 O 0.52089 0.50072 0.04357
 O1034 O 0.51971 0.47225 0.03753
 O1035 O 0.45738 0.49905 -0.02147
 O1036 O 0.46194 0.52683 -0.01824
 O1037 O 0.49870 0.47879 -0.04262
 O1038 O 0.52813 0.47994 -0.03696
 O1039 O 0.47892 0.45717 -0.00122
 O1040 O 0.47973 0.46281 0.02797
 O1041 O 0.45732 0.47935 -0.00184
 O1042 O 0.46324 0.48100 0.02843
 O1043 O 0.49861 0.45705 -0.02075
 O1044 O 0.52862 0.46321 -0.01894
 O1045 O 0.47884 0.49817 -0.04256
 O1046 O 0.48427 0.52773 -0.03728
 O1047 O 0.54359 0.50111 0.02034
 O1048 O 0.53745 0.47212 0.01907
 O1049 O 0.50124 0.52034 0.04364
 O1050 O 0.47180 0.51775 0.03696
 O1051 O 0.52066 0.54342 0.00136
 O1052 O 0.51698 0.53696 -0.02804
 Zr1053 Zr 0.51974 0.51981 -0.00882
 O1054 O 0.50555 0.50516 -0.02447
 Zr1055 Zr 0.49117 0.51961 0.02000
 O1056 O 0.47556 0.50542 0.00529
 Zr1057 Zr 0.51989 0.49100 0.01981
 O1058 O 0.50535 0.47529 0.00552
 Zr1059 Zr 0.48079 0.50922 -0.01948
 O1060 O 0.49492 0.52517 -0.00483
 Zr1061 Zr 0.50931 0.48036 -0.01929
 O1062 O 0.52513 0.49493 -0.00498
 Zr1063 Zr 0.48052 0.48058 0.00924
 O1064 O 0.49508 0.49476 0.02528
 O1065 O 0.51581 0.51568 0.01590
 O1066 O 0.48455 0.48437 -0.01551
 C1067 C 0.55045 0.51267 0.01219
 C1068 C 0.51223 0.55040 0.01259
 C1069 C 0.51263 0.51207 0.05055
 C1070 C 0.45058 0.48733 -0.01357
 C1071 C 0.48687 0.48655 -0.04935
 C1072 C 0.48688 0.45031 -0.01284
 H1073 H 0.50813 0.50784 -0.03595
 H1074 H 0.50794 0.46383 0.00825
 H1075 H 0.52277 0.52267 0.02288
 H1076 H 0.46408 0.50819 0.00771
 H1077 H 0.46712 0.53720 -0.01476
 H1078 H 0.46536 0.53613 0.01287
 H1079 H 0.52675 0.45570 -0.00968
 H1080 H 0.54298 0.47299 0.00837
 H1081 H 0.47497 0.52725 -0.04501
 H1082 H 0.52565 0.54537 -0.02704
 H1083 H 0.49001 0.45651 0.02747
 H1084 H 0.50876 0.47247 0.04261
 H1085 H 0.54272 0.50769 -0.02665
 H1086 H 0.52714 0.48994 -0.04364
 H1087 H 0.47368 0.50769 0.04338
 H1088 H 0.45560 0.49010 0.02633
 O1089 O 0.77155 0.29358 0.49947
 O1090 O 0.76935 0.28828 0.52733
 O1091 O 0.79381 0.25074 0.47969
 O1092 O 0.78891 0.22383 0.47919
 O1093 O 0.75113 0.27110 0.45686
 O1094 O 0.72269 0.26993 0.46288
 O1095 O 0.74942 0.20741 0.52173
 O1096 O 0.77715 0.21196 0.51856
 O1097 O 0.72925 0.24884 0.54300
 O1098 O 0.73044 0.27827 0.53742
 O1099 O 0.70757 0.22916 0.50151
 O1100 O 0.71319 0.22991 0.47237
 O1101 O 0.72972 0.20743 0.50212
 O1102 O 0.73132 0.21339 0.47188
 O1103 O 0.70749 0.24888 0.52105
 O1104 O 0.71379 0.27889 0.51937
 O1105 O 0.74857 0.22892 0.54292
 O1106 O 0.77809 0.23430 0.53763
 O1107 O 0.75157 0.29377 0.48009
 O1108 O 0.72261 0.28769 0.48136
 O1109 O 0.77068 0.25139 0.45673
 O1110 O 0.76802 0.22189 0.46335
 O1111 O 0.79382 0.27072 0.49903
 O1112 O 0.78738 0.26704 0.52842
 Zr1113 Zr 0.77024 0.26986 0.50921
 O1114 O 0.75560 0.25565 0.52485
 Zr1115 Zr 0.76995 0.24127 0.48035
 O1116 O 0.75577 0.22566 0.49504
 Zr1117 Zr 0.74143 0.27007 0.48060
 O1118 O 0.72574 0.25554 0.49487
 Zr1119 Zr 0.75959 0.23086 0.51983
 O1120 O 0.77553 0.24498 0.50519
 Zr1121 Zr 0.73083 0.25948 0.51968
 O1122 O 0.74540 0.27530 0.50540
 Zr1123 Zr 0.73096 0.23068 0.49110
 O1124 O 0.74513 0.24524 0.47507
 O1125 O 0.76608 0.26594 0.48450
 O1126 O 0.73477 0.23467 0.51587
 C1127 C 0.76315 0.30061 0.48822
 C1128 C 0.80075 0.26228 0.48778
 C1129 C 0.76246 0.26284 0.44985
 C1130 C 0.73771 0.20063 0.51379
 C1131 C 0.73701 0.23698 0.54973
 C1132 C 0.70072 0.23718 0.51309
 H1133 H 0.75829 0.25823 0.53633
 H1134 H 0.71430 0.25817 0.49213
 H1135 H 0.77307 0.27290 0.47753
 H1136 H 0.75851 0.21416 0.49259
 H1137 H 0.78750 0.21713 0.51506
 H1138 H 0.78641 0.21539 0.48743
 H1139 H 0.70629 0.27708 0.51009
 H1140 H 0.72352 0.29325 0.49205
 H1141 H 0.77760 0.22498 0.54535
 H1142 H 0.79580 0.27571 0.52744
 H1143 H 0.70700 0.24026 0.47281
 H1144 H 0.72293 0.25899 0.45773
 H1145 H 0.75819 0.29289 0.52706
 H1146 H 0.74049 0.27731 0.54403
 H1147 H 0.75799 0.22383 0.45692
 H1148 H 0.74042 0.20574 0.47394
 O1149 O 0.77168 0.79372 -0.00114
 O1150 O 0.76947 0.78847 0.02673
 O1151 O 0.79371 0.75079 -0.02091
 O1152 O 0.78870 0.72391 -0.02144
 O1153 O 0.75104 0.77130 -0.04369
 O1154 O 0.72264 0.77029 -0.03761
 O1155 O 0.74926 0.70766 0.02122
 O1156 O 0.77700 0.71213 0.01805
 O1157 O 0.72922 0.74918 0.04248
 O1158 O 0.73047 0.77858 0.03688
 O1159 O 0.70747 0.72944 0.00108
 O1160 O 0.71298 0.73021 -0.02806
 O1161 O 0.72955 0.70770 0.00161
 O1162 O 0.73115 0.71371 -0.02866
 O1163 O 0.70746 0.74917 0.02061
 O1164 O 0.71382 0.77923 0.01879
 O1165 O 0.74844 0.72917 0.04239
 O1166 O 0.77800 0.73448 0.03710
 O1167 O 0.75168 0.79398 -0.02049
 O1168 O 0.72266 0.78802 -0.01908
 O1169 O 0.77055 0.75154 -0.04384
 O1170 O 0.76778 0.72202 -0.03719
 O1171 O 0.79384 0.77076 -0.00157
 O1172 O 0.78739 0.76715 0.02785
 Zr1173 Zr 0.77025 0.77001 0.00864
 O1174 O 0.75557 0.75588 0.02430
 Zr1175 Zr 0.76982 0.74142 -0.02021
 O1176 O 0.75562 0.72586 -0.00549
 Zr1177 Zr 0.74141 0.77033 -0.01992
 O1178 O 0.72568 0.75583 -0.00565
 Zr1179 Zr 0.75948 0.73107 0.01930
 O1180 O 0.77545 0.74512 0.00461
 Zr1181 Zr 0.73081 0.75977 0.01915
 O1182 O 0.74543 0.77555 0.00486
 Zr1183 Zr 0.73083 0.73095 -0.00941
 O1184 O 0.74501 0.74548 -0.02546
 O1185 O 0.76604 0.76610 -0.01607
 O1186 O 0.73468 0.73496 0.01535
 C1187 C 0.76332 0.80077 -0.01239
 C1188 C 0.80072 0.76229 -0.01283
 C1189 C 0.76233 0.76300 -0.05071
 C1190 C 0.73754 0.70089 0.01329
 C1191 C 0.73691 0.73728 0.04919
 C1192 C 0.70068 0.73745 0.01270
 H1193 H 0.75827 0.75846 0.03578
 H1194 H 0.71424 0.75848 -0.00837
 H1195 H 0.77306 0.77302 -0.02305
 H1196 H 0.75833 0.71435 -0.00793
 H1197 H 0.78736 0.71727 0.01454
 H1198 H 0.78626 0.71554 -0.01310
 H1199 H 0.70624 0.77735 0.00959
 H1200 H 0.72366 0.79361 -0.00842
 H1201 H 0.77747 0.72518 0.04483
 H1202 H 0.79586 0.77576 0.02684
 H1203 H 0.70684 0.74059 -0.02763
 H1204 H 0.72276 0.75933 -0.04270
 H1205 H 0.75833 0.79312 0.02648
 H1206 H 0.74055 0.77765 0.04344
 H1207 H 0.75779 0.72404 -0.04366
 H1208 H 0.74017 0.70597 -0.02656
 O1209 O 1.04339 0.22830 0.24896
 O1210 O 1.03814 0.23051 0.27680
 O1211 O 1.00050 0.20594 0.22925
 O1212 O 0.97366 0.21087 0.22867
 O1213 O 1.02092 0.24870 0.20635
 O1214 O 1.01983 0.27716 0.21236
 O1215 O 0.95740 0.25046 0.27129
 O1216 O 0.96188 0.22267 0.26813
 O1217 O 0.99885 0.27069 0.29249
 O1218 O 1.02824 0.26950 0.28686
 O1219 O 0.97908 0.29228 0.25109
 O1220 O 0.97991 0.28666 0.22188
 O1221 O 0.95742 0.27013 0.25164
 O1222 O 0.96335 0.26848 0.22140
 O1223 O 0.99879 0.29240 0.27062
 O1224 O 1.02881 0.28618 0.26879
 O1225 O 0.97889 0.25136 0.29244
 O1226 O 0.98421 0.22178 0.28718
 O1227 O 1.04359 0.24829 0.22959
 O1228 O 1.03757 0.27728 0.23084
 O1229 O 1.00122 0.22909 0.20624
 O1230 O 0.97175 0.23175 0.21289
 O1231 O 1.02047 0.20597 0.24856
 O1232 O 1.01688 0.21248 0.27795
 Zr1233 Zr 1.01970 0.22961 0.25871
 O1234 O 1.00556 0.24428 0.27436
 Zr1235 Zr 0.99112 0.22984 0.22987
 O1236 O 0.97557 0.24405 0.24457
 Zr1237 Zr 1.01994 0.25842 0.23010
 O1238 O 1.00547 0.27415 0.24436
 Zr1239 Zr 0.98079 0.24027 0.26936
 O1240 O 0.99484 0.22429 0.25471
 Zr1241 Zr 1.00942 0.26908 0.26916
 O1242 O 1.02518 0.25447 0.25489
 Zr1243 Zr 0.98063 0.26888 0.24060
 O1244 O 0.99513 0.25468 0.22458
 O1245 O 1.01578 0.23373 0.23399
 O1246 O 0.98465 0.26510 0.26537
 C1247 C 1.05042 0.23672 0.23773
 C1248 C 1.01199 0.19899 0.23735
 C1249 C 1.01264 0.23735 0.19935
 C1250 C 0.95064 0.26217 0.26335
 C1251 C 0.98698 0.26296 0.29922
 C1252 C 0.98705 0.29912 0.26272
 H1253 H 1.00815 0.24161 0.28584
 H1254 H 1.00810 0.28561 0.24163
 H1255 H 1.02271 0.22672 0.22703
 H1256 H 0.96408 0.24129 0.24214
 H1257 H 0.96702 0.21230 0.26464
 H1258 H 0.96530 0.21331 0.23701
 H1259 H 1.02692 0.29375 0.25958
 H1260 H 1.04310 0.27641 0.24155
 H1261 H 0.97492 0.22229 0.29491
 H1262 H 1.02550 0.20404 0.27696
 H1263 H 0.99019 0.29297 0.22242
 H1264 H 1.00887 0.27697 0.20729
 H1265 H 1.04273 0.24169 0.27657
 H1266 H 1.02725 0.25947 0.29351
 H1267 H 0.97372 0.24178 0.20643
 H1268 H 0.95569 0.25938 0.22347
 O1269 O 0.70666 1.02126 0.74901
 O1270 O 0.71192 1.01905 0.77687
 O1271 O 0.74946 1.04381 0.72939
 O1272 O 0.77634 1.03904 0.72896
 O1273 O 0.72929 1.00101 0.70640
 O1274 O 0.73049 0.97253 0.71241
 O1275 O 0.79272 0.99942 0.77152
 O1276 O 0.78817 1.02723 0.76829
 O1277 O 0.75143 0.97904 0.79259
 O1278 O 0.72199 0.98015 0.78693
 O1279 O 0.77121 0.95754 0.75115
 O1280 O 0.77040 0.96324 0.72195
 O1281 O 0.79278 0.97974 0.75186
 O1282 O 0.78694 0.98143 0.72160
 O1283 O 0.75149 0.95733 0.77065
 O1284 O 0.72148 0.96346 0.76887
 O1285 O 0.77127 0.99850 0.79257
 O1286 O 0.76582 1.02804 0.78733
 O1287 O 0.70657 1.00130 0.72959
 O1288 O 0.71270 0.97235 0.73083
 O1289 O 0.74893 1.02068 0.70638
 O1290 O 0.77837 1.01817 0.71309
 O1291 O 0.72947 1.04369 0.74867
 O1292 O 0.73309 1.03720 0.77806
 Zr1293 Zr 0.73036 1.02006 0.75881
 O1294 O 0.74456 1.00544 0.77446
 Zr1295 Zr 0.75897 1.01996 0.73003
 O1296 O 0.77458 1.00581 0.74473
 Zr1297 Zr 0.73026 0.99127 0.73015
 O1298 O 0.74479 0.97560 0.74444
 Zr1299 Zr 0.76932 1.00957 0.76951
 O1300 O 0.75520 1.02549 0.75486
 Zr1301 Zr 0.74080 0.98063 0.76925
 O1302 O 0.72499 0.99517 0.75494
 Zr1303 Zr 0.76961 0.98096 0.74073
 O1304 O 0.75507 0.99511 0.72470
 O1305 O 0.73433 1.01597 0.73409
 O1306 O 0.76556 0.98472 0.76549
 C1307 C 0.69968 1.01283 0.73774
 C1308 C 0.73792 1.05070 0.73746
 C1309 C 0.73756 1.01239 0.69944
 C1310 C 0.79951 0.98770 0.76362
 C1311 C 0.76326 0.98684 0.79933
 C1312 C 0.76323 0.95064 0.76274
 H1313 H 0.74196 1.00810 0.78594
 H1314 H 0.74220 0.96413 0.74169
 H1315 H 0.72737 1.02294 0.72711
 H1316 H 0.78606 1.00860 0.74233
 H1317 H 0.78298 1.03758 0.76483
 H1318 H 0.78478 1.03655 0.73720
 H1319 H 0.72334 0.95596 0.75959
 H1320 H 0.70717 0.97318 0.74153
 H1321 H 0.77513 1.02759 0.79506
 H1322 H 0.72442 1.04559 0.77706
 H1323 H 0.76015 0.95687 0.72247
 H1324 H 0.74143 0.97280 0.70732
 H1325 H 0.70738 1.00785 0.77661
 H1326 H 0.72298 0.99016 0.79362
 H1327 H 0.77649 1.00810 0.70666
 H1328 H 0.79458 0.99055 0.72372
 O1329 O 0.74894 0.54358 0.22888
 O1330 O 0.77679 0.53832 0.23108
 O1331 O 0.72917 0.50076 0.20646
 O1332 O 0.72857 0.47385 0.21130
 O1333 O 0.70635 0.52104 0.24927
 O1334 O 0.71242 0.51985 0.27768
 O1335 O 0.77122 0.45741 0.25073
 O1336 O 0.76799 0.46201 0.22299
 O1337 O 0.79247 0.49876 0.27108
 O1338 O 0.78692 0.52822 0.26994
 O1339 O 0.75107 0.47900 0.29265
 O1340 O 0.72189 0.47980 0.28704
 O1341 O 0.75163 0.45736 0.27045
 O1342 O 0.72138 0.46330 0.26884
 O1343 O 0.77060 0.49875 0.29279
 O1344 O 0.76889 0.52879 0.28662
 O1345 O 0.79236 0.47887 0.25169
 O1346 O 0.78708 0.48435 0.22216
 O1347 O 0.72958 0.54373 0.24886
 O1348 O 0.73092 0.53760 0.27781
 O1349 O 0.70619 0.50138 0.22963
 O1350 O 0.71281 0.47187 0.23217
 O1351 O 0.74851 0.52074 0.20653
 O1352 O 0.77789 0.51711 0.21299
 Zr1353 Zr 0.75868 0.51986 0.23013
 O1354 O 0.77433 0.50564 0.24472
 Zr1355 Zr 0.72981 0.49127 0.23031
 O1356 O 0.74450 0.47563 0.24444
 Zr1357 Zr 0.73011 0.52002 0.25893
 O1358 O 0.74438 0.50545 0.27458
 Zr1359 Zr 0.76928 0.48086 0.24063
 O1360 O 0.75463 0.49500 0.22474
 Zr1361 Zr 0.76917 0.50942 0.26950
 O1362 O 0.75490 0.52527 0.25499
 Zr1363 Zr 0.74059 0.48060 0.26927
 O1364 O 0.72456 0.49518 0.25515
 O1365 O 0.73397 0.51593 0.23426
 O1366 O 0.76534 0.48463 0.26547
 C1367 C 0.73771 0.55059 0.23729
 C1368 C 0.73728 0.51229 0.19955
 C1369 C 0.69932 0.51279 0.23792
 C1370 C 0.76331 0.45060 0.26244
 C1371 C 0.79916 0.48689 0.26332
 C1372 C 0.76269 0.48700 0.29951
 H1373 H 0.78581 0.50823 0.24205
 H1374 H 0.74166 0.50805 0.28604
 H1375 H 0.72699 0.52289 0.22729
 H1376 H 0.74206 0.46414 0.24166
 H1377 H 0.76451 0.46720 0.21266
 H1378 H 0.73688 0.46546 0.21372
 H1379 H 0.75962 0.52694 0.29413
 H1380 H 0.74160 0.54318 0.27690
 H1381 H 0.79479 0.47504 0.22263
 H1382 H 0.77690 0.52579 0.20460
 H1383 H 0.72241 0.49010 0.29333
 H1384 H 0.70731 0.50889 0.27746
 H1385 H 0.77656 0.54288 0.24226
 H1386 H 0.79356 0.52725 0.25992
 H1387 H 0.70639 0.47379 0.24222
 H1388 H 0.72345 0.45565 0.25973
 O1389 O 0.50103 0.20625 0.72885
 O1390 O 0.47322 0.21149 0.73098
 O1391 O 0.52078 0.24919 0.70655
 O1392 O 0.52151 0.27603 0.71148
 O1393 O 0.54362 0.22875 0.74932
 O1394 O 0.53756 0.22992 0.77774
 O1395 O 0.47873 0.29238 0.75078
 O1396 O 0.48197 0.28782 0.72306
 O1397 O 0.45747 0.25102 0.77104
 O1398 O 0.46305 0.22158 0.76994
 O1399 O 0.49890 0.27081 0.79270
 O1400 O 0.52799 0.27007 0.78722
 O1401 O 0.49831 0.29244 0.77052
 O1402 O 0.52864 0.28644 0.76888
 O1403 O 0.47935 0.25109 0.79282
 O1404 O 0.48110 0.22102 0.78663
 O1405 O 0.45760 0.27091 0.75167
 O1406 O 0.46290 0.26545 0.72215
 O1407 O 0.52036 0.20606 0.74887
 O1408 O 0.51903 0.21219 0.77784
 O1409 O 0.54377 0.24844 0.72972
 O1410 O 0.53715 0.27798 0.73239
 O1411 O 0.50148 0.22917 0.70652
 O1412 O 0.47208 0.23274 0.71298
 Zr1413 Zr 0.49130 0.22997 0.73012
 O1414 O 0.47565 0.24416 0.74472
 Zr1415 Zr 0.52017 0.25857 0.73042
 O1416 O 0.50545 0.27419 0.74452
 Zr1417 Zr 0.51986 0.22978 0.75897
 O1418 O 0.50559 0.24435 0.77462
 Zr1419 Zr 0.48068 0.26895 0.74067
 O1420 O 0.49535 0.25484 0.72478
 Zr1421 Zr 0.48079 0.24039 0.76952
 O1422 O 0.49507 0.22455 0.75498
 Zr1423 Zr 0.50937 0.26920 0.76934
 O1424 O 0.52541 0.25462 0.75525
 O1425 O 0.51601 0.23390 0.73430
 O1426 O 0.48461 0.26518 0.76550
 C1427 C 0.51223 0.19921 0.73729
 C1428 C 0.51269 0.23768 0.69958
 C1429 C 0.55064 0.23701 0.73798
 C1430 C 0.48662 0.29919 0.76251
 C1431 C 0.45077 0.26288 0.76326
 C1432 C 0.48728 0.26284 0.79954
 H1433 H 0.46417 0.24157 0.74203
 H1434 H 0.50830 0.24175 0.78608
 H1435 H 0.52298 0.22694 0.72731
 H1436 H 0.50790 0.28569 0.74175
 H1437 H 0.48546 0.28263 0.71272
 H1438 H 0.51308 0.28434 0.71379
 H1439 H 0.49033 0.22291 0.79418
 H1440 H 0.50834 0.20664 0.77692
 H1441 H 0.45518 0.27476 0.72261
 H1442 H 0.47309 0.22411 0.70454
 H1443 H 0.52764 0.25966 0.79333
 H1444 H 0.54268 0.24087 0.77752
 H1445 H 0.47339 0.20697 0.74218
 H1446 H 0.45644 0.22252 0.75988
 H1447 H 0.54365 0.27598 0.74237
 H1448 H 0.52647 0.29421 0.75990
 O1449 O 0.24885 0.70674 0.52111
 O1450 O 0.27666 0.71205 0.51896
 O1451 O 0.22915 0.74957 0.54359
 O1452 O 0.22857 0.77645 0.53876
 O1453 O 0.20620 0.72928 0.50080
 O1454 O 0.21222 0.73048 0.47238
 O1455 O 0.27120 0.79294 0.49928
 O1456 O 0.26799 0.78836 0.52703
 O1457 O 0.29236 0.75161 0.47896
 O1458 O 0.28671 0.72215 0.48003
 O1459 O 0.25092 0.77140 0.45742
 O1460 O 0.22174 0.77053 0.46304
 O1461 O 0.25156 0.79298 0.47960
 O1462 O 0.22130 0.78703 0.48126
 O1463 O 0.27044 0.75170 0.45723
 O1464 O 0.26866 0.72162 0.46335
 O1465 O 0.29230 0.77148 0.49837
 O1466 O 0.28704 0.76601 0.52788
 O1467 O 0.22946 0.70658 0.50114
 O1468 O 0.23068 0.71275 0.47222
 O1469 O 0.20612 0.74894 0.52044
 O1470 O 0.21280 0.77845 0.51791
 O1471 O 0.24844 0.72958 0.54351
 O1472 O 0.27782 0.73326 0.53702
 Zr1473 Zr 0.25858 0.73048 0.51990
 O1474 O 0.27422 0.74472 0.50530
 Zr1475 Zr 0.22976 0.75905 0.51975
 O1476 O 0.24445 0.77471 0.50562
 Zr1477 Zr 0.22995 0.73031 0.49111
 O1478 O 0.24422 0.74490 0.47546
 Zr1479 Zr 0.26923 0.76949 0.50940
 O1480 O 0.25458 0.75534 0.52530
 Zr1481 Zr 0.26902 0.74096 0.48051
 O1482 O 0.25475 0.72510 0.49504
 Zr1483 Zr 0.24048 0.76974 0.48079
 O1484 O 0.22446 0.75514 0.49492
 O1485 O 0.23386 0.73438 0.51579
 O1486 O 0.26524 0.76574 0.48457
 C1487 C 0.23763 0.69970 0.51266
 C1488 C 0.23725 0.73805 0.55051
 C1489 C 0.19921 0.73755 0.51214
 C1490 C 0.26329 0.79974 0.48758
 C1491 C 0.29909 0.76346 0.48675
 C1492 C 0.26253 0.76345 0.45054
 H1493 H 0.28570 0.74213 0.50796
 H1494 H 0.24148 0.74231 0.46400
 H1495 H 0.22689 0.72741 0.52276
 H1496 H 0.24203 0.78620 0.50841
 H1497 H 0.26453 0.78317 0.53738
 H1498 H 0.23690 0.78485 0.53636
 H1499 H 0.25942 0.72351 0.45582
 H1500 H 0.24139 0.70724 0.47306
 H1501 H 0.29476 0.77534 0.52743
 H1502 H 0.27683 0.72460 0.54543
 H1503 H 0.22225 0.76025 0.45672
 H1504 H 0.20715 0.74144 0.47260
 H1505 H 0.27645 0.70753 0.50776
 H1506 H 0.29338 0.72312 0.49005
 H1507 H 0.20636 0.77653 0.50787
 H1508 H 0.22342 0.79470 0.49034
 O1509 O 0.27129 0.29334 0.99914
 O1510 O 0.26902 0.28808 1.02701
 O1511 O 0.29364 0.25054 0.97945
 O1512 O 0.28879 0.22362 0.97893
 O1513 O 0.25093 0.27079 0.95653
 O1514 O 0.22250 0.26959 0.96253
 O1515 O 0.24929 0.20716 1.02149
 O1516 O 0.27701 0.21175 1.01833
 O1517 O 0.22902 0.24857 1.04268
 O1518 O 0.23010 0.27798 1.03705
 O1519 O 0.20743 0.22874 1.00118
 O1520 O 0.21307 0.22951 0.97205
 O1521 O 0.22962 0.20710 1.00183
 O1522 O 0.23128 0.21306 0.97156
 O1523 O 0.20728 0.24847 1.02071
 O1524 O 0.21348 0.27852 1.01896
 O1525 O 0.24838 0.22869 1.04263
 O1526 O 0.27789 0.23412 1.03737
 O1527 O 0.25133 0.29348 0.97973
 O1528 O 0.22236 0.28734 0.98103
 O1529 O 0.27054 0.25114 0.95645
 O1530 O 0.26793 0.22162 0.96309
 O1531 O 0.29358 0.27053 0.99877
 O1532 O 0.28710 0.26687 1.02816
 Zr1533 Zr 0.26998 0.26963 1.00892
 O1534 O 0.25535 0.25541 1.02454
 Zr1535 Zr 0.26980 0.24102 0.98008
 O1536 O 0.25564 0.22538 0.99476
 Zr1537 Zr 0.24122 0.26977 0.98027
 O1538 O 0.22554 0.25519 0.99452
 Zr1539 Zr 0.25941 0.23062 1.01955
 O1540 O 0.27534 0.24477 1.00492
 Zr1541 Zr 0.23058 0.25916 1.01933
 O1542 O 0.24514 0.27502 1.00507
 Zr1543 Zr 0.23083 0.23034 0.99078
 O1544 O 0.24498 0.24493 0.97477
 O1545 O 0.26587 0.26568 0.98420
 O1546 O 0.23459 0.23437 1.01555
 C1547 C 0.26291 0.30034 0.98786
 C1548 C 0.30055 0.26210 0.98754
 C1549 C 0.26229 0.26255 0.94955
 C1550 C 0.23760 0.20034 1.01354
 C1551 C 0.23679 0.23675 1.04942
 C1552 C 0.20056 0.23673 1.01277
 H1553 H 0.25802 0.25801 1.03602
 H1554 H 0.21409 0.25778 0.99177
 H1555 H 0.27286 0.27264 0.97723
 H1556 H 0.25841 0.21389 0.99233
 H1557 H 0.28735 0.21694 1.01483
 H1558 H 0.28633 0.21520 0.98720
 H1559 H 0.20598 0.27665 1.00969
 H1560 H 0.22328 0.29293 0.99171
 H1561 H 0.27742 0.22481 1.04509
 H1562 H 0.29550 0.27556 1.02718
 H1563 H 0.20685 0.23984 0.97247
 H1564 H 0.22273 0.25863 0.95742
 H1565 H 0.25787 0.29268 1.02670
 H1566 H 0.24017 0.27709 1.04364
 H1567 H 0.25791 0.22355 0.95663
 H1568 H 0.24036 0.20539 0.97368
 C1569 C 0.28334 0.38808 0.78286
 N1570 N 0.27603 0.38059 0.79569
 N1571 N 0.28167 0.36642 0.80133
 C1572 C 0.29486 0.35917 0.79438
 N1573 N 0.30209 0.36666 0.78147
 N1574 N 0.29645 0.38083 0.77582
 C1575 C 0.27754 0.40402 0.77709
 N1576 N 0.28515 0.41176 0.76457
 N1577 N 0.28027 0.42651 0.75975
 C1578 C 0.26761 0.43407 0.76728
 N1579 N 0.25994 0.42629 0.77974
 N1580 N 0.26481 0.41154 0.78455
 C1581 C 0.28390 -0.11183 0.28340
 N1582 N 0.29676 -0.11934 0.27620
 N1583 N 0.30234 -0.13349 0.28194
 C1584 C 0.29533 -0.14073 0.29513
 N1585 N 0.28236 -0.13319 0.30222
 N1586 N 0.27677 -0.11904 0.29649
 C1587 C 0.27814 -0.09591 0.27750
 N1588 N 0.26553 -0.08824 0.28500
 N1589 N 0.26067 -0.07353 0.28005
 C1590 C 0.26823 -0.06595 0.26741
 N1591 N 0.28080 -0.07365 0.25985
 N1592 N 0.28566 -0.08836 0.26481
 C1593 C 0.78373 0.88802 0.78305
 N1594 N 0.77636 0.88050 0.79581
 N1595 N 0.78198 0.86633 0.80145
 C1596 C 0.79523 0.85908 0.79458
 N1597 N 0.80249 0.86663 0.78170
 N1598 N 0.79686 0.88080 0.77605
 C1599 C 0.77795 0.90399 0.77729
 N1600 N 0.78563 0.91175 0.76482
 N1601 N 0.78078 0.92651 0.76002
 C1602 C 0.76808 0.93405 0.76750
 N1603 N 0.76036 0.92625 0.77991
 N1604 N 0.76520 0.91149 0.78471
 C1605 C 0.46784 0.86402 0.28173
 N1606 N 0.45473 0.87129 0.27471
 N1607 N 0.44902 0.88537 0.28049
 C1608 C 0.45618 0.89275 0.29352
 N1609 N 0.46939 0.88550 0.30042
 N1610 N 0.47511 0.87141 0.29465
 C1611 C 0.47354 0.84803 0.27598
 N1612 N 0.48619 0.84042 0.28348
 N1613 N 0.49079 0.82553 0.27886
 C1614 C 0.48291 0.81769 0.26656
 N1615 N 0.47035 0.82536 0.25896
 N1616 N 0.46575 0.84026 0.26358
 C1617 C -0.03443 0.86186 0.78402
 N1618 N -0.04747 0.86924 0.77701
 N1619 N -0.05323 0.88324 0.78296
 C1620 C -0.04622 0.89044 0.79618
 N1621 N -0.03306 0.88303 0.80307
 N1622 N -0.02730 0.86904 0.79713
 C1623 C -0.02850 0.84608 0.77792
 N1624 N -0.01577 0.83847 0.78529
 N1625 N -0.01080 0.82385 0.78020
 C1626 C -0.01837 0.81629 0.76753
 N1627 N -0.03104 0.82394 0.76009
 N1628 N -0.03601 0.83857 0.76518
 C1629 C -0.03269 -0.11248 -0.03325
 N1630 N -0.02546 -0.11977 -0.04624
 N1631 N -0.03103 -0.13397 -0.05192
 C1632 C -0.04405 -0.14144 -0.04486
 N1633 N -0.05118 -0.13414 -0.03179
 N1634 N -0.04562 -0.11995 -0.02610
 C1635 C -0.02698 -0.09649 -0.02744
 N1636 N -0.03462 -0.08887 -0.01487
 N1637 N -0.02984 -0.07408 -0.01002
 C1638 C -0.01725 -0.06638 -0.01756
 N1639 N -0.00956 -0.07405 -0.03006
 N1640 N -0.01433 -0.08883 -0.03491
 C1641 C -0.03355 0.38788 0.46636
 N1642 N -0.04635 0.38033 0.47365
 N1643 N -0.05194 0.36614 0.46797
 C1644 C -0.04499 0.35890 0.45475
 N1645 N -0.03207 0.36648 0.44758
 N1646 N -0.02647 0.38067 0.45326
 C1647 C -0.02781 0.40385 0.47219
 N1648 N -0.01522 0.41155 0.46465
 N1649 N -0.01041 0.42631 0.46952
 C1650 C -0.01800 0.43393 0.48212
 N1651 N -0.03054 0.42619 0.48972
 N1652 N -0.03535 0.41143 0.48485
 C1653 C 0.46606 -0.11165 0.46690
 N1654 N 0.45293 -0.11893 0.47388
 N1655 N 0.44730 -0.13309 0.46818
 C1656 C 0.45454 -0.14058 0.45525
 N1657 N 0.46778 -0.13327 0.44840
 N1658 N 0.47341 -0.11911 0.45409
 C1659 C 0.47186 -0.09570 0.47274
 N1660 N 0.48458 -0.08813 0.46532
 N1661 N 0.48945 -0.07338 0.47020
 C1662 C 0.48177 -0.06568 0.48269
 N1663 N 0.46910 -0.07330 0.49017
 N1664 N 0.46424 -0.08804 0.48529
 C1665 C 0.46643 0.38769 -0.03343
 N1666 N 0.45357 0.38018 -0.02619
 N1667 N 0.44799 0.36599 -0.03187
 C1668 C 0.45499 0.35871 -0.04504
 N1669 N 0.46795 0.36624 -0.05216
 N1670 N 0.47355 0.38043 -0.04649
 C1671 C 0.47218 0.40366 -0.02760
 N1672 N 0.48480 0.41132 -0.03512
 N1673 N 0.48963 0.42608 -0.03025
 C1674 C 0.48203 0.43372 -0.01768
 N1675 N 0.46946 0.42602 -0.01010
 N1676 N 0.46463 0.41126 -0.01497
 C1677 C 0.78272 0.36370 0.46844
 N1678 N 0.79588 0.37100 0.47537
 N1679 N 0.80157 0.38508 0.46954
 C1680 C 0.79436 0.39242 0.45653
 N1681 N 0.78110 0.38513 0.44971
 N1682 N 0.77540 0.37105 0.45554
 C1683 C 0.77701 0.34773 0.47426
 N1684 N 0.76429 0.34012 0.46685
 N1685 N 0.75966 0.32524 0.47153
 C1686 C 0.76756 0.31743 0.48382
 N1687 N 0.78019 0.32511 0.49134
 N1688 N 0.78483 0.33999 0.48665
 C1689 C 0.78366 0.86353 -0.03250
 N1690 N 0.77650 0.87086 -0.04549
 N1691 N 0.78238 0.88483 -0.05139
 C1692 C 0.79569 0.89206 -0.04457
 N1693 N 0.80271 0.88473 -0.03144
 N1694 N 0.79684 0.87075 -0.02553
 C1695 C 0.77773 0.84766 -0.02658
 N1696 N 0.78540 0.83992 -0.01411
 N1697 N 0.78058 0.82512 -0.00934
 C1698 C 0.76789 0.81754 -0.01686
 N1699 N 0.76013 0.82535 -0.02924
 N1700 N 0.76495 0.84014 -0.03400
 C1701 C 0.78214 0.28249 0.38684
 N1702 N 0.79507 0.27522 0.37950
 N1703 N 0.80086 0.28093 0.36543
 C1704 C 0.79398 0.29414 0.35813
 N1705 N 0.78094 0.30130 0.36546
 N1706 N 0.77514 0.29559 0.37953
 C1707 C 0.77634 0.27675 0.40279
 N1708 N 0.76390 0.28447 0.41051
 N1709 N 0.75923 0.27982 0.42537
 C1710 C 0.76683 0.26726 0.43305
 N1711 N 0.77919 0.25945 0.42527
 N1712 N 0.78385 0.26410 0.41041
 C1713 C 0.78191 0.78273 -0.11372
 N1714 N 0.77487 0.79584 -0.12100
 N1715 N 0.78066 0.80161 -0.13504
 C1716 C 0.79373 0.79452 -0.14237
 N1717 N 0.80065 0.78131 -0.13512
 N1718 N 0.79486 0.77553 -0.12108
 C1719 C 0.77613 0.77695 -0.09778
 N1720 N 0.78367 0.76431 -0.09018
 N1721 N 0.77903 0.75963 -0.07532
 C1722 C 0.76668 0.76742 -0.06752
 N1723 N 0.75904 0.77997 -0.07518
 N1724 N 0.76368 0.78464 -0.09004
 C1725 C 0.28389 0.46626 0.86142
 N1726 N 0.29697 0.47342 0.86864
 N1727 N 0.30264 0.46786 0.88282
 C1728 C 0.29547 0.45493 0.89036
 N1729 N 0.28231 0.44786 0.88314
 N1730 N 0.27663 0.45341 0.86895
 C1731 C 0.27803 0.47200 0.84549
 N1732 N 0.26526 0.46454 0.83800
 N1733 N 0.26031 0.46940 0.82330
 C1734 C 0.26795 0.48191 0.81555
 N1735 N 0.28066 0.48942 0.82308
 N1736 N 0.28561 0.48456 0.83778
 C1737 C 0.28387 -0.03358 0.36157
 N1738 N 0.29692 -0.02638 0.36880
 N1739 N 0.30277 -0.03208 0.38285
 C1740 C 0.29581 -0.04521 0.39024
 N1741 N 0.28267 -0.05232 0.38301
 N1742 N 0.27681 -0.04663 0.36896
 C1743 C 0.27786 -0.02774 0.34573
 N1744 N 0.26520 -0.03535 0.33819
 N1745 N 0.26019 -0.03047 0.32351
 C1746 C 0.26764 -0.01779 0.31585
 N1747 N 0.28022 -0.01012 0.32344
 N1748 N 0.28524 -0.01500 0.33811
 C1749 C -0.03392 -0.03494 -0.11130
 N1750 N -0.02690 -0.04801 -0.11865
 N1751 N -0.03275 -0.05375 -0.13269
 C1752 C -0.04589 -0.04669 -0.13998
 N1753 N -0.05279 -0.03351 -0.13261
 N1754 N -0.04695 -0.02777 -0.11857
 C1755 C -0.02791 -0.02898 -0.09550
 N1756 N -0.03535 -0.01626 -0.08793
 N1757 N -0.03031 -0.01123 -0.07331
 C1758 C -0.01763 -0.01871 -0.06573
 N1759 N -0.01012 -0.03137 -0.07334
 N1760 N -0.01517 -0.03641 -0.08796
 C1761 C -0.03425 0.46551 0.38835
 N1762 N -0.04731 0.47260 0.38106
 N1763 N -0.05305 0.46683 0.36698
 C1764 C -0.04601 0.45373 0.35960
 N1765 N -0.03284 0.44677 0.36691
 N1766 N -0.02708 0.45253 0.38099
 C1767 C -0.02834 0.47146 0.40419
 N1768 N -0.01558 0.46408 0.41174
 N1769 N -0.01062 0.46909 0.42639
 C1770 C -0.01824 0.48167 0.43403
 N1771 N -0.03094 0.48910 0.42644
 N1772 N -0.03590 0.48409 0.41179
 C1773 C 0.46700 -0.03269 0.38785
 N1774 N 0.45403 -0.02546 0.38055
 N1775 N 0.44840 -0.03099 0.36633
 C1776 C 0.45551 -0.04396 0.35883
 N1777 N 0.46858 -0.05109 0.36613
 N1778 N 0.47421 -0.04558 0.38035
 C1779 C 0.47276 -0.02704 0.40385
 N1780 N 0.48533 -0.03468 0.41147
 N1781 N 0.49014 -0.02995 0.42627
 C1782 C 0.48257 -0.01739 0.43398
 N1783 N 0.47006 -0.00970 0.42631
 N1784 N 0.46525 -0.01443 0.41152
 C1785 C 0.46611 0.46590 -0.11175
 N1786 N 0.45312 0.47311 -0.11905
 N1787 N 0.44742 0.46749 -0.13320
 C1788 C 0.45447 0.45444 -0.14062
 N1789 N 0.46754 0.44732 -0.13332
 N1790 N 0.47325 0.45294 -0.11916
 C1791 C 0.47195 0.47168 -0.09582
 N1792 N 0.48463 0.46418 -0.08826
 N1793 N 0.48954 0.46906 -0.07354
 C1794 C 0.48194 0.48162 -0.06586
 N1795 N 0.46932 0.48917 -0.07346
 N1796 N 0.46441 0.48429 -0.08817
 C1797 C 0.46799 0.78307 0.36351
 N1798 N 0.45501 0.77586 0.37084
 N1799 N 0.44918 0.78166 0.38485
 C1800 C 0.45608 0.79490 0.39211
 N1801 N 0.46917 0.80200 0.38480
 N1802 N 0.47501 0.79621 0.37079
 C1803 C 0.47383 0.77725 0.34761
 N1804 N 0.48633 0.78492 0.33990
 N1805 N 0.49102 0.78020 0.32507
 C1806 C 0.48339 0.76761 0.31741
 N1807 N 0.47099 0.75985 0.32519
 N1808 N 0.46630 0.76457 0.34001
 C1809 C -0.03305 0.78365 0.86201
 N1810 N -0.02596 0.79671 0.86935
 N1811 N -0.03158 0.80226 0.88356
 C1812 C -0.04452 0.79501 0.89102
 N1813 N -0.05147 0.78184 0.88365
 N1814 N -0.04587 0.77628 0.86945
 C1815 C -0.02730 0.77794 0.84603
 N1816 N -0.03477 0.76524 0.83843
 N1817 N -0.02997 0.76045 0.82366
 C1818 C -0.01751 0.76818 0.81595
 N1819 N -0.00997 0.78083 0.82358
 N1820 N -0.01478 0.78562 0.83835
 C1821 C 0.38664 0.78247 0.28244
 N1822 N 0.37928 0.77539 0.29547
 N1823 N 0.36526 0.78126 0.30123
 C1824 C 0.35805 0.79444 0.29419
 N1825 N 0.36540 0.80140 0.28106
 N1826 N 0.37941 0.79554 0.27530
 C1827 C 0.40254 0.77660 0.27665
 N1828 N 0.41024 0.78421 0.26411
 N1829 N 0.42506 0.77949 0.25944
 C1830 C 0.43273 0.76697 0.26711
 N1831 N 0.42497 0.75926 0.27955
 N1832 N 0.41015 0.76398 0.28424
 C1833 C -0.11178 0.78407 0.78341
 N1834 N -0.11903 0.79712 0.77625
 N1835 N -0.13326 0.80272 0.78175
 C1836 C -0.14080 0.79549 0.79463
 N1837 N -0.13355 0.78236 0.80170
 N1838 N -0.11932 0.77676 0.79621
 C1839 C -0.09580 0.77831 0.77774
 N1840 N -0.08829 0.76558 0.78522
 N1841 N -0.07354 0.76072 0.78042
 C1842 C -0.06578 0.76842 0.76797
 N1843 N -0.07334 0.78110 0.76045
 N1844 N -0.08808 0.78596 0.76524
 C1845 C 0.86369 0.28204 0.46796
 N1846 N 0.87098 0.29512 0.47506
 N1847 N 0.88498 0.30097 0.46924
 C1848 C 0.89226 0.29399 0.45609
 N1849 N 0.88499 0.28079 0.44910
 N1850 N 0.87099 0.27494 0.45491
 C1851 C 0.84778 0.27620 0.47378
 N1852 N 0.84012 0.26358 0.46622
 N1853 N 0.82528 0.25889 0.47092
 C1854 C 0.81756 0.26664 0.48336
 N1855 N 0.82529 0.27917 0.49101
 N1856 N 0.84013 0.28385 0.48631
 C1857 C 0.86380 0.78162 -0.03264
 N1858 N 0.87121 0.79458 -0.02545
 N1859 N 0.88528 0.80033 -0.03122
 C1860 C 0.89249 0.79338 -0.04442
 N1861 N 0.88510 0.78031 -0.05151
 N1862 N 0.87103 0.77455 -0.04575
 C1863 C 0.84784 0.77590 -0.02684
 N1864 N 0.84007 0.76337 -0.03444
 N1865 N 0.82519 0.75878 -0.02974
 C1866 C 0.81755 0.76655 -0.01727
 N1867 N 0.82539 0.77899 -0.00958
 N1868 N 0.84026 0.78357 -0.01428
 C1869 C -0.11124 -0.03370 -0.03432
 N1870 N -0.11865 -0.04658 -0.02700
 N1871 N -0.13279 -0.05230 -0.03264
 C1872 C -0.14011 -0.04542 -0.04585
 N1873 N -0.13266 -0.03242 -0.05306
 N1874 N -0.11853 -0.02669 -0.04742
 C1875 C -0.09533 -0.02781 -0.02849
 N1876 N -0.08769 -0.01520 -0.03609
 N1877 N -0.07300 -0.01026 -0.03118
 C1878 C -0.06540 -0.01773 -0.01850
 N1879 N -0.07308 -0.03028 -0.01085
 N1880 N -0.08778 -0.03522 -0.01575
 C1881 C -0.11220 0.46716 0.46600
 N1882 N -0.11952 0.47420 0.45293
 N1883 N -0.13373 0.46855 0.44739
 C1884 C -0.14122 0.45563 0.45467
 N1885 N -0.13387 0.44872 0.46785
 N1886 N -0.11966 0.45435 0.47339
 C1887 C -0.09621 0.47292 0.47170
 N1888 N -0.08863 0.46545 0.48439
 N1889 N -0.07386 0.47027 0.48919
 C1890 C -0.06612 0.48274 0.48148
 N1891 N -0.07375 0.49027 0.46884
 N1892 N -0.08852 0.48545 0.46404
 C1893 C 0.38873 -0.03384 0.46551
 N1894 N 0.38139 -0.04685 0.47266
 N1895 N 0.36730 -0.05259 0.46692
 C1896 C 0.35996 -0.04559 0.45378
 N1897 N 0.36733 -0.03246 0.44674
 N1898 N 0.38143 -0.02671 0.45248
 C1899 C 0.40459 -0.02793 0.47145
 N1900 N 0.41216 -0.01518 0.46406
 N1901 N 0.42681 -0.01021 0.46908
 C1902 C 0.43442 -0.01781 0.48168
 N1903 N 0.42680 -0.03051 0.48913
 N1904 N 0.41215 -0.03547 0.48411
 C1905 C 0.38813 0.46665 -0.03425
 N1906 N 0.38066 0.45383 -0.02689
 N1907 N 0.36652 0.44813 -0.03254
 C1908 C 0.35924 0.45500 -0.04579
 N1909 N 0.36674 0.46794 -0.05303
 N1910 N 0.38089 0.47364 -0.04739
 C1911 C 0.40406 0.47250 -0.02844
 N1912 N 0.41174 0.48506 -0.03605
 N1913 N 0.42646 0.48995 -0.03116
 C1914 C 0.43403 0.48246 -0.01847
 N1915 N 0.42630 0.46996 -0.01080
 N1916 N 0.41159 0.46507 -0.01569
 C1917 C 0.36145 0.46676 0.78357
 N1918 N 0.36871 0.45376 0.77633
 N1919 N 0.38280 0.44797 0.78198
 C1920 C 0.39020 0.45495 0.79509
 N1921 N 0.38294 0.46804 0.80224
 N1922 N 0.36885 0.47383 0.79660
 C1923 C 0.34557 0.47269 0.77779
 N1924 N 0.33803 0.48534 0.78539
 N1925 N 0.32332 0.49029 0.78055
 C1926 C 0.31562 0.48278 0.76794
 N1927 N 0.32321 0.47020 0.76028
 N1928 N 0.33792 0.46525 0.76511
 C1929 C 0.36176 -0.03293 0.28357
 N1930 N 0.36923 -0.04579 0.27629
 N1931 N 0.38349 -0.05126 0.28182
 C1932 C 0.39086 -0.04411 0.29486
 N1933 N 0.38338 -0.03117 0.30206
 N1934 N 0.36912 -0.02569 0.29653
 C1935 C 0.34574 -0.02731 0.27786
 N1936 N 0.33808 -0.01469 0.28536
 N1937 N 0.32330 -0.00996 0.28053
 C1938 C 0.31565 -0.01768 0.26801
 N1939 N 0.32335 -0.03026 0.26046
 N1940 N 0.33813 -0.03499 0.26530
 C1941 C 0.13565 0.53176 0.71888
 N1942 N 0.12817 0.52432 0.70611
 N1943 N 0.11389 0.52977 0.70058
 C1944 C 0.10653 0.54288 0.70758
 N1945 N 0.11401 0.55021 0.72046
 N1946 N 0.12828 0.54478 0.72599
 C1947 C 0.15180 0.52630 0.72441
 N1948 N 0.15963 0.53421 0.73669
 N1949 N 0.17461 0.52976 0.74116
 C1950 C 0.18230 0.51724 0.73351
 N1951 N 0.17441 0.50925 0.72131
 N1952 N 0.15944 0.51370 0.71684
 C1953 C 0.13561 0.03114 0.21871
 N1954 N 0.12816 0.04407 0.22589
 N1955 N 0.11390 0.04951 0.22032
 C1956 C 0.10651 0.04227 0.20735
 N1957 N 0.11395 0.02924 0.20028
 N1958 N 0.12820 0.02378 0.20584
 C1959 C 0.15174 0.02568 0.22427
 N1960 N 0.15946 0.01317 0.21662
 N1961 N 0.17443 0.00874 0.22112
 C1962 C 0.18224 0.01664 0.23342
 N1963 N 0.17446 0.02907 0.24115
 N1964 N 0.15949 0.03350 0.23666
 C1965 C 0.61204 0.71700 0.21693
 N1966 N 0.61948 0.70408 0.22412
 N1967 N 0.63367 0.69853 0.21846
 C1968 C 0.64097 0.70567 0.20539
 N1969 N 0.63352 0.71868 0.19830
 N1970 N 0.61934 0.72424 0.20395
 C1971 C 0.59608 0.72270 0.22272
 N1972 N 0.58845 0.73535 0.21522
 N1973 N 0.57370 0.74013 0.22005
 C1974 C 0.56602 0.73245 0.23256
 N1975 N 0.57369 0.71986 0.24013
 N1976 N 0.58845 0.71508 0.23530
 C1977 C 0.11408 0.71886 0.71885
 N1978 N 0.12149 0.70591 0.72604
 N1979 N 0.13576 0.70046 0.72052
 C1980 C 0.14320 0.70772 0.70759
 N1981 N 0.13580 0.72077 0.70052
 N1982 N 0.12153 0.72623 0.70603
 C1983 C 0.09794 0.72433 0.72436
 N1984 N 0.09026 0.73686 0.71671
 N1985 N 0.07529 0.74132 0.72117
 C1986 C 0.06745 0.73342 0.73345
 N1987 N 0.07518 0.72098 0.74119
 N1988 N 0.09016 0.71652 0.73673
 C1989 C 0.63757 0.21770 0.53263
 N1990 N 0.63007 0.20483 0.52535
 N1991 N 0.61569 0.19950 0.53074
 C1992 C 0.60823 0.20682 0.54361
 N1993 N 0.61573 0.21977 0.55080
 N1994 N 0.63011 0.22511 0.54542
 C1995 C 0.65372 0.22315 0.52713
 N1996 N 0.66142 0.23571 0.53475
 N1997 N 0.67632 0.24030 0.53014
 C1998 C 0.68406 0.23251 0.51774
 N1999 N 0.67633 0.22000 0.51008
 N2000 N 0.66143 0.21540 0.51469
 C2001 C 0.63808 0.71710 0.03314
 N2002 N 0.63078 0.72428 0.04615
 N2003 N 0.61660 0.71867 0.05179
 C2004 C 0.60914 0.70567 0.04465
 N2005 N 0.61644 0.69858 0.03156
 N2006 N 0.63062 0.70418 0.02591
 C2007 C 0.65404 0.72284 0.02736
 N2008 N 0.66163 0.71527 0.01474
 N2009 N 0.67639 0.72008 0.00991
 C2010 C 0.68409 0.73265 0.01751
 N2011 N 0.67645 0.74028 0.03007
 N2012 N 0.66170 0.73547 0.03490
 C2013 C 0.11398 0.03229 0.03214
 N2014 N 0.12129 0.04542 0.02518
 N2015 N 0.13540 0.05107 0.03095
 C2016 C 0.14280 0.04386 0.04394
 N2017 N 0.13549 0.03059 0.05076
 N2018 N 0.12137 0.02493 0.04499
 C2019 C 0.09799 0.02660 0.02636
 N2020 N 0.09037 0.01390 0.03380
 N2021 N 0.07550 0.00927 0.02911
 C2022 C 0.06770 0.01717 0.01681
 N2023 N 0.07539 0.02979 0.00928
 N2024 N 0.09026 0.03441 0.01396
 C2025 C 0.11398 0.53151 0.53074
 N2026 N 0.12140 0.54448 0.52358
 N2027 N 0.13572 0.54989 0.52907
 C2028 C 0.14319 0.54256 0.54193
 N2029 N 0.13577 0.52949 0.54897
 N2030 N 0.12146 0.52407 0.54349
 C2031 C 0.09779 0.52610 0.52527
 N2032 N 0.09009 0.51354 0.53286
 N2033 N 0.07508 0.50914 0.52844
 C2034 C 0.06721 0.51713 0.51625
 N2035 N 0.07496 0.52962 0.50857
 N2036 N 0.08997 0.53402 0.51299
 C2037 C 0.61408 0.03246 0.53136
 N2038 N 0.62157 0.02508 0.54414
 N2039 N 0.63575 0.03071 0.54978
 C2040 C 0.64300 0.04394 0.54288
 N2041 N 0.63552 0.05122 0.52999
 N2042 N 0.62134 0.04560 0.52434
 C2043 C 0.59802 0.02681 0.52574
 N2044 N 0.59021 0.03459 0.51338
 N2045 N 0.57528 0.03000 0.50884
 C2046 C 0.56762 0.01745 0.51651
 N2047 N 0.57549 0.00959 0.52878
 N2048 N 0.59041 0.01418 0.53331
 C2049 C 0.61372 0.53205 0.03145
 N2050 N 0.62099 0.54518 0.02442
 N2051 N 0.63516 0.55080 0.03006
 C2052 C 0.64264 0.54354 0.04295
 N2053 N 0.63539 0.53031 0.04987
 N2054 N 0.62121 0.52468 0.04424
 C2055 C 0.59767 0.52640 0.02581
 N2056 N 0.59006 0.51374 0.03333
 N2057 N 0.57514 0.50915 0.02878
 C2058 C 0.56728 0.51705 0.01652
 N2059 N 0.57494 0.52963 0.00891
 N2060 N 0.58986 0.53422 0.01347
 C2061 C 0.03182 0.03110 0.11416
 N2062 N 0.02449 0.04396 0.12156
 N2063 N 0.02994 0.04952 0.13584
 C2064 C 0.04297 0.04247 0.14331
 N2065 N 0.05016 0.02947 0.13590
 N2066 N 0.04471 0.02390 0.12163
 C2067 C 0.02635 0.02553 0.09802
 N2068 N 0.03413 0.01312 0.09029
 N2069 N 0.02969 0.00861 0.07530
 C2070 C 0.01729 0.01635 0.06751
 N2071 N 0.00942 0.02868 0.07530
 N2072 N 0.01387 0.03318 0.09027
 C2073 C 0.03132 0.53115 0.61396
 N2074 N 0.02395 0.54398 0.62140
 N2075 N 0.02940 0.54952 0.63568
 C2076 C 0.04244 0.54247 0.64310
 N2077 N 0.04969 0.52953 0.63569
 N2078 N 0.04425 0.52398 0.62140
 C2079 C 0.02585 0.52561 0.59781
 N2080 N 0.03366 0.51324 0.59004
 N2081 N 0.02921 0.50876 0.57505
 C2082 C 0.01678 0.51649 0.56729
 N2083 N 0.00890 0.52878 0.57512
 N2084 N 0.01335 0.53326 0.59010
 C2085 C 0.53212 0.03146 0.61402
 N2086 N 0.52486 0.04435 0.62144
 N2087 N 0.53041 0.04992 0.63567
 C2088 C 0.54347 0.04286 0.64309
 N2089 N 0.55060 0.02984 0.63565
 N2090 N 0.54505 0.02426 0.62142
 C2091 C 0.52653 0.02590 0.59791
 N2092 N 0.53417 0.01339 0.59017
 N2093 N 0.52961 0.00890 0.57522
 C2094 C 0.51725 0.01673 0.56746
 N2095 N 0.50953 0.02915 0.57526
 N2096 N 0.51409 0.03364 0.59021
 C2097 C 0.53173 0.53149 0.11386
 N2098 N 0.52447 0.54446 0.12116
 N2099 N 0.53002 0.55017 0.13533
 C2100 C 0.54306 0.54315 0.14278
 N2101 N 0.55021 0.53007 0.13550
 N2102 N 0.54466 0.52436 0.12132
 C2103 C 0.52616 0.52579 0.09780
 N2104 N 0.53391 0.51333 0.09011
 N2105 N 0.52939 0.50873 0.07518
 C2106 C 0.51695 0.51641 0.06740
 N2107 N 0.50912 0.52878 0.07515
 N2108 N 0.51364 0.53338 0.09008
 C2109 C 0.21824 0.53107 0.63563
 N2110 N 0.22566 0.54388 0.62818
 N2111 N 0.22027 0.54936 0.61386
 C2112 C 0.20724 0.54228 0.60642
 N2113 N 0.19994 0.52936 0.61385
 N2114 N 0.20532 0.52387 0.62817
 C2115 C 0.22365 0.52559 0.65181
 N2116 N 0.21579 0.51324 0.65959
 N2117 N 0.22020 0.50881 0.67460
 C2118 C 0.23262 0.51658 0.68237
 N2119 N 0.24055 0.52884 0.67453
 N2120 N 0.23615 0.53327 0.65953
 C2121 C 0.21751 0.03155 0.13619
 N2122 N 0.22466 0.04464 0.12897
 N2123 N 0.21900 0.05041 0.11488
 C2124 C 0.20595 0.04338 0.10740
 N2125 N 0.19895 0.03015 0.11462
 N2126 N 0.20459 0.02437 0.12872
 C2127 C 0.22320 0.02578 0.15218
 N2128 N 0.21559 0.01318 0.15982
 N2129 N 0.22021 0.00854 0.17470
 C2130 C 0.23261 0.01633 0.18249
 N2131 N 0.24030 0.02884 0.17479
 N2132 N 0.23568 0.03347 0.15991
 C2133 C 0.71688 0.21676 0.61247
 N2134 N 0.72416 0.20385 0.61985
 N2135 N 0.71874 0.19837 0.63416
 C2136 C 0.70583 0.20556 0.64167
 N2137 N 0.69864 0.21855 0.63427
 N2138 N 0.70405 0.22404 0.61996
 C2139 C 0.72247 0.22240 0.59641
 N2140 N 0.71494 0.23505 0.58881
 N2141 N 0.71968 0.23983 0.57401
 C2142 C 0.73214 0.23212 0.56627
 N2143 N 0.73971 0.21952 0.57391
 N2144 N 0.73496 0.21475 0.58870
 C2145 C 0.71627 0.71694 0.11173
 N2146 N 0.72350 0.70404 0.11917
 N2147 N 0.71793 0.69851 0.13340
 C2148 C 0.70491 0.70564 0.14076
 N2149 N 0.69776 0.71862 0.13331
 N2150 N 0.70332 0.72417 0.11908
 C2151 C 0.72202 0.72264 0.09574
 N2152 N 0.71457 0.73532 0.08811
 N2153 N 0.71945 0.74012 0.07337
 C2154 C 0.73195 0.73242 0.06571
 N2155 N 0.73945 0.71979 0.07338
 N2156 N 0.73458 0.71499 0.08813
 C2157 C 0.53384 0.71678 0.13827
 N2158 N 0.54680 0.72401 0.13092
 N2159 N 0.55235 0.71848 0.11668
 C2160 C 0.54517 0.70549 0.10923
 N2161 N 0.53214 0.69835 0.11659
 N2162 N 0.52658 0.70388 0.13082
 C2163 C 0.52811 0.72247 0.15426
 N2164 N 0.51553 0.71483 0.16187
 N2165 N 0.51067 0.71964 0.17662
 C2166 C 0.51821 0.73226 0.18429
 N2167 N 0.53074 0.73995 0.17664
 N2168 N 0.53560 0.73514 0.16190
 C2169 C 0.03131 0.71937 0.63577
 N2170 N 0.04420 0.72660 0.62829
 N2171 N 0.04962 0.72104 0.61402
 C2172 C 0.04240 0.70803 0.60665
 N2173 N 0.02941 0.70092 0.61411
 N2174 N 0.02398 0.70647 0.62839
 C2175 C 0.02586 0.72492 0.65191
 N2176 N 0.01345 0.71718 0.65968
 N2177 N 0.00902 0.72165 0.67466
 C2178 C 0.01683 0.73405 0.68243
 N2179 N 0.02917 0.74189 0.67461
 N2180 N 0.03360 0.73740 0.65963
 C2181 C 0.53242 0.63786 0.21694
 N2182 N 0.52521 0.63036 0.20404
 N2183 N 0.53071 0.61604 0.19866
 C2184 C 0.54363 0.60863 0.20594
 N2185 N 0.55075 0.61613 0.21892
 N2186 N 0.54526 0.63046 0.22432
 C2187 C 0.52678 0.65395 0.22249
 N2188 N 0.53433 0.66165 0.23507
 N2189 N 0.52960 0.67649 0.23975
 C2190 C 0.51714 0.68418 0.23201
 N2191 N 0.50953 0.67645 0.21948
 N2192 N 0.51426 0.66160 0.21480
 C2193 C 0.03097 0.63627 0.71820
 N2194 N 0.02384 0.62886 0.70521
 N2195 N 0.02935 0.61455 0.69979
 C2196 C 0.04221 0.60709 0.70712
 N2197 N 0.04923 0.61449 0.72021
 N2198 N 0.04373 0.62880 0.72564
 C2199 C 0.02547 0.65244 0.72365
 N2200 N 0.03303 0.66012 0.73624
 N2201 N 0.02857 0.67511 0.74069
 C2202 C 0.01638 0.68299 0.73271
 N2203 N 0.00873 0.67526 0.72020
 N2204 N 0.01319 0.66026 0.71575
 C2205 C 0.03196 0.11375 0.03189
 N2206 N 0.04505 0.12100 0.02481
 N2207 N 0.05075 0.13516 0.03044
 C2208 C 0.04364 0.14267 0.04342
 N2209 N 0.03041 0.13542 0.05036
 N2210 N 0.02470 0.12125 0.04473
 C2211 C 0.02626 0.09770 0.02625
 N2212 N 0.01366 0.09005 0.03383
 N2213 N 0.00908 0.07511 0.02926
 C2214 C 0.01692 0.06728 0.01695
 N2215 N 0.02943 0.07499 0.00929
 N2216 N 0.03401 0.08992 0.01385
 C2217 C 0.03075 0.61429 0.53136
 N2218 N 0.04362 0.62172 0.52406
 N2219 N 0.04913 0.63602 0.52954
 C2220 C 0.04202 0.64346 0.54253
 N2221 N 0.02904 0.63604 0.54973
 N2222 N 0.02352 0.62173 0.54426
 C2223 C 0.02525 0.59812 0.52587
 N2224 N 0.01278 0.59036 0.53355
 N2225 N 0.00833 0.57535 0.52907
 C2226 C 0.01619 0.56755 0.51674
 N2227 N 0.02857 0.57537 0.50899
 N2228 N 0.03301 0.59037 0.51346
 C2229 C 0.53144 0.11445 0.53160
 N2230 N 0.52426 0.12191 0.54451
 N2231 N 0.52987 0.13617 0.55000
 C2232 C 0.54287 0.14353 0.54281
 N2233 N 0.54993 0.13609 0.52978
 N2234 N 0.54433 0.12183 0.52429
 C2235 C 0.52585 0.09831 0.52613
 N2236 N 0.53344 0.09059 0.51359
 N2237 N 0.52893 0.07559 0.50917
 C2238 C 0.51668 0.06776 0.51711
 N2239 N 0.50901 0.07553 0.52956
 N2240 N 0.51351 0.09053 0.53399
 C2241 C 0.53198 0.61351 0.03219
 N2242 N 0.52489 0.62088 0.04520
 N2243 N 0.53071 0.63495 0.05094
 C2244 C 0.54387 0.64221 0.04392
 N2245 N 0.55085 0.63486 0.03080
 N2246 N 0.54503 0.62079 0.02505
 C2247 C 0.52616 0.59754 0.02644
 N2248 N 0.53380 0.58982 0.01394
 N2249 N 0.52911 0.57495 0.00930
 C2250 C 0.51661 0.56724 0.01698
 N2251 N 0.50888 0.57502 0.02938
 N2252 N 0.51356 0.58991 0.03403
 C2253 C 0.71750 0.13770 0.53361
 N2254 N 0.72472 0.13019 0.54648
 N2255 N 0.71918 0.11587 0.55187
 C2256 C 0.70618 0.10846 0.54464
 N2257 N 0.69909 0.11600 0.53167
 N2258 N 0.70462 0.13032 0.52627
 C2259 C 0.72318 0.15379 0.52807
 N2260 N 0.71562 0.16149 0.51551
 N2261 N 0.72040 0.17633 0.51083
 C2262 C 0.73291 0.18401 0.51854
 N2263 N 0.74052 0.17626 0.53105
 N2264 N 0.73574 0.16143 0.53573
 C2265 C 0.71736 0.63797 0.03319
 N2266 N 0.72460 0.63048 0.04606
 N2267 N 0.71911 0.61615 0.05146
 C2268 C 0.70615 0.60873 0.04421
 N2269 N 0.69900 0.61622 0.03126
 N2270 N 0.70449 0.63055 0.02586
 C2271 C 0.72301 0.65406 0.02763
 N2272 N 0.71544 0.66176 0.01507
 N2273 N 0.72020 0.67659 0.01037
 C2274 C 0.73272 0.68428 0.01806
 N2275 N 0.74035 0.67655 0.03057
 N2276 N 0.73559 0.66171 0.03527
 C2277 C 0.21879 0.61439 0.71854
 N2278 N 0.22605 0.62186 0.70567
 N2279 N 0.22054 0.63616 0.70021
 C2280 C 0.20755 0.64355 0.70739
 N2281 N 0.20041 0.63608 0.72036
 N2282 N 0.20590 0.62179 0.72582
 C2283 C 0.22428 0.59822 0.72401
 N2284 N 0.21651 0.59044 0.73639
 N2285 N 0.22094 0.57544 0.74083
 C2286 C 0.23332 0.56766 0.73305
 N2287 N 0.24118 0.57550 0.72075
 N2288 N 0.23674 0.59050 0.71631
 C2289 C 0.21805 0.11364 0.21758
 N2290 N 0.20527 0.12112 0.22495
 N2291 N 0.19960 0.13528 0.21932
 C2292 C 0.20644 0.14255 0.20605
 N2293 N 0.21937 0.13507 0.19883
 N2294 N 0.22504 0.12091 0.20445
 C2295 C 0.22372 0.09761 0.22322
 N2296 N 0.23605 0.08981 0.21539
 N2297 N 0.24064 0.07490 0.21997
 C2298 C 0.23306 0.06723 0.23256
 N2299 N 0.22082 0.07508 0.24047
 N2300 N 0.21623 0.09000 0.23589
 C2301 C 0.71849 1.11391 0.71804
 N2302 N 0.72551 1.12121 0.70494
 N2303 N 0.71977 1.13532 0.69927
 C2304 C 0.70676 1.14274 0.70642
 N2305 N 0.69989 1.13544 0.71965
 N2306 N 0.70562 1.12132 0.72533
 C2307 C 0.72420 1.09790 0.72373
 N2308 N 0.71657 1.09020 0.73625
 N2309 N 0.72117 1.07530 0.74084
 C2310 C 0.73359 1.06755 0.73310
 N2311 N 0.74132 1.07531 0.72067
 N2312 N 0.73671 1.09022 0.71607
 C2313 C 0.71801 0.61366 0.21773
 N2314 N 0.72502 0.62095 0.20462
 N2315 N 0.71922 0.63502 0.19889
 C2316 C 0.70618 0.64236 0.20603
 N2317 N 0.69929 0.63509 0.21924
 N2318 N 0.70508 0.62102 0.22498
 C2319 C 0.72381 0.59770 0.22347
 N2320 N 0.71633 0.59008 0.23613
 N2321 N 0.72100 0.57521 0.24076
 C2322 C 0.73332 0.56741 0.23291
 N2323 N 0.74089 0.57510 0.22033
 N2324 N 0.73622 0.58997 0.21570
 C2325 C 0.53132 0.13578 0.71816
 N2326 N 0.54412 0.12831 0.72553
 N2327 N 0.54968 0.11408 0.71999
 C2328 C 0.54269 0.10673 0.70686
 N2329 N 0.52979 0.11419 0.69959
 N2330 N 0.52421 0.12843 0.70512
 C2331 C 0.52574 0.15189 0.72372
 N2332 N 0.51342 0.15969 0.71588
 N2333 N 0.50890 0.17465 0.72040
 C2334 C 0.51654 0.18235 0.73295
 N2335 N 0.52877 0.17449 0.74087
 N2336 N 0.53328 0.15953 0.73635
 C2337 C 1.03075 0.13542 0.21837
 N2338 N 1.02354 0.12800 0.20543
 N2339 N 1.02909 0.11374 0.19992
 C2340 C 1.04206 0.10633 0.20711
 N2341 N 1.04916 0.11374 0.22015
 N2342 N 1.04362 0.12800 0.22567
 C2343 C 1.02524 0.15156 0.22390
 N2344 N 1.03300 0.15930 0.23633
 N2345 N 1.02856 0.17429 0.24082
 C2346 C 1.01618 0.18209 0.23306
 N2347 N 1.00833 0.17429 0.22071
 N2348 N 1.01277 0.15930 0.21621
 C2349 C 0.21885 0.63600 0.53128
 N2350 N 0.22601 0.62858 0.54423
 N2351 N 0.22051 0.61425 0.54963
 C2352 C 0.20764 0.60677 0.54231
 N2353 N 0.20059 0.61417 0.52925
 N2354 N 0.20608 0.62850 0.52384
 C2355 C 0.22433 0.65220 0.52587
 N2356 N 0.21672 0.65989 0.51332
 N2357 N 0.22116 0.67491 0.50892
 C2358 C 0.23337 0.68280 0.51690
 N2359 N 0.24106 0.67505 0.52937
 N2360 N 0.23662 0.66003 0.53377
 C2361 C 0.21733 0.13751 1.03364
 N2362 N 0.22449 0.13007 1.04659
 N2363 N 0.21891 0.11579 1.05204
 C2364 C 0.20597 0.10837 1.04478
 N2365 N 0.19891 0.11581 1.03175
 N2366 N 0.20447 0.13009 1.02629
 C2367 C 0.22304 0.15356 1.02801
 N2368 N 0.21553 0.16120 1.01538
 N2369 N 0.22032 0.17601 1.01064
 C2370 C 0.23280 0.18373 1.01834
 N2371 N 0.24037 0.17605 1.03092
 N2372 N 0.23558 0.16124 1.03567
 C2373 C 0.21847 0.71922 0.61407
 N2374 N 0.22574 0.70632 0.62146
 N2375 N 0.22028 0.70081 0.63575
 C2376 C 0.20734 0.70797 0.64321
 N2377 N 0.20017 0.72099 0.63583
 N2378 N 0.20562 0.72650 0.62154
 C2379 C 0.22394 0.72473 0.59791
 N2380 N 0.21627 0.73723 0.59021
 N2381 N 0.22071 0.74169 0.57522
 C2382 C 0.23299 0.73381 0.56739
 N2383 N 0.24074 0.72139 0.57515
 N2384 N 0.23630 0.71693 0.59013
 C2385 C 0.21669 0.21663 1.11220
 N2386 N 0.22398 0.20373 1.11960
 N2387 N 0.21857 0.19826 1.13391
 C2388 C 0.20566 0.20547 1.14141
 N2389 N 0.19846 0.21845 1.13401
 N2390 N 0.20387 0.22392 1.11969
 C2391 C 0.22228 0.22225 1.09613
 N2392 N 0.21473 0.23487 1.08850
 N2393 N 0.21947 0.23962 1.07370
 C2394 C 0.23193 0.23191 1.06597
 N2395 N 0.23952 0.21933 1.07364
 N2396 N 0.23478 0.21459 1.08844
 C2397 C 0.71819 0.53162 0.13624
 N2398 N 0.70531 0.52439 0.12874
 N2399 N 0.69975 0.53008 0.11457
 C2400 C 0.70683 0.54324 0.10733
 N2401 N 0.71981 0.55036 0.11482
 N2402 N 0.72538 0.54467 0.12899
 C2403 C 0.72377 0.52594 0.15229
 N2404 N 0.73619 0.53366 0.16008
 N2405 N 0.74070 0.52909 0.17500
 C2406 C 0.73297 0.51660 0.18270
 N2407 N 0.72063 0.50878 0.17486
 N2408 N 0.71611 0.51336 0.15992
 C2409 C 0.71850 1.03183 0.63616
 N2410 N 0.72575 1.04483 0.62889
 N2411 N 0.72019 1.05055 0.61473
 C2412 C 0.70715 1.04350 0.60727
 N2413 N 0.70001 1.03039 0.61452
 N2414 N 0.70556 1.02467 0.62868
 C2415 C 0.72406 1.02611 0.65221
 N2416 N 0.71631 1.01362 0.65987
 N2417 N 0.72081 1.00902 0.67480
 C2418 C 0.73325 1.01673 0.68260
 N2419 N 0.74108 1.02913 0.67487
 N2420 N 0.73657 1.03374 0.65995
 C2421 C 0.53174 0.21913 0.63605
 N2422 N 0.54473 0.22635 0.62874
 N2423 N 0.55030 0.22084 0.61450
 C2424 C 0.54310 0.20789 0.60700
 N2425 N 0.53001 0.20079 0.61429
 N2426 N 0.52444 0.20629 0.62853
 C2427 C 0.52617 0.22459 0.65217
 N2428 N 0.51374 0.21677 0.65984
 N2429 N 0.50924 0.22115 0.67483
 C2430 C 0.51699 0.23352 0.68269
 N2431 N 0.52933 0.24143 0.67497
 N2432 N 0.53384 0.23705 0.65998
 C2433 C 1.03197 0.21807 0.13610
 N2434 N 1.04502 0.22517 0.12880
 N2435 N 1.05064 0.21952 0.11464
 C2436 C 1.04344 0.20653 0.10720
 N2437 N 1.03028 0.19954 0.11449
 N2438 N 1.02466 0.20519 0.12865
 C2439 C 1.02633 0.22372 0.15214
 N2440 N 1.01375 0.21611 0.15978
 N2441 N 1.00917 0.22067 0.17469
 C2442 C 1.01700 0.23302 0.18251
 N2443 N 1.02950 0.24072 0.17482
 N2444 N 1.03407 0.23616 0.15991
 C2445 C 0.61382 0.21765 0.71862
 N2446 N 0.62121 0.20467 0.72576
 N2447 N 0.63536 0.19906 0.72007
 C2448 C 0.64268 0.20621 0.70701
 N2449 N 0.63530 0.21929 0.69998
 N2450 N 0.62116 0.22490 0.70567
 C2451 C 0.59780 0.22329 0.72431
 N2452 N 0.59015 0.23586 0.71672
 N2453 N 0.57525 0.24045 0.72130
 C2454 C 0.56746 0.23263 0.73366
 N2455 N 0.57517 0.22014 0.74135
 N2456 N 0.59007 0.21556 0.73676
 C2457 C 1.11365 0.21754 0.21837
 N2458 N 1.12101 0.22484 0.20546
 N2459 N 1.13516 0.21926 0.19979
 C2460 C 1.14254 0.20616 0.20678
 N2461 N 1.13520 0.19897 0.21980
 N2462 N 1.12104 0.20454 0.22548
 C2463 C 1.09761 0.22313 0.22405
 N2464 N 1.08986 0.21530 0.23643
 N2465 N 1.07495 0.21984 0.24101
 C2466 C 1.06724 0.23237 0.23338
 N2467 N 1.07506 0.24028 0.22110
 N2468 N 1.08997 0.23574 0.21652
 C2469 C 0.13566 0.71874 0.53098
 N2470 N 0.12823 0.72613 0.54380
 N2471 N 0.11394 0.72069 0.54931
 C2472 C 0.10650 0.70764 0.54224
 N2473 N 0.11391 0.70036 0.52932
 N2474 N 0.12821 0.70579 0.52380
 C2475 C 0.15181 0.72419 0.52547
 N2476 N 0.15957 0.71637 0.51310
 N2477 N 0.17456 0.72081 0.50865
 C2478 C 0.18234 0.73325 0.51639
 N2479 N 0.17453 0.74115 0.52867
 N2480 N 0.15954 0.73671 0.53313
 C2481 C 0.13765 0.21667 1.03259
 N2482 N 0.13025 0.20371 1.02538
 N2483 N 0.11595 0.19825 1.03085
 C2484 C 0.10847 0.20553 1.04374
 N2485 N 0.11588 0.21858 1.05085
 N2486 N 0.13018 0.22404 1.04539
 C2487 C 0.15373 0.22229 1.02700
 N2488 N 0.16134 0.23494 1.03455
 N2489 N 0.17617 0.23968 1.02987
 C2490 C 0.18394 0.23194 1.01746
 N2491 N 0.17629 0.21934 1.00985
 N2492 N 0.16146 0.21460 1.01453
 C2493 C 0.63607 0.53215 0.21876
 N2494 N 0.62858 0.52478 0.20595
 N2495 N 0.61441 0.53039 0.20032
 C2496 C 0.60716 0.54360 0.20724
 N2497 N 0.61463 0.55087 0.22015
 N2498 N 0.62880 0.54526 0.22580
 C2499 C 0.65211 0.52651 0.22439
 N2500 N 0.65992 0.53429 0.23677
 N2501 N 0.67484 0.52970 0.24131
 C2502 C 0.68249 0.51717 0.23363
 N2503 N 0.67462 0.50931 0.22133
 N2504 N 0.65971 0.51390 0.21680
 C2505 C 0.63628 1.03162 0.71843
 N2506 N 0.62882 1.04456 0.72558
 N2507 N 0.61457 1.05000 0.71998
 C2508 C 0.60721 1.04274 0.70700
 N2509 N 0.61465 1.02970 0.69995
 N2510 N 0.62890 1.02425 0.70555
 C2511 C 0.65239 1.02616 0.72405
 N2512 N 0.66011 1.01360 0.71650
 N2513 N 0.67506 1.00916 0.72107
 C2514 C 0.68283 1.01710 0.73337
 N2515 N 0.67506 1.02958 0.74101
 N2516 N 0.66011 1.03402 0.73644
 C2517 C 0.86133 0.46590 0.28429
 N2518 N 0.86869 0.47306 0.29729
 N2519 N 0.88278 0.46731 0.30300
 C2520 C 0.89007 0.45419 0.29595
 N2521 N 0.88270 0.44713 0.28286
 N2522 N 0.86862 0.45286 0.27715
 C2523 C 0.84547 0.47180 0.27841
 N2524 N 0.83785 0.46426 0.26577
 N2525 N 0.82319 0.46922 0.26082
 C2526 C 0.81562 0.48192 0.26831
 N2527 N 0.82329 0.48952 0.28089
 N2528 N 0.83795 0.48455 0.28584
 C2529 C 0.86159 0.96644 0.78464
 N2530 N 0.86886 0.95345 0.77739
 N2531 N 0.88287 0.94756 0.78314
 C2532 C 0.89018 0.95442 0.79636
 N2533 N 0.88291 0.96750 0.80352
 N2534 N 0.86890 0.97339 0.79778
 C2535 C 0.84580 0.97249 0.77871
 N2536 N 0.83823 0.98513 0.78629
 N2537 N 0.82359 0.99017 0.78131
 C2538 C 0.81600 0.98275 0.76858
 N2539 N 0.82363 0.97017 0.76094
 N2540 N 0.83825 0.96514 0.76592
 C2541 C 0.38832 0.28358 0.78367
 N2542 N 0.38079 0.27629 0.79649
 N2543 N 0.36658 0.28191 0.80200
 C2544 C 0.35932 0.29504 0.79492
 N2545 N 0.36686 0.30224 0.78202
 N2546 N 0.38107 0.29663 0.77650
 C2547 C 0.40428 0.27778 0.77798
 N2548 N 0.41200 0.28539 0.76545
 N2549 N 0.42672 0.28050 0.76064
 C2550 C 0.43427 0.26781 0.76816
 N2551 N 0.42651 0.26015 0.78064
 N2552 N 0.41178 0.26504 0.78545
 C2553 C 0.88815 0.28290 0.28360
 N2554 N 0.88089 0.29590 0.27635
 N2555 N 0.86672 0.30159 0.28189
 C2556 C 0.85923 0.29452 0.29488
 N2557 N 0.86649 0.28144 0.30204
 N2558 N 0.88066 0.27574 0.29652
 C2559 C 0.90409 0.27705 0.27792
 N2560 N 0.91165 0.26441 0.28552
 N2561 N 0.92638 0.25951 0.28074
 C2562 C 0.93410 0.26706 0.26817
 N2563 N 0.92650 0.27963 0.26051
 N2564 N 0.91177 0.28453 0.26529
 C2565 C 0.36157 0.78418 0.46634
 N2566 N 0.36885 0.79722 0.47352
 N2567 N 0.38306 0.80286 0.46801
 C2568 C 0.39058 0.79569 0.45509
 N2569 N 0.38330 0.78256 0.44799
 N2570 N 0.36908 0.77691 0.45350
 C2571 C 0.34560 0.77837 0.47203
 N2572 N 0.33806 0.76565 0.46453
 N2573 N 0.32332 0.76075 0.46935
 C2574 C 0.31560 0.76840 0.48185
 N2575 N 0.32318 0.78108 0.48939
 N2576 N 0.33791 0.78597 0.48457
 C2577 C 0.36353 0.28192 0.96787
 N2578 N 0.37078 0.29502 0.97498
 N2579 N 0.38482 0.30085 0.96922
 C2580 C 0.39216 0.29384 0.95611
 N2581 N 0.38492 0.28064 0.94911
 N2582 N 0.37088 0.27479 0.95486
 C2583 C 0.34760 0.27608 0.97364
 N2584 N 0.33997 0.26344 0.96608
 N2585 N 0.32512 0.25873 0.97074
 C2586 C 0.31736 0.26649 0.98315
 N2587 N 0.32505 0.27904 0.99080
 N2588 N 0.33990 0.28373 0.98614
 C2589 C 0.78314 0.46686 0.36216
 N2590 N 0.79609 0.47417 0.36947
 N2591 N 0.80176 0.46865 0.38366
 C2592 C 0.79472 0.45562 0.39113
 N2593 N 0.78168 0.44840 0.38383
 N2594 N 0.77600 0.45390 0.36963
 C2595 C 0.77734 0.47251 0.34618
 N2596 N 0.76479 0.46483 0.33854
 N2597 N 0.75995 0.46959 0.32377
 C2598 C 0.76749 0.48221 0.31609
 N2599 N 0.77998 0.48994 0.32377
 N2600 N 0.78482 0.48518 0.33854
 C2601 C 0.78423 0.96614 0.86165
 N2602 N 0.79730 0.97331 0.86887
 N2603 N 0.80303 0.96771 0.88301
 C2604 C 0.79592 0.95472 0.89051
 N2605 N 0.78276 0.94764 0.88328
 N2606 N 0.77703 0.95323 0.86913
 C2607 C 0.77833 0.97192 0.84574
 N2608 N 0.76560 0.96443 0.83822
 N2609 N 0.76064 0.96931 0.82353
 C2610 C 0.76823 0.98188 0.81582
 N2611 N 0.78091 0.98942 0.82339
 N2612 N 0.78587 0.98453 0.83807
 C2613 C 0.28296 0.78412 0.38804
 N2614 N 0.29576 0.77676 0.38057
 N2615 N 0.30141 0.78240 0.36641
 C2616 C 0.29450 0.79562 0.35915
 N2617 N 0.28161 0.80289 0.36663
 N2618 N 0.27595 0.79726 0.38079
 C2619 C 0.27717 0.77831 0.40398
 N2620 N 0.26468 0.78595 0.41170
 N2621 N 0.25984 0.78106 0.42644
 C2622 C 0.26733 0.76835 0.43398
 N2623 N 0.27976 0.76065 0.42622
 N2624 N 0.28459 0.76554 0.41149
 C2625 C 0.28201 0.28234 0.88659
 N2626 N 0.29501 0.27517 0.87928
 N2627 N 0.30081 0.28094 0.86524
 C2628 C 0.29386 0.29412 0.85795
 N2629 N 0.28076 0.30118 0.86524
 N2630 N 0.27495 0.29541 0.87928
 C2631 C 0.27620 0.27655 0.90252
 N2632 N 0.26370 0.28420 0.91022
 N2633 N 0.25902 0.27951 0.92506
 C2634 C 0.26668 0.26699 0.93276
 N2635 N 0.27909 0.25925 0.92500
 N2636 N 0.28376 0.26394 0.91016
 C2637 C 0.46702 0.28342 0.86212
 N2638 N 0.47410 0.29653 0.86938
 N2639 N 0.46850 0.30216 0.88356
 C2640 C 0.45560 0.29491 0.89105
 N2641 N 0.44861 0.28172 0.88379
 N2642 N 0.45420 0.27609 0.86961
 C2643 C 0.47274 0.27762 0.84616
 N2644 N 0.46525 0.26489 0.83863
 N2645 N 0.47004 0.26002 0.82388
 C2646 C 0.48250 0.26771 0.81612
 N2647 N 0.49005 0.28039 0.82369
 N2648 N 0.48526 0.28525 0.83844
 C2649 C 0.96662 0.28381 0.36168
 N2650 N 0.95375 0.27655 0.36915
 N2651 N 0.94821 0.28217 0.38336
 C2652 C 0.95532 0.29527 0.39067
 N2653 N 0.96828 0.30244 0.38320
 N2654 N 0.97382 0.29682 0.36900
 C2655 C 0.97232 0.27799 0.34572
 N2656 N 0.98498 0.28546 0.33808
 N2657 N 0.98979 0.28054 0.32335
 C2658 C 0.98212 0.26796 0.31573
 N2659 N 0.96950 0.26044 0.32341
 N2660 N 0.96470 0.26537 0.33814
 C2661 C 0.46591 0.36164 0.78310
 N2662 N 0.47311 0.36901 0.79606
 N2663 N 0.46742 0.38312 0.80178
 C2664 C 0.45430 0.39043 0.79478
 N2665 N 0.44718 0.38307 0.78172
 N2666 N 0.45287 0.36895 0.77599
 C2667 C 0.47175 0.34573 0.77726
 N2668 N 0.46422 0.33808 0.76463
 N2669 N 0.46912 0.32335 0.75976
 C2670 C 0.48173 0.31575 0.76734
 N2671 N 0.48932 0.32345 0.77990
 N2672 N 0.48443 0.33817 0.78477
 C2673 C 0.96626 0.36143 0.28366
 N2674 N 0.97343 0.36874 0.29668
 N2675 N 0.96767 0.38279 0.30250
 C2676 C 0.95451 0.39009 0.29555
 N2677 N 0.94744 0.38278 0.28243
 N2678 N 0.95319 0.36873 0.27661
 C2679 C 0.97216 0.34559 0.27770
 N2680 N 0.96460 0.33797 0.26507
 N2681 N 0.96951 0.32328 0.26011
 C2682 C 0.98218 0.31567 0.26760
 N2683 N 0.98980 0.32334 0.28017
 N2684 N 0.98489 0.33803 0.28512
 C2685 C 0.28421 0.86204 0.46666
 N2686 N 0.27701 0.86937 0.45368
 N2687 N 0.28278 0.88343 0.44786
 C2688 C 0.29598 0.89072 0.45478
 N2689 N 0.30309 0.88340 0.46785
 N2690 N 0.29733 0.86934 0.47367
 C2691 C 0.27830 0.84619 0.47261
 N2692 N 0.28585 0.83858 0.48524
 N2693 N 0.28090 0.82389 0.49019
 C2694 C 0.26821 0.81628 0.48270
 N2695 N 0.26061 0.82394 0.47013
 N2696 N 0.26555 0.83863 0.46518
 C2697 C 0.28284 0.36326 0.96787
 N2698 N 0.27563 0.37058 0.95489
 N2699 N 0.28144 0.38460 0.94902
 C2700 C 0.29469 0.39185 0.95588
 N2701 N 0.30180 0.38455 0.96896
 N2702 N 0.29600 0.37053 0.97483
 C2703 C 0.27701 0.34735 0.97375
 N2704 N 0.28472 0.33964 0.98622
 N2705 N 0.28000 0.32480 0.99096
 C2706 C 0.26737 0.31714 0.98342
 N2707 N 0.25957 0.32492 0.97104
 N2708 N 0.26429 0.33975 0.96630
 C2709 C 0.78378 0.38801 0.28291
 N2710 N 0.77645 0.38057 0.29576
 N2711 N 0.78203 0.36639 0.30140
 C2712 C 0.79517 0.35906 0.29444
 N2713 N 0.80241 0.36650 0.28150
 N2714 N 0.79683 0.38069 0.27585
 C2715 C 0.77802 0.40397 0.27712
 N2716 N 0.78563 0.41165 0.26456
 N2717 N 0.78079 0.42641 0.25972
 C2718 C 0.76817 0.43402 0.26726
 N2719 N 0.76051 0.42630 0.27976
 N2720 N 0.76534 0.41155 0.28459
   
