data_POSCAR
  _audit_creation_date              2014-09-24
  _audit_creation_method            'ToBaCCo'
  _symmetry_space_group_name_H-M    'P1'
  _symmetry_Int_Tables_number       1
  _symmetry_cell_setting            triclinic
  loop_
  _symmetry_equiv_pos_as_xyz
 x,y,z
_cell_length_a 114.5156
_cell_length_b 114.4528
_cell_length_c 114.4463
_cell_angle_alpha 90.045900
_cell_angle_beta 90.060800
_cell_angle_gamma 90.038300
loop_
  _atom_site_label
  _atom_site_type_symbol
  _atom_site_fract_x
  _atom_site_fract_y
  _atom_site_fract_z
N1 N 0.31393 0.42812 0.90435
 N2 N 0.32247 0.43577 0.90398
 C3 C 0.32108 0.44258 0.89448
 C4 C 0.31108 0.43905 0.88860
 C5 C 0.30680 0.42982 0.89516
 H6 H 0.32688 0.44965 0.89213
 H7 H 0.29894 0.42483 0.89357
 Cu8 Cu 0.33430 0.43654 0.91620
 Cu9 Cu 0.31231 0.41701 0.91708
 Cu10 Cu 0.33568 0.41493 0.93619
 N11 N 0.34672 0.43584 0.92781
 N12 N 0.34732 0.42731 0.93545
 C13 C 0.35663 0.42901 0.94242
 C14 C 0.36229 0.43920 0.93900
 C15 C 0.35569 0.44325 0.92963
 H16 H 0.35897 0.42326 0.94952
 H17 H 0.35719 0.45103 0.92452
 N18 N 0.32294 0.40338 0.93566
 N19 N 0.31393 0.40430 0.92853
 C20 C 0.30653 0.39538 0.93054
 C21 C 0.31105 0.38850 0.93942
 C22 C 0.32148 0.39387 0.94242
 H23 H 0.29837 0.39411 0.92597
 H24 H 0.32753 0.39113 0.94913
 H25 H 0.32248 0.42512 0.92994
 H26 H 0.33015 0.41588 0.91889
 N27 N 0.42703 0.84774 0.43516
 N28 N 0.43530 0.84747 0.42723
 C29 C 0.44265 0.85648 0.42904
 C30 C 0.43886 0.86276 0.43873
 C31 C 0.42887 0.85688 0.44234
 H32 H 0.45027 0.85819 0.42376
 H33 H 0.42337 0.85891 0.44973
 Cu34 Cu 0.43572 0.83524 0.41537
 Cu35 Cu 0.41469 0.83604 0.43588
 Cu36 Cu 0.41669 0.81291 0.41640
 N37 N 0.43534 0.82327 0.40325
 N38 N 0.42788 0.81457 0.40372
 C39 C 0.42980 0.80731 0.39467
 C40 C 0.43897 0.81169 0.38809
 C41 C 0.44223 0.82188 0.39382
 H42 H 0.42505 0.79928 0.39321
 H43 H 0.44921 0.82776 0.39143
 N44 N 0.40402 0.81438 0.42794
 N45 N 0.40316 0.82326 0.43525
 C46 C 0.39360 0.82178 0.44193
 C47 C 0.38812 0.81147 0.43869
 C48 C 0.39500 0.80705 0.42976
 H49 H 0.39085 0.82779 0.44867
 H50 H 0.39362 0.79903 0.42496
 H51 H 0.42486 0.82306 0.42916
 H52 H 0.41522 0.83074 0.41847
 N53 N 0.92675 0.90273 0.81548
 N54 N 0.93509 0.90310 0.82337
 C55 C 0.94257 0.89423 0.82145
 C56 C 0.93870 0.88789 0.81185
 C57 C 0.92862 0.89360 0.80831
 H58 H 0.95027 0.89255 0.82664
 H59 H 0.92303 0.89135 0.80104
 Cu60 Cu 0.93513 0.91520 0.83532
 Cu61 Cu 0.91423 0.91429 0.81481
 Cu62 Cu 0.91604 0.93726 0.83460
 N63 N 0.93513 0.92717 0.84743
 N64 N 0.92746 0.93569 0.84716
 C65 C 0.92928 0.94283 0.85632
 C66 C 0.93868 0.93863 0.86276
 C67 C 0.94214 0.92862 0.85677
 H68 H 0.92420 0.95061 0.85797
 H69 H 0.94923 0.92282 0.85899
 N70 N 0.90336 0.93579 0.82301
 N71 N 0.90258 0.92699 0.81559
 C72 C 0.89308 0.92852 0.80882
 C73 C 0.88756 0.93879 0.81212
 C74 C 0.89434 0.94312 0.82118
 H75 H 0.89043 0.92261 0.80195
 H76 H 0.89294 0.95111 0.82601
 H77 H 0.92418 0.92737 0.82166
 H78 H 0.91460 0.91947 0.83222
 N79 N 0.42735 -0.09675 0.31466
 N80 N 0.43567 -0.09642 0.32256
 C81 C 0.44308 -0.10535 0.32070
 C82 C 0.43931 -0.11156 0.31098
 C83 C 0.42925 -0.10582 0.30742
 H84 H 0.45078 -0.10705 0.32590
 H85 H 0.42378 -0.10793 0.30003
 Cu86 Cu 0.43599 -0.08433 0.33451
 Cu87 Cu 0.41501 -0.08509 0.31393
 Cu88 Cu 0.41705 -0.06198 0.33341
 N89 N 0.43555 -0.07247 0.34668
 N90 N 0.42808 -0.06378 0.34621
 C91 C 0.42988 -0.05663 0.35537
 C92 C 0.43897 -0.06109 0.36203
 C93 C 0.44227 -0.07123 0.35626
 H94 H 0.42510 -0.04863 0.35685
 H95 H 0.44916 -0.07718 0.35875
 N96 N 0.40439 -0.06344 0.32185
 N97 N 0.40351 -0.07233 0.31456
 C98 C 0.39398 -0.07083 0.30784
 C99 C 0.38856 -0.06048 0.31102
 C100 C 0.39542 -0.05608 0.31998
 H101 H 0.39121 -0.07684 0.30109
 H102 H 0.39406 -0.04804 0.32476
 H103 H 0.42526 -0.07212 0.32067
 H104 H 0.41558 -0.07977 0.33135
 N105 N 0.81490 0.32307 0.34704
 N106 N 0.82313 0.31508 0.34707
 C107 C 0.82122 0.30765 0.35599
 C108 C 0.81125 0.31117 0.36191
 C109 C 0.80751 0.32102 0.35593
 H110 H 0.82666 0.30020 0.35797
 H111 H 0.79995 0.32632 0.35783
 Cu112 Cu 0.83549 0.31514 0.33540
 Cu113 Cu 0.81427 0.33547 0.33542
 Cu114 Cu 0.83582 0.33549 0.31419
 N115 N 0.84737 0.31514 0.32325
 N116 N 0.84744 0.32311 0.31500
 C117 C 0.85646 0.32110 0.30776
 C118 C 0.86244 0.31130 0.31164
 C119 C 0.85637 0.30776 0.32151
 H120 H 0.85845 0.32638 0.30020
 H121 H 0.85833 0.30037 0.32703
 N122 N 0.82330 0.34729 0.31485
 N123 N 0.81511 0.34728 0.32294
 C124 C 0.80787 0.35635 0.32103
 C125 C 0.81166 0.36240 0.31126
 C126 C 0.82149 0.35637 0.30759
 H127 H 0.80035 0.35833 0.32636
 H128 H 0.82695 0.35841 0.30019
 H129 H 0.82270 0.32620 0.32242
 H130 H 0.83193 0.33586 0.33180
 N131 N -0.17695 0.84756 0.81469
 N132 N -0.18523 0.84725 0.82260
 C133 C -0.19257 0.85627 0.82082
 C134 C -0.18871 0.86263 0.81121
 C135 C -0.17872 0.85676 0.80759
 H136 H -0.20016 0.85800 0.82612
 H137 H -0.17312 0.85890 0.80031
 Cu138 Cu -0.18567 0.83505 0.83446
 Cu139 Cu -0.16453 0.83595 0.81405
 Cu140 Cu -0.16468 0.81451 0.83540
 N141 N -0.18542 0.82310 0.84658
 N142 N -0.17717 0.81514 0.84690
 C143 C -0.17908 0.80796 0.85600
 C144 C -0.18909 0.81157 0.86176
 C145 C -0.19286 0.82124 0.85550
 H146 H -0.17356 0.80063 0.85820
 H147 H -0.20051 0.82648 0.85722
 N148 N -0.15276 0.81531 0.82302
 N149 N -0.15271 0.82346 0.81487
 C150 C -0.14362 0.82157 0.80766
 C151 C -0.13761 0.81175 0.81142
 C152 C -0.14370 0.80805 0.82120
 H153 H -0.14159 0.82693 0.80016
 H154 H -0.14172 0.80058 0.82661
 H155 H -0.17368 0.82258 0.82199
 H156 H -0.16475 0.83219 0.83171
 N157 N 0.93536 0.34743 0.42722
 N158 N 0.92743 0.34709 0.43549
 C159 C 0.92918 0.35612 0.44284
 C160 C 0.93878 0.36251 0.43901
 C161 C 0.94242 0.35665 0.42901
 H162 H 0.92386 0.35783 0.45044
 H163 H 0.94971 0.35881 0.42344
 Cu164 Cu 0.91562 0.33485 0.43588
 Cu165 Cu 0.93608 0.33583 0.41480
 Cu166 Cu 0.91483 0.31428 0.41484
 N167 N 0.90353 0.32287 0.43552
 N168 N 0.90329 0.31489 0.42728
 C169 C 0.89419 0.30768 0.42912
 C170 C 0.88835 0.31130 0.43910
 C171 C 0.89457 0.32101 0.44290
 H172 H 0.89209 0.30029 0.42364
 H173 H 0.89275 0.32630 0.45050
 N174 N 0.92726 0.31514 0.40298
 N175 N 0.93536 0.32333 0.40297
 C176 C 0.94260 0.32149 0.39389
 C177 C 0.93891 0.31165 0.38786
 C178 C 0.92913 0.30788 0.39392
 H179 H 0.95007 0.32690 0.39190
 H180 H 0.92377 0.30038 0.39192
 H181 H 0.91844 0.33199 0.41496
 H182 H 0.92816 0.32243 0.42393
 N183 N 0.43527 0.42693 0.84708
 N184 N 0.42721 0.43508 0.84690
 C185 C 0.42896 0.44241 0.85595
 C186 C 0.43870 0.43869 0.86212
 C187 C 0.44245 0.42881 0.85619
 H188 H 0.42359 0.44993 0.85784
 H189 H 0.44982 0.42333 0.85832
 Cu190 Cu 0.41526 0.43517 0.83481
 Cu191 Cu 0.43597 0.41452 0.83544
 Cu192 Cu 0.41454 0.41462 0.81395
 N193 N 0.40324 0.43524 0.82280
 N194 N 0.40301 0.42712 0.81469
 C195 C 0.39398 0.42915 0.80745
 C196 C 0.38817 0.43910 0.81120
 C197 C 0.39431 0.44269 0.82102
 H198 H 0.39186 0.42375 0.80000
 H199 H 0.39251 0.45023 0.82641
 N200 N 0.42700 0.40275 0.81474
 N201 N 0.43515 0.40273 0.82289
 C202 C 0.44237 0.39364 0.82103
 C203 C 0.43860 0.38760 0.81123
 C204 C 0.42882 0.39366 0.80749
 H205 H 0.44986 0.39163 0.82640
 H206 H 0.42340 0.39164 0.80003
 H207 H 0.42784 0.42359 0.82217
 H208 H 0.41833 0.41435 0.83160
 N209 N 0.81528 0.90281 0.92683
 N210 N 0.82294 0.90343 0.93536
 C211 C 0.82105 0.89458 0.94286
 C212 C 0.81165 0.88804 0.93886
 C213 C 0.80824 0.89357 0.92863
 H214 H 0.82609 0.89310 0.95070
 H215 H 0.80105 0.89121 0.92298
 Cu216 Cu 0.83466 0.91572 0.93597
 Cu217 Cu 0.81461 0.91433 0.91438
 Cu218 Cu 0.83391 0.93758 0.91632
 N219 N 0.84702 0.92735 0.93503
 N220 N 0.84669 0.93586 0.92735
 C221 C 0.85599 0.94287 0.92894
 C222 C 0.86258 0.93853 0.93814
 C223 C 0.85659 0.92863 0.94175
 H224 H 0.85765 0.95068 0.92390
 H225 H 0.85892 0.92285 0.94883
 N226 N 0.82244 0.93594 0.90362
 N227 N 0.81524 0.92698 0.90275
 C228 C 0.80853 0.92839 0.89319
 C229 C 0.81165 0.93874 0.88773
 C230 C 0.82054 0.94325 0.89462
 H231 H 0.80181 0.92235 0.89045
 H232 H 0.82522 0.95134 0.89328
 H233 H 0.83197 0.91972 0.91529
 H234 H 0.82100 0.92757 0.92449
 N235 N 0.31402 0.84586 0.32195
 N236 N 0.32252 0.84614 0.31427
 C237 C 0.32119 0.85562 0.30744
 C238 C 0.31126 0.86159 0.31098
 C239 C 0.30696 0.85510 0.32025
 H240 H 0.32693 0.85787 0.30031
 H241 H 0.29913 0.85675 0.32525
 Cu242 Cu 0.33417 0.83379 0.31344
 Cu243 Cu 0.31229 0.83318 0.33306
 Cu244 Cu 0.33559 0.81402 0.33526
 N245 N 0.34651 0.82214 0.31421
 N246 N 0.34714 0.81460 0.32283
 C247 C 0.35640 0.80758 0.32115
 C248 C 0.36193 0.81087 0.31089
 C249 C 0.35538 0.82018 0.30675
 H250 H 0.35882 0.80052 0.32692
 H251 H 0.35683 0.82507 0.29882
 N252 N 0.32292 0.81472 0.34685
 N253 N 0.31394 0.82185 0.34587
 C254 C 0.30661 0.82002 0.35487
 C255 C 0.31113 0.81124 0.36186
 C256 C 0.32151 0.80811 0.35647
 H257 H 0.29850 0.82468 0.35614
 H258 H 0.32757 0.80146 0.35929
 H259 H 0.33015 0.83135 0.33415
 H260 H 0.32237 0.82021 0.32506
 N261 N 0.81484 0.40290 0.42710
 N262 N 0.82314 0.40292 0.43503
 C263 C 0.82133 0.39399 0.44248
 C264 C 0.81135 0.38803 0.43903
 C265 C 0.80749 0.39398 0.42921
 H266 H 0.82686 0.39202 0.44986
 H267 H 0.79985 0.39207 0.42401
 Cu268 Cu 0.83542 0.41467 0.43494
 Cu269 Cu 0.81406 0.41451 0.41471
 Cu270 Cu 0.83549 0.43589 0.41462
 N271 N 0.84721 0.42692 0.43491
 N272 N 0.84718 0.43516 0.42693
 C273 C 0.85618 0.44247 0.42890
 C274 C 0.86223 0.43864 0.43867
 C275 C 0.85624 0.42873 0.44225
 H276 H 0.85814 0.44999 0.42356
 H277 H 0.85824 0.42326 0.44967
 N278 N 0.82292 0.43515 0.40289
 N279 N 0.81477 0.42701 0.40291
 C280 C 0.80749 0.42888 0.39386
 C281 C 0.81121 0.43869 0.38782
 C282 C 0.82104 0.44241 0.39384
 H283 H 0.80002 0.42347 0.39184
 H284 H 0.82641 0.44991 0.39185
 H285 H 0.83170 0.41824 0.41425
 H286 H 0.82248 0.42755 0.42397
 N287 N 0.92670 0.84721 -0.06508
 N288 N 0.93528 0.84661 -0.07265
 C289 C 0.94266 0.85558 -0.07078
 C290 C 0.93851 0.86217 -0.06150
 C291 C 0.92833 0.85655 -0.05812
 H292 H 0.95057 0.85706 -0.07570
 H293 H 0.92258 0.85895 -0.05104
 Cu294 Cu 0.93611 0.83425 -0.08427
 Cu295 Cu 0.91442 0.83550 -0.06437
 Cu296 Cu 0.91663 0.81221 -0.08360
 N297 N 0.93517 0.82270 -0.09672
 N298 N 0.92755 0.81414 -0.09644
 C299 C 0.92917 0.80719 -0.10578
 C300 C 0.93834 0.81164 -0.11234
 C301 C 0.94188 0.82153 -0.10629
 H302 H 0.92423 0.79931 -0.10743
 H303 H 0.94897 0.82733 -0.10853
 N304 N 0.90395 0.81370 -0.07210
 N305 N 0.90298 0.82267 -0.06494
 C306 C 0.89352 0.82110 -0.05815
 C307 C 0.88823 0.81064 -0.06119
 C308 C 0.89510 0.80622 -0.07012
 H309 H 0.89074 0.82711 -0.05143
 H310 H 0.89386 0.79808 -0.07475
 H311 H 0.92466 0.82231 -0.07064
 H312 H 0.91547 0.83003 -0.08171
 N313 N 0.31445 0.34662 0.82259
 N314 N 0.32271 0.34658 0.81464
 C315 C 0.32090 0.35552 0.80721
 C316 C 0.31096 0.36152 0.81069
 C317 C 0.30713 0.35556 0.82051
 H318 H 0.32641 0.35749 0.79982
 H319 H 0.29952 0.35748 0.82574
 Cu320 Cu 0.33495 0.33479 0.81475
 Cu321 Cu 0.31368 0.33501 0.83499
 Cu322 Cu 0.33510 0.31362 0.83512
 N323 N 0.34678 0.32258 0.81481
 N324 N 0.34679 0.31436 0.82281
 C325 C 0.35582 0.30710 0.82088
 C326 C 0.36186 0.31093 0.81111
 C327 C 0.35583 0.32081 0.80750
 H328 H 0.35780 0.29960 0.82625
 H329 H 0.35782 0.32628 0.80008
 N330 N 0.32253 0.31437 0.84684
 N331 N 0.31439 0.32252 0.84680
 C332 C 0.30707 0.32063 0.85580
 C333 C 0.31073 0.31078 0.86183
 C334 C 0.32058 0.30707 0.85586
 H335 H 0.29959 0.32602 0.85777
 H336 H 0.32591 0.29955 0.85785
 H337 H 0.33133 0.33128 0.83546
 H338 H 0.32207 0.32194 0.82580
 N339 N 0.15352 0.57274 0.56449
 N340 N 0.15357 0.56470 0.57267
 C341 C 0.14464 0.55727 0.57078
 C342 C 0.13863 0.56084 0.56086
 C343 C 0.14457 0.57072 0.55715
 H344 H 0.14271 0.54978 0.57619
 H345 H 0.14257 0.57610 0.54965
 Cu346 Cu 0.16536 0.56474 0.58495
 Cu347 Cu 0.16516 0.58514 0.56382
 Cu348 Cu 0.18654 0.58513 0.58527
 N349 N 0.17757 0.56471 0.59681
 N350 N 0.18578 0.57274 0.59690
 C351 C 0.19302 0.57075 0.60594
 C352 C 0.18920 0.56092 0.61189
 C353 C 0.17934 0.55734 0.60581
 H354 H 0.20050 0.57614 0.60801
 H355 H 0.17387 0.54989 0.60773
 N356 N 0.18582 0.59693 0.57275
 N357 N 0.17767 0.59694 0.56460
 C358 C 0.17958 0.60597 0.55732
 C359 C 0.18944 0.61197 0.56102
 C360 C 0.19314 0.60595 0.57085
 H361 H 0.17420 0.60798 0.54983
 H362 H 0.20067 0.60789 0.57619
 H363 H 0.17824 0.57586 0.57215
 H364 H 0.16893 0.58547 0.58147
 N365 N 0.59726 0.67729 0.06482
 N366 N 0.59716 0.68538 0.07298
 C367 C 0.60621 0.69269 0.07123
 C368 C 0.61233 0.68902 0.06144
 C369 C 0.60634 0.67919 0.05762
 H370 H 0.60813 0.70018 0.07666
 H371 H 0.60838 0.67379 0.05015
 Cu372 Cu 0.58517 0.68548 0.08503
 Cu373 Cu 0.58554 0.66498 0.06404
 Cu374 Cu 0.56408 0.66510 0.08544
 N375 N 0.57312 0.68547 0.09702
 N376 N 0.56491 0.67746 0.09712
 C377 C 0.55772 0.67942 0.10620
 C378 C 0.56160 0.68921 0.11219
 C379 C 0.57143 0.69280 0.10608
 H380 H 0.55017 0.67411 0.10819
 H381 H 0.57696 0.70019 0.10805
 N382 N 0.56474 0.65332 0.07286
 N383 N 0.57292 0.65325 0.06475
 C384 C 0.57095 0.64424 0.05743
 C385 C 0.56105 0.63831 0.06109
 C386 C 0.55737 0.64436 0.07092
 H387 H 0.57634 0.64219 0.04997
 H388 H 0.54981 0.64246 0.07623
 H389 H 0.57237 0.67407 0.07225
 H390 H 0.58168 0.66465 0.08165
 N391 N 0.67726 0.18557 0.65312
 N392 N 0.68546 0.17755 0.65332
 C393 C 0.69272 0.17929 0.64423
 C394 C 0.68888 0.18893 0.63797
 C395 C 0.67902 0.19266 0.64392
 H396 H 0.70025 0.17394 0.64235
 H397 H 0.67352 0.20003 0.64181
 Cu398 Cu 0.68583 0.16563 0.66545
 Cu399 Cu 0.66498 0.18633 0.66484
 Cu400 Cu 0.66506 0.16489 0.68620
 N401 N 0.68560 0.15352 0.67739
 N402 N 0.67741 0.15324 0.68540
 C403 C 0.67929 0.14411 0.69254
 C404 C 0.68925 0.13828 0.68886
 C405 C 0.69300 0.14454 0.67918
 H406 H 0.67382 0.14194 0.69991
 H407 H 0.70062 0.14279 0.67391
 N408 N 0.65331 0.17744 0.68555
 N409 N 0.65329 0.18562 0.67744
 C410 C 0.64434 0.19297 0.67945
 C411 C 0.63839 0.18927 0.68933
 C412 C 0.64436 0.17937 0.69292
 H413 H 0.64238 0.20052 0.67415
 H414 H 0.64239 0.17396 0.70039
 H415 H 0.67416 0.17821 0.67808
 H416 H 0.66498 0.16866 0.66852
 N417 N 1.09710 0.07254 0.18571
 N418 N 1.09685 0.06430 0.17772
 C419 C 1.10591 0.05701 0.17946
 C420 C 1.11221 0.06086 0.18909
 C421 C 1.10630 0.07077 0.19281
 H422 H 1.10773 0.04943 0.17415
 H423 H 1.10844 0.07627 0.20018
 Cu424 Cu 1.08469 0.06391 0.16583
 Cu425 Cu 1.08537 0.08483 0.18649
 Cu426 Cu 1.06390 0.08463 0.16511
 N427 N 1.07272 0.06406 0.15375
 N428 N 1.06469 0.07225 0.15347
 C429 C 1.05753 0.07032 0.14435
 C430 C 1.06123 0.06036 0.13853
 C431 C 1.07092 0.05663 0.14478
 H432 H 1.05015 0.07579 0.14218
 H433 H 1.07618 0.04900 0.14305
 N434 N 1.06459 0.09644 0.17763
 N435 N 1.07275 0.09652 0.18577
 C436 C 1.07074 0.10550 0.19310
 C437 C 1.06083 0.11140 0.18943
 C438 C 1.05719 0.10536 0.17957
 H439 H 1.07611 0.10755 0.20059
 H440 H 1.04962 0.10723 0.17425
 H441 H 1.07210 0.07558 0.17844
 H442 H 1.08156 0.08477 0.16885
 N443 N 0.07287 0.15316 1.06460
 N444 N 0.06489 0.15322 1.07283
 C445 C 0.05746 0.14428 1.07101
 C446 C 0.06096 0.13825 1.06109
 C447 C 0.07081 0.14419 1.05728
 H448 H 0.05000 0.14237 1.07646
 H449 H 0.07611 0.14219 1.04974
 Cu450 Cu 0.06495 0.16505 1.08507
 Cu451 Cu 0.08526 0.16479 1.06386
 Cu452 Cu 0.08530 0.18627 1.08523
 N453 N 0.06494 0.17734 1.09684
 N454 N 0.07292 0.18558 1.09685
 C455 C 0.07087 0.19295 1.10579
 C456 C 0.06104 0.18916 1.11175
 C457 C 0.05752 0.17920 1.10577
 H458 H 0.07613 0.20056 1.10770
 H459 H 0.05011 0.17371 1.10775
 N460 N 0.09710 0.18547 1.07272
 N461 N 0.09707 0.17730 1.06458
 C462 C 0.10613 0.17914 1.05731
 C463 C 0.11220 0.18895 1.06102
 C464 C 0.10617 0.19271 1.07084
 H465 H 0.10810 0.17374 1.04983
 H466 H 0.10823 0.20018 1.07624
 H467 H 0.08566 0.16862 1.08150
 H468 H 0.07601 0.17789 1.07218
 N469 N 0.15353 0.68585 0.67761
 N470 N 0.15358 0.67761 0.68559
 C471 C 0.14462 0.67939 0.69300
 C472 C 0.13860 0.68931 0.68948
 C473 C 0.14455 0.69314 0.67966
 H474 H 0.14268 0.67390 0.70041
 H475 H 0.14260 0.70073 0.67440
 Cu476 Cu 0.16549 0.66546 0.68558
 Cu477 Cu 0.16516 0.68664 0.66524
 Cu478 Cu 0.18645 0.66512 0.66504
 N479 N 0.17751 0.65342 0.68535
 N480 N 0.18567 0.65337 0.67730
 C481 C 0.19287 0.64428 0.67916
 C482 C 0.18906 0.63824 0.68895
 C483 C 0.17926 0.64434 0.69263
 H484 H 0.20036 0.64229 0.67380
 H485 H 0.17380 0.64235 0.70006
 N486 N 0.18576 0.67776 0.65337
 N487 N 0.17767 0.68595 0.65345
 C488 C 0.17959 0.69331 0.64448
 C489 C 0.18939 0.68960 0.63842
 C490 C 0.19305 0.67969 0.64435
 H491 H 0.17429 0.70087 0.64259
 H492 H 0.20048 0.67427 0.64228
 H493 H 0.16882 0.66897 0.66486
 H494 H 0.17829 0.67826 0.67438
 N495 N 1.17704 0.15259 0.18522
 N496 N 1.18521 0.15284 0.17719
 C497 C 1.19253 0.14378 0.17889
 C498 C 1.18876 0.13750 0.18855
 C499 C 1.17887 0.14340 0.19231
 H500 H 1.20008 0.14197 0.17355
 H501 H 1.17339 0.14122 0.19967
 Cu502 Cu 1.18553 0.16499 0.16529
 Cu503 Cu 1.16470 0.16425 0.18602
 Cu504 Cu 1.16465 0.18567 0.16464
 N505 N 1.18514 0.17691 0.15315
 N506 N 1.17695 0.18493 0.15295
 C507 C 1.17874 0.19205 0.14377
 C508 C 1.18861 0.18832 0.13783
 C509 C 1.19242 0.17865 0.14408
 H510 H 1.17327 0.19944 0.14167
 H511 H 1.19994 0.17329 0.14220
 N512 N 1.15293 0.18495 0.17721
 N513 N 1.15295 0.17681 0.18535
 C514 C 1.14400 0.17875 0.19272
 C515 C 1.13800 0.18862 0.18907
 C516 C 1.14395 0.19229 0.17918
 H517 H 1.14208 0.17342 0.20026
 H518 H 1.14194 0.19978 0.17381
 H519 H 1.16468 0.16798 0.16835
 H520 H 1.17383 0.17756 0.17792
 N521 N 0.65421 1.06393 0.57198
 N522 N 0.65385 1.07252 0.56439
 C523 C 0.64435 1.07121 0.55758
 C524 C 0.63843 1.06121 0.56105
 C525 C 0.64499 1.05685 0.57025
 H526 H 0.64202 1.07702 0.55053
 H527 H 0.64339 1.04896 0.57518
 Cu528 Cu 0.66613 1.08427 0.56367
 Cu529 Cu 0.66695 1.06216 0.58304
 Cu530 Cu 0.68614 1.08546 0.58532
 N531 N 0.67779 1.09663 0.56448
 N532 N 0.68542 1.09716 0.57303
 C533 C 0.69239 1.10648 0.57142
 C534 C 0.68897 1.11217 0.56128
 C535 C 0.67964 1.10563 0.55714
 H536 H 0.69952 1.10881 0.57715
 H537 H 0.67459 1.10723 0.54933
 N538 N 0.68556 1.07264 0.59678
 N539 N 0.67840 1.06368 0.59577
 C540 C 0.68033 1.05623 0.60467
 C541 C 0.68921 1.06067 0.61161
 C542 C 0.69229 1.07111 0.60631
 H543 H 0.67571 1.04809 0.60587
 H544 H 0.69900 1.07713 0.60912
 H545 H 0.66881 1.08003 0.58432
 H546 H 0.67983 1.07235 0.57503
 N547 N 0.57273 0.56453 0.15349
 N548 N 0.56439 0.57239 0.15384
 C549 C 0.55697 0.57050 0.14489
 C550 C 0.56088 0.56094 0.13855
 C551 C 0.57095 0.55741 0.14429
 H552 H 0.54933 0.57574 0.14312
 H553 H 0.57660 0.55022 0.14201
 Cu554 Cu 0.56420 0.58442 0.16589
 Cu555 Cu 0.58510 0.56385 0.16514
 Cu556 Cu 0.58511 0.58537 0.18648
 N557 N 0.56440 0.59658 0.17780
 N558 N 0.57274 0.59701 0.18566
 C559 C 0.57102 0.60632 0.19264
 C560 C 0.56099 0.61206 0.18901
 C561 C 0.55703 0.60559 0.17955
 H562 H 0.57675 0.60874 0.19974
 H563 H 0.54937 0.60730 0.17430
 N564 N 0.59685 0.57280 0.18582
 N565 N 0.59685 0.56463 0.17769
 C566 C 0.60584 0.55731 0.17965
 C567 C 0.61182 0.56100 0.18952
 C568 C 0.60584 0.57088 0.19317
 H569 H 0.60784 0.54981 0.17428
 H570 H 0.60780 0.57624 0.20069
 H571 H 0.57608 0.57207 0.17837
 H572 H 0.58511 0.58166 0.16872
 N573 N 0.65311 0.67714 0.18516
 N574 N 0.65334 0.68539 0.17719
 C575 C 0.64428 0.69267 0.17896
 C576 C 0.63801 0.68880 0.18858
 C577 C 0.64393 0.67889 0.19226
 H578 H 0.64244 0.70027 0.17368
 H579 H 0.64176 0.67333 0.19957
 Cu580 Cu 0.66550 0.68583 0.16531
 Cu581 Cu 0.66480 0.66483 0.18589
 Cu582 Cu 0.68620 0.66496 0.16453
 N583 N 0.67738 0.68550 0.15315
 N584 N 0.68540 0.67732 0.15289
 C585 C 0.69248 0.67915 0.14370
 C586 C 0.68873 0.68904 0.13781
 C587 C 0.67908 0.69282 0.14410
 H588 H 0.69983 0.67365 0.14152
 H589 H 0.67374 0.70038 0.14228
 N590 N 0.68553 0.65317 0.17705
 N591 N 0.67736 0.65312 0.18517
 C592 C 0.67933 0.64413 0.19249
 C593 C 0.68924 0.63821 0.18884
 C594 C 0.69290 0.64423 0.17900
 H595 H 0.67395 0.64210 0.19996
 H596 H 0.70047 0.64234 0.17370
 H597 H 0.67808 0.67403 0.17785
 H598 H 0.66853 0.66494 0.16822
 N599 N 0.15330 0.07287 1.06476
 N600 N 0.15367 0.06451 1.07260
 C601 C 0.14475 0.05707 1.07068
 C602 C 0.13840 0.06099 1.06113
 C603 C 0.14413 0.07107 1.05762
 H604 H 0.14308 0.04932 1.07580
 H605 H 0.14185 0.07672 1.05041
 Cu606 Cu 0.16570 0.06422 1.08461
 Cu607 Cu 0.16485 0.08534 1.06419
 Cu608 Cu 0.18609 0.08536 1.08581
 N609 N 0.17751 0.06452 1.09684
 N610 N 0.18534 0.07290 1.09734
 C611 C 0.19231 0.07112 1.10664
 C612 C 0.18870 0.06105 1.11232
 C613 C 0.17927 0.05711 1.10581
 H614 H 0.19946 0.07680 1.10906
 H615 H 0.17411 0.04937 1.10740
 N616 N 0.18538 0.09722 1.07335
 N617 N 0.17731 0.09720 1.06512
 C618 C 0.17924 0.10626 1.05787
 C619 C 0.18901 0.11232 1.06169
 C620 C 0.19265 0.10629 1.07155
 H621 H 0.17394 0.10823 1.05031
 H622 H 0.20006 0.10832 1.07703
 H623 H 0.17818 0.07631 1.07233
 H624 H 0.16844 0.08521 1.08191
 N625 N 0.59709 0.18585 0.57254
 N626 N 0.59710 0.17754 0.56463
 C627 C 0.60614 0.17925 0.55730
 C628 C 0.61214 0.18919 0.56080
 C629 C 0.60610 0.19313 0.57053
 H630 H 0.60819 0.17365 0.54999
 H631 H 0.60805 0.20073 0.57578
 Cu632 Cu 0.58523 0.16534 0.56465
 Cu633 Cu 0.58542 0.18670 0.58486
 Cu634 Cu 0.56395 0.16536 0.58488
 N635 N 0.57292 0.15359 0.56461
 N636 N 0.56465 0.15367 0.57255
 C637 C 0.55725 0.14476 0.57051
 C638 C 0.56105 0.13871 0.56073
 C639 C 0.57105 0.14460 0.55723
 H640 H 0.54964 0.14292 0.57575
 H641 H 0.57656 0.14252 0.54987
 N642 N 0.56472 0.17792 0.59662
 N643 N 0.57287 0.18606 0.59661
 C644 C 0.57097 0.19339 0.60562
 C645 C 0.56114 0.18970 0.61164
 C646 C 0.55743 0.17984 0.60564
 H647 H 0.57632 0.20092 0.60757
 H648 H 0.54996 0.17446 0.60765
 H649 H 0.58163 0.16907 0.58532
 H650 H 0.57240 0.17834 0.57557
 N651 N 0.09703 0.57284 0.68576
 N652 N 0.09673 0.56455 0.67783
 C653 C 0.10579 0.55726 0.67958
 C654 C 0.11213 0.56117 0.68915
 C655 C 0.10626 0.57111 0.69282
 H656 H 0.10757 0.54963 0.67431
 H657 H 0.10849 0.57670 0.70010
 Cu658 Cu 0.08451 0.56405 0.66600
 Cu659 Cu 0.08536 0.58519 0.68647
 Cu660 Cu 0.06385 0.58496 0.66518
 N661 N 0.07255 0.56430 0.65390
 N662 N 0.06455 0.57251 0.65362
 C663 C 0.05739 0.57059 0.64449
 C664 C 0.06106 0.56062 0.63868
 C665 C 0.07074 0.55688 0.64494
 H666 H 0.05003 0.57608 0.64230
 H667 H 0.07603 0.54927 0.64318
 N668 N 0.06461 0.59683 0.67763
 N669 N 0.07280 0.59692 0.68573
 C670 C 0.07087 0.60596 0.69302
 C671 C 0.06097 0.61188 0.68935
 C672 C 0.05726 0.60580 0.67955
 H673 H 0.07628 0.60802 0.70048
 H674 H 0.04968 0.60767 0.67424
 H675 H 0.07202 0.57596 0.67853
 H676 H 0.08154 0.58496 0.66882
 N677 N 0.65342 0.56462 0.07245
 N678 N 0.65378 0.57253 0.06415
 C679 C 0.64485 0.57068 0.05669
 C680 C 0.63853 0.56107 0.06052
 C681 C 0.64427 0.55748 0.07058
 H682 H 0.64310 0.57592 0.04904
 H683 H 0.64197 0.55026 0.07619
 Cu684 Cu 0.66581 0.58458 0.06411
 Cu685 Cu 0.66500 0.56391 0.08491
 Cu686 Cu 0.68631 0.58545 0.08511
 N687 N 0.67771 0.59673 0.06438
 N688 N 0.68556 0.59712 0.07275
 C689 C 0.69259 0.60638 0.07104
 C690 C 0.68901 0.61217 0.06102
 C691 C 0.67950 0.60576 0.05703
 H692 H 0.69974 0.60873 0.07674
 H693 H 0.67428 0.60752 0.04937
 N694 N 0.68559 0.57286 0.09683
 N695 N 0.67749 0.56467 0.09675
 C696 C 0.67939 0.55734 0.10575
 C697 C 0.68919 0.56105 0.11182
 C698 C 0.69285 0.57095 0.10590
 H699 H 0.67407 0.54978 0.10765
 H700 H 0.70029 0.57638 0.10798
 H701 H 0.66859 0.58168 0.08503
 H702 H 0.67828 0.57215 0.07600
 N703 N 0.07242 0.68626 0.59636
 N704 N 0.06429 0.67816 0.59622
 C705 C 0.05689 0.68003 0.60518
 C706 C 0.06054 0.68987 0.61126
 C707 C 0.07046 0.69356 0.60537
 H708 H 0.04935 0.67467 0.60705
 H709 H 0.07591 0.70098 0.60744
 Cu710 Cu 0.06426 0.66593 0.58439
 Cu711 Cu 0.08481 0.68692 0.58475
 Cu712 Cu 0.08470 0.66549 0.56332
 N713 N 0.06418 0.65408 0.57218
 N714 N 0.07226 0.65391 0.56405
 C715 C 0.07023 0.64488 0.55679
 C716 C 0.06032 0.63902 0.56054
 C717 C 0.05675 0.64513 0.57038
 H718 H 0.07563 0.64277 0.54935
 H719 H 0.04924 0.64328 0.57578
 N720 N 0.09655 0.67797 0.56408
 N721 N 0.09660 0.68611 0.57224
 C722 C 0.10565 0.69338 0.57033
 C723 C 0.11162 0.68969 0.56047
 C724 C 0.10557 0.67986 0.55677
 H725 H 0.10768 0.70086 0.57573
 H726 H 0.10748 0.67453 0.54922
 H727 H 0.07556 0.67864 0.57163
 H728 H 0.08504 0.66925 0.58099
 N729 N 0.57206 1.06417 0.65370
 N730 N 0.56395 1.07228 0.65379
 C731 C 0.55663 1.07047 0.64475
 C732 C 0.56030 1.06065 0.63861
 C733 C 0.57018 1.05693 0.64463
 H734 H 0.54913 1.07588 0.64290
 H735 H 0.57562 1.04948 0.64267
 Cu736 Cu 0.56371 1.08427 0.66589
 Cu737 Cu 0.58440 1.06347 0.66540
 Cu738 Cu 0.58435 1.08495 0.68678
 N739 N 0.56389 1.09641 0.67782
 N740 N 0.57197 1.09658 0.68598
 C741 C 0.57002 1.10567 0.69317
 C742 C 0.56014 1.11162 0.68937
 C743 C 0.55653 1.10543 0.67955
 H744 H 0.57543 1.10770 0.70064
 H745 H 0.54904 1.10722 0.67410
 N746 N 0.59615 1.07242 0.68610
 N747 N 0.59616 1.06424 0.67797
 C748 C 0.60518 1.05695 0.67992
 C749 C 0.61119 1.06068 0.68976
 C750 C 0.60517 1.07053 0.69343
 H751 H 0.60715 1.04942 0.67458
 H752 H 0.60716 1.07594 0.70091
 H753 H 0.57524 1.07167 0.67861
 H754 H 0.58451 1.08115 0.66913
 N755 N 0.43537 0.34758 0.92712
 N756 N 0.42732 0.34734 0.93527
 C757 C 0.42909 0.35634 0.94268
 C758 C 0.43883 0.36260 0.93898
 C759 C 0.44253 0.35671 0.92903
 H760 H 0.42368 0.35813 0.95020
 H761 H 0.44994 0.35877 0.92358
 Cu762 Cu 0.41535 0.33521 0.93539
 Cu763 Cu 0.43611 0.33592 0.91471
 Cu764 Cu 0.41491 0.31422 0.91488
 N765 N 0.40344 0.32303 0.93540
 N766 N 0.40335 0.31486 0.92735
 C767 C 0.39437 0.30755 0.92935
 C768 C 0.38844 0.31130 0.93922
 C769 C 0.39449 0.32119 0.94282
 H770 H 0.39239 0.29999 0.92403
 H771 H 0.39252 0.32665 0.95026
 N772 N 0.42736 0.31508 0.90300
 N773 N 0.43540 0.32333 0.90291
 C774 C 0.44262 0.32150 0.89380
 C775 C 0.43896 0.31160 0.88782
 C776 C 0.42924 0.30779 0.89395
 H777 H 0.45000 0.32698 0.89168
 H778 H 0.42397 0.30020 0.89204
 H779 H 0.41853 0.33188 0.91451
 H780 H 0.42811 0.32261 0.92380
 N781 N 0.93584 0.42725 0.34716
 N782 N 0.92723 0.43482 0.34759
 C783 C 0.92861 0.44168 0.35706
 C784 C 0.93875 0.43833 0.36288
 C785 C 0.94305 0.42909 0.35627
 H786 H 0.92272 0.44867 0.35941
 H787 H 0.95092 0.42412 0.35776
 Cu788 Cu 0.91516 0.43485 0.33559
 Cu789 Cu 0.93738 0.41594 0.33448
 Cu790 Cu 0.91419 0.41406 0.31497
 N791 N 0.90303 0.43487 0.32366
 N792 N 0.90262 0.42655 0.31576
 C793 C 0.89346 0.42844 0.30863
 C794 C 0.88775 0.43850 0.31224
 C795 C 0.89409 0.44231 0.32187
 H796 H 0.89124 0.42291 0.30131
 H797 H 0.89242 0.44999 0.32709
 N798 N 0.92693 0.40246 0.31558
 N799 N 0.93583 0.40326 0.32288
 C800 C 0.94315 0.39426 0.32096
 C801 C 0.93870 0.38744 0.31197
 C802 C 0.92839 0.39294 0.30881
 H803 H 0.95119 0.39285 0.32570
 H804 H 0.92238 0.39025 0.30204
 H805 H 0.92726 0.42403 0.32173
 H806 H 0.91961 0.41435 0.33234
 N807 N 0.31437 0.92794 0.40416
 N808 N 0.32325 0.93516 0.40331
 C809 C 0.32195 0.94171 0.39364
 C810 C 0.31163 0.93850 0.38812
 C811 C 0.30708 0.92970 0.39511
 H812 H 0.32795 0.94849 0.39099
 H813 H 0.29893 0.92506 0.39393
 Cu814 Cu 0.33509 0.93590 0.41551
 Cu815 Cu 0.31255 0.91742 0.41741
 Cu816 Cu 0.33784 0.91310 0.43364
 N817 N 0.34730 0.93546 0.42732
 N818 N 0.34825 0.92658 0.43451
 C819 C 0.35742 0.92835 0.44166
 C820 C 0.36259 0.93898 0.43881
 C821 C 0.35585 0.94320 0.42962
 H822 H 0.36013 0.92222 0.44830
 H823 H 0.35701 0.95130 0.42492
 N824 N 0.32421 0.90257 0.43443
 N825 N 0.31455 0.90433 0.42839
 C826 C 0.30686 0.89579 0.43088
 C827 C 0.31186 0.88829 0.43895
 C828 C 0.32288 0.89291 0.44101
 H829 H 0.29822 0.89515 0.42711
 H830 H 0.32947 0.88950 0.44684
 H831 H 0.32450 0.92401 0.42973
 H832 H 0.33008 0.91526 0.41717
 O833 O 0.28107 0.49958 0.76567
 O834 O 0.27721 0.51968 0.76394
 O835 O 0.25087 0.48509 0.78133
 O836 O 0.23142 0.48510 0.77801
 O837 O 0.26541 0.46916 0.75104
 O838 O 0.26441 0.47332 0.73055
 O839 O 0.21967 0.51546 0.74925
 O840 O 0.22270 0.51296 0.76942
 O841 O 0.24882 0.53046 0.73490
 O842 O 0.27007 0.52679 0.73606
 O843 O 0.23487 0.50104 0.71981
 O844 O 0.23597 0.47989 0.72371
 O845 O 0.21980 0.50142 0.73516
 O846 O 0.22391 0.47958 0.73678
 O847 O 0.24882 0.51516 0.71976
 O848 O 0.27059 0.51366 0.72404
 O849 O 0.23455 0.53031 0.74867
 O850 O 0.23854 0.52690 0.77001
 O851 O 0.28131 0.48569 0.75140
 O852 O 0.27712 0.48678 0.73050
 O853 O 0.25132 0.46899 0.76503
 O854 O 0.23008 0.47346 0.76295
 O855 O 0.26500 0.49907 0.78136
 O856 O 0.26194 0.52023 0.77695
 Zr857 Zr 0.26414 0.50660 0.76457
 O858 O 0.25395 0.51773 0.75404
 Zr859 Zr 0.24382 0.48578 0.76435
 O860 O 0.23258 0.49620 0.75416
 Zr861 Zr 0.26446 0.48608 0.74391
 O862 O 0.25402 0.49618 0.73261
 Zr863 Zr 0.23625 0.51397 0.75689
 O864 O 0.24638 0.50359 0.76838
 Zr865 Zr 0.25676 0.51395 0.73631
 O866 O 0.26813 0.50385 0.74679
 Zr867 Zr 0.23629 0.49333 0.73642
 O868 O 0.24674 0.48195 0.74660
 O869 O 0.26139 0.48893 0.76151
 O870 O 0.23912 0.51102 0.73921
 C871 C 0.28610 0.49135 0.75988
 C872 C 0.25927 0.49073 0.78626
 C873 C 0.25972 0.46416 0.75933
 C874 C 0.21499 0.51001 0.74060
 C875 C 0.24007 0.53512 0.74016
 C876 C 0.24025 0.50965 0.71502
 H877 H 0.25570 0.52598 0.75593
 H878 H 0.25589 0.49427 0.72441
 H879 H 0.26639 0.48397 0.76650
 H880 H 0.22435 0.49445 0.75606
 H881 H 0.22640 0.51060 0.77687
 H882 H 0.22517 0.49071 0.77602
 H883 H 0.26899 0.50734 0.71835
 H884 H 0.28109 0.49443 0.73126
 H885 H 0.23185 0.53237 0.76952
 H886 H 0.26814 0.51954 0.78298
 H887 H 0.24313 0.48061 0.71894
 H888 H 0.25660 0.46962 0.73072
 H889 H 0.28059 0.51944 0.75598
 H890 H 0.26919 0.53166 0.74315
 H891 H 0.23157 0.46881 0.75581
 H892 H 0.21821 0.48129 0.74304
 O893 O 0.26544 -0.03120 0.25104
 O894 O 0.26368 -0.02763 0.23093
 O895 O 0.28128 -0.00066 0.26499
 O896 O 0.27791 0.01875 0.26493
 O897 O 0.25111 -0.01512 0.28131
 O898 O 0.23058 -0.01410 0.27723
 O899 O 0.24918 0.03001 0.23434
 O900 O 0.26931 0.02699 0.23682
 O901 O 0.23462 0.00067 0.21983
 O902 O 0.23588 -0.02063 0.22383
 O903 O 0.21975 0.01500 0.24906
 O904 O 0.22365 0.01431 0.27014
 O905 O 0.23516 0.03011 0.24841
 O906 O 0.23686 0.02625 0.27036
 O907 O 0.21959 0.00080 0.23519
 O908 O 0.22381 -0.02088 0.23691
 O909 O 0.24845 0.01491 0.21974
 O910 O 0.26979 0.01091 0.22314
 O911 O 0.25129 -0.03125 0.26503
 O912 O 0.23041 -0.02704 0.26395
 O913 O 0.26513 -0.00104 0.28123
 O914 O 0.26291 0.02019 0.27648
 O915 O 0.28120 -0.01505 0.25126
 O916 O 0.27667 -0.01239 0.23008
 Zr917 Zr 0.26437 -0.01435 0.24381
 O918 O 0.25383 -0.00432 0.23256
 Zr919 Zr 0.26429 0.00628 0.26435
 O920 O 0.25410 0.01737 0.25378
 Zr921 Zr 0.24386 -0.01438 0.26442
 O922 O 0.23255 -0.00408 0.25418
 Zr923 Zr 0.25675 0.01343 0.23606
 O924 O 0.26824 0.00346 0.24657
 Zr925 Zr 0.23613 -0.00708 0.23644
 O926 O 0.24662 -0.01830 0.24668
 Zr927 Zr 0.23637 0.01372 0.25675
 O928 O 0.24656 0.00342 0.26827
 O929 O 0.26144 -0.01135 0.26145
 O930 O 0.23908 0.01062 0.23910
 C931 C 0.25970 -0.03613 0.25935
 C932 C 0.28616 -0.00914 0.25945
 C933 C 0.25947 -0.00940 0.28619
 C934 C 0.24059 0.03480 0.23974
 C935 C 0.23989 0.00935 0.21505
 C936 C 0.21490 0.00946 0.24057
 H937 H 0.25567 -0.00620 0.22432
 H938 H 0.22435 -0.00592 0.25614
 H939 H 0.26646 -0.01629 0.26644
 H940 H 0.25603 0.02563 0.25541
 H941 H 0.27676 0.02332 0.23923
 H942 H 0.27600 0.02481 0.25908
 H943 H 0.21826 -0.01928 0.24333
 H944 H 0.23112 -0.03112 0.25636
 H945 H 0.26929 0.01752 0.21755
 H946 H 0.28271 -0.01855 0.23086
 H947 H 0.21906 0.00701 0.26971
 H948 H 0.23086 -0.00625 0.28087
 H949 H 0.25570 -0.03095 0.23118
 H950 H 0.24281 -0.01966 0.21878
 H951 H 0.25586 0.01869 0.28125
 H952 H 0.24304 0.03200 0.26850
 O953 O 0.49954 0.76550 0.28115
 O954 O 0.51968 0.76361 0.27750
 O955 O 0.48556 0.78149 0.25088
 O956 O 0.48555 0.77828 0.23142
 O957 O 0.46924 0.75112 0.26507
 O958 O 0.47337 0.73060 0.26398
 O959 O 0.51585 0.74954 0.21969
 O960 O 0.51343 0.76971 0.22292
 O961 O 0.53059 0.73485 0.24881
 O962 O 0.52675 0.73591 0.27015
 O963 O 0.50123 0.72001 0.23456
 O964 O 0.48010 0.72398 0.23553
 O965 O 0.50179 0.73548 0.21963
 O966 O 0.47991 0.73720 0.22359
 O967 O 0.51521 0.71979 0.24865
 O968 O 0.51367 0.72385 0.27039
 O969 O 0.53056 0.74874 0.23464
 O970 O 0.52725 0.77005 0.23888
 O971 O 0.48552 0.75137 0.28116
 O972 O 0.48669 0.73049 0.27689
 O973 O 0.46927 0.76526 0.25111
 O974 O 0.47389 0.76331 0.22991
 O975 O 0.49937 0.78131 0.26518
 O976 O 0.52050 0.77677 0.26237
 Zr977 Zr 0.50675 0.76447 0.26428
 O978 O 0.51791 0.75400 0.25406
 Zr979 Zr 0.48612 0.76454 0.24375
 O980 O 0.49655 0.75439 0.23251
 Zr981 Zr 0.48614 0.74395 0.26426
 O982 O 0.49628 0.73269 0.25381
 Zr983 Zr 0.51429 0.75703 0.23635
 O984 O 0.50390 0.76846 0.24651
 Zr985 Zr 0.51405 0.73627 0.25670
 O986 O 0.50389 0.74668 0.26809
 Zr987 Zr 0.49358 0.73664 0.23606
 O988 O 0.48217 0.74679 0.24651
 O989 O 0.48910 0.76155 0.26134
 O990 O 0.51125 0.73934 0.23905
 C991 C 0.49119 0.75979 0.28606
 C992 C 0.49116 0.78631 0.25936
 C993 C 0.46434 0.75951 0.25940
 C994 C 0.51041 0.74094 0.21490
 C995 C 0.53530 0.74015 0.24011
 C996 C 0.50976 0.71514 0.23999
 H997 H 0.52616 0.75583 0.25590
 H998 H 0.49432 0.72448 0.25559
 H999 H 0.48412 0.76655 0.26632
 H1000 H 0.49487 0.75637 0.22427
 H1001 H 0.51108 0.77713 0.22669
 H1002 H 0.49121 0.77632 0.22520
 H1003 H 0.50721 0.71832 0.26880
 H1004 H 0.49433 0.73118 0.28089
 H1005 H 0.53276 0.76962 0.23221
 H1006 H 0.51979 0.78273 0.26863
 H1007 H 0.48075 0.71916 0.24266
 H1008 H 0.46972 0.73087 0.25614
 H1009 H 0.51934 0.75562 0.28080
 H1010 H 0.53176 0.74289 0.26925
 H1011 H 0.46923 0.75615 0.23128
 H1012 H 0.48176 0.74340 0.21787
 O1013 O 0.03110 0.73482 0.74936
 O1014 O 0.02742 0.73656 0.76951
 O1015 O 0.00070 0.71916 0.73514
 O1016 O -0.01874 0.72253 0.73531
 O1017 O 0.01521 0.74941 0.71910
 O1018 O 0.01425 0.76994 0.72332
 O1019 O -0.03015 0.75125 0.76578
 O1020 O -0.02718 0.73108 0.76319
 O1021 O -0.00077 0.76547 0.78065
 O1022 O 0.02051 0.76427 0.77668
 O1023 O -0.01494 0.78070 0.75141
 O1024 O -0.01402 0.77685 0.73019
 O1025 O -0.03008 0.76536 0.75178
 O1026 O -0.02614 0.76384 0.72993
 O1027 O -0.00091 0.78066 0.76545
 O1028 O 0.02078 0.77648 0.76374
 O1029 O -0.01513 0.75176 0.78052
 O1030 O -0.01124 0.73044 0.77699
 O1031 O 0.03126 0.74906 0.73545
 O1032 O 0.02715 0.76995 0.73666
 O1033 O 0.00109 0.73543 0.71904
 O1034 O -0.02007 0.73760 0.72364
 O1035 O 0.01495 0.71913 0.74901
 O1036 O 0.01218 0.72354 0.77018
 Zr1037 Zr 0.01423 0.73592 0.75654
 O1038 O 0.00415 0.74642 0.76778
 Zr1039 Zr -0.00628 0.73616 0.73589
 O1040 O -0.01739 0.74637 0.74641
 Zr1041 Zr 0.01443 0.75656 0.73605
 O1042 O 0.00413 0.76786 0.74630
 Zr1043 Zr -0.01359 0.74359 0.76414
 O1044 O -0.00356 0.73212 0.75366
 Zr1045 Zr 0.00699 0.76414 0.76404
 O1046 O 0.01824 0.75369 0.75379
 Zr1047 Zr -0.01365 0.76411 0.74358
 O1048 O -0.00334 0.75392 0.73208
 O1049 O 0.01134 0.73897 0.73890
 O1050 O -0.01068 0.76128 0.76124
 C1051 C 0.03609 0.74059 0.74108
 C1052 C 0.00912 0.71423 0.74073
 C1053 C 0.00947 0.74110 0.71415
 C1054 C -0.03485 0.75991 0.76038
 C1055 C -0.00952 0.76022 0.78534
 C1056 C -0.00950 0.78543 0.76003
 H1057 H 0.00597 0.74450 0.77601
 H1058 H 0.00600 0.77608 0.74441
 H1059 H 0.01628 0.73397 0.73389
 H1060 H -0.02565 0.74449 0.74471
 H1061 H -0.02353 0.72364 0.76073
 H1062 H -0.02500 0.72462 0.74086
 H1063 H 0.01920 0.78209 0.75736
 H1064 H 0.03112 0.76923 0.74431
 H1065 H -0.01789 0.73092 0.78252
 H1066 H 0.01836 0.71752 0.76943
 H1067 H -0.00686 0.78163 0.73091
 H1068 H 0.00641 0.76974 0.71968
 H1069 H 0.03086 0.74449 0.76921
 H1070 H 0.01953 0.75727 0.78165
 H1071 H -0.01861 0.74477 0.71903
 H1072 H -0.03180 0.75753 0.73160
 O1073 O 0.00103 0.03050 0.01573
 O1074 O -0.01907 0.02674 0.01398
 O1075 O 0.01534 0.00006 0.03120
 O1076 O 0.01529 -0.01935 0.02772
 O1077 O 0.03131 0.01483 0.00102
 O1078 O 0.02712 0.01394 -0.01949
 O1079 O -0.01513 -0.03080 -0.00097
 O1080 O -0.01264 -0.02785 0.01916
 O1081 O -0.03010 -0.00142 -0.01519
 O1082 O -0.02625 0.01982 -0.01392
 O1083 O -0.00083 -0.01546 -0.03040
 O1084 O 0.02031 -0.01446 -0.02660
 O1085 O -0.00115 -0.03065 -0.01507
 O1086 O 0.02071 -0.02652 -0.01354
 O1087 O -0.01490 -0.00148 -0.03034
 O1088 O -0.01319 0.02028 -0.02601
 O1089 O -0.02994 -0.01584 -0.00155
 O1090 O -0.02648 -0.01198 0.01982
 O1091 O 0.01486 0.03080 0.00143
 O1092 O 0.01375 0.02672 -0.01948
 O1093 O 0.03143 0.00064 0.01492
 O1094 O 0.02689 -0.02057 0.01264
 O1095 O 0.00145 0.01425 0.03133
 O1096 O -0.01972 0.01138 0.02687
 Zr1097 Zr -0.00608 0.01359 0.01451
 O1098 O -0.01728 0.00350 0.00394
 Zr1099 Zr 0.01462 -0.00682 0.01416
 O1100 O 0.00413 -0.01795 0.00391
 Zr1101 Zr 0.01439 0.01397 -0.00614
 O1102 O 0.00420 0.00364 -0.01750
 Zr1103 Zr -0.01360 -0.01423 0.00669
 O1104 O -0.00314 -0.00421 0.01822
 Zr1105 Zr -0.01354 0.00641 -0.01378
 O1106 O -0.00336 0.01768 -0.00324
 Zr1107 Zr 0.00697 -0.01415 -0.01381
 O1108 O 0.01843 -0.00380 -0.00358
 O1109 O 0.01156 0.01080 0.01145
 O1110 O -0.01069 -0.01127 -0.01098
 C1111 C 0.00924 0.03556 0.00995
 C1112 C 0.00974 0.00843 0.03619
 C1113 C 0.03629 0.00907 0.00929
 C1114 C -0.00971 -0.03548 -0.00962
 C1115 C -0.03476 -0.01022 -0.00999
 C1116 C -0.00946 -0.01006 -0.03513
 H1117 H -0.02552 0.00528 0.00584
 H1118 H 0.00609 0.00554 -0.02570
 H1119 H 0.01654 0.01575 0.01648
 H1120 H 0.00586 -0.02621 0.00577
 H1121 H -0.01019 -0.02420 0.02662
 H1122 H 0.00968 -0.02559 0.02565
 H1123 H -0.00693 0.01864 -0.03174
 H1124 H 0.00609 0.03066 -0.01876
 H1125 H -0.03200 -0.01865 0.01928
 H1126 H -0.01897 0.01752 0.03295
 H1127 H 0.01968 -0.00720 -0.03124
 H1128 H 0.03080 0.00611 -0.01934
 H1129 H -0.01882 0.03018 0.00605
 H1130 H -0.03110 0.01892 -0.00684
 H1131 H 0.03156 -0.01902 0.00553
 H1132 H 0.01902 -0.03225 -0.00730
 O1133 O 0.00081 0.53077 0.51577
 O1134 O -0.01930 0.52701 0.51410
 O1135 O 0.01521 0.50039 0.53123
 O1136 O 0.01514 0.48096 0.52778
 O1137 O 0.03104 0.51510 0.50098
 O1138 O 0.02675 0.51414 0.48046
 O1139 O -0.01545 0.46946 0.49924
 O1140 O -0.01279 0.47242 0.51938
 O1141 O -0.03047 0.49877 0.48511
 O1142 O -0.02658 0.52007 0.48632
 O1143 O -0.00125 0.48477 0.46972
 O1144 O 0.01988 0.48572 0.47342
 O1145 O -0.00157 0.46961 0.48502
 O1146 O 0.02034 0.47369 0.48653
 O1147 O -0.01536 0.49871 0.46986
 O1148 O -0.01367 0.52044 0.47409
 O1149 O -0.03022 0.48437 0.49876
 O1150 O -0.02664 0.48830 0.52010
 O1151 O 0.01458 0.53105 0.50142
 O1152 O 0.01337 0.52694 0.48052
 O1153 O 0.03122 0.50092 0.51488
 O1154 O 0.02667 0.47970 0.51265
 O1155 O 0.00131 0.51457 0.53139
 O1156 O -0.01988 0.51169 0.52704
 Zr1157 Zr -0.00630 0.51386 0.51462
 O1158 O -0.01755 0.50375 0.50413
 Zr1159 Zr 0.01441 0.49345 0.51421
 O1160 O 0.00387 0.48230 0.50402
 Zr1161 Zr 0.01408 0.51421 0.49388
 O1162 O 0.00383 0.50386 0.48259
 Zr1163 Zr -0.01384 0.48602 0.50690
 O1164 O -0.00333 0.49607 0.51835
 Zr1165 Zr -0.01390 0.50663 0.48639
 O1166 O -0.00365 0.51792 0.49684
 Zr1167 Zr 0.00661 0.48608 0.48628
 O1168 O 0.01812 0.49645 0.49644
 O1169 O 0.01133 0.51107 0.51148
 O1170 O -0.01102 0.48896 0.48920
 C1171 C 0.00899 0.53583 0.50995
 C1172 C 0.00963 0.50877 0.53622
 C1173 C 0.03605 0.50935 0.50925
 C1174 C -0.01011 0.46479 0.49053
 C1175 C -0.03509 0.48998 0.49034
 C1176 C -0.00992 0.49015 0.46504
 H1177 H -0.02578 0.50552 0.50607
 H1178 H 0.00568 0.50575 0.47437
 H1179 H 0.01633 0.51603 0.51647
 H1180 H 0.00561 0.47404 0.50587
 H1181 H -0.01031 0.47609 0.52682
 H1182 H 0.00955 0.47470 0.52574
 H1183 H -0.00737 0.51885 0.46839
 H1184 H 0.00570 0.53086 0.48125
 H1185 H -0.03215 0.48162 0.51962
 H1186 H -0.01911 0.51785 0.53310
 H1187 H 0.01929 0.49302 0.46884
 H1188 H 0.03046 0.50633 0.48065
 H1189 H -0.01908 0.53043 0.50617
 H1190 H -0.03149 0.51909 0.49336
 H1191 H 0.03129 0.48124 0.50550
 H1192 H 0.01862 0.46792 0.49272
 O1193 O 0.53109 0.01545 0.50102
 O1194 O 0.52743 0.01370 0.48087
 O1195 O 0.50075 0.03125 0.51513
 O1196 O 0.48130 0.02795 0.51492
 O1197 O 0.51512 0.00099 0.53127
 O1198 O 0.51404 -0.01954 0.52709
 O1199 O 0.46979 -0.00078 0.48440
 O1200 O 0.47284 0.01938 0.48700
 O1201 O 0.49909 -0.01516 0.46971
 O1202 O 0.52039 -0.01398 0.47374
 O1203 O 0.48483 -0.03026 0.49891
 O1204 O 0.48570 -0.02640 0.52009
 O1205 O 0.46976 -0.01486 0.49842
 O1206 O 0.47369 -0.01328 0.52033
 O1207 O 0.49891 -0.03030 0.48494
 O1208 O 0.52059 -0.02618 0.48669
 O1209 O 0.48481 -0.00139 0.46975
 O1210 O 0.48883 0.01994 0.47325
 O1211 O 0.53117 0.00123 0.51495
 O1212 O 0.52694 -0.01964 0.51379
 O1213 O 0.50105 0.01501 0.53126
 O1214 O 0.47987 0.01290 0.52658
 O1215 O 0.51500 0.03121 0.50129
 O1216 O 0.51224 0.02677 0.48013
 Zr1217 Zr 0.51422 0.01440 0.49380
 O1218 O 0.50411 0.00392 0.48254
 Zr1219 Zr 0.49369 0.01427 0.51439
 O1220 O 0.48254 0.00409 0.50384
 Zr1221 Zr 0.51430 -0.00620 0.51434
 O1222 O 0.50395 -0.01748 0.50407
 Zr1223 Zr 0.48638 0.00682 0.48612
 O1224 O 0.49644 0.01827 0.49662
 Zr1225 Zr 0.50686 -0.01380 0.48633
 O1226 O 0.51815 -0.00337 0.49660
 Zr1227 Zr 0.48618 -0.01366 0.50670
 O1228 O 0.49653 -0.00349 0.51823
 O1229 O 0.51129 0.01140 0.51144
 O1230 O 0.48920 -0.01087 0.48906
 C1231 C 0.53604 0.00968 0.50931
 C1232 C 0.50919 0.03615 0.50955
 C1233 C 0.50941 0.00933 0.53619
 C1234 C 0.46503 -0.00942 0.48978
 C1235 C 0.49037 -0.00989 0.46498
 C1236 C 0.49028 -0.03504 0.49033
 H1237 H 0.50594 0.00581 0.47431
 H1238 H 0.50578 -0.02569 0.50598
 H1239 H 0.51626 0.01639 0.51645
 H1240 H 0.47429 0.00601 0.50550
 H1241 H 0.47654 0.02682 0.48944
 H1242 H 0.47505 0.02590 0.50932
 H1243 H 0.51899 -0.03177 0.49309
 H1244 H 0.53093 -0.01895 0.50615
 H1245 H 0.48218 0.01949 0.46770
 H1246 H 0.51846 0.03277 0.48089
 H1247 H 0.49290 -0.03112 0.51950
 H1248 H 0.50621 -0.01929 0.53073
 H1249 H 0.53082 0.00575 0.48119
 H1250 H 0.51942 -0.00702 0.46872
 H1251 H 0.48130 0.00575 0.53123
 H1252 H 0.46801 -0.00701 0.51856
 O1253 O 0.53078 0.51574 0.00076
 O1254 O 0.52696 0.51398 -0.01938
 O1255 O 0.50050 0.53125 0.01518
 O1256 O 0.48110 0.52788 0.01521
 O1257 O 0.51523 0.50097 0.03103
 O1258 O 0.51417 0.48049 0.02680
 O1259 O 0.46940 0.49930 -0.01536
 O1260 O 0.47242 0.51943 -0.01276
 O1261 O 0.49864 0.48506 -0.03040
 O1262 O 0.51990 0.48618 -0.02660
 O1263 O 0.48469 0.46976 -0.00107
 O1264 O 0.48565 0.47355 0.02005
 O1265 O 0.46956 0.48510 -0.00145
 O1266 O 0.47371 0.48674 0.02050
 O1267 O 0.49858 0.46984 -0.01522
 O1268 O 0.52033 0.47406 -0.01357
 O1269 O 0.48429 0.49875 -0.03016
 O1270 O 0.48826 0.52010 -0.02663
 O1271 O 0.53107 0.50139 0.01455
 O1272 O 0.52688 0.48045 0.01334
 O1273 O 0.50105 0.51487 0.03126
 O1274 O 0.47982 0.51281 0.02676
 O1275 O 0.51461 0.53135 0.00120
 O1276 O 0.51169 0.52698 -0.01995
 Zr1277 Zr 0.51386 0.51457 -0.00634
 O1278 O 0.50368 0.50409 -0.01754
 Zr1279 Zr 0.49353 0.51425 0.01445
 O1280 O 0.48230 0.50410 0.00395
 Zr1281 Zr 0.51422 0.49387 0.01409
 O1282 O 0.50379 0.48260 0.00390
 Zr1283 Zr 0.48598 0.50692 -0.01379
 O1284 O 0.49610 0.51836 -0.00333
 Zr1285 Zr 0.50653 0.48636 -0.01384
 O1286 O 0.51789 0.49680 -0.00367
 Zr1287 Zr 0.48604 0.48635 0.00672
 O1288 O 0.49649 0.49649 0.01818
 O1289 O 0.51111 0.51147 0.01131
 O1290 O 0.48888 0.48923 -0.01094
 C1291 C 0.53584 0.50992 0.00896
 C1292 C 0.50886 0.53621 0.00954
 C1293 C 0.50949 0.50921 0.03607
 C1294 C 0.46473 0.49060 -0.01000
 C1295 C 0.48986 0.49030 -0.03502
 C1296 C 0.49005 0.46504 -0.00973
 H1297 H 0.50544 0.50602 -0.02578
 H1298 H 0.50566 0.47439 0.00577
 H1299 H 0.51610 0.51647 0.01630
 H1300 H 0.47406 0.50599 0.00570
 H1301 H 0.47610 0.52687 -0.01030
 H1302 H 0.47484 0.52590 0.00960
 H1303 H 0.51871 0.46835 -0.00729
 H1304 H 0.53085 0.48124 0.00570
 H1305 H 0.48159 0.51960 -0.03214
 H1306 H 0.51790 0.53300 -0.01923
 H1307 H 0.49295 0.46896 0.01949
 H1308 H 0.50637 0.48069 0.03052
 H1309 H 0.53040 0.50605 -0.01910
 H1310 H 0.51900 0.49328 -0.03144
 H1311 H 0.48132 0.50566 0.03138
 H1312 H 0.46786 0.49284 0.01869
 O1313 O 0.76567 0.28096 0.49936
 O1314 O 0.76396 0.27722 0.51948
 O1315 O 0.78147 0.25066 0.48511
 O1316 O 0.77819 0.23119 0.48525
 O1317 O 0.75122 0.26504 0.46898
 O1318 O 0.73071 0.26401 0.47312
 O1319 O 0.74942 0.21961 0.51562
 O1320 O 0.76956 0.22264 0.51311
 O1321 O 0.73501 0.24884 0.53040
 O1322 O 0.73622 0.27015 0.52654
 O1323 O 0.71998 0.23472 0.50105
 O1324 O 0.72391 0.23564 0.47989
 O1325 O 0.73539 0.21960 0.50153
 O1326 O 0.73696 0.22358 0.47969
 O1327 O 0.71991 0.24876 0.51509
 O1328 O 0.72410 0.27047 0.51349
 O1329 O 0.74882 0.23460 0.53037
 O1330 O 0.77014 0.23860 0.52693
 O1331 O 0.75148 0.28107 0.48538
 O1332 O 0.73063 0.27686 0.48646
 O1333 O 0.76523 0.25096 0.46895
 O1334 O 0.76316 0.22976 0.47356
 O1335 O 0.78143 0.26489 0.49899
 O1336 O 0.77700 0.26201 0.52015
 Zr1337 Zr 0.76464 0.26406 0.50647
 O1338 O 0.75414 0.25392 0.51766
 Zr1339 Zr 0.76451 0.24358 0.48580
 O1340 O 0.75432 0.23240 0.49627
 Zr1341 Zr 0.74405 0.26420 0.48589
 O1342 O 0.73277 0.25383 0.49608
 Zr1343 Zr 0.75703 0.23620 0.51402
 O1344 O 0.76850 0.24628 0.50359
 Zr1345 Zr 0.73643 0.25669 0.51384
 O1346 O 0.74687 0.26800 0.50365
 Zr1347 Zr 0.73659 0.23606 0.49335
 O1348 O 0.74677 0.24644 0.48191
 O1349 O 0.76164 0.26118 0.48881
 O1350 O 0.73936 0.23902 0.51103
 C1351 C 0.75991 0.28594 0.49107
 C1352 C 0.78636 0.25910 0.49071
 C1353 C 0.75954 0.25932 0.46404
 C1354 C 0.74082 0.21486 0.51017
 C1355 C 0.74030 0.24013 0.53512
 C1356 C 0.71519 0.24016 0.50962
 H1357 H 0.75602 0.25574 0.52591
 H1358 H 0.72456 0.25567 0.49414
 H1359 H 0.76662 0.26617 0.48383
 H1360 H 0.75624 0.22415 0.49457
 H1361 H 0.77701 0.22633 0.51071
 H1362 H 0.77615 0.22494 0.49083
 H1363 H 0.71853 0.26890 0.50707
 H1364 H 0.73133 0.28085 0.49411
 H1365 H 0.76968 0.23193 0.53244
 H1366 H 0.78301 0.26822 0.51943
 H1367 H 0.71915 0.24282 0.48055
 H1368 H 0.73094 0.25619 0.46944
 H1369 H 0.75600 0.28059 0.51920
 H1370 H 0.74319 0.26918 0.53155
 H1371 H 0.75600 0.23119 0.46891
 H1372 H 0.74325 0.21792 0.48141
 O1373 O 0.75082 0.76578 -0.03093
 O1374 O 0.73068 0.76413 -0.02715
 O1375 O 0.76530 0.78125 -0.00060
 O1376 O 0.76540 0.77787 0.01882
 O1377 O 0.78099 0.75079 -0.01528
 O1378 O 0.77659 0.73035 -0.01432
 O1379 O 0.73463 0.74953 0.03045
 O1380 O 0.73740 0.76966 0.02741
 O1381 O 0.71952 0.73529 0.00123
 O1382 O 0.72327 0.73649 -0.02010
 O1383 O 0.74870 0.71988 0.01515
 O1384 O 0.76985 0.72351 0.01421
 O1385 O 0.74846 0.73526 0.03032
 O1386 O 0.77038 0.73666 0.02619
 O1387 O 0.73458 0.72000 0.00120
 O1388 O 0.73615 0.72421 -0.02052
 O1389 O 0.71984 0.74902 0.01557
 O1390 O 0.72347 0.77035 0.01156
 O1391 O 0.76456 0.75138 -0.03120
 O1392 O 0.76313 0.73046 -0.02708
 O1393 O 0.78129 0.76475 -0.00113
 O1394 O 0.77680 0.76272 0.02010
 O1395 O 0.75137 0.78140 -0.01479
 O1396 O 0.73021 0.77718 -0.01188
 Zr1397 Zr 0.74372 0.76468 -0.01402
 O1398 O 0.73246 0.75429 -0.00386
 Zr1399 Zr 0.76450 0.76425 0.00636
 O1400 O 0.75396 0.75418 0.01757
 Zr1401 Zr 0.76400 0.74385 -0.01436
 O1402 O 0.75375 0.73266 -0.00395
 Zr1403 Zr 0.73624 0.75711 0.01386
 O1404 O 0.74676 0.76847 0.00376
 Zr1405 Zr 0.73603 0.73653 -0.00670
 O1406 O 0.74627 0.74688 -0.01805
 Zr1407 Zr 0.75661 0.73641 0.01383
 O1408 O 0.76812 0.74646 0.00339
 O1409 O 0.76134 0.76147 -0.01124
 O1410 O 0.73898 0.73940 0.01096
 C1411 C 0.75901 0.75995 -0.03597
 C1412 C 0.75971 0.78624 -0.00899
 C1413 C 0.78606 0.75904 -0.00956
 C1414 C 0.73995 0.74081 0.03513
 C1415 C 0.71495 0.74056 0.01003
 C1416 C 0.74004 0.71519 0.00975
 H1417 H 0.72424 0.75626 -0.00562
 H1418 H 0.75556 0.72443 -0.00582
 H1419 H 0.76636 0.76643 -0.01621
 H1420 H 0.75573 0.75606 0.02581
 H1421 H 0.73985 0.77708 0.02371
 H1422 H 0.75972 0.77597 0.02503
 H1423 H 0.74250 0.71856 -0.01900
 H1424 H 0.75551 0.73134 -0.03107
 H1425 H 0.71801 0.76994 0.01826
 H1426 H 0.73096 0.78317 -0.01810
 H1427 H 0.76919 0.71887 0.00695
 H1428 H 0.78028 0.73049 -0.00649
 H1429 H 0.73088 0.75619 -0.03056
 H1430 H 0.71838 0.74353 -0.01909
 H1431 H 0.78134 0.75552 0.01862
 H1432 H 0.76867 0.74283 0.03200
 O1433 O 1.03087 0.23436 0.24930
 O1434 O 1.02719 0.23610 0.26943
 O1435 O 1.00050 0.21875 0.23502
 O1436 O 0.98107 0.22212 0.23510
 O1437 O 1.01508 0.24904 0.21906
 O1438 O 1.01408 0.26953 0.22326
 O1439 O 0.96960 0.25072 0.26565
 O1440 O 0.97263 0.23058 0.26308
 O1441 O 0.99891 0.26509 0.28052
 O1442 O 1.02016 0.26390 0.27668
 O1443 O 0.98478 0.28025 0.25130
 O1444 O 0.98565 0.27648 0.23017
 O1445 O 0.96966 0.26487 0.25170
 O1446 O 0.97368 0.26330 0.22977
 O1447 O 0.99883 0.28024 0.26532
 O1448 O 1.02055 0.27601 0.26363
 O1449 O 0.98458 0.25136 0.28041
 O1450 O 0.98855 0.23001 0.27692
 O1451 O 1.03106 0.24867 0.23546
 O1452 O 1.02690 0.26958 0.23666
 O1453 O 1.00092 0.23510 0.21892
 O1454 O 0.97972 0.23719 0.22354
 O1455 O 1.01470 0.21869 0.24893
 O1456 O 1.01190 0.22312 0.27011
 Zr1457 Zr 1.01400 0.23549 0.25646
 O1458 O 1.00391 0.24599 0.26770
 Zr1459 Zr 0.99352 0.23575 0.23577
 O1460 O 0.98239 0.24592 0.24631
 Zr1461 Zr 1.01422 0.25616 0.23600
 O1462 O 1.00388 0.26744 0.24622
 Zr1463 Zr 0.98618 0.24314 0.26404
 O1464 O 0.99621 0.23169 0.25354
 Zr1465 Zr 1.00673 0.26371 0.26396
 O1466 O 1.01801 0.25327 0.25374
 Zr1467 Zr 0.98610 0.26367 0.24349
 O1468 O 0.99646 0.25351 0.23199
 O1469 O 1.01113 0.23856 0.23882
 O1470 O 0.98906 0.26083 0.26114
 C1471 C 1.03587 0.24016 0.24106
 C1472 C 1.00889 0.21381 0.24062
 C1473 C 1.00932 0.24076 0.21406
 C1474 C 0.96488 0.25938 0.26027
 C1475 C 0.99015 0.25985 0.28520
 C1476 C 0.99022 0.28500 0.25991
 H1477 H 1.00572 0.24408 0.27594
 H1478 H 1.00574 0.27566 0.24433
 H1479 H 1.01608 0.23356 0.23381
 H1480 H 0.97413 0.24402 0.24460
 H1481 H 0.97631 0.22315 0.26064
 H1482 H 0.97487 0.22411 0.24076
 H1483 H 1.01893 0.28168 0.25731
 H1484 H 1.03093 0.26880 0.24428
 H1485 H 0.98189 0.23049 0.28244
 H1486 H 1.01807 0.21708 0.26936
 H1487 H 0.99293 0.28109 0.23071
 H1488 H 1.00625 0.26932 0.21959
 H1489 H 1.03057 0.24406 0.26920
 H1490 H 1.01924 0.25685 0.28159
 H1491 H 0.98119 0.24433 0.21890
 H1492 H 0.96791 0.25712 0.23154
 O1493 O 0.71908 1.01532 0.74912
 O1494 O 0.72281 1.01376 0.76926
 O1495 O 0.74940 1.03095 0.73477
 O1496 O 0.76882 1.02765 0.73482
 O1497 O 0.73487 1.00050 0.71896
 O1498 O 0.73594 0.98004 0.72329
 O1499 O 0.78042 0.99930 0.76562
 O1500 O 0.77735 1.01942 0.76289
 O1501 O 0.75123 0.98495 0.78053
 O1502 O 0.72995 0.98604 0.77667
 O1503 O 0.76536 0.96965 0.75137
 O1504 O 0.76444 0.97325 0.73024
 O1505 O 0.78041 0.98507 0.75172
 O1506 O 0.77634 0.98651 0.72976
 O1507 O 0.75133 0.96967 0.76539
 O1508 O 0.72959 0.97383 0.76370
 O1509 O 0.76550 0.99875 0.78032
 O1510 O 0.76143 1.02005 0.77672
 O1511 O 0.71892 1.00096 0.73531
 O1512 O 0.72314 0.98006 0.73671
 O1513 O 0.74898 1.01449 0.71876
 O1514 O 0.77021 1.01249 0.72340
 O1515 O 0.73519 1.03107 0.74865
 O1516 O 0.73803 1.02681 0.76986
 Zr1517 Zr 0.73597 1.01433 0.75629
 O1518 O 0.74612 1.00395 0.76759
 Zr1519 Zr 0.75641 1.01398 0.73561
 O1520 O 0.76761 1.00394 0.74621
 Zr1521 Zr 0.73578 0.99351 0.73594
 O1522 O 0.74620 0.98234 0.74623
 Zr1523 Zr 0.76383 1.00684 0.76392
 O1524 O 0.75374 1.01817 0.75336
 Zr1525 Zr 0.74336 0.98618 0.76395
 O1526 O 0.73203 0.99652 0.75367
 Zr1527 Zr 0.76395 0.98617 0.74348
 O1528 O 0.75353 0.99619 0.73192
 O1529 O 0.73882 1.01114 0.73866
 O1530 O 0.76101 0.98912 0.76112
 C1531 C 0.71409 1.00947 0.74089
 C1532 C 0.74099 1.03592 0.74033
 C1533 C 0.74058 1.00877 0.71394
 C1534 C 0.78516 0.99062 0.76029
 C1535 C 0.75998 0.99026 0.78517
 C1536 C 0.75994 0.96492 0.75999
 H1537 H 0.74432 1.00590 0.77582
 H1538 H 0.74436 0.97411 0.74439
 H1539 H 0.73385 1.01609 0.73363
 H1540 H 0.77585 1.00586 0.74450
 H1541 H 0.77363 1.02683 0.76044
 H1542 H 0.77499 1.02578 0.74057
 H1543 H 0.73119 0.96814 0.75739
 H1544 H 0.71912 0.98090 0.74432
 H1545 H 0.76810 1.01965 0.78224
 H1546 H 0.73183 1.03282 0.76906
 H1547 H 0.75718 0.96861 0.73082
 H1548 H 0.74377 0.98023 0.71964
 H1549 H 0.71945 1.00579 0.76906
 H1550 H 0.73085 0.99313 0.78153
 H1551 H 0.76872 1.00533 0.71877
 H1552 H 0.78214 0.99267 0.73154
 O1553 O 0.74960 0.53116 0.23462
 O1554 O 0.76970 0.52741 0.23633
 O1555 O 0.73523 0.50080 0.21902
 O1556 O 0.73526 0.48139 0.22237
 O1557 O 0.71932 0.51544 0.24930
 O1558 O 0.72353 0.51449 0.26978
 O1559 O 0.76574 0.46981 0.25102
 O1560 O 0.76324 0.47286 0.23086
 O1561 O 0.78066 0.49907 0.26546
 O1562 O 0.77695 0.52034 0.26419
 O1563 O 0.75135 0.48513 0.28053
 O1564 O 0.73026 0.48601 0.27667
 O1565 O 0.75181 0.46995 0.26518
 O1566 O 0.72991 0.47399 0.26354
 O1567 O 0.76542 0.49912 0.28054
 O1568 O 0.76384 0.52087 0.27623
 O1569 O 0.78053 0.48471 0.25174
 O1570 O 0.77713 0.48873 0.23036
 O1571 O 0.73577 0.53139 0.24892
 O1572 O 0.73694 0.52725 0.26982
 O1573 O 0.71915 0.50126 0.23537
 O1574 O 0.72373 0.48003 0.23743
 O1575 O 0.74916 0.51499 0.21896
 O1576 O 0.77032 0.51208 0.22337
 Zr1577 Zr 0.75670 0.51425 0.23575
 O1578 O 0.76791 0.50413 0.24627
 Zr1579 Zr 0.73598 0.49383 0.23601
 O1580 O 0.74647 0.48266 0.24619
 Zr1581 Zr 0.73625 0.51456 0.25641
 O1582 O 0.74642 0.50418 0.26770
 Zr1583 Zr 0.76421 0.48641 0.24343
 O1584 O 0.75375 0.49646 0.23196
 Zr1585 Zr 0.76416 0.50698 0.26399
 O1586 O 0.75399 0.51829 0.25352
 Zr1587 Zr 0.74363 0.48641 0.26392
 O1588 O 0.73218 0.49680 0.25376
 O1589 O 0.73906 0.51144 0.23881
 O1590 O 0.76128 0.48931 0.26111
 C1591 C 0.74139 0.53619 0.24042
 C1592 C 0.74085 0.50919 0.21408
 C1593 C 0.71431 0.50967 0.24105
 C1594 C 0.76035 0.46514 0.25970
 C1595 C 0.78531 0.49027 0.26026
 C1596 C 0.75994 0.49056 0.28530
 H1597 H 0.77614 0.50591 0.24438
 H1598 H 0.74452 0.50607 0.27591
 H1599 H 0.73406 0.51641 0.23382
 H1600 H 0.74474 0.47441 0.24429
 H1601 H 0.76084 0.47656 0.22342
 H1602 H 0.74096 0.47521 0.22431
 H1603 H 0.75753 0.51928 0.28190
 H1604 H 0.74455 0.53128 0.26903
 H1605 H 0.78262 0.48205 0.23086
 H1606 H 0.76958 0.51825 0.21732
 H1607 H 0.73084 0.49328 0.28131
 H1608 H 0.71982 0.50667 0.26958
 H1609 H 0.76953 0.53075 0.24431
 H1610 H 0.78186 0.51938 0.25716
 H1611 H 0.71908 0.48153 0.24457
 H1612 H 0.73169 0.46821 0.25737
 O1613 O 0.50061 0.21901 0.73438
 O1614 O 0.48051 0.22279 0.73609
 O1615 O 0.51502 0.24943 0.71900
 O1616 O 0.51505 0.26883 0.72249
 O1617 O 0.53090 0.23464 0.74926
 O1618 O 0.52663 0.23551 0.76976
 O1619 O 0.48462 0.28036 0.75099
 O1620 O 0.48716 0.27735 0.73085
 O1621 O 0.46950 0.25109 0.76518
 O1622 O 0.47323 0.22978 0.76392
 O1623 O 0.49881 0.26494 0.78052
 O1624 O 0.51993 0.26394 0.77681
 O1625 O 0.49850 0.28014 0.76522
 O1626 O 0.52037 0.27602 0.76376
 O1627 O 0.48467 0.25102 0.78040
 O1628 O 0.48624 0.22929 0.77609
 O1629 O 0.46977 0.26550 0.75155
 O1630 O 0.47321 0.26153 0.73021
 O1631 O 0.51443 0.21870 0.74872
 O1632 O 0.51320 0.22275 0.76965
 O1633 O 0.53109 0.24883 0.73537
 O1634 O 0.52660 0.27004 0.73760
 O1635 O 0.50108 0.23526 0.71881
 O1636 O 0.47991 0.23815 0.72320
 Zr1637 Zr 0.49353 0.23593 0.73559
 O1638 O 0.48233 0.24605 0.74611
 Zr1639 Zr 0.51430 0.25631 0.73604
 O1640 O 0.50383 0.26746 0.74623
 Zr1641 Zr 0.51395 0.23551 0.75633
 O1642 O 0.50376 0.24587 0.76763
 Zr1643 Zr 0.48610 0.26377 0.74336
 O1644 O 0.49654 0.25372 0.73189
 Zr1645 Zr 0.48602 0.24315 0.76384
 O1646 O 0.49619 0.23184 0.75336
 Zr1647 Zr 0.50661 0.26365 0.76396
 O1648 O 0.51806 0.25327 0.75379
 O1649 O 0.51117 0.23869 0.73873
 O1650 O 0.48895 0.26082 0.76105
 C1651 C 0.50882 0.21395 0.74017
 C1652 C 0.50940 0.24108 0.71398
 C1653 C 0.53591 0.24040 0.74102
 C1654 C 0.49000 0.28500 0.75970
 C1655 C 0.46491 0.25992 0.75998
 C1656 C 0.49016 0.25956 0.78521
 H1657 H 0.47410 0.24431 0.74417
 H1658 H 0.50563 0.24396 0.77585
 H1659 H 0.51616 0.23374 0.73372
 H1660 H 0.50560 0.27572 0.74439
 H1661 H 0.48956 0.27366 0.72340
 H1662 H 0.50943 0.27506 0.72451
 H1663 H 0.49258 0.23083 0.78176
 H1664 H 0.50555 0.21879 0.76884
 H1665 H 0.46775 0.26823 0.73069
 H1666 H 0.48064 0.23201 0.71712
 H1667 H 0.51927 0.25668 0.78144
 H1668 H 0.53034 0.24332 0.76963
 H1669 H 0.48071 0.21938 0.74404
 H1670 H 0.46835 0.23075 0.75685
 H1671 H 0.53122 0.26850 0.74475
 H1672 H 0.51869 0.28178 0.75754
 O1673 O 0.21921 0.73506 0.50079
 O1674 O 0.22291 0.73675 0.48067
 O1675 O 0.24950 0.71936 0.51510
 O1676 O 0.26893 0.72264 0.51504
 O1677 O 0.23504 0.74969 0.53106
 O1678 O 0.23615 0.77017 0.52688
 O1679 O 0.28052 0.75124 0.48441
 O1680 O 0.27746 0.73110 0.48703
 O1681 O 0.25129 0.76563 0.46961
 O1682 O 0.23007 0.76459 0.47346
 O1683 O 0.26552 0.78078 0.49890
 O1684 O 0.26467 0.77702 0.51998
 O1685 O 0.28056 0.76535 0.49843
 O1686 O 0.27654 0.76375 0.52038
 O1687 O 0.25152 0.78082 0.48483
 O1688 O 0.22974 0.77667 0.48656
 O1689 O 0.26553 0.75182 0.46970
 O1690 O 0.26150 0.73051 0.47321
 O1691 O 0.21907 0.74938 0.51464
 O1692 O 0.22335 0.77028 0.51346
 O1693 O 0.24915 0.73572 0.53119
 O1694 O 0.27038 0.73774 0.52656
 O1695 O 0.23528 0.71932 0.50120
 O1696 O 0.23813 0.72371 0.48001
 Zr1697 Zr 0.23609 0.73611 0.49365
 O1698 O 0.24622 0.74658 0.48243
 Zr1699 Zr 0.25655 0.73632 0.51435
 O1700 O 0.26775 0.74644 0.50381
 Zr1701 Zr 0.23595 0.75681 0.51413
 O1702 O 0.24637 0.76804 0.50393
 Zr1703 Zr 0.26393 0.74366 0.48608
 O1704 O 0.25385 0.73225 0.49657
 Zr1705 Zr 0.24350 0.76432 0.48618
 O1706 O 0.23216 0.75391 0.49638
 Zr1707 Zr 0.26412 0.76420 0.50666
 O1708 O 0.25370 0.75410 0.51814
 O1709 O 0.23896 0.73919 0.51130
 O1710 O 0.26115 0.76136 0.48900
 C1711 C 0.21422 0.74089 0.50902
 C1712 C 0.24107 0.71443 0.50950
 C1713 C 0.24075 0.74140 0.53605
 C1714 C 0.28528 0.75988 0.48980
 C1715 C 0.26000 0.76033 0.46491
 C1716 C 0.26013 0.78555 0.49028
 H1717 H 0.24440 0.74467 0.47420
 H1718 H 0.24455 0.77627 0.50583
 H1719 H 0.23398 0.73422 0.51630
 H1720 H 0.27599 0.74451 0.50551
 H1721 H 0.27376 0.72366 0.48945
 H1722 H 0.27510 0.72455 0.50932
 H1723 H 0.23142 0.78237 0.49284
 H1724 H 0.21931 0.76950 0.50585
 H1725 H 0.26817 0.73094 0.46770
 H1726 H 0.23193 0.71770 0.48076
 H1727 H 0.25737 0.78160 0.51950
 H1728 H 0.24397 0.76994 0.53057
 H1729 H 0.21955 0.74471 0.48093
 H1730 H 0.23088 0.75748 0.46862
 H1731 H 0.26891 0.74485 0.53125
 H1732 H 0.28231 0.75760 0.51855
 O1733 O 0.26553 0.28107 0.99949
 O1734 O 0.26378 0.27734 1.01965
 O1735 O 0.28141 0.25082 0.98528
 O1736 O 0.27823 0.23135 0.98547
 O1737 O 0.25103 0.26500 0.96918
 O1738 O 0.23054 0.26395 0.97339
 O1739 O 0.24959 0.21962 1.01583
 O1740 O 0.26972 0.22281 1.01333
 O1741 O 0.23496 0.24874 1.03060
 O1742 O 0.23610 0.27007 1.02682
 O1743 O 0.22004 0.23458 1.00132
 O1744 O 0.22395 0.23554 0.98013
 O1745 O 0.23549 0.21958 1.00180
 O1746 O 0.23703 0.22351 0.97996
 O1747 O 0.21987 0.24868 1.01528
 O1748 O 0.22401 0.27040 1.01375
 O1749 O 0.24885 0.23457 1.03057
 O1750 O 0.27014 0.23874 1.02719
 O1751 O 0.25134 0.28109 0.98551
 O1752 O 0.23048 0.27682 0.98672
 O1753 O 0.26512 0.25100 0.96915
 O1754 O 0.26321 0.22981 0.97381
 O1755 O 0.28134 0.26507 0.99916
 O1756 O 0.27692 0.26219 1.02034
 Zr1757 Zr 0.26455 0.26417 1.00666
 O1758 O 0.25411 0.25398 1.01787
 Zr1759 Zr 0.26449 0.24366 0.98602
 O1760 O 0.25437 0.23244 0.99650
 Zr1761 Zr 0.24393 0.26420 0.98612
 O1762 O 0.23271 0.25377 0.99631
 Zr1763 Zr 0.25708 0.23627 1.01424
 O1764 O 0.26849 0.24640 1.00380
 Zr1765 Zr 0.23638 0.25666 1.01407
 O1766 O 0.24676 0.26802 1.00387
 Zr1767 Zr 0.23662 0.23602 0.99359
 O1768 O 0.24673 0.24645 0.98214
 O1769 O 0.26154 0.26126 0.98901
 O1770 O 0.23939 0.23900 1.01126
 C1771 C 0.25977 0.28599 0.99117
 C1772 C 0.28628 0.25929 0.99087
 C1773 C 0.25936 0.25931 0.96424
 C1774 C 0.24097 0.21485 1.01041
 C1775 C 0.24027 0.24004 1.03531
 C1776 C 0.21520 0.24003 1.00985
 H1777 H 0.25598 0.25580 1.02612
 H1778 H 0.22450 0.25557 0.99438
 H1779 H 0.26649 0.26624 0.98400
 H1780 H 0.25633 0.22420 0.99481
 H1781 H 0.27714 0.22656 1.01095
 H1782 H 0.27624 0.22510 0.99108
 H1783 H 0.21848 0.26886 1.00729
 H1784 H 0.23124 0.28087 0.99433
 H1785 H 0.26971 0.23206 1.03269
 H1786 H 0.28289 0.26844 1.01962
 H1787 H 0.21909 0.24264 0.98084
 H1788 H 0.23079 0.25612 0.96973
 H1789 H 0.25581 0.28067 1.01936
 H1790 H 0.24310 0.26914 1.03179
 H1791 H 0.25603 0.23117 0.96918
 H1792 H 0.24337 0.21790 0.98167
 C1793 C 0.29494 0.39141 0.79420
 C1794 C 0.30479 0.38608 0.78922
 C1795 C 0.31000 0.37643 0.79457
 C1796 C 0.30551 0.37188 0.80506
 C1797 C 0.29570 0.37730 0.81008
 C1798 C 0.29047 0.38693 0.80470
 C1799 C 0.28934 0.40161 0.78846
 C1800 C 0.27711 0.40253 0.78792
 C1801 C 0.27184 0.41216 0.78258
 C1802 C 0.27869 0.42109 0.77767
 C1803 C 0.29092 0.42015 0.77819
 C1804 C 0.29618 0.41051 0.78351
 C1805 C 0.27314 0.43153 0.77232
 C1806 C 0.27784 0.43660 0.76218
 C1807 C 0.27316 0.44693 0.75766
 C1808 C 0.26366 0.45242 0.76316
 C1809 C 0.25870 0.44710 0.77306
 C1810 C 0.26338 0.43678 0.77758
 H1811 H 0.30836 0.38926 0.78106
 H1812 H 0.31750 0.37252 0.79038
 H1813 H 0.29201 0.37418 0.81819
 H1814 H 0.28300 0.39097 0.80886
 H1815 H 0.27161 0.39572 0.79151
 H1816 H 0.26240 0.41256 0.78220
 H1817 H 0.29643 0.42700 0.77472
 H1818 H 0.30562 0.41015 0.78397
 H1819 H 0.28523 0.43265 0.75781
 H1820 H 0.27721 0.45076 0.75002
 H1821 H 0.25143 0.45112 0.77759
 H1822 H 0.25963 0.43316 0.78547
 C1823 C 0.29536 -0.10831 0.29480
 C1824 C 0.29093 -0.11282 0.30531
 C1825 C 0.29618 -0.12246 0.31065
 C1826 C 0.30598 -0.12785 0.30557
 C1827 C 0.31050 -0.12322 0.29514
 C1828 C 0.30526 -0.11356 0.28982
 C1829 C 0.28964 -0.09821 0.28901
 C1830 C 0.29638 -0.08929 0.28396
 C1831 C 0.29100 -0.07979 0.27852
 C1832 C 0.27876 -0.07899 0.27798
 C1833 C 0.27202 -0.08793 0.28300
 C1834 C 0.27740 -0.09744 0.28846
 C1835 C 0.27312 -0.06868 0.27251
 C1836 C 0.26335 -0.06342 0.27774
 C1837 C 0.25864 -0.05313 0.27315
 C1838 C 0.26360 -0.04786 0.26323
 C1839 C 0.27308 -0.05340 0.25772
 C1840 C 0.27778 -0.06369 0.26231
 H1841 H 0.28343 -0.10883 0.30948
 H1842 H 0.29252 -0.12564 0.31874
 H1843 H 0.31799 -0.12710 0.29091
 H1844 H 0.30881 -0.11036 0.28167
 H1845 H 0.30582 -0.08955 0.28439
 H1846 H 0.29644 -0.07293 0.27494
 H1847 H 0.26258 -0.08764 0.28261
 H1848 H 0.27198 -0.10427 0.29211
 H1849 H 0.25961 -0.06700 0.28565
 H1850 H 0.25137 -0.04910 0.27766
 H1851 H 0.27711 -0.04963 0.25005
 H1852 H 0.28517 -0.06765 0.25796
 C1853 C 0.79564 0.89261 0.79580
 C1854 C 0.79066 0.88735 0.80569
 C1855 C 0.79582 0.87753 0.81080
 C1856 C 0.80615 0.87267 0.80616
 C1857 C 0.81115 0.87808 0.79629
 C1858 C 0.80596 0.88788 0.79119
 C1859 C 0.79004 0.90294 0.79027
 C1860 C 0.78952 0.90396 0.77804
 C1861 C 0.78426 0.91366 0.77283
 C1862 C 0.77939 0.92258 0.77972
 C1863 C 0.77991 0.92156 0.79196
 C1864 C 0.78517 0.91185 0.79717
 C1865 C 0.77397 0.93300 0.77420
 C1866 C 0.76374 0.93793 0.77885
 C1867 C 0.75895 0.94806 0.77399
 C1868 C 0.76427 0.95350 0.76435
 C1869 C 0.77436 0.94840 0.75953
 C1870 C 0.77914 0.93828 0.76440
 H1871 H 0.78264 0.89071 0.80939
 H1872 H 0.79157 0.87379 0.81835
 H1873 H 0.81910 0.87482 0.79238
 H1874 H 0.81012 0.89186 0.78369
 H1875 H 0.79302 0.89715 0.77249
 H1876 H 0.78386 0.91411 0.76339
 H1877 H 0.77644 0.92839 0.79751
 H1878 H 0.78560 0.91142 0.80661
 H1879 H 0.75946 0.93398 0.78630
 H1880 H 0.75120 0.95175 0.77796
 H1881 H 0.77877 0.95241 0.75219
 H1882 H 0.78711 0.93479 0.76070
 C1883 C 0.45588 0.85876 0.29468
 C1884 C 0.46024 0.86333 0.30521
 C1885 C 0.45484 0.87291 0.31052
 C1886 C 0.44499 0.87819 0.30540
 C1887 C 0.44067 0.87359 0.29484
 C1888 C 0.44605 0.86400 0.28956
 C1889 C 0.46157 0.84857 0.28905
 C1890 C 0.45479 0.83964 0.28406
 C1891 C 0.46010 0.83007 0.27869
 C1892 C 0.47233 0.82921 0.27816
 C1893 C 0.47913 0.83814 0.28317
 C1894 C 0.47381 0.84771 0.28856
 C1895 C 0.47791 0.81887 0.27266
 C1896 C 0.48767 0.81355 0.27786
 C1897 C 0.49232 0.80327 0.27322
 C1898 C 0.48732 0.79806 0.26326
 C1899 C 0.47784 0.80365 0.25779
 C1900 C 0.47320 0.81393 0.26244
 H1901 H 0.46772 0.85939 0.30943
 H1902 H 0.45839 0.87610 0.31867
 H1903 H 0.43317 0.87739 0.29056
 H1904 H 0.44259 0.86077 0.28135
 H1905 H 0.44535 0.83994 0.28450
 H1906 H 0.45462 0.82320 0.27516
 H1907 H 0.48858 0.83777 0.28281
 H1908 H 0.47927 0.85453 0.29222
 H1909 H 0.49142 0.81708 0.28580
 H1910 H 0.49958 0.79919 0.27771
 H1911 H 0.47377 0.79990 0.25011
 H1912 H 0.46581 0.81794 0.25812
 C1913 C -0.04526 0.85760 0.79606
 C1914 C -0.05506 0.86288 0.79090
 C1915 C -0.06026 0.87266 0.79602
 C1916 C -0.05581 0.87742 0.80646
 C1917 C -0.04604 0.87207 0.81165
 C1918 C -0.04082 0.86229 0.80650
 C1919 C -0.03968 0.84727 0.79052
 C1920 C -0.02745 0.84627 0.79007
 C1921 C -0.02221 0.83660 0.78475
 C1922 C -0.02908 0.82770 0.77977
 C1923 C -0.04131 0.82869 0.78028
 C1924 C -0.04654 0.83836 0.78558
 C1925 C -0.02356 0.81734 0.77424
 C1926 C -0.02826 0.81245 0.76399
 C1927 C -0.02344 0.80234 0.75913
 C1928 C -0.01379 0.79687 0.76439
 C1929 C -0.00890 0.80194 0.77448
 C1930 C -0.01372 0.81205 0.77934
 H1931 H -0.05859 0.85956 0.78277
 H1932 H -0.06772 0.87651 0.79169
 H1933 H -0.04240 0.87534 0.81973
 H1934 H -0.03338 0.85832 0.81078
 H1935 H -0.02192 0.85306 0.79366
 H1936 H -0.01278 0.83616 0.78438
 H1937 H -0.04685 0.82187 0.77676
 H1938 H -0.05598 0.83878 0.78598
 H1939 H -0.03573 0.81642 0.75976
 H1940 H -0.02747 0.79868 0.75138
 H1941 H -0.00154 0.79791 0.77885
 H1942 H -0.00998 0.81550 0.78732
 C1943 C -0.04546 -0.10756 -0.04569
 C1944 C -0.04104 -0.11221 -0.05615
 C1945 C -0.04627 -0.12197 -0.06132
 C1946 C -0.05602 -0.12734 -0.05612
 C1947 C -0.06045 -0.12263 -0.04567
 C1948 C -0.05524 -0.11286 -0.04053
 C1949 C -0.03986 -0.09727 -0.04011
 C1950 C -0.04671 -0.08836 -0.03518
 C1951 C -0.04145 -0.07872 -0.02983
 C1952 C -0.02922 -0.07779 -0.02927
 C1953 C -0.02237 -0.08669 -0.03422
 C1954 C -0.02764 -0.09632 -0.03959
 C1955 C -0.02368 -0.06744 -0.02374
 C1956 C -0.01389 -0.06212 -0.02888
 C1957 C -0.00908 -0.05198 -0.02405
 C1958 C -0.01395 -0.04693 -0.01396
 C1959 C -0.02355 -0.05245 -0.00864
 C1960 C -0.02835 -0.06259 -0.01348
 H1961 H -0.03363 -0.10818 -0.06043
 H1962 H -0.04268 -0.12521 -0.06942
 H1963 H -0.06788 -0.12651 -0.04134
 H1964 H -0.05876 -0.10955 -0.03240
 H1965 H -0.05615 -0.08874 -0.03563
 H1966 H -0.04696 -0.07189 -0.02631
 H1967 H -0.01294 -0.08629 -0.03381
 H1968 H -0.02214 -0.10313 -0.04318
 H1969 H -0.01018 -0.06557 -0.03686
 H1970 H -0.00175 -0.04793 -0.02843
 H1971 H -0.02754 -0.04882 -0.00087
 H1972 H -0.03578 -0.06659 -0.00922
 C1973 C -0.04585 0.39247 0.45474
 C1974 C -0.04126 0.38780 0.44438
 C1975 C -0.04635 0.37800 0.43916
 C1976 C -0.05620 0.37255 0.44417
 C1977 C -0.06083 0.37737 0.45453
 C1978 C -0.05572 0.38718 0.45972
 C1979 C -0.04032 0.40279 0.46036
 C1980 C -0.04721 0.41169 0.46525
 C1981 C -0.04200 0.42140 0.47053
 C1982 C -0.02977 0.42242 0.47105
 C1983 C -0.02289 0.41352 0.46617
 C1984 C -0.02810 0.40381 0.46089
 C1985 C -0.02425 0.43284 0.47648
 C1986 C -0.01451 0.43817 0.47127
 C1987 C -0.00966 0.44831 0.47605
 C1988 C -0.01444 0.45336 0.48618
 C1989 C -0.02403 0.44786 0.49155
 C1990 C -0.02887 0.43773 0.48675
 H1991 H -0.03378 0.39180 0.44022
 H1992 H -0.04246 0.37478 0.43119
 H1993 H -0.06836 0.37359 0.45878
 H1994 H -0.05940 0.39052 0.46777
 H1995 H -0.05665 0.41126 0.46482
 H1996 H -0.04755 0.42822 0.47401
 H1997 H -0.01345 0.41398 0.46656
 H1998 H -0.02256 0.39701 0.45736
 H1999 H -0.01085 0.43470 0.46326
 H2000 H -0.00236 0.45236 0.47161
 H2001 H -0.02796 0.45151 0.49934
 H2002 H -0.03627 0.43373 0.49106
 C2003 C 0.45470 -0.10745 0.45441
 C2004 C 0.45948 -0.11248 0.44430
 C2005 C 0.45427 -0.12225 0.43911
 C2006 C 0.44410 -0.12730 0.44390
 C2007 C 0.43934 -0.12217 0.45404
 C2008 C 0.44456 -0.11241 0.45920
 C2009 C 0.46024 -0.09708 0.45995
 C2010 C 0.45334 -0.08800 0.46452
 C2011 C 0.45853 -0.07829 0.46981
 C2012 C 0.47075 -0.07741 0.47066
 C2013 C 0.47765 -0.08646 0.46605
 C2014 C 0.47245 -0.09618 0.46077
 C2015 C 0.47624 -0.06700 0.47617
 C2016 C 0.48619 -0.06182 0.47120
 C2017 C 0.49099 -0.05168 0.47603
 C2018 C 0.48597 -0.04648 0.48598
 C2019 C 0.47619 -0.05185 0.49112
 C2020 C 0.47139 -0.06198 0.48627
 H2021 H 0.46717 -0.10873 0.44027
 H2022 H 0.45829 -0.12573 0.43131
 H2023 H 0.43159 -0.12565 0.45815
 H2024 H 0.44073 -0.10882 0.46707
 H2025 H 0.44391 -0.08831 0.46383
 H2026 H 0.45298 -0.07135 0.47306
 H2027 H 0.48708 -0.08610 0.46669
 H2028 H 0.47801 -0.10309 0.45748
 H2029 H 0.49004 -0.06539 0.46333
 H2030 H 0.49845 -0.04773 0.47177
 H2031 H 0.47207 -0.04809 0.49875
 H2032 H 0.46381 -0.06586 0.49039
 C2033 C 0.45432 0.39247 -0.04512
 C2034 C 0.45894 0.38778 -0.05547
 C2035 C 0.45384 0.37799 -0.06072
 C2036 C 0.44392 0.37259 -0.05578
 C2037 C 0.43927 0.37743 -0.04544
 C2038 C 0.44439 0.38722 -0.04021
 C2039 C 0.45985 0.40279 -0.03950
 C2040 C 0.45297 0.41171 -0.03461
 C2041 C 0.45820 0.42149 -0.02948
 C2042 C 0.47043 0.42256 -0.02907
 C2043 C 0.47730 0.41363 -0.03392
 C2044 C 0.47207 0.40384 -0.03904
 C2045 C 0.47597 0.43301 -0.02369
 C2046 C 0.48572 0.43833 -0.02891
 C2047 C 0.49055 0.44849 -0.02415
 C2048 C 0.48577 0.45357 -0.01402
 C2049 C 0.47623 0.44804 -0.00862
 C2050 C 0.47139 0.43788 -0.01339
 H2051 H 0.46646 0.39176 -0.05958
 H2052 H 0.45777 0.37477 -0.06867
 H2053 H 0.43171 0.37368 -0.04123
 H2054 H 0.44067 0.39056 -0.03218
 H2055 H 0.44353 0.41123 -0.03492
 H2056 H 0.45266 0.42833 -0.02601
 H2057 H 0.48674 0.41412 -0.03361
 H2058 H 0.47761 0.39700 -0.04249
 H2059 H 0.48939 0.43485 -0.03690
 H2060 H 0.49785 0.45254 -0.02859
 H2061 H 0.47232 0.45167 -0.00081
 H2062 H 0.46402 0.43386 -0.00905
 C2063 C 0.79526 0.35828 0.45569
 C2064 C 0.80519 0.36356 0.46060
 C2065 C 0.81044 0.37316 0.45519
 C2066 C 0.80589 0.37770 0.44471
 C2067 C 0.79600 0.37232 0.43976
 C2068 C 0.79074 0.36274 0.44520
 C2069 C 0.78961 0.34817 0.46152
 C2070 C 0.77738 0.34738 0.46217
 C2071 C 0.77206 0.33784 0.46762
 C2072 C 0.77886 0.32887 0.47253
 C2073 C 0.79110 0.32969 0.47189
 C2074 C 0.79641 0.33924 0.46646
 C2075 C 0.77327 0.31852 0.47798
 C2076 C 0.77803 0.31348 0.48811
 C2077 C 0.77335 0.30318 0.49269
 C2078 C 0.76380 0.29768 0.48724
 C2079 C 0.75875 0.30300 0.47738
 C2080 C 0.76343 0.31330 0.47281
 H2081 H 0.80880 0.36039 0.46875
 H2082 H 0.81800 0.37703 0.45932
 H2083 H 0.79227 0.37544 0.43167
 H2084 H 0.78321 0.35874 0.44111
 H2085 H 0.77192 0.35422 0.45859
 H2086 H 0.76262 0.33752 0.46809
 H2087 H 0.79657 0.32281 0.47536
 H2088 H 0.80584 0.33951 0.46594
 H2089 H 0.78548 0.31741 0.49241
 H2090 H 0.77746 0.29935 0.50030
 H2091 H 0.75142 0.29900 0.47292
 H2092 H 0.75963 0.31692 0.46494
 C2093 C 0.79552 0.85829 -0.04451
 C2094 C 0.80539 0.86362 -0.03954
 C2095 C 0.81067 0.87320 -0.04496
 C2096 C 0.80620 0.87768 -0.05550
 C2097 C 0.79639 0.87223 -0.06053
 C2098 C 0.79111 0.86267 -0.05508
 C2099 C 0.78982 0.84823 -0.03864
 C2100 C 0.77759 0.84743 -0.03811
 C2101 C 0.77222 0.83795 -0.03261
 C2102 C 0.77898 0.82904 -0.02754
 C2103 C 0.79122 0.82986 -0.02805
 C2104 C 0.79658 0.83936 -0.03352
 C2105 C 0.77333 0.81872 -0.02209
 C2106 C 0.77798 0.81370 -0.01189
 C2107 C 0.77322 0.80343 -0.00731
 C2108 C 0.76370 0.79795 -0.01281
 C2109 C 0.75876 0.80324 -0.02275
 C2110 C 0.76353 0.81349 -0.02734
 H2111 H 0.80893 0.86051 -0.03133
 H2112 H 0.81819 0.87709 -0.04078
 H2113 H 0.79271 0.87532 -0.06865
 H2114 H 0.78361 0.85862 -0.05922
 H2115 H 0.77216 0.85422 -0.04183
 H2116 H 0.76278 0.83763 -0.03225
 H2117 H 0.79666 0.82302 -0.02445
 H2118 H 0.80602 0.83963 -0.03395
 H2119 H 0.78540 0.81763 -0.00754
 H2120 H 0.77724 0.79962 0.00036
 H2121 H 0.75147 0.79924 -0.02728
 H2122 H 0.75982 0.81707 -0.03527
 C2123 C 0.79497 0.29477 0.39172
 C2124 C 0.80550 0.29042 0.38720
 C2125 C 0.81082 0.29576 0.37759
 C2126 C 0.80571 0.30557 0.37224
 C2127 C 0.79518 0.30994 0.37682
 C2128 C 0.78989 0.30461 0.38644
 C2129 C 0.78927 0.28908 0.40188
 C2130 C 0.78421 0.29586 0.41077
 C2131 C 0.77880 0.29053 0.42031
 C2132 C 0.77830 0.27829 0.42118
 C2133 C 0.78337 0.27150 0.41229
 C2134 C 0.78880 0.27684 0.40275
 C2135 C 0.77280 0.27268 0.43151
 C2136 C 0.77800 0.26292 0.43682
 C2137 C 0.77338 0.25823 0.44709
 C2138 C 0.76343 0.26321 0.45231
 C2139 C 0.75796 0.27268 0.44673
 C2140 C 0.76259 0.27736 0.43645
 H2141 H 0.80972 0.28295 0.39119
 H2142 H 0.81895 0.29216 0.37442
 H2143 H 0.79092 0.31743 0.37299
 H2144 H 0.78171 0.30810 0.38964
 H2145 H 0.78462 0.30531 0.41046
 H2146 H 0.77521 0.29600 0.42714
 H2147 H 0.78302 0.26205 0.41264
 H2148 H 0.79249 0.27138 0.39596
 H2149 H 0.78593 0.25918 0.43329
 H2150 H 0.77787 0.25097 0.45116
 H2151 H 0.75028 0.27673 0.45047
 H2152 H 0.75826 0.28475 0.43245
 C2153 C 0.79457 0.79553 -0.10825
 C2154 C 0.79028 0.80610 -0.11278
 C2155 C 0.79561 0.81134 -0.12244
 C2156 C 0.80534 0.80612 -0.12784
 C2157 C 0.80964 0.79557 -0.12324
 C2158 C 0.80433 0.79035 -0.11357
 C2159 C 0.78888 0.78989 -0.09805
 C2160 C 0.79565 0.78470 -0.08921
 C2161 C 0.79032 0.77931 -0.07966
 C2162 C 0.77808 0.77896 -0.07870
 C2163 C 0.77130 0.78416 -0.08753
 C2164 C 0.77664 0.78957 -0.09709
 C2165 C 0.77247 0.77344 -0.06838
 C2166 C 0.76278 0.77870 -0.06300
 C2167 C 0.75806 0.77401 -0.05277
 C2168 C 0.76292 0.76394 -0.04767
 C2169 C 0.77234 0.75843 -0.05331
 C2170 C 0.77705 0.76313 -0.06354
 H2171 H 0.78289 0.81040 -0.10876
 H2172 H 0.79208 0.81951 -0.12561
 H2173 H 0.81705 0.79121 -0.12713
 H2174 H 0.80775 0.78214 -0.11038
 H2175 H 0.80509 0.78498 -0.08959
 H2176 H 0.79579 0.77562 -0.07288
 H2177 H 0.76186 0.78392 -0.08712
 H2178 H 0.77119 0.79334 -0.10383
 H2179 H 0.75912 0.78671 -0.06644
 H2180 H 0.75086 0.77853 -0.04864
 H2181 H 0.77631 0.75067 -0.04965
 H2182 H 0.78438 0.75876 -0.06760
 C2183 C 0.29515 0.45499 0.85833
 C2184 C 0.30501 0.46006 0.86362
 C2185 C 0.31025 0.45482 0.87332
 C2186 C 0.30577 0.44437 0.87799
 C2187 C 0.29601 0.43921 0.87256
 C2188 C 0.29076 0.44447 0.86287
 C2189 C 0.28941 0.46073 0.84820
 C2190 C 0.27717 0.46118 0.84736
 C2191 C 0.27178 0.46663 0.83785
 C2192 C 0.27851 0.47177 0.82896
 C2193 C 0.29075 0.47132 0.82981
 C2194 C 0.29614 0.46588 0.83932
 C2195 C 0.27284 0.47730 0.81867
 C2196 C 0.27746 0.48756 0.81376
 C2197 C 0.27270 0.49224 0.80354
 C2198 C 0.26320 0.48678 0.79797
 C2199 C 0.25828 0.47677 0.80315
 C2200 C 0.26305 0.47209 0.81337
 H2201 H 0.30853 0.46823 0.86042
 H2202 H 0.31770 0.45911 0.87724
 H2203 H 0.29237 0.43111 0.87577
 H2204 H 0.28329 0.44026 0.85887
 H2205 H 0.27175 0.45745 0.85415
 H2206 H 0.26234 0.46695 0.83752
 H2207 H 0.29619 0.47497 0.82299
 H2208 H 0.30558 0.46552 0.83962
 H2209 H 0.28487 0.49189 0.81775
 H2210 H 0.27671 0.49996 0.79982
 H2211 H 0.25101 0.47228 0.79908
 H2212 H 0.25935 0.46412 0.81687
 C2213 C 0.29552 -0.04545 0.35801
 C2214 C 0.29045 -0.05529 0.36329
 C2215 C 0.29575 -0.06058 0.37294
 C2216 C 0.30625 -0.05616 0.37756
 C2217 C 0.31141 -0.04642 0.37212
 C2218 C 0.30610 -0.04112 0.36248
 C2219 C 0.28973 -0.03966 0.34793
 C2220 C 0.28938 -0.02740 0.34711
 C2221 C 0.28388 -0.02196 0.33766
 C2222 C 0.27861 -0.02865 0.32880
 C2223 C 0.27897 -0.04090 0.32962
 C2224 C 0.28445 -0.04634 0.33907
 C2225 C 0.27302 -0.02294 0.31856
 C2226 C 0.26268 -0.02749 0.31373
 C2227 C 0.25796 -0.02274 0.30352
 C2228 C 0.26346 -0.01330 0.29790
 C2229 C 0.27354 -0.00844 0.30301
 C2230 C 0.27825 -0.01320 0.31322
 H2231 H 0.28225 -0.05878 0.36011
 H2232 H 0.29150 -0.06808 0.37680
 H2233 H 0.31951 -0.04276 0.37532
 H2234 H 0.31032 -0.03367 0.35848
 H2235 H 0.29322 -0.02201 0.35388
 H2236 H 0.28364 -0.01251 0.33735
 H2237 H 0.27520 -0.04631 0.32282
 H2238 H 0.28473 -0.05579 0.33934
 H2239 H 0.25832 -0.03484 0.31777
 H2240 H 0.25019 -0.02670 0.29986
 H2241 H 0.27805 -0.00122 0.29890
 H2242 H 0.28627 -0.00955 0.31667
 C2243 C -0.04570 -0.04610 -0.10714
 C2244 C -0.05579 -0.04122 -0.11212
 C2245 C -0.06098 -0.04628 -0.12195
 C2246 C -0.05625 -0.05643 -0.12711
 C2247 C -0.04623 -0.06139 -0.12194
 C2248 C -0.04103 -0.05629 -0.11212
 C2249 C -0.04000 -0.04051 -0.09687
 C2250 C -0.03526 -0.04735 -0.08784
 C2251 C -0.02989 -0.04209 -0.07821
 C2252 C -0.02913 -0.02986 -0.07737
 C2253 C -0.03387 -0.02301 -0.08639
 C2254 C -0.03922 -0.02827 -0.09603
 C2255 C -0.02361 -0.02428 -0.06701
 C2256 C -0.02868 -0.01439 -0.06180
 C2257 C -0.02385 -0.00951 -0.05169
 C2258 C -0.01380 -0.01439 -0.04656
 C2259 C -0.00856 -0.02410 -0.05197
 C2260 C -0.01342 -0.02899 -0.06207
 H2261 H -0.05974 -0.03350 -0.10835
 H2262 H -0.06874 -0.04217 -0.12540
 H2263 H -0.04219 -0.06916 -0.12548
 H2264 H -0.03318 -0.06020 -0.10858
 H2265 H -0.03588 -0.05679 -0.08813
 H2266 H -0.02651 -0.04760 -0.07130
 H2267 H -0.03329 -0.01357 -0.08606
 H2268 H -0.04259 -0.02275 -0.10293
 H2269 H -0.03663 -0.01065 -0.06532
 H2270 H -0.02820 -0.00211 -0.04772
 H2271 H -0.00085 -0.02812 -0.04826
 H2272 H -0.00922 -0.03651 -0.06598
 C2273 C -0.04595 0.45393 0.39298
 C2274 C -0.04075 0.44418 0.38766
 C2275 C -0.04581 0.43899 0.37782
 C2276 C -0.05627 0.44340 0.37300
 C2277 C -0.06153 0.45308 0.37851
 C2278 C -0.05642 0.45828 0.38833
 C2279 C -0.04043 0.45956 0.40331
 C2280 C -0.04007 0.47180 0.40432
 C2281 C -0.03477 0.47711 0.41397
 C2282 C -0.02970 0.47031 0.42284
 C2283 C -0.03008 0.45807 0.42184
 C2284 C -0.03537 0.45276 0.41219
 C2285 C -0.02416 0.47592 0.43318
 C2286 C -0.01383 0.47136 0.43799
 C2287 C -0.00896 0.47624 0.44808
 C2288 C -0.01431 0.48582 0.45361
 C2289 C -0.02449 0.49057 0.44862
 C2290 C -0.02935 0.48568 0.43852
 H2291 H -0.03262 0.44067 0.39099
 H2292 H -0.04139 0.43157 0.37402
 H2293 H -0.06958 0.45681 0.37529
 H2294 H -0.06075 0.46566 0.39236
 H2295 H -0.04373 0.47729 0.39753
 H2296 H -0.03449 0.48656 0.41440
 H2297 H -0.02646 0.45257 0.42864
 H2298 H -0.03566 0.44331 0.41176
 H2299 H -0.00953 0.46395 0.43398
 H2300 H -0.00114 0.47232 0.45168
 H2301 H -0.02892 0.49787 0.45269
 H2302 H -0.03739 0.48932 0.43512
 C2303 C 0.45484 -0.04560 0.39256
 C2304 C 0.45999 -0.05530 0.38709
 C2305 C 0.45482 -0.06036 0.37724
 C2306 C 0.44436 -0.05585 0.37263
 C2307 C 0.43918 -0.04619 0.37818
 C2308 C 0.44436 -0.04112 0.38801
 C2309 C 0.46046 -0.04009 0.40287
 C2310 C 0.46092 -0.02787 0.40394
 C2311 C 0.46620 -0.02267 0.41366
 C2312 C 0.47113 -0.02958 0.42252
 C2313 C 0.47071 -0.04181 0.42143
 C2314 C 0.46545 -0.04701 0.41170
 C2315 C 0.47651 -0.02408 0.43298
 C2316 C 0.48675 -0.02870 0.43793
 C2317 C 0.49148 -0.02385 0.44809
 C2318 C 0.48609 -0.01426 0.45355
 C2319 C 0.47599 -0.00947 0.44844
 C2320 C 0.47126 -0.01432 0.43828
 H2321 H 0.46816 -0.05883 0.39029
 H2322 H 0.45915 -0.06770 0.37319
 H2323 H 0.43107 -0.04253 0.37501
 H2324 H 0.44011 -0.03375 0.39214
 H2325 H 0.45733 -0.02231 0.39719
 H2326 H 0.46652 -0.01323 0.41418
 H2327 H 0.47422 -0.04738 0.42821
 H2328 H 0.46508 -0.05645 0.41119
 H2329 H 0.49108 -0.03611 0.43395
 H2330 H 0.49925 -0.02779 0.45179
 H2331 H 0.47153 -0.00216 0.45245
 H2332 H 0.46328 -0.01066 0.43477
 C2333 C 0.45433 0.45462 -0.10744
 C2334 C 0.44385 0.45900 -0.11209
 C2335 C 0.43875 0.45381 -0.12190
 C2336 C 0.44402 0.44412 -0.12734
 C2337 C 0.45449 0.43974 -0.12263
 C2338 C 0.45957 0.44492 -0.11281
 C2339 C 0.45981 0.46017 -0.09708
 C2340 C 0.46473 0.45328 -0.08819
 C2341 C 0.46996 0.45849 -0.07847
 C2342 C 0.47041 0.47072 -0.07742
 C2343 C 0.46549 0.47762 -0.08630
 C2344 C 0.46024 0.47240 -0.09602
 C2345 C 0.47585 0.47623 -0.06699
 C2346 C 0.47063 0.48597 -0.06165
 C2347 C 0.47540 0.49078 -0.05149
 C2348 C 0.48552 0.48598 -0.04644
 C2349 C 0.49089 0.47641 -0.05196
 C2350 C 0.48611 0.47160 -0.06212
 H2351 H 0.43952 0.46638 -0.10805
 H2352 H 0.43066 0.45742 -0.12517
 H2353 H 0.45889 0.43237 -0.12656
 H2354 H 0.46772 0.44143 -0.10952
 H2355 H 0.46437 0.44383 -0.08868
 H2356 H 0.47347 0.45293 -0.07167
 H2357 H 0.46583 0.48706 -0.08580
 H2358 H 0.45668 0.47794 -0.10281
 H2359 H 0.46263 0.48965 -0.06511
 H2360 H 0.47096 0.49808 -0.04743
 H2361 H 0.49867 0.47246 -0.04831
 H2362 H 0.49043 0.46420 -0.06613
 C2363 C 0.45547 0.79558 0.35821
 C2364 C 0.46041 0.80551 0.36349
 C2365 C 0.45502 0.81079 0.37309
 C2366 C 0.44454 0.80629 0.37766
 C2367 C 0.43954 0.79643 0.37227
 C2368 C 0.44495 0.79113 0.36268
 C2369 C 0.46129 0.78989 0.34810
 C2370 C 0.46179 0.77764 0.34724
 C2371 C 0.46722 0.77229 0.33770
 C2372 C 0.47229 0.77905 0.32880
 C2373 C 0.47181 0.79130 0.32968
 C2374 C 0.46640 0.79665 0.33922
 C2375 C 0.47778 0.77342 0.31847
 C2376 C 0.48798 0.77810 0.31349
 C2377 C 0.49264 0.77334 0.30327
 C2378 C 0.48723 0.76377 0.29775
 C2379 C 0.47727 0.75882 0.30298
 C2380 C 0.47260 0.76359 0.31321
 H2381 H 0.46857 0.80908 0.36032
 H2382 H 0.45921 0.81831 0.37699
 H2383 H 0.43142 0.79276 0.37540
 H2384 H 0.44081 0.78362 0.35867
 H2385 H 0.45811 0.77220 0.35404
 H2386 H 0.46757 0.76284 0.33736
 H2387 H 0.47542 0.79676 0.32286
 H2388 H 0.46602 0.80610 0.33954
 H2389 H 0.49229 0.78554 0.31745
 H2390 H 0.50032 0.77739 0.29951
 H2391 H 0.47281 0.75151 0.29895
 H2392 H 0.46468 0.75985 0.31675
 C2393 C -0.04570 0.79624 0.85717
 C2394 C -0.05615 0.79170 0.86170
 C2395 C -0.06140 0.79678 0.87148
 C2396 C -0.05631 0.80651 0.87700
 C2397 C -0.04592 0.81115 0.87234
 C2398 C -0.04069 0.80608 0.86255
 C2399 C -0.03995 0.79067 0.84697
 C2400 C -0.03494 0.79752 0.83810
 C2401 C -0.02953 0.79224 0.82852
 C2402 C -0.02898 0.78000 0.82760
 C2403 C -0.03395 0.77317 0.83649
 C2404 C -0.03938 0.77844 0.84607
 C2405 C -0.02349 0.77442 0.81725
 C2406 C -0.02862 0.76456 0.81202
 C2407 C -0.02384 0.75969 0.80190
 C2408 C -0.01379 0.76456 0.79677
 C2409 C -0.00847 0.77422 0.80221
 C2410 C -0.01326 0.77909 0.81233
 H2411 H -0.06035 0.78426 0.85761
 H2412 H -0.06947 0.79305 0.87467
 H2413 H -0.04168 0.81861 0.87630
 H2414 H -0.03259 0.80971 0.85931
 H2415 H -0.03540 0.80696 0.83846
 H2416 H -0.02600 0.79775 0.82169
 H2417 H -0.03355 0.76372 0.83611
 H2418 H -0.04300 0.77294 0.85285
 H2419 H -0.03658 0.76083 0.81551
 H2420 H -0.02822 0.75230 0.79793
 H2421 H -0.00073 0.77821 0.79852
 H2422 H -0.00901 0.78657 0.81627
 C2423 C 0.39184 0.79469 0.29463
 C2424 C 0.38661 0.78965 0.30451
 C2425 C 0.37697 0.79492 0.30981
 C2426 C 0.37231 0.80538 0.30536
 C2427 C 0.37761 0.81046 0.29551
 C2428 C 0.38724 0.80517 0.29020
 C2429 C 0.40203 0.78903 0.28897
 C2430 C 0.40289 0.78847 0.27673
 C2431 C 0.41247 0.78308 0.27143
 C2432 C 0.42140 0.77813 0.27825
 C2433 C 0.42054 0.77871 0.29049
 C2434 C 0.41096 0.78408 0.29578
 C2435 C 0.43176 0.77267 0.27268
 C2436 C 0.43676 0.76251 0.27742
 C2437 C 0.44705 0.75791 0.27277
 C2438 C 0.45260 0.76337 0.26326
 C2439 C 0.44733 0.77326 0.25823
 C2440 C 0.43703 0.77786 0.26289
 H2441 H 0.38987 0.78151 0.30805
 H2442 H 0.37314 0.79067 0.31731
 H2443 H 0.37439 0.81857 0.29188
 H2444 H 0.39120 0.80937 0.28270
 H2445 H 0.39607 0.79207 0.27125
 H2446 H 0.41283 0.78266 0.26198
 H2447 H 0.42739 0.77521 0.29598
 H2448 H 0.41065 0.78455 0.30523
 H2449 H 0.43278 0.75820 0.28483
 H2450 H 0.45084 0.75027 0.27686
 H2451 H 0.45136 0.77773 0.25095
 H2452 H 0.43345 0.78575 0.25910
 C2453 C -0.10724 0.79578 0.79572
 C2454 C -0.11180 0.80625 0.79125
 C2455 C -0.12159 0.81146 0.79636
 C2456 C -0.12709 0.80630 0.80606
 C2457 C -0.12247 0.79583 0.81055
 C2458 C -0.11267 0.79065 0.80545
 C2459 C -0.09690 0.79019 0.79024
 C2460 C -0.08808 0.78521 0.79719
 C2461 C -0.07837 0.77992 0.79204
 C2462 C -0.07724 0.77947 0.77982
 C2463 C -0.08606 0.78444 0.77287
 C2464 C -0.09577 0.78975 0.77802
 C2465 C -0.06681 0.77400 0.77436
 C2466 C -0.06147 0.77916 0.76459
 C2467 C -0.05133 0.77435 0.75981
 C2468 C -0.04627 0.76426 0.76468
 C2469 C -0.05178 0.75895 0.77429
 C2470 C -0.06193 0.76376 0.77906
 H2471 H -0.10770 0.81051 0.78387
 H2472 H -0.12477 0.81955 0.79267
 H2473 H -0.12643 0.79152 0.81795
 H2474 H -0.10945 0.78250 0.80902
 H2475 H -0.08861 0.78558 0.80663
 H2476 H -0.07162 0.77638 0.79765
 H2477 H -0.08553 0.78410 0.76343
 H2478 H -0.10250 0.79335 0.77243
 H2479 H -0.06492 0.78713 0.76086
 H2480 H -0.04728 0.77875 0.75248
 H2481 H -0.04814 0.75120 0.77829
 H2482 H -0.06594 0.75949 0.78648
 C2483 C 0.85844 0.29506 0.45533
 C2484 C 0.86288 0.29077 0.44474
 C2485 C 0.87249 0.29608 0.43943
 C2486 C 0.87795 0.30582 0.44461
 C2487 C 0.87342 0.31017 0.45517
 C2488 C 0.86378 0.30486 0.46046
 C2489 C 0.84833 0.28931 0.46105
 C2490 C 0.83947 0.29603 0.46625
 C2491 C 0.82995 0.29062 0.47162
 C2492 C 0.82907 0.27837 0.47195
 C2493 C 0.83793 0.27165 0.46676
 C2494 C 0.84745 0.27707 0.46138
 C2495 C 0.81877 0.27268 0.47741
 C2496 C 0.81343 0.26298 0.47208
 C2497 C 0.80320 0.25820 0.47671
 C2498 C 0.79806 0.26302 0.48678
 C2499 C 0.80367 0.27244 0.49236
 C2500 C 0.81390 0.27721 0.48773
 H2501 H 0.85883 0.28335 0.44047
 H2502 H 0.87560 0.29250 0.43126
 H2503 H 0.87733 0.31762 0.45947
 H2504 H 0.86063 0.30831 0.46868
 H2505 H 0.83980 0.30548 0.46598
 H2506 H 0.82314 0.29604 0.47531
 H2507 H 0.83757 0.26220 0.46698
 H2508 H 0.85423 0.27166 0.45760
 H2509 H 0.81691 0.25937 0.46406
 H2510 H 0.79909 0.25101 0.47214
 H2511 H 0.79999 0.27637 0.50014
 H2512 H 0.81792 0.28455 0.49215
 C2513 C 0.85818 0.79447 -0.04523
 C2514 C 0.86276 0.79007 -0.05572
 C2515 C 0.87243 0.79537 -0.06096
 C2516 C 0.87776 0.80518 -0.05581
 C2517 C 0.87307 0.80964 -0.04537
 C2518 C 0.86340 0.80435 -0.04015
 C2519 C 0.84802 0.78876 -0.03956
 C2520 C 0.83912 0.79552 -0.03451
 C2521 C 0.82961 0.79016 -0.02909
 C2522 C 0.82878 0.77792 -0.02857
 C2523 C 0.83767 0.77115 -0.03364
 C2524 C 0.84719 0.77651 -0.03907
 C2525 C 0.81851 0.77229 -0.02301
 C2526 C 0.81316 0.76253 -0.02820
 C2527 C 0.80291 0.75785 -0.02351
 C2528 C 0.79779 0.76283 -0.01350
 C2529 C 0.80344 0.77228 -0.00803
 C2530 C 0.81368 0.77695 -0.01273
 H2531 H 0.85880 0.78258 -0.05994
 H2532 H 0.87566 0.79176 -0.06907
 H2533 H 0.87694 0.81711 -0.04107
 H2534 H 0.86015 0.80787 -0.03199
 H2535 H 0.83942 0.80496 -0.03491
 H2536 H 0.82278 0.79562 -0.02548
 H2537 H 0.83735 0.76170 -0.03327
 H2538 H 0.85401 0.77108 -0.04274
 H2539 H 0.81662 0.75880 -0.03618
 H2540 H 0.79878 0.75061 -0.02799
 H2541 H 0.79978 0.77633 -0.00031
 H2542 H 0.81773 0.78434 -0.00842
 C2543 C -0.10676 -0.04601 -0.04625
 C2544 C -0.11142 -0.04148 -0.05666
 C2545 C -0.12126 -0.04658 -0.06180
 C2546 C -0.12670 -0.05632 -0.05664
 C2547 C -0.12191 -0.06092 -0.04629
 C2548 C -0.11206 -0.05583 -0.04117
 C2549 C -0.09647 -0.04044 -0.04063
 C2550 C -0.08756 -0.04730 -0.03572
 C2551 C -0.07792 -0.04206 -0.03037
 C2552 C -0.07698 -0.02982 -0.02976
 C2553 C -0.08590 -0.02296 -0.03467
 C2554 C -0.09553 -0.02820 -0.04004
 C2555 C -0.06664 -0.02428 -0.02422
 C2556 C -0.06137 -0.01442 -0.02929
 C2557 C -0.05126 -0.00959 -0.02444
 C2558 C -0.04617 -0.01452 -0.01439
 C2559 C -0.05162 -0.02420 -0.00916
 C2560 C -0.06174 -0.02902 -0.01401
 H2561 H -0.10741 -0.03403 -0.06088
 H2562 H -0.12456 -0.04285 -0.06982
 H2563 H -0.12583 -0.06836 -0.04199
 H2564 H -0.10874 -0.05944 -0.03308
 H2565 H -0.08795 -0.05675 -0.03619
 H2566 H -0.07109 -0.04759 -0.02688
 H2567 H -0.08549 -0.01352 -0.03422
 H2568 H -0.10234 -0.02268 -0.04358
 H2569 H -0.06486 -0.01065 -0.03723
 H2570 H -0.04725 -0.00221 -0.02877
 H2571 H -0.04795 -0.02824 -0.00142
 H2572 H -0.06569 -0.03650 -0.00980
 C2573 C -0.10743 0.45440 0.45462
 C2574 C -0.11195 0.44383 0.45891
 C2575 C -0.12174 0.43869 0.45372
 C2576 C -0.12728 0.44402 0.44413
 C2577 C -0.12270 0.45458 0.43982
 C2578 C -0.11290 0.45970 0.44500
 C2579 C -0.09709 0.45992 0.46017
 C2580 C -0.08830 0.46500 0.45329
 C2581 C -0.07859 0.47025 0.45852
 C2582 C -0.07748 0.47057 0.47075
 C2583 C -0.08627 0.46548 0.47763
 C2584 C -0.09597 0.46021 0.47240
 C2585 C -0.06706 0.47600 0.47627
 C2586 C -0.06166 0.47070 0.48593
 C2587 C -0.05150 0.47546 0.49075
 C2588 C -0.04652 0.48565 0.48602
 C2589 C -0.05210 0.49111 0.47654
 C2590 C -0.06226 0.48634 0.47173
 H2591 H -0.10781 0.43946 0.46621
 H2592 H -0.12489 0.43052 0.45725
 H2593 H -0.12670 0.45901 0.43251
 H2594 H -0.10971 0.46792 0.44158
 H2595 H -0.08882 0.46474 0.44385
 H2596 H -0.07186 0.47389 0.45297
 H2597 H -0.08573 0.46572 0.48707
 H2598 H -0.10269 0.45651 0.47793
 H2599 H -0.06506 0.46264 0.48953
 H2600 H -0.04740 0.47096 0.49798
 H2601 H -0.04851 0.49895 0.47266
 H2602 H -0.06633 0.49071 0.46439
 C2603 C 0.39240 -0.04513 0.45440
 C2604 C 0.38695 -0.04003 0.44467
 C2605 C 0.37713 -0.04521 0.43956
 C2606 C 0.37249 -0.05574 0.44400
 C2607 C 0.37803 -0.06084 0.45375
 C2608 C 0.38781 -0.05560 0.45888
 C2609 C 0.40282 -0.03958 0.45986
 C2610 C 0.41207 -0.04646 0.46410
 C2611 C 0.42184 -0.04126 0.46927
 C2612 C 0.42263 -0.02904 0.47030
 C2613 C 0.41343 -0.02215 0.46601
 C2614 C 0.40363 -0.02735 0.46088
 C2615 C 0.43307 -0.02355 0.47571
 C2616 C 0.43817 -0.01355 0.47075
 C2617 C 0.44834 -0.00873 0.47552
 C2618 C 0.45361 -0.01376 0.48542
 C2619 C 0.44833 -0.02360 0.49055
 C2620 C 0.43819 -0.02844 0.48574
 H2621 H 0.39038 -0.03208 0.44087
 H2622 H 0.37335 -0.04094 0.43205
 H2623 H 0.37482 -0.06884 0.45760
 H2624 H 0.39167 -0.05968 0.46649
 H2625 H 0.41185 -0.05588 0.46326
 H2626 H 0.42888 -0.04680 0.47230
 H2627 H 0.41372 -0.01272 0.46680
 H2628 H 0.39660 -0.02180 0.45787
 H2629 H 0.43451 -0.00967 0.46294
 H2630 H 0.45222 -0.00122 0.47127
 H2631 H 0.45214 -0.02775 0.49814
 H2632 H 0.43437 -0.03605 0.48986
 C2633 C 0.39227 0.45493 -0.04563
 C2634 C 0.38769 0.44449 -0.04113
 C2635 C 0.37789 0.43926 -0.04622
 C2636 C 0.37234 0.44436 -0.05598
 C2637 C 0.37706 0.45480 -0.06051
 C2638 C 0.38688 0.45999 -0.05542
 C2639 C 0.40261 0.46054 -0.04012
 C2640 C 0.41145 0.46548 -0.04703
 C2641 C 0.42119 0.47073 -0.04184
 C2642 C 0.42230 0.47116 -0.02961
 C2643 C 0.41344 0.46624 -0.02270
 C2644 C 0.40371 0.46098 -0.02789
 C2645 C 0.43275 0.47658 -0.02411
 C2646 C 0.43810 0.47135 -0.01437
 C2647 C 0.44825 0.47613 -0.00954
 C2648 C 0.45330 0.48626 -0.01432
 C2649 C 0.44779 0.49163 -0.02390
 C2650 C 0.43764 0.48684 -0.02873
 H2651 H 0.39175 0.44029 -0.03369
 H2652 H 0.37473 0.43124 -0.04238
 H2653 H 0.37321 0.45912 -0.06798
 H2654 H 0.39014 0.46810 -0.05902
 H2655 H 0.41095 0.46512 -0.05647
 H2656 H 0.42797 0.47424 -0.04742
 H2657 H 0.41397 0.46657 -0.01326
 H2658 H 0.39696 0.45741 -0.02232
 H2659 H 0.43464 0.46335 -0.01070
 H2660 H 0.45232 0.47167 -0.00225
 H2661 H 0.45144 0.49941 -0.02785
 H2662 H 0.43363 0.49116 -0.03613
 C2663 C 0.35832 0.45569 0.79523
 C2664 C 0.36287 0.45991 0.80583
 C2665 C 0.37248 0.45449 0.81105
 C2666 C 0.37781 0.44475 0.80578
 C2667 C 0.37320 0.44053 0.79519
 C2668 C 0.36358 0.44593 0.78999
 C2669 C 0.34815 0.46145 0.78962
 C2670 C 0.33925 0.45473 0.78448
 C2671 C 0.32972 0.46012 0.77912
 C2672 C 0.32887 0.47236 0.77875
 C2673 C 0.33775 0.47910 0.78391
 C2674 C 0.34729 0.47370 0.78929
 C2675 C 0.31858 0.47802 0.77324
 C2676 C 0.31320 0.48768 0.77855
 C2677 C 0.30294 0.49238 0.77390
 C2678 C 0.29783 0.48752 0.76382
 C2679 C 0.30350 0.47816 0.75825
 C2680 C 0.31375 0.47347 0.76290
 H2681 H 0.35889 0.46732 0.81016
 H2682 H 0.37568 0.45797 0.81924
 H2683 H 0.37705 0.43312 0.79078
 H2684 H 0.36037 0.44257 0.78174
 H2685 H 0.33957 0.44528 0.78477
 H2686 H 0.32289 0.45468 0.77545
 H2687 H 0.33740 0.48855 0.78365
 H2688 H 0.35410 0.47911 0.79303
 H2689 H 0.31666 0.49133 0.78657
 H2690 H 0.29879 0.49955 0.77847
 H2691 H 0.29984 0.47420 0.75046
 H2692 H 0.31782 0.46616 0.75849
 C2693 C 0.35830 -0.04450 0.29521
 C2694 C 0.36296 -0.04004 0.30567
 C2695 C 0.37267 -0.04530 0.31088
 C2696 C 0.37798 -0.05512 0.30573
 C2697 C 0.37321 -0.05964 0.29534
 C2698 C 0.36349 -0.05439 0.29015
 C2699 C 0.34814 -0.03880 0.28953
 C2700 C 0.33919 -0.04557 0.28455
 C2701 C 0.32969 -0.04022 0.27908
 C2702 C 0.32892 -0.02798 0.27844
 C2703 C 0.33786 -0.02120 0.28345
 C2704 C 0.34737 -0.02656 0.28894
 C2705 C 0.31866 -0.02237 0.27285
 C2706 C 0.31338 -0.01254 0.27798
 C2707 C 0.30312 -0.00787 0.27329
 C2708 C 0.29791 -0.01293 0.26336
 C2709 C 0.30348 -0.02244 0.25795
 C2710 C 0.31373 -0.02710 0.26264
 H2711 H 0.35903 -0.03253 0.30987
 H2712 H 0.37597 -0.04163 0.31894
 H2713 H 0.37706 -0.06711 0.29104
 H2714 H 0.36019 -0.05794 0.28202
 H2715 H 0.33944 -0.05501 0.28504
 H2716 H 0.32281 -0.04568 0.27553
 H2717 H 0.33758 -0.01176 0.28300
 H2718 H 0.35421 -0.02112 0.29256
 H2719 H 0.31691 -0.00876 0.28591
 H2720 H 0.29905 -0.00058 0.27773
 H2721 H 0.29974 -0.02654 0.25028
 H2722 H 0.31772 -0.03454 0.25837
 C2723 C 0.14269 0.54543 0.70467
 C2724 C 0.13795 0.54093 0.69427
 C2725 C 0.12810 0.54606 0.68920
 C2726 C 0.12272 0.55581 0.69443
 C2727 C 0.12753 0.56032 0.70481
 C2728 C 0.13739 0.55520 0.70986
 C2729 C 0.15307 0.53992 0.71014
 C2730 C 0.16199 0.54684 0.71499
 C2731 C 0.17170 0.54167 0.72026
 C2732 C 0.17271 0.52944 0.72083
 C2733 C 0.16382 0.52251 0.71594
 C2734 C 0.15411 0.52769 0.71066
 C2735 C 0.18309 0.52396 0.72636
 C2736 C 0.18839 0.51412 0.72128
 C2737 C 0.19850 0.50933 0.72615
 C2738 C 0.20356 0.51426 0.73622
 C2739 C 0.19808 0.52393 0.74146
 C2740 C 0.18797 0.52872 0.73658
 H2741 H 0.14194 0.53351 0.68998
 H2742 H 0.12477 0.54237 0.68117
 H2743 H 0.12366 0.56775 0.70917
 H2744 H 0.14076 0.55878 0.71795
 H2745 H 0.16153 0.55628 0.71455
 H2746 H 0.17851 0.54725 0.72372
 H2747 H 0.16428 0.51307 0.71636
 H2748 H 0.14731 0.52213 0.70714
 H2749 H 0.18493 0.51034 0.71333
 H2750 H 0.20253 0.50195 0.72181
 H2751 H 0.20174 0.52799 0.74919
 H2752 H 0.18399 0.53620 0.74079
 C2753 C 0.14261 0.04495 0.20477
 C2754 C 0.13808 0.05546 0.20920
 C2755 C 0.12830 0.06065 0.20407
 C2756 C 0.12277 0.05545 0.19439
 C2757 C 0.12739 0.04498 0.18991
 C2758 C 0.13719 0.03981 0.19502
 C2759 C 0.15289 0.03934 0.21035
 C2760 C 0.16173 0.03431 0.20350
 C2761 C 0.17140 0.02904 0.20877
 C2762 C 0.17243 0.02866 0.22100
 C2763 C 0.16357 0.03367 0.22785
 C2764 C 0.15392 0.03896 0.22259
 C2765 C 0.18283 0.02325 0.22657
 C2766 C 0.18816 0.02851 0.23631
 C2767 C 0.19833 0.02379 0.24113
 C2768 C 0.20341 0.01369 0.23633
 C2769 C 0.19789 0.00825 0.22678
 C2770 C 0.18772 0.01297 0.22197
 H2771 H 0.14219 0.05975 0.21658
 H2772 H 0.12513 0.06875 0.20775
 H2773 H 0.12344 0.04067 0.18248
 H2774 H 0.14042 0.03166 0.19147
 H2775 H 0.16128 0.03463 0.19406
 H2776 H 0.17818 0.02546 0.20324
 H2777 H 0.16404 0.03339 0.23730
 H2778 H 0.14716 0.04261 0.22810
 H2779 H 0.18469 0.03652 0.23997
 H2780 H 0.20239 0.02828 0.24842
 H2781 H 0.20156 0.00047 0.22284
 H2782 H 0.18372 0.00861 0.21458
 C2783 C 0.60750 0.70450 0.20422
 C2784 C 0.61214 0.70895 0.19377
 C2785 C 0.62198 0.70384 0.18867
 C2786 C 0.62744 0.69415 0.19390
 C2787 C 0.62274 0.68968 0.20433
 C2788 C 0.61289 0.69478 0.20941
 C2789 C 0.59713 0.70999 0.20973
 C2790 C 0.58829 0.70306 0.21466
 C2791 C 0.57858 0.70823 0.21994
 C2792 C 0.57750 0.72046 0.22043
 C2793 C 0.58635 0.72739 0.21548
 C2794 C 0.59605 0.72222 0.21019
 C2795 C 0.56710 0.72594 0.22590
 C2796 C 0.56178 0.73573 0.22075
 C2797 C 0.55169 0.74058 0.22559
 C2798 C 0.54665 0.73575 0.23570
 C2799 C 0.55212 0.72610 0.24099
 C2800 C 0.56222 0.72127 0.23615
 H2801 H 0.60807 0.71633 0.18947
 H2802 H 0.62523 0.70750 0.18059
 H2803 H 0.62667 0.68230 0.20870
 H2804 H 0.60960 0.69124 0.21754
 H2805 H 0.58878 0.69362 0.21428
 H2806 H 0.57181 0.70265 0.22346
 H2807 H 0.58585 0.73683 0.21585
 H2808 H 0.60280 0.72779 0.20661
 H2809 H 0.56522 0.73944 0.21276
 H2810 H 0.54767 0.74793 0.22119
 H2811 H 0.54848 0.72213 0.24876
 H2812 H 0.56621 0.71382 0.24041
 C2813 C 0.10870 0.70532 0.70597
 C2814 C 0.11318 0.70980 0.69547
 C2815 C 0.12280 0.70456 0.69010
 C2816 C 0.12822 0.69474 0.69511
 C2817 C 0.12367 0.69024 0.70560
 C2818 C 0.11403 0.69546 0.71095
 C2819 C 0.09851 0.71093 0.71172
 C2820 C 0.08963 0.70409 0.71671
 C2821 C 0.08001 0.70936 0.72206
 C2822 C 0.07906 0.72160 0.72256
 C2823 C 0.08797 0.72844 0.71761
 C2824 C 0.09758 0.72317 0.71224
 C2825 C 0.06864 0.72715 0.72796
 C2826 C 0.06338 0.73693 0.72272
 C2827 C 0.05309 0.74162 0.72729
 C2828 C 0.04780 0.73665 0.73720
 C2829 C 0.05331 0.72713 0.74268
 C2830 C 0.06360 0.72244 0.73811
 H2831 H 0.10915 0.71728 0.69132
 H2832 H 0.12593 0.70826 0.68199
 H2833 H 0.12758 0.68274 0.70979
 H2834 H 0.11085 0.69189 0.71911
 H2835 H 0.09000 0.69465 0.71628
 H2836 H 0.07319 0.70384 0.72557
 H2837 H 0.08756 0.73789 0.71798
 H2838 H 0.10436 0.72868 0.70863
 H2839 H 0.06698 0.74069 0.71483
 H2840 H 0.04906 0.74890 0.72279
 H2841 H 0.04951 0.72307 0.75033
 H2842 H 0.06756 0.71503 0.74246
 C2843 C 0.64253 0.20479 0.54482
 C2844 C 0.63802 0.20926 0.55531
 C2845 C 0.62823 0.20417 0.56052
 C2846 C 0.62267 0.19449 0.55534
 C2847 C 0.62725 0.18999 0.54486
 C2848 C 0.63707 0.19507 0.53968
 C2849 C 0.65288 0.21027 0.53925
 C2850 C 0.66170 0.20333 0.53431
 C2851 C 0.67147 0.20848 0.52911
 C2852 C 0.67261 0.22071 0.52870
 C2853 C 0.66376 0.22765 0.53362
 C2854 C 0.65401 0.22249 0.53883
 C2855 C 0.68309 0.22617 0.52336
 C2856 C 0.68842 0.23591 0.52862
 C2857 C 0.69861 0.24071 0.52392
 C2858 C 0.70371 0.23588 0.51384
 C2859 C 0.69822 0.22631 0.50843
 C2860 C 0.68803 0.22152 0.51313
 H2861 H 0.64214 0.21665 0.55957
 H2862 H 0.62508 0.20786 0.56862
 H2863 H 0.62323 0.18261 0.54054
 H2864 H 0.64026 0.19152 0.53151
 H2865 H 0.66117 0.19389 0.53467
 H2866 H 0.67823 0.20289 0.52562
 H2867 H 0.66431 0.23709 0.53330
 H2868 H 0.64728 0.22808 0.54241
 H2869 H 0.68492 0.23961 0.53659
 H2870 H 0.70265 0.24800 0.52841
 H2871 H 0.70192 0.22234 0.50068
 H2872 H 0.68403 0.21412 0.50878
 C2873 C 0.64266 0.70505 0.04578
 C2874 C 0.63809 0.70937 0.05631
 C2875 C 0.62831 0.70414 0.06143
 C2876 C 0.62283 0.69450 0.05610
 C2877 C 0.62746 0.69018 0.04557
 C2878 C 0.63725 0.69539 0.04049
 C2879 C 0.65304 0.71057 0.04031
 C2880 C 0.66184 0.70363 0.03530
 C2881 C 0.67153 0.70880 0.03000
 C2882 C 0.67265 0.72102 0.02959
 C2883 C 0.66387 0.72796 0.03463
 C2884 C 0.65418 0.72279 0.03995
 C2885 C 0.68308 0.72648 0.02415
 C2886 C 0.68850 0.73616 0.02942
 C2887 C 0.69863 0.74098 0.02462
 C2888 C 0.70357 0.73623 0.01442
 C2889 C 0.69801 0.72668 0.00903
 C2890 C 0.68788 0.72187 0.01384
 H2891 H 0.64217 0.71671 0.06068
 H2892 H 0.62512 0.70769 0.06958
 H2893 H 0.62353 0.68282 0.04114
 H2894 H 0.64049 0.69195 0.03229
 H2895 H 0.66131 0.69419 0.03566
 H2896 H 0.67826 0.70321 0.02641
 H2897 H 0.66442 0.73740 0.03432
 H2898 H 0.64748 0.72836 0.04362
 H2899 H 0.68512 0.73979 0.03747
 H2900 H 0.70275 0.74823 0.02910
 H2901 H 0.70159 0.72275 0.00120
 H2902 H 0.68383 0.71448 0.00951
 C2903 C 0.10836 0.04476 0.04506
 C2904 C 0.11357 0.05466 0.04002
 C2905 C 0.12324 0.05995 0.04526
 C2906 C 0.12796 0.05549 0.05570
 C2907 C 0.12264 0.04565 0.06081
 C2908 C 0.11297 0.04034 0.05554
 C2909 C 0.09823 0.03903 0.03933
 C2910 C 0.09749 0.02679 0.03871
 C2911 C 0.08802 0.02140 0.03317
 C2912 C 0.07907 0.02815 0.02815
 C2913 C 0.07982 0.04039 0.02880
 C2914 C 0.08929 0.04577 0.03432
 C2915 C 0.06879 0.02250 0.02259
 C2916 C 0.06379 0.02723 0.01242
 C2917 C 0.05352 0.02254 0.00778
 C2918 C 0.04801 0.01299 0.01319
 C2919 C 0.05328 0.00797 0.02310
 C2920 C 0.06356 0.01267 0.02774
 H2921 H 0.11028 0.05820 0.03189
 H2922 H 0.12705 0.06746 0.04101
 H2923 H 0.12588 0.04202 0.06890
 H2924 H 0.10903 0.03284 0.05974
 H2925 H 0.10433 0.02137 0.04235
 H2926 H 0.08775 0.01196 0.03271
 H2927 H 0.07294 0.04583 0.02525
 H2928 H 0.08951 0.05521 0.03483
 H2929 H 0.06774 0.03468 0.00814
 H2930 H 0.04972 0.02663 0.00015
 H2931 H 0.04925 0.00066 0.02756
 H2932 H 0.06713 0.00888 0.03563
 C2933 C 0.10859 0.54461 0.54473
 C2934 C 0.11383 0.55449 0.53969
 C2935 C 0.12352 0.55976 0.54493
 C2936 C 0.12823 0.55528 0.55537
 C2937 C 0.12292 0.54543 0.56044
 C2938 C 0.11324 0.54015 0.55517
 C2939 C 0.09836 0.53897 0.53906
 C2940 C 0.09747 0.52674 0.53846
 C2941 C 0.08787 0.52146 0.53303
 C2942 C 0.07895 0.52830 0.52809
 C2943 C 0.07985 0.54053 0.52872
 C2944 C 0.08944 0.54581 0.53413
 C2945 C 0.06858 0.52275 0.52258
 C2946 C 0.06355 0.52754 0.51245
 C2947 C 0.05327 0.52287 0.50779
 C2948 C 0.04777 0.51328 0.51315
 C2949 C 0.05307 0.50821 0.52302
 C2950 C 0.06334 0.51289 0.52767
 H2951 H 0.11055 0.55805 0.53156
 H2952 H 0.12732 0.56729 0.54069
 H2953 H 0.12619 0.54174 0.56850
 H2954 H 0.10930 0.53262 0.55934
 H2955 H 0.10428 0.52124 0.54204
 H2956 H 0.08750 0.51202 0.53257
 H2957 H 0.07300 0.54605 0.52523
 H2958 H 0.08978 0.55525 0.53463
 H2959 H 0.06749 0.53501 0.50820
 H2960 H 0.04945 0.52700 0.50018
 H2961 H 0.04906 0.50086 0.52743
 H2962 H 0.06693 0.50905 0.53554
 C2963 C 0.60825 0.04535 0.54491
 C2964 C 0.61348 0.05528 0.53996
 C2965 C 0.62316 0.06051 0.54526
 C2966 C 0.62785 0.05594 0.55566
 C2967 C 0.62247 0.04611 0.56071
 C2968 C 0.61280 0.04087 0.55538
 C2969 C 0.59813 0.03964 0.53912
 C2970 C 0.59735 0.02740 0.53852
 C2971 C 0.58783 0.02203 0.53305
 C2972 C 0.57888 0.02879 0.52806
 C2973 C 0.57968 0.04103 0.52865
 C2974 C 0.58920 0.04639 0.53410
 C2975 C 0.56856 0.02314 0.52256
 C2976 C 0.56355 0.02784 0.51239
 C2977 C 0.55328 0.02313 0.50776
 C2978 C 0.54777 0.01359 0.51321
 C2979 C 0.55305 0.00860 0.52312
 C2980 C 0.56333 0.01332 0.52774
 H2981 H 0.61024 0.05888 0.53183
 H2982 H 0.62704 0.06802 0.54105
 H2983 H 0.62569 0.04240 0.56877
 H2984 H 0.60883 0.03335 0.55953
 H2985 H 0.60419 0.02196 0.54214
 H2986 H 0.58753 0.01258 0.53263
 H2987 H 0.57281 0.04648 0.52510
 H2988 H 0.58946 0.05584 0.53457
 H2989 H 0.56750 0.03528 0.50808
 H2990 H 0.54949 0.02720 0.50011
 H2991 H 0.54904 0.00129 0.52758
 H2992 H 0.56692 0.00956 0.53564
 C2993 C 0.60836 0.54520 0.04434
 C2994 C 0.61370 0.53999 0.05408
 C2995 C 0.62341 0.54517 0.05937
 C2996 C 0.62803 0.55571 0.05505
 C2997 C 0.62259 0.56097 0.04537
 C2998 C 0.61289 0.55576 0.04006
 C2999 C 0.59816 0.53957 0.03862
 C3000 C 0.59720 0.53924 0.02638
 C3001 C 0.58765 0.53379 0.02103
 C3002 C 0.57884 0.52860 0.02782
 C3003 C 0.57979 0.52899 0.04006
 C3004 C 0.58933 0.53442 0.04539
 C3005 C 0.56847 0.52314 0.02222
 C3006 C 0.56358 0.51287 0.02682
 C3007 C 0.55326 0.50828 0.02217
 C3008 C 0.54758 0.51385 0.01281
 C3009 C 0.55272 0.52390 0.00794
 C3010 C 0.56305 0.52848 0.01259
 H3011 H 0.61052 0.53175 0.05748
 H3012 H 0.62735 0.54076 0.06673
 H3013 H 0.62578 0.56912 0.04182
 H3014 H 0.60887 0.56006 0.03265
 H3015 H 0.60391 0.54305 0.02092
 H3016 H 0.58722 0.53354 0.01158
 H3017 H 0.57303 0.52530 0.04554
 H3018 H 0.58970 0.53476 0.05484
 H3019 H 0.56765 0.50845 0.03412
 H3020 H 0.54956 0.50054 0.02617
 H3021 H 0.54855 0.52850 0.00080
 H3022 H 0.56653 0.53648 0.00893
 C3023 C 0.04526 0.04394 0.10853
 C3024 C 0.04003 0.05366 0.11387
 C3025 C 0.04523 0.05900 0.12354
 C3026 C 0.05582 0.05478 0.12811
 C3027 C 0.06110 0.04510 0.12268
 C3028 C 0.05588 0.03974 0.11302
 C3029 C 0.03961 0.03818 0.09835
 C3030 C 0.03933 0.02594 0.09743
 C3031 C 0.03388 0.02053 0.08791
 C3032 C 0.02861 0.02726 0.07910
 C3033 C 0.02892 0.03951 0.08002
 C3034 C 0.03435 0.04490 0.08953
 C3035 C 0.02308 0.02162 0.06879
 C3036 C 0.01273 0.02616 0.06400
 C3037 C 0.00808 0.02151 0.05370
 C3038 C 0.01367 0.01220 0.04796
 C3039 C 0.02374 0.00732 0.05305
 C3040 C 0.02838 0.01198 0.06335
 H3041 H 0.03178 0.05703 0.11068
 H3042 H 0.04083 0.06638 0.12745
 H3043 H 0.06931 0.04165 0.12583
 H3044 H 0.06023 0.03238 0.10897
 H3045 H 0.04316 0.02052 0.10417
 H3046 H 0.03368 0.01108 0.08751
 H3047 H 0.02517 0.04494 0.07325
 H3048 H 0.03459 0.05435 0.08989
 H3049 H 0.00832 0.03344 0.06812
 H3050 H 0.00030 0.02547 0.05007
 H3051 H 0.02831 0.00019 0.04885
 H3052 H 0.03641 0.00834 0.06678
 C3053 C 0.04516 0.54424 0.60861
 C3054 C 0.05569 0.53995 0.61320
 C3055 C 0.06090 0.54530 0.62288
 C3056 C 0.05567 0.55505 0.62824
 C3057 C 0.04515 0.55936 0.62358
 C3058 C 0.03997 0.55403 0.61388
 C3059 C 0.03956 0.53853 0.59839
 C3060 C 0.03446 0.54528 0.58950
 C3061 C 0.02909 0.53993 0.57993
 C3062 C 0.02867 0.52769 0.57903
 C3063 C 0.03379 0.52092 0.58790
 C3064 C 0.03918 0.52628 0.59747
 C3065 C 0.02313 0.52207 0.56871
 C3066 C 0.02837 0.51237 0.56331
 C3067 C 0.02367 0.50768 0.55305
 C3068 C 0.01362 0.51259 0.54795
 C3069 C 0.00812 0.52199 0.55364
 C3070 C 0.01283 0.52667 0.56389
 H3071 H 0.05999 0.53253 0.60921
 H3072 H 0.06904 0.54176 0.62610
 H3073 H 0.04079 0.56679 0.62743
 H3074 H 0.03178 0.55745 0.61063
 H3075 H 0.03479 0.55473 0.58985
 H3076 H 0.02545 0.54539 0.57312
 H3077 H 0.03351 0.51147 0.58751
 H3078 H 0.04290 0.52084 0.60426
 H3079 H 0.03637 0.50869 0.56676
 H3080 H 0.02818 0.50048 0.54889
 H3081 H 0.00036 0.52599 0.54999
 H3082 H 0.00847 0.53401 0.56797
 C3083 C 0.54445 0.04484 0.60891
 C3084 C 0.55452 0.04001 0.61395
 C3085 C 0.55977 0.04523 0.62367
 C3086 C 0.55509 0.05548 0.62867
 C3087 C 0.54501 0.06034 0.62350
 C3088 C 0.53977 0.05509 0.61378
 C3089 C 0.53884 0.03918 0.59864
 C3090 C 0.52661 0.03844 0.59778
 C3091 C 0.52135 0.03303 0.58816
 C3092 C 0.52821 0.02822 0.57918
 C3093 C 0.54043 0.02898 0.58004
 C3094 C 0.54568 0.03440 0.58964
 C3095 C 0.52268 0.02270 0.56879
 C3096 C 0.52750 0.01258 0.56378
 C3097 C 0.52286 0.00791 0.55348
 C3098 C 0.51329 0.01326 0.54794
 C3099 C 0.50820 0.02314 0.55321
 C3100 C 0.51284 0.02779 0.56351
 H3101 H 0.55827 0.03205 0.61049
 H3102 H 0.56746 0.04108 0.62722
 H3103 H 0.54107 0.06823 0.62687
 H3104 H 0.53212 0.05914 0.60997
 H3105 H 0.52110 0.04190 0.60464
 H3106 H 0.51192 0.03248 0.58781
 H3107 H 0.54595 0.02558 0.57315
 H3108 H 0.55511 0.03501 0.58993
 H3109 H 0.53496 0.00835 0.56776
 H3110 H 0.52700 0.00030 0.54970
 H3111 H 0.50087 0.02754 0.54917
 H3112 H 0.50900 0.03566 0.56710
 C3113 C 0.54472 0.54492 0.10842
 C3114 C 0.53958 0.55466 0.11383
 C3115 C 0.54486 0.55991 0.12352
 C3116 C 0.55543 0.55557 0.12803
 C3117 C 0.56065 0.54592 0.12248
 C3118 C 0.55535 0.54066 0.11281
 C3119 C 0.53896 0.53915 0.09833
 C3120 C 0.53867 0.52690 0.09744
 C3121 C 0.53330 0.52148 0.08790
 C3122 C 0.52809 0.52819 0.07904
 C3123 C 0.52835 0.54044 0.07996
 C3124 C 0.53370 0.54585 0.08950
 C3125 C 0.52266 0.52251 0.06870
 C3126 C 0.51233 0.52702 0.06384
 C3127 C 0.50777 0.52236 0.05352
 C3128 C 0.51340 0.51305 0.04782
 C3129 C 0.52347 0.50822 0.05297
 C3130 C 0.52803 0.51289 0.06330
 H3131 H 0.53131 0.55806 0.11074
 H3132 H 0.54051 0.56727 0.12752
 H3133 H 0.56879 0.54231 0.12560
 H3134 H 0.55960 0.53326 0.10873
 H3135 H 0.54246 0.52150 0.10423
 H3136 H 0.53310 0.51202 0.08752
 H3137 H 0.52461 0.54586 0.07317
 H3138 H 0.53391 0.55531 0.08986
 H3139 H 0.50786 0.53427 0.06794
 H3140 H 0.50000 0.52630 0.04984
 H3141 H 0.52809 0.50109 0.04880
 H3142 H 0.53604 0.50927 0.06679
 C3143 C 0.20471 0.54501 0.64242
 C3144 C 0.19431 0.54055 0.63765
 C3145 C 0.18926 0.54572 0.62780
 C3146 C 0.19450 0.55546 0.62244
 C3147 C 0.20490 0.55993 0.62727
 C3148 C 0.20992 0.55477 0.63713
 C3149 C 0.21014 0.53948 0.65283
 C3150 C 0.21500 0.54639 0.66175
 C3151 C 0.22021 0.54121 0.67149
 C3152 C 0.22071 0.52898 0.67255
 C3153 C 0.21581 0.52206 0.66365
 C3154 C 0.21058 0.52725 0.65390
 C3155 C 0.22618 0.52351 0.68297
 C3156 C 0.22106 0.51370 0.68829
 C3157 C 0.22587 0.50893 0.69846
 C3158 C 0.23592 0.51386 0.70355
 C3159 C 0.24121 0.52348 0.69804
 C3160 C 0.23640 0.52824 0.68787
 H3161 H 0.19001 0.53312 0.64161
 H3162 H 0.18124 0.54203 0.62444
 H3163 H 0.20926 0.56736 0.62343
 H3164 H 0.21802 0.55832 0.64051
 H3165 H 0.21461 0.55583 0.66127
 H3166 H 0.22368 0.54679 0.67830
 H3167 H 0.21618 0.51262 0.66414
 H3168 H 0.20706 0.52168 0.64710
 H3169 H 0.21311 0.50993 0.68481
 H3170 H 0.22149 0.50159 0.70251
 H3171 H 0.24894 0.52753 0.70171
 H3172 H 0.24065 0.53568 0.68388
 C3173 C 0.20400 0.04512 0.14289
 C3174 C 0.20925 0.05489 0.13765
 C3175 C 0.20426 0.06007 0.12779
 C3176 C 0.19389 0.05563 0.12292
 C3177 C 0.18858 0.04591 0.12825
 C3178 C 0.19359 0.04071 0.13811
 C3179 C 0.20944 0.03951 0.15325
 C3180 C 0.20990 0.02728 0.15421
 C3181 C 0.21520 0.02201 0.16386
 C3182 C 0.22015 0.02886 0.17278
 C3183 C 0.21964 0.04110 0.17184
 C3184 C 0.21436 0.04636 0.16219
 C3185 C 0.22568 0.02331 0.18313
 C3186 C 0.23593 0.02801 0.18798
 C3187 C 0.24077 0.02323 0.19812
 C3188 C 0.23547 0.01361 0.20364
 C3189 C 0.22537 0.00873 0.19860
 C3190 C 0.22054 0.01352 0.18845
 H3191 H 0.21734 0.05841 0.14105
 H3192 H 0.20867 0.06749 0.12396
 H3193 H 0.18053 0.04229 0.12489
 H3194 H 0.18924 0.03330 0.14207
 H3195 H 0.20633 0.02177 0.14738
 H3196 H 0.21558 0.01257 0.16427
 H3197 H 0.22317 0.04661 0.17868
 H3198 H 0.21397 0.05580 0.16180
 H3199 H 0.24019 0.03544 0.18398
 H3200 H 0.24853 0.02724 0.20175
 H3201 H 0.22099 0.00140 0.20266
 H3202 H 0.21256 0.00979 0.18500
 C3203 C 0.70462 0.20453 0.60745
 C3204 C 0.70973 0.19474 0.61279
 C3205 C 0.70461 0.18965 0.62264
 C3206 C 0.69424 0.19422 0.62739
 C3207 C 0.68910 0.20397 0.62195
 C3208 C 0.69423 0.20906 0.61212
 C3209 C 0.71017 0.21006 0.59711
 C3210 C 0.71068 0.22229 0.59610
 C3211 C 0.71593 0.22750 0.58640
 C3212 C 0.72078 0.22060 0.57748
 C3213 C 0.72025 0.20837 0.57849
 C3214 C 0.71502 0.20316 0.58820
 C3215 C 0.72623 0.22610 0.56707
 C3216 C 0.73643 0.22139 0.56215
 C3217 C 0.74122 0.22619 0.55200
 C3218 C 0.73593 0.23583 0.54653
 C3219 C 0.72589 0.24073 0.55163
 C3220 C 0.72110 0.23592 0.56178
 H3221 H 0.71780 0.19112 0.60946
 H3222 H 0.70889 0.18219 0.62653
 H3223 H 0.68109 0.20773 0.62523
 H3224 H 0.68999 0.21649 0.60809
 H3225 H 0.70719 0.22784 0.60292
 H3226 H 0.71633 0.23694 0.58595
 H3227 H 0.72371 0.20281 0.57166
 H3228 H 0.71461 0.19372 0.58864
 H3229 H 0.74069 0.21394 0.56612
 H3230 H 0.74895 0.22217 0.54833
 H3231 H 0.72151 0.24809 0.54762
 H3232 H 0.71316 0.23968 0.56528
 C3233 C 0.70421 0.70497 0.10733
 C3234 C 0.70940 0.69518 0.11258
 C3235 C 0.70436 0.69000 0.12242
 C3236 C 0.69399 0.69447 0.12724
 C3237 C 0.68876 0.70423 0.12191
 C3238 C 0.69382 0.70942 0.11208
 C3239 C 0.70967 0.71055 0.09697
 C3240 C 0.71015 0.72278 0.09599
 C3241 C 0.71543 0.72803 0.08631
 C3242 C 0.72033 0.72116 0.07738
 C3243 C 0.71980 0.70893 0.07835
 C3244 C 0.71454 0.70368 0.08803
 C3245 C 0.72582 0.72670 0.06702
 C3246 C 0.73604 0.72201 0.06211
 C3247 C 0.74088 0.72684 0.05201
 C3248 C 0.73561 0.73651 0.04655
 C3249 C 0.72555 0.74139 0.05164
 C3250 C 0.72072 0.73654 0.06175
 H3251 H 0.71748 0.69163 0.10921
 H3252 H 0.70872 0.68255 0.12625
 H3253 H 0.68073 0.70790 0.12525
 H3254 H 0.68952 0.71686 0.10812
 H3255 H 0.70662 0.72831 0.10280
 H3256 H 0.71582 0.73747 0.08589
 H3257 H 0.72327 0.70339 0.07151
 H3258 H 0.71413 0.69424 0.08844
 H3259 H 0.74028 0.71453 0.06607
 H3260 H 0.74861 0.72284 0.04834
 H3261 H 0.72118 0.74876 0.04763
 H3262 H 0.71276 0.74028 0.06523
 C3263 C 0.54602 0.70534 0.14252
 C3264 C 0.54155 0.69483 0.13803
 C3265 C 0.54663 0.68958 0.12825
 C3266 C 0.55631 0.69472 0.12270
 C3267 C 0.56082 0.70521 0.12728
 C3268 C 0.55575 0.71045 0.13708
 C3269 C 0.54051 0.71097 0.15283
 C3270 C 0.54741 0.71591 0.16171
 C3271 C 0.54220 0.72109 0.17146
 C3272 C 0.52998 0.72150 0.17252
 C3273 C 0.52308 0.71659 0.16361
 C3274 C 0.52829 0.71139 0.15388
 C3275 C 0.52447 0.72693 0.18294
 C3276 C 0.51467 0.72176 0.18822
 C3277 C 0.50984 0.72655 0.19835
 C3278 C 0.51470 0.73664 0.20346
 C3279 C 0.52432 0.74197 0.19799
 C3280 C 0.52913 0.73718 0.18785
 H3281 H 0.53417 0.69059 0.14216
 H3282 H 0.54293 0.68147 0.12512
 H3283 H 0.56821 0.70950 0.12328
 H3284 H 0.55932 0.71860 0.14028
 H3285 H 0.55685 0.71559 0.16122
 H3286 H 0.54776 0.72458 0.17828
 H3287 H 0.51365 0.71690 0.16410
 H3288 H 0.52275 0.70785 0.14707
 H3289 H 0.51095 0.71379 0.18472
 H3290 H 0.50250 0.72215 0.20236
 H3291 H 0.52830 0.74974 0.20167
 H3292 H 0.53656 0.74147 0.18388
 C3293 C 0.04445 0.70585 0.64141
 C3294 C 0.04001 0.69538 0.63678
 C3295 C 0.04526 0.69016 0.62706
 C3296 C 0.05505 0.69530 0.62171
 C3297 C 0.05950 0.70576 0.62641
 C3298 C 0.05427 0.71095 0.63614
 C3299 C 0.03884 0.71147 0.65168
 C3300 C 0.04569 0.71643 0.66058
 C3301 C 0.04044 0.72179 0.67021
 C3302 C 0.02822 0.72235 0.67114
 C3303 C 0.02136 0.71737 0.66224
 C3304 C 0.02662 0.71199 0.65261
 C3305 C 0.02270 0.72783 0.68154
 C3306 C 0.01291 0.72267 0.68683
 C3307 C 0.00828 0.72729 0.69714
 C3308 C 0.01333 0.73720 0.70240
 C3309 C 0.02285 0.74262 0.69685
 C3310 C 0.02747 0.73799 0.68654
 H3311 H 0.03255 0.69115 0.64076
 H3312 H 0.04159 0.68208 0.62380
 H3313 H 0.06697 0.71006 0.62256
 H3314 H 0.05781 0.71910 0.63942
 H3315 H 0.05513 0.71600 0.66021
 H3316 H 0.04598 0.72531 0.67704
 H3317 H 0.01192 0.71777 0.66264
 H3318 H 0.02111 0.70839 0.64581
 H3319 H 0.00909 0.71478 0.68326
 H3320 H 0.00099 0.72284 0.70119
 H3321 H 0.02696 0.75026 0.70063
 H3322 H 0.03488 0.74229 0.68254
 C3323 C 0.54526 0.64276 0.20428
 C3324 C 0.54081 0.63799 0.19388
 C3325 C 0.54596 0.62811 0.18887
 C3326 C 0.55567 0.62274 0.19416
 C3327 C 0.56016 0.62761 0.20452
 C3328 C 0.55503 0.63749 0.20951
 C3329 C 0.53966 0.65311 0.20976
 C3330 C 0.54652 0.66203 0.21468
 C3331 C 0.54128 0.67168 0.21999
 C3332 C 0.52905 0.67265 0.22050
 C3333 C 0.52218 0.66375 0.21554
 C3334 C 0.52743 0.65409 0.21021
 C3335 C 0.52353 0.68304 0.22599
 C3336 C 0.51378 0.68840 0.22080
 C3337 C 0.50905 0.69860 0.22556
 C3338 C 0.51394 0.70366 0.23565
 C3339 C 0.52350 0.69811 0.24100
 C3340 C 0.52823 0.68792 0.23624
 H3341 H 0.53337 0.64193 0.18958
 H3342 H 0.54227 0.62472 0.18085
 H3343 H 0.56754 0.62372 0.20895
 H3344 H 0.55855 0.64085 0.21763
 H3345 H 0.55595 0.66163 0.21426
 H3346 H 0.54681 0.67850 0.22352
 H3347 H 0.51274 0.66418 0.21591
 H3348 H 0.52191 0.64730 0.20661
 H3349 H 0.51005 0.68493 0.21282
 H3350 H 0.50178 0.70271 0.22111
 H3351 H 0.52754 0.70178 0.24874
 H3352 H 0.53564 0.68390 0.24052
 C3353 C 0.04462 0.64179 0.70552
 C3354 C 0.05445 0.63653 0.71064
 C3355 C 0.05977 0.62688 0.70539
 C3356 C 0.05541 0.62225 0.69486
 C3357 C 0.04562 0.62760 0.68970
 C3358 C 0.04029 0.63724 0.69497
 C3359 C 0.03891 0.65198 0.71117
 C3360 C 0.02667 0.65286 0.71154
 C3361 C 0.02131 0.66245 0.71689
 C3362 C 0.02808 0.67136 0.72197
 C3363 C 0.04031 0.67047 0.72158
 C3364 C 0.04567 0.66089 0.71625
 C3365 C 0.02245 0.68170 0.72743
 C3366 C 0.02705 0.68659 0.73772
 C3367 C 0.02236 0.69686 0.74235
 C3368 C 0.01295 0.70249 0.73681
 C3369 C 0.00805 0.69732 0.72678
 C3370 C 0.01275 0.68704 0.72215
 H3371 H 0.05792 0.63976 0.71883
 H3372 H 0.06724 0.62304 0.70969
 H3373 H 0.04203 0.62442 0.68156
 H3374 H 0.03284 0.64122 0.69072
 H3375 H 0.02123 0.64606 0.70785
 H3376 H 0.01187 0.66283 0.71716
 H3377 H 0.04577 0.67731 0.72520
 H3378 H 0.05511 0.66055 0.71594
 H3379 H 0.03439 0.68256 0.74211
 H3380 H 0.02635 0.70056 0.75010
 H3381 H 0.00085 0.70143 0.72223
 H3382 H 0.00907 0.68354 0.71416
 C3383 C 0.04451 0.10825 0.04511
 C3384 C 0.04030 0.11277 0.05571
 C3385 C 0.04565 0.12244 0.06092
 C3386 C 0.05534 0.12786 0.05564
 C3387 C 0.05955 0.12328 0.04505
 C3388 C 0.05422 0.11360 0.03986
 C3389 C 0.03883 0.09800 0.03953
 C3390 C 0.04560 0.08917 0.03436
 C3391 C 0.04028 0.07956 0.02904
 C3392 C 0.02805 0.07854 0.02874
 C3393 C 0.02126 0.08736 0.03392
 C3394 C 0.02659 0.09698 0.03927
 C3395 C 0.02247 0.06817 0.02327
 C3396 C 0.01287 0.06270 0.02862
 C3397 C 0.00822 0.05239 0.02399
 C3398 C 0.01307 0.04730 0.01391
 C3399 C 0.02237 0.05304 0.00831
 C3400 C 0.02701 0.06334 0.01294
 H3401 H 0.03294 0.10873 0.06006
 H3402 H 0.04217 0.12560 0.06911
 H3403 H 0.06694 0.12718 0.04065
 H3404 H 0.05759 0.11040 0.03162
 H3405 H 0.05505 0.08959 0.03461
 H3406 H 0.04576 0.07279 0.02535
 H3407 H 0.01182 0.08689 0.03373
 H3408 H 0.02113 0.10372 0.04304
 H3409 H 0.00923 0.06615 0.03664
 H3410 H 0.00109 0.04820 0.02857
 H3411 H 0.02631 0.04940 0.00051
 H3412 H 0.03427 0.06747 0.00850
 C3413 C 0.04408 0.60877 0.54481
 C3414 C 0.03979 0.61339 0.55534
 C3415 C 0.04508 0.62314 0.56048
 C3416 C 0.05477 0.62854 0.55519
 C3417 C 0.05906 0.62386 0.54467
 C3418 C 0.05379 0.61411 0.53955
 C3419 C 0.03843 0.59846 0.53930
 C3420 C 0.04525 0.58960 0.53424
 C3421 C 0.03997 0.57994 0.52897
 C3422 C 0.02774 0.57891 0.52860
 C3423 C 0.02091 0.58776 0.53368
 C3424 C 0.02620 0.59743 0.53897
 C3425 C 0.02219 0.56849 0.52318
 C3426 C 0.01256 0.56306 0.52850
 C3427 C 0.00793 0.55273 0.52391
 C3428 C 0.01283 0.54758 0.51388
 C3429 C 0.02218 0.55327 0.50831
 C3430 C 0.02680 0.56360 0.51290
 H3431 H 0.03242 0.60937 0.55969
 H3432 H 0.04155 0.62638 0.56861
 H3433 H 0.06643 0.62776 0.54025
 H3434 H 0.05720 0.61084 0.53136
 H3435 H 0.05469 0.59005 0.53453
 H3436 H 0.04548 0.57315 0.52536
 H3437 H 0.01147 0.58728 0.53343
 H3438 H 0.02071 0.60420 0.54265
 H3439 H 0.00887 0.56655 0.53648
 H3440 H 0.00077 0.54857 0.52848
 H3441 H 0.02616 0.54959 0.50056
 H3442 H 0.03408 0.56770 0.50848
 C3443 C 0.54476 0.10879 0.54447
 C3444 C 0.54047 0.11326 0.55505
 C3445 C 0.54580 0.12289 0.56036
 C3446 C 0.55553 0.12833 0.55519
 C3447 C 0.55985 0.12378 0.54462
 C3448 C 0.55454 0.11413 0.53934
 C3449 C 0.53906 0.09859 0.53881
 C3450 C 0.54582 0.08971 0.53372
 C3451 C 0.54047 0.08008 0.52845
 C3452 C 0.52823 0.07912 0.52811
 C3453 C 0.52147 0.08800 0.53320
 C3454 C 0.52682 0.09764 0.53849
 C3455 C 0.52262 0.06872 0.52273
 C3456 C 0.51297 0.06335 0.52809
 C3457 C 0.50825 0.05305 0.52351
 C3458 C 0.51307 0.04788 0.51346
 C3459 C 0.52244 0.05352 0.50786
 C3460 C 0.52715 0.06381 0.51244
 H3461 H 0.53306 0.10923 0.55931
 H3462 H 0.54224 0.12602 0.56852
 H3463 H 0.56727 0.12771 0.54031
 H3464 H 0.55796 0.11096 0.53110
 H3465 H 0.55526 0.09010 0.53400
 H3466 H 0.54593 0.07326 0.52483
 H3467 H 0.51202 0.08757 0.53298
 H3468 H 0.52137 0.10442 0.54220
 H3469 H 0.50935 0.06686 0.53609
 H3470 H 0.50109 0.04893 0.52811
 H3471 H 0.52638 0.04981 0.50010
 H3472 H 0.53445 0.06785 0.50799
 C3473 C 0.54467 0.60840 0.04491
 C3474 C 0.54040 0.61289 0.05550
 C3475 C 0.54575 0.62252 0.06078
 C3476 C 0.55548 0.62793 0.05558
 C3477 C 0.55979 0.62335 0.04502
 C3478 C 0.55445 0.61371 0.03976
 C3479 C 0.53891 0.59826 0.03923
 C3480 C 0.54562 0.58937 0.03407
 C3481 C 0.54022 0.57984 0.02870
 C3482 C 0.52798 0.57898 0.02834
 C3483 C 0.52126 0.58786 0.03349
 C3484 C 0.52667 0.59739 0.03888
 C3485 C 0.52230 0.56868 0.02286
 C3486 C 0.51262 0.56333 0.02817
 C3487 C 0.50788 0.55307 0.02353
 C3488 C 0.51272 0.54794 0.01347
 C3489 C 0.52211 0.55356 0.00791
 C3490 C 0.52684 0.56381 0.01255
 H3491 H 0.53299 0.60886 0.05978
 H3492 H 0.54221 0.62567 0.06895
 H3493 H 0.56722 0.62724 0.04069
 H3494 H 0.55786 0.61052 0.03153
 H3495 H 0.55507 0.58969 0.03436
 H3496 H 0.54563 0.57301 0.02502
 H3497 H 0.51181 0.58749 0.03324
 H3498 H 0.52127 0.60418 0.04264
 H3499 H 0.50901 0.56680 0.03619
 H3500 H 0.50070 0.54895 0.02809
 H3501 H 0.52607 0.54986 0.00015
 H3502 H 0.53417 0.56784 0.00814
 C3503 C 0.70479 0.14256 0.54548
 C3504 C 0.69510 0.13713 0.54025
 C3505 C 0.68994 0.12733 0.54539
 C3506 C 0.69432 0.12272 0.55591
 C3507 C 0.70397 0.12825 0.56118
 C3508 C 0.70914 0.13803 0.55602
 C3509 C 0.71038 0.15287 0.53994
 C3510 C 0.72261 0.15393 0.53966
 C3511 C 0.72788 0.16363 0.53445
 C3512 C 0.72104 0.17248 0.52940
 C3513 C 0.70881 0.17141 0.52968
 C3514 C 0.70354 0.16171 0.53488
 C3515 C 0.72661 0.18290 0.52403
 C3516 C 0.72211 0.18774 0.51368
 C3517 C 0.72698 0.19788 0.50895
 C3518 C 0.73648 0.20342 0.51445
 C3519 C 0.74117 0.19840 0.52464
 C3520 C 0.73629 0.18825 0.52937
 H3521 H 0.69163 0.14035 0.53206
 H3522 H 0.68256 0.12337 0.54102
 H3523 H 0.70759 0.12506 0.56929
 H3524 H 0.71649 0.14213 0.56036
 H3525 H 0.72811 0.14718 0.54333
 H3526 H 0.73732 0.16413 0.53424
 H3527 H 0.70330 0.17819 0.52606
 H3528 H 0.69410 0.16122 0.53511
 H3529 H 0.71477 0.18372 0.50927
 H3530 H 0.72313 0.20151 0.50111
 H3531 H 0.74840 0.20248 0.52919
 H3532 H 0.73987 0.18481 0.53742
 C3533 C 0.70448 0.64279 0.04536
 C3534 C 0.69404 0.63812 0.04092
 C3535 C 0.68896 0.62827 0.04605
 C3536 C 0.69423 0.62282 0.05573
 C3537 C 0.70464 0.62758 0.06021
 C3538 C 0.70970 0.63744 0.05509
 C3539 C 0.70999 0.65312 0.03978
 C3540 C 0.71495 0.66200 0.04666
 C3541 C 0.72026 0.67167 0.04145
 C3542 C 0.72072 0.67269 0.02921
 C3543 C 0.71571 0.66383 0.02232
 C3544 C 0.71039 0.65416 0.02755
 C3545 C 0.72614 0.68311 0.02370
 C3546 C 0.73638 0.68803 0.02837
 C3547 C 0.74112 0.69822 0.02359
 C3548 C 0.73573 0.70373 0.01402
 C3549 C 0.72562 0.69865 0.00920
 C3550 C 0.72090 0.68846 0.01397
 H3551 H 0.68974 0.64213 0.03350
 H3552 H 0.68091 0.62497 0.04237
 H3553 H 0.70905 0.62364 0.06757
 H3554 H 0.71785 0.64074 0.05861
 H3555 H 0.71455 0.66156 0.05611
 H3556 H 0.72382 0.67845 0.04701
 H3557 H 0.71604 0.66430 0.01288
 H3558 H 0.70674 0.64741 0.02201
 H3559 H 0.74070 0.68404 0.03577
 H3560 H 0.74887 0.70190 0.02759
 H3561 H 0.72114 0.70273 0.00193
 H3562 H 0.71291 0.68498 0.01029
 C3563 C 0.20470 0.60774 0.70473
 C3564 C 0.20920 0.61240 0.69431
 C3565 C 0.20410 0.62223 0.68918
 C3566 C 0.19438 0.62769 0.69435
 C3567 C 0.18986 0.62298 0.70476
 C3568 C 0.19495 0.61312 0.70988
 C3569 C 0.21016 0.59734 0.71022
 C3570 C 0.20321 0.58846 0.71506
 C3571 C 0.20835 0.57867 0.72024
 C3572 C 0.22057 0.57755 0.72073
 C3573 C 0.22752 0.58643 0.71588
 C3574 C 0.22238 0.59621 0.71068
 C3575 C 0.22601 0.56708 0.72612
 C3576 C 0.23578 0.56177 0.72095
 C3577 C 0.24058 0.55161 0.72571
 C3578 C 0.23572 0.54651 0.73578
 C3579 C 0.22609 0.55198 0.74109
 C3580 C 0.22130 0.56214 0.73632
 H3581 H 0.21659 0.60835 0.69004
 H3582 H 0.20781 0.62548 0.68114
 H3583 H 0.18245 0.62690 0.70907
 H3584 H 0.19137 0.60983 0.71798
 H3585 H 0.19378 0.58898 0.71466
 H3586 H 0.20275 0.57187 0.72368
 H3587 H 0.23695 0.58590 0.71625
 H3588 H 0.22797 0.60299 0.70718
 H3589 H 0.23952 0.56527 0.71299
 H3590 H 0.24792 0.54758 0.72131
 H3591 H 0.22210 0.54830 0.74883
 H3592 H 0.21387 0.56612 0.74061
 C3593 C 0.20472 0.10701 0.20401
 C3594 C 0.19502 0.11234 0.20928
 C3595 C 0.18983 0.12218 0.20426
 C3596 C 0.19420 0.12694 0.19381
 C3597 C 0.20387 0.12154 0.18850
 C3598 C 0.20907 0.11171 0.19354
 C3599 C 0.21031 0.09665 0.20945
 C3600 C 0.22254 0.09558 0.20978
 C3601 C 0.22779 0.08589 0.21502
 C3602 C 0.22094 0.07703 0.22004
 C3603 C 0.20871 0.07807 0.21966
 C3604 C 0.20346 0.08776 0.21443
 C3605 C 0.22648 0.06666 0.22553
 C3606 C 0.22189 0.06185 0.23585
 C3607 C 0.22672 0.05175 0.24070
 C3608 C 0.23628 0.04620 0.23534
 C3609 C 0.24106 0.05118 0.22517
 C3610 C 0.23622 0.06129 0.22033
 H3611 H 0.19155 0.10901 0.21743
 H3612 H 0.18245 0.12606 0.20868
 H3613 H 0.20745 0.12483 0.18041
 H3614 H 0.21643 0.10769 0.18918
 H3615 H 0.22805 0.10236 0.20615
 H3616 H 0.23723 0.08541 0.21530
 H3617 H 0.20318 0.07128 0.22324
 H3618 H 0.19402 0.08823 0.21414
 H3619 H 0.21451 0.06588 0.24016
 H3620 H 0.22280 0.04816 0.24852
 H3621 H 0.24834 0.04710 0.22074
 H3622 H 0.23987 0.06470 0.21231
 C3623 C 0.70558 1.10827 0.70483
 C3624 C 0.70984 1.11280 0.69426
 C3625 C 0.70452 1.12247 0.68903
 C3626 C 0.69481 1.12787 0.69428
 C3627 C 0.69052 1.12326 0.70483
 C3628 C 0.69583 1.11359 0.71003
 C3629 C 0.71128 1.09806 0.71046
 C3630 C 0.70453 1.08923 0.71564
 C3631 C 0.70987 1.07968 0.72103
 C3632 C 0.72211 1.07874 0.72138
 C3633 C 0.72887 1.08757 0.71618
 C3634 C 0.72352 1.09712 0.71078
 C3635 C 0.72771 1.06842 0.72690
 C3636 C 0.73737 1.06300 0.72162
 C3637 C 0.74204 1.05273 0.72628
 C3638 C 0.73716 1.04764 0.73634
 C3639 C 0.72779 1.05333 0.74188
 C3640 C 0.72313 1.06360 0.73721
 H3641 H 0.71723 1.10877 0.68994
 H3642 H 0.70803 1.12564 0.68086
 H3643 H 0.68312 1.12715 0.70920
 H3644 H 0.69242 1.11038 0.71824
 H3645 H 0.69508 1.08960 0.71536
 H3646 H 0.70441 1.07290 0.72473
 H3647 H 0.73832 1.08716 0.71642
 H3648 H 0.72896 1.10387 0.70700
 H3649 H 0.74103 1.06644 0.71361
 H3650 H 0.74921 1.04856 0.72174
 H3651 H 0.72382 1.04969 0.74965
 H3652 H 0.71583 1.06769 0.74160
 C3653 C 0.70567 0.60843 0.20514
 C3654 C 0.69593 0.61379 0.21031
 C3655 C 0.69058 0.62339 0.20501
 C3656 C 0.69482 0.62787 0.19439
 C3657 C 0.70452 0.62242 0.18918
 C3658 C 0.70989 0.61284 0.19450
 C3659 C 0.71142 0.59830 0.21084
 C3660 C 0.72365 0.59740 0.21113
 C3661 C 0.72905 0.58786 0.21652
 C3662 C 0.72232 0.57901 0.22172
 C3663 C 0.71008 0.57992 0.22142
 C3664 C 0.70469 0.58946 0.21606
 C3665 C 0.72798 0.56870 0.22717
 C3666 C 0.72349 0.56386 0.23752
 C3667 C 0.72820 0.55360 0.24213
 C3668 C 0.73752 0.54792 0.23651
 C3669 C 0.74232 0.55303 0.22642
 C3670 C 0.73760 0.56330 0.22181
 H3671 H 0.69256 0.61067 0.21858
 H3672 H 0.68319 0.62732 0.20936
 H3673 H 0.70801 0.62549 0.18096
 H3674 H 0.71727 0.60877 0.19021
 H3675 H 0.72907 0.60416 0.20733
 H3676 H 0.73849 0.58747 0.21672
 H3677 H 0.70465 0.57313 0.22513
 H3678 H 0.69525 0.58981 0.21580
 H3679 H 0.71621 0.56794 0.24197
 H3680 H 0.72429 0.54994 0.24993
 H3681 H 0.74946 0.54888 0.22181
 H3682 H 0.74120 0.56675 0.21377
 C3683 C 0.54411 0.14132 0.70492
 C3684 C 0.55414 0.13632 0.70989
 C3685 C 0.55945 0.12660 0.70475
 C3686 C 0.55487 0.12156 0.69446
 C3687 C 0.54483 0.12669 0.68948
 C3688 C 0.53954 0.13642 0.69464
 C3689 C 0.53844 0.15160 0.71048
 C3690 C 0.52621 0.15248 0.71102
 C3691 C 0.52090 0.16211 0.71633
 C3692 C 0.52770 0.17108 0.72126
 C3693 C 0.53993 0.17021 0.72070
 C3694 C 0.54524 0.16060 0.71537
 C3695 C 0.52214 0.18144 0.72673
 C3696 C 0.52678 0.18633 0.73700
 C3697 C 0.52212 0.19659 0.74168
 C3698 C 0.51269 0.20223 0.73618
 C3699 C 0.50776 0.19709 0.72614
 C3700 C 0.51243 0.18681 0.72148
 H3701 H 0.55781 0.13981 0.71789
 H3702 H 0.56710 0.12308 0.70900
 H3703 H 0.54097 0.12330 0.68155
 H3704 H 0.53194 0.14020 0.69048
 H3705 H 0.52073 0.14562 0.70748
 H3706 H 0.51146 0.16247 0.71673
 H3707 H 0.54542 0.17709 0.72419
 H3708 H 0.55468 0.16031 0.71492
 H3709 H 0.53414 0.18228 0.74136
 H3710 H 0.52613 0.20027 0.74942
 H3711 H 0.50054 0.20122 0.72163
 H3712 H 0.50871 0.18331 0.71351
 C3713 C 1.04439 0.14130 0.20553
 C3714 C 1.04012 0.13676 0.19495
 C3715 C 1.04547 0.12713 0.18971
 C3716 C 1.05522 0.12175 0.19493
 C3717 C 1.05950 0.12635 0.20551
 C3718 C 1.05416 0.13601 0.21073
 C3719 C 1.03868 0.15151 0.21113
 C3720 C 1.04543 0.16040 0.21624
 C3721 C 1.04008 0.17000 0.22153
 C3722 C 1.02785 0.17093 0.22186
 C3723 C 1.02108 0.16205 0.21673
 C3724 C 1.02644 0.15244 0.21142
 C3725 C 1.02223 0.18128 0.22732
 C3726 C 1.01255 0.18664 0.22201
 C3727 C 1.00784 0.19692 0.22664
 C3728 C 1.01272 0.20207 0.23669
 C3729 C 1.02211 0.19642 0.24226
 C3730 C 1.02680 0.18615 0.23762
 H3731 H 1.03271 0.14077 0.19064
 H3732 H 1.04194 0.12396 0.18153
 H3733 H 1.06692 0.12248 0.20987
 H3734 H 1.05757 0.13922 0.21895
 H3735 H 1.05488 0.16003 0.21597
 H3736 H 1.04554 0.17682 0.22517
 H3737 H 1.01164 0.16245 0.21695
 H3738 H 1.02100 0.14565 0.20769
 H3739 H 1.00889 0.18315 0.21401
 H3740 H 1.00066 0.20104 0.22209
 H3741 H 1.02608 0.20010 0.25003
 H3742 H 1.03412 0.18211 0.24203
 C3743 C 0.20567 0.64196 0.54485
 C3744 C 0.21000 0.63747 0.55542
 C3745 C 0.20470 0.62781 0.56070
 C3746 C 0.19496 0.62238 0.55552
 C3747 C 0.19060 0.62695 0.54497
 C3748 C 0.19588 0.63661 0.53971
 C3749 C 0.21134 0.65216 0.53918
 C3750 C 0.20456 0.66101 0.53405
 C3751 C 0.20989 0.67059 0.52869
 C3752 C 0.22212 0.67154 0.52831
 C3753 C 0.22891 0.66269 0.53344
 C3754 C 0.22358 0.65311 0.53882
 C3755 C 0.22772 0.68190 0.52284
 C3756 C 0.23743 0.68727 0.52810
 C3757 C 0.24212 0.69755 0.52346
 C3758 C 0.23720 0.70270 0.51345
 C3759 C 0.22777 0.69706 0.50793
 C3760 C 0.22309 0.68679 0.51257
 H3761 H 0.21741 0.64151 0.55969
 H3762 H 0.20828 0.62468 0.56885
 H3763 H 0.18316 0.62304 0.54065
 H3764 H 0.19242 0.63979 0.53151
 H3765 H 0.19512 0.66062 0.53436
 H3766 H 0.20441 0.67738 0.52504
 H3767 H 0.23835 0.66311 0.53318
 H3768 H 0.22904 0.64635 0.54255
 H3769 H 0.24113 0.68378 0.53608
 H3770 H 0.24934 0.70167 0.52799
 H3771 H 0.22377 0.70075 0.50019
 H3772 H 0.21574 0.68274 0.50818
 C3773 C 0.20502 0.14264 1.04596
 C3774 C 0.19459 0.13803 1.04143
 C3775 C 0.18938 0.12825 1.04655
 C3776 C 0.19449 0.12281 1.05632
 C3777 C 0.20493 0.12747 1.06085
 C3778 C 0.21011 0.13727 1.05574
 C3779 C 0.21061 0.15297 1.04047
 C3780 C 0.21549 0.16186 1.04740
 C3781 C 0.22079 0.17156 1.04223
 C3782 C 0.22136 0.17258 1.03000
 C3783 C 0.21647 0.16368 1.02307
 C3784 C 0.21115 0.15400 1.02825
 C3785 C 0.22686 0.18296 1.02451
 C3786 C 0.22180 0.18819 1.01463
 C3787 C 0.22664 0.19829 1.00978
 C3788 C 0.23666 0.20342 1.01472
 C3789 C 0.24190 0.19801 1.02443
 C3790 C 0.23706 0.18790 1.02927
 H3791 H 0.19038 0.14207 1.03398
 H3792 H 0.18133 0.12502 1.04281
 H3793 H 0.20921 0.12355 1.06829
 H3794 H 0.21824 0.14054 1.05934
 H3795 H 0.21503 0.16141 1.05684
 H3796 H 0.22425 0.17838 1.04781
 H3797 H 0.21689 0.16414 1.01363
 H3798 H 0.20760 0.14721 1.02267
 H3799 H 0.21386 0.18469 1.01085
 H3800 H 0.22230 0.20225 1.00237
 H3801 H 0.24961 0.20172 1.02848
 H3802 H 0.24126 0.18398 1.03678
 C3803 C 0.20551 0.70586 0.60844
 C3804 C 0.21066 0.69609 0.61377
 C3805 C 0.20543 0.69080 0.62344
 C3806 C 0.19488 0.69513 0.62802
 C3807 C 0.18968 0.70486 0.62259
 C3808 C 0.19494 0.71016 0.61293
 C3809 C 0.21116 0.71156 0.59826
 C3810 C 0.21152 0.72380 0.59734
 C3811 C 0.21688 0.72916 0.58777
 C3812 C 0.22201 0.72239 0.57890
 C3813 C 0.22164 0.71014 0.57983
 C3814 C 0.21629 0.70479 0.58939
 C3815 C 0.22747 0.72801 0.56856
 C3816 C 0.23775 0.72342 0.56367
 C3817 C 0.24238 0.72812 0.55341
 C3818 C 0.23684 0.73753 0.54778
 C3819 C 0.22681 0.74242 0.55294
 C3820 C 0.22219 0.73771 0.56321
 H3821 H 0.21887 0.69265 0.61058
 H3822 H 0.20976 0.68338 0.62735
 H3823 H 0.18153 0.70842 0.62572
 H3824 H 0.19067 0.71757 0.60889
 H3825 H 0.20779 0.72924 0.60412
 H3826 H 0.21714 0.73861 0.58738
 H3827 H 0.22528 0.70468 0.57302
 H3828 H 0.21599 0.69534 0.58975
 H3829 H 0.24214 0.71609 0.56771
 H3830 H 0.25011 0.72414 0.54971
 H3831 H 0.22227 0.74962 0.54882
 H3832 H 0.21421 0.74138 0.56670
 C3833 C 0.20443 0.20401 1.10739
 C3834 C 0.20955 0.19423 1.11274
 C3835 C 0.20441 0.18912 1.12256
 C3836 C 0.19400 0.19363 1.12726
 C3837 C 0.18883 0.20336 1.12181
 C3838 C 0.19399 0.20849 1.11201
 C3839 C 0.20998 0.20957 1.09707
 C3840 C 0.21042 0.22180 1.09605
 C3841 C 0.21567 0.22705 1.08636
 C3842 C 0.22061 0.22018 1.07746
 C3843 C 0.22015 0.20794 1.07847
 C3844 C 0.21491 0.20270 1.08817
 C3845 C 0.22607 0.22573 1.06708
 C3846 C 0.23632 0.22109 1.06219
 C3847 C 0.24115 0.22598 1.05211
 C3848 C 0.23586 0.23564 1.04667
 C3849 C 0.22575 0.24045 1.05173
 C3850 C 0.22092 0.23555 1.06181
 H3851 H 0.21766 0.19066 1.10945
 H3852 H 0.20870 0.18167 1.12647
 H3853 H 0.18079 0.20708 1.12505
 H3854 H 0.18973 0.21590 1.10797
 H3855 H 0.20686 0.22733 1.10285
 H3856 H 0.21601 0.23649 1.08592
 H3857 H 0.22366 0.20241 1.07165
 H3858 H 0.21455 0.19326 1.08861
 H3859 H 0.24058 0.21364 1.06615
 H3860 H 0.24892 0.22202 1.04846
 H3861 H 0.22136 0.24781 1.04773
 H3862 H 0.21293 0.23924 1.06528
 C3863 C 0.70539 0.54467 0.14172
 C3864 C 0.71056 0.55443 0.13640
 C3865 C 0.70530 0.55977 0.12675
 C3866 C 0.69472 0.55547 0.12219
 C3867 C 0.68955 0.54569 0.12756
 C3868 C 0.69483 0.54035 0.13719
 C3869 C 0.71102 0.53898 0.15194
 C3870 C 0.71137 0.52674 0.15288
 C3871 C 0.71674 0.52140 0.16246
 C3872 C 0.72188 0.52818 0.17132
 C3873 C 0.72148 0.54042 0.17042
 C3874 C 0.71613 0.54576 0.16083
 C3875 C 0.72740 0.52256 0.18163
 C3876 C 0.73770 0.52716 0.18648
 C3877 C 0.74240 0.52246 0.19672
 C3878 C 0.73689 0.51303 0.20235
 C3879 C 0.72686 0.50812 0.19722
 C3880 C 0.72216 0.51283 0.18698
 H3881 H 0.71879 0.55785 0.13958
 H3882 H 0.70963 0.56720 0.12286
 H3883 H 0.68140 0.54213 0.12439
 H3884 H 0.69056 0.53292 0.14118
 H3885 H 0.70764 0.52129 0.14610
 H3886 H 0.71700 0.51195 0.16285
 H3887 H 0.72512 0.54588 0.17724
 H3888 H 0.71582 0.55521 0.16048
 H3889 H 0.74207 0.53451 0.18244
 H3890 H 0.75015 0.52645 0.20040
 H3891 H 0.72235 0.50089 0.20134
 H3892 H 0.71417 0.50915 0.18352
 C3893 C 0.70503 1.04448 0.64177
 C3894 C 0.69454 1.04011 0.63711
 C3895 C 0.68935 1.04542 0.62742
 C3896 C 0.69454 1.05522 0.62212
 C3897 C 0.70497 1.05965 0.62687
 C3898 C 0.71015 1.05435 0.63658
 C3899 C 0.71066 1.03873 0.65194
 C3900 C 0.71574 1.04546 0.66088
 C3901 C 0.72113 1.04006 0.67040
 C3902 C 0.72160 1.02781 0.67120
 C3903 C 0.71650 1.02108 0.66228
 C3904 C 0.71109 1.02648 0.65275
 C3905 C 0.72714 1.02215 0.68148
 C3906 C 0.72191 1.01241 0.68681
 C3907 C 0.72660 1.00769 0.69705
 C3908 C 0.73663 1.01260 0.70220
 C3909 C 0.74213 1.02204 0.69657
 C3910 C 0.73743 1.02675 0.68634
 H3911 H 0.69028 1.03264 0.64105
 H3912 H 0.68125 1.04184 0.62414
 H3913 H 0.70930 1.06711 0.62302
 H3914 H 0.71830 1.05784 0.63988
 H3915 H 0.71538 1.05491 0.66061
 H3916 H 0.72476 1.04549 0.67726
 H3917 H 0.71682 1.01163 0.66259
 H3918 H 0.70740 1.02107 0.64591
 H3919 H 0.71393 1.00872 0.68332
 H3920 H 0.72209 1.00046 0.70116
 H3921 H 0.74987 1.02605 0.70026
 H3922 H 0.74178 1.03412 0.68231
 C3923 C 0.54497 0.20591 0.64161
 C3924 C 0.55556 0.21022 0.63717
 C3925 C 0.56084 0.20493 0.62751
 C3926 C 0.55564 0.19522 0.62204
 C3927 C 0.54508 0.19088 0.62657
 C3928 C 0.53982 0.19615 0.63623
 C3929 C 0.53929 0.21158 0.65179
 C3930 C 0.53412 0.20479 0.66060
 C3931 C 0.52871 0.21011 0.67015
 C3932 C 0.52830 0.22235 0.67109
 C3933 C 0.53348 0.22915 0.66228
 C3934 C 0.53891 0.22382 0.65273
 C3935 C 0.52277 0.22794 0.68141
 C3936 C 0.52803 0.23762 0.68685
 C3937 C 0.52336 0.24226 0.69713
 C3938 C 0.51333 0.23732 0.70222
 C3939 C 0.50780 0.22794 0.69650
 C3940 C 0.51247 0.22332 0.68621
 H3941 H 0.55983 0.21762 0.64125
 H3942 H 0.56901 0.20850 0.62441
 H3943 H 0.54074 0.18347 0.62263
 H3944 H 0.53160 0.19271 0.63938
 H3945 H 0.53444 0.19534 0.66022
 H3946 H 0.52503 0.20463 0.67692
 H3947 H 0.53321 0.23860 0.66269
 H3948 H 0.54268 0.22928 0.64599
 H3949 H 0.53602 0.24132 0.68342
 H3950 H 0.52789 0.24944 0.70132
 H3951 H 0.50005 0.22393 0.70013
 H3952 H 0.50810 0.21599 0.68210
 C3953 C 1.04453 0.20535 0.14156
 C3954 C 1.05511 0.20972 0.13716
 C3955 C 1.06049 0.20443 0.12756
 C3956 C 1.05541 0.19465 0.12209
 C3957 C 1.04485 0.19025 0.12656
 C3958 C 1.03948 0.19553 0.13618
 C3959 C 1.03876 0.21102 0.15170
 C3960 C 1.03363 0.20423 0.16054
 C3961 C 1.02826 0.20956 0.17012
 C3962 C 1.02788 0.22180 0.17108
 C3963 C 1.03298 0.22860 0.16222
 C3964 C 1.03836 0.22326 0.15264
 C3965 C 1.02246 0.22740 0.18146
 C3966 C 1.02776 0.23711 0.18681
 C3967 C 1.02319 0.24180 0.19712
 C3968 C 1.01320 0.23689 0.20231
 C3969 C 1.00763 0.22747 0.19669
 C3970 C 1.01221 0.22279 0.18639
 H3971 H 1.05930 0.21716 0.14123
 H3972 H 1.06865 0.20804 0.12450
 H3973 H 1.04060 0.18279 0.12262
 H3974 H 1.03127 0.19203 0.13930
 H3975 H 1.03396 0.19479 0.16017
 H3976 H 1.02463 0.20408 0.17692
 H3977 H 1.03271 0.23804 0.16263
 H3978 H 1.04209 0.22873 0.14588
 H3979 H 1.03573 0.24079 0.18329
 H3980 H 1.02775 0.24900 0.20122
 H3981 H 0.99992 0.22347 0.20041
 H3982 H 1.00781 0.21545 0.18235
 C3983 C 0.60853 0.20541 0.70575
 C3984 C 0.61305 0.20989 0.69527
 C3985 C 0.62268 0.20464 0.68991
 C3986 C 0.62805 0.19479 0.69493
 C3987 C 0.62347 0.19031 0.70542
 C3988 C 0.61383 0.19556 0.71075
 C3989 C 0.59832 0.21100 0.71147
 C3990 C 0.58944 0.20413 0.71641
 C3991 C 0.57983 0.20936 0.72180
 C3992 C 0.57889 0.22159 0.72240
 C3993 C 0.58779 0.22847 0.71747
 C3994 C 0.59739 0.22323 0.71205
 C3995 C 0.56849 0.22711 0.72785
 C3996 C 0.56324 0.23692 0.72270
 C3997 C 0.55294 0.24157 0.72730
 C3998 C 0.54764 0.23651 0.73716
 C3999 C 0.55315 0.22695 0.74257
 C4000 C 0.56346 0.22232 0.73797
 H4001 H 0.60904 0.21739 0.69112
 H4002 H 0.62584 0.20833 0.68182
 H4003 H 0.62734 0.18280 0.70964
 H4004 H 0.61064 0.19199 0.71891
 H4005 H 0.58981 0.19469 0.71592
 H4006 H 0.57301 0.20382 0.72528
 H4007 H 0.58738 0.23791 0.71790
 H4008 H 0.60417 0.22875 0.70846
 H4009 H 0.56683 0.24075 0.71484
 H4010 H 0.54892 0.24889 0.72285
 H4011 H 0.54934 0.22284 0.75018
 H4012 H 0.56742 0.21488 0.74227
 C4013 C 1.10816 0.20486 0.20544
 C4014 C 1.11352 0.21003 0.19569
 C4015 C 1.12315 0.20476 0.19037
 C4016 C 1.12765 0.19415 0.19464
 C4017 C 1.12220 0.18894 0.20434
 C4018 C 1.11259 0.19424 0.20968
 C4019 C 1.09800 0.21053 0.21115
 C4020 C 1.09706 0.21082 0.22339
 C4021 C 1.08750 0.21620 0.22876
 C4022 C 1.07866 0.22139 0.22199
 C4023 C 1.07961 0.22109 0.20975
 C4024 C 1.08917 0.21573 0.20439
 C4025 C 1.06833 0.22685 0.22762
 C4026 C 1.06348 0.23718 0.22309
 C4027 C 1.05323 0.24181 0.22780
 C4028 C 1.04757 0.23622 0.23717
 C4029 C 1.05269 0.22614 0.24199
 C4030 C 1.06294 0.22151 0.23727
 H4031 H 1.11038 0.21828 0.19230
 H4032 H 1.12707 0.20910 0.18297
 H4033 H 1.12529 0.18074 0.20786
 H4034 H 1.10853 0.18995 0.21706
 H4035 H 1.10380 0.20703 0.22883
 H4036 H 1.08709 0.21640 0.23820
 H4037 H 1.07283 0.22478 0.20429
 H4038 H 1.08954 0.21547 0.19494
 H4039 H 1.06755 0.24161 0.21580
 H4040 H 1.04956 0.24959 0.22387
 H4041 H 1.04855 0.22156 0.24915
 H4042 H 1.06640 0.21349 0.24090
 C4043 C 0.14158 0.70586 0.54425
 C4044 C 0.13619 0.71105 0.55397
 C4045 C 0.12653 0.70580 0.55925
 C4046 C 0.12200 0.69519 0.55495
 C4047 C 0.12747 0.68998 0.54525
 C4048 C 0.13712 0.69526 0.53996
 C4049 C 0.15179 0.71151 0.53860
 C4050 C 0.15279 0.71181 0.52637
 C4051 C 0.16240 0.71716 0.52106
 C4052 C 0.17123 0.72232 0.52788
 C4053 C 0.17022 0.72200 0.54012
 C4054 C 0.16061 0.71667 0.54542
 C4055 C 0.18163 0.72773 0.52232
 C4056 C 0.18653 0.73802 0.52691
 C4057 C 0.19684 0.74260 0.52225
 C4058 C 0.20248 0.73701 0.51288
 C4059 C 0.19731 0.72697 0.50800
 C4060 C 0.18701 0.72239 0.51267
 H4061 H 0.13934 0.71929 0.55739
 H4062 H 0.12259 0.71016 0.56663
 H4063 H 0.12436 0.68179 0.54171
 H4064 H 0.14119 0.69096 0.53258
 H4065 H 0.14605 0.70805 0.52089
 H4066 H 0.16285 0.71737 0.51162
 H4067 H 0.17699 0.72566 0.54563
 H4068 H 0.16019 0.71640 0.55486
 H4069 H 0.18248 0.74245 0.53421
 H4070 H 0.20054 0.75036 0.52622
 H4071 H 0.20143 0.72239 0.50082
 H4072 H 0.18351 0.71440 0.50899
 C4073 C 0.14265 0.20460 1.04521
 C4074 C 0.13801 0.19412 1.04080
 C4075 C 0.12819 0.18903 1.04595
 C4076 C 0.12273 0.19430 1.05562
 C4077 C 0.12743 0.20478 1.06004
 C4078 C 0.13728 0.20985 1.05490
 C4079 C 0.15304 0.21006 1.03969
 C4080 C 0.16190 0.21501 1.04661
 C4081 C 0.17165 0.22020 1.04143
 C4082 C 0.17275 0.22058 1.02920
 C4083 C 0.16391 0.21561 1.02228
 C4084 C 0.15416 0.21039 1.02747
 C4085 C 0.18318 0.22602 1.02373
 C4086 C 0.18855 0.22080 1.01400
 C4087 C 0.19871 0.22558 1.00923
 C4088 C 0.20374 0.23571 1.01407
 C4089 C 0.19819 0.24109 1.02362
 C4090 C 0.18803 0.23630 1.02838
 H4091 H 0.14207 0.18978 1.03345
 H4092 H 0.12494 0.18093 1.04231
 H4093 H 0.12351 0.20917 1.06741
 H4094 H 0.14057 0.21800 1.05841
 H4095 H 0.16138 0.21471 1.05606
 H4096 H 0.17842 0.22374 1.04701
 H4097 H 0.16444 0.21588 1.01284
 H4098 H 0.14741 0.20679 1.02190
 H4099 H 0.18511 0.21279 1.01031
 H4100 H 0.20280 0.22113 1.00195
 H4101 H 0.20182 0.24887 1.02759
 H4102 H 0.18400 0.24062 1.03577
 C4103 C 0.64168 0.54473 0.20587
 C4104 C 0.63722 0.55532 0.21017
 C4105 C 0.62760 0.56062 0.20485
 C4106 C 0.62215 0.55544 0.19511
 C4107 C 0.62663 0.54482 0.19084
 C4108 C 0.63627 0.53954 0.19615
 C4109 C 0.65192 0.53911 0.21150
 C4110 C 0.66073 0.53398 0.20467
 C4111 C 0.67035 0.52866 0.20996
 C4112 C 0.67137 0.52832 0.22220
 C4113 C 0.66258 0.53348 0.22902
 C4114 C 0.65296 0.53882 0.22373
 C4115 C 0.68175 0.52288 0.22777
 C4116 C 0.68715 0.52821 0.23743
 C4117 C 0.69744 0.52360 0.24210
 C4118 C 0.70256 0.51356 0.23722
 C4119 C 0.69688 0.50796 0.22786
 C4120 C 0.68659 0.51257 0.22319
 H4121 H 0.64128 0.55960 0.21758
 H4122 H 0.62450 0.56881 0.20840
 H4123 H 0.62269 0.54047 0.18343
 H4124 H 0.63940 0.53128 0.19275
 H4125 H 0.66028 0.53425 0.19522
 H4126 H 0.67711 0.52500 0.20446
 H4127 H 0.66306 0.53327 0.23847
 H4128 H 0.64624 0.54257 0.22922
 H4129 H 0.68369 0.53621 0.24110
 H4130 H 0.70158 0.52817 0.24929
 H4131 H 0.70054 0.50019 0.22390
 H4132 H 0.68250 0.50815 0.21589
 C4133 C 0.64131 1.04464 0.70589
 C4134 C 0.63667 1.04015 0.69545
 C4135 C 0.62696 1.04537 0.69019
 C4136 C 0.62163 1.05522 0.69526
 C4137 C 0.62635 1.05974 0.70569
 C4138 C 0.63607 1.05453 0.71092
 C4139 C 0.65157 1.03904 0.71152
 C4140 C 0.66050 1.04588 0.71644
 C4141 C 0.67016 1.04061 0.72174
 C4142 C 0.67110 1.02838 0.72226
 C4143 C 0.66216 1.02153 0.71734
 C4144 C 0.65251 1.02680 0.71203
 C4145 C 0.68152 1.02283 0.72767
 C4146 C 0.68678 1.01304 0.72247
 C4147 C 0.69708 1.00836 0.72707
 C4148 C 0.70236 1.01337 0.73698
 C4149 C 0.69685 1.02290 0.74243
 C4150 C 0.68655 1.02757 0.73783
 H4151 H 0.64063 1.03265 0.69125
 H4152 H 0.62371 1.04165 0.68214
 H4153 H 0.62253 1.06727 0.70992
 H4154 H 0.63937 1.05813 0.71903
 H4155 H 0.66013 1.05532 0.71602
 H4156 H 0.67701 1.04614 0.72522
 H4157 H 0.66256 1.01208 0.71772
 H4158 H 0.64568 1.02129 0.70846
 H4159 H 0.68318 1.00925 0.71458
 H4160 H 0.70111 1.00106 0.72259
 H4161 H 0.70064 1.02698 0.75009
 H4162 H 0.68259 1.03499 0.74217
 C4163 C 0.85745 0.45458 0.29650
 C4164 C 0.86227 0.45912 0.30684
 C4165 C 0.87205 0.45390 0.31197
 C4166 C 0.87729 0.44402 0.30686
 C4167 C 0.87241 0.43949 0.29651
 C4168 C 0.86263 0.44469 0.29141
 C4169 C 0.84707 0.46012 0.29101
 C4170 C 0.83810 0.45320 0.28623
 C4171 C 0.82840 0.45839 0.28095
 C4172 C 0.82743 0.47062 0.28029
 C4173 C 0.83639 0.47753 0.28509
 C4174 C 0.84609 0.47234 0.29040
 C4175 C 0.81706 0.47610 0.27472
 C4176 C 0.81185 0.48605 0.27969
 C4177 C 0.80177 0.49088 0.27477
 C4178 C 0.79666 0.48589 0.26475
 C4179 C 0.80203 0.47609 0.25964
 C4180 C 0.81211 0.47127 0.26457
 H4181 H 0.85837 0.46663 0.31107
 H4182 H 0.87544 0.45763 0.31997
 H4183 H 0.87617 0.43196 0.29223
 H4184 H 0.85921 0.44107 0.28336
 H4185 H 0.83851 0.44377 0.28673
 H4186 H 0.82155 0.45282 0.27755
 H4187 H 0.83598 0.48697 0.28460
 H4188 H 0.85293 0.47790 0.29384
 H4189 H 0.81535 0.48989 0.28759
 H4190 H 0.79781 0.49835 0.27902
 H4191 H 0.79833 0.47198 0.25196
 H4192 H 0.81601 0.46371 0.26043
 C4193 C 0.85707 0.95464 0.79654
 C4194 C 0.86229 0.94478 0.79142
 C4195 C 0.87210 0.93960 0.79650
 C4196 C 0.87696 0.94414 0.80685
 C4197 C 0.87165 0.95395 0.81203
 C4198 C 0.86184 0.95914 0.80692
 C4199 C 0.84677 0.96025 0.79099
 C4200 C 0.84585 0.97249 0.79047
 C4201 C 0.83622 0.97777 0.78512
 C4202 C 0.82729 0.97093 0.78017
 C4203 C 0.82820 0.95869 0.78074
 C4204 C 0.83782 0.95342 0.78607
 C4205 C 0.81698 0.97650 0.77460
 C4206 C 0.81210 0.97179 0.76435
 C4207 C 0.80202 0.97663 0.75946
 C4208 C 0.79657 0.98633 0.76469
 C4209 C 0.80165 0.99124 0.77476
 C4210 C 0.81173 0.98639 0.77965
 H4211 H 0.85890 0.94119 0.78334
 H4212 H 0.87594 0.93214 0.79218
 H4213 H 0.87501 0.95765 0.82005
 H4214 H 0.85791 0.96661 0.81118
 H4215 H 0.85267 0.97799 0.79404
 H4216 H 0.83585 0.98721 0.78471
 H4217 H 0.82135 0.95318 0.77722
 H4218 H 0.83818 0.94397 0.78651
 H4219 H 0.81603 0.96429 0.76015
 H4220 H 0.79836 0.97260 0.75172
 H4221 H 0.79765 0.99863 0.77910
 H4222 H 0.81520 0.99014 0.78762
 C4223 C 0.39236 0.29536 0.79535
 C4224 C 0.38691 0.29006 0.80497
 C4225 C 0.37705 0.29511 0.81008
 C4226 C 0.37239 0.30560 0.80570
 C4227 C 0.37790 0.31092 0.79609
 C4228 C 0.38775 0.30585 0.79097
 C4229 C 0.40278 0.28993 0.78988
 C4230 C 0.40397 0.28961 0.77767
 C4231 C 0.41374 0.28441 0.77252
 C4232 C 0.42254 0.27943 0.77948
 C4233 C 0.42136 0.27978 0.79170
 C4234 C 0.41159 0.28496 0.79684
 C4235 C 0.43300 0.27402 0.77404
 C4236 C 0.43783 0.26373 0.77866
 C4237 C 0.44798 0.25892 0.77386
 C4238 C 0.45353 0.26431 0.76432
 C4239 C 0.44854 0.27448 0.75955
 C4240 C 0.43840 0.27927 0.76435
 H4241 H 0.39018 0.28190 0.80846
 H4242 H 0.37309 0.29068 0.81741
 H4243 H 0.37467 0.31903 0.79249
 H4244 H 0.39185 0.31023 0.78367
 H4245 H 0.39725 0.29322 0.77207
 H4246 H 0.41432 0.28414 0.76308
 H4247 H 0.42810 0.27623 0.79731
 H4248 H 0.41102 0.28525 0.80628
 H4249 H 0.43378 0.25939 0.78602
 H4250 H 0.45158 0.25111 0.77779
 H4251 H 0.45263 0.27893 0.75228
 H4252 H 0.43499 0.28729 0.76069
 C4253 C 0.89268 0.29512 0.29596
 C4254 C 0.88814 0.30558 0.29144
 C4255 C 0.87840 0.31085 0.29656
 C4256 C 0.87292 0.30577 0.30631
 C4257 C 0.87753 0.29533 0.31087
 C4258 C 0.88730 0.29008 0.30576
 C4259 C 0.90295 0.28947 0.29043
 C4260 C 0.91184 0.28456 0.29733
 C4261 C 0.92152 0.27928 0.29212
 C4262 C 0.92253 0.27876 0.27989
 C4263 C 0.91363 0.28365 0.27299
 C4264 C 0.90395 0.28894 0.27821
 C4265 C 0.93294 0.27333 0.27437
 C4266 C 0.93788 0.26312 0.27905
 C4267 C 0.94801 0.25834 0.27422
 C4268 C 0.95345 0.26368 0.26458
 C4269 C 0.94834 0.27374 0.25973
 C4270 C 0.93820 0.27850 0.26456
 H4271 H 0.89221 0.30977 0.28401
 H4272 H 0.87523 0.31892 0.29282
 H4273 H 0.87359 0.29110 0.31833
 H4274 H 0.89052 0.28196 0.30937
 H4275 H 0.91140 0.28499 0.30678
 H4276 H 0.92834 0.27581 0.29768
 H4277 H 0.91407 0.28325 0.26355
 H4278 H 0.89716 0.29249 0.27266
 H4279 H 0.93393 0.25884 0.28650
 H4280 H 0.95171 0.25061 0.27821
 H4281 H 0.95233 0.27815 0.25238
 H4282 H 0.93469 0.28646 0.26085
 C4283 C 0.35733 0.79588 0.45389
 C4284 C 0.36215 0.79135 0.44355
 C4285 C 0.37206 0.79645 0.43857
 C4286 C 0.37741 0.80621 0.44381
 C4287 C 0.37249 0.81080 0.45409
 C4288 C 0.36257 0.80571 0.45906
 C4289 C 0.34696 0.79030 0.45934
 C4290 C 0.33802 0.79715 0.46421
 C4291 C 0.32836 0.79189 0.46949
 C4292 C 0.32741 0.77965 0.47004
 C4293 C 0.33634 0.77280 0.46515
 C4294 C 0.34600 0.77806 0.45985
 C4295 C 0.31708 0.77409 0.47557
 C4296 C 0.31183 0.76420 0.47049
 C4297 C 0.30176 0.75933 0.47536
 C4298 C 0.29668 0.76421 0.48543
 C4299 C 0.30212 0.77391 0.49068
 C4300 C 0.31219 0.77879 0.48581
 H4301 H 0.35819 0.78390 0.43926
 H4302 H 0.37547 0.79272 0.43059
 H4303 H 0.37636 0.81823 0.45847
 H4304 H 0.35915 0.80932 0.46710
 H4305 H 0.33842 0.80659 0.46379
 H4306 H 0.32152 0.79742 0.47297
 H4307 H 0.33594 0.76336 0.46556
 H4308 H 0.35283 0.77255 0.45634
 H4309 H 0.31530 0.76046 0.46253
 H4310 H 0.29776 0.75192 0.47101
 H4311 H 0.29846 0.77793 0.49842
 H4312 H 0.31613 0.78629 0.49003
 C4313 C 0.35854 0.29511 0.95559
 C4314 C 0.36390 0.30492 0.96066
 C4315 C 0.37355 0.31018 0.95535
 C4316 C 0.37806 0.30580 0.94479
 C4317 C 0.37258 0.29605 0.93965
 C4318 C 0.36295 0.29077 0.94499
 C4319 C 0.34840 0.28941 0.96131
 C4320 C 0.34749 0.27716 0.96165
 C4321 C 0.33789 0.27178 0.96692
 C4322 C 0.32899 0.27852 0.97201
 C4323 C 0.32993 0.29077 0.97171
 C4324 C 0.33954 0.29615 0.96646
 C4325 C 0.31867 0.27286 0.97747
 C4326 C 0.31380 0.27743 0.98777
 C4327 C 0.30358 0.27268 0.99243
 C4328 C 0.29797 0.26322 0.98691
 C4329 C 0.30313 0.25834 0.97688
 C4330 C 0.31335 0.26311 0.97221
 H4331 H 0.36077 0.30841 0.96888
 H4332 H 0.37750 0.31762 0.95963
 H4333 H 0.37566 0.29243 0.93150
 H4334 H 0.35887 0.28334 0.94076
 H4335 H 0.35431 0.27174 0.95798
 H4336 H 0.33750 0.26233 0.96713
 H4337 H 0.32310 0.29622 0.97534
 H4338 H 0.33992 0.30560 0.96625
 H4339 H 0.31783 0.28478 0.99216
 H4340 H 0.29990 0.27663 1.00020
 H4341 H 0.29905 0.25109 0.97236
 H4342 H 0.31685 0.25943 0.96423
 C4343 C 0.79538 0.45461 0.35752
 C4344 C 0.80591 0.45896 0.36207
 C4345 C 0.81107 0.45376 0.37183
 C4346 C 0.80580 0.44411 0.37732
 C4347 C 0.79528 0.43974 0.37269
 C4348 C 0.79015 0.44492 0.36290
 C4349 C 0.78984 0.46022 0.34722
 C4350 C 0.78485 0.45338 0.33832
 C4351 C 0.77961 0.45866 0.32865
 C4352 C 0.77922 0.47090 0.32767
 C4353 C 0.78421 0.47773 0.33658
 C4354 C 0.78947 0.47245 0.34624
 C4355 C 0.77379 0.47648 0.31730
 C4356 C 0.77906 0.48621 0.31199
 C4357 C 0.77432 0.49106 0.30185
 C4358 C 0.76419 0.48629 0.29677
 C4359 C 0.75874 0.47675 0.30227
 C4360 C 0.76349 0.47191 0.31241
 H4361 H 0.81024 0.46631 0.35799
 H4362 H 0.81921 0.45735 0.37501
 H4363 H 0.79090 0.43237 0.37664
 H4364 H 0.78196 0.44146 0.35966
 H4365 H 0.78518 0.44393 0.33875
 H4366 H 0.77606 0.45315 0.32182
 H4367 H 0.78392 0.48718 0.33614
 H4368 H 0.79310 0.47795 0.35305
 H4369 H 0.78708 0.48984 0.31546
 H4370 H 0.77881 0.49833 0.29779
 H4371 H 0.75095 0.47284 0.29860
 H4372 H 0.75914 0.46452 0.31640
 C4373 C 0.79610 0.95436 0.85714
 C4374 C 0.79096 0.94457 0.86244
 C4375 C 0.79604 0.93946 0.87230
 C4376 C 0.80640 0.94401 0.87709
 C4377 C 0.81161 0.95373 0.87168
 C4378 C 0.80651 0.95886 0.86184
 C4379 C 0.79055 0.95993 0.84683
 C4380 C 0.79004 0.97216 0.84587
 C4381 C 0.78470 0.97741 0.83623
 C4382 C 0.77976 0.97054 0.82731
 C4383 C 0.78031 0.95830 0.82825
 C4384 C 0.78564 0.95306 0.83790
 C4385 C 0.77422 0.97609 0.81698
 C4386 C 0.76397 0.97141 0.81210
 C4387 C 0.75909 0.97627 0.80202
 C4388 C 0.76436 0.98593 0.79657
 C4389 C 0.77446 0.99080 0.80163
 C4390 C 0.77933 0.98593 0.81171
 H4391 H 0.78285 0.94099 0.85911
 H4392 H 0.79169 0.93205 0.87622
 H4393 H 0.81966 0.95741 0.87499
 H4394 H 0.81078 0.96628 0.85783
 H4395 H 0.79360 0.97768 0.85269
 H4396 H 0.78429 0.98685 0.83583
 H4397 H 0.77680 0.95277 0.82142
 H4398 H 0.78607 0.94362 0.83830
 H4399 H 0.75974 0.96393 0.81606
 H4400 H 0.75133 0.97227 0.79836
 H4401 H 0.77882 0.99817 0.79762
 H4402 H 0.78731 0.98966 0.81517
 C4403 C 0.29555 0.79597 0.39259
 C4404 C 0.29100 0.80628 0.38776
 C4405 C 0.29610 0.81129 0.37786
 C4406 C 0.30587 0.80608 0.37254
 C4407 C 0.31047 0.79581 0.37746
 C4408 C 0.30537 0.79082 0.38736
 C4409 C 0.29002 0.79053 0.40297
 C4410 C 0.29693 0.78579 0.41194
 C4411 C 0.29173 0.78054 0.42165
 C4412 C 0.27951 0.77990 0.42260
 C4413 C 0.27260 0.78466 0.41364
 C4414 C 0.27780 0.78993 0.40393
 C4415 C 0.27402 0.77442 0.43299
 C4416 C 0.26414 0.77948 0.43822
 C4417 C 0.25933 0.77467 0.44835
 C4418 C 0.26429 0.76467 0.45349
 C4419 C 0.27400 0.75944 0.44808
 C4420 C 0.27879 0.76426 0.43795
 H4421 H 0.28354 0.81055 0.39171
 H4422 H 0.29238 0.81927 0.37446
 H4423 H 0.31790 0.79146 0.37360
 H4424 H 0.30899 0.78278 0.39080
 H4425 H 0.30636 0.78629 0.41154
 H4426 H 0.29729 0.77716 0.42852
 H4427 H 0.26317 0.78417 0.41404
 H4428 H 0.27226 0.79335 0.39707
 H4429 H 0.26034 0.78739 0.43468
 H4430 H 0.25192 0.77899 0.45232
 H4431 H 0.27806 0.75176 0.45180
 H4432 H 0.28630 0.76006 0.43403
 C4433 C 0.29442 0.29461 0.89172
 C4434 C 0.30498 0.29025 0.88728
 C4435 C 0.31031 0.29554 0.87765
 C4436 C 0.30518 0.30529 0.87221
 C4437 C 0.29464 0.30968 0.87674
 C4438 C 0.28934 0.30441 0.88638
 C4439 C 0.28870 0.28894 0.90188
 C4440 C 0.28362 0.29573 0.91075
 C4441 C 0.27824 0.29041 0.92031
 C4442 C 0.27778 0.27817 0.92121
 C4443 C 0.28284 0.27137 0.91233
 C4444 C 0.28824 0.27670 0.90277
 C4445 C 0.27236 0.27257 0.93158
 C4446 C 0.27765 0.26287 0.93690
 C4447 C 0.27311 0.25821 0.94722
 C4448 C 0.26316 0.26315 0.95247
 C4449 C 0.25760 0.27256 0.94687
 C4450 C 0.26215 0.27722 0.93655
 H4451 H 0.30920 0.28282 0.89133
 H4452 H 0.31846 0.29194 0.87455
 H4453 H 0.29037 0.31713 0.87282
 H4454 H 0.28113 0.30789 0.88953
 H4455 H 0.28401 0.30518 0.91041
 H4456 H 0.27465 0.29589 0.92714
 H4457 H 0.28251 0.26192 0.91271
 H4458 H 0.29193 0.27124 0.89598
 H4459 H 0.28558 0.25915 0.93334
 H4460 H 0.27766 0.25099 0.95130
 H4461 H 0.24991 0.27658 0.95063
 H4462 H 0.25775 0.28456 0.93253
 C4463 C 0.45469 0.29567 0.85743
 C4464 C 0.45993 0.30538 0.86284
 C4465 C 0.45483 0.31056 0.87265
 C4466 C 0.44433 0.30618 0.87730
 C4467 C 0.43905 0.29652 0.87180
 C4468 C 0.44417 0.29134 0.86200
 C4469 C 0.46021 0.29005 0.84711
 C4470 C 0.46047 0.27781 0.84605
 C4471 C 0.46570 0.27252 0.83637
 C4472 C 0.47079 0.27933 0.82753
 C4473 C 0.47051 0.29157 0.82858
 C4474 C 0.46529 0.29687 0.83826
 C4475 C 0.47621 0.27373 0.81715
 C4476 C 0.48654 0.27827 0.81231
 C4477 C 0.49130 0.27341 0.80218
 C4478 C 0.48586 0.26386 0.79665
 C4479 C 0.47570 0.25913 0.80168
 C4480 C 0.47094 0.26401 0.81180
 H4481 H 0.46811 0.30885 0.85960
 H4482 H 0.45922 0.31793 0.87661
 H4483 H 0.43093 0.29293 0.87500
 H4484 H 0.43981 0.28399 0.85792
 H4485 H 0.45679 0.27232 0.85280
 H4486 H 0.46591 0.26307 0.83589
 H4487 H 0.47415 0.29707 0.82180
 H4488 H 0.46507 0.30631 0.83872
 H4489 H 0.49091 0.28565 0.81632
 H4490 H 0.49911 0.27731 0.79855
 H4491 H 0.47120 0.25186 0.79760
 H4492 H 0.46290 0.26040 0.81522
 C4493 C 0.95470 0.29584 0.35746
 C4494 C 0.95922 0.30625 0.36215
 C4495 C 0.95408 0.31140 0.37196
 C4496 C 0.94431 0.30625 0.37734
 C4497 C 0.93978 0.29585 0.37259
 C4498 C 0.94491 0.29072 0.36277
 C4499 C 0.96020 0.29031 0.34711
 C4500 C 0.95328 0.28547 0.33819
 C4501 C 0.95845 0.28020 0.32847
 C4502 C 0.97067 0.27961 0.32747
 C4503 C 0.97760 0.28447 0.33638
 C4504 C 0.97242 0.28977 0.34609
 C4505 C 0.97614 0.27410 0.31707
 C4506 C 0.98599 0.27917 0.31180
 C4507 C 0.99079 0.27432 0.30168
 C4508 C 0.98586 0.26426 0.29660
 C4509 C 0.97617 0.25903 0.30205
 C4510 C 0.97138 0.26389 0.31217
 H4511 H 0.96666 0.31049 0.35815
 H4512 H 0.95781 0.31943 0.37525
 H4513 H 0.93232 0.29155 0.37645
 H4514 H 0.94131 0.28262 0.35944
 H4515 H 0.94384 0.28593 0.33863
 H4516 H 0.95287 0.27675 0.32165
 H4517 H 0.98703 0.28403 0.33593
 H4518 H 0.97798 0.29327 0.35290
 H4519 H 0.98976 0.28713 0.31528
 H4520 H 0.99817 0.27865 0.29767
 H4521 H 0.97213 0.25130 0.29838
 H4522 H 0.96390 0.25968 0.31613
 C4523 C 0.45436 0.35720 0.79545
 C4524 C 0.45872 0.36173 0.80600
 C4525 C 0.45357 0.37152 0.81114
 C4526 C 0.44396 0.37706 0.80585
 C4527 C 0.43958 0.37245 0.79531
 C4528 C 0.44471 0.36264 0.79019
 C4529 C 0.45991 0.34688 0.78991
 C4530 C 0.45303 0.33804 0.78489
 C4531 C 0.45825 0.32835 0.77962
 C4532 C 0.47048 0.32731 0.77924
 C4533 C 0.47736 0.33616 0.78428
 C4534 C 0.47213 0.34583 0.78956
 C4535 C 0.47600 0.31694 0.77376
 C4536 C 0.48571 0.31157 0.77901
 C4537 C 0.49053 0.30144 0.77420
 C4538 C 0.48575 0.29644 0.76403
 C4539 C 0.47622 0.30200 0.75862
 C4540 C 0.47141 0.31213 0.76343
 H4541 H 0.46604 0.35761 0.81034
 H4542 H 0.45717 0.37468 0.81929
 H4543 H 0.43225 0.37644 0.79091
 H4544 H 0.44125 0.35942 0.78199
 H4545 H 0.44359 0.33852 0.78520
 H4546 H 0.45271 0.32157 0.77603
 H4547 H 0.48680 0.33567 0.78400
 H4548 H 0.47765 0.35259 0.79322
 H4549 H 0.48936 0.31498 0.78705
 H4550 H 0.49779 0.29735 0.77867
 H4551 H 0.47229 0.29839 0.75080
 H4552 H 0.46404 0.31617 0.75910
 C4553 C 0.95433 0.35691 0.29626
 C4554 C 0.94446 0.36217 0.29121
 C4555 C 0.93935 0.37200 0.29634
 C4556 C 0.94397 0.37682 0.30667
 C4557 C 0.95378 0.37146 0.31179
 C4558 C 0.95890 0.36164 0.30664
 C4559 C 0.95991 0.34663 0.29064
 C4560 C 0.97214 0.34572 0.29005
 C4561 C 0.97739 0.33611 0.28465
 C4562 C 0.97054 0.32718 0.27972
 C4563 C 0.95831 0.32808 0.28033
 C4564 C 0.95306 0.33769 0.28572
 C4565 C 0.97611 0.31686 0.27414
 C4566 C 0.97136 0.31193 0.26393
 C4567 C 0.97620 0.30184 0.25905
 C4568 C 0.98593 0.29643 0.26426
 C4569 C 0.99087 0.30155 0.27429
 C4570 C 0.98602 0.31164 0.27917
 H4571 H 0.94082 0.35882 0.28314
 H4572 H 0.93188 0.37588 0.29207
 H4573 H 0.95753 0.37479 0.31980
 H4574 H 0.96638 0.35768 0.31084
 H4575 H 0.97765 0.35255 0.29360
 H4576 H 0.98683 0.33575 0.28420
 H4577 H 0.95279 0.32123 0.27683
 H4578 H 0.94362 0.33805 0.28619
 H4579 H 0.96383 0.31584 0.25975
 H4580 H 0.97215 0.29813 0.25134
 H4581 H 0.99829 0.29758 0.27861
 H4582 H 0.98980 0.31513 0.28711
 C4583 C 0.29612 0.85784 0.45467
 C4584 C 0.30625 0.86284 0.45949
 C4585 C 0.31140 0.87266 0.45437
 C4586 C 0.30653 0.87774 0.44429
 C4587 C 0.29645 0.87267 0.43942
 C4588 C 0.29131 0.86284 0.44454
 C4589 C 0.29055 0.84751 0.46022
 C4590 C 0.27832 0.84666 0.46099
 C4591 C 0.27307 0.83696 0.46625
 C4592 C 0.27992 0.82788 0.47086
 C4593 C 0.29215 0.82873 0.47008
 C4594 C 0.29740 0.83842 0.46483
 C4595 C 0.27437 0.81749 0.47631
 C4596 C 0.27920 0.81238 0.48637
 C4597 C 0.27433 0.80226 0.49116
 C4598 C 0.26449 0.79699 0.48600
 C4599 C 0.25948 0.80228 0.47610
 C4600 C 0.26435 0.81241 0.47132
 H4601 H 0.31009 0.85929 0.46738
 H4602 H 0.31908 0.87637 0.45844
 H4603 H 0.29254 0.87620 0.43158
 H4604 H 0.28364 0.85908 0.44049
 H4605 H 0.27280 0.85359 0.45769
 H4606 H 0.26364 0.83665 0.46684
 H4607 H 0.29767 0.82178 0.47335
 H4608 H 0.30683 0.83871 0.46421
 H4609 H 0.28682 0.81617 0.49052
 H4610 H 0.27846 0.79842 0.49876
 H4611 H 0.25197 0.79842 0.47182
 H4612 H 0.26050 0.81605 0.46349
 C4613 C 0.29509 0.35835 0.95551
 C4614 C 0.30510 0.36350 0.96042
 C4615 C 0.31031 0.37320 0.95516
 C4616 C 0.30566 0.37800 0.94485
 C4617 C 0.29572 0.37275 0.93987
 C4618 C 0.29049 0.36305 0.94515
 C4619 C 0.28945 0.34815 0.96123
 C4620 C 0.27722 0.34735 0.96194
 C4621 C 0.27193 0.33778 0.96739
 C4622 C 0.27875 0.32880 0.97224
 C4623 C 0.29097 0.32961 0.97151
 C4624 C 0.29626 0.33917 0.96608
 C4625 C 0.27318 0.31847 0.97777
 C4626 C 0.27801 0.31343 0.98787
 C4627 C 0.27333 0.30317 0.99255
 C4628 C 0.26368 0.29771 0.98724
 C4629 C 0.25856 0.30301 0.97740
 C4630 C 0.26326 0.31327 0.97273
 H4631 H 0.30877 0.36016 0.96847
 H4632 H 0.31789 0.37700 0.95933
 H4633 H 0.29196 0.37606 0.93186
 H4634 H 0.28291 0.35915 0.94104
 H4635 H 0.27174 0.35421 0.95844
 H4636 H 0.26249 0.33749 0.96792
 H4637 H 0.29647 0.32272 0.97495
 H4638 H 0.30570 0.33944 0.96551
 H4639 H 0.28553 0.31734 0.99208
 H4640 H 0.27750 0.29936 1.00014
 H4641 H 0.25117 0.29903 0.97303
 H4642 H 0.25939 0.31687 0.96488
 C4643 C 0.79594 0.39283 0.29544
 C4644 C 0.80570 0.38746 0.29030
 C4645 C 0.81080 0.37763 0.29543
 C4646 C 0.80631 0.37294 0.30586
 C4647 C 0.79659 0.37840 0.31103
 C4648 C 0.79147 0.38820 0.30587
 C4649 C 0.79042 0.40317 0.28989
 C4650 C 0.77820 0.40421 0.28940
 C4651 C 0.77301 0.41391 0.28413
 C4652 C 0.77991 0.42281 0.27925
 C4653 C 0.79213 0.42178 0.27976
 C4654 C 0.79733 0.41207 0.28501
 C4655 C 0.77441 0.43322 0.27378
 C4656 C 0.77910 0.43811 0.26356
 C4657 C 0.77428 0.44824 0.25874
 C4658 C 0.76465 0.45371 0.26404
 C4659 C 0.75978 0.44863 0.27411
 C4660 C 0.76461 0.43851 0.27892
 H4661 H 0.80926 0.39074 0.28218
 H4662 H 0.81822 0.37371 0.29112
 H4663 H 0.79290 0.37516 0.31909
 H4664 H 0.78407 0.39226 0.31014
 H4665 H 0.77265 0.39741 0.29293
 H4666 H 0.76357 0.41438 0.28374
 H4667 H 0.79769 0.42860 0.27629
 H4668 H 0.80677 0.41161 0.28543
 H4669 H 0.78655 0.43414 0.25930
 H4670 H 0.77828 0.45191 0.25100
 H4671 H 0.75244 0.45265 0.27850
 H4672 H 0.76088 0.43503 0.28688
   
