data_POSCAR
  _audit_creation_date              2014-09-24
  _audit_creation_method            'ToBaCCo'
  _symmetry_space_group_name_H-M    'P1'
  _symmetry_Int_Tables_number       1
  _symmetry_cell_setting            triclinic
  loop_
  _symmetry_equiv_pos_as_xyz
 x,y,z
_cell_length_a 33.2510
_cell_length_b 32.0126
_cell_length_c 51.8609
_cell_angle_alpha 89.871100
_cell_angle_beta 89.915300
_cell_angle_gamma 89.629500
loop_
  _atom_site_label
  _atom_site_type_symbol
  _atom_site_fract_x
  _atom_site_fract_y
  _atom_site_fract_z
B1 B 0.25883 0.22048 0.22392
 B2 B 0.26650 0.27093 0.22973
 B3 B 0.22008 0.25348 0.22487
 B4 B 0.21550 0.20558 0.23789
 B5 B 0.26111 0.19374 0.25159
 B6 B 0.29302 0.23469 0.24610
 B7 B 0.23050 0.26312 0.27538
 B8 B 0.22290 0.21264 0.26949
 B9 B 0.26930 0.23007 0.27444
 B10 B 0.27391 0.27802 0.26135
 B11 B 0.22829 0.28985 0.24764
 B12 B 0.19635 0.24892 0.25313
 B13 B 0.74173 0.77564 0.21975
 B14 B 0.72877 0.72645 0.22582
 B15 B 0.77669 0.73842 0.22070
 B16 B 0.78648 0.78548 0.23347
 B17 B 0.74250 0.80256 0.24733
 B18 B 0.70633 0.76557 0.24216
 B19 B 0.76574 0.73029 0.27129
 B20 B 0.77863 0.77945 0.26507
 B21 B 0.73064 0.76754 0.27037
 B22 B 0.72086 0.72037 0.25754
 B23 B 0.76487 0.70335 0.24369
 B24 B 0.80099 0.74034 0.24880
 B25 B 0.74265 0.22381 -0.22254
 B26 B 0.73189 0.27352 -0.22919
 B27 B 0.77915 0.25898 -0.22332
 B28 B 0.78744 0.21113 -0.23558
 B29 B 0.74332 0.19620 -0.24981
 B30 B 0.70852 0.23530 -0.24545
 B31 B 0.77017 0.26650 -0.27417
 B32 B 0.78093 0.21678 -0.26738
 B33 B 0.73362 0.23119 -0.27333
 B34 B 0.72531 0.27920 -0.26102
 B35 B 0.76946 0.29412 -0.24676
 B36 B 0.80429 0.25504 -0.25115
 B37 B 0.26595 0.77530 -0.27329
 B38 B 0.21788 0.78655 -0.26714
 B39 B 0.23179 0.73755 -0.27350
 B40 B 0.27742 0.72822 -0.26049
 B41 B 0.29148 0.77352 -0.24552
 B42 B 0.25426 0.81011 -0.25010
 B43 B 0.22283 0.74551 -0.22265
 B44 B 0.27075 0.73415 -0.22868
 B45 B 0.25697 0.78316 -0.22251
 B46 B 0.21137 0.79243 -0.23537
 B47 B 0.19727 0.74710 -0.25035
 B48 B 0.23447 0.71059 -0.24581
 B49 B 1.21927 1.25151 0.77500
 B50 B 1.26550 1.26950 0.76998
 B51 B 1.25846 1.21905 0.77620
 B52 B 1.21534 1.20337 0.76242
 B53 B 1.19569 1.24620 0.74681
 B54 B 1.22711 1.28764 0.75191
 B55 B 1.26888 1.22795 0.72561
 B56 B 1.22273 1.21003 0.73080
 B57 B 1.22970 1.26049 0.72440
 B58 B 1.27290 1.27619 0.73825
 B59 B 1.29251 1.23335 0.75385
 B60 B 1.26111 1.19193 0.74879
 B61 B 0.77773 0.74100 0.77856
 B62 B 0.73105 0.72489 0.77326
 B63 B 0.73982 0.77502 0.77948
 B64 B 0.78379 0.78895 0.76592
 B65 B 0.80206 0.74538 0.75051
 B66 B 0.76903 0.70529 0.75544
 B67 B 0.72998 0.76665 0.72884
 B68 B 0.77678 0.78264 0.73427
 B69 B 0.76794 0.73259 0.72791
 B70 B 0.72396 0.71859 0.74152
 B71 B 0.70566 0.76215 0.75696
 B72 B 0.73872 0.80231 0.75197
 B73 B 1.22203 0.74464 0.22159
 B74 B 1.27055 0.73546 0.22698
 B75 B 1.25467 0.78368 0.22035
 B76 B 1.20922 0.79145 0.23387
 B77 B 1.19739 0.74601 0.24968
 B78 B 1.23580 0.71093 0.24501
 B79 B 1.26573 0.77761 0.27111
 B80 B 1.21709 0.78674 0.26562
 B81 B 1.23297 0.73850 0.27238
 B82 B 1.27850 0.73068 0.25874
 B83 B 1.29032 0.77612 0.24293
 B84 B 1.25192 0.81127 0.24765
 B85 B 0.77333 1.26590 0.22461
 B86 B 0.72526 1.27678 0.23065
 B87 B 0.73970 1.22780 0.22493
 B88 B 0.78549 1.21944 0.23773
 B89 B 0.79916 1.26533 0.25220
 B90 B 0.76145 1.30128 0.24743
 B91 B 0.73100 1.23690 0.27562
 B92 B 0.77909 1.22609 0.26941
 B93 B 0.76474 1.27505 0.27533
 B94 B 0.71882 1.28349 0.26246
 B95 B 0.70516 1.23756 0.24796
 B96 B 0.74289 1.20163 0.25275
 N97 N 0.45836 1.08048 0.02786
 N98 N 0.43199 1.11024 0.03344
 N99 N 0.54159 1.04902 0.04683
 N100 N 0.56739 1.05618 0.06552
 N101 N 0.54291 1.07888 0.02944
 N102 N 0.56965 1.10739 0.03598
 N103 N 0.45717 1.05066 0.04529
 N104 N 0.42997 1.05919 0.06306
 C105 C 0.41406 1.09593 0.05516
 C106 C 0.58505 1.09216 0.05829
 N107 N 0.54140 0.92998 0.02901
 N108 N 0.56927 0.90167 0.03451
 N109 N 0.45629 0.96096 0.04503
 N110 N 0.42869 0.95352 0.06266
 N111 N 0.45677 0.93134 0.02754
 N112 N 0.42945 0.90271 0.03297
 N113 N 0.54069 0.95943 0.04660
 N114 N 0.56799 0.95215 0.06446
 Mn115 Mn 0.49892 1.00500 0.04610
 C116 C 0.58577 0.91642 0.05651
 C117 C 0.41184 0.91760 0.05469
 N118 N 0.54554 1.07942 -0.02640
 N119 N 0.57202 1.10870 -0.03210
 N120 N 0.46169 1.05140 -0.04552
 N121 N 0.43508 1.05934 -0.06371
 N122 N 0.46100 1.08079 -0.02788
 N123 N 0.43386 1.10969 -0.03370
 N124 N 0.54613 1.04989 -0.04395
 N125 N 0.57302 1.05813 -0.06191
 Mn126 Mn 0.50197 1.08038 0.00075
 C127 C 0.58940 1.09434 -0.05400
 C128 C 0.41763 1.09532 -0.05588
 N129 N 0.45955 0.93184 -0.02831
 N130 N 0.43329 0.90297 -0.03499
 N131 N 0.54525 0.96004 -0.04418
 N132 N 0.57230 0.95129 -0.06202
 N133 N 0.54404 0.93030 -0.02671
 N134 N 0.57025 0.90040 -0.03230
 N135 N 0.46079 0.96167 -0.04574
 N136 N 0.43538 0.95407 -0.06459
 Mn137 Mn 0.50041 0.93037 0.00039
 Mn138 Mn 0.50349 1.00576 -0.04501
 Cl139 Cl 0.50120 1.00537 0.00055
 C140 C 0.41798 0.91793 -0.05738
 C141 C 0.58813 0.91452 -0.05408
 N142 N 1.07452 0.54766 0.52766
 N143 N 1.10454 0.57215 0.53464
 N144 N 1.04519 0.46058 0.54586
 N145 N 1.05366 0.43435 0.56478
 N146 N 1.07367 0.45980 0.52825
 N147 N 1.10237 0.43303 0.53491
 N148 N 1.04589 0.54847 0.54518
 N149 N 1.05556 0.57364 0.56426
 C150 C 1.09163 0.58893 0.55717
 C151 C 1.08891 0.41684 0.55746
 N152 N 0.92978 0.46225 0.52868
 N153 N 0.89981 0.43801 0.53613
 N154 N 0.95917 0.54983 0.54543
 N155 N 0.95001 0.57528 0.56455
 N156 N 0.93043 0.54996 0.52802
 N157 N 0.90088 0.57539 0.53510
 N158 N 0.95849 0.46206 0.54610
 N159 N 0.94890 0.43760 0.56562
 Mn160 Mn 1.00220 0.50524 0.54569
 C161 C 0.91278 0.42213 0.55888
 C162 C 0.91413 0.59165 0.55760
 N163 N 1.07350 0.45898 0.47217
 N164 N 1.10262 0.43278 0.46543
 N165 N 1.04555 0.54700 0.45405
 N166 N 1.05510 0.57158 0.43455
 N167 N 1.07431 0.54677 0.47144
 N168 N 1.10424 0.57108 0.46398
 N169 N 1.04483 0.45915 0.45473
 N170 N 1.05362 0.43304 0.43586
 Mn171 Mn 1.07433 0.50331 0.49989
 C172 C 1.08921 0.41622 0.44305
 C173 C 1.09123 0.58711 0.44125
 N174 N 0.93016 0.54895 0.47184
 N175 N 0.90040 0.57390 0.46443
 N176 N 0.95808 0.46048 0.45500
 N177 N 0.94845 0.43514 0.43600
 N178 N 0.92948 0.46127 0.47254
 N179 N 0.89955 0.43656 0.46570
 N180 N 0.95877 0.54827 0.45430
 N181 N 0.94932 0.57285 0.43475
 Mn182 Mn 0.92967 0.50562 0.50027
 Mn183 Mn 1.00182 0.50373 0.45446
 Cl184 Cl 1.00200 0.50450 0.50007
 C185 C 0.91341 0.58930 0.44158
 C186 C 0.91242 0.41979 0.44318
 N187 N 1.07846 0.53518 0.02676
 N188 N 1.10764 0.56105 0.03320
 N189 N 1.04818 0.44788 0.04401
 N190 N 1.05584 0.42020 0.06222
 N191 N 1.07670 0.44748 0.02646
 N192 N 1.10466 0.41953 0.03237
 N193 N 1.04993 0.53559 0.04431
 N194 N 1.05867 0.56185 0.06296
 C195 C 1.09420 0.57803 0.05554
 C196 C 1.09060 0.40226 0.05441
 N197 N 0.93314 0.45164 0.02688
 N198 N 0.90350 0.42636 0.03334
 N199 N 0.96371 0.53811 0.04452
 N200 N 0.95578 0.56473 0.06321
 N201 N 0.93520 0.53917 0.02703
 N202 N 0.90694 0.56642 0.03348
 N203 N 0.96174 0.45041 0.04431
 N204 N 0.95241 0.42421 0.06299
 Mn205 Mn 1.00590 0.49297 0.04445
 C206 C 0.91659 0.40879 0.05555
 C207 C 0.92089 0.58272 0.05574
 N208 N 1.07602 0.44786 -0.02909
 N209 N 1.10262 0.41827 -0.03445
 N210 N 1.04928 0.53625 -0.04659
 N211 N 1.05702 0.56396 -0.06469
 N212 N 1.07796 0.53564 -0.02920
 N213 N 1.10625 0.56293 -0.03517
 N214 N 1.04731 0.44861 -0.04645
 N215 N 1.05342 0.41959 -0.06400
 Mn216 Mn 1.07779 0.49159 -0.00130
 C217 C 1.08749 0.40054 -0.05599
 C218 C 1.09217 0.58071 -0.05713
 N219 N 0.93486 0.53978 -0.02854
 N220 N 0.90688 0.56768 -0.03446
 N221 N 0.96101 0.45121 -0.04634
 N222 N 0.95208 0.42416 -0.06455
 N223 N 0.93277 0.45208 -0.02863
 N224 N 0.90377 0.42565 -0.03436
 N225 N 0.96307 0.53895 -0.04629
 N226 N 0.95518 0.56631 -0.06464
 Mn227 Mn 0.93360 0.49571 -0.00082
 Mn228 Mn 1.00520 0.49373 -0.04661
 Cl229 Cl 1.00564 0.49354 -0.00106
 C230 C 0.92062 0.58453 -0.05671
 C231 C 0.91681 0.40796 -0.05652
 N232 N 0.54785 1.06983 0.52822
 N233 N 0.55443 1.09663 0.54703
 N234 N 0.57698 1.04250 0.47390
 N235 N 0.60478 1.05058 0.45639
 N236 N 0.54931 1.07198 0.47406
 N237 N 0.55746 1.10088 0.45666
 N238 N 0.57557 1.04039 0.52807
 N239 N 0.60180 1.04636 0.54679
 C240 C 0.58797 1.08136 0.55846
 C241 C 0.59190 1.08685 0.44574
 N242 N 0.54787 0.92363 0.47218
 N243 N 0.55522 0.89611 0.45381
 N244 N 0.57472 0.95034 0.52688
 N245 N 0.60100 0.94213 0.54529
 N246 N 0.54653 0.92178 0.52635
 N247 N 0.55287 0.89332 0.54440
 N248 N 0.57605 0.95221 0.47273
 N249 N 0.60336 0.94492 0.45475
 Mn250 Mn 0.57623 0.99635 0.50038
 C251 C 0.58971 0.91005 0.44308
 C252 C 0.58677 0.90669 0.55606
 N253 N 0.46250 1.07349 0.47319
 N254 N 0.45602 1.10231 0.45538
 N255 N 0.43281 1.04296 0.52665
 N256 N 0.40515 1.05053 0.54436
 N257 N 0.46103 1.07147 0.52732
 N258 N 0.45337 1.09923 0.54549
 N259 N 0.43431 1.04493 0.47254
 N260 N 0.40787 1.05353 0.45429
 Mn261 Mn 0.50519 1.07208 0.50070
 C262 C 0.42201 1.08920 0.44375
 C263 C 0.41863 1.08549 0.55598
 N264 N 0.45965 0.92331 0.52555
 N265 N 0.45257 0.89576 0.54399
 N266 N 0.43348 0.95472 0.47137
 N267 N 0.40738 0.94892 0.45257
 N268 N 0.46105 0.92513 0.47131
 N269 N 0.45447 0.89838 0.45244
 N270 N 0.43202 0.95283 0.52558
 N271 N 0.40540 0.94623 0.54403
 Mn272 Mn 0.50376 0.92303 0.49885
 Mn273 Mn 0.43277 0.99883 0.49903
 Cl274 Cl 0.50449 0.99758 0.49973
 C275 C 0.41873 0.91064 0.55530
 C276 C 0.42105 0.91384 0.44092
 N277 N 1.06920 1.03596 0.47384
 N278 N 1.09380 1.03937 0.45399
 N279 N 1.04156 1.06478 0.52816
 N280 N 1.04744 1.08945 0.54814
 N281 N 1.06811 1.03425 0.52790
 N282 N 1.09282 1.03722 0.54766
 N283 N 1.04273 1.06659 0.47392
 N284 N 1.04854 1.09172 0.45406
 C285 C 1.08054 1.07427 0.44199
 C286 C 1.07945 1.07169 0.56000
 N287 N 0.92582 1.04200 0.52675
 N288 N 0.90234 1.04546 0.54715
 N289 N 0.95634 1.07146 0.47333
 N290 N 0.95336 1.09757 0.45368
 N291 N 0.92732 1.04388 0.47270
 N292 N 0.90370 1.05040 0.45268
 N293 N 0.95503 1.06939 0.52762
 N294 N 0.95224 1.09226 0.54872
 Mn295 Mn 0.99893 1.06866 0.50078
 C296 C 0.91906 1.07703 0.56046
 C297 C 0.92036 1.08393 0.44115
 N298 N 1.06397 0.94482 0.52700
 N299 N 1.08601 0.94029 0.54794
 N300 N 1.03605 0.91887 0.47237
 N301 N 1.03850 0.89571 0.45140
 N302 N 1.06513 0.94641 0.47286
 N303 N 1.08821 0.94277 0.45228
 N304 N 1.03478 0.91739 0.52664
 N305 N 1.03614 0.89340 0.54736
 Mn306 Mn 1.06709 0.99030 0.50039
 C307 C 1.06847 0.90793 0.56020
 C308 C 1.07135 0.91085 0.43932
 N309 N 0.92342 0.95434 0.47161
 N310 N 0.89989 0.95206 0.45122
 N311 N 0.94842 0.92215 0.52582
 N312 N 0.94290 0.89749 0.54592
 N313 N 0.92181 0.95264 0.52569
 N314 N 0.89742 0.94963 0.54566
 N315 N 0.94985 0.92369 0.47166
 N316 N 0.94511 0.89965 0.45129
 Mn317 Mn 0.92412 0.99825 0.49916
 Mn318 Mn 0.99227 0.91995 0.49914
 Cl319 Cl 0.99561 0.99432 0.49987
 C320 C 0.91384 0.91780 0.43889
 C321 C 0.91090 0.91504 0.55790
 N322 N 0.56732 0.53745 0.02809
 N323 N 0.59778 0.56080 0.03571
 N324 N 0.53494 0.45074 0.04461
 N325 N 0.54339 0.42579 0.06412
 N326 N 0.56408 0.44995 0.02746
 N327 N 0.59336 0.42467 0.03522
 N328 N 0.53830 0.53841 0.04531
 N329 N 0.54799 0.56261 0.06480
 C330 C 0.58461 0.57701 0.05833
 C331 C 0.57926 0.40897 0.05775
 N332 N 0.41972 0.45701 0.02746
 N333 N 0.38853 0.43492 0.03546
 N334 N 0.45232 0.54261 0.04514
 N335 N 0.44501 0.56850 0.06429
 N336 N 0.42339 0.54443 0.02794
 N337 N 0.39533 0.57146 0.03522
 N338 N 0.44893 0.45497 0.04450
 N339 N 0.43868 0.43111 0.06408
 Mn340 Mn 0.49359 0.49668 0.04490
 C341 C 0.40155 0.41804 0.05795
 C342 C 0.41000 0.58689 0.05759
 N343 N 0.56427 0.45145 -0.02872
 N344 N 0.59412 0.42752 -0.03713
 N345 N 0.53843 0.54065 -0.04519
 N346 N 0.54885 0.56457 -0.06473
 N347 N 0.56747 0.53870 -0.02803
 N348 N 0.59864 0.56096 -0.03585
 N349 N 0.53523 0.45301 -0.04590
 N350 N 0.54438 0.42985 -0.06606
 Mn351 Mn 0.56612 0.49437 -0.00030
 C352 C 0.58052 0.41335 -0.06007
 C353 C 0.58586 0.57781 -0.05839
 N354 N 0.42325 0.54562 -0.02807
 N355 N 0.39427 0.57145 -0.03556
 N356 N 0.44901 0.45708 -0.04597
 N357 N 0.43887 0.43406 -0.06590
 N358 N 0.41975 0.45823 -0.02888
 N359 N 0.38867 0.43631 -0.03717
 N360 N 0.45233 0.54474 -0.04526
 N361 N 0.44415 0.57016 -0.06457
 Mn362 Mn 0.42113 0.50131 -0.00037
 Mn363 Mn 0.49375 0.49886 -0.04557
 Cl364 Cl 0.49365 0.49774 -0.00035
 C365 C 0.40848 0.58727 -0.05801
 C366 C 0.40176 0.42054 -0.05994
 C367 C 0.34166 1.15798 0.10603
 C368 C 0.35995 1.18800 0.12211
 C369 C 0.34096 1.19999 0.14551
 C370 C 0.30345 1.18241 0.15240
 C371 C 0.28301 1.15637 0.13483
 C372 C 0.30235 1.14383 0.11162
 C373 C 0.28180 1.11715 0.09450
 C374 C 0.24282 1.10390 0.09992
 C375 C 0.22370 1.11655 0.12250
 C376 C 0.24352 1.14235 0.13991
 C377 C 0.36016 1.22951 0.16156
 C378 C 0.39662 1.24735 0.15438
 C379 C 0.41510 1.23576 0.13139
 C380 C 0.39725 1.20616 0.11546
 C381 C 0.28604 1.19193 0.17736
 C382 C 0.27312 1.20227 0.19810
 C383 C 0.36524 1.13804 0.08586
 C384 C 0.38664 1.11971 0.07081
 H385 H 0.29542 1.10694 0.07660
 H386 H 0.22730 1.08389 0.08645
 H387 H 0.19335 1.10632 0.12653
 H388 H 0.22749 1.15160 0.15719
 H389 H 0.34695 1.23952 0.17960
 H390 H 0.41059 1.27030 0.16672
 H391 H 0.44343 1.24974 0.12590
 H392 H 0.41258 1.19814 0.09770
 C393 C 0.85234 0.65780 0.61248
 C394 C 0.80985 0.65940 0.61430
 C395 C 0.79114 0.67521 0.63702
 C396 C 0.81503 0.68936 0.65776
 C397 C 0.85740 0.69062 0.65517
 C398 C 0.87610 0.67470 0.63252
 C399 C 0.91855 0.67581 0.63057
 C400 C 0.94184 0.69242 0.65032
 C401 C 0.92355 0.70812 0.67241
 C402 C 0.88184 0.70728 0.67492
 C403 C 0.74867 0.67638 0.63844
 C404 C 0.72527 0.66271 0.61789
 C405 C 0.74355 0.64722 0.59570
 C406 C 0.78536 0.64534 0.59388
 C407 C 0.79646 0.70239 0.68185
 C408 C 0.78270 0.71423 0.70212
 C409 C 0.87195 0.63611 0.59116
 C410 C 0.89017 0.61666 0.57490
 H411 H 0.93417 0.66420 0.61371
 H412 H 0.97426 0.69318 0.64844
 H413 H 0.94176 0.72103 0.68768
 H414 H 0.86902 0.72002 0.69244
 H415 H 0.73317 0.68840 0.65526
 H416 H 0.69280 0.66420 0.61918
 H417 H 0.72524 0.63667 0.57979
 H418 H 0.79830 0.63323 0.57623
 C419 C 0.66582 0.86322 0.10628
 C420 C 0.67783 0.88993 0.12656
 C421 C 0.69737 0.87300 0.14859
 C422 C 0.70536 0.82963 0.14996
 C423 C 0.69717 0.80373 0.12854
 C424 C 0.67697 0.82052 0.10668
 C425 C 0.66827 0.79394 0.08571
 C426 C 0.68034 0.75215 0.08600
 C427 C 0.70083 0.73595 0.10717
 C428 C 0.70856 0.76112 0.12846
 C429 C 0.70826 0.90009 0.16892
 C430 C 0.70070 0.94288 0.16729
 C431 C 0.68205 0.95952 0.14559
 C432 C 0.67037 0.93348 0.12550
 C433 C 0.71958 0.81145 0.17390
 C434 C 0.72997 0.79626 0.19409
 C435 C 0.63925 0.87942 0.08641
 C436 C 0.61551 0.89504 0.07166
 H437 H 0.65274 0.80539 0.06876
 H438 H 0.67392 0.73227 0.06968
 H439 H 0.71049 0.70361 0.10720
 H440 H 0.72406 0.74702 0.14464
 H441 H 0.72318 0.88859 0.18609
 H442 H 0.70958 0.96326 0.18288
 H443 H 0.67677 0.99280 0.14423
 H444 H 0.65602 0.94794 0.10900
 C445 C 1.15143 0.34504 0.60952
 C446 C 1.19008 0.35762 0.61777
 C447 C 1.20778 0.33900 0.64001
 C448 C 1.18656 0.30825 0.65405
 C449 C 1.14927 0.29344 0.64470
 C450 C 1.13183 0.31166 0.62227
 C451 C 1.09476 0.29610 0.61318
 C452 C 1.07557 0.26325 0.62577
 C453 C 1.09249 0.24557 0.64776
 C454 C 1.12876 0.26059 0.65732
 C455 C 1.24647 0.35201 0.64781
 C456 C 1.26711 0.38259 0.63407
 C457 C 1.24972 0.40099 0.61245
 C458 C 1.21161 0.38882 0.60433
 C459 C 1.20255 0.29249 0.67832
 C460 C 1.21507 0.27913 0.69859
 C461 C 1.13044 0.36870 0.58953
 C462 C 1.11207 0.38985 0.57413
 H463 H 1.08054 0.30878 0.59609
 H464 H 1.04739 0.25147 0.61842
 H465 H 1.07746 0.22005 0.65746
 H466 H 1.14081 0.24576 0.67444
 H467 H 1.26125 0.33849 0.66446
 H468 H 1.29676 0.39206 0.64024
 H469 H 1.26589 0.42474 0.60185
 H470 H 1.19943 0.40377 0.58729
 C471 C 0.66014 1.15601 -0.10559
 C472 C 0.69916 1.14125 -0.11181
 C473 C 0.71821 1.15480 -0.13489
 C474 C 0.69776 1.18242 -0.15175
 C475 C 0.65996 1.19948 -0.14459
 C476 C 0.64140 1.18670 -0.12123
 C477 C 0.60399 1.20471 -0.11420
 C478 C 0.58551 1.23468 -0.12980
 C479 C 0.60341 1.24679 -0.15284
 C480 C 0.63999 1.22918 -0.16037
 C481 C 0.75733 1.13991 -0.14067
 C482 C 0.77705 1.11225 -0.12411
 C483 C 0.75826 1.09867 -0.10165
 C484 C 0.71969 1.11284 -0.09551
 C485 C 0.71537 1.19380 -0.17634
 C486 C 0.72847 1.20520 -0.19681
 C487 C 0.63721 1.13610 -0.08521
 C488 C 0.61632 1.11790 -0.06992
 H489 H 0.58896 1.19624 -0.09643
 H490 H 0.55710 1.24847 -0.12401
 H491 H 0.58894 1.26999 -0.16495
 H492 H 0.65264 1.23951 -0.17849
 H493 H 0.77311 1.14967 -0.15791
 H494 H 0.80706 1.10128 -0.12874
 H495 H 0.77369 1.07716 -0.08887
 H496 H 0.70634 1.10175 -0.07774
 C497 C 1.15748 0.64611 0.38547
 C498 C 1.16680 0.68923 0.38537
 C499 C 1.18537 0.70755 0.36335
 C500 C 1.19420 0.68275 0.34144
 C501 C 1.18618 0.63937 0.34189
 C502 C 1.16798 0.62099 0.36397
 C503 C 1.16033 0.57751 0.36388
 C504 C 1.17025 0.55297 0.34262
 C505 C 1.18781 0.57099 0.32100
 C506 C 1.19573 0.61367 0.32052
 C507 C 1.19428 0.75069 0.36371
 C508 C 1.18532 0.77507 0.38521
 C509 C 1.16696 0.75725 0.40664
 C510 C 1.15767 0.71483 0.40681
 C511 C 1.20963 0.70199 0.31799
 C512 C 1.22103 0.71774 0.29813
 C513 C 1.13539 0.62757 0.40691
 C514 C 1.11591 0.61024 0.42345
 H515 H 1.14682 0.56195 0.38024
 H516 H 1.16427 0.51976 0.34292
 H517 H 1.19542 0.55179 0.30452
 H518 H 1.20956 0.62620 0.30328
 H519 H 1.20807 0.76607 0.34737
 H520 H 1.19232 0.80805 0.38514
 H521 H 1.15978 0.77641 0.42321
 H522 H 1.14346 0.70231 0.42392
 C523 C 0.35096 0.85992 -0.11212
 C524 C 0.36986 0.85863 -0.13662
 C525 C 0.34808 0.84479 -0.15847
 C526 C 0.30762 0.83206 -0.15570
 C527 C 0.28893 0.83263 -0.13117
 C528 C 0.31080 0.84628 -0.10925
 C529 C 0.29174 0.84609 -0.08486
 C530 C 0.25205 0.83293 -0.08222
 C531 C 0.23049 0.82009 -0.10372
 C532 C 0.24854 0.82004 -0.12799
 C533 C 0.36750 0.84422 -0.18282
 C534 C 0.40728 0.85692 -0.18546
 C535 C 0.42865 0.87028 -0.16406
 C536 C 0.41035 0.87116 -0.13988
 C537 C 0.28620 0.81696 -0.17808
 C538 C 0.27115 0.80336 -0.19737
 C539 C 0.37238 0.87802 -0.09055
 C540 C 0.39213 0.89513 -0.07428
 H541 H 0.30736 0.85585 -0.06762
 H542 H 0.23791 0.83284 -0.06341
 H543 H 0.19965 0.81003 -0.10158
 H544 H 0.23059 0.80994 -0.14418
 H545 H 0.35224 0.83399 -0.20008
 H546 H 0.42163 0.85625 -0.20421
 H547 H 0.45962 0.87997 -0.16617
 H548 H 0.42837 0.88162 -0.12383
 C549 C 0.85026 0.35511 0.38840
 C550 C 0.80814 0.34879 0.38836
 C551 C 0.78897 0.33272 0.36597
 C552 C 0.81204 0.32312 0.34378
 C553 C 0.85442 0.32703 0.34437
 C554 C 0.87357 0.34310 0.36671
 C555 C 0.91598 0.34699 0.36671
 C556 C 0.93880 0.33513 0.34537
 C557 C 0.92008 0.31933 0.32357
 C558 C 0.87841 0.31529 0.32295
 C559 C 0.74688 0.32662 0.36636
 C560 C 0.72434 0.33581 0.38833
 C561 C 0.74304 0.35159 0.41018
 C562 C 0.78446 0.35823 0.41027
 C563 C 0.79266 0.30875 0.32036
 C564 C 0.77868 0.29553 0.30057
 C565 C 0.86975 0.37627 0.40982
 C566 C 0.88807 0.39530 0.42606
 H567 H 0.93200 0.35892 0.38325
 H568 H 0.97120 0.33819 0.34576
 H569 H 0.93795 0.31015 0.30703
 H570 H 0.86531 0.30271 0.30555
 H571 H 0.73109 0.31420 0.34985
 H572 H 0.69220 0.33060 0.38839
 H573 H 0.72538 0.35868 0.42719
 H574 H 0.79776 0.37040 0.42772
 C575 C 1.15076 0.33258 0.10765
 C576 C 1.14111 0.29050 0.11308
 C577 C 1.15358 0.27209 0.13673
 C578 C 1.17477 0.29627 0.15492
 C579 C 1.18676 0.33746 0.14871
 C580 C 1.17543 0.35533 0.12473
 C581 C 1.18878 0.39603 0.11851
 C582 C 1.21270 0.41847 0.13556
 C583 C 1.22316 0.40130 0.15927
 C584 C 1.21009 0.36147 0.16597
 C585 C 1.14423 0.22978 0.14164
 C586 C 1.12293 0.20635 0.12369
 C587 C 1.11026 0.22454 0.10069
 C588 C 1.11906 0.26621 0.09537
 C589 C 1.18624 0.27861 0.17955
 C590 C 1.19869 0.26599 0.19989
 C591 C 1.13127 0.35439 0.08653
 C592 C 1.11344 0.37498 0.07077
 H593 H 1.18137 0.41064 0.10027
 H594 H 1.22302 0.44939 0.13040
 H595 H 1.24157 0.41889 0.17253
 H596 H 1.21882 0.34963 0.18469
 H597 H 1.15343 0.21438 0.15930
 H598 H 1.11616 0.17394 0.12768
 H599 H 1.09364 0.20624 0.08684
 H600 H 1.10896 0.27902 0.07715
 C601 C 0.64326 0.84749 0.61609
 C602 C 0.63348 0.80596 0.62304
 C603 C 0.65101 0.78751 0.64534
 C604 C 0.67778 0.81087 0.66069
 C605 C 0.68929 0.85154 0.65296
 C606 C 0.67214 0.86981 0.63050
 C607 C 0.68442 0.91032 0.62299
 C608 C 0.71303 0.93205 0.63718
 C609 C 0.72972 0.91423 0.65919
 C610 C 0.71789 0.87458 0.66717
 C611 C 0.64122 0.74582 0.65177
 C612 C 0.61474 0.72299 0.63659
 C613 C 0.59734 0.74112 0.61489
 C614 C 0.60644 0.78215 0.60812
 C615 C 0.69374 0.79335 0.68439
 C616 C 0.70840 0.78036 0.70407
 C617 C 0.62303 0.86767 0.59455
 C618 C 0.60628 0.88516 0.57693
 H619 H 0.67236 0.92547 0.60598
 H620 H 0.72226 0.96290 0.63107
 H621 H 0.75194 0.93120 0.67015
 H622 H 0.73172 0.86209 0.68443
 H623 H 0.65410 0.73039 0.66844
 H624 H 0.60768 0.69106 0.64171
 H625 H 0.57675 0.72326 0.60319
 H626 H 0.59236 0.79484 0.59098
 C627 C 1.14316 0.65743 -0.11026
 C628 C 1.18174 0.67575 -0.10956
 C629 C 1.19659 0.69721 -0.13160
 C630 C 1.17292 0.69977 -0.15422
 C631 C 1.13370 0.68304 -0.15454
 C632 C 1.11871 0.66190 -0.13249
 C633 C 1.07937 0.64520 -0.13335
 C634 C 1.05565 0.64930 -0.15534
 C635 C 1.07041 0.66993 -0.17693
 C636 C 1.10897 0.68664 -0.17666
 C637 C 1.23520 0.71535 -0.13052
 C638 C 1.25843 0.71259 -0.10824
 C639 C 1.24404 0.69129 -0.08677
 C640 C 1.20615 0.67292 -0.08733
 C641 C 1.18952 0.71742 -0.17764
 C642 C 1.20346 0.73062 -0.19744
 C643 C 1.12873 0.63217 -0.08895
 C644 C 1.11378 0.60945 -0.07311
 H645 H 1.06640 0.62898 -0.11705
 H646 H 1.02565 0.63640 -0.15561
 H647 H 1.05188 0.67306 -0.19397
 H648 H 1.11905 0.70257 -0.19390
 H649 H 1.24782 0.73177 -0.14687
 H650 H 1.28788 0.72677 -0.10774
 H651 H 1.26235 0.68895 -0.06958
 H652 H 1.19607 0.65677 -0.07017
 C653 C 0.65105 1.14995 0.38853
 C654 C 0.68297 1.13046 0.37493
 C655 C 0.69962 1.15021 0.35283
 C656 C 0.68458 1.18957 0.34470
 C657 C 0.65497 1.21053 0.35949
 C658 C 0.63794 1.19055 0.38140
 C659 C 0.60794 1.21187 0.39571
 C660 C 0.59546 1.25197 0.38872
 C661 C 0.61234 1.27160 0.36739
 C662 C 0.64170 1.25121 0.35282
 C663 C 0.73119 1.12990 0.33934
 C664 C 0.74646 1.09162 0.34776
 C665 C 0.73031 1.07242 0.36946
 C666 C 0.69874 1.09133 0.38286
 C667 C 0.69915 1.20789 0.32089
 C668 C 0.71211 1.22172 0.30095
 C669 C 0.63069 1.12764 0.40914
 C670 C 0.61318 1.10894 0.42591
 H671 H 0.59412 1.19798 0.41255
 H672 H 0.57263 1.26794 0.39996
 H673 H 0.60264 1.30280 0.36210
 H674 H 0.65408 1.26775 0.33644
 H675 H 0.74478 1.14364 0.32239
 H676 H 0.77099 1.07683 0.33742
 H677 H 0.74232 1.04271 0.37595
 H678 H 0.68720 1.07524 0.39966
 C679 C 0.85946 0.64701 0.11062
 C680 C 0.85926 0.62633 0.13479
 C681 C 0.84338 0.64689 0.15677
 C682 C 0.82762 0.68784 0.15437
 C683 C 0.82659 0.70800 0.13009
 C684 C 0.84241 0.68738 0.10805
 C685 C 0.84080 0.70783 0.08388
 C686 C 0.82382 0.74760 0.08156
 C687 C 0.80858 0.76792 0.10318
 C688 C 0.81012 0.74858 0.12726
 C689 C 0.84375 0.62581 0.18083
 C690 C 0.85932 0.58547 0.18303
 C691 C 0.87482 0.56527 0.16150
 C692 C 0.87482 0.58526 0.13761
 C693 C 0.81144 0.70833 0.17690
 C694 C 0.79722 0.72317 0.19611
 C695 C 0.87929 0.62713 0.08901
 C696 C 0.89752 0.60823 0.07271
 H697 H 0.85234 0.69319 0.06657
 H698 H 0.82255 0.76275 0.06290
 H699 H 0.79544 0.79880 0.10130
 H700 H 0.79812 0.76565 0.14356
 H701 H 0.83198 0.64015 0.19816
 H702 H 0.85931 0.56981 0.20155
 H703 H 0.88694 0.53395 0.16330
 H704 H 0.88702 0.56806 0.12143
 C705 C 0.35966 1.14257 0.61572
 C706 C 0.35042 1.11830 0.63778
 C707 C 0.33226 1.13746 0.65960
 C708 C 0.32350 1.18079 0.65923
 C709 C 0.33086 1.20465 0.63676
 C710 C 0.34912 1.18551 0.61493
 C711 C 0.35626 1.20999 0.59267
 C712 C 0.34533 1.25210 0.59193
 C713 C 0.32730 1.27075 0.61324
 C714 C 0.32018 1.24747 0.63550
 C715 C 0.32308 1.11249 0.68138
 C716 C 0.33150 1.06980 0.68156
 C717 C 0.34930 1.05107 0.66022
 C718 C 0.35882 1.07489 0.63857
 C719 C 0.30630 1.20031 0.68191
 C720 C 0.29105 1.21441 0.70107
 C721 C 0.38035 1.12323 0.59410
 C722 C 0.39781 1.10629 0.57658
 H723 H 0.37005 1.19680 0.57559
 H724 H 0.35082 1.27034 0.57469
 H725 H 0.31873 1.30342 0.61253
 H726 H 0.30592 1.26325 0.65156
 H727 H 0.30905 1.12555 0.69842
 H728 H 0.32409 1.05114 0.69832
 H729 H 0.35565 1.01788 0.66040
 H730 H 0.37250 1.05882 0.62242
 C731 C 0.85198 0.33908 -0.10742
 C732 C 0.86175 0.29702 -0.11310
 C733 C 0.84716 0.27849 -0.13609
 C734 C 0.82312 0.30234 -0.15318
 C735 C 0.81018 0.34300 -0.14623
 C736 C 0.82449 0.36134 -0.12315
 C737 C 0.81123 0.40203 -0.11651
 C738 C 0.78410 0.42376 -0.13211
 C739 C 0.77010 0.40581 -0.15474
 C740 C 0.78322 0.36609 -0.16194
 C741 C 0.85730 0.23643 -0.14149
 C742 C 0.88112 0.21326 -0.12451
 C743 C 0.89547 0.23146 -0.10202
 C744 C 0.88613 0.27296 -0.09635
 C745 C 0.81111 0.28532 -0.17779
 C746 C 0.79901 0.27281 -0.19817
 C747 C 0.87360 0.36110 -0.08744
 C748 C 0.89283 0.38145 -0.07242
 H749 H 0.82127 0.41715 -0.09905
 H750 H 0.77398 0.45471 -0.12665
 H751 H 0.74903 0.42274 -0.16682
 H752 H 0.77168 0.35355 -0.17977
 H753 H 0.84666 0.22102 -0.15871
 H754 H 0.88847 0.18103 -0.12881
 H755 H 0.91385 0.21332 -0.08887
 H756 H 0.89765 0.28582 -0.07856
 C757 C 0.36466 0.86060 0.37904
 C758 C 0.36848 0.87937 0.35440
 C759 C 0.34835 0.86190 0.33283
 C760 C 0.32456 0.82570 0.33598
 C761 C 0.32103 0.80670 0.36054
 C762 C 0.34103 0.82424 0.38215
 C763 C 0.33682 0.80476 0.40652
 C764 C 0.31348 0.76903 0.40946
 C765 C 0.29407 0.75182 0.38831
 C766 C 0.29783 0.77023 0.36407
 C767 C 0.35263 0.88126 0.30841
 C768 C 0.37624 0.91674 0.30536
 C769 C 0.39603 0.93371 0.32642
 C770 C 0.39219 0.91548 0.35072
 C771 C 0.30374 0.80819 0.31394
 C772 C 0.28676 0.79424 0.29535
 C773 C 0.38486 0.87891 0.40113
 C774 C 0.40153 0.89463 0.41932
 H775 H 0.35152 0.81686 0.42351
 H776 H 0.31053 0.75456 0.42825
 H777 H 0.27602 0.72405 0.39069
 H778 H 0.28244 0.75554 0.34815
 H779 H 0.33792 0.86916 0.29142
 H780 H 0.37927 0.93107 0.28654
 H781 H 0.41455 0.96109 0.32391
 H782 H 0.40811 0.92993 0.36651
 C783 C 1.13298 1.11902 0.37641
 C784 C 1.15858 1.15405 0.37809
 C785 C 1.17836 1.16898 0.35567
 C786 C 1.17105 1.14991 0.33153
 C787 C 1.14592 1.11456 0.32988
 C788 C 1.12699 1.09887 0.35246
 C789 C 1.10223 1.06323 0.35043
 C790 C 1.09634 1.04370 0.32675
 C791 C 1.11480 1.05916 0.30466
 C792 C 1.13930 1.09424 0.30609
 C793 C 1.20506 1.20304 0.35798
 C794 C 1.21083 1.22278 0.38159
 C795 C 1.19065 1.20887 0.40340
 C796 C 1.16500 1.17472 0.40184
 C797 C 1.18807 1.16819 0.30844
 C798 C 1.20271 1.18592 0.29028
 C799 C 1.11358 1.10331 0.39946
 C800 C 1.09810 1.09026 0.41883
 H801 H 1.08731 1.05001 0.36709
 H802 H 1.07742 1.01638 0.32555
 H803 H 1.11017 1.04385 0.28632
 H804 H 1.15317 1.10508 0.28842
 H805 H 1.22168 1.21482 0.34162
 H806 H 1.23081 1.24922 0.38292
 H807 H 1.19506 1.22446 0.42167
 H808 H 1.15028 1.16479 0.41941
 C809 C 0.64953 0.62782 -0.11781
 C810 C 0.67572 0.66234 -0.11643
 C811 C 0.69291 0.67877 -0.13938
 C812 C 0.68291 0.66127 -0.16362
 C813 C 0.65768 0.62599 -0.16491
 C814 C 0.64107 0.60907 -0.14193
 C815 C 0.61592 0.57366 -0.14372
 C816 C 0.60746 0.55559 -0.16750
 C817 C 0.62367 0.57223 -0.18997
 C818 C 0.64849 0.60708 -0.18881
 C819 C 0.71955 0.71289 -0.13747
 C820 C 0.72809 0.73097 -0.11370
 C821 C 0.71085 0.71521 -0.09132
 C822 C 0.68506 0.68115 -0.09254
 C823 C 0.69766 0.68052 -0.18711
 C824 C 0.71085 0.69838 -0.20572
 C825 C 0.62989 0.61223 -0.09476
 C826 C 0.61126 0.59769 -0.07698
 H827 H 0.60264 0.55945 -0.12681
 H828 H 0.58818 0.52854 -0.16849
 H829 H 0.61702 0.55805 -0.20839
 H830 H 0.66052 0.61887 -0.20679
 H831 H 0.73379 0.72613 -0.15430
 H832 H 0.74796 0.75752 -0.11265
 H833 H 0.71757 0.72938 -0.07291
 H834 H 0.67257 0.66971 -0.07460
 C835 C 0.87415 1.11497 0.62985
 C836 C 0.83263 1.10934 0.63480
 C837 C 0.81520 1.12612 0.65756
 C838 C 0.83935 1.14868 0.67506
 C839 C 0.88115 1.15278 0.67066
 C840 C 0.89868 1.13566 0.64801
 C841 C 0.94049 1.14037 0.64386
 C842 C 0.96431 1.16143 0.66162
 C843 C 0.94711 1.17839 0.68372
 C844 C 0.90599 1.17429 0.68827
 C845 C 0.77360 1.12038 0.66209
 C846 C 0.74989 1.09864 0.64458
 C847 C 0.76685 1.08258 0.62217
 C848 C 0.80773 1.08777 0.61723
 C849 C 0.82054 1.17050 0.69633
 C850 C 0.80388 1.19001 0.71304
 C851 C 0.89102 1.10168 0.60544
 C852 C 0.90432 1.09080 0.58494
 H853 H 0.95520 1.12772 0.62694
 H854 H 0.99628 1.16461 0.65819
 H855 H 0.96573 1.19476 0.69744
 H856 H 0.89395 1.18792 0.70576
 H857 H 0.75902 1.13234 0.67924
 H858 H 0.71818 1.09432 0.64841
 H859 H 0.74826 1.06588 0.60858
 H860 H 0.81960 1.07455 0.59958
 C861 C 0.35249 0.64952 0.11513
 C862 C 0.32174 0.62816 0.12858
 C863 C 0.30796 0.64343 0.15274
 C864 C 0.32482 0.68016 0.16319
 C865 C 0.35433 0.70253 0.14923
 C866 C 0.36818 0.68716 0.12509
 C867 C 0.39727 0.71029 0.11128
 C868 C 0.41189 0.74787 0.12089
 C869 C 0.39826 0.76298 0.14447
 C870 C 0.37000 0.74058 0.15864
 C871 C 0.27750 0.62127 0.16597
 C872 C 0.26123 0.58499 0.15561
 C873 C 0.27442 0.57027 0.13186
 C874 C 0.30436 0.59145 0.11843
 C875 C 0.30937 0.69679 0.18721
 C876 C 0.29434 0.71225 0.20605
 C877 C 0.37077 0.63033 0.09265
 C878 C 0.38759 0.61189 0.07548
 H879 H 0.40848 0.69994 0.09274
 H880 H 0.43382 0.76542 0.10995
 H881 H 0.40957 0.79226 0.15181
 H882 H 0.36022 0.75366 0.17684
 H883 H 0.26607 0.63158 0.18446
 H884 H 0.23833 0.56813 0.16608
 H885 H 0.26146 0.54222 0.12384
 H886 H 0.31355 0.57887 0.09997
 C887 C 1.10837 0.86911 0.63057
 C888 C 1.10254 0.82774 0.63939
 C889 C 1.12142 0.81412 0.66246
 C890 C 1.14641 0.84182 0.67627
 C891 C 1.15026 0.88386 0.66832
 C892 C 1.13128 0.89757 0.64529
 C893 C 1.13643 0.93951 0.63726
 C894 C 1.15968 0.96702 0.65163
 C895 C 1.17776 0.95372 0.67438
 C896 C 1.17327 0.91259 0.68271
 C897 C 1.11558 0.77247 0.67087
 C898 C 1.09223 0.74490 0.65662
 C899 C 1.07403 0.75814 0.63389
 C900 C 1.07889 0.79911 0.62532
 C901 C 1.17097 0.82578 0.69706
 C902 C 1.19181 0.81025 0.71341
 C903 C 1.09280 0.88187 0.60573
 C904 C 1.08111 0.89315 0.58491
 H905 H 1.12260 0.95147 0.61985
 H906 H 1.16361 0.99887 0.64511
 H907 H 1.19543 0.97537 0.68560
 H908 H 1.18779 0.90360 0.70056
 H909 H 1.12921 0.76071 0.68840
 H910 H 1.08849 0.71302 0.66316
 H911 H 1.05607 0.73655 0.62282
 H912 H 1.06404 0.80804 0.60758
 C913 C 0.64026 0.35429 0.11710
 C914 C 0.62889 0.31490 0.12709
 C915 C 0.64286 0.30190 0.15175
 C916 C 0.66891 0.32795 0.16603
 C917 C 0.68119 0.36681 0.15572
 C918 C 0.66688 0.37998 0.13118
 C919 C 0.67940 0.41909 0.12134
 C920 C 0.70499 0.44463 0.13544
 C921 C 0.71869 0.43190 0.15952
 C922 C 0.70728 0.39334 0.16957
 C923 C 0.63032 0.26278 0.16156
 C924 C 0.60529 0.23695 0.14723
 C925 C 0.59214 0.24942 0.12296
 C926 C 0.60358 0.28800 0.11296
 C927 C 0.68542 0.31332 0.19034
 C928 C 0.70110 0.29922 0.20943
 C929 C 0.62100 0.37065 0.09403
 C930 C 0.60311 0.38668 0.07633
 H931 H 0.66964 0.43030 0.10266
 H932 H 0.71411 0.47451 0.12768
 H933 H 0.73818 0.45210 0.17049
 H934 H 0.71881 0.38476 0.18837
 H935 H 0.63994 0.25160 0.18028
 H936 H 0.59639 0.20691 0.15489
 H937 H 0.57302 0.22906 0.11181
 H938 H 0.59274 0.29634 0.09395
 C939 C 0.86678 0.87280 0.37211
 C940 C 0.83369 0.84536 0.37368
 C941 C 0.81802 0.82735 0.35090
 C942 C 0.83479 0.83792 0.32664
 C943 C 0.86750 0.86579 0.32502
 C944 C 0.88369 0.88323 0.34788
 C945 C 0.91659 0.91090 0.34590
 C946 C 0.93295 0.92109 0.32195
 C947 C 0.91705 0.90405 0.29957
 C948 C 0.88468 0.87667 0.30097
 C949 C 0.78557 0.79910 0.35299
 C950 C 0.76815 0.79019 0.37679
 C951 C 0.78313 0.80828 0.39907
 C952 C 0.81570 0.83535 0.39768
 C953 C 0.81779 0.82015 0.30355
 C954 C 0.80183 0.80371 0.28551
 C955 C 0.88380 0.88951 0.39551
 C956 C 0.89764 0.90267 0.41525
 H957 H 0.92992 0.92497 0.36277
 H958 H 0.95807 0.94235 0.32077
 H959 H 0.92985 0.91207 0.28102
 H960 H 0.87334 0.86412 0.28306
 H961 H 0.77308 0.78392 0.33628
 H962 H 0.74272 0.76936 0.37794
 H963 H 0.76950 0.80124 0.41753
 H964 H 0.82639 0.84851 0.41558
 C965 C 0.34137 0.36902 -0.12026
 C966 C 0.31475 0.33481 -0.11911
 C967 C 0.29989 0.31702 -0.14228
 C968 C 0.31176 0.33352 -0.16652
 C969 C 0.33736 0.36852 -0.16765
 C970 C 0.35220 0.38636 -0.14448
 C971 C 0.37795 0.42133 -0.14618
 C972 C 0.38865 0.43813 -0.17001
 C973 C 0.37410 0.42064 -0.19263
 C974 C 0.34873 0.38622 -0.19157
 C975 C 0.27333 0.28280 -0.14059
 C976 C 0.26173 0.26658 -0.11680
 C977 C 0.27634 0.28394 -0.09417
 C978 C 0.30258 0.31768 -0.09520
 C979 C 0.29768 0.31420 -0.19016
 C980 C 0.28483 0.29639 -0.20886
 C981 C 0.35937 0.38546 -0.09687
 C982 C 0.37699 0.40046 -0.07883
 H983 H 0.38997 0.43618 -0.12916
 H984 H 0.40834 0.46489 -0.17093
 H985 H 0.38249 0.43381 -0.21109
 H986 H 0.33811 0.37373 -0.20968
 H987 H 0.26110 0.26836 -0.15762
 H988 H 0.24130 0.24042 -0.11595
 H989 H 0.26725 0.27124 -0.07572
 H990 H 0.31306 0.33031 -0.07709
 C991 C 1.14481 0.32817 -0.10864
 C992 C 1.17252 0.34999 -0.12429
 C993 C 1.18401 0.33335 -0.14851
 C994 C 1.16993 0.29358 -0.15607
 C995 C 1.14449 0.27039 -0.13959
 C996 C 1.13136 0.28807 -0.11591
 C997 C 1.10470 0.26517 -0.10011
 C998 C 1.09180 0.22555 -0.10736
 C999 C 1.10510 0.20798 -0.13038
 C1000 C 1.13113 0.23005 -0.14642
 C1001 C 1.20939 0.35725 -0.16471
 C1002 C 1.22467 0.39545 -0.15659
 C1003 C 1.21465 0.41096 -0.13241
 C1004 C 1.18859 0.38881 -0.11646
 C1005 C 1.18332 0.27629 -0.18033
 C1006 C 1.19713 0.26391 -0.20032
 C1007 C 1.12583 0.35005 -0.08748
 C1008 C 1.10890 0.37155 -0.07186
 H1009 H 1.09386 0.27751 -0.08195
 H1010 H 1.07146 0.20837 -0.09502
 H1011 H 1.09507 0.17715 -0.13588
 H1012 H 1.14054 0.21527 -0.16421
 H1013 H 1.21789 0.34664 -0.18373
 H1014 H 1.24454 0.41297 -0.16907
 H1015 H 1.22683 0.44047 -0.12607
 H1016 H 1.18146 0.40222 -0.09786
 C1017 C 0.64722 0.85122 0.38335
 C1018 C 0.63634 0.81003 0.37646
 C1019 C 0.65326 0.79125 0.35409
 C1020 C 0.68064 0.81392 0.33867
 C1021 C 0.69342 0.85409 0.34642
 C1022 C 0.67677 0.87273 0.36890
 C1023 C 0.69026 0.91273 0.37642
 C1024 C 0.71965 0.93355 0.36225
 C1025 C 0.73592 0.91533 0.34026
 C1026 C 0.72286 0.87620 0.33224
 C1027 C 0.64228 0.74993 0.34769
 C1028 C 0.61527 0.72776 0.36296
 C1029 C 0.59852 0.74619 0.38476
 C1030 C 0.60876 0.78688 0.39150
 C1031 C 0.69597 0.79611 0.31490
 C1032 C 0.70998 0.78258 0.29517
 C1033 C 0.62724 0.87190 0.40479
 C1034 C 0.61022 0.88932 0.42232
 H1035 H 0.67859 0.92812 0.39344
 H1036 H 0.72985 0.96398 0.36839
 H1037 H 0.75880 0.93157 0.32934
 H1038 H 0.73649 0.86330 0.31503
 H1039 H 0.65465 0.73427 0.33096
 H1040 H 0.60732 0.69610 0.35787
 H1041 H 0.57755 0.72882 0.39656
 H1042 H 0.59515 0.79980 0.40871
 C1043 C 0.85761 0.65162 -0.10983
 C1044 C 0.84572 0.62785 -0.13149
 C1045 C 0.83002 0.64833 -0.15360
 C1046 C 0.82630 0.69238 -0.15387
 C1047 C 0.83552 0.71586 -0.13162
 C1048 C 0.85132 0.69536 -0.10948
 C1049 C 0.86044 0.71931 -0.08740
 C1050 C 0.85353 0.76232 -0.08709
 C1051 C 0.83790 0.78236 -0.10874
 C1052 C 0.82923 0.75958 -0.13089
 C1053 C 0.81842 0.62398 -0.17510
 C1054 C 0.82208 0.58062 -0.17468
 C1055 C 0.83749 0.56055 -0.15303
 C1056 C 0.84934 0.58373 -0.13167
 C1057 C 0.81210 0.71288 -0.17699
 C1058 C 0.79869 0.72721 -0.19661
 C1059 C 0.87859 0.63089 -0.08891
 C1060 C 0.89728 0.61112 -0.07317
 H1061 H 0.87250 0.70497 -0.07012
 H1062 H 0.86025 0.78016 -0.06994
 H1063 H 0.83238 0.81571 -0.10835
 H1064 H 0.81698 0.77642 -0.14725
 H1065 H 0.80624 0.63808 -0.19241
 H1066 H 0.81291 0.56250 -0.19124
 H1067 H 0.84025 0.52684 -0.15276
 H1068 H 0.86100 0.56663 -0.11526
 C1069 C 0.36622 1.14770 0.38322
 C1070 C 0.35019 1.18870 0.38516
 C1071 C 0.33115 1.20753 0.36347
 C1072 C 0.32828 1.18521 0.34003
 C1073 C 0.34374 1.14401 0.33821
 C1074 C 0.36272 1.12519 0.35986
 C1075 C 0.37769 1.08383 0.35761
 C1076 C 0.37387 1.06169 0.33467
 C1077 C 0.35541 1.08011 0.31346
 C1078 C 0.34054 1.12081 0.31507
 C1079 C 0.31523 1.24845 0.36584
 C1080 C 0.31782 1.27009 0.38906
 C1081 C 0.33636 1.25167 0.41027
 C1082 C 0.35253 1.21149 0.40843
 C1083 C 0.30864 1.20385 0.31785
 C1084 C 0.29193 1.21711 0.29894
 C1085 C 0.38609 1.12827 0.40516
 C1086 C 0.40261 1.11093 0.42292
 H1087 H 0.39234 1.06808 0.37355
 H1088 H 0.38528 1.03006 0.33336
 H1089 H 0.35258 1.06278 0.29566
 H1090 H 0.32644 1.13373 0.29801
 H1091 H 0.30042 1.26399 0.34987
 H1092 H 0.30527 1.30125 0.39063
 H1093 H 0.33822 1.26860 0.42827
 H1094 H 0.36672 1.19847 0.42544
 C1095 C 1.15197 0.64525 0.11053
 C1096 C 1.16279 0.68779 0.10847
 C1097 C 1.17472 0.71012 0.13083
 C1098 C 1.17655 0.68947 0.15496
 C1099 C 1.16657 0.64668 0.15692
 C1100 C 1.15452 0.62443 0.13462
 C1101 C 1.14488 0.58156 0.13705
 C1102 C 1.14664 0.56144 0.16087
 C1103 C 1.15797 0.58336 0.18275
 C1104 C 1.16802 0.62543 0.18090
 C1105 C 1.18426 0.75294 0.12848
 C1106 C 1.18310 0.77290 0.10458
 C1107 C 1.17205 0.75089 0.08265
 C1108 C 1.16174 0.70884 0.08448
 C1109 C 1.19020 0.71140 0.17769
 C1110 C 1.20281 0.72751 0.19696
 C1111 C 1.13450 0.62359 0.08873
 C1112 C 1.11747 0.60381 0.07235
 H1113 H 1.13604 0.56307 0.12060
 H1114 H 1.13919 0.52865 0.16236
 H1115 H 1.15931 0.56762 0.20122
 H1116 H 1.17688 0.64103 0.19847
 H1117 H 1.19289 0.77135 0.14503
 H1118 H 1.19097 0.80558 0.10308
 H1119 H 1.17133 0.76650 0.06412
 H1120 H 1.15324 0.69296 0.06694
 C1121 C 0.64240 1.13881 0.61948
 C1122 C 0.67517 1.16610 0.61536
 C1123 C 0.69252 1.18759 0.63653
 C1124 C 0.67737 1.18119 0.66173
 C1125 C 0.64488 1.15359 0.66591
 C1126 C 0.62734 1.13236 0.64472
 C1127 C 0.59497 1.10483 0.64939
 C1128 C 0.58033 1.09847 0.67427
 C1129 C 0.59745 1.11924 0.69499
 C1130 C 0.62937 1.14650 0.69098
 C1131 C 0.72502 1.21496 0.63190
 C1132 C 0.73995 1.22089 0.60705
 C1133 C 0.72333 1.19949 0.58641
 C1134 C 0.69128 1.17240 0.59040
 C1135 C 0.69639 1.20116 0.68358
 C1136 C 0.71244 1.21591 0.70222
 C1137 C 0.62362 1.11802 0.59777
 C1138 C 0.60752 1.10106 0.57983
 H1139 H 0.58071 1.08787 0.63391
 H1140 H 0.55558 1.07727 0.67748
 H1141 H 0.58594 1.11420 0.71428
 H1142 H 0.64165 1.16195 0.70773
 H1143 H 0.73903 1.23217 0.64738
 H1144 H 0.76445 1.24231 0.60372
 H1145 H 0.73523 1.20404 0.56718
 H1146 H 0.67932 1.15648 0.57373
 C1147 C 0.85043 0.34915 0.11018
 C1148 C 0.84334 0.30566 0.11108
 C1149 C 0.82772 0.28729 0.13392
 C1150 C 0.81904 0.31269 0.15554
 C1151 C 0.82424 0.35647 0.15419
 C1152 C 0.83972 0.37480 0.13135
 C1153 C 0.84460 0.41871 0.13037
 C1154 C 0.83482 0.44368 0.15146
 C1155 C 0.82030 0.42564 0.17398
 C1156 C 0.81480 0.38259 0.17540
 C1157 C 0.82153 0.24362 0.13462
 C1158 C 0.82987 0.21890 0.11315
 C1159 C 0.84493 0.23694 0.09074
 C1160 C 0.85184 0.27982 0.08965
 C1161 C 0.80471 0.29420 0.17925
 C1162 C 0.79204 0.28059 0.19925
 C1163 C 0.87212 0.36741 0.08875
 C1164 C 0.89177 0.38494 0.07256
 H1165 H 0.85579 0.43424 0.11328
 H1166 H 0.83852 0.47718 0.15032
 H1167 H 0.81285 0.44514 0.19035
 H1168 H 0.80298 0.37013 0.19327
 H1169 H 0.80993 0.22820 0.15165
 H1170 H 0.82463 0.18558 0.11392
 H1171 H 0.85138 0.21762 0.07412
 H1172 H 0.86355 0.29256 0.07183
 C1173 C 0.36258 0.85673 0.61723
 C1174 C 0.33971 0.81980 0.61454
 C1175 C 0.32039 0.80204 0.63642
 C1176 C 0.32361 0.82159 0.66077
 C1177 C 0.34646 0.85849 0.66347
 C1178 C 0.36607 0.87606 0.64166
 C1179 C 0.38885 0.91289 0.64488
 C1180 C 0.39219 0.93180 0.66895
 C1181 C 0.37293 0.91469 0.69026
 C1182 C 0.35029 0.87847 0.68767
 C1183 C 0.29816 0.76485 0.63336
 C1184 C 0.29456 0.74602 0.60928
 C1185 C 0.31315 0.76356 0.58784
 C1186 C 0.33560 0.79996 0.59034
 C1187 C 0.30321 0.80414 0.68306
 C1188 C 0.28660 0.79067 0.70196
 C1189 C 0.38246 0.87504 0.59496
 C1190 C 0.39907 0.89097 0.57676
 H1191 H 0.40435 0.92745 0.62890
 H1192 H 0.40982 0.95988 0.67107
 H1193 H 0.37560 0.92952 0.70891
 H1194 H 0.33596 0.86633 0.70484
 H1195 H 0.28339 0.74993 0.64951
 H1196 H 0.27726 0.71769 0.60727
 H1197 H 0.31026 0.74881 0.56918
 H1198 H 0.34965 0.81234 0.57314
 C1199 C 0.34340 1.15479 -0.10677
 C1200 C 0.30561 1.13771 -0.11327
 C1201 C 0.28594 1.15058 -0.13630
 C1202 C 0.30450 1.17998 -0.15277
 C1203 C 0.34076 1.19943 -0.14523
 C1204 C 0.35995 1.18719 -0.12195
 C1205 C 0.39582 1.20744 -0.11456
 C1206 C 0.41223 1.23903 -0.12974
 C1207 C 0.39373 1.25068 -0.15269
 C1208 C 0.35863 1.23093 -0.16056
 C1209 C 0.24815 1.13321 -0.14244
 C1210 C 0.23028 1.10387 -0.12624
 C1211 C 0.24966 1.09105 -0.10380
 C1212 C 0.28698 1.10761 -0.09733
 C1213 C 0.28662 1.19050 -0.17744
 C1214 C 0.27319 1.20118 -0.19798
 C1215 C 0.36762 1.13559 -0.08667
 C1216 C 0.38959 1.11807 -0.07161
 H1217 H 0.41120 1.19944 -0.09683
 H1218 H 0.43951 1.25443 -0.12370
 H1219 H 0.40663 1.27515 -0.16447
 H1220 H 0.34549 1.24094 -0.17862
 H1221 H 0.23197 1.14229 -0.15968
 H1222 H 0.20125 1.09101 -0.13113
 H1223 H 0.23567 1.06823 -0.09130
 H1224 H 0.30081 1.09702 -0.07958
 C1225 C 0.85122 0.65128 0.38515
 C1226 C 0.87411 0.65992 0.36270
 C1227 C 0.85483 0.67556 0.34019
 C1228 C 0.81271 0.68240 0.34016
 C1229 C 0.79005 0.67538 0.36286
 C1230 C 0.80938 0.65985 0.38545
 C1231 C 0.78612 0.65316 0.40791
 C1232 C 0.74495 0.66174 0.40811
 C1233 C 0.72606 0.67682 0.38603
 C1234 C 0.74819 0.68347 0.36357
 C1235 C 0.87842 0.68386 0.31800
 C1236 C 0.91981 0.67685 0.31805
 C1237 C 0.93865 0.66148 0.34003
 C1238 C 0.91623 0.65304 0.36213
 C1239 C 0.79323 0.69715 0.31676
 C1240 C 0.77930 0.71040 0.29689
 C1241 C 0.87076 0.63128 0.40711
 C1242 C 0.88910 0.61308 0.42385
 H1243 H 0.79957 0.64155 0.42553
 H1244 H 0.72762 0.65666 0.42551
 H1245 H 0.69411 0.68352 0.38632
 H1246 H 0.73227 0.69544 0.34690
 H1247 H 0.86523 0.69589 0.30041
 H1248 H 0.93737 0.68337 0.30093
 H1249 H 0.97082 0.65608 0.33998
 H1250 H 0.93235 0.64129 0.37876
 C1251 C 0.65624 1.14410 0.11304
 C1252 C 0.67811 1.18181 0.11147
 C1253 C 0.69858 1.19699 0.13356
 C1254 C 0.69712 1.17426 0.15699
 C1255 C 0.67592 1.13620 0.15844
 C1256 C 0.65524 1.12115 0.13646
 C1257 C 0.63329 1.08348 0.13863
 C1258 C 0.63177 1.06153 0.16184
 C1259 C 0.65240 1.07606 0.18325
 C1260 C 0.67427 1.11294 0.18168
 C1261 C 0.71923 1.23541 0.13183
 C1262 C 0.71987 1.25808 0.10888
 C1263 C 0.69999 1.24314 0.08724
 C1264 C 0.67928 1.20543 0.08841
 C1265 C 0.71436 1.19159 0.18020
 C1266 C 0.72674 1.20657 0.19987
 C1267 C 0.63311 1.12920 0.09125
 C1268 C 0.61208 1.11394 0.07494
 H1269 H 0.61697 1.07056 0.12252
 H1270 H 0.61470 1.03292 0.16316
 H1271 H 0.65141 1.05872 0.20118
 H1272 H 0.68980 1.12298 0.19889
 H1273 H 0.73469 1.24850 0.14825
 H1274 H 0.73573 1.28748 0.10793
 H1275 H 0.70044 1.26097 0.06949
 H1276 H 0.66405 1.19511 0.07115
 C1277 C 1.15773 0.64718 0.61283
 C1278 C 1.16751 0.69017 0.61315
 C1279 C 1.18552 0.70796 0.63543
 C1280 C 1.19318 0.68276 0.65739
 C1281 C 1.18482 0.63950 0.65672
 C1282 C 1.16720 0.62164 0.63438
 C1283 C 1.15901 0.57828 0.63428
 C1284 C 1.16790 0.55334 0.65560
 C1285 C 1.18501 0.57084 0.67745
 C1286 C 1.19342 0.61340 0.67812
 C1287 C 1.19492 0.75099 0.63530
 C1288 C 1.18674 0.77581 0.61381
 C1289 C 1.16889 0.75849 0.59213
 C1290 C 1.15931 0.71616 0.59170
 C1291 C 1.20786 0.70148 0.68108
 C1292 C 1.21899 0.71688 0.70102
 C1293 C 1.13595 0.62922 0.59121
 C1294 C 1.11651 0.61208 0.57468
 H1295 H 1.14584 0.56312 0.61774
 H1296 H 1.16147 0.52025 0.65515
 H1297 H 1.19185 0.55133 0.69396
 H1298 H 1.20689 0.62551 0.69553
 H1299 H 1.20847 0.76594 0.65182
 H1300 H 1.19399 0.80872 0.61409
 H1301 H 1.16236 0.77797 0.57555
 H1302 H 1.14556 0.70401 0.57439
 C1303 C 0.65878 0.84920 -0.10448
 C1304 C 0.64022 0.81705 -0.11877
 C1305 C 0.65863 0.80200 -0.14169
 C1306 C 0.69597 0.81855 -0.14982
 C1307 C 0.71643 0.84752 -0.13411
 C1308 C 0.69764 0.86313 -0.11142
 C1309 C 0.71824 0.89271 -0.09625
 C1310 C 0.75666 0.90601 -0.10310
 C1311 C 0.77517 0.89048 -0.12518
 C1312 C 0.75534 0.86166 -0.14066
 C1313 C 0.63902 0.77055 -0.15602
 C1314 C 0.60279 0.75369 -0.14758
 C1315 C 0.58492 0.76820 -0.12504
 C1316 C 0.60315 0.79974 -0.11082
 C1317 C 0.71290 0.80576 -0.17437
 C1318 C 0.72562 0.79370 -0.19481
 C1319 C 0.63593 0.87096 -0.08468
 C1320 C 0.61505 0.89025 -0.06979
 H1321 H 0.70510 0.90534 -0.07880
 H1322 H 0.77219 0.92840 -0.09116
 H1323 H 0.80506 0.90078 -0.13036
 H1324 H 0.77092 0.85036 -0.15763
 H1325 H 0.65173 0.75825 -0.17367
 H1326 H 0.58854 0.72920 -0.15857
 H1327 H 0.55676 0.75501 -0.11855
 H1328 H 0.58822 0.80997 -0.09336
 C1329 C 1.15180 0.34627 0.39030
 C1330 C 1.19135 0.35736 0.38293
 C1331 C 1.20889 0.33979 0.36035
 C1332 C 1.18680 0.31119 0.34529
 C1333 C 1.14845 0.29776 0.35370
 C1334 C 1.13097 0.31524 0.37631
 C1335 C 1.09263 0.30133 0.38433
 C1336 C 1.07224 0.27076 0.37053
 C1337 C 1.08931 0.25366 0.34843
 C1338 C 1.12686 0.26705 0.33994
 C1339 C 1.24832 0.35160 0.35327
 C1340 C 1.26995 0.37980 0.36815
 C1341 C 1.25285 0.39691 0.39025
 C1342 C 1.21395 0.38604 0.39759
 C1343 C 1.20323 0.29577 0.32111
 C1344 C 1.21597 0.28230 0.30097
 C1345 C 1.13117 0.36935 0.41063
 C1346 C 1.11275 0.38995 0.42625
 H1347 H 1.07826 0.31355 0.40149
 H1348 H 1.04304 0.26027 0.37704
 H1349 H 1.07337 0.22989 0.33780
 H1350 H 1.13894 0.25275 0.32267
 H1351 H 1.26293 0.33895 0.33630
 H1352 H 1.30019 0.38830 0.36255
 H1353 H 1.26985 0.41868 0.40180
 H1354 H 1.20196 0.39993 0.41501
 C1355 C 0.33478 0.86597 0.10654
 C1356 C 0.31890 0.82507 0.10648
 C1357 C 0.29836 0.80980 0.12861
 C1358 C 0.29398 0.83548 0.15065
 C1359 C 0.30791 0.87712 0.15018
 C1360 C 0.32826 0.89247 0.12805
 C1361 C 0.34223 0.93421 0.12815
 C1362 C 0.33632 0.95989 0.14949
 C1363 C 0.31651 0.94479 0.17116
 C1364 C 0.30240 0.90391 0.17161
 C1365 C 0.28307 0.76869 0.12825
 C1366 C 0.28733 0.74358 0.10650
 C1367 C 0.30757 0.75844 0.08491
 C1368 C 0.32342 0.79867 0.08483
 C1369 C 0.27785 0.81839 0.17441
 C1370 C 0.26634 0.80393 0.19454
 C1371 C 0.36018 0.88055 0.08560
 C1372 C 0.38300 0.89571 0.07016
 H1373 H 0.35767 0.94756 0.11174
 H1374 H 0.34717 0.99171 0.14920
 H1375 H 0.31199 0.96486 0.18769
 H1376 H 0.28698 0.89365 0.18887
 H1377 H 0.26771 0.75556 0.14476
 H1378 H 0.27523 0.71226 0.10653
 H1379 H 0.31114 0.73863 0.06816
 H1380 H 0.33893 0.80900 0.06762
 C1381 C 0.84703 0.36064 0.61370
 C1382 C 0.84694 0.31655 0.61580
 C1383 C 0.82922 0.29708 0.63770
 C1384 C 0.81156 0.32182 0.65735
 C1385 C 0.81034 0.36586 0.65479
 C1386 C 0.82811 0.38531 0.63292
 C1387 C 0.82690 0.42942 0.63097
 C1388 C 0.80872 0.45362 0.65006
 C1389 C 0.79136 0.43461 0.67143
 C1390 C 0.79205 0.39125 0.67387
 C1391 C 0.82987 0.25299 0.63946
 C1392 C 0.84709 0.22885 0.62000
 C1393 C 0.86453 0.24781 0.59866
 C1394 C 0.86463 0.29119 0.59651
 C1395 C 0.79615 0.30225 0.68065
 C1396 C 0.78416 0.28647 0.70033
 C1397 C 0.86885 0.38084 0.59281
 C1398 C 0.88820 0.39882 0.57654
 H1399 H 0.83985 0.44566 0.61467
 H1400 H 0.80812 0.48732 0.64826
 H1401 H 0.77727 0.45356 0.68620
 H1402 H 0.77805 0.37793 0.69082
 H1403 H 0.81657 0.23674 0.65565
 H1404 H 0.84650 0.19525 0.62131
 H1405 H 0.87793 0.22882 0.58365
 H1406 H 0.87843 0.30458 0.57951
 C1407 C 1.13327 1.11576 0.62494
 C1408 C 1.15978 1.15004 0.62292
 C1409 C 1.18004 1.16458 0.64516
 C1410 C 1.17244 1.14574 0.66940
 C1411 C 1.14692 1.11075 0.67131
 C1412 C 1.12709 1.09575 0.64899
 C1413 C 1.10130 1.06094 0.65135
 C1414 C 1.09581 1.04114 0.67505
 C1415 C 1.11565 1.05555 0.69684
 C1416 C 1.14080 1.09011 0.69513
 C1417 C 1.20745 1.19804 0.64260
 C1418 C 1.21369 1.21740 0.61887
 C1419 C 1.19308 1.20384 0.59720
 C1420 C 1.16655 1.17042 0.59905
 C1421 C 1.18898 1.16440 0.69234
 C1422 C 1.20309 1.18263 0.71036
 C1423 C 1.11334 1.10041 0.60211
 C1424 C 1.09745 1.08751 0.58294
 H1425 H 1.08545 1.04842 0.63491
 H1426 H 1.07637 1.01424 0.67647
 H1427 H 1.11159 1.03983 0.71515
 H1428 H 1.15572 1.10019 0.71256
 H1429 H 1.22424 1.20964 0.65888
 H1430 H 1.23439 1.24324 0.61732
 H1431 H 1.19782 1.21914 0.57882
 H1432 H 1.15144 1.16082 0.58160
 C1433 C 0.64534 0.63702 0.11539
 C1434 C 0.62633 0.67179 0.12720
 C1435 C 0.64166 0.68797 0.15069
 C1436 C 0.67588 0.66926 0.16224
 C1437 C 0.69603 0.63578 0.14980
 C1438 C 0.68068 0.61960 0.12630
 C1439 C 0.70134 0.58620 0.11418
 C1440 C 0.73631 0.56939 0.12489
 C1441 C 0.75130 0.58516 0.14787
 C1442 C 0.73153 0.61799 0.16027
 C1443 C 0.62259 0.72322 0.16189
 C1444 C 0.58936 0.74198 0.15018
 C1445 C 0.57423 0.72600 0.12730
 C1446 C 0.59232 0.69126 0.11589
 C1447 C 0.69191 0.68637 0.18593
 C1448 C 0.70656 0.70240 0.20465
 C1449 C 0.62664 0.61727 0.09330
 C1450 C 0.60885 0.59969 0.07628
 H1451 H 0.69093 0.57306 0.09620
 H1452 H 0.75190 0.54400 0.11529
 H1453 H 0.77838 0.57187 0.15612
 H1454 H 0.74441 0.62929 0.17808
 H1455 H 0.63332 0.73689 0.17964
 H1456 H 0.57530 0.76907 0.15892
 H1457 H 0.54839 0.74066 0.11829
 H1458 H 0.57968 0.68021 0.09796
 C1459 C 1.11251 0.87198 0.36925
 C1460 C 1.13671 0.89924 0.35441
 C1461 C 1.15503 0.88458 0.33139
 C1462 C 1.14867 0.84298 0.32333
 C1463 C 1.12251 0.81656 0.33731
 C1464 C 1.10463 0.83100 0.36052
 C1465 C 1.07977 0.80357 0.37476
 C1466 C 1.07272 0.76302 0.36623
 C1467 C 1.08994 0.74899 0.34337
 C1468 C 1.11449 0.77535 0.32896
 C1469 C 1.17976 0.91197 0.31704
 C1470 C 1.18599 0.95289 0.32518
 C1471 C 1.16799 0.96732 0.34769
 C1472 C 1.14360 0.94094 0.36223
 C1473 C 1.17157 0.82608 0.30205
 C1474 C 1.19137 0.81020 0.28531
 C1475 C 1.09719 0.88551 0.39399
 C1476 C 1.08515 0.89681 0.41471
 H1477 H 1.06563 0.81310 0.39263
 H1478 H 1.05381 0.74237 0.37742
 H1479 H 1.08443 0.71745 0.33684
 H1480 H 1.12732 0.76299 0.31135
 H1481 H 1.19425 0.90214 0.29934
 H1482 H 1.20485 0.97351 0.31393
 H1483 H 1.17291 0.99913 0.35392
 H1484 H 1.13012 0.95362 0.37956
 C1485 C 0.64303 0.36476 -0.12064
 C1486 C 0.63106 0.38135 -0.14484
 C1487 C 0.64880 0.36597 -0.16791
 C1488 C 0.67819 0.33399 -0.16667
 C1489 C 0.69083 0.31813 -0.14243
 C1490 C 0.67318 0.33354 -0.11935
 C1491 C 0.68601 0.31695 -0.09541
 C1492 C 0.71550 0.28587 -0.09430
 C1493 C 0.73281 0.27078 -0.11685
 C1494 C 0.72070 0.28665 -0.14064
 C1495 C 0.63639 0.38293 -0.19184
 C1496 C 0.60699 0.41407 -0.19298
 C1497 C 0.58943 0.42898 -0.17045
 C1498 C 0.60128 0.41302 -0.14661
 C1499 C 0.69467 0.31625 -0.19019
 C1500 C 0.70964 0.29934 -0.20861
 C1501 C 0.62341 0.37949 -0.09733
 C1502 C 0.60510 0.39355 -0.07923
 H1503 H 0.67342 0.32780 -0.07736
 H1504 H 0.72493 0.27342 -0.07584
 H1505 H 0.75562 0.24655 -0.11596
 H1506 H 0.73487 0.27386 -0.15761
 H1507 H 0.64927 0.37234 -0.20988
 H1508 H 0.59773 0.42664 -0.21145
 H1509 H 0.56645 0.45300 -0.17143
 H1510 H 0.58679 0.42577 -0.12966
 C1511 C 0.87411 1.13539 0.37556
 C1512 C 0.89001 1.12461 0.35111
 C1513 C 0.87273 1.14192 0.32843
 C1514 C 0.83989 1.16997 0.33044
 C1515 C 0.82424 1.18108 0.35492
 C1516 C 0.84114 1.16336 0.37756
 C1517 C 0.82435 1.17403 0.40180
 C1518 C 0.79175 1.20145 0.40359
 C1519 C 0.77544 1.21911 0.38144
 C1520 C 0.79160 1.20944 0.35738
 C1521 C 0.88885 1.13058 0.30415
 C1522 C 0.92124 1.10287 0.30235
 C1523 C 0.93821 1.08595 0.32455
 C1524 C 0.92290 1.09659 0.34871
 C1525 C 0.82143 1.18713 0.30752
 C1526 C 0.80414 1.20288 0.28962
 C1527 C 0.89130 1.11742 0.39869
 C1528 C 0.90496 1.10236 0.41806
 H1529 H 0.83606 1.16119 0.41961
 H1530 H 0.77910 1.20906 0.42225
 H1531 H 0.75001 1.24023 0.38289
 H1532 H 0.77796 1.22412 0.34076
 H1533 H 0.87664 1.14300 0.28636
 H1534 H 0.93324 1.09450 0.28363
 H1535 H 0.96336 1.06444 0.32306
 H1536 H 0.93707 1.08261 0.36543
 C1537 C 0.35046 0.64872 -0.11597
 C1538 C 0.37013 0.68278 -0.12789
 C1539 C 0.35663 0.69776 -0.15221
 C1540 C 0.32345 0.67868 -0.16439
 C1541 C 0.30256 0.64595 -0.15188
 C1542 C 0.31605 0.63101 -0.12754
 C1543 C 0.29435 0.59878 -0.11518
 C1544 C 0.25999 0.58208 -0.12642
 C1545 C 0.24675 0.59670 -0.15021
 C1546 C 0.26781 0.62808 -0.16297
 C1547 C 0.37693 0.73170 -0.16383
 C1548 C 0.40965 0.75025 -0.15175
 C1549 C 0.42272 0.73576 -0.12790
 C1550 C 0.40334 0.70236 -0.11604
 C1551 C 0.30864 0.69507 -0.18867
 C1552 C 0.29410 0.71053 -0.20769
 C1553 C 0.36820 0.62917 -0.09338
 C1554 C 0.38524 0.61116 -0.07610
 H1555 H 0.30333 0.58668 -0.09654
 H1556 H 0.24350 0.55773 -0.11658
 H1557 H 0.21998 0.58372 -0.15883
 H1558 H 0.25628 0.63848 -0.18141
 H1559 H 0.36783 0.74417 -0.18236
 H1560 H 0.42503 0.77596 -0.16095
 H1561 H 0.44806 0.75041 -0.11856
 H1562 H 0.41447 0.69227 -0.09742
 C1563 C 0.86260 0.87311 0.62531
 C1564 C 0.87738 0.88765 0.64923
 C1565 C 0.86082 0.87221 0.67261
 C1566 C 0.82977 0.84231 0.67182
 C1567 C 0.81472 0.82810 0.64787
 C1568 C 0.83095 0.84385 0.62453
 C1569 C 0.81501 0.82974 0.60080
 C1570 C 0.78378 0.80096 0.60020
 C1571 C 0.76808 0.78529 0.62305
 C1572 C 0.78354 0.79828 0.64662
 C1573 C 0.87599 0.88705 0.69633
 C1574 C 0.90671 0.91646 0.69691
 C1575 C 0.92292 0.93161 0.67403
 C1576 C 0.90857 0.91745 0.65040
 C1577 C 0.81340 0.82533 0.69542
 C1578 C 0.79829 0.80866 0.71376
 C1579 C 0.88009 0.88792 0.60148
 C1580 C 0.89433 0.90010 0.58156
 H1581 H 0.82634 0.84092 0.58249
 H1582 H 0.77175 0.79072 0.58191
 H1583 H 0.74374 0.76305 0.62253
 H1584 H 0.77057 0.78492 0.66381
 H1585 H 0.86428 0.87613 0.71461
 H1586 H 0.91800 0.92753 0.71522
 H1587 H 0.94677 0.95446 0.67458
 H1588 H 0.92211 0.93014 0.63311
 C1589 C 0.34111 0.36824 0.11870
 C1590 C 0.35187 0.38658 0.14256
 C1591 C 0.33763 0.36915 0.16606
 C1592 C 0.31240 0.33383 0.16556
 C1593 C 0.30028 0.31663 0.14162
 C1594 C 0.31486 0.33375 0.11814
 C1595 C 0.30276 0.31574 0.09452
 C1596 C 0.27648 0.28202 0.09410
 C1597 C 0.26191 0.26548 0.11703
 C1598 C 0.27375 0.28238 0.14053
 C1599 C 0.34917 0.38761 0.18966
 C1600 C 0.37385 0.42261 0.19005
 C1601 C 0.38761 0.43987 0.16709
 C1602 C 0.37694 0.42214 0.14357
 C1603 C 0.29880 0.31494 0.18949
 C1604 C 0.28610 0.29740 0.20838
 C1605 C 0.35890 0.38389 0.09505
 C1606 C 0.37652 0.39833 0.07682
 H1607 H 0.31325 0.32770 0.07619
 H1608 H 0.26731 0.26873 0.07587
 H1609 H 0.24139 0.23938 0.11665
 H1610 H 0.26174 0.26845 0.15782
 H1611 H 0.33918 0.37528 0.20802
 H1612 H 0.38232 0.43642 0.20827
 H1613 H 0.40670 0.46713 0.16748
 H1614 H 0.38840 0.43677 0.12626
   
