data_POSCAR
  _audit_creation_date              2014-09-24
  _audit_creation_method            'ToBaCCo'
  _symmetry_space_group_name_H-M    'P1'
  _symmetry_Int_Tables_number       1
  _symmetry_cell_setting            triclinic
  loop_
  _symmetry_equiv_pos_as_xyz
 x,y,z
_cell_length_a 48.6495
_cell_length_b 48.6738
_cell_length_c 48.6551
_cell_angle_alpha 90.001500
_cell_angle_beta 89.998100
_cell_angle_gamma 89.951900
loop_
  _atom_site_label
  _atom_site_type_symbol
  _atom_site_fract_x
  _atom_site_fract_y
  _atom_site_fract_z
C1 C 0.13400 -0.03866 0.25384
 C2 C 0.12328 -0.01263 0.26014
 C3 C 0.11312 -0.00750 0.28665
 C4 C 0.11352 -0.02817 0.30662
 C5 C 0.12444 -0.05406 0.30031
 C6 C 0.13480 -0.05928 0.27391
 C7 C 0.12301 0.00931 0.23919
 C8 C 0.11235 0.00425 0.21286
 C9 C 0.11200 0.02516 0.19307
 C10 C 0.12270 0.05113 0.19944
 C11 C 0.13354 0.05619 0.22562
 C12 C 0.13351 0.03541 0.24547
 H13 H 0.14228 -0.04260 0.23351
 H14 H 0.10452 0.01246 0.29159
 H15 H 0.10390 -0.01579 0.20799
 H16 H 0.14216 0.03937 0.26563
 H17 H 0.12492 -0.07000 0.31589
 H18 H 0.12264 0.06734 0.18413
 C19 C 0.36411 -0.03638 0.74353
 C20 C 0.37430 -0.00990 0.73837
 C21 C 0.38466 -0.00355 0.71221
 C22 C 0.38502 -0.02349 0.69151
 C23 C 0.37468 -0.04984 0.69672
 C24 C 0.36415 -0.05625 0.72274
 C25 C 0.37431 0.01103 0.76034
 C26 C 0.38459 0.00460 0.78652
 C27 C 0.38493 0.02452 0.80727
 C28 C 0.37465 0.05092 0.80204
 C29 C 0.36423 0.05739 0.77600
 C30 C 0.36421 0.03756 0.75518
 H31 H 0.35574 -0.04137 0.76357
 H32 H 0.39297 0.01671 0.70816
 H33 H 0.39283 -0.01573 0.79051
 H34 H 0.35591 0.04261 0.73512
 H35 H 0.37487 -0.06528 0.68065
 H36 H 0.37478 0.06639 0.81810
 C37 C 0.86436 0.46214 0.24482
 C38 C 0.87450 0.48863 0.23963
 C39 C 0.88499 0.49493 0.21352
 C40 C 0.88548 0.47496 0.19288
 C41 C 0.87518 0.44861 0.19809
 C42 C 0.86454 0.44224 0.22406
 C43 C 0.87423 0.50971 0.26143
 C44 C 0.88447 0.50361 0.28770
 C45 C 0.88474 0.52377 0.30821
 C46 C 0.87438 0.55010 0.30265
 C47 C 0.86396 0.55621 0.27650
 C48 C 0.86403 0.53612 0.25595
 H49 H 0.85587 0.45719 0.26482
 H50 H 0.89325 0.51521 0.20944
 H51 H 0.89279 0.48335 0.29192
 H52 H 0.85577 0.54091 0.23581
 H53 H 0.87544 0.43316 0.18203
 H54 H 0.87448 0.56577 0.31850
 C55 C 0.63566 0.46260 0.75542
 C56 C 0.62539 0.48876 0.76190
 C57 C 0.61547 0.49393 0.78849
 C58 C 0.61564 0.47312 0.80832
 C59 C 0.62605 0.44709 0.80178
 C60 C 0.63613 0.44188 0.77533
 C61 C 0.62494 0.51061 0.74088
 C62 C 0.61437 0.50526 0.71459
 C63 C 0.61386 0.52594 0.69465
 C64 C 0.62424 0.55209 0.70078
 C65 C 0.63495 0.55751 0.72696
 C66 C 0.63513 0.53688 0.74698
 H67 H 0.64372 0.45851 0.73504
 H68 H 0.60711 0.51396 0.79357
 H69 H 0.60611 0.48513 0.70981
 H70 H 0.64371 0.54108 0.76711
 H71 H 0.62628 0.43099 0.81718
 H72 H 0.62401 0.56809 0.68527
 C73 C 0.24336 0.13404 1.03690
 C74 C 0.23740 0.12360 1.01069
 C75 C 0.21086 0.11379 1.00501
 C76 C 0.19056 0.11421 1.02544
 C77 C 0.19664 0.12483 1.05153
 C78 C 0.22303 0.13481 1.05719
 C79 C 0.25893 0.12300 0.98932
 C80 C 0.28500 0.11215 0.99527
 C81 C 0.30557 0.11186 0.97515
 C82 C 0.30024 0.12274 0.94901
 C83 C 0.27429 0.13372 0.94301
 C84 C 0.25365 0.13365 0.96304
 H85 H 0.26369 0.14202 1.04134
 H86 H 0.20624 0.10537 0.98490
 H87 H 0.28911 0.10362 1.01546
 H88 H 0.23371 0.14247 0.95840
 H89 H 0.18095 0.12531 1.06738
 H90 H 0.31618 0.12277 0.93341
 C91 C 0.75507 0.36461 1.03683
 C92 C 0.76049 0.37504 1.01049
 C93 C 0.78652 0.38597 1.00464
 C94 C 0.80688 0.38664 1.02492
 C95 C 0.80147 0.37601 1.05114
 C96 C 0.77555 0.36488 1.05707
 C97 C 0.73905 0.37439 0.98902
 C98 C 0.71256 0.38443 0.99455
 C99 C 0.69234 0.38416 0.97404
 C100 C 0.69844 0.37341 0.94800
 C101 C 0.72480 0.36317 0.94247
 C102 C 0.74506 0.36384 0.96286
 H103 H 0.73510 0.35578 1.04134
 H104 H 0.79076 0.39438 0.98445
 H105 H 0.70792 0.39298 1.01462
 H106 H 0.76536 0.35571 0.95853
 H107 H 0.81736 0.37637 1.06677
 H108 H 0.68282 0.37304 0.93209
 C109 C 0.25621 0.86624 0.53628
 C110 C 0.26167 0.87648 0.50988
 C111 C 0.28773 0.88733 0.50399
 C112 C 0.30810 0.88809 0.52432
 C113 C 0.30257 0.87764 0.55060
 C114 C 0.27663 0.86663 0.55653
 C115 C 0.24022 0.87572 0.48841
 C116 C 0.21365 0.88553 0.49399
 C117 C 0.19339 0.88503 0.47358
 C118 C 0.19949 0.87433 0.44754
 C119 C 0.22591 0.86432 0.44192
 C120 C 0.24624 0.86519 0.46224
 H121 H 0.23626 0.85746 0.54089
 H122 H 0.29196 0.89559 0.48371
 H123 H 0.20892 0.89406 0.51403
 H124 H 0.26659 0.85721 0.45785
 H125 H 0.31834 0.87800 0.56637
 H126 H 0.18377 0.87382 0.43175
 C127 C 0.74597 0.63512 0.53875
 C128 C 0.74007 0.62499 0.51240
 C129 C 0.71360 0.61517 0.50658
 C130 C 0.69328 0.61534 0.52690
 C131 C 0.69920 0.62563 0.55312
 C132 C 0.72556 0.63560 0.55899
 C133 C 0.76147 0.62474 0.49093
 C134 C 0.78766 0.61407 0.49658
 C135 C 0.80785 0.61353 0.47607
 C136 C 0.80201 0.62402 0.44987
 C137 C 0.77592 0.63485 0.44422
 C138 C 0.75571 0.63506 0.46464
 H139 H 0.76626 0.64313 0.54331
 H140 H 0.70897 0.60693 0.48640
 H141 H 0.79210 0.60569 0.51676
 H142 H 0.73563 0.64370 0.46021
 H143 H 0.68340 0.62588 0.56884
 H144 H 0.81762 0.62376 0.43394
 C145 C -0.03845 0.25632 0.13259
 C146 C -0.01197 0.26172 0.12253
 C147 C -0.00582 0.28792 0.11217
 C148 C -0.02596 0.30848 0.11176
 C149 C -0.05232 0.30302 0.12204
 C150 C -0.05851 0.27694 0.13255
 C151 C 0.00937 0.24016 0.12317
 C152 C 0.00381 0.21378 0.11291
 C153 C 0.02419 0.19343 0.11337
 C154 C 0.05012 0.19928 0.12448
 C155 C 0.05567 0.22551 0.13492
 C156 C 0.03543 0.24591 0.13410
 H157 H -0.04325 0.23627 0.14104
 H158 H 0.01452 0.29212 0.10407
 H159 H -0.01619 0.20932 0.10411
 H160 H 0.03978 0.26611 0.14243
 H161 H -0.06793 0.31895 0.12197
 H162 H 0.06592 0.18355 0.12500
 C163 C -0.03623 0.74510 0.36646
 C164 C -0.00987 0.73899 0.37644
 C165 C -0.00425 0.71256 0.38650
 C166 C -0.02481 0.69249 0.38672
 C167 C -0.05105 0.69863 0.37657
 C168 C -0.05671 0.72495 0.36635
 C169 C 0.01182 0.76015 0.37617
 C170 C 0.00652 0.78653 0.38652
 C171 C 0.02711 0.80658 0.38629
 C172 C 0.05304 0.80046 0.37539
 C173 C 0.05837 0.77421 0.36488
 C174 C 0.03789 0.75408 0.36543
 H175 H -0.04063 0.76534 0.35824
 H176 H 0.01597 0.70776 0.39458
 H177 H -0.01346 0.79131 0.39519
 H178 H 0.04206 0.73387 0.35700
 H179 H -0.06695 0.68303 0.37657
 H180 H 0.06896 0.81604 0.37506
 C181 C 0.46307 0.24439 0.86614
 C182 C 0.48948 0.23868 0.87630
 C183 C 0.49531 0.21244 0.88677
 C184 C 0.47495 0.19215 0.88720
 C185 C 0.44869 0.19790 0.87683
 C186 C 0.44280 0.22400 0.86622
 C187 C 0.51103 0.26000 0.87582
 C188 C 0.50572 0.28634 0.88630
 C189 C 0.52635 0.30641 0.88620
 C190 C 0.55229 0.30032 0.87520
 C191 C 0.55760 0.27411 0.86452
 C192 C 0.53709 0.25399 0.86500
 H193 H 0.45850 0.26448 0.85765
 H194 H 0.51558 0.20802 0.89497
 H195 H 0.48573 0.29098 0.89504
 H196 H 0.54126 0.23380 0.85654
 H197 H 0.43290 0.18217 0.87695
 H198 H 0.56830 0.31583 0.87496
 C199 C 0.46278 0.75769 0.63582
 C200 C 0.48933 0.76303 0.62590
 C201 C 0.49552 0.78912 0.61533
 C202 C 0.47534 0.80958 0.61450
 C203 C 0.44891 0.80421 0.62458
 C204 C 0.44268 0.77826 0.63532
 C205 C 0.51053 0.74135 0.62642
 C206 C 0.50462 0.71504 0.61622
 C207 C 0.52481 0.69457 0.61633
 C208 C 0.55096 0.70016 0.62700
 C209 C 0.55691 0.72635 0.63738
 C210 C 0.53680 0.74690 0.63692
 H211 H 0.45791 0.73770 0.64436
 H212 H 0.51585 0.79331 0.60722
 H213 H 0.48451 0.71069 0.60767
 H214 H 0.54144 0.76708 0.64516
 H215 H 0.43330 0.82011 0.62405
 H216 H 0.56659 0.68427 0.62718
 C217 C 0.86586 1.03579 0.75449
 C218 C 0.87723 1.01003 0.76060
 C219 C 0.88816 1.00515 0.78682
 C220 C 0.88800 1.02591 0.80676
 C221 C 0.87634 1.05161 0.80061
 C222 C 0.86514 1.05648 0.77445
 C223 C 0.87756 0.98817 0.73961
 C224 C 0.88882 0.99321 0.71357
 C225 C 0.88923 0.97249 0.69359
 C226 C 0.87780 0.94664 0.69952
 C227 C 0.86627 0.94161 0.72552
 C228 C 0.86644 0.96227 0.74551
 H229 H 0.85710 1.03955 0.73434
 H230 H 0.89719 0.98529 0.79149
 H231 H 0.89765 1.01318 0.70907
 H232 H 0.85740 0.95840 0.76552
 H233 H 0.87592 1.06771 0.81603
 H234 H 0.87780 0.93058 0.68407
 C235 C 0.36413 0.53595 0.25498
 C236 C 0.37482 0.50991 0.26114
 C237 C 0.38571 0.50482 0.28733
 C238 C 0.38621 0.52564 0.30716
 C239 C 0.37526 0.55163 0.30100
 C240 C 0.36408 0.55673 0.27487
 C241 C 0.37478 0.48806 0.24014
 C242 C 0.38604 0.49300 0.21408
 C243 C 0.38633 0.47227 0.19417
 C244 C 0.37483 0.44650 0.20011
 C245 C 0.36330 0.44153 0.22610
 C246 C 0.36354 0.46221 0.24608
 H247 H 0.35542 0.53990 0.23485
 H248 H 0.39431 0.48481 0.29207
 H249 H 0.39503 0.51286 0.20948
 H250 H 0.35454 0.45837 0.26611
 H251 H 0.37544 0.56774 0.31639
 H252 H 0.37484 0.43046 0.18464
 C253 C 0.63530 1.03652 0.24355
 C254 C 0.62431 1.01036 0.23861
 C255 C 0.61316 1.00429 0.21273
 C256 C 0.61275 1.02422 0.19202
 C257 C 0.62402 1.05032 0.19697
 C258 C 0.63543 1.05640 0.22277
 C259 C 0.62457 0.98935 0.26044
 C260 C 0.61365 0.99529 0.28645
 C261 C 0.61366 0.97531 0.30716
 C262 C 0.62518 0.94930 0.30200
 C263 C 0.63637 0.94339 0.27604
 C264 C 0.63578 0.96331 0.25533
 H265 H 0.64423 1.04121 0.26343
 H266 H 0.60438 0.98418 0.20890
 H267 H 0.60470 1.01535 0.29033
 H268 H 0.64452 0.95875 0.23533
 H269 H 0.62391 1.06574 0.18089
 H270 H 0.62544 0.93379 0.31800
 C271 C 0.13629 0.53757 0.74336
 C272 C 0.12529 0.51141 0.73850
 C273 C 0.11424 0.50522 0.71262
 C274 C 0.11390 0.52506 0.69182
 C275 C 0.12517 0.55117 0.69669
 C276 C 0.13651 0.55736 0.72250
 C277 C 0.12535 0.49054 0.76045
 C278 C 0.11417 0.49665 0.78630
 C279 C 0.11392 0.47678 0.80709
 C280 C 0.12540 0.45074 0.80223
 C281 C 0.13686 0.44465 0.77645
 C282 C 0.13656 0.46444 0.75560
 H283 H 0.14513 0.54235 0.76326
 H284 H 0.10543 0.48511 0.70886
 H285 H 0.10519 0.51670 0.79005
 H286 H 0.14549 0.45973 0.73573
 H287 H 0.12511 0.56653 0.68055
 H288 H 0.12539 0.43537 0.81835
 C289 C 0.74512 0.86496 -0.03464
 C290 C 0.73926 0.87621 -0.00876
 C291 C 0.71309 0.88711 -0.00358
 C292 C 0.69297 0.88706 -0.02413
 C293 C 0.69883 0.87554 -0.04994
 C294 C 0.72495 0.86435 -0.05513
 C295 C 0.76049 0.87660 0.01285
 C296 C 0.78641 0.88797 0.00749
 C297 C 0.80656 0.88862 0.02803
 C298 C 0.80095 0.87733 0.05403
 C299 C 0.77507 0.86570 0.05937
 C300 C 0.75489 0.86562 0.03889
 H301 H 0.76524 0.85623 -0.03864
 H302 H 0.70857 0.89611 0.01631
 H303 H 0.79066 0.89673 -0.01257
 H304 H 0.73496 0.85653 0.04302
 H305 H 0.68322 0.87528 -0.06584
 H306 H 0.81654 0.87754 0.06996
 C307 C 0.24487 0.36306 0.46411
 C308 C 0.23944 0.37429 0.49008
 C309 C 0.21323 0.38485 0.49582
 C310 C 0.19267 0.38447 0.47570
 C311 C 0.19813 0.37298 0.44979
 C312 C 0.22428 0.36214 0.44407
 C313 C 0.26114 0.37488 0.51122
 C314 C 0.28695 0.38619 0.50521
 C315 C 0.30759 0.38679 0.52523
 C316 C 0.30262 0.37557 0.55135
 C317 C 0.27687 0.36401 0.55737
 C318 C 0.25617 0.36394 0.53741
 H319 H 0.26501 0.35457 0.45968
 H320 H 0.20902 0.39383 0.51578
 H321 H 0.29081 0.39492 0.48507
 H322 H 0.23636 0.35487 0.54205
 H323 H 0.18220 0.37249 0.43422
 H324 H 0.31863 0.37582 0.56685
 C325 C 0.25570 0.63560 -0.03810
 C326 C 0.26092 0.62401 -0.01223
 C327 C 0.28673 0.61239 -0.00679
 C328 C 0.30714 0.61209 -0.02707
 C329 C 0.30193 0.62398 -0.05286
 C330 C 0.27618 0.63588 -0.05831
 C331 C 0.23945 0.62420 0.00918
 C332 C 0.21331 0.61342 0.00366
 C333 C 0.19298 0.61332 0.02405
 C334 C 0.19866 0.62462 0.05004
 C335 C 0.22475 0.63569 0.05554
 C336 C 0.24509 0.63519 0.03521
 H337 H 0.23587 0.64489 -0.04229
 H338 H 0.29077 0.60318 0.01310
 H339 H 0.20902 0.60464 -0.01639
 H340 H 0.26519 0.64383 0.03946
 H341 H 0.31777 0.62400 -0.06853
 H342 H 0.18296 0.62482 0.06586
 C343 C 0.75718 0.13586 0.46159
 C344 C 0.76248 0.12455 0.48756
 C345 C 0.78837 0.11316 0.49311
 C346 C 0.80879 0.11281 0.47282
 C347 C 0.80347 0.12442 0.44690
 C348 C 0.77763 0.13608 0.44137
 C349 C 0.74095 0.12458 0.50890
 C350 C 0.71485 0.11377 0.50320
 C351 C 0.69448 0.11344 0.52350
 C352 C 0.70001 0.12447 0.54960
 C353 C 0.72605 0.13556 0.55532
 C354 C 0.74646 0.13534 0.53506
 H355 H 0.73727 0.14494 0.45731
 H356 H 0.79239 0.10413 0.51310
 H357 H 0.71060 0.10514 0.48310
 H358 H 0.76652 0.14399 0.53947
 H359 H 0.81926 0.12440 0.43116
 H360 H 0.68421 0.12443 0.56532
 C361 C 1.03676 0.75694 0.86525
 C362 C 1.01098 0.76213 0.87704
 C363 C 1.00548 0.78801 0.88846
 C364 C 1.02566 0.80851 0.88837
 C365 C 1.05138 0.80331 0.87628
 C366 C 1.05684 0.77749 0.86459
 C367 C 0.98974 0.74055 0.87729
 C368 C 0.99566 0.71450 0.88808
 C369 C 0.97548 0.69401 0.88848
 C370 C 0.94929 0.69943 0.87751
 C371 C 0.94339 0.72543 0.86645
 C372 C 0.96352 0.74594 0.86663
 H373 H 1.04098 0.73706 0.85612
 H374 H 0.98562 0.79195 0.89783
 H375 H 1.01587 0.71041 0.89660
 H376 H 0.95897 0.76596 0.85796
 H377 H 1.06702 0.81917 0.87593
 H378 H 0.93362 0.68358 0.87754
 C379 C 0.53604 0.25793 0.36292
 C380 C 0.51011 0.26315 0.37436
 C381 C 0.50452 0.28904 0.38570
 C382 C 0.52472 0.30949 0.38589
 C383 C 0.55060 0.30425 0.37418
 C384 C 0.55619 0.27842 0.36256
 C385 C 0.48890 0.24152 0.37450
 C386 C 0.49491 0.21541 0.38512
 C387 C 0.47480 0.19488 0.38542
 C388 C 0.44859 0.20026 0.37459
 C389 C 0.44256 0.22631 0.36372
 C390 C 0.46262 0.24689 0.36395
 H391 H 0.54037 0.23803 0.35386
 H392 H 0.48459 0.29307 0.39486
 H393 H 0.51511 0.21125 0.39358
 H394 H 0.45797 0.26695 0.35541
 H395 H 0.56624 0.32010 0.37415
 H396 H 0.43303 0.18433 0.37461
 C397 C 1.03704 0.24404 0.63554
 C398 C 1.01122 0.23849 0.62403
 C399 C 1.00595 0.21249 0.61282
 C400 C 1.02640 0.19221 0.61283
 C401 C 1.05216 0.19779 0.62464
 C402 C 1.05739 0.22373 0.63612
 C403 C 0.98972 0.25986 0.62375
 C404 C 0.99525 0.28583 0.61261
 C405 C 0.97482 0.30611 0.61209
 C406 C 0.94877 0.30055 0.62331
 C407 C 0.94326 0.27462 0.63473
 C408 C 0.96364 0.25432 0.63466
 H409 H 1.04109 0.26403 0.64451
 H410 H 0.98607 0.20826 0.60365
 H411 H 1.01535 0.29003 0.60390
 H412 H 0.95939 0.23435 0.64358
 H413 H 1.06802 0.18211 0.62491
 H414 H 0.93291 0.31623 0.62318
 C415 C 0.53799 0.74392 0.13547
 C416 C 0.51212 0.73802 0.12422
 C417 C 0.50704 0.71187 0.11327
 C418 C 0.52767 0.69182 0.11327
 C419 C 0.55348 0.69773 0.12479
 C420 C 0.55856 0.72383 0.13602
 C421 C 0.49043 0.75919 0.12392
 C422 C 0.49577 0.78523 0.11282
 C423 C 0.47521 0.80534 0.11236
 C424 C 0.44922 0.79961 0.12352
 C425 C 0.44386 0.77363 0.13488
 C426 C 0.46437 0.75346 0.13480
 H427 H 0.54192 0.76402 0.14425
 H428 H 0.48716 0.70731 0.10429
 H429 H 0.51581 0.78967 0.10412
 H430 H 0.46024 0.73345 0.14371
 H431 H 0.56944 0.68218 0.12502
 H432 H 0.43332 0.81523 0.12340
 O433 O -0.07850 0.97806 0.99264
 O434 O -0.08323 1.02053 1.01183
 O435 O -0.02362 0.99431 0.92336
 O436 O 0.01894 1.00866 0.91684
 O437 O -0.00840 0.92381 0.97801
 O438 O 0.00993 0.91993 1.02295
 O439 O 0.05015 1.06339 0.99710
 O440 O 0.02464 1.06854 0.95686
 O441 O -0.00442 1.05357 1.06180
 O442 O -0.04519 1.02408 1.07003
 O443 O 0.05997 0.99857 1.05300
 O444 O 0.06849 0.95798 1.02344
 O445 O 0.07424 1.02570 1.01109
 O446 O 0.08006 0.97923 0.98989
 O447 O 0.02204 1.01181 1.07695
 O448 O -0.02447 0.99012 1.08152
 O449 O 0.00971 1.07733 1.02407
 O450 O -0.01737 1.07999 0.98070
 O451 O -0.05412 0.94062 1.00685
 O452 O -0.02430 0.93225 1.04459
 O453 O 0.00466 0.94788 0.94011
 O454 O 0.04445 0.97845 0.93420
 O455 O -0.06197 1.00613 0.94746
 O456 O -0.06671 1.04689 0.97730
 Zr457 Zr -0.04839 1.00886 0.98847
 O458 O -0.02497 1.03496 1.01392
 Zr459 Zr 0.00690 0.98888 0.95358
 O460 O 0.03251 1.01458 0.97718
 Zr461 Zr -0.01299 0.95399 1.00872
 O462 O 0.01209 0.97781 1.03484
 Zr463 Zr 0.01003 1.04809 0.99238
 O464 O -0.01478 1.02426 0.96583
 Zr465 Zr -0.00957 1.01296 1.04761
 O466 O -0.03559 0.98755 1.02391
 Zr467 Zr 0.04562 0.99334 1.01246
 O468 O 0.02235 0.96656 0.98727
 O469 O -0.02766 0.97422 0.97401
 O470 O 0.02482 1.02771 1.02701
 C471 C -0.07667 0.95309 1.00106
 C472 C -0.04899 1.00145 0.92498
 C473 C -0.00059 0.92543 0.95285
 C474 C 0.07227 1.05127 1.00493
 C475 C 0.00355 1.07556 1.04962
 C476 C 0.04767 1.00604 1.07510
 H477 H -0.03630 1.05080 1.01976
 H478 H 0.01811 0.96649 1.05059
 H479 H -0.03935 0.96241 0.96225
 H480 H 0.04811 1.02094 0.96582
 H481 H 0.01102 1.06508 0.94214
 H482 H 0.02728 1.02636 0.92223
 H483 H -0.01165 0.97467 1.08475
 H484 H -0.03678 0.94444 1.05505
 H485 H -0.00739 1.09769 0.98222
 H486 H -0.08474 1.04332 0.96844
 H487 H 0.05929 0.94934 1.03937
 H488 H 0.02825 0.92125 1.01421
 H489 H -0.08051 1.01305 1.03054
 H490 H -0.05356 1.04020 1.06091
 H491 H 0.05289 0.96358 0.94523
 H492 H 0.08272 0.99175 0.97410
 O493 O 0.49546 0.55389 0.56326
 O494 O 0.45580 0.52653 0.56898
 O495 O 0.56111 0.49724 0.55360
 O496 O 0.57073 0.46075 0.52670
 O497 O 0.55195 0.56389 0.49707
 O498 O 0.52280 0.57132 0.45777
 O499 O 0.49133 0.42499 0.47789
 O500 O 0.51260 0.42041 0.51916
 O501 O 0.42329 0.47823 0.49214
 O502 O 0.41790 0.52392 0.51141
 O503 O 0.47645 0.49375 0.42428
 O504 O 0.52182 0.51239 0.41905
 O505 O 0.50445 0.44966 0.44029
 O506 O 0.54394 0.48080 0.43181
 O507 O 0.43866 0.50687 0.44850
 O508 O 0.43019 0.54591 0.47947
 O509 O 0.44787 0.44036 0.50442
 O510 O 0.47561 0.43734 0.54669
 O511 O 0.50811 0.57840 0.52533
 O512 O 0.48765 0.58330 0.48019
 O513 O 0.57627 0.52610 0.51021
 O514 O 0.57992 0.48095 0.48756
 O515 O 0.52333 0.51093 0.57768
 O516 O 0.47865 0.48677 0.58011
 Zr517 Zr 0.49180 0.51347 0.54822
 O518 O 0.46593 0.48855 0.52422
 Zr519 Zr 0.54705 0.49443 0.51271
 O520 O 0.52334 0.46846 0.48766
 Zr521 Zr 0.51131 0.54932 0.49343
 O522 O 0.48634 0.52569 0.46724
 Zr523 Zr 0.48828 0.45501 0.50883
 O524 O 0.51381 0.47836 0.53531
 Zr525 Zr 0.45267 0.50996 0.48927
 O526 O 0.47610 0.53624 0.51487
 Zr527 Zr 0.50782 0.49064 0.45401
 O528 O 0.53420 0.51622 0.47753
 O529 O 0.52596 0.52834 0.52745
 O530 O 0.47313 0.47540 0.47412
 C531 C 0.50205 0.57631 0.55095
 C532 C 0.54880 0.50432 0.57587
 C533 C 0.57429 0.55161 0.50395
 C534 C 0.49859 0.42705 0.45258
 C535 C 0.42531 0.45278 0.49882
 C536 C 0.45113 0.50099 0.42605
 H537 H 0.45041 0.48237 0.53580
 H538 H 0.48051 0.53738 0.45169
 H539 H 0.53766 0.54001 0.53927
 H540 H 0.53486 0.45278 0.48183
 H541 H 0.52323 0.42551 0.53575
 H542 H 0.56253 0.44394 0.51879
 H543 H 0.43999 0.55543 0.46443
 H544 H 0.47039 0.58291 0.49096
 H545 H 0.46904 0.41840 0.54303
 H546 H 0.48157 0.49606 0.59803
 H547 H 0.51256 0.53049 0.41902
 H548 H 0.53680 0.56002 0.44826
 H549 H 0.44662 0.54015 0.55696
 H550 H 0.41723 0.51367 0.52895
 H551 H 0.58050 0.49334 0.47143
 H552 H 0.55296 0.46517 0.44118
 O553 O 0.44755 -0.06000 0.49519
 O554 O 0.47466 -0.06638 0.45548
 O555 O 0.50486 -0.05032 0.56041
 O556 O 0.54121 -0.02351 0.57001
 O557 O 0.43835 0.00669 0.55102
 O558 O 0.43130 0.04587 0.52157
 O559 O 0.57750 0.02369 0.48979
 O560 O 0.58165 -0.01740 0.51135
 O561 O 0.52387 0.00945 0.42202
 O562 O 0.47780 -0.00929 0.41708
 O563 O 0.50918 0.07805 0.47467
 O564 O 0.49128 0.08441 0.51934
 O565 O 0.55330 0.06168 0.50273
 O566 O 0.52172 0.07049 0.54257
 O567 O 0.49568 0.05366 0.43715
 O568 O 0.45644 0.02322 0.42894
 O569 O 0.56168 -0.00308 0.44657
 O570 O 0.56423 -0.04508 0.47477
 O571 O 0.42344 -0.02168 0.50749
 O572 O 0.41905 0.02333 0.48661
 O573 O 0.47607 -0.00666 0.57534
 O574 O 0.52155 0.01582 0.57852
 O575 O 0.49069 -0.07461 0.52297
 O576 O 0.51440 -0.07777 0.47814
 Zr577 Zr 0.48815 -0.04545 0.49119
 O578 O 0.51328 -0.02203 0.46500
 Zr579 Zr 0.50771 -0.00961 0.54604
 O580 O 0.53397 0.01481 0.52198
 Zr581 Zr 0.45290 0.00988 0.51031
 O582 O 0.47682 0.03552 0.48505
 Zr583 Zr 0.54708 -0.00685 0.48708
 O584 O 0.52346 -0.03272 0.51297
 Zr585 Zr 0.49224 0.01305 0.45150
 O586 O 0.46569 -0.01200 0.47526
 Zr587 Zr 0.51211 0.04856 0.50625
 O588 O 0.48624 0.02567 0.53292
 O589 O 0.47359 -0.02422 0.52522
 O590 O 0.52706 0.02797 0.47168
 C591 C 0.42525 -0.04738 0.50169
 C592 C 0.49757 -0.07263 0.54834
 C593 C 0.45058 -0.00018 0.57338
 C594 C 0.57577 0.04905 0.49692
 C595 C 0.54926 0.00243 0.42399
 C596 C 0.50179 0.07615 0.44942
 H597 H 0.51928 -0.03382 0.44958
 H598 H 0.46529 0.05117 0.47914
 H599 H 0.46186 -0.03585 0.53706
 H600 H 0.54974 0.02053 0.53342
 H601 H 0.57636 -0.03378 0.52219
 H602 H 0.55815 -0.01639 0.56136
 H603 H 0.44692 0.03821 0.43884
 H604 H 0.41923 0.01235 0.46948
 H605 H 0.58319 -0.04176 0.46805
 H606 H 0.50494 -0.09555 0.48129
 H607 H 0.47254 0.08374 0.51150
 H608 H 0.44262 0.05526 0.53562
 H609 H 0.46116 -0.05428 0.44623
 H610 H 0.48795 -0.02689 0.41645
 H611 H 0.50902 0.03184 0.57926
 H612 H 0.53793 0.06164 0.55109
 O613 O -0.06182 0.50536 1.05243
 O614 O -0.06771 0.54524 1.02553
 O615 O -0.05276 0.44032 0.99493
 O616 O -0.02613 0.43119 0.95805
 O617 O 0.00419 0.44837 1.06129
 O618 O 0.04369 0.47726 1.06879
 O619 O 0.02271 0.51087 0.92305
 O620 O -0.01857 0.48975 0.91841
 O621 O 0.00885 0.57817 0.97721
 O622 O -0.01008 0.58291 1.02323
 O623 O 0.07680 0.52461 0.99169
 O624 O 0.08180 0.47876 1.00989
 O625 O 0.06043 0.49729 0.94734
 O626 O 0.06921 0.45755 0.97766
 O627 O 0.05275 0.56230 1.00536
 O628 O 0.02212 0.57039 1.04467
 O629 O -0.00377 0.55415 0.93911
 O630 O -0.04603 0.52649 0.93601
 O631 O -0.02376 0.49225 1.07655
 O632 O 0.02146 0.51224 1.08145
 O633 O -0.00925 0.42461 1.02327
 O634 O 0.01313 0.42152 0.97796
 O635 O -0.07665 0.47797 1.00928
 O636 O -0.07910 0.52291 0.98557
 Zr637 Zr -0.04708 0.50937 1.01193
 O638 O -0.02318 0.53550 0.98721
 Zr639 Zr -0.01185 0.45429 0.99199
 O640 O 0.01311 0.47828 0.96618
 Zr641 Zr 0.00791 0.48919 1.04721
 O642 O 0.03399 0.51444 1.02375
 Zr643 Zr -0.00805 0.51357 0.95328
 O644 O -0.03445 0.48780 0.97647
 Zr645 Zr 0.01195 0.54837 1.00856
 O646 O -0.01353 0.52463 1.03470
 Zr647 Zr 0.04695 0.49339 0.98834
 O648 O 0.02352 0.46672 1.01370
 O649 O -0.02631 0.47495 1.02627
 O650 O 0.02684 0.52834 0.97364
 C651 C -0.04936 0.49850 1.07470
 C652 C -0.07495 0.45260 1.00234
 C653 C -0.00283 0.42622 1.04878
 C654 C 0.04802 0.50349 0.92487
 C655 C 0.00192 0.57653 0.95179
 C656 C 0.07515 0.54984 0.99922
 H657 H -0.03477 0.55112 0.98130
 H658 H 0.04962 0.52006 1.03542
 H659 H -0.03809 0.46318 1.03791
 H660 H 0.01883 0.46696 0.95031
 H661 H -0.03513 0.47907 0.92346
 H662 H -0.01816 0.43950 0.94131
 H663 H 0.03713 0.56037 1.05403
 H664 H 0.01090 0.52964 1.08127
 H665 H -0.04250 0.53330 0.91712
 H666 H -0.09698 0.51993 0.99492
 H667 H 0.08225 0.48815 1.02791
 H668 H 0.05306 0.46335 1.05725
 H669 H -0.05556 0.55427 1.03912
 H670 H -0.02759 0.58391 1.01295
 H671 H 0.02937 0.42078 0.99020
 H672 H 0.05943 0.44852 0.96230
 O673 O 0.00318 0.55062 0.43765
 O674 O 0.04269 0.52319 0.43140
 O675 O -0.06248 0.49389 0.44734
 O676 O -0.07193 0.45729 0.47410
 O677 O -0.05298 0.56021 0.50418
 O678 O -0.02366 0.56732 0.54338
 O679 O 0.00778 0.42109 0.52204
 O680 O -0.01362 0.41683 0.48085
 O681 O 0.07575 0.47440 0.50787
 O682 O 0.08107 0.52008 0.48877
 O683 O 0.02305 0.48964 0.57607
 O684 O -0.02227 0.50808 0.58175
 O685 O -0.00505 0.44552 0.55991
 O686 O -0.04449 0.47666 0.56887
 O687 O 0.06063 0.50292 0.55165
 O688 O 0.06882 0.54209 0.52072
 O689 O 0.05117 0.43662 0.49544
 O690 O 0.02318 0.43393 0.45326
 O691 O -0.00923 0.57486 0.47585
 O692 O 0.01135 0.57941 0.52093
 O693 O -0.07739 0.52255 0.49096
 O694 O -0.08083 0.47724 0.51341
 O695 O -0.02489 0.50776 0.42309
 O696 O 0.01978 0.48355 0.42019
 Zr697 Zr 0.00685 0.51006 0.45235
 O698 O 0.03292 0.48497 0.47600
 Zr699 Zr -0.04815 0.49085 0.48810
 O700 O -0.02423 0.46468 0.51280
 Zr701 Zr -0.01233 0.54556 0.50752
 O702 O 0.01284 0.52174 0.53336
 Zr703 Zr 0.01071 0.45134 0.49132
 O704 O -0.01504 0.47489 0.46519
 Zr705 Zr 0.04637 0.50614 0.51100
 O706 O 0.02274 0.53260 0.48574
 Zr707 Zr -0.00851 0.48660 0.54652
 O708 O -0.03508 0.51237 0.52335
 O709 O -0.02719 0.52484 0.47344
 O710 O 0.02607 0.47148 0.52608
 C711 C -0.00326 0.57297 0.45020
 C712 C -0.05033 0.50112 0.42503
 C713 C -0.07537 0.54804 0.49736
 C714 C 0.00067 0.42298 0.54740
 C715 C 0.07375 0.44899 0.50107
 C716 C 0.04832 0.49699 0.57417
 H717 H 0.04837 0.47884 0.46430
 H718 H 0.01874 0.53335 0.54894
 H719 H -0.03894 0.53662 0.46176
 H720 H -0.03571 0.44898 0.51859
 H721 H -0.02437 0.42208 0.46438
 H722 H -0.06358 0.44042 0.48173
 H723 H 0.05921 0.55145 0.53600
 H724 H 0.02855 0.57913 0.51006
 H725 H 0.02984 0.41498 0.45675
 H726 H 0.01671 0.49295 0.40235
 H727 H -0.01323 0.52626 0.58172
 H728 H -0.03764 0.55599 0.55287
 H729 H 0.05204 0.53661 0.44349
 H730 H 0.08160 0.50997 0.47115
 H731 H -0.08135 0.48957 0.52958
 H732 H -0.05357 0.46112 0.55943
 O733 O 0.44549 1.06067 0.00353
 O734 O 0.47253 1.06662 0.04332
 O735 O 0.50300 1.05209 -0.06174
 O736 O 0.53957 1.02550 -0.07151
 O737 O 0.43677 0.99462 -0.05331
 O738 O 0.42978 0.95512 -0.02436
 O739 O 0.57568 0.97712 0.00813
 O740 O 0.57978 1.01850 -0.01300
 O741 O 0.52189 0.99040 0.07586
 O742 O 0.47575 1.00910 0.08094
 O743 O 0.50755 0.92254 0.02237
 O744 O 0.48930 0.91719 -0.02308
 O745 O 0.55161 0.93924 -0.00528
 O746 O 0.52077 0.93052 -0.04503
 O747 O 0.49393 0.94646 0.06016
 O748 O 0.45449 0.97673 0.06861
 O749 O 0.55972 1.00328 0.05154
 O750 O 0.56224 1.04567 0.02396
 O751 O 0.42159 1.02246 -0.00937
 O752 O 0.41726 0.97721 0.01075
 O753 O 0.47449 1.00843 -0.07734
 O754 O 0.51999 0.98627 -0.08076
 O755 O 0.48865 1.07581 -0.02399
 O756 O 0.51227 1.07838 0.02090
 Zr757 Zr 0.48615 1.04619 0.00736
 O758 O 0.51130 1.02247 0.03329
 Zr759 Zr 0.50600 1.01116 -0.04792
 O760 O 0.53223 0.98640 -0.02413
 Zr761 Zr 0.45119 0.99103 -0.01260
 O762 O 0.47507 0.96511 0.01244
 Zr763 Zr 0.54520 1.00762 0.01108
 O764 O 0.52157 1.03383 -0.01449
 Zr765 Zr 0.49033 0.98720 0.04628
 O766 O 0.46378 1.01249 0.02277
 Zr767 Zr 0.51045 0.95241 -0.00887
 O768 O 0.48465 0.97566 -0.03533
 O769 O 0.47175 1.02540 -0.02701
 O770 O 0.52523 0.97260 0.02599
 C771 C 0.42326 1.04805 -0.00315
 C772 C 0.49563 1.07422 -0.04936
 C773 C 0.44905 1.00176 -0.07556
 C774 C 0.57402 0.95181 0.00078
 C775 C 0.54727 0.99743 0.07401
 C776 C 0.50016 0.92413 0.04765
 H777 H 0.51724 1.03407 0.04888
 H778 H 0.46357 0.94939 0.01814
 H779 H 0.45999 1.03714 -0.03872
 H780 H 0.54807 0.98083 -0.03558
 H781 H 0.57449 1.03506 -0.02359
 H782 H 0.55648 1.01806 -0.06304
 H783 H 0.44511 0.96175 0.05858
 H784 H 0.41743 0.98783 0.02811
 H785 H 0.58120 1.04227 0.03064
 H786 H 0.50275 1.09619 0.01798
 H787 H 0.47109 0.91695 -0.01404
 H788 H 0.44127 0.94584 -0.03836
 H789 H 0.45910 1.05435 0.05242
 H790 H 0.48595 1.02665 0.08190
 H791 H 0.50776 0.97004 -0.08152
 H792 H 0.53636 0.94010 -0.05388
 O793 O 0.47701 0.50566 0.07784
 O794 O 0.51923 0.48584 0.08270
 O795 O 0.49416 0.57490 0.02351
 O796 O 0.50862 0.58161 -0.01898
 O797 O 0.42323 0.52085 0.00749
 O798 O 0.41921 0.47603 -0.01097
 O799 O 0.56318 0.50116 -0.05025
 O800 O 0.56843 0.54119 -0.02445
 O801 O 0.55257 0.43617 0.00364
 O802 O 0.52277 0.42796 0.04434
 O803 O 0.49820 0.44588 -0.06089
 O804 O 0.45769 0.47563 -0.06940
 O805 O 0.52554 0.48761 -0.07466
 O806 O 0.47917 0.50920 -0.08059
 O807 O 0.51097 0.42157 -0.02304
 O808 O 0.48885 0.41681 0.02329
 O809 O 0.57666 0.47382 -0.01010
 O810 O 0.57945 0.51695 0.01744
 O811 O 0.43960 0.49184 0.05322
 O812 O 0.43125 0.45417 0.02323
 O813 O 0.44764 0.55867 -0.00511
 O814 O 0.47858 0.56458 -0.04472
 O815 O 0.50567 0.55049 0.06173
 O816 O 0.54606 0.52023 0.06659
 Zr817 Zr 0.50805 0.50955 0.04795
 O818 O 0.53416 0.48406 0.02454
 Zr819 Zr 0.48861 0.54493 -0.00721
 O820 O 0.51435 0.52132 -0.03281
 Zr821 Zr 0.45324 0.48994 0.01216
 O822 O 0.47706 0.46382 -0.01297
 Zr823 Zr 0.54764 0.50574 -0.01023
 O824 O 0.52379 0.53229 0.01458
 Zr825 Zr 0.51201 0.45065 0.00879
 O826 O 0.48658 0.47437 0.03483
 Zr827 Zr 0.49295 0.48629 -0.04626
 O828 O 0.46616 0.51151 -0.02298
 O829 O 0.47362 0.52441 0.02713
 O830 O 0.52709 0.47139 -0.02535
 C831 C 0.45196 0.49753 0.07585
 C832 C 0.50123 0.57307 0.04888
 C833 C 0.42506 0.54604 -0.00013
 C834 C 0.55116 0.49354 -0.07247
 C835 C 0.57468 0.44824 -0.00422
 C836 C 0.50552 0.42365 -0.04872
 H837 H 0.54990 0.47802 0.03590
 H838 H 0.46569 0.44819 -0.01917
 H839 H 0.46183 0.53621 0.03881
 H840 H 0.52089 0.53273 -0.04830
 H841 H 0.56499 0.55584 -0.01074
 H842 H 0.52647 0.57617 -0.02700
 H843 H 0.47345 0.41379 0.01036
 H844 H 0.44332 0.44362 0.03576
 H845 H 0.59720 0.51533 0.00755
 H846 H 0.54244 0.52895 0.08468
 H847 H 0.44897 0.45962 -0.06041
 H848 H 0.42077 0.48472 -0.02930
 H849 H 0.51157 0.46724 0.07981
 H850 H 0.53897 0.43687 0.05279
 H851 H 0.46363 0.55376 -0.05327
 H852 H 0.49187 0.52486 -0.08315
 O853 O -0.07657 0.02284 0.50850
 O854 O -0.08138 -0.01951 0.48909
 O855 O -0.02174 0.00586 0.57774
 O856 O 0.02090 -0.00827 0.58425
 O857 O -0.00646 0.07676 0.52335
 O858 O 0.01202 0.08076 0.47850
 O859 O 0.05191 -0.06296 0.50362
 O860 O 0.02643 -0.06813 0.54398
 O861 O -0.00257 -0.05263 0.43908
 O862 O -0.04333 -0.02295 0.43097
 O863 O 0.06196 0.00174 0.44817
 O864 O 0.07043 0.04251 0.47773
 O865 O 0.07612 -0.02528 0.48991
 O866 O 0.08198 0.02111 0.51132
 O867 O 0.02399 -0.01122 0.42417
 O868 O -0.02241 0.01097 0.41958
 O869 O 0.01154 -0.07658 0.47671
 O870 O -0.01560 -0.07937 0.52008
 O871 O -0.05211 0.06021 0.49436
 O872 O -0.02219 0.06863 0.45671
 O873 O 0.00646 0.05251 0.56120
 O874 O 0.04634 0.02184 0.56695
 O875 O -0.06011 -0.00561 0.55355
 O876 O -0.06495 -0.04612 0.52347
 Zr877 Zr -0.04652 -0.00810 0.51254
 O878 O -0.02313 -0.03419 0.48702
 Zr879 Zr 0.00877 0.01156 0.54755
 O880 O 0.03438 -0.01414 0.52388
 Zr881 Zr -0.01100 0.04671 0.49252
 O882 O 0.01407 0.02292 0.46632
 Zr883 Zr 0.01184 -0.04751 0.50854
 O884 O -0.01295 -0.02370 0.53514
 Zr885 Zr -0.00768 -0.01209 0.45343
 O886 O -0.03367 0.01331 0.47720
 Zr887 Zr 0.04755 0.00718 0.48867
 O888 O 0.02429 0.03394 0.51396
 O889 O -0.02575 0.02641 0.52715
 O890 O 0.02665 -0.02702 0.47402
 C891 C -0.07469 0.04782 0.50012
 C892 C -0.04712 -0.00122 0.57607
 C893 C 0.00124 0.07502 0.54852
 C894 C 0.07406 -0.05090 0.49582
 C895 C 0.00545 -0.07466 0.45117
 C896 C 0.04967 -0.00577 0.42606
 H897 H -0.03448 -0.04997 0.48110
 H898 H 0.02014 0.03424 0.45060
 H899 H -0.03745 0.03817 0.53896
 H900 H 0.04996 -0.02061 0.53521
 H901 H 0.01280 -0.06471 0.55871
 H902 H 0.02899 -0.02609 0.57883
 H903 H -0.00939 0.02623 0.41629
 H904 H -0.03463 0.05650 0.44616
 H905 H -0.00565 -0.09709 0.51847
 H906 H -0.08299 -0.04254 0.53233
 H907 H 0.06140 0.05103 0.46163
 H908 H 0.03037 0.07924 0.48716
 H909 H -0.07863 -0.01194 0.47042
 H910 H -0.05169 -0.03913 0.43998
 H911 H 0.05474 0.03679 0.55602
 H912 H 0.08462 0.00853 0.52706
 O913 O 0.72568 0.17290 0.25589
 O914 O 0.76778 0.16803 0.23581
 O915 O 0.74327 0.22692 0.32524
 O916 O 0.75789 0.26932 0.33201
 O917 O 0.67207 0.24341 0.27155
 O918 O 0.66777 0.26183 0.22681
 O919 O 0.81194 0.30083 0.25143
 O920 O 0.81745 0.27482 0.29129
 O921 O 0.80086 0.24712 0.18621
 O922 O 0.77096 0.20656 0.17802
 O923 O 0.74682 0.31177 0.19644
 O924 O 0.70633 0.32020 0.22637
 O925 O 0.77424 0.32535 0.23818
 O926 O 0.72798 0.33126 0.25991
 O927 O 0.75932 0.27397 0.17192
 O928 O 0.73699 0.22774 0.16713
 O929 O 0.82519 0.26078 0.22375
 O930 O 0.82827 0.23306 0.26677
 O931 O 0.68820 0.19762 0.24235
 O932 O 0.67970 0.22774 0.20477
 O933 O 0.69672 0.25579 0.30932
 O934 O 0.72778 0.29520 0.31527
 O935 O 0.75463 0.18879 0.30062
 O936 O 0.79484 0.18398 0.27013
 Zr937 Zr 0.75677 0.20271 0.25971
 O938 O 0.78274 0.22615 0.23414
 Zr939 Zr 0.73762 0.25776 0.29539
 O940 O 0.76323 0.28339 0.27172
 Zr941 Zr 0.70189 0.23865 0.24049
 O942 O 0.72557 0.26383 0.21432
 Zr943 Zr 0.79640 0.26081 0.25588
 O944 O 0.77270 0.23596 0.28249
 Zr945 Zr 0.76040 0.24204 0.20090
 O946 O 0.73510 0.21598 0.22467
 Zr947 Zr 0.74165 0.29700 0.23683
 O948 O 0.71499 0.27368 0.26212
 O949 O 0.72245 0.22353 0.27482
 O950 O 0.77566 0.27607 0.22168
 C951 C 0.70058 0.17496 0.24790
 C952 C 0.75033 0.20156 0.32328
 C953 C 0.67406 0.25098 0.29676
 C954 C 0.79989 0.32310 0.24400
 C955 C 0.82304 0.25495 0.19816
 C956 C 0.75402 0.29966 0.17413
 H957 H 0.79843 0.21478 0.22797
 H958 H 0.71413 0.27011 0.19876
 H959 H 0.71070 0.21186 0.28666
 H960 H 0.76985 0.29881 0.28316
 H961 H 0.81409 0.26105 0.30589
 H962 H 0.77572 0.27734 0.32650
 H963 H 0.72165 0.24077 0.16419
 H964 H 0.69169 0.21519 0.19414
 H965 H 0.84603 0.24292 0.26507
 H966 H 0.79125 0.16587 0.27880
 H967 H 0.69765 0.31140 0.21024
 H968 H 0.66950 0.28020 0.23537
 H969 H 0.75998 0.17098 0.21727
 H970 H 0.78718 0.19803 0.18683
 H971 H 0.71281 0.30386 0.30453
 H972 H 0.74073 0.33371 0.27556
 O973 O 0.75401 0.68771 0.70024
 O974 O 0.79347 0.68143 0.72770
 O975 O 0.68835 0.69809 0.75691
 O976 O 0.67910 0.72511 0.79344
 O977 O 0.69808 0.75444 0.69025
 O978 O 0.72761 0.79345 0.68287
 O979 O 0.75897 0.77290 0.82922
 O980 O 0.73732 0.73193 0.83379
 O981 O 0.82688 0.75787 0.77597
 O982 O 0.83195 0.73844 0.73019
 O983 O 0.77453 0.82636 0.76028
 O984 O 0.72906 0.83202 0.74168
 O985 O 0.74632 0.81067 0.80454
 O986 O 0.70708 0.81979 0.77352
 O987 O 0.81201 0.80164 0.74719
 O988 O 0.82017 0.77060 0.70831
 O989 O 0.80221 0.74585 0.81385
 O990 O 0.77395 0.70396 0.81684
 O991 O 0.74176 0.72578 0.67574
 O992 O 0.76247 0.77069 0.67083
 O993 O 0.67363 0.74161 0.72804
 O994 O 0.67028 0.76434 0.77317
 O995 O 0.72585 0.67358 0.74319
 O996 O 0.77047 0.67061 0.76742
 Zr997 Zr 0.75771 0.70265 0.74071
 O998 O 0.78388 0.72630 0.76563
 Zr999 Zr 0.70287 0.73879 0.75972
 O1000 O 0.72691 0.76355 0.78569
 Zr1001 Zr 0.73877 0.75766 0.70484
 O1002 O 0.76410 0.78350 0.72847
 Zr1003 Zr 0.76173 0.74197 0.79918
 O1004 O 0.73587 0.71582 0.77581
 Zr1005 Zr 0.79752 0.76107 0.74421
 O1006 O 0.77375 0.73580 0.71792
 Zr1007 Zr 0.74281 0.79702 0.76353
 O1008 O 0.71611 0.77382 0.73797
 O1009 O 0.72377 0.72381 0.72580
 O1010 O 0.77729 0.77649 0.77880
 C1011 C 0.74763 0.70013 0.67781
 C1012 C 0.70041 0.67569 0.74981
 C1013 C 0.67566 0.74783 0.70251
 C1014 C 0.75198 0.79828 0.82717
 C1015 C 0.82482 0.75120 0.80143
 C1016 C 0.79981 0.82427 0.75298
 H1017 H 0.79927 0.71454 0.77182
 H1018 H 0.77009 0.79895 0.71675
 H1019 H 0.71196 0.71213 0.71409
 H1020 H 0.71545 0.76952 0.80137
 H1021 H 0.72648 0.71550 0.82867
 H1022 H 0.68736 0.73299 0.81024
 H1023 H 0.81046 0.78564 0.69868
 H1024 H 0.77967 0.75982 0.67123
 H1025 H 0.78059 0.70752 0.83578
 H1026 H 0.76734 0.65273 0.75814
 H1027 H 0.73842 0.83202 0.72364
 H1028 H 0.71367 0.80307 0.69416
 H1029 H 0.80286 0.69337 0.71417
 H1030 H 0.83260 0.72103 0.74066
 H1031 H 0.66991 0.78048 0.76079
 H1032 H 0.69777 0.81031 0.78889
 O1033 O 0.22713 0.32785 0.74342
 O1034 O 0.26934 0.33231 0.76347
 O1035 O 0.24420 0.27375 0.67401
 O1036 O 0.25875 0.23130 0.66718
 O1037 O 0.17308 0.25795 0.72763
 O1038 O 0.16863 0.23934 0.77234
 O1039 O 0.31257 0.19921 0.74795
 O1040 O 0.31821 0.22501 0.70796
 O1041 O 0.30184 0.25314 0.81295
 O1042 O 0.27212 0.29370 0.82128
 O1043 O 0.24706 0.18877 0.80267
 O1044 O 0.20679 0.18064 0.77261
 O1045 O 0.27468 0.17499 0.76108
 O1046 O 0.22844 0.16949 0.73911
 O1047 O 0.26003 0.22638 0.82722
 O1048 O 0.23806 0.27280 0.83211
 O1049 O 0.32612 0.23939 0.77538
 O1050 O 0.32927 0.26683 0.73227
 O1051 O 0.18950 0.30342 0.75695
 O1052 O 0.18078 0.27330 0.79447
 O1053 O 0.19764 0.24527 0.68989
 O1054 O 0.22842 0.20557 0.68391
 O1055 O 0.25582 0.31177 0.69865
 O1056 O 0.29618 0.31619 0.72903
 Zr1057 Zr 0.25802 0.29778 0.73954
 O1058 O 0.28382 0.27409 0.76507
 Zr1059 Zr 0.23851 0.24291 0.70382
 O1060 O 0.26397 0.21705 0.72744
 Zr1061 Zr 0.20290 0.26228 0.75873
 O1062 O 0.22641 0.23687 0.78485
 Zr1063 Zr 0.29727 0.23933 0.74332
 O1064 O 0.27374 0.26442 0.71673
 Zr1065 Zr 0.26138 0.25836 0.79831
 O1066 O 0.23626 0.28467 0.77457
 Zr1067 Zr 0.24226 0.20361 0.76229
 O1068 O 0.21576 0.22717 0.73705
 O1069 O 0.22357 0.27724 0.72443
 O1070 O 0.27643 0.22422 0.77751
 C1071 C 0.20202 0.32598 0.75142
 C1072 C 0.25134 0.29907 0.67600
 C1073 C 0.17502 0.25039 0.70243
 C1074 C 0.30036 0.17703 0.75538
 C1075 C 0.32402 0.24531 0.80096
 C1076 C 0.25435 0.20078 0.82498
 H1077 H 0.29957 0.28535 0.77123
 H1078 H 0.21490 0.23067 0.80039
 H1079 H 0.21189 0.28903 0.71262
 H1080 H 0.27050 0.20157 0.71601
 H1081 H 0.31493 0.23875 0.69330
 H1082 H 0.27643 0.22294 0.67268
 H1083 H 0.22261 0.25991 0.83501
 H1084 H 0.19283 0.28574 0.80512
 H1085 H 0.34698 0.25685 0.73394
 H1086 H 0.29270 0.33434 0.72039
 H1087 H 0.19797 0.18964 0.78856
 H1088 H 0.17012 0.22105 0.76356
 H1089 H 0.26140 0.32950 0.78197
 H1090 H 0.28824 0.30227 0.81236
 H1091 H 0.21338 0.19704 0.69463
 H1092 H 0.24128 0.16687 0.72357
 O1093 O 0.19865 0.74566 0.31090
 O1094 O 0.22605 0.70619 0.31690
 O1095 O 0.25537 0.81129 0.30104
 O1096 O 0.29179 0.82081 0.27400
 O1097 O 0.18861 0.80202 0.24457
 O1098 O 0.18122 0.77280 0.20535
 O1099 O 0.32758 0.74090 0.22567
 O1100 O 0.33222 0.76244 0.26671
 O1101 O 0.27428 0.67320 0.24022
 O1102 O 0.22853 0.66802 0.25941
 O1103 O 0.25869 0.72611 0.17202
 O1104 O 0.24024 0.77149 0.16664
 O1105 O 0.30296 0.75397 0.18799
 O1106 O 0.27190 0.79353 0.17932
 O1107 O 0.24562 0.68846 0.19642
 O1108 O 0.20660 0.68019 0.22742
 O1109 O 0.31215 0.69770 0.25257
 O1110 O 0.31517 0.72581 0.29458
 O1111 O 0.17412 0.75817 0.27292
 O1112 O 0.16923 0.73778 0.22781
 O1113 O 0.22639 0.82636 0.25761
 O1114 O 0.27159 0.82976 0.23484
 O1115 O 0.24162 0.77366 0.32526
 O1116 O 0.26583 0.72900 0.32785
 Zr1117 Zr 0.23909 0.74203 0.29592
 O1118 O 0.26397 0.71599 0.27205
 Zr1119 Zr 0.25810 0.79708 0.26019
 O1120 O 0.28411 0.77317 0.23527
 Zr1121 Zr 0.20322 0.76136 0.24104
 O1122 O 0.22686 0.73623 0.21498
 Zr1123 Zr 0.29755 0.73818 0.25660
 O1124 O 0.27420 0.76392 0.28292
 Zr1125 Zr 0.24257 0.70263 0.23714
 O1126 O 0.21630 0.72624 0.26263
 Zr1127 Zr 0.26196 0.75756 0.20166
 O1128 O 0.23635 0.78410 0.22505
 O1129 O 0.22418 0.77612 0.27502
 O1130 O 0.27718 0.72292 0.22192
 C1131 C 0.17622 0.75213 0.29854
 C1132 C 0.24829 0.79908 0.32336
 C1133 C 0.20084 0.82439 0.25136
 C1134 C 0.32556 0.74805 0.20033
 C1135 C 0.29971 0.67515 0.24706
 C1136 C 0.25142 0.70083 0.17389
 H1137 H 0.27013 0.70052 0.28372
 H1138 H 0.21515 0.73038 0.19945
 H1139 H 0.21248 0.78785 0.28681
 H1140 H 0.29982 0.78461 0.22940
 H1141 H 0.32714 0.77323 0.28320
 H1142 H 0.30861 0.81247 0.26624
 H1143 H 0.19709 0.68994 0.21233
 H1144 H 0.16962 0.72052 0.23857
 H1145 H 0.33411 0.71914 0.29101
 H1146 H 0.25657 0.73203 0.34577
 H1147 H 0.22207 0.76241 0.16671
 H1148 H 0.19251 0.78677 0.19582
 H1149 H 0.21255 0.69687 0.30487
 H1150 H 0.23882 0.66734 0.27693
 H1151 H 0.25915 0.83031 0.21875
 H1152 H 0.28752 0.80254 0.18869
 O1153 O 0.22631 0.67407 0.75640
 O1154 O 0.26860 0.66946 0.73659
 O1155 O 0.24333 0.72807 0.82599
 O1156 O 0.25796 0.77050 0.83283
 O1157 O 0.17234 0.74413 0.77221
 O1158 O 0.16805 0.76287 0.72750
 O1159 O 0.31197 0.80243 0.75210
 O1160 O 0.31739 0.77665 0.79225
 O1161 O 0.30131 0.74862 0.68719
 O1162 O 0.27157 0.70800 0.67885
 O1163 O 0.24683 0.81309 0.69726
 O1164 O 0.20623 0.82126 0.72720
 O1165 O 0.27416 0.82678 0.73887
 O1166 O 0.22789 0.83249 0.76072
 O1167 O 0.25975 0.77539 0.67279
 O1168 O 0.23757 0.72909 0.66785
 O1169 O 0.32548 0.76229 0.72484
 O1170 O 0.32853 0.73480 0.76794
 O1171 O 0.18875 0.69864 0.74279
 O1172 O 0.18010 0.72884 0.70538
 O1173 O 0.19684 0.75669 0.81001
 O1174 O 0.22758 0.79630 0.81606
 O1175 O 0.25485 0.69001 0.80134
 O1176 O 0.29533 0.68551 0.77110
 Zr1177 Zr 0.25723 0.70404 0.76048
 O1178 O 0.28315 0.72764 0.73503
 Zr1179 Zr 0.23773 0.75895 0.79617
 O1180 O 0.26326 0.78477 0.77259
 Zr1181 Zr 0.20222 0.73975 0.74115
 O1182 O 0.22584 0.76505 0.71505
 Zr1183 Zr 0.29657 0.76237 0.75682
 O1184 O 0.27295 0.73733 0.78334
 Zr1185 Zr 0.26082 0.74343 0.70172
 O1186 O 0.23558 0.71723 0.72539
 Zr1187 Zr 0.24169 0.79827 0.73764
 O1188 O 0.21510 0.77480 0.76286
 O1189 O 0.22278 0.72469 0.77550
 O1190 O 0.27584 0.77751 0.72258
 C1191 C 0.20123 0.67602 0.74829
 C1192 C 0.25038 0.70270 0.82400
 C1193 C 0.17424 0.75164 0.79743
 C1194 C 0.29984 0.82464 0.74456
 C1195 C 0.32343 0.75645 0.69925
 C1196 C 0.25425 0.80105 0.67500
 H1197 H 0.29891 0.71634 0.72891
 H1198 H 0.21441 0.77128 0.69947
 H1199 H 0.21105 0.71291 0.78725
 H1200 H 0.26979 0.80024 0.78401
 H1201 H 0.31410 0.76290 0.80689
 H1202 H 0.27557 0.77898 0.82734
 H1203 H 0.22223 0.74211 0.66483
 H1204 H 0.19221 0.71649 0.69466
 H1205 H 0.34624 0.74475 0.76635
 H1206 H 0.29180 0.66738 0.77975
 H1207 H 0.19764 0.81244 0.71103
 H1208 H 0.16959 0.78114 0.73628
 H1209 H 0.26078 0.67233 0.71804
 H1210 H 0.28780 0.69953 0.68769
 H1211 H 0.21266 0.80492 0.80523
 H1212 H 0.24065 0.83502 0.77635
 O1213 O 0.25243 0.18703 0.19813
 O1214 O 0.29212 0.18087 0.22527
 O1215 O 0.18709 0.19658 0.25531
 O1216 O 0.17758 0.22337 0.29182
 O1217 O 0.19613 0.25359 0.18887
 O1218 O 0.22541 0.29270 0.18155
 O1219 O 0.25747 0.27130 0.32771
 O1220 O 0.23618 0.23008 0.33206
 O1221 O 0.32521 0.25734 0.27401
 O1222 O 0.33038 0.23833 0.22825
 O1223 O 0.27225 0.32539 0.25933
 O1224 O 0.22697 0.33111 0.24098
 O1225 O 0.24436 0.30914 0.30338
 O1226 O 0.20467 0.31796 0.27231
 O1227 O 0.30985 0.30111 0.24578
 O1228 O 0.31792 0.27031 0.20636
 O1229 O 0.30082 0.24486 0.31193
 O1230 O 0.27299 0.20260 0.31471
 O1231 O 0.23982 0.22520 0.17395
 O1232 O 0.26040 0.27027 0.16933
 O1233 O 0.17191 0.24024 0.22663
 O1234 O 0.16864 0.26260 0.27205
 O1235 O 0.22468 0.17241 0.24123
 O1236 O 0.26952 0.16961 0.26508
 Zr1237 Zr 0.25631 0.20173 0.23868
 O1238 O 0.28243 0.22540 0.26364
 Zr1239 Zr 0.20129 0.23736 0.25819
 O1240 O 0.22526 0.26205 0.28428
 Zr1241 Zr 0.23685 0.25686 0.20329
 O1242 O 0.26202 0.28275 0.22702
 Zr1243 Zr 0.26032 0.24063 0.29742
 O1244 O 0.23452 0.21450 0.27397
 Zr1245 Zr 0.29568 0.26045 0.24243
 O1246 O 0.27202 0.23515 0.21607
 Zr1247 Zr 0.24077 0.29580 0.26229
 O1248 O 0.21418 0.27263 0.23661
 O1249 O 0.22214 0.22276 0.22407
 O1250 O 0.27547 0.27542 0.27722
 C1251 C 0.24584 0.19955 0.17582
 C1252 C 0.19928 0.17430 0.24806
 C1253 C 0.17381 0.24675 0.20115
 C1254 C 0.25026 0.29663 0.32587
 C1255 C 0.32332 0.25055 0.29945
 C1256 C 0.29752 0.32356 0.25195
 H1257 H 0.29795 0.21374 0.26968
 H1258 H 0.26785 0.29836 0.21543
 H1259 H 0.21034 0.21107 0.21237
 H1260 H 0.21382 0.26779 0.30006
 H1261 H 0.22548 0.21358 0.32687
 H1262 H 0.18614 0.23075 0.30870
 H1263 H 0.30827 0.28565 0.19713
 H1264 H 0.27762 0.25941 0.16954
 H1265 H 0.27973 0.20608 0.33363
 H1266 H 0.26644 0.15177 0.25571
 H1267 H 0.23590 0.33109 0.22272
 H1268 H 0.21155 0.30225 0.19301
 H1269 H 0.30137 0.19300 0.21181
 H1270 H 0.33099 0.22069 0.23831
 H1271 H 0.16797 0.27875 0.25968
 H1272 H 0.19584 0.30866 0.28808
 O1273 O 0.81265 0.69795 0.24785
 O1274 O 0.81883 0.72540 0.20830
 O1275 O 0.80243 0.75466 0.31346
 O1276 O 0.77537 0.79098 0.32303
 O1277 O 0.74600 0.68799 0.30357
 O1278 O 0.70682 0.68088 0.27409
 O1279 O 0.72770 0.82724 0.24323
 O1280 O 0.76879 0.83155 0.26484
 O1281 O 0.74247 0.77418 0.17512
 O1282 O 0.76179 0.72839 0.16986
 O1283 O 0.67401 0.75856 0.22749
 O1284 O 0.66803 0.74013 0.27247
 O1285 O 0.68987 0.80266 0.25584
 O1286 O 0.68104 0.77115 0.29525
 O1287 O 0.69864 0.74549 0.18995
 O1288 O 0.72957 0.70657 0.18160
 O1289 O 0.75458 0.81193 0.19992
 O1290 O 0.79660 0.81466 0.22809
 O1291 O 0.77448 0.67355 0.25997
 O1292 O 0.72952 0.66891 0.23910
 O1293 O 0.75898 0.72565 0.32812
 O1294 O 0.73615 0.77084 0.33163
 O1295 O 0.82687 0.74094 0.27593
 O1296 O 0.82987 0.76504 0.23129
 Zr1297 Zr 0.79775 0.73847 0.24409
 O1298 O 0.77411 0.76358 0.21805
 Zr1299 Zr 0.76168 0.75745 0.29902
 O1300 O 0.73697 0.78360 0.27510
 Zr1301 Zr 0.74266 0.70275 0.26296
 O1302 O 0.71683 0.72656 0.23777
 Zr1303 Zr 0.75856 0.79710 0.24032
 O1304 O 0.78468 0.77354 0.26606
 Zr1305 Zr 0.73925 0.74234 0.20437
 O1306 O 0.76450 0.71587 0.22801
 Zr1307 Zr 0.70342 0.76160 0.25917
 O1308 O 0.72658 0.73582 0.28575
 O1309 O 0.77659 0.72357 0.27801
 O1310 O 0.72394 0.77690 0.22474
 C1311 C 0.80017 0.67555 0.25421
 C1312 C 0.82481 0.74757 0.30136
 C1313 C 0.75276 0.70014 0.32600
 C1314 C 0.70231 0.82526 0.25025
 C1315 C 0.74917 0.79962 0.17727
 C1316 C 0.67605 0.75131 0.20220
 H1317 H 0.78586 0.76979 0.20267
 H1318 H 0.70132 0.71493 0.23176
 H1319 H 0.78831 0.71185 0.28977
 H1320 H 0.73107 0.79925 0.28663
 H1321 H 0.78524 0.82632 0.27563
 H1322 H 0.76774 0.80786 0.31469
 H1323 H 0.71457 0.69692 0.19135
 H1324 H 0.74048 0.66928 0.22196
 H1325 H 0.79308 0.83363 0.22151
 H1326 H 0.84773 0.75568 0.23438
 H1327 H 0.66848 0.72175 0.26381
 H1328 H 0.69733 0.69208 0.28818
 H1329 H 0.80687 0.71186 0.19896
 H1330 H 0.77929 0.73870 0.16932
 H1331 H 0.72011 0.75835 0.33212
 H1332 H 0.69016 0.78693 0.30424
 O1333 O 0.68812 0.30097 0.74516
 O1334 O 0.68206 0.27373 0.70552
 O1335 O 0.69792 0.24394 0.81057
 O1336 O 0.72481 0.20728 0.81978
 O1337 O 0.75449 0.31046 0.80157
 O1338 O 0.79377 0.31786 0.77232
 O1339 O 0.77318 0.17184 0.73999
 O1340 O 0.73204 0.16724 0.76138
 O1341 O 0.75864 0.22547 0.67231
 O1342 O 0.73935 0.27134 0.66740
 O1343 O 0.82685 0.24067 0.72519
 O1344 O 0.83212 0.25912 0.77090
 O1345 O 0.81090 0.19637 0.75302
 O1346 O 0.81986 0.22700 0.79243
 O1347 O 0.80242 0.25399 0.68762
 O1348 O 0.77152 0.29302 0.67947
 O1349 O 0.74637 0.18750 0.69669
 O1350 O 0.70429 0.18446 0.72472
 O1351 O 0.72618 0.32528 0.75777
 O1352 O 0.77125 0.33019 0.73742
 O1353 O 0.74139 0.27259 0.82574
 O1354 O 0.76404 0.22740 0.82897
 O1355 O 0.67369 0.25794 0.77300
 O1356 O 0.67099 0.23393 0.72825
 Zr1357 Zr 0.70301 0.26049 0.74134
 O1358 O 0.72681 0.23565 0.71518
 Zr1359 Zr 0.73874 0.24109 0.79630
 O1360 O 0.76363 0.21520 0.77227
 Zr1361 Zr 0.75799 0.29609 0.76082
 O1362 O 0.78396 0.27254 0.73551
 Zr1363 Zr 0.74227 0.20195 0.73723
 O1364 O 0.71597 0.22524 0.76306
 Zr1365 Zr 0.76173 0.25704 0.70187
 O1366 O 0.73634 0.28326 0.72564
 Zr1367 Zr 0.79726 0.23735 0.75670
 O1368 O 0.77392 0.26281 0.78341
 O1369 O 0.72397 0.27515 0.77549
 O1370 O 0.77695 0.22233 0.72202
 C1371 C 0.70055 0.32332 0.75173
 C1372 C 0.67561 0.25118 0.79842
 C1373 C 0.74768 0.29812 0.82389
 C1374 C 0.79853 0.17381 0.74715
 C1375 C 0.75189 0.20003 0.67418
 C1376 C 0.82495 0.24808 0.69994
 H1377 H 0.71514 0.22958 0.69969
 H1378 H 0.79949 0.28424 0.72968
 H1379 H 0.71222 0.28682 0.78728
 H1380 H 0.76950 0.19944 0.78367
 H1381 H 0.71554 0.17233 0.77217
 H1382 H 0.73274 0.19052 0.81149
 H1383 H 0.78652 0.30254 0.68933
 H1384 H 0.76055 0.32988 0.72011
 H1385 H 0.70786 0.16555 0.71798
 H1386 H 0.65310 0.24325 0.73131
 H1387 H 0.83238 0.27709 0.76143
 H1388 H 0.80326 0.30648 0.78627
 H1389 H 0.69409 0.28729 0.69628
 H1390 H 0.72192 0.26092 0.66658
 H1391 H 0.78021 0.23973 0.82950
 H1392 H 0.81017 0.21174 0.80170
 C1393 C 0.10048 1.02044 1.16800
 C1394 C 0.08967 1.01635 1.14609
 C1395 C 0.07611 1.01195 1.12085
 C1396 C 0.06365 1.00878 1.09970
 C1397 C 0.60183 0.52036 0.66824
 C1398 C 0.59100 0.51555 0.64651
 C1399 C 0.57736 0.51032 0.62148
 C1400 C 0.56481 0.50679 0.60044
 C1401 C 0.39710 -0.01709 0.66530
 C1402 C 0.40801 -0.01183 0.64371
 C1403 C 0.42178 -0.00631 0.61882
 C1404 C 0.43444 -0.00267 0.59787
 C1405 C -0.10246 0.48134 1.16670
 C1406 C -0.09159 0.48660 1.14511
 C1407 C -0.07791 0.49215 1.12022
 C1408 C -0.06534 0.49586 1.09924
 C1409 C -0.10384 0.51799 0.33309
 C1410 C -0.09297 0.51287 0.35474
 C1411 C -0.07920 0.50740 0.37965
 C1412 C -0.06652 0.50372 0.40058
 C1413 C 0.39624 1.01845 -0.16788
 C1414 C 0.40697 1.01324 -0.14619
 C1415 C 0.42053 1.00781 -0.12117
 C1416 C 0.43304 1.00424 -0.10012
 C1417 C 0.60403 0.47828 -0.16502
 C1418 C 0.59346 0.48261 -0.14307
 C1419 C 0.57998 0.48732 -0.11788
 C1420 C 0.56741 0.49069 -0.09683
 C1421 C 0.10191 -0.02286 0.33330
 C1422 C 0.09142 -0.01822 0.35526
 C1423 C 0.07809 -0.01299 0.38048
 C1424 C 0.06571 -0.00914 0.40158
 C1425 C 0.16533 1.10331 1.02021
 C1426 C 0.14330 1.09293 1.01575
 C1427 C 0.11796 1.07970 1.01102
 C1428 C 0.09678 1.06734 1.00770
 C1429 C 0.66672 0.60392 0.52092
 C1430 C 0.64489 0.59347 0.51583
 C1431 C 0.61980 0.58013 0.51034
 C1432 C 0.59877 0.56768 0.50661
 C1433 C 0.66719 0.39533 -0.02079
 C1434 C 0.64528 0.40596 -0.01620
 C1435 C 0.62012 0.41948 -0.01115
 C1436 C 0.59908 0.43203 -0.00746
 C1437 C 0.16672 -0.10346 0.47916
 C1438 C 0.14476 -0.09298 0.48385
 C1439 C 0.11954 -0.07960 0.48898
 C1440 C 0.09847 -0.06712 0.49268
 C1441 C 0.33291 -0.10028 0.51862
 C1442 C 0.35456 -0.08937 0.51357
 C1443 C 0.37954 -0.07572 0.50814
 C1444 C 0.40060 -0.06325 0.50443
 C1445 C -0.16697 0.39905 1.01889
 C1446 C -0.14541 0.41013 1.01384
 C1447 C -0.12052 0.42397 1.00845
 C1448 C -0.09954 0.43659 1.00484
 C1449 C -0.16730 0.60187 0.48147
 C1450 C -0.14566 0.59084 0.48630
 C1451 C -0.12077 0.57697 0.49147
 C1452 C -0.09983 0.56423 0.49494
 C1453 C 0.33044 1.10038 -0.01913
 C1454 C 0.35220 1.08963 -0.01418
 C1455 C 0.37733 1.07617 -0.00899
 C1456 C 0.39851 1.06382 -0.00555
 C1457 C 0.01905 1.16834 1.10213
 C1458 C 0.01463 1.14643 1.09150
 C1459 C 0.00990 1.12120 1.07806
 C1460 C 0.00650 1.10008 1.06563
 C1461 C 0.51882 0.66823 0.60438
 C1462 C 0.51376 0.64658 0.59353
 C1463 C 0.50832 0.62168 0.57978
 C1464 C 0.50465 0.60075 0.56711
 C1465 C -0.01906 0.66592 0.39827
 C1466 C -0.01425 0.64402 0.40873
 C1467 C -0.00912 0.61880 0.42201
 C1468 C -0.00567 0.59762 0.43433
 C1469 C 0.48050 1.16717 -0.10152
 C1470 C 0.48527 1.14534 -0.09088
 C1471 C 0.49022 1.12014 -0.07750
 C1472 C 0.49346 1.09894 -0.06516
 C1473 C 0.52139 0.33143 -0.10226
 C1474 C 0.51697 0.35322 -0.09134
 C1475 C 0.51212 0.37827 -0.07758
 C1476 C 0.50859 0.39925 -0.06492
 C1477 C 0.02176 -0.16692 0.39815
 C1478 C 0.01723 -0.14510 0.40887
 C1479 C 0.01224 -0.12002 0.42244
 C1480 C 0.00861 -0.09903 0.43501
 C1481 C 0.48155 -0.16430 0.60225
 C1482 C 0.48660 -0.14277 0.59121
 C1483 C 0.49185 -0.11794 0.57731
 C1484 C 0.49527 -0.09704 0.56455
 C1485 C -0.02001 0.33344 1.10064
 C1486 C -0.01479 0.35524 1.09013
 C1487 C -0.00923 0.38038 1.07686
 C1488 C -0.00549 0.40153 1.06458
 C1489 C 0.77047 0.35336 0.08208
 C1490 C 0.76591 0.34245 0.10385
 C1491 C 0.76086 0.32866 0.12886
 C1492 C 0.75719 0.31596 0.14979
 C1493 C 0.27113 0.85465 0.58301
 C1494 C 0.26644 0.84381 0.60477
 C1495 C 0.26126 0.83007 0.62977
 C1496 C 0.25749 0.81737 0.65069
 C1497 C 0.73152 0.64737 0.58541
 C1498 C 0.73645 0.65804 0.60717
 C1499 C 0.74167 0.67157 0.63223
 C1500 C 0.74517 0.68409 0.65328
 C1501 C 0.22914 0.14679 0.08349
 C1502 C 0.23422 0.15757 0.10517
 C1503 C 0.23961 0.17114 0.13018
 C1504 C 0.24324 0.18362 0.15123
 C1505 C 0.26913 0.14621 0.91673
 C1506 C 0.26489 0.15745 0.89509
 C1507 C 0.26033 0.17154 0.87019
 C1508 C 0.25709 0.18442 0.84931
 C1509 C 0.76996 0.64673 0.41784
 C1510 C 0.76482 0.65752 0.39618
 C1511 C 0.75923 0.67122 0.37128
 C1512 C 0.75544 0.68389 0.35038
 C1513 C 0.23205 0.85225 0.41564
 C1514 C 0.23710 0.84140 0.39396
 C1515 C 0.24241 0.82774 0.36895
 C1516 C 0.24591 0.81516 0.34791
 C1517 C 0.73096 0.35111 0.91619
 C1518 C 0.73607 0.34028 0.89451
 C1519 C 0.74148 0.32665 0.86951
 C1520 C 0.74511 0.31413 0.84847
 C1521 C 0.85282 0.41564 0.22922
 C1522 C 0.84219 0.39371 0.23346
 C1523 C 0.82869 0.36852 0.23803
 C1524 C 0.81613 0.34747 0.24128
 C1525 C 0.35250 0.91712 0.72804
 C1526 C 0.34194 0.89521 0.73261
 C1527 C 0.32853 0.87004 0.73770
 C1528 C 0.31604 0.84900 0.74140
 C1529 C 0.14666 0.91607 0.26799
 C1530 C 0.15784 0.89456 0.26287
 C1531 C 0.17186 0.86976 0.25750
 C1532 C 0.18465 0.84886 0.25391
 C1533 C 0.64793 0.41561 0.76879
 C1534 C 0.65858 0.39392 0.76348
 C1535 C 0.67207 0.36891 0.75795
 C1536 C 0.68454 0.34786 0.75429
 C1537 C 0.64688 0.58382 0.73311
 C1538 C 0.65771 0.60547 0.73824
 C1539 C 0.67144 0.63038 0.74369
 C1540 C 0.68414 0.65130 0.74732
 C1541 C 0.14573 0.08235 0.23191
 C1542 C 0.15671 0.10393 0.23699
 C1543 C 0.17051 0.12882 0.24227
 C1544 C 0.18317 0.14979 0.24572
 C1545 C 0.35264 0.08408 0.77077
 C1546 C 0.34217 0.10608 0.76641
 C1547 C 0.32886 0.13138 0.76167
 C1548 C 0.31646 0.15254 0.75826
 C1549 C 0.85236 0.58279 0.27078
 C1550 C 0.84187 0.60467 0.26586
 C1551 C 0.82855 0.62984 0.26050
 C1552 C 0.81617 0.65097 0.25685
 C1553 C 0.91499 0.27155 0.14447
 C1554 C 0.89320 0.26698 0.15530
 C1555 C 0.86820 0.26193 0.16906
 C1556 C 0.84729 0.25822 0.18179
 C1557 C 0.41600 0.77289 0.64679
 C1558 C 0.39404 0.76834 0.65724
 C1559 C 0.36883 0.76333 0.67058
 C1560 C 0.34778 0.75967 0.68305
 C1561 C 0.41633 0.22957 0.85430
 C1562 C 0.39449 0.23406 0.84352
 C1563 C 0.36938 0.23885 0.82987
 C1564 C 0.34837 0.24228 0.81724
 C1565 C 0.91690 0.73109 0.35459
 C1566 C 0.89519 0.73619 0.34386
 C1567 C 0.87021 0.74157 0.33022
 C1568 C 0.84924 0.74514 0.31758
 C1569 C 0.08448 0.76812 0.35250
 C1570 C 0.10601 0.76314 0.34138
 C1571 C 0.13083 0.75794 0.32743
 C1572 C 0.15175 0.75451 0.31468
 C1573 C 0.58376 0.26794 0.85220
 C1574 C 0.60532 0.26279 0.84115
 C1575 C 0.63019 0.25733 0.82729
 C1576 C 0.65112 0.25369 0.81458
 C1577 C 0.58331 0.73206 0.64937
 C1578 C 0.60506 0.73687 0.66017
 C1579 C 0.63010 0.74201 0.67381
 C1580 C 0.65114 0.74545 0.68639
 C1581 C 0.08181 0.23136 0.14736
 C1582 C 0.10338 0.23616 0.15849
 C1583 C 0.12828 0.24118 0.17240
 C1584 C 0.14926 0.24449 0.18509
 C1585 C -0.10024 1.02096 0.83175
 C1586 C -0.08925 1.01598 0.85343
 C1587 C -0.07574 1.01002 0.87847
 C1588 C -0.06375 1.00548 0.89971
 C1589 C 0.39878 0.52014 0.33343
 C1590 C 0.40997 0.51492 0.35495
 C1591 C 0.42376 0.50884 0.37980
 C1592 C 0.43602 0.50444 0.40091
 C1593 C 0.60177 -0.01874 0.33187
 C1594 C 0.59059 -0.01292 0.35326
 C1595 C 0.57679 -0.00620 0.37796
 C1596 C 0.56447 -0.00136 0.39895
 C1597 C 0.10106 0.48320 0.83299
 C1598 C 0.08964 0.48899 0.85423
 C1599 C 0.07562 0.49551 0.87882
 C1600 C 0.06320 0.50008 0.89980
 C1601 C 0.10117 0.51848 0.66589
 C1602 C 0.08984 0.51246 0.64466
 C1603 C 0.07589 0.50561 0.62012
 C1604 C 0.06351 0.50073 0.59919
 C1605 C 0.60001 1.01778 0.16605
 C1606 C 0.58871 1.01196 0.14476
 C1607 C 0.57481 1.00541 0.12010
 C1608 C 0.56245 1.00083 0.09910
 C1609 C 0.39916 0.47764 0.16801
 C1610 C 0.41053 0.48279 0.14659
 C1611 C 0.42447 0.48891 0.12186
 C1612 C 0.43682 0.49352 0.10086
 C1613 C -0.09875 -0.02231 0.66877
 C1614 C -0.08758 -0.01698 0.64726
 C1615 C -0.07392 -0.01056 0.62241
 C1616 C -0.06187 -0.00563 0.60129
 C1617 C -0.16879 0.90080 1.02254
 C1618 C -0.14743 0.91213 1.01701
 C1619 C -0.12276 0.92597 1.01040
 C1620 C -0.10177 0.93819 1.00541
 C1621 C 0.33350 0.39964 0.51884
 C1622 C 0.35475 0.41102 0.51308
 C1623 C 0.37936 0.42501 0.50662
 C1624 C 0.40032 0.43746 0.50211
 C1625 C 0.33309 0.59898 -0.02121
 C1626 C 0.35436 0.58744 -0.01570
 C1627 C 0.37898 0.57339 -0.00923
 C1628 C 0.39996 0.56105 -0.00437
 C1629 C -0.16660 0.10055 0.47845
 C1630 C -0.14530 0.08913 0.48408
 C1631 C -0.12070 0.07515 0.49076
 C1632 C -0.09975 0.06283 0.49578
 C1633 C 0.66830 0.10097 0.51738
 C1634 C 0.64685 0.08988 0.51170
 C1635 C 0.62205 0.07620 0.50519
 C1636 C 0.60095 0.06403 0.50052
 C1637 C 0.16810 0.60155 1.01856
 C1638 C 0.14652 0.59053 1.01324
 C1639 C 0.12156 0.57693 1.00711
 C1640 C 0.10037 0.56481 1.00270
 C1641 C 0.16636 0.39673 0.48173
 C1642 C 0.14479 0.40773 0.48720
 C1643 C 0.11990 0.42140 0.49340
 C1644 C 0.09879 0.43368 0.49777
 C1645 C 0.66670 0.89961 -0.01854
 C1646 C 0.64520 0.91080 -0.01324
 C1647 C 0.62035 0.92458 -0.00709
 C1648 C 0.59922 0.93681 -0.00266
 C1649 C 0.02015 0.83313 0.90059
 C1650 C 0.01472 0.85450 0.91196
 C1651 C 0.00833 0.87921 0.92583
 C1652 C 0.00355 0.90025 0.93803
 C1653 C 0.51874 0.33543 0.39891
 C1654 C 0.51319 0.35667 0.41047
 C1655 C 0.50679 0.38121 0.42466
 C1656 C 0.50218 0.40210 0.43722
 C1657 C -0.01960 0.33080 0.60002
 C1658 C -0.01406 0.35218 0.58874
 C1659 C -0.00763 0.37689 0.57487
 C1660 C -0.00298 0.39790 0.56255
 C1661 C 0.48098 0.83150 0.09974
 C1662 C 0.48634 0.85297 0.08856
 C1663 C 0.49249 0.87780 0.07482
 C1664 C 0.49686 0.89893 0.06263
 C1665 C 0.52215 0.66556 0.10074
 C1666 C 0.51681 0.64406 0.08959
 C1667 C 0.51043 0.61925 0.07590
 C1668 C 0.50557 0.59818 0.06377
 C1669 C 0.02114 0.16748 0.60074
 C1670 C 0.01594 0.14602 0.58947
 C1671 C 0.00982 0.12123 0.57566
 C1672 C 0.00523 0.10016 0.56345
 C1673 C 0.48120 0.16866 0.39764
 C1674 C 0.48700 0.14716 0.40856
 C1675 C 0.49357 0.12231 0.42210
 C1676 C 0.49822 0.10122 0.43426
 C1677 C -0.01858 0.66923 0.90020
 C1678 C -0.01282 0.64773 0.91118
 C1679 C -0.00624 0.62289 0.92473
 C1680 C -0.00158 0.60175 0.93683
 C1681 C 0.27064 0.64913 0.91576
 C1682 C 0.26540 0.66082 0.89451
 C1683 C 0.25922 0.67506 0.86993
 C1684 C 0.25454 0.68755 0.84902
 C1685 C 0.77188 0.14895 0.41529
 C1686 C 0.76637 0.16034 0.39394
 C1687 C 0.75980 0.17426 0.36929
 C1688 C 0.75480 0.18655 0.34832
 C1689 C 0.23019 0.34934 0.41801
 C1690 C 0.23573 0.33800 0.39667
 C1691 C 0.24214 0.32408 0.37199
 C1692 C 0.24673 0.31175 0.35097
 C1693 C 0.73122 0.85148 0.91891
 C1694 C 0.73700 0.84007 0.89766
 C1695 C 0.74361 0.82604 0.87308
 C1696 C 0.74833 0.81358 0.85215
 C1697 C 0.76910 0.85298 0.08546
 C1698 C 0.76354 0.84161 0.10680
 C1699 C 0.75717 0.82757 0.13142
 C1700 C 0.75263 0.81505 0.15234
 C1701 C 0.27154 0.35141 0.58364
 C1702 C 0.26640 0.34018 0.60514
 C1703 C 0.26026 0.32637 0.62994
 C1704 C 0.25557 0.31412 0.65097
 C1705 C 0.73199 0.14794 0.58159
 C1706 C 0.73753 0.15899 0.60310
 C1707 C 0.74390 0.17266 0.62796
 C1708 C 0.74844 0.18488 0.64906
 C1709 C 0.23082 0.64834 0.08166
 C1710 C 0.23648 0.65957 0.10305
 C1711 C 0.24300 0.67340 0.12778
 C1712 C 0.24770 0.68569 0.14881
 C1713 C 0.14908 0.58364 0.72783
 C1714 C 0.16027 0.60514 0.73304
 C1715 C 0.17401 0.62994 0.73931
 C1716 C 0.18622 0.65097 0.74408
 C1717 C 0.64805 0.08265 0.22811
 C1718 C 0.65928 0.10415 0.23323
 C1719 C 0.67311 0.12894 0.23931
 C1720 C 0.68542 0.14997 0.24389
 C1721 C 0.85208 0.08228 0.76796
 C1722 C 0.84052 0.10343 0.76208
 C1723 C 0.82635 0.12792 0.75543
 C1724 C 0.81383 0.14881 0.75072
 C1725 C 0.35178 0.58289 0.26831
 C1726 C 0.34078 0.60430 0.26232
 C1727 C 0.32715 0.62906 0.25552
 C1728 C 0.31492 0.65010 0.25071
 C1729 C 0.35046 0.41559 0.23234
 C1730 C 0.33908 0.39429 0.23792
 C1731 C 0.32510 0.36962 0.24419
 C1732 C 0.31272 0.34862 0.24861
 C1733 C 0.85336 0.91569 0.73181
 C1734 C 0.84186 0.89450 0.73764
 C1735 C 0.82772 0.87002 0.74435
 C1736 C 0.81518 0.84918 0.74918
 C1737 C 0.64920 0.91726 0.27040
 C1738 C 0.66061 0.89591 0.26497
 C1739 C 0.67462 0.87124 0.25858
 C1740 C 0.68705 0.85028 0.25393
 C1741 C 0.14960 0.41843 0.77117
 C1742 C 0.16089 0.39694 0.76608
 C1743 C 0.17474 0.37213 0.76001
 C1744 C 0.18700 0.35107 0.75543
 C1745 C 0.08268 0.77190 0.85121
 C1746 C 0.10385 0.76659 0.83943
 C1747 C 0.12834 0.76034 0.82511
 C1748 C 0.14923 0.75566 0.81258
 C1749 C 0.58223 0.27269 0.34962
 C1750 C 0.60353 0.26713 0.33817
 C1751 C 0.62813 0.26048 0.32417
 C1752 C 0.64905 0.25543 0.31183
 C1753 C 0.58448 0.73016 0.14890
 C1754 C 0.60569 0.73602 0.16034
 C1755 C 0.63021 0.74276 0.17441
 C1756 C 0.65109 0.74758 0.18689
 C1757 C 0.08329 0.22966 0.64922
 C1758 C 0.10452 0.23517 0.66078
 C1759 C 0.12909 0.24158 0.67488
 C1760 C 0.15001 0.24633 0.68730
 C1761 C 0.91710 0.26866 0.64733
 C1762 C 0.89571 0.26304 0.65857
 C1763 C 0.87101 0.25652 0.67243
 C1764 C 0.85001 0.25181 0.68476
 C1765 C 0.41773 0.76760 0.14748
 C1766 C 0.39632 0.76210 0.15873
 C1767 C 0.37158 0.75586 0.17262
 C1768 C 0.35057 0.75144 0.18502
 C1769 C 0.41619 0.23201 0.35147
 C1770 C 0.39457 0.23724 0.34049
 C1771 C 0.36959 0.24319 0.32688
 C1772 C 0.34843 0.24740 0.31466
 C1773 C 0.91711 0.73125 0.85404
 C1774 C 0.89562 0.73674 0.84291
 C1775 C 0.87084 0.74311 0.82911
 C1776 C 0.84982 0.74768 0.81675
   
