data_POSCAR
  _audit_creation_date              2014-09-24
  _audit_creation_method            'ToBaCCo'
  _symmetry_space_group_name_H-M    'P1'
  _symmetry_Int_Tables_number       1
  _symmetry_cell_setting            triclinic
  loop_
  _symmetry_equiv_pos_as_xyz
 x,y,z
_cell_length_a 80.8131
_cell_length_b 80.9344
_cell_length_c 81.1472
_cell_angle_alpha 89.957700
_cell_angle_beta 89.959600
_cell_angle_gamma 89.953500
loop_
  _atom_site_label
  _atom_site_type_symbol
  _atom_site_fract_x
  _atom_site_fract_y
  _atom_site_fract_z
N1 N 0.36607 0.32026 0.33202
 N2 N 0.36595 0.33184 0.32070
 C3 C 0.37899 0.32961 0.31057
 C4 C 0.38776 0.31584 0.31583
 C5 C 0.37910 0.31024 0.32949
 H6 H 0.38190 0.33752 0.30025
 H7 H 0.38208 0.29973 0.33717
 Cu8 Cu 0.34902 0.34894 0.32070
 Cu9 Cu 0.34959 0.31923 0.34955
 Cu10 Cu 0.31923 0.34953 0.34953
 N11 N 0.33189 0.36584 0.32067
 N12 N 0.32027 0.36596 0.33199
 C13 C 0.31025 0.37899 0.32945
 C14 C 0.31588 0.38763 0.31580
 C15 C 0.32967 0.37886 0.31055
 H16 H 0.29973 0.38197 0.33712
 H17 H 0.33760 0.38177 0.30025
 N18 N 0.32032 0.33184 0.36622
 N19 N 0.33187 0.32032 0.36622
 C20 C 0.32948 0.31030 0.37926
 C21 C 0.31577 0.31577 0.38798
 C22 C 0.31029 0.32945 0.37925
 H23 H 0.33726 0.29986 0.38223
 H24 H 0.29982 0.33721 0.38221
 H25 H 0.33094 0.33092 0.33663
 H26 H 0.34423 0.34421 0.34996
 N27 N 0.36628 0.82038 -0.16824
 N28 N 0.36657 0.83230 -0.17922
 C29 C 0.38000 0.83041 -0.18887
 C30 C 0.38867 0.81648 -0.18372
 C31 C 0.37948 0.81050 -0.17050
 H32 H 0.38308 0.83854 -0.19898
 H33 H 0.38196 0.79966 -0.16314
 Cu34 Cu 0.34915 0.84896 -0.18011
 Cu35 Cu 0.34842 0.81812 -0.15231
 Cu36 Cu 0.31978 0.84991 -0.15062
 N37 N 0.33216 0.86605 -0.17966
 N38 N 0.32075 0.86634 -0.16814
 C39 C 0.31078 0.87943 -0.17058
 C40 C 0.31621 0.88800 -0.18442
 C41 C 0.32986 0.87902 -0.18982
 H42 H 0.30041 0.88244 -0.16273
 H43 H 0.33763 0.88167 -0.20033
 N44 N 0.32081 0.83210 -0.13407
 N45 N 0.33171 0.81999 -0.13472
 C46 C 0.32938 0.80992 -0.12171
 C47 C 0.31632 0.81593 -0.11237
 C48 C 0.31121 0.83002 -0.12066
 H49 H 0.33671 0.79903 -0.11925
 H50 H 0.30125 0.83822 -0.11720
 H51 H 0.33008 0.83150 -0.16446
 H52 H 0.34464 0.84329 -0.15102
 N53 N 0.86593 0.32089 -0.16789
 N54 N 0.86548 0.33210 -0.17958
 C55 C 0.87843 0.32976 -0.18978
 C56 C 0.88752 0.31632 -0.18420
 C57 C 0.87912 0.31101 -0.17026
 H58 H 0.88105 0.33734 -0.20042
 H59 H 0.88234 0.30079 -0.16232
 Cu60 Cu 0.84835 0.34903 -0.18010
 Cu61 Cu 0.84957 0.31999 -0.15033
 Cu62 Cu 0.81771 0.34856 -0.15204
 N63 N 0.83174 0.36646 -0.17916
 N64 N 0.81992 0.36631 -0.16806
 C65 C 0.81010 0.37956 -0.17028
 C66 C 0.81605 0.38864 -0.18358
 C67 C 0.82986 0.37984 -0.18884
 H68 H 0.79935 0.38217 -0.16280
 H69 H 0.83793 0.38279 -0.19904
 N70 N 0.81965 0.33194 -0.13439
 N71 N 0.83180 0.32108 -0.13374
 C72 C 0.82974 0.31150 -0.12033
 C73 C 0.81561 0.31656 -0.11204
 C74 C 0.80957 0.32959 -0.12137
 H75 H 0.83796 0.30156 -0.11688
 H76 H 0.79864 0.33687 -0.11892
 H77 H 0.83108 0.33018 -0.16404
 H78 H 0.84299 0.34486 -0.15084
 N79 N 0.86597 0.82071 0.33208
 N80 N 0.86576 0.83219 0.32064
 C81 C 0.87882 0.82997 0.31055
 C82 C 0.88772 0.81632 0.31592
 C83 C 0.87911 0.81078 0.32965
 H84 H 0.88162 0.83776 0.30010
 H85 H 0.88214 0.80035 0.33738
 Cu86 Cu 0.84854 0.84901 0.32007
 Cu87 Cu 0.84942 0.81965 0.34949
 Cu88 Cu 0.81912 0.84990 0.34947
 N89 N 0.83170 0.86621 0.32063
 N90 N 0.82019 0.86642 0.33206
 C91 C 0.81026 0.87954 0.32962
 C92 C 0.81582 0.88819 0.31589
 C93 C 0.82951 0.87925 0.31054
 H94 H 0.79982 0.88250 0.33739
 H95 H 0.83738 0.88197 0.30014
 N96 N 0.82012 0.83217 0.36608
 N97 N 0.83167 0.82065 0.36608
 C98 C 0.82928 0.81062 0.37911
 C99 C 0.81556 0.81607 0.38782
 C100 C 0.81008 0.82977 0.37911
 H101 H 0.83707 0.80019 0.38208
 H102 H 0.79963 0.83754 0.38209
 H103 H 0.83064 0.83117 0.33650
 H104 H 0.84415 0.84468 0.34944
 N105 N 0.63393 0.67972 0.33222
 N106 N 0.63418 0.66826 0.32078
 C107 C 0.62115 0.67047 0.31068
 C108 C 0.61222 0.68409 0.31605
 C109 C 0.62079 0.68963 0.32978
 H110 H 0.61836 0.66267 0.30025
 H111 H 0.61772 0.70005 0.33751
 Cu112 Cu 0.65141 0.65147 0.32019
 Cu113 Cu 0.65040 0.68072 0.34967
 Cu114 Cu 0.68072 0.65048 0.34967
 N115 N 0.66824 0.63428 0.32078
 N116 N 0.67973 0.63404 0.33222
 C117 C 0.68965 0.62091 0.32977
 C118 C 0.68410 0.61235 0.31605
 C119 C 0.67045 0.62126 0.31068
 H120 H 0.70009 0.61785 0.33750
 H121 H 0.66263 0.61848 0.30026
 N122 N 0.67964 0.66815 0.36631
 N123 N 0.66809 0.67966 0.36631
 C124 C 0.67044 0.68966 0.37935
 C125 C 0.68414 0.68418 0.38808
 C126 C 0.68965 0.67051 0.37936
 H127 H 0.66265 0.70009 0.38231
 H128 H 0.70010 0.66275 0.38233
 H129 H 0.66922 0.66925 0.33675
 H130 H 0.65566 0.65569 0.34960
 N131 N 0.63430 0.17959 -0.16814
 N132 N 0.63400 0.16759 -0.17902
 C133 C 0.62057 0.16944 -0.18869
 C134 C 0.61195 0.18338 -0.18358
 C135 C 0.62111 0.18946 -0.17046
 H136 H 0.61736 0.16124 -0.19867
 H137 H 0.61854 0.20035 -0.16319
 Cu138 Cu 0.65140 0.15094 -0.17928
 Cu139 Cu 0.65205 0.18179 -0.15200
 Cu140 Cu 0.68080 0.14992 -0.15028
 N141 N 0.66837 0.13388 -0.17944
 N142 N 0.67984 0.13358 -0.16798
 C143 C 0.68978 0.12048 -0.17046
 C144 C 0.68431 0.11196 -0.18430
 C145 C 0.67065 0.12096 -0.18965
 H146 H 0.70016 0.11744 -0.16263
 H147 H 0.66278 0.11827 -0.20006
 N148 N 0.67965 0.16773 -0.13369
 N149 N 0.66872 0.17984 -0.13435
 C150 C 0.67097 0.18986 -0.12130
 C151 C 0.68401 0.18385 -0.11195
 C152 C 0.68919 0.16979 -0.12026
 H153 H 0.66361 0.20072 -0.11883
 H154 H 0.69916 0.16161 -0.11679
 H155 H 0.67049 0.16843 -0.16389
 H156 H 0.65599 0.15672 -0.15034
 N157 N 0.13433 0.68000 -0.16823
 N158 N 0.13411 0.66809 -0.17922
 C159 C 0.12072 0.66995 -0.18892
 C160 C 0.11206 0.68384 -0.18377
 C161 C 0.12115 0.68987 -0.17058
 H162 H 0.11756 0.66181 -0.19897
 H163 H 0.11852 0.70070 -0.16325
 Cu164 Cu 0.15143 0.65137 -0.17944
 Cu165 Cu 0.15199 0.68208 -0.15198
 Cu166 Cu 0.18065 0.65013 -0.15024
 N167 N 0.16838 0.63431 -0.17957
 N168 N 0.17972 0.63388 -0.16798
 C169 C 0.18961 0.62074 -0.17045
 C170 C 0.18419 0.61235 -0.18433
 C171 C 0.17065 0.62139 -0.18979
 H172 H 0.19991 0.61753 -0.16259
 H173 H 0.16291 0.61871 -0.20029
 N174 N 0.17945 0.66787 -0.13360
 N175 N 0.16857 0.68002 -0.13426
 C176 C 0.17084 0.69001 -0.12120
 C177 C 0.18385 0.68394 -0.11184
 C178 C 0.18898 0.66987 -0.12015
 H179 H 0.16355 0.70092 -0.11875
 H180 H 0.19894 0.66167 -0.11671
 H181 H 0.17047 0.66872 -0.16383
 H182 H 0.15587 0.65697 -0.15043
 N183 N 0.13431 0.17999 0.33175
 N184 N 0.13412 0.16811 0.32073
 C185 C 0.12074 0.16997 0.31103
 C186 C 0.11204 0.18383 0.31621
 C187 C 0.12111 0.18985 0.32942
 H188 H 0.11760 0.16185 0.30096
 H189 H 0.11845 0.20065 0.33677
 Cu190 Cu 0.15148 0.15143 0.32049
 Cu191 Cu 0.15195 0.18207 0.34802
 Cu192 Cu 0.18066 0.15017 0.34972
 N193 N 0.16846 0.13439 0.32033
 N194 N 0.17979 0.13396 0.33193
 C195 C 0.18970 0.12084 0.32945
 C196 C 0.18430 0.11246 0.31556
 C197 C 0.17076 0.12150 0.31010
 H198 H 0.19999 0.11762 0.33732
 H199 H 0.16303 0.11882 0.29959
 N200 N 0.17941 0.16787 0.36640
 N201 N 0.16851 0.18000 0.36575
 C202 C 0.17074 0.18996 0.37884
 C203 C 0.18375 0.18389 0.38820
 C204 C 0.18892 0.16986 0.37986
 H205 H 0.16342 0.20085 0.38131
 H206 H 0.19889 0.16166 0.38330
 H207 H 0.17047 0.16878 0.33616
 H208 H 0.15588 0.15696 0.34952
 N209 N 0.63410 0.32026 0.66803
 N210 N 0.63388 0.33210 0.67907
 C211 C 0.62043 0.33025 0.68870
 C212 C 0.61173 0.31644 0.68346
 C213 C 0.62085 0.31044 0.67026
 H214 H 0.61733 0.33829 0.69886
 H215 H 0.61826 0.29962 0.66292
 Cu216 Cu 0.65138 0.34861 0.68016
 Cu217 Cu 0.65193 0.31801 0.65207
 Cu218 Cu 0.68045 0.34982 0.65031
 N219 N 0.66826 0.36576 0.67950
 N220 N 0.67952 0.36619 0.66783
 C221 C 0.68940 0.37935 0.67021
 C222 C 0.68405 0.38775 0.68413
 C223 C 0.67057 0.37869 0.68968
 H224 H 0.69968 0.38254 0.66232
 H225 H 0.66294 0.38132 0.70029
 N226 N 0.67942 0.33206 0.63375
 N227 N 0.66855 0.31994 0.63444
 C228 C 0.67086 0.30990 0.62141
 C229 C 0.68388 0.31593 0.61203
 C230 C 0.68898 0.33002 0.62031
 H231 H 0.66355 0.29900 0.61898
 H232 H 0.69893 0.33822 0.61685
 H233 H 0.67038 0.33130 0.66422
 H234 H 0.65563 0.34319 0.65101
 N235 N 0.63415 0.82034 1.16802
 N236 N 0.63383 0.83232 1.17892
 C237 C 0.62036 0.83052 1.18853
 C238 C 0.61178 0.81658 1.18346
 C239 C 0.62097 0.81047 1.17036
 H240 H 0.61719 0.83867 1.19859
 H241 H 0.61849 0.79951 1.16319
 Cu242 Cu 0.65131 0.84882 1.18003
 Cu243 Cu 0.65202 0.81806 1.15214
 Cu244 Cu 0.68057 0.84983 1.15038
 N245 N 0.66820 0.86594 1.17937
 N246 N 0.67961 0.86623 1.16785
 C247 C 0.68957 0.87932 1.17031
 C248 C 0.68409 0.88781 1.18412
 C249 C 0.67046 0.87890 1.18952
 H250 H 0.70002 0.88235 1.16258
 H251 H 0.66270 0.88164 1.20001
 N252 N 0.67956 0.83206 1.13387
 N253 N 0.66868 0.81995 1.13454
 C254 C 0.67096 0.80995 1.12148
 C255 C 0.68397 0.81600 1.11211
 C256 C 0.68911 0.83004 1.12043
 H257 H 0.66362 0.79909 1.11901
 H258 H 0.69906 0.83824 1.11697
 H259 H 0.67041 0.83136 1.16437
 H260 H 0.65573 0.84319 1.15100
 N261 N 0.13415 0.32040 1.16800
 N262 N 0.13392 0.33227 1.17903
 C263 C 0.12047 0.33044 1.18864
 C264 C 0.11177 0.31663 1.18342
 C265 C 0.12090 0.31061 1.17024
 H266 H 0.11737 0.33850 1.19879
 H267 H 0.11830 0.29978 1.16291
 Cu268 Cu 0.15142 0.34875 1.18014
 Cu269 Cu 0.15199 0.31812 1.15209
 Cu270 Cu 0.18048 0.34994 1.15027
 N271 N 0.16826 0.36591 1.17943
 N272 N 0.17952 0.36634 1.16775
 C273 C 0.18937 0.37952 1.17010
 C274 C 0.18400 0.38793 1.18400
 C275 C 0.17054 0.37887 1.18957
 H276 H 0.19965 0.38271 1.16221
 H277 H 0.16290 0.38150 1.20017
 N278 N 0.17947 0.33216 1.13376
 N279 N 0.16862 0.32002 1.13446
 C280 C 0.17094 0.30998 1.12144
 C281 C 0.18395 0.31601 1.11206
 C282 C 0.18905 0.33011 1.12033
 H283 H 0.16364 0.29908 1.11902
 H284 H 0.19898 0.33832 1.11686
 H285 H 0.17044 0.33143 1.16423
 H286 H 0.15567 0.34330 1.15101
 N287 N 0.13409 0.82037 0.66790
 N288 N 0.13412 0.83199 0.67919
 C289 C 0.12077 0.83007 0.68894
 C290 C 0.11187 0.81646 0.68352
 C291 C 0.12077 0.81065 0.67009
 H292 H 0.11786 0.83795 0.69928
 H293 H 0.11795 0.80003 0.66255
 Cu294 Cu 0.15161 0.84852 0.68034
 Cu295 Cu 0.15165 0.81837 0.65165
 Cu296 Cu 0.18183 0.84846 0.65163
 N297 N 0.16817 0.86596 0.67916
 N298 N 0.17982 0.86599 0.66786
 C299 C 0.18957 0.87927 0.67004
 C300 C 0.18374 0.88816 0.68346
 C301 C 0.17010 0.87929 0.68889
 H302 H 0.20022 0.88208 0.66249
 H303 H 0.16219 0.88220 0.69922
 N304 N 0.18005 0.83164 0.63423
 N305 N 0.16851 0.82014 0.63423
 C306 C 0.17046 0.81055 0.62082
 C307 C 0.18394 0.81626 0.61188
 C308 C 0.18966 0.82969 0.62082
 H309 H 0.16264 0.80016 0.61785
 H310 H 0.20009 0.83748 0.61785
 H311 H 0.17000 0.83017 0.66486
 H312 H 0.15674 0.84345 0.65135
 N313 N 0.36617 0.67959 0.66792
 N314 N 0.36597 0.66808 0.67934
 C315 C 0.37897 0.67032 0.68947
 C316 C 0.38787 0.68397 0.68411
 C317 C 0.37929 0.68951 0.67037
 H318 H 0.38177 0.66253 0.69993
 H319 H 0.38233 0.69994 0.66263
 Cu320 Cu 0.34881 0.65121 0.67978
 Cu321 Cu 0.34968 0.68064 0.65047
 Cu322 Cu 0.31940 0.65035 0.65044
 N323 N 0.33195 0.63404 0.67930
 N324 N 0.32046 0.63385 0.66787
 C325 C 0.31055 0.62072 0.67029
 C326 C 0.31609 0.61212 0.68402
 C327 C 0.32972 0.62102 0.68941
 H328 H 0.30013 0.61769 0.66254
 H329 H 0.33750 0.61822 0.69987
 N330 N 0.32043 0.66809 0.63382
 N331 N 0.33195 0.67962 0.63383
 C332 C 0.32953 0.68968 0.62082
 C333 C 0.31582 0.68424 0.61212
 C334 C 0.31038 0.67052 0.62081
 H335 H 0.33729 0.70013 0.61787
 H336 H 0.29994 0.66276 0.61784
 H337 H 0.33096 0.66903 0.66330
 H338 H 0.34448 0.65559 0.65033
 N339 N 0.36628 0.17944 1.16784
 N340 N 0.36571 0.16834 1.17964
 C341 C 0.37865 0.17064 1.18983
 C342 C 0.38785 0.18395 1.18416
 C343 C 0.37953 0.18921 1.17016
 H344 H 0.38118 0.16311 1.20053
 H345 H 0.38284 0.19937 1.16216
 Cu346 Cu 0.34845 0.15160 1.18046
 Cu347 Cu 0.34993 0.18031 1.15029
 Cu348 Cu 0.31803 0.15191 1.15206
 N349 N 0.33205 0.13404 1.17919
 N350 N 0.32029 0.13415 1.16803
 C351 C 0.31055 0.12085 1.17019
 C352 C 0.31650 0.11181 1.18345
 C353 C 0.33021 0.12061 1.18881
 H354 H 0.29981 0.11816 1.16275
 H355 H 0.33820 0.11759 1.19905
 N356 N 0.32003 0.16845 1.13440
 N357 N 0.33219 0.17926 1.13370
 C358 C 0.33017 0.18880 1.12025
 C359 C 0.31605 0.18373 1.11198
 C360 C 0.30998 0.17075 1.12137
 H361 H 0.33839 0.19872 1.11678
 H362 H 0.29904 0.16349 1.11896
 H363 H 0.33124 0.17039 1.16415
 H364 H 0.34325 0.15549 1.15121
 N365 N 0.86612 0.67960 1.16800
 N366 N 0.86586 0.66814 1.17948
 C367 C 0.87875 0.67047 1.18972
 C368 C 0.88763 0.68414 1.18438
 C369 C 0.87915 0.68961 1.17056
 H370 H 0.88154 0.66268 1.20016
 H371 H 0.88221 0.70003 1.16281
 Cu372 Cu 0.84905 0.65096 1.17928
 Cu373 Cu 0.84980 0.68055 1.15033
 Cu374 Cu 0.81794 0.65194 1.15207
 N375 N 0.83214 0.63386 1.17909
 N376 N 0.82010 0.63424 1.16823
 C377 C 0.81014 0.62115 1.17064
 C378 C 0.81624 0.61198 1.18375
 C379 C 0.83026 0.62049 1.18878
 H380 H 0.79919 0.61866 1.16343
 H381 H 0.83847 0.61724 1.19876
 N382 N 0.81989 0.66854 1.13439
 N383 N 0.83203 0.67941 1.13372
 C384 C 0.82998 0.68895 1.12028
 C385 C 0.81590 0.68383 1.11198
 C386 C 0.80986 0.67082 1.12135
 H387 H 0.83818 0.69889 1.11682
 H388 H 0.79895 0.66352 1.11891
 H389 H 0.83146 0.67011 1.16412
 H390 H 0.84311 0.65574 1.15035
 N391 N 0.86606 0.17956 0.66791
 N392 N 0.86580 0.16810 0.67939
 C393 C 0.87868 0.17044 0.68964
 C394 C 0.88756 0.18412 0.68431
 C395 C 0.87908 0.18958 0.67048
 H396 H 0.88146 0.16265 0.70009
 H397 H 0.88214 0.20000 0.66274
 Cu398 Cu 0.84899 0.15092 0.67918
 Cu399 Cu 0.84975 0.18049 0.65022
 Cu400 Cu 0.81791 0.15186 0.65195
 N401 N 0.83210 0.13380 0.67899
 N402 N 0.82006 0.13417 0.66812
 C403 C 0.81010 0.12108 0.67053
 C404 C 0.81620 0.11192 0.68365
 C405 C 0.83020 0.12044 0.68869
 H406 H 0.79915 0.11859 0.66332
 H407 H 0.83842 0.11720 0.69868
 N408 N 0.81987 0.16845 0.63427
 N409 N 0.83199 0.17933 0.63360
 C410 C 0.82995 0.18885 0.62015
 C411 C 0.81588 0.18372 0.61184
 C412 C 0.80984 0.17071 0.62121
 H413 H 0.83815 0.19880 0.61669
 H414 H 0.79895 0.16340 0.61877
 H415 H 0.83141 0.17005 0.66399
 H416 H 0.84307 0.15567 0.65024
 N417 N 0.32047 0.36627 0.66760
 N418 N 0.33208 0.36615 0.67891
 C419 C 0.32994 0.37924 0.68892
 C420 C 0.31618 0.38805 0.68367
 C421 C 0.31049 0.37935 0.67008
 H422 H 0.33782 0.38210 0.69928
 H423 H 0.29984 0.38221 0.66256
 Cu424 Cu 0.34893 0.34895 0.67946
 Cu425 Cu 0.31931 0.34965 0.65032
 Cu426 Cu 0.34961 0.31936 0.65035
 N427 N 0.36614 0.33211 0.67894
 N428 N 0.36624 0.32050 0.66764
 C429 C 0.37932 0.31052 0.67015
 C430 C 0.38803 0.31619 0.68374
 C431 C 0.37923 0.32995 0.68897
 H432 H 0.38217 0.29987 0.66264
 H433 H 0.38209 0.33782 0.69933
 N434 N 0.33177 0.32029 0.63384
 N435 N 0.32024 0.33183 0.63383
 C436 C 0.31015 0.32939 0.62086
 C437 C 0.31560 0.31566 0.61219
 C438 C 0.32933 0.31022 0.62088
 H439 H 0.29971 0.33717 0.61788
 H440 H 0.33711 0.29978 0.61792
 H441 H 0.33093 0.33101 0.66334
 H442 H 0.34438 0.34441 0.65018
 N443 N 0.32046 0.86630 0.16758
 N444 N 0.33211 0.86622 0.17885
 C445 C 0.32982 0.87916 0.18901
 C446 C 0.31606 0.88796 0.18376
 C447 C 0.31043 0.87933 0.17011
 H448 H 0.33777 0.88207 0.19929
 H449 H 0.29990 0.88232 0.16245
 Cu450 Cu 0.34920 0.84929 0.17888
 Cu451 Cu 0.31942 0.84984 0.15009
 Cu452 Cu 0.34974 0.81948 0.15017
 N453 N 0.36612 0.83219 0.17893
 N454 N 0.36618 0.82052 0.16768
 C455 C 0.37922 0.81050 0.17025
 C456 C 0.38786 0.81613 0.18389
 C457 C 0.37907 0.82990 0.18910
 H458 H 0.38220 0.79996 0.16261
 H459 H 0.38198 0.83786 0.19936
 N460 N 0.33204 0.82058 0.13349
 N461 N 0.32051 0.83212 0.13346
 C462 C 0.31048 0.82971 0.12043
 C463 C 0.31595 0.81599 0.11177
 C464 C 0.32965 0.81053 0.12050
 H465 H 0.30003 0.83748 0.11744
 H466 H 0.33742 0.80008 0.11757
 H467 H 0.33113 0.83126 0.16303
 H468 H 0.34445 0.84449 0.14964
 N469 N 0.82033 0.36631 0.16779
 N470 N 0.83186 0.36606 0.17919
 C471 C 0.82964 0.37903 0.18934
 C472 C 0.81597 0.38795 0.18402
 C473 C 0.81040 0.37942 0.17028
 H474 H 0.83749 0.38183 0.19973
 H475 H 0.79999 0.38253 0.16253
 Cu476 Cu 0.84876 0.34894 0.17923
 Cu477 Cu 0.81930 0.34990 0.15022
 Cu478 Cu 0.84965 0.31950 0.15026
 N479 N 0.86584 0.33201 0.17924
 N480 N 0.86606 0.32049 0.16785
 C481 C 0.87917 0.31054 0.17035
 C482 C 0.88772 0.31610 0.18409
 C483 C 0.87883 0.32977 0.18939
 H484 H 0.88226 0.30013 0.16261
 H485 H 0.88166 0.33763 0.19976
 N486 N 0.83196 0.32066 0.13355
 N487 N 0.82043 0.33221 0.13353
 C488 C 0.81041 0.32983 0.12050
 C489 C 0.81588 0.31613 0.11181
 C490 C 0.82957 0.31064 0.12053
 H491 H 0.79996 0.33760 0.11753
 H492 H 0.83732 0.30018 0.11759
 H493 H 0.83086 0.33112 0.16297
 H494 H 0.84432 0.34449 0.14989
 N495 N 0.82038 0.86647 0.66781
 N496 N 0.83200 0.86635 0.67911
 C497 C 0.82969 0.87928 0.68930
 C498 C 0.81594 0.88810 0.68403
 C499 C 0.81036 0.87951 0.67033
 H500 H 0.83758 0.88213 0.69963
 H501 H 0.79987 0.88254 0.66264
 Cu502 Cu 0.84913 0.84944 0.67911
 Cu503 Cu 0.81934 0.85002 0.65029
 Cu504 Cu 0.84965 0.81966 0.65035
 N505 N 0.86602 0.83229 0.67915
 N506 N 0.86610 0.82067 0.66787
 C507 C 0.87916 0.81065 0.67040
 C508 C 0.88778 0.81623 0.68408
 C509 C 0.87897 0.82999 0.68933
 H510 H 0.88218 0.80017 0.66271
 H511 H 0.88186 0.83788 0.69964
 N512 N 0.83196 0.82077 0.63368
 N513 N 0.82043 0.83232 0.63365
 C514 C 0.81040 0.82992 0.62063
 C515 C 0.81586 0.81620 0.61196
 C516 C 0.82956 0.81073 0.62068
 H517 H 0.79995 0.83769 0.61765
 H518 H 0.83732 0.80027 0.61775
 H519 H 0.83105 0.83146 0.66325
 H520 H 0.84437 0.84470 0.64985
 N521 N 0.67968 0.63377 0.66807
 N522 N 0.66827 0.63409 0.67962
 C523 C 0.67069 0.62125 0.68989
 C524 C 0.68430 0.61229 0.68446
 C525 C 0.68968 0.62072 0.67057
 H526 H 0.66300 0.61857 0.70042
 H527 H 0.70003 0.61757 0.66273
 Cu528 Cu 0.65100 0.65089 0.67962
 Cu529 Cu 0.68059 0.65009 0.65041
 Cu530 Cu 0.65194 0.68192 0.65216
 N531 N 0.63391 0.66787 0.67928
 N532 N 0.63424 0.67985 0.66834
 C533 C 0.62115 0.68984 0.67074
 C534 C 0.61202 0.68385 0.68394
 C535 C 0.62059 0.66988 0.68904
 H536 H 0.61860 0.70074 0.66346
 H537 H 0.61745 0.66178 0.69912
 N538 N 0.66853 0.67995 0.63447
 N539 N 0.67941 0.66782 0.63379
 C540 C 0.68895 0.66985 0.62033
 C541 C 0.68383 0.68395 0.61204
 C542 C 0.67080 0.68998 0.62141
 H543 H 0.69887 0.66163 0.61684
 H544 H 0.66348 0.70088 0.61896
 H545 H 0.67024 0.66839 0.66438
 H546 H 0.65577 0.65671 0.65061
 N547 N 0.67956 0.13335 0.16759
 N548 N 0.66817 0.13366 0.17914
 C549 C 0.67047 0.12071 0.18931
 C550 C 0.68406 0.11174 0.18386
 C551 C 0.68950 0.12023 0.17002
 H552 H 0.66277 0.11800 0.19985
 H553 H 0.69988 0.11713 0.16222
 Cu554 Cu 0.65121 0.15075 0.17962
 Cu555 Cu 0.68059 0.14982 0.15014
 Cu556 Cu 0.65203 0.18168 0.15195
 N557 N 0.63380 0.16737 0.17873
 N558 N 0.63414 0.17937 0.16782
 C559 C 0.62095 0.18925 0.17014
 C560 C 0.61175 0.18315 0.18324
 C561 C 0.62035 0.16921 0.18835
 H562 H 0.61843 0.20018 0.16291
 H563 H 0.61718 0.16108 0.19843
 N564 N 0.66874 0.17984 0.13437
 N565 N 0.67961 0.16769 0.13367
 C566 C 0.68921 0.16979 0.12027
 C567 C 0.68413 0.18393 0.11203
 C568 C 0.67109 0.18994 0.12139
 H569 H 0.69914 0.16157 0.11678
 H570 H 0.66377 0.20085 0.11897
 H571 H 0.67035 0.16818 0.16405
 H572 H 0.65575 0.15649 0.15056
 N573 N 0.17955 0.63376 0.16766
 N574 N 0.16812 0.63407 0.17916
 C575 C 0.17044 0.62119 0.18943
 C576 C 0.18410 0.61228 0.18408
 C577 C 0.18956 0.62072 0.17022
 H578 H 0.16266 0.61845 0.19991
 H579 H 0.19991 0.61757 0.16240
 Cu580 Cu 0.15086 0.65084 0.17898
 Cu581 Cu 0.18051 0.65009 0.15000
 Cu582 Cu 0.15188 0.68196 0.15177
 N583 N 0.13384 0.66788 0.17885
 N584 N 0.13418 0.67990 0.16797
 C585 C 0.12109 0.68989 0.17042
 C586 C 0.11195 0.68382 0.18358
 C587 C 0.12047 0.66979 0.18859
 H588 H 0.11852 0.70076 0.16313
 H589 H 0.11724 0.66159 0.19859
 N590 N 0.16850 0.68001 0.13408
 N591 N 0.17938 0.66787 0.13341
 C592 C 0.18894 0.66992 0.11997
 C593 C 0.18384 0.68402 0.11169
 C594 C 0.17081 0.69006 0.12105
 H595 H 0.19889 0.66170 0.11651
 H596 H 0.16351 0.70097 0.11861
 H597 H 0.17009 0.66840 0.16390
 H598 H 0.15569 0.65685 0.15008
 N599 N 0.17984 0.13378 0.66827
 N600 N 0.16808 0.13376 0.67946
 C601 C 0.17003 0.12049 0.68930
 C602 C 0.18380 0.11169 0.68402
 C603 C 0.18968 0.12057 0.67061
 H604 H 0.16199 0.11747 0.69950
 H605 H 0.20039 0.11779 0.66312
 Cu606 Cu 0.15138 0.15113 0.67960
 Cu607 Cu 0.18177 0.15121 0.65172
 Cu608 Cu 0.15150 0.18153 0.65180
 N609 N 0.13402 0.16784 0.67951
 N610 N 0.13406 0.17961 0.66835
 C611 C 0.12084 0.18944 0.67069
 C612 C 0.11192 0.18354 0.68407
 C613 C 0.12071 0.16977 0.68934
 H614 H 0.11807 0.20014 0.66322
 H615 H 0.11767 0.16173 0.69952
 N616 N 0.16834 0.17964 0.63425
 N617 N 0.17988 0.16808 0.63422
 C618 C 0.18943 0.17002 0.62076
 C619 C 0.18369 0.18349 0.61185
 C620 C 0.17026 0.18922 0.62082
 H621 H 0.19985 0.16222 0.61775
 H622 H 0.16246 0.19965 0.61788
 H623 H 0.16991 0.16957 0.66457
 H624 H 0.15679 0.15656 0.65085
 N625 N 0.32028 0.63376 0.33200
 N626 N 0.33195 0.63384 0.32069
 C627 C 0.32973 0.62086 0.31057
 C628 C 0.31590 0.61212 0.31577
 C629 C 0.31025 0.62078 0.32941
 H630 H 0.33765 0.61795 0.30024
 H631 H 0.29968 0.61785 0.33702
 Cu632 Cu 0.34890 0.65088 0.32066
 Cu633 Cu 0.31918 0.65023 0.34949
 Cu634 Cu 0.34952 0.68055 0.34946
 N635 N 0.36596 0.66782 0.32066
 N636 N 0.36602 0.67947 0.33196
 C637 C 0.37901 0.68951 0.32936
 C638 C 0.38769 0.68390 0.31572
 C639 C 0.37896 0.67008 0.31053
 H640 H 0.38191 0.70006 0.33696
 H641 H 0.38189 0.66218 0.30019
 N642 N 0.33178 0.67947 0.36610
 N643 N 0.32024 0.66796 0.36612
 C644 C 0.31021 0.67035 0.37916
 C645 C 0.31568 0.68404 0.38786
 C646 C 0.32939 0.68950 0.37913
 H647 H 0.29976 0.66260 0.38215
 H648 H 0.33716 0.69993 0.38207
 H649 H 0.33082 0.66893 0.33657
 H650 H 0.34413 0.65565 0.34988
 N651 N 0.32017 0.13362 0.83199
 N652 N 0.33151 0.13404 0.82039
 C653 C 0.32925 0.12113 0.81017
 C654 C 0.31572 0.11209 0.81565
 C655 C 0.31029 0.12049 0.82953
 H656 H 0.33700 0.11843 0.79967
 H657 H 0.30000 0.11727 0.83742
 Cu658 Cu 0.34847 0.15110 0.82053
 Cu659 Cu 0.31925 0.14986 0.84976
 Cu660 Cu 0.34791 0.18176 0.84804
 N661 N 0.36578 0.16780 0.82073
 N662 N 0.36556 0.17969 0.83175
 C663 C 0.37873 0.18956 0.82940
 C664 C 0.38782 0.18357 0.81618
 C665 C 0.37917 0.16969 0.81102
 H666 H 0.38136 0.20036 0.83676
 H667 H 0.38233 0.16157 0.80094
 N668 N 0.33133 0.17970 0.86579
 N669 N 0.32045 0.16757 0.86644
 C670 C 0.31092 0.16957 0.87991
 C671 C 0.31605 0.18361 0.88824
 C672 C 0.32907 0.18967 0.87887
 H673 H 0.30096 0.16138 0.88335
 H674 H 0.33637 0.20056 0.88133
 H675 H 0.32944 0.16847 0.83618
 H676 H 0.34403 0.15667 0.84955
 N677 N 0.82054 0.63361 0.83232
 N678 N 0.83203 0.63383 0.82087
 C679 C 0.82983 0.62080 0.81079
 C680 C 0.81619 0.61190 0.81618
 C681 C 0.81062 0.62049 0.82990
 H682 H 0.83763 0.61802 0.80035
 H683 H 0.80018 0.61745 0.83764
 Cu684 Cu 0.84883 0.65104 0.82028
 Cu685 Cu 0.81943 0.65013 0.84971
 Cu686 Cu 0.84965 0.68042 0.84964
 N687 N 0.86600 0.66789 0.82080
 N688 N 0.86618 0.67937 0.83222
 C689 C 0.87928 0.68932 0.82977
 C690 C 0.88790 0.68380 0.81605
 C691 C 0.87904 0.67013 0.81070
 H692 H 0.88228 0.69976 0.83748
 H693 H 0.88187 0.66235 0.80026
 N694 N 0.83191 0.67941 0.86625
 N695 N 0.82040 0.66788 0.86628
 C696 C 0.81036 0.67028 0.87931
 C697 C 0.81580 0.68400 0.88798
 C698 C 0.82950 0.68946 0.87925
 H699 H 0.79993 0.66251 0.88231
 H700 H 0.83726 0.69990 0.88218
 H701 H 0.83091 0.66888 0.83671
 H702 H 0.84447 0.65540 0.84966
 N703 N 0.82054 0.13352 0.33219
 N704 N 0.83205 0.13374 0.32076
 C705 C 0.82987 0.12072 0.31067
 C706 C 0.81623 0.11181 0.31605
 C707 C 0.81064 0.12039 0.32976
 H708 H 0.83768 0.11794 0.30023
 H709 H 0.80018 0.11735 0.33748
 Cu710 Cu 0.84887 0.15094 0.32024
 Cu711 Cu 0.81943 0.15004 0.34958
 Cu712 Cu 0.84965 0.18035 0.34954
 N713 N 0.86602 0.16781 0.32070
 N714 N 0.86618 0.17931 0.33212
 C715 C 0.87928 0.18926 0.32964
 C716 C 0.88789 0.18373 0.31592
 C717 C 0.87903 0.17007 0.31058
 H718 H 0.88227 0.19972 0.33734
 H719 H 0.88184 0.16229 0.30014
 N720 N 0.83191 0.17931 0.36616
 N721 N 0.82040 0.16777 0.36618
 C722 C 0.81034 0.17017 0.37919
 C723 C 0.81577 0.18388 0.38787
 C724 C 0.82948 0.18935 0.37916
 H725 H 0.79990 0.16240 0.38217
 H726 H 0.83722 0.19980 0.38209
 H727 H 0.83095 0.16879 0.33662
 H728 H 0.84448 0.15534 0.34962
 N729 N 0.67971 0.36608 0.33186
 N730 N 0.66838 0.36569 0.32026
 C731 C 0.67067 0.37861 0.31004
 C732 C 0.68421 0.38762 0.31551
 C733 C 0.68962 0.37920 0.32940
 H734 H 0.66294 0.38133 0.29953
 H735 H 0.69990 0.38238 0.33727
 Cu736 Cu 0.65142 0.34865 0.32040
 Cu737 Cu 0.68062 0.34982 0.34962
 Cu738 Cu 0.65197 0.31793 0.34789
 N739 N 0.63412 0.33194 0.32061
 N740 N 0.63434 0.32003 0.33162
 C741 C 0.62117 0.31016 0.32926
 C742 C 0.61210 0.31619 0.31605
 C743 C 0.62075 0.33008 0.31089
 H744 H 0.61855 0.29933 0.33661
 H745 H 0.61760 0.33822 0.30082
 N746 N 0.66853 0.31995 0.36563
 N747 N 0.67941 0.33208 0.36627
 C748 C 0.68893 0.33006 0.37973
 C749 C 0.68380 0.31601 0.38806
 C750 C 0.67079 0.30996 0.37871
 H751 H 0.69889 0.33825 0.38317
 H752 H 0.66349 0.29906 0.38117
 H753 H 0.67043 0.33125 0.33603
 H754 H 0.65583 0.34302 0.34942
 N755 N 0.67946 0.86635 0.83225
 N756 N 0.66819 0.86595 0.82060
 C757 C 0.67048 0.87892 0.81044
 C758 C 0.68395 0.88797 0.81599
 C759 C 0.68932 0.87953 0.82988
 H760 H 0.66283 0.88159 0.79986
 H761 H 0.69959 0.88271 0.83777
 Cu762 Cu 0.65131 0.84881 0.81998
 Cu763 Cu 0.68038 0.84997 0.84978
 Cu764 Cu 0.65185 0.81818 0.84809
 N765 N 0.63382 0.83229 0.82109
 N766 N 0.63404 0.82043 0.83214
 C767 C 0.62080 0.81062 0.82991
 C768 C 0.61168 0.81662 0.81671
 C769 C 0.62038 0.83044 0.81147
 H770 H 0.61819 0.79980 0.83727
 H771 H 0.61729 0.83850 0.80130
 N772 N 0.66848 0.82010 0.86571
 N773 N 0.67934 0.83223 0.86635
 C774 C 0.68892 0.83019 0.87976
 C775 C 0.68383 0.81611 0.88809
 C776 C 0.67080 0.81007 0.87875
 H777 H 0.69886 0.83840 0.88319
 H778 H 0.66349 0.79918 0.88122
 H779 H 0.67029 0.83146 0.83589
 H780 H 0.65555 0.84335 0.84912
 N781 N 0.17931 0.36618 0.83228
 N782 N 0.16805 0.36578 0.82063
 C783 C 0.17037 0.37873 0.81046
 C784 C 0.18384 0.38777 0.81600
 C785 C 0.18919 0.37935 0.82990
 H786 H 0.16274 0.38138 0.79986
 H787 H 0.19947 0.38252 0.83778
 Cu788 Cu 0.15118 0.34864 0.82001
 Cu789 Cu 0.18024 0.34979 0.84981
 Cu790 Cu 0.15175 0.31798 0.84807
 N791 N 0.13371 0.33211 0.82110
 N792 N 0.13394 0.32024 0.83213
 C793 C 0.12070 0.31042 0.82989
 C794 C 0.11159 0.31643 0.81670
 C795 C 0.12027 0.33027 0.81147
 H796 H 0.11811 0.29958 0.83723
 H797 H 0.11718 0.33832 0.80131
 N798 N 0.16836 0.31989 0.86570
 N799 N 0.17921 0.33203 0.86636
 C800 C 0.18878 0.32998 0.87979
 C801 C 0.18370 0.31589 0.88809
 C802 C 0.17068 0.30984 0.87873
 H803 H 0.19872 0.33819 0.88323
 H804 H 0.16339 0.29893 0.88118
 H805 H 0.17019 0.33130 0.83588
 H806 H 0.15543 0.34316 0.84913
 N807 N 0.17949 0.86629 0.33200
 N808 N 0.16803 0.86605 0.32054
 C809 C 0.17027 0.87905 0.31041
 C810 C 0.18388 0.88798 0.31582
 C811 C 0.18940 0.87942 0.32957
 H812 H 0.16252 0.88181 0.29993
 H813 H 0.19978 0.88249 0.33736
 Cu814 Cu 0.15115 0.84892 0.32013
 Cu815 Cu 0.18054 0.84980 0.34944
 Cu816 Cu 0.15023 0.81955 0.34949
 N817 N 0.13399 0.83206 0.32058
 N818 N 0.13374 0.82062 0.33205
 C819 C 0.12059 0.81073 0.32964
 C820 C 0.11203 0.81625 0.31588
 C821 C 0.12098 0.82983 0.31045
 H822 H 0.11749 0.80035 0.33743
 H823 H 0.11824 0.83757 0.29996
 N824 N 0.16796 0.82058 0.36610
 N825 N 0.17950 0.83209 0.36608
 C826 C 0.18956 0.82968 0.37908
 C827 C 0.18411 0.81598 0.38779
 C828 C 0.17038 0.81054 0.37912
 H829 H 0.20001 0.83744 0.38203
 H830 H 0.16261 0.80011 0.38210
 H831 H 0.16893 0.83111 0.33663
 H832 H 0.15543 0.84460 0.34959
 C833 C 0.25624 1.05203 0.24405
 C834 C 0.24380 1.05202 0.25554
 C835 C 0.24017 1.03559 0.25888
 N836 N 0.25003 1.02566 0.24979
 C837 C 0.25989 1.03561 0.24070
 C838 C 0.22812 1.03026 0.27040
 C839 C 0.22438 1.01355 0.27413
 C840 C 0.21355 1.00853 0.28643
 C841 C 0.21356 0.99153 0.28643
 C842 C 0.22440 0.98653 0.27413
 N843 N 0.23068 1.00004 0.26654
 C844 C 0.22815 0.96982 0.27040
 C845 C 0.24020 0.96451 0.25888
 C846 C 0.24385 0.94809 0.25552
 C847 C 0.25628 0.94811 0.24403
 C848 C 0.25991 0.96453 0.24069
 N849 N 0.25005 0.97446 0.24979
 C850 C 0.27195 0.96987 0.22916
 C851 C 0.27569 0.98658 0.22544
 C852 C 0.28653 0.99159 0.21314
 C853 C 0.28652 1.00859 0.21314
 C854 C 0.27568 1.01359 0.22544
 N855 N 0.26940 1.00008 0.23303
 C856 C 0.27193 1.03030 0.22917
 H857 H 0.26189 1.06293 0.23876
 H858 H 0.23813 1.06291 0.26084
 H859 H 0.26195 1.00007 0.24335
 H860 H 0.20643 1.01630 0.29466
 H861 H 0.20646 0.98375 0.29466
 H862 H 0.23820 0.93719 0.26082
 H863 H 0.26195 0.93722 0.23873
 H864 H 0.29363 1.01637 0.20491
 H865 H 0.23813 1.00005 0.25623
 H866 H 0.29364 0.98382 0.20490
 C867 C 0.24376 0.44796 0.75570
 C868 C 0.25620 0.44798 0.74423
 C869 C 0.25984 0.46440 0.74089
 N870 N 0.24996 0.47433 0.74999
 C871 C 0.24010 0.46437 0.75906
 C872 C 0.27187 0.46975 0.72936
 C873 C 0.27562 0.48647 0.72566
 C874 C 0.28646 0.49148 0.71336
 C875 C 0.28643 0.50849 0.71335
 C876 C 0.27559 0.51348 0.72565
 N877 N 0.26931 0.49997 0.73324
 C878 C 0.27183 0.53020 0.72938
 C879 C 0.25976 0.53549 0.74089
 C880 C 0.25610 0.55190 0.74425
 C881 C 0.24367 0.55188 0.75574
 C882 C 0.24004 0.53545 0.75907
 N883 N 0.24991 0.52553 0.74997
 C884 C 0.22800 0.53011 0.77060
 C885 C 0.22427 0.51340 0.77433
 C886 C 0.21345 0.50838 0.78664
 C887 C 0.21346 0.49137 0.78663
 C888 C 0.22429 0.48638 0.77432
 N889 N 0.23057 0.49990 0.76673
 C890 C 0.22804 0.46967 0.77059
 H891 H 0.23809 0.43705 0.76098
 H892 H 0.26188 0.43709 0.73892
 H893 H 0.23800 0.49991 0.75641
 H894 H 0.29358 0.48371 0.70514
 H895 H 0.29352 0.51626 0.70511
 H896 H 0.26174 0.56281 0.73896
 H897 H 0.23801 0.56276 0.76106
 H898 H 0.20636 0.48359 0.79486
 H899 H 0.26186 0.49995 0.74355
 H900 H 0.20635 0.51614 0.79488
 C901 C 0.74395 -0.05220 0.24447
 C902 C 0.75640 -0.05223 0.25591
 C903 C 0.76006 -0.03582 0.25925
 N904 N 0.75020 -0.02585 0.25018
 C905 C 0.74032 -0.03578 0.24112
 C906 C 0.77212 -0.03052 0.27075
 C907 C 0.77587 -0.01382 0.27446
 C908 C 0.78667 -0.00883 0.28678
 C909 C 0.78668 0.00817 0.28677
 C910 C 0.77589 0.01320 0.27444
 N911 N 0.76962 -0.00030 0.26685
 C912 C 0.77218 0.02992 0.27070
 C913 C 0.76013 0.03526 0.25919
 C914 C 0.75651 0.05169 0.25583
 C915 C 0.74407 0.05171 0.24437
 C916 C 0.74041 0.03530 0.24104
 N917 N 0.75026 0.02534 0.25012
 C918 C 0.72836 0.03000 0.22953
 C919 C 0.72459 0.01330 0.22584
 C920 C 0.71378 0.00830 0.21353
 C921 C 0.71375 -0.00870 0.21356
 C922 C 0.72454 -0.01372 0.22588
 N923 N 0.73083 -0.00022 0.23346
 C924 C 0.72827 -0.03043 0.22962
 H925 H 0.73827 -0.06309 0.23920
 H926 H 0.76207 -0.06314 0.26119
 H927 H 0.73824 -0.00023 0.24380
 H928 H 0.79373 -0.01662 0.29504
 H929 H 0.79376 0.01593 0.29501
 H930 H 0.76218 0.06257 0.26112
 H931 H 0.73841 0.06262 0.23908
 H932 H 0.70666 -0.01646 0.20533
 H933 H 0.76222 -0.00028 0.25650
 H934 H 0.70672 0.01609 0.20527
 C935 C 0.74390 0.55177 0.74449
 C936 C 0.75631 0.55176 0.75597
 C937 C 0.75997 0.53534 0.75932
 N938 N 0.75013 0.52540 0.75022
 C939 C 0.74027 0.53536 0.74113
 C940 C 0.77202 0.53000 0.77084
 C941 C 0.77574 0.51328 0.77459
 C942 C 0.78658 0.50826 0.78687
 C943 C 0.78654 0.49126 0.78691
 C944 C 0.77568 0.48626 0.77465
 N945 N 0.76941 0.49978 0.76705
 C946 C 0.77192 0.46954 0.77095
 C947 C 0.75991 0.46423 0.75940
 C948 C 0.75629 0.44782 0.75603
 C949 C 0.74391 0.44783 0.74451
 C950 C 0.74026 0.46425 0.74115
 N951 N 0.75008 0.47419 0.75028
 C952 C 0.72824 0.46959 0.72961
 C953 C 0.72449 0.48631 0.72588
 C954 C 0.71365 0.49134 0.71360
 C955 C 0.71365 0.50834 0.71360
 C956 C 0.72449 0.51334 0.72588
 N957 N 0.73079 0.49982 0.73345
 C958 C 0.72823 0.53005 0.72960
 H959 H 0.73823 0.56268 0.73920
 H960 H 0.76196 0.56265 0.76128
 H961 H 0.73826 0.49981 0.74374
 H962 H 0.79372 0.51603 0.79506
 H963 H 0.79364 0.48348 0.79515
 H964 H 0.76195 0.43692 0.76134
 H965 H 0.73829 0.43694 0.73918
 H966 H 0.70654 0.51613 0.70538
 H967 H 0.76195 0.49978 0.75676
 H968 H 0.70653 0.48358 0.70539
 C969 C 0.24372 0.55192 0.24424
 C970 C 0.25617 0.55191 0.25567
 C971 C 0.25983 0.53549 0.25901
 N972 N 0.24996 0.52555 0.24996
 C973 C 0.24008 0.53550 0.24090
 C974 C 0.27190 0.53017 0.27051
 C975 C 0.27564 0.51345 0.27424
 C976 C 0.28642 0.50844 0.28658
 C977 C 0.28643 0.49144 0.28659
 C978 C 0.27565 0.48644 0.27425
 N979 N 0.26940 0.49995 0.26663
 C980 C 0.27192 0.46973 0.27053
 C981 C 0.25987 0.46442 0.25903
 C982 C 0.25623 0.44801 0.25570
 C983 C 0.24378 0.44801 0.24425
 C984 C 0.24012 0.46444 0.24091
 N985 N 0.24999 0.47438 0.24997
 C986 C 0.22808 0.46977 0.22940
 C987 C 0.22433 0.48648 0.22568
 C988 C 0.21357 0.49149 0.21333
 C989 C 0.21355 0.50849 0.21333
 C990 C 0.22431 0.51349 0.22568
 N991 N 0.23057 0.49998 0.23330
 C992 C 0.22803 0.53019 0.22940
 H993 H 0.23804 0.56282 0.23895
 H994 H 0.26184 0.56281 0.26094
 H995 H 0.23792 0.49997 0.24368
 H996 H 0.29346 0.51621 0.29484
 H997 H 0.29348 0.48366 0.29485
 H998 H 0.26191 0.43711 0.26098
 H999 H 0.23812 0.43712 0.23897
 H1000 H 0.20651 0.51628 0.20505
 H1001 H 0.26203 0.49996 0.25626
 H1002 H 0.20653 0.48373 0.20505
 C1003 C 0.74365 1.05223 0.75577
 C1004 C 0.75606 1.05220 0.74427
 C1005 C 0.75970 1.03577 0.74095
 N1006 N 0.74985 1.02585 0.75008
 C1007 C 0.74001 1.03582 0.75917
 C1008 C 0.77172 1.03042 0.72941
 C1009 C 0.77547 1.01370 0.72571
 C1010 C 0.78630 1.00868 0.71340
 C1011 C 0.78631 0.99168 0.71343
 C1012 C 0.77549 0.98669 0.72575
 N1013 N 0.76919 1.00021 0.73332
 C1014 C 0.77176 0.96999 0.72951
 C1015 C 0.75972 0.96469 0.74105
 C1016 C 0.75608 0.94828 0.74443
 C1017 C 0.74365 0.94830 0.75592
 C1018 C 0.74001 0.96472 0.75925
 N1019 N 0.74986 0.97465 0.75014
 C1020 C 0.72797 0.97007 0.77078
 C1021 C 0.72423 0.98679 0.77450
 C1022 C 0.71342 0.99181 0.78681
 C1023 C 0.71342 1.00881 0.78680
 C1024 C 0.72424 1.01381 0.77448
 N1025 N 0.73052 1.00029 0.76690
 C1026 C 0.72798 1.03052 0.77073
 H1027 H 0.73800 1.06314 0.76105
 H1028 H 0.76172 1.06308 0.73893
 H1029 H 0.73795 1.00028 0.75657
 H1030 H 0.79339 1.01645 0.70515
 H1031 H 0.79342 0.98390 0.70521
 H1032 H 0.76174 0.93737 0.73915
 H1033 H 0.73799 0.93741 0.76124
 H1034 H 0.70633 1.01660 0.79503
 H1035 H 0.76176 1.00023 0.74365
 H1036 H 0.70632 0.98404 0.79506
 C1037 C 0.74379 0.44818 0.25573
 C1038 C 0.75623 0.44818 0.24425
 C1039 C 0.75986 0.46460 0.24090
 N1040 N 0.74999 0.47454 0.24999
 C1041 C 0.74013 0.46459 0.25908
 C1042 C 0.77190 0.46993 0.22938
 C1043 C 0.77563 0.48664 0.22564
 C1044 C 0.78648 0.49165 0.21335
 C1045 C 0.78646 0.50865 0.21335
 C1046 C 0.77560 0.51365 0.22564
 N1047 N 0.76931 0.50014 0.23321
 C1048 C 0.77184 0.53036 0.22936
 C1049 C 0.75980 0.53568 0.24089
 C1050 C 0.75616 0.55210 0.24425
 C1051 C 0.74375 0.55209 0.25575
 C1052 C 0.74012 0.53567 0.25911
 N1053 N 0.74997 0.52573 0.25000
 C1054 C 0.72808 0.53035 0.27065
 C1055 C 0.72433 0.51363 0.27437
 C1056 C 0.71348 0.50861 0.28665
 C1057 C 0.71347 0.49161 0.28663
 C1058 C 0.72433 0.48662 0.27434
 N1059 N 0.73064 0.50013 0.26678
 C1060 C 0.72807 0.46991 0.27059
 H1061 H 0.73814 0.43727 0.26102
 H1062 H 0.76190 0.43729 0.23896
 H1063 H 0.73810 0.50014 0.25648
 H1064 H 0.79360 0.48388 0.20514
 H1065 H 0.79356 0.51643 0.20512
 H1066 H 0.76181 0.56299 0.23894
 H1067 H 0.73808 0.56299 0.26105
 H1068 H 0.70635 0.48382 0.29484
 H1069 H 0.76185 0.50014 0.24352
 H1070 H 0.70636 0.51638 0.29487
 C1071 C 0.25647 -0.05240 0.75560
 C1072 C 0.24405 -0.05235 0.74411
 C1073 C 0.24041 -0.03591 0.74082
 N1074 N 0.25025 -0.02601 0.74994
 C1075 C 0.26011 -0.03600 0.75900
 C1076 C 0.22836 -0.03054 0.72931
 C1077 C 0.22459 -0.01381 0.72564
 C1078 C 0.21372 -0.00876 0.71340
 C1079 C 0.21370 0.00824 0.71345
 C1080 C 0.22456 0.01320 0.72572
 N1081 N 0.23089 -0.00033 0.73324
 C1082 C 0.22828 0.02990 0.72948
 C1083 C 0.24033 0.03518 0.74101
 C1084 C 0.24396 0.05158 0.74441
 C1085 C 0.25638 0.05154 0.75588
 C1086 C 0.26004 0.03510 0.75918
 N1087 N 0.25019 0.02520 0.75007
 C1088 C 0.27210 0.02974 0.77068
 C1089 C 0.27586 0.01301 0.77436
 C1090 C 0.28673 0.00796 0.78661
 C1091 C 0.28675 -0.00904 0.78657
 C1092 C 0.27589 -0.01402 0.77430
 N1093 N 0.26956 -0.00048 0.76677
 C1094 C 0.27216 -0.03073 0.77054
 H1095 H 0.26213 -0.06332 0.76085
 H1096 H 0.23840 -0.06322 0.73878
 H1097 H 0.26208 -0.00044 0.75650
 H1098 H 0.20660 -0.01651 0.70517
 H1099 H 0.20656 0.01604 0.70527
 H1100 H 0.23829 0.06250 0.73915
 H1101 H 0.26202 0.06242 0.76121
 H1102 H 0.29389 -0.01684 0.79475
 H1103 H 0.23837 -0.00037 0.74352
 H1104 H 0.29385 0.01572 0.79483
 C1105 C 0.24384 0.25581 0.94821
 C1106 C 0.25581 0.24379 0.94821
 C1107 C 0.25932 0.24028 0.96459
 N1108 N 0.24984 0.24982 0.97448
 C1109 C 0.24034 0.25935 0.96459
 C1110 C 0.27114 0.22844 0.96990
 C1111 C 0.27492 0.22464 0.98657
 C1112 C 0.28660 0.21308 0.99157
 C1113 C 0.28659 0.21307 1.00855
 C1114 C 0.27491 0.22462 1.01355
 N1115 N 0.26791 0.23150 1.00006
 C1116 C 0.27112 0.22840 1.03022
 C1117 C 0.25934 0.24027 1.03554
 C1118 C 0.25585 0.24381 1.05191
 C1119 C 0.24391 0.25585 1.05191
 C1120 C 0.24040 0.25938 1.03554
 N1121 N 0.24987 0.24982 1.02564
 C1122 C 0.22860 0.27123 1.03023
 C1123 C 0.22481 0.27502 1.01356
 C1124 C 0.21314 0.28659 1.00856
 C1125 C 0.21312 0.28657 0.99158
 C1126 C 0.22477 0.27500 0.98657
 N1127 N 0.23178 0.26813 1.00006
 C1128 C 0.22853 0.27119 0.96990
 H1129 H 0.23836 0.26130 0.93734
 H1130 H 0.26128 0.23829 0.93734
 H1131 H 0.24088 0.25930 1.00006
 H1132 H 0.29434 0.20543 0.98381
 H1133 H 0.29433 0.20540 1.01630
 H1134 H 0.26132 0.23830 1.06278
 H1135 H 0.23845 0.26136 1.06279
 H1136 H 0.20538 0.29424 0.98382
 H1137 H 0.25879 0.24031 1.00006
 H1138 H 0.20542 0.29427 1.01632
 C1139 C 0.24403 0.75627 0.55180
 C1140 C 0.25596 0.74422 0.55181
 C1141 C 0.25945 0.74067 0.53544
 N1142 N 0.24998 0.75021 0.52554
 C1143 C 0.24052 0.75978 0.53543
 C1144 C 0.27123 0.72879 0.53013
 C1145 C 0.27501 0.72497 0.51347
 C1146 C 0.28669 0.71342 0.50848
 C1147 C 0.28668 0.71339 0.49150
 C1148 C 0.27499 0.72493 0.48649
 N1149 N 0.26799 0.73181 0.49997
 C1150 C 0.27119 0.72869 0.46982
 C1151 C 0.25941 0.74056 0.46450
 C1152 C 0.25591 0.74408 0.44812
 C1153 C 0.24400 0.75614 0.44812
 C1154 C 0.24051 0.75970 0.46449
 N1155 N 0.24997 0.75014 0.47439
 C1156 C 0.22873 0.77157 0.46979
 C1157 C 0.22495 0.77539 0.48645
 C1158 C 0.21325 0.78693 0.49144
 C1159 C 0.21325 0.78694 0.50842
 C1160 C 0.22495 0.77541 0.51343
 N1161 N 0.23197 0.76855 0.49995
 C1162 C 0.22873 0.77163 0.53010
 H1163 H 0.23857 0.76179 0.56267
 H1164 H 0.26144 0.73873 0.56268
 H1165 H 0.24115 0.75980 0.49996
 H1166 H 0.29444 0.70577 0.51625
 H1167 H 0.29442 0.70572 0.48374
 H1168 H 0.26136 0.73855 0.43725
 H1169 H 0.23853 0.76164 0.43724
 H1170 H 0.20549 0.79459 0.51617
 H1171 H 0.25883 0.74058 0.49997
 H1172 H 0.20550 0.79457 0.48367
 C1173 C 0.24421 0.74401 -0.05206
 C1174 C 0.25633 0.75586 -0.05209
 C1175 C 0.25986 0.75936 -0.03572
 N1176 N 0.25024 0.74999 -0.02580
 C1177 C 0.24064 0.74058 -0.03568
 C1178 C 0.27175 0.77111 -0.03043
 C1179 C 0.27551 0.77492 -0.01377
 C1180 C 0.28693 0.78670 -0.00878
 C1181 C 0.28689 0.78673 0.00820
 C1182 C 0.27544 0.77497 0.01322
 N1183 N 0.26871 0.76785 -0.00027
 C1184 C 0.27161 0.77123 0.02989
 C1185 C 0.25972 0.75949 0.03523
 C1186 C 0.25615 0.75604 0.05161
 C1187 C 0.24405 0.74418 0.05163
 C1188 C 0.24053 0.74068 0.03526
 N1189 N 0.25014 0.75006 0.02535
 C1190 C 0.22864 0.72893 0.02997
 C1191 C 0.22489 0.72513 0.01331
 C1192 C 0.21345 0.71336 0.00832
 C1193 C 0.21347 0.71334 -0.00866
 C1194 C 0.22492 0.72510 -0.01367
 N1195 N 0.23168 0.73220 -0.00019
 C1196 C 0.22872 0.72886 -0.03034
 H1197 H 0.23869 0.73856 -0.06292
 H1198 H 0.26187 0.76127 -0.06297
 H1199 H 0.24022 0.74157 -0.00021
 H1200 H 0.29453 0.79449 -0.01655
 H1201 H 0.29446 0.79455 0.01595
 H1202 H 0.26166 0.76150 0.06247
 H1203 H 0.23851 0.73876 0.06251
 H1204 H 0.20589 0.70553 -0.01640
 H1205 H 0.26017 0.75848 -0.00025
 H1206 H 0.20585 0.70557 0.01609
 C1207 C 0.24378 0.24390 0.44822
 C1208 C 0.25580 0.25585 0.44822
 C1209 C 0.25932 0.25934 0.46459
 N1210 N 0.24978 0.24986 0.47449
 C1211 C 0.24026 0.24039 0.46460
 C1212 C 0.27115 0.27114 0.46990
 C1213 C 0.27494 0.27491 0.48656
 C1214 C 0.28653 0.28653 0.49156
 C1215 C 0.28652 0.28653 0.50854
 C1216 C 0.27492 0.27491 0.51355
 N1217 N 0.26801 0.26796 0.50006
 C1218 C 0.27112 0.27112 0.53022
 C1219 C 0.25929 0.25931 0.53554
 C1220 C 0.25576 0.25579 0.55191
 C1221 C 0.24377 0.24381 0.55191
 C1222 C 0.24026 0.24032 0.53554
 N1223 N 0.24978 0.24982 0.52564
 C1224 C 0.22844 0.22851 0.53023
 C1225 C 0.22465 0.22475 0.51356
 C1226 C 0.21307 0.21312 0.50857
 C1227 C 0.21306 0.21315 0.49159
 C1228 C 0.22464 0.22479 0.48659
 N1229 N 0.23155 0.23172 0.50007
 C1230 C 0.22842 0.22859 0.46992
 H1231 H 0.23829 0.23843 0.43736
 H1232 H 0.26130 0.26132 0.43734
 H1233 H 0.24045 0.24074 0.50007
 H1234 H 0.29422 0.29424 0.48379
 H1235 H 0.29420 0.29423 0.51629
 H1236 H 0.26124 0.26126 0.56278
 H1237 H 0.23827 0.23832 0.56278
 H1238 H 0.20537 0.20545 0.48384
 H1239 H 0.25910 0.25896 0.50007
 H1240 H 0.20539 0.20540 0.51633
 C1241 C 0.74397 0.75608 0.94821
 C1242 C 0.75589 0.74402 0.94821
 C1243 C 0.75937 0.74048 0.96458
 N1244 N 0.74993 0.75004 0.97448
 C1245 C 0.74047 0.75961 0.96458
 C1246 C 0.77115 0.72860 0.96989
 C1247 C 0.77492 0.72478 0.98655
 C1248 C 0.78665 0.71328 0.99155
 C1249 C 0.78663 0.71324 1.00853
 C1250 C 0.77488 0.72472 1.01353
 N1251 N 0.76784 0.73157 1.00005
 C1252 C 0.77106 0.72847 1.03020
 C1253 C 0.75929 0.74035 1.03552
 C1254 C 0.75579 0.74387 1.05190
 C1255 C 0.74388 0.75594 1.05190
 C1256 C 0.74041 0.75951 1.03553
 N1257 N 0.74986 0.74994 1.02563
 C1258 C 0.72864 0.77139 1.03022
 C1259 C 0.72488 0.77522 1.01355
 C1260 C 0.71318 0.78675 1.00856
 C1261 C 0.71319 0.78677 0.99158
 C1262 C 0.72490 0.77526 0.98657
 N1263 N 0.73193 0.76840 1.00006
 C1264 C 0.72868 0.77147 0.96990
 H1265 H 0.73851 0.76160 0.93734
 H1266 H 0.76134 0.73851 0.93733
 H1267 H 0.74114 0.75968 1.00006
 H1268 H 0.79445 0.70568 0.98378
 H1269 H 0.79440 0.70561 1.01628
 H1270 H 0.76124 0.73834 1.06277
 H1271 H 0.73842 0.76145 1.06278
 H1272 H 0.70543 0.79442 0.98382
 H1273 H 0.75856 0.74022 1.00005
 H1274 H 0.70541 0.79438 1.01632
 C1275 C 0.74374 0.25572 0.55182
 C1276 C 0.75567 0.24366 0.55181
 C1277 C 0.75918 0.24016 0.53543
 N1278 N 0.74974 0.24975 0.52554
 C1279 C 0.74026 0.25929 0.53545
 C1280 C 0.77098 0.22831 0.53010
 C1281 C 0.77479 0.22455 0.51343
 C1282 C 0.78650 0.21303 0.50843
 C1283 C 0.78652 0.21306 0.49145
 C1284 C 0.77483 0.22460 0.48645
 N1285 N 0.76778 0.23142 0.49995
 C1286 C 0.77106 0.22842 0.46979
 C1287 C 0.75927 0.24029 0.46448
 C1288 C 0.75579 0.24385 0.44811
 C1289 C 0.74385 0.25589 0.44812
 C1290 C 0.74034 0.25940 0.46450
 N1291 N 0.74980 0.24983 0.47439
 C1292 C 0.72854 0.27124 0.46983
 C1293 C 0.72475 0.27502 0.48650
 C1294 C 0.71308 0.28658 0.49150
 C1295 C 0.71306 0.28656 0.50848
 C1296 C 0.72473 0.27499 0.51348
 N1297 N 0.73174 0.26813 0.49999
 C1298 C 0.72849 0.27117 0.53015
 H1299 H 0.73827 0.26121 0.56270
 H1300 H 0.76112 0.23813 0.56267
 H1301 H 0.74087 0.25933 0.49998
 H1302 H 0.79425 0.20538 0.51619
 H1303 H 0.79430 0.20544 0.48369
 H1304 H 0.76126 0.23836 0.43724
 H1305 H 0.73839 0.26142 0.43726
 H1306 H 0.70532 0.29421 0.51624
 H1307 H 0.75859 0.24016 0.49995
 H1308 H 0.70535 0.29425 0.48374
 C1309 C 0.74376 0.24430 -0.05194
 C1310 C 0.75569 0.25633 -0.05194
 C1311 C 0.75921 0.25981 -0.03557
 N1312 N 0.74976 0.25024 -0.02567
 C1313 C 0.74028 0.24073 -0.03557
 C1314 C 0.77099 0.27166 -0.03025
 C1315 C 0.77482 0.27539 -0.01358
 C1316 C 0.78643 0.28698 -0.00859
 C1317 C 0.78648 0.28691 0.00839
 C1318 C 0.77489 0.27529 0.01340
 N1319 N 0.76792 0.26840 -0.00009
 C1320 C 0.77114 0.27145 0.03006
 C1321 C 0.75935 0.25960 0.03538
 C1322 C 0.75585 0.25605 0.05175
 C1323 C 0.74388 0.24405 0.05176
 C1324 C 0.74036 0.24057 0.03538
 N1325 N 0.74985 0.25010 0.02548
 C1326 C 0.72855 0.22875 0.03007
 C1327 C 0.72477 0.22498 0.01341
 C1328 C 0.71321 0.21333 0.00841
 C1329 C 0.71320 0.21336 -0.00857
 C1330 C 0.72475 0.22502 -0.01358
 N1331 N 0.73166 0.23196 -0.00009
 C1332 C 0.72851 0.22885 -0.03025
 H1333 H 0.73828 0.23882 -0.06281
 H1334 H 0.76114 0.26186 -0.06281
 H1335 H 0.74056 0.24097 -0.00009
 H1336 H 0.79411 0.29470 -0.01635
 H1337 H 0.79419 0.29459 0.01615
 H1338 H 0.76134 0.26151 0.06262
 H1339 H 0.73842 0.23854 0.06263
 H1340 H 0.70553 0.20564 -0.01633
 H1341 H 0.75895 0.25946 -0.00009
 H1342 H 0.70555 0.20559 0.01617
 C1343 C 0.74387 0.74414 0.44825
 C1344 C 0.75582 0.75615 0.44824
 C1345 C 0.75934 0.75967 0.46460
 N1346 N 0.74987 0.75013 0.47452
 C1347 C 0.74038 0.74061 0.46463
 C1348 C 0.77113 0.77150 0.46990
 C1349 C 0.77494 0.77528 0.48656
 C1350 C 0.78657 0.78686 0.49154
 C1351 C 0.78659 0.78684 0.50852
 C1352 C 0.77497 0.77525 0.51354
 N1353 N 0.76801 0.76835 0.50006
 C1354 C 0.77120 0.77145 0.53021
 C1355 C 0.75939 0.75963 0.53555
 C1356 C 0.75588 0.75610 0.55192
 C1357 C 0.74391 0.74411 0.55194
 C1358 C 0.74039 0.74061 0.53557
 N1359 N 0.74989 0.75012 0.52566
 C1360 C 0.72857 0.72879 0.53027
 C1361 C 0.72479 0.72500 0.51362
 C1362 C 0.71317 0.71340 0.50863
 C1363 C 0.71318 0.71339 0.49165
 C1364 C 0.72480 0.72498 0.48663
 N1365 N 0.73174 0.73191 0.50011
 C1366 C 0.72859 0.72877 0.46997
 H1367 H 0.73840 0.73865 0.43739
 H1368 H 0.76128 0.76166 0.43736
 H1369 H 0.74074 0.74082 0.50010
 H1370 H 0.79428 0.79454 0.48377
 H1371 H 0.79431 0.79451 0.51627
 H1372 H 0.76137 0.76158 0.56279
 H1373 H 0.73843 0.73862 0.56282
 H1374 H 0.70548 0.70570 0.48390
 H1375 H 0.75899 0.75945 0.50008
 H1376 H 0.70547 0.70572 0.51640
 C1377 C 1.05209 0.25633 0.24437
 C1378 C 1.05207 0.24390 0.25584
 C1379 C 1.03562 0.24026 0.25915
 N1380 N 1.02568 0.25012 0.25005
 C1381 C 1.03566 0.25997 0.24099
 C1382 C 1.03026 0.22821 0.27064
 C1383 C 1.01352 0.22445 0.27431
 C1384 C 1.00848 0.21361 0.28659
 C1385 C 0.99145 0.21359 0.28653
 C1386 C 0.98646 0.22441 0.27422
 N1387 N 1.00001 0.23072 0.26669
 C1388 C 0.96973 0.22814 0.27047
 C1389 C 0.96443 0.24021 0.25898
 C1390 C 0.94799 0.24386 0.25561
 C1391 C 0.94801 0.25633 0.24419
 C1392 C 0.96446 0.25999 0.24088
 N1393 N 0.97440 0.25010 0.24995
 C1394 C 0.96981 0.27206 0.22941
 C1395 C 0.98656 0.27579 0.22572
 C1396 C 0.99159 0.28662 0.21343
 C1397 C 1.00861 0.28660 0.21344
 C1398 C 1.01361 0.27577 0.22574
 N1399 N 1.00007 0.26950 0.23332
 C1400 C 1.03034 0.27201 0.22946
 H1401 H 1.06302 0.26199 0.23910
 H1402 H 1.06297 0.23823 0.26115
 H1403 H 1.00005 0.26207 0.24364
 H1404 H 1.01624 0.20652 0.29484
 H1405 H 0.98365 0.20648 0.29473
 H1406 H 0.93707 0.23818 0.26085
 H1407 H 0.93711 0.26201 0.23890
 H1408 H 1.01641 0.29368 0.20521
 H1409 H 1.00003 0.23816 0.25637
 H1410 H 0.98381 0.29371 0.20519
 C1411 C 0.44794 0.25606 0.74439
 C1412 C 0.44794 0.24367 0.75591
 C1413 C 0.46438 0.24004 0.75928
 N1414 N 0.47434 0.24987 0.75017
 C1415 C 0.46439 0.25969 0.74104
 C1416 C 0.46972 0.22801 0.77081
 C1417 C 0.48646 0.22428 0.77454
 C1418 C 0.49148 0.21340 0.78679
 C1419 C 0.50851 0.21341 0.78679
 C1420 C 0.51353 0.22429 0.77454
 N1421 N 0.49999 0.23061 0.76700
 C1422 C 0.53027 0.22803 0.77081
 C1423 C 0.53560 0.24004 0.75926
 C1424 C 0.55204 0.24367 0.75589
 C1425 C 0.55205 0.25605 0.74436
 C1426 C 0.53561 0.25967 0.74099
 N1427 N 0.52565 0.24986 0.75012
 C1428 C 0.53027 0.27168 0.72943
 C1429 C 0.51353 0.27543 0.72573
 C1430 C 0.50850 0.28631 0.71348
 C1431 C 0.49147 0.28632 0.71350
 C1432 C 0.48646 0.27544 0.72576
 N1433 N 0.50000 0.26912 0.73329
 C1434 C 0.46972 0.27171 0.72949
 H1435 H 0.43703 0.26170 0.73908
 H1436 H 0.43703 0.23801 0.76121
 H1437 H 0.50000 0.26161 0.74355
 H1438 H 0.48369 0.20625 0.79498
 H1439 H 0.51630 0.20626 0.79497
 H1440 H 0.56295 0.23803 0.76121
 H1441 H 0.56296 0.26169 0.73904
 H1442 H 0.48368 0.29346 0.70532
 H1443 H 0.49999 0.23813 0.75675
 H1444 H 0.51627 0.29344 0.70527
 C1445 C -0.05216 0.24389 0.74442
 C1446 C -0.05216 0.25634 0.75585
 C1447 C -0.03571 0.25995 0.75919
 N1448 N -0.02576 0.25006 0.75014
 C1449 C -0.03572 0.24020 0.74109
 C1450 C -0.03038 0.27201 0.77066
 C1451 C -0.01364 0.27571 0.77438
 C1452 C -0.00862 0.28652 0.78667
 C1453 C 0.00840 0.28648 0.78668
 C1454 C 0.01342 0.27565 0.77440
 N1455 N -0.00011 0.26940 0.76681
 C1456 C 0.03016 0.27186 0.77072
 C1457 C 0.03549 0.25981 0.75922
 C1458 C 0.05193 0.25613 0.75589
 C1459 C 0.05192 0.24369 0.74444
 C1460 C 0.03548 0.24009 0.74109
 N1461 N 0.02553 0.24998 0.75015
 C1462 C 0.03014 0.22805 0.72960
 C1463 C 0.01340 0.22434 0.72589
 C1464 C 0.00838 0.21353 0.71360
 C1465 C -0.00865 0.21355 0.71360
 C1466 C -0.01366 0.22437 0.72590
 N1467 N -0.00013 0.23063 0.73347
 C1468 C -0.03040 0.22813 0.72962
 H1469 H -0.06308 0.23825 0.73913
 H1470 H -0.06307 0.26203 0.76111
 H1471 H -0.00013 0.23805 0.74380
 H1472 H -0.01641 0.29362 0.79489
 H1473 H 0.01618 0.29356 0.79491
 H1474 H 0.06285 0.26176 0.76118
 H1475 H 0.06283 0.23800 0.73916
 H1476 H -0.01643 0.20648 0.70538
 H1477 H -0.00010 0.26197 0.75650
 H1478 H 0.01616 0.20644 0.70536
 C1479 C 0.55221 0.25606 0.25569
 C1480 C 0.55222 0.24362 0.24424
 C1481 C 0.53578 0.23997 0.24092
 N1482 N 0.52581 0.24983 0.25000
 C1483 C 0.53576 0.25969 0.25905
 C1484 C 0.53046 0.22793 0.22943
 C1485 C 0.51372 0.22417 0.22575
 C1486 C 0.50871 0.21336 0.21346
 C1487 C 0.49169 0.21334 0.21348
 C1488 C 0.48666 0.22415 0.22578
 N1489 N 0.50018 0.23043 0.23335
 C1490 C 0.46992 0.22789 0.22950
 C1491 C 0.46458 0.23993 0.24100
 C1492 C 0.44814 0.24357 0.24434
 C1493 C 0.44813 0.25601 0.25578
 C1494 C 0.46457 0.25966 0.25910
 N1495 N 0.47453 0.24980 0.25004
 C1496 C 0.46988 0.27172 0.27058
 C1497 C 0.48662 0.27547 0.27428
 C1498 C 0.49162 0.28628 0.28657
 C1499 C 0.50864 0.28629 0.28656
 C1500 C 0.51367 0.27548 0.27426
 N1501 N 0.50015 0.26919 0.26669
 C1502 C 0.53041 0.27174 0.27054
 H1503 H 0.56311 0.26173 0.26096
 H1504 H 0.56313 0.23796 0.23895
 H1505 H 0.50016 0.26177 0.25637
 H1506 H 0.51650 0.20628 0.20522
 H1507 H 0.48391 0.20626 0.20526
 H1508 H 0.43723 0.23791 0.23907
 H1509 H 0.43721 0.26168 0.26106
 H1510 H 0.51642 0.29338 0.29478
 H1511 H 0.50018 0.23785 0.24368
 H1512 H 0.48382 0.29336 0.29480
 C1513 C 1.05208 0.75634 0.74435
 C1514 C 1.05207 0.74393 0.75584
 C1515 C 1.03562 0.74030 0.75919
 N1516 N 1.02567 0.75014 0.75008
 C1517 C 1.03564 0.75998 0.74099
 C1518 C 1.03027 0.72827 0.77071
 C1519 C 1.01353 0.72453 0.77441
 C1520 C 1.00850 0.71370 0.78670
 C1521 C 0.99147 0.71369 0.78667
 C1522 C 0.98647 0.72451 0.77436
 N1523 N 1.00001 0.73081 0.76680
 C1524 C 0.96974 0.72824 0.77061
 C1525 C 0.96442 0.74030 0.75911
 C1526 C 0.94798 0.74395 0.75575
 C1527 C 0.94800 0.75639 0.74430
 C1528 C 0.96444 0.76003 0.74097
 N1529 N 0.97439 0.75016 0.75005
 C1530 C 0.96979 0.77207 0.72946
 C1531 C 0.98653 0.77580 0.72574
 C1532 C 0.99155 0.78661 0.71344
 C1533 C 1.00858 0.78658 0.71343
 C1534 C 1.01358 0.77576 0.72573
 N1535 N 1.00005 0.76950 0.73333
 C1536 C 1.03032 0.77200 0.72945
 H1537 H 1.06300 0.76198 0.73906
 H1538 H 1.06297 0.73827 0.76115
 H1539 H 1.00004 0.76208 0.74366
 H1540 H 1.01627 0.70661 0.79494
 H1541 H 0.98367 0.70659 0.79488
 H1542 H 0.93706 0.73829 0.76102
 H1543 H 0.93709 0.76206 0.73900
 H1544 H 1.01637 0.79365 0.70519
 H1545 H 1.00003 0.73824 0.75649
 H1546 H 0.98377 0.79371 0.70520
 C1547 C 0.44799 0.75631 0.24421
 C1548 C 0.44797 0.74384 0.25563
 C1549 C 0.46441 0.74020 0.25900
 N1550 N 0.47439 0.75009 0.24998
 C1551 C 0.46444 0.75998 0.24092
 C1552 C 0.46972 0.72813 0.27048
 C1553 C 0.48645 0.72439 0.27423
 C1554 C 0.49145 0.71361 0.28657
 C1555 C 0.50847 0.71362 0.28660
 C1556 C 0.51350 0.72441 0.27429
 N1557 N 0.49999 0.73067 0.26665
 C1558 C 0.53024 0.72816 0.27060
 C1559 C 0.53559 0.74023 0.25913
 C1560 C 0.55204 0.74389 0.25583
 C1561 C 0.55206 0.75635 0.24440
 C1562 C 0.53562 0.76000 0.24103
 N1563 N 0.52564 0.75011 0.25006
 C1564 C 0.53031 0.77205 0.22952
 C1565 C 0.51358 0.77579 0.22580
 C1566 C 0.50858 0.78658 0.21346
 C1567 C 0.49155 0.78658 0.21344
 C1568 C 0.48653 0.77579 0.22576
 N1569 N 0.50004 0.76954 0.23339
 C1570 C 0.46979 0.77204 0.22945
 H1571 H 0.43709 0.76199 0.23892
 H1572 H 0.43705 0.73816 0.26087
 H1573 H 0.50002 0.76215 0.24375
 H1574 H 0.48365 0.70654 0.29481
 H1575 H 0.51625 0.70656 0.29487
 H1576 H 0.56294 0.73821 0.26112
 H1577 H 0.56298 0.76203 0.23914
 H1578 H 0.48378 0.79363 0.20516
 H1579 H 0.50001 0.73805 0.25629
 H1580 H 0.51637 0.79363 0.20521
 C1581 C -0.05206 0.74385 0.24442
 C1582 C -0.05206 0.75635 0.25578
 C1583 C -0.03561 0.76001 0.25907
 N1584 N -0.02565 0.75010 0.25004
 C1585 C -0.03562 0.74019 0.24106
 C1586 C -0.03028 0.77210 0.27050
 C1587 C -0.01354 0.77582 0.27417
 C1588 C -0.00851 0.78658 0.28650
 C1589 C 0.00851 0.78655 0.28647
 C1590 C 0.01351 0.77579 0.27413
 N1591 N -0.00002 0.76956 0.26653
 C1592 C 0.03024 0.77204 0.27039
 C1593 C 0.03557 0.75999 0.25891
 C1594 C 0.05201 0.75634 0.25554
 C1595 C 0.05201 0.74388 0.24412
 C1596 C 0.03556 0.74022 0.24083
 N1597 N 0.02560 0.75010 0.24989
 C1598 C 0.03022 0.72817 0.22936
 C1599 C 0.01348 0.72441 0.22573
 C1600 C 0.00844 0.71364 0.21341
 C1601 C -0.00858 0.71362 0.21348
 C1602 C -0.01357 0.72438 0.22584
 N1603 N -0.00003 0.73064 0.23340
 C1604 C -0.03030 0.72811 0.22960
 H1605 H -0.06298 0.73816 0.23919
 H1606 H -0.06297 0.76205 0.26105
 H1607 H -0.00002 0.73801 0.24377
 H1608 H -0.01629 0.79363 0.29478
 H1609 H 0.01630 0.79358 0.29474
 H1610 H 0.06293 0.76202 0.26078
 H1611 H 0.06291 0.73820 0.23882
 H1612 H -0.01638 0.70658 0.20524
 H1613 H -0.00003 0.76221 0.25616
 H1614 H 0.01621 0.70661 0.20511
 C1615 C 0.44787 0.74398 0.74453
 C1616 C 0.44785 0.75635 0.75605
 C1617 C 0.46429 0.75999 0.75939
 N1618 N 0.47426 0.75018 0.75027
 C1619 C 0.46431 0.74036 0.74116
 C1620 C 0.46960 0.77201 0.77093
 C1621 C 0.48635 0.77575 0.77464
 C1622 C 0.49135 0.78663 0.78687
 C1623 C 0.50838 0.78663 0.78687
 C1624 C 0.51341 0.77574 0.77464
 N1625 N 0.49989 0.76942 0.76711
 C1626 C 0.53017 0.77200 0.77093
 C1627 C 0.53552 0.75998 0.75939
 C1628 C 0.55197 0.75635 0.75603
 C1629 C 0.55198 0.74398 0.74451
 C1630 C 0.53555 0.74035 0.74114
 N1631 N 0.52558 0.75017 0.75026
 C1632 C 0.53023 0.72835 0.72959
 C1633 C 0.51348 0.72460 0.72589
 C1634 C 0.50848 0.71373 0.71366
 C1635 C 0.49145 0.71373 0.71366
 C1636 C 0.48641 0.72460 0.72591
 N1637 N 0.49994 0.73092 0.73344
 C1638 C 0.46966 0.72833 0.72964
 H1639 H 0.43696 0.73834 0.73922
 H1640 H 0.43693 0.76198 0.76137
 H1641 H 0.49993 0.73842 0.74370
 H1642 H 0.48356 0.79379 0.79504
 H1643 H 0.51615 0.79379 0.79504
 H1644 H 0.56287 0.76199 0.76134
 H1645 H 0.56290 0.73834 0.73920
 H1646 H 0.48367 0.70659 0.70548
 H1647 H 0.49990 0.76189 0.75688
 H1648 H 0.51627 0.70658 0.70548
 C1649 C 0.43182 0.29495 0.29441
 C1650 C 0.42484 0.28783 0.30849
 C1651 C 0.41061 0.29467 0.31553
 C1652 C 0.40309 0.30874 0.30855
 C1653 C 0.41034 0.31587 0.29444
 C1654 C 0.42457 0.30900 0.28743
 C1655 C 0.44579 0.28728 0.28653
 C1656 C 0.45704 0.28046 0.27953
 H1657 H 0.43027 0.27686 0.31392
 H1658 H 0.40549 0.28878 0.32636
 H1659 H 0.40500 0.32665 0.28864
 H1660 H 0.42980 0.31452 0.27644
 C1661 C 0.43179 0.79552 0.79500
 C1662 C 0.42496 0.80995 0.78841
 C1663 C 0.41087 0.81700 0.79553
 C1664 C 0.40324 0.80968 0.80939
 C1665 C 0.41045 0.79522 0.81602
 C1666 C 0.42455 0.78823 0.80886
 C1667 C 0.44561 0.78768 0.78698
 C1668 C 0.45678 0.78078 0.77990
 H1669 H 0.43042 0.81565 0.77761
 H1670 H 0.40596 0.82807 0.78991
 H1671 H 0.40523 0.78908 0.82665
 H1672 H 0.42969 0.77699 0.81402
 C1673 C -0.06837 0.29542 0.79446
 C1674 C -0.07531 0.28838 0.80860
 C1675 C -0.08956 0.29523 0.81562
 C1676 C -0.09712 0.30923 0.80855
 C1677 C -0.08989 0.31631 0.79441
 C1678 C -0.07564 0.30944 0.78743
 C1679 C -0.05443 0.28769 0.78658
 C1680 C -0.04320 0.28082 0.77958
 H1681 H -0.06984 0.27746 0.81409
 H1682 H -0.09465 0.28938 0.82647
 H1683 H -0.09523 0.32708 0.78859
 H1684 H -0.07042 0.31493 0.77641
 C1685 C -0.06828 0.79538 0.29441
 C1686 C -0.07553 0.80944 0.28745
 C1687 C -0.08974 0.81632 0.29449
 C1688 C -0.09697 0.80921 0.30862
 C1689 C -0.08945 0.79513 0.31559
 C1690 C -0.07524 0.78828 0.30852
 C1691 C -0.05433 0.78769 0.28650
 C1692 C -0.04310 0.78086 0.27947
 H1693 H -0.07032 0.81496 0.27645
 H1694 H -0.09508 0.82711 0.28870
 H1695 H -0.09456 0.78924 0.32641
 H1696 H -0.06980 0.77730 0.31394
 C1697 C 0.56822 0.70494 0.29453
 C1698 C 0.57500 0.71191 0.30877
 C1699 C 0.58921 0.70508 0.31585
 C1700 C 0.59690 0.69116 0.30875
 C1701 C 0.58985 0.68418 0.29449
 C1702 C 0.57563 0.69104 0.28745
 C1703 C 0.55427 0.71261 0.28662
 C1704 C 0.54305 0.71943 0.27958
 H1705 H 0.56943 0.72277 0.31428
 H1706 H 0.59418 0.71086 0.32678
 H1707 H 0.59532 0.67353 0.28860
 H1708 H 0.57056 0.68563 0.27634
 C1709 C 0.56812 0.20457 0.79481
 C1710 C 0.57514 0.19031 0.78804
 C1711 C 0.58926 0.18329 0.79515
 C1712 C 0.59662 0.19049 0.80915
 C1713 C 0.58930 0.20474 0.81596
 C1714 C 0.57518 0.21173 0.80882
 C1715 C 0.55427 0.21238 0.78684
 C1716 C 0.54309 0.21926 0.77978
 H1717 H 0.56985 0.18474 0.77712
 H1718 H 0.59445 0.17237 0.78949
 H1719 H 0.59449 0.21068 0.82670
 H1720 H 0.56992 0.22285 0.81409
 C1721 C 1.06812 0.70486 0.79473
 C1722 C 1.07530 0.69075 0.78782
 C1723 C 1.08945 0.68380 0.79490
 C1724 C 1.09669 0.69091 0.80900
 C1725 C 1.08921 0.70500 0.81595
 C1726 C 1.07505 0.71193 0.80884
 C1727 C 1.05425 0.71264 0.78676
 C1728 C 1.04308 0.71951 0.77969
 H1729 H 1.07009 0.68525 0.77682
 H1730 H 1.09477 0.67300 0.78912
 H1731 H 1.09431 0.71086 0.82678
 H1732 H 1.06966 0.72293 0.81423
 C1733 C 1.06808 0.20482 0.29471
 C1734 C 1.07529 0.19073 0.28778
 C1735 C 1.08945 0.18379 0.29485
 C1736 C 1.09667 0.19088 0.30898
 C1737 C 1.08915 0.20495 0.31595
 C1738 C 1.07499 0.21186 0.30884
 C1739 C 1.05422 0.21259 0.28673
 C1740 C 1.04305 0.21946 0.27965
 H1741 H 1.07011 0.18525 0.27676
 H1742 H 1.09480 0.17301 0.28906
 H1743 H 1.09423 0.21079 0.32680
 H1744 H 1.06957 0.22285 0.31425
 C1745 C 0.56804 0.29513 0.70526
 C1746 C 0.57503 0.30941 0.71199
 C1747 C 0.58909 0.31645 0.70481
 C1748 C 0.59643 0.30928 0.69078
 C1749 C 0.58915 0.29501 0.68400
 C1750 C 0.57508 0.28799 0.69122
 C1751 C 0.55423 0.28730 0.71331
 C1752 C 0.54308 0.28042 0.72042
 H1753 H 0.56974 0.31497 0.72293
 H1754 H 0.59425 0.32739 0.71045
 H1755 H 0.59433 0.28909 0.67324
 H1756 H 0.56984 0.27686 0.68596
 C1757 C 0.56820 0.79530 0.20544
 C1758 C 0.57523 0.80956 0.21216
 C1759 C 0.58928 0.81658 0.20494
 C1760 C 0.59656 0.80940 0.19088
 C1761 C 0.58926 0.79511 0.18415
 C1762 C 0.57521 0.78812 0.19141
 C1763 C 0.55434 0.78757 0.21345
 C1764 C 0.54314 0.78076 0.22053
 H1765 H 0.56999 0.81513 0.22312
 H1766 H 0.59448 0.82750 0.21058
 H1767 H 0.59442 0.78918 0.17338
 H1768 H 0.56995 0.77699 0.18618
 C1769 C 1.06810 0.29539 0.20526
 C1770 C 1.07509 0.30968 0.21196
 C1771 C 1.08914 0.31670 0.20476
 C1772 C 1.09648 0.30950 0.19074
 C1773 C 1.08919 0.29522 0.18399
 C1774 C 1.07513 0.28822 0.19122
 C1775 C 1.05431 0.28759 0.21332
 C1776 C 1.04316 0.28073 0.22045
 H1777 H 1.06981 0.31526 0.22290
 H1778 H 1.09430 0.32765 0.21038
 H1779 H 1.09437 0.28927 0.17324
 H1780 H 1.06988 0.27708 0.18599
 C1781 C 1.06810 0.79535 0.70526
 C1782 C 1.07517 0.80955 0.71204
 C1783 C 1.08926 0.81654 0.70488
 C1784 C 1.09655 0.80938 0.69081
 C1785 C 1.08917 0.79518 0.68398
 C1786 C 1.07507 0.78822 0.69118
 C1787 C 1.05428 0.78756 0.71331
 C1788 C 1.04313 0.78071 0.72043
 H1789 H 1.06993 0.81511 0.72301
 H1790 H 1.09448 0.82743 0.71055
 H1791 H 1.09431 0.78926 0.67319
 H1792 H 1.06975 0.77714 0.68589
 C1793 C 0.43177 0.70495 0.70569
 C1794 C 0.42457 0.69085 0.71261
 C1795 C 0.41040 0.68395 0.70553
 C1796 C 0.40317 0.69107 0.69142
 C1797 C 0.41067 0.70516 0.68446
 C1798 C 0.42484 0.71204 0.69157
 C1799 C 0.44566 0.71269 0.71365
 C1800 C 0.45685 0.71956 0.72069
 H1801 H 0.42977 0.68531 0.72360
 H1802 H 0.40510 0.67312 0.71128
 H1803 H 0.40559 0.71105 0.67363
 H1804 H 0.43026 0.72303 0.68617
 C1805 C 0.43193 0.20469 0.20560
 C1806 C 0.42448 0.19084 0.21273
 C1807 C 0.41025 0.18401 0.20571
 C1808 C 0.40320 0.19098 0.19143
 C1809 C 0.41093 0.20484 0.18427
 C1810 C 0.42517 0.21164 0.19133
 C1811 C 0.44588 0.21236 0.21350
 C1812 C 0.45710 0.21916 0.22053
 H1813 H 0.42955 0.18543 0.22386
 H1814 H 0.40476 0.17337 0.21163
 H1815 H 0.40597 0.21062 0.17332
 H1816 H 0.43076 0.22246 0.18576
 C1817 C -0.06831 0.70489 0.20580
 C1818 C -0.07562 0.69090 0.21281
 C1819 C -0.08987 0.68409 0.20581
 C1820 C -0.09705 0.69120 0.19167
 C1821 C -0.08946 0.70520 0.18464
 C1822 C -0.07522 0.71199 0.19167
 C1823 C -0.05436 0.71255 0.21368
 C1824 C -0.04313 0.71936 0.22068
 H1825 H -0.07043 0.68538 0.22382
 H1826 H -0.09525 0.67334 0.21163
 H1827 H -0.09453 0.71108 0.17379
 H1828 H -0.06972 0.72290 0.18620
 C1829 C -0.06844 0.20494 0.70580
 C1830 C -0.07575 0.19095 0.71281
 C1831 C -0.08998 0.18412 0.70580
 C1832 C -0.09715 0.19121 0.69164
 C1833 C -0.08957 0.20522 0.68462
 C1834 C -0.07534 0.21202 0.69166
 C1835 C -0.05447 0.21259 0.71368
 C1836 C -0.04323 0.21939 0.72068
 H1837 H -0.07058 0.18543 0.72384
 H1838 H -0.09536 0.17337 0.71162
 H1839 H -0.09462 0.21108 0.67376
 H1840 H -0.06985 0.22294 0.68620
 C1841 C 0.29509 0.43170 0.29440
 C1842 C 0.30915 0.42443 0.28743
 C1843 C 0.31598 0.41019 0.29442
 C1844 C 0.30881 0.40296 0.30852
 C1845 C 0.29473 0.41049 0.31550
 C1846 C 0.28793 0.42473 0.30847
 C1847 C 0.28745 0.44567 0.28652
 C1848 C 0.28065 0.45691 0.27950
 H1849 H 0.31471 0.42964 0.27644
 H1850 H 0.32677 0.40484 0.28863
 H1851 H 0.28881 0.40538 0.32631
 H1852 H 0.27695 0.43018 0.31389
 C1853 C 0.29550 -0.06875 0.79441
 C1854 C 0.30966 -0.07589 0.78754
 C1855 C 0.31657 -0.09009 0.79455
 C1856 C 0.30942 -0.09747 0.80864
 C1857 C 0.29522 -0.08996 0.81552
 C1858 C 0.28834 -0.07578 0.80844
 C1859 C 0.28777 -0.05481 0.78649
 C1860 C 0.28092 -0.04358 0.77947
 H1861 H 0.31525 -0.07060 0.77661
 H1862 H 0.32747 -0.09522 0.78875
 H1863 H 0.28918 -0.09502 0.82629
 H1864 H 0.27730 -0.07041 0.81381
 C1865 C 0.79533 0.43181 0.79517
 C1866 C 0.80967 0.42485 0.78850
 C1867 C 0.81665 0.41074 0.79561
 C1868 C 0.80935 0.40324 0.80956
 C1869 C 0.79502 0.41063 0.81630
 C1870 C 0.78809 0.42475 0.80913
 C1871 C 0.78753 0.44561 0.78711
 C1872 C 0.78066 0.45675 0.77998
 H1873 H 0.81535 0.43019 0.77763
 H1874 H 0.82765 0.40572 0.78993
 H1875 H 0.78893 0.40553 0.82701
 H1876 H 0.77694 0.43001 0.81438
 C1877 C 0.79528 -0.06853 0.29470
 C1878 C 0.78813 -0.07547 0.30877
 C1879 C 0.79495 -0.08968 0.31586
 C1880 C 0.80908 -0.09727 0.30894
 C1881 C 0.81622 -0.08999 0.29480
 C1882 C 0.80935 -0.07578 0.28777
 C1883 C 0.78762 -0.05458 0.28678
 C1884 C 0.78083 -0.04335 0.27973
 H1885 H 0.77714 -0.07002 0.31417
 H1886 H 0.78893 -0.09467 0.32666
 H1887 H 0.82703 -0.09521 0.28894
 H1888 H 0.81491 -0.07057 0.27678
 C1889 C 0.29515 0.56816 0.70549
 C1890 C 0.28805 0.57511 0.69139
 C1891 C 0.29492 0.58930 0.68431
 C1892 C 0.30899 0.59681 0.69130
 C1893 C 0.31611 0.58957 0.70541
 C1894 C 0.30922 0.57538 0.71244
 C1895 C 0.28744 0.55423 0.71340
 C1896 C 0.28060 0.54302 0.72043
 H1897 H 0.27708 0.56969 0.68596
 H1898 H 0.28904 0.59440 0.67348
 H1899 H 0.32692 0.59488 0.71118
 H1900 H 0.31475 0.57017 0.72344
 C1901 C 0.29535 1.06805 0.20507
 C1902 C 0.28829 1.07497 0.19093
 C1903 C 0.29527 1.08906 0.18377
 C1904 C 0.30941 1.09649 0.19070
 C1905 C 0.31650 1.08926 0.20483
 C1906 C 0.30950 1.07517 0.21195
 C1907 C 0.28755 1.05424 0.21308
 C1908 C 0.28067 1.04309 0.22017
 H1909 H 0.27726 1.06962 0.18556
 H1910 H 0.28941 1.09416 0.17293
 H1911 H 0.32733 1.09453 0.21059
 H1912 H 0.31499 1.06997 0.22298
 C1913 C 0.79519 0.56815 0.20530
 C1914 C 0.80944 0.57517 0.21207
 C1915 C 0.81639 0.58930 0.20499
 C1916 C 0.80914 0.59667 0.19101
 C1917 C 0.79489 0.58935 0.18420
 C1918 C 0.78797 0.57522 0.19132
 C1919 C 0.78743 0.55431 0.21329
 C1920 C 0.78058 0.54315 0.22037
 H1921 H 0.81506 0.56986 0.22298
 H1922 H 0.82731 0.59449 0.21065
 H1923 H 0.78892 0.59455 0.17346
 H1924 H 0.77685 0.56994 0.18604
 C1925 C 0.79509 1.06816 0.70529
 C1926 C 0.78789 1.07520 0.69128
 C1927 C 0.79483 1.08931 0.68414
 C1928 C 0.80908 1.09663 0.69094
 C1929 C 0.81631 1.08929 0.70494
 C1930 C 0.80935 1.07518 0.71205
 C1931 C 0.78733 1.05433 0.71329
 C1932 C 0.78047 1.04319 0.72039
 H1933 H 0.77678 1.06992 0.68601
 H1934 H 0.78887 1.09449 0.67338
 H1935 H 0.82724 1.09448 0.71060
 H1936 H 0.81496 1.06989 0.72297
 C1937 C 0.70491 0.56836 0.29456
 C1938 C 0.71192 0.57514 0.30877
 C1939 C 0.70511 0.58936 0.31584
 C1940 C 0.69117 0.59704 0.30874
 C1941 C 0.68416 0.59000 0.29450
 C1942 C 0.69101 0.57578 0.28747
 C1943 C 0.71256 0.55439 0.28667
 C1944 C 0.71936 0.54316 0.27964
 H1945 H 0.72279 0.56957 0.31428
 H1946 H 0.71091 0.59433 0.32676
 H1947 H 0.67350 0.59548 0.28861
 H1948 H 0.68557 0.57072 0.27637
 C1949 C 0.70481 1.06863 0.79455
 C1950 C 0.71189 1.07552 0.80866
 C1951 C 0.70510 1.08976 0.81571
 C1952 C 0.69104 1.09743 0.80874
 C1953 C 0.68396 1.09020 0.79456
 C1954 C 0.69081 1.07597 0.78756
 C1955 C 0.71245 1.05463 0.78669
 C1956 C 0.71924 1.04337 0.77969
 H1957 H 0.72283 1.07002 0.81410
 H1958 H 0.71107 1.09468 0.82655
 H1959 H 0.67321 1.09548 0.78865
 H1960 H 0.68530 1.07080 0.77653
 C1961 C 0.20479 0.56816 0.79438
 C1962 C 0.21177 0.57493 0.80861
 C1963 C 0.20503 0.58921 0.81561
 C1964 C 0.19119 0.59699 0.80842
 C1965 C 0.18419 0.58994 0.79417
 C1966 C 0.19096 0.57566 0.78721
 C1967 C 0.21243 0.55416 0.78655
 C1968 C 0.21924 0.54292 0.77955
 H1969 H 0.22257 0.56931 0.81420
 H1970 H 0.21081 0.59417 0.82654
 H1971 H 0.17358 0.59548 0.78822
 H1972 H 0.18555 0.57059 0.77610
 C1973 C 0.20493 1.06830 0.29423
 C1974 C 0.21189 1.07505 0.30848
 C1975 C 0.20514 1.08933 0.31548
 C1976 C 0.19131 1.09711 0.30829
 C1977 C 0.18432 1.09008 0.29403
 C1978 C 0.19110 1.07580 0.28706
 C1979 C 0.21257 1.05431 0.28638
 C1980 C 0.21937 1.04307 0.27937
 H1981 H 0.22269 1.06942 0.31406
 H1982 H 0.21092 1.09427 0.32642
 H1983 H 0.17372 1.09561 0.28808
 H1984 H 0.18569 1.07074 0.27594
 C1985 C 0.70498 0.43166 0.70566
 C1986 C 0.69094 0.42438 0.71265
 C1987 C 0.68406 0.41020 0.70560
 C1988 C 0.69115 0.40304 0.69144
 C1989 C 0.70520 0.41059 0.68443
 C1990 C 0.71206 0.42477 0.69151
 C1991 C 0.71268 0.44558 0.71358
 C1992 C 0.71950 0.45678 0.72062
 H1993 H 0.68543 0.42954 0.72368
 H1994 H 0.67327 0.40486 0.71140
 H1995 H 0.71108 0.40553 0.67358
 H1996 H 0.72302 0.43023 0.68606
 C1997 C 0.70508 -0.06840 0.20576
 C1998 C 0.69105 -0.07568 0.21275
 C1999 C 0.68415 -0.08983 0.20568
 C2000 C 0.69124 -0.09697 0.19150
 C2001 C 0.70532 -0.08945 0.18452
 C2002 C 0.71218 -0.07529 0.19163
 C2003 C 0.71274 -0.05446 0.21364
 C2004 C 0.71953 -0.04323 0.22066
 H2005 H 0.68554 -0.07053 0.22379
 H2006 H 0.67337 -0.09518 0.21148
 H2007 H 0.71120 -0.09450 0.17367
 H2008 H 0.72316 -0.06985 0.18620
 C2009 C 0.20486 0.43186 0.20547
 C2010 C 0.21197 0.42496 0.19134
 C2011 C 0.20513 0.41077 0.18428
 C2012 C 0.19108 0.40323 0.19128
 C2013 C 0.18395 0.41041 0.20542
 C2014 C 0.19082 0.42460 0.21245
 C2015 C 0.21254 0.44577 0.21338
 C2016 C 0.21935 0.45697 0.22043
 H2017 H 0.22293 0.43041 0.18591
 H2018 H 0.21103 0.40570 0.17345
 H2019 H 0.17316 0.40507 0.21122
 H2020 H 0.18529 0.42978 0.22347
 C2021 C 0.20492 -0.06816 0.70513
 C2022 C 0.21207 -0.07514 0.69106
 C2023 C 0.20509 -0.08920 0.68389
 C2024 C 0.19085 -0.09655 0.69073
 C2025 C 0.18366 -0.08927 0.70478
 C2026 C 0.19067 -0.07521 0.71192
 C2027 C 0.21273 -0.05439 0.71317
 C2028 C 0.21961 -0.04329 0.72029
 H2029 H 0.22318 -0.06984 0.68576
 H2030 H 0.21102 -0.09435 0.67311
 H2031 H 0.17274 -0.09447 0.71046
 H2032 H 0.18510 -0.06997 0.72289
 C2033 C 0.29473 0.29473 0.43201
 C2034 C 0.28765 0.30881 0.42493
 C2035 C 0.29455 0.31574 0.41071
 C2036 C 0.30864 0.30864 0.40332
 C2037 C 0.31576 0.29457 0.41070
 C2038 C 0.30883 0.28768 0.42492
 C2039 C 0.28694 0.28693 0.44592
 C2040 C 0.28000 0.27999 0.45711
 H2041 H 0.27666 0.31431 0.43026
 H2042 H 0.28867 0.32655 0.40551
 H2043 H 0.32659 0.28871 0.40549
 H2044 H 0.31435 0.27670 0.43025
 C2045 C 0.29534 0.79474 -0.06834
 C2046 C 0.30927 0.78754 -0.07565
 C2047 C 0.31619 0.79449 -0.08984
 C2048 C 0.30925 0.80877 -0.09700
 C2049 C 0.29533 0.81601 -0.08940
 C2050 C 0.28844 0.80902 -0.07520
 C2051 C 0.28754 0.78691 -0.05443
 C2052 C 0.28061 0.77997 -0.04324
 H2053 H 0.31464 0.77641 -0.07049
 H2054 H 0.32688 0.78853 -0.09521
 H2055 H 0.28957 0.82694 -0.09445
 H2056 H 0.27758 0.81464 -0.06972
 C2057 C 0.79451 0.29549 -0.06805
 C2058 C 0.78724 0.30938 -0.07531
 C2059 C 0.79416 0.31633 -0.08951
 C2060 C 0.80847 0.30945 -0.09669
 C2061 C 0.81577 0.29557 -0.08912
 C2062 C 0.80882 0.28865 -0.07493
 C2063 C 0.78670 0.28761 -0.05418
 C2064 C 0.77978 0.28060 -0.04302
 H2065 H 0.77608 0.31471 -0.07014
 H2066 H 0.78814 0.32699 -0.09487
 H2067 H 0.82672 0.28983 -0.09420
 H2068 H 0.81448 0.27782 -0.06946
 C2069 C 0.79460 0.79507 0.43192
 C2070 C 0.78749 0.80913 0.42482
 C2071 C 0.79435 0.81604 0.41057
 C2072 C 0.80844 0.80894 0.40317
 C2073 C 0.81558 0.79488 0.41056
 C2074 C 0.80868 0.78801 0.42480
 C2075 C 0.78685 0.78730 0.44587
 C2076 C 0.77995 0.78037 0.45709
 H2077 H 0.77650 0.81463 0.43016
 H2078 H 0.78846 0.82683 0.40536
 H2079 H 0.82639 0.78902 0.40534
 H2080 H 0.81422 0.77704 0.43014
 C2081 C 0.70483 0.29478 0.56800
 C2082 C 0.71171 0.30907 0.57484
 C2083 C 0.70481 0.31605 0.58903
 C2084 C 0.69092 0.30880 0.59665
 C2085 C 0.68399 0.29454 0.58951
 C2086 C 0.69092 0.28759 0.57532
 C2087 C 0.71265 0.28695 0.55412
 C2088 C 0.71961 0.28001 0.54294
 H2089 H 0.72256 0.31468 0.56934
 H2090 H 0.71056 0.32699 0.59406
 H2091 H 0.67331 0.28858 0.59489
 H2092 H 0.68556 0.27646 0.57019
 C2093 C 0.70487 0.79498 1.06800
 C2094 C 0.69095 0.78778 1.07529
 C2095 C 0.68402 0.79470 1.08950
 C2096 C 0.69097 0.80894 1.09668
 C2097 C 0.70484 0.81622 1.08905
 C2098 C 0.71173 0.80927 1.07485
 C2099 C 0.71273 0.78715 1.05415
 C2100 C 0.71973 0.78022 1.04300
 H2101 H 0.68559 0.77666 1.07014
 H2102 H 0.67334 0.78873 1.09487
 H2103 H 0.71059 0.82715 1.09409
 H2104 H 0.72258 0.81489 1.06935
 C2105 C 0.20495 0.29485 1.06807
 C2106 C 0.19103 0.28765 1.07538
 C2107 C 0.18409 0.29461 1.08956
 C2108 C 0.19101 0.30888 1.09669
 C2109 C 0.20490 0.31613 1.08908
 C2110 C 0.21181 0.30914 1.07490
 C2111 C 0.21277 0.28703 1.05419
 C2112 C 0.21973 0.28009 1.04302
 H2113 H 0.18568 0.27651 1.07025
 H2114 H 0.17341 0.28865 1.09493
 H2115 H 0.21064 0.32708 1.09410
 H2116 H 0.22266 0.31476 1.06940
 C2117 C 0.20495 0.79531 0.56782
 C2118 C 0.21198 0.80941 0.57486
 C2119 C 0.20503 0.81636 0.58904
 C2120 C 0.19095 0.80927 0.59643
 C2121 C 0.18384 0.79521 0.58905
 C2122 C 0.19081 0.78829 0.57487
 C2123 C 0.21283 0.78745 0.55399
 C2124 C 0.21983 0.78049 0.54286
 H2125 H 0.22299 0.81488 0.56955
 H2126 H 0.21090 0.82716 0.59424
 H2127 H 0.17301 0.78936 0.59426
 H2128 H 0.18533 0.77730 0.56957
 C2129 C 0.29482 0.70525 0.56804
 C2130 C 0.30888 0.71233 0.57515
 C2131 C 0.31577 0.70546 0.58940
 C2132 C 0.30867 0.69139 0.59679
 C2133 C 0.29461 0.68428 0.58938
 C2134 C 0.28776 0.69117 0.57514
 C2135 C 0.28704 0.71303 0.55412
 C2136 C 0.28010 0.71995 0.54292
 H2137 H 0.31439 0.72330 0.56981
 H2138 H 0.32655 0.71135 0.59463
 H2139 H 0.28873 0.67348 0.59460
 H2140 H 0.27679 0.68566 0.56978
 C2141 C 0.29481 0.20473 1.06802
 C2142 C 0.30914 0.21157 1.07484
 C2143 C 0.31615 0.20466 1.08900
 C2144 C 0.30889 0.19079 1.09662
 C2145 C 0.29459 0.18389 1.08949
 C2146 C 0.28761 0.19084 1.07533
 C2147 C 0.28695 0.21257 1.05416
 C2148 C 0.27999 0.21953 1.04300
 H2149 H 0.31476 0.22241 1.06934
 H2150 H 0.32712 0.21038 1.09402
 H2151 H 0.28862 0.17322 1.09487
 H2152 H 0.27644 0.18550 1.07020
 C2153 C 0.79473 0.70478 1.06798
 C2154 C 0.80905 0.71163 1.07481
 C2155 C 0.81603 0.70474 1.08899
 C2156 C 0.80876 0.69087 1.09661
 C2157 C 0.79447 0.68396 1.08947
 C2158 C 0.78752 0.69089 1.07529
 C2159 C 0.78688 0.71262 1.05413
 C2160 C 0.77992 0.71959 1.04297
 H2161 H 0.81467 0.72246 1.06931
 H2162 H 0.82699 0.71047 1.09403
 H2163 H 0.78849 0.67330 1.09485
 H2164 H 0.77636 0.68555 1.07015
 C2165 C 0.79469 0.20464 0.56785
 C2166 C 0.78749 0.19074 0.57515
 C2167 C 0.79446 0.18381 0.58933
 C2168 C 0.80875 0.19074 0.59646
 C2169 C 0.81600 0.20461 0.58885
 C2170 C 0.80900 0.21150 0.57467
 C2171 C 0.78682 0.21247 0.55401
 C2172 C 0.77984 0.21943 0.54287
 H2173 H 0.77634 0.18538 0.57002
 H2174 H 0.78850 0.17315 0.59471
 H2175 H 0.82696 0.21036 0.59388
 H2176 H 0.81462 0.22234 0.56917
 C2177 C 0.70506 0.70515 0.43213
 C2178 C 0.71216 0.69108 0.42505
 C2179 C 0.70530 0.68418 0.41083
 C2180 C 0.69123 0.69129 0.40342
 C2181 C 0.68408 0.70534 0.41080
 C2182 C 0.69097 0.71221 0.42503
 C2183 C 0.71284 0.71295 0.44602
 C2184 C 0.71976 0.71990 0.45720
 H2185 H 0.72314 0.68558 0.43040
 H2186 H 0.71120 0.67339 0.40562
 H2187 H 0.67327 0.71120 0.40558
 H2188 H 0.68543 0.72317 0.43036
 C2189 C 0.70493 0.20510 -0.06801
 C2190 C 0.71182 0.19079 -0.07480
 C2191 C 0.70493 0.18377 -0.08896
 C2192 C 0.69103 0.19099 -0.09658
 C2193 C 0.68407 0.20528 -0.08947
 C2194 C 0.69099 0.21227 -0.07531
 C2195 C 0.71275 0.21298 -0.05417
 C2196 C 0.71968 0.21997 -0.04303
 H2197 H 0.72268 0.18519 -0.06931
 H2198 H 0.71070 0.17282 -0.09398
 H2199 H 0.67339 0.21123 -0.09485
 H2200 H 0.68561 0.22341 -0.07019
 C2201 C 0.20497 0.70515 -0.06800
 C2202 C 0.19104 0.71237 -0.07526
 C2203 C 0.18405 0.70539 -0.08938
 C2204 C 0.19093 0.69106 -0.09650
 C2205 C 0.20482 0.68379 -0.08891
 C2206 C 0.21178 0.69080 -0.07478
 C2207 C 0.21286 0.71302 -0.05421
 C2208 C 0.21985 0.72000 -0.04309
 H2209 H 0.18573 0.72354 -0.07015
 H2210 H 0.17337 0.71137 -0.09474
 H2211 H 0.21052 0.67280 -0.09392
 H2212 H 0.22263 0.68516 -0.06931
 C2213 C 0.20472 0.20499 0.43217
 C2214 C 0.19081 0.21222 0.42489
 C2215 C 0.18386 0.20528 0.41072
 C2216 C 0.19078 0.19099 0.40358
 C2217 C 0.20467 0.18371 0.41118
 C2218 C 0.21158 0.19068 0.42535
 C2219 C 0.21257 0.21282 0.44601
 C2220 C 0.21954 0.21976 0.45716
 H2221 H 0.18546 0.22337 0.43003
 H2222 H 0.17319 0.21126 0.40535
 H2223 H 0.21041 0.17276 0.40614
 H2224 H 0.22243 0.18505 0.43083
 C2225 C 0.29513 0.43186 0.70533
 C2226 C 0.30936 0.42477 0.71211
 C2227 C 0.31627 0.41060 0.70505
 C2228 C 0.30902 0.40328 0.69106
 C2229 C 0.29474 0.41062 0.68430
 C2230 C 0.28786 0.42478 0.69139
 C2231 C 0.28743 0.44577 0.71327
 C2232 C 0.28060 0.45696 0.72035
 H2233 H 0.31502 0.43010 0.72298
 H2234 H 0.32722 0.40540 0.71068
 H2235 H 0.28873 0.40543 0.67359
 H2236 H 0.27677 0.43011 0.68610
 C2237 C 0.29520 0.93192 0.20525
 C2238 C 0.30926 0.92466 0.21220
 C2239 C 0.31612 0.91045 0.20517
 C2240 C 0.30898 0.90326 0.19106
 C2241 C 0.29488 0.91078 0.18412
 C2242 C 0.28805 0.92498 0.19118
 C2243 C 0.28752 0.94586 0.21315
 C2244 C 0.28070 0.95707 0.22019
 H2245 H 0.31480 0.92986 0.22319
 H2246 H 0.32692 0.90510 0.21095
 H2247 H 0.28898 0.90570 0.17331
 H2248 H 0.27707 0.93043 0.18578
 C2249 C 0.79519 0.43197 0.20550
 C2250 C 0.78820 0.42519 0.19128
 C2251 C 0.79501 0.41097 0.18422
 C2252 C 0.80893 0.40327 0.19133
 C2253 C 0.81595 0.41033 0.20556
 C2254 C 0.80911 0.42455 0.21259
 C2255 C 0.78750 0.44591 0.21340
 C2256 C 0.78067 0.45712 0.22042
 H2257 H 0.77733 0.43075 0.18577
 H2258 H 0.78921 0.40601 0.17330
 H2259 H 0.82662 0.40486 0.21145
 H2260 H 0.81453 0.42963 0.22370
 C2261 C 0.79505 0.93205 0.70556
 C2262 C 0.78792 0.92513 0.69147
 C2263 C 0.79477 0.91093 0.68439
 C2264 C 0.80885 0.90340 0.69135
 C2265 C 0.81601 0.91061 0.70544
 C2266 C 0.80913 0.92481 0.71249
 C2267 C 0.78733 0.94596 0.71349
 C2268 C 0.78050 0.95717 0.72054
 H2269 H 0.77693 0.93057 0.68607
 H2270 H 0.78887 0.90586 0.67358
 H2271 H 0.82682 0.90528 0.71121
 H2272 H 0.81467 0.93000 0.72348
 C2273 C 0.70495 0.56807 0.70572
 C2274 C 0.69096 0.57540 0.71276
 C2275 C 0.68420 0.58971 0.70583
 C2276 C 0.69135 0.59694 0.69172
 C2277 C 0.70533 0.58932 0.68465
 C2278 C 0.71206 0.57500 0.69161
 C2279 C 0.71264 0.55410 0.71360
 C2280 C 0.71947 0.54287 0.72063
 H2281 H 0.68541 0.57017 0.72375
 H2282 H 0.67345 0.59510 0.71168
 H2283 H 0.71123 0.59441 0.67383
 H2284 H 0.72296 0.56948 0.68610
 C2285 C 0.70508 0.06788 0.20547
 C2286 C 0.69088 0.07500 0.21230
 C2287 C 0.68396 0.08917 0.20522
 C2288 C 0.69119 0.09646 0.19119
 C2289 C 0.70539 0.08905 0.18433
 C2290 C 0.71228 0.07489 0.19144
 C2291 C 0.71281 0.05400 0.21344
 C2292 C 0.71964 0.04282 0.22053
 H2293 H 0.68526 0.06973 0.22323
 H2294 H 0.67305 0.09440 0.21089
 H2295 H 0.71136 0.09421 0.17357
 H2296 H 0.72335 0.06953 0.18611
 C2297 C 0.20481 0.56818 0.20549
 C2298 C 0.21193 0.57508 0.19137
 C2299 C 0.20515 0.58933 0.18434
 C2300 C 0.19113 0.59693 0.19137
 C2301 C 0.18399 0.58975 0.20550
 C2302 C 0.19080 0.57550 0.21250
 C2303 C 0.21248 0.55423 0.21340
 C2304 C 0.21929 0.54301 0.22043
 H2305 H 0.22286 0.56959 0.18592
 H2306 H 0.21103 0.59439 0.17349
 H2307 H 0.17322 0.59513 0.21131
 H2308 H 0.18527 0.57032 0.22352
 C2309 C 0.20487 0.06783 0.70559
 C2310 C 0.21189 0.07470 0.69141
 C2311 C 0.20496 0.08884 0.68429
 C2312 C 0.19089 0.09637 0.69130
 C2313 C 0.18384 0.08920 0.70548
 C2314 C 0.19080 0.07506 0.71257
 C2315 C 0.21264 0.05394 0.71353
 C2316 C 0.21951 0.04274 0.72056
 H2317 H 0.22287 0.06927 0.68597
 H2318 H 0.21079 0.09388 0.67340
 H2319 H 0.17307 0.09456 0.71131
 H2320 H 0.18534 0.06991 0.72363
 C2321 C 0.29506 0.56816 0.29434
 C2322 C 0.30911 0.57542 0.28737
 C2323 C 0.31595 0.58963 0.29437
 C2324 C 0.30881 0.59684 0.30847
 C2325 C 0.29471 0.58934 0.31544
 C2326 C 0.28789 0.57513 0.30840
 C2327 C 0.28742 0.55421 0.28647
 C2328 C 0.28062 0.54298 0.27946
 H2329 H 0.31467 0.57020 0.27638
 H2330 H 0.32675 0.59497 0.28857
 H2331 H 0.28879 0.59444 0.32625
 H2332 H 0.27691 0.56969 0.31383
 C2333 C 0.29523 0.06783 0.79444
 C2334 C 0.28823 0.07462 0.80867
 C2335 C 0.29494 0.08892 0.81563
 C2336 C 0.30876 0.09670 0.80842
 C2337 C 0.31577 0.08964 0.79417
 C2338 C 0.30903 0.07534 0.78724
 C2339 C 0.28762 0.05380 0.78662
 C2340 C 0.28084 0.04254 0.77964
 H2341 H 0.27744 0.06899 0.81427
 H2342 H 0.28914 0.09389 0.82657
 H2343 H 0.32637 0.09517 0.78820
 H2344 H 0.31446 0.07026 0.77613
 C2345 C 0.79529 0.56796 0.79470
 C2346 C 0.80936 0.57520 0.78774
 C2347 C 0.81623 0.58940 0.79477
 C2348 C 0.80909 0.59661 0.80888
 C2349 C 0.79501 0.58909 0.81586
 C2350 C 0.78817 0.57490 0.80880
 C2351 C 0.78761 0.55402 0.78681
 C2352 C 0.78078 0.54281 0.77979
 H2353 H 0.81491 0.57000 0.77674
 H2354 H 0.82703 0.59473 0.78898
 H2355 H 0.78910 0.59419 0.82668
 H2356 H 0.77719 0.56946 0.81423
 C2357 C 0.79546 0.06780 0.29462
 C2358 C 0.80952 0.07506 0.28766
 C2359 C 0.81635 0.08927 0.29467
 C2360 C 0.80918 0.09649 0.30877
 C2361 C 0.79512 0.08894 0.31576
 C2362 C 0.78832 0.07473 0.30871
 C2363 C 0.78777 0.05389 0.28670
 C2364 C 0.78093 0.04270 0.27967
 H2365 H 0.81507 0.06986 0.27666
 H2366 H 0.82714 0.09462 0.28887
 H2367 H 0.78920 0.09404 0.32657
 H2368 H 0.77735 0.06928 0.31414
 C2369 C 0.70484 0.43181 0.29428
 C2370 C 0.71180 0.42500 0.30852
 C2371 C 0.70505 0.41072 0.31549
 C2372 C 0.69122 0.40298 0.30828
 C2373 C 0.68425 0.41006 0.29401
 C2374 C 0.69103 0.42435 0.28707
 C2375 C 0.71249 0.44582 0.28647
 C2376 C 0.71930 0.45708 0.27951
 H2377 H 0.72259 0.43060 0.31412
 H2378 H 0.71081 0.40574 0.32643
 H2379 H 0.67365 0.40456 0.28805
 H2380 H 0.68564 0.42945 0.27596
 C2381 C 0.70473 0.93206 0.79465
 C2382 C 0.69073 0.92478 0.78763
 C2383 C 0.68390 0.91054 0.79462
 C2384 C 0.69100 0.90332 0.80874
 C2385 C 0.70502 0.91088 0.81578
 C2386 C 0.71183 0.92512 0.80876
 C2387 C 0.71240 0.94603 0.78678
 C2388 C 0.71922 0.95726 0.77976
 H2389 H 0.68522 0.92998 0.77662
 H2390 H 0.67314 0.90518 0.78880
 H2391 H 0.71091 0.90578 0.82661
 H2392 H 0.72276 0.93059 0.81423
 C2393 C 0.20478 0.43172 0.79451
 C2394 C 0.19075 0.42445 0.78752
 C2395 C 0.18387 0.41026 0.79455
 C2396 C 0.19095 0.40307 0.80871
 C2397 C 0.20498 0.41061 0.81572
 C2398 C 0.21184 0.42481 0.80866
 C2399 C 0.21248 0.44564 0.78660
 C2400 C 0.21930 0.45685 0.77956
 H2401 H 0.18525 0.42964 0.77649
 H2402 H 0.17310 0.40492 0.78874
 H2403 H 0.21085 0.40553 0.82657
 H2404 H 0.22278 0.43026 0.81411
 C2405 C 0.20477 0.93196 0.29438
 C2406 C 0.19069 0.92476 0.28743
 C2407 C 0.18381 0.91056 0.29446
 C2408 C 0.19094 0.90331 0.30856
 C2409 C 0.20501 0.91083 0.31555
 C2410 C 0.21186 0.92502 0.30849
 C2411 C 0.21252 0.94584 0.28643
 C2412 C 0.21939 0.95702 0.27937
 H2413 H 0.18516 0.92998 0.27644
 H2414 H 0.17300 0.90526 0.28869
 H2415 H 0.21089 0.90572 0.32638
 H2416 H 0.22283 0.93045 0.31392
 C2417 C 0.43180 0.29502 0.70551
 C2418 C 0.42471 0.28779 0.69155
 C2419 C 0.41057 0.29471 0.68442
 C2420 C 0.40325 0.30899 0.69117
 C2421 C 0.41058 0.31622 0.70517
 C2422 C 0.42473 0.30926 0.71227
 C2423 C 0.44570 0.28729 0.71345
 C2424 C 0.45690 0.28045 0.72051
 H2425 H 0.43002 0.27669 0.68627
 H2426 H 0.40537 0.28873 0.67371
 H2427 H 0.40540 0.32717 0.71079
 H2428 H 0.43007 0.31490 0.72314
 C2429 C 0.43182 0.79525 0.20548
 C2430 C 0.42488 0.78811 0.19141
 C2431 C 0.41068 0.79495 0.18431
 C2432 C 0.40316 0.80905 0.19122
 C2433 C 0.41036 0.81620 0.20532
 C2434 C 0.42457 0.80933 0.21239
 C2435 C 0.44576 0.78758 0.21341
 C2436 C 0.45698 0.78077 0.22046
 H2437 H 0.43032 0.77712 0.18603
 H2438 H 0.40559 0.78905 0.17350
 H2439 H 0.40503 0.82700 0.21107
 H2440 H 0.42977 0.81487 0.22337
 C2441 C 0.93182 0.29534 0.20554
 C2442 C 0.92500 0.28834 0.19133
 C2443 C 0.91076 0.29515 0.18429
 C2444 C 0.90307 0.30906 0.19138
 C2445 C 0.91017 0.31609 0.20560
 C2446 C 0.92442 0.30925 0.21261
 C2447 C 0.94578 0.28765 0.21343
 C2448 C 0.95700 0.28082 0.22045
 H2449 H 0.93055 0.27747 0.18583
 H2450 H 0.90577 0.28935 0.17338
 H2451 H 0.90470 0.32675 0.21148
 H2452 H 0.92952 0.31468 0.22370
 C2453 C 0.93183 0.79537 0.70553
 C2454 C 0.92460 0.80945 0.71245
 C2455 C 0.91037 0.81632 0.70544
 C2456 C 0.90311 0.80916 0.69137
 C2457 C 0.91064 0.79509 0.68441
 C2458 C 0.92487 0.78825 0.69146
 C2459 C 0.94576 0.78766 0.71345
 C2460 C 0.95697 0.78083 0.72049
 H2461 H 0.92983 0.81499 0.72343
 H2462 H 0.90505 0.82712 0.71120
 H2463 H 0.90553 0.78919 0.67361
 H2464 H 0.93029 0.77727 0.68606
 C2465 C 0.56823 0.29517 0.29451
 C2466 C 0.57515 0.28811 0.30865
 C2467 C 0.58928 0.29503 0.31576
 C2468 C 0.59676 0.30913 0.30880
 C2469 C 0.58954 0.31623 0.29467
 C2470 C 0.57540 0.30928 0.28759
 C2471 C 0.55438 0.28739 0.28654
 C2472 C 0.54321 0.28051 0.27949
 H2473 H 0.56976 0.27711 0.31405
 H2474 H 0.59437 0.28919 0.32662
 H2475 H 0.59485 0.32702 0.28888
 H2476 H 0.57020 0.31477 0.27656
 C2477 C 0.56794 0.79541 0.79503
 C2478 C 0.57499 0.78824 0.80905
 C2479 C 0.58908 0.79522 0.81623
 C2480 C 0.59638 0.80949 0.80943
 C2481 C 0.58904 0.81669 0.79541
 C2482 C 0.57495 0.80968 0.78827
 C2483 C 0.55412 0.78761 0.78701
 C2484 C 0.54297 0.78074 0.77992
 H2485 H 0.56973 0.77711 0.81433
 H2486 H 0.59427 0.78927 0.82698
 H2487 H 0.59421 0.82762 0.78975
 H2488 H 0.56967 0.81527 0.77734
 C2489 C 0.06792 0.29519 0.79492
 C2490 C 0.07492 0.30948 0.78820
 C2491 C 0.08897 0.31650 0.79537
 C2492 C 0.09630 0.30929 0.80939
 C2493 C 0.08900 0.29501 0.81616
 C2494 C 0.07494 0.28801 0.80895
 C2495 C 0.05412 0.28740 0.78686
 C2496 C 0.04297 0.28056 0.77974
 H2497 H 0.06964 0.31508 0.77726
 H2498 H 0.09414 0.32745 0.78974
 H2499 H 0.09418 0.28906 0.82692
 H2500 H 0.06969 0.27688 0.81420
 C2501 C 0.06806 0.79539 0.29440
 C2502 C 0.07528 0.80946 0.28747
 C2503 C 0.08947 0.81634 0.29451
 C2504 C 0.09669 0.80920 0.30862
 C2505 C 0.08916 0.79515 0.31561
 C2506 C 0.07497 0.78830 0.30853
 C2507 C 0.05421 0.78764 0.28642
 C2508 C 0.04305 0.78078 0.27935
 H2509 H 0.07006 0.81500 0.27647
 H2510 H 0.09478 0.82715 0.28874
 H2511 H 0.09425 0.78926 0.32644
 H2512 H 0.06953 0.77734 0.31396
 C2513 C 0.56802 0.70489 0.70543
 C2514 C 0.57511 0.71208 0.69143
 C2515 C 0.58930 0.70517 0.68435
 C2516 C 0.59666 0.69095 0.69119
 C2517 C 0.58925 0.68370 0.70515
 C2518 C 0.57506 0.69063 0.71220
 C2519 C 0.55419 0.71271 0.71346
 C2520 C 0.54304 0.71960 0.72058
 H2521 H 0.56980 0.72315 0.68610
 H2522 H 0.59452 0.71113 0.67361
 H2523 H 0.59444 0.67278 0.71084
 H2524 H 0.56970 0.68499 0.72308
 C2525 C 0.56813 0.20449 0.20514
 C2526 C 0.57498 0.19004 0.21170
 C2527 C 0.58902 0.18298 0.20448
 C2528 C 0.59647 0.19031 0.19058
 C2529 C 0.58931 0.20475 0.18397
 C2530 C 0.57527 0.21177 0.19122
 C2531 C 0.55438 0.21232 0.21325
 C2532 C 0.54326 0.21920 0.22041
 H2533 H 0.56961 0.18435 0.22254
 H2534 H 0.59407 0.17191 0.20998
 H2535 H 0.59457 0.21078 0.17330
 H2536 H 0.57012 0.22302 0.18609
 C2537 C 0.06803 0.70484 0.20519
 C2538 C 0.07506 0.69056 0.21192
 C2539 C 0.08921 0.68361 0.20481
 C2540 C 0.09659 0.69089 0.19085
 C2541 C 0.08926 0.70515 0.18406
 C2542 C 0.07512 0.71207 0.19121
 C2543 C 0.05419 0.71260 0.21321
 C2544 C 0.04302 0.71945 0.22033
 H2545 H 0.06975 0.68494 0.22282
 H2546 H 0.09439 0.67267 0.21045
 H2547 H 0.09447 0.71112 0.17333
 H2548 H 0.06984 0.72320 0.18595
 C2549 C 0.06799 0.20459 0.70562
 C2550 C 0.07488 0.21160 0.69144
 C2551 C 0.08903 0.20467 0.68432
 C2552 C 0.09656 0.19061 0.69133
 C2553 C 0.08936 0.18355 0.70550
 C2554 C 0.07520 0.19051 0.71258
 C2555 C 0.05412 0.21238 0.71358
 C2556 C 0.04295 0.21927 0.72064
 H2557 H 0.06946 0.22257 0.68600
 H2558 H 0.09410 0.21049 0.67344
 H2559 H 0.09471 0.17278 0.71131
 H2560 H 0.07003 0.18505 0.72363
 C2561 C 0.43165 0.70487 0.29424
 C2562 C 0.42443 0.69083 0.28727
 C2563 C 0.41022 0.68395 0.29428
 C2564 C 0.40297 0.69103 0.30840
 C2565 C 0.41044 0.70512 0.31537
 C2566 C 0.42465 0.71197 0.30832
 C2567 C 0.44563 0.71255 0.28639
 C2568 C 0.45688 0.71937 0.27940
 H2569 H 0.42967 0.68532 0.27628
 H2570 H 0.40490 0.67316 0.28849
 H2571 H 0.40531 0.71099 0.32619
 H2572 H 0.43006 0.72294 0.31375
 C2573 C 0.43178 0.20460 0.79471
 C2574 C 0.42461 0.19052 0.78777
 C2575 C 0.41044 0.18356 0.79482
 C2576 C 0.40318 0.19064 0.80895
 C2577 C 0.41065 0.20472 0.81593
 C2578 C 0.42481 0.21164 0.80884
 C2579 C 0.44569 0.21237 0.78679
 C2580 C 0.45689 0.21924 0.77976
 H2581 H 0.42983 0.18504 0.77674
 H2582 H 0.40514 0.17278 0.78902
 H2583 H 0.40554 0.21055 0.82677
 H2584 H 0.43019 0.22263 0.81425
 C2585 C 0.93178 0.70488 0.79449
 C2586 C 0.92481 0.71196 0.80859
 C2587 C 0.91063 0.70505 0.81568
 C2588 C 0.90318 0.69095 0.80873
 C2589 C 0.91044 0.68386 0.79461
 C2590 C 0.92461 0.69079 0.78755
 C2591 C 0.94570 0.71262 0.78657
 C2592 C 0.95691 0.71948 0.77955
 H2593 H 0.93019 0.72295 0.81399
 H2594 H 0.90551 0.71092 0.82650
 H2595 H 0.90515 0.67305 0.78885
 H2596 H 0.92985 0.68529 0.77655
 C2597 C 0.93179 0.20477 0.29434
 C2598 C 0.92460 0.19069 0.28741
 C2599 C 0.91042 0.18377 0.29447
 C2600 C 0.90317 0.19087 0.30859
 C2601 C 0.91064 0.20496 0.31554
 C2602 C 0.92482 0.21185 0.30845
 C2603 C 0.94570 0.21251 0.28642
 C2604 C 0.95690 0.21937 0.27939
 H2605 H 0.92984 0.18518 0.27641
 H2606 H 0.90513 0.17297 0.28870
 H2607 H 0.90552 0.21084 0.32636
 H2608 H 0.93022 0.22283 0.31385
 C2609 C 0.29463 0.29469 0.56812
 C2610 C 0.30871 0.28762 0.57524
 C2611 C 0.31561 0.29449 0.58946
 C2612 C 0.30848 0.30855 0.59684
 C2613 C 0.29441 0.31567 0.58943
 C2614 C 0.28755 0.30877 0.57521
 C2615 C 0.28686 0.28691 0.55421
 C2616 C 0.27995 0.27998 0.54301
 H2617 H 0.31423 0.27664 0.56992
 H2618 H 0.32642 0.28861 0.59468
 H2619 H 0.28854 0.32648 0.59463
 H2620 H 0.27657 0.31428 0.56986
 C2621 C 0.29503 0.79493 0.06775
 C2622 C 0.30911 0.78787 0.07488
 C2623 C 0.31598 0.79477 0.08910
 C2624 C 0.30885 0.80885 0.09644
 C2625 C 0.29478 0.81594 0.08902
 C2626 C 0.28793 0.80901 0.07480
 C2627 C 0.28729 0.78711 0.05384
 C2628 C 0.28040 0.78014 0.04266
 H2629 H 0.31464 0.77689 0.06959
 H2630 H 0.32678 0.78890 0.09435
 H2631 H 0.28888 0.82675 0.09420
 H2632 H 0.27695 0.81451 0.06943
 C2633 C 0.79476 0.29502 0.06789
 C2634 C 0.80886 0.28796 0.07498
 C2635 C 0.81580 0.29487 0.08916
 C2636 C 0.80872 0.30897 0.09651
 C2637 C 0.79463 0.31607 0.08912
 C2638 C 0.78771 0.30913 0.07494
 C2639 C 0.78695 0.28722 0.05401
 C2640 C 0.78000 0.28028 0.04284
 H2641 H 0.81436 0.27697 0.06968
 H2642 H 0.82662 0.28900 0.09438
 H2643 H 0.78877 0.32689 0.09431
 H2644 H 0.77673 0.31464 0.06961
 C2645 C 0.79478 0.79506 0.56804
 C2646 C 0.80887 0.78800 0.57515
 C2647 C 0.81580 0.79492 0.58933
 C2648 C 0.80870 0.80902 0.59667
 C2649 C 0.79461 0.81611 0.58928
 C2650 C 0.78771 0.80916 0.57509
 C2651 C 0.78698 0.78725 0.55416
 C2652 C 0.78005 0.78031 0.54299
 H2653 H 0.81438 0.77701 0.56985
 H2654 H 0.82661 0.78905 0.59456
 H2655 H 0.78874 0.82692 0.59446
 H2656 H 0.77673 0.81466 0.56974
 C2657 C 0.29472 0.70508 0.43192
 C2658 C 0.28762 0.69102 0.42485
 C2659 C 0.29449 0.68409 0.41062
 C2660 C 0.30857 0.69118 0.40320
 C2661 C 0.31570 0.70523 0.41056
 C2662 C 0.30880 0.71212 0.42479
 C2663 C 0.28695 0.71287 0.44584
 C2664 C 0.28003 0.71981 0.45704
 H2665 H 0.27664 0.68553 0.43021
 H2666 H 0.28861 0.67330 0.40543
 H2667 H 0.32651 0.71108 0.40533
 H2668 H 0.31433 0.72309 0.43010
 C2669 C 0.29494 0.20480 0.93216
 C2670 C 0.30887 0.21200 0.92488
 C2671 C 0.31586 0.20503 0.91074
 C2672 C 0.30898 0.19073 0.90361
 C2673 C 0.29509 0.18347 0.91121
 C2674 C 0.28813 0.19047 0.92536
 C2675 C 0.28705 0.21265 0.94599
 C2676 C 0.28005 0.21960 0.95713
 H2677 H 0.31419 0.22316 0.93001
 H2678 H 0.32654 0.21100 0.90537
 H2679 H 0.28938 0.17251 0.90619
 H2680 H 0.27728 0.18485 0.93084
 C2681 C 0.79476 0.70506 0.93199
 C2682 C 0.80883 0.71212 0.92487
 C2683 C 0.81575 0.70523 0.91065
 C2684 C 0.80866 0.69115 0.90330
 C2685 C 0.79459 0.68405 0.91073
 C2686 C 0.78770 0.69097 0.92494
 C2687 C 0.78697 0.71284 0.94591
 C2688 C 0.78003 0.71976 0.95710
 H2689 H 0.81433 0.72311 0.93016
 H2690 H 0.82655 0.71110 0.90541
 H2691 H 0.78873 0.67323 0.90555
 H2692 H 0.77673 0.68547 0.93031
 C2693 C 0.79468 0.20491 0.43187
 C2694 C 0.80876 0.21199 0.42476
 C2695 C 0.81569 0.20510 0.41055
 C2696 C 0.80861 0.19102 0.40319
 C2697 C 0.79454 0.18391 0.41060
 C2698 C 0.78764 0.19082 0.42481
 C2699 C 0.78688 0.21268 0.44579
 C2700 C 0.77994 0.21959 0.45700
 H2701 H 0.81425 0.22297 0.43007
 H2702 H 0.82650 0.21097 0.40532
 H2703 H 0.78869 0.17309 0.40541
 H2704 H 0.77666 0.18531 0.43016
 C2705 C 0.70482 0.29486 0.43204
 C2706 C 0.71165 0.30917 0.42520
 C2707 C 0.70473 0.31616 0.41103
 C2708 C 0.69085 0.30889 0.40344
 C2709 C 0.68397 0.29459 0.41058
 C2710 C 0.69092 0.28763 0.42476
 C2711 C 0.71267 0.28703 0.44589
 C2712 C 0.71965 0.28009 0.45706
 H2713 H 0.72249 0.31481 0.43068
 H2714 H 0.71045 0.32712 0.40599
 H2715 H 0.67330 0.28860 0.40521
 H2716 H 0.68560 0.27648 0.42990
 C2717 C 0.70493 0.79500 0.93206
 C2718 C 0.71176 0.80929 0.92517
 C2719 C 0.70482 0.81626 0.91100
 C2720 C 0.69092 0.80899 0.90345
 C2721 C 0.68404 0.79471 0.91063
 C2722 C 0.69101 0.78777 0.92480
 C2723 C 0.71279 0.78720 0.94594
 C2724 C 0.71977 0.78029 0.95712
 H2725 H 0.72262 0.81493 0.93062
 H2726 H 0.71054 0.82721 0.90594
 H2727 H 0.67336 0.78873 0.90529
 H2728 H 0.68569 0.77663 0.92997
 C2729 C 0.20478 0.29474 0.93206
 C2730 C 0.21160 0.30904 0.92520
 C2731 C 0.20466 0.31602 0.91103
 C2732 C 0.19078 0.30875 0.90345
 C2733 C 0.18390 0.29446 0.91062
 C2734 C 0.19087 0.28751 0.92479
 C2735 C 0.21263 0.28693 0.94594
 C2736 C 0.21962 0.28001 0.95711
 H2737 H 0.22245 0.31468 0.93067
 H2738 H 0.21038 0.32699 0.90599
 H2739 H 0.17322 0.28848 0.90527
 H2740 H 0.18555 0.27636 0.92994
 C2741 C 0.20516 0.79502 0.43183
 C2742 C 0.19110 0.78792 0.42475
 C2743 C 0.18418 0.79477 0.41050
 C2744 C 0.19128 0.80884 0.40310
 C2745 C 0.20536 0.81594 0.41046
 C2746 C 0.21224 0.80906 0.42470
 C2747 C 0.21293 0.78728 0.44578
 C2748 C 0.21986 0.78039 0.45700
 H2749 H 0.18559 0.77696 0.43010
 H2750 H 0.17339 0.78889 0.40530
 H2751 H 0.21124 0.82672 0.40522
 H2752 H 0.22322 0.81458 0.43002
 C2753 C 0.70493 0.70521 0.56815
 C2754 C 0.71180 0.69090 0.57498
 C2755 C 0.70486 0.68389 0.58913
 C2756 C 0.69094 0.69113 0.59671
 C2757 C 0.68405 0.70546 0.58961
 C2758 C 0.69103 0.71244 0.57545
 C2759 C 0.71276 0.71303 0.55426
 C2760 C 0.71971 0.71996 0.54307
 H2761 H 0.72267 0.68529 0.56951
 H2762 H 0.71061 0.67294 0.59417
 H2763 H 0.67338 0.71144 0.59499
 H2764 H 0.68570 0.72361 0.57033
 C2765 C 0.70502 0.20510 0.06798
 C2766 C 0.69112 0.21231 0.07531
 C2767 C 0.68422 0.20537 0.08952
 C2768 C 0.69118 0.19109 0.09666
 C2769 C 0.70507 0.18385 0.08903
 C2770 C 0.71193 0.19082 0.07482
 C2771 C 0.71279 0.21292 0.05406
 C2772 C 0.71971 0.21987 0.04286
 H2773 H 0.68573 0.22344 0.07017
 H2774 H 0.67355 0.21133 0.09492
 H2775 H 0.71085 0.17291 0.09408
 H2776 H 0.72278 0.18521 0.06931
 C2777 C 0.20495 0.70528 0.06779
 C2778 C 0.21179 0.69094 0.07460
 C2779 C 0.20484 0.68393 0.08875
 C2780 C 0.19095 0.69119 0.09636
 C2781 C 0.18407 0.70552 0.08925
 C2782 C 0.19104 0.71250 0.07509
 C2783 C 0.21281 0.71313 0.05393
 C2784 C 0.21977 0.72008 0.04276
 H2785 H 0.22263 0.68531 0.06911
 H2786 H 0.21057 0.67296 0.09378
 H2787 H 0.17340 0.71151 0.09463
 H2788 H 0.18572 0.72367 0.06997
 C2789 C 0.20472 0.20465 0.56788
 C2790 C 0.21175 0.19049 0.57486
 C2791 C 0.20479 0.18346 0.58900
 C2792 C 0.19069 0.19053 0.59641
 C2793 C 0.18358 0.20463 0.58907
 C2794 C 0.19057 0.21163 0.57494
 C2795 C 0.21261 0.21258 0.55410
 C2796 C 0.21959 0.21961 0.54299
 H2797 H 0.22277 0.18503 0.56954
 H2798 H 0.21066 0.17263 0.59416
 H2799 H 0.17276 0.21047 0.59430
 H2800 H 0.18509 0.22266 0.56967
   
