data_POSCAR
  _audit_creation_date              2014-09-24
  _audit_creation_method            'ToBaCCo'
  _symmetry_space_group_name_H-M    'P1'
  _symmetry_Int_Tables_number       1
  _symmetry_cell_setting            triclinic
  loop_
  _symmetry_equiv_pos_as_xyz
 x,y,z
_cell_length_a 41.8838
_cell_length_b 42.3563
_cell_length_c 42.1120
_cell_angle_alpha 90.938200
_cell_angle_beta 91.648000
_cell_angle_gamma 90.161900
loop_
  _atom_site_label
  _atom_site_type_symbol
  _atom_site_fract_x
  _atom_site_fract_y
  _atom_site_fract_z
C1 C 0.70983 0.67615 0.96803
 H2 H 0.73390 0.68023 0.96052
 C3 C 0.68420 0.68987 0.95125
 H4 H 0.68880 0.70470 0.93119
 C5 C 0.67408 0.64963 1.00116
 H6 H 0.66977 0.63279 1.01946
 C7 C 0.64797 0.66292 0.98522
 H8 H 0.62402 0.65654 0.99185
 N9 N 0.70436 0.65583 0.99205
 C10 C 0.78289 0.65036 1.05702
 H11 H 0.76862 0.63699 1.07292
 C12 C 0.81238 0.66209 1.06806
 H13 H 0.82008 0.65820 1.09246
 C14 C 0.79211 0.66934 1.00547
 H15 H 0.78486 0.67070 0.98071
 C16 C 0.82196 0.68125 1.01553
 H17 H 0.83704 0.69240 0.99853
 Zn18 Zn 0.73782 0.63019 1.00922
 N19 N 0.77342 0.65375 1.02605
 C20 C 0.78215 0.59019 0.98113
 N21 N 0.75333 0.60429 0.97630
 C22 C 0.73673 0.60103 0.94819
 C23 C 0.74947 0.58352 0.92323
 C24 C 0.79583 0.57267 0.95674
 C25 C 0.70888 0.61829 1.06737
 C26 C 0.69440 0.60018 1.09027
 C27 C 0.70456 0.55343 1.05850
 C28 C 0.71914 0.57247 1.03631
 N29 N 0.72085 0.60428 1.04099
 H30 H 0.79480 0.59316 1.00375
 H31 H 0.71373 0.61222 0.94500
 H32 H 0.73621 0.58154 0.90087
 H33 H 0.81911 0.56207 0.96056
 H34 H 0.71010 0.64369 1.07030
 H35 H 0.68492 0.61177 1.11108
 H36 H 0.70341 0.52825 1.05407
 H37 H 0.72854 0.56182 1.01505
 C38 C 0.83259 0.67693 1.04701
 C39 C 0.65287 0.68250 0.95941
 C40 C 0.69166 0.56734 1.08580
 C41 C 0.77952 0.56947 0.92737
 C42 C 0.73542 0.34408 0.53482
 H43 H 0.75981 0.34215 0.54372
 C44 C 0.71077 0.32863 0.55029
 H45 H 0.71630 0.31453 0.57091
 C46 C 0.69797 0.36666 0.49860
 H47 H 0.69263 0.38227 0.47921
 C48 C 0.67285 0.35179 0.51328
 H49 H 0.64857 0.35587 0.50479
 N50 N 0.72854 0.36310 0.50979
 C51 C 0.81084 0.38807 0.45428
 H52 H 0.80564 0.41305 0.45343
 C53 C 0.83649 0.37601 0.43783
 H54 H 0.85100 0.39175 0.42420
 C55 C 0.79847 0.33729 0.47354
 H56 H 0.78354 0.32247 0.48764
 C57 C 0.82429 0.32417 0.45744
 H58 H 0.82922 0.29919 0.45919
 Zn59 Zn 0.75998 0.39033 0.49358
 N60 N 0.79262 0.36884 0.47194
 C61 C 0.81095 0.41375 0.53246
 N62 N 0.77863 0.41372 0.52812
 C63 C 0.75949 0.42865 0.54914
 C64 C 0.77288 0.44476 0.57558
 C65 C 0.82527 0.42972 0.55835
 C66 C 0.73245 0.40337 0.43494
 C67 C 0.71561 0.42004 0.41176
 C68 C 0.71460 0.46514 0.44762
 C69 C 0.73177 0.44760 0.47021
 N70 N 0.73983 0.41712 0.46363
 H71 H 0.82582 0.40112 0.51608
 H72 H 0.73383 0.42772 0.54554
 H73 H 0.75750 0.45652 0.59225
 H74 H 0.85099 0.42936 0.56130
 H75 H 0.73908 0.37909 0.43039
 H76 H 0.70947 0.40864 0.38918
 H77 H 0.70776 0.48915 0.45323
 H78 H 0.73800 0.45810 0.49311
 C79 C 0.84365 0.34385 0.43958
 C80 C 0.67904 0.33313 0.53979
 C81 C 0.70611 0.45107 0.41820
 C82 C 0.80615 0.44546 0.58022
 C83 C 0.22797 -0.14565 0.03075
 H84 H 0.25248 -0.14803 0.03915
 C85 C 0.20346 -0.16129 0.04625
 H86 H 0.20924 -0.17601 0.06636
 C87 C 0.19014 -0.12182 -0.00419
 H88 H 0.18462 -0.10568 -0.02308
 C89 C 0.16513 -0.13686 0.01056
 H90 H 0.14076 -0.13239 0.00260
 N91 N 0.22086 -0.12596 0.00631
 C92 C 0.30337 -0.10150 -0.04960
 H93 H 0.29896 -0.07635 -0.04985
 C94 C 0.32836 -0.11406 -0.06677
 H95 H 0.34299 -0.09823 -0.08004
 C96 C 0.28947 -0.15223 -0.03140
 H97 H 0.27417 -0.16691 -0.01753
 C98 C 0.31453 -0.16585 -0.04823
 H99 H 0.31858 -0.19106 -0.04721
 Zn100 Zn 0.25243 -0.09878 -0.00994
 N101 N 0.28469 -0.12047 -0.03215
 C102 C 0.30368 -0.07510 0.02883
 N103 N 0.27133 -0.07581 0.02475
 C104 C 0.25202 -0.06208 0.04641
 C105 C 0.26517 -0.04703 0.07356
 C106 C 0.31777 -0.06006 0.05542
 C107 C 0.22420 -0.08484 -0.06802
 C108 C 0.20690 -0.06787 -0.09063
 C109 C 0.20667 -0.02319 -0.05417
 C110 C 0.22426 -0.04109 -0.03218
 N111 N 0.23213 -0.07149 -0.03931
 H112 H 0.31869 -0.08662 0.01180
 H113 H 0.22636 -0.06340 0.04287
 H114 H 0.24949 -0.03654 0.09073
 H115 H 0.34354 -0.05984 0.05850
 H116 H 0.23069 -0.10908 -0.07300
 H117 H 0.20040 -0.07915 -0.11319
 H118 H 0.20018 0.00073 -0.04783
 H119 H 0.23093 -0.03093 -0.00923
 C120 C 0.33434 -0.14657 -0.06607
 C121 C 0.17160 -0.15631 0.03643
 C122 C 0.19741 -0.03681 -0.08371
 C123 C 0.29844 -0.04617 0.07828
 C124 C 0.21944 0.16374 0.46246
 H125 H 0.24376 0.16874 0.45634
 C126 C 0.19424 0.17800 0.44548
 H127 H 0.19937 0.19409 0.42658
 C128 C 0.18276 0.13524 0.49288
 H129 H 0.17800 0.11755 0.51026
 C130 C 0.15707 0.14899 0.47672
 H131 H 0.13294 0.14221 0.48231
 N132 N 0.21333 0.14253 0.48552
 C133 C 0.28950 0.14243 0.55269
 H134 H 0.27473 0.13024 0.56907
 C135 C 0.31826 0.15561 0.56395
 H136 H 0.32493 0.15390 0.58891
 C137 C 0.30077 0.15703 0.50010
 H138 H 0.29464 0.15609 0.47501
 C139 C 0.32995 0.17035 0.51040
 H140 H 0.34570 0.18018 0.49318
 Zn141 Zn 0.24640 0.11808 0.50510
 N142 N 0.28137 0.14300 0.52116
 C143 C 0.29145 0.07594 0.48075
 N144 N 0.26286 0.08999 0.47441
 C145 C 0.24749 0.08615 0.44572
 C146 C 0.26140 0.06834 0.42164
 C147 C 0.30632 0.05813 0.45723
 C148 C 0.21510 0.11197 0.56257
 C149 C 0.19909 0.09658 0.58641
 C150 C 0.21021 0.04674 0.56034
 C151 C 0.22639 0.06308 0.53708
 N152 N 0.22831 0.09515 0.53849
 H153 H 0.30322 0.07954 0.50373
 H154 H 0.22477 0.09750 0.44122
 H155 H 0.24919 0.06628 0.39872
 H156 H 0.32959 0.04791 0.46212
 H157 H 0.21640 0.13749 0.56277
 H158 H 0.18844 0.11026 0.60528
 H159 H 0.20847 0.02127 0.55872
 H160 H 0.23669 0.05022 0.51752
 C161 C 0.33916 0.16901 0.54260
 C162 C 0.16268 0.17015 0.45237
 C163 C 0.19614 0.06368 0.58513
 C164 C 0.29143 0.05462 0.42716
 C165 C 0.15591 0.45357 0.21289
 H166 H 0.14493 0.43979 0.23100
 C167 C 0.17014 0.43813 0.18743
 H168 H 0.16982 0.41257 0.18597
 C169 C 0.16813 0.50339 0.19151
 H170 H 0.16651 0.52878 0.19257
 C171 C 0.18272 0.48889 0.16568
 H172 H 0.19220 0.50339 0.14724
 N173 N 0.15375 0.48564 0.21368
 C174 C 0.12481 0.54800 0.29099
 H175 H 0.10071 0.55204 0.28209
 C176 C 0.13545 0.56276 0.31911
 H177 H 0.11957 0.57840 0.33170
 C178 C 0.17417 0.52123 0.28636
 H179 H 0.18872 0.50439 0.27378
 C180 C 0.18581 0.53556 0.31466
 H181 H 0.20949 0.52984 0.32372
 Zn182 Zn 0.12394 0.50505 0.24109
 N183 N 0.14392 0.52733 0.27551
 C184 C 0.09581 0.47067 0.28995
 N185 N 0.09726 0.47331 0.25785
 C186 C 0.08158 0.45249 0.23790
 C187 C 0.06420 0.42745 0.25012
 C188 C 0.07844 0.44627 0.30310
 C189 C 0.11392 0.56250 0.21138
 C190 C 0.09789 0.58558 0.19402
 C191 C 0.05186 0.55116 0.18957
 C192 C 0.06880 0.52863 0.20712
 N193 N 0.09943 0.53452 0.21733
 H194 H 0.10864 0.48705 0.30555
 H195 H 0.08341 0.45477 0.21247
 H196 H 0.05237 0.41078 0.23397
 H197 H 0.07778 0.44425 0.32868
 H198 H 0.13792 0.56706 0.22049
 H199 H 0.10972 0.60777 0.18952
 H200 H 0.02756 0.54620 0.18157
 H201 H 0.05740 0.50657 0.21254
 C202 C 0.16599 0.55613 0.33152
 C203 C 0.18251 0.45588 0.16284
 C204 C 0.06658 0.57994 0.18286
 C205 C 0.06286 0.42410 0.28310
 C206 C -0.14885 0.03565 0.22745
 H207 H -0.14411 0.04783 0.24988
 C208 C -0.16197 0.05221 0.20178
 H209 H -0.16769 0.07687 0.20517
 C210 C -0.14481 -0.01067 0.19558
 H211 H -0.13702 -0.03477 0.19276
 C212 C -0.15822 0.00482 0.16946
 H213 H -0.16093 -0.00779 0.14694
 N214 N -0.13938 0.00516 0.22358
 C215 C -0.11215 -0.05085 0.30612
 H216 H -0.08711 -0.05334 0.30102
 C217 C -0.12455 -0.06580 0.33228
 H218 H -0.10900 -0.07994 0.34729
 C219 C -0.16274 -0.02877 0.29311
 H220 H -0.17731 -0.01401 0.27784
 C221 C -0.17616 -0.04332 0.31930
 H222 H -0.20115 -0.03979 0.32409
 Zn223 Zn -0.11034 -0.01179 0.25422
 N224 N -0.13114 -0.03251 0.28735
 C225 C -0.08320 0.02696 0.30361
 N226 N -0.08570 0.02227 0.27158
 C227 C -0.07271 0.04305 0.25125
 C228 C -0.05669 0.06995 0.26294
 C229 C -0.06714 0.05341 0.31628
 C230 C -0.09628 -0.07045 0.22682
 C231 C -0.07874 -0.09282 0.21013
 C232 C -0.03501 -0.05562 0.20871
 C233 C -0.05337 -0.03391 0.22558
 N234 N -0.08365 -0.04144 0.23374
 H235 H -0.09409 0.01055 0.31941
 H236 H -0.07548 0.03907 0.22588
 H237 H -0.04686 0.08639 0.24641
 H238 H -0.06549 0.05706 0.34179
 H239 H -0.12028 -0.07596 0.23383
 H240 H -0.08924 -0.11567 0.20433
 H241 H -0.01119 -0.04914 0.20192
 H242 H -0.04353 -0.01095 0.23164
 C243 C -0.15677 -0.06183 0.33930
 C244 C -0.16550 0.03710 0.17190
 C245 C -0.04794 -0.08529 0.20056
 C246 C -0.05406 0.07539 0.29581
 C247 C 0.34428 0.52349 0.72359
 H248 H 0.34227 0.53204 0.74780
 C249 C 0.32844 0.53923 0.69873
 H250 H 0.31396 0.55968 0.70396
 C251 C 0.36773 0.48815 0.68685
 H252 H 0.38391 0.46906 0.68191
 C253 C 0.35245 0.50311 0.66151
 H254 H 0.35680 0.49516 0.63744
 N255 N 0.36398 0.49882 0.71718
 C256 C 0.39075 0.44215 0.79908
 H257 H 0.41572 0.44027 0.79346
 C258 C 0.37938 0.42656 0.82529
 H259 H 0.39584 0.41258 0.83933
 C260 C 0.33964 0.46388 0.78791
 H261 H 0.32447 0.47886 0.77346
 C262 C 0.32723 0.44870 0.81425
 H263 H 0.30241 0.45195 0.82003
 Zn264 Zn 0.39210 0.48298 0.74924
 N265 N 0.37108 0.46066 0.78122
 C266 C 0.41348 0.52143 0.80075
 N267 N 0.41402 0.51780 0.76860
 C268 C 0.42791 0.53985 0.75028
 C269 C 0.44208 0.56679 0.76435
 C270 C 0.42749 0.54780 0.81571
 C271 C 0.40789 0.42565 0.72181
 C272 C 0.42603 0.40322 0.70601
 C273 C 0.47049 0.43976 0.70771
 C274 C 0.45146 0.46159 0.72377
 N275 N 0.42061 0.45430 0.73003
 H276 H 0.40177 0.50414 0.81496
 H277 H 0.42749 0.53675 0.72472
 H278 H 0.45292 0.58434 0.74961
 H279 H 0.42657 0.55016 0.84127
 H280 H 0.38331 0.42050 0.72708
 H281 H 0.41545 0.38064 0.69925
 H282 H 0.49483 0.44589 0.70237
 H283 H 0.46112 0.48445 0.73066
 C284 C 0.34740 0.43015 0.83347
 C285 C 0.33322 0.52938 0.66727
 C286 C 0.45753 0.41034 0.69847
 C287 C 0.44190 0.57088 0.79745
 C288 C 0.65510 0.94493 0.71949
 H289 H 0.64445 0.93216 0.73854
 C290 C 0.66844 0.92818 0.69430
 H291 H 0.66798 0.90266 0.69432
 C292 C 0.66633 0.99354 0.69506
 H293 H 0.66442 1.01892 0.69471
 C294 C 0.67998 0.97774 0.66948
 H295 H 0.68855 0.99111 0.64972
 N296 N 0.65289 0.97696 0.71867
 C297 C 0.62319 1.03911 0.79569
 H298 H 0.59966 1.04411 0.78579
 C299 C 0.63314 1.05336 0.82428
 H300 H 0.61713 1.06981 0.83545
 C301 C 0.67194 1.01113 0.79250
 H302 H 0.68660 0.99422 0.78014
 C303 C 0.68293 1.02491 0.82129
 H304 H 0.70632 1.01871 0.83086
 Zn305 Zn 0.62293 0.99741 0.74500
 N306 N 0.64224 1.01804 0.78074
 C307 C 0.58975 0.96405 0.79138
 N308 N 0.59371 0.96675 0.75957
 C309 C 0.57865 0.94665 0.73842
 C310 C 0.55914 0.92241 0.74911
 C311 C 0.57028 0.94042 0.80301
 C312 C 0.61704 1.05624 0.71691
 C313 C 0.60284 1.08053 0.69968
 C314 C 0.55610 1.04763 0.69099
 C315 C 0.57115 1.02395 0.70857
 N316 N 0.60124 1.02854 0.72089
 H317 H 0.60218 0.97977 0.80797
 H318 H 0.58254 0.94890 0.71327
 H319 H 0.54784 0.90626 0.73207
 H320 H 0.56768 0.93830 0.82840
 H321 H 0.64072 1.05954 0.72738
 H322 H 0.61587 1.10232 0.69686
 H323 H 0.53218 1.04380 0.68121
 H324 H 0.55874 1.00203 0.71231
 C325 C 0.66302 1.04567 0.83804
 C326 C 0.67963 0.94469 0.66825
 C327 C 0.57203 1.07628 0.68651
 C328 C 0.55513 0.91906 0.78181
 C329 C 0.03392 0.22804 -0.13990
 H330 H 0.04864 0.24695 -0.12999
 C331 C 0.04838 0.20240 -0.15492
 H332 H 0.07415 0.20160 -0.15628
 C333 C -0.01722 0.20508 -0.14896
 H334 H -0.04269 0.20571 -0.14590
 C335 C -0.00374 0.17906 -0.16430
 H336 H -0.01911 0.16003 -0.17291
 N337 N 0.00177 0.22828 -0.13593
 C338 C -0.05832 0.30717 -0.10770
 H339 H -0.06054 0.30110 -0.08301
 C340 C -0.07447 0.33327 -0.11972
 H341 H -0.08930 0.34724 -0.10423
 C342 C -0.03537 0.29696 -0.15766
 H343 H -0.01968 0.28288 -0.17208
 C344 C -0.05106 0.32316 -0.17066
 H345 H -0.04748 0.32914 -0.19518
 Zn346 Zn -0.01574 0.25733 -0.10622
 N347 N -0.03895 0.28986 -0.12656
 C348 C 0.02190 0.30765 -0.08022
 N349 N 0.01823 0.27570 -0.08123
 C350 C 0.03984 0.25650 -0.06651
 C351 C 0.06679 0.26924 -0.05072
 C352 C 0.04834 0.32137 -0.06443
 C353 C -0.07352 0.22790 -0.09334
 C354 C -0.09531 0.21019 -0.07662
 C355 C -0.05707 0.20817 -0.03268
 C356 C -0.03598 0.22606 -0.05029
 N357 N -0.04426 0.23502 -0.08030
 H358 H 0.00479 0.32260 -0.09232
 H359 H 0.03673 0.23115 -0.06806
 H360 H 0.08404 0.25355 -0.03979
 H361 H 0.05130 0.34678 -0.06425
 H362 H -0.07991 0.23589 -0.11693
 H363 H -0.11836 0.20449 -0.08762
 H364 H -0.04970 0.20105 -0.00906
 H365 H -0.01294 0.23241 -0.03997
 C366 C -0.07053 0.34177 -0.15135
 C367 C 0.02953 0.17705 -0.16623
 C368 C -0.08709 0.19969 -0.04602
 C369 C 0.07139 0.30203 -0.04999
 C370 C 0.45480 0.21406 0.15403
 H371 H 0.44060 0.23221 0.14279
 C372 C 0.43955 0.18898 0.16854
 H373 H 0.41370 0.18785 0.16818
 C374 C 0.50550 0.19233 0.16686
 H375 H 0.53116 0.19317 0.16545
 C376 C 0.49120 0.16688 0.18171
 H377 H 0.50613 0.14849 0.19160
 N378 N 0.48719 0.21455 0.15216
 C379 C 0.54980 0.29132 0.12533
 H380 H 0.55390 0.28302 0.10136
 C381 C 0.56462 0.31887 0.13664
 H382 H 0.58036 0.33166 0.12140
 C383 C 0.52279 0.28572 0.17367
 H384 H 0.50581 0.27299 0.18756
 C385 C 0.53718 0.31341 0.18597
 H386 H 0.53136 0.32188 0.20948
 Zn387 Zn 0.50644 0.24210 0.12298
 N388 N 0.52895 0.27565 0.14362
 C389 C 0.47178 0.29156 0.09400
 N390 N 0.47416 0.25959 0.09589
 C391 C 0.45290 0.24024 0.08002
 C392 C 0.42773 0.25294 0.06189
 C393 C 0.44727 0.30517 0.07586
 C394 C 0.56479 0.21236 0.11350
 C395 C 0.58798 0.19530 0.09755
 C396 C 0.55222 0.19187 0.05160
 C397 C 0.52966 0.20914 0.06842
 N398 N 0.53615 0.21870 0.09896
 H399 H 0.48852 0.30668 0.10696
 H400 H 0.45500 0.21491 0.08216
 H401 H 0.41075 0.23725 0.04986
 H402 H 0.44550 0.33064 0.07480
 H403 H 0.56979 0.22091 0.13747
 H404 H 0.61070 0.19047 0.10939
 H405 H 0.54672 0.18439 0.02737
 H406 H 0.50709 0.21485 0.05697
 C407 C 0.55788 0.33049 0.16699
 C408 C 0.45783 0.16445 0.18143
 C409 C 0.58170 0.18478 0.06633
 C410 C 0.42470 0.28579 0.05998
 C411 C 0.95813 0.72265 0.67349
 H412 H 0.94818 0.74618 0.67314
 C413 C 0.94172 0.69826 0.68824
 H414 H 0.91933 0.70320 0.69948
 C415 C 0.99771 0.68670 0.65668
 H416 H 1.01878 0.68169 0.64344
 C417 C 0.98222 0.66186 0.67107
 H418 H 0.99171 0.63817 0.66888
 N419 N 0.98524 0.71633 0.65748
 C420 C 1.04721 0.79476 0.63550
 H421 H 1.05423 0.78506 0.61287
 C422 C 1.06107 0.82280 0.64669
 H423 H 1.07909 0.83420 0.63288
 C424 C 1.01331 0.79331 0.67960
 H425 H 0.99401 0.78215 0.69174
 C426 C 1.02665 0.82160 0.69172
 H427 H 1.01769 0.83202 0.71332
 Zn428 Zn 1.00245 0.74679 0.62999
 N429 N 1.02360 0.78070 0.65177
 C430 C 0.96775 0.79545 0.60044
 N431 N 0.96874 0.76370 0.60482
 C432 C 0.94567 0.74427 0.59204
 C433 C 0.92018 0.75674 0.57414
 C434 C 0.94291 0.80880 0.58257
 C435 C 1.06094 0.71872 0.61745
 C436 C 1.08390 0.70314 0.59986
 C437 C 1.04797 0.70435 0.55395
 C438 C 1.02563 0.72009 0.57243
 N439 N 1.03236 0.72661 0.60367
 H440 H 0.98622 0.81054 0.61078
 H441 H 0.94698 0.71912 0.59598
 H442 H 0.90192 0.74106 0.56425
 H443 H 0.94239 0.83410 0.57925
 H444 H 1.06570 0.72432 0.64230
 H445 H 1.10649 0.69679 0.61114
 H446 H 1.04228 0.69904 0.52921
 H447 H 1.00286 0.72679 0.56191
 C448 C 1.05042 0.83679 0.67474
 C449 C 0.95349 0.66734 0.68627
 C450 C 1.07737 0.69562 0.56785
 C451 C 0.91873 0.78940 0.56940
 C452 C 0.52153 0.71823 0.33991
 H453 H 0.52477 0.74182 0.33116
 C454 C 0.53741 0.69281 0.32566
 H455 H 0.55258 0.69693 0.30577
 C456 C 0.49954 0.68406 0.37762
 H457 H 0.48623 0.68070 0.39886
 C458 C 0.51459 0.65820 0.36400
 H459 H 0.51195 0.63512 0.37435
 N460 N 0.50310 0.71344 0.36554
 C461 C 0.43605 0.78592 0.36634
 H462 H 0.42070 0.77044 0.37913
 C463 C 0.42317 0.81327 0.35328
 H464 H 0.39796 0.81810 0.35579
 C465 C 0.48760 0.79979 0.34948
 H466 H 0.51294 0.79504 0.34925
 C467 C 0.47573 0.82768 0.33630
 H468 H 0.49223 0.84361 0.32544
 Zn469 Zn 0.48615 0.74734 0.38994
 N470 N 0.46786 0.77987 0.36473
 C471 C 0.51673 0.79487 0.42747
 N472 N 0.52001 0.76537 0.41475
 C473 C 0.54819 0.74959 0.41716
 C474 C 0.57476 0.76374 0.43224
 C475 C 0.54284 0.81000 0.44257
 C476 C 0.43115 0.71291 0.40118
 C477 C 0.40867 0.69703 0.41870
 C478 C 0.43387 0.71816 0.46687
 C479 C 0.45629 0.73339 0.44837
 N480 N 0.45457 0.73036 0.41614
 H481 H 0.49412 0.80699 0.42499
 H482 H 0.55032 0.72619 0.40684
 H483 H 0.59707 0.75098 0.43340
 H484 H 0.54028 0.83378 0.45200
 H485 H 0.43061 0.71060 0.37555
 H486 H 0.39060 0.68263 0.40650
 H487 H 0.43565 0.72035 0.49249
 H488 H 0.47533 0.74712 0.45973
 C489 C 0.44318 0.83512 0.33890
 C490 C 0.53419 0.66250 0.33814
 C491 C 0.40999 0.69950 0.45187
 C492 C 0.57231 0.79446 0.44473
 C493 C 0.36157 -0.00627 0.21626
 C494 C 0.37733 0.00835 0.24241
 C495 C 0.39295 0.03734 0.23866
 C496 C 0.39337 0.05141 0.20878
 C497 C 0.37745 0.03662 0.18279
 C498 C 0.36118 0.00801 0.18646
 C499 C 0.37647 -0.00620 0.27391
 C500 C 0.38984 -0.03608 0.27897
 C501 C 0.38862 -0.04991 0.30895
 C502 C 0.37312 -0.03401 0.33362
 C503 C 0.35926 -0.00434 0.32859
 C504 C 0.36145 0.00963 0.29878
 H505 H 0.34932 -0.02848 0.21942
 H506 H 0.40501 0.04857 0.25895
 H507 H 0.40152 -0.04818 0.25969
 H508 H 0.35075 0.03242 0.29441
 H509 H 0.37759 0.04750 0.15967
 H510 H 0.37172 -0.04480 0.35670
 C511 C 0.12143 1.02126 0.71018
 C512 C 0.10648 1.00538 0.73464
 C513 C 0.09515 0.97445 0.72936
 C514 C 0.09911 0.95927 0.69991
 C515 C 0.11479 0.97518 0.67585
 C516 C 0.12593 1.00612 0.68084
 C517 C 0.10587 1.01999 0.76660
 C518 C 0.09097 1.04917 0.77168
 C519 C 0.09229 1.06363 0.80192
 C520 C 0.10945 1.04912 0.82683
 C521 C 0.12456 1.02005 0.82183
 C522 C 0.12232 1.00546 0.79176
 H523 H 0.13086 1.04478 0.71466
 H524 H 0.08367 0.96207 0.74828
 H525 H 0.07833 1.06033 0.75212
 H526 H 0.13434 0.98332 0.78733
 H527 H 0.11841 0.96372 0.65311
 H528 H 0.11097 1.06042 0.85010
 C529 C 0.62798 0.51402 0.20918
 C530 C 0.61483 0.49629 0.23337
 C531 C 0.60446 0.46523 0.22690
 C532 C 0.60734 0.45191 0.19640
 C533 C 0.62129 0.46971 0.17257
 C534 C 0.63156 0.50074 0.17886
 C535 C 0.61409 0.50981 0.26580
 C536 C 0.59899 0.53878 0.27157
 C537 C 0.60046 0.55269 0.30202
 C538 C 0.61784 0.53783 0.32651
 C539 C 0.63296 0.50888 0.32095
 C540 C 0.63069 0.49481 0.29060
 H541 H 0.63652 0.53773 0.21447
 H542 H 0.59414 0.45149 0.24554
 H543 H 0.58616 0.55029 0.25234
 H544 H 0.64283 0.47283 0.28573
 H545 H 0.62405 0.45975 0.14901
 H546 H 0.61941 0.54871 0.34998
 C547 C 0.85569 0.49723 0.71751
 C548 C 0.86722 0.51325 0.74494
 C549 C 0.88195 0.54292 0.74225
 C550 C 0.88563 0.55619 0.71231
 C551 C 0.87404 0.53993 0.68510
 C552 C 0.85880 0.51061 0.68754
 C553 C 0.86298 0.49951 0.77652
 C554 C 0.87488 0.46934 0.78359
 C555 C 0.87115 0.45675 0.81390
 C556 C 0.85455 0.47418 0.83673
 C557 C 0.84250 0.50416 0.82981
 C558 C 0.84700 0.51684 0.79978
 H559 H 0.84383 0.47460 0.71953
 H560 H 0.89096 0.55526 0.76339
 H561 H 0.88767 0.45605 0.76583
 H562 H 0.83776 0.53998 0.79418
 H563 H 0.87687 0.55039 0.66208
 H564 H 0.85122 0.46485 0.86015
 C565 C 0.21172 0.35858 -0.01032
 C566 C 0.23877 0.37232 0.00463
 C567 C 0.23591 0.38848 0.03377
 C568 C 0.20605 0.39129 0.04772
 C569 C 0.17914 0.37731 0.03262
 C570 C 0.18189 0.36059 0.00384
 C571 C 0.27034 0.36835 -0.00941
 C572 C 0.27664 0.38076 -0.03933
 C573 C 0.30698 0.37720 -0.05216
 C574 C 0.33067 0.36056 -0.03525
 C575 C 0.32434 0.34753 -0.00574
 C576 C 0.29423 0.35182 0.00727
 H577 H 0.21424 0.34580 -0.03256
 H578 H 0.25693 0.39887 0.04533
 H579 H 0.25818 0.39360 -0.05214
 H580 H 0.28919 0.34231 0.03030
 H581 H 0.15606 0.37914 0.04350
 H582 H 0.35416 0.35783 -0.04506
 C583 C 0.71104 0.11786 1.01832
 C584 C 0.73597 0.10448 1.00118
 C585 C 0.72977 0.09208 0.97047
 C586 C 0.69875 0.09301 0.95709
 C587 C 0.67417 0.10702 0.97424
 C588 C 0.68019 0.11961 1.00477
 C589 C 0.76880 0.10590 1.01470
 C590 C 0.77603 0.09292 1.04446
 C591 C 0.80649 0.09689 1.05864
 C592 C 0.82975 0.11417 1.04289
 C593 C 0.82274 0.12713 1.01307
 C594 C 0.79231 0.12263 0.99896
 H595 H 0.71617 0.12805 1.04165
 H596 H 0.74905 0.08192 0.95714
 H597 H 0.75787 0.07993 1.05667
 H598 H 0.78635 0.13307 0.97628
 H599 H 0.65031 0.10839 0.96367
 H600 H 0.85334 0.11750 1.05362
 C601 C 0.20471 0.62804 0.51702
 C602 C 0.22935 0.61414 0.50001
 C603 C 0.22340 0.60334 0.46868
 C604 C 0.19291 0.60641 0.45442
 C605 C 0.16855 0.62096 0.47157
 C606 C 0.17437 0.63186 0.50279
 C607 C 0.26171 0.61273 0.51456
 C608 C 0.26725 0.59717 0.54336
 C609 C 0.29798 0.59682 0.55751
 C610 C 0.32306 0.61254 0.54292
 C611 C 0.31749 0.62875 0.51456
 C612 C 0.28684 0.62856 0.50039
 H613 H 0.20969 0.63680 0.54093
 H614 H 0.24243 0.59248 0.45548
 H615 H 0.24772 0.58512 0.55439
 H616 H 0.28238 0.64131 0.47860
 H617 H 0.14497 0.62384 0.46089
 H618 H 0.34673 0.61245 0.55395
 C619 C 0.70815 0.86005 0.48807
 C620 C 0.73409 0.87359 0.50519
 C621 C 0.72939 0.88704 0.53541
 C622 C 0.69911 0.88665 0.54870
 C623 C 0.67348 0.87257 0.53157
 C624 C 0.67786 0.85914 0.50140
 C625 C 0.76667 0.87080 0.49303
 C626 C 0.77466 0.88362 0.46371
 C627 C 0.80591 0.88079 0.45272
 C628 C 0.82879 0.86435 0.47099
 C629 C 0.82082 0.85099 0.49991
 C630 C 0.78985 0.85456 0.51096
 H631 H 0.71202 0.84898 0.46516
 H632 H 0.74942 0.89738 0.54878
 H633 H 0.75682 0.89622 0.44979
 H634 H 0.78350 0.84454 0.53341
 H635 H 0.65002 0.87169 0.54161
 H636 H 0.85295 0.86182 0.46298
 C637 C -0.00704 0.21328 0.35020
 C638 C 0.00945 0.23898 0.36426
 C639 C 0.03902 0.23420 0.37998
 C640 C 0.05179 0.20373 0.38213
 C641 C 0.03519 0.17822 0.36782
 C642 C 0.00597 0.18286 0.35158
 C643 C -0.00399 0.27097 0.36207
 C644 C -0.03294 0.27835 0.37645
 C645 C -0.04515 0.30910 0.37512
 C646 C -0.02859 0.33219 0.35854
 C647 C -0.00008 0.32483 0.34355
 C648 C 0.01235 0.29427 0.34569
 H649 H -0.02972 0.21719 0.33794
 H650 H 0.05161 0.25410 0.39093
 H651 H -0.04552 0.26039 0.38926
 H652 H 0.03466 0.28842 0.33467
 H653 H 0.04503 0.15463 0.36936
 H654 H -0.03761 0.35602 0.35717
 C655 C 1.02065 0.70979 0.11771
 C656 C 1.00397 0.73574 0.10555
 C657 C 0.97277 0.73162 0.09308
 C658 C 0.95829 0.70174 0.09273
 C659 C 0.97506 0.67599 0.10541
 C660 C 1.00611 0.67995 0.11823
 C661 C 1.01820 0.76759 0.10842
 C662 C 1.04812 0.77407 0.09583
 C663 C 1.06153 0.80439 0.09912
 C664 C 1.04517 0.82796 0.11589
 C665 C 1.01553 0.82149 0.12904
 C666 C 1.00204 0.79136 0.12488
 H667 H 1.04432 0.71338 0.12811
 H668 H 0.95988 0.75179 0.08393
 H669 H 1.06042 0.75571 0.08288
 H670 H 0.97929 0.78591 0.13504
 H671 H 0.96369 0.65299 0.10590
 H672 H 1.05545 0.85140 0.11857
 C673 C 0.52420 0.20308 0.61987
 C674 C 0.50841 0.22928 0.60707
 C675 C 0.47764 0.22559 0.59330
 C676 C 0.46286 0.19583 0.59223
 C677 C 0.47873 0.16988 0.60556
 C678 C 0.50921 0.17349 0.61975
 C679 C 0.52327 0.26083 0.61018
 C680 C 0.55371 0.26646 0.59837
 C681 C 0.56778 0.29646 0.60177
 C682 C 0.55159 0.32059 0.61787
 C683 C 0.52141 0.31502 0.63022
 C684 C 0.50724 0.28517 0.62595
 H685 H 0.54762 0.20601 0.63119
 H686 H 0.46535 0.24588 0.58362
 H687 H 0.56588 0.24771 0.58586
 H688 H 0.48405 0.28038 0.63549
 H689 H 0.46698 0.14709 0.60528
 H690 H 0.56238 0.34381 0.62056
 C691 C 0.48374 0.70928 0.85021
 C692 C 0.49780 0.73677 0.86343
 C693 C 0.52692 0.73485 0.88068
 C694 C 0.54173 0.70560 0.88506
 C695 C 0.52759 0.67831 0.87164
 C696 C 0.49871 0.67994 0.85406
 C697 C 0.48286 0.76780 0.85850
 C698 C 0.45379 0.77543 0.87257
 C699 C 0.44136 0.80607 0.86999
 C700 C 0.45774 0.82863 0.85259
 C701 C 0.48642 0.82102 0.83806
 C702 C 0.49898 0.79061 0.84126
 H703 H 0.46145 0.71077 0.83660
 H704 H 0.53770 0.75610 0.89089
 H705 H 0.44169 0.75798 0.88642
 H706 H 0.52164 0.78469 0.83099
 H707 H 0.53934 0.65586 0.87500
 H708 H 0.44848 0.85244 0.85094
 C709 C 0.38648 -0.10965 0.32943
 C710 C 0.40367 -0.13217 0.30630
 C711 C 0.43039 -0.13496 0.32953
 C712 C 0.41495 -0.11430 0.35296
 C713 C 0.44814 -0.10858 0.31592
 C714 C 0.42049 -0.10366 0.29134
 C715 C 0.40400 -0.08130 0.31517
 C716 C 0.43208 -0.08545 0.33929
 H717 H 0.36088 -0.11101 0.33540
 H718 H 0.39277 -0.15262 0.29313
 H719 H 0.41338 -0.11981 0.37857
 H720 H 0.47387 -0.10840 0.31036
 H721 H 0.42340 -0.10052 0.26548
 H722 H 0.44448 -0.06658 0.35354
 C723 C 0.88481 0.40977 0.85491
 C724 C 0.87788 0.37768 0.83808
 C725 C 0.91401 0.37156 0.83697
 C726 C 0.92104 0.40347 0.85373
 C727 C 0.91545 0.38712 0.80423
 C728 C 0.87906 0.39368 0.80527
 C729 C 0.88611 0.42553 0.82223
 C730 C 0.92227 0.41938 0.82100
 H731 H 0.87251 0.41819 0.87642
 H732 H 0.85967 0.36024 0.84510
 H733 H 0.93853 0.40740 0.87373
 H734 H 0.92808 0.37782 0.78326
 H735 H 0.86156 0.38991 0.78527
 H736 H 0.94048 0.43682 0.81399
 C737 C 0.05453 1.11350 0.78480
 C738 C 0.02870 1.11672 0.81027
 C739 C 0.04530 1.14700 0.82311
 C740 C 0.07093 1.14415 0.79779
 C741 C 0.06599 1.12759 0.84641
 C742 C 0.04955 1.09710 0.83351
 C743 C 0.07519 1.09415 0.80822
 C744 C 0.09178 1.12441 0.82103
 H745 H 0.04959 1.10802 0.75928
 H746 H 0.00274 1.11310 0.80556
 H747 H 0.07956 1.16378 0.78311
 H748 H 0.07059 1.13357 0.87190
 H749 H 0.04089 1.07752 0.84825
 H750 H 0.11788 1.12734 0.82544
 C751 C 0.55843 0.58481 0.33541
 C752 C 0.57459 0.61549 0.34809
 C753 C 0.55250 0.63467 0.32588
 C754 C 0.53625 0.60419 0.31323
 C755 C 0.57712 0.63290 0.29948
 C756 C 0.59937 0.61334 0.32165
 C757 C 0.58308 0.58284 0.30909
 C758 C 0.56105 0.60198 0.28671
 H759 H 0.55082 0.56483 0.35019
 H760 H 0.58010 0.62125 0.37348
 H761 H 0.51010 0.60064 0.30981
 H762 H 0.58487 0.65275 0.28461
 H763 H 0.62553 0.61682 0.32509
 H764 H 0.55523 0.59663 0.26132
 C765 C 0.59828 0.40071 0.15776
 C766 C 0.60685 0.37072 0.17662
 C767 C 0.57117 0.36214 0.17722
 C768 C 0.56250 0.39191 0.15841
 C769 C 0.56768 0.38038 0.20886
 C770 C 0.60358 0.38943 0.20831
 C771 C 0.59488 0.41911 0.18933
 C772 C 0.55919 0.41050 0.19005
 H773 H 0.61076 0.40823 0.13626
 H774 H 0.62642 0.35406 0.17115
 H775 H 0.54538 0.39278 0.13783
 H776 H 0.55512 0.37204 0.23001
 H777 H 0.62071 0.38870 0.22889
 H778 H 0.53963 0.42718 0.19552
 C779 C 0.09315 0.90533 0.66499
 C780 C 0.09879 0.87694 0.68703
 C781 C 0.06298 0.86893 0.68413
 C782 C 0.05723 0.89715 0.66216
 C783 C 0.05622 0.88969 0.71351
 C784 C 0.09228 0.89816 0.71644
 C785 C 0.08651 0.92629 0.69428
 C786 C 0.05067 0.91828 0.69154
 H787 H 0.10831 0.91085 0.64463
 H788 H 0.11855 0.85964 0.68525
 H789 H 0.04260 0.89657 0.63975
 H790 H 0.04104 0.88321 0.73358
 H791 H 0.10693 0.89887 0.73883
 H792 H 0.03094 0.93561 0.69332
 C793 C 0.93437 0.58839 0.69070
 C794 C 0.92089 0.61597 0.67102
 C795 C 0.93434 0.63940 0.69638
 C796 C 0.94792 0.61199 0.71608
 C797 C 0.90282 0.63824 0.71425
 C798 C 0.88925 0.61448 0.68890
 C799 C 0.90287 0.58700 0.70849
 C800 C 0.91618 0.61033 0.73406
 H801 H 0.94728 0.56768 0.68098
 H802 H 0.92289 0.61845 0.64495
 H803 H 0.97222 0.61119 0.72726
 H804 H 0.88982 0.65883 0.72405
 H805 H 0.86495 0.61527 0.67770
 H806 H 0.91424 0.60809 0.76015
 C807 C 0.43011 0.10202 0.22863
 C808 C 0.45751 0.10479 0.20484
 C809 C 0.44160 0.13457 0.19117
 C810 C 0.41443 0.13218 0.21483
 C811 C 0.42242 0.11431 0.16661
 C812 C 0.43816 0.08434 0.18031
 C813 C 0.41097 0.08184 0.20392
 C814 C 0.39509 0.11161 0.19030
 H815 H 0.43343 0.09721 0.25433
 H816 H 0.48319 0.10157 0.21109
 H817 H 0.40482 0.15213 0.22901
 H818 H 0.41937 0.11954 0.14095
 H819 H 0.44780 0.06444 0.16607
 H820 H 0.36925 0.11417 0.18432
 C821 C 0.29455 0.41157 -0.10611
 C822 C 0.32268 0.43517 -0.10863
 C823 C 0.33547 0.41565 -0.13665
 C824 C 0.30744 0.39226 -0.13461
 C825 C 0.35592 0.39561 -0.11362
 C826 C 0.34309 0.41505 -0.08545
 C827 C 0.31521 0.39158 -0.08327
 C828 C 0.32785 0.37210 -0.11133
 H829 H 0.26919 0.41822 -0.10308
 H830 H 0.32070 0.46130 -0.10769
 H831 H 0.29289 0.38291 -0.15512
 H832 H 0.38121 0.38833 -0.11566
 H833 H 0.35771 0.42446 -0.06499
 H834 H 0.32985 0.34597 -0.11225
 C835 C 0.84848 0.89495 0.40792
 C836 C 0.83310 0.88765 0.37481
 C837 C 0.83085 0.92329 0.36872
 C838 C 0.84616 0.93070 0.40166
 C839 C 0.79725 0.92439 0.38264
 C840 C 0.79944 0.88849 0.38916
 C841 C 0.81495 0.89590 0.42205
 C842 C 0.81254 0.93157 0.41596
 H843 H 0.87029 0.88317 0.41739
 H844 H 0.84156 0.86961 0.35761
 H845 H 0.86543 0.94827 0.40670
 H846 H 0.77605 0.93652 0.37224
 H847 H 0.78016 0.87091 0.38425
 H848 H 0.80409 0.94959 0.43318
 C849 C 0.79220 0.08258 1.11913
 C850 C 0.79810 0.04682 1.12347
 C851 C 0.82649 0.05413 1.14363
 C852 C 0.82180 0.08850 1.14128
 C853 C 0.84798 0.05315 1.11655
 C854 C 0.81909 0.04622 1.09388
 C855 C 0.81403 0.08207 1.09014
 C856 C 0.84345 0.08897 1.11215
 H857 H 0.76881 0.09461 1.12107
 H858 H 0.77986 0.02896 1.12948
 H859 H 0.82294 0.10594 1.16122
 H860 H 0.87119 0.04051 1.11667
 H861 H 0.81827 0.02790 1.07472
 H862 H 0.86302 0.10620 1.10881
 C863 C 0.32227 0.59388 0.61702
 C864 C 0.29877 0.57686 0.63882
 C865 C 0.32107 0.54804 0.63944
 C866 C 0.34463 0.56492 0.61798
 C867 C 0.30344 0.53348 0.61015
 C868 C 0.28100 0.56248 0.60909
 C869 C 0.30474 0.57928 0.58769
 C870 C 0.32699 0.55048 0.58848
 H871 H 0.33002 0.61890 0.61961
 H872 H 0.28702 0.58775 0.65957
 H873 H 0.37096 0.56585 0.62183
 H874 H 0.29571 0.50846 0.60754
 H875 H 0.25465 0.56139 0.60563
 H876 H 0.33860 0.53973 0.56757
 C877 C 0.20578 0.60175 0.39193
 C878 C 0.20720 0.56614 0.38284
 C879 C 0.17556 0.56952 0.36367
 C880 C 0.17411 0.60491 0.37230
 C881 C 0.15640 0.56142 0.39311
 C882 C 0.18804 0.55822 0.41263
 C883 C 0.18646 0.59361 0.42129
 C884 C 0.15490 0.59690 0.40195
 H885 H 0.22614 0.61857 0.39174
 H886 H 0.22884 0.55351 0.37500
 H887 H 0.16844 0.62408 0.35542
 H888 H 0.13603 0.54461 0.39343
 H889 H 0.19371 0.53906 0.42954
 H890 H 0.13291 0.60943 0.40897
 C891 C 0.67736 0.09983 0.89722
 C892 C 0.69829 0.08159 0.87345
 C893 C 0.67274 0.05794 0.86880
 C894 C 0.65130 0.07458 0.89062
 C895 C 0.68586 0.03773 0.89410
 C896 C 0.71291 0.06208 0.90102
 C897 C 0.69119 0.07968 0.92451
 C898 C 0.66465 0.05480 0.91835
 H899 H 0.67350 0.12575 0.89760
 H900 H 0.71150 0.09203 0.85365
 H901 H 0.62551 0.07956 0.88680
 H902 H 0.68875 0.01176 0.89158
 H903 H 0.73861 0.05629 0.90428
 H904 H 0.65016 0.04304 0.93641
 C905 C 0.66363 0.89910 0.60015
 C906 C 0.68396 0.89213 0.63046
 C907 C 0.68655 0.92785 0.63751
 C908 C 0.66624 0.93487 0.60740
 C909 C 0.71735 0.92992 0.61859
 C910 C 0.71482 0.89398 0.61111
 C911 C 0.69439 0.90111 0.58110
 C912 C 0.69706 0.93678 0.58817
 H913 H 0.64108 0.88661 0.59337
 H914 H 0.67877 0.87330 0.64758
 H915 H 0.64613 0.95187 0.60600
 H916 H 0.73945 0.94266 0.62648
 H917 H 0.73489 0.87695 0.61234
 H918 H 0.70235 0.95508 0.57049
 C919 C 0.22801 0.42648 0.09907
 C920 C 0.20493 0.45480 0.10262
 C921 C 0.19140 0.43960 0.13239
 C922 C 0.21437 0.41152 0.12923
 C923 C 0.16582 0.42202 0.11184
 C924 C 0.17938 0.43705 0.08187
 C925 C 0.20229 0.40896 0.07862
 C926 C 0.18881 0.39380 0.10838
 H927 H 0.25379 0.42848 0.09403
 H928 H 0.21183 0.47990 0.09988
 H929 H 0.22876 0.40116 0.14898
 H930 H 0.14010 0.42030 0.11728
 H931 H 0.16493 0.44744 0.06217
 H932 H 0.18216 0.36855 0.11052
 C933 C -0.07933 0.31326 0.42804
 C934 C -0.09433 0.34654 0.42985
 C935 C -0.12749 0.33190 0.42284
 C936 C -0.11288 0.29861 0.42128
 C937 C -0.12337 0.33584 0.38695
 C938 C -0.09006 0.35057 0.39386
 C939 C -0.07522 0.31737 0.39212
 C940 C -0.10832 0.30251 0.38510
 H941 H -0.06090 0.30398 0.44486
 H942 H -0.08867 0.36469 0.44850
 H943 H -0.12232 0.27718 0.43261
 H944 H -0.14177 0.34512 0.37009
 H945 H -0.08156 0.37265 0.38303
 H946 H -0.11383 0.28435 0.36643
 C947 C 0.41359 0.84306 0.91208
 C948 C 0.38451 0.85865 0.89542
 C949 C 0.36220 0.83968 0.91657
 C950 C 0.39113 0.82413 0.93330
 C951 C 0.36045 0.81261 0.89171
 C952 C 0.38301 0.83151 0.87045
 C953 C 0.41199 0.81611 0.88715
 C954 C 0.38984 0.79693 0.90821
 H955 H 0.43569 0.85553 0.92047
 H956 H 0.38327 0.88400 0.88936
 H957 H 0.39434 0.82126 0.95935
 H958 H 0.33830 0.80021 0.88340
 H959 H 0.37980 0.83441 0.84440
 H960 H 0.39195 0.77143 0.91350
 C961 C 1.09242 0.83526 0.05528
 C962 C 1.12088 0.85308 0.07139
 C963 C 1.14400 0.83081 0.05427
 C964 C 1.11573 0.81301 0.03806
 C965 C 1.14397 0.80803 0.08238
 C966 C 1.12047 0.83023 0.09964
 C967 C 1.09218 0.81251 0.08335
 C968 C 1.11528 0.79008 0.06632
 H969 H 1.07101 0.84645 0.04420
 H970 H 1.12338 0.87915 0.07339
 H971 H 1.11397 0.80594 0.01257
 H972 H 1.16525 0.79672 0.09356
 H973 H 1.12217 0.83728 0.12514
 H974 H 1.11325 0.76401 0.06415
 C975 C 0.59967 0.32567 0.55771
 C976 C 0.62800 0.34372 0.57374
 C977 C 0.65121 0.32080 0.55761
 C978 C 0.62306 0.30276 0.54151
 C979 C 0.65062 0.29886 0.58637
 C980 C 0.62701 0.32171 0.60263
 C981 C 0.59883 0.30376 0.58643
 C982 C 0.62201 0.28068 0.57040
 H983 H 0.57850 0.33670 0.54600
 H984 H 0.63066 0.36980 0.57502
 H985 H 0.62163 0.29498 0.51620
 H986 H 0.67167 0.28774 0.59816
 H987 H 0.62838 0.32948 0.62794
 H988 H 0.61979 0.25458 0.56900
 C989 C 0.42253 0.16768 0.55045
 C990 C 0.39474 0.15414 0.56942
 C991 C 0.37209 0.17853 0.55420
 C992 C 0.39961 0.19205 0.53505
 C993 C 0.37940 0.20213 0.58162
 C994 C 0.40231 0.17775 0.59695
 C995 C 0.42988 0.19121 0.57791
 C996 C 0.40737 0.21576 0.56269
 H997 H 0.44054 0.15350 0.53773
 H998 H 0.38937 0.12866 0.57210
 H999 H 0.39871 0.19807 0.50949
 H1000 H 0.36137 0.21627 0.59435
 H1001 H 0.40363 0.17188 0.62255
 H1002 H 0.41240 0.24128 0.55984
 C1003 C 0.90170 0.72218 0.06647
 C1004 C 0.89283 0.69957 0.03824
 C1005 C 0.86606 0.68537 0.05792
 C1006 C 0.87454 0.70785 0.08596
 C1007 C 0.88917 0.66033 0.07125
 C1008 C 0.91624 0.67458 0.05175
 C1009 C 0.92475 0.69704 0.07981
 C1010 C 0.89795 0.68286 0.09941
 H1011 H 0.90647 0.74783 0.06436
 H1012 H 0.89104 0.70660 0.01299
 H1013 H 0.85710 0.72153 0.09995
 H1014 H 0.88381 0.63475 0.07313
 H1015 H 0.93367 0.66087 0.03778
 H1016 H 0.90029 0.67599 0.12469
 C1017 C 0.59252 0.72845 0.92153
 C1018 C 0.59437 0.70787 0.95165
 C1019 C 0.62453 0.69186 0.93908
 C1020 C 0.62316 0.71235 0.90922
 C1021 C 0.60404 0.66620 0.92199
 C1022 C 0.57369 0.68219 0.93444
 C1023 C 0.57213 0.70258 0.90456
 C1024 C 0.60235 0.68668 0.89199
 H1025 H 0.58786 0.75423 0.92140
 H1026 H 0.59133 0.71657 0.97638
 H1027 H 0.64355 0.72490 0.89878
 H1028 H 0.60894 0.64046 0.92225
 H1029 H 0.55313 0.66975 0.94471
 H1030 H 0.60539 0.67794 0.86727
 C1031 C 0.08331 0.17529 0.42888
 C1032 C 0.11238 0.15838 0.41474
 C1033 C 0.13468 0.18181 0.43289
 C1034 C 0.10581 0.19871 0.44712
 C1035 C 0.13397 0.20416 0.40441
 C1036 C 0.11131 0.18076 0.38612
 C1037 C 0.08240 0.19757 0.40039
 C1038 C 0.10463 0.22118 0.41844
 H1039 H 0.06226 0.16343 0.43886
 H1040 H 0.11575 0.13241 0.41330
 H1041 H 0.10377 0.20605 0.47241
 H1042 H 0.15486 0.21613 0.39427
 H1043 H 0.11330 0.17339 0.36084
 H1044 H 0.10159 0.24717 0.42007
 C1045 C 0.51216 0.11315 0.64155
 C1046 C 0.54514 0.09943 0.63310
 C1047 C 0.55578 0.10214 0.66830
 C1048 C 0.52301 0.11556 0.67695
 C1049 C 0.56885 0.13567 0.66329
 C1050 C 0.55803 0.13325 0.62789
 C1051 C 0.52529 0.14665 0.63657
 C1052 C 0.53591 0.14927 0.67179
 H1053 H 0.48885 0.10347 0.63274
 H1054 H 0.54917 0.07867 0.61731
 H1055 H 0.50875 0.10814 0.69738
 H1056 H 0.59207 0.14559 0.67205
 H1057 H 0.57226 0.14071 0.60747
 H1058 H 0.53191 0.17000 0.68764
 C1059 C 1.02791 0.61994 0.11976
 C1060 C 1.06222 0.62004 0.13456
 C1061 C 1.04935 0.60526 0.16479
 C1062 C 1.01521 0.60475 0.15020
 C1063 C 1.04385 0.63821 0.17944
 C1064 C 1.05666 0.65326 0.14913
 C1065 C 1.02252 0.65290 0.13451
 C1066 C 1.00960 0.63803 0.16469
 H1067 H 1.02129 0.61270 0.09498
 H1068 H 1.08401 0.61234 0.12224
 H1069 H 0.99797 0.58484 0.15054
 H1070 H 1.05042 0.64555 0.20421
 H1071 H 1.07441 0.67274 0.14899
 H1072 H 0.98780 0.64574 0.17702
 C1073 C 0.96532 0.84340 0.16202
 C1074 C 0.97860 0.85793 0.19363
 C1075 C 0.97028 0.89099 0.18144
 C1076 C 0.95695 0.87672 0.14994
 C1077 C 1.00364 0.89431 0.16733
 C1078 C 1.01211 0.86089 0.17932
 C1079 C 0.99869 0.84655 0.14787
 C1080 C 0.99044 0.87965 0.13562
 H1081 H 0.94876 0.82292 0.16024
 H1082 H 0.97368 0.84918 0.21772
 H1083 H 0.93410 0.88348 0.13793
 H1084 H 1.01962 0.91522 0.16941
 H1085 H 1.03497 0.85410 0.19129
 H1086 H 0.99538 0.88836 0.11153
 C1087 C 0.47056 0.33883 0.66072
 C1088 C 0.48282 0.35301 0.69286
 C1089 C 0.47626 0.38630 0.68028
 C1090 C 0.46398 0.37236 0.64824
 C1091 C 0.51039 0.38847 0.66781
 C1092 C 0.51712 0.35480 0.68018
 C1093 C 0.50470 0.34079 0.64819
 C1094 C 0.49825 0.37413 0.63556
 H1095 H 0.45337 0.31893 0.65816
 H1096 H 0.47645 0.34450 0.71666
 H1097 H 0.44198 0.37984 0.63513
 H1098 H 0.52690 0.40892 0.67071
 H1099 H 0.53914 0.34727 0.69323
 H1100 H 0.50464 0.38258 0.61174
 C1101 C 0.44931 0.64009 0.84446
 C1102 C 0.44492 0.63369 0.80825
 C1103 C 0.45689 0.59972 0.81302
 C1104 C 0.46109 0.60583 0.84907
 C1105 C 0.49149 0.61026 0.80785
 C1106 C 0.47972 0.64458 0.80329
 C1107 C 0.48393 0.65059 0.83932
 C1108 C 0.49586 0.61656 0.84401
 H1109 H 0.43201 0.65258 0.85966
 H1110 H 0.42380 0.64050 0.79341
 H1111 H 0.45375 0.59033 0.86856
 H1112 H 0.50879 0.59778 0.79265
 H1113 H 0.48755 0.66078 0.78456
 H1114 H 0.51669 0.60861 0.85862
 C1115 C -0.02371 0.12700 0.35435
 C1116 C -0.05435 0.12719 0.33291
 C1117 C -0.03814 0.10459 0.30940
 C1118 C -0.00769 0.10412 0.33069
 C1119 C -0.02524 0.13274 0.29091
 C1120 C -0.04130 0.15564 0.31460
 C1121 C -0.01081 0.15513 0.33590
 C1122 C 0.00539 0.13256 0.31237
 H1123 H -0.02300 0.12491 0.38060
 H1124 H -0.07912 0.12475 0.34126
 H1125 H 0.00606 0.08268 0.33714
 H1126 H -0.02564 0.13552 0.26475
 H1127 H -0.05549 0.17664 0.30769
 H1128 H 0.03017 0.13501 0.30403
 C1129 C 0.04634 0.34620 0.30514
 C1130 C 0.03035 0.36809 0.28025
 C1131 C 0.04582 0.39684 0.29748
 C1132 C 0.06198 0.37523 0.32214
 C1133 C 0.01660 0.40072 0.31846
 C1134 C 0.00091 0.37168 0.30145
 C1135 C 0.01709 0.35013 0.32616
 C1136 C 0.03258 0.37889 0.34329
 H1137 H 0.05886 0.32387 0.29937
 H1138 H 0.02926 0.36339 0.25424
 H1139 H 0.08730 0.37689 0.33056
 H1140 H 0.00445 0.42337 0.32378
 H1141 H -0.02441 0.36998 0.29305
 H1142 H 0.03342 0.38309 0.36938
 C1143 C 0.48997 0.86894 0.79684
 C1144 C 0.50643 0.89693 0.81499
 C1145 C 0.53610 0.89234 0.79474
 C1146 C 0.51988 0.86467 0.77636
 C1147 C 0.55058 0.86948 0.81922
 C1148 C 0.52075 0.87386 0.83961
 C1149 C 0.50454 0.84616 0.82136
 C1150 C 0.53421 0.84154 0.80105
 H1151 H 0.46483 0.86847 0.78775
 H1152 H 0.49512 0.91995 0.82058
 H1153 H 0.51936 0.86068 0.75024
 H1154 H 0.57570 0.86987 0.82837
 H1155 H 0.52102 0.87742 0.86579
 H1156 H 0.54594 0.81887 0.79495
 C1157 C 0.68086 0.51104 0.14119
 C1158 C 0.66816 0.51514 0.10669
 C1159 C 0.67594 0.54907 0.10901
 C1160 C 0.68919 0.54664 0.14158
 C1161 C 0.64394 0.55746 0.11990
 C1162 C 0.63443 0.52217 0.11900
 C1163 C 0.64741 0.51903 0.15348
 C1164 C 0.65606 0.55455 0.15471
 H1165 H 0.69693 0.49192 0.14957
 H1166 H 0.67319 0.49900 0.08646
 H1167 H 0.71234 0.55730 0.14968
 H1168 H 0.62943 0.57709 0.11000
 H1169 H 0.61169 0.51239 0.10879
 H1170 H 0.65154 0.57224 0.17378
 C1171 C 0.17815 1.01196 0.64663
 C1172 C 0.16798 1.01231 0.61101
 C1173 C 0.17747 1.04741 0.61000
 C1174 C 0.18783 1.04722 0.64531
 C1175 C 0.14345 1.05735 0.61868
 C1176 C 0.13377 1.02213 0.62002
 C1177 C 0.14418 1.02194 0.65535
 C1178 C 0.15366 1.05704 0.65428
 H1179 H 0.19230 0.99315 0.65845
 H1180 H 0.17371 0.99364 0.59330
 H1181 H 0.21031 1.05759 0.65551
 H1182 H 0.12925 1.07614 0.60688
 H1183 H 0.11128 1.01179 0.60981
 H1184 H 0.14777 1.07584 0.67179
 C1185 C 0.13250 0.99909 0.88208
 C1186 C 0.14798 0.96604 0.88087
 C1187 C 0.17833 0.97963 0.89321
 C1188 C 0.16485 1.01163 0.89595
 C1189 C 0.19016 0.98510 0.86124
 C1190 C 0.15864 0.97171 0.84667
 C1191 C 0.14391 1.00514 0.84815
 C1192 C 0.17577 1.01867 0.86197
 H1193 H 0.10863 1.00451 0.89156
 H1194 H 0.13733 0.94393 0.88975
 H1195 H 0.16779 1.02782 0.91681
 H1196 H 0.21462 0.97890 0.85380
 H1197 H 0.15702 0.95361 0.82734
 H1198 H 0.18807 1.04050 0.85462
 C1199 C 0.64002 0.48749 0.38062
 C1200 C 0.65517 0.45423 0.37932
 C1201 C 0.68653 0.46808 0.39354
 C1202 C 0.67160 0.50122 0.39524
 C1203 C 0.69865 0.47435 0.36010
 C1204 C 0.66718 0.46053 0.34564
 C1205 C 0.65220 0.49367 0.34716
 C1206 C 0.68350 0.50764 0.36143
 H1207 H 0.61566 0.49292 0.38881
 H1208 H 0.64358 0.43212 0.38696
 H1209 H 0.67337 0.51810 0.41564
 H1210 H 0.72300 0.46893 0.35187
 H1211 H 0.66566 0.44308 0.32572
 H1212 H 0.69502 0.52977 0.35375
 C1213 C 0.85279 0.45908 0.64988
 C1214 C 0.81670 0.45308 0.64313
 C1215 C 0.82094 0.46275 0.60844
 C1216 C 0.85689 0.46856 0.61489
 C1217 C 0.81357 0.49735 0.61702
 C1218 C 0.80950 0.48788 0.65204
 C1219 C 0.84542 0.49368 0.65844
 C1220 C 0.84962 0.50335 0.62371
 H1221 H 0.86907 0.44343 0.66363
 H1222 H 0.80304 0.43222 0.65089
 H1223 H 0.87694 0.46093 0.59995
 H1224 H 0.79729 0.51302 0.60328
 H1225 H 0.79011 0.49602 0.66758
 H1226 H 0.86312 0.52388 0.61498
 C1227 C 0.31944 0.01089 0.13706
 C1228 C 0.33605 -0.00259 0.10740
 C1229 C 0.31373 -0.03148 0.10768
 C1230 C 0.29692 -0.01817 0.13702
 C1231 C 0.33779 -0.04924 0.12910
 C1232 C 0.36028 -0.02018 0.12910
 C1233 C 0.34354 -0.00688 0.15844
 C1234 C 0.32118 -0.03580 0.15872
 H1235 H 0.31202 0.03582 0.14058
 H1236 H 0.34199 0.01103 0.08605
 H1237 H 0.27080 -0.01716 0.14063
 H1238 H 0.34524 -0.07416 0.12562
 H1239 H 0.38651 -0.02095 0.12608
 H1240 H 0.31469 -0.04983 0.17961
 C1241 C 0.31041 -0.00188 0.36812
 C1242 C 0.32359 0.00515 0.40226
 C1243 C 0.30868 0.03828 0.40077
 C1244 C 0.29529 0.03142 0.36692
 C1245 C 0.33958 0.05176 0.38740
 C1246 C 0.35470 0.01848 0.38852
 C1247 C 0.34126 0.01168 0.35469
 C1248 C 0.32632 0.04484 0.35333
 H1249 H 0.29853 -0.02415 0.35994
 H1250 H 0.32225 -0.01110 0.42259
 H1251 H 0.27084 0.03630 0.35745
 H1252 H 0.35150 0.07402 0.39556
 H1253 H 0.37933 0.01310 0.39719
 H1254 H 0.32716 0.06192 0.33368
 C1255 C 0.83957 0.52962 0.88818
 C1256 C 0.82621 0.56356 0.88615
 C1257 C 0.79500 0.55212 0.90059
 C1258 C 0.80817 0.51835 0.90290
 C1259 C 0.78053 0.54485 0.86724
 C1260 C 0.81195 0.55613 0.85254
 C1261 C 0.82514 0.52233 0.85484
 C1262 C 0.79394 0.51086 0.86928
 H1263 H 0.86404 0.52327 0.89658
 H1264 H 0.83939 0.58542 0.89335
 H1265 H 0.80644 0.50291 0.92383
 H1266 H 0.75617 0.55082 0.85825
 H1267 H 0.81333 0.57220 0.83207
 H1268 H 0.78080 0.48898 0.86207
 C1269 C 0.15026 0.66023 0.55508
 C1270 C 0.13565 0.69200 0.54458
 C1271 C 0.10208 0.67841 0.54929
 C1272 C 0.11642 0.64676 0.55986
 C1273 C 0.10007 0.66667 0.51449
 C1274 C 0.13399 0.68007 0.50963
 C1275 C 0.14839 0.64845 0.52027
 C1276 C 0.11479 0.63481 0.52491
 H1277 H 0.17049 0.65783 0.57244
 H1278 H 0.14400 0.71575 0.55273
 H1279 H 0.10889 0.63312 0.58067
 H1280 H 0.07946 0.66922 0.49759
 H1281 H 0.14154 0.69368 0.48881
 H1282 H 0.10648 0.61105 0.51674
 C1283 C 0.65586 0.15069 1.05561
 C1284 C 0.63994 0.18108 1.04297
 C1285 C 0.60694 0.16682 1.04916
 C1286 C 0.62257 0.13656 1.06192
 C1287 C 0.60497 0.15248 1.01532
 C1288 C 0.63827 0.16658 1.00899
 C1289 C 0.65396 0.13635 1.02176
 C1290 C 0.62096 0.12203 1.02791
 H1291 H 0.67647 0.15018 1.07274
 H1292 H 0.64753 0.20559 1.04920
 H1293 H 0.61580 0.12429 1.08383
 H1294 H 0.58413 0.15304 0.99847
 H1295 H 0.64504 0.17885 0.98708
 H1296 H 0.61343 0.09751 1.02165
 C1297 C 0.84382 0.16158 0.96384
 C1298 C 0.85859 0.19251 0.97758
 C1299 C 0.89063 0.18070 0.97049
 C1300 C 0.87809 0.15098 0.95642
 C1301 C 0.89526 0.16690 1.00218
 C1302 C 0.86137 0.17780 1.01090
 C1303 C 0.84742 0.14656 0.99698
 C1304 C 0.88135 0.13520 0.98920
 H1305 H 0.82334 0.16032 0.94656
 H1306 H 0.85035 0.21682 0.97231
 H1307 H 0.88606 0.14075 0.93353
 H1308 H 0.91688 0.16931 1.01789
 H1309 H 0.85491 0.18971 1.03349
 H1310 H 0.89162 0.11149 0.99359
 C1311 C 0.37959 0.64697 0.50758
 C1312 C 0.38626 0.64502 0.47160
 C1313 C 0.38634 0.68130 0.47048
 C1314 C 0.37999 0.68353 0.50627
 C1315 C 0.35026 0.68145 0.46250
 C1316 C 0.34999 0.64499 0.46373
 C1317 C 0.34351 0.64716 0.49947
 C1318 C 0.34360 0.68345 0.49839
 H1319 H 0.39190 0.63267 0.52604
 H1320 H 0.40408 0.62936 0.46039
 H1321 H 0.39220 0.69951 0.52390
 H1322 H 0.33828 0.69583 0.44389
 H1323 H 0.33755 0.62894 0.44630
 H1324 H 0.32577 0.69910 0.50958
 C1325 C 0.61704 0.85638 0.47908
 C1326 C 0.61583 0.84094 0.44548
 C1327 C 0.60097 0.81111 0.45940
 C1328 C 0.60186 0.82637 0.49281
 C1329 C 0.63438 0.79686 0.46526
 C1330 C 0.64954 0.82687 0.45149
 C1331 C 0.65041 0.84211 0.48493
 C1332 C 0.63550 0.81230 0.49882
 H1333 H 0.61016 0.88107 0.48481
 H1334 H 0.60744 0.85260 0.42337
 H1335 H 0.58206 0.82598 0.50976
 H1336 H 0.64211 0.77235 0.45997
 H1337 H 0.66891 0.82700 0.43407
 H1338 H 0.64385 0.80063 0.52095
 C1339 C 0.13151 0.32184 0.00713
 C1340 C 0.10172 0.33922 -0.00633
 C1341 C 0.10114 0.31661 -0.03529
 C1342 C 0.13062 0.29904 -0.02199
 C1343 C 0.12268 0.33919 -0.05341
 C1344 C 0.12358 0.36198 -0.02426
 C1345 C 0.15303 0.34443 -0.01100
 C1346 C 0.15242 0.32178 -0.03999
 H1347 H 0.13540 0.31480 0.03222
 H1348 H 0.08061 0.34622 0.00746
 H1349 H 0.13400 0.27312 -0.02080
 H1350 H 0.11883 0.34623 -0.07850
 H1351 H 0.12096 0.38802 -0.02515
 H1352 H 0.17298 0.31421 -0.05427
 C1353 C 0.34619 0.30949 0.04147
 C1354 C 0.36792 0.28405 0.02656
 C1355 C 0.39729 0.30066 0.04207
 C1356 C 0.37583 0.32588 0.05715
 C1357 C 0.40122 0.32106 0.01255
 C1358 C 0.37154 0.30467 -0.00318
 C1359 C 0.35014 0.32994 0.01194
 C1360 C 0.37952 0.34645 0.02743
 H1361 H 0.32365 0.30439 0.05366
 H1362 H 0.36284 0.25832 0.02603
 H1363 H 0.37778 0.33452 0.08216
 H1364 H 0.42410 0.32564 0.00075
 H1365 H 0.36953 0.29605 -0.02819
 H1366 H 0.38405 0.37229 0.02771
 C1367 C 0.84102 0.81503 0.54964
 C1368 C 0.86168 0.78788 0.53627
 C1369 C 0.89171 0.80414 0.55081
 C1370 C 0.87133 0.83108 0.56435
 C1371 C 0.89641 0.82255 0.52009
 C1372 C 0.86609 0.80650 0.50533
 C1373 C 0.84576 0.83348 0.51889
 C1374 C 0.87580 0.84964 0.53344
 H1375 H 0.81838 0.81161 0.56221
 H1376 H 0.85560 0.76241 0.53726
 H1377 H 0.87368 0.84109 0.58883
 H1378 H 0.91943 0.82547 0.50803
 H1379 H 0.86372 0.79653 0.48083
 H1380 H 0.88140 0.87521 0.53218
   
