data_POSCAR
  _audit_creation_date              2014-09-24
  _audit_creation_method            'ToBaCCo'
  _symmetry_space_group_name_H-M    'P1'
  _symmetry_Int_Tables_number       1
  _symmetry_cell_setting            triclinic
  loop_
  _symmetry_equiv_pos_as_xyz
 x,y,z
_cell_length_a 30.2353
_cell_length_b 31.3198
_cell_length_c 34.6578
_cell_angle_alpha 90.222200
_cell_angle_beta 89.324000
_cell_angle_gamma 89.125200
loop_
  _atom_site_label
  _atom_site_type_symbol
  _atom_site_fract_x
  _atom_site_fract_y
  _atom_site_fract_z
C1 C 0.39899 -0.00504 0.25253
 C2 C 0.08882 -0.00633 0.75268
 C3 C 0.59278 0.50303 0.24742
 C4 C 0.89839 0.49490 0.75462
 C5 C 0.27083 0.34611 1.00285
 C6 C 0.74022 0.16583 0.99272
 C7 C 0.25794 0.66962 0.51659
 C8 C 0.73788 0.82376 0.50046
 C9 C -0.00682 0.24638 0.38284
 C10 C 0.00983 0.76283 0.12327
 C11 C 0.49501 0.25246 0.61917
 C12 C 0.50236 0.75271 0.87846
 C13 C -0.24026 0.68406 0.98731
 C14 C -0.23983 0.33040 0.49724
 C15 C 0.24381 -0.17032 0.01070
 C16 C 0.22984 1.16225 0.50064
 C17 C 0.08575 0.49876 0.25159
 C18 C -0.09220 1.00029 0.24539
 C19 C 0.41240 0.48702 -0.24734
 C20 C 0.57221 0.00095 -0.25647
 C21 C -0.01037 0.26596 0.88449
 C22 C 0.49596 0.25257 0.11738
 C23 C -0.00084 0.74451 0.62420
 C24 C 0.50288 0.75121 0.38177
 Zr25 Zr 0.05028 -0.00850 1.04900
 O26 O 0.10179 0.02188 1.07861
 O27 O 0.04931 -0.06524 1.07774
 O28 O 0.02850 0.00085 1.10780
 O29 O 0.11534 -0.03891 0.96919
 O30 O -0.04184 0.02871 1.10351
 O31 O 0.11143 -0.04309 1.03492
 O32 O -0.00733 -0.09906 1.04778
 O33 O -0.01803 -0.02080 1.05030
 O34 O 0.03689 -0.04787 1.00169
 O35 O 0.01672 0.05084 1.04736
 O36 O 0.07234 0.02517 1.00025
 Zr37 Zr -0.04380 0.03269 0.94926
 Zr38 Zr -0.05154 0.03794 1.04461
 Zr39 Zr 0.05486 -0.01311 0.95294
 Zr40 Zr -0.03022 -0.05901 1.00274
 O41 O 0.10718 0.01880 0.92462
 O42 O -0.08640 -0.07531 1.03647
 O43 O -0.01236 -0.02770 0.95114
 O44 O -0.06572 -0.00157 0.99777
 O45 O -0.03226 0.07261 0.99663
 O46 O 0.02368 0.04627 0.94869
 C47 C 0.02312 -0.09617 1.07348
 C48 C 0.13062 -0.05126 1.00160
 C49 C -0.00891 0.01442 1.12281
 O50 O -0.10735 0.00825 1.06959
 O51 O -0.11061 0.06822 1.02425
 O52 O -0.10747 0.05724 0.95917
 C53 C -0.12713 0.07048 0.99004
 O54 O 0.08880 0.10432 1.03178
 Zr55 Zr 0.03591 0.08266 0.99750
 O56 O -0.04943 0.09597 0.93075
 O57 O -0.05678 0.09828 1.07204
 O58 O 0.01917 0.13709 1.03146
 O59 O 0.08780 0.10437 0.96131
 O60 O 0.00716 0.12846 0.96188
 C61 C -0.02653 0.12854 0.93988
 O62 O -0.09134 0.00095 0.91558
 O63 O 0.06285 -0.07445 0.92763
 O64 O -0.02432 0.02742 0.89068
 O65 O 0.04034 -0.01065 0.89405
 O66 O -0.00951 -0.11721 0.97620
 O67 O -0.07851 -0.08109 0.96362
 C68 C 0.00956 0.00834 0.87525
 H69 H 0.05233 -0.07593 1.00222
 H70 H -0.09763 -0.00796 0.99645
 H71 H 0.03343 0.06215 0.92554
 H72 H 0.02375 0.06848 1.07018
 H73 H -0.08636 -0.10685 1.03872
 H74 H -0.12202 0.02968 1.08675
 H75 H -0.08388 0.09769 1.08837
 H76 H 0.03465 0.16181 1.02004
 H77 H -0.02410 -0.14061 0.99044
 H78 H 0.08847 -0.07315 0.90957
 H79 H 0.12052 -0.00161 0.90571
 H80 H 0.08889 0.13577 0.96471
 H81 H -0.09064 -0.10839 0.97305
 H82 H -0.10378 0.02199 0.89714
 H83 H 0.11270 0.00084 1.09768
 H84 H 0.11419 0.08449 1.02732
 Zr85 Zr 0.55223 0.47997 0.55925
 O86 O 0.60230 0.50519 0.59446
 O87 O 0.53940 0.42282 0.58668
 O88 O 0.52762 0.49091 0.61671
 O89 O 0.62579 0.44616 0.48564
 O90 O 0.45870 0.52010 0.60798
 O91 O 0.61408 0.44713 0.55108
 O92 O 0.48439 0.39531 0.54987
 O93 O 0.48404 0.47094 0.55366
 O94 O 0.54310 0.44327 0.50914
 O95 O 0.52344 0.54116 0.55736
 O96 O 0.58183 0.51390 0.51362
 Zr97 Zr 0.47339 0.53129 0.45422
 Zr98 Zr 0.45540 0.53125 0.54901
 Zr99 Zr 0.56941 0.47848 0.46302
 Zr100 Zr 0.47536 0.43663 0.50285
 O101 O 0.62711 0.50848 0.44225
 O102 O 0.41232 0.42077 0.52562
 O103 O 0.50141 0.46921 0.45501
 O104 O 0.44369 0.49623 0.49869
 O105 O 0.48204 0.56666 0.50465
 O106 O 0.54173 0.54002 0.45904
 C107 C 0.50948 0.39560 0.57959
 C108 C 0.63723 0.43696 0.52051
 C109 C 0.48988 0.50601 0.62923
 O110 O 0.39656 0.50142 0.56755
 O111 O 0.40096 0.56605 0.52775
 O112 O 0.41474 0.56826 0.46290
 C113 C 0.39228 0.57886 0.49351
 O114 O 0.60731 0.58554 0.54315
 Zr115 Zr 0.54992 0.57378 0.51040
 O116 O 0.48188 0.59324 0.43389
 O117 O 0.44991 0.59052 0.57837
 O118 O 0.54483 0.62502 0.55046
 O119 O 0.59681 0.60194 0.47272
 O120 O 0.51266 0.62372 0.48645
 C121 C 0.49190 0.62557 0.45452
 O122 O 0.42236 0.50832 0.41873
 O123 O 0.57605 0.41842 0.43528
 O124 O 0.49514 0.52173 0.39682
 O125 O 0.56148 0.48637 0.40197
 O126 O 0.49796 0.37781 0.47862
 O127 O 0.43423 0.42080 0.45576
 C128 C 0.53017 0.50398 0.38194
 H129 H 0.55694 0.41454 0.51109
 H130 H 0.41168 0.49284 0.49406
 H131 H 0.55397 0.55571 0.43672
 H132 H 0.52915 0.55745 0.58126
 H133 H 0.41012 0.38924 0.52481
 H134 H 0.38083 0.52189 0.58498
 H135 H 0.42206 0.58995 0.59374
 H136 H 0.55915 0.65008 0.53850
 H137 H 0.47897 0.35519 0.48946
 H138 H 0.60394 0.41912 0.42001
 H139 H 0.64144 0.48817 0.42383
 H140 H 0.59689 0.63274 0.47925
 H141 H 0.42166 0.39213 0.45983
 H142 H 0.41466 0.53150 0.40045
 H143 H 0.60893 0.48337 0.61433
 H144 H 0.63255 0.57070 0.53011
 Zr145 Zr 0.45169 1.04857 0.54020
 O146 O 0.40005 1.03604 0.58016
 O147 O 0.45743 1.11424 0.55052
 O148 O 0.47123 1.04587 0.59973
 O149 O 0.38420 1.05906 0.45955
 O150 O 0.53949 1.01366 0.59821
 O151 O 0.38790 1.07353 0.52403
 O152 O 0.51128 1.13539 0.50816
 O153 O 0.52084 1.05527 0.53773
 O154 O 0.46699 1.07424 0.48601
 O155 O 0.47831 0.98654 0.54714
 O156 O 0.42643 1.00637 0.49855
 Zr157 Zr 0.53968 0.97587 0.44665
 Zr158 Zr 0.54716 0.99283 0.54139
 Zr159 Zr 0.44542 1.03190 0.44498
 Zr160 Zr 0.53570 1.07878 0.48273
 O161 O 0.39406 0.99641 0.42017
 O162 O 0.58748 1.10116 0.51787
 O163 O 0.51413 1.03817 0.43880
 O164 O 0.56561 1.01799 0.48781
 O165 O 0.52410 0.95003 0.50061
 O166 O 0.47060 0.96993 0.44992
 C167 C 0.48046 1.14271 0.53324
 C168 C 0.36747 1.07328 0.49127
 C169 C 0.50637 1.03036 0.61627
 O170 O 0.60749 1.02160 0.55629
 O171 O 0.59687 0.94677 0.52881
 O172 O 0.59523 0.93703 0.46352
 C173 C 0.60984 0.92776 0.49761
 O174 O 0.39903 0.94331 0.54082
 Zr175 Zr 0.45578 0.94578 0.50417
 O176 O 0.53312 0.91204 0.43349
 O177 O 0.54742 0.94199 0.58165
 O178 O 0.46927 0.89944 0.54711
 O179 O 0.40201 0.92073 0.47302
 O180 O 0.48075 0.89009 0.47700
 C181 C 0.51020 0.88371 0.45047
 O182 O 0.59307 0.99309 0.41039
 O183 O 0.43243 1.08847 0.41329
 O184 O 0.51606 0.97175 0.38873
 O185 O 0.46989 1.02903 0.38832
 O186 O 0.52294 1.12266 0.43756
 O187 O 0.59265 1.08661 0.44702
 C188 C 0.48698 0.99603 0.37213
 H189 H 0.45122 1.10136 0.48042
 H190 H 0.59819 1.01937 0.48509
 H191 H 0.45865 0.95068 0.43009
 H192 H 0.46981 0.97445 0.57246
 H193 H 0.59039 1.13220 0.51324
 H194 H 0.62040 1.00395 0.57711
 H195 H 0.57519 0.94354 0.59655
 H196 H 0.45224 0.87363 0.54067
 H197 H 0.53694 1.15009 0.44423
 H198 H 0.40887 1.08220 0.39453
 H199 H 0.38187 1.01407 0.39907
 H200 H 0.40004 0.89008 0.47973
 H201 H 0.60364 1.11606 0.45003
 H202 H 0.60060 0.96726 0.39491
 H203 H 0.39283 1.06338 0.59359
 H204 H 0.38902 0.91343 0.54274
 Zr205 Zr -0.01352 0.56348 1.04532
 O206 O -0.06467 0.56109 1.08754
 O207 O 0.01324 0.62269 1.05759
 O208 O 0.00885 0.55718 1.10288
 O209 O -0.08795 0.59117 0.97248
 O210 O 0.06603 0.50858 1.09949
 O211 O -0.06818 0.60580 1.03446
 O212 O 0.06728 0.63359 1.01231
 O213 O 0.05500 0.55714 1.03582
 O214 O -0.00125 0.58674 0.98976
 O215 O 0.00187 0.49813 1.05227
 O216 O -0.05325 0.52713 1.00863
 Zr217 Zr 0.04571 0.47657 0.94744
 Zr218 Zr 0.07002 0.49158 1.04013
 Zr219 Zr -0.03768 0.54870 0.95275
 Zr220 Zr 0.06609 0.57790 0.97904
 O221 O -0.10157 0.52708 0.93860
 O222 O 0.13138 0.58681 0.99906
 O223 O 0.03023 0.54198 0.93909
 O224 O 0.08413 0.51395 0.98430
 O225 O 0.03383 0.45233 1.00295
 O226 O -0.02241 0.48434 0.95826
 C227 C 0.04391 0.64469 1.04175
 C228 C -0.09343 0.61100 1.00476
 C229 C 0.03878 0.53312 1.11850
 O230 O 0.13156 0.51695 1.05624
 O231 O 0.12184 0.44969 1.02040
 O232 O 0.10559 0.44007 0.95674
 C233 C 0.13114 0.43471 0.98642
 O234 O -0.08165 0.47034 1.05908
 Zr235 Zr -0.03412 0.46269 1.01375
 O236 O 0.02224 0.41522 0.93796
 O237 O 0.06920 0.43527 1.07359
 O238 O -0.01899 0.41164 1.05161
 O239 O -0.09924 0.45067 0.99477
 O240 O -0.03584 0.40770 0.98020
 C241 C -0.01231 0.39653 0.95101
 O242 O 0.09308 0.48089 0.90219
 O243 O -0.03362 0.60306 0.91695
 O244 O 0.01653 0.47686 0.89164
 O245 O -0.03872 0.52752 0.89481
 O246 O 0.05436 0.63052 0.94198
 O247 O 0.10832 0.57228 0.92973
 C248 C -0.01642 0.49804 0.87695
 H249 H -0.00955 0.61724 0.98676
 H250 H 0.11604 0.51215 0.97782
 H251 H -0.04178 0.46887 0.94041
 H252 H -0.00625 0.48709 1.07804
 H253 H 0.14110 0.61529 0.99028
 H254 H 0.14428 0.49715 1.07555
 H255 H 0.09702 0.43466 1.08845
 H256 H -0.04213 0.38991 1.04829
 H257 H 0.07921 0.65049 0.94503
 H258 H -0.06240 0.60562 0.90372
 H259 H -0.11344 0.54650 0.91856
 H260 H -0.10854 0.42297 1.00576
 H261 H 0.12821 0.59708 0.92859
 H262 H 0.09352 0.45305 0.88838
 H263 H -0.06452 0.58845 1.10213
 H264 H -0.09079 0.44187 1.06823
 Zr265 Zr -0.01296 0.45581 0.45891
 O266 O -0.06150 0.46711 0.41641
 O267 O 0.00793 0.39392 0.44342
 O268 O 0.01256 0.46597 0.40197
 O269 O -0.09362 0.43002 0.52841
 O270 O 0.07554 0.50391 0.41135
 O271 O -0.07070 0.41845 0.46611
 O272 O 0.05629 0.37351 0.49016
 O273 O 0.05520 0.45205 0.46992
 O274 O -0.00664 0.42785 0.51340
 O275 O 0.00877 0.51938 0.45765
 O276 O -0.05144 0.49458 0.49710
 Zr277 Zr 0.04831 0.52621 0.56386
 Zr278 Zr 0.07632 0.51552 0.47092
 Zr279 Zr -0.04204 0.46740 0.55178
 Zr280 Zr 0.06043 0.42674 0.52577
 O281 O -0.10371 0.49747 0.56422
 O282 O 0.12494 0.40999 0.50582
 O283 O 0.02528 0.46329 0.56713
 O284 O 0.08563 0.48798 0.52541
 O285 O 0.04194 0.55446 0.50968
 O286 O -0.01962 0.53047 0.55240
 C287 C 0.03399 0.36684 0.45977
 C288 C -0.09755 0.41238 0.49490
 C289 C 0.04610 0.48752 0.38971
 O290 O 0.13759 0.48546 0.45722
 O291 O 0.12560 0.55539 0.49365
 O292 O 0.10974 0.55776 0.55826
 C293 C 0.13390 0.56698 0.52846
 O294 O -0.07584 0.55580 0.45563
 Zr295 Zr -0.02551 0.55663 0.49792
 O296 O 0.04136 0.59134 0.57254
 O297 O 0.08203 0.57270 0.43891
 O298 O -0.01375 0.60529 0.45675
 O299 O -0.08381 0.58039 0.52570
 O300 O -0.00487 0.61333 0.52469
 C301 C 0.02232 0.62001 0.55219
 O302 O 0.09161 0.50944 0.60908
 O303 O -0.04850 0.41115 0.58489
 O304 O 0.01603 0.52702 0.61866
 O305 O -0.04267 0.48262 0.61112
 O306 O 0.04122 0.37468 0.56075
 O307 O 0.10556 0.41921 0.57178
 C308 C -0.01856 0.50746 0.63144
 H309 H -0.01780 0.39835 0.51475
 H310 H 0.11728 0.48628 0.53232
 H311 H -0.03588 0.54897 0.57111
 H312 H 0.00309 0.53348 0.43271
 H313 H 0.13114 0.38021 0.51403
 H314 H 0.15344 0.50519 0.43980
 H315 H 0.11127 0.57182 0.42563
 H316 H -0.03558 0.62865 0.46181
 H317 H 0.06475 0.35243 0.55811
 H318 H -0.07817 0.41252 0.59734
 H319 H -0.11910 0.47907 0.58312
 H320 H -0.08623 0.61111 0.51925
 H321 H 0.08927 0.42629 0.59597
 H322 H 0.09597 0.53556 0.62479
 H323 H -0.06268 0.44115 0.39992
 H324 H -0.09321 0.58283 0.45694
 Zr325 Zr 0.46361 -0.04376 -0.04593
 O326 O 0.41391 -0.04033 -0.08839
 O327 O 0.49062 -0.10452 -0.05650
 O328 O 0.49056 -0.04204 -0.10290
 O329 O 0.39010 -0.07219 0.02848
 O330 O 0.54186 0.01070 -0.10193
 O331 O 0.41076 -0.08587 -0.03404
 O332 O 0.54678 -0.11257 -0.01356
 O333 O 0.53151 -0.03526 -0.03857
 O334 O 0.47761 -0.06613 0.00941
 O335 O 0.47366 0.02199 -0.05335
 O336 O 0.42161 -0.00862 -0.00802
 Zr337 Zr 0.51713 0.04428 0.05027
 Zr338 Zr 0.54127 0.03081 -0.04338
 Zr339 Zr 0.43884 -0.02953 0.04748
 Zr340 Zr 0.54459 -0.05551 0.01774
 O341 O 0.37553 -0.00720 0.06570
 O342 O 0.60910 -0.06250 -0.00640
 O343 O 0.50646 -0.02131 0.05846
 O344 O 0.55802 0.00912 0.01200
 O345 O 0.50298 0.06813 -0.00469
 O346 O 0.44930 0.03586 0.04284
 C347 C 0.52242 -0.12570 -0.04092
 C348 C 0.38588 -0.09183 -0.00391
 C349 C 0.51996 -0.01840 -0.11946
 O350 O 0.60620 0.01090 -0.05919
 O351 O 0.58742 0.07704 -0.02552
 O352 O 0.56979 0.08601 0.03827
 C353 C 0.59418 0.09303 0.00816
 O354 O 0.38668 0.04741 -0.05547
 Zr355 Zr 0.43567 0.05663 -0.01287
 O356 O 0.49076 0.10488 0.06153
 O357 O 0.53329 0.08517 -0.07877
 O358 O 0.44341 0.10624 -0.05376
 O359 O 0.37192 0.06664 0.01203
 O360 O 0.43609 0.11483 0.01747
 C361 C 0.46006 0.12708 0.04560
 O362 O 0.56817 0.04268 0.09167
 O363 O 0.44308 -0.08578 0.08102
 O364 O 0.49552 0.03796 0.10839
 O365 O 0.44350 -0.01401 0.10660
 O366 O 0.53819 -0.10732 0.05654
 O367 O 0.58834 -0.04781 0.06474
 C368 C 0.46753 0.01285 0.12475
 H369 H 0.47085 -0.09668 0.01303
 H370 H 0.58977 0.01296 0.01743
 H371 H 0.43105 0.05141 0.06236
 H372 H 0.46531 0.03127 -0.07958
 H373 H 0.62094 -0.09075 0.00160
 H374 H 0.61670 0.03098 -0.07923
 H375 H 0.56128 0.08814 -0.09362
 H376 H 0.41891 0.12716 -0.04946
 H377 H 0.56454 -0.12621 0.05300
 H378 H 0.41484 -0.08786 0.09565
 H379 H 0.36522 -0.02703 0.08600
 H380 H 0.36103 0.09508 0.00360
 H381 H 0.61122 -0.07075 0.06387
 H382 H 0.56701 0.07020 0.10605
 H383 H 0.41470 -0.06793 -0.10257
 H384 H 0.36997 0.07445 -0.05936
 Zr385 Zr 0.57071 0.52097 -0.06924
 O386 O 0.62038 0.49749 -0.10759
 O387 O 0.55728 0.57835 -0.09512
 O388 O 0.54421 0.50723 -0.12508
 O389 O 0.64039 0.56222 0.00155
 O390 O 0.48154 0.46990 -0.11188
 O391 O 0.63076 0.55554 -0.06361
 O392 O 0.50156 0.60612 -0.05707
 O393 O 0.50164 0.52512 -0.06234
 O394 O 0.55734 0.55941 -0.02049
 O395 O 0.54936 0.45818 -0.06339
 O396 O 0.60508 0.49331 -0.02294
 Zr397 Zr 0.49886 0.46778 0.04154
 Zr398 Zr 0.48087 0.46275 -0.05255
 Zr399 Zr 0.58693 0.52949 0.02628
 Zr400 Zr 0.48930 0.56116 -0.01276
 O401 O 0.64592 0.50504 0.05060
 O402 O 0.42839 0.57017 -0.04152
 O403 O 0.51827 0.53232 0.03572
 O404 O 0.46567 0.49931 -0.00355
 O405 O 0.51255 0.43091 -0.00766
 O406 O 0.56783 0.46638 0.03428
 C407 C 0.52918 0.60732 -0.08575
 C408 C 0.65199 0.56900 -0.03367
 C409 C 0.50865 0.48743 -0.13509
 O410 O 0.41898 0.48678 -0.07163
 O411 O 0.42792 0.42840 -0.02984
 O412 O 0.44139 0.42860 0.03474
 C413 C 0.41868 0.41742 0.00476
 O414 O 0.63332 0.42608 -0.05789
 Zr415 Zr 0.58141 0.43181 -0.01622
 O416 O 0.51568 0.40620 0.06192
 O417 O 0.48210 0.40087 -0.07736
 O418 O 0.57088 0.37446 -0.04740
 O419 O 0.64139 0.42021 0.01342
 O420 O 0.57124 0.38278 0.02159
 C421 C 0.54348 0.37779 0.04894
 O422 O 0.44690 0.48511 0.08022
 O423 O 0.58838 0.59268 0.04825
 O424 O 0.52068 0.48536 0.09796
 O425 O 0.57688 0.53177 0.08643
 O426 O 0.50389 0.61919 0.01579
 O427 O 0.43991 0.57707 0.02927
 C428 C 0.55009 0.51235 0.10918
 H429 H 0.56884 0.58870 -0.02294
 H430 H 0.43340 0.50089 0.00155
 H431 H 0.58299 0.45371 0.05678
 H432 H 0.55636 0.44099 -0.08677
 H433 H 0.42312 0.60136 -0.04387
 H434 H 0.40590 0.46488 -0.08863
 H435 H 0.45480 0.39828 -0.09271
 H436 H 0.59395 0.35341 -0.03976
 H437 H 0.48615 0.64215 0.00349
 H438 H 0.61619 0.59550 0.06287
 H439 H 0.65801 0.52825 0.06666
 H440 H 0.64947 0.38964 0.00988
 H441 H 0.42471 0.60402 0.02189
 H442 H 0.44394 0.46136 0.09890
 H443 H 0.62498 0.51995 -0.12728
 H444 H 0.64861 0.39811 -0.05506
 Zr445 Zr 0.00713 1.03367 0.45244
 O446 O 0.05651 1.02383 0.40933
 O447 O -0.01661 1.09451 0.43646
 O448 O -0.01758 1.02213 0.39567
 O449 O 0.08518 1.06354 0.52207
 O450 O -0.07764 0.98001 0.40564
 O451 O 0.06396 1.07212 0.45948
 O452 O -0.06936 1.11239 0.48158
 O453 O -0.06107 1.03450 0.46407
 O454 O -0.00149 1.06269 0.50660
 O455 O -0.01123 0.96906 0.45194
 O456 O 0.04614 0.99732 0.49115
 Zr457 Zr -0.05275 0.96365 0.55896
 Zr458 Zr -0.07901 0.97025 0.46564
 Zr459 Zr 0.03464 1.02553 0.54561
 Zr460 Zr -0.06876 1.06126 0.51950
 O461 O 0.09755 0.99864 0.55784
 O462 O -0.13464 1.07311 0.50144
 O463 O -0.03290 1.02757 0.56137
 O464 O -0.09089 0.99892 0.51976
 O465 O -0.04421 0.93368 0.50524
 O466 O 0.01530 0.96166 0.54695
 C467 C -0.04629 1.11976 0.45134
 C468 C 0.08977 1.07966 0.48825
 C469 C -0.04984 0.99898 0.38354
 O470 O -0.14111 0.99729 0.45126
 O471 O -0.12704 0.92982 0.48962
 O472 O -0.11206 0.92883 0.55413
 C473 C -0.13528 0.91840 0.52454
 O474 O 0.07473 0.93468 0.45055
 Zr475 Zr 0.02335 0.93408 0.49293
 O476 O -0.04219 0.89968 0.57021
 O477 O -0.08137 0.91178 0.43487
 O478 O 0.01195 0.88399 0.45302
 O479 O 0.08291 0.91387 0.51952
 O480 O 0.00623 0.87781 0.52277
 C481 C -0.02078 0.87111 0.55101
 O482 O -0.09787 0.98046 0.60383
 O483 O 0.03667 1.08309 0.57767
 O484 O -0.02086 0.96558 0.61336
 O485 O 0.03651 1.01147 0.60510
 O486 O -0.05251 1.11710 0.55085
 O487 O -0.10883 1.06429 0.57028
 C488 C 0.01334 0.98585 0.62568
 H489 H 0.00827 1.09270 0.50713
 H490 H -0.12270 0.99939 0.52686
 H491 H 0.03224 0.94431 0.56561
 H492 H -0.00448 0.95500 0.42693
 H493 H -0.14247 1.10309 0.50817
 H494 H -0.15578 0.97612 0.43460
 H495 H -0.11046 0.91085 0.42197
 H496 H 0.03357 0.86073 0.45843
 H497 H -0.07663 1.13839 0.54702
 H498 H 0.06606 1.08387 0.59001
 H499 H 0.11183 1.01810 0.57639
 H500 H 0.08678 0.88304 0.51368
 H501 H -0.12649 1.09116 0.57050
 H502 H -0.10112 0.95486 0.62034
 H503 H 0.05684 1.04977 0.39293
 H504 H 0.09019 0.90658 0.44996
 Zr505 Zr 0.71485 0.28290 0.18778
 O506 O 0.72166 0.33041 0.14490
 O507 O 0.65421 0.25636 0.17092
 O508 O 0.72873 0.25886 0.13148
 O509 O 0.68433 0.35883 0.25705
 O510 O 0.78350 0.20890 0.14067
 O511 O 0.67046 0.33617 0.19590
 O512 O 0.64167 0.20304 0.21406
 O513 O 0.72282 0.21714 0.19754
 O514 O 0.68365 0.27081 0.24061
 O515 O 0.78388 0.27133 0.18860
 O516 O 0.74689 0.32224 0.22807
 Zr517 Zr 0.79229 0.22912 0.29480
 Zr518 Zr 0.79143 0.20608 0.20075
 Zr519 Zr 0.71746 0.30692 0.28103
 Zr520 Zr 0.69394 0.20616 0.25181
 O521 O 0.73825 0.36599 0.30423
 O522 O 0.68982 0.14296 0.23004
 O523 O 0.72371 0.24186 0.29515
 O524 O 0.76067 0.19111 0.25368
 O525 O 0.82508 0.24156 0.24239
 O526 O 0.78506 0.29468 0.28465
 C527 C 0.63135 0.22547 0.18489
 C528 C 0.66524 0.36251 0.22461
 C529 C 0.75798 0.23144 0.11915
 O530 O 0.77098 0.14535 0.18158
 O531 O 0.83384 0.15823 0.22270
 O532 O 0.83042 0.17125 0.28757
 C533 C 0.84168 0.14796 0.25780
 O534 O 0.81487 0.35345 0.18696
 Zr535 Zr 0.81450 0.30677 0.23135
 O536 O 0.85368 0.25266 0.30970
 O537 O 0.85415 0.20995 0.17334
 O538 O 0.87182 0.29581 0.19659
 O539 O 0.81792 0.36878 0.25591
 O540 O 0.86903 0.30670 0.26792
 C541 C 0.87778 0.28286 0.29680
 O542 O 0.79020 0.18440 0.34045
 O543 O 0.65288 0.30738 0.30550
 O544 O 0.77565 0.25385 0.35110
 O545 O 0.72034 0.30255 0.34035
 O546 O 0.63668 0.21703 0.28647
 O547 O 0.68789 0.16045 0.29646
 C548 C 0.74569 0.28132 0.36254
 H549 H 0.65175 0.27847 0.24067
 H550 H 0.76187 0.16024 0.25946
 H551 H 0.79784 0.31228 0.30540
 H552 H 0.79826 0.27939 0.16395
 H553 H 0.65987 0.13227 0.23631
 H554 H 0.79433 0.13428 0.16371
 H555 H 0.85862 0.18330 0.15816
 H556 H 0.89341 0.31826 0.20275
 H557 H 0.61556 0.19412 0.28038
 H558 H 0.64832 0.33544 0.31837
 H559 H 0.71388 0.37749 0.32082
 H560 H 0.84862 0.37888 0.25246
 H561 H 0.70930 0.16826 0.31656
 H562 H 0.81789 0.18759 0.35529
 H563 H 0.69465 0.32968 0.12890
 H564 H 0.84304 0.36916 0.18760
 Zr565 Zr 0.76644 0.69740 0.69724
 O566 O 0.74186 0.64635 0.66411
 O567 O 0.83368 0.69446 0.68376
 O568 O 0.76913 0.71228 0.63662
 O569 O 0.77445 0.63853 0.78147
 O570 O 0.73866 0.77949 0.63409
 O571 O 0.79374 0.63751 0.71770
 O572 O 0.86207 0.75065 0.71722
 O573 O 0.78253 0.76263 0.69565
 O574 O 0.79483 0.71261 0.75020
 O575 O 0.70637 0.73141 0.68893
 O576 O 0.71845 0.68139 0.73955
 Zr577 Zr 0.70463 0.79797 0.78580
 Zr578 Zr 0.72246 0.79626 0.69061
 Zr579 Zr 0.74708 0.69921 0.79165
 Zr580 Zr 0.80909 0.77722 0.74934
 O581 O 0.70385 0.65228 0.81342
 O582 O 0.83658 0.82738 0.71638
 O583 O 0.76441 0.76391 0.79419
 O584 O 0.75129 0.81377 0.74277
 O585 O 0.67510 0.78415 0.73287
 O586 O 0.68769 0.73321 0.78668
 C587 C 0.86540 0.71827 0.69447
 C588 C 0.79315 0.62074 0.75203
 C589 C 0.75534 0.74591 0.61811
 O590 O 0.76361 0.84446 0.66821
 O591 O 0.69059 0.85529 0.70125
 O592 O 0.67538 0.85647 0.76587
 C593 C 0.67367 0.87298 0.73168
 O594 O 0.64974 0.66185 0.70213
 Zr595 Zr 0.66078 0.71940 0.73305
 O596 O 0.63794 0.79753 0.80207
 O597 O 0.66719 0.80378 0.65412
 O598 O 0.61574 0.73216 0.68788
 O599 O 0.62487 0.67778 0.76944
 O600 O 0.60770 0.75752 0.75429
 C601 C 0.60491 0.78285 0.78354
 O602 O 0.72410 0.85240 0.81734
 O603 O 0.80228 0.68901 0.82782
 O604 O 0.71454 0.78629 0.84624
 O605 O 0.73305 0.71550 0.84835
 O606 O 0.85901 0.75849 0.78859
 O607 O 0.82190 0.82694 0.78942
 C608 C 0.72527 0.75154 0.86446
 H609 H 0.82228 0.69632 0.75580
 H610 H 0.75806 0.84460 0.74354
 H611 H 0.66719 0.72634 0.80819
 H612 H 0.69280 0.72325 0.66418
 H613 H 0.86880 0.82745 0.72131
 H614 H 0.74651 0.85928 0.64792
 H615 H 0.67361 0.82770 0.63634
 H616 H 0.58656 0.72104 0.69597
 H617 H 0.88683 0.77227 0.78030
 H618 H 0.79535 0.66472 0.84506
 H619 H 0.71875 0.63874 0.83568
 H620 H 0.59353 0.68005 0.76158
 H621 H 0.85195 0.83803 0.78464
 H622 H 0.69819 0.86169 0.83329
 H623 H 0.76754 0.63394 0.64971
 H624 H 0.61782 0.65521 0.70264
 Zr625 Zr 0.21544 0.20672 0.81566
 O626 O 0.22617 0.15883 0.85754
 O627 O 0.15673 0.22647 0.84124
 O628 O 0.23130 0.22891 0.87201
 O629 O 0.15976 0.15280 0.74266
 O630 O 0.27779 0.28490 0.86208
 O631 O 0.18631 0.14511 0.80313
 O632 O 0.14369 0.29110 0.81297
 O633 O 0.22104 0.27342 0.81070
 O634 O 0.17635 0.22622 0.76912
 O635 O 0.28311 0.22034 0.81075
 O636 O 0.24086 0.17314 0.76793
 Zr637 Zr 0.27893 0.27064 0.70610
 Zr638 Zr 0.28783 0.28677 0.80154
 Zr639 Zr 0.20437 0.19636 0.72059
 Zr640 Zr 0.18458 0.29158 0.76295
 O641 O 0.21796 0.13545 0.69651
 O642 O 0.18471 0.35331 0.78840
 O643 O 0.20982 0.26185 0.71221
 O644 O 0.25115 0.30554 0.75327
 O645 O 0.31649 0.25384 0.75465
 O646 O 0.27234 0.20492 0.71328
 C647 C 0.13733 0.26287 0.83933
 C648 C 0.16540 0.13091 0.77301
 C649 C 0.25452 0.26061 0.88414
 O650 O 0.27173 0.34823 0.82372
 O651 O 0.32809 0.33508 0.77662
 O652 O 0.31934 0.32520 0.71175
 C653 C 0.33411 0.34623 0.74108
 O654 O 0.31429 0.13813 0.80309
 Zr655 Zr 0.30745 0.18819 0.76238
 O656 O 0.34240 0.25118 0.68694
 O657 O 0.35144 0.27759 0.82499
 O658 O 0.36782 0.19221 0.79252
 O659 O 0.31237 0.12847 0.73356
 O660 O 0.35898 0.19248 0.72307
 C661 C 0.36792 0.22014 0.69742
 O662 O 0.26247 0.31873 0.66581
 O663 O 0.14144 0.20925 0.69672
 O664 O 0.26776 0.24402 0.64937
 O665 O 0.20833 0.20184 0.66051
 O666 O 0.11972 0.28445 0.74141
 O667 O 0.17268 0.33773 0.71930
 C668 C 0.23845 0.21672 0.63823
 H669 H 0.14476 0.21904 0.77262
 H670 H 0.25230 0.33669 0.74890
 H671 H 0.28440 0.18749 0.69162
 H672 H 0.29956 0.21104 0.83386
 H673 H 0.15353 0.36328 0.79087
 H674 H 0.29676 0.35715 0.83998
 H675 H 0.35727 0.30343 0.84059
 H676 H 0.38641 0.16717 0.78479
 H677 H 0.10045 0.30541 0.75530
 H678 H 0.13283 0.18351 0.68201
 H679 H 0.19184 0.12755 0.68114
 H680 H 0.34277 0.11724 0.73772
 H681 H 0.14620 0.35524 0.72627
 H682 H 0.28741 0.32003 0.64701
 H683 H 0.19838 0.15700 0.87294
 H684 H 0.28570 0.12319 0.80444
 Zr685 Zr 0.27279 0.78391 0.31345
 O686 O 0.25528 0.83142 0.35460
 O687 O 0.33898 0.77380 0.32787
 O688 O 0.26629 0.75881 0.37055
 O689 O 0.28043 0.86297 0.24344
 O690 O 0.23827 0.69185 0.36239
 O691 O 0.30732 0.84222 0.30156
 O692 O 0.36743 0.73640 0.27630
 O693 O 0.28640 0.71879 0.30244
 O694 O 0.30014 0.78015 0.25775
 O695 O 0.21122 0.75294 0.31689
 O696 O 0.22576 0.81352 0.27733
 Zr697 Zr 0.20659 0.71217 0.20981
 Zr698 Zr 0.22464 0.68869 0.30291
 Zr699 Zr 0.25310 0.80676 0.22191
 Zr700 Zr 0.31196 0.71619 0.24601
 O701 O 0.20611 0.85364 0.20514
 O702 O 0.33883 0.66011 0.27120
 O703 O 0.26795 0.74307 0.20645
 O704 O 0.25279 0.68336 0.24739
 O705 O 0.17791 0.71425 0.26530
 O706 O 0.19194 0.77666 0.22231
 C707 C 0.37104 0.75844 0.30730
 C708 C 0.30647 0.86748 0.27181
 C709 C 0.25090 0.72305 0.38362
 O710 O 0.26438 0.63470 0.31614
 O711 O 0.19319 0.63415 0.28042
 O712 O 0.18529 0.64812 0.21604
 C713 C 0.18206 0.62360 0.24591
 O714 O 0.16002 0.82796 0.32048
 Zr715 Zr 0.16659 0.77872 0.27830
 O716 O 0.13829 0.71345 0.20149
 O717 O 0.16738 0.67542 0.33621
 O718 O 0.12086 0.75762 0.32086
 O719 O 0.13170 0.83083 0.25338
 O720 O 0.11113 0.75301 0.25216
 C721 C 0.10666 0.73021 0.22175
 O722 O 0.22721 0.67276 0.16305
 O723 O 0.30201 0.83782 0.18834
 O724 O 0.20203 0.74514 0.15533
 O725 O 0.25867 0.78935 0.16438
 O726 O 0.36053 0.73815 0.20642
 O727 O 0.32244 0.67360 0.19873
 C728 C 0.22724 0.77584 0.14393
 H729 H 0.32824 0.79505 0.25300
 H730 H 0.25962 0.65326 0.24050
 H731 H 0.17033 0.78882 0.20396
 H732 H 0.19649 0.75657 0.34231
 H733 H 0.37099 0.65965 0.26538
 H734 H 0.24685 0.61718 0.33430
 H735 H 0.17267 0.64757 0.34899
 H736 H 0.09286 0.77399 0.31749
 H737 H 0.38807 0.72125 0.21053
 H738 H 0.28721 0.86141 0.17413
 H739 H 0.20102 0.87243 0.22785
 H740 H 0.10056 0.82932 0.26244
 H741 H 0.35083 0.65795 0.20211
 H742 H 0.20035 0.66661 0.14795
 H743 H 0.28215 0.83657 0.36999
 H744 H 0.12847 0.83628 0.32368
 Zr745 Zr 0.21944 0.78128 0.72375
 O746 O 0.24929 0.83054 0.69148
 O747 O 0.15675 0.78195 0.70030
 O748 O 0.23211 0.76316 0.66520
 O749 O 0.18792 0.84373 0.80234
 O750 O 0.26200 0.69570 0.66868
 O751 O 0.18959 0.84263 0.73659
 O752 O 0.12237 0.72629 0.73009
 O753 O 0.20790 0.71512 0.72175
 O754 O 0.17832 0.76720 0.77086
 O755 O 0.28180 0.75064 0.72642
 O756 O 0.25337 0.80228 0.77280
 Zr757 Zr 0.26263 0.68981 0.82464
 Zr758 Zr 0.26998 0.68468 0.72814
 Zr759 Zr 0.21263 0.78474 0.81944
 Zr760 Zr 0.16854 0.70167 0.76988
 O761 O 0.24429 0.83505 0.84883
 O762 O 0.15344 0.65038 0.73242
 O763 O 0.19950 0.71919 0.82162
 O764 O 0.22916 0.66892 0.77512
 O765 O 0.30483 0.70233 0.77748
 O766 O 0.27408 0.75558 0.82481
 C767 C 0.12332 0.75852 0.70717
 C768 C 0.18076 0.86089 0.76955
 C769 C 0.24862 0.72861 0.64974
 O770 O 0.24057 0.63005 0.70388
 O771 O 0.30533 0.62939 0.74671
 O772 O 0.29802 0.63182 0.81241
 C773 C 0.31209 0.61391 0.78064
 O774 O 0.33916 0.81816 0.74263
 Zr775 Zr 0.31346 0.76815 0.77685
 O776 O 0.32217 0.69517 0.85413
 O777 O 0.33236 0.68171 0.69980
 O778 O 0.37070 0.74960 0.74481
 O779 O 0.33294 0.82073 0.81099
 O780 O 0.35845 0.74332 0.81642
 C781 C 0.35550 0.71813 0.84537
 O782 O 0.23327 0.63817 0.85400
 O783 O 0.14791 0.79176 0.84293
 O784 O 0.24758 0.70728 0.88322
 O785 O 0.21207 0.77178 0.87812
 O786 O 0.10962 0.71777 0.80078
 O787 O 0.14805 0.65053 0.80573
 C788 C 0.22838 0.74112 0.89780
 H789 H 0.14974 0.78301 0.77121
 H790 H 0.22428 0.63776 0.77614
 H791 H 0.28803 0.76629 0.84857
 H792 H 0.30067 0.75832 0.70405
 H793 H 0.12078 0.64905 0.73085
 H794 H 0.26249 0.61751 0.68545
 H795 H 0.33235 0.65613 0.68287
 H796 H 0.39622 0.76390 0.75670
 H797 H 0.08481 0.70339 0.78787
 H798 H 0.14774 0.81745 0.85974
 H799 H 0.22217 0.84835 0.86668
 H800 H 0.36573 0.82095 0.81050
 H801 H 0.12018 0.63873 0.79580
 H802 H 0.25471 0.62864 0.87374
 H803 H 0.22681 0.84115 0.67307
 H804 H 0.31521 0.83985 0.74024
 Zr805 Zr 0.29207 0.22513 0.20449
 O806 O 0.28926 0.18358 0.15633
 O807 O 0.35622 0.24550 0.19410
 O808 O 0.29102 0.25826 0.14984
 O809 O 0.32024 0.15085 0.27749
 O810 O 0.23097 0.30283 0.15499
 O811 O 0.32152 0.16312 0.21245
 O812 O 0.36290 0.30532 0.23135
 O813 O 0.28397 0.29063 0.21424
 O814 O 0.31915 0.23738 0.25899
 O815 O 0.22390 0.23710 0.20044
 O816 O 0.25752 0.18737 0.24457
 Zr817 Zr 0.20509 0.28079 0.30634
 Zr818 Zr 0.21577 0.30209 0.21337
 Zr819 Zr 0.28225 0.20292 0.29929
 Zr820 Zr 0.30852 0.30258 0.26918
 O821 O 0.26011 0.14365 0.32086
 O822 O 0.31443 0.36593 0.24849
 O823 O 0.27385 0.26836 0.31109
 O824 O 0.24100 0.31821 0.26739
 O825 O 0.17818 0.26695 0.25247
 O826 O 0.21435 0.21494 0.29753
 C827 C 0.37615 0.27934 0.20487
 C828 C 0.32863 0.13924 0.24248
 C829 C 0.26450 0.28774 0.13662
 O830 O 0.23671 0.36401 0.19791
 O831 O 0.17066 0.34861 0.23199
 O832 O 0.15899 0.33185 0.29515
 C833 C 0.15175 0.35462 0.26464
 O834 O 0.19916 0.15450 0.19872
 Zr835 Zr 0.19047 0.20185 0.24237
 O836 O 0.14401 0.25364 0.32045
 O837 O 0.15689 0.29683 0.18133
 O838 O 0.13675 0.21111 0.20434
 O839 O 0.18235 0.14012 0.26614
 O840 O 0.13279 0.20189 0.27511
 C841 C 0.12142 0.22383 0.30475
 O842 O 0.20467 0.33122 0.34730
 O843 O 0.34358 0.20528 0.32797
 O844 O 0.21780 0.26309 0.36415
 O845 O 0.26988 0.20970 0.35938
 O846 O 0.36544 0.29171 0.30317
 O847 O 0.30549 0.34435 0.31766
 C848 C 0.24435 0.23522 0.37908
 H849 H 0.35068 0.22862 0.26059
 H850 H 0.23710 0.34899 0.27331
 H851 H 0.19985 0.19755 0.31769
 H852 H 0.21299 0.22984 0.17443
 H853 H 0.34443 0.37588 0.25495
 H854 H 0.21556 0.37540 0.17870
 H855 H 0.15310 0.32370 0.16661
 H856 H 0.11589 0.18743 0.20855
 H857 H 0.38641 0.31491 0.29743
 H858 H 0.34658 0.17820 0.34245
 H859 H 0.28200 0.13383 0.34009
 H860 H 0.15315 0.12957 0.25797
 H861 H 0.33232 0.36207 0.31806
 H862 H 0.17677 0.32938 0.36261
 H863 H 0.31895 0.18388 0.14380
 H864 H 0.17071 0.14013 0.19437
 Zr865 Zr 0.73804 0.70849 0.29735
 O866 O 0.77390 0.66723 0.33403
 O867 O 0.67680 0.70822 0.32440
 O868 O 0.74339 0.74055 0.35277
 O869 O 0.69454 0.63889 0.22808
 O870 O 0.78737 0.79691 0.33832
 O871 O 0.71195 0.64522 0.29192
 O872 O 0.64196 0.76530 0.29618
 O873 O 0.72747 0.77456 0.29342
 O874 O 0.69199 0.71874 0.25320
 O875 O 0.80039 0.73464 0.28513
 O876 O 0.76546 0.68070 0.24654
 Zr877 Zr 0.76986 0.78724 0.18513
 Zr878 Zr 0.78893 0.80027 0.27840
 Zr879 Zr 0.71972 0.69459 0.20283
 Zr880 Zr 0.68253 0.78442 0.24948
 O881 O 0.74769 0.63994 0.17527
 O882 O 0.67146 0.83965 0.28401
 O883 O 0.70729 0.76049 0.19664
 O884 O 0.74242 0.81391 0.23569
 O885 O 0.81769 0.77658 0.22751
 O886 O 0.78020 0.72088 0.18886
 C887 C 0.64376 0.73338 0.31947
 C888 C 0.69545 0.62465 0.26279
 C889 C 0.76360 0.77560 0.36203
 O890 O 0.76346 0.85903 0.30016
 O891 O 0.82220 0.85185 0.25346
 O892 O 0.80487 0.84649 0.18982
 C893 C 0.82281 0.86603 0.21886
 O894 O 0.84855 0.66138 0.26972
 Zr895 Zr 0.82529 0.71050 0.23260
 O896 O 0.82561 0.77782 0.15047
 O897 O 0.85425 0.80234 0.29967
 O898 O 0.88645 0.73118 0.25477
 O899 O 0.84003 0.65362 0.20129
 O900 O 0.86406 0.72722 0.18435
 C901 C 0.85870 0.75270 0.15564
 O902 O 0.73683 0.83637 0.15461
 O903 O 0.65284 0.68857 0.18640
 O904 O 0.74971 0.76512 0.13021
 O905 O 0.71311 0.70331 0.14319
 O906 O 0.62021 0.76798 0.22676
 O907 O 0.65841 0.83262 0.21182
 C908 C 0.72798 0.73176 0.12008
 H909 H 0.66353 0.70400 0.25659
 H910 H 0.73749 0.84505 0.23284
 H911 H 0.79110 0.70740 0.16463
 H912 H 0.82119 0.72883 0.30640
 H913 H 0.63914 0.84228 0.28875
 H914 H 0.78812 0.87360 0.31311
 H915 H 0.85672 0.82921 0.31466
 H916 H 0.91027 0.71590 0.24020
 H917 H 0.59723 0.78435 0.24144
 H918 H 0.65083 0.66168 0.17137
 H919 H 0.72365 0.62645 0.16058
 H920 H 0.87256 0.65190 0.19755
 H921 H 0.63176 0.84644 0.22350
 H922 H 0.75642 0.84400 0.13262
 H923 H 0.75297 0.65918 0.35488
 H924 H 0.87996 0.65466 0.26351
 Zr925 Zr 0.79325 0.27074 0.78552
 O926 O 0.79103 0.31949 0.82804
 O927 O 0.85884 0.25590 0.80109
 O928 O 0.77547 0.25564 0.84415
 O929 O 0.82040 0.33413 0.70636
 O930 O 0.75128 0.18741 0.84092
 O931 O 0.81708 0.33371 0.77189
 O932 O 0.88454 0.20056 0.76359
 O933 O 0.79977 0.20386 0.78375
 O934 O 0.82749 0.25448 0.73455
 O935 O 0.72751 0.24862 0.78647
 O936 O 0.75497 0.29745 0.74068
 Zr937 Zr 0.73103 0.18845 0.68667
 Zr938 Zr 0.73472 0.18188 0.78274
 Zr939 Zr 0.78919 0.27824 0.69031
 Zr940 Zr 0.83027 0.18758 0.73074
 O941 O 0.75869 0.33282 0.66550
 O942 O 0.84535 0.13228 0.76354
 O943 O 0.79582 0.21170 0.68363
 O944 O 0.76718 0.16168 0.73195
 O945 O 0.69610 0.20467 0.73727
 O946 O 0.72536 0.25526 0.68877
 C947 C 0.88894 0.22919 0.78919
 C948 C 0.82583 0.35198 0.73915
 C949 C 0.76093 0.22097 0.85990
 O950 O 0.76097 0.12258 0.80161
 O951 O 0.69112 0.13391 0.76752
 O952 O 0.68623 0.13840 0.70190
 C953 C 0.67426 0.12327 0.73526
 O954 O 0.67766 0.32263 0.77732
 Zr955 Zr 0.69145 0.27070 0.73914
 O956 O 0.67052 0.19885 0.66296
 O957 O 0.67677 0.18519 0.81774
 O958 O 0.63588 0.25372 0.77332
 O959 O 0.67455 0.32684 0.70827
 O960 O 0.64114 0.25330 0.69966
 C961 C 0.64016 0.22579 0.67175
 O962 O 0.75148 0.13362 0.65513
 O963 O 0.85147 0.27942 0.66171
 O964 O 0.74074 0.20711 0.62765
 O965 O 0.78139 0.26790 0.63186
 O966 O 0.88594 0.19897 0.69456
 O967 O 0.83802 0.13760 0.68942
 C968 C 0.76046 0.23995 0.61281
 H969 H 0.85700 0.26762 0.73244
 H970 H 0.76837 0.13014 0.72980
 H971 H 0.70998 0.26817 0.66655
 H972 H 0.71069 0.25756 0.80988
 H973 H 0.87689 0.12465 0.75882
 H974 H 0.74025 0.11156 0.82145
 H975 H 0.67627 0.15909 0.83383
 H976 H 0.60981 0.26913 0.76288
 H977 H 0.90949 0.17789 0.70102
 H978 H 0.85160 0.30516 0.64515
 H979 H 0.77947 0.34422 0.64586
 H980 H 0.64187 0.32985 0.70895
 H981 H 0.86496 0.12059 0.69525
 H982 H 0.72699 0.12733 0.63732
 H983 H 0.82034 0.31934 0.84075
 H984 H 0.64602 0.33094 0.77544
 C985 C 0.41552 0.99286 0.29463
 C986 C 0.39417 0.96838 0.32220
 C987 C 0.42498 0.95738 0.34825
 C988 C 0.46170 0.98058 0.33908
 O989 O 0.45635 1.00200 0.30616
 H990 H 0.36069 0.95692 0.32222
 H991 H 0.41918 0.93865 0.37390
 C992 C -0.07116 0.48200 0.78793
 C993 C -0.04045 0.44889 0.78506
 C994 C -0.01540 0.45113 0.81743
 C995 C -0.03199 0.48567 0.83799
 O996 O -0.06584 0.50457 0.82017
 H997 H -0.03620 0.42642 0.76146
 H998 H 0.01159 0.42991 0.82527
 C999 C 0.05254 0.00588 0.78160
 C1000 C 0.01840 0.03477 0.77482
 C1001 C -0.00498 0.03770 0.80873
 C1002 C 0.01677 0.01053 0.83354
 O1003 O 0.05126 -0.00880 0.81717
 H1004 H 0.01220 0.05237 0.74858
 H1005 H -0.03282 0.05876 0.81518
 C1006 C 0.55966 0.50638 0.28157
 C1007 C 0.51577 0.51889 0.27890
 C1008 C 0.49935 0.51858 0.31569
 C1009 C 0.53385 0.50555 0.33883
 O1010 O 0.57047 0.49780 0.31814
 H1011 H 0.49765 0.52744 0.25328
 H1012 H 0.46603 0.52737 0.32470
 C1013 C 0.57389 0.52089 0.20922
 C1014 C 0.55995 0.56253 0.20310
 C1015 C 0.54747 0.56420 0.16527
 C1016 C 0.55368 0.52342 0.15080
 O1017 O 0.57026 0.49738 0.17712
 H1018 H 0.55969 0.58868 0.22361
 H1019 H 0.53608 0.59211 0.14974
 C1020 C 0.06503 0.97745 0.71685
 C1021 C 0.03961 0.94105 0.71818
 C1022 C 0.01658 0.94030 0.68484
 C1023 C 0.02912 0.97623 0.66506
 O1024 O 0.05864 0.99908 0.68433
 H1025 H 0.03691 0.91858 0.74171
 H1026 H -0.00657 0.91627 0.67590
 C1027 C -0.07109 0.51177 0.72288
 C1028 C -0.04381 0.54646 0.72745
 C1029 C -0.01947 0.54889 0.69416
 C1030 C -0.03359 0.51563 0.67150
 O1031 O -0.06486 0.49310 0.68877
 H1032 H -0.04164 0.56710 0.75246
 H1033 H 0.00508 0.57246 0.68699
 C1034 C 0.43562 0.00440 0.22307
 C1035 C 0.46656 0.03626 0.22708
 C1036 C 0.48413 0.04252 0.19108
 C1037 C 0.46211 0.01491 0.16725
 O1038 O 0.43264 -0.00793 0.18644
 H1039 H 0.47316 0.05511 0.25251
 H1040 H 0.50831 0.06603 0.18285
 C1041 C 0.32092 0.35549 -0.00109
 C1042 C 0.35218 0.32363 0.00604
 C1043 C 0.39118 0.34345 0.01210
 C1044 C 0.38214 0.38632 0.00844
 O1045 O 0.33952 0.39401 0.00013
 H1046 H 0.34642 0.28974 0.00877
 H1047 H 0.42295 0.32836 0.01751
 C1048 C -0.23042 0.85487 0.51982
 C1049 C -0.23474 0.86820 0.55789
 C1050 C -0.19875 0.89240 0.56512
 C1051 C -0.17524 0.89296 0.53091
 O1052 O -0.19415 0.87025 0.50338
 H1053 H -0.26112 0.86084 0.57800
 H1054 H -0.19117 0.90866 0.59179
 C1055 C -0.22764 0.12891 0.98404
 C1056 C -0.23574 0.09811 0.95650
 C1057 C -0.19968 0.07180 0.95643
 C1058 C -0.17226 0.08766 0.98440
 O1059 O -0.18910 0.12230 1.00146
 H1060 H -0.26428 0.09587 0.93808
 H1061 H -0.19356 0.04460 0.93764
 C1062 C 0.30423 0.65347 0.50381
 C1063 C 0.33099 0.67502 0.47782
 C1064 C 0.36337 0.64700 0.46712
 C1065 C 0.35737 0.61177 0.48977
 O1066 O 0.32144 0.61524 0.51214
 H1067 H 0.32597 0.70665 0.46605
 H1068 H 0.38902 0.65197 0.44584
 C1069 C 0.22917 0.63187 0.52882
 C1070 C 0.23859 0.60638 0.56035
 C1071 C 0.20357 0.58004 0.56472
 C1072 C 0.17545 0.59013 0.53511
 O1073 O 0.19080 0.62147 0.51302
 H1074 H 0.26718 0.60792 0.57878
 H1075 H 0.19927 0.55581 0.58658
 C1076 C 0.69792 0.14509 0.00872
 C1077 C 0.69721 0.12705 0.04519
 C1078 C 0.65700 0.10988 0.04987
 C1079 C 0.63590 0.11581 0.01535
 O1080 O 0.66085 0.13665 -0.01036
 H1081 H 0.72375 0.12564 0.06586
 H1082 H 0.64568 0.09195 0.07463
 C1083 C 0.69075 0.84335 0.50517
 C1084 C 0.65730 0.82700 0.52808
 C1085 C 0.62419 0.85685 0.52801
 C1086 C 0.63788 0.88875 0.50366
 O1087 O 0.67858 0.88113 0.49006
 H1088 H 0.65676 0.79738 0.54391
 H1089 H 0.59304 0.85535 0.54366
 C1090 C 0.23822 0.38145 0.98869
 C1091 C 0.24011 0.39844 0.95196
 C1092 C 0.20039 0.41892 0.94636
 C1093 C 0.17617 0.41388 0.97997
 O1094 O 0.19911 0.39109 1.00582
 H1095 H 0.26649 0.39425 0.93085
 H1096 H 0.19027 0.43581 0.92067
 C1097 C 0.01759 0.27225 0.41161
 C1098 C 0.04866 0.25641 0.43701
 C1099 C 0.06115 0.29083 0.45801
 C1100 C 0.03644 0.32444 0.44364
 O1101 O 0.01013 0.31333 0.41582
 H1102 H 0.06014 0.22372 0.43998
 H1103 H 0.08422 0.29119 0.48165
 C1104 C 0.51995 -0.22223 -0.08856
 C1105 C 0.55484 -0.23295 -0.06470
 C1106 C 0.56109 -0.19750 -0.04259
 C1107 C 0.52977 -0.16848 -0.05517
 O1108 O 0.50502 -0.18331 -0.08265
 H1109 H 0.57414 -0.26232 -0.06422
 H1110 H 0.58566 -0.19311 -0.02052
 C1111 C 0.02249 -0.19132 1.12233
 C1112 C 0.05324 -0.17155 1.14546
 C1113 C 0.05717 -0.13174 1.13063
 C1114 C 0.02888 -0.13099 1.09972
 O1115 O 0.00829 -0.16668 1.09455
 H1116 H 0.07163 -0.18483 1.16929
 H1117 H 0.07872 -0.10675 1.14044
 C1118 C 0.49394 0.29979 0.62437
 C1119 C 0.50863 0.32123 0.65677
 C1120 C 0.51533 0.36201 0.64489
 C1121 C 0.50328 0.36179 0.60673
 O1122 O 0.48940 0.32495 0.59473
 H1123 H 0.51719 0.30781 0.68447
 H1124 H 0.52927 0.38794 0.66126
 C1125 C 0.47587 1.23767 0.58143
 C1126 C 0.48662 1.25400 0.54529
 C1127 C 0.48326 1.22068 0.52037
 C1128 C 0.47139 1.18674 0.54310
 O1129 O 0.46538 1.19712 0.57928
 H1130 H 0.50266 1.28361 0.53831
 H1131 H 0.49470 1.21969 0.49066
 C1132 C 0.03495 0.73799 1.09327
 C1133 C 0.06819 0.75180 1.06858
 C1134 C 0.07821 0.71739 1.04567
 C1135 C 0.05040 0.68599 1.05866
 O1136 O 0.02480 0.69820 1.08735
 H1137 H 0.08262 0.78315 1.06688
 H1138 H 0.10164 0.71579 1.02184
 C1139 C 0.52236 0.70878 -0.12325
 C1140 C 0.54658 0.69051 -0.15340
 C1141 C 0.55238 0.64907 -0.14341
 C1142 C 0.53068 0.64546 -0.10845
 O1143 O 0.51292 0.68124 -0.09603
 H1144 H 0.55757 0.70495 -0.17995
 H1145 H 0.56975 0.62437 -0.15975
 C1146 C -0.03551 1.21612 0.40464
 C1147 C -0.07271 1.22741 0.42607
 C1148 C -0.08406 1.19124 0.44513
 C1149 C -0.05261 1.16116 0.43385
 O1150 O -0.02333 1.17609 0.40957
 H1151 H -0.08832 1.25860 0.42856
 H1152 H -0.11048 1.18780 0.46618
 C1153 C 0.75385 0.71970 0.95741
 C1154 C 0.76102 0.76296 0.96279
 C1155 C 0.74747 0.78264 0.92943
 C1156 C 0.73277 0.75008 0.90630
 O1157 O 0.73652 0.71248 0.92329
 H1158 H 0.77421 0.77838 0.98805
 H1159 H 0.75026 0.81607 0.92217
 C1160 C 0.24258 0.20076 0.47617
 C1161 C 0.22730 0.24211 0.48262
 C1162 C 0.22884 0.26187 0.44740
 C1163 C 0.24476 0.23137 0.42175
 O1164 O 0.25336 0.19475 0.43913
 H1165 H 0.21171 0.25479 0.50855
 H1166 H 0.21634 0.29351 0.44069
 C1167 C 0.74094 0.31851 0.45811
 C1168 C 0.69671 0.30912 0.45330
 C1169 C 0.69405 0.29114 0.41784
 C1170 C 0.73672 0.28975 0.40348
 O1171 O 0.76530 0.30664 0.42756
 H1172 H 0.66990 0.31303 0.47403
 H1173 H 0.66434 0.28084 0.40363
 C1174 C 0.23157 0.78829 0.98958
 C1175 C 0.24606 0.74758 1.00005
 C1176 C 0.24318 0.72252 0.96775
 C1177 C 0.22765 0.74946 0.93965
 O1178 O 0.22057 0.78889 0.95277
 H1179 H 0.26214 0.73826 1.02647
 H1180 H 0.25508 0.68996 0.96422
 C1181 C 0.23614 0.82564 0.05406
 C1182 C 0.23417 0.86079 0.07797
 C1183 C 0.22197 0.84584 0.11273
 C1184 C 0.21988 0.80195 0.10916
 O1185 O 0.22854 0.78946 0.07320
 H1186 H 0.24033 0.89377 0.07069
 H1187 H 0.21930 0.86494 0.13851
 C1188 C 0.75788 0.28979 0.52241
 C1189 C 0.74719 0.24871 0.51016
 C1190 C 0.74625 0.22369 0.54235
 C1191 C 0.75747 0.25060 0.57178
 O1192 O 0.76482 0.29020 0.55990
 H1193 H 0.74040 0.23787 0.48121
 H1194 H 0.73860 0.19011 0.54408
 C1195 C 0.23313 0.16829 0.54474
 C1196 C 0.23594 0.13298 0.56836
 C1197 C 0.24372 0.14798 0.60398
 C1198 C 0.24302 0.19187 0.60140
 O1199 O 0.23664 0.20481 0.56503
 H1200 H 0.23403 0.09969 0.56010
 H1201 H 0.24784 0.12876 0.62950
 C1202 C 0.73446 0.69893 0.02348
 C1203 C 0.68959 0.70864 0.02482
 C1204 C 0.68124 0.72372 0.06120
 C1205 C 0.72165 0.72332 0.07902
 O1206 O 0.75375 0.70788 0.05660
 H1207 H 0.66597 0.70525 0.00183
 H1208 H 0.64955 0.73350 0.07341
 C1209 C 0.12853 0.52362 0.24593
 C1210 C 0.15889 0.51538 0.21650
 C1211 C 0.18308 0.55167 0.21267
 C1212 C 0.16630 0.57955 0.24015
 O1213 O 0.13339 0.56277 0.26027
 H1214 H 0.16064 0.48755 0.19790
 H1215 H 0.20909 0.55755 0.19174
 C1216 C 0.59363 0.04422 0.74980
 C1217 C 0.57093 0.07915 0.76498
 C1218 C 0.59740 0.11311 0.75861
 C1219 C 0.63435 0.09715 0.73952
 O1220 O 0.63261 0.05521 0.73455
 H1221 H 0.53829 0.07986 0.77813
 H1222 H 0.59111 0.14579 0.76766
 C1223 C 0.87834 0.03959 0.25491
 C1224 C 0.84432 0.03717 0.28186
 C1225 C 0.83042 0.07787 0.28867
 C1226 C 0.85545 0.10295 0.26464
 O1227 O 0.88446 0.07983 0.24347
 H1228 H 0.83240 0.00881 0.29611
 H1229 H 0.80335 0.08798 0.30745
 C1230 C 0.37885 0.51857 0.77178
 C1231 C 0.35870 0.51068 0.80700
 C1232 C 0.33234 0.54540 0.81490
 C1233 C 0.33687 0.57223 0.78371
 O1234 O 0.36506 0.55597 0.75723
 H1235 H 0.36325 0.48287 0.82504
 H1236 H 0.31160 0.55032 0.84024
 C1237 C 0.38663 0.44817 0.73757
 C1238 C 0.36533 0.44855 0.70248
 C1239 C 0.34622 0.40984 0.69887
 C1240 C 0.35524 0.38819 0.73248
 O1241 O 0.37950 0.41160 0.75651
 H1242 H 0.36363 0.47439 0.68189
 H1243 H 0.32601 0.39938 0.67516
 C1244 C 0.87858 0.96594 0.22587
 C1245 C 0.85827 0.97185 0.19058
 C1246 C 0.83689 0.93480 0.18242
 C1247 C 0.84432 0.90847 0.21344
 O1248 O 0.86937 0.92737 0.24003
 H1249 H 0.85875 1.00019 0.17284
 H1250 H 0.81684 0.92835 0.15746
 C1251 C 0.60747 0.96847 0.72882
 C1252 C 0.63106 0.97304 0.69469
 C1253 C 0.65884 0.93865 0.69229
 C1254 C 0.65125 0.91508 0.72519
 O1255 O 0.62007 0.93310 0.74761
 H1256 H 0.62865 0.99868 0.67396
 H1257 H 0.68198 0.93143 0.66901
 C1258 C 0.09220 0.45023 0.25121
 C1259 C 0.05699 0.42244 0.25287
 C1260 C 0.07460 0.38348 0.26187
 C1261 C 0.11927 0.38992 0.26524
 O1262 O 0.13022 0.43020 0.25839
 H1263 H 0.02226 0.43028 0.24955
 H1264 H 0.05724 0.35361 0.26422
 C1265 C 0.03886 0.26822 0.88757
 C1266 C 0.06401 0.25676 0.91904
 C1267 C 0.10649 0.25763 0.90584
 C1268 C 0.10354 0.27079 0.86801
 O1269 O 0.06297 0.27809 0.85723
 H1270 H 0.05265 0.24612 0.94707
 H1271 H 0.13569 0.24660 0.92080
 C1272 C 0.54094 0.72947 0.36115
 C1273 C 0.53919 0.69143 0.34077
 C1274 C 0.58043 0.68566 0.32572
 C1275 C 0.60310 0.72123 0.33711
 O1276 O 0.57941 0.74808 0.35774
 H1277 H 0.51094 0.67120 0.33651
 H1278 H 0.59164 0.66056 0.30620
 C1279 C 0.52978 0.22830 0.14021
 C1280 C 0.52159 0.19329 0.16318
 C1281 C 0.56043 0.18528 0.18134
 C1282 C 0.58875 0.21647 0.16836
 O1283 O 0.57030 0.24249 0.14377
 H1284 H 0.49068 0.17679 0.16714
 H1285 H 0.56662 0.16123 0.20305
 C1286 C 0.02937 0.76559 0.65219
 C1287 C 0.03411 0.80903 0.65845
 C1288 C 0.06994 0.81219 0.68143
 C1289 C 0.08306 0.77063 0.68816
 O1290 O 0.05819 0.74243 0.67145
 H1291 H 0.01512 0.83536 0.64668
 H1292 H 0.08540 0.84116 0.69128
 C1293 C 0.96651 0.71974 0.64804
 C1294 C 0.96390 0.67566 0.65141
 C1295 C 0.92530 0.66872 0.67070
 C1296 C 0.90863 0.70892 0.67866
 O1297 O 0.93370 0.73967 0.66594
 H1298 H 0.98628 0.65134 0.64000
 H1299 H 0.91059 0.63828 0.67736
 C1300 C 0.46806 0.27713 0.14574
 C1301 C 0.48212 0.31001 0.16926
 C1302 C 0.44815 0.31730 0.19476
 C1303 C 0.41702 0.28767 0.18492
 O1304 O 0.42887 0.26363 0.15555
 H1305 H 0.51397 0.32530 0.16881
 H1306 H 0.44703 0.33984 0.21851
 C1307 C 0.47132 0.76754 0.35239
 C1308 C 0.48395 0.78547 0.31760
 C1309 C 0.44726 0.78434 0.29556
 C1310 C 0.41509 0.76775 0.31930
 O1311 O 0.42925 0.75761 0.35359
 H1312 H 0.51688 0.79425 0.30833
 H1313 H 0.44481 0.79264 0.26541
 C1314 C 0.97766 0.25298 0.84465
 C1315 C 0.99873 0.22085 0.82328
 C1316 C 0.96847 0.20819 0.79713
 C1317 C 0.93163 0.23297 0.80559
 O1318 O 0.93702 0.25958 0.83382
 H1319 H 1.03051 0.20576 0.82859
 H1320 H 0.97173 0.18233 0.77644
 C1321 C 0.53659 1.00957 0.71280
 C1322 C 0.49394 1.02474 0.72036
 C1323 C 0.47657 1.03614 0.68540
 C1324 C 0.50982 1.02784 0.65886
 O1325 O 0.54598 1.01209 0.67541
 H1326 H 0.47787 1.02834 0.74827
 H1327 H 0.44367 1.04864 0.67997
 C1328 C 0.05608 0.51235 1.21792
 C1329 C 0.01448 0.53128 1.22090
 C1330 C 0.00362 0.54327 1.18437
 C1331 C 0.03876 0.53037 1.16123
 O1332 O 0.07027 0.51109 1.18135
 H1333 H -0.00578 0.53619 1.24647
 H1334 H -0.02691 0.55857 1.17549
 C1335 C -0.05308 0.01017 1.21777
 C1336 C -0.00843 0.00864 1.22711
 C1337 C 0.01470 0.01015 1.19295
 C1338 C -0.01700 0.01315 1.16500
 O1339 O -0.05776 0.01360 1.17988
 H1340 H 0.00595 0.00497 1.25536
 H1341 H 0.05023 0.00864 1.18893
 C1342 C 0.43879 0.50753 0.71990
 C1343 C 0.46359 0.54403 0.72395
 C1344 C 0.48998 0.54566 0.69174
 C1345 C 0.48021 0.50977 0.67059
 O1346 O 0.44898 0.48699 0.68734
 H1347 H 0.46325 0.56606 0.74808
 H1348 H 0.51212 0.57104 0.68369
 C1349 C 0.44862 0.47418 -0.21909
 C1350 C 0.48323 0.44619 -0.22789
 C1351 C 0.51360 0.45154 -0.19943
 C1352 C 0.49588 0.48268 -0.17546
 O1353 O 0.45638 0.49595 -0.18707
 H1354 H 0.48636 0.42534 -0.25278
 H1355 H 0.54376 0.43313 -0.19536
 C1356 C -0.07359 0.98533 0.28434
 C1357 C -0.05258 0.94658 0.29071
 C1358 C -0.03932 0.94790 0.32823
 C1359 C -0.05221 0.98755 0.34213
 O1360 O -0.07314 1.01026 0.31574
 H1361 H -0.04748 0.92061 0.27039
 H1362 H -0.02291 0.92256 0.34399
 C1363 C 0.06594 0.50943 0.29143
 C1364 C 0.05089 0.54934 0.30317
 C1365 C 0.03860 0.54475 0.34078
 C1366 C 0.04706 0.50257 0.34963
 O1367 O 0.06429 0.48117 0.32012
 H1368 H 0.04995 0.57848 0.28651
 H1369 H 0.02678 0.56971 0.36018
 C1370 C 0.55059 -0.01683 -0.21939
 C1371 C 0.52571 -0.05350 -0.21926
 C1372 C 0.51147 -0.05876 -0.18216
 C1373 C 0.52861 -0.02518 -0.16162
 O1374 O 0.55256 0.00043 -0.18413
 H1375 H 0.51857 -0.07381 -0.24367
 H1376 H 0.49087 -0.08413 -0.17134
 C1377 C 0.73909 0.64298 -0.02868
 C1378 C 0.75155 0.62345 -0.06320
 C1379 C 0.72047 0.59316 -0.07016
 C1380 C 0.69174 0.59543 -0.03908
 O1381 O 0.70306 0.62528 -0.01388
 H1382 H 0.77879 0.63198 -0.08203
 H1383 H 0.71877 0.57220 -0.09499
 C1384 C 0.18221 1.14897 0.48950
 C1385 C 0.15770 1.16750 0.46000
 C1386 C 0.12146 1.14321 0.45544
 C1387 C 0.12496 1.11156 0.48251
 O1388 O 0.16156 1.11481 0.50348
 H1389 H 0.16526 1.19493 0.44255
 H1390 H 0.09513 1.14829 0.43498
 C1391 C 0.21523 -0.13226 0.99630
 C1392 C 0.22522 -0.10977 0.96326
 C1393 C 0.19766 -0.07515 0.96368
 C1394 C 0.17164 -0.07828 0.99665
 O1395 O 0.18186 -0.11343 1.01632
 H1396 H 0.25052 -0.11722 0.94182
 H1397 H 0.19551 -0.05101 0.94147
 C1398 C 0.73193 0.36700 0.51581
 C1399 C 0.73703 0.38204 0.55306
 C1400 C 0.70280 0.41037 0.55960
 C1401 C 0.67925 0.41177 0.52579
 O1402 O 0.69705 0.38578 0.49912
 H1403 H 0.76205 0.37254 0.57350
 H1404 H 0.69557 0.42765 0.58609
 C1405 C -0.19102 0.34348 0.49223
 C1406 C -0.15910 0.31682 0.47570
 C1407 C -0.12145 0.33996 0.47356
 C1408 C -0.13185 0.37904 0.48985
 O1409 O -0.17410 0.38140 0.50160
 H1410 H -0.16311 0.28429 0.46583
 H1411 H -0.08958 0.32930 0.46233
 C1412 C 0.29305 -0.16048 0.00159
 C1413 C 0.31904 -0.18272 -0.02538
 C1414 C 0.35634 -0.15985 -0.03055
 C1415 C 0.35166 -0.12514 -0.00647
 O1416 O 0.31347 -0.12524 0.01326
 H1417 H 0.31132 -0.21127 -0.04132
 H1418 H 0.38368 -0.16737 -0.04998
 C1419 C 0.26300 1.12652 0.48954
 C1420 C 0.25509 1.09455 0.46302
 C1421 C 0.29251 1.07009 0.46198
 C1422 C 0.32098 1.08833 0.48793
 O1423 O 0.30343 1.12294 0.50452
 H1424 H 0.22584 1.08993 0.44591
 H1425 H 0.29884 1.04253 0.44368
 C1426 C -0.19094 0.67581 0.99675
 C1427 C -0.16415 0.70473 1.01533
 C1428 C -0.12521 0.68361 1.02230
 C1429 C -0.12990 0.64348 1.00674
 O1430 O -0.16956 0.63864 0.99100
 H1431 H -0.17248 0.73709 1.02399
 H1432 H -0.09634 0.69628 1.03624
 C1433 C 0.02400 0.71582 0.59686
 C1434 C 0.06941 0.71126 0.59248
 C1435 C 0.07499 0.67596 0.57005
 C1436 C 0.03274 0.66308 0.56179
 O1437 O 0.00208 0.68777 0.57678
 H1438 H 0.09525 0.72920 0.60612
 H1439 H 0.10583 0.65927 0.56362
 C1440 C 0.46853 0.22334 0.09333
 C1441 C 0.43310 0.23550 0.07068
 C1442 C 0.42315 0.19999 0.04968
 C1443 C 0.45352 0.16955 0.06127
 O1444 O 0.48070 0.18355 0.08742
 H1445 H 0.41775 0.26684 0.06876
 H1446 H 0.39811 0.19710 0.02780
 C1447 C -0.03064 0.23253 0.90939
 C1448 C -0.07585 0.22814 0.91532
 C1449 C -0.08132 0.18679 0.92619
 C1450 C -0.03916 0.16976 0.92581
 O1451 O -0.00874 0.19698 0.91596
 H1452 H -0.10178 0.25137 0.90953
 H1453 H -0.11191 0.17115 0.93368
 C1454 C 0.48027 0.72082 0.40857
 C1455 C 0.45681 0.73271 0.44168
 C1456 C 0.45732 0.69736 0.46417
 C1457 C 0.47814 0.66666 0.44173
 O1458 O 0.49176 0.68042 0.40848
 H1459 H 0.44582 0.76445 0.45023
 H1460 H 0.44543 0.69453 0.49362
 C1461 C 0.52045 0.78608 0.40629
 C1462 C 0.55080 0.77888 0.43529
 C1463 C 0.54988 0.81500 0.45664
 C1464 C 0.51947 0.84091 0.43887
 O1465 O 0.50160 0.82400 0.40833
 H1466 H 0.56892 0.74965 0.44140
 H1467 H 0.56814 0.82127 0.48242
 C1468 C -0.02787 0.30876 0.89573
 C1469 C -0.04966 0.33806 0.87248
 C1470 C -0.05117 0.37448 0.89343
 C1471 C -0.02992 0.36443 0.92706
 O1472 O -0.01597 0.32505 0.92885
 H1473 H -0.05978 0.33513 0.84281
 H1474 H -0.06228 0.40568 0.88389
 C1475 C 0.51964 0.28097 0.09016
 C1476 C 0.55149 0.26630 0.06424
 C1477 C 0.56685 0.30175 0.04720
 C1478 C 0.54248 0.33498 0.06358
 O1479 O 0.51363 0.32259 0.08945
 H1480 H 0.56240 0.23367 0.05909
 H1481 H 0.59165 0.30311 0.02447
 C1482 C -0.02323 0.77603 0.59836
 C1483 C -0.06759 0.77773 0.58895
 C1484 C -0.07170 0.81253 0.56603
 C1485 C -0.02949 0.82810 0.56237
 O1486 O -0.00009 0.80585 0.58123
 H1487 H -0.09398 0.75718 0.59843
 H1488 H -0.10208 0.82651 0.55527
 C1489 C 0.26551 0.33990 0.04648
 C1490 C 0.27286 0.37378 0.07109
 C1491 C 0.27941 0.35651 0.10621
 C1492 C 0.27474 0.31307 0.10177
 O1493 O 0.26619 0.30259 0.06529
 H1494 H 0.27586 0.40714 0.06357
 H1495 H 0.28485 0.37389 0.13273
 C1496 C 0.74497 0.78178 0.52268
 C1497 C 0.77770 0.75110 0.51521
 C1498 C 0.78420 0.72945 0.54936
 C1499 C 0.75583 0.74904 0.57548
 O1500 O 0.73254 0.78007 0.55930
 H1501 H 0.79784 0.74781 0.48934
 H1502 H 0.80947 0.70560 0.55524
 C1503 C 0.26281 0.69996 0.55148
 C1504 C 0.28431 0.73869 0.55062
 C1505 C 0.27868 0.75613 0.58661
 C1506 C 0.25517 0.72656 0.60741
 O1507 O 0.24584 0.69246 0.58638
 H1508 H 0.30156 0.75276 0.52639
 H1509 H 0.29202 0.78584 0.59702
 C1510 C 0.75866 0.19500 0.02397
 C1511 C 0.80033 0.21256 0.02356
 C1512 C 0.80444 0.23158 0.05882
 C1513 C 0.76452 0.22563 0.07755
 O1514 O 0.73672 0.20405 0.05644
 H1515 H 0.82551 0.20947 0.00122
 H1516 H 0.83381 0.24595 0.07039
 C1517 C 0.73442 0.19322 0.95636
 C1518 C 0.71593 0.23393 0.95630
 C1519 C 0.72651 0.25103 0.92114
 C1520 C 0.75026 0.21961 0.90175
 O1521 O 0.75474 0.18451 0.92285
 H1522 H 0.69857 0.24991 0.97986
 H1523 H 0.71670 0.28211 0.91039
 C1524 C 0.23755 0.69361 0.48190
 C1525 C 0.21910 0.73442 0.48391
 C1526 C 0.22279 0.75100 0.44768
 C1527 C 0.24187 0.71908 0.42549
 O1528 O 0.24916 0.68382 0.44561
 H1529 H 0.20781 0.75163 0.50938
 H1530 H 0.21315 0.78278 0.43856
 C1531 C 0.74743 0.82024 0.45700
 C1532 C 0.75168 0.85671 0.43533
 C1533 C 0.75739 0.84345 0.39879
 C1534 C 0.75618 0.79936 0.39928
 O1535 O 0.74942 0.78469 0.43502
 H1536 H 0.75042 0.88955 0.44518
 H1537 H 0.76169 0.86419 0.37435
 C1538 C 0.26106 0.30693 0.97768
 C1539 C 0.23440 0.27299 0.98734
 C1540 C 0.23000 0.24969 0.95405
 C1541 C 0.25374 0.27110 0.92614
 O1542 O 0.27240 0.30572 0.94043
 H1543 H 0.21809 0.26697 1.01466
 H1544 H 0.21020 0.22153 0.95022
 C1545 C 0.87173 0.45670 0.74028
 C1546 C 0.84545 0.45980 0.70813
 C1547 C 0.82489 0.42193 0.70528
 C1548 C 0.83913 0.39762 0.73603
 O1549 O 0.86769 0.41875 0.75779
 H1550 H 0.84165 0.48691 0.68911
 H1551 H 0.80210 0.41282 0.68296
 C1552 C 0.38052 0.94997 0.24516
 C1553 C 0.40878 0.91480 0.24266
 C1554 C 0.38492 0.88086 0.25485
 C1555 C 0.34358 0.89672 0.26415
 O1556 O 0.34015 0.93844 0.25718
 H1557 H 0.44394 0.91467 0.23647
 H1558 H 0.39602 0.84805 0.25628
 C1559 C 0.11876 0.95815 0.76900
 C1560 C 0.14160 0.96339 0.80295
 C1561 C 0.16883 0.92898 0.80553
 C1562 C 0.16151 0.90462 0.77299
 O1563 O 0.13113 0.92231 0.75039
 H1564 H 0.13940 0.99000 0.82294
 H1565 H 0.19113 0.92195 0.82896
 C1566 C 0.60161 0.45551 0.23958
 C1567 C 0.56829 0.42788 0.22920
 C1568 C 0.58881 0.39094 0.21787
 C1569 C 0.63312 0.39790 0.22280
 O1570 O 0.64116 0.43683 0.23642
 H1571 H 0.53309 0.43466 0.22878
 H1572 H 0.57323 0.36152 0.20943
 C1573 C 0.63424 0.52815 0.25920
 C1574 C 0.66057 0.51816 0.29047
 C1575 C 0.68675 0.55289 0.29654
 C1576 C 0.67537 0.58178 0.26837
 O1577 O 0.64376 0.56682 0.24571
 H1578 H 0.65920 0.48972 0.30805
 H1579 H 0.71102 0.55674 0.31894
 C1580 C 0.11922 0.03210 0.74716
 C1581 C 0.16091 0.02758 0.73075
 C1582 C 0.18462 0.06077 0.74444
 C1583 C 0.15597 0.08505 0.76705
 O1584 O 0.11586 0.06803 0.76824
 H1585 H 0.17368 0.00088 0.71387
 H1586 H 0.21870 0.06759 0.73730
 C1587 C 0.36425 0.03011 0.24521
 C1588 C 0.33781 0.02906 0.21284
 C1589 C 0.32326 0.06980 0.20704
 C1590 C 0.34133 0.09364 0.23610
 O1591 O 0.36635 0.06980 0.25942
 H1592 H 0.33250 0.00214 0.19386
 H1593 H 0.30166 0.08087 0.18437
 C1594 C 0.86392 0.52935 0.76591
 C1595 C 0.83621 0.52508 0.79745
 C1596 C 0.80579 0.55721 0.79470
 C1597 C 0.81603 0.57926 0.76132
 O1598 O 0.85149 0.56223 0.74352
 H1599 H 0.83749 0.50058 0.81936
 H1600 H 0.77925 0.56418 0.81511
 C1601 C 0.96137 0.75904 0.11483
 C1602 C 0.93913 0.77511 0.08311
 C1603 C 0.89533 0.77297 0.09282
 C1604 C 0.89501 0.75432 0.12871
 O1605 O 0.93432 0.74482 0.14123
 H1606 H 0.95305 0.78958 0.05750
 H1607 H 0.86752 0.78561 0.07690
 C1608 C 0.46807 0.23262 0.65039
 C1609 C 0.47961 0.19633 0.67092
 C1610 C 0.44266 0.18617 0.69101
 C1611 C 0.41168 0.21674 0.68080
 O1612 O 0.42676 0.24477 0.65627
 H1613 H 0.51055 0.17849 0.67026
 H1614 H 0.43868 0.15968 0.71066
 C1615 C 0.45374 0.74547 0.88362
 C1616 C 0.42969 0.74689 0.91795
 C1617 C 0.38935 0.73069 0.90922
 C1618 C 0.39258 0.72005 0.87071
 O1619 O 0.43137 0.72826 0.85564
 H1620 H 0.44019 0.75829 0.94585
 H1621 H 0.36026 0.73000 0.92768
 C1622 C 0.96697 0.27448 0.35654
 C1623 C 0.98375 0.30729 0.33419
 C1624 C 0.95118 0.31720 0.30873
 C1625 C 0.91791 0.28925 0.31762
 O1626 O 0.92726 0.26380 0.34630
 H1627 H 1.01667 0.32034 0.33490
 H1628 H 0.95242 0.34010 0.28545
 C1629 C 0.02481 0.22241 0.35737
 C1630 C 0.01341 0.19087 0.33137
 C1631 C 0.04980 0.18512 0.30853
 C1632 C 0.07963 0.21418 0.32224
 O1633 O 0.06480 0.23655 0.35157
 H1634 H -0.01840 0.17595 0.32817
 H1635 H 0.05332 0.16422 0.28371
 C1636 C 0.51439 0.77722 0.84243
 C1637 C 0.49136 0.77861 0.80806
 C1638 C 0.52232 0.78725 0.78035
 C1639 C 0.56139 0.79117 0.79997
 O1640 O 0.55633 0.78642 0.83724
 H1641 H 0.45775 0.76956 0.80259
 H1642 H 0.51800 0.78556 0.74943
 C1643 C 0.54247 0.23769 0.62162
 C1644 C 0.56572 0.21333 0.59446
 C1645 C 0.60542 0.20555 0.61029
 C1646 C 0.60355 0.22573 0.64565
 O1647 O 0.56583 0.24532 0.65270
 H1648 H 0.55555 0.20176 0.56668
 H1649 H 0.63267 0.18743 0.59749
 C1650 C 0.01989 0.74454 0.16240
 C1651 C -0.00165 0.75653 0.19640
 C1652 C 0.02604 0.74482 0.22506
 C1653 C 0.06277 0.72787 0.20633
 O1654 O 0.05865 0.72674 0.16876
 H1655 H -0.03107 0.77637 0.19975
 H1656 H 0.02290 0.75388 0.25515
   
