data_POSCAR
  _audit_creation_date              2014-09-24
  _audit_creation_method            'ToBaCCo'
  _symmetry_space_group_name_H-M    'P1'
  _symmetry_Int_Tables_number       1
  _symmetry_cell_setting            triclinic
  loop_
  _symmetry_equiv_pos_as_xyz
 x,y,z
_cell_length_a 47.1158
_cell_length_b 47.1850
_cell_length_c 47.1073
_cell_angle_alpha 89.962000
_cell_angle_beta 89.969400
_cell_angle_gamma 90.021300
loop_
  _atom_site_label
  _atom_site_type_symbol
  _atom_site_fract_x
  _atom_site_fract_y
  _atom_site_fract_z
C1 C 0.36355 1.36463 0.32823
 C2 C 0.33892 1.37609 0.34096
 C3 C 0.32624 1.36359 0.36502
 C4 C 0.33865 1.33881 0.37610
 C5 C 0.36319 1.32693 0.36412
 C6 C 0.37554 1.33999 0.34032
 H7 H 0.32952 1.39488 0.33190
 H8 H 0.33004 1.32929 0.39515
 H9 H 0.39360 1.32988 0.33046
 C10 C 0.35365 0.85679 0.82068
 C11 C 0.33146 0.87025 0.83545
 C12 C 0.32012 0.85852 0.86063
 C13 C 0.33191 0.83294 0.87079
 C14 C 0.35429 0.81948 0.85653
 C15 C 0.36520 0.83173 0.83172
 H16 H 0.32200 0.88894 0.82613
 H17 H 0.32448 0.82386 0.89053
 H18 H 0.38253 0.82140 0.82075
 C19 C 0.85716 1.35701 0.82273
 C20 C 0.86748 1.33167 0.83442
 C21 C 0.85253 1.31749 0.85579
 C22 C 0.82701 1.32900 0.86586
 C23 C 0.81587 1.35436 0.85456
 C24 C 0.83154 1.36832 0.83307
 H25 H 0.88749 1.32307 0.82708
 H26 H 0.81623 1.31808 0.88292
 H27 H 0.82304 1.38714 0.82310
 C28 C 0.85999 0.86006 0.32426
 C29 C 0.83651 0.87259 0.33810
 C30 C 0.82370 0.85956 0.36178
 C31 C 0.83467 0.83370 0.37178
 C32 C 0.85771 0.82064 0.35831
 C33 C 0.87017 0.83398 0.33482
 H34 H 0.82707 0.89168 0.32968
 H35 H 0.82551 0.82391 0.39044
 H36 H 0.88834 0.82396 0.32504
 C37 C 0.64079 0.63826 0.32376
 C38 C 0.66608 0.62831 0.33602
 C39 C 0.67962 0.64352 0.35769
 C40 C 0.66729 0.66868 0.36763
 C41 C 0.64224 0.67928 0.35544
 C42 C 0.62906 0.66381 0.33360
 H43 H 0.67519 0.60852 0.32881
 H44 H 0.67761 0.68028 0.38455
 H45 H 0.61027 0.67229 0.32348
 C46 C 0.64632 0.14428 0.81788
 C47 C 0.66769 0.13066 0.83395
 C48 C 0.67761 0.14228 0.85959
 C49 C 0.66560 0.16763 0.86953
 C50 C 0.64433 0.18152 0.85416
 C51 C 0.63467 0.16965 0.82864
 H52 H 0.67792 0.11187 0.82570
 H53 H 0.67264 0.17647 0.88953
 H54 H 0.61771 0.18034 0.81751
 C55 C 1.14616 0.64577 0.81889
 C56 C 1.13395 0.67010 0.83086
 C57 C 1.14570 0.68287 0.85506
 C58 C 1.16983 0.67069 0.86762
 C59 C 1.18242 0.64633 0.85594
 C60 C 1.17022 0.63389 0.83174
 H61 H 1.11592 0.67991 0.82052
 H62 H 1.17870 0.68005 0.88662
 H63 H 1.17984 0.61518 0.82255
 C64 C 1.14002 0.14037 0.32249
 C65 C 1.16500 0.12911 0.33456
 C66 C 1.17990 0.14350 0.35629
 C67 C 1.16848 0.16915 0.36663
 C68 C 1.14355 0.18068 0.35519
 C69 C 1.12967 0.16620 0.33327
 H70 H 1.17427 0.11031 0.32538
 H71 H 1.17824 0.17983 0.38441
 H72 H 1.11032 0.17515 0.32482
 C73 C 0.63976 1.36113 0.67760
 C74 C 0.66453 1.37238 0.66541
 C75 C 0.67951 1.35788 0.64394
 C76 C 0.66815 1.33205 0.63398
 C77 C 0.64328 1.32045 0.64575
 C78 C 0.62929 1.33517 0.66760
 H79 H 0.67270 1.39211 0.67371
 H80 H 0.67797 1.32126 0.61631
 H81 H 0.61077 1.32586 0.67752
 C82 C 0.63566 0.86406 1.17288
 C83 C 0.62376 0.83934 1.16109
 C84 C 0.63557 0.82697 1.13662
 C85 C 0.65936 0.83974 1.12400
 C86 C 0.67169 0.86423 1.13550
 C87 C 0.65968 0.87622 1.15994
 H88 H 0.60586 0.82929 1.17142
 H89 H 0.66809 0.83081 1.10471
 H90 H 0.66912 0.89505 1.16904
 C91 C 1.14065 1.35792 1.17953
 C92 C 1.16572 1.36945 1.16789
 C93 C 1.18108 1.35533 1.14631
 C94 C 1.17006 1.32962 1.13567
 C95 C 1.14509 1.31776 1.14673
 C96 C 1.13076 1.33198 1.16858
 H97 H 1.17469 1.38829 1.17729
 H98 H 1.18016 1.31919 1.11794
 H99 H 1.11140 1.32278 1.17677
 C100 C 1.13663 0.86252 0.67375
 C101 C 1.12476 0.83794 0.66167
 C102 C 1.13674 0.82565 0.63725
 C103 C 1.16082 0.83827 0.62503
 C104 C 1.17322 0.86261 0.63681
 C105 C 1.16095 0.87459 0.66118
 H106 H 1.10668 0.82793 0.67170
 H107 H 1.16968 0.82938 0.60578
 H108 H 1.17036 0.89333 0.67047
 C109 C 0.36082 0.63830 0.67661
 C110 C 0.37116 0.66353 0.66477
 C111 C 0.35841 0.67573 0.64083
 C112 C 0.33531 0.66188 0.62805
 C113 C 0.32424 0.63646 0.63947
 C114 C 0.33719 0.62516 0.66408
 H115 H 0.38918 0.67396 0.67446
 H116 H 0.32551 0.67163 0.60975
 H117 H 0.32929 0.60570 0.67329
 C118 C 0.35847 0.14068 1.17669
 C119 C 0.37156 0.16400 1.16341
 C120 C 0.36156 0.17421 1.13725
 C121 C 0.33849 0.16059 1.12426
 C122 C 0.32516 0.13726 1.13705
 C123 C 0.33533 0.12741 1.16324
 H124 H 0.38934 0.17440 1.17355
 H125 H 0.33104 0.16803 1.10382
 H126 H 0.32458 0.11000 1.17368
 C127 C 0.85976 0.64076 1.17920
 C128 C 0.83505 0.62882 1.16713
 C129 C 0.82070 0.64241 1.14475
 C130 C 0.83153 0.66791 1.13384
 C131 C 0.85591 0.68032 1.14541
 C132 C 0.86978 0.66662 1.16792
 H133 H 0.82617 0.60944 1.17557
 H134 H 0.82065 0.67830 1.11648
 H135 H 0.88883 0.67618 1.17638
 C136 C 0.86105 0.13798 0.67654
 C137 C 0.83783 0.12463 0.66316
 C138 C 0.82467 0.13633 0.63884
 C139 C 0.83537 0.16211 0.62797
 C140 C 0.85807 0.17612 0.64122
 C141 C 0.87064 0.16389 0.66524
 H142 H 0.82976 0.10499 0.67171
 H143 H 0.82559 0.17200 0.60973
 H144 H 0.88850 0.17463 0.67482
 C145 C 1.35532 0.35535 0.68020
 C146 C 1.33310 0.36884 0.66564
 C147 C 1.32271 0.35768 0.64006
 C148 C 1.33498 0.33286 0.62906
 C149 C 1.35683 0.31840 0.64352
 C150 C 1.36694 0.33027 0.66904
 H151 H 1.32378 0.38789 0.67438
 H152 H 1.32652 0.32424 0.60956
 H153 H 1.38426 0.32037 0.68034
 C154 C 1.36315 0.86467 1.17240
 C155 C 1.37559 0.84005 1.16100
 C156 C 1.36360 0.82620 1.13727
 C157 C 1.33875 0.83784 1.12525
 C158 C 1.32618 0.86249 1.13617
 C159 C 1.33850 0.87567 1.15976
 H160 H 1.39373 0.83103 1.17171
 H161 H 1.32966 0.82853 1.10635
 H162 H 1.32880 0.89456 1.16844
 C163 C 0.86140 0.36255 1.17404
 C164 C 0.83739 0.37395 1.16060
 C165 C 0.82640 0.36168 1.13581
 C166 C 0.83986 0.33766 1.12437
 C167 C 0.86388 0.32547 1.13748
 C168 C 0.87413 0.33813 1.16264
 H169 H 0.82723 0.39250 1.16950
 H170 H 0.83087 0.32816 1.10553
 H171 H 0.89263 0.32948 1.17311
 C172 C 0.85423 0.85629 0.68058
 C173 C 0.86583 0.83102 0.66999
 C174 C 0.85518 0.81843 0.64527
 C175 C 0.83293 0.83170 0.63069
 C176 C 0.82090 0.85703 0.64081
 C177 C 0.83170 0.86920 0.66587
 H178 H 0.88257 0.82046 0.68167
 H179 H 0.82517 0.82244 0.61115
 H180 H 0.82245 0.88852 0.67407
 C181 C 0.63952 0.63980 0.67718
 C182 C 0.62687 0.66332 0.66386
 C183 C 0.63942 0.67584 0.63978
 C184 C 0.66512 0.66472 0.62939
 C185 C 0.67832 0.64164 0.64270
 C186 C 0.66514 0.62915 0.66627
 H187 H 0.60773 0.67237 0.67273
 H188 H 0.67469 0.67376 0.61055
 H189 H 0.67512 0.61114 0.67640
 C190 C 0.63572 1.13620 1.17333
 C191 C 0.66029 1.12485 1.16084
 C192 C 0.67257 1.13746 1.13691
 C193 C 0.66005 1.16187 1.12544
 C194 C 0.63526 1.17385 1.13726
 C195 C 0.62328 1.16057 1.16136
 H196 H 0.67000 1.10613 1.16992
 H197 H 0.66912 1.17072 1.10629
 H198 H 0.60515 1.16986 1.17189
 C199 C 0.13686 0.63665 1.17438
 C200 C 0.12388 0.66058 1.16191
 C201 C 0.13469 0.67329 1.13698
 C202 C 0.15914 0.66134 1.12452
 C203 C 0.17276 0.63777 1.13666
 C204 C 0.16168 0.62587 1.16161
 H205 H 0.10521 0.66952 1.17168
 H206 H 0.16836 0.67070 1.10570
 H207 H 0.17218 0.60759 1.17063
 C208 C 0.14526 1.14539 0.68261
 C209 C 0.13316 1.16946 0.66994
 C210 C 0.14580 1.18265 0.64620
 C211 C 0.17062 1.17038 0.63476
 C212 C 0.18278 1.14605 0.64690
 C213 C 0.16982 1.13363 0.67068
 H214 H 0.11486 1.17902 0.67999
 H215 H 0.18012 1.17903 0.61575
 H216 H 0.17923 1.11500 0.68024
 C217 C 1.35964 0.64116 0.32524
 C218 C 1.37284 0.66410 0.33899
 C219 C 1.36211 0.67508 0.36466
 C220 C 1.33786 0.66212 0.37647
 C221 C 1.32470 0.63883 0.36340
 C222 C 1.33575 0.62847 0.33778
 H223 H 1.39047 0.67442 0.32852
 H224 H 1.32970 0.66936 0.39669
 H225 H 1.32556 0.61068 0.32747
 C226 C 1.35357 1.14629 0.81743
 C227 C 1.32894 1.13433 0.82901
 C228 C 1.31560 1.14655 0.85265
 C229 C 1.32744 1.17097 0.86498
 C230 C 1.35236 1.18345 0.85390
 C231 C 1.36539 1.17039 0.83029
 H232 H 1.31978 1.11568 0.81926
 H233 H 1.31760 1.17949 0.88387
 H234 H 1.38378 1.18004 0.82047
 C235 C 0.86435 0.63640 0.82894
 C236 C 0.87539 0.66088 0.84191
 C237 C 0.86254 0.67254 0.86616
 C238 C 0.83815 0.65944 0.87734
 C239 C 0.82672 0.63498 0.86476
 C240 C 0.83994 0.62372 0.84048
 H241 H 0.89406 0.67089 0.83302
 H242 H 0.82802 0.66839 0.89591
 H243 H 0.83112 0.60502 0.83055
 C244 C 0.86226 1.13799 0.32639
 C245 C 0.83856 1.12504 0.33893
 C246 C 0.82496 1.13731 0.36250
 C247 C 0.83525 1.16310 0.37340
 C248 C 0.85883 1.17656 0.36097
 C249 C 0.87223 1.16365 0.33768
 H250 H 0.83046 1.10542 0.33023
 H251 H 0.82476 1.17279 0.39137
 H252 H 0.89041 1.17385 0.32803
 C253 C 0.64019 0.35989 0.32350
 C254 C 0.66593 0.37032 0.33449
 C255 C 0.68022 0.35653 0.35659
 C256 C 0.66865 0.33162 0.36797
 C257 C 0.64314 0.32009 0.35736
 C258 C 0.62884 0.33494 0.33552
 H259 H 0.67495 0.38964 0.32606
 H260 H 0.67918 0.32194 0.38588
 H261 H 0.61009 0.32564 0.32620
 C262 C 0.64025 0.85745 0.82325
 C263 C 0.66309 0.87175 0.83592
 C264 C 0.67426 0.86283 0.86211
 C265 C 0.66191 0.83940 0.87580
 C266 C 0.63858 0.82519 0.86382
 C267 C 0.62792 0.83436 0.83753
 H268 H 0.67197 0.89020 0.82552
 H269 H 0.67051 0.83201 0.89577
 H270 H 0.61063 0.82290 0.82767
 C271 C 0.13894 0.35988 0.82451
 C272 C 0.16499 0.37019 0.83509
 C273 C 0.17816 0.35807 0.85883
 C274 C 0.16495 0.33529 0.87256
 C275 C 0.13911 0.32420 0.86261
 C276 C 0.12624 0.33666 0.83865
 H277 H 0.17514 0.38819 0.82514
 H278 H 0.17464 0.32644 0.89142
 H279 H 0.10713 0.32715 0.83030
 C280 C 0.13996 0.85854 0.32289
 C281 C 0.12735 0.83533 0.33712
 C282 C 0.14046 0.82282 0.36093
 C283 C 0.16642 0.83383 0.37062
 C284 C 0.17951 0.85658 0.35678
 C285 C 0.16614 0.86877 0.33320
 H286 H 0.10811 0.82591 0.32897
 H287 H 0.17628 0.82496 0.38938
 H288 H 0.17624 0.88677 0.32321
 O289 O 1.10286 1.02662 1.14255
 O290 O 1.13584 1.02660 1.17575
 C291 C 1.11277 1.03626 1.16568
 C292 C 1.09735 1.05918 1.18064
 C293 C 1.10643 1.06889 1.20738
 H294 H 1.12502 1.05950 1.21702
 O295 O 0.89579 0.97219 1.14276
 O296 O 0.86287 0.97202 1.17605
 C297 C 0.88593 0.96242 1.16587
 C298 C 0.90134 0.93940 1.18068
 C299 C 0.89229 0.92970 1.20742
 H300 H 0.87381 0.93921 1.21720
 O301 O 1.02817 1.13941 1.10374
 O302 O 1.02855 1.17215 1.13712
 C303 C 1.03831 1.16211 1.11408
 C304 C 1.06228 1.17649 1.09969
 C305 C 1.07387 1.20141 1.11106
 H306 H 1.06457 1.21060 1.12997
 O307 O 0.97054 0.85980 1.10314
 O308 O 0.97003 0.82677 1.13628
 C309 C 0.96037 0.83701 1.11326
 C310 C 0.93653 0.82268 1.09864
 C311 C 0.92531 0.79745 1.10968
 H312 H 0.93474 0.78814 1.12846
 O313 O 1.14105 1.10018 1.02777
 O314 O 1.17470 1.13269 1.02743
 C315 C 1.16450 1.10968 1.03707
 C316 C 1.17962 1.09431 1.05993
 C317 C 1.20671 1.10306 1.06855
 H318 H 1.21712 1.12011 1.05719
 O319 O 0.85729 0.89923 1.02782
 O320 O 0.82370 0.86666 1.02766
 C321 C 0.83397 0.88961 1.03733
 C322 C 0.81895 0.90485 1.06031
 C323 C 0.79177 0.89622 1.06876
 H324 H 0.78133 0.87919 1.05742
 O325 O 0.97181 1.10116 1.14195
 O326 O 0.97211 1.13402 1.17523
 C327 C 0.96222 1.11110 1.16510
 C328 C 0.93904 1.09617 1.18017
 C329 C 0.93030 1.10529 1.20710
 H330 H 0.94135 1.12269 1.21724
 O331 O 1.02694 0.89713 1.14199
 O332 O 1.02666 0.86404 1.17507
 C333 C 1.03663 0.88697 1.16501
 C334 C 1.06003 0.90177 1.17987
 C335 C 1.06980 0.89217 1.20639
 H336 H 1.06005 0.87373 1.21598
 O337 O 1.14126 0.97111 1.10388
 O338 O 1.17459 0.97086 1.13673
 C339 C 1.16434 0.96126 1.11372
 C340 C 1.17888 0.93801 1.09841
 C341 C 1.20595 0.92864 1.10676
 H342 H 1.21654 0.93878 1.12444
 O343 O 0.85717 1.02786 1.10455
 O344 O 0.82392 1.02795 1.13752
 C345 C 0.83411 1.03764 1.11450
 C346 C 0.81952 1.06089 1.09926
 C347 C 0.79250 1.07030 1.10776
 H348 H 0.78198 1.06019 1.12553
 O349 O 0.89752 1.14167 1.02981
 O350 O 0.86478 1.17505 1.02993
 C351 C 0.88782 1.16485 1.03950
 C352 C 0.90333 1.17967 1.06250
 C353 C 0.89473 1.20659 1.07195
 H354 H 0.87649 1.21655 1.06220
 O355 O 1.10063 0.85744 1.02907
 O356 O 1.13338 0.82407 1.02875
 C357 C 1.11039 0.83418 1.03855
 C358 C 1.09501 0.81921 1.06156
 C359 C 1.10371 0.79226 1.07090
 H360 H 1.12195 0.78242 1.06106
 O361 O 0.89615 1.02733 1.14305
 O362 O 0.86327 1.02747 1.17639
 C363 C 0.88639 1.03699 1.16623
 C364 C 0.90195 1.05996 1.18097
 C365 C 0.89342 1.06945 1.20796
 H366 H 0.87545 1.05959 1.21836
 O367 O 1.10197 0.97148 1.14217
 O368 O 1.13498 0.97120 1.17534
 C369 C 1.11180 0.96172 1.16527
 C370 C 1.09649 0.93861 1.18009
 C371 C 1.10558 0.92910 1.20678
 H372 H 1.12297 0.93992 1.21717
 O373 O 1.02591 0.85812 1.10324
 O374 O 1.02537 0.82488 1.13618
 C375 C 1.03509 0.83475 1.11304
 C376 C 1.05787 0.81941 1.09774
 C377 C 1.06641 0.79223 1.10639
 H378 H 1.05503 0.78185 1.12345
 O379 O 0.97271 1.14066 1.10362
 O380 O 0.97317 1.17362 1.13679
 C381 C 0.96345 1.16389 1.11362
 C382 C 0.94059 1.17927 1.09851
 C383 C 0.93208 1.20639 1.10734
 H384 H 0.94347 1.21668 1.12442
 O385 O 0.85883 1.10259 1.03003
 O386 O 0.82592 1.13583 1.03018
 C387 C 0.83578 1.11265 1.03972
 C388 C 0.82055 1.09754 1.06264
 C389 C 0.79358 1.10658 1.07131
 H390 H 0.78351 1.12409 1.06036
 O391 O 1.13934 0.89648 1.02936
 O392 O 1.17227 0.86327 1.02911
 C393 C 1.16244 0.88636 1.03887
 C394 C 1.17775 0.90136 1.06182
 C395 C 1.20476 0.89231 1.07040
 H396 H 1.21480 0.87479 1.05945
 O397 O 0.97150 0.89817 1.14238
 O398 O 0.97129 0.86523 1.17562
 C399 C 0.96185 0.88840 1.16560
 C400 C 0.93883 0.90363 1.18066
 C401 C 0.92986 0.89464 1.20759
 H402 H 0.94110 0.87753 1.21799
 O403 O 1.02717 1.10043 1.14245
 O404 O 1.02730 1.13314 1.17589
 C405 C 1.03673 1.11004 1.16575
 C406 C 1.05969 1.09473 1.18078
 C407 C 1.06853 1.10359 1.20776
 H408 H 1.05708 1.12049 1.21823
 O409 O 0.85700 0.97277 1.10391
 O410 O 0.82371 0.97257 1.13683
 C411 C 0.83376 0.96319 1.11362
 C412 C 0.81873 0.94059 1.09782
 C413 C 0.79153 0.93150 1.10614
 H414 H 0.78127 0.94131 1.12421
 O415 O 1.14143 1.02628 1.10337
 O416 O 1.17472 1.02626 1.13626
 C417 C 1.16467 1.03581 1.11311
 C418 C 1.17971 1.05856 1.09747
 C419 C 1.20670 1.06793 1.10612
 H420 H 1.21668 1.05829 1.12442
 O421 O 0.89540 0.85983 1.02827
 O422 O 0.86195 0.82713 1.02857
 C423 C 0.88504 0.83708 1.03833
 C424 C 0.89959 0.82264 1.06220
 C425 C 0.88858 0.79741 1.07370
 H426 H 0.87004 0.78770 1.06421
 O427 O 1.10292 1.13960 1.02903
 O428 O 1.13647 1.17221 1.02924
 C429 C 1.11346 1.16224 1.03915
 C430 C 1.09919 1.17653 1.06322
 C431 C 1.11060 1.20141 1.07503
 H432 H 1.12927 1.21097 1.06563
 Cu433 Cu 1.11860 0.99893 1.11968
 Cu434 Cu 1.15836 0.99873 1.15937
 Cu435 Cu 0.87982 1.00003 1.12027
 Cu436 Cu 0.84011 0.99996 1.16007
 Cu437 Cu 0.99989 1.11716 1.11956
 Cu438 Cu 1.00028 1.15654 1.15958
 Cu439 Cu 0.99884 0.88163 1.11939
 Cu440 Cu 0.99829 0.84190 1.15910
 C441 C 1.07393 1.07222 1.16759
 H442 H 1.06725 1.06537 1.14669
 C443 C 1.09207 1.09110 1.22124
 C444 C 0.92470 0.92630 1.16756
 H445 H 0.93141 0.93324 1.14668
 C446 C 0.90650 0.90736 1.22118
 C447 C 1.07492 1.16437 1.07559
 H448 H 1.06631 1.14492 1.06694
 C449 C 1.09812 1.21395 1.09904
 C450 C 0.92371 0.83499 1.07472
 H451 H 0.93203 0.85469 1.06634
 C452 C 0.90127 0.78473 1.09753
 C453 C 1.16646 1.07180 1.07425
 H454 H 1.14543 1.06512 1.06782
 C455 C 1.22046 1.09018 1.09170
 C456 C 0.83214 0.92725 1.07475
 H457 H 0.85327 0.93379 1.06848
 C458 C 0.77785 0.90932 1.09164
 C459 C 0.92493 1.07333 1.16739
 H460 H 0.93141 1.06642 1.14644
 C461 C 0.90756 1.09212 1.22121
 C462 C 1.07344 0.92506 1.16699
 H463 H 1.06641 0.93219 1.14630
 C464 C 1.09254 0.90577 1.22014
 C465 C 1.16510 0.92437 1.07577
 H466 H 1.14411 0.93124 1.06941
 C467 C 1.21912 0.90583 1.09276
 C468 C 0.83323 1.07453 1.07654
 H469 H 0.85420 1.06766 1.07009
 C470 C 0.77931 1.09313 1.09379
 C471 C 0.92636 1.16631 1.07583
 H472 H 0.93274 1.14533 1.06904
 C473 C 0.90915 1.22036 1.09423
 C474 C 1.07202 0.83248 1.07505
 H475 H 1.06560 0.85349 1.06837
 C476 C 1.08937 0.77835 1.09319
 O477 O 1.10045 0.97085 0.85907
 O478 O 1.13349 0.97073 0.82590
 C479 C 1.11029 0.96126 0.83587
 C480 C 1.09494 0.93844 0.82069
 C481 C 1.10412 0.92936 0.79387
 H482 H 1.12176 0.94010 0.78378
 O483 O 0.89672 1.02932 0.85956
 O484 O 0.86366 1.02972 0.82644
 C485 C 0.88687 1.03910 0.83645
 C486 C 0.90239 1.06194 0.82145
 C487 C 0.89355 1.07135 0.79457
 H488 H 0.87520 1.06166 0.78474
 O489 O 0.97199 1.14127 0.89899
 O490 O 0.97194 1.17432 0.86587
 C491 C 0.96212 1.16418 0.88887
 C492 C 0.93830 1.17856 0.90350
 C493 C 0.92633 1.20337 0.89212
 H494 H 0.93576 1.21296 0.87349
 O495 O 1.02556 0.85925 0.89814
 O496 O 1.02549 0.82624 0.86502
 C497 C 1.03538 0.83634 0.88802
 C498 C 1.05915 0.82181 0.90262
 C499 C 1.07091 0.79700 0.89112
 H500 H 1.06197 0.78806 0.87193
 O501 O 1.13945 0.89686 0.97402
 O502 O 1.17254 0.86380 0.97385
 C503 C 1.16258 0.88696 0.96433
 C504 C 1.17759 0.90209 0.94119
 C505 C 1.20457 0.89317 0.93232
 H506 H 1.21503 0.87625 0.94377
 O507 O 0.85835 1.10282 0.97469
 O508 O 0.82530 1.13591 0.97495
 C509 C 0.83521 1.11285 0.96517
 C510 C 0.82012 1.09796 0.94198
 C511 C 0.79328 1.10721 0.93302
 H512 H 0.78304 1.12450 0.94413
 O513 O 1.02759 1.10241 0.86055
 O514 O 1.02806 1.13564 0.82762
 C515 C 1.03753 1.11246 0.83760
 C516 C 1.06085 1.09747 0.82278
 C517 C 1.07222 1.10855 0.79758
 H518 H 1.06330 1.12772 0.78860
 O519 O 0.96984 0.89806 0.85975
 O520 O 0.96925 0.86491 0.82679
 C521 C 0.95974 0.88803 0.83690
 C522 C 0.93618 0.90300 0.82236
 C523 C 0.92469 0.89211 0.79716
 H524 H 0.93360 0.87300 0.78809
 O525 O 1.13975 1.02592 0.89799
 O526 O 1.17285 1.02569 0.86488
 C527 C 1.16276 1.03564 0.88782
 C528 C 1.17730 1.05954 0.90213
 C529 C 1.20198 1.07137 0.89029
 H530 H 1.21096 1.06221 0.87122
 O531 O 0.85774 0.97426 0.89860
 O532 O 0.82437 0.97477 0.86578
 C533 C 0.83450 0.96486 0.88873
 C534 C 0.81947 0.94171 0.90373
 C535 C 0.79259 0.93285 0.89458
 H536 H 0.78237 0.94384 0.87717
 O537 O 1.10181 1.14039 0.97360
 O538 O 1.13502 1.17334 0.97381
 C539 C 1.11176 1.16363 0.96425
 C540 C 1.09653 1.17905 0.94148
 C541 C 1.10578 1.20588 0.93256
 H542 H 1.12341 1.21589 0.94338
 O543 O 0.89589 0.85959 0.97280
 O544 O 0.86262 0.82670 0.97304
 C545 C 0.88583 0.83646 0.96336
 C546 C 0.90098 0.82110 0.94052
 C547 C 0.89210 0.79401 0.93209
 H548 H 0.87472 0.78387 0.94322
 O549 O 0.89614 0.97399 0.85946
 O550 O 0.86292 0.97427 0.82650
 C551 C 0.88586 0.96425 0.83653
 C552 C 0.90019 0.94033 0.82202
 C553 C 0.88913 0.92921 0.79665
 H554 H 0.87105 0.93934 0.78679
 O555 O 1.10101 1.02620 0.85926
 O556 O 1.13406 1.02610 0.82609
 C557 C 1.11118 1.03608 0.83631
 C558 C 1.09682 1.06012 0.82204
 C559 C 1.10793 1.07162 0.79684
 H560 H 1.12621 1.06182 0.78694
 O561 O 0.97019 0.85824 0.89767
 O562 O 0.96995 0.82488 0.86492
 C563 C 0.96046 0.83504 0.88802
 C564 C 0.93746 0.82026 0.90362
 C565 C 0.92821 0.79312 0.89538
 H566 H 0.93829 0.78267 0.87759
 O567 O 1.02736 1.14184 0.89886
 O568 O 1.02745 1.17525 0.86611
 C569 C 1.03701 1.16507 0.88917
 C570 C 1.06003 1.17986 0.90466
 C571 C 1.06965 1.20673 0.89593
 H572 H 1.05977 1.21701 0.87792
 O573 O 0.85707 0.89859 0.97251
 O574 O 0.82360 0.86591 0.97237
 C575 C 0.83385 0.88892 0.96279
 C576 C 0.81904 0.90446 0.93980
 C577 C 0.79207 0.89586 0.93033
 H578 H 0.78177 0.87783 0.94014
 O579 O 1.14029 1.10117 0.97239
 O580 O 1.17357 1.13404 0.97207
 C581 C 1.16319 1.11119 0.96229
 C582 C 1.17738 1.09662 0.93833
 C583 C 1.20206 1.10812 0.92616
 H584 H 1.21155 1.12690 0.93535
 O585 O 1.02525 0.89687 0.85815
 O586 O 1.02480 0.86405 0.82485
 C587 C 1.03473 0.88697 0.83490
 C588 C 1.05804 0.90204 0.82002
 C589 C 1.06768 0.89305 0.79321
 H590 H 1.05763 0.87510 0.78303
 O591 O 0.97230 1.10297 0.85971
 O592 O 0.97271 1.13587 0.82643
 C593 C 0.96290 1.11285 0.83645
 C594 C 0.93980 1.09778 0.82138
 C595 C 0.93097 1.10663 0.79434
 H596 H 0.94220 1.12372 0.78388
 O597 O 0.85780 1.02948 0.89853
 O598 O 0.82452 1.03004 0.86564
 C599 C 0.83468 1.03936 0.88880
 C600 C 0.81985 1.06224 0.90443
 C601 C 0.79305 1.07196 0.89560
 H602 H 0.78303 1.06243 0.87726
 O603 O 1.13952 0.97052 0.89795
 O604 O 1.17272 0.97025 0.86495
 C605 C 1.16260 0.96071 0.88808
 C606 C 1.17748 0.93770 0.90353
 C607 C 1.20422 0.92799 0.89448
 H608 H 1.21387 0.93743 0.87590
 O609 O 1.10018 0.85849 0.97358
 O610 O 1.13317 0.82535 0.97320
 C611 C 1.11021 0.83564 0.96349
 C612 C 1.09564 0.82145 0.93952
 C613 C 1.10700 0.79659 0.92773
 H614 H 1.12547 0.78690 0.93734
 O615 O 0.89768 1.14105 0.97432
 O616 O 0.86470 1.17419 0.97441
 C617 C 0.88757 1.16397 0.96445
 C618 C 0.90192 1.17836 0.94048
 C619 C 0.89017 1.20300 0.92868
 H620 H 0.87102 1.21181 0.93782
 Cu621 Cu 1.11688 0.99829 0.88189
 Cu622 Cu 1.15661 0.99807 0.84213
 Cu623 Cu 0.88045 1.00181 0.88230
 Cu624 Cu 0.84055 1.00229 0.84275
 Cu625 Cu 1.11815 1.11708 1.00069
 Cu626 Cu 1.15831 1.15635 1.00061
 Cu627 Cu 1.11657 0.88060 1.00160
 Cu628 Cu 1.15611 0.84075 1.00122
 Cu629 Cu 0.88143 1.11873 1.00226
 Cu630 Cu 0.84190 1.15862 1.00243
 Cu631 Cu 0.87979 0.88255 1.00027
 Cu632 Cu 0.83964 0.84328 1.00037
 Cu633 Cu 0.99981 1.11884 0.88286
 Cu634 Cu 1.00010 1.15861 0.84319
 Cu635 Cu 0.99773 0.88140 0.88170
 Cu636 Cu 0.99730 0.84170 0.84208
 C637 C 1.07170 0.92487 0.83343
 H638 H 1.06473 0.93163 0.85427
 C639 C 1.09072 0.90668 0.77987
 C640 C 0.92563 1.07518 0.83457
 H641 H 0.93221 1.06838 0.85553
 C642 C 0.90783 1.09359 0.78067
 C643 C 0.92611 1.16639 0.92787
 H644 H 0.93492 1.14703 0.93652
 C645 C 0.90202 1.21559 0.90438
 C646 C 1.07155 0.83377 0.92697
 H647 H 1.06297 0.85321 0.93565
 C648 C 1.09502 0.78440 0.90332
 C649 C 1.16442 0.92465 0.92695
 H650 H 1.14354 0.93155 0.93365
 C651 C 1.21812 0.90579 0.90886
 C652 C 0.83307 1.07526 0.92777
 H653 H 0.85392 1.06822 0.93440
 C654 C 0.77952 1.09442 0.90983
 C655 C 1.07311 1.07308 0.83471
 H656 H 1.06475 1.06469 0.85442
 C657 C 1.09591 1.09599 0.78459
 C658 C 0.92390 0.92725 0.83453
 H659 H 0.93229 0.93545 0.85429
 C660 C 0.90107 0.90492 0.78416
 C661 C 1.16529 1.07219 0.92630
 H662 H 1.14596 1.06352 0.93524
 C663 C 1.21434 1.09584 0.90195
 C664 C 0.83241 0.92757 0.92651
 H665 H 0.85334 0.93411 0.93343
 C666 C 0.77867 0.91000 0.90771
 C667 C 1.07345 1.16638 0.92761
 H668 H 1.06646 1.14550 0.93417
 C669 C 1.09252 1.21997 0.90982
 C670 C 0.92385 0.83390 0.92636
 H671 H 0.93058 0.85495 0.93259
 C672 C 0.90558 0.77973 0.90962
 O673 O 0.97060 0.39796 0.35817
 O674 O 0.97038 0.36507 0.32493
 C675 C 0.96082 0.38811 0.33504
 C676 C 0.93772 0.40342 0.32022
 C677 C 0.92806 0.39454 0.29341
 H678 H 0.93787 0.37643 0.28327
 O679 O 1.02943 0.60241 0.35909
 O680 O 1.02958 0.63553 0.32605
 C681 C 1.03923 0.61245 0.33604
 C682 C 1.06232 0.59723 0.32105
 C683 C 1.07175 0.60619 0.29417
 H684 H 1.06202 0.62455 0.28443
 O685 O 0.85905 0.47323 0.39849
 O686 O 0.82579 0.47355 0.36558
 C687 C 0.83595 0.46362 0.38852
 C688 C 0.82131 0.44000 0.40320
 C689 C 0.79621 0.42863 0.39193
 H690 H 0.78705 0.43788 0.37298
 O691 O 1.14158 0.52656 0.39776
 O692 O 1.17489 0.52667 0.36486
 C693 C 1.16474 0.53626 0.38795
 C694 C 1.17954 0.55931 0.40339
 C695 C 1.20628 0.56908 0.39437
 H696 H 1.21628 0.55948 0.37606
 O697 O 0.89690 0.35919 0.47336
 O698 O 0.86354 0.32641 0.47332
 C699 C 0.88665 0.33631 0.46354
 C700 C 0.90126 0.32166 0.43986
 C701 C 0.89065 0.29598 0.42909
 H702 H 0.87258 0.28605 0.43922
 O703 O 1.10304 0.64003 0.47362
 O704 O 1.13630 0.67293 0.47365
 C705 C 1.11315 0.66307 0.46397
 C706 C 1.09812 0.67820 0.44086
 C707 C 1.10742 0.70496 0.43175
 H708 H 1.12505 0.71504 0.44251
 O709 O 0.89787 0.52845 0.35946
 O710 O 0.86473 0.52894 0.32641
 C711 C 0.88798 0.53829 0.33640
 C712 C 0.90352 0.56114 0.32138
 C713 C 0.89437 0.57087 0.29470
 H714 H 0.87571 0.56151 0.28515
 O715 O 1.10255 0.47169 0.35871
 O716 O 1.13562 0.47137 0.32557
 C717 C 1.11240 0.46195 0.33559
 C718 C 1.09677 0.43914 0.32063
 C719 C 1.10588 0.42928 0.29397
 H720 H 1.12460 0.43850 0.28437
 O721 O 1.02626 0.35944 0.39698
 O722 O 1.02613 0.32648 0.36382
 C723 C 1.03605 0.33652 0.38679
 C724 C 1.05988 0.32195 0.40124
 C725 C 1.07135 0.29697 0.38983
 H726 H 1.06205 0.28783 0.37090
 O727 O 0.97349 0.64045 0.39803
 O728 O 0.97345 0.67361 0.36503
 C729 C 0.96359 0.66340 0.38799
 C730 C 0.93983 0.67789 0.40267
 C731 C 0.92839 0.70301 0.39152
 H732 H 0.93755 0.71214 0.37250
 O733 O 0.85948 0.60239 0.47367
 O734 O 0.82656 0.63560 0.47384
 C735 C 0.83647 0.61259 0.46401
 C736 C 0.82166 0.59811 0.44042
 C737 C 0.79651 0.60946 0.42921
 H738 H 0.78752 0.62840 0.43856
 O739 O 1.14069 0.39717 0.47244
 O740 O 1.17371 0.36404 0.47235
 C741 C 1.16389 0.38728 0.46291
 C742 C 1.17920 0.40256 0.44011
 C743 C 1.20646 0.39400 0.43174
 H744 H 1.21685 0.37707 0.44325
 O745 O 0.97407 0.60175 0.35913
 O746 O 0.97418 0.63476 0.32596
 C747 C 0.96451 0.61166 0.33596
 C748 C 0.94130 0.59662 0.32102
 C749 C 0.93228 0.60561 0.29411
 H750 H 0.94364 0.62257 0.28360
 O751 O 1.02596 0.39871 0.35859
 O752 O 1.02571 0.36588 0.32529
 C753 C 1.03549 0.38889 0.33538
 C754 C 1.05877 0.40386 0.32043
 C755 C 1.06773 0.39480 0.29353
 H756 H 1.05625 0.37790 0.28307
 O757 O 1.14162 0.47133 0.39729
 O758 O 1.17499 0.47123 0.36445
 C759 C 1.16477 0.46160 0.38747
 C760 C 1.17956 0.43858 0.40289
 C761 C 1.20660 0.42930 0.39435
 H762 H 1.21660 0.43913 0.37616
 O763 O 0.85883 0.52850 0.39826
 O764 O 0.82556 0.52895 0.36536
 C765 C 0.83577 0.53842 0.38843
 C766 C 0.82129 0.56187 0.40345
 C767 C 0.79600 0.57338 0.39266
 H768 H 0.78616 0.56381 0.37426
 O769 O 0.89870 0.64079 0.47333
 O770 O 0.86583 0.67404 0.47342
 C771 C 0.88871 0.66379 0.46349
 C772 C 0.90329 0.67816 0.43958
 C773 C 0.89223 0.70335 0.42811
 H774 H 0.87390 0.71314 0.43790
 O775 O 1.10142 0.35876 0.47166
 O776 O 1.13434 0.32555 0.47138
 C777 C 1.11144 0.33589 0.46160
 C778 C 1.09682 0.32170 0.43767
 C779 C 1.10804 0.29678 0.42584
 H780 H 1.12667 0.28712 0.43519
 O781 O 1.10308 0.52689 0.35867
 O782 O 1.13611 0.52676 0.32548
 C783 C 1.11309 0.53653 0.33556
 C784 C 1.09814 0.55982 0.32073
 C785 C 1.10692 0.56870 0.29368
 H786 H 1.12387 0.55737 0.28311
 O787 O 0.89699 0.47317 0.35880
 O788 O 0.86384 0.47369 0.32576
 C789 C 0.88683 0.46374 0.33567
 C790 C 0.90158 0.44050 0.32059
 C791 C 0.89222 0.43141 0.29382
 H792 H 0.87476 0.44233 0.28363
 O793 O 1.02891 0.64088 0.39830
 O794 O 1.02901 0.67422 0.36549
 C795 C 1.03857 0.66407 0.38857
 C796 C 1.06162 0.67885 0.40401
 C797 C 1.07126 0.70565 0.39515
 H798 H 1.06139 0.71586 0.37709
 O799 O 0.97077 0.35966 0.39767
 O800 O 0.97056 0.32664 0.36457
 C801 C 0.96096 0.33665 0.38772
 C802 C 0.93760 0.32187 0.40279
 C803 C 0.92668 0.29624 0.39233
 H804 H 0.93599 0.28686 0.37352
 O805 O 1.14122 0.60052 0.47365
 O806 O 1.17461 0.63329 0.47373
 C807 C 1.16440 0.61032 0.46399
 C808 C 1.17928 0.59529 0.44073
 C809 C 1.20605 0.60453 0.43159
 H810 H 1.21632 0.62185 0.44263
 O811 O 0.85846 0.39831 0.47341
 O812 O 0.82502 0.36560 0.47332
 C813 C 0.83539 0.38847 0.46354
 C814 C 0.82106 0.40320 0.43976
 C815 C 0.79600 0.39207 0.42805
 H816 H 0.78630 0.37348 0.43745
 Cu817 Cu 0.99836 0.38222 0.38118
 Cu818 Cu 0.99818 0.34266 0.34138
 Cu819 Cu 1.00153 0.61807 0.38194
 Cu820 Cu 1.00156 0.65789 0.34234
 Cu821 Cu 0.88152 0.50084 0.38205
 Cu822 Cu 0.84159 0.50135 0.34251
 Cu823 Cu 1.11891 0.49910 0.38141
 Cu824 Cu 1.15874 0.49900 0.34176
 C825 C 0.92449 0.42655 0.33346
 H826 H 0.93158 0.43328 0.35427
 C827 C 0.90536 0.40852 0.27994
 C828 C 1.07559 0.57397 0.33405
 H829 H 1.06880 0.56726 0.35497
 C830 C 1.09391 0.59188 0.28010
 C831 C 0.83343 0.42731 0.42731
 H832 H 0.85306 0.43567 0.43585
 C833 C 0.78356 0.40452 0.40402
 C834 C 1.16633 0.57246 0.42671
 H835 H 1.14553 0.56540 0.43350
 C836 C 1.21976 0.59169 0.40841
 C837 C 0.92490 0.33427 0.42673
 H838 H 0.93289 0.35429 0.43464
 C839 C 0.90311 0.28317 0.40521
 C840 C 1.07503 0.66547 0.42705
 H841 H 1.06798 0.64466 0.43375
 C842 C 1.09415 0.71891 0.40895
 C843 C 0.92706 0.57408 0.33428
 H844 H 0.93382 0.56713 0.35513
 C845 C 0.90871 0.59304 0.28073
 C846 C 1.07314 0.42633 0.33360
 H847 H 1.06640 0.43333 0.35444
 C848 C 1.09141 0.40714 0.28011
 C849 C 1.07261 0.33401 0.42534
 H850 H 1.06417 0.35352 0.43401
 C851 C 1.09557 0.28438 0.40180
 C852 C 0.92725 0.66574 0.42685
 H853 H 0.93562 0.64609 0.43528
 C854 C 0.90448 0.71583 0.40393
 C855 C 0.83377 0.57418 0.42753
 H856 H 0.85351 0.56569 0.43570
 C857 C 0.78362 0.59743 0.40518
 C858 C 1.16612 0.42513 0.42585
 H859 H 1.14503 0.43175 0.43217
 C860 C 1.22045 0.40713 0.40882
 O861 O 1.02734 0.39625 0.64226
 O862 O 1.02730 0.36317 0.67536
 C863 C 1.03704 0.38620 0.66533
 C864 C 1.06023 0.40126 0.68026
 C865 C 1.06983 0.39201 0.70697
 H866 H 1.06004 0.37366 0.71670
 O867 O 0.97326 0.60155 0.64320
 O868 O 0.97383 0.63438 0.67650
 C869 C 0.96395 0.61141 0.66650
 C870 C 0.94094 0.59635 0.68173
 C871 C 0.93215 0.60540 0.70869
 H872 H 0.94319 0.62276 0.71889
 O873 O 0.86002 0.52791 0.60466
 O874 O 0.82683 0.52809 0.63768
 C875 C 0.83703 0.53779 0.61463
 C876 C 0.82247 0.56133 0.59972
 C877 C 0.79702 0.57244 0.61046
 H878 H 0.78769 0.56318 0.62933
 O879 O 1.14128 0.47025 0.60344
 O880 O 1.17455 0.46975 0.63635
 C881 C 1.16433 0.46031 0.61326
 C882 C 1.17898 0.43723 0.59782
 C883 C 1.20582 0.42756 0.60655
 H884 H 1.21599 0.43722 0.62474
 O885 O 1.10113 0.35798 0.52719
 O886 O 1.13401 0.32473 0.52697
 C887 C 1.11102 0.33484 0.53679
 C888 C 1.09634 0.32022 0.56046
 C889 C 1.10752 0.29508 0.57187
 H890 H 1.12563 0.28529 0.56172
 O891 O 0.89874 0.64105 0.52884
 O892 O 0.86584 0.67428 0.52896
 C893 C 0.88880 0.66405 0.53869
 C894 C 0.90340 0.67837 0.56251
 C895 C 0.89220 0.70335 0.57421
 H896 H 0.87390 0.71319 0.56443
 O897 O 0.89810 0.47228 0.64373
 O898 O 0.86509 0.47227 0.67694
 C899 C 0.88810 0.46252 0.66680
 C900 C 0.90315 0.43915 0.68145
 C901 C 0.89394 0.42921 0.70807
 H902 H 0.87578 0.43901 0.71816
 O903 O 1.10318 0.52605 0.64213
 O904 O 1.13641 0.52593 0.67508
 C905 C 1.11344 0.53586 0.66503
 C906 C 1.09898 0.55968 0.67952
 C907 C 1.11017 0.57120 0.70465
 H908 H 1.12867 0.56160 0.71431
 O909 O 0.97144 0.35818 0.60342
 O910 O 0.97142 0.32490 0.63630
 C911 C 0.96158 0.33517 0.61339
 C912 C 0.93787 0.32072 0.59861
 C913 C 0.92675 0.29520 0.60918
 H914 H 0.93614 0.28570 0.62789
 O915 O 1.02823 0.64050 0.60389
 O916 O 1.02842 0.67376 0.63677
 C917 C 1.03791 0.66368 0.61365
 C918 C 1.06087 0.67857 0.59821
 C919 C 1.07011 0.70556 0.60684
 H920 H 1.06002 0.71574 0.62479
 O921 O 0.85862 0.39842 0.52891
 O922 O 0.82513 0.36577 0.52887
 C923 C 0.83548 0.38863 0.53870
 C924 C 0.82107 0.40335 0.56246
 C925 C 0.79555 0.39264 0.57358
 H926 H 0.78552 0.37467 0.56343
 O927 O 1.14174 0.60112 0.52913
 O928 O 1.17512 0.63389 0.52921
 C929 C 1.16492 0.61089 0.53886
 C930 C 1.17983 0.59547 0.56189
 C931 C 1.20662 0.60443 0.57152
 H932 H 1.21625 0.62297 0.56202
 O933 O 1.02862 0.60100 0.64204
 O934 O 1.02917 0.63414 0.67503
 C935 C 1.03871 0.61107 0.66489
 C936 C 1.06237 0.59634 0.67937
 C937 C 1.07383 0.60751 0.70444
 H938 H 1.06469 0.62650 0.71355
 O939 O 0.97206 0.39714 0.64218
 O940 O 0.97204 0.36399 0.67521
 C941 C 0.96253 0.38720 0.66537
 C942 C 0.93970 0.40244 0.68066
 C943 C 0.93045 0.39302 0.70735
 H944 H 0.94114 0.37532 0.71733
 O945 O 1.14161 0.52547 0.60292
 O946 O 1.17500 0.52502 0.63571
 C947 C 1.16493 0.53480 0.61268
 C948 C 1.17999 0.55787 0.59754
 C949 C 1.20705 0.56661 0.60635
 H950 H 1.21755 0.55510 0.62321
 O951 O 0.85950 0.47257 0.60468
 O952 O 0.82631 0.47256 0.63770
 C953 C 0.83640 0.46285 0.61463
 C954 C 0.82162 0.43946 0.59968
 C955 C 0.79628 0.42822 0.61063
 H956 H 0.78725 0.43722 0.62975
 O957 O 1.10270 0.63984 0.52898
 O958 O 1.13591 0.67278 0.52897
 C959 C 1.11270 0.66293 0.53855
 C960 C 1.09746 0.67811 0.56146
 C961 C 1.10629 0.70512 0.57023
 H962 H 1.12371 0.71537 0.55928
 O963 O 0.89675 0.35887 0.52879
 O964 O 0.86333 0.32613 0.52877
 C965 C 0.88648 0.33592 0.53850
 C966 C 0.90115 0.32105 0.56199
 C967 C 0.89038 0.29543 0.57281
 H968 H 0.87213 0.28572 0.56282
 O969 O 1.10213 0.47078 0.64209
 O970 O 1.13517 0.47052 0.67523
 C971 C 1.11194 0.46112 0.66526
 C972 C 1.09657 0.43818 0.68028
 C973 C 1.10549 0.42904 0.70717
 H974 H 1.12278 0.44004 0.71754
 O975 O 0.89825 0.52753 0.64415
 O976 O 0.86527 0.52763 0.67738
 C977 C 0.88842 0.53717 0.66734
 C978 C 0.90388 0.56013 0.68226
 C979 C 0.89525 0.56954 0.70927
 H980 H 0.87724 0.55963 0.71954
 O981 O 0.97290 0.63999 0.60395
 O982 O 0.97307 0.67291 0.63716
 C983 C 0.96320 0.66293 0.61415
 C984 C 0.93962 0.67767 0.59956
 C985 C 0.92800 0.70252 0.61108
 H986 H 0.93691 0.71129 0.63036
 O987 O 1.02693 0.35823 0.60269
 O988 O 1.02703 0.32505 0.63567
 C989 C 1.03673 0.33521 0.61263
 C990 C 1.06028 0.32063 0.59776
 C991 C 1.07215 0.29583 0.60918
 H992 H 1.06347 0.28716 0.62861
 O993 O 1.14023 0.39663 0.52775
 O994 O 1.17319 0.36344 0.52750
 C995 C 1.16329 0.38648 0.53733
 C996 C 1.17840 0.40129 0.56054
 C997 C 1.20529 0.39208 0.56936
 H998 H 1.21546 0.37477 0.55821
 O999 O 0.85987 0.60228 0.52912
 O1000 O 0.82692 0.63545 0.52928
 C1001 C 0.83694 0.61241 0.53903
 C1002 C 0.82236 0.59778 0.56278
 C1003 C 0.79682 0.60853 0.57384
 H1004 H 0.78696 0.62671 0.56386
 Cu1005 Cu 0.99943 0.38075 0.61931
 Cu1006 Cu 0.99941 0.34087 0.65888
 Cu1007 Cu 1.00071 0.61746 0.61994
 Cu1008 Cu 1.00116 0.65710 0.65972
 Cu1009 Cu 0.88103 0.38197 0.50114
 Cu1010 Cu 0.84087 0.34273 0.50109
 Cu1011 Cu 1.11753 0.38093 0.49978
 Cu1012 Cu 1.15704 0.34103 0.49953
 Cu1013 Cu 0.88251 0.61831 0.50123
 Cu1014 Cu 0.84300 0.65819 0.50139
 Cu1015 Cu 1.11886 0.61708 0.50139
 Cu1016 Cu 1.15885 0.65649 0.50138
 Cu1017 Cu 0.88229 0.50008 0.62103
 Cu1018 Cu 0.84248 0.50016 0.66068
 Cu1019 Cu 1.11872 0.49813 0.61936
 Cu1020 Cu 1.15860 0.49773 0.65894
 C1021 C 1.07366 0.42443 0.66719
 H1022 H 1.06678 0.43128 0.64636
 C1023 C 1.09241 0.40586 0.72075
 C1024 C 0.92688 0.57354 0.66884
 H1025 H 0.93340 0.56670 0.64789
 C1026 C 0.90938 0.59215 0.72273
 C1027 C 0.83486 0.57401 0.57573
 H1028 H 0.85477 0.56588 0.56762
 C1029 C 0.78409 0.59614 0.59782
 C1030 C 1.16557 0.42407 0.57468
 H1031 H 1.14470 0.43111 0.56811
 C1032 C 1.21924 0.40500 0.59236
 C1033 C 1.07246 0.33260 0.57332
 H1034 H 1.06393 0.35217 0.56485
 C1035 C 1.09594 0.28294 0.59658
 C1036 C 0.92731 0.66587 0.57514
 H1037 H 0.93578 0.64636 0.56650
 C1038 C 0.90412 0.71541 0.59873
 C1039 C 0.92616 0.42573 0.66806
 H1040 H 0.93304 0.43292 0.64732
 C1041 C 0.90753 0.40613 0.72126
 C1042 C 1.07491 0.57226 0.66719
 H1043 H 1.06645 0.56383 0.64756
 C1044 C 1.09786 0.59529 0.71713
 C1045 C 0.92506 0.33334 0.57486
 H1046 H 0.93320 0.35329 0.56688
 C1047 C 0.90292 0.28241 0.59655
 C1048 C 1.07453 0.66517 0.57537
 H1049 H 1.06780 0.64419 0.56890
 C1050 C 1.09275 0.71912 0.59288
 C1051 C 0.83377 0.42697 0.57547
 H1052 H 0.85365 0.43509 0.56726
 C1053 C 0.78314 0.40466 0.59790
 C1054 C 1.16677 0.57213 0.57501
 H1055 H 1.14585 0.56551 0.56816
 C1056 C 1.22064 0.58999 0.59364
 O1057 O 0.60319 1.02588 0.64105
 O1058 O 0.63662 1.02549 0.67378
 C1059 C 0.61364 1.03557 0.66391
 C1060 C 0.59943 1.05944 0.67859
 C1061 C 0.61136 1.07119 0.70322
 H1062 H 0.63063 1.06214 0.71187
 O1063 O 0.39750 0.97158 0.64103
 O1064 O 0.36427 0.97184 0.67401
 C1065 C 0.38730 0.96197 0.66406
 C1066 C 0.40181 0.93845 0.67897
 C1067 C 0.39055 0.92758 0.70430
 H1068 H 0.37177 0.93718 0.71343
 O1069 O 0.52903 1.14013 0.60319
 O1070 O 0.52881 1.17296 0.63649
 C1071 C 0.53865 1.16313 0.61340
 C1072 C 0.56220 1.17806 0.59888
 C1073 C 0.57325 1.20324 0.61019
 H1074 H 0.56374 1.21229 0.62905
 O1075 O 0.47099 0.85801 0.60286
 O1076 O 0.47093 0.82481 0.63583
 C1077 C 0.46115 0.83502 0.61287
 C1078 C 0.43752 0.82051 0.59808
 C1079 C 0.42656 0.79490 0.60859
 H1080 H 0.43601 0.78538 0.62724
 O1081 O 0.64183 1.10197 0.52859
 O1082 O 0.67544 1.13449 0.52856
 C1083 C 0.66513 1.11152 0.53821
 C1084 C 0.68006 1.09587 0.56111
 C1085 C 0.70690 1.10471 0.57073
 H1086 H 0.71651 1.12330 0.56134
 O1087 O 0.35842 0.89794 0.52758
 O1088 O 0.32492 0.86529 0.52715
 C1089 C 0.33506 0.88825 0.53694
 C1090 C 0.31998 0.90348 0.55992
 C1091 C 0.29302 0.89456 0.56889
 H1092 H 0.28271 0.87721 0.55794
 O1093 O 0.47356 1.10078 0.64168
 O1094 O 0.47362 1.13353 0.67504
 C1095 C 0.46380 1.11065 0.66478
 C1096 C 0.44003 1.09607 0.67931
 C1097 C 0.42855 1.10742 0.70434
 H1098 H 0.43790 1.12627 0.71354
 O1099 O 0.52696 0.89646 0.64124
 O1100 O 0.52688 0.86338 0.67431
 C1101 C 0.53678 0.88633 0.66419
 C1102 C 0.56055 0.90083 0.67877
 C1103 C 0.57152 0.88981 0.70416
 H1104 H 0.56191 0.87112 0.71344
 O1105 O 0.64106 0.97019 0.60187
 O1106 O 0.67456 0.96960 0.63455
 C1107 C 0.66413 0.96018 0.61154
 C1108 C 0.67855 0.93693 0.59615
 C1109 C 0.70527 0.92706 0.60500
 H1110 H 0.71554 0.93682 0.62308
 O1111 O 0.35928 1.02735 0.60210
 O1112 O 0.32608 1.02757 0.63513
 C1113 C 0.33631 1.03727 0.61213
 C1114 C 0.32184 1.06099 0.59750
 C1115 C 0.29688 1.07254 0.60889
 H1116 H 0.28776 1.06336 0.62790
 O1117 O 0.39871 1.14053 0.52779
 O1118 O 0.36588 1.17383 0.52817
 C1119 C 0.38881 1.16344 0.53787
 C1120 C 0.40354 1.17770 0.56172
 C1121 C 0.39249 1.20282 0.57319
 H1122 H 0.37352 1.21196 0.56400
 O1123 O 0.59981 0.85733 0.52661
 O1124 O 0.63260 0.82400 0.52629
 C1125 C 0.60965 0.83416 0.53615
 C1126 C 0.59471 0.81927 0.55949
 C1127 C 0.60420 0.79271 0.56886
 H1128 H 0.62169 0.78253 0.55798
 O1129 O 0.39770 1.02687 0.64138
 O1130 O 0.36454 1.02717 0.67444
 C1131 C 0.38771 1.03669 0.66442
 C1132 C 0.40269 1.06009 0.67911
 C1133 C 0.39151 1.07181 0.70415
 H1134 H 0.37268 1.06262 0.71360
 O1135 O 0.60266 0.97046 0.64124
 O1136 O 0.63601 0.96991 0.67406
 C1137 C 0.61277 0.96046 0.66417
 C1138 C 0.59778 0.93697 0.67884
 C1139 C 0.60845 0.92558 0.70430
 H1140 H 0.62693 0.93509 0.71409
 O1141 O 0.52629 0.85728 0.60275
 O1142 O 0.52633 0.82401 0.63564
 C1143 C 0.53587 0.83407 0.61249
 C1144 C 0.55878 0.81912 0.59695
 C1145 C 0.56867 0.79250 0.60611
 H1146 H 0.55913 0.78254 0.62450
 O1147 O 0.47359 1.13995 0.60308
 O1148 O 0.47341 1.17274 0.63640
 C1149 C 0.46374 1.16286 0.61324
 C1150 C 0.44014 1.17756 0.59850
 C1151 C 0.42891 1.20292 0.60945
 H1152 H 0.43881 1.21261 0.62776
 O1153 O 0.35932 1.10239 0.52742
 O1154 O 0.32644 1.13564 0.52775
 C1155 C 0.33640 1.11253 0.53735
 C1156 C 0.32182 1.09783 0.56102
 C1157 C 0.29684 1.10912 0.57279
 H1158 H 0.28731 1.12778 0.56340
 O1159 O 0.63921 0.89568 0.52678
 O1160 O 0.67211 0.86244 0.52660
 C1161 C 0.66229 0.88555 0.53633
 C1162 C 0.67756 0.90048 0.55937
 C1163 C 0.70432 0.89104 0.56837
 H1164 H 0.71428 0.87340 0.55755
 O1165 O 0.47148 0.89639 0.64201
 O1166 O 0.47124 0.86334 0.67512
 C1167 C 0.46159 0.88639 0.66502
 C1168 C 0.43796 0.90130 0.67950
 C1169 C 0.42617 0.89053 0.70475
 H1170 H 0.43532 0.87188 0.71454
 O1171 O 0.52910 1.10097 0.64179
 O1172 O 0.52916 1.13377 0.67510
 C1173 C 0.53898 1.11087 0.66483
 C1174 C 0.56287 1.09619 0.67915
 C1175 C 0.57497 1.10746 0.70397
 H1176 H 0.56549 1.12596 0.71369
 O1177 O 0.35818 0.97205 0.60254
 O1178 O 0.32482 0.97229 0.63539
 C1179 C 0.33487 0.96262 0.61233
 C1180 C 0.31980 0.93974 0.59693
 C1181 C 0.29283 0.93041 0.60575
 H1182 H 0.28274 0.94032 0.62386
 O1183 O 0.64181 1.02550 0.60192
 O1184 O 0.67537 1.02487 0.63453
 C1185 C 0.66520 1.03480 0.61160
 C1186 C 0.68025 1.05798 0.59652
 C1187 C 0.70738 1.06662 0.60527
 H1188 H 0.71792 1.05495 0.62200
 O1189 O 0.39658 0.85844 0.52815
 O1190 O 0.36319 0.82567 0.52808
 C1191 C 0.38625 0.83554 0.53792
 C1192 C 0.40082 0.82075 0.56149
 C1193 C 0.39016 0.79507 0.57225
 H1194 H 0.37195 0.78529 0.56223
 O1195 O 0.60363 1.14137 0.52882
 O1196 O 0.63702 1.17412 0.52895
 C1197 C 0.61393 1.16419 0.53875
 C1198 C 0.59927 1.17860 0.56256
 C1199 C 0.61020 1.20373 0.57435
 H1200 H 0.62882 1.21349 0.56505
 Cu1201 Cu 0.61882 0.99803 0.61828
 Cu1202 Cu 0.65895 0.99743 0.65756
 Cu1203 Cu 0.38148 0.99940 0.61845
 Cu1204 Cu 0.34161 0.99972 0.65808
 Cu1205 Cu 0.50134 1.11716 0.61911
 Cu1206 Cu 0.50122 1.15651 0.65912
 Cu1207 Cu 0.49896 0.88036 0.61894
 Cu1208 Cu 0.49888 0.84060 0.65859
 C1209 C 0.57509 1.07198 0.66683
 H1210 H 0.56615 1.06341 0.64747
 C1211 C 0.59949 1.09535 0.71599
 C1212 C 0.42572 0.92541 0.66693
 H1213 H 0.43425 0.93349 0.64715
 C1214 C 0.40236 0.90351 0.71722
 C1215 C 0.57512 1.16611 0.57487
 H1216 H 0.56691 1.14645 0.56630
 C1217 C 0.59735 1.21615 0.59827
 C1218 C 0.42466 0.83313 0.57438
 H1219 H 0.43272 0.85312 0.56645
 C1220 C 0.40279 0.78203 0.59592
 C1221 C 0.66698 1.07245 0.57413
 H1222 H 0.64602 1.06592 0.56731
 C1223 C 0.72098 1.09008 0.59270
 C1224 C 0.33303 0.92627 0.57386
 H1225 H 0.35399 0.93304 0.56723
 C1226 C 0.27920 0.90783 0.59178
 C1227 C 0.42712 1.07222 0.66700
 H1228 H 0.43554 1.06370 0.64738
 C1229 C 0.40411 1.09569 0.71675
 C1230 C 0.57365 0.92457 0.66641
 H1231 H 0.56558 0.93287 0.64655
 C1232 C 0.59555 0.90185 0.71705
 C1233 C 0.66499 0.92363 0.57318
 H1234 H 0.64421 0.93084 0.56652
 C1235 C 0.71840 0.90415 0.59116
 C1236 C 0.33401 1.07360 0.57338
 H1237 H 0.35357 1.06511 0.56480
 C1238 C 0.28436 1.09676 0.59690
 C1239 C 0.42748 1.16531 0.57442
 H1240 H 0.43574 1.14558 0.56607
 C1241 C 0.40485 1.21560 0.59715
 C1242 C 0.57180 0.83217 0.57347
 H1243 H 0.56463 0.85286 0.56656
 C1244 C 0.59140 0.77912 0.59214
 O1245 O 0.60153 0.97196 0.35909
 O1246 O 0.63462 0.97202 0.32596
 C1247 C 0.61143 0.96243 0.33589
 C1248 C 0.59612 0.93961 0.32063
 C1249 C 0.60507 0.93087 0.29361
 H1250 H 0.62259 0.94176 0.28346
 O1251 O 0.39773 1.02877 0.35917
 O1252 O 0.36451 1.02904 0.32620
 C1253 C 0.38757 1.03872 0.33626
 C1254 C 0.40224 1.06234 0.32164
 C1255 C 0.39138 1.07329 0.29618
 H1256 H 0.37260 1.06381 0.28691
 O1257 O 0.47314 1.14222 0.39763
 O1258 O 0.47350 1.17557 0.36481
 C1259 C 0.46374 1.16550 0.38786
 C1260 C 0.44071 1.18042 0.40321
 C1261 C 0.43127 1.20729 0.39437
 H1262 H 0.44130 1.21750 0.37637
 O1263 O 0.52579 0.85871 0.39610
 O1264 O 0.52563 0.82591 0.36276
 C1265 C 0.53539 0.83573 0.38590
 C1266 C 0.55881 0.82082 0.40056
 C1267 C 0.56997 0.79569 0.38925
 H1268 H 0.56064 0.78663 0.37029
 O1269 O 0.63911 0.89628 0.47149
 O1270 O 0.67211 0.86314 0.47142
 C1271 C 0.66227 0.88635 0.46192
 C1272 C 0.67759 0.90162 0.43911
 C1273 C 0.70442 0.89240 0.43014
 H1274 H 0.71438 0.87469 0.44085
 O1275 O 0.35913 1.10289 0.47204
 O1276 O 0.32631 1.13619 0.47227
 C1277 C 0.33611 1.11312 0.46243
 C1278 C 0.32120 1.09845 0.43895
 C1279 C 0.29578 1.10936 0.42776
 H1280 H 0.28614 1.12771 0.43760
 O1281 O 0.52775 1.10268 0.35864
 O1282 O 0.52804 1.13554 0.32533
 C1283 C 0.53746 1.11240 0.33543
 C1284 C 0.56035 1.09684 0.32053
 C1285 C 0.56954 1.10535 0.29343
 H1286 H 0.55951 1.12327 0.28318
 O1287 O 0.47098 0.89800 0.35717
 O1288 O 0.47059 0.86528 0.32376
 C1289 C 0.46129 0.88840 0.33393
 C1290 C 0.43860 0.90415 0.31901
 C1291 C 0.42946 0.89589 0.29184
 H1292 H 0.43934 0.87791 0.28155
 O1293 O 0.64055 1.02697 0.39840
 O1294 O 0.67377 1.02695 0.36541
 C1295 C 0.66374 1.03655 0.38854
 C1296 C 0.67887 1.05951 0.40378
 C1297 C 0.70585 1.06833 0.39475
 H1298 H 0.71607 1.05732 0.37736
 O1299 O 0.35923 0.97279 0.39759
 O1300 O 0.32613 0.97291 0.36452
 C1301 C 0.33631 0.96295 0.38743
 C1302 C 0.32184 0.93905 0.40183
 C1303 C 0.29683 0.92759 0.39043
 H1304 H 0.28773 0.93688 0.37147
 O1305 O 0.60310 1.14123 0.47335
 O1306 O 0.63647 1.17399 0.47318
 C1307 C 0.61331 1.16411 0.46347
 C1308 C 0.59862 1.17870 0.43974
 C1309 C 0.60938 1.20418 0.42857
 H1310 H 0.62751 1.21409 0.43860
 O1311 O 0.39778 0.85882 0.47280
 O1312 O 0.36472 0.82570 0.47278
 C1313 C 0.38791 0.83567 0.46324
 C1314 C 0.40309 0.82066 0.44020
 C1315 C 0.39483 0.79329 0.43211
 H1316 H 0.37850 0.78259 0.44421
 O1317 O 0.39750 0.97351 0.35809
 O1318 O 0.36444 0.97391 0.32495
 C1319 C 0.38756 0.96421 0.33482
 C1320 C 0.40266 0.94139 0.31949
 C1321 C 0.39387 0.93298 0.29232
 H1322 H 0.37667 0.94421 0.28202
 O1323 O 0.60198 1.02725 0.35914
 O1324 O 0.63505 1.02728 0.32599
 C1325 C 0.61194 1.03692 0.33602
 C1326 C 0.59676 1.05995 0.32095
 C1327 C 0.60555 1.06866 0.29386
 H1328 H 0.62288 1.05765 0.28353
 O1329 O 0.47057 0.85912 0.39605
 O1330 O 0.47021 0.82609 0.36296
 C1331 C 0.46078 0.83607 0.38619
 C1332 C 0.43809 0.82102 0.40195
 C1333 C 0.42891 0.79393 0.39356
 H1334 H 0.43835 0.78424 0.37502
 O1335 O 0.52849 1.14101 0.39792
 O1336 O 0.52898 1.17407 0.36482
 C1337 C 0.53859 1.16387 0.38788
 C1338 C 0.56222 1.17836 0.40273
 C1339 C 0.57347 1.20364 0.39178
 H1340 H 0.56433 1.21270 0.37275
 O1341 O 0.35882 0.89747 0.47216
 O1342 O 0.32564 0.86449 0.47171
 C1343 C 0.33592 0.88744 0.46206
 C1344 C 0.32164 0.90213 0.43823
 C1345 C 0.29655 0.89106 0.42656
 H1346 H 0.28680 0.87258 0.43611
 O1347 O 0.64164 1.10218 0.47322
 O1348 O 0.67526 1.13471 0.47306
 C1349 C 0.66485 1.11180 0.46341
 C1350 C 0.67947 1.09640 0.44020
 C1351 C 0.70637 1.10512 0.43063
 H1352 H 0.71654 1.12317 0.44050
 O1353 O 0.52624 0.89768 0.35759
 O1354 O 0.52602 0.86510 0.32403
 C1355 C 0.53592 0.88793 0.33440
 C1356 C 0.55928 0.90313 0.31980
 C1357 C 0.56870 0.89451 0.29283
 H1358 H 0.55858 0.87668 0.28252
 O1359 O 0.47239 1.10343 0.35884
 O1360 O 0.47253 1.13658 0.32583
 C1361 C 0.46258 1.11365 0.33590
 C1362 C 0.43879 1.09909 0.32137
 C1363 C 0.42759 1.10977 0.29584
 H1364 H 0.43736 1.12805 0.28593
 O1365 O 0.35862 1.02826 0.39773
 O1366 O 0.32537 1.02835 0.36480
 C1367 C 0.33555 1.03804 0.38779
 C1368 C 0.32098 1.06163 0.40253
 C1369 C 0.29576 1.07297 0.39149
 H1370 H 0.28659 1.06371 0.37258
 O1371 O 0.64087 0.97161 0.39752
 O1372 O 0.67414 0.97159 0.36458
 C1373 C 0.66397 0.96185 0.38758
 C1374 C 0.67861 0.93851 0.40271
 C1375 C 0.70549 0.92890 0.39390
 H1376 H 0.71590 0.93898 0.37605
 O1377 O 0.60027 0.85740 0.47104
 O1378 O 0.63321 0.82421 0.47073
 C1379 C 0.61028 0.83450 0.46099
 C1380 C 0.59560 0.82027 0.43712
 C1381 C 0.60662 0.79523 0.42531
 H1382 H 0.62521 0.78545 0.43463
 O1383 O 0.39851 1.14141 0.47229
 O1384 O 0.36580 1.17483 0.47272
 C1385 C 0.38880 1.16473 0.46292
 C1386 C 0.40406 1.17987 0.43995
 C1387 C 0.39499 1.20671 0.43090
 H1388 H 0.37741 1.21686 0.44168
 Cu1389 Cu 0.61795 0.99943 0.38186
 Cu1390 Cu 0.65773 0.99950 0.34217
 Cu1391 Cu 0.38157 1.00079 0.38149
 Cu1392 Cu 0.34173 1.00105 0.34185
 Cu1393 Cu 0.61919 1.11847 0.50103
 Cu1394 Cu 0.65937 1.15766 0.50091
 Cu1395 Cu 0.61625 0.87996 0.49900
 Cu1396 Cu 0.65575 0.84005 0.49877
 Cu1397 Cu 0.38219 1.11846 0.49977
 Cu1398 Cu 0.34283 1.15848 0.50021
 Cu1399 Cu 0.38123 0.88147 0.50023
 Cu1400 Cu 0.34125 0.84200 0.49990
 Cu1401 Cu 0.50038 1.11902 0.38154
 Cu1402 Cu 0.50085 1.15878 0.34188
 Cu1403 Cu 0.49834 0.88167 0.38004
 Cu1404 Cu 0.49804 0.84227 0.34003
 C1405 C 0.57302 0.92581 0.33341
 H1406 H 0.56616 0.93230 0.35437
 C1407 C 0.59152 0.90837 0.27945
 C1408 C 0.42610 1.07521 0.33393
 H1409 H 0.43430 1.06711 0.35382
 C1410 C 0.40376 1.09706 0.28313
 C1411 C 0.42711 1.16705 0.42616
 H1412 H 0.43399 1.14618 0.43283
 C1413 C 0.40842 1.22066 0.40815
 C1414 C 0.57155 0.83277 0.42470
 H1415 H 0.56329 0.85241 0.43328
 C1416 C 0.59402 0.78290 0.40126
 C1417 C 0.66500 0.92486 0.42548
 H1418 H 0.64414 0.93185 0.43212
 C1419 C 0.71861 0.90584 0.40757
 C1420 C 0.33341 1.07437 0.42638
 H1421 H 0.35320 1.06608 0.43461
 C1422 C 0.28299 1.09695 0.40379
 C1423 C 0.57395 1.07398 0.33398
 H1424 H 0.56726 1.06755 0.35503
 C1425 C 0.59208 1.09128 0.27984
 C1426 C 0.42524 0.92707 0.33250
 H1427 H 0.43189 0.93327 0.35361
 C1428 C 0.40714 0.91029 0.27824
 C1429 C 0.66600 1.07346 0.42673
 H1430 H 0.64507 1.06691 0.43366
 C1431 C 0.71984 1.09111 0.40797
 C1432 C 0.33399 0.92629 0.42587
 H1433 H 0.35358 0.93468 0.43448
 C1434 C 0.28412 0.90347 0.40248
 C1435 C 0.57482 1.16614 0.42683
 H1436 H 0.56662 1.14631 0.43503
 C1437 C 0.59713 1.21670 0.40437
 C1438 C 0.42504 0.83415 0.42531
 H1439 H 0.43149 0.85531 0.43149
 C1440 C 0.40738 0.77966 0.40868
 O1441 O 0.60248 0.52579 1.14158
 O1442 O 0.63544 0.52537 1.17481
 C1443 C 0.61241 0.53520 1.16480
 C1444 C 0.59736 0.55820 1.18001
 C1445 C 0.60645 0.56673 1.20702
 H1446 H 0.62375 0.55552 1.21717
 O1447 O 0.39745 0.47316 1.14334
 O1448 O 0.36463 0.47338 1.17674
 C1449 C 0.38769 0.46367 1.16662
 C1450 C 0.40289 0.44057 1.18162
 C1451 C 0.39442 0.43204 1.20888
 H1452 H 0.37769 0.44364 1.21951
 O1453 O 0.52854 0.64079 1.10453
 O1454 O 0.52915 0.67372 1.13773
 C1455 C 0.53847 0.66376 1.11446
 C1456 C 0.56139 0.67868 1.09897
 C1457 C 0.57040 0.70577 1.10748
 H1458 H 0.56032 0.71590 1.12547
 O1459 O 0.47118 0.35838 1.10438
 O1460 O 0.47085 0.32509 1.13726
 C1461 C 0.46140 0.33526 1.11413
 C1462 C 0.43852 0.32046 1.09851
 C1463 C 0.42926 0.29340 1.10693
 H1464 H 0.43907 0.28325 1.12505
 O1465 O 0.64126 0.60126 1.02900
 O1466 O 0.67455 0.63413 1.02921
 C1467 C 0.66433 0.61111 1.03884
 C1468 C 0.67896 0.59612 1.06228
 C1469 C 0.70426 0.60698 1.07363
 H1470 H 0.71340 0.62602 1.06459
 O1471 O 0.35835 0.39807 1.02931
 O1472 O 0.32513 0.36514 1.02948
 C1473 C 0.33537 0.38805 1.03928
 C1474 C 0.32099 0.40263 1.06319
 C1475 C 0.29586 0.39148 1.07482
 H1476 H 0.28608 0.37319 1.06501
 O1477 O 0.47297 0.60218 1.14329
 O1478 O 0.47347 0.63495 1.17664
 C1479 C 0.46338 0.61216 1.16641
 C1480 C 0.43960 0.59765 1.18099
 C1481 C 0.42870 0.60845 1.20650
 H1482 H 0.43840 0.62699 1.21596
 O1483 O 0.52654 0.39672 1.14331
 O1484 O 0.52647 0.36376 1.17653
 C1485 C 0.53628 0.38673 1.16637
 C1486 C 0.55961 0.40183 1.18102
 C1487 C 0.56923 0.39293 1.20784
 H1488 H 0.55940 0.37474 1.21780
 O1489 O 0.64128 0.47020 1.10306
 O1490 O 0.67455 0.46992 1.13596
 C1491 C 0.66437 0.46036 1.11290
 C1492 C 0.67907 0.43721 1.09752
 C1493 C 0.70614 0.42782 1.10593
 H1494 H 0.71656 0.43785 1.12378
 O1495 O 0.35813 0.52829 1.10460
 O1496 O 0.32478 0.52823 1.13745
 C1497 C 0.33495 0.53796 1.11443
 C1498 C 0.32026 0.56125 1.09916
 C1499 C 0.29324 0.57073 1.10772
 H1500 H 0.28277 0.56060 1.12549
 O1501 O 0.39918 0.64187 1.03007
 O1502 O 0.36629 0.67511 1.03022
 C1503 C 0.38940 0.66500 1.03975
 C1504 C 0.40468 0.67988 1.06284
 C1505 C 0.39598 0.70687 1.07172
 H1506 H 0.37903 0.71736 1.06034
 O1507 O 0.60015 0.35776 1.02828
 O1508 O 0.63287 0.32435 1.02807
 C1509 C 0.60988 0.33455 1.03786
 C1510 C 0.59471 0.31972 1.06113
 C1511 C 0.60334 0.29267 1.06998
 H1512 H 0.62017 0.28207 1.05849
 O1513 O 0.39731 0.52843 1.14316
 O1514 O 0.36414 0.52871 1.17620
 C1515 C 0.38726 0.53830 1.16614
 C1516 C 0.40223 0.56170 1.18082
 C1517 C 0.39162 0.57284 1.20637
 H1518 H 0.37312 0.56331 1.21613
 O1519 O 0.60198 0.47064 1.14173
 O1520 O 0.63507 0.47030 1.17483
 C1521 C 0.61175 0.46105 1.16496
 C1522 C 0.59619 0.43848 1.18031
 C1523 C 0.60494 0.42990 1.20742
 H1524 H 0.62213 0.44117 1.21764
 O1525 O 0.52642 0.35822 1.10437
 O1526 O 0.52631 0.32497 1.13729
 C1527 C 0.53603 0.33506 1.11422
 C1528 C 0.55899 0.32008 1.09878
 C1529 C 0.56841 0.29326 1.10777
 H1530 H 0.55880 0.28365 1.12628
 O1531 O 0.47326 0.64151 1.10513
 O1532 O 0.47373 0.67448 1.13828
 C1533 C 0.46381 0.66462 1.11522
 C1534 C 0.44073 0.67969 1.10008
 C1535 C 0.43125 0.70647 1.10918
 H1536 H 0.44100 0.71614 1.12757
 O1537 O 0.35978 0.60337 1.03016
 O1538 O 0.32674 0.63646 1.03025
 C1539 C 0.33664 0.61331 1.03979
 C1540 C 0.32133 0.59807 1.06266
 C1541 C 0.29434 0.60711 1.07135
 H1542 H 0.28431 0.62463 1.06040
 O1543 O 0.63977 0.39595 1.02822
 O1544 O 0.67269 0.36274 1.02791
 C1545 C 0.66290 0.38584 1.03767
 C1546 C 0.67822 0.40082 1.06065
 C1547 C 0.70527 0.39182 1.06922
 H1548 H 0.71539 0.37446 1.05812
 O1549 O 0.47118 0.39718 1.14322
 O1550 O 0.47089 0.36422 1.17642
 C1551 C 0.46140 0.38735 1.16635
 C1552 C 0.43853 0.40292 1.18136
 C1553 C 0.42927 0.39426 1.20840
 H1554 H 0.43892 0.37588 1.21814
 O1555 O 0.52835 0.60165 1.14311
 O1556 O 0.52903 0.63427 1.17660
 C1557 C 0.53832 0.61118 1.16625
 C1558 C 0.56130 0.59543 1.18084
 C1559 C 0.57092 0.60385 1.20780
 H1560 H 0.56124 0.62193 1.21812
 O1561 O 0.35871 0.47284 1.10438
 O1562 O 0.32574 0.47267 1.13761
 C1563 C 0.33583 0.46288 1.11459
 C1564 C 0.32132 0.43910 1.10004
 C1565 C 0.29639 0.42745 1.11149
 H1566 H 0.28748 0.43645 1.13066
 O1567 O 0.64152 0.52562 1.10293
 O1568 O 0.67458 0.52541 1.13605
 C1569 C 0.66455 0.53531 1.11306
 C1570 C 0.67919 0.55901 1.09850
 C1571 C 0.70462 0.57011 1.10945
 H1572 H 0.71444 0.56008 1.12763
 O1573 O 0.39728 0.35926 1.02875
 O1574 O 0.36417 0.32620 1.02867
 C1575 C 0.38736 0.33608 1.03825
 C1576 C 0.40257 0.32087 1.06116
 C1577 C 0.39387 0.29372 1.06959
 H1578 H 0.37679 0.28339 1.05822
 O1579 O 0.60288 0.64051 1.02912
 O1580 O 0.63602 0.67354 1.02915
 C1581 C 0.61287 0.66357 1.03880
 C1582 C 0.59768 0.67856 1.06190
 C1583 C 0.60628 0.70568 1.07056
 H1584 H 0.62348 0.71613 1.05944
 Cu1585 Cu 0.61858 0.49802 1.11894
 Cu1586 Cu 0.65827 0.49768 1.15870
 Cu1587 Cu 0.38116 0.50072 1.12053
 Cu1588 Cu 0.34148 0.50073 1.16030
 Cu1589 Cu 0.50077 0.61826 1.12069
 Cu1590 Cu 0.50146 0.65761 1.16071
 Cu1591 Cu 0.49882 0.38094 1.12055
 Cu1592 Cu 0.49857 0.34119 1.16022
 C1593 C 0.57456 0.57245 1.16722
 H1594 H 0.56761 0.56612 1.14625
 C1595 C 0.59347 0.58955 1.22112
 C1596 C 0.42524 0.42614 1.16823
 H1597 H 0.43184 0.43256 1.14715
 C1598 C 0.40735 0.40884 1.22256
 C1599 C 0.57501 0.66538 1.07604
 H1600 H 0.56843 0.64434 1.06963
 C1601 C 0.59275 0.71956 1.09330
 C1602 C 0.42514 0.33391 1.07550
 H1603 H 0.43181 0.35497 1.06921
 C1604 C 0.40700 0.27974 1.09248
 C1605 C 0.66671 0.57199 1.07473
 H1606 H 0.64688 0.56383 1.06645
 C1607 C 0.71719 0.59429 1.09734
 C1608 C 0.33337 0.42663 1.07578
 H1609 H 0.35295 0.43511 1.06719
 C1610 C 0.28356 0.40350 1.09921
 C1611 C 0.42638 0.57410 1.16844
 H1612 H 0.43440 0.56594 1.14851
 C1613 C 0.40461 0.59636 1.21928
 C1614 C 0.57321 0.42464 1.16749
 H1615 H 0.56640 0.43115 1.14652
 C1616 C 0.59188 0.40695 1.22138
 C1617 C 0.66544 0.42369 1.07472
 H1618 H 0.64445 0.43053 1.06835
 C1619 C 0.71952 0.40519 1.09177
 C1620 C 0.33397 0.57496 1.07648
 H1621 H 0.35494 0.56810 1.07000
 C1622 C 0.28001 0.59364 1.09381
 C1623 C 0.42732 0.66667 1.07687
 H1624 H 0.43406 0.64578 1.07014
 C1625 C 0.40893 0.72042 1.09499
 C1626 C 0.57224 0.33306 1.07541
 H1627 H 0.56552 0.35398 1.06875
 C1628 C 0.59048 0.27917 1.09337
 O1629 O 0.60031 0.47300 0.85971
 O1630 O 0.63323 0.47307 0.82640
 C1631 C 0.61003 0.46360 0.83638
 C1632 C 0.59468 0.44087 0.82111
 C1633 C 0.60376 0.43207 0.79419
 H1634 H 0.62115 0.44314 0.78401
 O1635 O 0.39777 0.52851 0.85998
 O1636 O 0.36458 0.52904 0.82699
 C1637 C 0.38782 0.53841 0.83696
 C1638 C 0.40314 0.56151 0.82210
 C1639 C 0.39423 0.57095 0.79523
 H1640 H 0.37624 0.56091 0.78505
 O1641 O 0.47263 0.64224 0.89937
 O1642 O 0.47255 0.67532 0.86628
 C1643 C 0.46282 0.66520 0.88932
 C1644 C 0.43919 0.67973 0.90404
 C1645 C 0.42742 0.70453 0.89259
 H1646 H 0.43634 0.71344 0.87336
 O1647 O 0.52612 0.35912 0.89765
 O1648 O 0.52601 0.32635 0.86430
 C1649 C 0.53584 0.33621 0.88738
 C1650 C 0.55943 0.32139 0.90190
 C1651 C 0.57112 0.29669 0.89013
 H1652 H 0.56222 0.28809 0.87077
 O1653 O 0.63934 0.39633 0.97279
 O1654 O 0.67220 0.36306 0.97242
 C1655 C 0.66222 0.38617 0.96277
 C1656 C 0.67666 0.40086 0.93893
 C1657 C 0.70158 0.38965 0.92692
 H1658 H 0.71125 0.37111 0.93639
 O1659 O 0.35995 0.60333 0.97475
 O1660 O 0.32692 0.63644 0.97487
 C1661 C 0.33694 0.61344 0.96502
 C1662 C 0.32226 0.59884 0.94137
 C1663 C 0.29699 0.60997 0.93008
 H1664 H 0.28740 0.62843 0.93977
 O1665 O 0.52774 0.60372 0.86012
 O1666 O 0.52797 0.63679 0.82701
 C1667 C 0.53745 0.61365 0.83700
 C1668 C 0.56042 0.59834 0.82208
 C1669 C 0.57008 0.60739 0.79532
 H1670 H 0.56032 0.62558 0.78525
 O1671 O 0.47064 0.39822 0.85922
 O1672 O 0.47046 0.36538 0.82592
 C1673 C 0.46078 0.38833 0.83616
 C1674 C 0.43722 0.40313 0.82163
 C1675 C 0.42570 0.39209 0.79651
 H1676 H 0.43478 0.37306 0.78742
 O1677 O 0.64023 0.52726 0.89907
 O1678 O 0.67336 0.52699 0.86599
 C1679 C 0.66350 0.53662 0.88916
 C1680 C 0.67887 0.55940 0.90435
 C1681 C 0.70589 0.56805 0.89531
 H1682 H 0.71602 0.55704 0.87786
 O1683 O 0.35880 0.47327 0.89896
 O1684 O 0.32536 0.47388 0.86623
 C1685 C 0.33558 0.46380 0.88908
 C1686 C 0.32086 0.44019 0.90376
 C1687 C 0.29566 0.42889 0.89259
 H1688 H 0.28656 0.43813 0.87362
 O1689 O 0.60270 0.64067 0.97378
 O1690 O 0.63601 0.67352 0.97383
 C1691 C 0.61277 0.66376 0.96424
 C1692 C 0.59761 0.67909 0.94139
 C1693 C 0.60660 0.70610 0.93277
 H1694 H 0.62398 0.71621 0.94388
 O1695 O 0.39660 0.35919 0.97335
 O1696 O 0.36327 0.32637 0.97334
 C1697 C 0.38634 0.33630 0.96350
 C1698 C 0.40080 0.32172 0.93966
 C1699 C 0.38955 0.29659 0.92824
 H1700 H 0.37138 0.28685 0.93838
 O1701 O 0.39688 0.47320 0.85935
 O1702 O 0.36349 0.47371 0.82656
 C1703 C 0.38649 0.46366 0.83637
 C1704 C 0.40082 0.43995 0.82159
 C1705 C 0.38962 0.42866 0.79633
 H1706 H 0.37126 0.43851 0.78668
 O1707 O 0.60126 0.52825 0.86025
 O1708 O 0.63432 0.52814 0.82709
 C1709 C 0.61136 0.53796 0.83720
 C1710 C 0.59656 0.56128 0.82233
 C1711 C 0.60590 0.57053 0.79561
 H1712 H 0.62341 0.55972 0.78538
 O1713 O 0.47067 0.35935 0.89791
 O1714 O 0.47045 0.32645 0.86469
 C1715 C 0.46073 0.33648 0.88777
 C1716 C 0.43701 0.32197 0.90250
 C1717 C 0.42512 0.29718 0.89110
 H1718 H 0.43390 0.28846 0.87175
 O1719 O 0.52802 0.64224 0.89917
 O1720 O 0.52811 0.67556 0.86632
 C1721 C 0.53780 0.66534 0.88933
 C1722 C 0.56106 0.67996 0.90462
 C1723 C 0.57060 0.70688 0.89601
 H1724 H 0.56064 0.71713 0.87803
 O1725 O 0.35823 0.39850 0.97377
 O1726 O 0.32487 0.36572 0.97386
 C1727 C 0.33509 0.38865 0.96406
 C1728 C 0.32057 0.40346 0.94041
 C1729 C 0.29530 0.39254 0.92896
 H1730 H 0.28550 0.37416 0.93865
 O1731 O 0.64167 0.60188 0.97360
 O1732 O 0.67519 0.63451 0.97368
 C1733 C 0.66492 0.61158 0.96396
 C1734 C 0.67966 0.59620 0.94081
 C1735 C 0.70671 0.60468 0.93138
 H1736 H 0.71710 0.62253 0.94139
 O1737 O 0.52594 0.39803 0.85880
 O1738 O 0.52579 0.36539 0.82531
 C1739 C 0.53547 0.38837 0.83551
 C1740 C 0.55847 0.40382 0.82062
 C1741 C 0.56813 0.39500 0.79377
 H1742 H 0.55844 0.37679 0.78371
 O1743 O 0.47251 0.60347 0.86060
 O1744 O 0.47264 0.63639 0.82733
 C1745 C 0.46291 0.61335 0.83743
 C1746 C 0.43982 0.59817 0.82246
 C1747 C 0.43065 0.60726 0.79563
 H1748 H 0.44132 0.62485 0.78539
 O1749 O 0.35943 0.52863 0.89942
 O1750 O 0.32610 0.52930 0.86658
 C1751 C 0.33645 0.53872 0.88963
 C1752 C 0.32207 0.56227 0.90463
 C1753 C 0.29685 0.57370 0.89373
 H1754 H 0.28754 0.56457 0.87481
 O1755 O 0.63915 0.47183 0.89859
 O1756 O 0.67207 0.47167 0.86530
 C1757 C 0.66193 0.46179 0.88826
 C1758 C 0.67632 0.43779 0.90251
 C1759 C 0.70104 0.42613 0.89072
 H1760 H 0.70983 0.43530 0.87156
 O1761 O 0.60045 0.35763 0.97279
 O1762 O 0.63326 0.32431 0.97256
 C1763 C 0.61036 0.33465 0.96282
 C1764 C 0.59575 0.32049 0.93887
 C1765 C 0.60701 0.29564 0.92691
 H1766 H 0.62537 0.28579 0.93656
 O1767 O 0.39845 0.64243 0.97462
 O1768 O 0.36544 0.67555 0.97481
 C1769 C 0.38835 0.66543 0.96487
 C1770 C 0.40280 0.67993 0.94099
 C1771 C 0.39139 0.70487 0.92929
 H1772 H 0.37293 0.71448 0.93900
 Cu1773 Cu 0.61694 0.50013 0.88277
 Cu1774 Cu 0.65661 0.49997 0.84290
 Cu1775 Cu 0.38158 0.50085 0.88269
 Cu1776 Cu 0.34149 0.50160 0.84334
 Cu1777 Cu 0.61882 0.61778 1.00133
 Cu1778 Cu 0.65881 0.65720 1.00146
 Cu1779 Cu 0.61665 0.38024 1.00059
 Cu1780 Cu 0.65604 0.34026 1.00031
 Cu1781 Cu 0.38266 0.61945 1.00243
 Cu1782 Cu 0.34304 0.65922 1.00266
 Cu1783 Cu 0.38091 0.38207 1.00130
 Cu1784 Cu 0.34098 0.34260 1.00139
 Cu1785 Cu 0.50027 0.61963 0.88315
 Cu1786 Cu 0.50032 0.65939 0.84344
 Cu1787 Cu 0.49841 0.38196 0.88174
 Cu1788 Cu 0.49819 0.34254 0.84175
 C1789 C 0.57178 0.42688 0.83398
 H1790 H 0.56486 0.43344 0.85490
 C1791 C 0.59081 0.40906 0.78031
 C1792 C 0.42611 0.57510 0.83539
 H1793 H 0.43285 0.56819 0.85626
 C1794 C 0.40793 0.59378 0.78177
 C1795 C 0.42688 0.66771 0.92839
 H1796 H 0.43550 0.64824 0.93699
 C1797 C 0.40337 0.71717 0.90488
 C1798 C 0.57176 0.33302 0.92639
 H1799 H 0.56324 0.35243 0.93522
 C1800 C 0.59509 0.28376 0.90228
 C1801 C 0.66438 0.42513 0.92672
 H1802 H 0.64496 0.43368 0.93554
 C1803 C 0.71380 0.40196 0.90257
 C1804 C 0.33450 0.57482 0.92864
 H1805 H 0.35426 0.56644 0.93686
 C1806 C 0.28427 0.59768 0.90609
 C1807 C 0.57364 0.57513 0.83526
 H1808 H 0.56655 0.56828 0.85604
 C1809 C 0.59282 0.59355 0.78188
 C1810 C 0.42480 0.42721 0.83386
 H1811 H 0.43328 0.43551 0.85354
 C1812 C 0.40182 0.40455 0.78370
 C1813 C 0.66608 0.57340 0.92728
 H1814 H 0.64508 0.56700 0.93413
 C1815 C 0.72009 0.59060 0.90867
 C1816 C 0.33302 0.42746 0.92782
 H1817 H 0.35276 0.43571 0.93623
 C1818 C 0.28281 0.40493 0.90486
 C1819 C 0.57462 0.66636 0.92743
 H1820 H 0.56773 0.64542 0.93388
 C1821 C 0.59330 0.72026 0.91010
 C1822 C 0.42476 0.33400 0.92686
 H1823 H 0.43335 0.35353 0.93534
 C1824 C 0.40126 0.28431 0.90366
 C1825 C 1.10783 1.14210 1.28141
 C1826 C 1.12587 1.12679 1.29957
 C1827 C 1.12880 1.09743 1.29366
 C1828 C 1.11683 1.08532 1.26900
 C1829 C 1.10188 1.10216 1.24923
 C1830 C 1.09644 1.13023 1.25705
 C1831 C 1.10005 1.15685 1.24032
 C1832 C 1.11259 1.16995 1.26688
 H1833 H 1.14035 1.08357 1.30782
 H1834 H 1.12003 1.06294 1.26520
 H1835 H 1.07938 1.16641 1.23419
 H1836 H 1.11564 1.15455 1.22273
 H1837 H 1.09910 1.18711 1.27579
 H1838 H 1.13548 1.17532 1.26476
 C1839 C 1.10551 0.63579 0.78610
 C1840 C 1.13451 0.63394 0.79214
 C1841 C 1.15221 0.62211 0.77103
 C1842 C 1.14050 0.60978 0.74644
 C1843 C 1.11081 0.60898 0.74237
 C1844 C 1.09401 0.62366 0.76196
 C1845 C 1.06785 0.61449 0.77731
 C1846 C 1.08049 0.62784 0.80383
 H1847 H 1.17503 0.62199 0.77360
 H1848 H 1.15471 0.60063 0.73089
 H1849 H 1.06588 0.59104 0.77867
 H1850 H 1.04862 0.62570 0.76954
 H1851 H 1.08586 0.61216 0.82062
 H1852 H 1.06853 0.64673 0.81128
 C1853 C 0.64129 1.10438 0.78442
 C1854 C 0.63736 1.13309 0.79137
 C1855 C 0.62456 1.15022 0.77015
 C1856 C 0.61312 1.13823 0.74530
 C1857 C 0.61379 1.10870 0.74081
 C1858 C 0.62973 1.09259 0.76001
 C1859 C 0.62242 1.06551 0.77460
 C1860 C 0.63497 1.07831 0.80138
 H1861 H 0.62321 1.17298 0.77236
 H1862 H 0.60327 1.15218 0.72996
 H1863 H 0.63493 1.04735 0.76630
 H1864 H 0.59914 1.06190 0.77596
 H1865 H 0.65460 1.06733 0.80849
 H1866 H 0.61899 1.08211 0.81834
 C1867 C 0.64429 0.60720 1.28074
 C1868 C 0.62753 0.62245 1.29993
 C1869 C 0.59790 0.62233 1.29528
 C1870 C 0.58639 0.61058 1.27026
 C1871 C 0.60426 0.59868 1.24933
 C1872 C 0.63301 0.59569 1.25620
 C1873 C 0.65887 0.60274 1.23926
 C1874 C 0.67126 0.61538 1.26621
 H1875 H 0.58368 0.63224 1.31036
 H1876 H 0.56369 0.61178 1.26693
 H1877 H 0.65464 0.61874 1.22244
 H1878 H 0.67029 0.58345 1.23202
 H1879 H 0.67424 0.63874 1.26507
 H1880 H 0.68979 0.60334 1.27444
 C1881 C 0.89015 0.85691 1.28170
 C1882 C 0.87322 0.87290 1.30036
 C1883 C 0.87104 0.90230 1.29432
 C1884 C 0.88277 0.91393 1.26930
 C1885 C 0.89675 0.89657 1.24929
 C1886 C 0.90136 0.86834 1.25701
 C1887 C 0.89630 0.84192 1.24041
 C1888 C 0.88392 0.82930 1.26732
 H1889 H 0.86041 0.91662 1.30872
 H1890 H 0.88026 0.93640 1.26547
 H1891 H 0.91643 0.83160 1.23374
 H1892 H 0.88038 0.84486 1.22323
 H1893 H 0.89692 0.81159 1.27587
 H1894 H 0.86079 0.82485 1.26581
 C1895 C 0.88835 0.35439 0.77968
 C1896 C 0.87281 0.37076 0.79897
 C1897 C 0.87284 0.40042 0.79470
 C1898 C 0.88506 0.41234 0.77002
 C1899 C 0.89749 0.39488 0.74905
 C1900 C 0.90029 0.36606 0.75552
 C1901 C 0.89348 0.34054 0.73806
 C1902 C 0.88037 0.32773 0.76461
 H1903 H 0.86268 0.41435 0.80985
 H1904 H 0.88391 0.43506 0.76705
 H1905 H 0.91289 0.32922 0.73092
 H1906 H 0.87773 0.34507 0.72107
 H1907 H 0.89228 0.30907 0.77272
 H1908 H 0.85700 0.32479 0.76308
 C1909 C 0.36357 0.89739 0.78748
 C1910 C 0.36388 0.86826 0.79309
 C1911 C 0.37354 0.85028 0.77110
 C1912 C 0.38575 0.86159 0.74625
 C1913 C 0.38842 0.89115 0.74263
 C1914 C 0.37544 0.90849 0.76294
 C1915 C 0.38674 0.93381 0.77818
 C1916 C 0.37373 0.92161 0.80511
 H1917 H 0.37235 0.82748 0.77328
 H1918 H 0.39354 0.84717 0.73016
 H1919 H 0.37636 0.95374 0.77108
 H1920 H 0.41033 0.93440 0.77858
 H1921 H 0.35588 0.93454 0.81349
 H1922 H 0.38975 0.91509 0.82116
 C1923 C 0.35938 0.39523 1.28603
 C1924 C 0.37565 0.37769 1.30385
 C1925 C 0.40462 0.37438 1.29631
 C1926 C 0.41540 0.38550 1.27066
 C1927 C 0.39754 0.39987 1.25135
 C1928 C 0.36992 0.40573 1.26060
 C1929 C 0.34232 0.40172 1.24562
 C1930 C 0.33070 0.39018 1.27335
 H1931 H 0.41926 0.36327 1.31005
 H1932 H 0.43759 0.38215 1.26582
 H1933 H 0.34354 0.38556 1.22849
 H1934 H 0.33250 0.42220 1.23933
 H1935 H 0.32510 0.36730 1.27236
 H1936 H 0.31413 0.40404 1.28281
 C1937 C 0.89118 1.14265 0.71906
 C1938 C 0.87472 1.12592 0.70061
 C1939 C 0.87341 1.09655 0.70707
 C1940 C 0.88520 1.08567 0.73236
 C1941 C 0.89841 1.10374 0.75224
 C1942 C 0.90248 1.13193 0.74403
 C1943 C 0.89677 1.15854 0.76009
 C1944 C 0.88429 1.17039 0.73287
 H1945 H 0.86343 1.08164 0.69282
 H1946 H 0.88326 1.06320 0.73653
 H1947 H 0.91664 1.16940 0.76665
 H1948 H 0.88080 1.15559 0.77724
 H1949 H 0.89698 1.18819 0.72403
 H1950 H 0.86106 1.17437 0.73418
 C1951 C 0.89213 0.64339 0.22013
 C1952 C 0.87417 0.62766 0.20224
 C1953 C 0.87174 0.59832 0.20842
 C1954 C 0.88405 0.58659 0.23308
 C1955 C 0.89883 0.60380 0.25264
 C1956 C 0.90386 0.63188 0.24454
 C1957 C 0.90001 0.65857 0.26105
 C1958 C 0.88709 0.67128 0.23445
 H1959 H 0.86035 0.58414 0.19447
 H1960 H 0.88123 0.56418 0.23707
 H1961 H 0.92059 0.66846 0.26694
 H1962 H 0.88458 0.65618 0.27877
 H1963 H 0.90027 0.68856 0.22528
 H1964 H 0.86415 0.67633 0.23668
 C1965 C 0.36589 1.10182 0.21231
 C1966 C 0.36824 1.13045 0.20490
 C1967 C 0.37918 1.14903 0.22573
 C1968 C 0.39032 1.13845 0.25143
 C1969 C 0.39078 1.10902 0.25696
 C1970 C 0.37681 1.09144 0.23754
 C1971 C 0.38640 1.06452 0.22396
 C1972 C 0.37440 1.07593 0.19625
 H1973 H 0.37970 1.17166 0.22203
 H1974 H 0.39897 1.15330 0.26664
 H1975 H 0.37462 1.04581 0.23215
 H1976 H 0.40989 1.06230 0.22379
 H1977 H 0.35573 1.06377 0.18853
 H1978 H 0.39092 1.08034 0.17996
 C1979 C 0.38859 0.64353 0.72179
 C1980 C 0.37498 0.62600 0.70205
 C1981 C 0.37634 0.59646 0.70696
 C1982 C 0.38783 0.58567 0.73245
 C1983 C 0.39836 0.60413 0.75356
 C1984 C 0.39995 0.63294 0.74671
 C1985 C 0.39088 0.65826 0.76338
 C1986 C 0.37837 0.66990 0.73601
 H1987 H 0.36796 0.58168 0.69155
 H1988 H 0.38775 0.56298 0.73586
 H1989 H 0.40927 0.67076 0.77122
 H1990 H 0.37460 0.65308 0.77969
 H1991 H 0.38958 0.68910 0.72816
 H1992 H 0.35483 0.67148 0.73638
 C1993 C 1.14093 0.89009 0.71912
 C1994 C 1.12392 0.87574 0.69949
 C1995 C 1.09439 0.87526 0.70486
 C1996 C 1.08324 0.88592 0.73058
 C1997 C 1.10135 0.89733 0.75158
 C1998 C 1.13001 0.90051 0.74434
 C1999 C 1.15607 0.89265 0.76055
 C2000 C 1.16805 0.88121 0.73286
 H2001 H 1.07992 0.86609 0.68957
 H2002 H 1.06059 0.88460 0.73417
 H2003 H 1.15202 0.87591 0.77669
 H2004 H 1.16767 0.91157 0.76849
 H2005 H 1.17097 0.85782 0.73289
 H2006 H 1.18651 0.89358 0.72492
 C2007 C 1.10777 0.35605 0.22013
 C2008 C 1.12596 0.37143 0.20215
 C2009 C 1.12852 0.40085 0.20793
 C2010 C 1.11623 0.41295 0.23242
 C2011 C 1.10128 0.39604 0.25215
 C2012 C 1.09603 0.36792 0.24435
 C2013 C 1.09954 0.34136 0.26119
 C2014 C 1.11246 0.32826 0.23479
 H2015 H 1.14009 0.41477 0.19382
 H2016 H 1.11922 0.43537 0.23617
 H2017 H 1.07884 0.33173 0.26711
 H2018 H 1.11491 0.34378 0.27894
 H2019 H 1.09915 0.31102 0.22576
 H2020 H 1.13534 0.32300 0.23717
 C2021 C 0.64076 0.89168 0.21807
 C2022 C 0.62338 0.87737 0.19872
 C2023 C 0.59393 0.87718 0.20439
 C2024 C 0.58320 0.88806 0.23017
 C2025 C 0.60168 0.89933 0.25093
 C2026 C 0.63026 0.90230 0.24337
 C2027 C 0.65646 0.89430 0.25928
 C2028 C 0.66799 0.88265 0.23150
 H2029 H 0.57922 0.86805 0.18930
 H2030 H 0.56058 0.88693 0.23403
 H2031 H 0.65247 0.87767 0.27554
 H2032 H 0.66830 0.91316 0.26699
 H2033 H 0.67072 0.85924 0.23159
 H2034 H 0.68644 0.89483 0.22325
 C2035 C 0.64220 0.39180 0.72096
 C2036 C 0.62594 0.37606 0.70175
 C2037 C 0.59633 0.37514 0.70652
 C2038 C 0.58444 0.38673 0.73150
 C2039 C 0.60190 0.39947 0.75231
 C2040 C 0.63058 0.40312 0.74542
 C2041 C 0.65657 0.39681 0.76242
 C2042 C 0.66934 0.38440 0.73554
 H2043 H 0.58244 0.36473 0.69149
 H2044 H 0.56178 0.38491 0.73481
 H2045 H 0.65271 0.38077 0.77930
 H2046 H 0.66750 0.41642 0.76960
 H2047 H 0.67292 0.36114 0.73677
 H2048 H 0.68757 0.39690 0.72729
 C2049 C 1.28130 1.14033 1.10721
 C2050 C 1.30021 1.12392 1.12313
 C2051 C 1.29463 1.09455 1.12492
 C2052 C 1.26922 1.08309 1.11389
 C2053 C 1.24875 1.10078 1.10094
 C2054 C 1.25635 1.12914 1.09655
 C2055 C 1.24015 1.15566 1.10258
 C2056 C 1.26757 1.16796 1.11422
 H2057 H 1.30943 1.08054 1.13551
 H2058 H 1.26537 1.06061 1.11627
 H2059 H 1.22349 1.15260 1.11904
 H2060 H 1.23287 1.16633 1.08284
 H2061 H 1.26688 1.17216 1.13744
 H2062 H 1.27602 1.18560 1.10106
 C2063 C 1.28321 0.60425 0.64262
 C2064 C 1.30067 0.62256 0.62683
 C2065 C 1.29353 0.62598 0.59777
 C2066 C 1.26837 0.61432 0.58650
 C2067 C 1.24914 0.59932 0.60394
 C2068 C 1.25820 0.59326 0.63161
 C2069 C 1.24280 0.59641 0.65912
 C2070 C 1.27008 0.60845 0.67125
 H2071 H 1.30717 0.63765 0.58346
 H2072 H 1.26381 0.61783 0.56427
 H2073 H 1.23694 0.57562 0.66855
 H2074 H 1.22527 0.61215 0.65797
 H2075 H 1.27973 0.59455 0.68767
 H2076 H 1.26842 0.63119 0.67721
 C2077 C 0.78379 1.10384 0.64159
 C2078 C 0.80113 1.12248 0.62602
 C2079 C 0.79381 1.12635 0.59707
 C2080 C 0.76864 1.11474 0.58572
 C2081 C 0.74954 1.09935 0.60299
 C2082 C 0.75877 1.09291 0.63052
 C2083 C 0.74350 1.09556 0.65815
 C2084 C 0.77078 1.10753 0.67034
 H2085 H 0.80732 1.13834 0.58290
 H2086 H 0.76398 1.11858 0.56357
 H2087 H 0.73778 1.07460 0.66729
 H2088 H 0.72589 1.11124 0.65734
 H2089 H 0.78057 1.09341 0.68649
 H2090 H 0.76905 1.13016 0.67668
 C2091 C 0.78670 0.63413 1.10469
 C2092 C 0.79366 0.63093 1.13338
 C2093 C 0.77305 0.61841 1.15118
 C2094 C 0.74794 0.60686 1.13973
 C2095 C 0.74286 0.60744 1.11016
 C2096 C 0.76210 0.62270 1.09342
 C2097 C 0.77655 0.61458 1.06643
 C2098 C 0.80357 0.62715 1.07880
 H2099 H 0.77641 0.61721 1.17388
 H2100 H 0.73278 0.59722 1.15405
 H2101 H 0.76832 0.62669 1.04793
 H2102 H 0.77761 0.59123 1.06340
 H2103 H 0.81084 0.64649 1.06744
 H2104 H 0.82035 0.61112 1.08297
 C2105 C 1.27946 0.85588 0.89337
 C2106 C 1.29717 0.87157 0.87518
 C2107 C 1.29073 0.90081 0.87238
 C2108 C 1.26589 0.91243 0.88443
 C2109 C 1.24639 0.89517 0.89927
 C2110 C 1.25483 0.86725 0.90479
 C2111 C 1.23874 0.84023 0.90133
 C2112 C 1.26561 0.82769 0.88879
 H2113 H 1.30460 0.91497 0.86081
 H2114 H 1.26173 0.93475 0.88130
 H2115 H 1.22110 0.84206 0.88577
 H2116 H 1.23286 0.83061 0.92206
 H2117 H 1.26359 0.82218 0.86593
 H2118 H 1.27499 0.81082 0.90232
 C2119 C 1.28372 0.35910 0.39517
 C2120 C 1.30185 0.37558 0.37812
 C2121 C 1.29462 0.40466 0.37542
 C2122 C 1.26890 0.41534 0.38639
 C2123 C 1.24925 0.39731 0.40005
 C2124 C 1.25822 0.36956 0.40552
 C2125 C 1.24313 0.34216 0.40086
 C2126 C 1.27098 0.33059 0.38957
 H2127 H 1.30863 0.41950 0.36494
 H2128 H 1.26427 0.43761 0.38348
 H2129 H 1.22628 0.34373 0.38442
 H2130 H 1.23646 0.33207 0.42112
 H2131 H 1.27033 0.32527 0.36658
 H2132 H 1.28013 0.31389 0.40345
 C2133 C 0.77835 0.85526 0.38950
 C2134 C 0.79849 0.87240 0.37595
 C2135 C 0.79385 0.90201 0.37681
 C2136 C 0.76828 0.91322 0.38776
 C2137 C 0.74681 0.89511 0.39825
 C2138 C 0.75336 0.86626 0.40033
 C2139 C 0.73658 0.84094 0.39140
 C2140 C 0.76402 0.82886 0.37949
 H2141 H 0.80951 0.91652 0.36835
 H2142 H 0.76511 0.93593 0.38731
 H2143 H 0.72059 0.84602 0.37481
 H2144 H 0.72833 0.82880 0.40987
 H2145 H 0.76400 0.82691 0.35597
 H2146 H 0.77149 0.80977 0.39112
 C2147 C 0.78213 0.39387 0.86037
 C2148 C 0.78938 0.36521 0.86400
 C2149 C 0.76851 0.34779 0.87702
 C2150 C 0.74366 0.35945 0.88884
 C2151 C 0.73883 0.38893 0.88833
 C2152 C 0.75775 0.40532 0.87230
 C2153 C 0.77216 0.43247 0.87967
 C2154 C 0.79892 0.42004 0.86670
 H2155 H 0.77096 0.32505 0.87821
 H2156 H 0.72856 0.34528 0.89877
 H2157 H 0.77373 0.43589 0.90297
 H2158 H 0.76357 0.45068 0.86740
 H2159 H 0.81607 0.41624 0.88246
 H2160 H 0.80572 0.43126 0.84709
 C2161 C 0.71683 0.85973 1.10772
 C2162 C 0.69718 0.87690 1.12186
 C2163 C 0.70255 0.90639 1.12208
 C2164 C 0.72838 0.91734 1.11154
 C2165 C 0.74937 0.89906 1.10047
 C2166 C 0.74212 0.87047 1.09738
 C2167 C 0.75824 0.84449 1.10553
 C2168 C 0.73045 0.83266 1.11687
 H2169 H 0.68726 0.92095 1.13107
 H2170 H 0.73215 0.93993 1.11278
 H2171 H 0.77424 0.84861 1.12238
 H2172 H 0.76632 0.83281 1.08671
 H2173 H 0.73027 0.82982 1.14030
 H2174 H 0.72265 0.81422 1.10448
 C2175 C 0.71337 0.39726 0.63753
 C2176 C 0.70575 0.36868 0.63365
 C2177 C 0.72647 0.35113 0.62066
 C2178 C 0.75186 0.36252 0.60971
 C2179 C 0.75738 0.39189 0.61100
 C2180 C 0.73828 0.40844 0.62650
 C2181 C 0.72456 0.43581 0.61869
 C2182 C 0.69719 0.42368 0.63064
 H2183 H 0.72361 0.32846 0.61908
 H2184 H 0.76695 0.34823 0.59997
 H2185 H 0.72388 0.43934 0.59536
 H2186 H 0.73298 0.45384 0.63131
 H2187 H 0.68057 0.42016 0.61427
 H2188 H 0.68986 0.43499 0.64999
 C2189 C 0.21840 0.85811 0.60895
 C2190 C 0.19887 0.87526 0.62332
 C2191 C 0.20430 0.90473 0.62352
 C2192 C 0.22999 0.91570 0.61259
 C2193 C 0.25086 0.89746 0.60116
 C2194 C 0.24356 0.86886 0.59824
 C2195 C 0.25978 0.84289 0.60623
 C2196 C 0.23215 0.83106 0.61795
 H2197 H 0.18911 0.91930 0.63267
 H2198 H 0.23371 0.93830 0.61374
 H2199 H 0.27601 0.84703 0.62285
 H2200 H 0.26761 0.83117 0.58732
 H2201 H 0.23228 0.82827 0.64139
 H2202 H 0.22416 0.81260 0.60571
 C2203 C 0.21459 0.39507 1.14018
 C2204 C 0.20734 0.36640 1.13637
 C2205 C 0.22824 0.34912 1.12327
 C2206 C 0.25329 0.36089 1.11192
 C2207 C 0.25827 0.39035 1.11291
 C2208 C 0.23915 0.40662 1.12874
 C2209 C 0.22488 0.43381 1.12127
 C2210 C 0.19790 0.42126 1.13370
 H2211 H 0.22572 0.32640 1.12181
 H2212 H 0.26847 0.34680 1.10203
 H2213 H 0.22372 0.43738 1.09797
 H2214 H 0.23327 0.45193 1.13379
 H2215 H 0.18103 0.41756 1.11763
 H2216 H 0.19077 0.43237 1.15325
 C2217 C 0.72032 1.14542 0.89124
 C2218 C 0.70130 1.12883 0.87559
 C2219 C 0.70591 1.09923 0.87562
 C2220 C 0.73073 1.08762 0.88777
 C2221 C 0.75149 1.10533 0.90019
 C2222 C 0.74463 1.13403 0.90317
 C2223 C 0.76175 1.15984 0.89653
 C2224 C 0.73506 1.17234 0.88343
 H2225 H 0.69097 1.08511 0.86541
 H2226 H 0.73403 1.06496 0.88651
 H2227 H 0.77884 1.15565 0.88079
 H2228 H 0.76867 1.17114 0.91603
 H2229 H 0.73663 1.17542 0.86008
 H2230 H 0.72667 1.19081 0.89542
 C2231 C 0.71407 0.63725 0.39780
 C2232 C 0.70727 0.63388 0.36910
 C2233 C 0.72824 0.62206 0.35129
 C2234 C 0.75347 0.61090 0.36276
 C2235 C 0.75826 0.61111 0.39237
 C2236 C 0.73882 0.62611 0.40912
 C2237 C 0.72439 0.61774 0.43607
 C2238 C 0.69725 0.62999 0.42365
 H2239 H 0.72488 0.62078 0.32859
 H2240 H 0.76880 0.60158 0.34843
 H2241 H 0.73243 0.62991 0.45459
 H2242 H 0.72361 0.59437 0.43907
 H2243 H 0.68971 0.64921 0.43500
 H2244 H 0.68067 0.61375 0.41943
 C2245 C 0.21377 1.10424 0.36302
 C2246 C 0.20616 1.13282 0.36661
 C2247 C 0.22673 1.15043 0.37980
 C2248 C 0.25189 1.13907 0.39131
 C2249 C 0.25732 1.10968 0.39040
 C2250 C 0.23842 1.09308 0.37464
 C2251 C 0.22441 1.06577 0.38226
 C2252 C 0.19736 1.07789 0.36963
 H2253 H 0.22391 1.17312 0.38115
 H2254 H 0.26684 1.15342 0.40115
 H2255 H 0.22318 1.06236 0.40559
 H2256 H 0.23306 1.04765 0.36992
 H2257 H 0.18036 1.08151 0.38561
 H2258 H 0.19045 1.06656 0.35014
 C2259 C 0.21491 0.60550 0.86623
 C2260 C 0.20904 0.63452 0.86794
 C2261 C 0.23034 0.65211 0.87956
 C2262 C 0.25497 0.64034 0.89174
 C2263 C 0.25894 0.61068 0.89262
 C2264 C 0.23911 0.59394 0.87820
 C2265 C 0.22371 0.56799 0.88776
 C2266 C 0.19713 0.58069 0.87461
 H2267 H 0.22789 0.67492 0.87958
 H2268 H 0.27068 0.65449 0.90071
 H2269 H 0.22262 0.56619 0.91128
 H2270 H 0.23123 0.54865 0.87658
 H2271 H 0.18057 0.58628 0.89048
 H2272 H 0.18937 0.56865 0.85589
 C2273 C 1.10473 1.28435 1.13691
 C2274 C 1.13385 1.29028 1.13596
 C2275 C 1.15185 1.26855 1.12584
 C2276 C 1.14046 1.24346 1.11418
 C2277 C 1.11080 1.23941 1.11250
 C2278 C 1.09357 1.25967 1.12562
 C2279 C 1.06781 1.27449 1.11473
 C2280 C 1.08007 1.30162 1.12710
 H2281 H 1.17468 1.27102 1.12641
 H2282 H 1.15487 1.22752 1.10611
 H2283 H 1.04817 1.26734 1.12568
 H2284 H 1.06668 1.27460 1.09115
 H2285 H 1.06742 1.31006 1.14513
 H2286 H 1.08607 1.31751 1.11072
 C2287 C 1.14185 0.78039 0.60984
 C2288 C 1.12443 0.79973 0.62413
 C2289 C 1.09499 0.79401 0.62433
 C2290 C 1.08431 0.76826 0.61340
 C2291 C 1.10282 0.74758 0.60204
 C2292 C 1.13139 0.75514 0.59917
 C2293 C 1.15754 0.73922 0.60728
 C2294 C 1.16904 0.76695 0.61896
 H2295 H 1.08025 0.80906 0.63345
 H2296 H 1.06170 0.76435 0.61451
 H2297 H 1.16943 0.73150 0.58843
 H2298 H 1.15348 0.72301 0.62394
 H2299 H 1.18751 0.77510 0.60676
 H2300 H 1.17174 0.76688 0.64241
 C2301 C 0.60316 1.28644 0.63676
 C2302 C 0.63222 1.29261 0.63581
 C2303 C 0.65041 1.27096 0.62580
 C2304 C 0.63928 1.24587 0.61397
 C2305 C 0.60967 1.24168 0.61200
 C2306 C 0.59224 1.26172 0.62526
 C2307 C 0.56636 1.27641 0.61448
 C2308 C 0.57835 1.30355 0.62708
 H2309 H 0.67322 1.27359 0.62644
 H2310 H 0.65385 1.23007 0.60591
 H2311 H 0.54677 1.26899 0.62536
 H2312 H 0.56523 1.27670 0.59090
 H2313 H 0.56563 1.31174 0.64519
 H2314 H 0.58421 1.31964 0.61084
 C2315 C 0.64110 0.78154 1.10963
 C2316 C 0.62351 0.80075 1.12389
 C2317 C 0.59416 0.79464 1.12436
 C2318 C 0.58376 0.76867 1.11365
 C2319 C 0.60248 0.74819 1.10227
 C2320 C 0.63092 0.75609 1.09918
 C2321 C 0.65730 0.74056 1.10727
 C2322 C 0.66851 0.76851 1.11871
 H2323 H 0.57929 0.80955 1.13349
 H2324 H 0.56122 0.76446 1.11494
 H2325 H 0.66920 0.73286 1.08841
 H2326 H 0.65353 0.72440 1.12405
 H2327 H 0.68681 0.77679 1.10636
 H2328 H 0.67133 0.76863 1.14214
 C2329 C 0.86006 1.28365 0.89612
 C2330 C 0.86318 1.29028 0.86735
 C2331 C 0.87596 1.26970 0.84977
 C2332 C 0.88805 1.24504 0.86153
 C2333 C 0.88785 1.24048 0.89118
 C2334 C 0.87211 1.25951 0.90769
 C2335 C 0.87990 1.27448 0.93449
 C2336 C 0.86664 1.30098 0.92177
 H2337 H 0.87722 1.27294 0.82705
 H2338 H 0.89801 1.22995 0.84738
 H2339 H 0.90325 1.27617 0.93749
 H2340 H 0.86799 1.26619 0.95310
 H2341 H 0.88228 1.31809 0.91737
 H2342 H 0.84710 1.30788 0.93304
 C2343 C 0.89759 0.78607 0.36550
 C2344 C 0.86881 0.79287 0.36832
 C2345 C 0.85082 0.77174 0.37967
 C2346 C 0.86215 0.74635 0.39070
 C2347 C 0.89175 0.74146 0.39069
 C2348 C 0.90871 0.76115 0.37632
 C2349 C 0.93554 0.77531 0.38538
 C2350 C 0.92334 0.80268 0.37349
 H2351 H 0.82810 0.77499 0.38058
 H2352 H 0.84774 0.73089 0.39969
 H2353 H 0.95424 0.76751 0.37329
 H2354 H 0.93818 0.77559 0.40884
 H2355 H 0.93503 0.81060 0.35458
 H2356 H 0.91887 0.81889 0.39003
 C2357 C 0.35839 1.28094 0.39047
 C2358 C 0.37571 1.30091 0.37692
 C2359 C 0.40528 1.29578 0.37725
 C2360 C 0.41625 1.27006 0.38800
 C2361 C 0.39794 1.24888 0.39874
 C2362 C 0.36915 1.25576 0.40104
 C2363 C 0.34360 1.23937 0.39201
 C2364 C 0.33178 1.26700 0.38039
 H2365 H 0.41991 1.31129 0.36872
 H2366 H 0.43895 1.26659 0.38731
 H2367 H 0.33140 1.23109 0.41044
 H2368 H 0.34847 1.22351 0.37526
 H2369 H 0.31278 1.27451 0.39215
 H2370 H 0.32975 1.26723 0.35688
 C2371 C 0.39483 0.78585 0.86397
 C2372 C 0.36601 0.79226 0.86709
 C2373 C 0.34853 0.77134 0.87953
 C2374 C 0.36042 0.74658 0.89132
 C2375 C 0.39009 0.74220 0.89106
 C2376 C 0.40652 0.76157 0.87564
 C2377 C 0.43323 0.77655 0.88370
 C2378 C 0.42039 0.80320 0.87087
 H2379 H 0.32578 0.77433 0.88074
 H2380 H 0.34637 0.73125 0.90106
 H2381 H 0.45188 0.76858 0.87167
 H2382 H 0.43619 0.77785 0.90708
 H2383 H 0.43165 0.81052 0.85146
 H2384 H 0.41588 0.82001 0.88679
 C2385 C 1.10436 0.71533 0.86344
 C2386 C 1.13342 0.70969 0.86602
 C2387 C 1.15059 0.73129 0.87763
 C2388 C 1.13831 0.75593 0.88920
 C2389 C 1.10854 0.75956 0.88950
 C2390 C 1.09228 0.73954 0.87483
 C2391 C 1.06611 0.72408 0.88375
 C2392 C 1.07938 0.69749 0.87122
 H2393 H 1.17344 0.72902 0.87825
 H2394 H 1.15214 0.77180 0.89834
 H2395 H 1.04705 0.73137 0.87194
 H2396 H 1.06363 0.72318 0.90721
 H2397 H 1.06794 0.68952 0.85220
 H2398 H 1.08460 0.68112 0.88738
 C2399 C 1.10282 0.21384 0.36432
 C2400 C 1.13198 0.20817 0.36551
 C2401 C 1.14976 0.23019 0.37535
 C2402 C 1.13812 0.25531 0.38664
 C2403 C 1.10842 0.25907 0.38824
 C2404 C 1.09140 0.23856 0.37526
 C2405 C 1.06568 0.22365 0.38619
 C2406 C 1.07822 0.19648 0.37420
 H2407 H 1.17261 0.22791 0.37488
 H2408 H 1.15237 0.27145 0.39458
 H2409 H 1.04606 0.23051 0.37505
 H2410 H 1.06439 0.22380 0.40976
 H2411 H 1.06576 0.18772 0.35620
 H2412 H 1.08424 0.18083 0.39079
 C2413 C 0.60125 0.71238 0.36361
 C2414 C 0.63045 0.70702 0.36460
 C2415 C 0.64815 0.72935 0.37392
 C2416 C 0.63644 0.75434 0.38531
 C2417 C 0.60677 0.75770 0.38749
 C2418 C 0.58974 0.73704 0.37467
 C2419 C 0.56427 0.72190 0.38587
 C2420 C 0.57690 0.69483 0.37374
 H2421 H 0.67101 0.72733 0.37317
 H2422 H 0.65064 0.77066 0.39300
 H2423 H 0.54447 0.72860 0.37495
 H2424 H 0.56324 0.72204 0.40946
 H2425 H 0.56434 0.68596 0.35586
 H2426 H 0.58323 0.67923 0.39027
 C2427 C 0.60388 0.21551 0.86065
 C2428 C 0.63258 0.20885 0.86430
 C2429 C 0.64997 0.22957 0.87711
 C2430 C 0.63806 0.25434 0.88880
 C2431 C 0.60842 0.25891 0.88817
 C2432 C 0.59214 0.23979 0.87229
 C2433 C 0.56516 0.22493 0.87974
 C2434 C 0.57806 0.19829 0.86694
 H2435 H 0.67266 0.22636 0.87874
 H2436 H 0.65206 0.26949 0.89886
 H2437 H 0.54681 0.23315 0.86742
 H2438 H 0.56173 0.22344 0.90305
 H2439 H 0.56713 0.19124 0.84726
 H2440 H 0.58211 0.18131 0.88280
 C2441 C 0.89573 0.71431 1.13567
 C2442 C 0.86674 0.70793 1.13466
 C2443 C 0.84840 0.72928 1.12432
 C2444 C 0.85940 0.75447 1.11250
 C2445 C 0.88899 0.75897 1.11085
 C2446 C 0.90650 0.73907 1.12417
 C2447 C 0.93253 0.72457 1.11346
 C2448 C 0.92069 0.69736 1.12608
 H2449 H 0.82562 0.72643 1.12485
 H2450 H 0.84475 0.77014 1.10433
 H2451 H 0.95203 0.73213 1.12437
 H2452 H 0.93372 0.72429 1.08988
 H2453 H 0.93341 0.68926 1.14422
 H2454 H 0.91498 0.68123 1.10985
 C2455 C 0.89731 0.21127 0.63352
 C2456 C 0.86866 0.20393 0.63069
 C2457 C 0.85030 0.22479 0.61950
 C2458 C 0.86115 0.25058 0.60884
 C2459 C 0.89065 0.25615 0.60906
 C2460 C 0.90796 0.23655 0.62306
 C2461 C 0.93504 0.22303 0.61375
 C2462 C 0.92334 0.19526 0.62526
 H2463 H 0.82764 0.22112 0.61862
 H2464 H 0.84643 0.26587 0.60011
 H2465 H 0.95360 0.23099 0.62592
 H2466 H 0.93766 0.22314 0.59029
 H2467 H 0.93518 0.18729 0.64404
 H2468 H 0.91916 0.17921 0.60849
 C2469 C 0.39763 0.71078 0.63269
 C2470 C 0.36896 0.70345 0.63009
 C2471 C 0.35048 0.72431 0.61910
 C2472 C 0.36121 0.75012 0.60839
 C2473 C 0.39069 0.75570 0.60837
 C2474 C 0.40816 0.73608 0.62217
 C2475 C 0.43513 0.72258 0.61253
 C2476 C 0.42356 0.69479 0.62409
 H2477 H 0.32781 0.72066 0.61846
 H2478 H 0.34641 0.76543 0.59982
 H2479 H 0.45383 0.73053 0.62452
 H2480 H 0.43750 0.72276 0.58904
 H2481 H 0.43561 0.68677 0.64272
 H2482 H 0.41919 0.67878 0.60733
 C2483 C 0.35765 0.21827 1.10791
 C2484 C 0.37449 0.19941 1.12344
 C2485 C 0.40385 0.20525 1.12487
 C2486 C 0.41490 0.23085 1.11390
 C2487 C 0.39680 0.25124 1.10141
 C2488 C 0.36844 0.24341 1.09730
 C2489 C 0.34179 0.25923 1.10384
 C2490 C 0.32992 0.23160 1.11542
 H2491 H 0.41816 0.19052 1.13512
 H2492 H 0.43741 0.23490 1.11600
 H2493 H 0.33078 0.26656 1.08431
 H2494 H 0.34487 0.27574 1.12039
 H2495 H 0.31217 0.22310 1.10246
 H2496 H 0.32602 0.23203 1.13871
 C2497 C 1.10412 1.13580 0.71518
 C2498 C 1.13320 1.13391 0.70942
 C2499 C 1.15067 1.12248 0.73094
 C2500 C 1.13871 1.11044 0.75558
 C2501 C 1.10900 1.10959 0.75936
 C2502 C 1.09237 1.12402 0.73943
 C2503 C 1.06638 1.11461 0.72400
 C2504 C 1.07927 1.12756 0.69737
 H2505 H 1.17352 1.12241 0.72868
 H2506 H 1.15276 1.10148 0.77139
 H2507 H 1.04706 1.12593 0.73142
 H2508 H 1.06442 1.09114 0.72301
 H2509 H 1.06737 1.14632 0.68951
 H2510 H 1.08482 1.11163 0.68089
 C2511 C 1.14193 0.60656 0.21688
 C2512 C 1.12517 0.62342 0.19886
 C2513 C 1.09602 0.62568 0.20617
 C2514 C 1.08550 0.61450 0.23186
 C2515 C 1.10373 0.60099 0.25139
 C2516 C 1.13158 0.59592 0.24234
 C2517 C 1.15895 0.60090 0.25743
 C2518 C 1.17037 0.61260 0.22966
 H2519 H 1.08099 0.63595 0.19221
 H2520 H 1.06317 0.61708 0.23655
 H2521 H 1.16935 0.58077 0.26393
 H2522 H 1.15713 0.61714 0.27443
 H2523 H 1.18740 0.59920 0.22037
 H2524 H 1.17523 0.63565 0.23050
 C2525 C 0.64109 1.10847 0.21848
 C2526 C 0.62353 1.12250 0.19906
 C2527 C 0.59406 1.12222 0.20467
 C2528 C 0.58347 1.11126 0.23049
 C2529 C 0.60209 1.10029 0.25129
 C2530 C 0.63071 1.09770 0.24377
 C2531 C 0.65677 1.10605 0.25972
 C2532 C 0.66818 1.11789 0.23195
 H2533 H 0.57923 1.13109 0.18955
 H2534 H 0.56085 1.11210 0.23439
 H2535 H 0.66884 1.08734 0.26745
 H2536 H 0.65255 1.12260 0.27598
 H2537 H 0.68680 1.10598 0.22375
 H2538 H 0.67059 1.14133 0.23204
 C2539 C 0.64362 0.61235 0.72262
 C2540 C 0.62657 0.62624 0.70264
 C2541 C 0.59692 0.62559 0.70727
 C2542 C 0.58559 0.61430 0.73264
 C2543 C 0.60363 0.60327 0.75390
 C2544 C 0.63251 0.60118 0.74740
 C2545 C 0.65781 0.60979 0.76440
 C2546 C 0.67003 0.62210 0.73719
 H2547 H 0.58248 0.63431 0.69169
 H2548 H 0.56285 0.61483 0.73582
 H2549 H 0.66990 0.59120 0.77240
 H2550 H 0.65271 0.62611 0.78065
 H2551 H 0.68916 0.61059 0.72960
 H2552 H 0.67202 0.64558 0.73758
 C2553 C 0.89387 0.86480 0.71488
 C2554 C 0.86530 0.86818 0.70757
 C2555 C 0.84744 0.88118 0.72781
 C2556 C 0.85878 0.89282 0.75296
 C2557 C 0.88828 0.89188 0.75842
 C2558 C 0.90502 0.87630 0.73948
 C2559 C 0.93226 0.88398 0.72522
 C2560 C 0.92001 0.87130 0.69821
 H2561 H 0.82480 0.88262 0.72417
 H2562 H 0.84442 0.90277 0.76786
 H2563 H 0.95051 0.87174 0.73377
 H2564 H 0.93559 0.90728 0.72395
 H2565 H 0.93119 0.85175 0.69127
 H2566 H 0.91623 0.88721 0.68120
 C2567 C 0.85589 0.39075 0.21899
 C2568 C 0.87344 0.37664 0.19962
 C2569 C 0.90295 0.37725 0.20503
 C2570 C 0.91362 0.38840 0.23068
 C2571 C 0.89507 0.39930 0.25155
 C2572 C 0.86638 0.40173 0.24417
 C2573 C 0.84042 0.39337 0.26031
 C2574 C 0.82892 0.38131 0.23268
 H2575 H 0.91779 0.36848 0.18986
 H2576 H 0.93627 0.38775 0.23441
 H2577 H 0.82831 0.41207 0.26798
 H2578 H 0.84478 0.37693 0.27666
 H2579 H 0.81021 0.39310 0.22449
 H2580 H 0.82660 0.35786 0.23295
 C2581 C 0.35798 0.89325 0.21703
 C2582 C 0.37545 0.87893 0.19774
 C2583 C 0.40494 0.87922 0.20322
 C2584 C 0.41562 0.89033 0.22890
 C2585 C 0.39707 0.90146 0.24967
 C2586 C 0.36846 0.90419 0.24219
 C2587 C 0.34236 0.89616 0.25827
 C2588 C 0.33085 0.88414 0.23065
 H2589 H 0.41970 0.87014 0.18816
 H2590 H 0.43824 0.88938 0.23277
 H2591 H 0.33042 0.91502 0.26583
 H2592 H 0.34648 0.87972 0.27469
 H2593 H 0.31229 0.89610 0.22236
 H2594 H 0.32828 0.86071 0.23098
 C2595 C 0.39494 0.36401 0.71459
 C2596 C 0.36627 0.36684 0.70744
 C2597 C 0.34829 0.37956 0.72777
 C2598 C 0.35955 0.39155 0.75280
 C2599 C 0.38910 0.39121 0.75805
 C2600 C 0.40600 0.37585 0.73907
 C2601 C 0.43301 0.38399 0.72463
 C2602 C 0.42085 0.37097 0.69774
 H2603 H 0.32562 0.38065 0.72423
 H2604 H 0.34512 0.40133 0.76774
 H2605 H 0.45154 0.37213 0.73312
 H2606 H 0.43588 0.40734 0.72325
 H2607 H 0.43238 0.35162 0.69080
 H2608 H 0.41666 0.38674 0.68070
 C2609 C 1.14321 0.88834 1.28013
 C2610 C 1.12712 0.87158 1.29889
 C2611 C 1.09766 0.86955 1.29294
 C2612 C 1.08601 0.88147 1.26803
 C2613 C 1.10341 0.89547 1.24801
 C2614 C 1.13177 0.89972 1.25556
 C2615 C 1.15806 0.89438 1.23875
 C2616 C 1.17070 0.88180 1.26554
 H2617 H 1.08330 0.85897 1.30738
 H2618 H 1.06347 0.87916 1.26431
 H2619 H 1.16862 0.91436 1.23205
 H2620 H 1.15480 0.87856 1.22156
 H2621 H 1.18865 0.89454 1.27398
 H2622 H 1.17483 0.85865 1.26395
 C2623 C 1.14251 0.38945 0.78158
 C2624 C 1.12630 0.37277 0.80031
 C2625 C 1.09691 0.37056 0.79405
 C2626 C 1.08548 0.38214 0.76888
 C2627 C 1.10304 0.39598 0.74889
 C2628 C 1.13128 0.40051 0.75675
 C2629 C 1.15782 0.39518 0.74032
 C2630 C 1.17022 0.38297 0.76740
 H2631 H 1.08243 0.36007 0.80844
 H2632 H 1.06300 0.37968 0.76495
 H2633 H 1.16832 0.41517 0.73355
 H2634 H 1.15490 0.37916 0.72327
 H2635 H 1.18797 0.39594 0.77594
 H2636 H 1.17455 0.35984 0.76611
 C2637 C 0.60092 0.86374 0.78780
 C2638 C 0.62965 0.86622 0.79487
 C2639 C 0.64806 0.87690 0.77372
 C2640 C 0.63723 0.88791 0.74810
 C2641 C 0.60771 0.88855 0.74297
 C2642 C 0.59027 0.87459 0.76262
 C2643 C 0.56343 0.88415 0.77647
 C2644 C 0.57512 0.87222 0.80410
 H2645 H 0.67076 0.87750 0.77722
 H2646 H 0.65198 0.89647 0.73269
 H2647 H 0.54463 0.87235 0.76851
 H2648 H 0.56118 0.90761 0.77660
 H2649 H 0.56305 0.85357 0.81199
 H2650 H 0.57966 0.88875 0.82030
 C2651 C 0.64243 0.39162 1.28214
 C2652 C 0.62683 0.37390 1.30039
 C2653 C 0.59747 0.37111 1.29433
 C2654 C 0.58559 0.38289 1.26946
 C2655 C 0.60271 0.39743 1.24958
 C2656 C 0.63082 0.40276 1.25754
 C2657 C 0.65758 0.39874 1.24107
 C2658 C 0.67040 0.38649 1.26791
 H2659 H 0.58343 0.35979 1.30854
 H2660 H 0.56316 0.37984 1.26561
 H2661 H 0.66738 0.41922 1.23472
 H2662 H 0.65528 0.38296 1.22369
 H2663 H 0.68760 0.39995 1.27678
 H2664 H 0.67562 0.36357 1.26616
 C2665 C 0.88997 1.14249 1.28111
 C2666 C 0.87648 1.12527 1.30122
 C2667 C 0.87736 1.09568 1.29655
 C2668 C 0.88818 1.08455 1.27092
 C2669 C 0.89853 1.10274 1.24947
 C2670 C 0.90070 1.13156 1.25606
 C2671 C 0.89173 1.15692 1.23936
 C2672 C 0.87991 1.16893 1.26687
 H2673 H 0.86898 1.08111 1.31220
 H2674 H 0.88770 1.06185 1.26766
 H2675 H 0.87509 1.15189 1.22341
 H2676 H 0.91018 1.16907 1.23107
 H2677 H 0.85639 1.17088 1.26692
 H2678 H 0.89156 1.18800 1.27433
 C2679 C 0.89256 0.64157 0.78393
 C2680 C 0.87849 0.62416 0.80347
 C2681 C 0.87876 0.59469 0.79802
 C2682 C 0.88955 0.58395 0.77221
 C2683 C 0.90041 0.60241 0.75124
 C2684 C 0.90318 0.63103 0.75862
 C2685 C 0.89489 0.65703 0.74259
 C2686 C 0.88322 0.66860 0.77036
 H2687 H 0.86994 0.57993 0.81325
 H2688 H 0.88863 0.56135 0.76846
 H2689 H 0.87821 0.65283 0.72643
 H2690 H 0.91365 0.66896 0.73471
 H2691 H 0.85975 0.67112 0.77036
 H2692 H 0.89529 0.68717 0.77841
 C2693 C 0.39524 1.13621 0.78569
 C2694 C 0.36601 1.13488 0.79081
 C2695 C 0.34879 1.12377 0.76894
 C2696 C 0.36102 1.11139 0.74464
 C2697 C 0.39079 1.10982 0.74157
 C2698 C 0.40728 1.12404 0.76178
 C2699 C 0.43273 1.11423 0.77787
 C2700 C 0.41952 1.12761 0.80410
 H2701 H 0.32589 1.12413 0.77074
 H2702 H 0.34712 1.10270 0.72856
 H2703 H 0.45242 1.12512 0.77079
 H2704 H 0.43418 1.09074 0.77908
 H2705 H 0.43161 1.14619 0.81209
 H2706 H 0.41329 1.11190 0.82058
 C2707 C 0.39925 0.63327 1.29049
 C2708 C 0.37038 0.63139 1.29724
 C2709 C 0.35198 0.62127 1.27584
 C2710 C 0.36289 0.61037 1.25020
 C2711 C 0.39245 0.60934 1.24531
 C2712 C 0.40996 0.62258 1.26529
 C2713 C 0.43640 0.61220 1.27928
 C2714 C 0.42464 0.62394 1.30694
 H2715 H 0.32924 0.62123 1.27903
 H2716 H 0.34816 0.60231 1.23453
 H2717 H 0.45556 0.62370 1.27169
 H2718 H 0.43813 0.58870 1.27908
 H2719 H 0.43703 0.64219 1.31525
 H2720 H 0.41953 0.60727 1.32284
 C2721 C 1.14324 1.27943 0.89121
 C2722 C 1.12617 1.29927 0.87716
 C2723 C 1.09651 1.29464 0.87799
 C2724 C 1.08523 1.26933 0.88940
 C2725 C 1.10330 1.24808 0.90037
 C2726 C 1.13217 1.25469 0.90248
 C2727 C 1.15759 1.23779 0.89403
 C2728 C 1.16975 1.26496 0.88163
 H2729 H 1.08203 1.31010 0.86916
 H2730 H 1.06248 1.26613 0.88887
 H2731 H 1.15262 1.22148 0.87773
 H2732 H 1.16964 1.22994 0.91273
 H2733 H 1.17185 1.26446 0.85812
 H2734 H 1.18880 1.27268 0.89320
 C2735 C 1.14480 0.77814 0.38960
 C2736 C 1.12761 0.79795 0.37565
 C2737 C 1.09796 0.79342 0.37683
 C2738 C 1.08675 0.76819 0.38847
 C2739 C 1.10489 0.74696 0.39934
 C2740 C 1.13380 0.75348 0.40112
 C2741 C 1.15907 0.73647 0.39248
 C2742 C 1.17116 0.76354 0.37980
 H2743 H 1.08343 0.80888 0.36810
 H2744 H 1.06399 0.76504 0.38821
 H2745 H 1.15388 0.72009 0.37633
 H2746 H 1.17130 0.72868 0.41108
 H2747 H 1.17300 0.76291 0.35627
 H2748 H 1.19036 0.77126 0.39112
 C2749 C 0.60405 1.28593 0.36372
 C2750 C 0.63258 1.29376 0.36751
 C2751 C 0.65032 1.27332 0.38074
 C2752 C 0.63909 1.24810 0.39216
 C2753 C 0.60971 1.24245 0.39109
 C2754 C 0.59302 1.26119 0.37524
 C2755 C 0.56551 1.27491 0.38272
 C2756 C 0.57749 1.30206 0.37020
 H2757 H 0.67302 1.27632 0.38220
 H2758 H 0.65352 1.23326 0.40207
 H2759 H 0.56195 1.27605 0.40603
 H2760 H 0.54751 1.26614 0.37026
 H2761 H 0.58089 1.31903 0.38622
 H2762 H 0.56620 1.30891 0.35065
 C2763 C 0.64285 0.78161 0.89404
 C2764 C 0.62588 0.80040 0.87858
 C2765 C 0.59646 0.79472 0.87772
 C2766 C 0.58544 0.76924 0.88894
 C2767 C 0.60362 0.74875 0.90114
 C2768 C 0.63207 0.75654 0.90492
 C2769 C 0.65865 0.74064 0.89823
 C2770 C 0.67047 0.76818 0.88632
 H2771 H 0.58207 0.80945 0.86756
 H2772 H 0.56288 0.76532 0.88718
 H2773 H 0.65538 0.72401 0.88183
 H2774 H 0.66984 0.73344 0.91770
 H2775 H 0.67409 0.76757 0.86300
 H2776 H 0.68839 0.77680 0.89899
 C2777 C 0.89450 1.28336 1.14245
 C2778 C 0.87759 1.30135 1.12571
 C2779 C 0.87555 1.29426 1.09650
 C2780 C 0.88689 1.26872 1.08589
 C2781 C 0.90030 1.24910 1.10411
 C2782 C 0.90526 1.25801 1.13203
 C2783 C 0.90025 1.24279 1.15934
 C2784 C 0.88842 1.27042 1.17083
 H2785 H 0.86523 1.30823 1.08152
 H2786 H 0.88440 1.26417 1.06353
 H2787 H 0.92039 1.23634 1.16977
 H2788 H 0.88404 1.22577 1.15742
 H2789 H 0.90177 1.27967 1.18792
 H2790 H 0.86533 1.26947 1.17564
 C2791 C 0.89557 0.78439 0.63902
 C2792 C 0.86684 0.79097 0.63540
 C2793 C 0.84936 0.76996 0.62318
 C2794 C 0.86122 0.74497 0.61193
 C2795 C 0.89087 0.74046 0.61248
 C2796 C 0.90725 0.75988 0.62785
 C2797 C 0.93420 0.77456 0.61999
 C2798 C 0.92137 0.80147 0.63229
 H2799 H 0.82665 0.77307 0.62169
 H2800 H 0.84718 0.72960 0.60227
 H2801 H 0.93753 0.77557 0.59663
 H2802 H 0.95260 0.76658 0.63239
 H2803 H 0.91726 0.81813 0.61610
 H2804 H 0.93237 0.80891 0.65177
 C2805 C 0.36388 1.28454 0.60434
 C2806 C 0.36751 1.29229 0.63292
 C2807 C 0.38101 1.27197 0.65059
 C2808 C 0.39260 1.24686 0.63928
 C2809 C 0.39150 1.24124 0.60988
 C2810 C 0.37559 1.25996 0.59324
 C2811 C 0.38310 1.27386 0.56582
 C2812 C 0.37039 1.30085 0.57786
 H2813 H 0.38248 1.27490 0.67329
 H2814 H 0.40263 1.23206 0.65368
 H2815 H 0.37077 1.26510 0.54772
 H2816 H 0.40642 1.27518 0.56236
 H2817 H 0.35087 1.30762 0.56648
 H2818 H 0.38630 1.31790 0.58139
 C2819 C 0.36001 0.78301 1.10825
 C2820 C 0.37600 0.80142 1.12540
 C2821 C 0.40500 0.79421 1.12919
 C2822 C 0.41614 0.76851 1.11861
 C2823 C 0.39862 0.74887 1.10430
 C2824 C 0.37088 0.75759 1.09831
 C2825 C 0.34351 0.74229 1.10268
 C2826 C 0.33148 0.77006 1.11355
 H2827 H 0.41944 0.80829 1.14011
 H2828 H 0.43836 0.76399 1.12215
 H2829 H 0.34497 0.72560 1.11929
 H2830 H 0.33378 0.73539 1.08233
 H2831 H 0.32580 0.76953 1.13646
 H2832 H 0.31488 0.77891 1.09935
 C2833 C 0.85678 0.71781 0.89366
 C2834 C 0.87447 0.69830 0.87997
 C2835 C 0.90393 0.70406 0.88028
 C2836 C 0.91437 0.73010 0.89069
 C2837 C 0.89562 0.75101 0.90113
 C2838 C 0.86703 0.74336 0.90391
 C2839 C 0.84086 0.75893 0.89525
 C2840 C 0.82961 0.73090 0.88400
 H2841 H 0.91889 0.68889 0.87175
 H2842 H 0.93697 0.73409 0.88981
 H2843 H 0.84496 0.77485 0.87832
 H2844 H 0.82875 0.76695 0.91384
 H2845 H 0.82718 0.73051 0.86052
 H2846 H 0.81105 0.72283 0.89613
 C2847 C 0.89796 0.21185 0.36866
 C2848 C 0.86930 0.20445 0.37137
 C2849 C 0.85082 0.22533 0.38233
 C2850 C 0.86154 0.25119 0.39291
 C2851 C 0.89101 0.25683 0.39280
 C2852 C 0.90848 0.23722 0.37900
 C2853 C 0.93552 0.22383 0.38859
 C2854 C 0.92398 0.19596 0.37723
 H2855 H 0.82816 0.22166 0.38310
 H2856 H 0.84675 0.26649 0.40150
 H2857 H 0.93797 0.22411 0.41206
 H2858 H 0.95415 0.23178 0.37647
 H2859 H 0.91971 0.18002 0.39410
 H2860 H 0.93599 0.18790 0.35860
 C2861 C 0.35936 0.71604 0.39681
 C2862 C 0.37488 0.69875 0.37816
 C2863 C 0.40369 0.70635 0.37376
 C2864 C 0.41484 0.73183 0.38476
 C2865 C 0.39747 0.75087 0.40003
 C2866 C 0.37020 0.74136 0.40709
 C2867 C 0.34230 0.75612 0.40467
 C2868 C 0.33032 0.72846 0.39349
 H2869 H 0.41784 0.69288 0.36175
 H2870 H 0.43684 0.73679 0.38050
 H2871 H 0.34253 0.77339 0.38860
 H2872 H 0.33346 0.76209 0.42572
 H2873 H 0.32342 0.72963 0.37095
 H2874 H 0.31471 0.71869 0.40824
 C2875 C 0.39187 0.21702 0.86028
 C2876 C 0.36355 0.20903 0.86518
 C2877 C 0.34664 0.22866 0.88049
 C2878 C 0.35854 0.25335 0.89239
 C2879 C 0.38786 0.25912 0.88996
 C2880 C 0.40362 0.24110 0.87242
 C2881 C 0.43138 0.22690 0.87777
 C2882 C 0.41862 0.20047 0.86453
 H2883 H 0.32407 0.22550 0.88310
 H2884 H 0.34462 0.26768 0.90367
 H2885 H 0.43608 0.22453 0.90078
 H2886 H 0.44880 0.23620 0.86487
 H2887 H 0.41595 0.18270 0.87982
 H2888 H 0.42886 0.19463 0.84409
 C2889 C 1.10381 0.71526 1.14142
 C2890 C 1.12111 0.69740 1.12494
 C2891 C 1.12374 0.70469 1.09582
 C2892 C 1.11237 0.73020 1.08507
 C2893 C 1.09840 0.74963 1.10308
 C2894 C 1.09305 0.74057 1.13089
 C2895 C 1.09753 0.75572 1.15831
 C2896 C 1.10935 0.72814 1.16992
 H2897 H 1.13451 0.69088 1.08102
 H2898 H 1.11526 0.73485 1.06277
 H2899 H 1.07718 0.76200 1.16846
 H2900 H 1.11366 0.77286 1.15667
 H2901 H 1.09578 0.71875 1.18680
 H2902 H 1.13235 0.72923 1.17508
 C2903 C 1.10600 0.21589 0.64016
 C2904 C 1.13437 0.20818 0.63512
 C2905 C 1.15108 0.22800 0.61984
 C2906 C 1.13894 0.25257 0.60797
 C2907 C 1.10956 0.25799 0.61040
 C2908 C 1.09400 0.23985 0.62804
 C2909 C 1.06634 0.22540 0.62283
 C2910 C 1.07937 0.19910 0.63606
 H2911 H 1.17369 0.22507 0.61720
 H2912 H 1.15271 0.26706 0.59668
 H2913 H 1.06155 0.22299 0.59984
 H2914 H 1.04889 0.23456 0.63579
 H2915 H 1.08212 0.18134 0.62080
 H2916 H 1.06928 0.19318 0.65656
 C2917 C 0.64289 0.72048 0.61095
 C2918 C 0.62615 0.70065 0.62542
 C2919 C 0.59645 0.70502 0.62501
 C2920 C 0.58480 0.73010 0.61351
 C2921 C 0.60256 0.75134 0.60202
 C2922 C 0.63147 0.74500 0.59959
 C2923 C 0.65682 0.76223 0.60755
 C2924 C 0.66938 0.73530 0.62005
 H2925 H 0.58221 0.68951 0.63419
 H2926 H 0.56204 0.73311 0.61431
 H2927 H 0.65190 0.77864 0.62375
 H2928 H 0.66857 0.77002 0.58862
 H2929 H 0.67175 0.73604 0.64352
 H2930 H 0.68836 0.72766 0.60831
 C2931 C 0.63902 0.21641 1.10723
 C2932 C 0.62296 0.19840 1.12480
 C2933 C 0.59399 0.20576 1.12844
 C2934 C 0.58296 0.23130 1.11736
 C2935 C 0.60059 0.25067 1.10273
 C2936 C 0.62826 0.24170 1.09681
 C2937 C 0.65573 0.25693 1.10076
 C2938 C 0.66763 0.22931 1.11215
 H2939 H 0.57951 0.19194 1.13965
 H2940 H 0.56076 0.23596 1.12085
 H2941 H 0.65441 0.27394 1.11703
 H2942 H 0.66543 0.26338 1.08023
 H2943 H 0.67338 0.23024 1.13502
 H2944 H 0.68414 0.22010 1.09806
 C2945 C 1.28347 1.10506 0.86186
 C2946 C 1.28872 1.13422 0.86360
 C2947 C 1.26679 1.15137 0.87467
 C2948 C 1.24225 1.13908 0.88658
 C2949 C 1.23903 1.10933 0.88773
 C2950 C 1.25934 1.09298 0.87355
 C2951 C 1.27514 1.06735 0.88327
 C2952 C 1.30163 1.08061 0.87044
 H2953 H 1.26876 1.17422 0.87468
 H2954 H 1.22616 1.15289 0.89536
 H2955 H 1.26815 1.04787 0.87199
 H2956 H 1.27597 1.06555 0.90679
 H2957 H 1.30987 1.06874 0.85180
 H2958 H 1.31787 1.08653 0.88650
 C2959 C 1.27989 0.64234 0.39179
 C2960 C 1.29934 0.62570 0.37678
 C2961 C 1.29415 0.59622 0.37576
 C2962 C 1.26871 0.58476 0.38673
 C2963 C 1.24785 0.60253 0.39888
 C2964 C 1.25493 0.63112 0.40245
 C2965 C 1.23842 0.65715 0.39520
 C2966 C 1.26585 0.66947 0.38350
 H2967 H 1.30935 0.58210 0.36594
 H2968 H 1.26519 0.56216 0.38503
 H2969 H 1.23067 0.66838 0.41443
 H2970 H 1.22208 0.65325 0.37863
 H2971 H 1.27379 0.68775 0.39605
 H2972 H 1.26547 0.67277 0.36013
 C2973 C 0.78082 1.10792 0.35822
 C2974 C 0.79981 1.12312 0.37522
 C2975 C 0.79427 1.12375 0.40469
 C2976 C 0.76881 1.11244 0.41575
 C2977 C 0.74823 1.10035 0.39758
 C2978 C 0.75580 1.09693 0.36903
 C2979 C 0.73967 1.10393 0.34267
 C2980 C 0.76715 1.11598 0.33080
 H2981 H 0.80915 1.13363 0.41911
 H2982 H 0.76499 1.11395 0.43835
 H2983 H 0.72303 1.12024 0.34627
 H2984 H 0.73240 1.08462 0.33129
 H2985 H 0.76650 1.13931 0.32748
 H2986 H 0.77566 1.10357 0.31264
 C2987 C 0.78159 0.60711 0.85936
 C2988 C 0.80112 0.62100 0.87689
 C2989 C 0.79555 0.62070 0.90639
 C2990 C 0.76965 0.61005 0.91704
 C2991 C 0.74868 0.59938 0.89848
 C2992 C 0.75617 0.59664 0.86983
 C2993 C 0.74031 0.60509 0.84374
 C2994 C 0.76820 0.61659 0.83226
 H2995 H 0.81077 0.62941 0.92121
 H2996 H 0.76582 0.61092 0.93968
 H2997 H 0.72424 0.62185 0.84792
 H2998 H 0.73236 0.58644 0.83173
 H2999 H 0.76837 0.64003 0.82977
 H3000 H 0.77626 0.60453 0.81367
 C3001 C 1.28030 0.85664 1.10973
 C3002 C 1.30033 0.87443 1.12255
 C3003 C 1.29506 0.90390 1.12143
 C3004 C 1.26903 0.91442 1.11101
 C3005 C 1.24771 0.89572 1.10137
 C3006 C 1.25479 0.86698 1.09945
 C3007 C 1.23879 0.84149 1.10929
 C3008 C 1.26679 0.83014 1.12058
 H3009 H 1.31061 0.91883 1.12929
 H3010 H 1.26539 0.93707 1.11124
 H3011 H 1.23026 0.82891 1.09127
 H3012 H 1.22318 0.84651 1.12627
 H3013 H 1.27427 0.81103 1.10904
 H3014 H 1.26747 0.82854 1.14413
 C3015 C 1.27904 0.35436 0.60982
 C3016 C 1.29831 0.37102 0.62507
 C3017 C 1.29342 0.40057 0.62540
 C3018 C 1.26826 0.41205 0.61385
 C3019 C 1.24740 0.39424 0.60172
 C3020 C 1.25440 0.36560 0.59851
 C3021 C 1.23761 0.33966 0.60548
 C3022 C 1.26467 0.32731 0.61790
 H3023 H 1.30850 0.41474 0.63533
 H3024 H 1.26483 0.43468 0.61526
 H3025 H 1.23030 0.32836 0.58611
 H3026 H 1.22086 0.34370 0.62162
 H3027 H 1.27290 0.30893 0.60566
 H3028 H 1.26368 0.32416 0.64128
 C3029 C 0.77737 0.85321 0.61043
 C3030 C 0.79674 0.87012 0.62529
 C3031 C 0.79234 0.89973 0.62452
 C3032 C 0.76745 0.91116 0.61240
 C3033 C 0.74640 0.89326 0.60078
 C3034 C 0.75297 0.86442 0.59854
 C3035 C 0.73576 0.83897 0.60623
 C3036 C 0.76255 0.82666 0.61928
 H3037 H 0.80757 0.91402 0.63403
 H3038 H 0.76435 0.93388 0.61302
 H3039 H 0.72844 0.82714 0.58719
 H3040 H 0.71895 0.84377 0.62210
 H3041 H 0.77062 0.80776 0.60773
 H3042 H 0.76134 0.82429 0.64274
 C3043 C 0.78134 0.35625 1.10779
 C3044 C 0.80082 0.37378 1.12175
 C3045 C 0.79511 0.40319 1.12164
 C3046 C 0.76912 0.41374 1.11111
 C3047 C 0.74821 0.39514 1.10039
 C3048 C 0.75584 0.36660 1.09745
 C3049 C 0.74015 0.34040 1.10579
 C3050 C 0.76813 0.32904 1.11714
 H3051 H 0.81026 0.41802 1.13044
 H3052 H 0.76518 0.43631 1.11213
 H3053 H 0.73223 0.32847 1.08706
 H3054 H 0.72410 0.34435 1.12265
 H3055 H 0.77627 0.31062 1.10491
 H3056 H 0.76836 0.32640 1.14060
 C3057 C 0.71843 1.14274 1.11043
 C3058 C 0.69837 1.12521 1.12353
 C3059 C 0.70352 1.09570 1.12289
 C3060 C 0.72948 1.08494 1.11255
 C3061 C 0.75084 1.10343 1.10255
 C3062 C 0.74388 1.13217 1.10026
 C3063 C 0.76000 1.15771 1.10972
 C3064 C 0.73206 1.16932 1.12089
 H3065 H 0.68792 1.08096 1.13104
 H3066 H 0.73303 1.06228 1.11309
 H3067 H 0.76857 1.17003 1.09151
 H3068 H 0.77560 1.15283 1.12674
 H3069 H 0.72466 1.18832 1.10909
 H3070 H 0.73140 1.17123 1.14441
 C3071 C 0.71326 0.60213 0.63549
 C3072 C 0.70617 0.63080 0.63263
 C3073 C 0.72720 0.64900 0.62143
 C3074 C 0.75283 0.63800 0.61060
 C3075 C 0.75806 0.60851 0.61066
 C3076 C 0.73841 0.59132 0.62483
 C3077 C 0.72458 0.56441 0.61559
 C3078 C 0.69695 0.57628 0.62729
 H3079 H 0.72372 0.67166 0.62056
 H3080 H 0.76823 0.65258 0.60178
 H3081 H 0.73249 0.54579 0.62769
 H3082 H 0.72451 0.56184 0.59212
 H3083 H 0.68900 0.56447 0.64612
 H3084 H 0.68080 0.58062 0.61064
 C3085 C 0.21521 1.10498 0.63714
 C3086 C 0.20965 1.13408 0.63557
 C3087 C 0.23124 1.15154 0.62426
 C3088 C 0.25579 1.13960 0.61204
 C3089 C 0.25936 1.10991 0.61084
 C3090 C 0.23934 1.09326 0.62515
 C3091 C 0.22372 1.06751 0.61545
 C3092 C 0.19722 1.08039 0.62861
 H3093 H 0.22903 1.17437 0.62435
 H3094 H 0.27166 1.15364 0.60318
 H3095 H 0.23103 1.04804 0.62655
 H3096 H 0.22268 1.06586 0.59192
 H3097 H 0.18929 1.06831 0.64727
 H3098 H 0.18076 1.08623 0.61274
 C3099 C 0.21827 0.64296 1.10928
 C3100 C 0.19856 0.62557 1.12310
 C3101 C 0.20420 0.59613 1.12328
 C3102 C 0.23028 0.58543 1.11311
 C3103 C 0.25138 0.60389 1.10247
 C3104 C 0.24386 0.63245 1.09931
 C3105 C 0.25954 0.65864 1.10772
 C3106 C 0.23144 0.67015 1.11864
 H3107 H 0.18888 0.58140 1.13198
 H3108 H 0.23410 0.56284 1.11427
 H3109 H 0.26777 0.67046 1.08902
 H3110 H 0.27534 0.65470 1.12480
 H3111 H 0.22353 0.68855 1.10620
 H3112 H 0.23090 0.67290 1.14208
 C3113 C 0.71902 0.89136 0.85732
 C3114 C 0.69904 0.87786 0.87470
 C3115 C 0.70358 0.87932 0.90435
 C3116 C 0.72905 0.89055 0.91541
 C3117 C 0.75046 0.90080 0.89710
 C3118 C 0.74391 0.90254 0.86819
 C3119 C 0.76078 0.89347 0.84295
 C3120 C 0.73346 0.88116 0.83101
 H3121 H 0.68800 0.87101 0.91904
 H3122 H 0.73228 0.89041 0.93816
 H3123 H 0.77693 0.87712 0.84824
 H3124 H 0.76885 0.91184 0.83056
 H3125 H 0.73371 0.85765 0.82937
 H3126 H 0.72588 0.89244 0.81173
 C3127 C 0.71317 0.39726 0.36617
 C3128 C 0.70760 0.36812 0.36717
 C3129 C 0.72962 0.35038 0.37712
 C3130 C 0.75462 0.36203 0.38868
 C3131 C 0.75826 0.39169 0.39045
 C3132 C 0.73778 0.40869 0.37738
 C3133 C 0.72266 0.43422 0.38834
 C3134 C 0.69560 0.42167 0.37604
 H3135 H 0.72740 0.32756 0.37652
 H3136 H 0.77079 0.34782 0.39667
 H3137 H 0.72955 0.45393 0.37738
 H3138 H 0.72261 0.43533 0.41192
 H3139 H 0.68693 0.43420 0.35804
 H3140 H 0.67981 0.41546 0.39246
 C3141 C 0.21398 0.89651 0.36386
 C3142 C 0.20733 0.86772 0.36656
 C3143 C 0.22856 0.84978 0.37770
 C3144 C 0.25393 0.86114 0.38875
 C3145 C 0.25864 0.89073 0.38900
 C3146 C 0.23887 0.90767 0.37474
 C3147 C 0.22455 0.93433 0.38397
 C3148 C 0.19721 0.92207 0.37200
 H3149 H 0.22538 0.82707 0.37849
 H3150 H 0.26948 0.84677 0.39762
 H3151 H 0.23229 0.95312 0.37199
 H3152 H 0.22424 0.93682 0.40744
 H3153 H 0.18926 0.93381 0.35316
 H3154 H 0.18098 0.91743 0.38851
 C3155 C 0.21270 0.39797 0.86604
 C3156 C 0.20592 0.36922 0.86885
 C3157 C 0.22702 0.35129 0.88028
 C3158 C 0.25237 0.36264 0.89142
 C3159 C 0.25722 0.39221 0.89148
 C3160 C 0.23758 0.40912 0.87701
 C3161 C 0.22329 0.43588 0.88599
 C3162 C 0.19598 0.42364 0.87394
 H3163 H 0.22378 0.32860 0.88117
 H3164 H 0.26782 0.34826 0.90045
 H3165 H 0.23116 0.45457 0.87396
 H3166 H 0.22284 0.43850 0.90945
 H3167 H 0.18817 0.43530 0.85497
 H3168 H 0.17963 0.41915 0.89038
   
