data_POSCAR
  _audit_creation_date              2014-09-24
  _audit_creation_method            'ToBaCCo'
  _symmetry_space_group_name_H-M    'P1'
  _symmetry_Int_Tables_number       1
  _symmetry_cell_setting            triclinic
  loop_
  _symmetry_equiv_pos_as_xyz
 x,y,z
_cell_length_a 41.8356
_cell_length_b 41.8501
_cell_length_c 36.2512
_cell_angle_alpha 90.146100
_cell_angle_beta 89.695600
_cell_angle_gamma 90.300000
loop_
  _atom_site_label
  _atom_site_type_symbol
  _atom_site_fract_x
  _atom_site_fract_y
  _atom_site_fract_z
C1 C 0.34970 -0.00220 0.25205
 C2 C 0.15002 -0.00004 0.75334
 C3 C 0.65047 0.49757 0.25019
 C4 C 0.85043 0.50035 0.74638
 C5 C 0.24834 0.39864 0.99795
 C6 C 0.74987 0.09961 1.00261
 C7 C 0.25230 0.59856 0.50050
 C8 C 0.75138 0.89856 0.49750
 C9 C 0.00097 0.24660 0.37555
 C10 C 0.00193 0.74934 0.12414
 C11 C 0.50290 0.24941 0.62579
 C12 C 0.49882 0.74836 0.87557
 C13 C -0.25228 0.60223 0.99826
 C14 C -0.24931 0.40055 0.49737
 C15 C 0.24748 -0.09858 0.00159
 C16 C 0.25180 1.10151 0.50320
 C17 C 0.14962 0.50066 0.25080
 C18 C -0.15042 1.00195 0.24878
 C19 C 0.34996 0.50182 -0.25391
 C20 C 0.64984 0.00015 -0.24602
 C21 C -0.00320 0.25208 0.87489
 C22 C 0.49957 0.25209 0.12403
 C23 C 0.00230 0.75120 0.62502
 C24 C 0.49782 0.75146 0.37517
 B25 B -0.02220 0.02014 1.02931
 B26 B -0.03765 0.00736 0.98922
 B27 B -0.01004 0.03666 0.98963
 B28 B 0.01687 0.02896 1.02295
 B29 B 0.00538 -0.00614 1.04317
 B30 B -0.02876 -0.01930 1.02232
 B31 B 0.01873 -0.01840 0.97068
 B32 B 0.03418 -0.00565 1.01078
 B33 B 0.00656 -0.03493 1.01035
 B34 B -0.02033 -0.02723 0.97704
 B35 B -0.00885 0.00787 0.95681
 B36 B 0.02531 0.02103 0.97767
 B37 B 0.48201 0.51936 0.52924
 B38 B 0.46610 0.50654 0.48940
 B39 B 0.49373 0.53582 0.48935
 B40 B 0.52100 0.52816 0.52227
 B41 B 0.50975 0.49309 0.54274
 B42 B 0.47535 0.47992 0.52243
 B43 B 0.52228 0.48071 0.47007
 B44 B 0.53819 0.49355 0.50991
 B45 B 0.51057 0.46425 0.50997
 B46 B 0.48328 0.47192 0.47704
 B47 B 0.49454 0.50698 0.45657
 B48 B 0.52893 0.52016 0.47688
 B49 B 0.52051 0.98340 0.53356
 B50 B 0.53765 0.99092 0.49238
 B51 B 0.50869 0.96296 0.49627
 B52 B 0.48136 0.97571 0.52735
 B53 B 0.49387 1.01237 0.54271
 B54 B 0.52909 1.02139 0.52115
 B55 B 0.48301 1.01671 0.46867
 B56 B 0.46589 1.00919 0.50986
 B57 B 0.49486 1.03716 0.50593
 B58 B 0.52218 1.02441 0.47486
 B59 B 0.50966 0.98776 0.45951
 B60 B 0.47445 0.97873 0.48107
 B61 B 0.01590 0.48415 1.03343
 B62 B 0.03387 0.49113 0.99258
 B63 B 0.00471 0.46334 0.99613
 B64 B -0.02316 0.47655 1.02627
 B65 B -0.01079 0.51332 1.04140
 B66 B 0.02490 0.52195 1.02067
 B67 B -0.02012 0.51689 0.96700
 B68 B -0.03811 0.50991 1.00783
 B69 B -0.00895 0.53769 1.00430
 B70 B 0.01893 0.52448 0.97416
 B71 B 0.00654 0.48771 0.95903
 B72 B -0.02913 0.47909 0.97975
 B73 B 0.02287 0.51814 0.47159
 B74 B 0.03821 0.50614 0.51189
 B75 B 0.01029 0.53484 0.51104
 B76 B -0.01632 0.52620 0.47755
 B77 B -0.00435 0.49113 0.45769
 B78 B 0.02980 0.47893 0.47895
 B79 B -0.01802 0.47936 0.53017
 B80 B -0.03336 0.49137 0.48987
 B81 B -0.00541 0.46266 0.49073
 B82 B 0.02117 0.47131 0.52423
 B83 B 0.00920 0.50636 0.54407
 B84 B -0.02495 0.51858 0.52282
 B85 B 0.51873 0.01743 -0.02765
 B86 B 0.53479 0.00656 0.01270
 B87 B 0.50673 0.03512 0.01150
 B88 B 0.47966 0.02552 -0.02111
 B89 B 0.49138 -0.01010 -0.04006
 B90 B 0.52594 -0.02153 -0.01910
 B91 B 0.47899 -0.01994 0.03312
 B92 B 0.46286 -0.00893 -0.00725
 B93 B 0.49092 -0.03763 -0.00599
 B94 B 0.51809 -0.02793 0.02659
 B95 B 0.50632 0.00752 0.04549
 B96 B 0.47181 0.01906 0.02461
 B97 B 0.47873 0.48388 -0.03246
 B98 B 0.46148 0.49184 0.00856
 B99 B 0.48947 0.46321 0.00493
 B100 B 0.51755 0.47526 -0.02575
 B101 B 0.50643 0.51218 -0.04107
 B102 B 0.47134 0.52206 -0.01994
 B103 B 0.51673 0.51634 0.03315
 B104 B 0.53398 0.50839 -0.00788
 B105 B 0.50596 0.53702 -0.00422
 B106 B 0.47791 0.52496 0.02645
 B107 B 0.48902 0.48805 0.04178
 B108 B 0.52413 0.47815 0.02064
 B109 B -0.01570 0.98192 0.46484
 B110 B -0.03342 0.98968 0.50564
 B111 B -0.00522 0.96118 0.50231
 B112 B 0.02310 0.97344 0.47208
 B113 B 0.01200 1.01035 0.45672
 B114 B -0.02338 1.02004 0.47738
 B115 B 0.02143 1.01438 0.53112
 B116 B 0.03918 1.00660 0.49034
 B117 B 0.01103 1.03508 0.49364
 B118 B -0.01734 1.02284 0.52386
 B119 B -0.00623 0.98593 0.53923
 B120 B 0.02915 0.97627 0.51860
 B121 B 0.76921 0.22905 0.22090
 B122 B 0.75633 0.21375 0.26113
 B123 B 0.78586 0.24112 0.26047
 B124 B 0.77835 0.26804 0.22705
 B125 B 0.74314 0.25683 0.20702
 B126 B 0.72971 0.22282 0.22808
 B127 B 0.73100 0.27037 0.27951
 B128 B 0.74389 0.28566 0.23927
 B129 B 0.71435 0.25830 0.23992
 B130 B 0.72186 0.23137 0.27335
 B131 B 0.75708 0.24258 0.29338
 B132 B 0.77051 0.27659 0.27233
 B133 B 0.73070 0.76930 0.71638
 B134 B 0.74087 0.78599 0.75695
 B135 B 0.71235 0.75743 0.75515
 B136 B 0.72287 0.73013 0.72294
 B137 B 0.75857 0.74236 0.70477
 B138 B 0.76948 0.77727 0.72571
 B139 B 0.76726 0.73083 0.77814
 B140 B 0.75723 0.71421 0.73764
 B141 B 0.78559 0.74277 0.73928
 B142 B 0.77518 0.76996 0.77159
 B143 B 0.73927 0.75778 0.78980
 B144 B 0.72850 0.72285 0.76877
 B145 B 0.26921 0.27138 0.77885
 B146 B 0.25781 0.28666 0.73830
 B147 B 0.28597 0.25818 0.73970
 B148 B 0.27655 0.23201 0.77347
 B149 B 0.24157 0.24479 0.79290
 B150 B 0.23018 0.27901 0.77113
 B151 B 0.23009 0.23085 0.72053
 B152 B 0.24150 0.21557 0.76108
 B153 B 0.21333 0.24405 0.75969
 B154 B 0.22275 0.27022 0.72591
 B155 B 0.25774 0.25744 0.70648
 B156 B 0.26912 0.22322 0.72825
 B157 B 0.23250 0.72885 0.28208
 B158 B 0.24226 0.71323 0.24073
 B159 B 0.21278 0.74034 0.24434
 B160 B 0.22303 0.76763 0.27667
 B161 B 0.25971 0.75696 0.29307
 B162 B 0.27129 0.72291 0.27088
 B163 B 0.26603 0.76991 0.21953
 B164 B 0.25626 0.78553 0.26088
 B165 B 0.28574 0.75843 0.25726
 B166 B 0.27550 0.73113 0.22494
 B167 B 0.23882 0.74181 0.20854
 B168 B 0.22725 0.77586 0.23073
 B169 B 0.26765 0.73231 0.71750
 B170 B 0.25764 0.71477 0.75767
 B171 B 0.28697 0.74247 0.75613
 B172 B 0.27683 0.77095 0.72546
 B173 B 0.24036 0.76042 0.70798
 B174 B 0.22880 0.72526 0.72784
 B175 B 0.23335 0.77008 0.78215
 B176 B 0.24335 0.78762 0.74199
 B177 B 0.21403 0.75994 0.74351
 B178 B 0.22416 0.73144 0.77418
 B179 B 0.26064 0.74197 0.79166
 B180 B 0.27218 0.77714 0.77181
 B181 B 0.23341 0.26692 0.21679
 B182 B 0.24093 0.28530 0.25716
 B183 B 0.21315 0.25608 0.25471
 B184 B 0.22597 0.22794 0.22472
 B185 B 0.26251 0.24022 0.20857
 B186 B 0.27139 0.27610 0.22854
 B187 B 0.26716 0.23160 0.28302
 B188 B 0.25963 0.21323 0.24265
 B189 B 0.28743 0.24244 0.24508
 B190 B 0.27460 0.27058 0.27508
 B191 B 0.23805 0.25830 0.29123
 B192 B 0.22918 0.22244 0.27126
 B193 B 0.76871 0.76911 0.27863
 B194 B 0.75752 0.78608 0.23888
 B195 B 0.78568 0.75758 0.23890
 B196 B 0.77609 0.73002 0.27108
 B197 B 0.74101 0.74197 0.29096
 B198 B 0.72973 0.77707 0.27106
 B199 B 0.72993 0.73107 0.21780
 B200 B 0.74113 0.71410 0.25755
 B201 B 0.71295 0.74260 0.25756
 B202 B 0.72254 0.77016 0.22536
 B203 B 0.75765 0.75822 0.20549
 B204 B 0.76891 0.72312 0.22537
 B205 B 0.73346 0.23210 0.78401
 B206 B 0.74203 0.21429 0.74352
 B207 B 0.71290 0.24182 0.74621
 B208 B 0.72421 0.27061 0.77622
 B209 B 0.76120 0.26042 0.79208
 B210 B 0.77188 0.22515 0.77196
 B211 B 0.76575 0.26948 0.71761
 B212 B 0.75719 0.28729 0.75811
 B213 B 0.78631 0.25977 0.75542
 B214 B 0.77500 0.23097 0.72541
 B215 B 0.73801 0.24116 0.70954
 B216 B 0.72734 0.27643 0.72967
 C217 C 0.40698 1.02940 0.34143
 N218 N 0.37516 1.02419 0.34593
 N219 N 0.35731 1.01432 0.31776
 C220 C 0.37064 1.00873 0.28408
 N221 N 0.40230 1.01514 0.27942
 N222 N 0.42019 1.02486 0.30759
 C223 C 0.42741 1.03494 0.37358
 N224 N 0.45954 1.03137 0.37059
 N225 N 0.47754 1.02915 0.40064
 C226 C 0.46415 1.03065 0.43481
 N227 N 0.43230 1.03610 0.43763
 N228 N 0.41423 1.03817 0.40763
 C229 C -0.09294 0.53029 0.83704
 N230 N -0.07907 0.52403 0.80392
 N231 N -0.09671 0.51489 0.77527
 C232 C -0.12886 0.51094 0.77874
 N233 N -0.14277 0.51818 0.81169
 N234 N -0.12515 0.52742 0.84033
 C235 C -0.07316 0.53529 0.86986
 N236 N -0.08705 0.53919 0.90346
 N237 N -0.06977 0.53689 0.93407
 C238 C -0.03803 0.53059 0.93231
 N239 N -0.02390 0.52836 0.89859
 N240 N -0.04111 0.53076 0.86794
 C241 C 0.09752 -0.03396 0.84597
 N242 N 0.12757 -0.02209 0.84984
 N243 N 0.14394 -0.01158 0.82066
 C244 C 0.13076 -0.01201 0.78646
 N245 N 0.10122 -0.02527 0.78250
 N246 N 0.08472 -0.03558 0.81171
 C247 C 0.07763 -0.03981 0.87876
 N248 N 0.04535 -0.04181 0.87571
 N249 N 0.02671 -0.03907 0.90546
 C250 C 0.03962 -0.03447 0.93938
 N251 N 0.07192 -0.03448 0.94250
 N252 N 0.09058 -0.03709 0.91283
 C253 C 0.59941 0.46388 0.34401
 N254 N 0.62977 0.47512 0.34712
 N255 N 0.64577 0.48542 0.31756
 C256 C 0.63187 0.48545 0.28374
 N257 N 0.60202 0.47274 0.28051
 N258 N 0.58593 0.46261 0.31009
 C259 C 0.57994 0.45848 0.37725
 N260 N 0.54761 0.45666 0.37480
 N261 N 0.52937 0.45974 0.40483
 C262 C 0.54275 0.46451 0.43848
 N263 N 0.57509 0.46436 0.44103
 N264 N 0.59335 0.46140 0.41106
 C265 C 0.59256 0.52801 0.16121
 N266 N 0.62458 0.52445 0.15692
 N267 N 0.64258 0.51495 0.18499
 C268 C 0.62924 0.50814 0.21839
 N269 N 0.59731 0.51276 0.22284
 N270 N 0.57928 0.52213 0.19475
 C271 C 0.57217 0.53349 0.12904
 N272 N 0.54008 0.52924 0.13179
 N273 N 0.52217 0.52732 0.10160
 C274 C 0.53559 0.52979 0.06753
 N275 N 0.56740 0.53589 0.06499
 N276 N 0.58539 0.53767 0.09513
 C277 C 0.09411 1.02813 0.66165
 N278 N 0.12635 1.02565 0.65880
 N279 N 0.14371 1.01695 0.68776
 C280 C 0.12951 1.00987 0.72061
 N281 N 0.09732 1.01342 0.72361
 N282 N 0.07994 1.02204 0.69465
 C283 C 0.07461 1.03277 0.62857
 N284 N 0.04246 1.02859 0.63030
 N285 N 0.02534 1.02614 0.59956
 C286 C 0.03965 1.02794 0.56590
 N287 N 0.07153 1.03384 0.56430
 N288 N 0.08873 1.03620 0.59502
 C289 C -0.09744 0.46527 0.65421
 N290 N -0.12689 0.47814 0.64996
 N291 N -0.14313 0.48920 0.67894
 C292 C -0.13035 0.48833 0.71332
 N293 N -0.10149 0.47404 0.71766
 N294 N -0.08510 0.46323 0.68864
 C295 C -0.07748 0.45876 0.62169
 N296 N -0.04525 0.45668 0.62499
 N297 N -0.02641 0.45904 0.59536
 C298 C -0.03910 0.46330 0.56131
 N299 N -0.07138 0.46329 0.55796
 N300 N -0.09023 0.46109 0.58751
 C301 C 0.40187 -0.03618 0.15931
 N302 N 0.41526 -0.03615 0.19329
 N303 N 0.39883 -0.02586 0.22250
 C304 C 0.36872 -0.01424 0.21882
 N305 N 0.35493 -0.01558 0.18496
 N306 N 0.37127 -0.02606 0.15576
 C307 C 0.42161 -0.04170 0.12638
 N308 N 0.40827 -0.04038 0.09243
 N309 N 0.42657 -0.03749 0.06248
 C310 C 0.45885 -0.03573 0.06523
 N311 N 0.47223 -0.03890 0.09907
 N312 N 0.45396 -0.04194 0.12908
 C313 C 0.33101 0.45292 0.02130
 N314 N 0.31052 0.46220 -0.00541
 N315 N 0.28367 0.44591 -0.01148
 C316 C 0.27615 0.41978 0.00906
 N317 N 0.29656 0.41075 0.03611
 N318 N 0.32346 0.42703 0.04213
 C319 C 0.36292 0.46722 0.02329
 N320 N 0.38545 0.45435 0.04546
 N321 N 0.41593 0.46321 0.04223
 C322 C 0.42505 0.48483 0.01641
 N323 N 0.40222 0.49908 -0.00419
 N324 N 0.37173 0.49027 -0.00101
 C325 C -0.16422 0.95098 0.51844
 N326 N -0.18535 0.96112 0.49282
 N327 N -0.21272 0.94547 0.48756
 C328 C -0.22014 0.91916 0.50785
 N329 N -0.19900 0.90920 0.53369
 N330 N -0.17161 0.92487 0.53895
 C331 C -0.13209 0.96491 0.51987
 N332 N -0.10961 0.95216 0.54220
 N333 N -0.07911 0.96099 0.53902
 C334 C -0.06990 0.98247 0.51307
 N335 N -0.09267 0.99652 0.49218
 N336 N -0.12319 0.98775 0.49534
 C337 C -0.16728 0.04686 0.97663
 N338 N -0.17424 0.07394 0.95790
 N339 N -0.20124 0.08963 0.96467
 C340 C -0.22243 0.07883 0.99037
 N341 N -0.21542 0.05161 1.00901
 N342 N -0.18846 0.03585 1.00214
 C343 C -0.13535 0.03283 0.97372
 N344 N -0.12772 0.00660 0.99370
 N345 N -0.09743 -0.00273 0.99635
 C346 C -0.07367 0.01400 0.97941
 N347 N -0.08152 0.03940 0.95823
 N348 N -0.11178 0.04865 0.95540
 C349 C 0.33658 0.54703 0.47706
 N350 N 0.31409 0.53464 0.50013
 N351 N 0.28679 0.55007 0.50626
 C352 C 0.28082 0.57840 0.48936
 N353 N 0.30344 0.59068 0.46630
 N354 N 0.33069 0.57525 0.46017
 C355 C 0.36849 0.53283 0.47456
 N356 N 0.39215 0.54842 0.45614
 N357 N 0.42232 0.53886 0.45881
 C358 C 0.43003 0.51340 0.47994
 N359 N 0.40616 0.49692 0.49708
 N360 N 0.37594 0.50653 0.49453
 C361 C 0.16790 0.54722 0.52557
 N362 N 0.17434 0.57545 0.54250
 N363 N 0.20177 0.59075 0.53609
 C364 C 0.22397 0.57836 0.51265
 N365 N 0.21747 0.55001 0.49580
 N366 N 0.19004 0.53467 0.50228
 C367 C 0.13577 0.53322 0.52801
 N368 N 0.12838 0.50621 0.50901
 N369 N 0.09811 0.49653 0.50611
 C370 C 0.07412 0.51363 0.52187
 N371 N 0.08171 0.53991 0.54200
 N372 N 0.11194 0.54954 0.54505
 C373 C 0.66429 0.04906 0.02507
 N374 N 0.66970 0.07832 0.04002
 N375 N 0.69725 0.09353 0.03414
 C376 C 0.72066 0.08000 0.01330
 N377 N 0.71522 0.05061 -0.00160
 N378 N 0.68758 0.03541 0.00423
 C379 C 0.63229 0.03475 0.02734
 N380 N 0.62507 0.00766 0.00838
 N381 N 0.59486 -0.00236 0.00578
 C382 C 0.57081 0.01446 0.02188
 N383 N 0.57830 0.04077 0.04197
 N384 N 0.60842 0.05076 0.04465
 C385 C 0.66749 0.95097 0.47709
 N386 N 0.67382 0.92398 0.45765
 N387 N 0.70103 0.90827 0.46272
 C388 C 0.72306 0.91907 0.48726
 N389 N 0.71669 0.94624 0.50652
 N390 N 0.68948 0.96191 0.50147
 C391 C 0.63559 0.96512 0.47608
 N392 N 0.62758 0.98859 0.50024
 N393 N 0.59729 0.99764 0.50398
 C394 C 0.57385 0.98326 0.48407
 N395 N 0.58218 0.96117 0.45841
 N396 N 0.61245 0.95204 0.45466
 C397 C 0.16354 0.45016 0.97906
 N398 N 0.16955 0.42279 0.96019
 N399 N 0.19689 0.40724 0.96496
 C400 C 0.21941 0.41863 0.98853
 N401 N 0.21331 0.44611 1.00733
 N402 N 0.18594 0.46159 1.00265
 C403 C 0.13173 0.46446 0.97803
 N404 N 0.12359 0.48756 1.00260
 N405 N 0.09333 0.49686 1.00593
 C406 C 0.07010 0.48313 0.98514
 N407 N 0.07861 0.46144 0.95910
 N408 N 0.10883 0.45202 0.95580
 C409 C -0.01114 0.33473 0.43229
 N410 N -0.01917 0.33139 0.39629
 N411 N -0.01590 0.30348 0.37910
 C412 C -0.00454 0.27752 0.39715
 N413 N 0.00344 0.28079 0.43336
 N414 N 0.00019 0.30887 0.45061
 C415 C -0.01277 0.36663 0.44957
 N416 N -0.00369 0.37190 0.48506
 N417 N -0.00295 0.40155 0.49888
 C418 C -0.01144 0.42693 0.47777
 N419 N -0.02058 0.42143 0.44246
 N420 N -0.02145 0.39196 0.42875
 C421 C 0.48643 -0.16637 -0.06193
 N422 N 0.46612 -0.17388 -0.08973
 N423 N 0.46932 -0.20109 -0.10848
 C424 C 0.49310 -0.22196 -0.10048
 N425 N 0.51318 -0.21456 -0.07223
 N426 N 0.50989 -0.18736 -0.05331
 C427 C 0.48469 -0.13469 -0.04415
 N428 N 0.50334 -0.12706 -0.01480
 N429 N 0.50375 -0.09733 -0.00133
 C430 C 0.48550 -0.07409 -0.01662
 N431 N 0.46692 -0.08191 -0.04586
 N432 N 0.46625 -0.11159 -0.05913
 C433 C 0.01570 -0.16233 1.06873
 N434 N 0.02006 -0.16493 1.10564
 N435 N 0.01671 -0.19294 1.12249
 C436 C 0.00912 -0.21978 1.10322
 N437 N 0.00493 -0.21722 1.06608
 N438 N 0.00817 -0.18905 1.04915
 C439 C 0.01671 -0.13040 1.05165
 N440 N 0.00956 -0.12571 1.01549
 N441 N 0.00783 -0.09614 1.00175
 C442 C 0.01332 -0.07028 1.02367
 N443 N 0.02063 -0.07519 1.05962
 N444 N 0.02245 -0.10456 1.07326
 C445 C 0.51781 0.33722 0.56947
 N446 N 0.51017 0.31039 0.55015
 N447 N 0.50645 0.28242 0.56740
 C448 C 0.51019 0.28018 0.60464
 N449 N 0.51776 0.30715 0.62367
 N450 N 0.52164 0.33495 0.60649
 C451 C 0.51964 0.36893 0.55191
 N452 N 0.52683 0.39478 0.57293
 N453 N 0.52558 0.42407 0.55897
 C454 C 0.51738 0.42890 0.52327
 N455 N 0.51050 0.40301 0.50191
 N456 N 0.51171 0.37352 0.51596
 C457 C 0.49246 1.16683 0.55795
 N458 N 0.51861 1.18602 0.55455
 N459 N 0.52141 1.21254 0.57488
 C460 C 0.49823 1.22090 0.59955
 N461 N 0.47193 1.20178 0.60239
 N462 N 0.46911 1.17539 0.58207
 C463 C 0.49072 1.13556 0.53914
 N464 N 0.46600 1.11539 0.54641
 N465 N 0.46619 1.08549 0.53378
 C466 C 0.49084 1.07446 0.51305
 N467 N 0.51524 1.09494 0.50496
 N468 N 0.51518 1.12490 0.51768
 C469 C -0.01029 0.66733 1.05578
 N470 N 0.01595 0.68634 1.05197
 N471 N 0.01931 0.71269 1.07246
 C472 C -0.00337 0.72106 1.09774
 N473 N -0.02980 0.70215 1.10095
 N474 N -0.03318 0.67592 1.08047
 C475 C -0.01253 0.63614 1.03688
 N476 N -0.03717 0.61604 1.04476
 N477 N -0.03725 0.58611 1.03220
 C478 C -0.01298 0.57501 1.01092
 N479 N 0.01131 0.59543 1.00221
 N480 N 0.01152 0.62542 1.01486
 C481 C 0.51034 0.66593 -0.05732
 N482 N 0.53297 0.67417 -0.08256
 N483 N 0.52982 0.70042 -0.10291
 C484 C 0.50379 0.71953 -0.09913
 N485 N 0.48146 0.71156 -0.07323
 N486 N 0.48462 0.68526 -0.05284
 C487 C 0.51216 0.63487 -0.03827
 N488 N 0.48862 0.62514 -0.01482
 N489 N 0.48818 0.59536 -0.00175
 C490 C 0.51129 0.57413 -0.01143
 N491 N 0.53509 0.58423 -0.03417
 N492 N 0.53567 0.61397 -0.04715
 C493 C 0.01555 1.16468 0.44268
 N494 N 0.03726 1.17295 0.41638
 N495 N 0.03341 1.19926 0.39628
 C496 C 0.00757 1.21842 0.40140
 N497 N -0.01370 1.21045 0.42846
 N498 N -0.00984 1.18413 0.44861
 C499 C 0.01762 1.13334 0.46109
 N500 N -0.00514 1.12370 0.48559
 N501 N -0.00567 1.09372 0.49808
 C502 C 0.01657 1.07220 0.48670
 N503 N 0.03958 1.08216 0.46279
 N504 N 0.04025 1.11210 0.45041
 C505 C 0.77996 0.65583 0.90588
 N506 N 0.77724 0.66996 0.93946
 N507 N 0.76719 0.65328 0.96859
 C508 C 0.75865 0.62202 0.96517
 N509 N 0.76242 0.60773 0.93170
 N510 N 0.77257 0.62435 0.90260
 C511 C 0.78599 0.67512 0.87278
 N512 N 0.78548 0.66118 0.83897
 N513 N 0.78358 0.67894 0.80867
 C514 C 0.78223 0.71127 0.81089
 N515 N 0.78456 0.72521 0.84466
 N516 N 0.78650 0.70749 0.87503
 C517 C 0.28186 0.15870 0.41278
 N518 N 0.27891 0.12653 0.40932
 N519 N 0.26969 0.10874 0.43790
 C520 C 0.26260 0.12242 0.47100
 N521 N 0.26665 0.15453 0.47465
 N522 N 0.27574 0.17235 0.44604
 C523 C 0.28667 0.17866 0.38000
 N524 N 0.28169 0.21063 0.38196
 N525 N 0.27898 0.22788 0.35134
 C526 C 0.28135 0.21389 0.31760
 N527 N 0.28814 0.18227 0.31577
 N528 N 0.29073 0.16494 0.34636
 C529 C 0.71640 0.34890 0.40452
 N530 N 0.71476 0.33589 0.43872
 N531 N 0.72517 0.35215 0.46797
 C532 C 0.73855 0.38166 0.46414
 N533 N 0.73894 0.39509 0.43001
 N534 N 0.72835 0.37894 0.40079
 C535 C 0.71040 0.32921 0.37165
 N536 N 0.71329 0.34226 0.33760
 N537 N 0.71563 0.32368 0.30787
 C538 C 0.71518 0.29138 0.31090
 N539 N 0.71042 0.27840 0.34483
 N540 N 0.70795 0.29696 0.37462
 C541 C 0.21681 0.84527 0.91056
 N542 N 0.22071 0.83171 0.94416
 N543 N 0.22986 0.84928 0.97292
 C544 C 0.23627 0.88099 0.96914
 N545 N 0.23119 0.89471 0.93571
 N546 N 0.22191 0.87717 0.90694
 C547 C 0.21232 0.82510 0.87781
 N548 N 0.21003 0.83851 0.84390
 N549 N 0.21309 0.82067 0.81363
 C550 C 0.21868 0.78885 0.81604
 N551 N 0.21926 0.77523 0.84999
 N552 N 0.21603 0.79299 0.88029
 C553 C 0.27974 0.84784 0.09334
 N554 N 0.27013 0.87857 0.09750
 N555 N 0.26018 0.89534 0.06860
 C556 C 0.25892 0.88189 0.03445
 N557 N 0.27000 0.85160 0.03019
 N558 N 0.27975 0.83475 0.05909
 C559 C 0.28508 0.82782 0.12586
 N560 N 0.28479 0.79550 0.12266
 N561 N 0.28226 0.77713 0.15250
 C562 C 0.28017 0.79036 0.18668
 N563 N 0.28232 0.82259 0.18984
 N564 N 0.28468 0.84101 0.16006
 C565 C 0.77974 0.34342 0.58775
 N566 N 0.77361 0.32973 0.55455
 N567 N 0.76487 0.34751 0.52595
 C568 C 0.76122 0.37964 0.52952
 N569 N 0.76833 0.39336 0.56255
 N570 N 0.77718 0.37560 0.59115
 C571 C 0.78434 0.32345 0.62051
 N572 N 0.78840 0.33708 0.65418
 N573 N 0.78597 0.31958 0.68472
 C574 C 0.77932 0.28786 0.68282
 N575 N 0.77689 0.27401 0.64902
 N576 N 0.77945 0.29142 0.61846
 C577 C 0.21639 0.15262 0.59591
 N578 N 0.22876 0.12291 0.59975
 N579 N 0.23996 0.10702 0.57061
 C580 C 0.23984 0.12043 0.53649
 N581 N 0.22605 0.14958 0.53254
 N582 N 0.21505 0.16560 0.56171
 C583 C 0.20973 0.17211 0.62871
 N584 N 0.20714 0.20433 0.62578
 N585 N 0.20935 0.22288 0.65559
 C586 C 0.21398 0.20991 0.68945
 N587 N 0.21450 0.17761 0.69245
 N588 N 0.21240 0.15905 0.66272
 C589 C 0.71496 0.65587 0.09042
 N590 N 0.72238 0.62450 0.09374
 N591 N 0.73264 0.60786 0.06470
 C592 C 0.73648 0.62203 0.03123
 N593 N 0.72791 0.65317 0.02775
 N594 N 0.71776 0.66987 0.05683
 C595 C 0.70907 0.67528 0.12352
 N596 N 0.70905 0.70765 0.12130
 N597 N 0.71150 0.72546 0.15167
 C598 C 0.71388 0.71162 0.18540
 N599 N 0.71193 0.67931 0.18761
 N600 N 0.70952 0.66147 0.15731
 C601 C 0.20452 0.58284 0.22623
 N602 N 0.17831 0.57553 0.20593
 N603 N 0.16182 0.54881 0.21237
 C604 C 0.17092 0.52834 0.23935
 N605 N 0.19737 0.53561 0.25939
 N606 N 0.21388 0.56229 0.25289
 C607 C 0.21899 0.61471 0.22393
 N608 N 0.24269 0.62327 0.24742
 N609 N 0.25137 0.65377 0.25086
 C610 C 0.23634 0.67685 0.23135
 N611 N 0.21414 0.66798 0.20619
 N612 N 0.20545 0.63750 0.20266
 C613 C 0.70385 0.08352 0.73247
 N614 N 0.71249 0.06320 0.75968
 N615 N 0.69629 0.03619 0.76528
 C616 C 0.67087 0.02838 0.74380
 N617 N 0.66247 0.04866 0.71632
 N618 N 0.67867 0.07569 0.71074
 C619 C 0.71808 0.11548 0.73051
 N620 N 0.70606 0.13756 0.70713
 N621 N 0.71478 0.16809 0.70990
 C622 C 0.73543 0.17771 0.73645
 N623 N 0.74887 0.15531 0.75840
 N624 N 0.74018 0.12476 0.75567
 C625 C 0.79595 0.08423 0.27463
 N626 N 0.82293 0.07738 0.29359
 N627 N 0.83888 0.05053 0.28692
 C628 C 0.82846 0.02937 0.26107
 N629 N 0.80133 0.03625 0.24225
 N630 N 0.78531 0.06306 0.24902
 C631 C 0.78172 0.11609 0.27735
 N632 N 0.75573 0.12367 0.25696
 N633 N 0.74635 0.15392 0.25408
 C634 C 0.76281 0.17772 0.27119
 N635 N 0.78791 0.16991 0.29281
 N636 N 0.79721 0.13967 0.29587
 C637 C 0.29506 0.58409 0.76828
 N638 N 0.31972 0.57618 0.79057
 N639 N 0.33602 0.54936 0.78485
 C640 C 0.32825 0.52934 0.75666
 N641 N 0.30332 0.53721 0.73462
 N642 N 0.28700 0.56399 0.74038
 C643 C 0.28091 0.61599 0.77048
 N644 N 0.25868 0.62512 0.74558
 N645 N 0.25011 0.65562 0.74305
 C646 C 0.26379 0.67817 0.76495
 N647 N 0.28462 0.66870 0.79122
 N648 N 0.29319 0.63820 0.79383
 C649 C 0.30082 0.41567 0.72323
 N650 N 0.28594 0.43950 0.74198
 N651 N 0.30079 0.46728 0.74788
 C652 C 0.33105 0.47231 0.73518
 N653 N 0.34577 0.44841 0.71631
 N654 N 0.33092 0.42072 0.71035
 C655 C 0.28668 0.38361 0.72127
 N656 N 0.30364 0.35931 0.70619
 N657 N 0.29353 0.32927 0.70948
 C658 C 0.26612 0.32233 0.72793
 N659 N 0.24849 0.34677 0.74184
 N660 N 0.25861 0.37689 0.73862
 C661 C 0.80000 0.91575 0.22726
 N662 N 0.78604 0.93900 0.24785
 N663 N 0.80092 0.96682 0.25338
 C664 C 0.83028 0.97250 0.23839
 N665 N 0.84412 0.94914 0.21779
 N666 N 0.82923 0.92140 0.21221
 C667 C 0.78595 0.88365 0.22517
 N668 N 0.80208 0.85991 0.20780
 N669 N 0.79213 0.82976 0.21033
 C670 C 0.76573 0.82214 0.23033
 N671 N 0.74889 0.84605 0.24662
 N672 N 0.75886 0.87627 0.24416
 C673 C 0.70179 0.91578 0.77353
 N674 N 0.67436 0.92173 0.79240
 N675 N 0.65872 0.94900 0.78752
 C676 C 0.67004 0.97150 0.76379
 N677 N 0.69762 0.96550 0.74505
 N678 N 0.71321 0.93821 0.74988
 C679 C 0.71593 0.88389 0.77436
 N680 N 0.73963 0.87603 0.75036
 N681 N 0.74857 0.84572 0.74640
 C682 C 0.73389 0.82218 0.76597
 N683 N 0.71153 0.83036 0.79141
 N684 N 0.70252 0.86062 0.79539
 C685 C 0.20032 0.41526 0.26917
 N686 N 0.21188 0.43754 0.24542
 N687 N 0.19669 0.46511 0.24088
 C688 C 0.16940 0.47152 0.25999
 N689 N 0.15789 0.44909 0.28370
 N690 N 0.17314 0.42157 0.28834
 C691 C 0.21437 0.38332 0.27033
 N692 N 0.20175 0.36060 0.29278
 N693 N 0.21108 0.33034 0.28987
 C694 C 0.23292 0.32160 0.26406
 N695 N 0.24675 0.34464 0.24294
 N696 N 0.23752 0.37494 0.24587
 C697 C 0.08521 0.24011 0.81838
 N698 N 0.05941 0.25141 0.79997
 N699 N 0.03129 0.25470 0.81719
 C700 C 0.02790 0.24682 0.85346
 N701 N 0.05381 0.23552 0.87160
 N702 N 0.08177 0.23220 0.85445
 C703 C 0.11713 0.23821 0.80108
 N704 N 0.14235 0.22942 0.82196
 N705 N 0.17184 0.22989 0.80818
 C706 C 0.17748 0.23872 0.77275
 N707 N 0.15221 0.24735 0.75157
 N708 N 0.12253 0.24702 0.76547
 C709 C 0.58516 0.73880 0.31667
 N710 N 0.55950 0.75147 0.29922
 N711 N 0.53168 0.75499 0.31704
 C712 C 0.52848 0.74598 0.35298
 N713 N 0.55429 0.73343 0.37019
 N714 N 0.58193 0.72985 0.35243
 C715 C 0.61681 0.73657 0.29880
 N716 N 0.64179 0.72550 0.31859
 N717 N 0.67121 0.72585 0.30462
 C718 C 0.67702 0.73685 0.27004
 N719 N 0.65197 0.74772 0.24993
 N720 N 0.62236 0.74748 0.26401
 C721 C 0.58738 0.26637 0.18034
 N722 N 0.56047 0.25878 0.19966
 N723 N 0.53249 0.25530 0.18242
 C724 C 0.53032 0.25927 0.14520
 N725 N 0.55737 0.26683 0.12618
 N726 N 0.58517 0.27045 0.14335
 C727 C 0.61911 0.26789 0.19787
 N728 N 0.64508 0.27462 0.17674
 N729 N 0.67434 0.27316 0.19070
 C730 C 0.67903 0.26523 0.22653
 N731 N 0.65301 0.25878 0.24799
 N732 N 0.62355 0.26018 0.23393
 C733 C 0.08506 0.76622 0.69067
 N734 N 0.07774 0.78678 0.66311
 N735 N 0.05112 0.78294 0.64352
 C736 C 0.03068 0.75826 0.65045
 N737 N 0.03777 0.73812 0.67867
 N738 N 0.06437 0.74200 0.69835
 C739 C 0.11654 0.76805 0.70876
 N740 N 0.12461 0.74718 0.73577
 N741 N 0.15445 0.74625 0.74858
 C742 C 0.17738 0.76620 0.73498
 N743 N 0.16906 0.78725 0.70835
 N744 N 0.13927 0.78836 0.69568
 C745 C 0.91435 0.73905 0.68267
 N746 N 0.93993 0.75210 0.70026
 N747 N 0.96796 0.75541 0.68275
 C748 C 0.97146 0.74578 0.64701
 N749 N 0.94574 0.73284 0.62967
 N750 N 0.91791 0.72947 0.64713
 C751 C 0.88243 0.73701 0.70004
 N752 N 0.85765 0.72582 0.67978
 N753 N 0.82805 0.72617 0.69317
 C754 C 0.82179 0.73722 0.72766
 N755 N 0.84662 0.74830 0.74824
 N756 N 0.87645 0.74809 0.73472
 C757 C 0.41695 0.24070 0.19201
 N758 N 0.42551 0.21771 0.16750
 N759 N 0.45191 0.22081 0.14713
 C760 C 0.47104 0.24707 0.15030
 N761 N 0.46265 0.26991 0.17533
 N762 N 0.43614 0.26681 0.19573
 C763 C 0.38569 0.23867 0.21099
 N764 N 0.37527 0.26258 0.23337
 N765 N 0.34535 0.26245 0.24638
 C766 C 0.32470 0.23839 0.23770
 N767 N 0.33548 0.21430 0.21596
 N768 N 0.36534 0.21429 0.20305
 C769 C 0.41488 0.76541 0.30985
 N770 N 0.42241 0.78626 0.33725
 N771 N 0.44906 0.78272 0.35675
 C772 C 0.46933 0.75808 0.34989
 N773 N 0.46203 0.73763 0.32184
 N774 N 0.43539 0.74121 0.30224
 C775 C 0.38337 0.76698 0.29190
 N776 N 0.37517 0.74614 0.26468
 N777 N 0.34529 0.74507 0.25195
 C778 C 0.32245 0.76481 0.26584
 N779 N 0.33092 0.78576 0.29271
 N780 N 0.36074 0.78704 0.30529
 C781 C 0.91538 0.26644 0.80711
 N782 N 0.92314 0.28797 0.83371
 N783 N 0.94930 0.28422 0.85402
 C784 C 0.96881 0.25866 0.84884
 N785 N 0.96135 0.23758 0.82149
 N786 N 0.93519 0.24135 0.80111
 C787 C 0.88417 0.26822 0.78848
 N788 N 0.87521 0.24565 0.76353
 N789 N 0.84533 0.24462 0.75088
 C790 C 0.82322 0.26616 0.76255
 N791 N 0.83250 0.28902 0.78689
 N792 N 0.86235 0.29019 0.79944
 C793 C 0.59449 0.96966 0.66247
 N794 N 0.62643 0.97474 0.65904
 N795 N 0.64365 0.98417 0.68792
 C796 C 0.62957 0.98942 0.72128
 N797 N 0.59779 0.98315 0.72485
 N798 N 0.58052 0.97384 0.69597
 C799 C 0.57482 0.96457 0.62959
 N800 N 0.54256 0.96727 0.63183
 N801 N 0.52510 0.96975 0.60138
 C802 C 0.53919 0.96943 0.56754
 N803 N 0.57122 0.96496 0.56539
 N804 N 0.58875 0.96258 0.59580
 C805 C 0.09066 0.47107 1.16194
 N806 N 0.07760 0.47736 1.19549
 N807 N 0.09596 0.48640 1.22358
 C808 C 0.12804 0.49025 1.21910
 N809 N 0.14111 0.48309 1.18566
 N810 N 0.12278 0.47390 1.15761
 C811 C 0.07012 0.46602 1.12975
 N812 N 0.08324 0.46101 1.09594
 N813 N 0.06546 0.46317 1.06569
 C814 C 0.03397 0.47050 1.06804
 N815 N 0.02056 0.47384 1.10202
 N816 N 0.03826 0.47154 1.13231
 C817 C -0.09999 0.03635 1.15486
 N818 N -0.12995 0.02409 1.15168
 N819 N -0.14577 0.01356 1.18126
 C820 C -0.13207 0.01434 1.21518
 N821 N -0.10269 0.02811 1.21847
 N822 N -0.08676 0.03844 1.18887
 C823 C -0.08053 0.04199 1.12167
 N824 N -0.04825 0.04451 1.12421
 N825 N -0.02986 0.04158 1.09428
 C826 C -0.04305 0.03624 1.06064
 N827 N -0.07538 0.03568 1.05797
 N828 N -0.09379 0.03849 1.08784
 C829 C 0.40337 0.53550 0.65403
 N830 N 0.37300 0.52455 0.64997
 N831 N 0.35633 0.51414 0.67898
 C832 C 0.36951 0.51376 0.71318
 N833 N 0.39942 0.52610 0.71734
 N834 N 0.41620 0.53630 0.68830
 C835 C 0.42346 0.54117 0.62136
 N836 N 0.45577 0.54227 0.62451
 N837 N 0.47439 0.53939 0.59477
 C838 C 0.46144 0.53554 0.56075
 N839 N 0.42917 0.53646 0.55755
 N840 N 0.41051 0.53921 0.58722
 C841 C 0.40516 0.47198 -0.16237
 N842 N 0.41940 0.47746 -0.19547
 N843 N 0.40223 0.48667 -0.22434
 C844 C 0.37022 0.49150 -0.22115
 N845 N 0.35591 0.48501 -0.18821
 N846 N 0.37305 0.47572 -0.15933
 C847 C 0.42462 0.46666 -0.12938
 N848 N 0.41052 0.46399 -0.09574
 N849 N 0.42791 0.46586 -0.06514
 C850 C 0.46000 0.47046 -0.06694
 N851 N 0.47423 0.47146 -0.10069
 N852 N 0.45690 0.46951 -0.13132
 C853 C -0.09162 0.97112 0.33680
 N854 N -0.07857 0.97783 0.30335
 N855 N -0.09688 0.98733 0.27556
 C856 C -0.12889 0.99123 0.28024
 N857 N -0.14198 0.98366 0.31354
 N858 N -0.12370 0.97403 0.34132
 C859 C -0.07101 0.96540 0.36875
 N860 N -0.08402 0.96020 0.40258
 N861 N -0.06597 0.96173 0.43269
 C862 C -0.03430 0.96858 0.43020
 N863 N -0.02106 0.97207 0.39615
 N864 N -0.03902 0.97040 0.36600
 C865 C 0.09994 0.53427 0.34555
 N866 N 0.08639 0.53620 0.31173
 N867 N 0.10202 0.52595 0.28190
 C868 C 0.13138 0.51240 0.28476
 N869 N 0.14539 0.51179 0.31851
 N870 N 0.12987 0.52221 0.34832
 C871 C 0.08084 0.53992 0.37898
 N872 N 0.09429 0.53617 0.41262
 N873 N 0.07606 0.53339 0.44264
 C874 C 0.04373 0.53429 0.44031
 N875 N 0.03038 0.53989 0.40688
 N876 N 0.04860 0.54277 0.37679
 C877 C 0.59648 0.03266 -0.15349
 N878 N 0.58333 0.03272 -0.18760
 N879 N 0.60005 0.02270 -0.21673
 C880 C 0.63021 0.01126 -0.21283
 N881 N 0.64369 0.01240 -0.17880
 N882 N 0.62707 0.02261 -0.14969
 C883 C 0.57660 0.03830 -0.12070
 N884 N 0.58981 0.03693 -0.08668
 N885 N 0.57137 0.03435 -0.05681
 C886 C 0.53908 0.03305 -0.05970
 N887 N 0.52586 0.03623 -0.09362
 N888 N 0.54427 0.03893 -0.12356
 C889 C 0.66422 0.54815 -0.02211
 N890 N 0.67102 0.57439 -0.04267
 N891 N 0.69808 0.59063 -0.03752
 C892 C 0.71949 0.58115 -0.01174
 N893 N 0.71267 0.55471 0.00861
 N894 N 0.68561 0.53850 0.00348
 C895 C 0.63234 0.53364 -0.02337
 N896 N 0.62381 0.51093 0.00149
 N897 N 0.59340 0.50188 0.00497
 C898 C 0.57038 0.51554 -0.01591
 N899 N 0.57925 0.53678 -0.04226
 N900 N 0.60964 0.54588 -0.04577
 C901 C 0.16946 1.04670 0.47969
 N902 N 0.17718 1.07229 0.45847
 N903 N 0.20395 1.08876 0.46462
 C904 C 0.22405 1.08021 0.49220
 N905 N 0.21633 1.05440 0.51316
 N906 N 0.18962 1.03792 0.50697
 C907 C 0.13769 1.03211 0.47731
 N908 N 0.12875 1.00919 0.50172
 N909 N 0.09831 1.00007 0.50437
 C910 C 0.07565 1.01387 0.48311
 N911 N 0.08494 1.03536 0.45722
 N912 N 0.11538 1.04452 0.45451
 C913 C 0.16324 -0.04687 1.02468
 N914 N 0.16853 -0.07561 1.04067
 N915 N 0.19570 -0.09118 1.03461
 C916 C 0.21884 -0.07853 1.01253
 N917 N 0.21351 -0.04967 0.99658
 N918 N 0.18627 -0.03411 1.00261
 C919 C 0.13145 -0.03243 1.02696
 N920 N 0.12439 -0.00591 1.00716
 N921 N 0.09424 0.00387 1.00422
 C922 C 0.07011 -0.01262 1.02081
 N923 N 0.07744 -0.03826 1.04184
 N924 N 0.10751 -0.04801 1.04486
 C925 C 0.66793 0.45393 0.52208
 N926 N 0.67496 0.42731 0.54162
 N927 N 0.70194 0.41147 0.53523
 C928 C 0.72305 0.42165 0.50910
 N929 N 0.71598 0.44843 0.48967
 N930 N 0.68903 0.46434 0.49616
 C931 C 0.63601 0.46804 0.52479
 N932 N 0.62826 0.49383 0.50412
 N933 N 0.59797 0.50319 0.50155
 C934 C 0.57431 0.48691 0.51927
 N935 N 0.58229 0.46196 0.54110
 N936 N 0.61256 0.45269 0.54384
 C937 C -0.16307 0.45007 0.47527
 N938 N -0.18653 0.46427 0.49535
 N939 N -0.21438 0.44941 0.50100
 C940 C -0.21987 0.41982 0.48666
 N941 N -0.19631 0.40577 0.46653
 N942 N -0.16855 0.42064 0.46083
 C943 C -0.13087 0.46403 0.47337
 N944 N -0.10688 0.44745 0.45704
 N945 N -0.07670 0.45717 0.46020
 C946 C -0.06928 0.48380 0.47976
 N947 N -0.09342 0.50113 0.49490
 N948 N -0.12368 0.49139 0.49183
 C949 C 0.33202 -0.04668 -0.02108
 N950 N 0.31080 -0.03593 0.00446
 N951 N 0.28333 -0.05136 0.01023
 C952 C 0.27585 -0.07800 -0.00952
 N953 N 0.29708 -0.08855 -0.03526
 N954 N 0.32458 -0.07315 -0.04098
 C955 C 0.36432 -0.03305 -0.02295
 N956 N 0.38733 -0.04770 -0.04324
 N957 N 0.41783 -0.03899 -0.03997
 C958 C 0.42651 -0.01554 -0.01616
 N959 N 0.40327 0.00023 0.00270
 N960 N 0.37275 -0.00848 -0.00046
 C961 C 0.33631 1.05001 0.52395
 N962 N 0.31381 1.03804 0.50086
 N963 N 0.28654 1.05356 0.49557
 C964 C 0.28067 1.08165 0.51323
 N965 N 0.30330 1.09358 0.53631
 N966 N 0.33053 1.07799 0.54168
 C967 C 0.36806 1.03559 0.52541
 N968 N 0.39118 1.04871 0.54681
 N969 N 0.42139 1.03928 0.54344
 C970 C 0.42968 1.01686 0.51814
 N971 N 0.40623 1.00241 0.49832
 N972 N 0.37599 1.01172 0.50173
 C973 C -0.16805 0.55050 1.01938
 N974 N -0.18950 0.53973 0.99428
 N975 N -0.21674 0.55526 0.98886
 C976 C -0.22368 0.58209 1.00847
 N977 N -0.20217 0.59274 1.03371
 N978 N -0.17493 0.57719 1.03914
 C979 C -0.13618 0.53636 1.02113
 N980 N -0.11346 0.54931 1.04324
 N981 N -0.08317 0.54002 1.04039
 C982 C -0.07441 0.51786 1.01498
 N983 N -0.09746 0.50366 0.99433
 N984 N -0.12777 0.51288 0.99717
 C985 C 0.01654 0.66267 0.56973
 N986 N 0.02046 0.66547 0.60671
 N987 N 0.01675 0.69347 0.62356
 C988 C 0.00922 0.72013 0.60423
 N989 N 0.00538 0.71736 0.56703
 N990 N 0.00896 0.68919 0.55010
 C991 C 0.01836 0.63075 0.55250
 N992 N 0.01097 0.62570 0.51642
 N993 N 0.00999 0.59606 0.50258
 C994 C 0.01655 0.57046 0.52427
 N995 N 0.02417 0.57575 0.56012
 N996 N 0.02520 0.60519 0.57388
 C997 C 0.51200 0.16381 0.06768
 N998 N 0.52062 0.16750 0.10345
 N999 N 0.51724 0.19546 0.12050
 C1000 C 0.50521 0.22114 0.10253
 N1001 N 0.49662 0.21752 0.06654
 N1002 N 0.49995 0.18938 0.04944
 C1003 C 0.51382 0.13180 0.05067
 N1004 N 0.50368 0.12594 0.01568
 N1005 N 0.50308 0.09612 0.00232
 C1006 C 0.51280 0.07115 0.02339
 N1007 N 0.52299 0.07727 0.05818
 N1008 N 0.52371 0.10690 0.07143
 C1009 C -0.01756 0.16384 0.93047
 N1010 N -0.02110 0.16624 0.89342
 N1011 N -0.01740 0.19416 0.87646
 C1012 C -0.01028 0.22112 0.89575
 N1013 N -0.00684 0.21874 0.93301
 N1014 N -0.01040 0.19065 0.95005
 C1015 C -0.01922 0.13204 0.94783
 N1016 N -0.01181 0.12741 0.98393
 N1017 N -0.01052 0.09790 0.99788
 C1018 C -0.01677 0.07201 0.97627
 N1019 N -0.02444 0.07687 0.94040
 N1020 N -0.02578 0.10619 0.92654
 C1021 C 0.48455 0.66316 0.43086
 N1022 N 0.49226 0.68990 0.45031
 N1023 N 0.49540 0.71804 0.43330
 C1024 C 0.49095 0.72055 0.39620
 N1025 N 0.48322 0.69369 0.37705
 N1026 N 0.47996 0.66571 0.39399
 C1027 C 0.48350 0.63127 0.44804
 N1028 N 0.47721 0.60543 0.42663
 N1029 N 0.47900 0.57607 0.44031
 C1030 C 0.48685 0.57117 0.47611
 N1031 N 0.49287 0.59704 0.49784
 N1032 N 0.49116 0.62659 0.48406
 C1033 C 0.51006 0.83360 0.44335
 N1034 N 0.48402 0.81436 0.44753
 N1035 N 0.48067 0.78799 0.42707
 C1036 C 0.50315 0.77981 0.40147
 N1037 N 0.52936 0.79896 0.39786
 N1038 N 0.53273 0.82523 0.41830
 C1039 C 0.51228 0.86476 0.46237
 N1040 N 0.53666 0.88509 0.45419
 N1041 N 0.53675 0.91492 0.46706
 C1042 C 0.51275 0.92570 0.48897
 N1043 N 0.48871 0.90506 0.49794
 N1044 N 0.48850 0.87517 0.48498
 C1045 C 0.00724 0.33392 0.94394
 N1046 N -0.01905 0.31485 0.94680
 N1047 N -0.02187 0.28859 0.92606
 C1048 C 0.00141 0.28037 0.90145
 N1049 N 0.02786 0.29935 0.89916
 N1050 N 0.03071 0.32549 0.91991
 C1051 C 0.00897 0.36500 0.96317
 N1052 N 0.03407 0.38493 0.95683
 N1053 N 0.03386 0.41480 0.96959
 C1054 C 0.00878 0.42601 0.98950
 N1055 N -0.01598 0.40573 0.99673
 N1056 N -0.01588 0.37580 0.98390
 C1057 C 0.48494 0.33380 0.05657
 N1058 N 0.51032 0.31431 0.05067
 N1059 N 0.51419 0.28805 0.07093
 C1060 C 0.49295 0.28019 0.09807
 N1061 N 0.46714 0.29938 0.10316
 N1062 N 0.46327 0.32563 0.08296
 C1063 C 0.48286 0.36508 0.03802
 N1064 N 0.46029 0.38639 0.04869
 N1065 N 0.46097 0.41628 0.03616
 C1066 C 0.48389 0.42612 0.01209
 N1067 N 0.50606 0.40452 0.00071
 N1068 N 0.50554 0.37459 0.01335
 C1069 C -0.00915 0.83246 0.55590
 N1070 N -0.03190 0.82441 0.58106
 N1071 N -0.02878 0.79843 0.60183
 C1072 C -0.00275 0.77925 0.59845
 N1073 N 0.01983 0.78713 0.57278
 N1074 N 0.01671 0.81321 0.55199
 C1075 C -0.01101 0.86337 0.53651
 N1076 N 0.01278 0.87326 0.51351
 N1077 N 0.01310 0.90300 0.50029
 C1078 C -0.01038 0.92402 0.50937
 N1079 N -0.03444 0.91375 0.53164
 N1080 N -0.03490 0.88405 0.54476
 C1081 C 0.21856 0.34045 0.08761
 N1082 N 0.22141 0.37259 0.09150
 N1083 N 0.23059 0.39068 0.06316
 C1084 C 0.23772 0.37735 0.02988
 N1085 N 0.23382 0.34527 0.02583
 N1086 N 0.22478 0.32714 0.05420
 C1087 C 0.21376 0.32018 0.12013
 N1088 N 0.21928 0.28832 0.11791
 N1089 N 0.22204 0.27091 0.14840
 C1090 C 0.21918 0.28462 0.18225
 N1091 N 0.21182 0.31610 0.18429
 N1092 N 0.20920 0.33360 0.15385
 C1093 C 0.71797 0.84449 0.58896
 N1094 N 0.72113 0.83055 0.55532
 N1095 N 0.73152 0.84740 0.52649
 C1096 C 0.74001 0.87864 0.53028
 N1097 N 0.73581 0.89275 0.56379
 N1098 N 0.72530 0.87596 0.59260
 C1099 C 0.71171 0.82494 0.62178
 N1100 N 0.71122 0.83872 0.65569
 N1101 N 0.71313 0.82087 0.68592
 C1102 C 0.71557 0.78862 0.68352
 N1103 N 0.71413 0.77479 0.64962
 N1104 N 0.71214 0.79259 0.61933
 C1105 C 0.28392 0.65589 0.59009
 N1106 N 0.27989 0.66896 0.55625
 N1107 N 0.27050 0.65099 0.52793
 C1108 C 0.26395 0.61937 0.53241
 N1109 N 0.26915 0.60614 0.56607
 N1110 N 0.27870 0.62408 0.59440
 C1111 C 0.28858 0.67654 0.62241
 N1112 N 0.29158 0.66361 0.65649
 N1113 N 0.28859 0.68178 0.68652
 C1114 C 0.28232 0.71344 0.68369
 N1115 N 0.28105 0.72661 0.64953
 N1116 N 0.28423 0.70854 0.61947
 C1117 C 0.78427 0.15076 0.09576
 N1118 N 0.77218 0.12076 0.09934
 N1119 N 0.76158 0.10475 0.07001
 C1120 C 0.76209 0.11829 0.03595
 N1121 N 0.77566 0.14773 0.03226
 N1122 N 0.78607 0.16385 0.06161
 C1123 C 0.79016 0.17035 0.12872
 N1124 N 0.79270 0.20260 0.12586
 N1125 N 0.79009 0.22110 0.15569
 C1126 C 0.78508 0.20806 0.18953
 N1127 N 0.78452 0.17576 0.19247
 N1128 N 0.78701 0.15724 0.16271
 C1129 C 0.71991 0.15745 0.91327
 N1130 N 0.72628 0.17086 0.94655
 N1131 N 0.73530 0.15284 0.97484
 C1132 C 0.73899 0.12076 0.97085
 N1133 N 0.73166 0.10732 0.93773
 N1134 N 0.72252 0.12530 0.90945
 C1135 C 0.71508 0.17770 0.88078
 N1136 N 0.71056 0.16434 0.84705
 N1137 N 0.71288 0.18204 0.81665
 C1138 C 0.71990 0.21367 0.81876
 N1139 N 0.72277 0.22726 0.85265
 N1140 N 0.72030 0.20966 0.88308
 C1141 C 0.21904 0.65130 0.40859
 N1142 N 0.22867 0.62055 0.40464
 N1143 N 0.23886 0.60402 0.43360
 C1144 C 0.24039 0.61774 0.46759
 N1145 N 0.22925 0.64802 0.47167
 N1146 N 0.21923 0.66464 0.44271
 C1147 C 0.21356 0.67114 0.37594
 N1148 N 0.21355 0.70347 0.37897
 N1149 N 0.21603 0.72175 0.34904
 C1150 C 0.21837 0.70840 0.31495
 N1151 N 0.21653 0.67614 0.31195
 N1152 N 0.21422 0.65782 0.34181
 C1153 C 0.78417 0.84485 0.40545
 N1154 N 0.78197 0.83109 0.43921
 N1155 N 0.77180 0.84784 0.46823
 C1156 C 0.76255 0.87876 0.46452
 N1157 N 0.76584 0.89274 0.43088
 N1158 N 0.77615 0.87606 0.40189
 C1159 C 0.78999 0.82526 0.37250
 N1160 N 0.78954 0.83891 0.33862
 N1161 N 0.78699 0.82091 0.30846
 C1162 C 0.78485 0.78863 0.31090
 N1163 N 0.78722 0.77494 0.34472
 N1164 N 0.78984 0.79291 0.37494
 C1165 C 0.28330 0.34867 0.90419
 N1166 N 0.28500 0.33536 0.93820
 N1167 N 0.27412 0.35102 0.96770
 C1168 C 0.26011 0.38011 0.96427
 N1169 N 0.25965 0.39386 0.93034
 N1170 N 0.27072 0.37834 0.90088
 C1171 C 0.28982 0.32954 0.87108
 N1172 N 0.28660 0.34287 0.83727
 N1173 N 0.28439 0.32455 0.80735
 C1174 C 0.28535 0.29224 0.80996
 N1175 N 0.29051 0.27903 0.84358
 N1176 N 0.29283 0.29734 0.87358
 C1177 C 0.79519 0.41807 0.76908
 N1178 N 0.78723 0.43790 0.74112
 N1179 N 0.80374 0.46467 0.73521
 C1180 C 0.82876 0.47277 0.75716
 N1181 N 0.83642 0.45304 0.78547
 N1182 N 0.81993 0.42622 0.79132
 C1183 C 0.78092 0.38615 0.77120
 N1184 N 0.79297 0.36409 0.79460
 N1185 N 0.78434 0.33353 0.79178
 C1186 C 0.76375 0.32387 0.76519
 N1187 N 0.75028 0.34624 0.74324
 N1188 N 0.75889 0.37680 0.74599
 C1189 C 0.29446 0.91572 0.27603
 N1190 N 0.28505 0.93658 0.24972
 N1191 N 0.30167 0.96323 0.24343
 C1192 C 0.32829 0.97015 0.26331
 N1193 N 0.33750 0.94933 0.28989
 N1194 N 0.32088 0.92266 0.29615
 C1195 C 0.27981 0.88393 0.27812
 N1196 N 0.29304 0.86105 0.29951
 N1197 N 0.28422 0.83062 0.29584
 C1198 C 0.26223 0.82188 0.27038
 N1199 N 0.24747 0.84506 0.25074
 N1200 N 0.25627 0.87552 0.25434
 C1201 C 0.20555 0.91814 0.73116
 N1202 N 0.21335 0.93819 0.75920
 N1203 N 0.19682 0.96485 0.76497
 C1204 C 0.17196 0.97263 0.74279
 N1205 N 0.16448 0.95267 0.71443
 N1206 N 0.18097 0.92597 0.70872
 C1207 C 0.21983 0.88630 0.72899
 N1208 N 0.20755 0.86401 0.70574
 N1209 N 0.21619 0.83354 0.70843
 C1210 C 0.23711 0.82419 0.73465
 N1211 N 0.25079 0.84681 0.75645
 N1212 N 0.24213 0.87728 0.75386
 C1213 C 0.70419 0.41513 0.22529
 N1214 N 0.67718 0.42178 0.20629
 N1215 N 0.66119 0.44865 0.21271
 C1216 C 0.67160 0.47003 0.23831
 N1217 N 0.69876 0.46335 0.25718
 N1218 N 0.71481 0.43651 0.25067
 C1219 C 0.71846 0.38328 0.22279
 N1220 N 0.74436 0.37576 0.24337
 N1221 N 0.75376 0.34551 0.24637
 C1222 C 0.73741 0.32168 0.22918
 N1223 N 0.71242 0.32944 0.20736
 N1224 N 0.70310 0.35965 0.20419
 C1225 C 0.69969 0.58411 0.27061
 N1226 N 0.71347 0.56097 0.24971
 N1227 N 0.69877 0.53299 0.24464
 C1228 C 0.66979 0.52703 0.26044
 N1229 N 0.65614 0.55028 0.28139
 N1230 N 0.67085 0.57818 0.28650
 C1231 C 0.71342 0.61637 0.27213
 N1232 N 0.69731 0.64008 0.28960
 N1233 N 0.70698 0.67030 0.28666
 C1234 C 0.73304 0.67802 0.26613
 N1235 N 0.74985 0.65416 0.24970
 N1236 N 0.74017 0.62388 0.25256
 C1237 C 0.19860 0.08650 0.77590
 N1238 N 0.21378 0.06258 0.75764
 N1239 N 0.19908 0.03472 0.75177
 C1240 C 0.16866 0.02972 0.76398
 N1241 N 0.15364 0.05372 0.78233
 N1242 N 0.16835 0.08149 0.78828
 C1243 C 0.21268 0.11859 0.77793
 N1244 N 0.19555 0.14288 0.79280
 N1245 N 0.20565 0.17292 0.78960
 C1246 C 0.23320 0.17990 0.77146
 N1247 N 0.25098 0.15547 0.75776
 N1248 N 0.24088 0.12534 0.76089
 C1249 C 0.29935 0.08297 0.23156
 N1250 N 0.32631 0.07608 0.21223
 N1251 N 0.34142 0.04855 0.21744
 C1252 C 0.32999 0.02673 0.24195
 N1253 N 0.30291 0.03371 0.26118
 N1254 N 0.28785 0.06125 0.25602
 C1255 C 0.28559 0.11500 0.22997
 N1256 N 0.26222 0.12361 0.25403
 N1257 N 0.25322 0.15398 0.25677
 C1258 C 0.26751 0.17689 0.23587
 N1259 N 0.28960 0.16795 0.21044
 N1260 N 0.29870 0.13760 0.20771
 C1261 C 0.80035 0.58548 0.72442
 N1262 N 0.83000 0.58064 0.71021
 N1263 N 0.84519 0.55327 0.71596
 C1264 C 0.83122 0.52953 0.73590
 N1265 N 0.80144 0.53440 0.75001
 N1266 N 0.78628 0.56184 0.74434
 C1267 C 0.78595 0.61721 0.72247
 N1268 N 0.75889 0.62405 0.74171
 N1269 N 0.74879 0.65410 0.74465
 C1270 C 0.76548 0.67834 0.72862
 N1271 N 0.79173 0.67121 0.70824
 N1272 N 0.80184 0.64125 0.70524
 C1273 C 0.91401 0.76203 0.18138
 N1274 N 0.93951 0.74949 0.19925
 N1275 N 0.96754 0.74602 0.18186
 C1276 C 0.97109 0.75497 0.14595
 N1277 N 0.94546 0.76744 0.12833
 N1278 N 0.91761 0.77096 0.14567
 C1279 C 0.88213 0.76405 0.19872
 N1280 N 0.85722 0.77449 0.17836
 N1281 N 0.82765 0.77393 0.19192
 C1282 C 0.82164 0.76336 0.22662
 N1283 N 0.84661 0.75312 0.24730
 N1284 N 0.87636 0.75355 0.23363
 C1285 C 0.41430 0.26200 0.68168
 N1286 N 0.43999 0.25075 0.70033
 N1287 N 0.46818 0.24730 0.68331
 C1288 C 0.47175 0.25497 0.64701
 N1289 N 0.44595 0.26623 0.62862
 N1290 N 0.41791 0.26971 0.64558
 C1291 C 0.38231 0.26399 0.69878
 N1292 N 0.35716 0.27266 0.67770
 N1293 N 0.32761 0.27221 0.69132
 C1294 C 0.32185 0.26351 0.72677
 N1295 N 0.34704 0.25501 0.74814
 N1296 N 0.37677 0.25533 0.73441
 C1297 C 0.41561 0.73591 0.80997
 N1298 N 0.43635 0.76030 0.80323
 N1299 N 0.46297 0.76355 0.82304
 C1300 C 0.46994 0.74260 0.85050
 N1301 N 0.44943 0.71781 0.85652
 N1302 N 0.42282 0.71460 0.83679
 C1303 C 0.38427 0.73440 0.79155
 N1304 N 0.36171 0.71337 0.80343
 N1305 N 0.33201 0.71449 0.79047
 C1306 C 0.32362 0.73632 0.76472
 N1307 N 0.34641 0.75701 0.75229
 N1308 N 0.37615 0.75605 0.76539
 C1309 C 0.91296 0.23270 0.31959
 N1310 N 0.93985 0.24011 0.30014
 N1311 N 0.96789 0.24348 0.31727
 C1312 C 0.97014 0.23958 0.35449
 N1313 N 0.94310 0.23220 0.37364
 N1314 N 0.91524 0.22869 0.35658
 C1315 C 0.88117 0.23130 0.30220
 N1316 N 0.85523 0.22476 0.32347
 N1317 N 0.82594 0.22631 0.30962
 C1318 C 0.82119 0.23415 0.27378
 N1319 N 0.84716 0.24041 0.25219
 N1320 N 0.87666 0.23892 0.26613
 C1321 C 0.08355 0.25790 0.30749
 N1322 N 0.07503 0.28090 0.33202
 N1323 N 0.04864 0.27782 0.35239
 C1324 C 0.02946 0.25160 0.34922
 N1325 N 0.03779 0.22877 0.32415
 N1326 N 0.06431 0.23184 0.30375
 C1327 C 0.11482 0.25989 0.28855
 N1328 N 0.12531 0.23590 0.26634
 N1329 N 0.15525 0.23600 0.25341
 C1330 C 0.17587 0.26012 0.26202
 N1331 N 0.16502 0.28430 0.28357
 N1332 N 0.13513 0.28433 0.29640
 C1333 C 0.58362 0.76007 0.81159
 N1334 N 0.57561 0.78177 0.83789
 N1335 N 0.54863 0.77862 0.85723
 C1336 C 0.52851 0.75351 0.85134
 N1337 N 0.53639 0.73201 0.82457
 N1338 N 0.56338 0.73522 0.80511
 C1339 C 0.61509 0.76206 0.79317
 N1340 N 0.62354 0.74116 0.76612
 N1341 N 0.65324 0.74115 0.75244
 C1342 C 0.67563 0.76208 0.76517
 N1343 N 0.66693 0.78300 0.79198
 N1344 N 0.63728 0.78322 0.80548
 C1345 C 0.58398 0.23516 0.69412
 N1346 N 0.56421 0.26032 0.69986
 N1347 N 0.53814 0.26406 0.67931
 C1348 C 0.53076 0.24288 0.65203
 N1349 N 0.55023 0.21726 0.64709
 N1350 N 0.57629 0.21354 0.66759
 C1351 C 0.61511 0.23340 0.71291
 N1352 N 0.63690 0.21130 0.70221
 N1353 N 0.66671 0.21247 0.71486
 C1354 C 0.67599 0.23545 0.73905
 N1355 N 0.65391 0.25711 0.75048
 N1356 N 0.62406 0.25609 0.73772
 C1357 C 0.08404 0.73448 0.19058
 N1358 N 0.06382 0.75901 0.19778
 N1359 N 0.03745 0.76292 0.17780
 C1360 C 0.03013 0.74248 0.14975
 N1361 N 0.05010 0.71751 0.14329
 N1362 N 0.07650 0.71365 0.16317
 C1363 C 0.11534 0.73253 0.20896
 N1364 N 0.13784 0.71212 0.19596
 N1365 N 0.16757 0.71310 0.20886
 C1366 C 0.17606 0.73410 0.23567
 N1367 N 0.15334 0.75415 0.24921
 N1368 N 0.12356 0.75337 0.23616
   
