data_POSCAR
  _audit_creation_date              2014-09-24
  _audit_creation_method            'ToBaCCo'
  _symmetry_space_group_name_H-M    'P1'
  _symmetry_Int_Tables_number       1
  _symmetry_cell_setting            triclinic
  loop_
  _symmetry_equiv_pos_as_xyz
 x,y,z
_cell_length_a 44.7576
_cell_length_b 44.6041
_cell_length_c 50.3051
_cell_angle_alpha 90.044300
_cell_angle_beta 90.142600
_cell_angle_gamma 90.206200
loop_
  _atom_site_label
  _atom_site_type_symbol
  _atom_site_fract_x
  _atom_site_fract_y
  _atom_site_fract_z
C1 C 1.26402 0.22038 0.26843
 C2 C 1.24572 0.23383 0.24937
 C3 C 1.22614 0.21642 0.23420
 C4 C 1.22384 0.18538 0.23844
 C5 C 1.24214 0.17205 0.25796
 C6 C 1.26281 0.18918 0.27306
 C7 C 1.24579 0.26659 0.24654
 C8 C 1.26485 0.28074 0.22848
 C9 C 1.26624 0.31234 0.22695
 C10 C 1.24728 0.32921 0.24372
 C11 C 1.22735 0.31499 0.26132
 C12 C 1.22725 0.28361 0.26282
 H13 H 1.27975 0.23463 0.27885
 H14 H 1.21275 0.22734 0.21912
 H15 H 1.27964 0.26687 0.21676
 H16 H 1.21298 0.27220 0.27698
 H17 H 1.23896 0.14853 0.26222
 H18 H 1.24671 0.35340 0.24212
 C19 C 0.77037 -0.28136 0.26872
 C20 C 0.75148 -0.26555 0.25169
 C21 C 0.73166 -0.28091 0.23512
 C22 C 0.72997 -0.31233 0.23579
 C23 C 0.74888 -0.32814 0.25329
 C24 C 0.76954 -0.31299 0.27000
 C25 C 0.75207 -0.23265 0.25190
 C26 C 0.77070 -0.21690 0.23450
 C27 C 0.77255 -0.18538 0.23559
 C28 C 0.75450 -0.16999 0.25402
 C29 C 0.73543 -0.18576 0.27122
 C30 C 0.73460 -0.21712 0.27024
 H31 H 0.78637 -0.26845 0.28015
 H32 H 0.71772 -0.26819 0.22162
 H33 H 0.78363 -0.22942 0.22013
 H34 H 0.72008 -0.22950 0.28356
 H35 H 0.74617 -0.35217 0.25468
 H36 H 0.75574 -0.14581 0.25564
 C37 C 0.77393 0.21702 -0.23242
 C38 C 0.75361 0.23337 -0.24770
 C39 C 0.73223 0.21842 -0.26313
 C40 C 0.73057 0.18693 -0.26320
 C41 C 0.75086 0.17067 -0.24734
 C42 C 0.77278 0.18556 -0.23208
 C43 C 0.75473 0.26630 -0.24773
 C44 C 0.77494 0.28130 -0.26416
 C45 C 0.77589 0.31297 -0.26524
 C46 C 0.75536 0.32897 -0.24916
 C47 C 0.73486 0.31394 -0.23253
 C48 C 0.73497 0.28249 -0.23195
 H49 H 0.79029 0.22890 -0.22044
 H50 H 0.71738 0.23153 -0.27552
 H51 H 0.78872 0.26770 -0.27699
 H52 H 0.71989 0.27037 -0.21899
 H53 H 0.74980 0.14643 -0.24696
 H54 H 0.75547 0.35317 -0.24894
 C55 C 1.26542 -0.27893 -0.23135
 C56 C 1.24719 -0.26509 -0.25030
 C57 C 1.23006 -0.28242 -0.26767
 C58 C 1.23061 -0.31369 -0.26614
 C59 C 1.24903 -0.32767 -0.24721
 C60 C 1.26726 -0.31058 -0.22967
 C61 C 1.24610 -0.23226 -0.25241
 C62 C 1.26315 -0.21770 -0.27173
 C63 C 1.26089 -0.18659 -0.27537
 C64 C 1.24085 -0.17029 -0.25941
 C65 C 1.22383 -0.18463 -0.23954
 C66 C 1.22696 -0.21579 -0.23612
 H67 H 1.27739 -0.26452 -0.21767
 H68 H 1.21589 -0.27143 -0.28218
 H69 H 1.27841 -0.23077 -0.28371
 H70 H 1.21456 -0.22748 -0.22082
 H71 H 1.25008 -0.35186 -0.24758
 H72 H 1.23806 -0.14653 -0.26292
 C73 C 0.21787 0.26446 0.73276
 C74 C 0.23240 0.24534 0.75040
 C75 C 0.21591 0.22581 0.76640
 C76 C 0.18435 0.22456 0.76487
 C77 C 0.17009 0.24454 0.74698
 C78 C 0.18661 0.26457 0.73102
 C79 C 0.26518 0.24543 0.75190
 C80 C 0.28000 0.26534 0.76889
 C81 C 0.31156 0.26584 0.77064
 C82 C 0.32754 0.24494 0.75489
 C83 C 0.31266 0.22466 0.73785
 C84 C 0.28139 0.22537 0.73642
 H85 H 0.23115 0.27894 0.72013
 H86 H 0.22827 0.21254 0.78060
 H87 H 0.26634 0.27946 0.78136
 H88 H 0.26944 0.21058 0.72297
 H89 H 0.14612 0.24438 0.74475
 H90 H 0.35165 0.24465 0.75512
 C91 C 0.71923 0.76963 0.72937
 C92 C 0.73593 0.75414 0.74831
 C93 C 0.72159 0.73819 0.76848
 C94 C 0.69011 0.73681 0.76959
 C95 C 0.67355 0.75341 0.75067
 C96 C 0.68782 0.77014 0.73049
 C97 C 0.76866 0.75454 0.74639
 C98 C 0.78544 0.77424 0.76212
 C99 C 0.81646 0.77729 0.75831
 C100 C 0.83035 0.75949 0.73876
 C101 C 0.81378 0.73877 0.72354
 C102 C 0.78280 0.73673 0.72740
 H103 H 0.73122 0.78265 0.71466
 H104 H 0.73525 0.72542 0.78216
 H105 H 0.77405 0.78725 0.77715
 H106 H 0.76950 0.72109 0.71583
 H107 H 0.64941 0.75321 0.75158
 H108 H 0.85398 0.76216 0.73489
 C109 C 0.72139 0.26292 0.22835
 C110 C 0.73604 0.24315 0.24548
 C111 C 0.71951 0.22386 0.26165
 C112 C 0.68813 0.22395 0.26091
 C113 C 0.67354 0.24414 0.24373
 C114 C 0.68999 0.26384 0.22735
 C115 C 0.76880 0.24311 0.24718
 C116 C 0.78343 0.26419 0.26320
 C117 C 0.81466 0.26351 0.26624
 C118 C 0.83109 0.24180 0.25218
 C119 C 0.81655 0.22077 0.23572
 C120 C 0.78527 0.22145 0.23357
 H121 H 0.73466 0.27733 0.21564
 H122 H 0.73131 0.20929 0.27530
 H123 H 0.77030 0.28100 0.27337
 H124 H 0.77368 0.20548 0.22095
 H125 H 0.64938 0.24461 0.24321
 H126 H 0.85511 0.24064 0.25459
 C127 C 0.21697 0.77354 0.23502
 C128 C 0.23350 0.75458 0.25139
 C129 C 0.21922 0.73704 0.27046
 C130 C 0.18800 0.73829 0.27390
 C131 C 0.17166 0.75832 0.25757
 C132 C 0.18570 0.77623 0.23789
 C133 C 0.26624 0.75392 0.24941
 C134 C 0.28332 0.77097 0.26712
 C135 C 0.31456 0.77068 0.26582
 C136 C 0.32872 0.75252 0.24683
 C137 C 0.31177 0.73471 0.22910
 C138 C 0.28035 0.73609 0.23033
 H139 H 0.22903 0.78549 0.21973
 H140 H 0.23287 0.72165 0.28175
 H141 H 0.27217 0.78489 0.28171
 H142 H 0.26669 0.72334 0.21655
 H143 H 0.14829 0.76165 0.26173
 H144 H 0.35289 0.75164 0.24656
 O145 O 1.05721 0.03316 0.01924
 O146 O 0.94336 -0.03778 0.01549
 O147 O 0.96592 0.05390 0.01994
 O148 O 1.03467 -0.05856 0.01803
 O149 O 0.94833 0.01206 0.03265
 O150 O 1.05101 -0.01757 0.03386
 O151 O 0.98398 -0.05381 0.03159
 O152 O 1.01618 0.04841 0.03484
 C153 C 1.04331 0.04497 0.03788
 C154 C 0.95675 -0.05054 0.03399
 C155 C 0.95320 0.03881 0.03749
 C156 C 1.04679 -0.04476 0.03676
 O157 O 1.05800 -0.03582 -0.01741
 O158 O 0.94389 0.03338 -0.01763
 O159 O 1.03492 0.05576 -0.01670
 O160 O 0.96702 -0.05804 -0.02072
 O161 O 0.95022 -0.01651 -0.03482
 O162 O 1.05209 0.01500 -0.03216
 O163 O 1.01745 -0.05147 -0.03400
 O164 O 0.98481 0.05087 -0.03171
 Co165 Co 1.04935 -0.00136 0.00080
 Co166 Co 0.95164 -0.00216 -0.00101
 Co167 Co 1.00046 0.04719 0.00147
 Co168 Co 1.00078 -0.05037 -0.00114
 O169 O 1.00054 -0.00166 0.00003
 C170 C 1.04462 -0.04772 -0.03640
 C171 C 0.95793 0.04637 -0.03560
 C172 C 1.04769 0.04215 -0.03512
 C173 C 0.95447 -0.04352 -0.03872
 O174 O 1.05161 0.51153 0.53384
 O175 O 0.94929 0.48254 0.53048
 O176 O 0.98292 0.54668 0.53248
 O177 O 1.01761 0.44546 0.52960
 O178 O 0.94261 0.53280 0.51469
 O179 O 1.05879 0.46226 0.51554
 O180 O 0.96750 0.44103 0.51706
 O181 O 1.03346 0.55355 0.52187
 C182 C 1.04739 0.53828 0.53874
 C183 C 0.95330 0.45551 0.53431
 C184 C 0.95558 0.54525 0.53366
 C185 C 1.04474 0.44786 0.53269
 O186 O 1.05393 0.48566 0.46635
 O187 O 0.95125 0.51256 0.46443
 O188 O 1.01830 0.55019 0.46850
 O189 O 0.98506 0.44848 0.46425
 O190 O 0.94398 0.46213 0.48027
 O191 O 1.05900 0.53525 0.48481
 O192 O 1.03531 0.44319 0.47713
 O193 O 0.96772 0.55421 0.47923
 Co194 Co 1.05033 0.49862 0.50001
 Co195 Co 0.95231 0.49759 0.49757
 Co196 Co 1.00063 0.54619 0.50040
 Co197 Co 1.00130 0.44951 0.49711
 O198 O 1.00120 0.49795 0.49881
 C199 C 1.04987 0.45892 0.46100
 C200 C 0.95490 0.53971 0.46111
 C201 C 1.04560 0.54877 0.46672
 C202 C 0.95785 0.45012 0.46172
 O203 O 0.55110 0.01918 0.53352
 O204 O 0.44983 -0.01507 0.53150
 O205 O 0.48608 0.05313 0.53497
 O206 O 0.51390 -0.04975 0.53185
 O207 O 0.44448 0.03569 0.52115
 O208 O 0.55594 -0.03103 0.52034
 O209 O 0.46422 -0.05546 0.51421
 O210 O 0.53587 0.06068 0.51882
 C211 C 0.54896 0.04639 0.53663
 C212 C 0.45119 -0.04249 0.53277
 C213 C 0.45921 0.04893 0.53888
 C214 C 0.54074 -0.04604 0.53655
 O215 O 0.55185 -0.01261 0.46791
 O216 O 0.45056 0.02108 0.46774
 O217 O 0.51483 0.05613 0.46862
 O218 O 0.48669 -0.04672 0.46488
 O219 O 0.44480 -0.02968 0.47788
 O220 O 0.55648 0.03766 0.48123
 O221 O 0.53608 -0.05412 0.48227
 O222 O 0.46474 0.06163 0.48516
 Co223 Co 0.54886 0.00329 0.50069
 Co224 Co 0.45239 0.00302 0.49963
 Co225 Co 0.50036 0.05237 0.50171
 Co226 Co 0.50021 -0.04596 0.49848
 O227 O 0.50048 0.00319 0.50013
 C228 C 0.54981 -0.03984 0.46486
 C229 C 0.45200 0.04850 0.46641
 C230 C 0.54168 0.05212 0.46436
 C231 C 0.45983 -0.04308 0.46056
 O232 O 0.55300 0.51576 0.03282
 O233 O 0.45069 0.48537 0.03120
 O234 O 0.48574 0.55129 0.03261
 O235 O 0.51795 0.44931 0.03088
 O236 O 0.44462 0.53577 0.01695
 O237 O 0.55929 0.46595 0.01672
 O238 O 0.46778 0.44391 0.01704
 O239 O 0.53608 0.55761 0.01962
 C240 C 0.54960 0.54275 0.03693
 C241 C 0.45349 0.45814 0.03427
 C242 C 0.45850 0.54913 0.03500
 C243 C 0.54510 0.45183 0.03403
 O244 O 0.55371 0.48709 -0.03384
 O245 O 0.45153 0.51682 -0.03432
 O246 O 0.51826 0.55317 -0.03245
 O247 O 0.48636 0.45077 -0.03477
 O248 O 0.44507 0.46631 -0.01991
 O249 O 0.55952 0.53699 -0.01770
 O250 O 0.53653 0.44504 -0.02101
 O251 O 0.46792 0.55827 -0.01940
 Co252 Co 0.55098 0.50144 -0.00054
 Co253 Co 0.45339 0.50110 -0.00149
 Co254 Co 0.50200 0.54987 0.00000
 Co255 Co 0.50214 0.45248 -0.00188
 O256 O 0.50214 0.50122 -0.00097
 C257 C 0.55060 0.46002 -0.03793
 C258 C 0.45435 0.54409 -0.03722
 C259 C 0.54549 0.55125 -0.03503
 C260 C 0.45920 0.45312 -0.03777
 C261 C 1.16312 0.13376 0.18915
 C262 C 1.18946 0.12080 0.19924
 C263 C 1.20895 0.13733 0.21538
 C264 C 1.20230 0.16706 0.22250
 C265 C 1.17521 0.17947 0.21355
 C266 C 1.15614 0.16324 0.19685
 C267 C 1.14400 0.11741 0.16950
 C268 C 1.11309 0.12292 0.16766
 C269 C 1.09593 0.10997 0.14736
 C270 C 1.10908 0.09064 0.12867
 C271 C 1.13959 0.08380 0.13149
 C272 C 1.15686 0.09729 0.15131
 C273 C 1.09168 0.07880 0.10559
 C274 C 1.10586 0.07438 0.08097
 C275 C 1.09004 0.06325 0.05921
 C276 C 1.05942 0.05694 0.06120
 C277 C 1.04485 0.06180 0.08549
 C278 C 1.06089 0.07236 0.10757
 H279 H 1.19537 0.09794 0.19442
 H280 H 1.22962 0.12696 0.22164
 H281 H 1.16876 0.20195 0.21916
 H282 H 1.13637 0.17431 0.18937
 H283 H 1.10210 0.13762 0.18164
 H284 H 1.07257 0.11592 0.14588
 H285 H 1.15042 0.06834 0.11805
 H286 H 1.18055 0.09260 0.15168
 H287 H 1.12920 0.07994 0.07826
 H288 H 1.10175 0.06001 0.04061
 H289 H 1.02124 0.05691 0.08751
 H290 H 1.04923 0.07511 0.12623
 C291 C 1.17250 0.63864 0.68011
 C292 C 1.19305 0.66000 0.67059
 C293 C 1.21235 0.67491 0.68800
 C294 C 1.21192 0.66852 0.71530
 C295 C 1.19227 0.64646 0.72484
 C296 C 1.17260 0.63177 0.70744
 C297 C 1.15096 0.62396 0.66155
 C298 C 1.14270 0.59375 0.66481
 C299 C 1.12332 0.57983 0.64673
 C300 C 1.11193 0.59567 0.62476
 C301 C 1.11969 0.62606 0.62186
 C302 C 1.13876 0.64005 0.64009
 C303 C 1.09342 0.58027 0.60419
 C304 C 1.07050 0.59556 0.59062
 C305 C 1.05500 0.58177 0.56969
 C306 C 1.06187 0.55231 0.56210
 C307 C 1.08390 0.53662 0.57630
 C308 C 1.09961 0.55048 0.59695
 H309 H 1.19425 0.66527 0.64962
 H310 H 1.22759 0.69161 0.68016
 H311 H 1.19139 0.64138 0.74587
 H312 H 1.15692 0.61570 0.71554
 H313 H 1.15176 0.58058 0.68098
 H314 H 1.11745 0.55654 0.64989
 H315 H 1.11170 0.63893 0.60508
 H316 H 1.14405 0.66353 0.63725
 H317 H 1.06467 0.61829 0.59601
 H318 H 1.03789 0.59425 0.55927
 H319 H 1.08976 0.51389 0.57088
 H320 H 1.11737 0.53813 0.60656
 C321 C 0.66760 0.14390 0.68391
 C322 C 0.66008 0.17068 0.69683
 C323 C 0.68007 0.18407 0.71467
 C324 C 0.70831 0.17131 0.71953
 C325 C 0.71552 0.14418 0.70679
 C326 C 0.69528 0.13052 0.68935
 C327 C 0.64712 0.13041 0.66409
 C328 C 0.63970 0.09989 0.66544
 C329 C 0.62168 0.08677 0.64590
 C330 C 0.61121 0.10375 0.62420
 C331 C 0.61821 0.13452 0.62326
 C332 C 0.63579 0.14774 0.64311
 C333 C 0.59436 0.08908 0.60211
 C334 C 0.57187 0.10443 0.58802
 C335 C 0.55706 0.09072 0.56663
 C336 C 0.56414 0.06127 0.55918
 C337 C 0.58625 0.04581 0.57344
 C338 C 0.60134 0.05960 0.59444
 H339 H 0.63869 0.18119 0.69314
 H340 H 0.67337 0.20452 0.72456
 H341 H 0.73718 0.13393 0.70961
 H342 H 0.70164 0.10998 0.67939
 H343 H 0.64789 0.08620 0.68165
 H344 H 0.61613 0.06323 0.64774
 H345 H 0.61099 0.14825 0.60673
 H346 H 0.64145 0.17131 0.64158
 H347 H 0.56555 0.12697 0.59358
 H348 H 0.53993 0.10302 0.55607
 H349 H 0.59237 0.02316 0.56801
 H350 H 0.61897 0.04727 0.60426
 C351 C 0.66854 0.64264 0.18277
 C352 C 0.69609 0.62951 0.18917
 C353 C 0.71590 0.64391 0.20657
 C354 C 0.70837 0.67154 0.21824
 C355 C 0.68031 0.68412 0.21235
 C356 C 0.66075 0.66997 0.19462
 C357 C 0.64839 0.62831 0.16312
 C358 C 0.63682 0.64500 0.14184
 C359 C 0.61909 0.63120 0.12243
 C360 C 0.61216 0.60045 0.12409
 C361 C 0.62308 0.58404 0.14594
 C362 C 0.64123 0.59776 0.16509
 C363 C 0.59481 0.58532 0.10257
 C364 C 0.60160 0.55571 0.09513
 C365 C 0.58637 0.54178 0.07426
 C366 C 0.56429 0.55723 0.05994
 C367 C 0.55715 0.58667 0.06741
 C368 C 0.57210 0.60050 0.08863
 H369 H 0.70267 0.60854 0.18007
 H370 H 0.73744 0.63375 0.21030
 H371 H 0.67337 0.70496 0.22144
 H372 H 0.63945 0.68031 0.19022
 H373 H 0.64229 0.66856 0.13979
 H374 H 0.61161 0.64448 0.10571
 H375 H 0.61768 0.56052 0.14828
 H376 H 0.64962 0.58453 0.18153
 H377 H 0.61931 0.54346 0.10493
 H378 H 0.59249 0.51910 0.06887
 H379 H 0.54005 0.59899 0.05682
 H380 H 0.56584 0.62309 0.09408
 C381 C 0.83225 -0.13832 0.18227
 C382 C 0.80565 -0.12485 0.19107
 C383 C 0.78632 -0.14002 0.20826
 C384 C 0.79339 -0.16880 0.21771
 C385 C 0.82053 -0.18179 0.20970
 C386 C 0.83946 -0.16697 0.19199
 C387 C 0.85171 -0.12323 0.16224
 C388 C 0.88278 -0.12813 0.16179
 C389 C 0.90052 -0.11586 0.14167
 C390 C 0.88780 -0.09782 0.12175
 C391 C 0.85699 -0.09181 0.12295
 C392 C 0.83917 -0.10465 0.14263
 C393 C 0.90613 -0.08613 0.09928
 C394 C 0.89325 -0.08275 0.07392
 C395 C 0.90984 -0.07121 0.05287
 C396 C 0.93999 -0.06352 0.05637
 C397 C 0.95335 -0.06754 0.08136
 C398 C 0.93649 -0.07846 0.10272
 H399 H 0.79953 -0.10257 0.18461
 H400 H 0.76556 -0.12929 0.21367
 H401 H 0.82727 -0.20355 0.21702
 H402 H 0.85943 -0.17841 0.18550
 H403 H 0.89349 -0.14169 0.17685
 H404 H 0.92408 -0.12121 0.14141
 H405 H 0.84640 -0.07736 0.10848
 H406 H 0.81538 -0.10054 0.14191
 H407 H 0.87033 -0.08928 0.07013
 H408 H 0.89912 -0.06862 0.03368
 H409 H 0.97656 -0.06153 0.08452
 H410 H 0.94714 -0.08035 0.12197
 C411 C 0.83610 0.35616 0.68114
 C412 C 0.81061 0.37115 0.69025
 C413 C 0.79103 0.35729 0.70811
 C414 C 0.79645 0.32793 0.71759
 C415 C 0.82291 0.31363 0.70890
 C416 C 0.84218 0.32742 0.69083
 C417 C 0.85591 0.37014 0.66105
 C418 C 0.86530 0.35369 0.63878
 C419 C 0.88284 0.36719 0.61916
 C420 C 0.89167 0.39738 0.62150
 C421 C 0.88291 0.41352 0.64424
 C422 C 0.86505 0.40012 0.66368
 C423 C 0.90868 0.41237 0.59979
 C424 C 0.90272 0.44239 0.59326
 C425 C 0.91766 0.45637 0.57234
 C426 C 0.93871 0.44061 0.55713
 C427 C 0.94500 0.41069 0.56368
 C428 C 0.93022 0.39674 0.58488
 H429 H 0.80524 0.39327 0.68281
 H430 H 0.77092 0.36934 0.71312
 H431 H 0.82958 0.29198 0.71644
 H432 H 0.86211 0.31567 0.68460
 H433 H 0.85830 0.33061 0.63616
 H434 H 0.88869 0.35419 0.60176
 H435 H 0.88982 0.43659 0.64704
 H436 H 0.85847 0.41315 0.68086
 H437 H 0.88590 0.45499 0.60386
 H438 H 0.91221 0.47944 0.56774
 H439 H 0.96129 0.39810 0.55241
 H440 H 0.93573 0.37374 0.58961
 C441 C 0.31812 -0.14366 0.66717
 C442 C 0.31116 -0.12920 0.69117
 C443 C 0.29228 -0.14292 0.70965
 C444 C 0.27973 -0.17127 0.70441
 C445 C 0.28623 -0.18536 0.68007
 C446 C 0.30537 -0.17180 0.66174
 C447 C 0.33877 -0.12950 0.64791
 C448 C 0.36184 -0.14618 0.63621
 C449 C 0.38150 -0.13270 0.61823
 C450 C 0.37831 -0.10231 0.61136
 C451 C 0.35497 -0.08579 0.62295
 C452 C 0.33557 -0.09919 0.64114
 C453 C 0.39896 -0.08782 0.59206
 C454 C 0.40740 -0.05765 0.59536
 C455 C 0.42498 -0.04327 0.57637
 C456 C 0.43493 -0.05879 0.55379
 C457 C 0.42768 -0.08926 0.55093
 C458 C 0.40970 -0.10360 0.56981
 H459 H 0.32093 -0.10759 0.69590
 H460 H 0.28816 -0.13164 0.72835
 H461 H 0.27645 -0.20689 0.67510
 H462 H 0.31002 -0.18318 0.64319
 H463 H 0.36496 -0.16954 0.64135
 H464 H 0.39945 -0.14598 0.61002
 H465 H 0.35135 -0.06256 0.61767
 H466 H 0.31770 -0.08596 0.64961
 H467 H 0.40025 -0.04501 0.61257
 H468 H 0.43053 -0.01981 0.57922
 H469 H 0.43501 -0.10169 0.53364
 H470 H 0.40343 -0.12676 0.56648
 C471 C 0.32712 0.35484 0.17370
 C472 C 0.31973 0.36820 0.19816
 C473 C 0.29928 0.35462 0.21537
 C474 C 0.28627 0.32663 0.20915
 C475 C 0.29408 0.31311 0.18478
 C476 C 0.31376 0.32718 0.16723
 C477 C 0.34810 0.36987 0.15479
 C478 C 0.36575 0.35302 0.13714
 C479 C 0.38400 0.36718 0.11839
 C480 C 0.38579 0.39865 0.11717
 C481 C 0.36913 0.41545 0.13559
 C482 C 0.35025 0.40133 0.15379
 C483 C 0.40394 0.41396 0.09626
 C484 C 0.39486 0.44187 0.08607
 C485 C 0.41141 0.45629 0.06641
 C486 C 0.43703 0.44287 0.05576
 C487 C 0.44614 0.41490 0.06550
 C488 C 0.43000 0.40076 0.08581
 H489 H 0.33007 0.38901 0.20438
 H490 H 0.29494 0.36554 0.23418
 H491 H 0.28393 0.29222 0.17847
 H492 H 0.31792 0.31651 0.14828
 H493 H 0.36546 0.32877 0.13760
 H494 H 0.39615 0.35332 0.10449
 H495 H 0.37039 0.43967 0.13593
 H496 H 0.33688 0.41530 0.16666
 H497 H 0.37455 0.45249 0.09282
 H498 H 0.40364 0.47771 0.05901
 H499 H 0.46590 0.40417 0.05764
 H500 H 0.43813 0.37959 0.09336
 C501 C 0.83505 0.13811 -0.18208
 C502 C 0.80488 0.12921 -0.18339
 C503 C 0.78478 0.14420 -0.20000
 C504 C 0.79437 0.16848 -0.21559
 C505 C 0.82462 0.17699 -0.21471
 C506 C 0.84473 0.16197 -0.19818
 C507 C 0.85600 0.12329 -0.16327
 C508 C 0.87701 0.14033 -0.14885
 C509 C 0.89543 0.12675 -0.12992
 C510 C 0.89319 0.09585 -0.12490
 C511 C 0.87279 0.07866 -0.13984
 C512 C 0.85443 0.09222 -0.15883
 C513 C 0.91066 0.08198 -0.10304
 C514 C 0.89678 0.06165 -0.08565
 C515 C 0.91236 0.04991 -0.06401
 C516 C 0.94223 0.05812 -0.05926
 C517 C 0.95646 0.07783 -0.07699
 C518 C 0.94075 0.08979 -0.09861
 H519 H 0.79658 0.11123 -0.17096
 H520 H 0.76154 0.13737 -0.20003
 H521 H 0.83275 0.19531 -0.22685
 H522 H 0.86790 0.16903 -0.19800
 H523 H 0.87851 0.16437 -0.15151
 H524 H 0.91063 0.14064 -0.11847
 H525 H 0.87089 0.05472 -0.13669
 H526 H 0.83890 0.07838 -0.16995
 H527 H 0.87355 0.05547 -0.08833
 H528 H 0.90086 0.03460 -0.05079
 H529 H 0.97954 0.08438 -0.07389
 H530 H 0.95209 0.10518 -0.11185
 C531 C 0.82940 0.64064 0.32165
 C532 C 0.82111 0.67027 0.32698
 C533 C 0.80113 0.68522 0.31038
 C534 C 0.78895 0.67117 0.28753
 C535 C 0.79716 0.64106 0.28263
 C536 C 0.81701 0.62605 0.29950
 C537 C 0.85061 0.62505 0.33953
 C538 C 0.84454 0.59586 0.34845
 C539 C 0.86360 0.58193 0.36664
 C540 C 0.88933 0.59676 0.37611
 C541 C 0.89577 0.62568 0.36657
 C542 C 0.87655 0.63971 0.34857
 C543 C 0.90861 0.58253 0.39664
 C544 C 0.92118 0.59973 0.41734
 C545 C 0.93730 0.58600 0.43779
 C546 C 0.94091 0.55476 0.43812
 C547 C 0.92930 0.53767 0.41699
 C548 C 0.91346 0.55141 0.39642
 H549 H 0.82969 0.68175 0.34439
 H550 H 0.79461 0.70753 0.31635
 H551 H 0.78953 0.62916 0.26515
 H552 H 0.82326 0.60321 0.29485
 H553 H 0.82452 0.58421 0.34202
 H554 H 0.85763 0.55987 0.37391
 H555 H 0.91565 0.63753 0.37304
 H556 H 0.88194 0.66208 0.34169
 H557 H 0.91762 0.62370 0.41831
 H558 H 0.94597 0.59970 0.45385
 H559 H 0.93203 0.51355 0.41658
 H560 H 0.90471 0.53757 0.38050
 C561 C 0.32095 0.14875 0.32994
 C562 C 0.31293 0.17896 0.33232
 C563 C 0.29364 0.19214 0.31391
 C564 C 0.28180 0.17554 0.29230
 C565 C 0.28991 0.14501 0.29029
 C566 C 0.30915 0.13189 0.30882
 C567 C 0.34142 0.13479 0.34956
 C568 C 0.33549 0.10594 0.35939
 C569 C 0.35469 0.09270 0.37782
 C570 C 0.38040 0.10792 0.38676
 C571 C 0.38628 0.13686 0.37702
 C572 C 0.36696 0.15018 0.35863
 C573 C 0.40081 0.09345 0.40619
 C574 C 0.41371 0.10994 0.42718
 C575 C 0.43128 0.09563 0.44640
 C576 C 0.43610 0.06458 0.44502
 C577 C 0.42409 0.04835 0.42353
 C578 C 0.40675 0.06263 0.40432
 H579 H 0.32113 0.19231 0.34880
 H580 H 0.28729 0.21513 0.31753
 H581 H 0.28268 0.13124 0.27377
 H582 H 0.31536 0.10863 0.30624
 H583 H 0.31570 0.09377 0.35312
 H584 H 0.34914 0.07065 0.38536
 H585 H 0.40606 0.14902 0.38329
 H586 H 0.37226 0.17233 0.35116
 H587 H 0.40942 0.13370 0.42925
 H588 H 0.44029 0.10865 0.46276
 H589 H 0.42771 0.02443 0.42177
 H590 H 0.39777 0.04942 0.38808
 C591 C 0.32725 0.64744 -0.17504
 C592 C 0.33189 0.67713 -0.18307
 C593 C 0.31236 0.69083 -0.20099
 C594 C 0.28714 0.67539 -0.21128
 C595 C 0.28270 0.64544 -0.20282
 C596 C 0.30254 0.63171 -0.18513
 C597 C 0.34813 0.63293 -0.15613
 C598 C 0.35873 0.60388 -0.16101
 C599 C 0.37799 0.58998 -0.14297
 C600 C 0.38676 0.60465 -0.11940
 C601 C 0.37637 0.63392 -0.11474
 C602 C 0.35740 0.64796 -0.13298
 C603 C 0.40556 0.58901 -0.09929
 C604 C 0.42684 0.60476 -0.08397
 C605 C 0.44316 0.59015 -0.06407
 C606 C 0.43872 0.55946 -0.05923
 C607 C 0.41810 0.54356 -0.07500
 C608 C 0.40161 0.55817 -0.09463
 H609 H 0.35113 0.68959 -0.17593
 H610 H 0.31818 0.71320 -0.20741
 H611 H 0.26336 0.63255 -0.20885
 H612 H 0.29818 0.60889 -0.17886
 H613 H 0.35228 0.59201 -0.17893
 H614 H 0.38603 0.56771 -0.14752
 H615 H 0.38221 0.64572 -0.09664
 H616 H 0.34933 0.67029 -0.12865
 H617 H 0.43085 0.62840 -0.08731
 H618 H 0.45908 0.60290 -0.05234
 H619 H 0.41407 0.51990 -0.07169
 H620 H 0.38511 0.54538 -0.10563
 C621 C 1.16486 -0.13560 -0.18720
 C622 C 1.19064 -0.12190 -0.19771
 C623 C 1.20959 -0.13763 -0.21477
 C624 C 1.20297 -0.16729 -0.22233
 C625 C 1.17653 -0.18052 -0.21272
 C626 C 1.15797 -0.16507 -0.19518
 C627 C 1.14603 -0.11987 -0.16711
 C628 C 1.11517 -0.12569 -0.16518
 C629 C 1.09816 -0.11292 -0.14484
 C630 C 1.11140 -0.09345 -0.12618
 C631 C 1.14193 -0.08652 -0.12890
 C632 C 1.15905 -0.09982 -0.14882
 C633 C 1.09391 -0.08137 -0.10335
 C634 C 1.10789 -0.07653 -0.07861
 C635 C 1.09184 -0.06535 -0.05709
 C636 C 1.06120 -0.05940 -0.05947
 C637 C 1.04692 -0.06450 -0.08393
 C638 C 1.06317 -0.07510 -0.10574
 H639 H 1.19645 -0.09904 -0.19261
 H640 H 1.22982 -0.12667 -0.22148
 H641 H 1.17015 -0.20300 -0.21857
 H642 H 1.13863 -0.17667 -0.18737
 H643 H 1.10408 -0.14042 -0.17920
 H644 H 1.07480 -0.11903 -0.14339
 H645 H 1.15286 -0.07103 -0.11543
 H646 H 1.18274 -0.09493 -0.14928
 H647 H 1.13123 -0.08185 -0.07562
 H648 H 1.10334 -0.06186 -0.03836
 H649 H 1.02333 -0.05983 -0.08629
 H650 H 1.05167 -0.07806 -0.12451
 C651 C 1.16811 0.36279 0.31365
 C652 C 1.15871 0.33634 0.30104
 C653 C 1.17757 0.32150 0.28339
 C654 C 1.20651 0.33250 0.27827
 C655 C 1.21557 0.35951 0.29033
 C656 C 1.19647 0.37460 0.30776
 C657 C 1.14880 0.37721 0.33375
 C658 C 1.14358 0.40819 0.33313
 C659 C 1.12571 0.42167 0.35249
 C660 C 1.11312 0.40452 0.37316
 C661 C 1.11835 0.37344 0.37358
 C662 C 1.13581 0.35994 0.35400
 C663 C 1.09563 0.41905 0.39475
 C664 C 1.07152 0.40405 0.40693
 C665 C 1.05641 0.41705 0.42832
 C666 C 1.06480 0.44548 0.43774
 C667 C 1.08825 0.46086 0.42513
 C668 C 1.10363 0.44772 0.40406
 H669 H 1.13675 0.32707 0.30494
 H670 H 1.16954 0.30122 0.27390
 H671 H 1.23777 0.36846 0.28701
 H672 H 1.20425 0.39491 0.31739
 H673 H 1.15311 0.42190 0.31752
 H674 H 1.12172 0.44554 0.35119
 H675 H 1.10962 0.35958 0.38943
 H676 H 1.13983 0.33604 0.35507
 H677 H 1.06431 0.38223 0.39995
 H678 H 1.03817 0.40487 0.43750
 H679 H 1.09529 0.48279 0.43204
 H680 H 1.12235 0.45976 0.39559
 C681 C 0.67674 -0.14149 0.32610
 C682 C 0.67714 -0.13330 0.29907
 C683 C 0.69684 -0.14708 0.28137
 C684 C 0.71614 -0.16968 0.29024
 C685 C 0.71597 -0.17781 0.31715
 C686 C 0.69670 -0.16369 0.33495
 C687 C 0.65570 -0.12699 0.34503
 C688 C 0.64336 -0.14330 0.36629
 C689 C 0.62466 -0.12939 0.38472
 C690 C 0.61741 -0.09888 0.38216
 C691 C 0.62897 -0.08282 0.36041
 C692 C 0.64806 -0.09660 0.34223
 C693 C 0.59895 -0.08357 0.40265
 C694 C 0.60510 -0.05366 0.40971
 C695 C 0.58865 -0.03942 0.42950
 C696 C 0.56599 -0.05485 0.44311
 C697 C 0.55957 -0.08464 0.43610
 C698 C 0.57574 -0.09880 0.41592
 H699 H 0.66182 -0.11669 0.29140
 H700 H 0.69640 -0.14074 0.26060
 H701 H 0.73090 -0.19504 0.32442
 H702 H 0.69763 -0.17008 0.35568
 H703 H 0.64818 -0.16689 0.36880
 H704 H 0.61650 -0.14244 0.40133
 H705 H 0.62344 -0.05946 0.35744
 H706 H 0.65730 -0.08319 0.32631
 H707 H 0.62317 -0.04137 0.40044
 H708 H 0.59423 -0.01648 0.43462
 H709 H 0.54201 -0.09693 0.44616
 H710 H 0.56999 -0.12165 0.41070
 C711 C 0.67382 0.36032 -0.18052
 C712 C 0.66508 0.33382 -0.19342
 C713 C 0.68452 0.31938 -0.21088
 C714 C 0.71346 0.33076 -0.21545
 C715 C 0.72197 0.35763 -0.20280
 C716 C 0.70226 0.37237 -0.18567
 C717 C 0.65366 0.37483 -0.16111
 C718 C 0.64780 0.40564 -0.16259
 C719 C 0.62926 0.41937 -0.14388
 C720 C 0.61666 0.40269 -0.12290
 C721 C 0.62246 0.37172 -0.12167
 C722 C 0.64054 0.35793 -0.14068
 C723 C 0.59856 0.41770 -0.10188
 C724 C 0.57483 0.40263 -0.08917
 C725 C 0.55902 0.41635 -0.06849
 C726 C 0.56627 0.44561 -0.06038
 C727 C 0.58942 0.46094 -0.07345
 C728 C 0.60552 0.44710 -0.09374
 H729 H 0.64310 0.32433 -0.19002
 H730 H 0.67686 0.29919 -0.22076
 H731 H 0.74416 0.36685 -0.20546
 H732 H 0.70956 0.39269 -0.17576
 H733 H 0.65739 0.41905 -0.17838
 H734 H 0.62481 0.44309 -0.14593
 H735 H 0.61372 0.35818 -0.10561
 H736 H 0.64499 0.33415 -0.13900
 H737 H 0.56838 0.38022 -0.09518
 H738 H 0.54112 0.40412 -0.05887
 H739 H 0.59568 0.48345 -0.06751
 H740 H 0.62397 0.45927 -0.10252
 C741 C 1.13566 0.16426 -0.18488
 C742 C 1.16582 0.15919 -0.19089
 C743 C 1.18142 0.17838 -0.20785
 C744 C 1.16775 0.20404 -0.21902
 C745 C 1.13714 0.20855 -0.21328
 C746 C 1.12141 0.18888 -0.19675
 C747 C 1.11971 0.14477 -0.16538
 C748 C 1.09798 0.15690 -0.14836
 C749 C 1.08467 0.13933 -0.12870
 C750 C 1.09318 0.10929 -0.12497
 C751 C 1.11421 0.09684 -0.14249
 C752 C 1.12706 0.11426 -0.16258
 C753 C 1.08122 0.09164 -0.10216
 C754 C 1.07675 0.06040 -0.10398
 C755 C 1.06624 0.04407 -0.08211
 C756 C 1.05952 0.05874 -0.05818
 C757 C 1.06376 0.08984 -0.05639
 C758 C 1.07478 0.10602 -0.07795
 H759 H 1.17780 0.14065 -0.18208
 H760 H 1.20416 0.17224 -0.21238
 H761 H 1.12512 0.22791 -0.22036
 H762 H 1.09803 0.19332 -0.19306
 H763 H 1.09184 0.18030 -0.14957
 H764 H 1.06795 0.14957 -0.11614
 H765 H 1.12151 0.07388 -0.14025
 H766 H 1.14311 0.10381 -0.17567
 H767 H 1.08103 0.04856 -0.12236
 H768 H 1.06291 0.02009 -0.08403
 H769 H 1.05898 0.10170 -0.03809
 H770 H 1.07871 0.12979 -0.07538
 C771 C 1.14569 0.68125 0.33072
 C772 C 1.17559 0.68989 0.33396
 C773 C 1.18929 0.70899 0.31566
 C774 C 1.17359 0.71993 0.29323
 C775 C 1.14326 0.71140 0.29046
 C776 C 1.12959 0.69242 0.30894
 C777 C 1.13140 0.66067 0.35008
 C778 C 1.10244 0.66634 0.35943
 C779 C 1.08909 0.64715 0.37787
 C780 C 1.10426 0.62165 0.38722
 C781 C 1.13324 0.61596 0.37780
 C782 C 1.14668 0.63530 0.35948
 C783 C 1.08983 0.60127 0.40680
 C784 C 1.10640 0.58829 0.42763
 C785 C 1.09229 0.57042 0.44677
 C786 C 1.06134 0.56540 0.44554
 C787 C 1.04496 0.57765 0.42433
 C788 C 1.05904 0.59524 0.40515
 H789 H 1.18832 0.68225 0.35098
 H790 H 1.21199 0.71581 0.31994
 H791 H 1.13016 0.71803 0.27338
 H792 H 1.10655 0.68579 0.30578
 H793 H 1.09033 0.68596 0.35284
 H794 H 1.06700 0.65258 0.38512
 H795 H 1.14538 0.59632 0.38428
 H796 H 1.16890 0.63019 0.35235
 H797 H 1.13011 0.59267 0.42961
 H798 H 1.10543 0.56126 0.46292
 H799 H 1.02110 0.57388 0.42269
 H800 H 1.04573 0.60424 0.38904
 C801 C 0.64111 0.16598 0.31533
 C802 C 0.62948 0.19426 0.30888
 C803 C 0.64437 0.21291 0.29087
 C804 C 0.67098 0.20347 0.27866
 C805 C 0.68188 0.17462 0.28446
 C806 C 0.66727 0.15622 0.30278
 C807 C 0.62662 0.14715 0.33583
 C808 C 0.64358 0.13512 0.35674
 C809 C 0.62983 0.11846 0.37683
 C810 C 0.59884 0.11305 0.37624
 C811 C 0.58207 0.12453 0.35483
 C812 C 0.59577 0.14164 0.33500
 C813 C 0.58394 0.09649 0.39831
 C814 C 0.55505 0.10454 0.40655
 C815 C 0.54126 0.08974 0.42766
 C816 C 0.55618 0.06684 0.44144
 C817 C 0.58498 0.05861 0.43331
 C818 C 0.59863 0.07311 0.41183
 H819 H 0.60943 0.20233 0.31849
 H820 H 0.63553 0.23509 0.28722
 H821 H 0.70186 0.16626 0.27496
 H822 H 0.67641 0.13433 0.30718
 H823 H 0.66739 0.13936 0.35793
 H824 H 0.64344 0.11055 0.39318
 H825 H 0.55830 0.12029 0.35331
 H826 H 0.58231 0.15042 0.31888
 H827 H 0.54323 0.12280 0.39710
 H828 H 0.51908 0.09670 0.43358
 H829 H 0.59689 0.04090 0.44348
 H830 H 0.62065 0.06588 0.40579
 C831 C 0.64761 0.67970 -0.17388
 C832 C 0.67449 0.69456 -0.16760
 C833 C 0.68846 0.71325 -0.18611
 C834 C 0.67561 0.71845 -0.21132
 C835 C 0.64829 0.70405 -0.21729
 C836 C 0.63482 0.68467 -0.19906
 C837 C 0.63291 0.65933 -0.15426
 C838 C 0.60164 0.65612 -0.15380
 C839 C 0.58782 0.63725 -0.13540
 C840 C 0.60471 0.62162 -0.11631
 C841 C 0.63600 0.62469 -0.11680
 C842 C 0.64991 0.64300 -0.13568
 C843 C 0.58962 0.60298 -0.09562
 C844 C 0.60339 0.57727 -0.08491
 C845 C 0.58925 0.56043 -0.06505
 C846 C 0.56079 0.56853 -0.05598
 C847 C 0.54687 0.59388 -0.06684
 C848 C 0.56123 0.61109 -0.08609
 H849 H 0.68465 0.69219 -0.14819
 H850 H 0.70880 0.72457 -0.18004
 H851 H 0.63795 0.70622 -0.23666
 H852 H 0.61464 0.67307 -0.20509
 H853 H 0.58759 0.66853 -0.16739
 H854 H 0.56375 0.63502 -0.13622
 H855 H 0.64987 0.61340 -0.10232
 H856 H 0.67405 0.64424 -0.13566
 H857 H 0.62496 0.56991 -0.09198
 H858 H 0.60035 0.54088 -0.05703
 H859 H 0.52505 0.60085 -0.05996
 H860 H 0.55016 0.63112 -0.09310
 C861 C 0.86652 -0.16167 -0.19140
 C862 C 0.88003 -0.18752 -0.20194
 C863 C 0.86397 -0.20715 -0.21830
 C864 C 0.83414 -0.20107 -0.22528
 C865 C 0.82113 -0.17444 -0.21585
 C866 C 0.83691 -0.15526 -0.19888
 C867 C 0.88248 -0.14252 -0.17151
 C868 C 0.87624 -0.11170 -0.16910
 C869 C 0.88896 -0.09464 -0.14861
 C870 C 0.90876 -0.10780 -0.13031
 C871 C 0.91631 -0.13815 -0.13371
 C872 C 0.90305 -0.15533 -0.15370
 C873 C 0.92040 -0.09066 -0.10700
 C874 C 0.92531 -0.10545 -0.08270
 C875 C 0.93648 -0.08999 -0.06076
 C876 C 0.94232 -0.05914 -0.06222
 C877 C 0.93684 -0.04394 -0.08615
 C878 C 0.92623 -0.05962 -0.10844
 H879 H 0.90300 -0.19296 -0.19731
 H880 H 0.87482 -0.22747 -0.22487
 H881 H 0.79856 -0.16839 -0.22133
 H882 H 0.82543 -0.13587 -0.19107
 H883 H 0.86114 -0.10073 -0.18279
 H884 H 0.88249 -0.07139 -0.14667
 H885 H 0.93215 -0.14894 -0.12058
 H886 H 0.90831 -0.17897 -0.15448
 H887 H 0.92017 -0.12902 -0.08038
 H888 H 0.94014 -0.10219 -0.04243
 H889 H 0.94133 -0.02012 -0.08775
 H890 H 0.92303 -0.04749 -0.12685
 C891 C 0.85804 0.32574 0.31967
 C892 C 0.87206 0.31713 0.29592
 C893 C 0.85800 0.29709 0.27847
 C894 C 0.82977 0.28498 0.28458
 C895 C 0.81597 0.29350 0.30852
 C896 C 0.82985 0.31378 0.32575
 C897 C 0.87295 0.34657 0.33845
 C898 C 0.85704 0.37034 0.34996
 C899 C 0.87071 0.38916 0.36863
 C900 C 0.90051 0.38438 0.37647
 C901 C 0.91646 0.36073 0.36465
 C902 C 0.90289 0.34217 0.34573
 C903 C 0.91468 0.40327 0.39745
 C904 C 0.94529 0.41038 0.39626
 C905 C 0.95910 0.42613 0.41692
 C906 C 0.94258 0.43550 0.43910
 C907 C 0.91180 0.42951 0.43992
 C908 C 0.89802 0.41339 0.41939
 H909 H 0.89374 0.32621 0.29072
 H910 H 0.86908 0.29138 0.26006
 H911 H 0.79459 0.28411 0.31423
 H912 H 0.81880 0.31966 0.34416
 H913 H 0.83400 0.37440 0.34442
 H914 H 0.85792 0.40746 0.37691
 H915 H 0.93923 0.35596 0.37054
 H916 H 0.91551 0.32377 0.33740
 H917 H 0.95868 0.40361 0.37942
 H918 H 0.98284 0.43074 0.41565
 H919 H 0.89857 0.43642 0.45683
 H920 H 0.87451 0.40802 0.42118
 C921 C 0.36090 -0.17024 0.31965
 C922 C 0.36761 -0.17003 0.29230
 C923 C 0.35343 -0.19007 0.27489
 C924 C 0.33201 -0.21039 0.28442
 C925 C 0.32576 -0.21112 0.31173
 C926 C 0.34020 -0.19146 0.32916
 C927 C 0.37509 -0.14833 0.33822
 C928 C 0.35901 -0.13681 0.35993
 C929 C 0.37262 -0.11741 0.37814
 C930 C 0.40259 -0.10862 0.37497
 C931 C 0.41837 -0.11929 0.35274
 C932 C 0.40487 -0.13903 0.33471
 C933 C 0.41774 -0.08985 0.39554
 C934 C 0.44778 -0.09515 0.40220
 C935 C 0.46159 -0.07918 0.42270
 C936 C 0.44562 -0.05778 0.43738
 C937 C 0.41584 -0.05182 0.43043
 C938 C 0.40208 -0.06757 0.40961
 H939 H 0.38314 -0.15383 0.28418
 H940 H 0.35836 -0.18894 0.25385
 H941 H 0.30950 -0.22684 0.31954
 H942 H 0.33507 -0.19292 0.35014
 H943 H 0.33583 -0.14287 0.36298
 H944 H 0.35980 -0.10998 0.39512
 H945 H 0.44132 -0.11262 0.34935
 H946 H 0.41805 -0.14753 0.31836
 H947 H 0.46046 -0.11244 0.39223
 H948 H 0.48457 -0.08437 0.42763
 H949 H 0.40311 -0.03522 0.44125
 H950 H 0.37911 -0.06243 0.40470
 C951 C 0.35553 0.32750 -0.17713
 C952 C 0.32668 0.33333 -0.18650
 C953 C 0.31249 0.31343 -0.20391
 C954 C 0.32652 0.28659 -0.21222
 C955 C 0.35581 0.28119 -0.20271
 C956 C 0.37007 0.30142 -0.18558
 C957 C 0.37023 0.34833 -0.15820
 C958 C 0.39985 0.35762 -0.16223
 C959 C 0.41393 0.37667 -0.14398
 C960 C 0.39886 0.38645 -0.12103
 C961 C 0.36903 0.37735 -0.11725
 C962 C 0.35483 0.35866 -0.13572
 C963 C 0.41455 0.40496 -0.10061
 C964 C 0.39921 0.42689 -0.08586
 C965 C 0.41373 0.44290 -0.06563
 C966 C 0.44397 0.43757 -0.05995
 C967 C 0.45951 0.41631 -0.07513
 C968 C 0.44495 0.40006 -0.09505
 H969 H 0.31522 0.35365 -0.18067
 H970 H 0.29085 0.32004 -0.21139
 H971 H 0.36762 0.26076 -0.20726
 H972 H 0.39225 0.29622 -0.17828
 H973 H 0.41204 0.35028 -0.17961
 H974 H 0.43666 0.38371 -0.14789
 H975 H 0.35686 0.38393 -0.09964
 H976 H 0.33204 0.35156 -0.13206
 H977 H 0.37595 0.43168 -0.08991
 H978 H 0.40130 0.45937 -0.05438
 H979 H 0.48282 0.41159 -0.07113
 H980 H 0.45741 0.38302 -0.10556
 C981 C 1.13658 -0.16449 0.18718
 C982 C 1.12211 -0.18808 0.20051
 C983 C 1.13802 -0.20738 0.21723
 C984 C 1.16906 -0.20357 0.22158
 C985 C 1.18308 -0.17903 0.20878
 C986 C 1.16724 -0.16016 0.19174
 C987 C 1.12026 -0.14531 0.16770
 C988 C 1.12838 -0.11509 0.16384
 C989 C 1.11503 -0.09802 0.14378
 C990 C 1.09281 -0.11052 0.12731
 C991 C 1.08363 -0.14024 0.13208
 C992 C 1.09736 -0.15747 0.15177
 C993 C 1.08032 -0.09331 0.10445
 C994 C 1.07267 -0.10820 0.08071
 C995 C 1.06153 -0.09236 0.05898
 C996 C 1.05829 -0.06111 0.06015
 C997 C 1.06600 -0.04599 0.08369
 C998 C 1.07670 -0.06196 0.10570
 H999 H 1.09840 -0.19193 0.19787
 H1000 H 1.12579 -0.22602 0.22561
 H1001 H 1.20630 -0.17351 0.21212
 H1002 H 1.17937 -0.14244 0.18175
 H1003 H 1.14539 -0.10464 0.17608
 H1004 H 1.12288 -0.07532 0.14069
 H1005 H 1.06607 -0.15047 0.12032
 H1006 H 1.09059 -0.18066 0.15385
 H1007 H 1.07584 -0.13212 0.07861
 H1008 H 1.05595 -0.10459 0.04102
 H1009 H 1.06346 -0.02190 0.08516
 H1010 H 1.08191 -0.04973 0.12372
 C1011 C 1.14402 0.32460 0.67553
 C1012 C 1.16970 0.33362 0.68942
 C1013 C 1.18309 0.31438 0.70779
 C1014 C 1.17144 0.28544 0.71225
 C1015 C 1.14563 0.27654 0.69824
 C1016 C 1.13192 0.29604 0.68026
 C1017 C 1.13006 0.34478 0.65585
 C1018 C 1.09940 0.35088 0.65706
 C1019 C 1.08599 0.36926 0.63803
 C1020 C 1.10284 0.38141 0.61699
 C1021 C 1.13370 0.37551 0.61609
 C1022 C 1.14720 0.35759 0.63545
 C1023 C 1.08803 0.39913 0.59562
 C1024 C 1.10293 0.42296 0.58283
 C1025 C 1.08904 0.43883 0.56224
 C1026 C 1.05983 0.43148 0.55434
 C1027 C 1.04482 0.40799 0.56728
 C1028 C 1.05882 0.39184 0.58744
 H1029 H 1.17920 0.35569 0.68626
 H1030 H 1.20252 0.32230 0.71861
 H1031 H 1.13635 0.25428 0.70069
 H1032 H 1.11225 0.28856 0.66952
 H1033 H 1.08586 0.34154 0.67286
 H1034 H 1.06237 0.37390 0.63985
 H1035 H 1.14734 0.38402 0.60002
 H1036 H 1.17089 0.35297 0.63408
 H1037 H 1.12524 0.42956 0.58885
 H1038 H 1.10098 0.45702 0.55269
 H1039 H 1.02234 0.40167 0.56146
 H1040 H 1.04685 0.37323 0.59625
 C1041 C 0.64108 -0.17356 0.67626
 C1042 C 0.62984 -0.17876 0.70194
 C1043 C 0.64449 -0.19817 0.71946
 C1044 C 0.67137 -0.21232 0.71209
 C1045 C 0.68210 -0.20752 0.68609
 C1046 C 0.66704 -0.18878 0.66843
 C1047 C 0.62605 -0.15235 0.65765
 C1048 C 0.64283 -0.13572 0.63915
 C1049 C 0.62877 -0.11697 0.62079
 C1050 C 0.59754 -0.11374 0.62076
 C1051 C 0.58084 -0.12948 0.63993
 C1052 C 0.59485 -0.14876 0.65792
 C1053 C 0.58241 -0.09512 0.60014
 C1054 C 0.55418 -0.10356 0.59024
 C1055 C 0.54044 -0.08707 0.57013
 C1056 C 0.55482 -0.06209 0.55893
 C1057 C 0.58288 -0.05336 0.56878
 C1058 C 0.59639 -0.06950 0.58938
 H1059 H 0.61018 -0.16714 0.70892
 H1060 H 0.63559 -0.20040 0.73935
 H1061 H 0.70177 -0.21897 0.67887
 H1062 H 0.67577 -0.18644 0.64850
 H1063 H 0.66695 -0.13720 0.63870
 H1064 H 0.64247 -0.10561 0.60622
 H1065 H 0.55682 -0.12713 0.64100
 H1066 H 0.58105 -0.16128 0.67165
 H1067 H 0.54293 -0.12346 0.59744
 H1068 H 0.51886 -0.09446 0.56277
 H1069 H 0.59432 -0.03405 0.56058
 H1070 H 0.61781 -0.06185 0.59681
 C1071 C 0.64653 0.32569 0.17386
 C1072 C 0.63369 0.29756 0.17914
 C1073 C 0.64769 0.27751 0.19647
 C1074 C 0.67462 0.28535 0.20926
 C1075 C 0.68704 0.31387 0.20428
 C1076 C 0.67331 0.33366 0.18658
 C1077 C 0.63220 0.34647 0.15482
 C1078 C 0.64880 0.35929 0.13407
 C1079 C 0.63494 0.37779 0.11533
 C1080 C 0.60426 0.38427 0.11719
 C1081 C 0.58797 0.37208 0.13856
 C1082 C 0.60172 0.35315 0.15698
 C1083 C 0.58901 0.40257 0.09642
 C1084 C 0.55943 0.39590 0.08892
 C1085 C 0.54516 0.41234 0.06906
 C1086 C 0.56022 0.43556 0.05578
 C1087 C 0.58973 0.44242 0.06315
 C1088 C 0.60392 0.42624 0.08340
 H1089 H 0.61316 0.29083 0.16933
 H1090 H 0.63771 0.25563 0.19938
 H1091 H 0.70732 0.32106 0.21421
 H1092 H 0.68343 0.35539 0.18303
 H1093 H 0.67233 0.35425 0.13191
 H1094 H 0.64815 0.38629 0.09897
 H1095 H 0.56451 0.37711 0.14111
 H1096 H 0.58858 0.34384 0.17306
 H1097 H 0.54738 0.37746 0.09792
 H1098 H 0.52248 0.40634 0.06365
 H1099 H 0.60176 0.46037 0.05334
 H1100 H 0.62651 0.43239 0.08891
 C1101 C 0.86416 0.15685 0.18771
 C1102 C 0.83892 0.14798 0.20235
 C1103 C 0.82390 0.16853 0.21845
 C1104 C 0.83386 0.19837 0.22038
 C1105 C 0.85965 0.20702 0.20647
 C1106 C 0.87459 0.18652 0.19026
 C1107 C 0.87864 0.13581 0.16880
 C1108 C 0.90980 0.13606 0.16528
 C1109 C 0.92306 0.11812 0.14585
 C1110 C 0.90550 0.09942 0.12957
 C1111 C 0.87450 0.09829 0.13373
 C1112 C 0.86121 0.11634 0.15307
 C1113 C 0.91911 0.08280 0.10712
 C1114 C 0.91032 0.05325 0.10113
 C1115 C 0.92184 0.03854 0.07882
 C1116 C 0.94204 0.05331 0.06192
 C1117 C 0.95128 0.08259 0.06826
 C1118 C 0.94001 0.09714 0.09063
 H1119 H 0.83064 0.12518 0.20124
 H1120 H 0.80436 0.16112 0.22930
 H1121 H 0.86762 0.22995 0.20735
 H1122 H 0.89367 0.19425 0.17896
 H1123 H 0.92392 0.15035 0.17740
 H1124 H 0.94707 0.11910 0.14333
 H1125 H 0.86036 0.08441 0.12126
 H1126 H 0.83712 0.11590 0.15496
 H1127 H 0.89444 0.04158 0.11366
 H1128 H 0.91450 0.01588 0.07449
 H1129 H 0.96702 0.09444 0.05573
 H1130 H 0.94696 0.12000 0.09456
 C1131 C 0.85573 0.67926 0.66749
 C1132 C 0.87023 0.68693 0.69134
 C1133 C 0.85680 0.70652 0.70937
 C1134 C 0.82870 0.71907 0.70380
 C1135 C 0.81452 0.71178 0.67964
 C1136 C 0.82781 0.69195 0.66176
 C1137 C 0.86970 0.65804 0.64864
 C1138 C 0.85288 0.63470 0.63720
 C1139 C 0.86615 0.61461 0.61949
 C1140 C 0.89647 0.61764 0.61268
 C1141 C 0.91316 0.64118 0.62408
 C1142 C 0.89997 0.66103 0.64197
 C1143 C 0.91068 0.59675 0.59347
 C1144 C 0.94064 0.58817 0.59684
 C1145 C 0.95488 0.57068 0.57773
 C1146 C 0.93939 0.56100 0.55497
 C1147 C 0.90907 0.56827 0.55210
 C1148 C 0.89488 0.58614 0.57110
 H1149 H 0.89167 0.67722 0.69631
 H1150 H 0.86812 0.71125 0.72796
 H1151 H 0.79316 0.72151 0.67445
 H1152 H 0.81641 0.68676 0.64330
 H1153 H 0.82955 0.63174 0.64227
 H1154 H 0.85276 0.59652 0.61139
 H1155 H 0.93636 0.64465 0.61883
 H1156 H 0.91330 0.67909 0.65024
 H1157 H 0.95326 0.59525 0.61414
 H1158 H 0.97821 0.56511 0.58057
 H1159 H 0.89667 0.56114 0.53468
 H1160 H 0.87187 0.59252 0.56775
 C1161 C 0.35901 0.16323 0.68627
 C1162 C 0.37128 0.19157 0.69184
 C1163 C 0.35657 0.21138 0.70889
 C1164 C 0.32949 0.20306 0.72103
 C1165 C 0.31789 0.17419 0.71609
 C1166 C 0.33233 0.15463 0.69869
 C1167 C 0.37339 0.14320 0.66671
 C1168 C 0.35666 0.13092 0.64571
 C1169 C 0.37052 0.11358 0.62619
 C1170 C 0.40137 0.10774 0.62748
 C1171 C 0.41781 0.11922 0.64915
 C1172 C 0.40403 0.13702 0.66839
 C1173 C 0.41659 0.09119 0.60565
 C1174 C 0.44569 0.09934 0.59794
 C1175 C 0.45964 0.08503 0.57671
 C1176 C 0.44470 0.06254 0.56227
 C1177 C 0.41579 0.05400 0.57000
 C1178 C 0.40195 0.06803 0.59160
 H1179 H 0.39173 0.19876 0.68226
 H1180 H 0.36593 0.23354 0.71184
 H1181 H 0.29749 0.16671 0.72556
 H1182 H 0.32266 0.13273 0.69492
 H1183 H 0.33302 0.13564 0.64391
 H1184 H 0.35719 0.10562 0.60963
 H1185 H 0.44143 0.11463 0.65122
 H1186 H 0.41728 0.14597 0.68462
 H1187 H 0.45749 0.11744 0.60778
 H1188 H 0.48190 0.09221 0.57112
 H1189 H 0.40392 0.03650 0.55936
 H1190 H 0.37977 0.06075 0.59726
 C1191 C 0.35468 0.67514 0.17332
 C1192 C 0.36807 0.70260 0.18018
 C1193 C 0.35410 0.72206 0.19803
 C1194 C 0.32664 0.71425 0.20978
 C1195 C 0.31351 0.68650 0.20302
 C1196 C 0.32723 0.66733 0.18480
 C1197 C 0.36934 0.65469 0.15424
 C1198 C 0.35340 0.64297 0.13250
 C1199 C 0.36756 0.62445 0.11399
 C1200 C 0.39787 0.61683 0.11706
 C1201 C 0.41347 0.62798 0.13935
 C1202 C 0.39945 0.64693 0.15755
 C1203 C 0.41349 0.59835 0.09666
 C1204 C 0.44365 0.60401 0.09062
 C1205 C 0.45828 0.58747 0.07108
 C1206 C 0.44303 0.56518 0.05665
 C1207 C 0.41297 0.55925 0.06263
 C1208 C 0.39840 0.57552 0.08257
 H1209 H 0.38913 0.70920 0.17135
 H1210 H 0.36466 0.74339 0.20231
 H1211 H 0.29281 0.67927 0.21209
 H1212 H 0.31667 0.64610 0.18004
 H1213 H 0.33017 0.64883 0.12947
 H1214 H 0.35490 0.61678 0.09691
 H1215 H 0.43658 0.62206 0.14282
 H1216 H 0.41206 0.65534 0.17440
 H1217 H 0.45590 0.62178 0.10050
 H1218 H 0.48141 0.59273 0.06678
 H1219 H 0.40078 0.54202 0.05193
 H1220 H 0.37534 0.57012 0.08696
   
