data_POSCAR
  _audit_creation_date              2014-09-24
  _audit_creation_method            'ToBaCCo'
  _symmetry_space_group_name_H-M    'P1'
  _symmetry_Int_Tables_number       1
  _symmetry_cell_setting            triclinic
  loop_
  _symmetry_equiv_pos_as_xyz
 x,y,z
_cell_length_a 49.4911
_cell_length_b 50.1425
_cell_length_c 48.9310
_cell_angle_alpha 90.175500
_cell_angle_beta 90.217200
_cell_angle_gamma 89.885200
loop_
  _atom_site_label
  _atom_site_type_symbol
  _atom_site_fract_x
  _atom_site_fract_y
  _atom_site_fract_z
C1 C 0.28589 1.05200 0.01494
 C2 C 0.28661 1.06360 -0.01102
 C3 C 0.27913 1.04957 -0.03478
 C4 C 0.27302 1.02193 -0.03247
 C5 C 0.27344 1.00937 -0.00645
 C6 C 0.28040 1.02431 0.01727
 C7 C 0.28366 1.01071 0.04215
 C8 C 0.27742 0.98385 0.04446
 C9 C 0.26900 0.96893 0.02164
 C10 C 0.26742 0.98161 -0.00420
 C11 C 0.26810 1.00604 -0.05569
 C12 C 0.26194 0.97919 -0.05345
 C13 C 0.26041 0.96652 -0.02784
 C14 C 0.25390 0.93891 -0.02541
 C15 C 0.25480 0.92716 0.00072
 C16 C 0.26226 0.94167 0.02405
 H17 H 0.29178 1.02047 0.06010
 H18 H 0.27961 0.97491 0.06443
 H19 H 0.26992 1.01373 -0.07619
 H20 H 0.25946 0.96857 -0.07249
 H21 H 0.28995 1.08488 -0.01190
 H22 H 0.24902 0.90656 0.00345
 C23 C 0.76345 0.46024 0.46366
 C24 C 0.76882 0.44736 0.48847
 C25 C 0.77560 0.46172 0.51213
 C26 C 0.77762 0.48981 0.51098
 C27 C 0.77149 0.50318 0.48621
 C28 C 0.76417 0.48841 0.46254
 C29 C 0.75839 0.50220 0.43820
 C30 C 0.75901 0.52988 0.43731
 C31 C 0.76591 0.54489 0.46057
 C32 C 0.77264 0.53145 0.48513
 C33 C 0.78503 0.50494 0.53409
 C34 C 0.78666 0.53259 0.53284
 C35 C 0.78024 0.54626 0.50867
 C36 C 0.78143 0.57438 0.50725
 C37 C 0.77530 0.58726 0.48281
 C38 C 0.76685 0.57301 0.45975
 H39 H 0.75341 0.49183 0.41945
 H40 H 0.75450 0.53938 0.41799
 H41 H 0.78971 0.49564 0.55344
 H42 H 0.79303 0.54315 0.55107
 H43 H 0.76764 0.42580 0.48944
 H44 H 0.77538 0.60890 0.48232
 C45 C 0.76694 1.03847 0.92825
 C46 C 0.76914 1.01451 0.91367
 C47 C 0.76716 0.98978 0.92656
 C48 C 0.76386 0.98874 0.95534
 C49 C 0.76234 1.01281 0.97067
 C50 C 0.76352 1.03770 0.95694
 C51 C 0.76044 1.06122 0.97216
 C52 C 0.75786 1.06056 1.00036
 C53 C 0.75860 1.03632 1.01490
 C54 C 0.75970 1.01203 0.99974
 C55 C 0.76264 0.96441 0.96926
 C56 C 0.75911 0.96353 0.99743
 C57 C 0.75786 0.98704 1.01340
 C58 C 0.75424 0.98645 1.04233
 C59 C 0.75543 1.01075 1.05681
 C60 C 0.75761 1.03573 1.04398
 H61 H 0.75965 1.08055 0.96244
 H62 H 0.75459 1.07954 1.01026
 H63 H 0.76440 0.94560 0.95855
 H64 H 0.75758 0.94388 1.00609
 H65 H 0.77252 1.01506 0.89179
 H66 H 0.75729 1.00976 1.07868
 C67 C 0.24934 0.52127 0.55063
 C68 C 0.24279 0.49789 0.56468
 C69 C 0.24067 0.47332 0.55128
 C70 C 0.24511 0.47182 0.52270
 C71 C 0.25132 0.49540 0.50802
 C72 C 0.25334 0.52018 0.52204
 C73 C 0.25830 0.54344 0.50695
 C74 C 0.26146 0.54249 0.47882
 C75 C 0.26004 0.51819 0.46448
 C76 C 0.25490 0.49437 0.47916
 C77 C 0.24261 0.44768 0.50827
 C78 C 0.24648 0.44660 0.48005
 C79 C 0.25280 0.46966 0.46501
 C80 C 0.25629 0.46889 0.43618
 C81 C 0.26102 0.49282 0.42210
 C82 C 0.26271 0.51734 0.43575
 H83 H 0.25913 0.56287 0.51657
 H84 H 0.26466 0.56123 0.46846
 H85 H 0.23732 0.42940 0.51862
 H86 H 0.24377 0.42748 0.47015
 H87 H 0.23991 0.49861 0.58663
 H88 H 0.26437 0.49240 0.40023
 C89 C 0.93946 0.23444 0.02686
 C90 C 0.92765 0.24355 0.00276
 C91 C 0.94304 0.24990 -0.02032
 C92 C 0.97177 0.24907 -0.01823
 C93 C 0.98407 0.23932 0.00613
 C94 C 0.96779 0.23156 0.02851
 C95 C 0.98020 0.22080 0.05182
 C96 C 1.00812 0.21996 0.05426
 C97 C 1.02493 0.22964 0.03335
 C98 C 1.01276 0.23792 0.00840
 C99 C 0.98859 0.26004 -0.03834
 C100 C 1.01659 0.25814 -0.03635
 C101 C 1.02911 0.24541 -0.01404
 C102 C 1.05763 0.24242 -0.01220
 C103 C 1.06921 0.23678 0.01341
 C104 C 1.05349 0.23066 0.03649
 H105 H 0.96847 0.21290 0.06853
 H106 H 1.01617 0.21103 0.07263
 H107 H 0.98042 0.27129 -0.05527
 H108 H 1.02831 0.26800 -0.05192
 H109 H 0.90575 0.24485 0.00179
 H110 H 1.09099 0.23745 0.01516
 C111 C 0.53578 0.72508 0.53300
 C112 C 0.55064 0.72554 0.50868
 C113 C 0.53807 0.72418 0.48301
 C114 C 0.50950 0.72203 0.48144
 C115 C 0.49407 0.72181 0.50590
 C116 C 0.50727 0.72316 0.53170
 C117 C 0.49160 0.72239 0.55560
 C118 C 0.46371 0.71956 0.55435
 C119 C 0.45008 0.71833 0.52915
 C120 C 0.46541 0.71937 0.50463
 C121 C 0.49600 0.71877 0.45631
 C122 C 0.46798 0.71642 0.45505
 C123 C 0.45224 0.71699 0.47888
 C124 C 0.42380 0.71382 0.47787
 C125 C 0.40920 0.71222 0.50220
 C126 C 0.42169 0.71489 0.52772
 H127 H 0.50068 0.72373 0.57569
 H128 H 0.45309 0.71794 0.57351
 H129 H 0.50694 0.71740 0.43729
 H130 H 0.45888 0.71346 0.43515
 H131 H 0.57252 0.72631 0.50972
 H132 H 0.38750 0.70923 0.50125
 C133 C -0.04610 0.78324 0.06457
 C134 C -0.02275 0.78124 0.08094
 C135 C 0.00293 0.77829 0.06966
 C136 C 0.00609 0.77831 0.04096
 C137 C -0.01703 0.77959 0.02388
 C138 C -0.04320 0.78215 0.03562
 C139 C -0.06576 0.78224 0.01797
 C140 C -0.06272 0.78124 -0.01014
 C141 C -0.03705 0.77939 -0.02209
 C142 C -0.01397 0.77804 -0.00504
 C143 C 0.03177 0.77801 0.02889
 C144 C 0.03475 0.77633 0.00073
 C145 C 0.01211 0.77493 -0.01680
 C146 C 0.01482 0.77153 -0.04567
 C147 C -0.00863 0.77364 -0.06205
 C148 C -0.03414 0.77789 -0.05066
 H149 H -0.08628 0.78239 0.02530
 H150 H -0.08099 0.78123 -0.02236
 H151 H 0.05000 0.77939 0.04107
 H152 H 0.05518 0.77685 -0.00689
 H153 H -0.02405 0.78282 0.10296
 H154 H -0.00778 0.77106 -0.08394
 C155 C 0.47362 0.27827 0.56871
 C156 C 0.49709 0.28200 0.58427
 C157 C 0.52244 0.28392 0.57193
 C158 C 0.52449 0.28299 0.54304
 C159 C 0.50074 0.27997 0.52702
 C160 C 0.47525 0.27775 0.53991
 C161 C 0.45188 0.27548 0.52366
 C162 C 0.45352 0.27492 0.49538
 C163 C 0.47858 0.27669 0.48210
 C164 C 0.50245 0.27905 0.49804
 C165 C 0.54947 0.28543 0.52969
 C166 C 0.55126 0.28351 0.50137
 C167 C 0.52799 0.28026 0.48509
 C168 C 0.52956 0.27769 0.45630
 C169 C 0.50573 0.27551 0.44084
 C170 C 0.48032 0.27559 0.45332
 H171 H 0.43194 0.27438 0.53255
 H172 H 0.43481 0.27267 0.48412
 H173 H 0.56799 0.28879 0.54094
 H174 H 0.57118 0.28469 0.49247
 H175 H 0.49581 0.28207 0.60640
 H176 H 0.50695 0.27468 0.41874
 C177 C 1.05800 0.01899 0.26759
 C178 C 1.07078 -0.00519 0.26061
 C179 C 1.05689 -0.02939 0.25937
 C180 C 1.02858 -0.02974 0.26378
 C181 C 1.01514 -0.00587 0.27160
 C182 C 1.02990 0.01842 0.27400
 C183 C 1.01618 0.04130 0.28358
 C184 C 0.98862 0.04094 0.28864
 C185 C 0.97348 0.01767 0.28481
 C186 C 0.98676 -0.00619 0.27676
 C187 C 1.01312 -0.05282 0.25935
 C188 C 0.98538 -0.05307 0.26401
 C189 C 0.97166 -0.03019 0.27342
 C190 C 0.94319 -0.03006 0.27833
 C191 C 0.93111 -0.00617 0.28728
 C192 C 0.94545 0.01748 0.28971
 H193 H 1.02643 0.05978 0.28802
 H194 H 0.97931 0.05915 0.29597
 H195 H 1.02204 -0.07084 0.25129
 H196 H 0.97501 -0.07147 0.25950
 H197 H 1.09187 -0.00550 0.25490
 H198 H 0.90998 -0.00562 0.29293
 C199 C 0.44603 0.46758 0.77994
 C200 C 0.43131 0.49083 0.78546
 C201 C 0.44365 0.51575 0.78660
 C202 C 0.47180 0.51794 0.78242
 C203 C 0.48727 0.49466 0.77713
 C204 C 0.47432 0.46938 0.77592
 C205 C 0.49009 0.44651 0.77122
 C206 C 0.51777 0.44845 0.76724
 C207 C 0.53092 0.47318 0.76800
 C208 C 0.51574 0.49663 0.77310
 C209 C 0.48488 0.54267 0.78372
 C210 C 0.51251 0.54469 0.77931
 C211 C 0.52853 0.52195 0.77422
 C212 C 0.55671 0.52435 0.76990
 C213 C 0.57245 0.50165 0.76499
 C214 C 0.56094 0.47393 0.76371
 H215 H 0.48135 0.42677 0.77091
 H216 H 0.52897 0.43022 0.76365
 H217 H 0.47389 0.56083 0.78816
 H218 H 0.52102 0.56451 0.77990
 H219 H 0.40954 0.48988 0.78762
 H220 H 0.59403 0.50387 0.76238
 C221 C 1.03140 0.93840 0.73954
 C222 C 1.00754 0.92527 0.73145
 C223 C 0.98283 0.93848 0.72948
 C224 C 0.98149 0.96617 0.73440
 C225 C 1.00503 0.98016 0.74262
 C226 C 1.03005 0.96632 0.74541
 C227 C 1.05299 0.98110 0.75332
 C228 C 1.05149 1.00836 0.75824
 C229 C 1.02737 1.02261 0.75435
 C230 C 1.00354 1.00815 0.74782
 C231 C 0.95735 0.98034 0.73043
 C232 C 0.95567 1.00734 0.73635
 C233 C 0.97823 1.02161 0.74617
 C234 C 0.97645 1.04913 0.75322
 C235 C 1.00046 1.06279 0.75966
 C236 C 1.02582 1.05068 0.75819
 H237 H 1.07269 0.97219 0.75575
 H238 H 1.06938 1.01772 0.76633
 H239 H 0.93944 0.97077 0.72236
 H240 H 0.93649 1.01678 0.73218
 H241 H 1.00727 0.90386 0.72862
 H242 H 0.99987 1.08354 0.76576
 C243 C 0.47014 0.54441 0.22871
 C244 C 0.49193 0.56067 0.23607
 C245 C 0.51800 0.55051 0.23924
 C246 C 0.52260 0.52271 0.23639
 C247 C 0.50071 0.50586 0.22891
 C248 C 0.47454 0.51683 0.22453
 C249 C 0.45334 0.49981 0.21666
 C250 C 0.45760 0.47262 0.21335
 C251 C 0.48296 0.46112 0.21870
 C252 C 0.50487 0.47791 0.22615
 C253 C 0.54801 0.51116 0.24162
 C254 C 0.55208 0.48375 0.23889
 C255 C 0.53081 0.46674 0.23116
 C256 C 0.53477 0.43891 0.22798
 C257 C 0.51295 0.42277 0.22029
 C258 C 0.48711 0.43329 0.21649
 H259 H 0.43312 0.50721 0.21306
 H260 H 0.44066 0.46070 0.20652
 H261 H 0.56494 0.52307 0.24838
 H262 H 0.57213 0.47602 0.24288
 H263 H 0.48879 0.58199 0.23825
 H264 H 0.51577 0.40135 0.21882
 O265 O 0.27468 0.16756 0.21346
 O266 O 0.30626 0.16660 0.25025
 O267 O 0.20116 0.19359 0.25273
 O268 O 0.18797 0.22806 0.27747
 O269 O 0.22703 0.22898 0.17697
 O270 O 0.25894 0.26157 0.16522
 O271 O 0.26616 0.27999 0.31455
 O272 O 0.24043 0.24280 0.32632
 O273 O 0.33704 0.25149 0.27903
 O274 O 0.34851 0.22139 0.24297
 O275 O 0.29318 0.31207 0.24095
 O276 O 0.25277 0.31356 0.21228
 O277 O 0.25909 0.30942 0.28000
 O278 O 0.22501 0.31010 0.24187
 O279 O 0.32966 0.28450 0.24040
 O280 O 0.34085 0.24467 0.21059
 O281 O 0.30728 0.24883 0.31423
 O282 O 0.27375 0.21410 0.32615
 O283 O 0.26895 0.19677 0.17841
 O284 O 0.29358 0.23749 0.16705
 O285 O 0.19541 0.22741 0.21057
 O286 O 0.18701 0.26062 0.24773
 O287 O 0.23900 0.16524 0.25302
 O288 O 0.27803 0.16597 0.28245
 Zr289 Zr 0.27173 0.19145 0.24865
 O290 O 0.29505 0.21909 0.27075
 Zr291 Zr 0.21820 0.23164 0.24726
 O292 O 0.23903 0.26062 0.27070
 Zr293 Zr 0.26364 0.23409 0.19756
 O294 O 0.28553 0.26413 0.21786
 Zr295 Zr 0.26947 0.24290 0.29475
 O296 O 0.24594 0.21342 0.27444
 Zr297 Zr 0.31366 0.24591 0.24389
 O298 O 0.29357 0.21574 0.22154
 Zr299 Zr 0.26009 0.28596 0.24411
 O300 O 0.23730 0.25837 0.22052
 O301 O 0.24286 0.20809 0.22293
 O302 O 0.28970 0.26948 0.26936
 C303 C 0.27312 0.17323 0.18795
 C304 C 0.21195 0.16862 0.25461
 C305 C 0.20263 0.22698 0.18527
 C306 C 0.26197 0.30362 0.30544
 C307 C 0.33125 0.25165 0.30449
 C308 C 0.31870 0.30771 0.23965
 H309 H 0.30848 0.20933 0.28188
 H310 H 0.29429 0.27566 0.20417
 H311 H 0.23249 0.19438 0.21279
 H312 H 0.22611 0.27051 0.28230
 H313 H 0.22713 0.22879 0.32158
 H314 H 0.19348 0.23941 0.29307
 H315 H 0.33586 0.25912 0.19781
 H316 H 0.30881 0.22589 0.17267
 H317 H 0.29021 0.20347 0.32251
 H318 H 0.26451 0.17104 0.29640
 H319 H 0.26589 0.30983 0.19756
 H320 H 0.24601 0.27527 0.17169
 H321 H 0.31920 0.17377 0.23678
 H322 H 0.34596 0.20703 0.25651
 H323 H 0.18951 0.27199 0.23143
 H324 H 0.21405 0.30666 0.25834
 O325 O 0.71520 0.84868 0.22284
 O326 O 0.68082 0.84716 0.25749
 O327 O 0.78512 0.82151 0.26808
 O328 O 0.79690 0.78586 0.29195
 O329 O 0.76836 0.78897 0.18782
 O330 O 0.73557 0.75728 0.17096
 O331 O 0.72001 0.73020 0.31646
 O332 O 0.74439 0.76929 0.33243
 O333 O 0.64970 0.76143 0.27979
 O334 O 0.64189 0.79451 0.24256
 O335 O 0.69838 0.70257 0.23922
 O336 O 0.73965 0.70461 0.21300
 O337 O 0.73005 0.70360 0.28015
 O338 O 0.76562 0.70632 0.24448
 O339 O 0.65971 0.72965 0.24010
 O340 O 0.64910 0.76897 0.21175
 O341 O 0.67818 0.76027 0.31627
 O342 O 0.70645 0.79237 0.33427
 O343 O 0.72563 0.82194 0.18669
 O344 O 0.70230 0.78328 0.17041
 O345 O 0.79545 0.79127 0.22547
 O346 O 0.80216 0.75608 0.25953
 O347 O 0.74869 0.84912 0.26557
 O348 O 0.70699 0.84768 0.29111
 Zr349 Zr 0.71602 0.82322 0.25706
 O350 O 0.69199 0.79383 0.27577
 Zr351 Zr 0.76981 0.78380 0.25844
 O352 O 0.74837 0.75277 0.27712
 Zr353 Zr 0.72917 0.78370 0.20408
 O354 O 0.70564 0.75260 0.22054
 Zr355 Zr 0.71623 0.76862 0.29979
 O356 O 0.73981 0.80019 0.28395
 Zr357 Zr 0.67536 0.76837 0.24601
 O358 O 0.69689 0.79978 0.22686
 Zr359 Zr 0.72986 0.72947 0.24661
 O360 O 0.75406 0.75870 0.22774
 O361 O 0.74709 0.80834 0.23307
 O362 O 0.69829 0.74342 0.27101
 C363 C 0.71975 0.84472 0.19729
 C364 C 0.77405 0.84463 0.26932
 C365 C 0.79153 0.79161 0.19958
 C366 C 0.72597 0.70756 0.30567
 C367 C 0.65457 0.75870 0.30548
 C368 C 0.67131 0.70505 0.23772
 H369 H 0.67780 0.80268 0.28670
 H370 H 0.69788 0.74173 0.20560
 H371 H 0.75803 0.82262 0.22466
 H372 H 0.76085 0.74235 0.28876
 H373 H 0.75482 0.78605 0.33078
 H374 H 0.79084 0.77274 0.30567
 H375 H 0.65716 0.75768 0.19731
 H376 H 0.68537 0.79178 0.17676
 H377 H 0.69676 0.80832 0.32761
 H378 H 0.71953 0.84232 0.30593
 H379 H 0.72680 0.70857 0.19801
 H380 H 0.74947 0.74434 0.17702
 H381 H 0.66930 0.84084 0.24221
 H382 H 0.64153 0.80584 0.25913
 H383 H 0.80123 0.74551 0.24243
 H384 H 0.77580 0.70898 0.26171
 O385 O 0.77171 0.19636 0.77514
 O386 O 0.74103 0.18754 0.73974
 O387 O 0.84155 0.22236 0.72841
 O388 O 0.85368 0.25576 0.70249
 O389 O 0.81632 0.26445 0.80211
 O390 O 0.78194 0.29619 0.81108
 O391 O 0.76985 0.29440 0.66061
 O392 O 0.79818 0.25807 0.65292
 O393 O 0.70219 0.26701 0.70096
 O394 O 0.69345 0.24107 0.74116
 O395 O 0.74247 0.33441 0.73046
 O396 O 0.78187 0.34315 0.75614
 O397 O 0.77476 0.32879 0.69062
 O398 O 0.81098 0.33583 0.72796
 O399 O 0.70768 0.30539 0.73590
 O400 O 0.70013 0.26844 0.77031
 O401 O 0.73180 0.26171 0.66593
 O402 O 0.76709 0.22734 0.65810
 O403 O 0.77581 0.22967 0.80649
 O404 O 0.74912 0.27018 0.81330
 O405 O 0.84662 0.26034 0.76754
 O406 O 0.85090 0.29068 0.72665
 O407 O 0.80825 0.19198 0.73578
 O408 O 0.76804 0.18572 0.70694
 Zr409 Zr 0.77279 0.21553 0.73724
 O410 O 0.74662 0.23844 0.71274
 Zr411 Zr 0.82258 0.25949 0.73177
 O412 O 0.79924 0.28342 0.70539
 Zr413 Zr 0.77849 0.26466 0.78251
 O414 O 0.75393 0.29036 0.75907
 Zr415 Zr 0.76990 0.26041 0.68512
 O416 O 0.79614 0.23575 0.70807
 Zr417 Zr 0.72644 0.26742 0.73630
 O418 O 0.74951 0.24165 0.76158
 Zr419 Zr 0.77699 0.31030 0.72937
 O420 O 0.80220 0.28778 0.75584
 O421 O 0.80067 0.23734 0.75984
 O422 O 0.74821 0.28878 0.70736
 C423 C 0.77283 0.20499 0.79983
 C424 C 0.83302 0.19845 0.73148
 C425 C 0.84056 0.26257 0.79296
 C426 C 0.77180 0.31925 0.66634
 C427 C 0.70783 0.26447 0.67548
 C428 C 0.71736 0.32906 0.73339
 H429 H 0.73373 0.22647 0.70336
 H430 H 0.74470 0.30301 0.77145
 H431 H 0.81216 0.22569 0.77135
 H432 H 0.81111 0.29255 0.69219
 H433 H 0.81251 0.24556 0.65892
 H434 H 0.84596 0.26148 0.68479
 H435 H 0.70450 0.28453 0.78121
 H436 H 0.73442 0.25733 0.80942
 H437 H 0.75135 0.21645 0.66343
 H438 H 0.78156 0.18944 0.69259
 H439 H 0.77249 0.33870 0.77333
 H440 H 0.79430 0.30943 0.80290
 H441 H 0.72678 0.19600 0.75097
 H442 H 0.69681 0.22531 0.72946
 H443 H 0.84904 0.30277 0.74257
 H444 H 0.82013 0.33297 0.71025
 O445 O 0.22879 0.79594 0.80371
 O446 O 0.26019 0.80680 0.76688
 O447 O 0.16544 0.75631 0.75644
 O448 O 0.16240 0.72082 0.72893
 O449 O 0.19506 0.72355 0.83209
 O450 O 0.23539 0.69661 0.84236
 O451 O 0.24782 0.69030 0.69490
 O452 O 0.21351 0.72461 0.68553
 O453 O 0.31090 0.73522 0.73278
 O454 O 0.31098 0.76724 0.77285
 O455 O 0.28462 0.66415 0.76773
 O456 O 0.24446 0.65175 0.79638
 O457 O 0.25097 0.65920 0.72851
 O458 O 0.21975 0.64694 0.76417
 O459 O 0.31265 0.69996 0.76994
 O460 O 0.31440 0.73787 0.80069
 O461 O 0.28140 0.72926 0.69763
 O462 O 0.24650 0.75498 0.68450
 O463 O 0.22824 0.76318 0.83582
 O464 O 0.26110 0.73034 0.84644
 O465 O 0.16632 0.71920 0.79593
 O466 O 0.16672 0.68828 0.75779
 O467 O 0.19342 0.79199 0.76130
 O468 O 0.23190 0.80553 0.73620
 Zr469 Zr 0.23211 0.77507 0.76600
 O470 O 0.26149 0.75528 0.74221
 Zr471 Zr 0.19083 0.72298 0.76127
 O472 O 0.21881 0.70067 0.73836
 Zr473 Zr 0.23333 0.72795 0.81360
 O474 O 0.26380 0.70688 0.79268
 Zr475 Zr 0.24355 0.72671 0.71635
 O476 O 0.21372 0.74933 0.73713
 Zr477 Zr 0.28655 0.73290 0.76815
 O478 O 0.25861 0.75461 0.79234
 Zr479 Zr 0.24550 0.68058 0.76487
 O480 O 0.21489 0.69985 0.78775
 O481 O 0.20764 0.75001 0.78870
 O482 O 0.26989 0.70510 0.74114
 C483 C 0.22753 0.78769 0.82861
 C484 C 0.17010 0.78149 0.75708
 C485 C 0.17139 0.72030 0.82163
 C486 C 0.25056 0.66615 0.70335
 C487 C 0.30529 0.73283 0.70721
 C488 C 0.30818 0.67480 0.76938
 H489 H 0.27181 0.76850 0.73154
 H490 H 0.27529 0.69739 0.80606
 H491 H 0.19386 0.76014 0.79906
 H492 H 0.20888 0.68835 0.72615
 H493 H 0.20023 0.73896 0.68935
 H494 H 0.17133 0.71178 0.71340
 H495 H 0.30992 0.72464 0.81491
 H496 H 0.27487 0.74360 0.84107
 H497 H 0.24433 0.77271 0.69302
 H498 H 0.22051 0.79914 0.72086
 H499 H 0.25834 0.65657 0.81012
 H500 H 0.22341 0.68227 0.83548
 H501 H 0.27324 0.80276 0.78169
 H502 H 0.30833 0.77858 0.75655
 H503 H 0.17283 0.67585 0.77223
 H504 H 0.20602 0.64993 0.74975
 O505 O 0.23739 0.31956 0.70978
 O506 O 0.19994 0.32462 0.74081
 O507 O 0.30346 0.30331 0.76466
 O508 O 0.31389 0.27355 0.79644
 O509 O 0.29114 0.25601 0.69237
 O510 O 0.26099 0.21908 0.68220
 O511 O 0.23671 0.22480 0.82903
 O512 O 0.25886 0.26727 0.83636
 O513 O 0.16769 0.24480 0.78154
 O514 O 0.16126 0.26976 0.73872
 O515 O 0.21734 0.18084 0.75815
 O516 O 0.26077 0.17671 0.73509
 O517 O 0.24677 0.19058 0.80020
 O518 O 0.28450 0.18502 0.76721
 O519 O 0.18033 0.20640 0.74942
 O520 O 0.17135 0.24001 0.71296
 O521 O 0.19425 0.25152 0.81887
 O522 O 0.21799 0.28795 0.82974
 O523 O 0.24791 0.28503 0.68144
 O524 O 0.22693 0.24295 0.67327
 O525 O 0.31643 0.26381 0.73050
 O526 O 0.32092 0.23806 0.77250
 O527 O 0.26710 0.32937 0.75466
 O528 O 0.22214 0.33336 0.77489
 Zr529 Zr 0.23514 0.30201 0.74899
 O530 O 0.21016 0.27716 0.77273
 Zr531 Zr 0.28871 0.26427 0.76272
 O532 O 0.26615 0.23785 0.78669
 Zr533 Zr 0.25144 0.25199 0.70752
 O534 O 0.22685 0.22510 0.72917
 Zr535 Zr 0.23289 0.25803 0.80321
 O536 O 0.25728 0.28568 0.78194
 Zr537 Zr 0.19516 0.24577 0.74853
 O538 O 0.21785 0.27234 0.72390
 Zr539 Zr 0.24920 0.20828 0.76141
 O540 O 0.27469 0.23292 0.73778
 O541 O 0.26764 0.28258 0.73109
 O542 O 0.21648 0.22714 0.77998
 C543 C 0.24241 0.30967 0.68600
 C544 C 0.29210 0.32606 0.76107
 C545 C 0.31374 0.26041 0.70468
 C546 C 0.24225 0.20024 0.82409
 C547 C 0.17133 0.24694 0.80749
 C548 C 0.19199 0.18382 0.75353
 H549 H 0.19553 0.28793 0.78098
 H550 H 0.21999 0.21134 0.71645
 H551 H 0.27908 0.29494 0.72048
 H552 H 0.27796 0.23039 0.80111
 H553 H 0.26793 0.28430 0.83190
 H554 H 0.30570 0.26533 0.81276
 H555 H 0.17940 0.22516 0.70240
 H556 H 0.20959 0.25241 0.67611
 H557 H 0.22417 0.30513 0.82226
 H558 H 0.23495 0.33427 0.79045
 H559 H 0.24939 0.17774 0.71847
 H560 H 0.27500 0.20865 0.69198
 H561 H 0.18972 0.31477 0.72659
 H562 H 0.16104 0.28501 0.75158
 H563 H 0.32050 0.22342 0.75888
 H564 H 0.29379 0.19168 0.78381
 O565 O 0.75764 0.68665 0.70541
 O566 O 0.78831 0.68225 0.74266
 O567 O 0.68426 0.71224 0.74551
 O568 O 0.67187 0.74570 0.77225
 O569 O 0.71203 0.75258 0.67245
 O570 O 0.74570 0.78377 0.66307
 O571 O 0.75080 0.79249 0.81356
 O572 O 0.72401 0.75545 0.82248
 O573 O 0.82158 0.76349 0.77704
 O574 O 0.83203 0.73509 0.73850
 O575 O 0.78067 0.82818 0.74252
 O576 O 0.74021 0.83256 0.71328
 O577 O 0.74646 0.82440 0.78091
 O578 O 0.71261 0.82895 0.74304
 O579 O 0.81605 0.79931 0.74086
 O580 O 0.82658 0.76172 0.70873
 O581 O 0.79119 0.76027 0.81164
 O582 O 0.75645 0.72586 0.82082
 O583 O 0.75324 0.71799 0.67214
 O584 O 0.77914 0.75845 0.66376
 O585 O 0.68008 0.74920 0.70558
 O586 O 0.67232 0.78000 0.74471
 O587 O 0.72117 0.68285 0.74345
 O588 O 0.75919 0.68046 0.77404
 Zr589 Zr 0.75466 0.70829 0.74195
 O590 O 0.77859 0.73356 0.76616
 Zr591 Zr 0.70256 0.75012 0.74265
 O592 O 0.72410 0.77693 0.76813
 Zr593 Zr 0.74871 0.75425 0.69367
 O594 O 0.77146 0.78211 0.71620
 Zr595 Zr 0.75349 0.75669 0.79135
 O596 O 0.72927 0.72934 0.76888
 Zr597 Zr 0.79853 0.76127 0.74130
 O598 O 0.77765 0.73341 0.71673
 Zr599 Zr 0.74653 0.80314 0.74359
 O600 O 0.72301 0.77786 0.71805
 O601 O 0.72669 0.72741 0.71696
 O602 O 0.77511 0.78402 0.76804
 C603 C 0.75678 0.69386 0.68032
 C604 C 0.69435 0.68683 0.74522
 C605 C 0.68747 0.75091 0.68041
 C606 C 0.74831 0.81685 0.80595
 C607 C 0.81540 0.76249 0.80238
 C608 C 0.80604 0.82293 0.74143
 H609 H 0.79149 0.72262 0.77677
 H610 H 0.78084 0.79417 0.70344
 H611 H 0.71600 0.71482 0.70568
 H612 H 0.71139 0.78655 0.78020
 H613 H 0.71038 0.74215 0.81665
 H614 H 0.67754 0.75592 0.78859
 H615 H 0.82175 0.77665 0.69646
 H616 H 0.79411 0.74640 0.66911
 H617 H 0.77253 0.71488 0.81660
 H618 H 0.74554 0.68511 0.78801
 H619 H 0.75425 0.83014 0.69915
 H620 H 0.73383 0.79792 0.67054
 H621 H 0.80175 0.68974 0.72989
 H622 H 0.82950 0.72078 0.75210
 H623 H 0.67583 0.79265 0.72964
 H624 H 0.70120 0.82460 0.75897
 O625 O 0.25472 0.66696 0.26591
 O626 O 0.22665 0.65880 0.22828
 O627 O 0.32011 0.71099 0.22922
 O628 O 0.32553 0.74872 0.20651
 O629 O 0.28599 0.73663 0.30556
 O630 O 0.24653 0.76052 0.31751
 O631 O 0.23670 0.77944 0.16803
 O632 O 0.27196 0.75066 0.15633
 O633 O 0.17515 0.73560 0.20065
 O634 O 0.17112 0.70179 0.23628
 O635 O 0.20155 0.80326 0.24156
 O636 O 0.23801 0.81487 0.27014
 O637 O 0.23642 0.80962 0.20283
 O638 O 0.26905 0.81680 0.24333
 O639 O 0.17289 0.76790 0.24096
 O640 O 0.17118 0.72603 0.26885
 O641 O 0.20577 0.74047 0.16652
 O642 O 0.24700 0.71423 0.15524
 O643 O 0.25198 0.69520 0.30232
 O644 O 0.21855 0.72942 0.31407
 O645 O 0.31697 0.74396 0.27222
 O646 O 0.31722 0.77938 0.23639
 O647 O 0.29207 0.67506 0.22813
 O648 O 0.25428 0.66650 0.19697
 Zr649 Zr 0.25305 0.69173 0.23167
 O650 O 0.22367 0.71324 0.20977
 Zr651 Zr 0.29437 0.74371 0.23548
 O652 O 0.26749 0.76714 0.21204
 Zr653 Zr 0.24910 0.73359 0.28430
 O654 O 0.22076 0.75800 0.26388
 Zr655 Zr 0.24315 0.74282 0.18707
 O656 O 0.27301 0.71977 0.20714
 Zr657 Zr 0.19831 0.73434 0.23664
 O658 O 0.22514 0.70943 0.25875
 Zr659 Zr 0.24020 0.78600 0.23862
 O660 O 0.26864 0.76423 0.26247
 O661 O 0.27615 0.71420 0.25874
 O662 O 0.21629 0.76332 0.21233
 C663 C 0.25364 0.67172 0.29162
 C664 C 0.31562 0.68585 0.22737
 C665 C 0.31024 0.74089 0.29737
 C666 C 0.23497 0.80326 0.17732
 C667 C 0.18152 0.73808 0.17537
 C668 C 0.17778 0.79303 0.24235
 H669 H 0.21331 0.70085 0.19804
 H670 H 0.20912 0.76686 0.27755
 H671 H 0.28926 0.70311 0.26899
 H672 H 0.27777 0.78007 0.20097
 H673 H 0.28816 0.73990 0.16082
 H674 H 0.31743 0.75764 0.19045
 H675 H 0.17295 0.74041 0.28263
 H676 H 0.20646 0.71501 0.30759
 H677 H 0.23316 0.70028 0.15787
 H678 H 0.26713 0.67462 0.18398
 H679 H 0.23006 0.80602 0.28623
 H680 H 0.25634 0.77680 0.31193
 H681 H 0.21079 0.66309 0.23976
 H682 H 0.17621 0.68989 0.22098
 H683 H 0.31225 0.78904 0.25333
 H684 H 0.27952 0.81792 0.22618
 O685 O 0.75055 0.31257 0.29663
 O686 O 0.78725 0.31590 0.26104
 O687 O 0.68533 0.27937 0.24974
 O688 O 0.67962 0.24348 0.22219
 O689 O 0.70805 0.24527 0.32690
 O690 O 0.74465 0.21521 0.34014
 O691 O 0.76299 0.20054 0.19361
 O692 O 0.73249 0.23489 0.18087
 O693 O 0.82794 0.23987 0.23235
 O694 O 0.83023 0.27345 0.27110
 O695 O 0.79242 0.17374 0.26884
 O696 O 0.74942 0.16794 0.29683
 O697 O 0.75919 0.17102 0.22857
 O698 O 0.72622 0.16372 0.26331
 O699 O 0.82416 0.20642 0.27082
 O700 O 0.82950 0.24485 0.29992
 O701 O 0.79931 0.23621 0.19612
 O702 O 0.76688 0.26648 0.18206
 O703 O 0.74667 0.28172 0.33039
 O704 O 0.77356 0.24548 0.34401
 O705 O 0.68020 0.24386 0.28984
 O706 O 0.67774 0.21181 0.25367
 O707 O 0.71854 0.31072 0.24972
 O708 O 0.75716 0.32123 0.23189
 Zr709 Zr 0.75373 0.28972 0.26022
 O710 O 0.78115 0.26557 0.23844
 Zr711 Zr 0.70626 0.24318 0.25615
 O712 O 0.73217 0.21645 0.23558
 Zr713 Zr 0.74722 0.24514 0.30991
 O714 O 0.77569 0.21974 0.29125
 Zr715 Zr 0.76073 0.23806 0.21330
 O716 O 0.73327 0.26507 0.23174
 Zr717 Zr 0.80224 0.24184 0.26663
 O718 O 0.77631 0.26764 0.28872
 Zr719 Zr 0.75542 0.19449 0.26384
 O720 O 0.72647 0.21840 0.28439
 O721 O 0.72537 0.26916 0.28314
 O722 O 0.78344 0.21490 0.24018
 C723 C 0.74867 0.30576 0.32192
 C724 C 0.69385 0.30345 0.24697
 C725 C 0.68451 0.24443 0.31568
 C726 C 0.76182 0.17670 0.20320
 C727 C 0.82305 0.23750 0.20665
 C728 C 0.81699 0.18191 0.27102
 H729 H 0.79330 0.27695 0.22753
 H730 H 0.78548 0.20960 0.30548
 H731 H 0.71255 0.28137 0.29239
 H732 H 0.72139 0.20472 0.22350
 H733 H 0.71924 0.24950 0.18335
 H734 H 0.68650 0.23046 0.20866
 H735 H 0.82296 0.23291 0.31452
 H736 H 0.78952 0.25606 0.33857
 H737 H 0.75356 0.28090 0.18512
 H738 H 0.76379 0.31322 0.21470
 H739 H 0.76418 0.17076 0.31021
 H740 H 0.73161 0.20179 0.33329
 H741 H 0.79670 0.31308 0.27867
 H742 H 0.83009 0.28389 0.25398
 H743 H 0.68236 0.19897 0.26830
 H744 H 0.71267 0.16831 0.24917
 C745 C 0.28932 0.06966 0.03712
 C746 C 0.27390 0.06888 0.06100
 C747 C 0.27424 0.09074 0.08134
 C748 C 0.26830 0.08503 0.10869
 C749 C 0.26787 0.10538 0.12828
 C750 C 0.27325 0.13192 0.12075
 C751 C 0.27848 0.13768 0.09328
 C752 C 0.27898 0.11737 0.07375
 C753 C 0.27241 0.15422 0.14057
 C754 C 0.27549 0.15085 0.16867
 H755 H 0.25991 0.05268 0.06445
 H756 H 0.26399 0.06476 0.11489
 H757 H 0.26273 0.10023 0.14906
 H758 H 0.28211 0.15802 0.08687
 H759 H 0.28235 0.12280 0.05267
 H760 H 0.26989 0.17421 0.13258
 H761 H 0.30124 0.08739 0.03359
 H762 H 0.27956 0.13130 0.17704
 C763 C 0.78668 0.59161 0.53107
 C764 C 0.76834 0.59243 0.55254
 C765 C 0.76755 0.61411 0.57300
 C766 C 0.75448 0.60951 0.59788
 C767 C 0.75214 0.62985 0.61724
 C768 C 0.76281 0.65530 0.61200
 C769 C 0.77531 0.66012 0.58687
 C770 C 0.77776 0.63973 0.56753
 C771 C 0.76057 0.67724 0.63206
 C772 C 0.75947 0.67249 0.66003
 H773 H 0.75316 0.57692 0.55382
 H774 H 0.74590 0.59013 0.60228
 H775 H 0.74144 0.62569 0.63599
 H776 H 0.78324 0.67970 0.58221
 H777 H 0.78698 0.64440 0.54814
 H778 H 0.76112 0.69760 0.62472
 H779 H 0.80201 0.60682 0.52913
 H780 H 0.76123 0.65230 0.66762
 C781 C 0.75073 0.96231 0.05720
 C782 C 0.73880 0.96121 0.08323
 C783 C 0.73640 0.93684 0.10026
 C784 C 0.73106 0.94011 0.12823
 C785 C 0.72835 0.91808 0.14539
 C786 C 0.73053 0.89200 0.13491
 C787 C 0.73584 0.88868 0.10690
 C788 C 0.73867 0.91080 0.08969
 C789 C 0.72831 0.86793 0.15249
 C790 C 0.71897 0.86836 0.17946
 H791 H 0.73029 0.97916 0.09203
 H792 H 0.72927 0.95991 0.13698
 H793 H 0.72500 0.92186 0.16684
 H794 H 0.73769 0.86886 0.09823
 H795 H 0.74218 0.90723 0.06821
 H796 H 0.73463 0.84901 0.14384
 H797 H 0.75705 0.94368 0.04843
 H798 H 0.71171 0.88668 0.18850
 C799 C 0.23262 0.45034 0.56829
 C800 C 0.25031 0.42935 0.57396
 C801 C 0.24583 0.40990 0.59637
 C802 C 0.25943 0.38532 0.59570
 C803 C 0.25680 0.36708 0.61715
 C804 C 0.24055 0.37313 0.63993
 C805 C 0.22724 0.39785 0.64075
 C806 C 0.22976 0.41601 0.61926
 C807 C 0.23811 0.35488 0.66367
 C808 C 0.24295 0.32747 0.66204
 H809 H 0.26859 0.42756 0.56196
 H810 H 0.27235 0.38030 0.57861
 H811 H 0.26816 0.34867 0.61608
 H812 H 0.21497 0.40323 0.65822
 H813 H 0.21974 0.43509 0.62119
 H814 H 0.23176 0.36329 0.68304
 H815 H 0.21414 0.45243 0.57983
 H816 H 0.24757 0.31847 0.64249
 C817 C 0.76929 0.06400 0.91310
 C818 C 0.75596 0.06788 0.88822
 C819 C 0.75847 0.09201 0.87096
 C820 C 0.76939 0.11629 0.88046
 C821 C 0.77151 0.13826 0.86292
 C822 C 0.76267 0.13634 0.83562
 C823 C 0.75158 0.11220 0.82639
 C824 C 0.74936 0.09040 0.84385
 C825 C 0.76535 0.15828 0.81560
 C826 C 0.77083 0.18501 0.82186
 H827 H 0.74349 0.05179 0.88045
 H828 H 0.77620 0.11858 0.90134
 H829 H 0.78044 0.15642 0.87073
 H830 H 0.74462 0.11011 0.80547
 H831 H 0.74078 0.07205 0.83597
 H832 H 0.76208 0.15297 0.79436
 H833 H 0.78179 0.07956 0.92170
 H834 H 0.77300 0.19154 0.84283
 C835 C 0.26754 0.54190 0.41966
 C836 C 0.25101 0.54865 0.39757
 C837 C 0.25237 0.57442 0.38278
 C838 C 0.23938 0.57637 0.35736
 C839 C 0.23960 0.60025 0.34276
 C840 C 0.25290 0.62288 0.35324
 C841 C 0.26517 0.62128 0.37907
 C842 C 0.26503 0.59728 0.39371
 C843 C 0.25390 0.64815 0.33756
 C844 C 0.25434 0.64790 0.30908
 H845 H 0.23596 0.53432 0.39095
 H846 H 0.22899 0.55931 0.34870
 H847 H 0.22898 0.60097 0.32340
 H848 H 0.27514 0.63855 0.38780
 H849 H 0.27446 0.59698 0.41366
 H850 H 0.25545 0.66694 0.34844
 H851 H 0.28319 0.55538 0.42648
 H852 H 0.25530 0.62889 0.29857
 C853 C 0.24601 0.92358 0.95151
 C854 C 0.24939 0.89591 0.94923
 C855 C 0.24416 0.88056 0.92372
 C856 C 0.24278 0.85271 0.92545
 C857 C 0.23939 0.83712 0.90201
 C858 C 0.23705 0.84903 0.87606
 C859 C 0.23878 0.87688 0.87420
 C860 C 0.24229 0.89254 0.89771
 C861 C 0.23442 0.83279 0.85072
 C862 C 0.22463 0.80677 0.85122
 H863 H 0.25775 0.88480 0.96619
 H864 H 0.24473 0.84287 0.94504
 H865 H 0.23946 0.81570 0.90443
 H866 H 0.23764 0.88654 0.85445
 H867 H 0.24429 0.91382 0.89511
 H868 H 0.24117 0.84114 0.83153
 H869 H 0.23751 0.93366 0.93412
 H870 H 0.21666 0.79882 0.87006
 C871 C 0.75699 0.44384 0.43925
 C872 C 0.77272 0.42179 0.43224
 C873 C 0.76776 0.40499 0.40785
 C874 C 0.77792 0.37890 0.40784
 C875 C 0.77368 0.36214 0.38547
 C876 C 0.75925 0.37117 0.36246
 C877 C 0.75000 0.39761 0.36190
 C878 C 0.75405 0.41440 0.38449
 C879 C 0.75408 0.35313 0.33906
 C880 C 0.74918 0.32616 0.34346
 H881 H 0.78917 0.41613 0.44572
 H882 H 0.78900 0.37135 0.42533
 H883 H 0.78195 0.34215 0.38613
 H884 H 0.73928 0.40511 0.34417
 H885 H 0.74677 0.43471 0.38339
 H886 H 0.75394 0.36107 0.31850
 H887 H 0.74005 0.44956 0.42654
 H888 H 0.74713 0.31914 0.36428
 C889 C 0.06598 0.22725 0.06242
 C890 C 0.09312 0.22020 0.06624
 C891 C 0.10648 0.21912 0.09338
 C892 C 0.12947 0.20303 0.09638
 C893 C 0.14433 0.20330 0.12066
 C894 C 0.13683 0.22013 0.14241
 C895 C 0.11309 0.23528 0.14003
 C896 C 0.09808 0.23495 0.11565
 C897 C 0.15463 0.22331 0.16666
 C898 C 0.18258 0.22308 0.16342
 H899 H 0.10487 0.21337 0.04897
 H900 H 0.13626 0.19049 0.07967
 H901 H 0.16205 0.19068 0.12216
 H902 H 0.10687 0.24833 0.15654
 H903 H 0.08071 0.24797 0.11396
 H904 H 0.14595 0.22824 0.18633
 H905 H 0.05404 0.22983 0.08065
 H906 H 0.19068 0.22088 0.14299
 C907 C 0.55059 0.72502 0.55950
 C908 C 0.57165 0.74283 0.56485
 C909 C 0.58766 0.74386 0.59064
 C910 C 0.60912 0.76205 0.59220
 C911 C 0.62559 0.76333 0.61539
 C912 C 0.62115 0.74626 0.63768
 C913 C 0.59905 0.72881 0.63673
 C914 C 0.58251 0.72747 0.61342
 C915 C 0.63972 0.74608 0.66159
 C916 C 0.66723 0.75101 0.65831
 H917 H 0.57675 0.75698 0.54899
 H918 H 0.61338 0.77523 0.57525
 H919 H 0.64183 0.77776 0.61578
 H920 H 0.59501 0.71569 0.65377
 H921 H 0.56602 0.71342 0.61350
 H922 H 0.63214 0.74014 0.68140
 H923 H 0.54434 0.71094 0.57484
 H924 H 0.67489 0.75429 0.63789
 C925 C 0.03999 0.76444 0.94247
 C926 C 0.04612 0.76615 0.91458
 C927 C 0.07200 0.75686 0.90265
 C928 C 0.07255 0.75058 0.87473
 C929 C 0.09646 0.74235 0.86225
 C930 C 0.12057 0.74016 0.87747
 C931 C 0.12019 0.74688 0.90532
 C932 C 0.09616 0.75508 0.91787
 C933 C 0.14656 0.73310 0.86427
 C934 C 0.14774 0.71922 0.83956
 H935 H 0.03170 0.77450 0.90036
 H936 H 0.05438 0.75222 0.86243
 H937 H 0.09601 0.73858 0.84049
 H938 H 0.13860 0.74600 0.91734
 H939 H 0.09689 0.76069 0.93921
 H940 H 0.16509 0.74060 0.87329
 H941 H 0.05547 0.75620 0.95546
 H942 H 0.12951 0.71068 0.83100
 C943 C 0.55581 0.27739 0.44187
 C944 C 0.56172 0.25764 0.42264
 C945 C 0.58768 0.25544 0.40779
 C946 C 0.58881 0.23864 0.38485
 C947 C 0.61260 0.23608 0.36985
 C948 C 0.63588 0.25037 0.37745
 C949 C 0.63515 0.26636 0.40099
 C950 C 0.61128 0.26898 0.41603
 C951 C 0.66097 0.24898 0.36111
 C952 C 0.66033 0.24454 0.33297
 H953 H 0.54622 0.24306 0.41795
 H954 H 0.57113 0.22757 0.37836
 H955 H 0.61268 0.22271 0.35245
 H956 H 0.65296 0.27721 0.40751
 H957 H 0.61163 0.28142 0.43409
 H958 H 0.68005 0.25352 0.37099
 H959 H 0.57050 0.29251 0.44697
 H960 H 0.64106 0.24241 0.32266
 C961 C 0.92836 0.78692 0.07698
 C962 C 0.92207 0.77825 0.10335
 C963 C 0.89508 0.78129 0.11599
 C964 C 0.89316 0.77829 0.14436
 C965 C 0.86828 0.78034 0.15741
 C966 C 0.84459 0.78562 0.14234
 C967 C 0.84629 0.78793 0.11387
 C968 C 0.87129 0.78583 0.10074
 C969 C 0.81797 0.78754 0.15592
 C970 C 0.81586 0.79536 0.18313
 H971 H 0.93712 0.76784 0.11536
 H972 H 0.91102 0.77422 0.15654
 H973 H 0.86771 0.77713 0.17924
 H974 H 0.82824 0.79137 0.10177
 H975 H 0.87159 0.78720 0.07871
 H976 H 0.79996 0.78203 0.14459
 H977 H 0.91256 0.79661 0.06556
 H978 H 0.83364 0.80238 0.19388
 C979 C 0.44784 0.27291 0.58276
 C980 C 0.43872 0.28843 0.60447
 C981 C 0.41260 0.28352 0.61807
 C982 C 0.40922 0.29223 0.64505
 C983 C 0.38522 0.28714 0.65893
 C984 C 0.36405 0.27318 0.64601
 C985 C 0.36687 0.26564 0.61858
 C986 C 0.39093 0.27070 0.60469
 C987 C 0.33881 0.26677 0.66060
 C988 C 0.33857 0.26293 0.68874
 H989 H 0.45156 0.30420 0.61231
 H990 H 0.42535 0.30270 0.65556
 H991 H 0.38328 0.29440 0.67967
 H992 H 0.35058 0.25547 0.60802
 H993 H 0.39230 0.26476 0.58348
 H994 H 0.32024 0.26470 0.64898
 H995 H 0.43576 0.25644 0.57535
 H996 H 0.35739 0.26343 0.70009
 C997 C 0.92811 0.25646 0.95603
 C998 C 0.93510 0.24956 0.92921
 C999 C 0.91552 0.25244 0.90639
 C1000 C 0.92473 0.25799 0.87992
 C1001 C 0.90635 0.26105 0.85825
 C1002 C 0.87840 0.25821 0.86275
 C1003 C 0.86940 0.25208 0.88912
 C1004 C 0.88766 0.24900 0.91061
 C1005 C 0.85772 0.26154 0.84105
 C1006 C 0.86289 0.26184 0.81300
 H1007 H 0.95437 0.24037 0.92473
 H1008 H 0.94613 0.26042 0.87611
 H1009 H 0.91414 0.26599 0.83830
 H1010 H 0.84805 0.24943 0.89313
 H1011 H 0.87982 0.24347 0.93040
 H1012 H 0.83686 0.26250 0.84765
 H1013 H 0.90781 0.26396 0.95917
 H1014 H 0.88330 0.26003 0.80540
 C1015 C 0.40810 0.71084 0.45223
 C1016 C 0.40713 0.73076 0.43236
 C1017 C 0.38713 0.73081 0.40966
 C1018 C 0.39258 0.74540 0.38585
 C1019 C 0.37362 0.74663 0.36452
 C1020 C 0.34866 0.73341 0.36674
 C1021 C 0.34311 0.71918 0.39071
 C1022 C 0.36205 0.71785 0.41190
 C1023 C 0.32745 0.73462 0.34524
 C1024 C 0.33208 0.74154 0.31800
 H1025 H 0.42125 0.74720 0.43378
 H1026 H 0.41153 0.75595 0.38380
 H1027 H 0.37842 0.75841 0.34673
 H1028 H 0.32392 0.70913 0.39315
 H1029 H 0.35652 0.70728 0.43027
 H1030 H 0.30727 0.72847 0.35098
 H1031 H 0.39426 0.69421 0.45106
 H1032 H 0.35227 0.74623 0.31117
 C1033 C 0.07264 0.04330 0.26655
 C1034 C 0.10090 0.04529 0.26838
 C1035 C 0.11643 0.07060 0.26609
 C1036 C 0.14475 0.06897 0.26521
 C1037 C 0.16052 0.09195 0.26308
 C1038 C 0.14831 0.11727 0.26183
 C1039 C 0.12005 0.11903 0.26286
 C1040 C 0.10423 0.09602 0.26502
 C1041 C 0.16452 0.14194 0.25927
 C1042 C 0.19255 0.14118 0.25843
 H1043 H 0.11269 0.02760 0.27261
 H1044 H 0.15480 0.04978 0.26606
 H1045 H 0.18227 0.08977 0.26235
 H1046 H 0.11015 0.13830 0.26203
 H1047 H 0.08261 0.09862 0.26606
 H1048 H 0.15426 0.16101 0.25772
 H1049 H 0.06149 0.06151 0.26396
 H1050 H 0.20112 0.15529 0.25656
 C1051 C 0.57054 0.55065 0.77124
 C1052 C 0.59018 0.55798 0.75230
 C1053 C 0.60446 0.58390 0.75291
 C1054 C 0.63006 0.58552 0.74091
 C1055 C 0.64422 0.60957 0.74074
 C1056 C 0.63286 0.63276 0.75226
 C1057 C 0.60699 0.63132 0.76381
 C1058 C 0.59291 0.60710 0.76425
 C1059 C 0.64763 0.65845 0.75222
 C1060 C 0.67500 0.65916 0.74624
 H1061 H 0.59597 0.54376 0.73665
 H1062 H 0.63927 0.56801 0.73180
 H1063 H 0.66399 0.60996 0.73136
 H1064 H 0.59770 0.64893 0.77259
 H1065 H 0.57286 0.60679 0.77296
 H1066 H 0.63715 0.67674 0.75759
 H1067 H 0.56527 0.56429 0.78752
 H1068 H 0.68272 0.67391 0.74595
 C1069 C 0.95129 0.06271 0.75418
 C1070 C 0.94855 0.09040 0.75182
 C1071 C 0.92244 0.10476 0.75183
 C1072 C 0.92290 0.13216 0.75746
 C1073 C 0.89952 0.14742 0.75516
 C1074 C 0.87510 0.13569 0.74671
 C1075 C 0.87415 0.10807 0.74232
 C1076 C 0.89771 0.09266 0.74462
 C1077 C 0.85099 0.15246 0.74188
 C1078 C 0.85398 0.17785 0.73087
 H1079 H 0.96611 0.10270 0.74848
 H1080 H 0.94159 0.14191 0.76328
 H1081 H 0.90067 0.16853 0.75972
 H1082 H 0.85546 0.09864 0.73602
 H1083 H 0.89659 0.07168 0.73965
 H1084 H 0.83117 0.14503 0.74723
 H1085 H 0.93299 0.05137 0.75658
 H1086 H 0.87378 0.18404 0.72397
 C1087 C 0.44327 0.55705 0.22472
 C1088 C 0.43387 0.57666 0.24262
 C1089 C 0.40898 0.59237 0.23806
 C1090 C 0.40708 0.61756 0.25037
 C1091 C 0.38426 0.63343 0.24641
 C1092 C 0.36268 0.62433 0.23013
 C1093 C 0.36410 0.59875 0.21854
 C1094 C 0.38716 0.58291 0.22228
 C1095 C 0.33824 0.64086 0.22611
 C1096 C 0.33957 0.66862 0.22577
 H1097 H 0.44630 0.58196 0.26009
 H1098 H 0.42344 0.62512 0.26296
 H1099 H 0.38338 0.65263 0.25654
 H1100 H 0.34747 0.59113 0.20639
 H1101 H 0.38758 0.56323 0.21318
 H1102 H 0.31892 0.63101 0.22357
 H1103 H 0.43144 0.55160 0.20696
 H1104 H 0.35912 0.67829 0.22601
 C1105 C 0.05542 0.92332 0.74317
 C1106 C 0.06031 0.89880 0.73018
 C1107 C 0.08363 0.88110 0.73612
 C1108 C 0.08240 0.85461 0.72687
 C1109 C 0.10352 0.83685 0.73207
 C1110 C 0.12646 0.84520 0.74677
 C1111 C 0.12808 0.87185 0.75543
 C1112 C 0.10691 0.88967 0.75025
 C1113 C 0.14935 0.82700 0.75251
 C1114 C 0.14684 0.79927 0.75275
 H1115 H 0.04640 0.89177 0.71467
 H1116 H 0.06492 0.84755 0.71560
 H1117 H 0.10188 0.81679 0.72409
 H1118 H 0.14578 0.87889 0.76636
 H1119 H 0.10924 0.91004 0.75705
 H1120 H 0.16876 0.83582 0.75737
 H1121 H 0.07068 0.93061 0.75693
 H1122 H 0.12731 0.79007 0.74972
 C1123 C 0.56062 0.42543 0.23468
 C1124 C 0.57125 0.40588 0.21746
 C1125 C 0.59215 0.38665 0.22620
 C1126 C 0.61043 0.37668 0.20686
 C1127 C 0.62890 0.35674 0.21399
 C1128 C 0.62887 0.34590 0.24044
 C1129 C 0.61035 0.35558 0.25971
 C1130 C 0.59235 0.37606 0.25278
 C1131 C 0.64759 0.32410 0.24791
 C1132 C 0.67447 0.32449 0.23971
 H1133 H 0.56321 0.40400 0.19690
 H1134 H 0.61026 0.38423 0.18613
 H1135 H 0.64268 0.34926 0.19862
 H1136 H 0.60988 0.34733 0.28013
 H1137 H 0.57794 0.38289 0.26787
 H1138 H 0.64072 0.30864 0.26164
 H1139 H 0.57029 0.42964 0.25411
 H1140 H 0.68209 0.34180 0.22904
 C1141 C 0.92665 0.94703 0.27532
 C1142 C 0.89873 0.94888 0.27033
 C1143 C 0.87935 0.92649 0.27152
 C1144 C 0.85308 0.93074 0.26148
 C1145 C 0.83346 0.91090 0.26336
 C1146 C 0.83968 0.88631 0.27557
 C1147 C 0.86599 0.88194 0.28546
 C1148 C 0.88564 0.90187 0.28368
 C1149 C 0.81989 0.86429 0.27667
 C1150 C 0.79194 0.86765 0.27382
 H1151 H 0.89032 0.96793 0.26429
 H1152 H 0.84767 0.94955 0.25207
 H1153 H 0.81372 0.91479 0.25471
 H1154 H 0.87132 0.86307 0.29478
 H1155 H 0.90543 0.89799 0.29222
 H1156 H 0.82791 0.84431 0.27913
 H1157 H 0.93550 0.92741 0.27613
 H1158 H 0.78311 0.88739 0.27331
 C1159 C 0.43106 0.44215 0.77639
 C1160 C 0.40801 0.43620 0.79157
 C1161 C 0.39016 0.41341 0.78532
 C1162 C 0.36270 0.41531 0.79207
 C1163 C 0.34502 0.39438 0.78614
 C1164 C 0.35463 0.37101 0.77355
 C1165 C 0.38222 0.36886 0.76741
 C1166 C 0.39985 0.38989 0.77311
 C1167 C 0.33688 0.34798 0.76801
 C1168 C 0.30892 0.34999 0.76448
 H1169 H 0.40166 0.44981 0.80754
 H1170 H 0.35486 0.43314 0.80180
 H1171 H 0.32406 0.39639 0.79199
 H1172 H 0.39017 0.35083 0.75817
 H1173 H 0.42105 0.38741 0.76840
 H1174 H 0.34642 0.32860 0.76607
 H1175 H 0.43726 0.42883 0.76017
 H1176 H 0.29916 0.36931 0.76400
 C1177 C 0.07571 0.24478 0.96564
 C1178 C 0.06983 0.23782 0.93845
 C1179 C 0.09055 0.23832 0.91663
 C1180 C 0.08271 0.24307 0.88945
 C1181 C 0.10204 0.24424 0.86858
 C1182 C 0.12959 0.24031 0.87461
 C1183 C 0.13720 0.23479 0.90167
 C1184 C 0.11799 0.23362 0.92239
 C1185 C 0.15134 0.24273 0.85404
 C1186 C 0.14776 0.24384 0.82566
 H1187 H 0.04986 0.23099 0.93280
 H1188 H 0.06164 0.24645 0.88445
 H1189 H 0.09534 0.24874 0.84806
 H1190 H 0.15822 0.23138 0.90687
 H1191 H 0.12479 0.22866 0.94278
 H1192 H 0.17180 0.24336 0.86198
 H1193 H 0.09653 0.24936 0.97053
 H1194 H 0.12790 0.24188 0.81660
 C1195 C 0.55621 0.72286 0.45894
 C1196 C 0.55473 0.74069 0.43705
 C1197 C 0.57511 0.74145 0.41478
 C1198 C 0.56806 0.75240 0.38931
 C1199 C 0.58717 0.75429 0.36827
 C1200 C 0.61388 0.74543 0.37244
 C1201 C 0.62087 0.73463 0.39795
 C1202 C 0.60183 0.73264 0.41884
 C1203 C 0.63555 0.74857 0.35177
 C1204 C 0.63148 0.75384 0.32394
 H1205 H 0.53797 0.75460 0.43615
 H1206 H 0.54773 0.75967 0.38573
 H1207 H 0.58109 0.76331 0.34918
 H1208 H 0.64137 0.72801 0.40191
 H1209 H 0.60847 0.72497 0.43837
 H1210 H 0.65615 0.74643 0.35904
 H1211 H 0.57287 0.70893 0.46015
 H1212 H 0.61127 0.75449 0.31548
 C1213 C 0.94213 0.78039 0.93110
 C1214 C 0.93528 0.76036 0.91262
 C1215 C 0.90952 0.76031 0.89725
 C1216 C 0.90821 0.74648 0.87238
 C1217 C 0.88440 0.74635 0.85705
 C1218 C 0.86130 0.75996 0.86640
 C1219 C 0.86213 0.77265 0.89193
 C1220 C 0.88607 0.77296 0.90722
 C1221 C 0.83654 0.76131 0.84950
 C1222 C 0.83845 0.76338 0.82124
 H1223 H 0.94938 0.74412 0.90924
 H1224 H 0.92579 0.73606 0.86460
 H1225 H 0.88408 0.73553 0.83787
 H1226 H 0.84442 0.78282 0.89974
 H1227 H 0.88601 0.78286 0.92689
 H1228 H 0.81695 0.76192 0.85930
 H1229 H 0.92873 0.79720 0.93417
 H1230 H 0.85827 0.76514 0.81209
 C1231 C 0.45568 0.27571 0.43612
 C1232 C 0.45164 0.25736 0.41511
 C1233 C 0.42604 0.25565 0.39946
 C1234 C 0.42650 0.24430 0.37327
 C1235 C 0.40290 0.24274 0.35765
 C1236 C 0.37825 0.25248 0.36796
 C1237 C 0.37749 0.26269 0.39463
 C1238 C 0.40117 0.26436 0.41026
 C1239 C 0.35329 0.25196 0.35121
 C1240 C 0.35444 0.25483 0.32296
 H1241 H 0.46797 0.24394 0.40971
 H1242 H 0.44525 0.23688 0.36475
 H1243 H 0.40402 0.23369 0.33758
 H1244 H 0.35863 0.26977 0.40321
 H1245 H 0.39976 0.27217 0.43083
 H1246 H 0.33389 0.25012 0.36121
 H1247 H 0.43999 0.28992 0.44114
 H1248 H 0.37376 0.25870 0.31345
 C1249 C 0.02578 0.77543 0.08899
 C1250 C 0.04369 0.75397 0.08750
 C1251 C 0.06615 0.75024 0.10708
 C1252 C 0.08968 0.73715 0.09839
 C1253 C 0.11149 0.73374 0.11628
 C1254 C 0.10996 0.74317 0.14333
 C1255 C 0.08605 0.75541 0.15226
 C1256 C 0.06436 0.75903 0.13432
 C1257 C 0.13254 0.74023 0.16291
 C1258 C 0.15957 0.73859 0.15505
 H1259 H 0.04198 0.74011 0.07055
 H1260 H 0.09130 0.72983 0.07761
 H1261 H 0.12929 0.72344 0.10897
 H1262 H 0.08424 0.76243 0.17313
 H1263 H 0.04616 0.76832 0.14199
 H1264 H 0.12779 0.74141 0.18449
 H1265 H 0.02693 0.78933 0.10591
 H1266 H 0.16497 0.73938 0.13366
 C1267 C 0.54607 0.28639 0.59030
 C1268 C 0.56684 0.26753 0.59017
 C1269 C 0.59022 0.26838 0.60910
 C1270 C 0.61405 0.25506 0.60169
 C1271 C 0.63656 0.25519 0.61903
 C1272 C 0.63558 0.26863 0.64430
 C1273 C 0.61154 0.28143 0.65197
 C1274 C 0.58908 0.28139 0.63458
 C1275 C 0.65871 0.26886 0.66356
 C1276 C 0.68544 0.26458 0.65562
 H1277 H 0.56634 0.25190 0.57483
 H1278 H 0.61529 0.24453 0.58236
 H1279 H 0.65437 0.24430 0.61277
 H1280 H 0.61013 0.29153 0.67152
 H1281 H 0.57082 0.29109 0.64152
 H1282 H 0.65455 0.27351 0.68478
 H1283 H 0.54559 0.30199 0.60559
 H1284 H 0.69035 0.26170 0.63429
 C1285 C 0.92100 0.22775 0.04944
 C1286 C 0.92270 0.24049 0.07478
 C1287 C 0.90243 0.23714 0.09668
 C1288 C 0.90920 0.24469 0.12349
 C1289 C 0.89021 0.24292 0.14452
 C1290 C 0.86395 0.23357 0.13902
 C1291 C 0.85725 0.22602 0.11222
 C1292 C 0.87616 0.22783 0.09127
 C1293 C 0.84240 0.23268 0.15988
 C1294 C 0.84625 0.23651 0.18793
 H1295 H 0.93966 0.25363 0.07866
 H1296 H 0.92920 0.25223 0.12814
 H1297 H 0.89612 0.24946 0.16472
 H1298 H 0.83708 0.21907 0.10732
 H1299 H 0.86966 0.22264 0.07084
 H1300 H 0.82206 0.22895 0.15252
 H1301 H 0.90430 0.21468 0.04469
 H1302 H 0.86628 0.23896 0.19645
 C1303 C 0.40405 0.71215 0.55197
 C1304 C 0.40203 0.73172 0.57227
 C1305 C 0.38227 0.73016 0.59495
 C1306 C 0.38777 0.74325 0.61978
 C1307 C 0.36918 0.74252 0.64133
 C1308 C 0.34454 0.72885 0.63826
 C1309 C 0.33896 0.71612 0.61329
 C1310 C 0.35754 0.71671 0.59190
 C1311 C 0.32349 0.72833 0.65974
 C1312 C 0.32775 0.73410 0.68744
 H1313 H 0.41567 0.74858 0.57175
 H1314 H 0.40652 0.75406 0.62250
 H1315 H 0.37396 0.75314 0.65998
 H1316 H 0.31998 0.70579 0.61021
 H1317 H 0.35204 0.70721 0.57281
 H1318 H 0.30345 0.72216 0.65335
 H1319 H 0.39047 0.69528 0.55218
 H1320 H 0.34777 0.73875 0.69497
 C1321 C 0.27515 0.06362 0.94039
 C1322 C 0.28580 0.08891 0.93484
 C1323 C 0.27698 0.10545 0.91148
 C1324 C 0.27873 0.13325 0.91398
 C1325 C 0.27036 0.14980 0.89269
 C1326 C 0.26019 0.13879 0.86828
 C1327 C 0.25905 0.11096 0.86548
 C1328 C 0.26726 0.09438 0.88690
 C1329 C 0.25245 0.15574 0.84486
 C1330 C 0.24465 0.18236 0.84770
 H1331 H 0.30042 0.09786 0.94851
 H1332 H 0.28649 0.14224 0.93258
 H1333 H 0.27255 0.17112 0.89523
 H1334 H 0.25185 0.10203 0.84663
 H1335 H 0.26649 0.07303 0.88383
 H1336 H 0.25341 0.14699 0.82460
 H1337 H 0.26178 0.05521 0.92524
 H1338 H 0.24159 0.19083 0.86783
 C1339 C 0.75660 0.58824 0.43617
 C1340 C 0.77040 0.61027 0.42630
 C1341 C 0.75802 0.62857 0.40655
 C1342 C 0.77403 0.63967 0.38603
 C1343 C 0.76283 0.65776 0.36760
 C1344 C 0.73564 0.66552 0.36996
 C1345 C 0.71979 0.65498 0.39093
 C1346 C 0.73080 0.63629 0.40892
 C1347 C 0.72421 0.68550 0.35133
 C1348 C 0.73016 0.68468 0.32363
 H1349 H 0.79090 0.61404 0.43312
 H1350 H 0.79514 0.63423 0.38421
 H1351 H 0.77560 0.66620 0.35193
 H1352 H 0.69891 0.66108 0.39323
 H1353 H 0.71830 0.62844 0.42512
 H1354 H 0.71166 0.70129 0.35959
 H1355 H 0.73742 0.58261 0.42713
 H1356 H 0.74030 0.66732 0.31525
 C1357 C 0.76045 0.05937 0.05999
 C1358 C 0.75470 0.06143 0.08799
 C1359 C 0.75963 0.08586 0.10429
 C1360 C 0.76689 0.08307 0.13182
 C1361 C 0.77010 0.10542 0.14855
 C1362 C 0.76521 0.13124 0.13834
 C1363 C 0.75872 0.13409 0.11051
 C1364 C 0.75593 0.11162 0.09359
 C1365 C 0.76607 0.15527 0.15628
 C1366 C 0.76305 0.15362 0.18459
 H1367 H 0.74645 0.04480 0.09914
 H1368 H 0.77012 0.06343 0.14043
 H1369 H 0.77640 0.10217 0.16944
 H1370 H 0.75504 0.15370 0.10202
 H1371 H 0.74991 0.11442 0.07250
 H1372 H 0.76733 0.17475 0.14687
 H1373 H 0.76838 0.07714 0.05068
 H1374 H 0.76015 0.13439 0.19403
 C1375 C 0.25277 0.54645 0.56629
 C1376 C 0.23523 0.55379 0.58726
 C1377 C 0.23871 0.57819 0.60395
 C1378 C 0.22796 0.57857 0.63038
 C1379 C 0.23110 0.60092 0.64711
 C1380 C 0.24494 0.62355 0.63766
 C1381 C 0.25477 0.62367 0.61083
 C1382 C 0.25187 0.60111 0.59411
 C1383 C 0.24859 0.64716 0.65548
 C1384 C 0.25229 0.64419 0.68354
 H1385 H 0.21884 0.54049 0.59250
 H1386 H 0.21732 0.56138 0.63825
 H1387 H 0.22237 0.60055 0.66736
 H1388 H 0.26502 0.64108 0.60295
 H1389 H 0.25959 0.60186 0.57348
 H1390 H 0.24832 0.66688 0.64651
 H1391 H 0.26961 0.55921 0.56129
 H1392 H 0.25477 0.62431 0.69181
 C1393 C 0.77002 0.96596 0.90877
 C1394 C 0.74976 0.94678 0.90607
 C1395 C 0.75042 0.92558 0.88484
 C1396 C 0.73707 0.90138 0.88957
 C1397 C 0.73687 0.88123 0.86967
 C1398 C 0.74980 0.88506 0.84441
 C1399 C 0.76256 0.90952 0.83944
 C1400 C 0.76300 0.92953 0.85942
 C1401 C 0.74962 0.86447 0.82255
 C1402 C 0.74754 0.83718 0.82779
 H1403 H 0.73283 0.94727 0.92004
 H1404 H 0.72681 0.89802 0.90877
 H1405 H 0.72610 0.86297 0.87393
 H1406 H 0.77229 0.91316 0.82001
 H1407 H 0.77263 0.94827 0.85459
 H1408 H 0.75285 0.87093 0.80170
 H1409 H 0.78699 0.96563 0.89490
 H1410 H 0.74662 0.83025 0.84869
 C1411 C 0.25661 0.44332 0.42051
 C1412 C 0.24621 0.44134 0.39391
 C1413 C 0.24820 0.41735 0.37600
 C1414 C 0.26328 0.39448 0.38299
 C1415 C 0.26511 0.37287 0.36484
 C1416 C 0.25196 0.37361 0.33929
 C1417 C 0.23715 0.39649 0.33230
 C1418 C 0.23521 0.41800 0.35043
 C1419 C 0.25389 0.35151 0.31906
 C1420 C 0.26049 0.32525 0.32592
 H1421 H 0.23581 0.45854 0.38560
 H1422 H 0.27413 0.39316 0.40212
 H1423 H 0.27742 0.35598 0.37071
 H1424 H 0.22698 0.39773 0.31270
 H1425 H 0.22363 0.43535 0.34432
 H1426 H 0.24881 0.35594 0.29800
 H1427 H 0.26550 0.42606 0.43014
 H1428 H 0.26391 0.31997 0.34706
 C1429 C 0.26303 0.92780 0.05081
 C1430 C 0.24073 0.91367 0.06043
 C1431 C 0.23990 0.89921 0.08689
 C1432 C 0.21859 0.88134 0.09131
 C1433 C 0.21745 0.86620 0.11519
 C1434 C 0.23770 0.86854 0.13529
 C1435 C 0.25821 0.88746 0.13168
 C1436 C 0.25940 0.90262 0.10768
 C1437 C 0.23850 0.85044 0.15923
 C1438 C 0.23067 0.82389 0.15649
 H1439 H 0.22299 0.91264 0.04741
 H1440 H 0.20298 0.87866 0.07597
 H1441 H 0.20082 0.85245 0.11774
 H1442 H 0.27383 0.88989 0.14705
 H1443 H 0.27568 0.91678 0.10563
 H1444 H 0.24844 0.85692 0.17785
 H1445 H 0.28121 0.92937 0.06297
 H1446 H 0.22376 0.81690 0.13669
 C1447 C 0.78022 0.44689 0.53783
 C1448 C 0.76139 0.42837 0.54703
 C1449 C 0.76416 0.41313 0.57273
 C1450 C 0.74848 0.39011 0.57584
 C1451 C 0.75063 0.37469 0.59940
 C1452 C 0.76860 0.38197 0.62045
 C1453 C 0.78342 0.40563 0.61798
 C1454 C 0.78135 0.42108 0.59427
 C1455 C 0.77210 0.36501 0.64489
 C1456 C 0.76995 0.33738 0.64296
 H1457 H 0.74386 0.42440 0.53432
 H1458 H 0.73468 0.38385 0.55983
 H1459 H 0.73808 0.35712 0.60111
 H1460 H 0.79700 0.41187 0.63419
 H1461 H 0.79304 0.43922 0.59311
 H1462 H 0.77774 0.37417 0.66416
 H1463 H 0.79818 0.45119 0.54966
 H1464 H 0.76673 0.32829 0.62310
 C1465 C 0.04758 0.06865 0.75926
 C1466 C 0.07769 0.06534 0.75060
 C1467 C 0.09663 0.09020 0.75109
 C1468 C 0.12392 0.08789 0.74364
 C1469 C 0.14071 0.11031 0.74351
 C1470 C 0.13054 0.13554 0.75096
 C1471 C 0.10324 0.13784 0.75819
 C1472 C 0.08651 0.11544 0.75840
 C1473 C 0.14745 0.15990 0.75078
 C1474 C 0.17557 0.15939 0.75303
 H1475 H 0.09186 0.04708 0.74106
 H1476 H 0.13229 0.06879 0.73770
 H1477 H 0.16142 0.10780 0.73703
 H1478 H 0.09484 0.15704 0.76384
 H1479 H 0.06556 0.11799 0.76412
 H1480 H 0.13725 0.17904 0.75020
 H1481 H 0.06324 0.06274 0.75415
 H1482 H 0.18603 0.14060 0.75559
 C1483 C 0.53890 0.57067 0.24520
 C1484 C 0.56711 0.57333 0.23138
 C1485 C 0.58335 0.60006 0.23393
 C1486 C 0.60953 0.60217 0.22326
 C1487 C 0.62356 0.62634 0.22479
 C1488 C 0.61156 0.64894 0.23690
 C1489 C 0.58538 0.64679 0.24750
 C1490 C 0.57146 0.62260 0.24614
 C1491 C 0.62592 0.67475 0.23908
 C1492 C 0.65320 0.67684 0.23316
 H1493 H 0.58068 0.55873 0.21607
 H1494 H 0.61916 0.58516 0.21368
 H1495 H 0.64372 0.62730 0.21635
 H1496 H 0.57570 0.66386 0.25696
 H1497 H 0.55124 0.62167 0.25441
 H1498 H 0.61525 0.69205 0.24693
 H1499 H 0.55392 0.56895 0.23664
 H1500 H 0.66076 0.69148 0.23544
 C1501 C 0.07374 0.94708 0.25237
 C1502 C 0.07159 0.91833 0.26447
 C1503 C 0.09357 0.89643 0.25813
 C1504 C 0.09063 0.87021 0.26770
 C1505 C 0.11080 0.85109 0.26296
 C1506 C 0.13437 0.85788 0.24855
 C1507 C 0.13716 0.88407 0.23893
 C1508 C 0.11695 0.90307 0.24350
 C1509 C 0.15703 0.83884 0.24439
 C1510 C 0.15438 0.81110 0.24538
 H1511 H 0.05538 0.90772 0.28035
 H1512 H 0.07288 0.86456 0.27915
 H1513 H 0.10814 0.83132 0.27129
 H1514 H 0.15515 0.88991 0.22792
 H1515 H 0.11987 0.92312 0.23596
 H1516 H 0.17666 0.84714 0.23968
 H1517 H 0.07024 0.93221 0.26016
 H1518 H 0.13466 0.80222 0.24804
 C1519 C 0.57934 0.44617 0.75819
 C1520 C 0.60739 0.44608 0.75858
 C1521 C 0.62340 0.42148 0.75422
 C1522 C 0.65157 0.42279 0.75681
 C1523 C 0.66747 0.40008 0.75297
 C1524 C 0.65557 0.37547 0.74604
 C1525 C 0.62732 0.37403 0.74386
 C1526 C 0.61134 0.39682 0.74779
 C1527 C 0.67209 0.35105 0.74190
 C1528 C 0.69918 0.35226 0.73424
 H1529 H 0.61807 0.46446 0.76283
 H1530 H 0.66134 0.44144 0.76208
 H1531 H 0.68904 0.40191 0.75600
 H1532 H 0.61761 0.35528 0.73887
 H1533 H 0.58962 0.39509 0.74576
 H1534 H 0.66271 0.33177 0.74482
 H1535 H 0.57062 0.46051 0.76094
 H1536 H 0.70811 0.37137 0.72952
 C1537 C 0.92948 0.04148 0.29651
 C1538 C 0.92549 0.06134 0.27706
 C1539 C 0.90269 0.08047 0.27800
 C1540 C 0.90470 0.10435 0.26336
 C1541 C 0.88302 0.12222 0.26244
 C1542 C 0.85873 0.11647 0.27605
 C1543 C 0.85645 0.09230 0.29017
 C1544 C 0.87823 0.07449 0.29127
 C1545 C 0.83544 0.13505 0.27520
 C1546 C 0.83914 0.16251 0.27340
 H1547 H 0.93883 0.06197 0.25955
 H1548 H 0.92306 0.10912 0.25243
 H1549 H 0.88518 0.14023 0.25051
 H1550 H 0.83780 0.08723 0.30042
 H1551 H 0.87548 0.05579 0.30184
 H1552 H 0.81520 0.12711 0.27719
 H1553 H 0.91653 0.04057 0.31425
 H1554 H 0.85947 0.17046 0.27390
 C1555 C 0.42570 0.53871 0.79165
 C1556 C 0.42134 0.55803 0.77173
 C1557 C 0.39820 0.57664 0.77271
 C1558 C 0.40017 0.60142 0.75970
 C1559 C 0.37822 0.61900 0.75949
 C1560 C 0.35376 0.61192 0.77211
 C1561 C 0.35160 0.58688 0.78452
 C1562 C 0.37359 0.56942 0.78493
 C1563 C 0.32991 0.62967 0.77178
 C1564 C 0.33200 0.65733 0.77037
 H1565 H 0.43490 0.55904 0.75442
 H1566 H 0.41873 0.60715 0.74964
 H1567 H 0.38029 0.63779 0.74889
 H1568 H 0.33282 0.58080 0.79392
 H1569 H 0.37096 0.55003 0.79417
 H1570 H 0.31013 0.62070 0.77392
 H1571 H 0.41240 0.53761 0.80911
 H1572 H 0.35171 0.66666 0.77041
 C1573 C 0.95890 0.92189 0.72322
 C1574 C 0.93682 0.92088 0.74085
 C1575 C 0.91483 0.90110 0.73815
 C1576 C 0.88970 0.90652 0.75019
 C1577 C 0.86894 0.88763 0.74932
 C1578 C 0.87309 0.86281 0.73651
 C1579 C 0.89826 0.85739 0.72462
 C1580 C 0.91891 0.87627 0.72537
 C1581 C 0.85254 0.84145 0.73647
 C1582 C 0.82497 0.84553 0.74088
 H1583 H 0.93580 0.93500 0.75763
 H1584 H 0.88622 0.92535 0.76052
 H1585 H 0.85009 0.89228 0.75937
 H1586 H 0.90210 0.83827 0.71499
 H1587 H 0.93824 0.87088 0.71673
 H1588 H 0.85955 0.82140 0.73211
 H1589 H 0.96050 0.90790 0.70643
 H1590 H 0.81694 0.86546 0.74342
 C1591 C 0.46501 0.41401 0.21186
 C1592 C 0.44305 0.41273 0.22962
 C1593 C 0.42255 0.39133 0.22883
 C1594 C 0.39742 0.39586 0.24122
 C1595 C 0.37800 0.37569 0.24218
 C1596 C 0.38346 0.35045 0.23083
 C1597 C 0.40865 0.34589 0.21860
 C1598 C 0.42800 0.36607 0.21754
 C1599 C 0.36423 0.32800 0.23264
 C1600 C 0.33656 0.33099 0.23720
 H1601 H 0.44091 0.42812 0.24507
 H1602 H 0.39290 0.41503 0.25043
 H1603 H 0.35915 0.37978 0.25250
 H1604 H 0.41350 0.32650 0.21007
 H1605 H 0.44741 0.36142 0.20865
 H1606 H 0.37227 0.30810 0.22955
 H1607 H 0.46805 0.39875 0.19652
 H1608 H 0.32756 0.35064 0.23840
   
