data_POSCAR
  _audit_creation_date              2014-09-24
  _audit_creation_method            'ToBaCCo'
  _symmetry_space_group_name_H-M    'P1'
  _symmetry_Int_Tables_number       1
  _symmetry_cell_setting            triclinic
  loop_
  _symmetry_equiv_pos_as_xyz
 x,y,z
_cell_length_a 62.6877
_cell_length_b 62.5438
_cell_length_c 63.5634
_cell_angle_alpha 90.338900
_cell_angle_beta 89.145200
_cell_angle_gamma 89.594800
loop_
  _atom_site_label
  _atom_site_type_symbol
  _atom_site_fract_x
  _atom_site_fract_y
  _atom_site_fract_z
N1 N 0.17410 0.22017 0.22127
 N2 N 0.18062 0.20314 0.23141
 C3 C 0.16751 0.19977 0.24800
 C4 C 0.15190 0.21554 0.24837
 C5 C 0.15666 0.22827 0.23115
 H6 H 0.16918 0.18678 0.25900
 H7 H 0.14775 0.24202 0.22582
 Cu8 Cu 0.20526 0.18669 0.22163
 Cu9 Cu 0.18786 0.22960 0.19520
 Cu10 Cu 0.23055 0.19886 0.17644
 N11 N 0.23013 0.17055 0.21187
 N12 N 0.23972 0.17511 0.19396
 C13 C 0.25635 0.16164 0.19094
 C14 C 0.25730 0.14789 0.20794
 C15 C 0.24034 0.15404 0.22088
 H16 H 0.26719 0.16215 0.17758
 H17 H 0.23573 0.14697 0.23572
 N18 N 0.21905 0.22369 0.16122
 N19 N 0.20375 0.23618 0.16898
 C20 C 0.20052 0.25250 0.15560
 C21 C 0.21418 0.24990 0.13849
 C22 C 0.22563 0.23147 0.14253
 H23 H 0.18879 0.26510 0.15783
 H24 H 0.23817 0.22458 0.13273
 H25 H 0.19886 0.19970 0.18619
 H26 H 0.21776 0.21691 0.20093
 N27 N 0.67312 0.73212 0.73063
 N28 N 0.68035 0.71782 0.74386
 C29 C 0.66633 0.71581 0.75996
 C30 C 0.64928 0.72952 0.75661
 C31 C 0.65418 0.73962 0.73781
 H32 H 0.66813 0.70472 0.77281
 H33 H 0.64465 0.75148 0.72988
 Cu34 Cu 0.70683 0.70235 0.73844
 Cu35 Cu 0.68851 0.73939 0.70481
 Cu36 Cu 0.73063 0.70596 0.69079
 N37 N 0.72818 0.68168 0.72896
 N38 N 0.73725 0.68297 0.71025
 C39 C 0.75137 0.66682 0.70784
 C40 C 0.75117 0.65466 0.72604
 C41 C 0.73618 0.66465 0.73909
 H42 H 0.76127 0.66436 0.69397
 H43 H 0.73131 0.65989 0.75474
 N44 N 0.72158 0.73032 0.67342
 N45 N 0.70612 0.74363 0.67922
 C46 C 0.70462 0.75930 0.66485
 C47 C 0.71970 0.75551 0.64913
 C48 C 0.73011 0.73698 0.65504
 H49 H 0.69326 0.77238 0.66559
 H50 H 0.74331 0.72929 0.64681
 H51 H 0.69939 0.70828 0.70157
 H52 H 0.71868 0.72819 0.71225
 N53 N 0.32316 0.77429 0.73310
 N54 N 0.31803 0.79245 0.74247
 C55 C 0.33107 0.79552 0.75888
 C56 C 0.34487 0.77820 0.75997
 C57 C 0.33938 0.76505 0.74338
 H58 H 0.33024 0.80898 0.76962
 H59 H 0.34670 0.74992 0.73906
 Cu60 Cu 0.29393 0.80946 0.73292
 Cu61 Cu 0.30844 0.76374 0.70837
 Cu62 Cu 0.26553 0.79395 0.69129
 N63 N 0.26997 0.82651 0.72305
 N64 N 0.25912 0.82033 0.70661
 C65 C 0.24353 0.83463 0.70295
 C66 C 0.24439 0.85076 0.71802
 C67 C 0.26148 0.84495 0.73056
 H68 H 0.23223 0.83303 0.69039
 H69 H 0.26740 0.85346 0.74408
 N70 N 0.27455 0.76688 0.67778
 N71 N 0.29142 0.75581 0.68369
 C72 C 0.29392 0.73873 0.67082
 C73 C 0.27764 0.73892 0.65640
 C74 C 0.26565 0.75693 0.66129
 H75 H 0.30637 0.72676 0.67207
 H76 H 0.25167 0.76250 0.65315
 H77 H 0.29766 0.79308 0.69815
 H78 H 0.27945 0.77777 0.71591
 N79 N 0.82805 0.27399 0.23320
 N80 N 0.82406 0.29230 0.24269
 C81 C 0.83890 0.29551 0.25752
 C82 C 0.85295 0.27816 0.25731
 C83 C 0.84538 0.26488 0.24158
 H84 H 0.83928 0.30938 0.26772
 H85 H 0.85197 0.24976 0.23631
 Cu86 Cu 0.79970 0.30986 0.23465
 Cu87 Cu 0.81101 0.26327 0.21031
 Cu88 Cu 0.76726 0.29341 0.19578
 N89 N 0.77426 0.32597 0.22707
 N90 N 0.76185 0.31965 0.21178
 C91 C 0.74563 0.33370 0.20990
 C92 C 0.74788 0.34967 0.22488
 C93 C 0.76625 0.34419 0.23550
 H94 H 0.73293 0.33216 0.19868
 H95 H 0.77334 0.35290 0.24832
 N96 N 0.77551 0.26629 0.18165
 N97 N 0.79212 0.25484 0.18746
 C98 C 0.79391 0.23747 0.17500
 C99 C 0.77765 0.23783 0.16054
 C100 C 0.76627 0.25642 0.16525
 H101 H 0.80647 0.22565 0.17613
 H102 H 0.75236 0.26238 0.15728
 H103 H 0.79967 0.29268 0.20007
 H104 H 0.78275 0.27835 0.21984
 N105 N 0.83266 0.71525 0.27740
 N106 N 0.82494 0.69973 0.26584
 C107 C 0.83809 0.69624 0.24921
 C108 C 0.85492 0.71042 0.25033
 C109 C 0.85089 0.72225 0.26847
 H110 H 0.83544 0.68451 0.23700
 H111 H 0.86053 0.73496 0.27478
 Cu112 Cu 0.79829 0.68579 0.27344
 Cu113 Cu 0.81832 0.72549 0.30295
 Cu114 Cu 0.77069 0.70111 0.31687
 N115 N 0.77218 0.67150 0.28215
 N116 N 0.76143 0.67756 0.29908
 C117 C 0.74449 0.66469 0.30173
 C118 C 0.74458 0.64970 0.28558
 C119 C 0.76241 0.65458 0.27344
 H120 H 0.73305 0.66611 0.31456
 H121 H 0.76815 0.64612 0.25958
 N122 N 0.78283 0.72510 0.33293
 N123 N 0.80142 0.73372 0.32814
 C124 C 0.80583 0.74889 0.34253
 C125 C 0.78910 0.75006 0.35690
 C126 C 0.77476 0.73482 0.35031
 H127 H 0.81994 0.75873 0.34236
 H128 H 0.75974 0.73089 0.35786
 H129 H 0.80278 0.69721 0.30984
 H130 H 0.78786 0.71731 0.29406
 N131 N 0.32985 0.22091 -0.23088
 N132 N 0.32395 0.20402 -0.24160
 C133 C 0.33642 0.20191 -0.25888
 C134 C 0.35116 0.21841 -0.25913
 C135 C 0.34639 0.23016 -0.24097
 H136 H 0.33469 0.18925 -0.27034
 H137 H 0.35419 0.24442 -0.23543
 Cu138 Cu 0.30060 0.18617 -0.23213
 Cu139 Cu 0.31523 0.22977 -0.20490
 Cu140 Cu 0.26868 0.20272 -0.19227
 N141 N 0.27308 0.17319 -0.22687
 N142 N 0.26064 0.17956 -0.21121
 C143 C 0.24310 0.16725 -0.21065
 C144 C 0.24461 0.15240 -0.22691
 C145 C 0.26386 0.15675 -0.23689
 H146 H 0.23031 0.16890 -0.19915
 H147 H 0.27097 0.14821 -0.25010
 N148 N 0.27971 0.22648 -0.17510
 N149 N 0.29785 0.23623 -0.17947
 C150 C 0.30148 0.25096 -0.16442
 C151 C 0.28472 0.25063 -0.15002
 C152 C 0.27120 0.23496 -0.15732
 H153 H 0.31509 0.26148 -0.16415
 H154 H 0.25642 0.22991 -0.14999
 H155 H 0.30140 0.20100 -0.19656
 H156 H 0.28636 0.21825 -0.21523
 N157 N 0.68031 0.26311 -0.23445
 N158 N 0.68483 0.28077 -0.24461
 C159 C 0.67121 0.28296 -0.26067
 C160 C 0.65717 0.26584 -0.26042
 C161 C 0.66361 0.25358 -0.24349
 H162 H 0.67109 0.29644 -0.27122
 H163 H 0.65675 0.23881 -0.23799
 Cu164 Cu 0.70704 0.29984 -0.23476
 Cu165 Cu 0.69605 0.25373 -0.21004
 Cu166 Cu 0.73567 0.28723 -0.19215
 N167 N 0.72936 0.31852 -0.22447
 N168 N 0.74019 0.31359 -0.20761
 C169 C 0.75415 0.32924 -0.20356
 C170 C 0.75206 0.34490 -0.21869
 C171 C 0.73617 0.33752 -0.23176
 H172 H 0.76522 0.32905 -0.19069
 H173 H 0.72986 0.34551 -0.24537
 N174 N 0.72873 0.25982 -0.17871
 N175 N 0.71373 0.24699 -0.18563
 C176 C 0.71278 0.22965 -0.17322
 C177 C 0.72786 0.23165 -0.15767
 C178 C 0.73766 0.25101 -0.16167
 H179 H 0.70162 0.21671 -0.17510
 H180 H 0.75042 0.25812 -0.15284
 H181 H 0.70397 0.28407 -0.19986
 H182 H 0.72394 0.26984 -0.21710
 N183 N 0.17399 0.78043 0.27761
 N184 N 0.18187 0.79604 0.26622
 C185 C 0.16971 0.79879 0.24916
 C186 C 0.15333 0.78405 0.24984
 C187 C 0.15662 0.77264 0.26814
 H188 H 0.17260 0.81068 0.23720
 H189 H 0.14678 0.76000 0.27445
 Cu190 Cu 0.20704 0.81161 0.27468
 Cu191 Cu 0.18607 0.77218 0.30442
 Cu192 Cu 0.22518 0.80532 0.32378
 N193 N 0.22709 0.83149 0.28692
 N194 N 0.23377 0.82919 0.30625
 C195 C 0.24781 0.84469 0.31059
 C196 C 0.25027 0.85750 0.29294
 C197 C 0.23669 0.84855 0.27823
 H198 H 0.25600 0.84601 0.32536
 H199 H 0.23407 0.85377 0.26230
 N200 N 0.21460 0.78023 0.33907
 N201 N 0.20029 0.76707 0.33138
 C202 C 0.19740 0.75082 0.34493
 C203 C 0.21043 0.75404 0.36203
 C204 C 0.22107 0.77284 0.35777
 H205 H 0.18658 0.73767 0.34258
 H206 H 0.23316 0.78019 0.36730
 H207 H 0.19531 0.80316 0.31021
 H208 H 0.21643 0.78421 0.30017
 N209 N 0.46980 0.41814 0.47242
 N210 N 0.45018 0.42147 0.47931
 C211 C 0.44570 0.40766 0.49485
 C212 C 0.46354 0.39505 0.49803
 C213 C 0.47858 0.40216 0.48354
 H214 H 0.43078 0.40723 0.50360
 H215 H 0.49460 0.39599 0.48111
 Cu216 Cu 0.43268 0.44436 0.46848
 Cu217 Cu 0.48183 0.43429 0.44896
 Cu218 Cu 0.45395 0.47975 0.43459
 N219 N 0.42008 0.47233 0.46447
 N220 N 0.42830 0.48624 0.45130
 C221 C 0.41651 0.50433 0.45214
 C222 C 0.40011 0.50161 0.46678
 C223 C 0.40293 0.48104 0.47422
 H224 H 0.41989 0.51851 0.44308
 H225 H 0.39329 0.47292 0.48589
 N226 N 0.48028 0.47003 0.41992
 N227 N 0.49095 0.45275 0.42548
 C228 C 0.50747 0.44972 0.41199
 C229 C 0.50725 0.46586 0.39716
 C230 C 0.48979 0.47849 0.40278
 H231 H 0.51861 0.43650 0.41273
 H232 H 0.48399 0.49241 0.39459
 H233 H 0.46578 0.46166 0.45888
 H234 H 0.45396 0.44660 0.43631
 N235 N -0.02726 -0.08348 0.98315
 N236 N -0.04421 -0.07710 0.99392
 C237 C -0.04766 -0.09068 1.00995
 C238 C -0.03202 -0.10644 1.00922
 C239 C -0.01934 -0.10131 0.99197
 H240 H -0.06039 -0.08902 1.02149
 H241 H -0.00544 -0.10993 0.98616
 Cu242 Cu -0.05965 -0.05131 0.98620
 Cu243 Cu -0.01676 -0.06823 0.95847
 Cu244 Cu -0.04395 -0.02187 0.94488
 N245 N -0.07513 -0.02564 0.97821
 N246 N -0.06844 -0.01375 0.96249
 C247 C -0.08171 0.00313 0.96050
 C248 C -0.09769 0.00159 0.97564
 C249 C -0.09301 -0.01686 0.98659
 H250 H -0.08024 0.01524 0.94851
 H251 H -0.10197 -0.02335 0.99970
 N252 N -0.01889 -0.03286 0.92901
 N253 N -0.00865 -0.05057 0.93408
 C254 C 0.00715 -0.05416 0.91989
 C255 C 0.00688 -0.03798 0.90512
 C256 C -0.00986 -0.02475 0.91148
 H257 H 0.01802 -0.06763 0.92028
 H258 H -0.01537 -0.01050 0.90367
 H259 H -0.02788 -0.03847 0.96781
 H260 H -0.04556 -0.05437 0.95040
 N261 N 1.02004 0.57714 0.97407
 N262 N 1.03845 0.57265 0.98266
 C263 C 1.04145 0.58604 0.99902
 C264 C 1.02392 0.59964 1.00078
 C265 C 1.01070 0.59347 0.98460
 H266 H 1.05523 0.58563 1.00903
 H267 H 0.99544 0.60037 0.98065
 Cu268 Cu 1.05655 0.54953 0.97192
 Cu269 Cu 1.00948 0.56153 0.94994
 Cu270 Cu 1.03636 0.51507 0.93629
 N271 N 1.06950 0.52169 0.96636
 N272 N 1.06097 0.50785 0.95336
 C273 C 1.07271 0.48973 0.95325
 C274 C 1.08965 0.49251 0.96668
 C275 C 1.08716 0.51299 0.97469
 H276 H 1.06955 0.47579 0.94367
 H277 H 1.09725 0.52084 0.98598
 N278 N 1.01128 0.52558 0.92090
 N279 N 1.00130 0.54354 0.92602
 C280 C 0.98565 0.54715 0.91223
 C281 C 0.98569 0.53068 0.89761
 C282 C 1.00215 0.51722 0.90366
 H283 H 0.97503 0.56083 0.91278
 H284 H 1.00748 0.50276 0.89575
 H285 H 1.02367 0.53342 0.96040
 H286 H 1.03797 0.54787 0.93861
 N287 N 0.52992 0.08070 0.47532
 N288 N 0.54567 0.07425 0.48716
 C289 C 0.54807 0.08831 0.50308
 C290 C 0.53310 0.10451 0.50095
 C291 C 0.52189 0.09915 0.48313
 H292 H 0.56002 0.08710 0.51511
 H293 H 0.50864 0.10785 0.47653
 Cu294 Cu 0.56189 0.04849 0.48018
 Cu295 Cu 0.52060 0.06447 0.45104
 Cu296 Cu 0.54836 0.01785 0.43854
 N297 N 0.57846 0.02341 0.47177
 N298 N 0.57264 0.01089 0.45621
 C299 C 0.58691 -0.00524 0.45407
 C300 C 0.60265 -0.00240 0.46884
 C301 C 0.59680 0.01593 0.47975
 H302 H 0.58638 -0.01759 0.44211
 H303 H 0.60535 0.02325 0.49253
 N304 N 0.52346 0.02798 0.42253
 N305 N 0.51331 0.04600 0.42713
 C306 C 0.49788 0.04921 0.41302
 C307 C 0.49823 0.03248 0.39871
 C308 C 0.51464 0.01923 0.40529
 H309 H 0.48708 0.06274 0.41319
 H310 H 0.52008 0.00460 0.39776
 H311 H 0.53133 0.03481 0.46105
 H312 H 0.55001 0.05029 0.44388
 N313 N -0.02143 0.07974 0.52180
 N314 N -0.04036 0.07732 0.51356
 C315 C -0.04220 0.09064 0.49707
 C316 C -0.02334 0.10198 0.49486
 C317 C -0.01058 0.09457 0.51089
 H318 H -0.05619 0.09188 0.48741
 H319 H 0.00528 0.09988 0.51467
 Cu320 Cu -0.06083 0.05712 0.52528
 Cu321 Cu -0.01251 0.06423 0.54654
 Cu322 Cu -0.04459 0.02281 0.56296
 N323 N -0.07694 0.03162 0.53253
 N324 N -0.07010 0.01782 0.54648
 C325 C -0.08393 0.00148 0.54774
 C326 C -0.10044 0.00536 0.53403
 C327 C -0.09551 0.02466 0.52467
 H328 H -0.08237 -0.01200 0.55820
 H329 H -0.10456 0.03283 0.51276
 N330 N -0.01819 0.03081 0.57755
 N331 N -0.00614 0.04682 0.57128
 C332 C 0.00999 0.04926 0.58476
 C333 C 0.00810 0.03407 0.60040
 C334 C -0.00994 0.02256 0.59525
 H335 H 0.02214 0.06135 0.58339
 H336 H -0.01693 0.00961 0.60413
 H337 H -0.03007 0.03751 0.53777
 H338 H -0.04230 0.05528 0.55864
 N339 N 0.47231 0.57581 0.02070
 N340 N 0.45538 0.57149 0.00955
 C341 C 0.45388 0.58583 -0.00612
 C342 C 0.47072 0.59996 -0.00460
 C343 C 0.48205 0.59309 0.01265
 H344 H 0.44135 0.58616 -0.01762
 H345 H 0.49650 0.59996 0.01873
 Cu346 Cu 0.43699 0.54760 0.01685
 Cu347 Cu 0.48083 0.55850 0.04456
 Cu348 Cu 0.44951 0.51460 0.05652
 N349 N 0.41888 0.52361 0.02446
 N350 N 0.42454 0.51009 0.03917
 C351 C 0.40985 0.49454 0.04065
 C352 C 0.39398 0.49874 0.02635
 C353 C 0.40016 0.51734 0.01638
 H354 H 0.41034 0.48148 0.05171
 H355 H 0.39176 0.52544 0.00398
 N356 N 0.47528 0.52210 0.07235
 N357 N 0.48692 0.53905 0.06803
 C358 C 0.50270 0.54046 0.08211
 C359 C 0.50095 0.52360 0.09604
 C360 C 0.48339 0.51226 0.08930
 H361 H 0.51459 0.55286 0.08220
 H362 H 0.47666 0.49820 0.09654
 H363 H 0.46718 0.53053 0.03398
 H364 H 0.45075 0.54729 0.05253
 N365 N 0.52781 -0.06999 0.01922
 N366 N 0.54575 -0.06499 0.00957
 C367 C 0.54927 -0.07873 -0.00650
 C368 C 0.53261 -0.09321 -0.00702
 C369 C 0.51931 -0.08710 0.00964
 H370 H 0.56280 -0.07790 -0.01718
 H371 H 0.50444 -0.09437 0.01440
 Cu372 Cu 0.56271 -0.04068 0.01824
 Cu373 Cu 0.51650 -0.05354 0.04304
 Cu374 Cu 0.54068 -0.00504 0.05210
 N375 N 0.57404 -0.01204 0.02149
 N376 N 0.56456 0.00222 0.03376
 C377 C 0.57556 0.02059 0.03302
 C378 C 0.59302 0.01760 0.01980
 C379 C 0.59162 -0.00332 0.01276
 H380 H 0.57184 0.03471 0.04231
 H381 H 0.60265 -0.01161 0.00226
 N382 N 0.51659 -0.01538 0.06920
 N383 N 0.50763 -0.03413 0.06614
 C384 C 0.49266 -0.03720 0.08123
 C385 C 0.49220 -0.01949 0.09446
 C386 C 0.50761 -0.00602 0.08628
 H387 H 0.48296 -0.05136 0.08256
 H388 H 0.51250 0.00917 0.09271
 H389 H 0.52862 -0.02613 0.02990
 H390 H 0.54407 -0.03819 0.05203
 N391 N 1.02765 0.42136 0.52664
 N392 N 1.04418 0.42620 0.51468
 C393 C 1.04625 0.41143 0.49926
 C394 C 1.03008 0.39659 0.50164
 C395 C 1.01861 0.40345 0.51922
 H396 H 1.05832 0.41171 0.48695
 H397 H 1.00471 0.39599 0.52616
 Cu398 Cu 1.06082 0.45173 0.52019
 Cu399 Cu 1.01882 0.43871 0.55075
 Cu400 Cu 1.04833 0.48417 0.56099
 N401 N 1.07761 0.47698 0.52638
 N402 N 1.07239 0.48977 0.54214
 C403 C 1.08635 0.50599 0.54286
 C404 C 1.10122 0.50321 0.52674
 C405 C 1.09517 0.48459 0.51661
 H406 H 1.08593 0.51863 0.55454
 H407 H 1.10289 0.47724 0.50306
 N408 N 1.02346 0.47565 0.57824
 N409 N 1.01237 0.45825 0.57440
 C410 C 0.99668 0.45660 0.58895
 C411 C 0.99788 0.47379 0.60267
 C412 C 1.01506 0.48557 0.59536
 H413 H 0.98508 0.44392 0.58939
 H414 H 1.02116 0.50013 0.60214
 H415 H 1.03058 0.46734 0.53953
 H416 H 1.04856 0.45143 0.55671
 C417 C 0.37736 -0.00111 0.25165
 C418 C 0.12260 0.00096 0.75255
 C419 C 0.62348 0.50186 0.24385
 C420 C 0.86827 0.49798 0.74764
 C421 C 0.24538 0.37642 -0.00539
 C422 C 0.75324 0.12740 0.00266
 C423 C 0.25147 0.62607 0.50125
 C424 C 0.75457 0.87773 0.50167
 C425 C 0.00429 0.25201 0.37346
 C426 C 0.00601 0.74578 0.13015
 C427 C 0.50355 0.25399 0.62443
 C428 C 0.49601 0.75318 0.87757
 C429 C 0.12753 0.20046 0.27613
 C430 C 0.11049 0.20256 0.29044
 C431 C 0.09943 0.22195 0.29250
 C432 C 0.10551 0.23934 0.27990
 C433 C 0.12249 0.23724 0.26547
 C434 C 0.13376 0.21779 0.26349
 N435 N 0.08228 0.22362 0.30760
 N436 N 0.07242 0.24116 0.31113
 C437 C 0.05537 0.24301 0.32630
 C438 C 0.04652 0.26316 0.33040
 C439 C 0.03027 0.26570 0.34545
 C440 C 0.02264 0.24815 0.35722
 C441 C 0.03091 0.22766 0.35207
 C442 C 0.04731 0.22519 0.33705
 H443 H 0.13564 0.18517 0.27488
 H444 H 0.10593 0.18903 0.30003
 H445 H 0.09720 0.25453 0.28120
 H446 H 0.12692 0.25094 0.25610
 H447 H 0.05234 0.27699 0.32197
 H448 H 0.02375 0.28157 0.34820
 H449 H 0.02463 0.21336 0.35923
 H450 H 0.05353 0.20932 0.33371
 C451 C 0.61096 0.74055 0.76123
 C452 C 0.59248 0.74282 0.77364
 C453 C 0.59249 0.73706 0.79487
 C454 C 0.61125 0.72876 0.80360
 C455 C 0.62970 0.72625 0.79115
 C456 C 0.62977 0.73219 0.76984
 N457 N 0.57332 0.73989 0.80714
 N458 N 0.57268 0.73723 0.82698
 C459 C 0.55336 0.74021 0.83902
 C460 C 0.55424 0.74059 0.86096
 C461 C 0.53581 0.74452 0.87306
 C462 C 0.51597 0.74852 0.86349
 C463 C 0.51510 0.74651 0.84133
 C464 C 0.53359 0.74283 0.82928
 H465 H 0.61039 0.74507 0.74485
 H466 H 0.57811 0.74921 0.76673
 H467 H 0.61164 0.72416 0.81999
 H468 H 0.64395 0.71991 0.79830
 H469 H 0.56933 0.73818 0.86871
 H470 H 0.53709 0.74495 0.89003
 H471 H 0.50024 0.74757 0.83302
 H472 H 0.53238 0.74188 0.81233
 C473 C 0.36681 0.75318 0.78139
 C474 C 0.38263 0.74931 0.79615
 C475 C 0.39379 0.76628 0.80510
 C476 C 0.38856 0.78738 0.79953
 C477 C 0.37236 0.79131 0.78510
 C478 C 0.36152 0.77422 0.77572
 N479 N 0.41049 0.76162 0.81954
 N480 N 0.42458 0.77527 0.82436
 C481 C 0.44129 0.77024 0.83867
 C482 C 0.45978 0.78255 0.83847
 C483 C 0.47697 0.77701 0.85111
 C484 C 0.47617 0.75889 0.86432
 C485 C 0.45662 0.74778 0.86571
 C486 C 0.43964 0.75305 0.85266
 H487 H 0.35855 0.73973 0.77457
 H488 H 0.38649 0.73300 0.80038
 H489 H 0.39692 0.80076 0.80636
 H490 H 0.36863 0.80766 0.78095
 H491 H 0.46111 0.79612 0.82804
 H492 H 0.49127 0.78659 0.85021
 H493 H 0.45407 0.73506 0.87684
 H494 H 0.42513 0.74379 0.85363
 C495 C -0.11723 0.25540 0.26818
 C496 C -0.09952 0.25171 0.28068
 C497 C -0.09304 0.26703 0.29522
 C498 C -0.10456 0.28628 0.29726
 C499 C -0.12245 0.29001 0.28482
 C500 C -0.12909 0.27461 0.27001
 N501 N -0.07491 0.26231 0.30782
 N502 N -0.06697 0.27563 0.32065
 C503 C -0.04901 0.26997 0.33320
 C504 C -0.04006 0.28534 0.34637
 C505 C -0.02287 0.28006 0.35918
 C506 C -0.01469 0.25893 0.35965
 C507 C -0.02317 0.24394 0.34537
 C508 C -0.04022 0.24928 0.33255
 H509 H -0.12150 0.24290 0.25726
 H510 H -0.09078 0.23678 0.27905
 H511 H -0.09983 0.29835 0.30851
 H512 H -0.13090 0.30503 0.28687
 H513 H -0.04633 0.30152 0.34660
 H514 H -0.01599 0.29276 0.36837
 H515 H -0.01674 0.22784 0.34449
 H516 H -0.04659 0.23714 0.32224
 C517 C -0.12178 0.69612 0.22096
 C518 C -0.10478 0.69831 0.20667
 C519 C -0.09279 0.71708 0.20625
 C520 C -0.09791 0.73370 0.22045
 C521 C -0.11482 0.73148 0.23485
 C522 C -0.12699 0.71268 0.23523
 N523 N -0.07555 0.71884 0.19132
 N524 N -0.06493 0.73598 0.18922
 C525 C -0.04761 0.73779 0.17440
 C526 C -0.03762 0.75752 0.17203
 C527 C -0.02070 0.75985 0.15772
 C528 C -0.01353 0.74256 0.14499
 C529 C -0.02317 0.72244 0.14827
 C530 C -0.04019 0.72019 0.16253
 H531 H -0.13066 0.68135 0.22094
 H532 H -0.10095 0.68536 0.19584
 H533 H -0.08887 0.74838 0.22044
 H534 H -0.11848 0.74463 0.24546
 H535 H -0.04293 0.77114 0.18136
 H536 H -0.01315 0.77532 0.15646
 H537 H -0.01741 0.70818 0.14032
 H538 H -0.04731 0.70460 0.16451
 C539 C 0.37012 0.20841 0.70813
 C540 C 0.38638 0.21185 0.69331
 C541 C 0.40025 0.22905 0.69549
 C542 C 0.39759 0.24304 0.71269
 C543 C 0.38133 0.23966 0.72760
 C544 C 0.36735 0.22218 0.72566
 N545 N 0.41715 0.23155 0.68032
 N546 N 0.43044 0.24681 0.68120
 C547 C 0.44763 0.24875 0.66624
 C548 C 0.46195 0.26560 0.66833
 C549 C 0.47951 0.26726 0.65467
 C550 C 0.48361 0.25168 0.63890
 C551 C 0.46821 0.23555 0.63608
 C552 C 0.45064 0.23393 0.64977
 H553 H 0.35993 0.19478 0.70571
 H554 H 0.38829 0.20093 0.68011
 H555 H 0.40816 0.25648 0.71472
 H556 H 0.37996 0.25077 0.74064
 H557 H 0.45962 0.27737 0.68073
 H558 H 0.49035 0.28049 0.65673
 H559 H 0.46942 0.22416 0.62327
 H560 H 0.43945 0.22106 0.64747
 C561 C 0.62510 0.24567 0.73071
 C562 C 0.60735 0.24255 0.71809
 C563 C 0.60403 0.25535 0.70052
 C564 C 0.61872 0.27145 0.69558
 C565 C 0.63632 0.27491 0.70840
 C566 C 0.63977 0.26211 0.72626
 N567 N 0.58516 0.25224 0.68855
 N568 N 0.58274 0.26029 0.67040
 C569 C 0.56324 0.25782 0.65924
 C570 C 0.56272 0.26262 0.63783
 C571 C 0.54369 0.26097 0.62679
 C572 C 0.52436 0.25568 0.63719
 C573 C 0.52544 0.24968 0.65857
 C574 C 0.54455 0.25094 0.66946
 H575 H 0.62679 0.23544 0.74423
 H576 H 0.59604 0.23016 0.72209
 H577 H 0.61636 0.28163 0.68209
 H578 H 0.64716 0.28758 0.70413
 H579 H 0.57714 0.26752 0.62965
 H580 H 0.54391 0.26433 0.61010
 H581 H 0.51171 0.24362 0.66703
 H582 H 0.54466 0.24668 0.68594
 C583 C 0.13097 0.79770 0.22029
 C584 C 0.11427 0.79527 0.20616
 C585 C 0.10221 0.77655 0.20604
 C586 C 0.10699 0.76019 0.22030
 C587 C 0.12360 0.76263 0.23451
 C588 C 0.13579 0.78142 0.23467
 N589 N 0.08526 0.77454 0.19132
 N590 N 0.07438 0.75751 0.18979
 C591 C 0.05741 0.75536 0.17512
 C592 C 0.04725 0.73567 0.17332
 C593 C 0.03091 0.73288 0.15892
 C594 C 0.02457 0.74965 0.14552
 C595 C 0.03419 0.76982 0.14835
 C596 C 0.05064 0.77253 0.16271
 H597 H 0.13987 0.81245 0.22008
 H598 H 0.11072 0.80800 0.19525
 H599 H 0.09790 0.74554 0.22050
 H600 H 0.12698 0.74969 0.24521
 H601 H 0.05207 0.72240 0.18308
 H602 H 0.02330 0.71742 0.15798
 H603 H 0.02894 0.78376 0.13986
 H604 H 0.05788 0.78811 0.16427
 C605 C 0.28616 0.12277 0.19509
 C606 C 0.30081 0.10625 0.19855
 C607 C 0.30271 0.09725 0.21853
 C608 C 0.28980 0.10503 0.23516
 C609 C 0.27510 0.12150 0.23172
 C610 C 0.27305 0.13054 0.21162
 N611 N 0.31761 0.08008 0.22141
 N612 N 0.32050 0.07144 0.23924
 C613 C 0.33515 0.05401 0.24190
 C614 C 0.33785 0.04546 0.26194
 C615 C 0.35164 0.02812 0.26493
 C616 C 0.36361 0.01919 0.24799
 C617 C 0.36003 0.02751 0.22768
 C618 C 0.34629 0.04487 0.22475
 H619 H 0.28495 0.12920 0.17939
 H620 H 0.31065 0.10035 0.18559
 H621 H 0.29099 0.09835 0.25078
 H622 H 0.26547 0.12719 0.24489
 H623 H 0.32902 0.05208 0.27526
 H624 H 0.35294 0.02153 0.28058
 H625 H 0.36723 0.02034 0.21377
 H626 H 0.34403 0.05082 0.20898
 C627 C 0.76515 0.62711 0.75111
 C628 C 0.77780 0.60919 0.75541
 C629 C 0.78987 0.59929 0.73939
 C630 C 0.78908 0.60747 0.71888
 C631 C 0.77645 0.62536 0.71455
 C632 C 0.76436 0.63547 0.73062
 N633 N 0.80287 0.58111 0.74434
 N634 N 0.81429 0.57161 0.73039
 C635 C 0.82749 0.55350 0.73500
 C636 C 0.83942 0.54406 0.71869
 C637 C 0.85260 0.52646 0.72249
 C638 C 0.85472 0.51818 0.74302
 C639 C 0.84172 0.52725 0.75915
 C640 C 0.82854 0.54488 0.75529
 H641 H 0.75621 0.63447 0.76394
 H642 H 0.77828 0.60306 0.77129
 H643 H 0.79823 0.60007 0.70618
 H644 H 0.77617 0.63115 0.69856
 H645 H 0.83830 0.55023 0.70285
 H646 H 0.86065 0.51920 0.70908
 H647 H 0.84191 0.52067 0.77486
 H648 H 0.81910 0.55165 0.76812
 C649 C 0.77585 0.37276 0.79671
 C650 C 0.78817 0.39118 0.79482
 C651 C 0.78941 0.40205 0.77570
 C652 C 0.77779 0.39454 0.75846
 C653 C 0.76535 0.37615 0.76036
 C654 C 0.76444 0.36492 0.77945
 N655 N 0.80315 0.42017 0.77409
 N656 N 0.80599 0.43025 0.75696
 C657 C 0.82038 0.44788 0.75545
 C658 C 0.82406 0.45728 0.73588
 C659 C 0.83912 0.47349 0.73366
 C660 C 0.85139 0.48030 0.75090
 C661 C 0.84625 0.47183 0.77090
 C662 C 0.83124 0.45557 0.77307
 H663 H 0.77529 0.36473 0.81173
 H664 H 0.79703 0.39685 0.80822
 H665 H 0.77852 0.40269 0.74350
 H666 H 0.75686 0.37052 0.74673
 H667 H 0.81549 0.45178 0.72223
 H668 H 0.84169 0.48037 0.71824
 H669 H 0.85366 0.47767 0.78503
 H670 H 0.82818 0.44899 0.78852
 C671 C 0.27696 -0.11793 0.30704
 C672 C 0.29131 -0.10118 0.30422
 C673 C 0.29328 -0.09110 0.28476
 C674 C 0.28038 -0.09768 0.26810
 C675 C 0.26594 -0.11439 0.27086
 C676 C 0.26415 -0.12501 0.29033
 N677 N 0.30882 -0.07462 0.28226
 N678 N 0.31216 -0.06543 0.26472
 C679 C 0.32802 -0.04927 0.26219
 C680 C 0.33135 -0.04038 0.24234
 C681 C 0.34714 -0.02507 0.23919
 C682 C 0.36051 -0.01863 0.25576
 C683 C 0.35612 -0.02686 0.27602
 C684 C 0.34033 -0.04223 0.27911
 H685 H 0.27618 -0.12526 0.32237
 H686 H 0.30114 -0.09619 0.31720
 H687 H 0.28159 -0.09005 0.25289
 H688 H 0.25650 -0.11903 0.25752
 H689 H 0.32171 -0.04540 0.22923
 H690 H 0.34916 -0.01836 0.22364
 H691 H 0.36452 -0.02131 0.28971
 H692 H 0.33765 -0.04848 0.29477
 C693 C 0.21500 -0.12702 0.70507
 C694 C 0.20120 -0.10951 0.70735
 C695 C 0.20251 -0.09595 0.72479
 C696 C 0.21816 -0.09982 0.73989
 C697 C 0.23220 -0.11721 0.73756
 C698 C 0.23072 -0.13128 0.72020
 N699 N 0.18759 -0.07859 0.72678
 N700 N 0.18611 -0.06687 0.74318
 C701 C 0.17084 -0.04975 0.74482
 C702 C 0.16790 -0.03919 0.76407
 C703 C 0.15249 -0.02304 0.76631
 C704 C 0.13927 -0.01726 0.74940
 C705 C 0.14344 -0.02713 0.72967
 C706 C 0.15871 -0.04340 0.72753
 H707 H 0.21322 -0.13702 0.69131
 H708 H 0.18925 -0.10663 0.69555
 H709 H 0.21952 -0.08945 0.75350
 H710 H 0.24390 -0.11968 0.74964
 H711 H 0.17741 -0.04365 0.77745
 H712 H 0.15059 -0.01520 0.78146
 H713 H 0.13525 -0.02228 0.71564
 H714 H 0.16114 -0.05089 0.71228
 C715 C 0.73440 0.37970 0.24801
 C716 C 0.72090 0.39725 0.25177
 C717 C 0.70655 0.40394 0.23646
 C718 C 0.70577 0.39275 0.21725
 C719 C 0.71916 0.37511 0.21351
 C720 C 0.73366 0.36839 0.22884
 N721 N 0.69292 0.42196 0.24086
 N722 N 0.68042 0.42961 0.22716
 C723 C 0.66658 0.44748 0.23150
 C724 C 0.65434 0.45576 0.21525
 C725 C 0.64054 0.47307 0.21887
 C726 C 0.63802 0.48216 0.23920
 C727 C 0.65125 0.47421 0.25524
 C728 C 0.66514 0.45696 0.25154
 H729 H 0.74519 0.37487 0.26026
 H730 H 0.72162 0.40568 0.26667
 H731 H 0.69479 0.39760 0.20515
 H732 H 0.71826 0.36692 0.19852
 H733 H 0.65572 0.44892 0.19959
 H734 H 0.63231 0.47943 0.20545
 H735 H 0.65065 0.48134 0.27081
 H736 H 0.67472 0.45108 0.26433
 C737 C 0.71538 0.62561 0.29860
 C738 C 0.70130 0.60865 0.29560
 C739 C 0.70087 0.59774 0.27635
 C740 C 0.71474 0.60399 0.25999
 C741 C 0.72888 0.62090 0.26297
 C742 C 0.72939 0.63191 0.28233
 N743 N 0.68621 0.58047 0.27384
 N744 N 0.68455 0.57022 0.25659
 C745 C 0.66978 0.55303 0.25414
 C746 C 0.66780 0.54336 0.23441
 C747 C 0.65309 0.52699 0.23139
 C748 C 0.63950 0.52017 0.24796
 C749 C 0.64268 0.52918 0.26813
 C750 C 0.65734 0.54562 0.27108
 H751 H 0.71540 0.63355 0.31376
 H752 H 0.69070 0.60398 0.30834
 H753 H 0.71467 0.59584 0.24492
 H754 H 0.73925 0.62540 0.25001
 H755 H 0.67760 0.54863 0.22129
 H756 H 0.65198 0.51981 0.21590
 H757 H 0.63418 0.52351 0.28188
 H758 H 0.65905 0.55241 0.28667
 C759 C 0.23067 0.12441 0.74849
 C760 C 0.21710 0.10736 0.74411
 C761 C 0.20237 0.10037 0.75926
 C762 C 0.20105 0.11094 0.77882
 C763 C 0.21452 0.12807 0.78318
 C764 C 0.22964 0.13488 0.76814
 N765 N 0.18919 0.08238 0.75456
 N766 N 0.17658 0.07447 0.76827
 C767 C 0.16336 0.05642 0.76401
 C768 C 0.15074 0.04828 0.78030
 C769 C 0.13768 0.03066 0.77693
 C770 C 0.13632 0.02104 0.75678
 C771 C 0.14998 0.02884 0.74071
 C772 C 0.16310 0.04647 0.74417
 H773 H 0.24193 0.12937 0.73645
 H774 H 0.21822 0.09941 0.72895
 H775 H 0.18975 0.10588 0.79080
 H776 H 0.21336 0.13564 0.79851
 H777 H 0.15126 0.05547 0.79583
 H778 H 0.12912 0.02447 0.79041
 H779 H 0.15030 0.02129 0.72533
 H780 H 0.17307 0.05223 0.73139
 C781 C 0.21992 0.25481 0.09986
 C782 C 0.22212 0.26795 0.08225
 C783 C 0.22149 0.29021 0.08450
 C784 C 0.21787 0.29927 0.10454
 C785 C 0.21496 0.28612 0.12207
 C786 C 0.21627 0.26379 0.11990
 N787 N 0.22468 0.30329 0.06633
 N788 N 0.23245 0.32198 0.06775
 C789 C 0.23540 0.33533 0.04974
 C790 C 0.25121 0.35091 0.05008
 C791 C 0.25485 0.36394 0.03264
 C792 C 0.24192 0.36251 0.01460
 C793 C 0.22597 0.34657 0.01458
 C794 C 0.22286 0.33309 0.03181
 H795 H 0.22083 0.23762 0.09781
 H796 H 0.22482 0.26079 0.06688
 H797 H 0.21714 0.31646 0.10657
 H798 H 0.21221 0.29339 0.13739
 H799 H 0.26118 0.35256 0.06375
 H800 H 0.26809 0.37477 0.03359
 H801 H 0.21584 0.34458 0.00107
 H802 H 0.21048 0.32112 0.03124
 C803 C 0.73161 0.75892 0.61156
 C804 C 0.73567 0.77127 0.59369
 C805 C 0.73282 0.79347 0.59438
 C806 C 0.72540 0.80323 0.61310
 C807 C 0.72083 0.79084 0.63083
 C808 C 0.72406 0.76858 0.63027
 N809 N 0.73727 0.80569 0.57586
 N810 N 0.74042 0.82576 0.57662
 C811 C 0.74423 0.83808 0.55802
 C812 C 0.75310 0.85837 0.55989
 C813 C 0.75687 0.87090 0.54209
 C814 C 0.75166 0.86355 0.52169
 C815 C 0.74195 0.84315 0.52031
 C816 C 0.73867 0.83050 0.53809
 H817 H 0.73407 0.74178 0.61065
 H818 H 0.74128 0.76356 0.57933
 H819 H 0.72292 0.82036 0.61393
 H820 H 0.71513 0.79869 0.64509
 H821 H 0.75720 0.86452 0.57526
 H822 H 0.76370 0.88636 0.54481
 H823 H 0.73634 0.83702 0.50545
 H824 H 0.73125 0.81503 0.53631
 C825 C 0.80512 0.77141 0.38602
 C826 C 0.80309 0.78526 0.40330
 C827 C 0.78300 0.79303 0.40966
 C828 C 0.76480 0.78635 0.39884
 C829 C 0.76676 0.77208 0.38189
 C830 C 0.78696 0.76465 0.37520
 N831 N 0.78145 0.80762 0.42708
 N832 N 0.76521 0.81968 0.42988
 C833 C 0.76317 0.83402 0.44744
 C834 C 0.74838 0.85073 0.44656
 C835 C 0.74583 0.86503 0.46338
 C836 C 0.75788 0.86285 0.48197
 C837 C 0.77239 0.84538 0.48271
 C838 C 0.77525 0.83141 0.46563
 H839 H 0.82085 0.76577 0.38129
 H840 H 0.81722 0.79023 0.41156
 H841 H 0.74910 0.79203 0.40359
 H842 H 0.75253 0.76718 0.37376
 H843 H 0.73882 0.85277 0.43265
 H844 H 0.73405 0.87748 0.46150
 H845 H 0.78162 0.84255 0.49671
 H846 H 0.78656 0.81834 0.46681
 C847 C 0.29943 0.27253 -0.12054
 C848 C 0.29655 0.28570 -0.10285
 C849 C 0.27601 0.29129 -0.09577
 C850 C 0.25825 0.28307 -0.10628
 C851 C 0.26111 0.26954 -0.12370
 C852 C 0.28173 0.26434 -0.13115
 N853 N 0.27355 0.30560 -0.07820
 N854 N 0.25597 0.31522 -0.07427
 C855 C 0.25323 0.32966 -0.05686
 C856 C 0.23604 0.34394 -0.05685
 C857 C 0.23334 0.35897 -0.04069
 C858 C 0.24793 0.36017 -0.02393
 C859 C 0.26429 0.34447 -0.02339
 C860 C 0.26725 0.32979 -0.03988
 H861 H 0.31550 0.26862 -0.12581
 H862 H 0.31036 0.29190 -0.09486
 H863 H 0.24220 0.28708 -0.10103
 H864 H 0.24718 0.26355 -0.13163
 H865 H 0.22480 0.34360 -0.06962
 H866 H 0.21951 0.36929 -0.04149
 H867 H 0.27521 0.34404 -0.01035
 H868 H 0.28038 0.31848 -0.03929
 C869 C 0.72465 0.19554 -0.14096
 C870 C 0.72801 0.18169 -0.12413
 C871 C 0.73866 0.18875 -0.10624
 C872 C 0.74631 0.20980 -0.10548
 C873 C 0.74306 0.22363 -0.12231
 C874 C 0.73202 0.21672 -0.14017
 N875 N 0.74092 0.17453 -0.08883
 N876 N 0.74923 0.18061 -0.07169
 C877 C 0.75109 0.16688 -0.05388
 C878 C 0.75872 0.17542 -0.03514
 C879 C 0.75961 0.16294 -0.01707
 C880 C 0.75225 0.14162 -0.01713
 C881 C 0.74626 0.13270 -0.03663
 C882 C 0.74522 0.14529 -0.05468
 H883 H 0.71630 0.18960 -0.15454
 H884 H 0.72205 0.16550 -0.12491
 H885 H 0.75459 0.21565 -0.09180
 H886 H 0.74883 0.23984 -0.12108
 H887 H 0.76387 0.19190 -0.03451
 H888 H 0.76623 0.17012 -0.00313
 H889 H 0.74192 0.11601 -0.03775
 H890 H 0.73980 0.13816 -0.06920
 C891 C 0.22090 0.74868 0.39942
 C892 C 0.22457 0.73546 0.41663
 C893 C 0.22095 0.71348 0.41518
 C894 C 0.21298 0.70484 0.39643
 C895 C 0.20904 0.71811 0.37926
 C896 C 0.21327 0.74012 0.38051
 N897 N 0.22604 0.70032 0.43276
 N898 N 0.22583 0.68000 0.43176
 C899 C 0.23139 0.66709 0.44940
 C900 C 0.23364 0.64503 0.44664
 C901 C 0.24003 0.63217 0.46331
 C902 C 0.24470 0.64110 0.48320
 C903 C 0.24109 0.66328 0.48606
 C904 C 0.23488 0.67612 0.46930
 H905 H 0.22405 0.76561 0.40096
 H906 H 0.23064 0.74229 0.43103
 H907 H 0.21000 0.68788 0.39498
 H908 H 0.20326 0.71105 0.36486
 H909 H 0.23068 0.63781 0.43144
 H910 H 0.24170 0.61512 0.46063
 H911 H 0.24270 0.67094 0.50121
 H912 H 0.23268 0.69311 0.47196
 C913 C 0.25271 0.71843 0.63379
 C914 C 0.24886 0.70402 0.61744
 C915 C 0.26586 0.69482 0.60602
 C916 C 0.28691 0.69964 0.61158
 C917 C 0.29079 0.71361 0.62835
 C918 C 0.27370 0.72335 0.63939
 N919 N 0.26126 0.68092 0.58874
 N920 N 0.27474 0.67706 0.57401
 C921 C 0.26969 0.66320 0.55681
 C922 C 0.28064 0.66540 0.53767
 C923 C 0.27478 0.65330 0.52016
 C924 C 0.25773 0.63863 0.52134
 C925 C 0.24819 0.63522 0.54133
 C926 C 0.25370 0.64774 0.55867
 H927 H 0.23928 0.72558 0.64219
 H928 H 0.23258 0.70036 0.61332
 H929 H 0.30028 0.69257 0.60302
 H930 H 0.30711 0.71723 0.63236
 H931 H 0.29331 0.67700 0.53613
 H932 H 0.28322 0.65578 0.50540
 H933 H 0.23648 0.62291 0.54392
 H934 H 0.24558 0.64523 0.57359
 C935 C 0.78597 0.20291 0.14241
 C936 C 0.78348 0.18851 0.12579
 C937 C 0.76901 0.19282 0.10986
 C938 C 0.75669 0.21168 0.11087
 C939 C 0.75921 0.22618 0.12749
 C940 C 0.77407 0.22209 0.14337
 N941 N 0.76774 0.17817 0.09254
 N942 N 0.75462 0.18074 0.07768
 C943 C 0.75400 0.16648 0.06000
 C944 C 0.73892 0.17009 0.04447
 C945 C 0.73866 0.15728 0.02645
 C946 C 0.75402 0.14091 0.02309
 C947 C 0.76822 0.13646 0.03958
 C948 C 0.76841 0.14930 0.05767
 H949 H 0.79737 0.19892 0.15439
 H950 H 0.79303 0.17402 0.12520
 H951 H 0.74539 0.21538 0.09867
 H952 H 0.74977 0.24073 0.12763
 H953 H 0.72745 0.18303 0.04626
 H954 H 0.72671 0.16050 0.01474
 H955 H 0.77916 0.12304 0.03872
 H956 H 0.77990 0.14584 0.06976
 C957 C 0.44811 0.36616 0.52043
 C958 C 0.45028 0.35005 0.53540
 C959 C 0.47011 0.34587 0.54433
 C960 C 0.48797 0.35775 0.53784
 C961 C 0.48591 0.37356 0.52252
 C962 C 0.46593 0.37799 0.51379
 N963 N 0.47188 0.32909 0.55942
 N964 N 0.48780 0.32757 0.57152
 C965 C 0.49020 0.31016 0.58582
 C966 C 0.50602 0.31119 0.60101
 C967 C 0.50993 0.29379 0.61411
 C968 C 0.49880 0.27437 0.61151
 C969 C 0.48167 0.27424 0.59729
 C970 C 0.47758 0.29178 0.58443
 H971 H 0.43256 0.36913 0.51381
 H972 H 0.43645 0.34089 0.54016
 H973 H 0.50351 0.35463 0.54441
 H974 H 0.49986 0.38253 0.51776
 H975 H 0.51541 0.32556 0.60267
 H976 H 0.52174 0.29578 0.62613
 H977 H 0.47196 0.26011 0.59558
 H978 H 0.46497 0.29073 0.57303
 C979 C -0.04616 0.86924 0.03734
 C980 C -0.04353 0.85234 0.05136
 C981 C -0.02406 0.84140 0.05236
 C982 C -0.00714 0.84743 0.03896
 C983 C -0.00977 0.86428 0.02484
 C984 C -0.02929 0.87545 0.02392
 N985 N -0.02188 0.82440 0.06718
 N986 N -0.00438 0.81434 0.06964
 C987 C -0.00238 0.79741 0.08458
 C988 C 0.01748 0.78762 0.08719
 C989 C 0.01997 0.77126 0.10184
 C990 C 0.00272 0.76458 0.11472
 C991 C -0.01752 0.77389 0.11109
 C992 C -0.01994 0.79029 0.09648
 H993 H -0.06148 0.87729 0.03693
 H994 H -0.05670 0.84780 0.06157
 H995 H 0.00809 0.83920 0.03943
 H996 H 0.00361 0.86869 0.01487
 H997 H 0.03108 0.79268 0.07783
 H998 H 0.03554 0.76384 0.10330
 H999 H -0.03174 0.76838 0.11911
 H1000 H -0.03563 0.79723 0.09434
 C1001 C -0.00045 0.62630 0.01871
 C1002 C -0.00417 0.64282 0.03322
 C1003 C 0.01233 0.65035 0.04572
 C1004 C 0.03274 0.64105 0.04367
 C1005 C 0.03650 0.62449 0.02918
 C1006 C 0.01996 0.61697 0.01645
 N1007 N 0.00796 0.66751 0.06021
 N1008 N 0.02229 0.67532 0.07188
 C1009 C 0.01795 0.69255 0.08629
 C1010 C 0.03453 0.70035 0.09849
 C1011 C 0.03098 0.71719 0.11265
 C1012 C 0.01040 0.72633 0.11546
 C1013 C -0.00597 0.71889 0.10230
 C1014 C -0.00235 0.70203 0.08814
 H1015 H -0.01367 0.62084 0.00940
 H1016 H -0.01998 0.64982 0.03470
 H1017 H 0.04579 0.64663 0.05318
 H1018 H 0.05243 0.61781 0.02781
 H1019 H 0.05039 0.69352 0.09680
 H1020 H 0.04464 0.72323 0.12090
 H1021 H -0.02169 0.72616 0.10311
 H1022 H -0.01538 0.69656 0.07856
 C1023 C 0.52057 0.14220 0.50644
 C1024 C 0.51728 0.16015 0.51927
 C1025 C 0.52275 0.15965 0.54050
 C1026 C 0.53195 0.14102 0.54879
 C1027 C 0.53558 0.12313 0.53587
 C1028 C 0.52977 0.12351 0.51460
 N1029 N 0.51887 0.17830 0.55317
 N1030 N 0.52022 0.17819 0.57313
 C1031 C 0.51642 0.19715 0.58540
 C1032 C 0.51410 0.19555 0.60722
 C1033 C 0.50985 0.21376 0.61947
 C1034 C 0.50752 0.23411 0.61016
 C1035 C 0.51125 0.23560 0.58822
 C1036 C 0.51519 0.21734 0.57599
 H1037 H 0.51614 0.14306 0.49006
 H1038 H 0.51027 0.17446 0.51270
 H1039 H 0.53641 0.14032 0.56516
 H1040 H 0.54258 0.10891 0.54260
 H1041 H 0.51543 0.18011 0.61474
 H1042 H 0.50817 0.21197 0.63634
 H1043 H 0.51159 0.25080 0.58026
 H1044 H 0.51763 0.21908 0.55919
 C1045 C 0.00324 0.12553 0.47651
 C1046 C 0.00825 0.14198 0.46255
 C1047 C -0.00777 0.15213 0.45118
 C1048 C -0.02901 0.14537 0.45368
 C1049 C -0.03406 0.12886 0.46762
 C1050 C -0.01801 0.11887 0.47937
 N1051 N -0.00211 0.16941 0.43753
 N1052 N -0.01600 0.17966 0.42715
 C1053 C -0.01056 0.19716 0.41369
 C1054 C -0.02685 0.20766 0.40309
 C1055 C -0.02234 0.22500 0.39008
 C1056 C -0.00113 0.23199 0.38676
 C1057 C 0.01507 0.22177 0.39833
 C1058 C 0.01049 0.20439 0.41137
 H1059 H 0.01609 0.11807 0.48502
 H1060 H 0.02468 0.14697 0.46071
 H1061 H -0.04171 0.15296 0.44504
 H1062 H -0.05058 0.12424 0.46945
 H1063 H -0.04322 0.20259 0.40520
 H1064 H -0.03577 0.23314 0.38320
 H1065 H 0.03137 0.22729 0.39720
 H1066 H 0.02335 0.19679 0.41977
 C1067 C 0.48800 0.63542 0.98942
 C1068 C 0.49230 0.65314 0.97683
 C1069 C 0.48447 0.65428 0.95638
 C1070 C 0.47211 0.63741 0.94859
 C1071 C 0.46757 0.61974 0.96128
 C1072 C 0.47549 0.61856 0.98183
 N1073 N 0.48877 0.67301 0.94425
 N1074 N 0.48432 0.67453 0.92484
 C1075 C 0.48816 0.69385 0.91340
 C1076 C 0.48528 0.69413 0.89165
 C1077 C 0.48819 0.71303 0.88032
 C1078 C 0.49307 0.73246 0.89063
 C1079 C 0.49725 0.73153 0.91242
 C1080 C 0.49457 0.71261 0.92364
 H1081 H 0.49416 0.63515 1.00523
 H1082 H 0.50173 0.66611 0.98305
 H1083 H 0.46579 0.63800 0.93285
 H1084 H 0.45801 0.60696 0.95492
 H1085 H 0.48078 0.67967 0.88344
 H1086 H 0.48610 0.71267 0.86344
 H1087 H 0.50294 0.74522 0.92105
 H1088 H 0.49745 0.71271 0.94039
 C1089 C 0.54530 0.88402 0.96247
 C1090 C 0.54234 0.86735 0.94809
 C1091 C 0.52362 0.85535 0.94860
 C1092 C 0.50773 0.86023 0.96372
 C1093 C 0.51064 0.87691 0.97812
 C1094 C 0.52949 0.88903 0.97770
 N1095 N 0.52130 0.83819 0.93380
 N1096 N 0.50485 0.82638 0.93358
 C1097 C 0.50278 0.80904 0.91894
 C1098 C 0.48482 0.79601 0.92028
 C1099 C 0.48278 0.77844 0.90681
 C1100 C 0.49896 0.77307 0.89193
 C1101 C 0.51637 0.78722 0.88988
 C1102 C 0.51839 0.80475 0.90341
 H1103 H 0.56006 0.89283 0.96162
 H1104 H 0.55473 0.86371 0.93654
 H1105 H 0.49310 0.85116 0.96444
 H1106 H 0.49804 0.88024 0.98949
 H1107 H 0.47246 0.79936 0.93195
 H1108 H 0.46869 0.76860 0.90831
 H1109 H 0.52845 0.78513 0.87774
 H1110 H 0.53215 0.81498 0.90167
 C1111 C 0.00545 0.36812 0.48866
 C1112 C 0.00105 0.35081 0.47546
 C1113 C 0.01667 0.34286 0.46151
 C1114 C 0.03691 0.35239 0.46094
 C1115 C 0.04130 0.36978 0.47405
 C1116 C 0.02559 0.37790 0.48802
 N1117 N 0.01142 0.32555 0.44773
 N1118 N 0.02517 0.31714 0.43523
 C1119 C 0.01995 0.30030 0.42090
 C1120 C 0.03602 0.29179 0.40789
 C1121 C 0.03137 0.27617 0.39290
 C1122 C 0.01020 0.26915 0.39004
 C1123 C -0.00559 0.27680 0.40436
 C1124 C -0.00088 0.29243 0.41936
 H1125 H -0.00710 0.37405 0.49905
 H1126 H -0.01463 0.34366 0.47598
 H1127 H 0.04926 0.34654 0.45026
 H1128 H 0.05703 0.37676 0.47327
 H1129 H 0.05227 0.29733 0.40934
 H1130 H 0.04458 0.26962 0.38379
 H1131 H -0.02179 0.27101 0.40353
 H1132 H -0.01354 0.29846 0.42957
 C1133 C 0.37127 0.51388 0.49188
 C1134 C 0.35493 0.52806 0.49776
 C1135 C 0.35019 0.54571 0.48526
 C1136 C 0.36229 0.54930 0.46683
 C1137 C 0.37873 0.53514 0.46094
 C1138 C 0.38326 0.51713 0.47330
 N1139 N 0.33264 0.55927 0.49131
 N1140 N 0.32690 0.57522 0.48037
 C1141 C 0.30891 0.58829 0.48623
 C1142 C 0.30294 0.60499 0.47305
 C1143 C 0.28481 0.61735 0.47766
 C1144 C 0.27175 0.61288 0.49543
 C1145 C 0.27882 0.59686 0.50933
 C1146 C 0.29693 0.58450 0.50465
 H1147 H 0.37446 0.50040 0.50196
 H1148 H 0.34574 0.52517 0.51202
 H1149 H 0.35891 0.56286 0.45689
 H1150 H 0.38756 0.53809 0.44651
 H1151 H 0.31237 0.60841 0.45907
 H1152 H 0.28138 0.63050 0.46728
 H1153 H 0.26990 0.59361 0.52368
 H1154 H 0.30146 0.57191 0.51535
 C1155 C 0.86458 0.00801 -0.01262
 C1156 C 0.84687 0.02144 -0.00982
 C1157 C 0.84809 0.04310 -0.01498
 C1158 C 0.86725 0.05125 -0.02331
 C1159 C 0.88490 0.03772 -0.02651
 C1160 C 0.88374 0.01599 -0.02109
 N1161 N 0.82954 0.05626 -0.01189
 N1162 N 0.83009 0.07659 -0.01227
 C1163 C 0.81100 0.08908 -0.00942
 C1164 C 0.81243 0.11075 -0.00421
 C1165 C 0.79393 0.12290 -0.00036
 C1166 C 0.77351 0.11353 -0.00128
 C1167 C 0.77238 0.09211 -0.00841
 C1168 C 0.79083 0.07993 -0.01187
 H1169 H 0.86314 -0.00870 -0.00853
 H1170 H 0.83215 0.01498 -0.00350
 H1171 H 0.86848 0.06794 -0.02752
 H1172 H 0.89950 0.04429 -0.03298
 H1173 H 0.82790 0.11817 -0.00281
 H1174 H 0.79556 0.13965 0.00366
 H1175 H 0.75730 0.08458 -0.01158
 H1176 H 0.78932 0.06341 -0.01676
 C1177 C 0.60616 0.05494 0.01546
 C1178 C 0.62280 0.06950 0.01284
 C1179 C 0.64393 0.06226 0.01137
 C1180 C 0.64825 0.04018 0.01169
 C1181 C 0.63159 0.02559 0.01373
 C1182 C 0.61044 0.03287 0.01596
 N1183 N 0.66076 0.07750 0.00961
 N1184 N 0.67969 0.07284 0.01500
 C1185 C 0.69699 0.08747 0.01269
 C1186 C 0.71593 0.08331 0.02321
 C1187 C 0.73351 0.09659 0.02043
 C1188 C 0.73304 0.11365 0.00596
 C1189 C 0.71328 0.11863 -0.00333
 C1190 C 0.69554 0.10555 -0.00018
 H1191 H 0.58995 0.06091 0.01703
 H1192 H 0.61928 0.08647 0.01249
 H1193 H 0.66448 0.03425 0.01034
 H1194 H 0.63529 0.00866 0.01420
 H1195 H 0.71708 0.06970 0.03360
 H1196 H 0.74788 0.09309 0.02905
 H1197 H 0.71134 0.13264 -0.01301
 H1198 H 0.68081 0.10938 -0.00806
 C1199 C 0.13705 0.50889 0.50965
 C1200 C 0.15477 0.52169 0.50539
 C1201 C 0.15549 0.54271 0.51294
 C1202 C 0.13820 0.55091 0.52484
 C1203 C 0.12054 0.53809 0.52925
 C1204 C 0.11978 0.51692 0.52175
 N1205 N 0.17411 0.55519 0.50870
 N1206 N 0.17531 0.57481 0.51394
 C1207 C 0.19418 0.58707 0.51015
 C1208 C 0.19394 0.60889 0.51490
 C1209 C 0.21226 0.62114 0.51188
 C1210 C 0.23166 0.61171 0.50481
 C1211 C 0.23128 0.58985 0.49897
 C1212 C 0.21289 0.57767 0.50187
 H1213 H 0.13709 0.49262 0.50379
 H1214 H 0.16804 0.51517 0.49626
 H1215 H 0.13840 0.56713 0.53088
 H1216 H 0.10744 0.54485 0.53844
 H1217 H 0.17948 0.61645 0.52093
 H1218 H 0.21144 0.63809 0.51541
 H1219 H 0.24492 0.58197 0.49171
 H1220 H 0.21332 0.56090 0.49755
 C1221 C 0.10273 0.45512 -0.02784
 C1222 C 0.11912 0.44057 -0.02347
 C1223 C 0.14002 0.44771 -0.02081
 C1224 C 0.14432 0.46969 -0.02197
 C1225 C 0.12783 0.48430 -0.02569
 C1226 C 0.10695 0.47711 -0.02887
 N1227 N 0.15659 0.43245 -0.01681
 N1228 N 0.17599 0.43617 -0.02160
 C1229 C 0.19272 0.42125 -0.01713
 C1230 C 0.21136 0.42148 -0.02939
 C1231 C 0.22781 0.40690 -0.02561
 C1232 C 0.22631 0.39191 -0.00907
 C1233 C 0.20768 0.39257 0.00380
 C1234 C 0.19096 0.40675 -0.00048
 H1235 H 0.08672 0.44922 -0.03009
 H1236 H 0.11560 0.42368 -0.02252
 H1237 H 0.16035 0.47554 -0.01976
 H1238 H 0.13148 0.50118 -0.02649
 H1239 H 0.21300 0.43274 -0.04218
 H1240 H 0.24186 0.40722 -0.03573
 H1241 H 0.20575 0.38242 0.01734
 H1242 H 0.17683 0.40672 0.00953
 C1243 C 0.64122 0.99453 0.47761
 C1244 C 0.65967 0.98235 0.48070
 C1245 C 0.65918 0.96008 0.47870
 C1246 C 0.64011 0.95007 0.47292
 C1247 C 0.62177 0.96232 0.46923
 C1248 C 0.62212 0.98462 0.47182
 N1249 N 0.67821 0.94804 0.48259
 N1250 N 0.67769 0.92838 0.48760
 C1251 C 0.69678 0.91629 0.49114
 C1252 C 0.69554 0.89747 0.50275
 C1253 C 0.71386 0.88536 0.50664
 C1254 C 0.73409 0.89162 0.49871
 C1255 C 0.73485 0.91036 0.48629
 C1256 C 0.71657 0.92271 0.48291
 H1257 H 0.64195 1.01172 0.47951
 H1258 H 0.67429 0.99024 0.48504
 H1259 H 0.63945 0.93287 0.47111
 H1260 H 0.60721 0.95434 0.46482
 H1261 H 0.68029 0.89224 0.50897
 H1262 H 0.71176 0.87099 0.51569
 H1263 H 0.74965 0.91534 0.47890
 H1264 H 0.71782 0.93700 0.47345
 C1265 C 0.86103 1.00122 0.52505
 C1266 C 0.84312 0.98846 0.52178
 C1267 C 0.84469 0.96617 0.52306
 C1268 C 0.86436 0.95675 0.52818
 C1269 C 0.88213 0.96952 0.53200
 C1270 C 0.88068 0.99187 0.53030
 N1271 N 0.82620 0.95344 0.51927
 N1272 N 0.82778 0.93381 0.51406
 C1273 C 0.80953 0.92061 0.51072
 C1274 C 0.81205 0.90175 0.49916
 C1275 C 0.79475 0.88826 0.49574
 C1276 C 0.77426 0.89283 0.50447
 C1277 C 0.77213 0.91218 0.51617
 C1278 C 0.78938 0.92590 0.51909
 H1279 H 0.85943 1.01842 0.52382
 H1280 H 0.82804 0.99592 0.51794
 H1281 H 0.86591 0.93955 0.52943
 H1282 H 0.89711 0.96191 0.53594
 H1283 H 0.82754 0.89756 0.49249
 H1284 H 0.79807 0.87446 0.48612
 H1285 H 0.75698 0.91666 0.52337
 H1286 H 0.78706 0.94039 0.52825
 C1287 C 0.35511 0.49646 0.01841
 C1288 C 0.33662 0.48450 0.01535
 C1289 C 0.33746 0.46213 0.01579
 C1290 C 0.35692 0.45181 0.01992
 C1291 C 0.37525 0.46376 0.02365
 C1292 C 0.37454 0.48617 0.02272
 N1293 N 0.31844 0.45017 0.01224
 N1294 N 0.31931 0.43137 0.00450
 C1295 C 0.30068 0.41868 0.00157
 C1296 C 0.30120 0.40254 -0.01366
 C1297 C 0.28358 0.38937 -0.01658
 C1298 C 0.26527 0.39111 -0.00335
 C1299 C 0.26475 0.40812 0.01148
 C1300 C 0.28218 0.42171 0.01390
 H1301 H 0.35417 0.51374 0.01779
 H1302 H 0.32170 0.49264 0.01228
 H1303 H 0.35785 0.43453 0.02054
 H1304 H 0.39007 0.45550 0.02690
 H1305 H 0.31524 0.40039 -0.02360
 H1306 H 0.28469 0.37814 -0.02947
 H1307 H 0.25084 0.41061 0.02153
 H1308 H 0.28141 0.43422 0.02574
 C1309 C 0.53502 0.45136 0.37188
 C1310 C 0.54845 0.45361 0.35429
 C1311 C 0.54899 0.47283 0.34319
 C1312 C 0.53587 0.48993 0.34991
 C1313 C 0.52236 0.48770 0.36747
 C1314 C 0.52177 0.46837 0.37868
 N1315 N 0.56302 0.47455 0.32528
 N1316 N 0.56482 0.49176 0.31485
 C1317 C 0.57897 0.49348 0.29702
 C1318 C 0.58121 0.51326 0.28721
 C1319 C 0.59535 0.51564 0.27022
 C1320 C 0.60809 0.49835 0.26282
 C1321 C 0.60465 0.47812 0.27207
 C1322 C 0.59056 0.47581 0.28915
 H1323 H 0.53490 0.43618 0.37994
 H1324 H 0.55847 0.44030 0.34927
 H1325 H 0.53603 0.50500 0.34160
 H1326 H 0.51254 0.50120 0.37230
 H1327 H 0.57206 0.52694 0.29286
 H1328 H 0.59669 0.53121 0.26298
 H1329 H 0.61250 0.46385 0.26611
 H1330 H 0.58862 0.46017 0.29610
 C1331 C 0.03464 -0.05238 0.87973
 C1332 C 0.04794 -0.05007 0.86206
 C1333 C 0.04794 -0.03101 0.85068
 C1334 C 0.03439 -0.01416 0.85717
 C1335 C 0.02108 -0.01643 0.87483
 C1336 C 0.02104 -0.03557 0.88636
 N1337 N 0.06201 -0.02905 0.83285
 N1338 N 0.06277 -0.01208 0.82193
 C1339 C 0.07706 -0.00983 0.80431
 C1340 C 0.07757 0.00961 0.79367
 C1341 C 0.09198 0.01269 0.77704
 C1342 C 0.10675 -0.00346 0.77094
 C1343 C 0.10505 -0.02353 0.78094
 C1344 C 0.09062 -0.02655 0.79762
 H1345 H 0.03498 -0.06741 0.88804
 H1346 H 0.05832 -0.06317 0.85721
 H1347 H 0.03415 0.00078 0.84867
 H1348 H 0.01101 -0.00307 0.87948
 H1349 H 0.06691 0.02251 0.79843
 H1350 H 0.09202 0.02800 0.76916
 H1351 H 0.11459 -0.03712 0.77591
 H1352 H 0.09007 -0.04197 0.80525
 C1353 C 0.03524 0.04837 0.62527
 C1354 C 0.04844 0.04611 0.64261
 C1355 C 0.04878 0.02704 0.65393
 C1356 C 0.03552 0.01014 0.64781
 C1357 C 0.02216 0.01242 0.63049
 C1358 C 0.02196 0.03154 0.61895
 N1359 N 0.06278 0.02539 0.67145
 N1360 N 0.06494 0.00830 0.68200
 C1361 C 0.07915 0.00708 0.69942
 C1362 C 0.08184 -0.01241 0.70966
 C1363 C 0.09582 -0.01414 0.72648
 C1364 C 0.10793 0.00354 0.73328
 C1365 C 0.10420 0.02341 0.72344
 C1366 C 0.09027 0.02506 0.70656
 H1367 H 0.03533 0.06343 0.61700
 H1368 H 0.05853 0.05927 0.64722
 H1369 H 0.03551 -0.00478 0.65636
 H1370 H 0.01223 -0.00088 0.62599
 H1371 H 0.07309 -0.02633 0.70457
 H1372 H 0.09740 -0.02945 0.73420
 H1373 H 0.11154 0.03795 0.72889
 H1374 H 0.08802 0.04049 0.69925
 C1375 C 0.51409 0.49902 0.12430
 C1376 C 0.52701 0.49485 0.14159
 C1377 C 0.54054 0.51062 0.14940
 C1378 C 0.54102 0.53073 0.13968
 C1379 C 0.52818 0.53491 0.12237
 C1380 C 0.51456 0.51910 0.11444
 N1381 N 0.55376 0.50581 0.16700
 N1382 N 0.56594 0.51975 0.17505
 C1383 C 0.57953 0.51521 0.19240
 C1384 C 0.59228 0.53152 0.20028
 C1385 C 0.60626 0.52762 0.21675
 C1386 C 0.60835 0.50694 0.22541
 C1387 C 0.59439 0.49095 0.21812
 C1388 C 0.58041 0.49491 0.20162
 H1389 H 0.50394 0.48641 0.11856
 H1390 H 0.52652 0.47926 0.14889
 H1391 H 0.55133 0.54322 0.14542
 H1392 H 0.52885 0.55062 0.11539
 H1393 H 0.59132 0.54741 0.19366
 H1394 H 0.61506 0.54107 0.22275
 H1395 H 0.59464 0.47516 0.22503
 H1396 H 0.57039 0.48210 0.19607
 C1397 C 0.47762 0.00445 0.12309
 C1398 C 0.46557 0.00777 0.14148
 C1399 C 0.45465 -0.00915 0.15088
 C1400 C 0.45580 -0.02959 0.14160
 C1401 C 0.46786 -0.03295 0.12317
 C1402 C 0.47898 -0.01597 0.11374
 N1403 N 0.44237 -0.00504 0.16964
 N1404 N 0.43194 -0.01959 0.17908
 C1405 C 0.41944 -0.01514 0.19765
 C1406 C 0.40727 -0.03147 0.20653
 C1407 C 0.39399 -0.02737 0.22396
 C1408 C 0.39210 -0.00653 0.23258
 C1409 C 0.40579 0.00935 0.22446
 C1410 C 0.41898 0.00524 0.20699
 H1411 H 0.48572 0.01798 0.11621
 H1412 H 0.46469 0.02361 0.14843
 H1413 H 0.44745 -0.04293 0.14859
 H1414 H 0.46864 -0.04890 0.11653
 H1415 H 0.40799 -0.04743 0.19984
 H1416 H 0.38540 -0.04070 0.23062
 H1417 H 0.40579 0.02523 0.23136
 H1418 H 0.42867 0.01804 0.20073
 C1419 C 0.98336 0.49889 0.63047
 C1420 C 0.96969 0.50330 0.64756
 C1421 C 0.95630 0.48742 0.65560
 C1422 C 0.95682 0.46693 0.64643
 C1423 C 0.97042 0.46251 0.62935
 C1424 C 0.98378 0.47846 0.62108
 N1425 N 0.94207 0.49254 0.67276
 N1426 N 0.92959 0.47867 0.68064
 C1427 C 0.91496 0.48356 0.69751
 C1428 C 0.90178 0.46740 0.70519
 C1429 C 0.88685 0.47168 0.72120
 C1430 C 0.88425 0.49257 0.72953
 C1431 C 0.89858 0.50843 0.72245
 C1432 C 0.91351 0.50409 0.70643
 H1433 H 0.99331 0.51160 0.62446
 H1434 H 0.96940 0.51917 0.65447
 H1435 H 0.94666 0.45435 0.65239
 H1436 H 0.97047 0.44654 0.62275
 H1437 H 0.90316 0.45136 0.69878
 H1438 H 0.87769 0.45839 0.72715
 H1439 H 0.89795 0.52436 0.72919
 H1440 H 0.92385 0.51678 0.70104
 C1441 C 0.95994 0.54623 0.87196
 C1442 C 0.94643 0.54424 0.85480
 C1443 C 0.94415 0.52455 0.84462
 C1444 C 0.95576 0.50674 0.85170
 C1445 C 0.96939 0.50872 0.86884
 C1446 C 0.97154 0.52848 0.87924
 N1447 N 0.92988 0.52314 0.82730
 N1448 N 0.92626 0.50561 0.81779
 C1449 C 0.91187 0.50436 0.80053
 C1450 C 0.90805 0.48448 0.79131
 C1451 C 0.89398 0.48268 0.77458
 C1452 C 0.88285 0.50070 0.76692
 C1453 C 0.88767 0.52086 0.77576
 C1454 C 0.90173 0.52261 0.79254
 H1455 H 0.96137 0.56176 0.87935
 H1456 H 0.93763 0.55809 0.84945
 H1457 H 0.95426 0.49132 0.84405
 H1458 H 0.97797 0.49471 0.87408
 H1459 H 0.91605 0.47032 0.79707
 H1460 H 0.89164 0.46705 0.76760
 H1461 H 0.88107 0.53548 0.76955
 H1462 H 0.90486 0.53828 0.79907
 C1463 C 0.47290 0.04755 0.37243
 C1464 C 0.45935 0.04524 0.35537
 C1465 C 0.45677 0.02531 0.34575
 C1466 C 0.46820 0.00757 0.35327
 C1467 C 0.48190 0.00987 0.37034
 C1468 C 0.48426 0.02988 0.38023
 N1469 N 0.44226 0.02363 0.32864
 N1470 N 0.43829 0.00602 0.31943
 C1471 C 0.42347 0.00484 0.30250
 C1472 C 0.41911 -0.01501 0.29344
 C1473 C 0.40437 -0.01670 0.27726
 C1474 C 0.39307 0.00142 0.27006
 C1475 C 0.39853 0.02155 0.27857
 C1476 C 0.41326 0.02318 0.29478
 H1477 H 0.47453 0.06327 0.37938
 H1478 H 0.45070 0.05903 0.34967
 H1479 H 0.46646 -0.00803 0.34605
 H1480 H 0.49033 -0.00407 0.37599
 H1481 H 0.42715 -0.02925 0.29897
 H1482 H 0.40152 -0.03230 0.27043
 H1483 H 0.39182 0.03622 0.27259
 H1484 H 0.41677 0.03884 0.30114
   
