data_POSCAR
  _audit_creation_date              2014-09-24
  _audit_creation_method            'ToBaCCo'
  _symmetry_space_group_name_H-M    'P1'
  _symmetry_Int_Tables_number       1
  _symmetry_cell_setting            triclinic
  loop_
  _symmetry_equiv_pos_as_xyz
 x,y,z
_cell_length_a 64.1754
_cell_length_b 64.1381
_cell_length_c 64.4056
_cell_angle_alpha 89.791900
_cell_angle_beta 90.334600
_cell_angle_gamma 90.080200
loop_
  _atom_site_label
  _atom_site_type_symbol
  _atom_site_fract_x
  _atom_site_fract_y
  _atom_site_fract_z
C1 C 0.13316 -0.02708 0.25501
 C2 C 0.12431 -0.00747 0.25899
 C3 C 0.11602 -0.00337 0.27872
 C4 C 0.11642 -0.01877 0.29421
 C5 C 0.12548 -0.03815 0.29020
 C6 C 0.13394 -0.04232 0.27066
 C7 C 0.12377 0.00870 0.24258
 C8 C 0.11492 0.00428 0.22305
 C9 C 0.11437 0.01966 0.20753
 C10 C 0.12300 0.03934 0.21134
 C11 C 0.13201 0.04378 0.23064
 C12 C 0.13222 0.02858 0.24632
 H13 H 0.13975 -0.03028 0.23988
 H14 H 0.10896 0.01163 0.28187
 H15 H 0.10822 -0.01097 0.22010
 H16 H 0.13929 0.03205 0.26124
 H17 H 0.12590 -0.04998 0.30229
 H18 H 0.12275 0.05123 0.19929
 C19 C 0.36787 -0.02702 0.74538
 C20 C 0.37632 -0.00719 0.74132
 C21 C 0.38440 -0.00278 0.72154
 C22 C 0.38419 -0.01809 0.70608
 C23 C 0.37557 -0.03771 0.71018
 C24 C 0.36731 -0.04216 0.72976
 C25 C 0.37663 0.00893 0.75769
 C26 C 0.38561 0.00463 0.77721
 C27 C 0.38606 0.02002 0.79262
 C28 C 0.37718 0.03958 0.78871
 C29 C 0.36802 0.04388 0.76942
 C30 C 0.36791 0.02868 0.75386
 H31 H 0.36138 -0.03049 0.76051
 H32 H 0.39112 0.01240 0.71831
 H33 H 0.39251 -0.01052 0.78022
 H34 H 0.36074 0.03206 0.73894
 H35 H 0.37525 -0.04949 0.69814
 H36 H 0.37736 0.05146 0.80067
 C37 C 0.86834 0.47243 0.24741
 C38 C 0.87668 0.49227 0.24315
 C39 C 0.88514 0.49639 0.22347
 C40 C 0.88543 0.48078 0.20832
 C41 C 0.87695 0.46115 0.21261
 C42 C 0.86831 0.45699 0.23208
 C43 C 0.87650 0.50868 0.25921
 C44 C 0.88493 0.50475 0.27904
 C45 C 0.88496 0.52042 0.29416
 C46 C 0.87620 0.53990 0.28965
 C47 C 0.86758 0.54384 0.27004
 C48 C 0.86789 0.52835 0.25477
 H49 H 0.86156 0.46917 0.26245
 H50 H 0.89177 0.51157 0.22009
 H51 H 0.89177 0.48967 0.28251
 H52 H 0.86114 0.53145 0.23960
 H53 H 0.87703 0.44914 0.20080
 H54 H 0.87605 0.55201 0.30138
 C55 C 0.63284 0.47078 0.75253
 C56 C 0.62440 0.49054 0.75671
 C57 C 0.61566 0.49443 0.77628
 C58 C 0.61520 0.47868 0.79140
 C59 C 0.62380 0.45915 0.78719
 C60 C 0.63271 0.45520 0.76784
 C61 C 0.62478 0.50711 0.74068
 C62 C 0.61689 0.50325 0.72065
 C63 C 0.61705 0.51906 0.70557
 C64 C 0.62543 0.53861 0.71030
 C65 C 0.63348 0.54252 0.73012
 C66 C 0.63300 0.52689 0.74536
 H67 H 0.63984 0.46769 0.73758
 H68 H 0.60894 0.50955 0.77961
 H69 H 0.61030 0.48814 0.71693
 H70 H 0.63932 0.52999 0.76070
 H71 H 0.62360 0.44703 0.79898
 H72 H 0.62566 0.55079 0.69856
 C73 C 0.24649 0.13344 1.02986
 C74 C 0.24247 0.12524 1.01002
 C75 C 0.22269 0.11690 1.00553
 C76 C 0.20718 0.11658 1.02078
 C77 C 0.21127 0.12496 1.04043
 C78 C 0.23085 0.13347 1.04495
 C79 C 0.25892 0.12540 0.99403
 C80 C 0.27863 0.11683 0.99840
 C81 C 0.29418 0.11689 0.98319
 C82 C 0.29021 0.12588 0.96374
 C83 C 0.27071 0.13459 0.95933
 C84 C 0.25501 0.13418 0.97435
 H85 H 0.26162 0.14012 1.03341
 H86 H 0.21954 0.11035 0.99032
 H87 H 0.28169 0.10983 1.01347
 H88 H 0.23993 0.14100 0.97090
 H89 H 0.19925 0.12489 1.05222
 H90 H 0.30228 0.12610 0.95199
 C91 C 0.75359 0.36517 1.02508
 C92 C 0.75752 0.37388 1.00542
 C93 C 0.77722 0.38253 1.00128
 C94 C 0.79273 0.38260 1.01667
 C95 C 0.78879 0.37368 1.03610
 C96 C 0.76929 0.36487 1.04032
 C97 C 0.74112 0.37387 0.98921
 C98 C 0.72143 0.38246 0.99326
 C99 C 0.70597 0.38262 0.97777
 C100 C 0.71002 0.37380 0.95836
 C101 C 0.72952 0.36506 0.95429
 C102 C 0.74512 0.36527 0.96959
 H103 H 0.73849 0.35830 1.02831
 H104 H 0.78032 0.38947 0.98624
 H105 H 0.71832 0.38933 1.00829
 H106 H 0.76021 0.35845 0.96639
 H107 H 0.80092 0.37361 1.04792
 H108 H 0.69804 0.37375 0.94639
 C109 C 0.25424 0.86646 0.52628
 C110 C 0.25831 0.87487 0.50651
 C111 C 0.27812 0.88323 0.50231
 C112 C 0.29361 0.88330 0.51775
 C113 C 0.28949 0.87469 0.53729
 C114 C 0.26988 0.86621 0.54154
 C115 C 0.24197 0.87483 0.49023
 C116 C 0.22211 0.88306 0.49428
 C117 C 0.20678 0.88326 0.47870
 C118 C 0.21107 0.87489 0.45917
 C119 C 0.23071 0.86649 0.45508
 C120 C 0.24619 0.86661 0.47048
 H121 H 0.23910 0.85977 0.52961
 H122 H 0.28131 0.88994 0.48718
 H123 H 0.21875 0.88964 0.50938
 H124 H 0.26138 0.86003 0.46725
 H125 H 0.30152 0.87457 0.54921
 H126 H 0.19914 0.87493 0.44716
 C127 C 0.74847 0.63346 0.53046
 C128 C 0.74407 0.62524 0.51071
 C129 C 0.72432 0.61657 0.50670
 C130 C 0.70926 0.61592 0.52237
 C131 C 0.71373 0.62428 0.54192
 C132 C 0.73325 0.63315 0.54596
 C133 C 0.76012 0.62564 0.49433
 C134 C 0.77993 0.61705 0.49814
 C135 C 0.79511 0.61728 0.48258
 C136 C 0.79068 0.62645 0.46331
 C137 C 0.77107 0.63519 0.45945
 C138 C 0.75573 0.63461 0.47484
 H139 H 0.76358 0.64039 0.53363
 H140 H 0.72083 0.61003 0.49158
 H141 H 0.78333 0.60990 0.51306
 H142 H 0.74056 0.64143 0.47181
 H143 H 0.70200 0.62391 0.55399
 H144 H 0.80246 0.62679 0.45128
 C145 C -0.02804 0.25442 0.13220
 C146 C -0.00810 0.25882 0.12439
 C147 C -0.00383 0.27877 0.11634
 C148 C -0.01943 0.29407 0.11596
 C149 C -0.03917 0.28959 0.12394
 C150 C -0.04346 0.26984 0.13212
 C151 C 0.00819 0.24253 0.12456
 C152 C 0.00403 0.22278 0.11606
 C153 C 0.01944 0.20732 0.11625
 C154 C 0.03891 0.21140 0.12524
 C155 C 0.04312 0.23095 0.13386
 C156 C 0.02789 0.24657 0.13336
 H157 H -0.03143 0.23915 0.13863
 H158 H 0.01145 0.28221 0.11006
 H159 H -0.01106 0.21961 0.10907
 H160 H 0.03118 0.26167 0.14016
 H161 H -0.05124 0.30145 0.12378
 H162 H 0.05080 0.19938 0.12558
 C163 C -0.02713 0.74506 0.36856
 C164 C -0.00730 0.74035 0.37671
 C165 C -0.00344 0.72031 0.38476
 C166 C -0.01929 0.70526 0.38483
 C167 C -0.03889 0.71002 0.37653
 C168 C -0.04280 0.72984 0.36831
 C169 C 0.00934 0.75632 0.37679
 C170 C 0.00565 0.77614 0.38526
 C171 C 0.02148 0.79120 0.38546
 C172 C 0.04092 0.78666 0.37689
 C173 C 0.04465 0.76706 0.36824
 C174 C 0.02898 0.75184 0.36835
 H175 H -0.03021 0.76039 0.36210
 H176 H 0.01172 0.71657 0.39127
 H177 H -0.00938 0.77971 0.39196
 H178 H 0.03191 0.73669 0.36154
 H179 H -0.05110 0.69830 0.37646
 H180 H 0.05312 0.79839 0.37692
 C181 C 0.47166 0.24677 0.86867
 C182 C 0.49169 0.24260 0.87661
 C183 C 0.49604 0.22284 0.88509
 C184 C 0.48047 0.20750 0.88578
 C185 C 0.46064 0.21173 0.87767
 C186 C 0.45626 0.23128 0.86905
 C187 C 0.50810 0.25880 0.87589
 C188 C 0.50433 0.27882 0.88386
 C189 C 0.51998 0.29408 0.88331
 C190 C 0.53929 0.28952 0.87445
 C191 C 0.54309 0.26971 0.86631
 C192 C 0.52762 0.25431 0.86719
 H193 H 0.46822 0.26187 0.86186
 H194 H 0.51140 0.21956 0.89141
 H195 H 0.48938 0.28234 0.89079
 H196 H 0.53062 0.23900 0.86079
 H197 H 0.44862 0.19981 0.87801
 H198 H 0.55139 0.30135 0.87386
 C199 C 0.46949 0.75297 0.63428
 C200 C 0.48949 0.75693 0.62636
 C201 C 0.49390 0.77652 0.61754
 C202 C 0.47842 0.79186 0.61648
 C203 C 0.45864 0.78787 0.62457
 C204 C 0.45418 0.76852 0.63356
 C205 C 0.50572 0.74060 0.62719
 C206 C 0.50171 0.72069 0.61901
 C207 C 0.51722 0.70535 0.61946
 C208 C 0.53664 0.70969 0.62843
 C209 C 0.54071 0.72941 0.63674
 C210 C 0.52536 0.74491 0.63597
 H211 H 0.46598 0.73799 0.64129
 H212 H 0.50920 0.77964 0.61117
 H213 H 0.48672 0.71731 0.61192
 H214 H 0.52858 0.76017 0.64244
 H215 H 0.44671 0.79983 0.62386
 H216 H 0.54861 0.69777 0.62884
 C217 C 0.87026 1.02702 0.75243
 C218 C 0.87889 1.00750 0.75736
 C219 C 0.88720 1.00405 0.77729
 C220 C 0.88705 1.02000 0.79209
 C221 C 0.87823 1.03939 0.78712
 C222 C 0.86974 1.04285 0.76732
 C223 C 0.87884 0.99061 0.74184
 C224 C 0.88694 0.99408 0.72191
 C225 C 0.88676 0.97807 0.70716
 C226 C 0.87812 0.95862 0.71217
 C227 C 0.86985 0.95514 0.73197
 C228 C 0.87040 0.97102 0.74681
 H229 H 0.86350 1.02969 0.73718
 H230 H 0.89398 0.98902 0.78115
 H231 H 0.89359 1.00915 0.71803
 H232 H 0.86381 0.96832 0.76205
 H233 H 0.87784 1.05170 0.79863
 H234 H 0.87769 0.94627 0.70070
 C235 C 0.36854 0.52946 0.25022
 C236 C 0.37695 0.50993 0.25550
 C237 C 0.38522 0.50674 0.27548
 C238 C 0.38526 0.52296 0.28996
 C239 C 0.37669 0.54234 0.28468
 C240 C 0.36823 0.54556 0.26483
 C241 C 0.37714 0.49290 0.24014
 C242 C 0.38576 0.49620 0.22042
 C243 C 0.38606 0.48005 0.20588
 C244 C 0.37739 0.46062 0.21083
 C245 C 0.36858 0.45729 0.23040
 C246 C 0.36864 0.47333 0.24510
 H247 H 0.36188 0.53197 0.23490
 H248 H 0.39191 0.49176 0.27962
 H249 H 0.39251 0.51121 0.21652
 H250 H 0.36170 0.47074 0.26020
 H251 H 0.37654 0.55484 0.29598
 H252 H 0.37741 0.44819 0.19946
 C253 C 0.63084 1.02859 0.24756
 C254 C 0.62296 1.00862 0.24323
 C255 C 0.61498 1.00432 0.22335
 C256 C 0.61476 1.01983 0.20802
 C257 C 0.62281 1.03966 0.21237
 C258 C 0.63093 1.04401 0.23212
 C259 C 0.62323 0.99221 0.25939
 C260 C 0.61524 0.99622 0.27923
 C261 C 0.61547 0.98063 0.29452
 C262 C 0.62400 0.96104 0.29013
 C263 C 0.63213 0.95701 0.27042
 C264 C 0.63158 0.97248 0.25505
 H265 H 0.63729 1.03198 0.26278
 H266 H 0.60868 0.98901 0.21992
 H267 H 0.60858 1.01137 0.28263
 H268 H 0.63805 0.96934 0.23987
 H269 H 0.62279 1.05163 0.20043
 H270 H 0.62440 0.94899 0.30200
 C271 C 0.13126 0.52889 0.74790
 C272 C 0.12337 0.50890 0.74368
 C273 C 0.11525 0.50452 0.72388
 C274 C 0.11485 0.52001 0.70852
 C275 C 0.12289 0.53986 0.71276
 C276 C 0.13117 0.54428 0.73242
 C277 C 0.12357 0.49262 0.75996
 C278 C 0.11546 0.49682 0.77971
 C279 C 0.11553 0.48137 0.79510
 C280 C 0.12403 0.46173 0.79096
 C281 C 0.13229 0.45749 0.77135
 C282 C 0.13190 0.47283 0.75584
 H283 H 0.13776 0.53236 0.76308
 H284 H 0.10892 0.48920 0.72055
 H285 H 0.10879 0.51198 0.78297
 H286 H 0.13844 0.46953 0.74072
 H287 H 0.12269 0.55183 0.70081
 H288 H 0.12426 0.44983 0.80296
 C289 C 0.74680 0.86704 -0.02661
 C290 C 0.74286 0.87517 -0.00681
 C291 C 0.72307 0.88328 -0.00238
 C292 C 0.70745 0.88344 -0.01765
 C293 C 0.71142 0.87514 -0.03731
 C294 C 0.73107 0.86686 -0.04176
 C295 C 0.75943 0.87524 0.00921
 C296 C 0.77905 0.88383 0.00480
 C297 C 0.79472 0.88409 0.02003
 C298 C 0.79094 0.87539 0.03965
 C299 C 0.77144 0.86663 0.04407
 C300 C 0.75568 0.86674 0.02895
 H301 H 0.76197 0.86056 -0.03010
 H302 H 0.71998 0.88982 0.01280
 H303 H 0.78193 0.89065 -0.01036
 H304 H 0.74064 0.85987 0.03240
 H305 H 0.69929 0.87515 -0.04911
 H306 H 0.80308 0.87543 0.05146
 C307 C 0.24654 0.36589 0.47318
 C308 C 0.24243 0.37403 0.49295
 C309 C 0.22249 0.38181 0.49733
 C310 C 0.20691 0.38163 0.48202
 C311 C 0.21106 0.37333 0.46240
 C312 C 0.23084 0.36538 0.45802
 C313 C 0.25898 0.37441 0.50897
 C314 C 0.27849 0.38324 0.50453
 C315 C 0.29417 0.38366 0.51972
 C316 C 0.29056 0.37491 0.53933
 C317 C 0.27118 0.36592 0.54379
 C318 C 0.25538 0.36585 0.52872
 H319 H 0.26183 0.35966 0.46973
 H320 H 0.21924 0.38832 0.51248
 H321 H 0.28133 0.39009 0.48938
 H322 H 0.24043 0.35878 0.53220
 H323 H 0.19894 0.37308 0.45059
 H324 H 0.30276 0.37509 0.55105
 C325 C 0.25396 0.63421 -0.02841
 C326 C 0.25793 0.62550 -0.00876
 C327 C 0.27760 0.61688 -0.00445
 C328 C 0.29307 0.61682 -0.01969
 C329 C 0.28907 0.62572 -0.03920
 C330 C 0.26954 0.63449 -0.04352
 C331 C 0.24159 0.62555 0.00728
 C332 C 0.22175 0.61732 0.00292
 C333 C 0.20631 0.61722 0.01822
 C334 C 0.21055 0.62572 0.03782
 C335 C 0.23024 0.63414 0.04215
 C336 C 0.24577 0.63388 0.02700
 H337 H 0.23890 0.64112 -0.03178
 H338 H 0.28073 0.60994 0.01063
 H339 H 0.21852 0.61066 -0.01222
 H340 H 0.26097 0.64047 0.03041
 H341 H 0.30110 0.62584 -0.05095
 H342 H 0.19863 0.62574 0.04969
 C343 C 0.75452 0.13374 0.46989
 C344 C 0.75861 0.12530 0.48964
 C345 C 0.77822 0.11652 0.49387
 C346 C 0.79354 0.11603 0.47847
 C347 C 0.78942 0.12468 0.45885
 C348 C 0.76994 0.13361 0.45461
 C349 C 0.74239 0.12548 0.50579
 C350 C 0.72249 0.11735 0.50156
 C351 C 0.70727 0.11701 0.51704
 C352 C 0.71174 0.12517 0.53671
 C353 C 0.73147 0.13351 0.54096
 C354 C 0.74681 0.13351 0.52560
 H355 H 0.73949 0.14073 0.46657
 H356 H 0.78137 0.10973 0.50902
 H357 H 0.71904 0.11082 0.48642
 H358 H 0.76209 0.13996 0.52895
 H359 H 0.80128 0.12447 0.44692
 H360 H 0.69994 0.12491 0.54871
 C361 C 1.02712 0.75618 0.86909
 C362 C 1.00738 0.76004 0.87755
 C363 C 1.00293 0.77984 0.88566
 C364 C 1.01810 0.79556 0.88542
 C365 C 1.03769 0.79164 0.87679
 C366 C 1.04216 0.77199 0.86855
 C367 C 0.99132 0.74353 0.87765
 C368 C 0.99591 0.72363 0.88560
 C369 C 0.98058 0.70804 0.88576
 C370 C 0.96070 0.71222 0.87764
 C371 C 0.95612 0.73198 0.86953
 C372 C 0.97132 0.74763 0.86969
 H373 H 1.03059 0.74103 0.86254
 H374 H 0.98777 0.78287 0.89237
 H375 H 1.01128 0.72042 0.89194
 H376 H 0.96772 0.76288 0.86329
 H377 H 1.04943 0.80384 0.87641
 H378 H 0.94882 0.70015 0.87760
 C379 C 0.52983 0.25460 0.36685
 C380 C 0.51003 0.25874 0.37504
 C381 C 0.50567 0.27867 0.38284
 C382 C 0.52098 0.29423 0.38260
 C383 C 0.54063 0.29005 0.37427
 C384 C 0.54502 0.27026 0.36632
 C385 C 0.49389 0.24230 0.37528
 C386 C 0.49846 0.22243 0.38334
 C387 C 0.48315 0.20687 0.38354
 C388 C 0.46329 0.21098 0.37541
 C389 C 0.45869 0.23070 0.36721
 C390 C 0.47389 0.24636 0.36730
 H391 H 0.53326 0.23934 0.36054
 H392 H 0.49049 0.28197 0.38937
 H393 H 0.51380 0.21919 0.38971
 H394 H 0.47029 0.26157 0.36080
 H395 H 0.55245 0.30215 0.37396
 H396 H 0.45148 0.19887 0.37542
 C397 C 1.02676 0.24380 0.63377
 C398 C 1.00701 0.23943 0.62535
 C399 C 1.00303 0.21966 0.61688
 C400 C 1.01870 0.20448 0.61669
 C401 C 1.03831 0.20888 0.62530
 C402 C 1.04230 0.22851 0.63391
 C403 C 0.99057 0.25550 0.62531
 C404 C 0.99456 0.27541 0.61710
 C405 C 0.97881 0.29052 0.61665
 C406 C 0.95913 0.28588 0.62477
 C407 C 0.95515 0.26612 0.63317
 C408 C 0.97076 0.25091 0.63328
 H409 H 1.02990 0.25896 0.64052
 H410 H 0.98787 0.21628 0.61014
 H411 H 1.00975 0.27894 0.61067
 H412 H 0.96761 0.23563 0.63981
 H413 H 1.05044 0.19711 0.62531
 H414 H 0.94690 0.29755 0.62450
 C415 C 0.52770 0.74577 0.13379
 C416 C 0.50789 0.74136 0.12552
 C417 C 0.50386 0.72157 0.11714
 C418 C 0.51954 0.70642 0.11685
 C419 C 0.53921 0.71086 0.12527
 C420 C 0.54326 0.73051 0.13382
 C421 C 0.49150 0.75751 0.12540
 C422 C 0.49565 0.77740 0.11724
 C423 C 0.48004 0.79261 0.11674
 C424 C 0.46029 0.78813 0.12473
 C425 C 0.45610 0.76838 0.13307
 C426 C 0.47161 0.75305 0.13325
 H427 H 0.53090 0.76096 0.14044
 H428 H 0.48869 0.71811 0.11047
 H429 H 0.51088 0.78088 0.11087
 H430 H 0.46830 0.73778 0.13974
 H431 H 0.55133 0.69909 0.12514
 H432 H 0.44820 0.79993 0.12439
 O433 O 0.04517 0.99730 1.04132
 O434 O 0.04758 0.96561 1.02097
 O435 O 0.04130 1.04629 0.99723
 O436 O 0.01893 1.05314 0.96676
 O437 O -0.00414 1.04199 1.04548
 O438 O -0.03447 1.02068 1.05046
 O439 O -0.01599 0.99350 0.94142
 O440 O 0.01518 1.00951 0.93845
 O441 O -0.00846 0.94331 0.98298
 O442 O 0.00721 0.94154 1.02006
 O443 O -0.05838 0.98486 0.99104
 O444 O -0.06166 1.02019 1.00538
 O445 O -0.04480 1.00481 0.95856
 O446 O -0.05139 1.03554 0.98043
 O447 O -0.04123 0.95595 1.00248
 O448 O -0.02105 0.94831 1.03198
 O449 O 0.00235 0.96113 0.95437
 O450 O 0.03559 0.98131 0.95292
 O451 O 0.01608 1.00812 1.05838
 O452 O -0.01859 0.99395 1.06088
 O453 O 0.00758 1.05964 1.01709
 O454 O -0.00659 1.06311 0.98282
 O455 O 0.05846 1.01738 1.00891
 O456 O 0.05962 0.98403 0.99086
 Zr457 Zr 0.03507 0.99438 1.01026
 O458 O 0.01698 0.97494 0.99096
 Zr459 Zr 0.00995 1.03679 0.99387
 O460 O -0.00893 1.01898 0.97389
 Zr461 Zr -0.00707 1.01100 1.03523
 O462 O -0.02677 0.99216 1.01702
 Zr463 Zr 0.00673 0.99181 0.96493
 O464 O 0.02676 1.01090 0.98301
 Zr465 Zr -0.01029 0.96603 1.00643
 O466 O 0.00877 0.98372 1.02670
 Zr467 Zr -0.03534 1.00823 0.98977
 O468 O -0.01763 1.02815 1.00929
 O469 O 0.01967 1.02100 1.02028
 O470 O -0.02029 0.98140 0.97960
 C471 C 0.03531 1.00261 1.05779
 C472 C 0.05781 1.03655 1.00315
 C473 C 0.00171 1.05866 1.03608
 C474 C -0.03514 0.99917 0.94209
 C475 C -0.00323 0.94442 0.96381
 C476 C -0.05770 0.96564 0.99658
 H477 H 0.02547 0.96280 0.98680
 H478 H -0.03901 0.98810 1.02536
 H479 H 0.02853 1.02980 1.02933
 H480 H -0.01261 1.02758 0.96163
 H481 H 0.02816 1.01702 0.94207
 H482 H 0.03121 1.04588 0.96107
 H483 H -0.02994 0.95754 1.04041
 H484 H -0.01102 0.98051 1.06109
 H485 H 0.03304 0.97593 0.93871
 H486 H 0.07304 0.98536 0.99846
 H487 H -0.06350 1.01198 1.01826
 H488 H -0.04135 1.03090 1.04115
 H489 H 0.06177 0.96806 1.02663
 H490 H 0.01822 0.93755 1.01016
 H491 H -0.02029 1.06290 0.98981
 H492 H -0.04326 1.04221 0.96922
 O493 O 0.49250 0.44284 0.48018
 O494 O 0.51001 0.44031 0.51355
 O495 O 0.44221 0.48478 0.49023
 O496 O 0.43940 0.51905 0.50485
 O497 O 0.48412 0.49574 0.43939
 O498 O 0.51873 0.50960 0.43724
 O499 O 0.49760 0.54000 0.54484
 O500 O 0.46809 0.51999 0.55083
 O501 O 0.54632 0.49720 0.53866
 O502 O 0.54752 0.46345 0.51543
 O503 O 0.54201 0.54576 0.49729
 O504 O 0.52033 0.55333 0.46603
 O505 O 0.50952 0.55811 0.51681
 O506 O 0.49517 0.56304 0.48137
 O507 O 0.55931 0.51635 0.50727
 O508 O 0.56340 0.48364 0.49270
 O509 O 0.51771 0.50827 0.55610
 O510 O 0.48158 0.48878 0.55591
 O511 O 0.50426 0.46110 0.45212
 O512 O 0.53428 0.48268 0.44669
 O513 O 0.45545 0.50661 0.45696
 O514 O 0.44993 0.53578 0.47922
 O515 O 0.45953 0.45541 0.50045
 O516 O 0.48001 0.45176 0.53194
 Zr517 Zr 0.49062 0.46538 0.50377
 O518 O 0.50986 0.48269 0.52413
 Zr519 Zr 0.46538 0.50804 0.48810
 O520 O 0.48347 0.52699 0.50777
 Zr521 Zr 0.50713 0.49210 0.46254
 O522 O 0.52711 0.51029 0.48112
 Zr523 Zr 0.49397 0.50957 0.53346
 O524 O 0.47383 0.49126 0.51490
 Zr525 Zr 0.53592 0.49349 0.50783
 O526 O 0.51788 0.47443 0.48794
 Zr527 Zr 0.51087 0.53621 0.49253
 O528 O 0.49147 0.51930 0.47183
 O529 O 0.48055 0.48165 0.47751
 O530 O 0.52089 0.52000 0.51877
 C531 C 0.49867 0.44418 0.46128
 C532 C 0.44291 0.46546 0.49558
 C533 C 0.46511 0.50184 0.44026
 C534 C 0.50394 0.55671 0.53588
 C535 C 0.53697 0.50314 0.55514
 C536 C 0.55850 0.53587 0.50294
 H537 H 0.51395 0.47391 0.53615
 H538 H 0.53935 0.51451 0.47286
 H539 H 0.47155 0.47313 0.46832
 H540 H 0.47506 0.53911 0.51207
 H541 H 0.45956 0.52894 0.54160
 H542 H 0.43906 0.51106 0.51804
 H543 H 0.56294 0.48926 0.47840
 H544 H 0.54113 0.47202 0.45553
 H545 H 0.48736 0.49250 0.56971
 H546 H 0.47423 0.43772 0.52904
 H547 H 0.53222 0.54593 0.45975
 H548 H 0.51188 0.52340 0.43785
 H549 H 0.50240 0.42697 0.51173
 H550 H 0.55868 0.46498 0.52601
 H551 H 0.45948 0.54332 0.46979
 H552 H 0.48239 0.56479 0.48969
 O553 O 0.45930 -0.04619 0.49567
 O554 O 0.47978 -0.04882 0.46424
 O555 O 0.50309 -0.04165 0.54465
 O556 O 0.53366 -0.01921 0.55127
 O557 O 0.45453 0.00376 0.53957
 O558 O 0.44929 0.03374 0.51777
 O559 O 0.55890 0.01541 0.49143
 O560 O 0.56226 -0.01550 0.50791
 O561 O 0.51745 0.00698 0.44148
 O562 O 0.48026 -0.00877 0.43988
 O563 O 0.50903 0.05744 0.48221
 O564 O 0.49425 0.06100 0.51730
 O565 O 0.54146 0.04426 0.50237
 O566 O 0.51942 0.05100 0.53284
 O567 O 0.49782 0.03991 0.45358
 O568 O 0.46832 0.01975 0.44600
 O569 O 0.54620 -0.00356 0.45950
 O570 O 0.54795 -0.03650 0.48028
 O571 O 0.44182 -0.01712 0.50608
 O572 O 0.43902 0.01738 0.49139
 O573 O 0.48307 -0.00767 0.55744
 O574 O 0.51741 0.00643 0.56085
 O575 O 0.49169 -0.05909 0.51594
 O576 O 0.51005 -0.06057 0.48294
 Zr577 Zr 0.49034 -0.03595 0.49278
 O578 O 0.50962 -0.01803 0.47327
 Zr579 Zr 0.50643 -0.01037 0.53480
 O580 O 0.52638 0.00841 0.51692
 Zr581 Zr 0.46484 0.00624 0.50867
 O582 O 0.48302 0.02582 0.48975
 Zr583 Zr 0.53559 -0.00751 0.49010
 O584 O 0.51755 -0.02740 0.50929
 Zr585 Zr 0.49388 0.00909 0.46400
 O586 O 0.47362 -0.00985 0.48175
 Zr587 Zr 0.51024 0.03465 0.50579
 O588 O 0.49074 0.01707 0.52575
 O589 O 0.48005 -0.02033 0.51905
 O590 O 0.52065 0.01934 0.47933
 C591 C 0.44266 -0.03641 0.50082
 C592 C 0.49728 -0.05825 0.53508
 C593 C 0.46398 -0.00180 0.55631
 C594 C 0.55805 0.03464 0.49682
 C595 C 0.53672 0.00179 0.44273
 C596 C 0.50368 0.05650 0.46301
 H597 H 0.51388 -0.02667 0.46134
 H598 H 0.47459 0.03800 0.48548
 H599 H 0.47100 -0.02909 0.52791
 H600 H 0.53863 0.01223 0.52548
 H601 H 0.55868 -0.02824 0.51581
 H602 H 0.53934 -0.03167 0.54431
 H603 H 0.45964 0.02853 0.45510
 H604 H 0.43897 0.00967 0.47810
 H605 H 0.56215 -0.03394 0.47483
 H606 H 0.50252 -0.07400 0.48436
 H607 H 0.48150 0.06289 0.50881
 H608 H 0.45858 0.04083 0.52785
 H609 H 0.47423 -0.06302 0.46682
 H610 H 0.49031 -0.01975 0.43601
 H611 H 0.51038 0.02015 0.56043
 H612 H 0.53080 0.04303 0.53958
 O613 O -0.04097 0.45547 0.99710
 O614 O -0.02061 0.45297 0.96564
 O615 O 0.00332 0.46024 1.04586
 O616 O 0.03383 0.48294 1.05216
 O617 O -0.04568 0.50500 1.04139
 O618 O -0.05132 0.53517 1.01990
 O619 O 0.05819 0.51776 0.99233
 O620 O 0.06184 0.48681 1.00870
 O621 O 0.01630 0.50915 0.94269
 O622 O -0.02083 0.49320 0.94142
 O623 O 0.00783 0.55951 0.98362
 O624 O -0.00652 0.56292 1.01877
 O625 O 0.04066 0.54647 1.00349
 O626 O 0.01874 0.55302 1.03415
 O627 O -0.00349 0.54196 0.95505
 O628 O -0.03287 0.52161 0.94771
 O629 O 0.04531 0.49884 0.96044
 O630 O 0.04748 0.46587 0.98101
 O631 O -0.05856 0.48439 1.00773
 O632 O -0.06170 0.51902 0.99346
 O633 O -0.01681 0.49383 1.05889
 O634 O 0.01733 0.50836 1.06205
 O635 O -0.00833 0.44274 1.01728
 O636 O 0.00986 0.44147 0.98412
 Zr637 Zr -0.00999 0.46590 0.99413
 O638 O 0.00894 0.48404 0.97449
 Zr639 Zr 0.00632 0.49153 1.03603
 O640 O 0.02594 0.51052 1.01803
 Zr641 Zr -0.03566 0.50787 1.01040
 O642 O -0.01781 0.52764 0.99134
 Zr643 Zr 0.03500 0.49472 0.99110
 O644 O 0.01731 0.47462 1.01039
 Zr645 Zr -0.00707 0.51108 0.96544
 O646 O -0.02700 0.49193 0.98334
 Zr647 Zr 0.00950 0.53666 1.00712
 O648 O -0.00967 0.51888 1.02723
 O649 O -0.02015 0.48138 1.02052
 O650 O 0.01978 0.52149 0.98053
 C651 C -0.05765 0.46514 1.00229
 C652 C -0.00252 0.44361 1.03637
 C653 C -0.03599 0.49941 1.05799
 C654 C 0.05727 0.53695 0.99781
 C655 C 0.03563 0.50411 0.94377
 C656 C 0.00228 0.55858 0.96447
 H657 H 0.01316 0.47548 0.96249
 H658 H -0.02639 0.53976 0.98719
 H659 H -0.02908 0.47251 1.02938
 H660 H 0.03824 0.51441 1.02649
 H661 H 0.05844 0.47395 1.01648
 H662 H 0.03946 0.47044 1.04523
 H663 H -0.04150 0.53035 0.95689
 H664 H -0.06183 0.51144 0.98009
 H665 H 0.06165 0.46853 0.97554
 H666 H 0.00247 0.42797 0.98562
 H667 H -0.01954 0.56451 1.01064
 H668 H -0.04199 0.54223 1.02995
 H669 H -0.02600 0.43871 0.96823
 H670 H -0.01076 0.48228 0.93742
 H671 H 0.01014 0.52201 1.06174
 H672 H 0.03020 0.54510 1.04080
 O673 O 0.00657 0.43857 0.51746
 O674 O -0.01118 0.43765 0.48409
 O675 O 0.05779 0.47975 0.50865
 O676 O 0.06143 0.51433 0.49470
 O677 O 0.01611 0.48993 0.55961
 O678 O -0.01816 0.50422 0.56221
 O679 O 0.00331 0.53790 0.45535
 O680 O 0.03226 0.51801 0.44859
 O681 O -0.04603 0.49519 0.46039
 O682 O -0.05061 0.46258 0.48370
 O683 O -0.04038 0.54328 0.50358
 O684 O -0.01840 0.54913 0.53464
 O685 O -0.00810 0.55529 0.48389
 O686 O 0.00701 0.55867 0.51942
 O687 O -0.05829 0.51477 0.49238
 O688 O -0.06317 0.48073 0.50616
 O689 O -0.01723 0.50664 0.44335
 O690 O 0.01903 0.48692 0.44322
 O691 O -0.00485 0.45608 0.54597
 O692 O -0.03439 0.47802 0.55184
 O693 O 0.04499 0.50092 0.54231
 O694 O 0.05128 0.53058 0.52068
 O695 O 0.03981 0.45113 0.49756
 O696 O 0.01933 0.44887 0.46602
 Zr697 Zr 0.00897 0.46185 0.49446
 O698 O -0.00989 0.48020 0.47463
 Zr699 Zr 0.03518 0.50343 0.51121
 O700 O 0.01753 0.52343 0.49207
 Zr701 Zr -0.00697 0.48747 0.53637
 O702 O -0.02654 0.50677 0.51838
 Zr703 Zr 0.00654 0.50710 0.46599
 O704 O 0.02631 0.48777 0.48399
 Zr705 Zr -0.03573 0.49108 0.49122
 O706 O -0.01807 0.47091 0.51047
 Zr707 Zr -0.00959 0.53269 0.50764
 O708 O 0.00937 0.51464 0.52783
 O709 O 0.01938 0.47702 0.52113
 O710 O -0.02014 0.51764 0.48096
 C711 C 0.00040 0.43939 0.53637
 C712 C 0.05664 0.46063 0.50282
 C713 C 0.03522 0.49581 0.55889
 C714 C -0.00279 0.55439 0.46472
 C715 C -0.03653 0.50154 0.44409
 C716 C -0.05706 0.53403 0.49755
 H717 H -0.01394 0.47193 0.46230
 H718 H -0.03865 0.51096 0.52679
 H719 H 0.02817 0.46803 0.53012
 H720 H 0.02620 0.53550 0.48801
 H721 H 0.04148 0.52572 0.45822
 H722 H 0.06156 0.50674 0.48133
 H723 H -0.06339 0.48709 0.52012
 H724 H -0.04166 0.46817 0.54247
 H725 H 0.01274 0.49053 0.42958
 H726 H 0.02461 0.43456 0.46861
 H727 H -0.03028 0.54164 0.54095
 H728 H -0.01099 0.51789 0.56202
 H729 H -0.00395 0.42406 0.48553
 H730 H -0.04526 0.45796 0.47009
 H731 H 0.04188 0.53808 0.53022
 H732 H 0.01946 0.56078 0.51067
 O733 O 0.45972 1.04544 0.00345
 O734 O 0.48017 1.04657 0.03618
 O735 O 0.50471 1.04150 -0.04434
 O736 O 0.53517 1.01994 -0.04965
 O737 O 0.45567 0.99646 -0.04135
 O738 O 0.44997 0.96591 -0.02005
 O739 O 0.55886 0.98286 0.00874
 O740 O 0.56136 1.01904 -0.00652
 O741 O 0.51739 0.99143 0.05825
 O742 O 0.48035 1.00761 0.05930
 O743 O 0.50845 0.94155 0.01685
 O744 O 0.49387 0.93873 -0.01873
 O745 O 0.54123 0.95425 -0.00262
 O746 O 0.51947 0.94822 -0.03340
 O747 O 0.49717 0.95887 0.04543
 O748 O 0.46826 0.97915 0.05278
 O749 O 0.54629 1.00244 0.04106
 O750 O 0.55211 1.03242 0.02231
 O751 O 0.44228 1.01656 -0.00777
 O752 O 0.43906 0.98197 0.00600
 O753 O 0.48467 1.00795 -0.05817
 O754 O 0.51890 0.99393 -0.06085
 O755 O 0.49284 1.05861 -0.01578
 O756 O 0.50868 1.06091 0.01782
 Zr757 Zr 0.49071 1.03522 0.00711
 O758 O 0.51000 1.01706 0.02659
 Zr759 Zr 0.50753 1.01015 -0.03475
 O760 O 0.52709 0.99069 -0.01694
 Zr761 Zr 0.46534 0.99334 -0.01016
 O762 O 0.48309 0.97353 0.00909
 Zr763 Zr 0.53603 1.00631 0.01029
 O764 O 0.51817 1.02674 -0.00861
 Zr765 Zr 0.49394 0.98987 0.03526
 O766 O 0.47379 1.00896 0.01729
 Zr767 Zr 0.51033 0.96456 -0.00645
 O768 O 0.49144 0.98267 -0.02668
 O769 O 0.48086 1.02002 -0.01968
 O770 O 0.52078 0.97943 0.02045
 C771 C 0.44310 1.03575 -0.00214
 C772 C 0.49880 1.05798 -0.03476
 C773 C 0.46550 1.00223 -0.05772
 C774 C 0.55787 0.96369 0.00323
 C775 C 0.53665 0.99678 0.05753
 C776 C 0.50282 0.94231 0.03591
 H777 H 0.51430 1.02556 0.03868
 H778 H 0.47445 0.96141 0.01308
 H779 H 0.47203 1.02895 -0.02866
 H780 H 0.53922 0.98667 -0.02541
 H781 H 0.56442 1.00960 -0.01822
 H782 H 0.54170 1.03053 -0.04054
 H783 H 0.45917 0.97116 0.04323
 H784 H 0.43886 0.98927 0.01951
 H785 H 0.54398 1.04481 0.01804
 H786 H 0.50018 1.07378 0.01676
 H787 H 0.48121 0.93665 -0.01028
 H788 H 0.45918 0.95924 -0.03035
 H789 H 0.47304 1.06012 0.03410
 H790 H 0.49080 1.01793 0.06405
 H791 H 0.51194 0.98014 -0.06081
 H792 H 0.53084 0.95621 -0.04003
 O793 O 0.49286 0.55871 0.01583
 O794 O 0.51128 0.55975 -0.01796
 O795 O 0.44232 0.51687 0.00629
 O796 O 0.43929 0.48233 -0.00807
 O797 O 0.48498 0.50655 0.05715
 O798 O 0.51970 0.49265 0.05937
 O799 O 0.49698 0.45997 -0.04699
 O800 O 0.46491 0.48230 -0.05148
 O801 O 0.54512 0.50336 -0.04262
 O802 O 0.54990 0.53594 -0.01950
 O803 O 0.54143 0.45501 0.00052
 O804 O 0.52011 0.44869 0.03200
 O805 O 0.50900 0.44242 -0.01859
 O806 O 0.49468 0.43861 0.01681
 O807 O 0.55859 0.48400 -0.01062
 O808 O 0.56313 0.51807 0.00292
 O809 O 0.51610 0.49193 -0.05960
 O810 O 0.48366 0.50771 -0.06313
 O811 O 0.50517 0.54084 0.04400
 O812 O 0.53516 0.51951 0.04933
 O813 O 0.45596 0.49557 0.03981
 O814 O 0.44953 0.46637 0.01831
 O815 O 0.45963 0.54597 -0.00458
 O816 O 0.47977 0.55097 -0.03502
 Zr817 Zr 0.49069 0.53594 -0.00761
 O818 O 0.50908 0.51795 -0.02780
 Zr819 Zr 0.46539 0.49361 0.00866
 O820 O 0.48300 0.47388 -0.01049
 Zr821 Zr 0.50769 0.50977 0.03388
 O822 O 0.52725 0.49112 0.01557
 Zr823 Zr 0.49317 0.49076 -0.03653
 O824 O 0.47364 0.50997 -0.01845
 Zr825 Zr 0.53554 0.50726 -0.01163
 O826 O 0.51813 0.52692 0.00809
 Zr827 Zr 0.51055 0.46501 0.00495
 O828 O 0.49157 0.48253 0.02519
 O829 O 0.48092 0.52008 0.01887
 O830 O 0.52029 0.48045 -0.02183
 C831 C 0.49934 0.55762 0.03470
 C832 C 0.44304 0.53608 0.00062
 C833 C 0.46591 0.50053 0.05642
 C834 C 0.50341 0.44345 -0.03771
 C835 C 0.53538 0.49715 -0.05892
 C836 C 0.55782 0.46465 -0.00558
 H837 H 0.51272 0.52640 -0.04015
 H838 H 0.53964 0.48709 0.02384
 H839 H 0.47208 0.52875 0.02795
 H840 H 0.47444 0.46170 -0.01446
 H841 H 0.45983 0.46922 -0.04508
 H842 H 0.43892 0.49006 -0.02139
 H843 H 0.56367 0.51184 0.01698
 H844 H 0.54217 0.52951 0.03994
 H845 H 0.47573 0.51985 -0.05802
 H846 H 0.47526 0.56533 -0.03154
 H847 H 0.53231 0.45606 0.03791
 H848 H 0.51238 0.47905 0.05938
 H849 H 0.50512 0.57360 -0.01505
 H850 H 0.54445 0.54035 -0.03323
 H851 H 0.45933 0.45860 0.02739
 H852 H 0.48193 0.43654 0.00836
 O853 O -0.05956 0.01508 0.50778
 O854 O -0.05986 -0.01852 0.48880
 O855 O -0.01764 0.00528 0.55832
 O856 O 0.01718 -0.00845 0.56124
 O857 O -0.00838 0.05737 0.51692
 O858 O 0.00567 0.06049 0.48253
 O859 O 0.04038 -0.04607 0.50312
 O860 O 0.01812 -0.05159 0.53486
 O861 O -0.00304 -0.04166 0.45503
 O862 O -0.03599 -0.01886 0.45046
 O863 O 0.04447 0.00248 0.45983
 O864 O 0.05004 0.03385 0.48176
 O865 O 0.05738 -0.01706 0.49180
 O866 O 0.06047 0.01827 0.50683
 O867 O 0.01577 -0.00899 0.44234
 O868 O -0.01848 0.00416 0.43783
 O869 O 0.00867 -0.05899 0.48369
 O870 O -0.00699 -0.06337 0.51585
 O871 O -0.04229 0.04390 0.49617
 O872 O -0.02087 0.05027 0.46666
 O873 O 0.00291 0.03964 0.54556
 O874 O 0.03256 0.01856 0.55165
 O875 O -0.04645 -0.00583 0.54063
 O876 O -0.05082 -0.03604 0.51991
 Zr877 Zr -0.03633 -0.00805 0.50969
 O878 O -0.01791 -0.02766 0.49109
 Zr879 Zr 0.00557 0.00860 0.53552
 O880 O 0.02572 -0.00995 0.51772
 Zr881 Zr -0.01100 0.03438 0.49378
 O882 O 0.00805 0.01669 0.47404
 Zr883 Zr 0.00940 -0.03621 0.50696
 O884 O -0.01020 -0.01876 0.52664
 Zr885 Zr -0.00750 -0.01077 0.46512
 O886 O -0.02758 0.00837 0.48273
 Zr887 Zr 0.03433 0.00619 0.49063
 O888 O 0.01637 0.02585 0.50984
 O889 O -0.02107 0.01864 0.52008
 O890 O 0.01946 -0.02078 0.48030
 C891 C -0.05887 0.03414 0.50163
 C892 C -0.03672 -0.00079 0.55736
 C893 C -0.00239 0.05640 0.53596
 C894 C 0.05671 -0.03637 0.49697
 C895 C 0.00343 -0.05809 0.46448
 C896 C 0.03500 -0.00357 0.44332
 H897 H -0.02610 -0.04013 0.48717
 H898 H 0.01194 0.02527 0.46189
 H899 H -0.02996 0.02742 0.52901
 H900 H 0.03797 -0.01386 0.52624
 H901 H 0.03106 -0.04502 0.54013
 H902 H 0.00980 -0.02201 0.56124
 H903 H -0.01251 0.01837 0.43762
 H904 H -0.03064 0.04080 0.45936
 H905 H -0.01925 -0.05859 0.52376
 H906 H -0.06525 -0.03289 0.52436
 H907 H 0.04261 0.03982 0.46963
 H908 H 0.01922 0.06061 0.48997
 H909 H -0.07378 -0.01599 0.49490
 H910 H -0.04012 -0.03284 0.45553
 H911 H 0.04014 0.02798 0.54210
 H912 H 0.06270 0.00958 0.51936
 O913 O 0.74676 0.29543 0.20622
 O914 O 0.71415 0.29736 0.22684
 O915 O 0.79536 0.29043 0.25072
 O916 O 0.80132 0.26860 0.28077
 O917 O 0.78978 0.24516 0.20198
 O918 O 0.76754 0.21507 0.19719
 O919 O 0.74245 0.23369 0.30587
 O920 O 0.75862 0.26943 0.30765
 O921 O 0.69171 0.24329 0.26534
 O922 O 0.68986 0.25919 0.22831
 O923 O 0.73161 0.19223 0.25653
 O924 O 0.76682 0.18831 0.24115
 O925 O 0.75267 0.20464 0.28851
 O926 O 0.78250 0.19747 0.26636
 O927 O 0.70309 0.21029 0.24550
 O928 O 0.69546 0.23053 0.21640
 O929 O 0.71011 0.25393 0.29370
 O930 O 0.72980 0.28360 0.29863
 O931 O 0.75653 0.26601 0.18907
 O932 O 0.74143 0.23186 0.18656
 O933 O 0.80782 0.25659 0.23033
 O934 O 0.81128 0.24233 0.26446
 O935 O 0.76681 0.30831 0.23922
 O936 O 0.73340 0.31159 0.25481
 Zr937 Zr 0.74330 0.28546 0.23727
 O938 O 0.72388 0.26800 0.25707
 Zr939 Zr 0.78516 0.25931 0.25363
 O940 O 0.76737 0.24052 0.27367
 Zr941 Zr 0.75878 0.24290 0.21228
 O942 O 0.73949 0.22376 0.23055
 Zr943 Zr 0.74073 0.25698 0.28285
 O944 O 0.75966 0.27670 0.26445
 Zr945 Zr 0.71400 0.24094 0.24158
 O946 O 0.73191 0.25938 0.22093
 Zr947 Zr 0.75567 0.21457 0.25751
 O948 O 0.77587 0.23194 0.23809
 O949 O 0.76949 0.26944 0.22724
 O950 O 0.72940 0.23029 0.26819
 C951 C 0.75171 0.28542 0.18972
 C952 C 0.78594 0.30720 0.24507
 C953 C 0.80660 0.25075 0.21132
 C954 C 0.74758 0.21439 0.30507
 C955 C 0.69317 0.24865 0.28447
 C956 C 0.71233 0.19352 0.25130
 H957 H 0.71209 0.27685 0.26146
 H958 H 0.73491 0.21169 0.22218
 H959 H 0.77850 0.27815 0.21829
 H960 H 0.77613 0.23637 0.28565
 H961 H 0.77019 0.25968 0.31065
 H962 H 0.79259 0.27928 0.28756
 H963 H 0.70455 0.22211 0.20736
 H964 H 0.72813 0.23966 0.18645
 H965 H 0.73426 0.29578 0.29031
 H966 H 0.73453 0.32433 0.24611
 H967 H 0.75777 0.18627 0.22885
 H968 H 0.77801 0.20822 0.20625
 H969 H 0.71639 0.31070 0.21935
 H970 H 0.68577 0.26980 0.23862
 H971 H 0.81078 0.22863 0.25746
 H972 H 0.78995 0.20558 0.27713
 O973 O 0.75314 0.70443 0.71232
 O974 O 0.78465 0.70203 0.73310
 O975 O 0.70406 0.70932 0.75570
 O976 O 0.69766 0.73208 0.78588
 O977 O 0.70847 0.75390 0.70659
 O978 O 0.72998 0.78407 0.70100
 O979 O 0.75750 0.76722 0.81062
 O980 O 0.74117 0.73624 0.81434
 O981 O 0.80742 0.75847 0.76961
 O982 O 0.80878 0.74224 0.73280
 O983 O 0.76622 0.80865 0.76018
 O984 O 0.73096 0.81202 0.74533
 O985 O 0.74624 0.79580 0.79267
 O986 O 0.71546 0.80218 0.77034
 O987 O 0.79498 0.79110 0.74944
 O988 O 0.80242 0.77065 0.72043
 O989 O 0.78959 0.74830 0.79839
 O990 O 0.76909 0.71528 0.80063
 O991 O 0.74236 0.73325 0.69439
 O992 O 0.75652 0.76786 0.69109
 O993 O 0.69091 0.74288 0.73525
 O994 O 0.68765 0.75745 0.76912
 O995 O 0.73283 0.69181 0.74466
 O996 O 0.76607 0.69068 0.76332
 Zr997 Zr 0.75599 0.71500 0.74315
 O998 O 0.77560 0.73325 0.76211
 Zr999 Zr 0.71383 0.74063 0.75860
 O1000 O 0.73179 0.75975 0.77820
 Zr1001 Zr 0.73955 0.75683 0.71694
 O1002 O 0.75859 0.77670 0.73478
 Zr1003 Zr 0.75885 0.74404 0.78775
 O1004 O 0.73960 0.72382 0.77006
 Zr1005 Zr 0.78463 0.76021 0.74599
 O1006 O 0.76675 0.74096 0.72608
 Zr1007 Zr 0.74267 0.78582 0.76169
 O1008 O 0.72258 0.76791 0.74251
 O1009 O 0.72947 0.73040 0.73252
 O1010 O 0.76939 0.77073 0.77244
 C1011 C 0.74790 0.71403 0.69555
 C1012 C 0.71365 0.69269 0.75013
 C1013 C 0.69181 0.74838 0.71610
 C1014 C 0.75197 0.78641 0.80940
 C1015 C 0.80632 0.75356 0.78891
 C1016 C 0.78546 0.80772 0.75496
 H1017 H 0.78767 0.72472 0.76656
 H1018 H 0.76274 0.78879 0.72619
 H1019 H 0.72062 0.72149 0.72358
 H1020 H 0.72326 0.76370 0.79030
 H1021 H 0.73344 0.72333 0.81098
 H1022 H 0.70467 0.71961 0.79166
 H1023 H 0.79317 0.77929 0.71160
 H1024 H 0.76997 0.76032 0.69121
 H1025 H 0.77455 0.71804 0.81479
 H1026 H 0.76462 0.67714 0.75608
 H1027 H 0.73919 0.81360 0.73248
 H1028 H 0.71985 0.79116 0.71010
 H1029 H 0.78210 0.68774 0.72784
 H1030 H 0.81289 0.73146 0.74306
 H1031 H 0.68795 0.77110 0.76191
 H1032 H 0.70887 0.79439 0.78185
 O1033 O 0.19054 0.25794 0.73438
 O1034 O 0.18901 0.24056 0.76784
 O1035 O 0.23214 0.30885 0.74353
 O1036 O 0.26663 0.31226 0.75773
 O1037 O 0.24252 0.26659 0.69283
 O1038 O 0.25648 0.23206 0.69073
 O1039 O 0.28917 0.25442 0.79777
 O1040 O 0.26916 0.28397 0.80375
 O1041 O 0.24691 0.20530 0.79254
 O1042 O 0.21264 0.20337 0.76974
 O1043 O 0.29430 0.20990 0.74997
 O1044 O 0.30095 0.23165 0.71882
 O1045 O 0.30668 0.24241 0.76957
 O1046 O 0.31071 0.25697 0.73404
 O1047 O 0.26545 0.19224 0.76068
 O1048 O 0.23247 0.18753 0.74691
 O1049 O 0.25784 0.23433 0.80962
 O1050 O 0.23814 0.27026 0.80934
 O1051 O 0.20828 0.24623 0.70614
 O1052 O 0.22992 0.21637 0.70063
 O1053 O 0.25349 0.29559 0.71004
 O1054 O 0.28293 0.30178 0.73195
 O1055 O 0.20325 0.29122 0.75435
 O1056 O 0.20052 0.27086 0.78595
 Zr1057 Zr 0.21361 0.26025 0.75766
 O1058 O 0.23161 0.24143 0.77789
 Zr1059 Zr 0.25559 0.28598 0.74125
 O1060 O 0.27521 0.26831 0.76075
 Zr1061 Zr 0.23950 0.24376 0.71618
 O1062 O 0.25833 0.22419 0.73461
 Zr1063 Zr 0.25851 0.25779 0.78674
 O1064 O 0.23954 0.27751 0.76831
 Zr1065 Zr 0.24234 0.21534 0.76165
 O1066 O 0.22260 0.23296 0.74190
 Zr1067 Zr 0.28432 0.24091 0.74554
 O1068 O 0.26673 0.25989 0.72497
 O1069 O 0.22914 0.27036 0.73111
 O1070 O 0.26889 0.23087 0.77208
 C1071 C 0.19153 0.25169 0.71548
 C1072 C 0.21299 0.30794 0.74921
 C1073 C 0.24852 0.28567 0.69346
 C1074 C 0.30567 0.24802 0.78865
 C1075 C 0.25298 0.21496 0.80889
 C1076 C 0.28477 0.19328 0.75580
 H1077 H 0.22315 0.23734 0.79006
 H1078 H 0.26247 0.21195 0.72633
 H1079 H 0.22034 0.27918 0.72197
 H1080 H 0.28734 0.27689 0.76485
 H1081 H 0.27793 0.29245 0.79439
 H1082 H 0.25901 0.31251 0.77106
 H1083 H 0.23743 0.18810 0.73242
 H1084 H 0.21951 0.20948 0.70965
 H1085 H 0.24225 0.26472 0.82315
 H1086 H 0.18636 0.27643 0.78321
 H1087 H 0.29344 0.21974 0.71253
 H1088 H 0.27017 0.23918 0.69098
 H1089 H 0.17555 0.24798 0.76617
 H1090 H 0.21454 0.19238 0.78044
 H1091 H 0.29050 0.29216 0.72269
 H1092 H 0.31272 0.26963 0.74254
 O1093 O 0.20986 0.74677 0.29454
 O1094 O 0.23038 0.71493 0.29628
 O1095 O 0.25406 0.79558 0.28937
 O1096 O 0.28423 0.80188 0.26633
 O1097 O 0.20413 0.79213 0.24575
 O1098 O 0.19776 0.77131 0.21556
 O1099 O 0.30748 0.74229 0.23074
 O1100 O 0.31182 0.75846 0.26175
 O1101 O 0.26591 0.69280 0.23867
 O1102 O 0.23251 0.69111 0.25834
 O1103 O 0.25604 0.73406 0.19029
 O1104 O 0.24153 0.76977 0.18716
 O1105 O 0.28921 0.75390 0.20253
 O1106 O 0.26735 0.78480 0.19636
 O1107 O 0.24512 0.70511 0.20778
 O1108 O 0.21541 0.70089 0.22616
 O1109 O 0.29502 0.71015 0.24938
 O1110 O 0.29802 0.73004 0.28244
 O1111 O 0.19163 0.75806 0.26615
 O1112 O 0.18759 0.74501 0.23050
 O1113 O 0.23334 0.80936 0.25637
 O1114 O 0.26706 0.81248 0.24142
 O1115 O 0.24272 0.76672 0.30677
 O1116 O 0.26090 0.73331 0.30754
 Zr1117 Zr 0.24053 0.74380 0.28356
 O1118 O 0.25903 0.72434 0.26500
 Zr1119 Zr 0.25639 0.78615 0.25810
 O1120 O 0.27547 0.76823 0.23868
 Zr1121 Zr 0.21393 0.76098 0.24236
 O1122 O 0.23132 0.74195 0.22238
 Zr1123 Zr 0.28488 0.74094 0.25410
 O1124 O 0.26768 0.76008 0.27458
 Zr1125 Zr 0.24234 0.71561 0.23841
 O1126 O 0.22274 0.73339 0.25790
 Zr1127 Zr 0.25834 0.75770 0.21289
 O1128 O 0.23972 0.77783 0.23108
 O1129 O 0.23011 0.77062 0.26853
 O1130 O 0.26890 0.73086 0.22773
 C1131 C 0.19298 0.75226 0.28524
 C1132 C 0.24851 0.78587 0.30594
 C1133 C 0.21401 0.80867 0.25122
 C1134 C 0.30605 0.74794 0.21165
 C1135 C 0.28531 0.69365 0.24357
 C1136 C 0.25058 0.71479 0.19121
 H1137 H 0.26335 0.71201 0.27324
 H1138 H 0.22239 0.73782 0.21052
 H1139 H 0.22140 0.77943 0.27758
 H1140 H 0.28768 0.77670 0.23460
 H1141 H 0.30881 0.76576 0.27490
 H1142 H 0.28999 0.79478 0.27875
 H1143 H 0.20405 0.70327 0.23619
 H1144 H 0.18554 0.73250 0.23927
 H1145 H 0.31219 0.72472 0.27947
 H1146 H 0.25377 0.73462 0.32108
 H1147 H 0.22864 0.76142 0.18562
 H1148 H 0.20707 0.78133 0.20844
 H1149 H 0.22514 0.71730 0.31053
 H1150 H 0.23356 0.67785 0.25056
 H1151 H 0.25973 0.81231 0.22785
 H1152 H 0.27880 0.79151 0.20423
 O1153 O 0.18889 0.74526 0.76683
 O1154 O 0.18730 0.76253 0.73325
 O1155 O 0.22958 0.69378 0.75799
 O1156 O 0.26386 0.68992 0.74365
 O1157 O 0.24107 0.73598 0.80845
 O1158 O 0.25569 0.77035 0.81051
 O1159 O 0.28695 0.74735 0.70361
 O1160 O 0.26642 0.71805 0.69765
 O1161 O 0.24554 0.79705 0.70867
 O1162 O 0.21154 0.79946 0.73105
 O1163 O 0.29320 0.79195 0.75127
 O1164 O 0.29978 0.77013 0.78258
 O1165 O 0.30490 0.75924 0.73182
 O1166 O 0.30913 0.74476 0.76732
 O1167 O 0.26450 0.80992 0.74044
 O1168 O 0.23155 0.81491 0.75441
 O1169 O 0.25584 0.76784 0.69167
 O1170 O 0.23556 0.73218 0.69195
 O1171 O 0.20710 0.75680 0.79507
 O1172 O 0.22925 0.78639 0.80054
 O1173 O 0.25146 0.70683 0.79131
 O1174 O 0.28063 0.70023 0.76948
 O1175 O 0.20085 0.71176 0.74710
 O1176 O 0.19814 0.73196 0.71533
 Zr1177 Zr 0.21168 0.74256 0.74358
 O1178 O 0.22977 0.76111 0.72335
 Zr1179 Zr 0.25343 0.71635 0.76011
 O1180 O 0.27313 0.73374 0.74062
 Zr1181 Zr 0.23825 0.75884 0.78506
 O1182 O 0.25719 0.77813 0.76662
 Zr1183 Zr 0.25634 0.74440 0.71458
 O1184 O 0.23724 0.72496 0.73300
 Zr1185 Zr 0.24103 0.78711 0.73954
 O1186 O 0.22123 0.76978 0.75929
 Zr1187 Zr 0.28281 0.76107 0.75580
 O1188 O 0.26513 0.74233 0.77636
 O1189 O 0.22734 0.73235 0.77016
 O1190 O 0.26726 0.77123 0.72921
 C1191 C 0.19017 0.75151 0.78572
 C1192 C 0.21035 0.69494 0.75239
 C1193 C 0.24674 0.71681 0.80785
 C1194 C 0.30363 0.75359 0.71275
 C1195 C 0.25132 0.78727 0.69235
 C1196 C 0.28386 0.80867 0.74535
 H1197 H 0.22127 0.76527 0.71114
 H1198 H 0.26161 0.79033 0.77488
 H1199 H 0.21850 0.72368 0.77932
 H1200 H 0.28509 0.72500 0.73657
 H1201 H 0.27510 0.70946 0.70708
 H1202 H 0.25598 0.68968 0.73038
 H1203 H 0.23719 0.81457 0.76872
 H1204 H 0.21894 0.79343 0.79143
 H1205 H 0.23964 0.73764 0.67813
 H1206 H 0.18392 0.72658 0.71809
 H1207 H 0.29259 0.78224 0.78874
 H1208 H 0.26923 0.76298 0.81034
 H1209 H 0.17375 0.75531 0.73495
 H1210 H 0.21367 0.81079 0.72076
 H1211 H 0.28841 0.70976 0.77877
 H1212 H 0.31076 0.73197 0.75896
 O1213 O 0.25845 0.26677 0.30970
 O1214 O 0.24096 0.23324 0.31107
 O1215 O 0.30914 0.25766 0.26835
 O1216 O 0.31222 0.24375 0.23389
 O1217 O 0.26736 0.30908 0.25834
 O1218 O 0.23288 0.31182 0.24404
 O1219 O 0.25402 0.20453 0.21112
 O1220 O 0.28347 0.19783 0.23112
 O1221 O 0.20513 0.20981 0.25334
 O1222 O 0.20366 0.23230 0.28753
 O1223 O 0.20985 0.25282 0.20617
 O1224 O 0.23175 0.28421 0.19978
 O1225 O 0.24226 0.23325 0.19375
 O1226 O 0.25685 0.26878 0.18992
 O1227 O 0.19232 0.24196 0.23492
 O1228 O 0.18790 0.25562 0.26779
 O1229 O 0.23383 0.19244 0.24224
 O1230 O 0.26988 0.19199 0.26197
 O1231 O 0.24690 0.29549 0.29212
 O1232 O 0.21708 0.30170 0.27040
 O1233 O 0.29613 0.29163 0.24736
 O1234 O 0.30187 0.27005 0.21774
 O1235 O 0.29152 0.24669 0.29706
 O1236 O 0.27108 0.21500 0.29953
 Zr1237 Zr 0.26054 0.24368 0.28663
 O1238 O 0.24145 0.22382 0.26859
 Zr1239 Zr 0.28618 0.26046 0.24493
 O1240 O 0.26823 0.24134 0.22527
 Zr1241 Zr 0.24429 0.28589 0.26095
 O1242 O 0.22446 0.26785 0.24209
 Zr1243 Zr 0.25756 0.21511 0.24176
 O1244 O 0.27755 0.23314 0.26077
 Zr1245 Zr 0.21549 0.24062 0.25796
 O1246 O 0.23337 0.25997 0.27771
 Zr1247 Zr 0.24092 0.25704 0.21618
 O1248 O 0.26020 0.27724 0.23382
 O1249 O 0.27076 0.27043 0.27128
 O1250 O 0.23074 0.23030 0.23146
 C1251 C 0.25235 0.28582 0.30878
 C1252 C 0.30824 0.25185 0.28744
 C1253 C 0.28644 0.30830 0.25252
 C1254 C 0.24772 0.21401 0.19467
 C1255 C 0.21453 0.19336 0.24716
 C1256 C 0.19328 0.24694 0.21565
 H1257 H 0.23730 0.21154 0.27696
 H1258 H 0.21227 0.27633 0.23797
 H1259 H 0.27967 0.27938 0.28013
 H1260 H 0.27672 0.23729 0.21319
 H1261 H 0.29211 0.20732 0.22263
 H1262 H 0.31247 0.23032 0.24151
 H1263 H 0.18846 0.27017 0.26271
 H1264 H 0.21012 0.29258 0.28068
 H1265 H 0.26411 0.17826 0.25786
 H1266 H 0.27676 0.21751 0.31366
 H1267 H 0.21979 0.29039 0.20716
 H1268 H 0.23999 0.31163 0.23044
 H1269 H 0.24847 0.23469 0.32449
 H1270 H 0.19256 0.22171 0.28562
 H1271 H 0.29237 0.27975 0.21036
 H1272 H 0.26964 0.26040 0.18813
 O1273 O 0.74662 0.70583 0.29284
 O1274 O 0.71377 0.70426 0.27216
 O1275 O 0.79485 0.70989 0.24840
 O1276 O 0.80076 0.73142 0.21812
 O1277 O 0.79069 0.75550 0.29679
 O1278 O 0.76902 0.78586 0.30154
 O1279 O 0.74240 0.76715 0.19286
 O1280 O 0.75769 0.73113 0.19130
 O1281 O 0.69184 0.75863 0.23353
 O1282 O 0.69015 0.74282 0.27056
 O1283 O 0.73281 0.80902 0.24226
 O1284 O 0.76838 0.81237 0.25745
 O1285 O 0.75325 0.79614 0.21011
 O1286 O 0.78335 0.80304 0.23211
 O1287 O 0.70411 0.79149 0.25345
 O1288 O 0.69649 0.77133 0.28248
 O1289 O 0.70966 0.74756 0.20521
 O1290 O 0.72871 0.71758 0.20033
 O1291 O 0.75722 0.73515 0.30984
 O1292 O 0.74277 0.76955 0.31221
 O1293 O 0.80816 0.74368 0.26849
 O1294 O 0.81142 0.75761 0.23422
 O1295 O 0.76613 0.69250 0.26000
 O1296 O 0.73253 0.68962 0.24430
 Zr1297 Zr 0.74303 0.71569 0.26174
 O1298 O 0.72367 0.73337 0.24187
 Zr1299 Zr 0.78514 0.74113 0.24523
 O1300 O 0.76744 0.76010 0.22514
 Zr1301 Zr 0.75958 0.75812 0.28653
 O1302 O 0.74043 0.77747 0.26819
 Zr1303 Zr 0.74038 0.74404 0.21604
 O1304 O 0.75919 0.72409 0.23450
 Zr1305 Zr 0.71448 0.76065 0.25726
 O1306 O 0.73231 0.74201 0.27797
 Zr1307 Zr 0.75642 0.78630 0.24117
 O1308 O 0.77655 0.76870 0.26065
 O1309 O 0.76963 0.73136 0.27168
 O1310 O 0.72971 0.77097 0.23058
 C1311 C 0.75199 0.71583 0.30929
 C1312 C 0.78523 0.69330 0.25420
 C1313 C 0.80730 0.74966 0.28746
 C1314 C 0.74790 0.78637 0.19357
 C1315 C 0.69295 0.75315 0.21443
 C1316 C 0.71363 0.80810 0.24768
 H1317 H 0.71167 0.72470 0.23752
 H1318 H 0.73621 0.78963 0.27654
 H1319 H 0.77859 0.72259 0.28069
 H1320 H 0.77614 0.76405 0.21314
 H1321 H 0.76958 0.74052 0.18843
 H1322 H 0.79183 0.72071 0.21151
 H1323 H 0.70584 0.77963 0.29149
 H1324 H 0.72937 0.76188 0.31243
 H1325 H 0.73283 0.70536 0.20880
 H1326 H 0.73352 0.67691 0.25308
 H1327 H 0.75946 0.81470 0.26970
 H1328 H 0.77949 0.79254 0.29245
 H1329 H 0.71586 0.69093 0.27971
 H1330 H 0.68574 0.73225 0.26027
 H1331 H 0.81133 0.77134 0.24121
 H1332 H 0.79068 0.79462 0.22159
 O1333 O 0.70298 0.28806 0.74513
 O1334 O 0.70045 0.26776 0.71322
 O1335 O 0.70794 0.24354 0.79344
 O1336 O 0.73055 0.21289 0.79958
 O1337 O 0.75287 0.29244 0.78932
 O1338 O 0.78292 0.29802 0.76814
 O1339 O 0.76484 0.18868 0.73973
 O1340 O 0.73389 0.18509 0.75620
 O1341 O 0.75694 0.23054 0.69045
 O1342 O 0.73796 0.26449 0.68903
 O1343 O 0.80637 0.23911 0.73095
 O1344 O 0.81033 0.25348 0.76649
 O1345 O 0.79371 0.20621 0.75089
 O1346 O 0.80083 0.22783 0.78153
 O1347 O 0.78862 0.25046 0.70231
 O1348 O 0.77082 0.28066 0.69829
 O1349 O 0.74583 0.20169 0.70792
 O1350 O 0.71293 0.19953 0.72826
 O1351 O 0.73208 0.30546 0.75595
 O1352 O 0.76764 0.30855 0.74207
 O1353 O 0.74170 0.26358 0.80672
 O1354 O 0.75608 0.22942 0.80973
 O1355 O 0.69030 0.25533 0.76487
 O1356 O 0.68863 0.23746 0.73157
 Zr1357 Zr 0.71331 0.25709 0.74181
 O1358 O 0.73122 0.23807 0.72223
 Zr1359 Zr 0.73915 0.24050 0.78370
 O1360 O 0.75792 0.22088 0.76563
 Zr1361 Zr 0.75551 0.28254 0.75831
 O1362 O 0.77486 0.26463 0.73915
 Zr1363 Zr 0.74184 0.21190 0.73866
 O1364 O 0.72199 0.22966 0.75795
 Zr1365 Zr 0.75811 0.25406 0.71315
 O1366 O 0.73928 0.27420 0.73106
 Zr1367 Zr 0.78401 0.23734 0.75477
 O1368 O 0.76650 0.25644 0.77502
 O1369 O 0.72905 0.26705 0.76830
 O1370 O 0.76849 0.22719 0.72824
 C1371 C 0.71278 0.30465 0.75058
 C1372 C 0.69128 0.24947 0.78394
 C1373 C 0.74734 0.28277 0.80588
 C1374 C 0.78411 0.18961 0.74510
 C1375 C 0.75159 0.21127 0.69139
 C1376 C 0.80527 0.24463 0.71177
 H1377 H 0.72266 0.23398 0.71007
 H1378 H 0.78689 0.27325 0.73487
 H1379 H 0.72029 0.27594 0.77723
 H1380 H 0.76187 0.20855 0.77403
 H1381 H 0.72091 0.18842 0.76368
 H1382 H 0.71797 0.20734 0.79258
 H1383 H 0.76109 0.29231 0.70081
 H1384 H 0.75849 0.31095 0.72990
 H1385 H 0.71551 0.18531 0.72286
 H1386 H 0.67525 0.24502 0.73297
 H1387 H 0.81208 0.26631 0.75810
 H1388 H 0.79003 0.28853 0.77805
 H1389 H 0.68635 0.27348 0.71576
 H1390 H 0.74553 0.26327 0.67571
 H1391 H 0.76982 0.23646 0.80938
 H1392 H 0.79272 0.21667 0.78840
 C1393 C 0.06662 1.00666 1.11307
 C1394 C 0.06659 1.02618 1.12328
 C1395 C 0.07669 1.02834 1.14285
 C1396 C 0.08671 1.01095 1.15213
 C1397 C 0.08682 0.99147 1.14188
 C1398 C 0.07675 0.98932 1.12228
 C1399 C 0.07706 0.96969 1.11232
 C1400 C 0.08702 0.95266 1.12148
 C1401 C 0.09685 0.95476 1.14065
 C1402 C 0.09680 0.97391 1.15081
 C1403 C 0.07648 1.04803 1.15274
 C1404 C 0.06648 1.06505 1.14362
 C1405 C 0.05651 1.06291 1.12454
 C1406 C 0.05655 1.04376 1.11439
 C1407 C 0.09685 1.01324 1.17220
 C1408 C 0.10514 1.01584 1.18884
 C1409 C 0.05595 1.00448 1.09326
 C1410 C 0.04674 1.00326 1.07695
 H1411 H 0.06963 0.96730 1.09739
 H1412 H 0.08711 0.93775 1.11366
 H1413 H 0.10457 0.94148 1.14770
 H1414 H 0.10465 0.97479 1.16570
 H1415 H 0.08399 1.05049 1.16762
 H1416 H 0.06643 1.07997 1.15142
 H1417 H 0.04866 1.07614 1.11758
 H1418 H 0.04862 1.04292 1.09954
 C1419 C 0.57030 0.50712 0.60924
 C1420 C 0.57972 0.52629 0.61480
 C1421 C 0.59009 0.52822 0.63426
 C1422 C 0.59095 0.51096 0.64803
 C1423 C 0.58196 0.49165 0.64224
 C1424 C 0.57160 0.48973 0.62278
 C1425 C 0.56263 0.47030 0.61737
 C1426 C 0.56387 0.45326 0.63081
 C1427 C 0.57400 0.45515 0.64984
 C1428 C 0.58297 0.47409 0.65558
 C1429 C 0.59931 0.54757 0.63953
 C1430 C 0.59834 0.56452 0.62595
 C1431 C 0.58819 0.56263 0.60693
 C1432 C 0.57893 0.54379 0.60135
 C1433 C 0.60050 0.51327 0.66837
 C1434 C 0.60816 0.51557 0.68534
 C1435 C 0.55878 0.50548 0.58986
 C1436 C 0.54894 0.50429 0.57393
 H1437 H 0.55461 0.46806 0.60272
 H1438 H 0.55694 0.43852 0.62642
 H1439 H 0.57493 0.44187 0.66022
 H1440 H 0.59071 0.47479 0.67053
 H1441 H 0.60741 0.54979 0.65414
 H1442 H 0.60549 0.57919 0.63022
 H1443 H 0.58747 0.57584 0.59643
 H1444 H 0.57125 0.54309 0.58636
 C1445 C 0.43095 -0.00419 0.61039
 C1446 C 0.43424 0.01085 0.62612
 C1447 C 0.42392 0.00880 0.64550
 C1448 C 0.41040 -0.00829 0.64904
 C1449 C 0.40667 -0.02302 0.63311
 C1450 C 0.41696 -0.02096 0.61372
 C1451 C 0.41305 -0.03593 0.59807
 C1452 C 0.39934 -0.05244 0.60146
 C1453 C 0.38932 -0.05449 0.62042
 C1454 C 0.39289 -0.04000 0.63613
 C1455 C 0.42753 0.02398 0.66102
 C1456 C 0.44093 0.04071 0.65748
 C1457 C 0.45103 0.04271 0.63854
 C1458 C 0.44779 0.02799 0.62299
 C1459 C 0.40087 -0.01113 0.66925
 C1460 C 0.39317 -0.01398 0.68606
 C1461 C 0.44244 -0.00284 0.59107
 C1462 C 0.45218 -0.00213 0.57514
 H1463 H 0.42045 -0.03500 0.58304
 H1464 H 0.39648 -0.06370 0.58930
 H1465 H 0.37870 -0.06736 0.62298
 H1466 H 0.38468 -0.04224 0.65060
 H1467 H 0.42000 0.02311 0.67599
 H1468 H 0.44350 0.05219 0.66951
 H1469 H 0.46142 0.05574 0.63588
 H1470 H 0.45596 0.03024 0.60850
 C1471 C -0.06759 0.49444 1.11269
 C1472 C -0.07746 0.51171 1.12206
 C1473 C -0.08741 0.50929 1.14159
 C1474 C -0.08745 0.48960 1.15159
 C1475 C -0.07779 0.47226 1.14210
 C1476 C -0.06779 0.47470 1.12261
 C1477 C -0.05809 0.45716 1.11351
 C1478 C -0.05825 0.43781 1.12339
 C1479 C -0.06811 0.43540 1.14240
 C1480 C -0.07779 0.45237 1.15172
 C1481 C -0.09710 0.52680 1.15070
 C1482 C -0.09699 0.54615 1.14079
 C1483 C -0.08728 0.54851 1.12168
 C1484 C -0.07760 0.53154 1.11235
 C1485 C -0.09725 0.48714 1.17171
 C1486 C -0.10522 0.48459 1.18843
 C1487 C -0.05684 0.49696 1.09307
 C1488 C -0.04754 0.49847 1.07693
 H1489 H -0.05027 0.45821 1.09870
 H1490 H -0.05065 0.42461 1.11628
 H1491 H -0.06823 0.42032 1.14999
 H1492 H -0.08523 0.44971 1.16653
 H1493 H -0.10485 0.52572 1.16554
 H1494 H -0.10448 0.55937 1.14797
 H1495 H -0.08725 0.56357 1.11404
 H1496 H -0.07026 0.53414 1.09748
 C1497 C -0.06850 0.50762 0.38934
 C1498 C -0.06719 0.52685 0.37855
 C1499 C -0.07718 0.52920 0.35893
 C1500 C -0.08837 0.51228 0.35019
 C1501 C -0.08985 0.49313 0.36108
 C1502 C -0.07989 0.49080 0.38073
 C1503 C -0.08154 0.47149 0.39131
 C1504 C -0.09270 0.45495 0.38271
 C1505 C -0.10242 0.45722 0.36349
 C1506 C -0.10106 0.47606 0.35273
 C1507 C -0.07563 0.54856 0.34841
 C1508 C -0.06444 0.56509 0.35699
 C1509 C -0.05459 0.56277 0.37612
 C1510 C -0.05594 0.54393 0.38688
 C1511 C -0.09819 0.51461 0.32995
 C1512 C -0.10618 0.51703 0.31313
 C1513 C -0.05768 0.50507 0.40903
 C1514 C -0.04827 0.50326 0.42518
 H1515 H -0.07426 0.46898 0.40631
 H1516 H -0.09381 0.44029 0.39101
 H1517 H -0.11106 0.44432 0.35688
 H1518 H -0.10889 0.47709 0.33783
 H1519 H -0.08300 0.55114 0.33347
 H1520 H -0.06337 0.57978 0.34871
 H1521 H -0.04581 0.57561 0.38264
 H1522 H -0.04806 0.54293 0.40175
 C1523 C 0.43417 1.00680 -0.11300
 C1524 C 0.43376 1.02651 -0.12299
 C1525 C 0.42360 1.02878 -0.14254
 C1526 C 0.41396 1.01133 -0.15201
 C1527 C 0.41430 0.99165 -0.14198
 C1528 C 0.42442 0.98939 -0.12240
 C1529 C 0.42456 0.96957 -0.11267
 C1530 C 0.41498 0.95247 -0.12202
 C1531 C 0.40510 0.95468 -0.14117
 C1532 C 0.40471 0.97401 -0.15111
 C1533 C 0.42338 1.04865 -0.15221
 C1534 C 0.43300 1.06574 -0.14289
 C1535 C 0.44301 1.06350 -0.12383
 C1536 C 0.44339 1.04417 -0.11390
 C1537 C 0.40376 1.01371 -0.17207
 C1538 C 0.39540 1.01630 -0.18870
 C1539 C 0.44490 1.00450 -0.09321
 C1540 C 0.45412 1.00312 -0.07691
 H1541 H 0.43205 0.96709 -0.09777
 H1542 H 0.41524 0.93741 -0.11437
 H1543 H 0.39769 0.94134 -0.14836
 H1544 H 0.39683 0.97497 -0.16598
 H1545 H 0.41582 1.05119 -0.16706
 H1546 H 0.43272 1.08081 -0.15053
 H1547 H 0.45055 1.07680 -0.11671
 H1548 H 0.45133 1.04325 -0.09906
 C1549 C 0.56704 0.49151 -0.11351
 C1550 C 0.57838 0.50842 -0.12205
 C1551 C 0.58853 0.50613 -0.14147
 C1552 C 0.58730 0.48694 -0.15221
 C1553 C 0.57615 0.46996 -0.14357
 C1554 C 0.56595 0.47227 -0.12418
 C1555 C 0.55474 0.45512 -0.11593
 C1556 C 0.55364 0.43626 -0.12655
 C1557 C 0.56371 0.43396 -0.14544
 C1558 C 0.57485 0.45056 -0.15393
 C1559 C 0.59972 0.52325 -0.14973
 C1560 C 0.60087 0.54210 -0.13909
 C1561 C 0.59096 0.54434 -0.12010
 C1562 C 0.57981 0.52775 -0.11160
 C1563 C 0.59737 0.48464 -0.17221
 C1564 C 0.60557 0.48226 -0.18882
 C1565 C 0.55621 0.49396 -0.09395
 C1566 C 0.54689 0.49565 -0.07785
 H1567 H 0.54670 0.45610 -0.10125
 H1568 H 0.54488 0.42336 -0.12010
 H1569 H 0.56285 0.41925 -0.15359
 H1570 H 0.58240 0.44801 -0.16868
 H1571 H 0.60769 0.52225 -0.16445
 H1572 H 0.60952 0.55504 -0.14562
 H1573 H 0.59190 0.55902 -0.11190
 H1574 H 0.57237 0.53023 -0.09679
 C1575 C 0.06775 -0.00618 0.38907
 C1576 C 0.06006 0.00443 0.37130
 C1577 C 0.07064 0.00268 0.35205
 C1578 C 0.08882 -0.00970 0.35066
 C1579 C 0.09675 -0.01998 0.36854
 C1580 C 0.08620 -0.01818 0.38781
 C1581 C 0.09443 -0.02860 0.40545
 C1582 C 0.11258 -0.04041 0.40411
 C1583 C 0.12283 -0.04224 0.38526
 C1584 C 0.11508 -0.03218 0.36762
 C1585 C 0.06260 0.01337 0.33449
 C1586 C 0.04464 0.02545 0.33589
 C1587 C 0.03429 0.02714 0.35471
 C1588 C 0.04183 0.01679 0.37225
 C1589 C 0.09894 -0.01240 0.33073
 C1590 C 0.10705 -0.01502 0.31410
 C1591 C 0.05642 -0.00511 0.40850
 C1592 C 0.04676 -0.00435 0.42448
 H1593 H 0.08699 -0.02766 0.42046
 H1594 H 0.11874 -0.04814 0.41779
 H1595 H 0.13691 -0.05146 0.38431
 H1596 H 0.12364 -0.03402 0.35332
 H1597 H 0.07012 0.01256 0.31952
 H1598 H 0.03872 0.03353 0.32231
 H1599 H 0.02033 0.03654 0.35572
 H1600 H 0.03325 0.01861 0.38654
 C1601 C 0.11263 1.06902 1.00620
 C1602 C 0.13027 1.06180 0.99526
 C1603 C 0.14971 1.07226 0.99743
 C1604 C 0.15139 1.08985 1.01056
 C1605 C 0.13364 1.09735 1.02114
 C1606 C 0.11419 1.08692 1.01893
 C1607 C 0.09667 1.09469 1.02967
 C1608 C 0.09831 1.11228 1.04222
 C1609 C 0.11733 1.12243 1.04444
 C1610 C 0.13485 1.11512 1.03407
 C1611 C 0.16714 1.06471 0.98641
 C1612 C 0.16543 1.04731 0.97361
 C1613 C 0.14644 1.03707 0.97150
 C1614 C 0.12901 1.04416 0.98217
 C1615 C 0.17151 1.09978 1.01373
 C1616 C 0.18827 1.10777 1.01678
 C1617 C 0.09306 1.05771 1.00481
 C1618 C 0.07691 1.04813 1.00391
 H1619 H 0.08153 1.08732 1.02844
 H1620 H 0.08473 1.11808 1.05022
 H1621 H 0.11852 1.13607 1.05423
 H1622 H 0.14930 1.12357 1.03624
 H1623 H 0.18224 1.07217 0.98753
 H1624 H 0.17892 1.04175 0.96529
 H1625 H 0.14519 1.02357 0.96154
 H1626 H 0.11457 1.03570 0.98000
 C1627 C 0.61340 0.56776 0.50912
 C1628 C 0.62216 0.57883 0.49221
 C1629 C 0.64173 0.58899 0.49459
 C1630 C 0.65241 0.58805 0.51387
 C1631 C 0.64354 0.57717 0.53085
 C1632 C 0.62400 0.56696 0.52845
 C1633 C 0.61553 0.55604 0.54560
 C1634 C 0.62608 0.55520 0.56456
 C1635 C 0.64513 0.56527 0.56693
 C1636 C 0.65383 0.57615 0.55033
 C1637 C 0.65022 0.59987 0.47745
 C1638 C 0.63965 0.60072 0.45850
 C1639 C 0.62051 0.59081 0.45618
 C1640 C 0.61179 0.57996 0.47278
 C1641 C 0.67256 0.59811 0.51626
 C1642 C 0.68931 0.60631 0.51870
 C1643 C 0.59371 0.55685 0.50657
 C1644 C 0.57753 0.54746 0.50473
 H1645 H 0.60072 0.54801 0.54456
 H1646 H 0.61947 0.54666 0.57746
 H1647 H 0.65323 0.56461 0.58171
 H1648 H 0.66870 0.58371 0.55295
 H1649 H 0.66506 0.60784 0.47851
 H1650 H 0.64636 0.60912 0.44555
 H1651 H 0.61237 0.59152 0.44142
 H1652 H 0.59686 0.57250 0.47023
 C1653 C 0.61230 0.43189 -0.00941
 C1654 C 0.61338 0.41349 -0.02145
 C1655 C 0.63265 0.40279 -0.02343
 C1656 C 0.65071 0.41051 -0.01331
 C1657 C 0.64954 0.42867 -0.00094
 C1658 C 0.63029 0.43940 0.00100
 C1659 C 0.62955 0.45759 0.01336
 C1660 C 0.64730 0.46494 0.02354
 C1661 C 0.66611 0.45443 0.02167
 C1662 C 0.66732 0.43651 0.00958
 C1663 C 0.63337 0.38451 -0.03566
 C1664 C 0.61554 0.37695 -0.04554
 C1665 C 0.59668 0.38735 -0.04352
 C1666 C 0.59553 0.40546 -0.03170
 C1667 C 0.67060 0.40014 -0.01607
 C1668 C 0.68720 0.39179 -0.01872
 C1669 C 0.59282 0.44327 -0.00798
 C1670 C 0.57677 0.45294 -0.00685
 H1671 H 0.61527 0.46630 0.01532
 H1672 H 0.64644 0.47886 0.03295
 H1673 H 0.67985 0.46019 0.02962
 H1674 H 0.68230 0.42886 0.00861
 H1675 H 0.64767 0.37585 -0.03765
 H1676 H 0.61635 0.36290 -0.05477
 H1677 H 0.58286 0.38133 -0.05112
 H1678 H 0.58051 0.41302 -0.03062
 C1679 C 0.11109 -0.06905 0.49203
 C1680 C 0.12520 -0.07006 0.50898
 C1681 C 0.14459 -0.08047 0.50673
 C1682 C 0.14974 -0.08979 0.48754
 C1683 C 0.13544 -0.08912 0.47071
 C1684 C 0.11605 -0.07871 0.47295
 C1685 C 0.10205 -0.07814 0.45589
 C1686 C 0.10704 -0.08765 0.43715
 C1687 C 0.12600 -0.09783 0.43494
 C1688 C 0.14010 -0.09860 0.45146
 C1689 C 0.15849 -0.08121 0.52386
 C1690 C 0.15338 -0.07194 0.54268
 C1691 C 0.13442 -0.06176 0.54488
 C1692 C 0.12044 -0.06078 0.52828
 C1693 C 0.16992 -0.09960 0.48493
 C1694 C 0.18674 -0.10752 0.48240
 C1695 C 0.09168 -0.05767 0.49405
 C1696 C 0.07566 -0.04803 0.49553
 H1697 H 0.08710 -0.07044 0.45685
 H1698 H 0.09613 -0.08711 0.42427
 H1699 H 0.12980 -0.10518 0.42034
 H1700 H 0.15464 -0.10672 0.44900
 H1701 H 0.17342 -0.08898 0.52290
 H1702 H 0.16419 -0.07267 0.55563
 H1703 H 0.13052 -0.05458 0.55954
 H1704 H 0.10587 -0.05270 0.53075
 C1705 C 0.38824 -0.06935 0.50422
 C1706 C 0.38438 -0.08166 0.52210
 C1707 C 0.36499 -0.09215 0.52426
 C1708 C 0.34958 -0.09026 0.50853
 C1709 C 0.35361 -0.07834 0.49046
 C1710 C 0.37301 -0.06785 0.48829
 C1711 C 0.37665 -0.05592 0.47014
 C1712 C 0.36156 -0.05440 0.45456
 C1713 C 0.34260 -0.06467 0.45667
 C1714 C 0.33858 -0.07652 0.47439
 C1715 C 0.36145 -0.10427 0.54232
 C1716 C 0.37663 -0.10598 0.55779
 C1717 C 0.39558 -0.09571 0.55568
 C1718 C 0.39951 -0.08367 0.53808
 C1719 C 0.32937 -0.10004 0.51129
 C1720 C 0.31256 -0.10795 0.51403
 C1721 C 0.40762 -0.05782 0.50252
 C1722 C 0.42365 -0.04809 0.50149
 H1723 H 0.39118 -0.04768 0.46778
 H1724 H 0.36461 -0.04522 0.44077
 H1725 H 0.33093 -0.06345 0.44453
 H1726 H 0.32361 -0.08424 0.47532
 H1727 H 0.34696 -0.11257 0.54466
 H1728 H 0.37368 -0.11534 0.57148
 H1729 H 0.40735 -0.09713 0.56771
 H1730 H 0.41452 -0.07603 0.53713
 C1731 C -0.11221 0.43217 1.00409
 C1732 C -0.11360 0.41394 1.01647
 C1733 C -0.13293 0.40323 1.01821
 C1734 C -0.15074 0.41079 1.00750
 C1735 C -0.14922 0.42874 0.99472
 C1736 C -0.12990 0.43947 0.99303
 C1737 C -0.12880 0.45746 0.98028
 C1738 C -0.14628 0.46463 0.96950
 C1739 C -0.16516 0.45413 0.97115
 C1740 C -0.16671 0.43639 0.98360
 C1741 C -0.13397 0.38514 1.03082
 C1742 C -0.11641 0.37778 1.04133
 C1743 C -0.09750 0.38820 1.03957
 C1744 C -0.09602 0.40611 1.02735
 C1745 C -0.17074 0.40053 1.01017
 C1746 C -0.18740 0.39225 1.01283
 C1747 C -0.09275 0.44370 1.00314
 C1748 C -0.07668 0.45343 1.00261
 H1749 H -0.11445 0.46614 0.97847
 H1750 H -0.14515 0.47841 0.95981
 H1751 H -0.17869 0.45977 0.96274
 H1752 H -0.18172 0.42874 0.98436
 H1753 H -0.14833 0.37646 1.03263
 H1754 H -0.11747 0.36389 1.05086
 H1755 H -0.08388 0.38235 1.04767
 H1756 H -0.08097 0.41368 1.02648
 C1757 C -0.11113 0.56762 0.49457
 C1758 C -0.12889 0.56030 0.50534
 C1759 C -0.14810 0.57119 0.50359
 C1760 C -0.14945 0.58932 0.49106
 C1761 C -0.13159 0.59689 0.48062
 C1762 C -0.11236 0.58602 0.48241
 C1763 C -0.09472 0.59388 0.47183
 C1764 C -0.09602 0.61198 0.45987
 C1765 C -0.11484 0.62256 0.45805
 C1766 C -0.13247 0.61517 0.46826
 C1767 C -0.16565 0.56352 0.51444
 C1768 C -0.16427 0.54560 0.52666
 C1769 C -0.14550 0.53495 0.52837
 C1770 C -0.12796 0.54213 0.51786
 C1771 C -0.16936 0.59978 0.48840
 C1772 C -0.18601 0.60813 0.48588
 C1773 C -0.09176 0.55599 0.49569
 C1774 C -0.07583 0.54608 0.49656
 H1775 H -0.07974 0.58619 0.47276
 H1776 H -0.08235 0.61786 0.45201
 H1777 H -0.11577 0.63659 0.44871
 H1778 H -0.14675 0.62396 0.46642
 H1779 H -0.18060 0.57129 0.51363
 H1780 H -0.17785 0.53996 0.53486
 H1781 H -0.14450 0.52104 0.53789
 H1782 H -0.11370 0.53332 0.51970
 C1783 C 0.38843 1.06842 -0.00416
 C1784 C 0.37095 1.06115 0.00708
 C1785 C 0.35158 1.07178 0.00539
 C1786 C 0.34980 1.08959 -0.00755
 C1787 C 0.36740 1.09713 -0.01843
 C1788 C 0.38679 1.08653 -0.01671
 C1789 C 0.40416 1.09435 -0.02775
 C1790 C 0.40244 1.11215 -0.04011
 C1791 C 0.38347 1.12246 -0.04186
 C1792 C 0.36610 1.11510 -0.03119
 C1793 C 0.33430 1.06418 0.01671
 C1794 C 0.33610 1.04657 0.02933
 C1795 C 0.35503 1.03618 0.03097
 C1796 C 0.37230 1.04330 0.02000
 C1797 C 0.32972 1.09969 -0.01026
 C1798 C 0.31302 1.10785 -0.01302
 C1799 C 0.40793 1.05699 -0.00321
 C1800 C 0.42403 1.04735 -0.00262
 H1801 H 0.41924 1.08686 -0.02689
 H1802 H 0.41591 1.11799 -0.04833
 H1803 H 0.38222 1.13626 -0.05151
 H1804 H 0.35170 1.12369 -0.03301
 H1805 H 0.31926 1.07176 0.01596
 H1806 H 0.32274 1.04098 0.03789
 H1807 H 0.35635 1.02251 0.04080
 H1808 H 0.38670 1.03471 0.02180
 C1809 C 0.00572 1.11281 1.06906
 C1810 C 0.02489 1.11786 1.07882
 C1811 C 0.02722 1.13724 1.08920
 C1812 C 0.01035 1.15145 1.08974
 C1813 C -0.00895 1.14621 1.08037
 C1814 C -0.01128 1.12682 1.07000
 C1815 C -0.03069 1.12195 1.06065
 C1816 C -0.04734 1.13584 1.06155
 C1817 C -0.04506 1.15480 1.07170
 C1818 C -0.02611 1.16002 1.08102
 C1819 C 0.04657 1.14200 1.09875
 C1820 C 0.06313 1.12799 1.09809
 C1821 C 0.06085 1.10902 1.08796
 C1822 C 0.04200 1.10394 1.07839
 C1823 C 0.01307 1.17163 1.09951
 C1824 C 0.01577 1.18842 1.10743
 C1825 C 0.00373 1.09349 1.05759
 C1826 C 0.00252 1.07753 1.04785
 H1827 H -0.03322 1.10737 1.05261
 H1828 H -0.06209 1.13186 1.05435
 H1829 H -0.05804 1.16554 1.07236
 H1830 H -0.02510 1.17494 1.08876
 H1831 H 0.04910 1.15655 1.10684
 H1832 H 0.07782 1.13187 1.10549
 H1833 H 0.07375 1.09818 1.08751
 H1834 H 0.04098 1.08898 1.07074
 C1835 C 0.50609 0.61053 0.56966
 C1836 C 0.51822 0.61181 0.58805
 C1837 C 0.51962 0.63101 0.59894
 C1838 C 0.50885 0.64877 0.59140
 C1839 C 0.49633 0.64735 0.57329
 C1840 C 0.49496 0.62817 0.56237
 C1841 C 0.48245 0.62717 0.54422
 C1842 C 0.47159 0.64460 0.53708
 C1843 C 0.47292 0.66334 0.54777
 C1844 C 0.48513 0.66479 0.56567
 C1845 C 0.53196 0.63196 0.61721
 C1846 C 0.54250 0.61442 0.62457
 C1847 C 0.54105 0.59563 0.61396
 C1848 C 0.52913 0.59426 0.59586
 C1849 C 0.51126 0.66869 0.60178
 C1850 C 0.51367 0.68537 0.61002
 C1851 C 0.50535 0.59122 0.55800
 C1852 C 0.50473 0.57536 0.54803
 H1853 H 0.48090 0.61293 0.53538
 H1854 H 0.46208 0.64355 0.52319
 H1855 H 0.46444 0.67684 0.54217
 H1856 H 0.48563 0.67971 0.57347
 H1857 H 0.53351 0.64622 0.62602
 H1858 H 0.55181 0.61540 0.63860
 H1859 H 0.54917 0.58203 0.61982
 H1860 H 0.52850 0.57932 0.58814
 C1861 C -0.00692 0.60878 0.43172
 C1862 C 0.01033 0.62252 0.43070
 C1863 C 0.00830 0.64204 0.42039
 C1864 C -0.01097 0.64768 0.41116
 C1865 C -0.02809 0.63373 0.41177
 C1866 C -0.02606 0.61421 0.42210
 C1867 C -0.04341 0.60056 0.42262
 C1868 C -0.06222 0.60602 0.41316
 C1869 C -0.06421 0.62511 0.40307
 C1870 C -0.04740 0.63887 0.40234
 C1871 C 0.02571 0.65559 0.41966
 C1872 C 0.04461 0.64999 0.42886
 C1873 C 0.04660 0.63090 0.43895
 C1874 C 0.02971 0.61726 0.43992
 C1875 C -0.01338 0.66804 0.40155
 C1876 C -0.01576 0.68502 0.39382
 C1877 C -0.00518 0.58932 0.44315
 C1878 C -0.00394 0.57330 0.45289
 H1879 H -0.04262 0.58553 0.43025
 H1880 H -0.07532 0.59538 0.41368
 H1881 H -0.07886 0.62928 0.39576
 H1882 H -0.04971 0.65353 0.39428
 H1883 H 0.02493 0.67060 0.41197
 H1884 H 0.05778 0.66053 0.42815
 H1885 H 0.06132 0.62662 0.44606
 H1886 H 0.03203 0.60257 0.44791
 C1887 C 0.49466 1.11261 -0.06733
 C1888 C 0.51164 1.12669 -0.06828
 C1889 C 0.50926 1.14618 -0.07858
 C1890 C 0.48992 1.15146 -0.08786
 C1891 C 0.47306 1.13719 -0.08729
 C1892 C 0.47544 1.11769 -0.07700
 C1893 C 0.45835 1.10371 -0.07655
 C1894 C 0.43946 1.10884 -0.08601
 C1895 C 0.43711 1.12791 -0.09605
 C1896 C 0.45366 1.14198 -0.09673
 C1897 C 0.52641 1.16006 -0.07925
 C1898 C 0.54540 1.15481 -0.07001
 C1899 C 0.54772 1.13575 -0.05993
 C1900 C 0.53109 1.12179 -0.05902
 C1901 C 0.48714 1.17173 -0.09756
 C1902 C 0.48433 1.18856 -0.10544
 C1903 C 0.49672 1.09314 -0.05597
 C1904 C 0.49798 1.07705 -0.04635
 H1905 H 0.45941 1.08867 -0.06896
 H1906 H 0.42656 1.09794 -0.08554
 H1907 H 0.42239 1.13182 -0.10337
 H1908 H 0.45108 1.15661 -0.10476
 H1909 H 0.52536 1.17506 -0.08693
 H1910 H 0.55837 1.16560 -0.07068
 H1911 H 0.56250 1.13174 -0.05279
 H1912 H 0.53366 1.10713 -0.05103
 C1913 C 0.50769 0.38933 -0.07073
 C1914 C 0.49064 0.37531 -0.07146
 C1915 C 0.49273 0.35584 -0.08169
 C1916 C 0.51185 0.35050 -0.09112
 C1917 C 0.52876 0.36473 -0.09080
 C1918 C 0.52667 0.38421 -0.08057
 C1919 C 0.54381 0.39813 -0.08034
 C1920 C 0.56247 0.39298 -0.09002
 C1921 C 0.56451 0.37394 -0.10003
 C1922 C 0.54791 0.35991 -0.10046
 C1923 C 0.47551 0.34202 -0.08212
 C1924 C 0.45675 0.34731 -0.07273
 C1925 C 0.45470 0.36636 -0.06273
 C1926 C 0.47140 0.38026 -0.06204
 C1927 C 0.51434 0.33018 -0.10062
 C1928 C 0.51673 0.31322 -0.10826
 C1929 C 0.50591 0.40873 -0.05935
 C1930 C 0.50463 0.42467 -0.04961
 H1931 H 0.54297 0.41314 -0.07278
 H1932 H 0.57540 0.40384 -0.08974
 H1933 H 0.57904 0.37002 -0.10751
 H1934 H 0.55025 0.34530 -0.10846
 H1935 H 0.47634 0.32704 -0.08974
 H1936 H 0.44373 0.33658 -0.07323
 H1937 H 0.44009 0.37040 -0.05546
 H1938 H 0.46905 0.39490 -0.05410
 C1939 C 0.00931 -0.11262 0.43241
 C1940 C -0.00768 -0.12126 0.42125
 C1941 C -0.00548 -0.14087 0.41127
 C1942 C 0.01370 -0.15168 0.41248
 C1943 C 0.03080 -0.14289 0.42338
 C1944 C 0.02859 -0.12331 0.43340
 C1945 C 0.04586 -0.11492 0.44435
 C1946 C 0.06474 -0.12557 0.44538
 C1947 C 0.06694 -0.14466 0.43549
 C1948 C 0.05022 -0.15329 0.42460
 C1949 C -0.02271 -0.14925 0.40029
 C1950 C -0.04157 -0.13854 0.39917
 C1951 C -0.04371 -0.11937 0.40891
 C1952 C -0.02702 -0.11076 0.41986
 C1953 C 0.01587 -0.17192 0.40272
 C1954 C 0.01810 -0.18876 0.39477
 C1955 C 0.00688 -0.09302 0.44330
 C1956 C 0.00511 -0.07693 0.45274
 H1957 H 0.04496 -0.10008 0.45223
 H1958 H 0.07773 -0.11901 0.45393
 H1959 H 0.08166 -0.15284 0.43630
 H1960 H 0.05270 -0.16818 0.41718
 H1961 H -0.02178 -0.16411 0.39245
 H1962 H -0.05458 -0.14517 0.39069
 H1963 H -0.05839 -0.11112 0.40799
 H1964 H -0.02943 -0.09579 0.42716
 C1965 C 0.49220 -0.11310 0.56710
 C1966 C 0.47377 -0.12493 0.56421
 C1967 C 0.47139 -0.14436 0.57460
 C1968 C 0.48750 -0.15188 0.58775
 C1969 C 0.50588 -0.14001 0.59071
 C1970 C 0.50823 -0.12054 0.58036
 C1971 C 0.52674 -0.10893 0.58355
 C1972 C 0.54249 -0.11635 0.59660
 C1973 C 0.54019 -0.13540 0.60671
 C1974 C 0.52213 -0.14716 0.60385
 C1975 C 0.45280 -0.15589 0.57150
 C1976 C 0.43708 -0.14849 0.55842
 C1977 C 0.43946 -0.12956 0.54815
 C1978 C 0.45752 -0.11780 0.55102
 C1979 C 0.48506 -0.17183 0.59817
 C1980 C 0.48245 -0.18841 0.60663
 C1981 C 0.49465 -0.09342 0.55620
 C1982 C 0.49618 -0.07724 0.54677
 H1983 H 0.52922 -0.09402 0.57603
 H1984 H 0.55654 -0.10727 0.59887
 H1985 H 0.55247 -0.14110 0.61682
 H1986 H 0.52105 -0.16188 0.61205
 H1987 H 0.45021 -0.17073 0.57911
 H1988 H 0.42298 -0.15753 0.55619
 H1989 H 0.42726 -0.12394 0.53791
 H1990 H 0.45858 -0.10313 0.54275
 C1991 C -0.00634 0.38922 1.06936
 C1992 C -0.02559 0.38375 1.07856
 C1993 C -0.02772 0.36427 1.08893
 C1994 C -0.01059 0.35039 1.09001
 C1995 C 0.00877 0.35606 1.08121
 C1996 C 0.01091 0.37554 1.07085
 C1997 C 0.03038 0.38084 1.06206
 C1998 C 0.04727 0.36727 1.06348
 C1999 C 0.04519 0.34821 1.07362
 C2000 C 0.02619 0.34259 1.08240
 C2001 C -0.04714 0.35910 1.09792
 C2002 C -0.06396 0.37278 1.09672
 C2003 C -0.06187 0.39181 1.08657
 C2004 C -0.04296 0.39732 1.07755
 C2005 C -0.01312 0.33006 1.09964
 C2006 C -0.01574 0.31314 1.10740
 C2007 C -0.00451 0.40864 1.05790
 C2008 C -0.00336 0.42467 1.04816
 H2009 H 0.03277 0.39550 1.05404
 H2010 H 0.06206 0.37157 1.05668
 H2011 H 0.05836 0.33773 1.07468
 H2012 H 0.02533 0.32762 1.09016
 H2013 H -0.04952 0.34448 1.10601
 H2014 H -0.07869 0.36858 1.10369
 H2015 H -0.07498 0.40240 1.08568
 H2016 H -0.04210 0.41232 1.06987
 C2017 C 0.75661 0.31695 0.13468
 C2018 C 0.77598 0.31631 0.12426
 C2019 C 0.77826 0.32654 0.10479
 C2020 C 0.76115 0.33727 0.09580
 C2021 C 0.74182 0.33800 0.10627
 C2022 C 0.73956 0.32783 0.12578
 C2023 C 0.72009 0.32876 0.13595
 C2024 C 0.70334 0.33943 0.12709
 C2025 C 0.70555 0.34935 0.10801
 C2026 C 0.72454 0.34870 0.09764
 C2027 C 0.79779 0.32571 0.09469
 C2028 C 0.81452 0.31498 0.10351
 C2029 C 0.81225 0.30487 0.12248
 C2030 C 0.79326 0.30553 0.13284
 C2031 C 0.76347 0.34742 0.07575
 C2032 C 0.76589 0.35569 0.05909
 C2033 C 0.75425 0.30616 0.15439
 C2034 C 0.75276 0.29688 0.17062
 H2035 H 0.71763 0.32129 0.15083
 H2036 H 0.68856 0.33999 0.13508
 H2037 H 0.69248 0.35761 0.10119
 H2038 H 0.72551 0.35666 0.08284
 H2039 H 0.80033 0.33331 0.07989
 H2040 H 0.82932 0.31446 0.09555
 H2041 H 0.82524 0.29643 0.12918
 H2042 H 0.79231 0.29747 0.14759
 C2043 C 0.25723 0.81897 0.63753
 C2044 C 0.27614 0.81713 0.62646
 C2045 C 0.27836 0.82715 0.60688
 C2046 C 0.26163 0.83889 0.59845
 C2047 C 0.24280 0.84087 0.60959
 C2048 C 0.24060 0.83090 0.62921
 C2049 C 0.22162 0.83308 0.64006
 C2050 C 0.20526 0.84478 0.63176
 C2051 C 0.20741 0.85452 0.61257
 C2052 C 0.22593 0.85264 0.60154
 C2053 C 0.29742 0.82509 0.59611
 C2054 C 0.31375 0.81336 0.60438
 C2055 C 0.31154 0.80345 0.62346
 C2056 C 0.29302 0.80532 0.63448
 C2057 C 0.26384 0.84877 0.57826
 C2058 C 0.26620 0.85681 0.56149
 C2059 C 0.25481 0.80820 0.65723
 C2060 C 0.25304 0.79887 0.67340
 H2061 H 0.21922 0.82580 0.65504
 H2062 H 0.19085 0.84629 0.64027
 H2063 H 0.19466 0.86358 0.60619
 H2064 H 0.22687 0.86050 0.58668
 H2065 H 0.29990 0.83247 0.58119
 H2066 H 0.32820 0.81190 0.59591
 H2067 H 0.32422 0.79424 0.62974
 H2068 H 0.29209 0.79738 0.64931
 C2069 C 0.74635 0.68119 0.64124
 C2070 C 0.73364 0.66321 0.63951
 C2071 C 0.73187 0.65274 0.62016
 C2072 C 0.74288 0.66028 0.60267
 C2073 C 0.75602 0.67793 0.60454
 C2074 C 0.75775 0.68843 0.62388
 C2075 C 0.77087 0.70613 0.62533
 C2076 C 0.78198 0.71325 0.60817
 C2077 C 0.78029 0.70298 0.58927
 C2078 C 0.76748 0.68553 0.58738
 C2079 C 0.71893 0.63490 0.61876
 C2080 C 0.70812 0.62755 0.63602
 C2081 C 0.70992 0.63774 0.65496
 C2082 C 0.72245 0.65540 0.65676
 C2083 C 0.74009 0.65037 0.58260
 C2084 C 0.73729 0.64240 0.56589
 C2085 C 0.74723 0.69258 0.66067
 C2086 C 0.74768 0.70227 0.67667
 H2087 H 0.77271 0.71463 0.63971
 H2088 H 0.79195 0.72680 0.60956
 H2089 H 0.78896 0.70857 0.57599
 H2090 H 0.76670 0.67804 0.57236
 H2091 H 0.71708 0.62642 0.60438
 H2092 H 0.69834 0.61385 0.63470
 H2093 H 0.70159 0.63189 0.66833
 H2094 H 0.72334 0.66279 0.67182
 C2095 C 0.24430 0.18145 0.14028
 C2096 C 0.23176 0.16333 0.13875
 C2097 C 0.22969 0.15293 0.11939
 C2098 C 0.24022 0.16067 0.10169
 C2099 C 0.25312 0.17853 0.10333
 C2100 C 0.25515 0.18896 0.12267
 C2101 C 0.26802 0.20686 0.12390
 C2102 C 0.27860 0.21423 0.10651
 C2103 C 0.27663 0.20402 0.08761
 C2104 C 0.26405 0.18637 0.08594
 C2105 C 0.21694 0.13494 0.11820
 C2106 C 0.20663 0.12738 0.13567
 C2107 C 0.20873 0.13750 0.15462
 C2108 C 0.22108 0.15531 0.15622
 C2109 C 0.23733 0.15068 0.08168
 C2110 C 0.23461 0.14269 0.06496
 C2111 C 0.24567 0.19267 0.15978
 C2112 C 0.24667 0.20227 0.17581
 H2113 H 0.27008 0.21532 0.13827
 H2114 H 0.28839 0.22793 0.10773
 H2115 H 0.28488 0.20980 0.07415
 H2116 H 0.26303 0.17896 0.07090
 H2117 H 0.21487 0.12650 0.10382
 H2118 H 0.19699 0.11356 0.13451
 H2119 H 0.20080 0.13148 0.16816
 H2120 H 0.22221 0.16266 0.17129
 C2121 C 0.25859 0.18295 0.86365
 C2122 C 0.27767 0.18418 0.87475
 C2123 C 0.27977 0.17399 0.89429
 C2124 C 0.26277 0.16268 0.90264
 C2125 C 0.24377 0.16130 0.89145
 C2126 C 0.24168 0.17145 0.87189
 C2127 C 0.22252 0.16987 0.86100
 C2128 C 0.20590 0.15859 0.86921
 C2129 C 0.20794 0.14868 0.88834
 C2130 C 0.22662 0.14997 0.89941
 C2131 C 0.29900 0.17545 0.90510
 C2132 C 0.31562 0.18673 0.89689
 C2133 C 0.31352 0.19677 0.87784
 C2134 C 0.29483 0.19552 0.86680
 C2135 C 0.26490 0.15256 0.92275
 C2136 C 0.26717 0.14430 0.93945
 C2137 C 0.25630 0.19387 0.84399
 C2138 C 0.25463 0.20329 0.82784
 H2139 H 0.22019 0.17730 0.84606
 H2140 H 0.19136 0.15753 0.86068
 H2141 H 0.19499 0.13993 0.89465
 H2142 H 0.22747 0.14199 0.91423
 H2143 H 0.30139 0.16793 0.91999
 H2144 H 0.33019 0.18772 0.90538
 H2145 H 0.32644 0.20561 0.87160
 H2146 H 0.29400 0.20354 0.85201
 C2147 C 0.75705 0.68440 0.36444
 C2148 C 0.77649 0.68502 0.37494
 C2149 C 0.77891 0.67474 0.39439
 C2150 C 0.76185 0.66394 0.40327
 C2151 C 0.74244 0.66325 0.39273
 C2152 C 0.74004 0.67350 0.37324
 C2153 C 0.72049 0.67258 0.36300
 C2154 C 0.70379 0.66185 0.37174
 C2155 C 0.70614 0.65184 0.39079
 C2156 C 0.72520 0.65248 0.40124
 C2157 C 0.79851 0.67557 0.40458
 C2158 C 0.81521 0.68631 0.39584
 C2159 C 0.81283 0.69642 0.37687
 C2160 C 0.79375 0.69581 0.36644
 C2161 C 0.76437 0.65358 0.42322
 C2162 C 0.76703 0.64513 0.43977
 C2163 C 0.75459 0.69519 0.34471
 C2164 C 0.75306 0.70444 0.32845
 H2165 H 0.71792 0.68012 0.34814
 H2166 H 0.68895 0.66129 0.36369
 H2167 H 0.69311 0.64353 0.39752
 H2168 H 0.72628 0.64446 0.41602
 H2169 H 0.80114 0.66797 0.41939
 H2170 H 0.83007 0.68681 0.40386
 H2171 H 0.82581 0.70483 0.37021
 H2172 H 0.79271 0.70389 0.35170
 C2173 C 0.24497 0.81884 0.35997
 C2174 C 0.22699 0.83104 0.36363
 C2175 C 0.22468 0.84152 0.38288
 C2176 C 0.24036 0.83974 0.39835
 C2177 C 0.25855 0.82793 0.39451
 C2178 C 0.26086 0.81745 0.37525
 C2179 C 0.27912 0.80563 0.37181
 C2180 C 0.29466 0.80423 0.38695
 C2181 C 0.29241 0.81449 0.40577
 C2182 C 0.27458 0.82622 0.40960
 C2183 C 0.20652 0.85353 0.38623
 C2184 C 0.19110 0.85516 0.37098
 C2185 C 0.19336 0.84491 0.35216
 C2186 C 0.21106 0.83296 0.34844
 C2187 C 0.23746 0.84950 0.41842
 C2188 C 0.23467 0.85735 0.43514
 C2189 C 0.24680 0.80729 0.34074
 C2190 C 0.24787 0.79755 0.32483
 H2191 H 0.28159 0.79740 0.35739
 H2192 H 0.30854 0.79514 0.38405
 H2193 H 0.30453 0.81336 0.41748
 H2194 H 0.27355 0.83394 0.42447
 H2195 H 0.20406 0.86182 0.40061
 H2196 H 0.17733 0.86443 0.37378
 H2197 H 0.18136 0.84624 0.34035
 H2198 H 0.21212 0.82533 0.33352
 C2199 C 0.74336 0.31592 0.85981
 C2200 C 0.72454 0.32653 0.86413
 C2201 C 0.72221 0.33724 0.88326
 C2202 C 0.73871 0.33725 0.89797
 C2203 C 0.75765 0.32696 0.89349
 C2204 C 0.75999 0.31627 0.87435
 C2205 C 0.77903 0.30601 0.87027
 C2206 C 0.79531 0.30631 0.88469
 C2207 C 0.79302 0.31676 0.90340
 C2208 C 0.77445 0.32700 0.90784
 C2209 C 0.70323 0.34766 0.88725
 C2210 C 0.68700 0.34748 0.87279
 C2211 C 0.68925 0.33696 0.85411
 C2212 C 0.70777 0.32660 0.84973
 C2213 C 0.73594 0.34735 0.91790
 C2214 C 0.73327 0.35552 0.93449
 C2215 C 0.74537 0.30428 0.84064
 C2216 C 0.74658 0.29449 0.82476
 H2217 H 0.78155 0.29768 0.85592
 H2218 H 0.80977 0.29838 0.88131
 H2219 H 0.80572 0.31695 0.91454
 H2220 H 0.77342 0.33494 0.92259
 H2221 H 0.70073 0.35608 0.90156
 H2222 H 0.67259 0.35556 0.87608
 H2223 H 0.67663 0.33692 0.84291
 H2224 H 0.70880 0.31874 0.83494
 C2225 C 0.81929 0.36155 0.24385
 C2226 C 0.81279 0.37869 0.25599
 C2227 C 0.82353 0.39803 0.25457
 C2228 C 0.84068 0.40012 0.24099
 C2229 C 0.84750 0.38284 0.22923
 C2230 C 0.83678 0.36348 0.23067
 C2231 C 0.84383 0.34644 0.21871
 C2232 C 0.86100 0.34845 0.20571
 C2233 C 0.87145 0.36739 0.20425
 C2234 C 0.86484 0.38444 0.21583
 C2235 C 0.81667 0.41499 0.26676
 C2236 C 0.79969 0.41288 0.27999
 C2237 C 0.78918 0.39397 0.28138
 C2238 C 0.79558 0.37702 0.26955
 C2239 C 0.85078 0.42024 0.23851
 C2240 C 0.85890 0.43700 0.23593
 C2241 C 0.80767 0.34213 0.24450
 C2242 C 0.79783 0.32612 0.24485
 H2243 H 0.83621 0.33139 0.21931
 H2244 H 0.86625 0.33524 0.19675
 H2245 H 0.88477 0.36888 0.19411
 H2246 H 0.87351 0.39884 0.21421
 H2247 H 0.82437 0.43000 0.26624
 H2248 H 0.79466 0.42600 0.28921
 H2249 H 0.77600 0.39242 0.29168
 H2250 H 0.78693 0.36262 0.27119
 C2251 C 0.31747 0.86281 0.74217
 C2252 C 0.31066 0.88037 0.75351
 C2253 C 0.32151 0.89963 0.75178
 C2254 C 0.33909 0.90122 0.73869
 C2255 C 0.34614 0.88355 0.72765
 C2256 C 0.33531 0.86427 0.72942
 C2257 C 0.34264 0.84682 0.71822
 C2258 C 0.36019 0.84836 0.70567
 C2259 C 0.37074 0.86722 0.70388
 C2260 C 0.36386 0.88467 0.71470
 C2261 C 0.31436 0.91699 0.76321
 C2262 C 0.29698 0.91538 0.77599
 C2263 C 0.28635 0.89656 0.77767
 C2264 C 0.29304 0.87921 0.76660
 C2265 C 0.34945 0.92120 0.73604
 C2266 C 0.35774 0.93788 0.73346
 C2267 C 0.30586 0.84339 0.74332
 C2268 C 0.29594 0.82744 0.74424
 H2269 H 0.33495 0.83182 0.71910
 H2270 H 0.36566 0.83484 0.69732
 H2271 H 0.38435 0.86833 0.69409
 H2272 H 0.37261 0.89898 0.71286
 H2273 H 0.32212 0.93196 0.76244
 H2274 H 0.29173 0.92881 0.78463
 H2275 H 0.27286 0.89538 0.78762
 H2276 H 0.28427 0.86490 0.76844
 C2277 C 0.18247 0.86368 0.25681
 C2278 C 0.18557 0.87531 0.27523
 C2279 C 0.17527 0.89473 0.27781
 C2280 C 0.16198 0.90244 0.26192
 C2281 C 0.15882 0.89078 0.24354
 C2282 C 0.16908 0.87133 0.24099
 C2283 C 0.16569 0.85995 0.22249
 C2284 C 0.15254 0.86758 0.20693
 C2285 C 0.14252 0.88660 0.20942
 C2286 C 0.14556 0.89813 0.22748
 C2287 C 0.17859 0.90605 0.29637
 C2288 C 0.19181 0.89848 0.31189
 C2289 C 0.20198 0.87956 0.30932
 C2290 C 0.19889 0.86800 0.29128
 C2291 C 0.15164 0.92238 0.26453
 C2292 C 0.14324 0.93897 0.26714
 C2293 C 0.19323 0.84398 0.25417
 C2294 C 0.20251 0.82775 0.25248
 H2295 H 0.17314 0.84508 0.21985
 H2296 H 0.15012 0.85868 0.19288
 H2297 H 0.13232 0.89245 0.19729
 H2298 H 0.13742 0.91284 0.22871
 H2299 H 0.17106 0.92087 0.29909
 H2300 H 0.19421 0.90736 0.32596
 H2301 H 0.21232 0.87381 0.32137
 H2302 H 0.20710 0.85333 0.29007
 C2303 C 0.68089 0.35954 0.75524
 C2304 C 0.68215 0.37045 0.77429
 C2305 C 0.67191 0.38995 0.77645
 C2306 C 0.66053 0.39846 0.75953
 C2307 C 0.65911 0.38747 0.74055
 C2308 C 0.66932 0.36793 0.73840
 C2309 C 0.66770 0.35723 0.71929
 C2310 C 0.65632 0.36558 0.70275
 C2311 C 0.64636 0.38469 0.70484
 C2312 C 0.64769 0.39558 0.72349
 C2313 C 0.67340 0.40056 0.79565
 C2314 C 0.68477 0.39220 0.81219
 C2315 C 0.69486 0.37318 0.81004
 C2316 C 0.69356 0.36233 0.79138
 C2317 C 0.65042 0.41857 0.76171
 C2318 C 0.64224 0.43529 0.76410
 C2319 C 0.69180 0.33988 0.75297
 C2320 C 0.70119 0.32369 0.75156
 H2321 H 0.67517 0.34232 0.71692
 H2322 H 0.65523 0.35719 0.68823
 H2323 H 0.63754 0.39111 0.69195
 H2324 H 0.63967 0.41038 0.72439
 H2325 H 0.66585 0.41542 0.79809
 H2326 H 0.68578 0.40055 0.82674
 H2327 H 0.70378 0.36683 0.82289
 H2328 H 0.70163 0.34756 0.79052
 C2329 C 0.68066 0.63836 0.74551
 C2330 C 0.67133 0.63335 0.72618
 C2331 C 0.66101 0.61390 0.72362
 C2332 C 0.66008 0.59960 0.74041
 C2333 C 0.66902 0.60481 0.75985
 C2334 C 0.67935 0.62426 0.76241
 C2335 C 0.68826 0.62910 0.78197
 C2336 C 0.68700 0.61511 0.79853
 C2337 C 0.67690 0.59609 0.79602
 C2338 C 0.66800 0.59091 0.77693
 C2339 C 0.65189 0.60918 0.70412
 C2340 C 0.65293 0.62328 0.68763
 C2341 C 0.66301 0.64230 0.69015
 C2342 C 0.67215 0.64735 0.70915
 C2343 C 0.65042 0.57935 0.73745
 C2344 C 0.64261 0.56252 0.73448
 C2345 C 0.69212 0.65775 0.74775
 C2346 C 0.70186 0.67375 0.74914
 H2347 H 0.69625 0.64372 0.78467
 H2348 H 0.69389 0.61906 0.81338
 H2349 H 0.67596 0.58528 0.80893
 H2350 H 0.66028 0.57594 0.77574
 H2351 H 0.64385 0.59459 0.70140
 H2352 H 0.64586 0.61942 0.67283
 H2353 H 0.66375 0.65321 0.67731
 H2354 H 0.67978 0.66236 0.71034
 C2355 C 0.18110 0.13926 0.24240
 C2356 C 0.17099 0.13417 0.22349
 C2357 C 0.16029 0.11484 0.22154
 C2358 C 0.15980 0.10073 0.23850
 C2359 C 0.16960 0.10600 0.25752
 C2360 C 0.18028 0.12532 0.25948
 C2361 C 0.19005 0.13020 0.27862
 C2362 C 0.18926 0.11639 0.29536
 C2363 C 0.17881 0.09750 0.29344
 C2364 C 0.16907 0.09227 0.27478
 C2365 C 0.15035 0.11006 0.20245
 C2366 C 0.15095 0.12397 0.18579
 C2367 C 0.16141 0.14286 0.18771
 C2368 C 0.17137 0.14798 0.20629
 C2369 C 0.14968 0.08060 0.23621
 C2370 C 0.14152 0.06381 0.23398
 C2371 C 0.19272 0.15861 0.24415
 C2372 C 0.20258 0.17455 0.24556
 H2373 H 0.19835 0.14472 0.28088
 H2374 H 0.19681 0.12038 0.30989
 H2375 H 0.17825 0.08682 0.30648
 H2376 H 0.16111 0.07740 0.27405
 H2377 H 0.14199 0.09557 0.20022
 H2378 H 0.14325 0.12008 0.17132
 H2379 H 0.16183 0.15362 0.17472
 H2380 H 0.17928 0.16287 0.20703
 C2381 C 0.31786 0.13886 0.75850
 C2382 C 0.33595 0.13725 0.77109
 C2383 C 0.34676 0.11796 0.77255
 C2384 C 0.33944 0.10041 0.76136
 C2385 C 0.32160 0.10215 0.74843
 C2386 C 0.31077 0.12142 0.74701
 C2387 C 0.29290 0.12274 0.73408
 C2388 C 0.28595 0.10552 0.72285
 C2389 C 0.29656 0.08668 0.72423
 C2390 C 0.31418 0.08492 0.73686
 C2391 C 0.36473 0.11669 0.78534
 C2392 C 0.37188 0.13401 0.79630
 C2393 C 0.36136 0.15288 0.79481
 C2394 C 0.34355 0.15457 0.78242
 C2395 C 0.34985 0.08044 0.76364
 C2396 C 0.35825 0.06378 0.76596
 C2397 C 0.30636 0.15833 0.75757
 C2398 C 0.29660 0.17436 0.75679
 H2399 H 0.28414 0.13706 0.73247
 H2400 H 0.27227 0.10681 0.71302
 H2401 H 0.29111 0.07335 0.71547
 H2402 H 0.32192 0.06995 0.73739
 H2403 H 0.37347 0.10235 0.78696
 H2404 H 0.38568 0.13278 0.80596
 H2405 H 0.36704 0.16631 0.80325
 H2406 H 0.33589 0.16958 0.78178
 C2407 C 0.81813 0.63879 0.25654
 C2408 C 0.83601 0.63729 0.26944
 C2409 C 0.84673 0.61798 0.27131
 C2410 C 0.83952 0.60033 0.26023
 C2411 C 0.82194 0.60197 0.24694
 C2412 C 0.81120 0.62127 0.24511
 C2413 C 0.79358 0.62250 0.23183
 C2414 C 0.78678 0.60518 0.22068
 C2415 C 0.79729 0.58632 0.22247
 C2416 C 0.81467 0.58464 0.23544
 C2417 C 0.86447 0.61681 0.28442
 C2418 C 0.87149 0.63423 0.29530
 C2419 C 0.86105 0.65312 0.29342
 C2420 C 0.84348 0.65472 0.28070
 C2421 C 0.84972 0.58033 0.26307
 C2422 C 0.85797 0.56368 0.26592
 C2423 C 0.80658 0.65821 0.25543
 C2424 C 0.79687 0.67426 0.25475
 H2425 H 0.78491 0.63684 0.22991
 H2426 H 0.77328 0.60640 0.21059
 H2427 H 0.79195 0.57291 0.21377
 H2428 H 0.82235 0.56964 0.23629
 H2429 H 0.87315 0.60247 0.28635
 H2430 H 0.88512 0.63307 0.30522
 H2431 H 0.86662 0.66662 0.30182
 H2432 H 0.83589 0.66975 0.27975
 C2433 C 0.86050 0.25477 0.17810
 C2434 C 0.86543 0.27404 0.16849
 C2435 C 0.88482 0.27656 0.15824
 C2436 C 0.89916 0.25980 0.15770
 C2437 C 0.89401 0.24039 0.16686
 C2438 C 0.87460 0.23786 0.17709
 C2439 C 0.86983 0.21836 0.18626
 C2440 C 0.88384 0.20181 0.18534
 C2441 C 0.90282 0.20428 0.17534
 C2442 C 0.90794 0.22332 0.16618
 C2443 C 0.88946 0.29599 0.14883
 C2444 C 0.87535 0.31247 0.14956
 C2445 C 0.85641 0.31002 0.15962
 C2446 C 0.85142 0.29107 0.16901
 C2447 C 0.91946 0.26279 0.14834
 C2448 C 0.93638 0.26570 0.14083
 C2449 C 0.84124 0.25265 0.18961
 C2450 C 0.82537 0.25142 0.19942
 H2451 H 0.85524 0.21568 0.19419
 H2452 H 0.87994 0.18700 0.19243
 H2453 H 0.91365 0.19138 0.17466
 H2454 H 0.92287 0.22448 0.15854
 H2455 H 0.90399 0.29865 0.14079
 H2456 H 0.87914 0.32721 0.14226
 H2457 H 0.84548 0.32286 0.16013
 H2458 H 0.83645 0.28991 0.17658
 C2459 C 0.35769 0.75686 0.67967
 C2460 C 0.36311 0.77573 0.66957
 C2461 C 0.38261 0.77753 0.65938
 C2462 C 0.39659 0.76045 0.65939
 C2463 C 0.39097 0.74143 0.66909
 C2464 C 0.37145 0.73963 0.67925
 C2465 C 0.36621 0.72051 0.68895
 C2466 C 0.37987 0.70364 0.68861
 C2467 C 0.39896 0.70541 0.67867
 C2468 C 0.40453 0.72405 0.66900
 C2469 C 0.38773 0.79658 0.64946
 C2470 C 0.37396 0.81337 0.64961
 C2471 C 0.35490 0.81162 0.65960
 C2472 C 0.34946 0.79306 0.66950
 C2473 C 0.41698 0.76268 0.64998
 C2474 C 0.43396 0.76498 0.64240
 C2475 C 0.33828 0.75542 0.69103
 C2476 C 0.32235 0.75444 0.70079
 H2477 H 0.35152 0.71837 0.69686
 H2478 H 0.37561 0.68912 0.69610
 H2479 H 0.40951 0.69226 0.67844
 H2480 H 0.41954 0.72467 0.66144
 H2481 H 0.40237 0.79870 0.64147
 H2482 H 0.37811 0.82782 0.64194
 H2483 H 0.34425 0.82469 0.65966
 H2484 H 0.33442 0.79244 0.67701
 C2485 C 0.35983 0.24401 0.82209
 C2486 C 0.37366 0.26120 0.82298
 C2487 C 0.39317 0.25917 0.83333
 C2488 C 0.39872 0.23997 0.84273
 C2489 C 0.38467 0.22292 0.84226
 C2490 C 0.36515 0.22495 0.83191
 C2491 C 0.35140 0.20766 0.83155
 C2492 C 0.35676 0.18892 0.84119
 C2493 C 0.37584 0.18692 0.85129
 C2494 C 0.38971 0.20366 0.85187
 C2495 C 0.40681 0.27653 0.83392
 C2496 C 0.40130 0.29538 0.82457
 C2497 C 0.38222 0.29737 0.81445
 C2498 C 0.36849 0.28053 0.81361
 C2499 C 0.41908 0.23752 0.85233
 C2500 C 0.43605 0.23504 0.86006
 C2501 C 0.34042 0.24571 0.81055
 C2502 C 0.32447 0.24690 0.80068
 H2503 H 0.33636 0.20846 0.82391
 H2504 H 0.34603 0.17589 0.84080
 H2505 H 0.37994 0.17232 0.85874
 H2506 H 0.40436 0.20136 0.85995
 H2507 H 0.42182 0.27575 0.84164
 H2508 H 0.41191 0.30850 0.82518
 H2509 H 0.37801 0.31204 0.80722
 H2510 H 0.35381 0.28284 0.80559
 C2511 C 0.86147 0.74541 0.32082
 C2512 C 0.87572 0.76224 0.32190
 C2513 C 0.89512 0.75966 0.33234
 C2514 C 0.90012 0.74025 0.34164
 C2515 C 0.88565 0.72357 0.34100
 C2516 C 0.86625 0.72616 0.33056
 C2517 C 0.85206 0.70924 0.33005
 C2518 C 0.85689 0.69031 0.33960
 C2519 C 0.87587 0.68776 0.34978
 C2520 C 0.89015 0.70414 0.35051
 C2521 C 0.90918 0.77666 0.33313
 C2522 C 0.90419 0.79571 0.32389
 C2523 C 0.88522 0.79824 0.31368
 C2524 C 0.87109 0.78175 0.31263
 C2525 C 0.92036 0.73722 0.35135
 C2526 C 0.93718 0.73421 0.35919
 C2527 C 0.84217 0.74761 0.30918
 C2528 C 0.82621 0.74889 0.29933
 H2529 H 0.83707 0.71046 0.32236
 H2530 H 0.84583 0.67755 0.33909
 H2531 H 0.87955 0.67302 0.35715
 H2532 H 0.90470 0.70140 0.35865
 H2533 H 0.92412 0.77544 0.34092
 H2534 H 0.91512 0.80856 0.32466
 H2535 H 0.88141 0.81306 0.30654
 H2536 H 0.85651 0.78448 0.30455
 C2537 C 0.13930 0.75410 0.31906
 C2538 C 0.13666 0.77005 0.33396
 C2539 C 0.11748 0.77182 0.34473
 C2540 C 0.10109 0.75760 0.34057
 C2541 C 0.10394 0.74131 0.32610
 C2542 C 0.12311 0.73955 0.31530
 C2543 C 0.12555 0.72322 0.30081
 C2544 C 0.10953 0.70900 0.29712
 C2545 C 0.09079 0.71071 0.30768
 C2546 C 0.08793 0.72666 0.32202
 C2547 C 0.11514 0.78799 0.35944
 C2548 C 0.13132 0.80196 0.36344
 C2549 C 0.15009 0.80018 0.35295
 C2550 C 0.15281 0.78447 0.33833
 C2551 C 0.08108 0.76023 0.35063
 C2552 C 0.06445 0.76297 0.35876
 C2553 C 0.15844 0.75306 0.30720
 C2554 C 0.17424 0.75252 0.29722
 H2555 H 0.13986 0.72122 0.29223
 H2556 H 0.11167 0.69658 0.28600
 H2557 H 0.07839 0.69962 0.30476
 H2558 H 0.07308 0.72732 0.32988
 H2559 H 0.10085 0.78999 0.36804
 H2560 H 0.12928 0.81421 0.37477
 H2561 H 0.16261 0.81102 0.35617
 H2562 H 0.16771 0.78374 0.33059
 C2563 C 0.63739 0.25453 0.81699
 C2564 C 0.63093 0.27473 0.82300
 C2565 C 0.61180 0.27736 0.83366
 C2566 C 0.59921 0.25978 0.83822
 C2567 C 0.60581 0.23957 0.83247
 C2568 C 0.62497 0.23693 0.82183
 C2569 C 0.63121 0.21659 0.81617
 C2570 C 0.61888 0.19933 0.82089
 C2571 C 0.60014 0.20191 0.83129
 C2572 C 0.59360 0.22176 0.83705
 C2573 C 0.60563 0.29771 0.83945
 C2574 C 0.61798 0.31496 0.83476
 C2575 C 0.63666 0.31240 0.82427
 C2576 C 0.64316 0.29256 0.81846
 C2577 C 0.57932 0.26263 0.84840
 C2578 C 0.56277 0.26550 0.85667
 C2579 C 0.65658 0.25202 0.80548
 C2580 C 0.67247 0.25050 0.79572
 H2581 H 0.64567 0.21381 0.80807
 H2582 H 0.62389 0.18387 0.81645
 H2583 H 0.59061 0.18845 0.83491
 H2584 H 0.57892 0.22298 0.84513
 H2585 H 0.59124 0.30051 0.84764
 H2586 H 0.61301 0.33041 0.83928
 H2587 H 0.64614 0.32587 0.82057
 H2588 H 0.65784 0.29138 0.81037
 C2589 C 0.63678 0.74343 0.68425
 C2590 C 0.62750 0.76058 0.67387
 C2591 C 0.60783 0.75816 0.66388
 C2592 C 0.59760 0.73860 0.66431
 C2593 C 0.60699 0.72138 0.67452
 C2594 C 0.62662 0.72381 0.68454
 C2595 C 0.63563 0.70640 0.69478
 C2596 C 0.62551 0.68717 0.69511
 C2597 C 0.60636 0.68477 0.68523
 C2598 C 0.59713 0.70162 0.67503
 C2599 C 0.59881 0.77555 0.65367
 C2600 C 0.60894 0.79478 0.65332
 C2601 C 0.62818 0.79714 0.66307
 C2602 C 0.63743 0.78029 0.67325
 C2603 C 0.57739 0.73609 0.65437
 C2604 C 0.56062 0.73343 0.64627
 C2605 C 0.65655 0.74595 0.69502
 C2606 C 0.67279 0.74745 0.70439
 H2607 H 0.65053 0.70745 0.70265
 H2608 H 0.63255 0.67407 0.70312
 H2609 H 0.59859 0.66978 0.68551
 H2610 H 0.58220 0.69896 0.66759
 H2611 H 0.58387 0.77446 0.64586
 H2612 H 0.60183 0.80792 0.64543
 H2613 H 0.63599 0.81210 0.66274
 H2614 H 0.65241 0.78287 0.68061
 C2615 C 0.13862 0.24229 0.18313
 C2616 C 0.13027 0.25956 0.17216
 C2617 C 0.11075 0.25771 0.16178
 C2618 C 0.09973 0.23859 0.16241
 C2619 C 0.10819 0.22124 0.17319
 C2620 C 0.12768 0.22311 0.18361
 C2621 C 0.13575 0.20560 0.19443
 C2622 C 0.12486 0.18680 0.19495
 C2623 C 0.10586 0.18493 0.18467
 C2624 C 0.09754 0.20189 0.17389
 C2625 C 0.10266 0.27520 0.15099
 C2626 C 0.11357 0.29400 0.15045
 C2627 C 0.13267 0.29581 0.16058
 C2628 C 0.14100 0.27884 0.17134
 C2629 C 0.07965 0.23670 0.15210
 C2630 C 0.06296 0.23452 0.14370
 C2631 C 0.15824 0.24430 0.19426
 C2632 C 0.17436 0.24568 0.20384
 H2633 H 0.15051 0.20623 0.20261
 H2634 H 0.13118 0.17362 0.20341
 H2635 H 0.09748 0.17027 0.18509
 H2636 H 0.08270 0.19967 0.16616
 H2637 H 0.08787 0.27454 0.14287
 H2638 H 0.10716 0.30723 0.14212
 H2639 H 0.14108 0.31044 0.16011
 H2640 H 0.15591 0.28100 0.17897
 C2641 C -0.06705 1.00420 0.88717
 C2642 C -0.06792 0.98771 0.87264
 C2643 C -0.07801 0.99075 0.85315
 C2644 C -0.08715 1.01027 0.84831
 C2645 C -0.08663 1.02663 0.86300
 C2646 C -0.07656 1.02359 0.88249
 C2647 C -0.07617 1.04022 0.89689
 C2648 C -0.08546 1.05929 0.89217
 C2649 C -0.09530 1.06227 0.87311
 C2650 C -0.09593 1.04618 0.85863
 C2651 C -0.07861 0.97406 0.83884
 C2652 C -0.06952 0.95491 0.84366
 C2653 C -0.05966 0.95194 0.86271
 C2654 C -0.05881 0.96811 0.87710
 C2655 C -0.09671 1.01369 0.82809
 C2656 C -0.10443 1.01666 0.81123
 C2657 C -0.05591 1.00153 0.90669
 C2658 C -0.04649 0.99999 0.92288
 H2659 H -0.06874 1.03867 0.91193
 H2660 H -0.08503 1.07183 0.90337
 H2661 H -0.10250 1.07711 0.86952
 H2662 H -0.10379 1.04924 0.84403
 H2663 H -0.08612 0.97562 0.82383
 H2664 H -0.07013 0.94231 0.83254
 H2665 H -0.05263 0.93704 0.86638
 H2666 H -0.05100 0.96505 0.89173
 C2667 C 0.43310 0.50811 0.38553
 C2668 C 0.42504 0.52796 0.38014
 C2669 C 0.41464 0.53087 0.36081
 C2670 C 0.41237 0.51390 0.34697
 C2671 C 0.42014 0.49397 0.35250
 C2672 C 0.43054 0.49107 0.37184
 C2673 C 0.43825 0.47103 0.37699
 C2674 C 0.43574 0.45432 0.36343
 C2675 C 0.42557 0.45716 0.34451
 C2676 C 0.41783 0.47672 0.33902
 C2677 C 0.40679 0.55087 0.35572
 C2678 C 0.40913 0.56754 0.36936
 C2679 C 0.41930 0.56470 0.38828
 C2680 C 0.42719 0.54518 0.39368
 C2681 C 0.40245 0.51706 0.32690
 C2682 C 0.39446 0.51976 0.31012
 C2683 C 0.44433 0.50538 0.40497
 C2684 C 0.45378 0.50350 0.42110
 H2685 H 0.44625 0.46806 0.39154
 H2686 H 0.44172 0.43910 0.36762
 H2687 H 0.42366 0.44413 0.33403
 H2688 H 0.41002 0.47815 0.32415
 H2689 H 0.39875 0.55385 0.34120
 H2690 H 0.40302 0.58273 0.36524
 H2691 H 0.42107 0.57770 0.39882
 H2692 H 0.43496 0.54376 0.40858
 C2693 C 0.56958 -0.00278 0.38876
 C2694 C 0.57007 0.01353 0.37390
 C2695 C 0.58032 0.01049 0.35463
 C2696 C 0.59000 -0.00884 0.35035
 C2697 C 0.58995 -0.02496 0.36542
 C2698 C 0.57972 -0.02192 0.38469
 C2699 C 0.57980 -0.03832 0.39946
 C2700 C 0.58970 -0.05717 0.39533
 C2701 C 0.59969 -0.06013 0.37649
 C2702 C 0.59986 -0.04428 0.36165
 C2703 C 0.58052 0.02698 0.33997
 C2704 C 0.57090 0.04594 0.34424
 C2705 C 0.56088 0.04891 0.36307
 C2706 C 0.56041 0.03293 0.37779
 C2707 C 0.59949 -0.01239 0.33027
 C2708 C 0.60711 -0.01559 0.31352
 C2709 C 0.55810 -0.00023 0.40795
 C2710 C 0.54839 0.00116 0.42385
 H2711 H 0.57227 -0.03676 0.41437
 H2712 H 0.58962 -0.06953 0.40682
 H2713 H 0.60737 -0.07480 0.37336
 H2714 H 0.60788 -0.04732 0.34724
 H2715 H 0.58815 0.02542 0.32512
 H2716 H 0.57122 0.05840 0.33286
 H2717 H 0.55343 0.06367 0.36631
 H2718 H 0.55245 0.03598 0.39224
 C2719 C 0.06832 0.49914 0.88978
 C2720 C 0.06954 0.51551 0.87504
 C2721 C 0.07993 0.51226 0.85589
 C2722 C 0.08903 0.49265 0.85161
 C2723 C 0.08823 0.47643 0.86655
 C2724 C 0.07785 0.47968 0.88569
 C2725 C 0.07717 0.46318 0.90035
 C2726 C 0.08648 0.44404 0.89620
 C2727 C 0.09661 0.44086 0.87747
 C2728 C 0.09752 0.45681 0.86276
 C2729 C 0.08086 0.52883 0.84135
 C2730 C 0.07181 0.54807 0.84563
 C2731 C 0.06166 0.55125 0.86436
 C2732 C 0.06047 0.53520 0.87895
 C2733 C 0.09873 0.48893 0.83167
 C2734 C 0.10653 0.48557 0.81504
 C2735 C 0.05681 0.50197 0.90889
 C2736 C 0.04714 0.50348 0.92480
 H2737 H 0.06950 0.46489 0.91516
 H2738 H 0.08581 0.43160 0.90759
 H2739 H 0.10382 0.42596 0.87433
 H2740 H 0.10562 0.45359 0.84843
 H2741 H 0.08862 0.52711 0.82658
 H2742 H 0.07269 0.56059 0.83434
 H2743 H 0.05466 0.56622 0.86760
 H2744 H 0.05244 0.53841 0.89332
 C2745 C 0.06740 0.50178 0.61348
 C2746 C 0.07728 0.52113 0.61747
 C2747 C 0.08766 0.52446 0.63672
 C2748 C 0.08811 0.50842 0.65187
 C2749 C 0.07861 0.48892 0.64772
 C2750 C 0.06821 0.48559 0.62846
 C2751 C 0.05874 0.46602 0.62468
 C2752 C 0.05953 0.45016 0.63951
 C2753 C 0.06970 0.45340 0.65835
 C2754 C 0.07914 0.47253 0.66249
 C2755 C 0.09733 0.54397 0.64040
 C2756 C 0.09677 0.55974 0.62547
 C2757 C 0.08663 0.55649 0.60663
 C2758 C 0.07697 0.53745 0.60259
 C2759 C 0.09788 0.51221 0.67188
 C2760 C 0.10576 0.51566 0.68855
 C2761 C 0.05603 0.49882 0.59417
 C2762 C 0.04652 0.49703 0.57809
 H2763 H 0.05068 0.46275 0.61025
 H2764 H 0.05221 0.43528 0.63638
 H2765 H 0.07027 0.44103 0.66982
 H2766 H 0.08689 0.47432 0.67736
 H2767 H 0.10544 0.54724 0.65480
 H2768 H 0.10426 0.57455 0.62853
 H2769 H 0.08625 0.56878 0.59507
 H2770 H 0.06931 0.53567 0.58769
 C2771 C 0.56904 1.00127 0.11216
 C2772 C 0.58112 1.01949 0.11535
 C2773 C 0.59117 1.02283 0.13478
 C2774 C 0.58911 1.00791 0.15090
 C2775 C 0.57751 0.98941 0.14751
 C2776 C 0.56744 0.98608 0.12807
 C2777 C 0.55584 0.96754 0.12508
 C2778 C 0.55425 0.95269 0.14084
 C2779 C 0.56410 0.95593 0.15984
 C2780 C 0.57561 0.97406 0.16323
 C2781 C 0.60303 1.04123 0.13766
 C2782 C 0.60494 1.05591 0.12177
 C2783 C 0.59513 1.05264 0.10277
 C2784 C 0.58333 1.03468 0.09951
 C2785 C 0.59845 1.01189 0.17109
 C2786 C 0.60600 1.01546 0.18789
 C2787 C 0.55767 0.99864 0.09278
 C2788 C 0.54810 0.99727 0.07668
 H2789 H 0.54794 0.96432 0.11055
 H2790 H 0.54532 0.93859 0.13830
 H2791 H 0.56283 0.94433 0.17202
 H2792 H 0.58302 0.97588 0.17825
 H2793 H 0.61098 1.04446 0.15216
 H2794 H 0.61409 1.06988 0.12423
 H2795 H 0.59668 1.06408 0.09047
 H2796 H 0.57604 1.03284 0.08443
 C2797 C 0.43439 0.49482 0.11111
 C2798 C 0.43292 0.51162 0.12521
 C2799 C 0.42252 0.50880 0.14445
 C2800 C 0.41366 0.48919 0.14944
 C2801 C 0.41488 0.47247 0.13522
 C2802 C 0.42528 0.47529 0.11599
 C2803 C 0.42636 0.45832 0.10203
 C2804 C 0.41743 0.43912 0.10695
 C2805 C 0.40727 0.43637 0.12576
 C2806 C 0.40597 0.45279 0.13979
 C2807 C 0.42130 0.52580 0.15834
 C2808 C 0.43010 0.54504 0.15335
 C2809 C 0.44027 0.54780 0.13454
 C2810 C 0.44172 0.53133 0.12057
 C2811 C 0.40363 0.48609 0.16935
 C2812 C 0.39550 0.48336 0.18596
 C2813 C 0.44553 0.49743 0.09173
 C2814 C 0.45484 0.49914 0.07562
 H2815 H 0.43407 0.45969 0.08720
 H2816 H 0.41840 0.42632 0.09610
 H2817 H 0.40036 0.42142 0.12951
 H2818 H 0.39788 0.44989 0.15421
 H2819 H 0.41353 0.52442 0.17315
 H2820 H 0.42902 0.55788 0.16415
 H2821 H 0.44708 0.56278 0.13075
 H2822 H 0.44976 0.53423 0.10613
 C2823 C -0.06821 -0.00651 0.61211
 C2824 C -0.06861 0.00995 0.62670
 C2825 C -0.07851 0.00700 0.64618
 C2826 C -0.08795 -0.01239 0.65097
 C2827 C -0.08790 -0.02871 0.63622
 C2828 C -0.07801 -0.02576 0.61674
 C2829 C -0.07810 -0.04234 0.60228
 C2830 C -0.08769 -0.06128 0.60694
 C2831 C -0.09735 -0.06416 0.62599
 C2832 C -0.09750 -0.04813 0.64053
 C2833 C -0.07863 0.02365 0.66055
 C2834 C -0.06926 0.04267 0.65579
 C2835 C -0.05958 0.04555 0.63674
 C2836 C -0.05920 0.02943 0.62230
 C2837 C -0.09732 -0.01572 0.67118
 C2838 C -0.10490 -0.01861 0.68804
 C2839 C -0.05726 -0.00390 0.59260
 C2840 C -0.04797 -0.00219 0.57647
 H2841 H -0.07083 -0.04084 0.58723
 H2842 H -0.08762 -0.07379 0.59569
 H2843 H -0.10477 -0.07891 0.62953
 H2844 H -0.10523 -0.05112 0.65513
 H2845 H -0.08598 0.02216 0.67556
 H2846 H -0.06951 0.05525 0.66695
 H2847 H -0.05232 0.06036 0.63312
 H2848 H -0.05151 0.03242 0.60768
 C2849 C -0.11304 0.93427 1.00056
 C2850 C -0.11429 0.91249 0.99730
 C2851 C -0.13335 0.90177 1.00095
 C2852 C -0.15103 0.91292 1.00783
 C2853 C -0.14988 0.93478 1.01066
 C2854 C -0.13084 0.94549 1.00701
 C2855 C -0.13007 0.96733 1.01004
 C2856 C -0.14759 0.97828 1.01649
 C2857 C -0.16621 0.96782 1.02007
 C2858 C -0.16744 0.94633 1.01722
 C2859 C -0.13420 0.87998 0.99769
 C2860 C -0.11672 0.86908 0.99100
 C2861 C -0.09809 0.87955 0.98744
 C2862 C -0.09680 0.90100 0.99052
 C2863 C -0.17037 0.90199 1.01217
 C2864 C -0.18664 0.89336 1.01588
 C2865 C -0.09328 0.94507 0.99820
 C2866 C -0.07697 0.95432 0.99698
 H2867 H -0.11596 0.97619 1.00742
 H2868 H -0.14672 0.99498 1.01872
 H2869 H -0.17979 0.97640 1.02508
 H2870 H -0.18228 0.93891 1.02019
 H2871 H -0.14835 0.87117 1.00024
 H2872 H -0.11764 0.85241 0.98857
 H2873 H -0.08456 0.87099 0.98227
 H2874 H -0.08199 0.90848 0.98750
 C2875 C 0.38742 0.43450 0.50035
 C2876 C 0.38563 0.41308 0.49543
 C2877 C 0.36653 0.40241 0.49897
 C2878 C 0.34935 0.41324 0.50741
 C2879 C 0.35102 0.43477 0.51194
 C2880 C 0.37011 0.44543 0.50840
 C2881 C 0.37142 0.46694 0.51312
 C2882 C 0.35437 0.47761 0.52111
 C2883 C 0.33571 0.46718 0.52459
 C2884 C 0.33397 0.44602 0.52009
 C2885 C 0.36513 0.38098 0.49400
 C2886 C 0.38211 0.37038 0.48576
 C2887 C 0.40078 0.38081 0.48231
 C2888 C 0.40261 0.40192 0.48706
 C2889 C 0.33000 0.40230 0.51162
 C2890 C 0.31377 0.39358 0.51529
 C2891 C 0.40721 0.44519 0.49786
 C2892 C 0.42356 0.45432 0.49643
 H2893 H 0.38559 0.47576 0.51066
 H2894 H 0.35565 0.49406 0.52462
 H2895 H 0.32251 0.47554 0.53079
 H2896 H 0.31911 0.43861 0.52305
 H2897 H 0.35092 0.37221 0.49640
 H2898 H 0.38077 0.35399 0.48204
 H2899 H 0.41393 0.37250 0.47593
 H2900 H 0.41744 0.40937 0.48407
 C2901 C 0.38747 0.56705 -0.00293
 C2902 C 0.36934 0.55555 -0.00814
 C2903 C 0.35001 0.56601 -0.01095
 C2904 C 0.34892 0.58791 -0.00853
 C2905 C 0.36695 0.59936 -0.00289
 C2906 C 0.38629 0.58890 -0.00008
 C2907 C 0.40413 0.60067 0.00547
 C2908 C 0.40289 0.62218 0.00819
 C2909 C 0.38399 0.63241 0.00544
 C2910 C 0.36618 0.62122 -0.00005
 C2911 C 0.33212 0.55417 -0.01624
 C2912 C 0.33330 0.53263 -0.01868
 C2913 C 0.35219 0.52240 -0.01594
 C2914 C 0.37006 0.53365 -0.01074
 C2915 C 0.32930 0.59861 -0.01220
 C2916 C 0.31286 0.60712 -0.01551
 C2917 C 0.40737 0.55643 -0.00110
 C2918 C 0.42375 0.54731 -0.00005
 H2919 H 0.41917 0.59340 0.00781
 H2920 H 0.41668 0.63096 0.01243
 H2921 H 0.38312 0.64912 0.00757
 H2922 H 0.35182 0.62985 -0.00200
 H2923 H 0.31706 0.56140 -0.01852
 H2924 H 0.31946 0.52382 -0.02271
 H2925 H 0.35302 0.50566 -0.01785
 H2926 H 0.38438 0.52497 -0.00875
 C2927 C -0.11411 0.06551 0.49674
 C2928 C -0.13216 0.05432 0.49064
 C2929 C -0.15123 0.06506 0.48722
 C2930 C -0.15216 0.08694 0.48994
 C2931 C -0.13421 0.09808 0.49642
 C2932 C -0.11513 0.08733 0.49984
 C2933 C -0.09738 0.09880 0.50624
 C2934 C -0.09846 0.12029 0.50921
 C2935 C -0.11712 0.13079 0.50587
 C2936 C -0.13484 0.11990 0.49953
 C2937 C -0.16904 0.05353 0.48105
 C2938 C -0.16804 0.03201 0.47836
 C2939 C -0.14939 0.02151 0.48170
 C2940 C -0.13160 0.03245 0.48776
 C2941 C -0.17155 0.09791 0.48590
 C2942 C -0.18784 0.10662 0.48242
 C2943 C -0.09442 0.05463 0.49916
 C2944 C -0.07814 0.04537 0.50062
 H2945 H -0.08253 0.09130 0.50907
 H2946 H -0.08473 0.12883 0.51411
 H2947 H -0.11787 0.14748 0.50820
 H2948 H -0.14900 0.12875 0.49714
 H2949 H -0.18392 0.06099 0.47827
 H2950 H -0.18181 0.02345 0.47366
 H2951 H -0.14869 0.00479 0.47959
 H2952 H -0.11747 0.02356 0.49020
 C2953 C 0.61318 0.06628 0.50125
 C2954 C 0.61780 0.08394 0.48885
 C2955 C 0.63696 0.09476 0.49172
 C2956 C 0.65136 0.08783 0.50699
 C2957 C 0.64677 0.07011 0.51933
 C2958 C 0.62764 0.05929 0.51644
 C2959 C 0.62341 0.04161 0.52897
 C2960 C 0.63766 0.03482 0.54392
 C2961 C 0.65635 0.04541 0.54676
 C2962 C 0.66094 0.06285 0.53466
 C2963 C 0.64123 0.11237 0.47916
 C2964 C 0.62698 0.11912 0.46417
 C2965 C 0.60826 0.10855 0.46136
 C2966 C 0.60362 0.09116 0.47353
 C2967 C 0.67094 0.09879 0.51008
 C2968 C 0.68740 0.10738 0.51307
 C2969 C 0.59348 0.05542 0.49874
 C2970 C 0.57722 0.04608 0.49741
 H2971 H 0.60909 0.03283 0.52735
 H2972 H 0.63416 0.02128 0.55336
 H2973 H 0.66737 0.04008 0.55841
 H2974 H 0.67570 0.07054 0.53747
 H2975 H 0.65560 0.12109 0.48078
 H2976 H 0.63050 0.13263 0.45468
 H2977 H 0.59726 0.11384 0.44967
 H2978 H 0.58887 0.08343 0.47077
 C2979 C 0.11259 0.56829 1.00241
 C2980 C 0.11786 0.58537 0.98948
 C2981 C 0.13721 0.59585 0.99235
 C2982 C 0.15114 0.58919 1.00815
 C2983 C 0.14588 0.57206 1.02105
 C2984 C 0.12657 0.56158 1.01816
 C2985 C 0.12168 0.54449 1.03125
 C2986 C 0.13546 0.53796 1.04675
 C2987 C 0.15434 0.54821 1.04958
 C2988 C 0.15958 0.56507 1.03693
 C2989 C 0.14214 0.61287 0.97923
 C2990 C 0.12835 0.61937 0.96371
 C2991 C 0.10943 0.60914 0.96092
 C2992 C 0.10416 0.59232 0.97362
 C2993 C 0.17090 0.59983 1.01127
 C2994 C 0.18746 0.60822 1.01433
 C2995 C 0.09275 0.55767 0.99981
 C2996 C 0.07644 0.54843 0.99842
 H2997 H 0.10719 0.53598 1.02968
 H2998 H 0.13146 0.52487 1.05661
 H2999 H 0.16500 0.54309 1.06164
 H3000 H 0.17445 0.57253 1.03976
 H3001 H 0.15667 0.62131 0.98082
 H3002 H 0.13237 0.63242 0.95380
 H3003 H 0.09879 0.61423 0.94883
 H3004 H 0.08928 0.58484 0.97085
 C3005 C 0.11107 0.42792 0.49855
 C3006 C 0.12690 0.42974 0.51384
 C3007 C 0.14630 0.41949 0.51105
 C3008 C 0.14976 0.40751 0.49297
 C3009 C 0.13374 0.40526 0.47794
 C3010 C 0.11433 0.41549 0.48074
 C3011 C 0.09859 0.41310 0.46543
 C3012 C 0.10193 0.40096 0.44787
 C3013 C 0.12091 0.39097 0.44513
 C3014 C 0.13669 0.39304 0.45993
 C3015 C 0.16194 0.42163 0.52649
 C3016 C 0.15849 0.43354 0.54419
 C3017 C 0.13951 0.44355 0.54692
 C3018 C 0.12384 0.44174 0.53197
 C3019 C 0.16996 0.39803 0.48950
 C3020 C 0.18678 0.39041 0.48626
 C3021 C 0.09170 0.43935 0.50074
 C3022 C 0.07567 0.44901 0.50201
 H3023 H 0.08354 0.42054 0.46688
 H3024 H 0.08971 0.39929 0.43633
 H3025 H 0.12342 0.38155 0.43146
 H3026 H 0.15117 0.38493 0.45712
 H3027 H 0.17694 0.41410 0.52507
 H3028 H 0.17061 0.43499 0.55586
 H3029 H 0.13691 0.45278 0.56071
 H3030 H 0.10933 0.44979 0.53479
 C3031 C 0.61271 0.93142 0.00066
 C3032 C 0.61296 0.91073 -0.00694
 C3033 C 0.63228 0.90039 -0.01000
 C3034 C 0.65122 0.91079 -0.00542
 C3035 C 0.65094 0.93124 0.00278
 C3036 C 0.63163 0.94159 0.00583
 C3037 C 0.63175 0.96208 0.01391
 C3038 C 0.65042 0.97206 0.01887
 C3039 C 0.66930 0.96195 0.01589
 C3040 C 0.66966 0.94178 0.00794
 C3041 C 0.63215 0.87977 -0.01776
 C3042 C 0.61346 0.86964 -0.02233
 C3043 C 0.59458 0.87974 -0.01932
 C3044 C 0.59424 0.90006 -0.01174
 C3045 C 0.67099 0.90070 -0.00961
 C3046 C 0.68753 0.89264 -0.01325
 C3047 C 0.59311 0.94257 0.00227
 C3048 C 0.57694 0.95209 0.00304
 H3049 H 0.61746 0.97058 0.01655
 H3050 H 0.65023 0.98773 0.02506
 H3051 H 0.68376 0.96977 0.01977
 H3052 H 0.68474 0.93455 0.00594
 H3053 H 0.64644 0.87126 -0.02033
 H3054 H 0.61364 0.85386 -0.02822
 H3055 H 0.58010 0.87180 -0.02288
 H3056 H 0.57916 0.90726 -0.00962
 C3057 C 0.00093 0.89015 0.93112
 C3058 C -0.01543 0.87533 0.93046
 C3059 C -0.01240 0.85594 0.92029
 C3060 C 0.00695 0.85151 0.91084
 C3061 C 0.02312 0.86656 0.91103
 C3062 C 0.02010 0.88593 0.92119
 C3063 C 0.03654 0.90068 0.92127
 C3064 C 0.05541 0.89641 0.91159
 C3065 C 0.05836 0.87745 0.90166
 C3066 C 0.04246 0.86264 0.90133
 C3067 C -0.02893 0.84131 0.91994
 C3068 C -0.04792 0.84574 0.92933
 C3069 C -0.05088 0.86470 0.93927
 C3070 C -0.03486 0.87938 0.93990
 C3071 C 0.01053 0.83131 0.90143
 C3072 C 0.01393 0.81453 0.89382
 C3073 C -0.00158 0.90943 0.94255
 C3074 C -0.00284 0.92542 0.95221
 H3075 H 0.03499 0.91568 0.92875
 H3076 H 0.06780 0.90787 0.91180
 H3077 H 0.07305 0.87420 0.89415
 H3078 H 0.04551 0.84814 0.89337
 H3079 H -0.02737 0.82636 0.91237
 H3080 H -0.06042 0.83439 0.92889
 H3081 H -0.06567 0.86807 0.94651
 H3082 H -0.03789 0.89393 0.94778
 C3083 C 0.50371 0.39009 0.42837
 C3084 C 0.48726 0.37540 0.42741
 C3085 C 0.49031 0.35601 0.41725
 C3086 C 0.50979 0.35146 0.40812
 C3087 C 0.52606 0.36638 0.40859
 C3088 C 0.52301 0.38576 0.41874
 C3089 C 0.53955 0.40040 0.41912
 C3090 C 0.55854 0.39601 0.40973
 C3091 C 0.56152 0.37705 0.39981
 C3092 C 0.54553 0.36235 0.39920
 C3093 C 0.47368 0.34150 0.41659
 C3094 C 0.45457 0.34604 0.42569
 C3095 C 0.45158 0.36501 0.43561
 C3096 C 0.46770 0.37957 0.43653
 C3097 C 0.51336 0.33123 0.39877
 C3098 C 0.51669 0.31438 0.39126
 C3099 C 0.50112 0.40936 0.43981
 C3100 C 0.49962 0.42530 0.44953
 H3101 H 0.53798 0.41538 0.42661
 H3102 H 0.57102 0.40738 0.41016
 H3103 H 0.57631 0.37371 0.39254
 H3104 H 0.54859 0.34784 0.39126
 H3105 H 0.47525 0.32656 0.40902
 H3106 H 0.44200 0.33478 0.42501
 H3107 H 0.43670 0.36847 0.44262
 H3108 H 0.46463 0.39412 0.44439
 C3109 C -0.00550 0.38407 0.56750
 C3110 C -0.02054 0.36968 0.56009
 C3111 C -0.02358 0.35044 0.57065
 C3112 C -0.01155 0.34568 0.58854
 C3113 C 0.00352 0.36004 0.59593
 C3114 C 0.00654 0.37931 0.58538
 C3115 C 0.02166 0.39345 0.59305
 C3116 C 0.03348 0.38867 0.61065
 C3117 C 0.03053 0.36983 0.62097
 C3118 C 0.01574 0.35562 0.61376
 C3119 C -0.03873 0.33632 0.56296
 C3120 C -0.05052 0.34107 0.54534
 C3121 C -0.04753 0.35988 0.53500
 C3122 C -0.03274 0.37408 0.54221
 C3123 C -0.01469 0.32595 0.59920
 C3124 C -0.01762 0.30939 0.60762
 C3125 C -0.00269 0.40382 0.55679
 C3126 C -0.00093 0.42012 0.54760
 H3127 H 0.02452 0.40829 0.58554
 H3128 H 0.04500 0.39965 0.61631
 H3129 H 0.03976 0.36619 0.63463
 H3130 H 0.01400 0.34116 0.62230
 H3131 H -0.04165 0.32149 0.57046
 H3132 H -0.06203 0.33010 0.53968
 H3133 H -0.05672 0.36351 0.52131
 H3134 H -0.03100 0.38850 0.53362
 C3135 C 0.49748 0.88691 0.06695
 C3136 C 0.48294 0.87230 0.05899
 C3137 C 0.47960 0.85312 0.06958
 C3138 C 0.49083 0.84864 0.08805
 C3139 C 0.50549 0.86317 0.09592
 C3140 C 0.50882 0.88238 0.08533
 C3141 C 0.52351 0.89668 0.09349
 C3142 C 0.53464 0.89213 0.11159
 C3143 C 0.53139 0.87335 0.12194
 C3144 C 0.51700 0.85898 0.11427
 C3145 C 0.46494 0.83879 0.06135
 C3146 C 0.45392 0.84327 0.04317
 C3147 C 0.45720 0.86202 0.03281
 C3148 C 0.47152 0.87642 0.04055
 C3149 C 0.48730 0.82902 0.09879
 C3150 C 0.48408 0.81253 0.10724
 C3151 C 0.50035 0.90671 0.05634
 C3152 C 0.50197 0.92304 0.04719
 H3153 H 0.52658 0.91148 0.08597
 H3154 H 0.54586 0.90322 0.11761
 H3155 H 0.54008 0.86989 0.13599
 H3156 H 0.51501 0.84458 0.12284
 H3157 H 0.46183 0.82399 0.06884
 H3158 H 0.44278 0.83213 0.03710
 H3159 H 0.44861 0.86543 0.01869
 H3160 H 0.47352 0.89077 0.03190
 C3161 C 0.50384 0.61172 0.06782
 C3162 C 0.52221 0.61527 0.07958
 C3163 C 0.52494 0.63444 0.09026
 C3164 C 0.50929 0.64994 0.08913
 C3165 C 0.49071 0.64620 0.07775
 C3166 C 0.48798 0.62702 0.06706
 C3167 C 0.46932 0.62366 0.05573
 C3168 C 0.45378 0.63880 0.05499
 C3169 C 0.45646 0.65756 0.06542
 C3170 C 0.47468 0.66131 0.07669
 C3171 C 0.54349 0.63769 0.10182
 C3172 C 0.55889 0.62242 0.10283
 C3173 C 0.55621 0.60366 0.09240
 C3174 C 0.53813 0.60005 0.08088
 C3175 C 0.51257 0.66989 0.09923
 C3176 C 0.51562 0.68650 0.10740
 C3177 C 0.50157 0.59253 0.05613
 C3178 C 0.50023 0.57659 0.04634
 H3179 H 0.46652 0.60930 0.04738
 H3180 H 0.43959 0.63596 0.04628
 H3181 H 0.44434 0.66927 0.06480
 H3182 H 0.47604 0.67612 0.08457
 H3183 H 0.54629 0.65201 0.11022
 H3184 H 0.57297 0.62515 0.11176
 H3185 H 0.56821 0.59184 0.09324
 H3186 H 0.53677 0.58520 0.07307
 C3187 C 0.00261 0.11075 0.56855
 C3188 C 0.02115 0.11432 0.58006
 C3189 C 0.02406 0.13352 0.59062
 C3190 C 0.00842 0.14905 0.58963
 C3191 C -0.01030 0.14532 0.57848
 C3192 C -0.01321 0.12610 0.56791
 C3193 C -0.03201 0.12274 0.55681
 C3194 C -0.04751 0.13793 0.55618
 C3195 C -0.04466 0.15673 0.56651
 C3196 C -0.02629 0.16047 0.57755
 C3197 C 0.04277 0.13678 0.60193
 C3198 C 0.05814 0.12147 0.60279
 C3199 C 0.05529 0.10268 0.59248
 C3200 C 0.03704 0.09906 0.58121
 C3201 C 0.01185 0.16900 0.59965
 C3202 C 0.01498 0.18562 0.60777
 C3203 C 0.00013 0.09150 0.55702
 C3204 C -0.00137 0.07549 0.54739
 H3205 H -0.03495 0.10836 0.54855
 H3206 H -0.06181 0.13510 0.54765
 H3207 H -0.05674 0.16848 0.56597
 H3208 H -0.02480 0.17531 0.58535
 H3209 H 0.04570 0.15113 0.61024
 H3210 H 0.07234 0.12421 0.61153
 H3211 H 0.06728 0.09084 0.59321
 H3212 H 0.03555 0.08418 0.57348
 C3213 C 0.50050 0.11089 0.42994
 C3214 C 0.51596 0.12657 0.43158
 C3215 C 0.51309 0.14602 0.42131
 C3216 C 0.49478 0.14966 0.40947
 C3217 C 0.47962 0.13375 0.40732
 C3218 C 0.48249 0.11430 0.41757
 C3219 C 0.46705 0.09866 0.41528
 C3220 C 0.44930 0.10215 0.40322
 C3221 C 0.44648 0.12118 0.39321
 C3222 C 0.46141 0.13685 0.39519
 C3223 C 0.52869 0.16152 0.42328
 C3224 C 0.54663 0.15789 0.43505
 C3225 C 0.54943 0.13886 0.44510
 C3226 C 0.53431 0.12332 0.44344
 C3227 C 0.49115 0.16993 0.40005
 C3228 C 0.48769 0.18677 0.39242
 C3229 C 0.50260 0.09157 0.44156
 C3230 C 0.50355 0.07554 0.45134
 H3231 H 0.46855 0.08358 0.42272
 H3232 H 0.43766 0.09002 0.40162
 H3233 H 0.43266 0.12382 0.38385
 H3234 H 0.45853 0.15137 0.38707
 H3235 H 0.52722 0.17655 0.41572
 H3236 H 0.55842 0.16990 0.43638
 H3237 H 0.56337 0.13613 0.45424
 H3238 H 0.53720 0.10876 0.45149
 C3239 C -0.00204 0.61313 0.93171
 C3240 C 0.01413 0.62816 0.93165
 C3241 C 0.01110 0.64761 0.92140
 C3242 C -0.00808 0.65189 0.91129
 C3243 C -0.02405 0.63664 0.91089
 C3244 C -0.02102 0.61720 0.92112
 C3245 C -0.03726 0.60224 0.92059
 C3246 C -0.05594 0.60636 0.91024
 C3247 C -0.05891 0.62538 0.90025
 C3248 C -0.04321 0.64040 0.90053
 C3249 C 0.02745 0.66244 0.92164
 C3250 C 0.04627 0.65817 0.93169
 C3251 C 0.04922 0.63916 0.94171
 C3252 C 0.03339 0.62427 0.94175
 C3253 C -0.01171 0.67216 0.90182
 C3254 C -0.01516 0.68900 0.89417
 C3255 C 0.00046 0.59376 0.94320
 C3256 C 0.00176 0.57769 0.95288
 H3257 H -0.03569 0.58720 0.92809
 H3258 H -0.06818 0.59473 0.90998
 H3259 H -0.07345 0.62851 0.89223
 H3260 H -0.04625 0.65494 0.89249
 H3261 H 0.02588 0.67744 0.91403
 H3262 H 0.05862 0.66968 0.93171
 H3263 H 0.06386 0.63593 0.94951
 H3264 H 0.03642 0.60969 0.94972
 C3265 C 0.25266 0.68574 0.86307
 C3266 C 0.26656 0.69394 0.87813
 C3267 C 0.26981 0.68312 0.89716
 C3268 C 0.25912 0.66418 0.90103
 C3269 C 0.24508 0.65608 0.88605
 C3270 C 0.24184 0.66690 0.86700
 C3271 C 0.22776 0.65850 0.85223
 C3272 C 0.21715 0.63995 0.85619
 C3273 C 0.22031 0.62937 0.87482
 C3274 C 0.23411 0.63727 0.88964
 C3275 C 0.28381 0.69160 0.91197
 C3276 C 0.29430 0.71024 0.90808
 C3277 C 0.29111 0.72082 0.88947
 C3278 C 0.27743 0.71284 0.87461
 C3279 C 0.26258 0.65317 0.92047
 C3280 C 0.26568 0.64442 0.93679
 C3281 C 0.24987 0.69656 0.84342
 C3282 C 0.24810 0.70573 0.82715
 H3283 H 0.22477 0.66618 0.83753
 H3284 H 0.20639 0.63376 0.84476
 H3285 H 0.21203 0.61497 0.87782
 H3286 H 0.23605 0.62849 0.90390
 H3287 H 0.28682 0.68395 0.92669
 H3288 H 0.30494 0.71650 0.91958
 H3289 H 0.29929 0.73530 0.88653
 H3290 H 0.27547 0.72167 0.86039
 C3291 C 0.75284 0.18336 0.36038
 C3292 C 0.76674 0.19178 0.37533
 C3293 C 0.76998 0.18126 0.39453
 C3294 C 0.75929 0.16238 0.39869
 C3295 C 0.74526 0.15405 0.38381
 C3296 C 0.74204 0.16457 0.36459
 C3297 C 0.72797 0.15595 0.34994
 C3298 C 0.71736 0.13746 0.35418
 C3299 C 0.72051 0.12717 0.37297
 C3300 C 0.73430 0.13529 0.38768
 C3301 C 0.78398 0.18997 0.40921
 C3302 C 0.79447 0.20854 0.40504
 C3303 C 0.79131 0.21883 0.38627
 C3304 C 0.77763 0.21062 0.37153
 C3305 C 0.76277 0.15166 0.41830
 C3306 C 0.76594 0.14319 0.43476
 C3307 C 0.75006 0.19393 0.34058
 C3308 C 0.74847 0.20307 0.32427
 H3309 H 0.72501 0.16340 0.33512
 H3310 H 0.70661 0.13109 0.34283
 H3311 H 0.71223 0.11281 0.37618
 H3312 H 0.73623 0.12674 0.40207
 H3313 H 0.78697 0.18256 0.42404
 H3314 H 0.80511 0.21497 0.41645
 H3315 H 0.79949 0.23325 0.38310
 H3316 H 0.77570 0.21923 0.35717
 C3317 C 0.24786 0.31809 0.36318
 C3318 C 0.23202 0.33331 0.36506
 C3319 C 0.22906 0.34363 0.38430
 C3320 C 0.24196 0.33869 0.40153
 C3321 C 0.25812 0.32384 0.39950
 C3322 C 0.26108 0.31350 0.38026
 C3323 C 0.27725 0.29862 0.37863
 C3324 C 0.29016 0.29411 0.39552
 C3325 C 0.28728 0.30423 0.41434
 C3326 C 0.27146 0.31893 0.41640
 C3327 C 0.21304 0.35869 0.38586
 C3328 C 0.20033 0.36343 0.36888
 C3329 C 0.20324 0.35335 0.35006
 C3330 C 0.21887 0.33844 0.34808
 C3331 C 0.23823 0.34845 0.42146
 C3332 C 0.23493 0.35631 0.43808
 C3333 C 0.25009 0.30673 0.34387
 C3334 C 0.25143 0.29719 0.32785
 H3335 H 0.28012 0.29037 0.36430
 H3336 H 0.30247 0.28270 0.39400
 H3337 H 0.29735 0.30067 0.42741
 H3338 H 0.26985 0.32641 0.43134
 H3339 H 0.21019 0.36697 0.40017
 H3340 H 0.18817 0.37501 0.37034
 H3341 H 0.19333 0.35709 0.33691
 H3342 H 0.22053 0.33104 0.33311
 C3343 C 0.74825 0.81947 0.86341
 C3344 C 0.73270 0.83500 0.86510
 C3345 C 0.72965 0.84537 0.88431
 C3346 C 0.74220 0.84016 0.90172
 C3347 C 0.75814 0.82504 0.89987
 C3348 C 0.76117 0.81466 0.88066
 C3349 C 0.77710 0.79950 0.87923
 C3350 C 0.78971 0.79475 0.89628
 C3351 C 0.78675 0.80490 0.91507
 C3352 C 0.77117 0.81987 0.91694
 C3353 C 0.71391 0.86073 0.88567
 C3354 C 0.70154 0.86574 0.86851
 C3355 C 0.70452 0.85562 0.84972
 C3356 C 0.71988 0.84041 0.84794
 C3357 C 0.73836 0.84994 0.92163
 C3358 C 0.73504 0.85781 0.93825
 C3359 C 0.75036 0.80791 0.84419
 C3360 C 0.75149 0.79814 0.82828
 H3361 H 0.78002 0.79122 0.86493
 H3362 H 0.80184 0.78314 0.89491
 H3363 H 0.79659 0.80116 0.92827
 H3364 H 0.76949 0.82736 0.93186
 H3365 H 0.71102 0.86905 0.89995
 H3366 H 0.68958 0.87754 0.86981
 H3367 H 0.69487 0.85957 0.83644
 H3368 H 0.72162 0.83300 0.83299
 C3369 C 0.75372 0.81706 0.13816
 C3370 C 0.76610 0.80756 0.12271
 C3371 C 0.76965 0.81802 0.10356
 C3372 C 0.76078 0.83792 0.09994
 C3373 C 0.74826 0.84734 0.11531
 C3374 C 0.74473 0.83688 0.13448
 C3375 C 0.73220 0.84662 0.14962
 C3376 C 0.72341 0.86615 0.14594
 C3377 C 0.72686 0.87638 0.12720
 C3378 C 0.73913 0.86716 0.11201
 C3379 C 0.78213 0.80823 0.08840
 C3380 C 0.79085 0.78866 0.09204
 C3381 C 0.78738 0.77843 0.11076
 C3382 C 0.77517 0.78768 0.12597
 C3383 C 0.76450 0.84856 0.08036
 C3384 C 0.76768 0.85702 0.06392
 C3385 C 0.75074 0.80657 0.15795
 C3386 C 0.74897 0.79754 0.17429
 H3387 H 0.72906 0.83925 0.16442
 H3388 H 0.71386 0.87338 0.15769
 H3389 H 0.71999 0.89155 0.12442
 H3390 H 0.74137 0.87572 0.09768
 H3391 H 0.78529 0.81556 0.07359
 H3392 H 0.80036 0.78141 0.08027
 H3393 H 0.79418 0.76323 0.11351
 H3394 H 0.77291 0.77907 0.14026
 C3395 C 0.25488 0.31624 0.63804
 C3396 C 0.26864 0.30771 0.62321
 C3397 C 0.27190 0.31818 0.60402
 C3398 C 0.26136 0.33711 0.59974
 C3399 C 0.24751 0.34558 0.61451
 C3400 C 0.24426 0.33511 0.63373
 C3401 C 0.23037 0.34388 0.64826
 C3402 C 0.21996 0.36246 0.64394
 C3403 C 0.22312 0.37269 0.62515
 C3404 C 0.23673 0.36442 0.61055
 C3405 C 0.28576 0.30936 0.58946
 C3406 C 0.29609 0.29072 0.59373
 C3407 C 0.29290 0.28048 0.61250
 C3408 C 0.27936 0.28880 0.62712
 C3409 C 0.26473 0.34774 0.58010
 C3410 C 0.26765 0.35623 0.56364
 C3411 C 0.25195 0.30569 0.65780
 C3412 C 0.25005 0.29668 0.67413
 H3413 H 0.22739 0.33647 0.66308
 H3414 H 0.20938 0.36895 0.65523
 H3415 H 0.21500 0.38712 0.62187
 H3416 H 0.23868 0.37294 0.59616
 H3417 H 0.28876 0.31673 0.57463
 H3418 H 0.30662 0.28420 0.58242
 H3419 H 0.30096 0.26600 0.61575
 H3420 H 0.27739 0.28023 0.64148
 C3421 C 0.74898 0.17888 0.63689
 C3422 C 0.73417 0.16262 0.63484
 C3423 C 0.73131 0.15265 0.61535
 C3424 C 0.74329 0.15899 0.59804
 C3425 C 0.75857 0.17478 0.60027
 C3426 C 0.76143 0.18476 0.61976
 C3427 C 0.77669 0.20061 0.62158
 C3428 C 0.78882 0.20642 0.60463
 C3429 C 0.78603 0.19666 0.58557
 C3430 C 0.77109 0.18103 0.58332
 C3431 C 0.71629 0.13656 0.61363
 C3432 C 0.70446 0.13045 0.63068
 C3433 C 0.70727 0.14018 0.64974
 C3434 C 0.72192 0.15610 0.65188
 C3435 C 0.73943 0.14972 0.57785
 C3436 C 0.73591 0.14223 0.56105
 C3437 C 0.75070 0.19014 0.65634
 C3438 C 0.75149 0.19970 0.67241
 H3439 H 0.77945 0.20862 0.63610
 H3440 H 0.80045 0.21855 0.60630
 H3441 H 0.79549 0.20123 0.57246
 H3442 H 0.76952 0.17387 0.56820
 H3443 H 0.71356 0.12849 0.59913
 H3444 H 0.69306 0.11810 0.62910
 H3445 H 0.69806 0.13537 0.66295
 H3446 H 0.72357 0.16316 0.66704
 C3447 C 0.24712 0.68213 0.13692
 C3448 C 0.23250 0.66564 0.13532
 C3449 C 0.22966 0.65520 0.11608
 C3450 C 0.24147 0.66128 0.09857
 C3451 C 0.25650 0.67737 0.10032
 C3452 C 0.25934 0.68783 0.11956
 C3453 C 0.27436 0.70394 0.12092
 C3454 C 0.28628 0.70956 0.10375
 C3455 C 0.28351 0.69934 0.08494
 C3456 C 0.26880 0.68342 0.08315
 C3457 C 0.21484 0.63887 0.11482
 C3458 C 0.20319 0.63300 0.13208
 C3459 C 0.20599 0.64320 0.15089
 C3460 C 0.22045 0.65935 0.15258
 C3461 C 0.23774 0.65138 0.07866
 C3462 C 0.23440 0.64339 0.06206
 C3463 C 0.24903 0.69365 0.15619
 C3464 C 0.25006 0.70330 0.17219
 H3465 H 0.27711 0.71232 0.13523
 H3466 H 0.29773 0.72190 0.10507
 H3467 H 0.29280 0.70376 0.07166
 H3468 H 0.26724 0.67591 0.06821
 H3469 H 0.21213 0.63045 0.10052
 H3470 H 0.19195 0.62047 0.13084
 H3471 H 0.19692 0.63857 0.16426
 H3472 H 0.22208 0.66677 0.16756
 C3473 C 0.17738 0.64047 0.74883
 C3474 C 0.16399 0.63740 0.73156
 C3475 C 0.15378 0.61792 0.72881
 C3476 C 0.15701 0.60163 0.74337
 C3477 C 0.16993 0.60490 0.76096
 C3478 C 0.18015 0.62439 0.76370
 C3479 C 0.19311 0.62725 0.78133
 C3480 C 0.19588 0.61132 0.79585
 C3481 C 0.18587 0.59227 0.79318
 C3482 C 0.17303 0.58900 0.77596
 C3483 C 0.14060 0.61516 0.71133
 C3484 C 0.13757 0.63120 0.69698
 C3485 C 0.14753 0.65026 0.69968
 C3486 C 0.16061 0.65341 0.71673
 C3487 C 0.14757 0.58135 0.73985
 C3488 C 0.13996 0.56448 0.73659
 C3489 C 0.18888 0.65988 0.75081
 C3490 C 0.19862 0.67593 0.75187
 H3491 H 0.20118 0.64182 0.78409
 H3492 H 0.20585 0.61376 0.80923
 H3493 H 0.18807 0.57994 0.80450
 H3494 H 0.16556 0.57393 0.77456
 H3495 H 0.13248 0.60063 0.70857
 H3496 H 0.12742 0.62883 0.68371
 H3497 H 0.14512 0.66268 0.68850
 H3498 H 0.16798 0.66853 0.71817
 C3499 C 0.67841 0.13958 0.24872
 C3500 C 0.66429 0.13699 0.23194
 C3501 C 0.65376 0.11767 0.22923
 C3502 C 0.65739 0.10106 0.24332
 C3503 C 0.67101 0.10387 0.26047
 C3504 C 0.68156 0.12319 0.26317
 C3505 C 0.69523 0.12558 0.28033
 C3506 C 0.69837 0.10934 0.29443
 C3507 C 0.68805 0.09046 0.29181
 C3508 C 0.67451 0.08766 0.27504
 C3509 C 0.63985 0.11540 0.21223
 C3510 C 0.63643 0.13175 0.19833
 C3511 C 0.64671 0.15065 0.20099
 C3512 C 0.66050 0.15332 0.21756
 C3513 C 0.64769 0.08091 0.23972
 C3514 C 0.63989 0.06413 0.23638
 C3515 C 0.69030 0.15877 0.25051
 C3516 C 0.70032 0.17467 0.25130
 H3517 H 0.70356 0.14000 0.28305
 H3518 H 0.70889 0.11142 0.30746
 H3519 H 0.69055 0.07790 0.30282
 H3520 H 0.66681 0.07270 0.27367
 H3521 H 0.63146 0.10101 0.20953
 H3522 H 0.62573 0.12975 0.18544
 H3523 H 0.64399 0.16331 0.19016
 H3524 H 0.66809 0.16833 0.21900
 C3525 C 0.81687 0.13501 0.74774
 C3526 C 0.83892 0.13509 0.74697
 C3527 C 0.85015 0.11625 0.75025
 C3528 C 0.83925 0.09746 0.75425
 C3529 C 0.81718 0.09728 0.75441
 C3530 C 0.80596 0.11611 0.75114
 C3531 C 0.78391 0.11557 0.75149
 C3532 C 0.77325 0.09695 0.75497
 C3533 C 0.78421 0.07854 0.75817
 C3534 C 0.80592 0.07861 0.75791
 C3535 C 0.87218 0.11673 0.74956
 C3536 C 0.88282 0.13529 0.74572
 C3537 C 0.87184 0.15371 0.74252
 C3538 C 0.85014 0.15370 0.74312
 C3539 C 0.85064 0.07837 0.75865
 C3540 C 0.85963 0.06231 0.76254
 C3541 C 0.80542 0.15446 0.74601
 C3542 C 0.79574 0.17055 0.74522
 H3543 H 0.77468 0.12947 0.74903
 H3544 H 0.75638 0.09682 0.75517
 H3545 H 0.77586 0.06412 0.76086
 H3546 H 0.81374 0.06387 0.76045
 H3547 H 0.88138 0.10279 0.75193
 H3548 H 0.89968 0.13539 0.74524
 H3549 H 0.88019 0.16808 0.73957
 H3550 H 0.84228 0.16840 0.74048
 C3551 C 0.31747 0.63872 0.24475
 C3552 C 0.33953 0.63847 0.24481
 C3553 C 0.35035 0.61937 0.24796
 C3554 C 0.33902 0.60065 0.25100
 C3555 C 0.31697 0.60080 0.25017
 C3556 C 0.30616 0.61989 0.24703
 C3557 C 0.28410 0.61967 0.24643
 C3558 C 0.27304 0.60112 0.24883
 C3559 C 0.28360 0.58245 0.25190
 C3560 C 0.30530 0.58220 0.25259
 C3561 C 0.37240 0.61953 0.24815
 C3562 C 0.38346 0.63802 0.24526
 C3563 C 0.37288 0.65669 0.24216
 C3564 C 0.35117 0.65701 0.24194
 C3565 C 0.34993 0.58134 0.25558
 C3566 C 0.35853 0.56513 0.25969
 C3567 C 0.30638 0.65839 0.24345
 C3568 C 0.29688 0.67458 0.24310
 H3569 H 0.27518 0.63379 0.24402
 H3570 H 0.25618 0.60124 0.24829
 H3571 H 0.27493 0.56808 0.25375
 H3572 H 0.31281 0.56728 0.25497
 H3573 H 0.38130 0.60538 0.25047
 H3574 H 0.40032 0.63786 0.24542
 H3575 H 0.38155 0.67101 0.23994
 H3576 H 0.34363 0.67189 0.23941
 C3577 C 0.31786 0.36366 0.24861
 C3578 C 0.30659 0.38180 0.24295
 C3579 C 0.31727 0.40100 0.24000
 C3580 C 0.33916 0.40195 0.24271
 C3581 C 0.35037 0.38393 0.24884
 C3582 C 0.33968 0.36472 0.25180
 C3583 C 0.35122 0.34689 0.25784
 C3584 C 0.37271 0.34800 0.26087
 C3585 C 0.38316 0.36678 0.25798
 C3586 C 0.37220 0.38459 0.25202
 C3587 C 0.30567 0.41889 0.23425
 C3588 C 0.28414 0.41785 0.23150
 C3589 C 0.27369 0.39908 0.23439
 C3590 C 0.28471 0.38121 0.24005
 C3591 C 0.35010 0.42139 0.23875
 C3592 C 0.35877 0.43767 0.23510
 C3593 C 0.30703 0.34387 0.25053
 C3594 C 0.29776 0.32755 0.25167
 H3595 H 0.34377 0.33194 0.26031
 H3596 H 0.38130 0.33421 0.26548
 H3597 H 0.39985 0.36756 0.26036
 H3598 H 0.38100 0.39885 0.24998
 H3599 H 0.31307 0.43387 0.23185
 H3600 H 0.27551 0.43169 0.22712
 H3601 H 0.25697 0.39835 0.23225
 H3602 H 0.27587 0.36699 0.24215
 C3603 C 0.81787 0.86255 0.75185
 C3604 C 0.80679 0.88114 0.74743
 C3605 C 0.81783 0.90006 0.74408
 C3606 C 0.83988 0.90030 0.74516
 C3607 C 0.85092 0.88183 0.75017
 C3608 C 0.83987 0.86289 0.75353
 C3609 C 0.85123 0.84461 0.75840
 C3610 C 0.87290 0.84502 0.75993
 C3611 C 0.88370 0.86353 0.75664
 C3612 C 0.87291 0.88178 0.75180
 C3613 C 0.80641 0.91842 0.73956
 C3614 C 0.78473 0.91809 0.73840
 C3615 C 0.77394 0.89958 0.74168
 C3616 C 0.78476 0.88127 0.74614
 C3617 C 0.85110 0.91947 0.74072
 C3618 C 0.85994 0.93560 0.73680
 C3619 C 0.80663 0.84297 0.75375
 C3620 C 0.79706 0.82682 0.75468
 H3621 H 0.84351 0.82985 0.76114
 H3622 H 0.88136 0.83089 0.76367
 H3623 H 0.90053 0.86376 0.75785
 H3624 H 0.88198 0.89581 0.74940
 H3625 H 0.81409 0.93322 0.73692
 H3626 H 0.77625 0.93227 0.73494
 H3627 H 0.75709 0.89940 0.74077
 H3628 H 0.77566 0.86727 0.74861
 C3629 C 0.68235 0.86327 0.25263
 C3630 C 0.68973 0.87739 0.26786
 C3631 C 0.67909 0.89648 0.27119
 C3632 C 0.66113 0.90138 0.25926
 C3633 C 0.65384 0.88734 0.24392
 C3634 C 0.66448 0.86821 0.24060
 C3635 C 0.65688 0.85439 0.22524
 C3636 C 0.63927 0.85933 0.21346
 C3637 C 0.62888 0.87803 0.21669
 C3638 C 0.63601 0.89193 0.23173
 C3639 C 0.68673 0.91031 0.28656
 C3640 C 0.70438 0.90541 0.29828
 C3641 C 0.71480 0.88675 0.29502
 C3642 C 0.70764 0.87284 0.28001
 C3643 C 0.65029 0.92088 0.26285
 C3644 C 0.64175 0.93725 0.26618
 C3645 C 0.69299 0.84354 0.24976
 C3646 C 0.70222 0.82727 0.24825
 H3647 H 0.66447 0.83967 0.22216
 H3648 H 0.63368 0.84859 0.20174
 H3649 H 0.61521 0.88179 0.20750
 H3650 H 0.62741 0.90629 0.23369
 H3651 H 0.67918 0.92503 0.28969
 H3652 H 0.71000 0.91617 0.30997
 H3653 H 0.72851 0.88301 0.30416
 H3654 H 0.71631 0.85854 0.27805
 C3655 C 0.18197 0.36324 0.75470
 C3656 C 0.18940 0.37743 0.76983
 C3657 C 0.17887 0.39663 0.77298
 C3658 C 0.16098 0.40154 0.76095
 C3659 C 0.15362 0.38740 0.74574
 C3660 C 0.16414 0.36818 0.74261
 C3661 C 0.15648 0.35427 0.72735
 C3662 C 0.13892 0.35921 0.71550
 C3663 C 0.12864 0.37800 0.71855
 C3664 C 0.13583 0.39200 0.73348
 C3665 C 0.18657 0.41054 0.78824
 C3666 C 0.20416 0.40563 0.80004
 C3667 C 0.21447 0.38687 0.79696
 C3668 C 0.20725 0.37288 0.78206
 C3669 C 0.15030 0.42118 0.76428
 C3670 C 0.14185 0.43765 0.76737
 C3671 C 0.19258 0.34348 0.75188
 C3672 C 0.20172 0.32717 0.75023
 H3673 H 0.16398 0.33947 0.72442
 H3674 H 0.13328 0.34840 0.70388
 H3675 H 0.11500 0.38176 0.70930
 H3676 H 0.12732 0.40642 0.73530
 H3677 H 0.17910 0.42533 0.79123
 H3678 H 0.20983 0.41645 0.81164
 H3679 H 0.22814 0.38313 0.80616
 H3680 H 0.21583 0.35850 0.78024
 C3681 C 0.13625 0.75682 0.81877
 C3682 C 0.13171 0.77624 0.82811
 C3683 C 0.11268 0.77897 0.83893
 C3684 C 0.09830 0.76227 0.84036
 C3685 C 0.10300 0.74274 0.83135
 C3686 C 0.12204 0.74001 0.82051
 C3687 C 0.12637 0.72038 0.81156
 C3688 C 0.11229 0.70391 0.81327
 C3689 C 0.09368 0.70658 0.82386
 C3690 C 0.08900 0.72574 0.83282
 C3691 C 0.10844 0.79856 0.84806
 C3692 C 0.12260 0.81497 0.84654
 C3693 C 0.14121 0.81230 0.83596
 C3694 C 0.14580 0.79320 0.82682
 C3695 C 0.07850 0.76538 0.85067
 C3696 C 0.06198 0.76826 0.85897
 C3697 C 0.15536 0.75434 0.80709
 C3698 C 0.17124 0.75275 0.79733
 H3699 H 0.14065 0.71755 0.80319
 H3700 H 0.11586 0.68899 0.80634
 H3701 H 0.08280 0.69373 0.82515
 H3702 H 0.07434 0.72706 0.84093
 H3703 H 0.09418 0.80139 0.85647
 H3704 H 0.11911 0.82983 0.85362
 H3705 H 0.15217 0.82509 0.83483
 H3706 H 0.16049 0.79189 0.81878
 C3707 C 0.63952 0.25351 0.31794
 C3708 C 0.63567 0.27257 0.32826
 C3709 C 0.61658 0.27556 0.33890
 C3710 C 0.60146 0.25947 0.33916
 C3711 C 0.60550 0.24024 0.32926
 C3712 C 0.62460 0.23724 0.31861
 C3713 C 0.62827 0.21793 0.30873
 C3714 C 0.61349 0.20201 0.30937
 C3715 C 0.59481 0.20493 0.31978
 C3716 C 0.59077 0.22380 0.32963
 C3717 C 0.61302 0.29480 0.34899
 C3718 C 0.62792 0.31061 0.34861
 C3719 C 0.64660 0.30769 0.33822
 C3720 C 0.65052 0.28893 0.32813
 C3721 C 0.58155 0.26298 0.34911
 C3722 C 0.56494 0.26619 0.35711
 C3723 C 0.65856 0.25095 0.30618
 C3724 C 0.67436 0.24948 0.29629
 H3725 H 0.64258 0.21493 0.30046
 H3726 H 0.61655 0.18732 0.30175
 H3727 H 0.58338 0.19251 0.32024
 H3728 H 0.57603 0.22533 0.33755
 H3729 H 0.59874 0.29781 0.35731
 H3730 H 0.62496 0.32521 0.35643
 H3731 H 0.65813 0.32002 0.33798
 H3732 H 0.66530 0.28740 0.32029
 C3733 C 0.63869 0.74855 0.18122
 C3734 C 0.62311 0.76413 0.18190
 C3735 C 0.60378 0.76095 0.17147
 C3736 C 0.60016 0.74221 0.16045
 C3737 C 0.61594 0.72686 0.15934
 C3738 C 0.63527 0.73004 0.16975
 C3739 C 0.65077 0.71441 0.16852
 C3740 C 0.64728 0.69617 0.15733
 C3741 C 0.62838 0.69307 0.14715
 C3742 C 0.61283 0.70817 0.14810
 C3743 C 0.58839 0.77670 0.17245
 C3744 C 0.59200 0.79506 0.18341
 C3745 C 0.61089 0.79815 0.19362
 C3746 C 0.62633 0.78291 0.19293
 C3747 C 0.58004 0.73840 0.15074
 C3748 C 0.56330 0.73491 0.14291
 C3749 C 0.65796 0.75113 0.19286
 C3750 C 0.67394 0.75252 0.20267
 H3751 H 0.66574 0.71611 0.17614
 H3752 H 0.65931 0.68439 0.15654
 H3753 H 0.62574 0.67888 0.13847
 H3754 H 0.59841 0.70505 0.13989
 H3755 H 0.57346 0.77501 0.16473
 H3756 H 0.58006 0.80695 0.18399
 H3757 H 0.61361 0.81243 0.20214
 H3758 H 0.64079 0.78603 0.20108
 C3759 C 0.13716 0.24611 0.68259
 C3760 C 0.12206 0.26218 0.68212
 C3761 C 0.10284 0.25904 0.67150
 C3762 C 0.09884 0.23984 0.66143
 C3763 C 0.11411 0.22393 0.66154
 C3764 C 0.13333 0.22708 0.67215
 C3765 C 0.14832 0.21090 0.67212
 C3766 C 0.14444 0.19217 0.66191
 C3767 C 0.12564 0.18909 0.65154
 C3768 C 0.11059 0.20473 0.65131
 C3769 C 0.08794 0.27529 0.67131
 C3770 C 0.09193 0.29412 0.68132
 C3771 C 0.11072 0.29719 0.69171
 C3772 C 0.12568 0.28145 0.69217
 C3773 C 0.07886 0.23619 0.65140
 C3774 C 0.06222 0.23282 0.64330
 C3775 C 0.15642 0.24886 0.69419
 C3776 C 0.17244 0.25053 0.70390
 H3777 H 0.16320 0.21255 0.67995
 H3778 H 0.15609 0.17997 0.66204
 H3779 H 0.12270 0.17451 0.64363
 H3780 H 0.09623 0.20160 0.64301
 H3781 H 0.07310 0.27363 0.66341
 H3782 H 0.08037 0.30639 0.68101
 H3783 H 0.11374 0.31184 0.69947
 H3784 H 0.14007 0.28457 0.70043
 C3785 C 0.85945 0.24828 0.67897
 C3786 C 0.86273 0.26632 0.66666
 C3787 C 0.88212 0.26933 0.65653
 C3788 C 0.89809 0.25426 0.65875
 C3789 C 0.89457 0.23592 0.67052
 C3790 C 0.87518 0.23291 0.68066
 C3791 C 0.87204 0.21451 0.69244
 C3792 C 0.88761 0.19947 0.69411
 C3793 C 0.90659 0.20242 0.68421
 C3794 C 0.91012 0.22041 0.67254
 C3795 C 0.88510 0.28756 0.64444
 C3796 C 0.86936 0.30239 0.64240
 C3797 C 0.85040 0.29945 0.65230
 C3798 C 0.84704 0.28166 0.66432
 C3799 C 0.91830 0.25801 0.64944
 C3800 C 0.93509 0.26155 0.64191
 C3801 C 0.84020 0.24604 0.69047
 C3802 C 0.82423 0.24494 0.70016
 H3803 H 0.85752 0.21153 0.70039
 H3804 H 0.88494 0.18546 0.70312
 H3805 H 0.91864 0.19068 0.68556
 H3806 H 0.92512 0.22199 0.66509
 H3807 H 0.89957 0.29054 0.63640
 H3808 H 0.87190 0.31622 0.63307
 H3809 H 0.83822 0.31100 0.65066
 H3810 H 0.83200 0.28007 0.67167
 C3811 C 0.35999 0.75127 0.17838
 C3812 C 0.36342 0.76919 0.16595
 C3813 C 0.38288 0.77204 0.15590
 C3814 C 0.39878 0.75693 0.15832
 C3815 C 0.39511 0.73867 0.17019
 C3816 C 0.37564 0.73583 0.18025
 C3817 C 0.37235 0.71752 0.19212
 C3818 C 0.38785 0.70242 0.19398
 C3819 C 0.40689 0.70521 0.18417
 C3820 C 0.41058 0.72310 0.17240
 C3821 C 0.38601 0.79017 0.14370
 C3822 C 0.37035 0.80505 0.14146
 C3823 C 0.35131 0.80226 0.15128
 C3824 C 0.34781 0.78458 0.16341
 C3825 C 0.41908 0.76054 0.14912
 C3826 C 0.43594 0.76395 0.14169
 C3827 C 0.34072 0.74924 0.18992
 C3828 C 0.32482 0.74825 0.19974
 H3829 H 0.35777 0.71465 0.20001
 H3830 H 0.38506 0.68847 0.20307
 H3831 H 0.41888 0.69343 0.18566
 H3832 H 0.42562 0.72456 0.16502
 H3833 H 0.40054 0.79302 0.13572
 H3834 H 0.37300 0.81880 0.13205
 H3835 H 0.33919 0.81386 0.14948
 H3836 H 0.33272 0.78310 0.17069
 C3837 C 0.36291 0.24704 0.31996
 C3838 C 0.37819 0.26296 0.31933
 C3839 C 0.39759 0.26008 0.32972
 C3840 C 0.40157 0.24130 0.34065
 C3841 C 0.38610 0.22557 0.34167
 C3842 C 0.36670 0.22846 0.33130
 C3843 C 0.35151 0.21247 0.33246
 C3844 C 0.35538 0.19416 0.34354
 C3845 C 0.37435 0.19134 0.35367
 C3846 C 0.38959 0.20681 0.35279
 C3847 C 0.41268 0.27617 0.32879
 C3848 C 0.40871 0.29459 0.31793
 C3849 C 0.38973 0.29741 0.30779
 C3850 C 0.37460 0.28182 0.30841
 C3851 C 0.42173 0.23786 0.35037
 C3852 C 0.43854 0.23470 0.35820
 C3853 C 0.34350 0.24946 0.30853
 C3854 C 0.32740 0.25089 0.29892
 H3855 H 0.33650 0.21394 0.32487
 H3856 H 0.34358 0.18210 0.34427
 H3857 H 0.37728 0.17709 0.36226
 H3858 H 0.40409 0.20390 0.36096
 H3859 H 0.42766 0.27470 0.33646
 H3860 H 0.42041 0.30674 0.31740
 H3861 H 0.38672 0.31175 0.29940
 H3862 H 0.36007 0.28473 0.30030
 C3863 C 0.86055 0.74943 0.82221
 C3864 C 0.87619 0.76497 0.82126
 C3865 C 0.89551 0.76187 0.83172
 C3866 C 0.89905 0.74324 0.84308
 C3867 C 0.88319 0.72794 0.84449
 C3868 C 0.86388 0.73105 0.83404
 C3869 C 0.84829 0.71548 0.83558
 C3870 C 0.85170 0.69736 0.84712
 C3871 C 0.87060 0.69433 0.85733
 C3872 C 0.88622 0.70938 0.85608
 C3873 C 0.91098 0.77757 0.83045
 C3874 C 0.90744 0.79583 0.81917
 C3875 C 0.88854 0.79886 0.80895
 C3876 C 0.87305 0.78365 0.80990
 C3877 C 0.91917 0.73949 0.85278
 C3878 C 0.93596 0.73611 0.86058
 C3879 C 0.84131 0.75189 0.81050
 C3880 C 0.82534 0.75315 0.80066
 H3881 H 0.83332 0.71713 0.82795
 H3882 H 0.83961 0.68563 0.84814
 H3883 H 0.87317 0.68023 0.86627
 H3884 H 0.90064 0.70632 0.86432
 H3885 H 0.92591 0.77593 0.83817
 H3886 H 0.91942 0.80769 0.81838
 H3887 H 0.88586 0.81308 0.80024
 H3888 H 0.85859 0.78671 0.80172
   
