data_POSCAR
  _audit_creation_date              2014-09-24
  _audit_creation_method            'ToBaCCo'
  _symmetry_space_group_name_H-M    'P1'
  _symmetry_Int_Tables_number       1
  _symmetry_cell_setting            triclinic
  loop_
  _symmetry_equiv_pos_as_xyz
 x,y,z
_cell_length_a 60.5760
_cell_length_b 60.5560
_cell_length_c 60.5954
_cell_angle_alpha 90.011900
_cell_angle_beta 90.013000
_cell_angle_gamma 90.012700
loop_
  _atom_site_label
  _atom_site_type_symbol
  _atom_site_fract_x
  _atom_site_fract_y
  _atom_site_fract_z
O1 O 0.32381 0.35464 0.02116
 O2 O 0.35413 0.32440 -0.02189
 O3 O 0.32371 0.35483 -0.02169
 O4 O 0.35430 0.32429 0.02097
 O5 O 0.32862 0.29847 0.02097
 O6 O 0.29797 0.32911 -0.02175
 O7 O 0.32844 0.29859 -0.02194
 O8 O 0.29807 0.32888 0.02116
 Cu9 Cu 0.34156 0.34212 -0.00037
 Cu10 Cu 0.31070 0.31118 -0.00040
 C11 C 0.30568 0.34703 0.02844
 C12 C 0.34657 0.30624 -0.02919
 C13 C 0.30550 0.34734 -0.02897
 C14 C 0.34680 0.30609 0.02819
 O15 O 0.67611 0.64539 0.02112
 O16 O 0.64582 0.67568 -0.02191
 O17 O 0.67618 0.64520 -0.02173
 O18 O 0.64568 0.67580 0.02095
 O19 O 0.67141 0.70157 0.02095
 O20 O 0.70197 0.67087 -0.02179
 O21 O 0.67156 0.70144 -0.02196
 O22 O 0.70190 0.67111 0.02112
 Cu23 Cu 0.65837 0.65795 -0.00039
 Cu24 Cu 0.68929 0.68883 -0.00043
 C25 C 0.69426 0.65297 0.02840
 C26 C 0.65340 0.69382 -0.02921
 C27 C 0.69441 0.65265 -0.02901
 C28 C 0.65323 0.69399 0.02817
 O29 O 0.67613 0.35466 0.97882
 O30 O 0.64577 0.32435 1.02179
 O31 O 0.67617 0.35481 1.02167
 O32 O 0.64566 0.32429 0.97893
 O33 O 0.67135 0.29849 0.97893
 O34 O 0.70193 0.32912 1.02172
 O35 O 0.67149 0.29857 1.02184
 O36 O 0.70188 0.32893 0.97882
 Cu37 Cu 0.65836 0.34210 1.00031
 Cu38 Cu 0.68924 0.31120 1.00033
 C39 C 0.69427 0.34707 0.97155
 C40 C 0.65334 0.30620 1.02908
 C41 C 0.69438 0.34734 1.02896
 C42 C 0.65318 0.30611 0.97169
 O43 O 0.35434 0.67553 1.02189
 O44 O 0.32395 0.64520 0.97893
 O45 O 0.35443 0.67558 0.97904
 O46 O 0.32394 0.64506 1.02179
 O47 O 0.29818 0.67075 1.02184
 O48 O 0.32873 0.70137 0.97904
 O49 O 0.29819 0.67093 0.97894
 O50 O 0.32863 0.70131 1.02195
 Cu51 Cu 0.34173 0.65777 1.00041
 Cu52 Cu 0.31086 0.68867 1.00045
 C53 C 0.34679 0.69369 1.02918
 C54 C 0.30580 0.65278 0.97167
 C55 C 0.34690 0.69377 0.97180
 C56 C 0.30573 0.65254 1.02907
 O57 O -0.02180 0.35418 0.32410
 O58 O 0.02129 0.32400 0.35442
 O59 O 0.02107 0.35446 0.32404
 O60 O -0.02157 0.32379 0.35454
 O61 O -0.02153 0.29801 0.32887
 O62 O 0.02117 0.32874 0.29827
 O63 O 0.02139 0.29821 0.32871
 O64 O -0.02175 0.32845 0.29834
 Cu65 Cu -0.00026 0.34168 0.34184
 Cu66 Cu -0.00017 0.31077 0.31097
 C67 C -0.02906 0.34657 0.30596
 C68 C 0.02862 0.30586 0.34685
 C69 C 0.02833 0.34694 0.30586
 C70 C -0.02880 0.30555 0.34706
 O71 O 0.02136 0.67580 0.64541
 O72 O -0.02176 0.64567 0.67575
 O73 O -0.02150 0.67600 0.64525
 O74 O 0.02111 0.64539 0.67585
 O75 O 0.02121 0.67115 0.70157
 O76 O -0.02146 0.70182 0.67087
 O77 O -0.02171 0.67145 0.70146
 O78 O 0.02145 0.70163 0.67107
 Cu79 Cu -0.00021 0.65813 0.65800
 Cu80 Cu -0.00012 0.68910 0.68882
 C81 C 0.02869 0.69395 0.65295
 C82 C -0.02903 0.65331 0.69387
 C83 C -0.02873 0.69425 0.65269
 C84 C 0.02837 0.65293 0.69402
 O85 O 1.02165 0.64574 0.32408
 O86 O 0.97863 0.67597 0.35446
 O87 O 0.97878 0.64554 0.32405
 O88 O 1.02149 0.67610 0.35457
 O89 O 1.02147 0.70190 0.32893
 O90 O 0.97870 0.67128 0.29831
 O91 O 0.97856 0.70178 0.32878
 O92 O 1.02163 0.67151 0.29836
 Cu93 Cu 1.00014 0.65826 0.34185
 Cu94 Cu 1.00008 0.68920 0.31102
 C95 C 1.02892 0.65336 0.30595
 C96 C 0.97132 0.69412 0.34691
 C97 C 0.97151 0.65308 0.30588
 C98 C 1.02874 0.69433 0.34711
 O99 O 0.97840 0.32412 0.64514
 O100 O 1.02143 0.35433 0.67558
 O101 O 1.02126 0.32398 0.64508
 O102 O 0.97856 0.35455 0.67558
 O103 O 0.97845 0.32880 0.70131
 O104 O 1.02121 0.29817 0.67070
 O105 O 1.02137 0.32856 0.70128
 O106 O 0.97829 0.29831 0.67081
 Cu107 Cu 0.99992 0.34182 0.65778
 Cu108 Cu 0.99982 0.31087 0.68860
 C109 C 0.97108 0.30597 0.65267
 C110 C 1.02868 0.34671 0.69371
 C111 C 1.02849 0.30574 0.65252
 C112 C 0.97128 0.34701 0.69374
 O113 O 0.35429 0.02170 0.32411
 O114 O 0.32398 -0.02136 0.35437
 O115 O 0.35446 -0.02118 0.32402
 O116 O 0.32392 0.02152 0.35457
 O117 O 0.29813 0.02155 0.32887
 O118 O 0.32876 -0.02120 0.29823
 O119 O 0.29822 -0.02139 0.32864
 O120 O 0.32856 0.02173 0.29835
 Cu121 Cu 0.34173 0.00017 0.34184
 Cu122 Cu 0.31083 0.00018 0.31094
 C123 C 0.34670 0.02900 0.30598
 C124 C 0.30584 -0.02866 0.34677
 C125 C 0.34694 -0.02842 0.30583
 C126 C 0.30572 0.02875 0.34706
 O127 O 0.67598 -0.02140 0.64557
 O128 O 0.64562 0.02166 0.67579
 O129 O 0.67599 0.02148 0.64533
 O130 O 0.64549 -0.02122 0.67591
 O131 O 0.67118 -0.02117 0.70170
 O132 O 0.70178 0.02158 0.67102
 O133 O 0.67134 0.02177 0.70155
 O134 O 0.70173 -0.02135 0.67131
 Cu135 Cu 0.65820 0.00012 0.65807
 Cu136 Cu 0.68909 0.00022 0.68898
 C137 C 0.69412 -0.02866 0.65318
 C138 C 0.65319 0.02899 0.69392
 C139 C 0.69418 0.02875 0.65283
 C140 C 0.65301 -0.02842 0.69410
 O141 O 0.35413 0.97837 0.67602
 O142 O 0.32373 1.02132 0.64569
 O143 O 0.35422 1.02126 0.67603
 O144 O 0.32376 0.97844 0.64555
 O145 O 0.29797 0.97839 0.67124
 O146 O 0.32853 1.02126 0.70182
 O147 O 0.29798 1.02132 0.67142
 O148 O 0.32841 0.97832 0.70178
 Cu149 Cu 0.34153 0.99985 0.65825
 Cu150 Cu 0.31064 0.99982 0.68915
 C151 C 0.34656 0.97109 0.69417
 C152 C 0.30558 1.02859 0.65328
 C153 C 0.34669 1.02850 0.69421
 C154 C 0.30558 0.97117 0.65308
 O155 O 0.64579 0.97871 0.32426
 O156 O 0.67620 1.02165 0.35464
 O157 O 0.64571 1.02160 0.32429
 O158 O 0.67616 0.97877 0.35474
 O159 O 0.70195 0.97875 0.32906
 O160 O 0.67140 1.02162 0.29851
 O161 O 0.70194 1.02168 0.32895
 O162 O 0.67152 0.97869 0.29852
 Cu163 Cu 0.65839 1.00018 0.34206
 Cu164 Cu 0.68928 1.00018 0.31118
 C165 C 0.65336 0.97144 0.30611
 C166 C 0.69439 1.02896 0.34713
 C167 C 0.65323 1.02885 0.30612
 C168 C 0.69434 0.97152 0.34722
 O169 O 0.85461 0.82391 0.47893
 O170 O 0.82430 0.85422 0.52194
 O171 O 0.85477 0.82384 0.52178
 O172 O 0.82424 0.85438 0.47909
 O173 O 0.79845 0.82867 0.47904
 O174 O 0.82907 0.79803 0.52179
 O175 O 0.79853 0.82848 0.52195
 O176 O 0.82888 0.79813 0.47889
 Cu177 Cu 0.84205 0.84166 0.50044
 Cu178 Cu 0.81115 0.81074 0.50042
 C179 C 0.84702 0.80577 0.47163
 C180 C 0.80615 0.84663 0.52921
 C181 C 0.84725 0.80564 0.52901
 C182 C 0.80605 0.84685 0.47184
 O183 O 0.14531 0.17609 0.47886
 O184 O 0.17556 0.14576 0.52189
 O185 O 0.14510 0.17616 0.52172
 O186 O 0.17567 0.14562 0.47904
 O187 O 0.20146 0.17133 0.47905
 O188 O 0.17081 0.20195 0.52179
 O189 O 0.20133 0.17149 0.52196
 O190 O 0.17103 0.20187 0.47888
 Cu191 Cu 0.15783 0.15833 0.50038
 Cu192 Cu 0.18874 0.18925 0.50043
 C193 C 0.15290 0.19424 0.47159
 C194 C 0.19370 0.15334 0.52919
 C195 C 0.15262 0.19435 0.52897
 C196 C 0.19386 0.15315 0.47182
 O197 O 0.14545 0.82371 0.52099
 O198 O 0.17580 0.85411 0.47808
 O199 O 0.14533 0.82372 0.47813
 O200 O 0.17582 0.85419 0.52093
 O201 O 0.20161 0.82848 0.52093
 O202 O 0.17103 0.79793 0.47808
 O203 O 0.20157 0.82838 0.47803
 O204 O 0.17118 0.79794 0.52099
 Cu205 Cu 0.15803 0.84151 0.49953
 Cu206 Cu 0.18893 0.81060 0.49950
 C207 C 0.15303 0.80556 0.52825
 C208 C 0.19395 0.84655 0.47080
 C209 C 0.15286 0.80554 0.47087
 C210 C 0.19399 0.84665 0.52818
 O211 O 0.85442 0.17596 0.52063
 O212 O 0.82406 0.14552 0.47771
 O213 O 0.85455 0.17592 0.47778
 O214 O 0.82405 0.14548 0.52057
 O215 O 0.79826 0.17118 0.52055
 O216 O 0.82885 0.20172 0.47771
 O217 O 0.79830 0.17125 0.47764
 O218 O 0.82870 0.20173 0.52062
 Cu219 Cu 0.84184 0.15815 0.49917
 Cu220 Cu 0.81094 0.18905 0.49912
 C221 C 0.84684 0.19412 0.52789
 C222 C 0.80591 0.15308 0.47043
 C223 C 0.84703 0.19411 0.47051
 C224 C 0.80587 0.15302 0.52780
 O225 O 0.47835 0.85423 0.82413
 O226 O 0.52140 0.82389 0.85437
 O227 O 0.52122 0.85440 0.82405
 O228 O 0.47853 0.82384 0.85457
 O229 O 0.47847 0.79805 0.82886
 O230 O 0.52121 0.82871 0.79824
 O231 O 0.52139 0.79814 0.82863
 O232 O 0.47829 0.82851 0.79835
 Cu233 Cu 0.49987 0.84166 0.84186
 Cu234 Cu 0.49983 0.81077 0.81094
 C235 C 0.47104 0.84666 0.80599
 C236 C 0.52868 0.80575 0.84676
 C237 C 0.52844 0.84689 0.80585
 C238 C 0.47128 0.80564 0.84705
 O239 O 0.52144 0.17620 0.14573
 O240 O 0.47842 0.14588 0.17603
 O241 O 0.47857 0.17622 0.14553
 O242 O 0.52129 0.14576 0.17613
 O243 O 0.52128 0.17150 0.20188
 O244 O 0.47851 0.20205 0.17119
 O245 O 0.47836 0.17165 0.20176
 O246 O 0.52143 0.20200 0.17142
 Cu247 Cu 0.49993 0.15843 0.15828
 Cu248 Cu 0.49989 0.18939 0.18914
 C249 C 0.52871 0.19436 0.15331
 C250 C 0.47112 0.15348 0.19415
 C251 C 0.47132 0.19442 0.15302
 C252 C 0.52851 0.15332 0.19430
 O253 O 0.52149 0.14589 0.82388
 O254 O 0.47855 0.17627 0.85423
 O255 O 0.47863 0.14578 0.82388
 O256 O 0.52142 0.17627 0.85436
 O257 O 0.52145 0.20207 0.82867
 O258 O 0.47861 0.17148 0.79810
 O259 O 0.47853 0.20204 0.82851
 O260 O 0.52153 0.17163 0.79813
 Cu261 Cu 0.50002 0.15848 0.84166
 Cu262 Cu 0.50003 0.18939 0.81077
 C263 C 0.52877 0.15347 0.80574
 C264 C 0.47127 0.19442 0.84665
 C265 C 0.47137 0.15331 0.80571
 C266 C 0.52867 0.19445 0.84684
 O267 O 0.47877 0.82401 0.14560
 O268 O 0.52173 0.85445 0.17591
 O269 O 0.52164 0.82405 0.14545
 O270 O 0.47886 0.85452 0.17594
 O271 O 0.47888 0.82883 0.20174
 O272 O 0.52171 0.79827 0.17115
 O273 O 0.52180 0.82873 0.20168
 O274 O 0.47879 0.79826 0.17133
 Cu275 Cu 0.50025 0.84183 0.15815
 Cu276 Cu 0.50030 0.81094 0.18906
 C277 C 0.47151 0.80585 0.15319
 C278 C 0.52903 0.84690 0.19406
 C279 C 0.52890 0.80587 0.15297
 C280 C 0.47163 0.84699 0.19413
 O281 O 0.82401 0.47871 0.85434
 O282 O 0.85418 0.52179 0.82399
 O283 O 0.82386 0.52159 0.85450
 O284 O 0.85440 0.47891 0.82390
 O285 O 0.82865 0.47883 0.79818
 O286 O 0.79802 0.52157 0.82885
 O287 O 0.82841 0.52177 0.79828
 O288 O 0.79819 0.47863 0.82867
 Cu289 Cu 0.84169 0.50025 0.84175
 Cu290 Cu 0.81073 0.50020 0.81091
 C291 C 0.80586 0.47139 0.84679
 C292 C 0.84655 0.52907 0.80587
 C293 C 0.80564 0.52879 0.84701
 C294 C 0.84685 0.47165 0.80573
 O295 O 0.14571 0.52177 0.17586
 O296 O 0.17590 0.47868 0.14555
 O297 O 0.14545 0.47889 0.17592
 O298 O 0.17608 0.52156 0.14541
 O299 O 0.20188 0.52153 0.17110
 O300 O 0.17116 0.47880 0.20170
 O301 O 0.20168 0.47859 0.17126
 O302 O 0.17144 0.52174 0.20162
 Cu303 Cu 0.15821 0.50023 0.15811
 Cu304 Cu 0.18913 0.50016 0.18900
 C305 C 0.15331 0.52904 0.19400
 C306 C 0.19403 0.47135 0.15312
 C307 C 0.15296 0.47163 0.19410
 C308 C 0.19429 0.52876 0.15293
 O309 O 0.82398 0.52127 0.14554
 O310 O 0.85420 0.47824 0.17591
 O311 O 0.82386 0.47839 0.14543
 O312 O 0.85441 0.52112 0.17594
 O313 O 0.82869 0.52121 0.20169
 O314 O 0.79804 0.47842 0.17109
 O315 O 0.82846 0.47827 0.20164
 O316 O 0.79819 0.52136 0.17122
 Cu317 Cu 0.84169 0.49975 0.15813
 Cu318 Cu 0.81076 0.49982 0.18899
 C319 C 0.80584 0.52859 0.15309
 C320 C 0.84659 0.47098 0.19405
 C321 C 0.80565 0.47118 0.15294
 C322 C 0.84688 0.52840 0.19411
 O323 O 0.17576 0.52116 0.85454
 O324 O 0.14550 0.47815 0.82413
 O325 O 0.17585 0.47828 0.85462
 O326 O 0.14533 0.52103 0.82413
 O327 O 0.17105 0.52111 0.79838
 O328 O 0.20166 0.47831 0.82896
 O329 O 0.17124 0.47818 0.79840
 O330 O 0.20155 0.52124 0.82886
 Cu331 Cu 0.15803 0.49965 0.84193
 Cu332 Cu 0.18896 0.49971 0.81107
 C333 C 0.19392 0.52847 0.84700
 C334 C 0.15310 0.47089 0.80599
 C335 C 0.19405 0.47106 0.84711
 C336 C 0.15286 0.52830 0.80597
 C337 C 0.26843 0.38470 0.07552
 C338 C 0.26030 0.36446 0.06788
 C339 C 0.27259 0.35196 0.05285
 C340 C 0.29316 0.35962 0.04523
 C341 C 0.30133 0.37983 0.05328
 C342 C 0.28902 0.39227 0.06832
 C343 C 0.25531 0.39816 0.09003
 C344 C 0.24432 0.40986 0.10177
 C345 C 0.23121 0.42432 0.11530
 C346 C 0.21060 0.43155 0.10778
 C347 C 0.19832 0.44656 0.12027
 C348 C 0.20652 0.45456 0.14048
 C349 C 0.22710 0.44690 0.14809
 C350 C 0.23936 0.43189 0.13554
 H351 H 0.24434 0.35847 0.07331
 H352 H 0.26583 0.33649 0.04696
 H353 H 0.31709 0.38620 0.04776
 H354 H 0.29544 0.40795 0.07408
 H355 H 0.20417 0.42583 0.09210
 H356 H 0.18255 0.45211 0.11395
 H357 H 0.23388 0.45275 0.16356
 H358 H 0.25533 0.42644 0.14148
 C359 C 0.73148 0.61525 0.07546
 C360 C 0.71087 0.60771 0.06826
 C361 C 0.69858 0.62017 0.05323
 C362 C 0.70678 0.64036 0.04518
 C363 C 0.72736 0.64799 0.05280
 C364 C 0.73964 0.63548 0.06783
 C365 C 0.74458 0.60177 0.08997
 C366 C 0.75557 0.59006 0.10171
 C367 C 0.76867 0.57560 0.11524
 C368 C 0.76051 0.56802 0.13547
 C369 C 0.77277 0.55302 0.14802
 C370 C 0.79335 0.54536 0.14044
 C371 C 0.80156 0.55336 0.12024
 C372 C 0.78928 0.56836 0.10774
 H373 H 0.70444 0.59204 0.07402
 H374 H 0.68280 0.61383 0.04771
 H375 H 0.73414 0.66345 0.04692
 H376 H 0.75561 0.64143 0.07326
 H377 H 0.74454 0.57348 0.14140
 H378 H 0.76598 0.54718 0.16349
 H379 H 0.81733 0.54781 0.11392
 H380 H 0.79572 0.57408 0.09206
 C381 C 0.73152 0.38477 0.92449
 C382 C 0.71093 0.39234 0.93170
 C383 C 0.69863 0.37989 0.94673
 C384 C 0.70680 0.35969 0.95478
 C385 C 0.72737 0.35204 0.94715
 C386 C 0.73965 0.36454 0.93212
 C387 C 0.74462 0.39823 0.90997
 C388 C 0.75561 0.40993 0.89821
 C389 C 0.76871 0.42438 0.88467
 C390 C 0.76053 0.43196 0.86444
 C391 C 0.77278 0.44696 0.85188
 C392 C 0.79338 0.45461 0.85945
 C393 C 0.80161 0.44660 0.87964
 C394 C 0.78933 0.43160 0.89215
 H395 H 0.70451 0.40801 0.92594
 H396 H 0.68286 0.38625 0.95226
 H397 H 0.73413 0.33657 0.95303
 H398 H 0.75561 0.35856 0.92668
 H399 H 0.74454 0.42651 0.85853
 H400 H 0.76598 0.45280 0.83642
 H401 H 0.81740 0.45214 0.88593
 H402 H 0.79579 0.42588 0.90782
 C403 C 0.26846 0.61502 0.92469
 C404 C 0.28906 0.60746 0.93189
 C405 C 0.30139 0.61992 0.94689
 C406 C 0.29324 0.64015 0.95492
 C407 C 0.27266 0.64779 0.94731
 C408 C 0.26035 0.63527 0.93231
 C409 C 0.25532 0.60154 0.91020
 C410 C 0.24431 0.58984 0.89845
 C411 C 0.23118 0.57539 0.88491
 C412 C 0.23932 0.56784 0.86466
 C413 C 0.22702 0.55287 0.85209
 C414 C 0.20644 0.54522 0.85967
 C415 C 0.19825 0.55320 0.87989
 C416 C 0.21057 0.56817 0.89242
 H417 H 0.29546 0.59177 0.92614
 H418 H 0.31716 0.61357 0.95241
 H419 H 0.26591 0.66327 0.95318
 H420 H 0.24438 0.64124 0.92688
 H421 H 0.25529 0.57329 0.85873
 H422 H 0.23379 0.54704 0.83661
 H423 H 0.18248 0.54765 0.88621
 H424 H 0.20414 0.57387 0.90810
 C425 C 0.07564 0.26869 0.38469
 C426 C 0.06807 0.26053 0.36445
 C427 C 0.05306 0.27279 0.35190
 C428 C 0.04540 0.29338 0.35949
 C429 C 0.05340 0.30159 0.37970
 C430 C 0.06840 0.28930 0.39220
 C431 C 0.09009 0.25559 0.39822
 C432 C 0.10178 0.24459 0.40998
 C433 C 0.11524 0.23148 0.42449
 C434 C 0.13547 0.23963 0.43214
 C435 C 0.14795 0.22735 0.44718
 C436 C 0.14031 0.20676 0.45480
 C437 C 0.12012 0.19857 0.44673
 C438 C 0.10768 0.21087 0.43169
 H439 H 0.07352 0.24455 0.35852
 H440 H 0.04722 0.26600 0.33643
 H441 H 0.04785 0.31737 0.38602
 H442 H 0.07412 0.29575 0.40788
 H443 H 0.14144 0.25559 0.42672
 H444 H 0.16341 0.23412 0.45308
 H445 H 0.11376 0.18280 0.45225
 H446 H 0.09202 0.20445 0.42591
 C447 C 0.07570 0.73108 0.61508
 C448 C 0.06847 0.71046 0.60759
 C449 C 0.05347 0.69818 0.62011
 C450 C 0.04547 0.70642 0.64030
 C451 C 0.05314 0.72701 0.64787
 C452 C 0.06814 0.73927 0.63531
 C453 C 0.09016 0.74418 0.60154
 C454 C 0.10185 0.75517 0.58978
 C455 C 0.11532 0.76828 0.57527
 C456 C 0.10776 0.78888 0.56806
 C457 C 0.12021 0.80119 0.55305
 C458 C 0.14041 0.79302 0.54500
 C459 C 0.14805 0.77243 0.55263
 C460 C 0.13555 0.76014 0.56765
 H461 H 0.07417 0.70400 0.59193
 H462 H 0.04791 0.68240 0.61381
 H463 H 0.04730 0.73382 0.66333
 H464 H 0.07360 0.75525 0.64122
 H465 H 0.09209 0.79530 0.57382
 H466 H 0.11386 0.81696 0.54752
 H467 H 0.16352 0.76567 0.54675
 H468 H 0.14152 0.74418 0.57308
 C469 C 0.92437 0.73133 0.38478
 C470 C 0.93193 0.73949 0.36455
 C471 C 0.94692 0.72722 0.35199
 C472 C 0.95457 0.70663 0.35957
 C473 C 0.94657 0.69842 0.37978
 C474 C 0.93159 0.71071 0.39228
 C475 C 0.90992 0.74444 0.39832
 C476 C 0.89822 0.75543 0.41006
 C477 C 0.88474 0.76854 0.42457
 C478 C 0.89230 0.78914 0.43180
 C479 C 0.87984 0.80144 0.44683
 C480 C 0.85964 0.79325 0.45485
 C481 C 0.85200 0.77267 0.44720
 C482 C 0.86450 0.76040 0.43217
 H483 H 0.92649 0.75547 0.35863
 H484 H 0.95276 0.73401 0.33652
 H485 H 0.95212 0.68264 0.38608
 H486 H 0.92588 0.70427 0.40796
 H487 H 0.90797 0.79557 0.42606
 H488 H 0.88619 0.81721 0.45237
 H489 H 0.83653 0.76590 0.45306
 H490 H 0.85854 0.74443 0.42672
 C491 C 0.92418 0.26874 0.61470
 C492 C 0.93141 0.28936 0.60721
 C493 C 0.94637 0.30166 0.61975
 C494 C 0.95433 0.29346 0.63998
 C495 C 0.94667 0.27286 0.64754
 C496 C 0.93171 0.26058 0.63495
 C497 C 0.90974 0.25562 0.60114
 C498 C 0.89806 0.24461 0.58938
 C499 C 0.88459 0.23147 0.57487
 C500 C 0.86435 0.23959 0.56725
 C501 C 0.85184 0.22728 0.55224
 C502 C 0.85948 0.20669 0.54463
 C503 C 0.87969 0.19853 0.55267
 C504 C 0.89215 0.21087 0.56767
 H505 H 0.92573 0.29580 0.59153
 H506 H 0.95193 0.31745 0.61346
 H507 H 0.95249 0.26608 0.66302
 H508 H 0.92626 0.24460 0.64087
 H509 H 0.85838 0.25556 0.57267
 H510 H 0.83636 0.23402 0.54637
 H511 H 0.88604 0.18276 0.54715
 H512 H 0.90783 0.20446 0.57342
 C513 C 0.38447 0.07601 0.26872
 C514 C 0.36422 0.06842 0.26060
 C515 C 0.35169 0.05341 0.27289
 C516 C 0.35933 0.04577 0.29346
 C517 C 0.37955 0.05379 0.30162
 C518 C 0.39203 0.06880 0.28931
 C519 C 0.39797 0.09048 0.25559
 C520 C 0.40968 0.10220 0.24457
 C521 C 0.42415 0.11570 0.23144
 C522 C 0.43137 0.10812 0.21086
 C523 C 0.44636 0.12060 0.19854
 C524 C 0.45436 0.14085 0.20668
 C525 C 0.44671 0.14850 0.22724
 C526 C 0.43172 0.13597 0.23954
 H527 H 0.35825 0.07386 0.24465
 H528 H 0.33621 0.04756 0.26614
 H529 H 0.38590 0.04825 0.31738
 H530 H 0.40772 0.07453 0.29572
 H531 H 0.42565 0.09242 0.20446
 H532 H 0.45190 0.11424 0.18278
 H533 H 0.45255 0.16400 0.23398
 H534 H 0.42627 0.14195 0.25549
 C535 C 0.61537 0.07598 0.73115
 C536 C 0.60782 0.06872 0.71056
 C537 C 0.62031 0.05373 0.69826
 C538 C 0.64055 0.04576 0.70642
 C539 C 0.64818 0.05344 0.72698
 C540 C 0.63564 0.06844 0.73926
 C541 C 0.60186 0.09045 0.74427
 C542 C 0.59015 0.10216 0.75528
 C543 C 0.57569 0.11566 0.76842
 C544 C 0.56811 0.13592 0.76032
 C545 C 0.55313 0.14846 0.77263
 C546 C 0.54550 0.14082 0.79320
 C547 C 0.55350 0.12058 0.80134
 C548 C 0.56848 0.10810 0.78901
 H549 H 0.59212 0.07442 0.70416
 H550 H 0.61396 0.04816 0.68251
 H551 H 0.66368 0.04762 0.73373
 H552 H 0.64161 0.07391 0.75521
 H553 H 0.57354 0.14189 0.74436
 H554 H 0.54729 0.16395 0.76589
 H555 H 0.54797 0.11423 0.81710
 H556 H 0.57420 0.09240 0.79541
 C557 C 0.38439 0.92416 0.73147
 C558 C 0.36412 0.93173 0.73958
 C559 C 0.35159 0.94671 0.72727
 C560 C 0.35921 0.95435 0.70670
 C561 C 0.37945 0.94636 0.69856
 C562 C 0.39194 0.93138 0.71088
 C563 C 0.39789 0.90970 0.74460
 C564 C 0.40960 0.89798 0.75562
 C565 C 0.42407 0.88447 0.76874
 C566 C 0.43130 0.89202 0.78933
 C567 C 0.44629 0.87953 0.80164
 C568 C 0.45428 0.85930 0.79348
 C569 C 0.44663 0.85167 0.77291
 C570 C 0.43163 0.86421 0.76062
 H571 H 0.35816 0.92629 0.75553
 H572 H 0.33609 0.95254 0.73401
 H573 H 0.38579 0.95190 0.68280
 H574 H 0.40763 0.92567 0.70448
 H575 H 0.42558 0.90772 0.79575
 H576 H 0.45184 0.88588 0.81741
 H577 H 0.45247 0.83618 0.76615
 H578 H 0.42619 0.85825 0.74466
 C579 C 0.61552 0.92454 0.26873
 C580 C 0.63579 0.93211 0.26065
 C581 C 0.64833 0.94708 0.27297
 C582 C 0.64070 0.95471 0.29355
 C583 C 0.62045 0.94672 0.30167
 C584 C 0.60796 0.93175 0.28932
 C585 C 0.60203 0.91007 0.25558
 C586 C 0.59033 0.89834 0.24455
 C587 C 0.57589 0.88482 0.23140
 C588 C 0.56835 0.86453 0.23949
 C589 C 0.55339 0.85196 0.22718
 C590 C 0.54575 0.85958 0.20661
 C591 C 0.55371 0.87983 0.19847
 C592 C 0.56866 0.89236 0.21080
 H593 H 0.64177 0.92668 0.24469
 H594 H 0.66383 0.95292 0.26625
 H595 H 0.61410 0.95225 0.31743
 H596 H 0.59226 0.92604 0.29571
 H597 H 0.57379 0.85857 0.25545
 H598 H 0.54758 0.83645 0.23392
 H599 H 0.54816 0.88617 0.18270
 H600 H 0.57435 0.90807 0.20441
 C601 C 0.38443 0.26898 0.92390
 C602 C 0.36419 0.26083 0.93147
 C603 C 0.35163 0.27312 0.94644
 C604 C 0.35922 0.29373 0.95406
 C605 C 0.37943 0.30193 0.94605
 C606 C 0.39194 0.28962 0.93109
 C607 C 0.39797 0.25585 0.90947
 C608 C 0.40973 0.24484 0.89779
 C609 C 0.42424 0.23171 0.88434
 C610 C 0.43184 0.23983 0.86410
 C611 C 0.44687 0.22753 0.85161
 C612 C 0.45451 0.20696 0.85926
 C613 C 0.44648 0.19881 0.87947
 C614 C 0.43146 0.21112 0.89191
 H615 H 0.35826 0.24484 0.92605
 H616 H 0.33616 0.26634 0.95229
 H617 H 0.38574 0.31772 0.95158
 H618 H 0.40762 0.29605 0.92537
 H619 H 0.42639 0.25578 0.85812
 H620 H 0.45273 0.23428 0.83613
 H621 H 0.45203 0.18305 0.88583
 H622 H 0.42572 0.20472 0.90759
 C623 C 0.61557 0.73114 0.92390
 C624 C 0.60804 0.71052 0.93109
 C625 C 0.62054 0.69819 0.94604
 C626 C 0.64076 0.70636 0.95405
 C627 C 0.64838 0.72695 0.94643
 C628 C 0.63583 0.73926 0.93147
 C629 C 0.60204 0.74429 0.90949
 C630 C 0.59029 0.75532 0.89782
 C631 C 0.57577 0.76846 0.88438
 C632 C 0.56815 0.76035 0.86414
 C633 C 0.55311 0.77265 0.85167
 C634 C 0.54547 0.79322 0.85934
 C635 C 0.55352 0.80137 0.87955
 C636 C 0.56856 0.78905 0.89197
 H637 H 0.59234 0.70411 0.92537
 H638 H 0.61420 0.68240 0.95157
 H639 H 0.66387 0.73371 0.95228
 H640 H 0.64178 0.75524 0.92606
 H641 H 0.57358 0.74440 0.85814
 H642 H 0.54723 0.76591 0.83619
 H643 H 0.54798 0.81713 0.88593
 H644 H 0.57431 0.79544 0.90765
 C645 C 0.38472 0.73108 0.07599
 C646 C 0.36445 0.73919 0.06844
 C647 C 0.35187 0.72685 0.05351
 C648 C 0.35946 0.70625 0.04589
 C649 C 0.37970 0.69810 0.05387
 C650 C 0.39223 0.71045 0.06880
 C651 C 0.39827 0.74425 0.09039
 C652 C 0.41002 0.75529 0.10205
 C653 C 0.42452 0.76845 0.11550
 C654 C 0.43213 0.76037 0.13575
 C655 C 0.44714 0.77270 0.14824
 C656 C 0.45476 0.79328 0.14058
 C657 C 0.44673 0.80140 0.12036
 C658 C 0.43172 0.78904 0.10791
 H659 H 0.35851 0.75517 0.07386
 H660 H 0.33637 0.73360 0.04768
 H661 H 0.38603 0.68231 0.04835
 H662 H 0.40793 0.70405 0.07449
 H663 H 0.42670 0.74441 0.14175
 H664 H 0.45301 0.76598 0.16373
 H665 H 0.45225 0.81716 0.11399
 H666 H 0.42597 0.79543 0.09223
 C667 C 0.61550 0.26891 0.07599
 C668 C 0.60798 0.28952 0.06879
 C669 C 0.62048 0.30184 0.05382
 C670 C 0.64069 0.29367 0.04582
 C671 C 0.64830 0.27307 0.05344
 C672 C 0.63575 0.26077 0.06841
 C673 C 0.60198 0.25577 0.09043
 C674 C 0.59025 0.24476 0.10212
 C675 C 0.57575 0.23163 0.11560
 C676 C 0.56813 0.23978 0.13582
 C677 C 0.55311 0.22749 0.14832
 C678 C 0.54549 0.20689 0.14069
 C679 C 0.55353 0.19871 0.12050
 C680 C 0.56855 0.21102 0.10805
 H681 H 0.59230 0.29594 0.07451
 H682 H 0.61415 0.31763 0.04829
 H683 H 0.66378 0.26631 0.04759
 H684 H 0.64170 0.24480 0.07384
 H685 H 0.57356 0.25575 0.14178
 H686 H 0.54723 0.23426 0.16378
 H687 H 0.54801 0.18292 0.11416
 H688 H 0.57431 0.20459 0.09239
 C689 C 0.26827 0.07564 0.61561
 C690 C 0.26017 0.06802 0.63585
 C691 C 0.27247 0.05299 0.64833
 C692 C 0.29304 0.04536 0.64067
 C693 C 0.30118 0.05339 0.62046
 C694 C 0.28886 0.06841 0.60802
 C695 C 0.25514 0.09015 0.60216
 C696 C 0.24413 0.10191 0.59049
 C697 C 0.23099 0.11545 0.57608
 C698 C 0.21037 0.10794 0.56888
 C699 C 0.19804 0.12045 0.55392
 C700 C 0.20623 0.14068 0.54593
 C701 C 0.22682 0.14828 0.55356
 C702 C 0.23912 0.13572 0.56852
 H703 H 0.24422 0.07346 0.64184
 H704 H 0.26574 0.04713 0.66381
 H705 H 0.31694 0.04785 0.61409
 H706 H 0.29525 0.07416 0.59234
 H707 H 0.20394 0.09224 0.57458
 H708 H 0.18226 0.11413 0.54839
 H709 H 0.23359 0.16377 0.54773
 H710 H 0.25510 0.14165 0.57394
 C711 C 0.73113 0.07525 0.38421
 C712 C 0.73909 0.06783 0.36385
 C713 C 0.72680 0.05279 0.35136
 C714 C 0.70632 0.04486 0.35913
 C715 C 0.69834 0.05280 0.37951
 C716 C 0.71068 0.06783 0.39192
 C717 C 0.74429 0.08977 0.39764
 C718 C 0.75533 0.10154 0.40929
 C719 C 0.76850 0.11510 0.42367
 C720 C 0.78913 0.10759 0.43086
 C721 C 0.80148 0.12013 0.44577
 C722 C 0.79334 0.14039 0.45373
 C723 C 0.77274 0.14798 0.44612
 C724 C 0.76040 0.13539 0.43121
 H725 H 0.75494 0.07345 0.35775
 H726 H 0.73354 0.04718 0.33578
 H727 H 0.68268 0.04720 0.38609
 H728 H 0.70439 0.07345 0.40769
 H729 H 0.79552 0.09188 0.42517
 H730 H 0.81727 0.11381 0.45129
 H731 H 0.76600 0.16349 0.45194
 H732 H 0.74442 0.14133 0.42580
 C733 C 0.73145 0.92425 0.61558
 C734 C 0.71086 0.93144 0.60799
 C735 C 0.69853 0.94647 0.62040
 C736 C 0.70667 0.95455 0.64061
 C737 C 0.72724 0.94694 0.64828
 C738 C 0.73955 0.93190 0.63582
 C739 C 0.74460 0.90975 0.60215
 C740 C 0.75564 0.89800 0.59048
 C741 C 0.76880 0.88447 0.57608
 C742 C 0.76068 0.86420 0.56849
 C743 C 0.77301 0.85165 0.55354
 C744 C 0.79361 0.85927 0.54594
 C745 C 0.80177 0.87950 0.55396
 C746 C 0.78942 0.89200 0.56891
 H747 H 0.70447 0.92567 0.59231
 H748 H 0.68277 0.95199 0.61402
 H749 H 0.73397 0.95283 0.66375
 H750 H 0.75551 0.92648 0.64182
 H751 H 0.74470 0.85825 0.57389
 H752 H 0.76625 0.83617 0.54768
 H753 H 0.81755 0.88584 0.54846
 H754 H 0.79583 0.90770 0.57464
 C755 C 0.26858 0.92424 0.38443
 C756 C 0.26047 0.93185 0.36419
 C757 C 0.27276 0.94689 0.35170
 C758 C 0.29332 0.95455 0.35936
 C759 C 0.30148 0.94651 0.37957
 C760 C 0.28917 0.93148 0.39201
 C761 C 0.25545 0.90973 0.39788
 C762 C 0.24443 0.89798 0.40955
 C763 C 0.23129 0.88444 0.42397
 C764 C 0.21067 0.89196 0.43115
 C765 C 0.19834 0.87945 0.44610
 C766 C 0.20650 0.85922 0.45409
 C767 C 0.22710 0.85161 0.44648
 C768 C 0.23941 0.86418 0.43153
 H769 H 0.24451 0.92640 0.35820
 H770 H 0.26601 0.95276 0.33623
 H771 H 0.31723 0.95206 0.38594
 H772 H 0.29557 0.92573 0.40768
 H773 H 0.20426 0.90766 0.42544
 H774 H 0.18256 0.88577 0.45161
 H775 H 0.23385 0.83612 0.45232
 H776 H 0.25539 0.85824 0.42612
 C777 C 0.07566 0.38438 0.73114
 C778 C 0.06850 0.39196 0.71054
 C779 C 0.05351 0.37952 0.69818
 C780 C 0.04544 0.35930 0.70629
 C781 C 0.05303 0.35163 0.72687
 C782 C 0.06802 0.36412 0.73921
 C783 C 0.09013 0.39784 0.74432
 C784 C 0.10185 0.40953 0.75538
 C785 C 0.11534 0.42397 0.76856
 C786 C 0.13560 0.43159 0.76048
 C787 C 0.14812 0.44656 0.77282
 C788 C 0.14048 0.45415 0.79341
 C789 C 0.12025 0.44610 0.80153
 C790 C 0.10778 0.43113 0.78917
 H791 H 0.07427 0.40766 0.70417
 H792 H 0.04802 0.38590 0.68241
 H793 H 0.04713 0.33614 0.73358
 H794 H 0.07342 0.35812 0.75517
 H795 H 0.14157 0.42619 0.74451
 H796 H 0.16360 0.45244 0.76610
 H797 H 0.11390 0.45160 0.81731
 H798 H 0.09209 0.42538 0.79555
 C799 C 0.07595 0.61570 0.26863
 C800 C 0.06831 0.63595 0.26053
 C801 C 0.05330 0.64843 0.27284
 C802 C 0.04569 0.64077 0.29341
 C803 C 0.05376 0.62056 0.30155
 C804 C 0.06877 0.60812 0.28922
 C805 C 0.09043 0.60223 0.25548
 C806 C 0.10214 0.59053 0.24446
 C807 C 0.11563 0.57607 0.23131
 C808 C 0.10808 0.56891 0.21069
 C809 C 0.12053 0.55390 0.19837
 C810 C 0.14072 0.54583 0.20654
 C811 C 0.14836 0.55342 0.22713
 C812 C 0.13586 0.56843 0.23943
 H813 H 0.07372 0.64193 0.24457
 H814 H 0.04740 0.66391 0.26610
 H815 H 0.04825 0.61419 0.31731
 H816 H 0.07453 0.59244 0.29562
 H817 H 0.09241 0.57468 0.20428
 H818 H 0.11419 0.54840 0.18259
 H819 H 0.16382 0.54752 0.23389
 H820 H 0.14182 0.57383 0.25541
 C821 C 0.92389 0.38425 0.26867
 C822 C 0.93154 0.36402 0.26054
 C823 C 0.94656 0.35152 0.27284
 C824 C 0.95415 0.35916 0.29343
 C825 C 0.94606 0.37935 0.30161
 C826 C 0.93105 0.39180 0.28929
 C827 C 0.90942 0.39773 0.25553
 C828 C 0.89772 0.40945 0.24450
 C829 C 0.88425 0.42393 0.23136
 C830 C 0.86402 0.43158 0.23947
 C831 C 0.85153 0.44660 0.22716
 C832 C 0.85918 0.45420 0.20659
 C833 C 0.87938 0.44612 0.19844
 C834 C 0.89182 0.43111 0.21076
 H835 H 0.92615 0.35806 0.24456
 H836 H 0.95247 0.33606 0.26608
 H837 H 0.95155 0.38570 0.31739
 H838 H 0.92527 0.40747 0.29571
 H839 H 0.85805 0.42617 0.25543
 H840 H 0.83607 0.45250 0.23391
 H841 H 0.88574 0.45163 0.18267
 H842 H 0.90749 0.42533 0.20436
 C843 C 0.92387 0.61572 0.73118
 C844 C 0.93104 0.60812 0.71059
 C845 C 0.94607 0.62054 0.69826
 C846 C 0.95416 0.64075 0.70640
 C847 C 0.94657 0.64843 0.72697
 C848 C 0.93154 0.63596 0.73928
 C849 C 0.90939 0.60226 0.74434
 C850 C 0.89768 0.59056 0.75537
 C851 C 0.88420 0.57611 0.76853
 C852 C 0.86396 0.56846 0.76043
 C853 C 0.85147 0.55345 0.77275
 C854 C 0.85913 0.54586 0.79332
 C855 C 0.87934 0.55393 0.80147
 C856 C 0.89178 0.56894 0.78913
 H857 H 0.92526 0.59244 0.70420
 H858 H 0.95158 0.61416 0.68250
 H859 H 0.95248 0.66390 0.73371
 H860 H 0.92614 0.64195 0.75524
 H861 H 0.85798 0.57386 0.74447
 H862 H 0.83600 0.54755 0.76601
 H863 H 0.88570 0.54843 0.81724
 H864 H 0.90746 0.57471 0.79553
 C865 C 0.73112 0.61522 0.92494
 C866 C 0.71063 0.60761 0.93236
 C867 C 0.69831 0.62012 0.94732
 C868 C 0.70635 0.64053 0.95519
 C869 C 0.72687 0.64819 0.94727
 C870 C 0.73914 0.63560 0.93231
 C871 C 0.74421 0.60170 0.91044
 C872 C 0.75519 0.58998 0.89868
 C873 C 0.76829 0.57552 0.88511
 C874 C 0.76010 0.56792 0.86489
 C875 C 0.77240 0.55299 0.85227
 C876 C 0.79306 0.54543 0.85977
 C877 C 0.80127 0.55344 0.87997
 C878 C 0.78895 0.56836 0.89254
 H879 H 0.70428 0.59183 0.92679
 H880 H 0.68262 0.61361 0.95291
 H881 H 0.73366 0.66378 0.95284
 H882 H 0.75501 0.64163 0.92669
 H883 H 0.74409 0.57330 0.85901
 H884 H 0.76560 0.54714 0.83680
 H885 H 0.81710 0.54797 0.88622
 H886 H 0.79542 0.57410 0.90820
 C887 C 0.26869 0.38468 0.92498
 C888 C 0.26071 0.36430 0.93235
 C889 C 0.27301 0.35173 0.94732
 C890 C 0.29352 0.35943 0.95523
 C891 C 0.30152 0.37985 0.94736
 C892 C 0.28917 0.39234 0.93240
 C893 C 0.25557 0.39817 0.91048
 C894 C 0.24457 0.40988 0.89872
 C895 C 0.23145 0.42432 0.88516
 C896 C 0.21078 0.43147 0.89260
 C897 C 0.19845 0.44639 0.88004
 C898 C 0.20665 0.45441 0.85984
 C899 C 0.22730 0.44686 0.85233
 C900 C 0.23962 0.43193 0.86494
 H901 H 0.24484 0.35823 0.92674
 H902 H 0.26625 0.33613 0.95288
 H903 H 0.31720 0.38640 0.95294
 H904 H 0.29549 0.40812 0.92683
 H905 H 0.20433 0.42573 0.90826
 H906 H 0.18262 0.45185 0.88631
 H907 H 0.23409 0.45271 0.83687
 H908 H 0.25562 0.42655 0.85905
 C909 C 0.26899 0.61517 0.07514
 C910 C 0.26099 0.63555 0.06778
 C911 C 0.27328 0.64813 0.05281
 C912 C 0.29379 0.64045 0.04489
 C913 C 0.30180 0.62004 0.05276
 C914 C 0.28947 0.60754 0.06773
 C915 C 0.25587 0.60166 0.08963
 C916 C 0.24488 0.58994 0.10138
 C917 C 0.23175 0.57548 0.11492
 C918 C 0.23990 0.56787 0.13515
 C919 C 0.22757 0.55294 0.14774
 C920 C 0.20691 0.54540 0.14020
 C921 C 0.19873 0.55342 0.12000
 C922 C 0.21109 0.56834 0.10746
 H923 H 0.24512 0.64159 0.07339
 H924 H 0.26650 0.66372 0.04724
 H925 H 0.31748 0.61351 0.04718
 H926 H 0.29580 0.59176 0.07330
 H927 H 0.25591 0.57324 0.14105
 H928 H 0.23434 0.54709 0.16321
 H929 H 0.18291 0.54796 0.11372
 H930 H 0.20464 0.57408 0.09179
 C931 C 0.73109 0.38467 0.07509
 C932 C 0.73910 0.36431 0.06771
 C933 C 0.72683 0.35174 0.05272
 C934 C 0.70632 0.35942 0.04479
 C935 C 0.69830 0.37982 0.05268
 C936 C 0.71062 0.39231 0.06767
 C937 C 0.74420 0.39818 0.08960
 C938 C 0.75518 0.40990 0.10137
 C939 C 0.76829 0.42437 0.11492
 C940 C 0.78895 0.43152 0.10748
 C941 C 0.80128 0.44647 0.12003
 C942 C 0.79306 0.45451 0.14021
 C943 C 0.77241 0.44695 0.14773
 C944 C 0.76011 0.43200 0.13513
 H945 H 0.75497 0.35826 0.07333
 H946 H 0.73361 0.33615 0.04714
 H947 H 0.68262 0.38635 0.04709
 H948 H 0.70428 0.40808 0.07325
 H949 H 0.79542 0.42577 0.09183
 H950 H 0.81710 0.45194 0.11376
 H951 H 0.76562 0.45282 0.16318
 H952 H 0.74410 0.42662 0.14102
 C953 C 0.92521 0.73103 0.61533
 C954 C 0.93258 0.71051 0.60772
 C955 C 0.94755 0.69818 0.62021
 C956 C 0.95548 0.70622 0.64058
 C957 C 0.94761 0.72678 0.64824
 C958 C 0.93263 0.73906 0.63566
 C959 C 0.91070 0.74414 0.60183
 C960 C 0.89892 0.75512 0.59013
 C961 C 0.88535 0.76824 0.57569
 C962 C 0.86511 0.76007 0.56811
 C963 C 0.85248 0.77238 0.55320
 C964 C 0.86000 0.79304 0.54564
 C965 C 0.88022 0.80124 0.55364
 C966 C 0.89279 0.78891 0.56854
 H967 H 0.92696 0.70415 0.59198
 H968 H 0.95309 0.68247 0.61371
 H969 H 0.95322 0.73357 0.66380
 H970 H 0.92706 0.75496 0.64169
 H971 H 0.85922 0.74406 0.57349
 H972 H 0.83701 0.76559 0.54736
 H973 H 0.88649 0.81707 0.54816
 H974 H 0.90847 0.79537 0.57426
 C975 C 0.92509 0.26872 0.38430
 C976 C 0.93246 0.28922 0.39195
 C977 C 0.94745 0.30157 0.37950
 C978 C 0.95539 0.29356 0.35913
 C979 C 0.94751 0.27302 0.35143
 C980 C 0.93252 0.26072 0.36396
 C981 C 0.91055 0.25559 0.39775
 C982 C 0.89875 0.24459 0.40942
 C983 C 0.88515 0.23147 0.42383
 C984 C 0.86490 0.23964 0.43138
 C985 C 0.85227 0.22733 0.44628
 C986 C 0.85978 0.20668 0.45386
 C987 C 0.88000 0.19848 0.44590
 C988 C 0.89259 0.21081 0.43100
 H989 H 0.92684 0.29555 0.40770
 H990 H 0.95300 0.31727 0.38604
 H991 H 0.95313 0.26625 0.33586
 H992 H 0.92694 0.24483 0.35790
 H993 H 0.85902 0.25565 0.42598
 H994 H 0.83679 0.23412 0.45210
 H995 H 0.88626 0.18266 0.45139
 H996 H 0.90826 0.20435 0.42531
 C997 C 0.07461 0.26897 0.61523
 C998 C 0.06724 0.28948 0.60762
 C999 C 0.05226 0.30182 0.62009
 C1000 C 0.04431 0.29378 0.64045
 C1001 C 0.05218 0.27323 0.64811
 C1002 C 0.06717 0.26094 0.63556
 C1003 C 0.08913 0.25586 0.60175
 C1004 C 0.10091 0.24487 0.59006
 C1005 C 0.11449 0.23175 0.57563
 C1006 C 0.10704 0.21109 0.56845
 C1007 C 0.11962 0.19875 0.55355
 C1008 C 0.13986 0.20695 0.54560
 C1009 C 0.14738 0.22759 0.55319
 C1010 C 0.13475 0.23991 0.56809
 H1011 H 0.07287 0.29584 0.59188
 H1012 H 0.04671 0.31752 0.61358
 H1013 H 0.04656 0.26644 0.66366
 H1014 H 0.07275 0.24505 0.64159
 H1015 H 0.09136 0.20464 0.57414
 H1016 H 0.11335 0.18294 0.54805
 H1017 H 0.16287 0.23438 0.54738
 H1018 H 0.14064 0.25591 0.57350
 C1019 C 0.07492 0.73105 0.38441
 C1020 C 0.06752 0.71055 0.39202
 C1021 C 0.05252 0.69823 0.37955
 C1022 C 0.04458 0.70628 0.35919
 C1023 C 0.05248 0.72682 0.35153
 C1024 C 0.06749 0.73909 0.36408
 C1025 C 0.08945 0.74415 0.39790
 C1026 C 0.10123 0.75513 0.40961
 C1027 C 0.11481 0.76823 0.42406
 C1028 C 0.10737 0.78888 0.43124
 C1029 C 0.11992 0.80119 0.44619
 C1030 C 0.14013 0.79297 0.45419
 C1031 C 0.14765 0.77233 0.44660
 C1032 C 0.13504 0.76004 0.43165
 H1033 H 0.07314 0.70419 0.40777
 H1034 H 0.04695 0.68253 0.38606
 H1035 H 0.04686 0.73361 0.33597
 H1036 H 0.07308 0.75498 0.35805
 H1037 H 0.09170 0.79535 0.42552
 H1038 H 0.11366 0.81701 0.45169
 H1039 H 0.16311 0.76553 0.45244
 H1040 H 0.14093 0.74404 0.42624
 C1041 C 0.61501 0.92477 0.73145
 C1042 C 0.60756 0.93191 0.71079
 C1043 C 0.62010 0.94686 0.69848
 C1044 C 0.64029 0.95491 0.70669
 C1045 C 0.64781 0.94737 0.72734
 C1046 C 0.63522 0.93241 0.73963
 C1047 C 0.60146 0.91027 0.74453
 C1048 C 0.58972 0.89852 0.75549
 C1049 C 0.57523 0.88496 0.76856
 C1050 C 0.56762 0.86473 0.76037
 C1051 C 0.55267 0.85212 0.77265
 C1052 C 0.54510 0.85963 0.79328
 C1053 C 0.55311 0.87984 0.80151
 C1054 C 0.56806 0.89240 0.78921
 H1055 H 0.59191 0.92614 0.70432
 H1056 H 0.61383 0.95232 0.68266
 H1057 H 0.66326 0.95325 0.73414
 H1058 H 0.64111 0.92704 0.75564
 H1059 H 0.57302 0.85884 0.74437
 H1060 H 0.54681 0.83665 0.76584
 H1061 H 0.54763 0.88611 0.81732
 H1062 H 0.57380 0.90806 0.79568
 C1063 C 0.38498 0.92478 0.26852
 C1064 C 0.36475 0.93238 0.26034
 C1065 C 0.35215 0.94734 0.27262
 C1066 C 0.35968 0.95492 0.29326
 C1067 C 0.37988 0.94691 0.30147
 C1068 C 0.39243 0.93196 0.28917
 C1069 C 0.39853 0.91029 0.25544
 C1070 C 0.41028 0.89854 0.24448
 C1071 C 0.42478 0.88500 0.23141
 C1072 C 0.43195 0.89244 0.21076
 C1073 C 0.44691 0.87991 0.19847
 C1074 C 0.45495 0.85971 0.20669
 C1075 C 0.44738 0.85219 0.22732
 C1076 C 0.43241 0.86478 0.23960
 H1077 H 0.35886 0.92697 0.24434
 H1078 H 0.33669 0.95319 0.26583
 H1079 H 0.38615 0.95241 0.31728
 H1080 H 0.40809 0.92623 0.29563
 H1081 H 0.42619 0.90810 0.20429
 H1082 H 0.45239 0.88618 0.18265
 H1083 H 0.45325 0.83673 0.23412
 H1084 H 0.42702 0.85889 0.25560
 C1085 C 0.61520 0.07568 0.26883
 C1086 C 0.60776 0.06851 0.28948
 C1087 C 0.62031 0.05356 0.30178
 C1088 C 0.64051 0.04554 0.29357
 C1089 C 0.64803 0.05313 0.27294
 C1090 C 0.63543 0.06808 0.26065
 C1091 C 0.60163 0.09015 0.25574
 C1092 C 0.58987 0.10187 0.24477
 C1093 C 0.57536 0.11538 0.23167
 C1094 C 0.56818 0.10789 0.21104
 C1095 C 0.55322 0.12040 0.19872
 C1096 C 0.54519 0.14061 0.20690
 C1097 C 0.55276 0.14818 0.22752
 C1098 C 0.56774 0.13562 0.23983
 H1099 H 0.59210 0.07424 0.29594
 H1100 H 0.61404 0.04807 0.31759
 H1101 H 0.66349 0.04727 0.26614
 H1102 H 0.64131 0.07348 0.24466
 H1103 H 0.57394 0.09222 0.20460
 H1104 H 0.54773 0.11409 0.18292
 H1105 H 0.54690 0.16366 0.23430
 H1106 H 0.57314 0.14155 0.25581
 C1107 C 0.38465 0.07546 0.73143
 C1108 C 0.39210 0.06828 0.71079
 C1109 C 0.37957 0.05328 0.69851
 C1110 C 0.35939 0.04522 0.70675
 C1111 C 0.35187 0.05281 0.72738
 C1112 C 0.36445 0.06782 0.73964
 C1113 C 0.39819 0.08998 0.74448
 C1114 C 0.40995 0.10175 0.75542
 C1115 C 0.42446 0.11531 0.76848
 C1116 C 0.43209 0.13552 0.76028
 C1117 C 0.44708 0.14811 0.77254
 C1118 C 0.45467 0.14059 0.79316
 C1119 C 0.44663 0.12041 0.80140
 C1120 C 0.43164 0.10787 0.78913
 H1121 H 0.40774 0.07404 0.70430
 H1122 H 0.38584 0.04778 0.68270
 H1123 H 0.33643 0.04693 0.73419
 H1124 H 0.35857 0.07323 0.75563
 H1125 H 0.42667 0.14141 0.74428
 H1126 H 0.45295 0.16356 0.76572
 H1127 H 0.45212 0.11414 0.81721
 H1128 H 0.42589 0.09222 0.79561
 C1129 C 0.61530 0.73136 0.07502
 C1130 C 0.63554 0.73952 0.06741
 C1131 C 0.64810 0.72721 0.05243
 C1132 C 0.64052 0.70659 0.04484
 C1133 C 0.62031 0.69840 0.05286
 C1134 C 0.60780 0.71073 0.06782
 C1135 C 0.60180 0.74446 0.08953
 C1136 C 0.59009 0.75544 0.10131
 C1137 C 0.57565 0.76854 0.11489
 C1138 C 0.56846 0.78919 0.10745
 C1139 C 0.55354 0.80151 0.12002
 C1140 C 0.54557 0.79330 0.14023
 C1141 C 0.55316 0.77266 0.14774
 C1142 C 0.56808 0.76036 0.13512
 H1143 H 0.64147 0.75551 0.07282
 H1144 H 0.66357 0.73399 0.04658
 H1145 H 0.61400 0.68260 0.04736
 H1146 H 0.59214 0.70428 0.07357
 H1147 H 0.57417 0.79566 0.09178
 H1148 H 0.54804 0.81733 0.11376
 H1149 H 0.54733 0.76586 0.16321
 H1150 H 0.57349 0.74436 0.14101
 C1151 C 0.38483 0.26879 0.07500
 C1152 C 0.39229 0.28943 0.06781
 C1153 C 0.37975 0.30173 0.05285
 C1154 C 0.35954 0.29351 0.04485
 C1155 C 0.35201 0.27287 0.05243
 C1156 C 0.36461 0.26059 0.06740
 C1157 C 0.39837 0.25571 0.08951
 C1158 C 0.41010 0.24476 0.10128
 C1159 C 0.42457 0.23169 0.11487
 C1160 C 0.43177 0.21103 0.10745
 C1161 C 0.44670 0.19874 0.12003
 C1162 C 0.45467 0.20698 0.14025
 C1163 C 0.44707 0.22762 0.14774
 C1164 C 0.43213 0.23990 0.13510
 H1165 H 0.40795 0.29591 0.07354
 H1166 H 0.38602 0.31755 0.04736
 H1167 H 0.33655 0.26607 0.04659
 H1168 H 0.35871 0.24459 0.07281
 H1169 H 0.42607 0.20454 0.09179
 H1170 H 0.45220 0.18292 0.11379
 H1171 H 0.45289 0.23444 0.16320
 H1172 H 0.42671 0.25591 0.14097
 C1173 C 0.61524 0.26884 0.92476
 C1174 C 0.60777 0.28948 0.93196
 C1175 C 0.62029 0.30177 0.94696
 C1176 C 0.64048 0.29355 0.95499
 C1177 C 0.64802 0.27292 0.94739
 C1178 C 0.63545 0.26065 0.93239
 C1179 C 0.60172 0.25577 0.91023
 C1180 C 0.58998 0.24482 0.89845
 C1181 C 0.57551 0.23174 0.88488
 C1182 C 0.56790 0.23994 0.86467
 C1183 C 0.55294 0.22766 0.85206
 C1184 C 0.54536 0.20701 0.85957
 C1185 C 0.55338 0.19878 0.87975
 C1186 C 0.56833 0.21107 0.89231
 H1187 H 0.59212 0.29596 0.92621
 H1188 H 0.61400 0.31758 0.95246
 H1189 H 0.66347 0.26611 0.95326
 H1190 H 0.64136 0.24466 0.92696
 H1191 H 0.57331 0.25596 0.85880
 H1192 H 0.54708 0.23448 0.83662
 H1193 H 0.54789 0.18295 0.88600
 H1194 H 0.57407 0.20459 0.90795
 C1195 C 0.38485 0.73109 0.92495
 C1196 C 0.36463 0.73926 0.93256
 C1197 C 0.35206 0.72697 0.94754
 C1198 C 0.35960 0.70634 0.95512
 C1199 C 0.37981 0.69814 0.94710
 C1200 C 0.39233 0.71045 0.93214
 C1201 C 0.39838 0.74418 0.91045
 C1202 C 0.41010 0.75515 0.89868
 C1203 C 0.42456 0.76826 0.88512
 C1204 C 0.43213 0.76009 0.86488
 C1205 C 0.44705 0.77240 0.85227
 C1206 C 0.45464 0.79305 0.85979
 C1207 C 0.44666 0.80125 0.88001
 C1208 C 0.43174 0.78892 0.89257
 H1209 H 0.35872 0.75526 0.92715
 H1210 H 0.33660 0.73376 0.95339
 H1211 H 0.38609 0.68233 0.95260
 H1212 H 0.40799 0.70399 0.92639
 H1213 H 0.42672 0.74409 0.85899
 H1214 H 0.45287 0.76561 0.83680
 H1215 H 0.45216 0.81707 0.88628
 H1216 H 0.42603 0.79538 0.90824
 C1217 C 0.73163 0.92467 0.38523
 C1218 C 0.71098 0.93185 0.39267
 C1219 C 0.69868 0.94681 0.38013
 C1220 C 0.70690 0.95483 0.35994
 C1221 C 0.72753 0.94724 0.35242
 C1222 C 0.73981 0.93227 0.36501
 C1223 C 0.74471 0.91018 0.39878
 C1224 C 0.75567 0.89843 0.41053
 C1225 C 0.76875 0.88489 0.42503
 C1226 C 0.76057 0.86465 0.43261
 C1227 C 0.77285 0.85205 0.44757
 C1228 C 0.79348 0.85959 0.45517
 C1229 C 0.80169 0.87981 0.44718
 C1230 C 0.78939 0.89236 0.43223
 H1231 H 0.70451 0.92612 0.40833
 H1232 H 0.68287 0.95231 0.38640
 H1233 H 0.73433 0.95309 0.33696
 H1234 H 0.75581 0.92686 0.35912
 H1235 H 0.74458 0.85874 0.42719
 H1236 H 0.76606 0.83657 0.45341
 H1237 H 0.81750 0.88609 0.45269
 H1238 H 0.79585 0.90803 0.42651
 C1239 C 0.26832 0.92431 0.61503
 C1240 C 0.28897 0.93150 0.60760
 C1241 C 0.30126 0.94646 0.62016
 C1242 C 0.29303 0.95448 0.64035
 C1243 C 0.27239 0.94688 0.64785
 C1244 C 0.26012 0.93191 0.63525
 C1245 C 0.25524 0.90983 0.60146
 C1246 C 0.24429 0.89810 0.58968
 C1247 C 0.23123 0.88458 0.57515
 C1248 C 0.23942 0.86436 0.56751
 C1249 C 0.22716 0.85180 0.55250
 C1250 C 0.20654 0.85935 0.54489
 C1251 C 0.19832 0.87954 0.55294
 C1252 C 0.21060 0.89205 0.56794
 H1253 H 0.29545 0.92577 0.59195
 H1254 H 0.31708 0.95196 0.61391
 H1255 H 0.26558 0.95274 0.66330
 H1256 H 0.24411 0.92650 0.64112
 H1257 H 0.25541 0.85845 0.57293
 H1258 H 0.23396 0.83634 0.54663
 H1259 H 0.18252 0.88583 0.54743
 H1260 H 0.20412 0.90771 0.57370
 C1261 C 0.26836 0.07547 0.38516
 C1262 C 0.26018 0.06789 0.36492
 C1263 C 0.27249 0.05297 0.35230
 C1264 C 0.29313 0.04539 0.35981
 C1265 C 0.30134 0.05338 0.38003
 C1266 C 0.28902 0.06830 0.39260
 C1267 C 0.25526 0.08992 0.39873
 C1268 C 0.24429 0.10165 0.41049
 C1269 C 0.23120 0.11517 0.42500
 C1270 C 0.21056 0.10768 0.43218
 C1271 C 0.19825 0.12021 0.44714
 C1272 C 0.20645 0.14043 0.45516
 C1273 C 0.22708 0.14799 0.44758
 C1274 C 0.23937 0.13541 0.43262
 H1275 H 0.24418 0.07329 0.35903
 H1276 H 0.26570 0.04713 0.33682
 H1277 H 0.31716 0.04790 0.38629
 H1278 H 0.29548 0.07402 0.40826
 H1279 H 0.20411 0.09201 0.42644
 H1280 H 0.18245 0.11392 0.45263
 H1281 H 0.23386 0.16346 0.45344
 H1282 H 0.25536 0.14133 0.42721
 C1283 C 0.73149 0.07546 0.61468
 C1284 C 0.71084 0.06826 0.60725
 C1285 C 0.69853 0.05335 0.61984
 C1286 C 0.70675 0.04539 0.64006
 C1287 C 0.72739 0.05300 0.64756
 C1288 C 0.73968 0.06792 0.63492
 C1289 C 0.74458 0.08990 0.60108
 C1290 C 0.75554 0.10161 0.58929
 C1291 C 0.76861 0.11512 0.57475
 C1292 C 0.76043 0.13534 0.56711
 C1293 C 0.77270 0.14789 0.55211
 C1294 C 0.79331 0.14033 0.54451
 C1295 C 0.80152 0.12013 0.55255
 C1296 C 0.78923 0.10763 0.56755
 H1297 H 0.70436 0.07395 0.59158
 H1298 H 0.68271 0.04784 0.61359
 H1299 H 0.73419 0.04719 0.66303
 H1300 H 0.75568 0.07334 0.64079
 H1301 H 0.74445 0.14126 0.57253
 H1302 H 0.76590 0.16335 0.54624
 H1303 H 0.81732 0.11383 0.54705
 H1304 H 0.79570 0.09197 0.57331
 C1305 C 0.92471 0.61503 0.26856
 C1306 C 0.93192 0.60755 0.28917
 C1307 C 0.94687 0.62010 0.30149
 C1308 C 0.95485 0.64034 0.29331
 C1309 C 0.94723 0.64789 0.27270
 C1310 C 0.93227 0.63529 0.26041
 C1311 C 0.91022 0.60148 0.25547
 C1312 C 0.89847 0.58972 0.24450
 C1313 C 0.88492 0.57523 0.23141
 C1314 C 0.89240 0.56800 0.21080
 C1315 C 0.87985 0.55304 0.19849
 C1316 C 0.85962 0.54507 0.20668
 C1317 C 0.85207 0.55270 0.22728
 C1318 C 0.86467 0.56767 0.23957
 H1319 H 0.92621 0.59186 0.29562
 H1320 H 0.95239 0.61381 0.31728
 H1321 H 0.95305 0.66338 0.26593
 H1322 H 0.92684 0.64120 0.24443
 H1323 H 0.90808 0.57371 0.20435
 H1324 H 0.88614 0.54751 0.18270
 H1325 H 0.83659 0.54688 0.23405
 H1326 H 0.85876 0.57311 0.25554
 C1327 C 0.92457 0.38510 0.73111
 C1328 C 0.93179 0.39259 0.71050
 C1329 C 0.94670 0.38003 0.69817
 C1330 C 0.95464 0.35976 0.70632
 C1331 C 0.94702 0.35220 0.72692
 C1332 C 0.93210 0.36482 0.73923
 C1333 C 0.91012 0.39867 0.74422
 C1334 C 0.89839 0.41042 0.75521
 C1335 C 0.88487 0.42490 0.76832
 C1336 C 0.86460 0.43245 0.76020
 C1337 C 0.85201 0.44739 0.77252
 C1338 C 0.85959 0.45501 0.79313
 C1339 C 0.87984 0.44705 0.80127
 C1340 C 0.89238 0.43212 0.78893
 H1341 H 0.92611 0.40829 0.70407
 H1342 H 0.95223 0.38633 0.68238
 H1343 H 0.95281 0.33670 0.73368
 H1344 H 0.92666 0.35890 0.75520
 H1345 H 0.85865 0.42702 0.74424
 H1346 H 0.83650 0.45320 0.76578
 H1347 H 0.88616 0.45257 0.81706
 H1348 H 0.90807 0.42643 0.79535
 C1349 C 0.07506 0.61485 0.73143
 C1350 C 0.06753 0.63514 0.73955
 C1351 C 0.05261 0.64775 0.72723
 C1352 C 0.04500 0.64018 0.70663
 C1353 C 0.05293 0.61991 0.69848
 C1354 C 0.06784 0.60735 0.71082
 C1355 C 0.08953 0.60130 0.74454
 C1356 C 0.10127 0.58956 0.75552
 C1357 C 0.11482 0.57508 0.76862
 C1358 C 0.10733 0.56787 0.78924
 C1359 C 0.11988 0.55293 0.80156
 C1360 C 0.14012 0.54497 0.79339
 C1361 C 0.14768 0.55259 0.77279
 C1362 C 0.13508 0.56753 0.76049
 H1363 H 0.07297 0.64107 0.75552
 H1364 H 0.04682 0.66326 0.73398
 H1365 H 0.04741 0.61360 0.68269
 H1366 H 0.07353 0.59165 0.70439
 H1367 H 0.09165 0.57356 0.79567
 H1368 H 0.11359 0.54740 0.81734
 H1369 H 0.16317 0.54678 0.76602
 H1370 H 0.14100 0.57297 0.74452
 C1371 C 0.07505 0.38509 0.26854
 C1372 C 0.06752 0.36482 0.26039
 C1373 C 0.05259 0.35218 0.27268
 C1374 C 0.04497 0.35972 0.29329
 C1375 C 0.05290 0.37998 0.30147
 C1376 C 0.06782 0.39256 0.28916
 C1377 C 0.08953 0.39866 0.25546
 C1378 C 0.10128 0.41041 0.24451
 C1379 C 0.11484 0.42489 0.23142
 C1380 C 0.10737 0.43212 0.21080
 C1381 C 0.11995 0.44704 0.19849
 C1382 C 0.14019 0.45499 0.20668
 C1383 C 0.14773 0.44737 0.22729
 C1384 C 0.13510 0.43243 0.23958
 H1385 H 0.07297 0.35890 0.24442
 H1386 H 0.04680 0.33668 0.26590
 H1387 H 0.04737 0.38627 0.31726
 H1388 H 0.07350 0.40826 0.29561
 H1389 H 0.09169 0.42643 0.20435
 H1390 H 0.11367 0.45257 0.18270
 H1391 H 0.16322 0.45317 0.23407
 H1392 H 0.14101 0.42699 0.25556
   
