data_POSCAR
  _audit_creation_date              2014-09-24
  _audit_creation_method            'ToBaCCo'
  _symmetry_space_group_name_H-M    'P1'
  _symmetry_Int_Tables_number       1
  _symmetry_cell_setting            triclinic
  loop_
  _symmetry_equiv_pos_as_xyz
 x,y,z
_cell_length_a 69.0893
_cell_length_b 69.0400
_cell_length_c 72.6811
_cell_angle_alpha 90.038600
_cell_angle_beta 89.946600
_cell_angle_gamma 89.956100
loop_
  _atom_site_label
  _atom_site_type_symbol
  _atom_site_fract_x
  _atom_site_fract_y
  _atom_site_fract_z
C1 C 0.41901 0.01270 0.27461
 H2 H 0.41996 0.02437 0.26473
 C3 C 0.43067 0.01295 0.29037
 H4 H 0.44055 0.02487 0.29267
 C5 C 0.40485 -0.01698 0.28391
 H6 H 0.39462 -0.02852 0.28160
 C7 C 0.41621 -0.01729 0.29979
 H8 H 0.41469 -0.02910 0.30950
 N9 N 0.40664 -0.00231 0.27151
 C10 C 0.39933 -0.00669 0.21183
 H11 H 0.38376 -0.00822 0.21110
 C12 C 0.41026 -0.00603 0.19566
 H13 H 0.40309 -0.00714 0.18245
 C14 C 0.42763 -0.00276 0.22987
 H15 H 0.43438 -0.00145 0.24319
 C16 C 0.43911 -0.00202 0.21401
 H17 H 0.45461 -0.00003 0.21521
 Zn18 Zn 0.39160 -0.00278 0.24950
 N19 N 0.40803 -0.00452 0.22849
 C20 C 0.37929 0.03262 0.23329
 N21 N 0.37680 0.02064 0.24801
 C22 C 0.36421 0.02535 0.26175
 C23 C 0.35306 0.04228 0.26064
 C24 C 0.36848 0.04964 0.23167
 C25 C 0.38392 -0.04272 0.24885
 C26 C 0.37301 -0.05970 0.25041
 C27 C 0.34411 -0.04013 0.25290
 C28 C 0.35560 -0.02350 0.25130
 N29 N 0.37519 -0.02505 0.24973
 H30 H 0.38972 0.02910 0.22276
 H31 H 0.36271 0.01585 0.27350
 H32 H 0.34294 0.04579 0.27154
 H33 H 0.37052 0.05892 0.21981
 H34 H 0.39949 -0.04359 0.24744
 H35 H 0.38027 -0.07363 0.25006
 H36 H 0.32858 -0.03864 0.25448
 H37 H 0.34882 -0.00942 0.25162
 C38 C 0.43029 -0.00333 0.19674
 C39 C 0.42936 -0.00230 0.30300
 C40 C 0.35291 -0.05843 0.25270
 C41 C 0.35513 0.05449 0.24537
 C42 C 0.07979 0.01262 0.72461
 H43 H 0.07888 0.02449 0.73429
 C44 C 0.06789 0.01244 0.70902
 H45 H 0.05787 0.02424 0.70663
 C46 C 0.09400 -0.01721 0.71570
 H47 H 0.10433 -0.02865 0.71812
 C48 C 0.08241 -0.01794 0.69999
 H49 H 0.08384 -0.02997 0.69050
 N50 N 0.09227 -0.00228 0.72786
 C51 C 0.09961 -0.00533 0.78759
 H52 H 0.11518 -0.00679 0.78837
 C53 C 0.08866 -0.00422 0.80373
 H54 H 0.09581 -0.00492 0.81697
 C55 C 0.07132 -0.00198 0.76944
 H56 H 0.06457 -0.00108 0.75609
 C57 C 0.05982 -0.00081 0.78526
 H58 H 0.04431 0.00111 0.78400
 Zn59 Zn 0.10735 -0.00228 0.74985
 N60 N 0.09092 -0.00363 0.77088
 C61 C 0.11969 0.03336 0.76553
 N62 N 0.12211 0.02115 0.75097
 C63 C 0.13482 0.02548 0.73723
 C64 C 0.14628 0.04220 0.73827
 C65 C 0.13081 0.05018 0.76708
 C66 C 0.11533 -0.04221 0.75094
 C67 C 0.12646 -0.05909 0.74965
 C68 C 0.15515 -0.03928 0.74738
 C69 C 0.14348 -0.02276 0.74871
 N70 N 0.12388 -0.02447 0.75001
 H71 H 0.10916 0.03015 0.77606
 H72 H 0.13627 0.01580 0.72560
 H73 H 0.15657 0.04536 0.72742
 H74 H 0.12889 0.05961 0.77886
 H75 H 0.09976 -0.04322 0.75217
 H76 H 0.11945 -0.07311 0.74998
 H77 H 0.17068 -0.03775 0.74599
 H78 H 0.15013 -0.00862 0.74840
 C79 C 0.06862 -0.00158 0.80256
 C80 C 0.06909 -0.00311 0.69669
 C81 C 0.14654 -0.05762 0.74760
 C82 C 0.14438 0.05457 0.75345
 C83 C 0.57982 0.51192 0.22487
 H84 H 0.57888 0.52383 0.23451
 C85 C 0.56793 0.51167 0.20926
 H86 H 0.55790 0.52345 0.20683
 C87 C 0.59411 0.48210 0.21605
 H88 H 0.60446 0.47070 0.21850
 C89 C 0.58253 0.48129 0.20034
 H90 H 0.58400 0.46924 0.19089
 N91 N 0.59234 0.49707 0.22816
 C92 C 0.59979 0.49411 0.28788
 H93 H 0.61536 0.49265 0.28863
 C94 C 0.58887 0.49525 0.30403
 H95 H 0.59605 0.49458 0.31726
 C96 C 0.57147 0.49743 0.26976
 H97 H 0.56469 0.49832 0.25642
 C98 C 0.56000 0.49864 0.28559
 H99 H 0.54449 0.50057 0.28436
 Zn100 Zn 0.60745 0.49711 0.25013
 N101 N 0.59107 0.49579 0.27117
 C102 C 0.61977 0.53279 0.26574
 N103 N 0.62220 0.52055 0.25119
 C104 C 0.63489 0.52489 0.23743
 C105 C 0.64632 0.54162 0.23843
 C106 C 0.63087 0.54962 0.26725
 C107 C 0.61545 0.45719 0.25132
 C108 C 0.62657 0.44030 0.25003
 C109 C 0.65525 0.46009 0.24758
 C110 C 0.64360 0.47662 0.24890
 N111 N 0.62400 0.47492 0.25030
 H112 H 0.60925 0.52958 0.27627
 H113 H 0.63633 0.51518 0.22582
 H114 H 0.65659 0.54478 0.22758
 H115 H 0.62894 0.55908 0.27901
 H116 H 0.59988 0.45619 0.25263
 H117 H 0.61955 0.42628 0.25044
 H118 H 0.67078 0.46161 0.24610
 H119 H 0.65024 0.49075 0.24851
 C120 C 0.56883 0.49791 0.30288
 C121 C 0.56918 0.49609 0.19698
 C122 C 0.64664 0.44175 0.24789
 C123 C 0.64441 0.55401 0.25359
 C124 C 0.92067 0.51319 0.77548
 H125 H 0.92174 0.52487 0.76562
 C126 C 0.93218 0.51340 0.79135
 H127 H 0.94208 0.52531 0.79370
 C128 C 0.90629 0.48357 0.78466
 H129 H 0.89601 0.47210 0.78227
 C130 C 0.91749 0.48321 0.80064
 H131 H 0.91578 0.47138 0.81031
 N132 N 0.90825 0.49824 0.77228
 C133 C 0.90083 0.49388 0.71258
 H134 H 0.88528 0.49223 0.71194
 C135 C 0.91166 0.49456 0.69635
 H136 H 0.90442 0.49336 0.68319
 C137 C 0.92921 0.49808 0.73046
 H138 H 0.93602 0.49951 0.74374
 C139 C 0.94059 0.49886 0.71453
 H140 H 0.95608 0.50097 0.71564
 Zn141 Zn 0.89323 0.49784 0.75023
 N142 N 0.90962 0.49616 0.72919
 C143 C 0.88087 0.53323 0.73406
 N144 N 0.87841 0.52126 0.74879
 C145 C 0.86581 0.52593 0.76252
 C146 C 0.85459 0.54282 0.76139
 C147 C 0.86998 0.55020 0.73242
 C148 C 0.88549 0.45789 0.74949
 C149 C 0.87454 0.44094 0.75097
 C150 C 0.84569 0.46054 0.75346
 C151 C 0.85720 0.47715 0.75193
 N152 N 0.87679 0.47558 0.75040
 H153 H 0.89130 0.52974 0.72352
 H154 H 0.86434 0.51643 0.77427
 H155 H 0.84445 0.54629 0.77228
 H156 H 0.87199 0.55948 0.72055
 H157 H 0.90106 0.45700 0.74810
 H158 H 0.88168 0.42697 0.75062
 H159 H 0.83016 0.46195 0.75502
 H160 H 0.85044 0.49125 0.75228
 C161 C 0.93168 0.49742 0.69731
 C162 C 0.93067 0.49816 0.80399
 C163 C 0.85446 0.44225 0.75322
 C164 C 0.85660 0.55501 0.74611
 C165 C 0.22271 0.38480 0.98347
 H166 H 0.23373 0.38485 0.97289
 C167 C 0.20599 0.39600 0.98130
 H168 H 0.20421 0.40482 0.96909
 C169 C 0.21130 0.37286 1.01206
 H170 H 0.21322 0.36353 1.02385
 C171 C 0.19435 0.38386 1.01042
 H172 H 0.18340 0.38312 1.02108
 N173 N 0.22510 0.37356 0.99869
 C174 C 0.28765 0.36304 1.00199
 H175 H 0.28776 0.34737 1.00194
 C176 C 0.30499 0.37324 1.00408
 H177 H 0.31850 0.36540 1.00545
 C178 C 0.26986 0.39239 1.00082
 H179 H 0.25612 0.39980 0.99996
 C180 C 0.28689 0.40315 1.00289
 H181 H 0.28621 0.41882 1.00335
 Zn182 Zn 0.24753 0.35751 0.99958
 N183 N 0.27053 0.37268 1.00036
 C184 C 0.26128 0.34172 0.96556
 N185 N 0.24679 0.34160 0.97827
 C186 C 0.23056 0.33076 0.97573
 C187 C 0.22845 0.31937 0.95996
 C188 C 0.25975 0.33053 0.94958
 C189 C 0.24905 0.35109 1.03758
 C190 C 0.25109 0.34045 1.05381
 C191 C 0.25049 0.31099 1.03587
 C192 C 0.24844 0.32219 1.01994
 N193 N 0.24776 0.34188 1.02107
 H194 H 0.27388 0.35073 0.96763
 H195 H 0.21914 0.33115 0.98592
 H196 H 0.21538 0.31096 0.95799
 H197 H 0.27122 0.33087 0.93942
 H198 H 0.24887 0.36675 1.03807
 H199 H 0.25231 0.34794 1.06686
 H200 H 0.25126 0.29536 1.03483
 H201 H 0.24793 0.31513 1.00669
 C202 C 0.30462 0.39349 1.00463
 C203 C 0.19162 0.39549 0.99486
 C204 C 0.25195 0.32022 1.05294
 C205 C 0.24315 0.31929 0.94673
 C206 C 0.77413 0.11570 0.98407
 H207 H 0.76322 0.11551 0.97341
 C208 C 0.79118 0.10501 0.98186
 H209 H 0.79328 0.09644 0.96952
 C210 C 0.78496 0.12760 1.01288
 H211 H 0.78269 0.13676 1.02475
 C212 C 0.80223 0.11712 1.01122
 H213 H 0.81305 0.11810 1.02196
 N214 N 0.77130 0.12669 0.99941
 C215 C 0.70856 0.13629 1.00190
 H216 H 0.70824 0.15196 1.00203
 C217 C 0.69131 0.12584 1.00356
 H218 H 0.67767 0.13349 1.00478
 C219 C 0.72675 0.10719 1.00070
 H220 H 0.74061 0.09997 0.99998
 C221 C 0.70982 0.09618 1.00233
 H222 H 0.71070 0.08052 1.00261
 Zn223 Zn 0.74864 0.14239 1.00022
 N224 N 0.72583 0.12690 1.00047
 C225 C 0.73555 0.15782 0.96591
 N226 N 0.74957 0.15847 0.97904
 C227 C 0.76570 0.16954 0.97678
 C228 C 0.76826 0.18048 0.96078
 C229 C 0.73754 0.16855 0.94969
 C230 C 0.74647 0.14794 1.03825
 C231 C 0.74450 0.15811 1.05477
 C232 C 0.74547 0.18808 1.03766
 C233 C 0.74743 0.17733 1.02142
 N234 N 0.74795 0.15761 1.02201
 H235 H 0.72306 0.14862 0.96775
 H236 H 0.77679 0.16954 0.98729
 H237 H 0.78130 0.18897 0.95899
 H238 H 0.72649 0.16768 0.93916
 H239 H 0.74656 0.13227 1.03831
 H240 H 0.74324 0.15024 1.06761
 H241 H 0.74495 0.20375 1.03707
 H242 H 0.74815 0.18476 1.00836
 C243 C 0.69193 0.10559 1.00386
 C244 C 0.80544 0.10579 0.99551
 C245 C 0.74391 0.17836 1.05449
 C246 C 0.75412 0.17987 0.94704
 C247 C 0.27381 0.61642 0.48382
 H248 H 0.26294 0.61624 0.47311
 C249 C 0.29083 0.60566 0.48170
 H250 H 0.29300 0.59705 0.46940
 C251 C 0.28455 0.62833 0.51265
 H252 H 0.28226 0.63751 0.52450
 C253 C 0.30179 0.61779 0.51107
 H254 H 0.31259 0.61871 0.52183
 N255 N 0.27094 0.62744 0.49913
 C256 C 0.20822 0.63717 0.50147
 H257 H 0.20793 0.65284 0.50159
 C258 C 0.19094 0.62675 0.50308
 H259 H 0.17731 0.63443 0.50427
 C260 C 0.22635 0.60803 0.50030
 H261 H 0.24020 0.60078 0.49962
 C262 C 0.20939 0.59706 0.50189
 H263 H 0.21024 0.58139 0.50217
 Zn264 Zn 0.24831 0.64319 0.49986
 N265 N 0.22547 0.62774 0.50007
 C266 C 0.23531 0.65861 0.46552
 N267 N 0.24932 0.65925 0.47867
 C268 C 0.26546 0.67030 0.47641
 C269 C 0.26805 0.68123 0.46041
 C270 C 0.23733 0.66933 0.44930
 C271 C 0.24604 0.64876 0.53788
 C272 C 0.24410 0.65893 0.55440
 C273 C 0.24524 0.68890 0.53729
 C274 C 0.24718 0.67815 0.52105
 N275 N 0.24760 0.65843 0.52164
 H276 H 0.22281 0.64942 0.46735
 H277 H 0.27654 0.67029 0.48693
 H278 H 0.28110 0.68970 0.45863
 H279 H 0.22629 0.66846 0.43876
 H280 H 0.24607 0.63309 0.53794
 H281 H 0.24278 0.65107 0.56723
 H282 H 0.24479 0.70457 0.53671
 H283 H 0.24796 0.68558 0.50799
 C284 C 0.19152 0.60650 0.50338
 C285 C 0.30502 0.60642 0.49540
 C286 C 0.24361 0.67919 0.55412
 C287 C 0.25392 0.68063 0.44666
 C288 C 0.72227 0.88387 0.48335
 H289 H 0.73331 0.88389 0.47278
 C290 C 0.70555 0.89506 0.48113
 H291 H 0.70379 0.90383 0.46889
 C292 C 0.71085 0.87204 0.51198
 H293 H 0.71277 0.86276 0.52380
 C294 C 0.69389 0.88302 0.51029
 H295 H 0.68294 0.88233 0.52094
 N296 N 0.72466 0.87270 0.49862
 C297 C 0.78721 0.86235 0.50203
 H298 H 0.78737 0.84668 0.50203
 C299 C 0.80452 0.87260 0.50411
 H300 H 0.81806 0.86481 0.50552
 C301 C 0.76935 0.89165 0.50076
 H302 H 0.75559 0.89902 0.49987
 C303 C 0.78635 0.90247 0.50282
 H304 H 0.78562 0.91814 0.50323
 Zn305 Zn 0.74712 0.85670 0.49959
 N306 N 0.77008 0.87194 0.50035
 C307 C 0.76097 0.84095 0.46560
 N308 N 0.74648 0.84075 0.47831
 C309 C 0.73030 0.82982 0.47576
 C310 C 0.72825 0.81844 0.45997
 C311 C 0.75949 0.82977 0.44960
 C312 C 0.74864 0.85045 0.53760
 C313 C 0.75076 0.83989 0.55387
 C314 C 0.75028 0.81035 0.53605
 C315 C 0.74815 0.82146 0.52008
 N316 N 0.74738 0.84115 0.52113
 H317 H 0.77351 0.85003 0.46767
 H318 H 0.71888 0.83014 0.48595
 H319 H 0.71522 0.80998 0.45799
 H320 H 0.77096 0.83020 0.43944
 H321 H 0.74839 0.86611 0.53803
 H322 H 0.75196 0.84745 0.56689
 H323 H 0.75114 0.79471 0.53507
 H324 H 0.74766 0.81434 0.50685
 C325 C 0.80410 0.89286 0.50460
 C326 C 0.69118 0.89460 0.49469
 C327 C 0.75173 0.81966 0.55309
 C328 C 0.74294 0.81847 0.44673
 C329 C 0.01033 0.27844 0.39738
 H330 H 0.02456 0.27193 0.39787
 C331 C 0.00605 0.29434 0.40842
 H332 H 0.01703 0.30022 0.41748
 C333 C -0.02125 0.27916 0.38449
 H334 H -0.03167 0.27341 0.37487
 C335 C -0.02612 0.29514 0.39529
 H336 H -0.04032 0.30168 0.39406
 N337 N -0.00330 0.27114 0.38583
 C338 C 0.01454 0.21200 0.37660
 H339 H 0.01549 0.21197 0.36174
 C340 C 0.01760 0.19497 0.38641
 H341 H 0.02090 0.18167 0.37910
 C342 C 0.00819 0.22923 0.40425
 H343 H 0.00400 0.24248 0.41108
 C344 C 0.01111 0.21251 0.41460
 H345 H 0.00928 0.21296 0.42941
 Zn346 Zn 0.00443 0.25031 0.37107
 N347 N 0.00997 0.22865 0.38562
 C348 C 0.04351 0.24872 0.36073
 N349 N 0.02650 0.25822 0.35812
 C350 C 0.02529 0.27406 0.34703
 C351 C 0.04158 0.28049 0.33744
 C352 C 0.06009 0.25467 0.35149
 C353 C -0.03170 0.23573 0.36309
 C354 C -0.04744 0.23031 0.35235
 C355 C -0.02923 0.23915 0.32516
 C356 C -0.01377 0.24438 0.33644
 N357 N -0.01549 0.24301 0.35505
 H358 H 0.04432 0.23659 0.37006
 H359 H 0.01163 0.28158 0.34558
 H360 H 0.04054 0.29288 0.32836
 H361 H 0.07355 0.24688 0.35344
 H362 H -0.03246 0.23452 0.37791
 H363 H -0.06055 0.22511 0.35887
 H364 H -0.02809 0.24082 0.31038
 H365 H -0.00055 0.24971 0.33034
 C366 C 0.01574 0.19525 0.40555
 C367 C -0.01230 0.30275 0.40731
 C368 C -0.04625 0.23226 0.33326
 C369 C 0.05906 0.27059 0.33969
 C370 C 0.00676 0.72434 0.10711
 H371 H 0.02090 0.73107 0.10715
 C372 C 0.00366 0.70748 0.09707
 H373 H 0.01543 0.70110 0.08929
 C374 C -0.02582 0.72419 0.11758
 H375 H -0.03713 0.73058 0.12586
 C376 C -0.02954 0.70725 0.10772
 H377 H -0.04375 0.70065 0.10829
 N378 N -0.00793 0.73241 0.11693
 C379 C 0.00835 0.79253 0.12200
 H380 H 0.00804 0.79412 0.13681
 C381 C 0.01232 0.80846 0.11089
 H382 H 0.01507 0.82246 0.11709
 C383 C 0.00438 0.77248 0.09571
 H384 H 0.00082 0.75857 0.08985
 C385 C 0.00827 0.78805 0.08409
 H386 H 0.00779 0.78610 0.06930
 Zn387 Zn -0.00171 0.75472 0.13030
 N388 N 0.00460 0.77500 0.11428
 C389 C 0.03642 0.75813 0.14340
 N390 N 0.01944 0.74840 0.14525
 C391 C 0.01763 0.73316 0.15700
 C392 C 0.03327 0.72743 0.16784
 C393 C 0.05237 0.75289 0.15394
 C394 C -0.03883 0.76888 0.13519
 C395 C -0.05542 0.77433 0.14478
 C396 C -0.03833 0.76855 0.17333
 C397 C -0.02205 0.76322 0.16317
 N398 N -0.02282 0.76296 0.14448
 H399 H 0.03775 0.76978 0.13358
 H400 H 0.00404 0.72544 0.15785
 H401 H 0.03180 0.71535 0.17725
 H402 H 0.06587 0.76072 0.15243
 H403 H -0.03883 0.76882 0.12030
 H404 H -0.06837 0.77828 0.13724
 H405 H -0.03785 0.76801 0.18824
 H406 H -0.00899 0.75897 0.17024
 C407 C 0.01222 0.80615 0.09180
 C408 C -0.01464 0.69891 0.09739
 C409 C -0.05524 0.77384 0.16402
 C410 C 0.05074 0.73745 0.16624
 C411 C 0.50737 0.22372 0.60696
 H412 H 0.52158 0.23028 0.60681
 C413 C 0.50398 0.20681 0.59707
 H414 H 0.51561 0.20024 0.58922
 C415 C 0.47490 0.22400 0.61774
 H416 H 0.46376 0.23058 0.62608
 C417 C 0.47089 0.20702 0.60804
 H418 H 0.45663 0.20058 0.60879
 N419 N 0.49287 0.23201 0.61686
 C420 C 0.51013 0.29190 0.62149
 H421 H 0.51007 0.29354 0.63630
 C422 C 0.51412 0.30773 0.61028
 H423 H 0.51713 0.32172 0.61639
 C424 C 0.50548 0.27181 0.59532
 H425 H 0.50162 0.25793 0.58956
 C426 C 0.50936 0.28729 0.58360
 H427 H 0.50860 0.28531 0.56883
 Zn428 Zn 0.49955 0.25430 0.63006
 N429 N 0.50601 0.27439 0.61388
 C430 C 0.53787 0.25714 0.64279
 N431 N 0.52074 0.24772 0.64485
 C432 C 0.51877 0.23259 0.65670
 C433 C 0.53441 0.22667 0.66746
 C434 C 0.55382 0.25169 0.65324
 C435 C 0.46269 0.26901 0.63520
 C436 C 0.44629 0.27478 0.64491
 C437 C 0.46356 0.26899 0.67332
 C438 C 0.47967 0.26333 0.66307
 N439 N 0.47871 0.26294 0.64438
 H440 H 0.53930 0.26870 0.63290
 H441 H 0.50506 0.22511 0.65771
 H442 H 0.53281 0.21469 0.67696
 H443 H 0.56744 0.25928 0.65158
 H444 H 0.46253 0.26883 0.62031
 H445 H 0.43328 0.27885 0.63754
 H446 H 0.46409 0.26856 0.68822
 H447 H 0.49274 0.25894 0.67005
 C448 C 0.51365 0.30537 0.59120
 C449 C 0.48561 0.19844 0.59764
 C450 C 0.44668 0.27446 0.66412
 C451 C 0.55203 0.23637 0.66566
 C452 C 0.50990 0.77927 0.89621
 H453 H 0.52417 0.77285 0.89679
 C454 C 0.50554 0.79532 0.90703
 H455 H 0.51648 0.80140 0.91600
 C456 C 0.47828 0.77954 0.88340
 H457 H 0.46787 0.77353 0.87391
 C458 C 0.47332 0.79567 0.89398
 H459 H 0.45906 0.80206 0.89272
 N460 N 0.49628 0.77166 0.88483
 C461 C 0.51431 0.71236 0.87708
 H462 H 0.51530 0.71189 0.86223
 C463 C 0.51749 0.69564 0.88734
 H464 H 0.52091 0.68215 0.88044
 C465 C 0.50779 0.73034 0.90426
 H466 H 0.50351 0.74374 0.91074
 C467 C 0.51083 0.71395 0.91505
 H468 H 0.50900 0.71476 0.92984
 Zn469 Zn 0.50410 0.75050 0.87056
 N470 N 0.50963 0.72923 0.88565
 C471 C 0.54325 0.74872 0.86041
 N472 N 0.52623 0.75814 0.85754
 C473 C 0.52506 0.77375 0.84616
 C474 C 0.54139 0.78005 0.83658
 C475 C 0.55987 0.75455 0.85117
 C476 C 0.46803 0.73566 0.86274
 C477 C 0.45230 0.73009 0.85204
 C478 C 0.47059 0.73844 0.82477
 C479 C 0.48604 0.74382 0.83600
 N480 N 0.48427 0.74279 0.85462
 H481 H 0.54403 0.73679 0.86996
 H482 H 0.51139 0.78122 0.84451
 H483 H 0.54039 0.79227 0.82729
 H484 H 0.57334 0.74684 0.85335
 H485 H 0.46722 0.73473 0.87758
 H486 H 0.43916 0.72505 0.85862
 H487 H 0.47176 0.73988 0.80997
 H488 H 0.49927 0.74905 0.82985
 C489 C 0.51563 0.69649 0.90646
 C490 C 0.48711 0.80355 0.90586
 C491 C 0.45354 0.73174 0.83293
 C492 C 0.55889 0.77025 0.83911
 C493 C -0.23697 0.67024 0.97549
 H494 H -0.22546 0.67117 0.98553
 C495 C -0.23658 0.68208 0.95985
 H496 H -0.22470 0.69208 0.95779
 C497 C -0.26643 0.65601 0.96569
 H498 H -0.27793 0.64569 0.96778
 C499 C -0.26659 0.66755 0.94992
 H500 H -0.27825 0.66608 0.94006
 N501 N -0.25196 0.65777 0.97830
 C502 C -0.25730 0.65027 1.03784
 H503 H -0.25876 0.63469 1.03850
 C504 C -0.25694 0.66116 1.05403
 H505 H -0.25823 0.65390 1.06720
 C506 C -0.25322 0.67866 1.01991
 H507 H -0.25175 0.68546 1.00662
 C508 C -0.25278 0.69011 1.03579
 H509 H -0.25086 0.70564 1.03461
 Zn510 Zn -0.25273 0.64265 1.00024
 N511 N -0.25490 0.65904 1.02123
 C512 C -0.21762 0.63042 1.01697
 N513 N -0.22933 0.62791 1.00207
 C514 C -0.22439 0.61530 0.98842
 C515 C -0.20751 0.60411 0.98983
 C516 C -0.20067 0.61956 1.01890
 C517 C -0.29261 0.63486 1.00030
 C518 C -0.30951 0.62388 0.99853
 C519 C -0.28985 0.59504 0.99635
 C520 C -0.27329 0.60657 0.99814
 N521 N -0.27492 0.62617 0.99967
 H522 H -0.22131 0.64087 1.02744
 H523 H -0.23367 0.61380 0.97652
 H524 H -0.20383 0.59396 0.97901
 H525 H -0.19162 0.62160 1.03090
 H526 H -0.29355 0.65044 1.00168
 H527 H -0.32348 0.63101 0.99867
 H528 H -0.28839 0.57950 0.99481
 H529 H -0.25919 0.59982 0.99803
 C530 C -0.25432 0.68124 1.05304
 C531 C -0.25165 0.68083 0.94704
 C532 C -0.30812 0.60380 0.99630
 C533 C -0.19562 0.60616 1.00530
 C534 C -0.23721 0.32876 0.52613
 H535 H -0.22521 0.32758 0.51662
 C536 C -0.23772 0.31764 0.54126
 H537 H -0.22610 0.30750 0.54397
 C538 C -0.26697 0.34437 0.53388
 H539 H -0.27823 0.35481 0.53123
 C540 C -0.26809 0.33249 0.55071
 H541 H -0.28024 0.33445 0.56000
 N542 N -0.25267 0.34221 0.52233
 C543 C -0.25504 0.34929 0.46246
 H544 H -0.25662 0.36486 0.46166
 C545 C -0.25376 0.33834 0.44633
 H546 H -0.25447 0.34550 0.43308
 C547 C -0.25155 0.32101 0.48064
 H548 H -0.25062 0.31428 0.49400
 C549 C -0.25019 0.30951 0.46482
 H550 H -0.24814 0.29401 0.46609
 Zn551 Zn -0.25228 0.35714 0.50018
 N552 N -0.25338 0.34061 0.47919
 C553 C -0.21643 0.36925 0.48482
 N554 N -0.22879 0.37182 0.49925
 C555 C -0.22454 0.38460 0.51296
 C556 C -0.20776 0.39597 0.51203
 C557 C -0.19955 0.38028 0.48338
 C558 C -0.29216 0.36530 0.49847
 C559 C -0.30902 0.37647 0.49961
 C560 C -0.28918 0.40513 0.50221
 C561 C -0.27268 0.39341 0.50103
 N562 N -0.27442 0.37380 0.49964
 H563 H -0.21958 0.35868 0.47431
 H564 H -0.23435 0.38617 0.52448
 H565 H -0.20467 0.40631 0.52285
 H566 H -0.19001 0.37825 0.47170
 H567 H -0.29318 0.34972 0.49720
 H568 H -0.32303 0.36943 0.49910
 H569 H -0.28758 0.42066 0.50370
 H570 H -0.25854 0.40001 0.50156
 C571 C -0.25096 0.31831 0.44750
 C572 C -0.25417 0.31949 0.55421
 C573 C -0.30755 0.39657 0.50177
 C574 C -0.19524 0.39392 0.49698
 C575 C 0.26258 -0.17036 0.02588
 H576 H 0.27458 -0.17162 0.01638
 C577 C 0.26202 -0.18143 0.04105
 H578 H 0.27360 -0.19162 0.04379
 C579 C 0.23287 -0.15462 0.03358
 H580 H 0.22165 -0.14414 0.03090
 C581 C 0.23169 -0.16644 0.05044
 H582 H 0.21955 -0.16442 0.05971
 N583 N 0.24717 -0.15687 0.02204
 C584 C 0.24481 -0.14997 -0.03786
 H585 H 0.24322 -0.13441 -0.03868
 C586 C 0.24607 -0.16096 -0.05397
 H587 H 0.24535 -0.15383 -0.06722
 C588 C 0.24832 -0.17821 -0.01962
 H589 H 0.24925 -0.18491 -0.00624
 C590 C 0.24966 -0.18975 -0.03542
 H591 H 0.25171 -0.20524 -0.03412
 Zn592 Zn 0.24758 -0.14203 -0.00016
 N593 N 0.24648 -0.15862 -0.02111
 C594 C 0.28342 -0.12994 -0.01556
 N595 N 0.27107 -0.12734 -0.00113
 C596 C 0.27531 -0.11452 0.01254
 C597 C 0.29208 -0.10313 0.01157
 C598 C 0.30029 -0.11890 -0.01704
 C599 C 0.20771 -0.13390 -0.00191
 C600 C 0.19084 -0.12275 -0.00077
 C601 C 0.21065 -0.09406 0.00180
 C602 C 0.22716 -0.10577 0.00062
 N603 N 0.22544 -0.12537 -0.00075
 H604 H 0.28027 -0.14055 -0.02603
 H605 H 0.26551 -0.11292 0.02406
 H606 H 0.29516 -0.09275 0.02235
 H607 H 0.30983 -0.12097 -0.02872
 H608 H 0.20670 -0.14948 -0.00316
 H609 H 0.17684 -0.12980 -0.00126
 H610 H 0.21223 -0.07852 0.00328
 H611 H 0.24129 -0.09915 0.00113
 C612 C 0.24888 -0.18099 -0.05275
 C613 C 0.24556 -0.17949 0.05399
 C614 C 0.19229 -0.10265 0.00138
 C615 C 0.30460 -0.10522 -0.00348
 C616 C 0.26285 1.16992 0.47500
 H617 H 0.27439 1.17080 0.48502
 C618 C 0.26325 1.18175 0.45936
 H619 H 0.27518 1.19169 0.45727
 C620 C 0.23330 1.15582 0.46529
 H621 H 0.22175 1.14556 0.46742
 C622 C 0.23315 1.16735 0.44952
 H623 H 0.22146 1.16594 0.43969
 N624 N 0.24782 1.15752 0.47786
 C625 C 0.24260 1.15020 0.53742
 H626 H 0.24111 1.13462 0.53814
 C627 C 0.24303 1.16115 0.55358
 H628 H 0.24178 1.15399 0.56678
 C629 C 0.24667 1.17852 0.51939
 H630 H 0.24812 1.18528 0.50608
 C631 C 0.24719 1.19002 0.53524
 H632 H 0.24915 1.20554 0.53406
 Zn633 Zn 0.24703 1.14246 0.49983
 N634 N 0.24497 1.15891 0.52078
 C635 C 0.28217 1.13022 0.51650
 N636 N 0.27040 1.12766 0.50165
 C637 C 0.27526 1.11497 0.48804
 C638 C 0.29214 1.10378 0.48942
 C639 C 0.29912 1.11937 0.51840
 C640 C 0.20714 1.13484 0.50002
 C641 C 0.19018 1.12392 0.49838
 C642 C 0.20970 1.09498 0.49622
 C643 C 0.22632 1.10644 0.49790
 N644 N 0.22479 1.12606 0.49935
 H645 H 0.27853 1.14073 0.52693
 H646 H 0.26594 1.11343 0.47618
 H647 H 0.29577 1.09358 0.47863
 H648 H 0.30823 1.12146 0.53036
 H649 H 0.20628 1.15042 0.50135
 H650 H 0.17624 1.13112 0.49856
 H651 H 0.21108 1.07943 0.49475
 H652 H 0.24039 1.09964 0.49775
 C653 C 0.24569 1.18121 0.55250
 C654 C 0.24815 1.18057 0.44659
 C655 C 0.19146 1.10383 0.49623
 C656 C 0.30411 1.10591 0.50484
 C657 C 0.13362 0.47364 0.26599
 H658 H 0.13345 0.48456 0.27668
 C659 C 0.14495 0.45699 0.26811
 H660 H 0.15363 0.45515 0.28039
 C661 C 0.12213 0.46245 0.23716
 H662 H 0.11295 0.46444 0.22529
 C663 C 0.13326 0.44557 0.23874
 H664 H 0.13275 0.43473 0.22797
 N665 N 0.12256 0.47613 0.25067
 C666 C 0.11183 0.53871 0.24782
 H667 H 0.09617 0.53878 0.24774
 C668 C 0.12200 0.55612 0.24599
 H669 H 0.11414 0.56963 0.24467
 C670 C 0.14120 0.52099 0.24909
 H671 H 0.14864 0.50725 0.24989
 C672 C 0.15193 0.53808 0.24728
 H673 H 0.16759 0.53744 0.24695
 Zn674 Zn 0.10640 0.49851 0.24981
 N675 N 0.12149 0.52159 0.24938
 C676 C 0.09051 0.51183 0.28392
 N677 N 0.09031 0.49752 0.27102
 C678 C 0.07944 0.48127 0.27339
 C679 C 0.06816 0.47893 0.28921
 C680 C 0.07942 0.51006 0.29995
 C681 C 0.10055 0.50042 0.21176
 C682 C 0.09022 0.50256 0.19537
 C683 C 0.06044 0.50155 0.21284
 C684 C 0.07137 0.49941 0.22893
 N685 N 0.09107 0.49888 0.22810
 H686 H 0.09954 0.52443 0.28200
 H687 H 0.07978 0.46998 0.26306
 H688 H 0.05977 0.46582 0.29106
 H689 H 0.07987 0.52138 0.31027
 H690 H 0.11621 0.50035 0.21152
 H691 H 0.09802 0.50395 0.18248
 H692 H 0.04479 0.50217 0.21372
 H693 H 0.06410 0.49868 0.24207
 C694 C 0.14224 0.55582 0.24562
 C695 C 0.14473 0.44277 0.25439
 C696 C 0.06995 0.50327 0.19589
 C697 C 0.06821 0.49341 0.30267
 C698 C -0.13236 1.02235 0.26513
 H699 H -0.13264 1.01129 0.27568
 C700 C -0.14282 1.03951 0.26759
 H701 H -0.15131 1.04160 0.27997
 C702 C -0.12049 1.03340 0.23638
 H703 H -0.11143 1.03117 0.22444
 C704 C -0.13073 1.05079 0.23831
 H705 H -0.12972 1.06177 0.22771
 N706 N -0.12150 1.01958 0.24971
 C707 C -0.11286 0.95671 0.24642
 H708 H -0.09722 0.95616 0.24617
 C709 C -0.12358 0.93963 0.24471
 H710 H -0.11616 0.92588 0.24332
 C711 C -0.14166 0.97534 0.24803
 H712 H -0.14866 0.98931 0.24894
 C713 C -0.15293 0.95859 0.24634
 H714 H -0.16857 0.95971 0.24621
 Zn715 Zn -0.10616 0.99669 0.24856
 N716 N -0.12198 0.97412 0.24810
 C717 C -0.09073 0.98282 0.28257
 N718 N -0.09002 0.99708 0.26967
 C719 C -0.07875 1.01305 0.27209
 C720 C -0.06763 1.01517 0.28801
 C721 C -0.07982 0.98438 0.29871
 C722 C -0.10060 0.99500 0.21049
 C723 C -0.09041 0.99308 0.19398
 C724 C -0.06051 0.99325 0.21121
 C725 C -0.07128 0.99517 0.22743
 N726 N -0.09097 0.99607 0.22678
 H727 H -0.10009 0.97047 0.28061
 H728 H -0.07871 1.02432 0.26176
 H729 H -0.05898 1.02809 0.28995
 H730 H -0.08074 0.97314 0.30908
 H731 H -0.11625 0.99538 0.21038
 H732 H -0.09828 0.99215 0.18111
 H733 H -0.04486 0.99241 0.21189
 H734 H -0.06390 0.99555 0.24052
 C735 C -0.14381 0.94056 0.24459
 C736 C -0.14193 1.05392 0.25410
 C737 C -0.07017 0.99210 0.19432
 C738 C -0.06827 1.00077 0.30152
 C739 C 0.36661 0.52268 -0.23450
 H740 H 0.36630 0.51171 -0.22389
 C741 C 0.35620 0.53989 -0.23217
 H742 H 0.34770 0.54209 -0.21980
 C743 C 0.37856 0.53351 -0.26330
 H744 H 0.38763 0.53118 -0.27522
 C745 C 0.36836 0.55094 -0.26150
 H746 H 0.36942 0.56185 -0.27216
 N747 N 0.37749 0.51979 -0.24989
 C748 C 0.38674 0.45590 -0.25269
 H749 H 0.40239 0.45540 -0.25262
 C750 C 0.37654 0.43952 -0.25445
 H751 H 0.38397 0.42576 -0.25571
 C752 C 0.35820 0.47542 -0.25140
 H753 H 0.35114 0.48937 -0.25082
 C754 C 0.34634 0.45767 -0.25318
 H755 H 0.33070 0.45888 -0.25341
 Zn756 Zn 0.39283 0.49689 -0.25081
 N757 N 0.37704 0.47430 -0.25113
 C758 C 0.40813 0.48337 -0.21663
 N759 N 0.40886 0.49750 -0.22966
 C760 C 0.42008 0.51353 -0.22733
 C761 C 0.43109 0.51586 -0.21137
 C762 C 0.41894 0.48513 -0.20044
 C763 C 0.39859 0.49487 -0.28885
 C764 C 0.40888 0.49282 -0.30528
 C765 C 0.43867 0.49313 -0.28790
 C766 C 0.42781 0.49518 -0.27175
 N767 N 0.40812 0.49607 -0.27251
 H768 H 0.39882 0.47097 -0.21853
 H769 H 0.42013 0.52470 -0.23777
 H770 H 0.43969 0.52882 -0.20952
 H771 H 0.41800 0.47400 -0.18998
 H772 H 0.38293 0.49524 -0.28904
 H773 H 0.40113 0.49177 -0.31820
 H774 H 0.45431 0.49230 -0.28718
 H775 H 0.43511 0.49567 -0.25863
 C776 C 0.35515 0.44042 -0.25479
 C777 C 0.35715 0.55421 -0.24574
 C778 C 0.42910 0.49186 -0.30482
 C779 C 0.43041 0.50160 -0.19773
 C780 C 0.63608 -0.02675 -0.23285
 H781 H 0.63616 -0.01571 -0.22227
 C782 C 0.64679 -0.04279 -0.23082
 H783 H 0.65558 -0.04467 -0.21862
 C784 C 0.62365 -0.03724 -0.26185
 H785 H 0.61425 -0.03535 -0.27357
 C786 C 0.63532 -0.05514 -0.26023
 H787 H 0.63460 -0.06593 -0.27106
 N788 N 0.62424 -0.02411 -0.24896
 C789 C 0.61353 0.03849 -0.25166
 H790 H 0.59788 0.03858 -0.25166
 C791 C 0.62371 0.05589 -0.25355
 H792 H 0.61582 0.06939 -0.25481
 C793 C 0.64288 0.02072 -0.25056
 H794 H 0.65029 0.00696 -0.24981
 C795 C 0.65363 0.03779 -0.25243
 H796 H 0.66930 0.03707 -0.25284
 Zn797 Zn 0.60808 -0.00172 -0.24965
 N798 N 0.62318 0.02136 -0.25017
 C799 C 0.59229 0.01160 -0.21548
 N800 N 0.59218 -0.00275 -0.22833
 C801 C 0.58138 -0.01905 -0.22591
 C802 C 0.57006 -0.02136 -0.21012
 C803 C 0.58115 0.00986 -0.19947
 C804 C 0.60174 0.00025 -0.28766
 C805 C 0.59114 0.00232 -0.30391
 C806 C 0.56165 0.00123 -0.28606
 C807 C 0.57281 -0.00084 -0.27011
 N808 N 0.59249 -0.00131 -0.27119
 H809 H 0.60125 0.02425 -0.21744
 H810 H 0.58177 -0.03037 -0.23621
 H811 H 0.56169 -0.03448 -0.20826
 H812 H 0.58150 0.02124 -0.18921
 H813 H 0.61739 0.00023 -0.28811
 H814 H 0.59866 0.00373 -0.31693
 H815 H 0.54602 0.00180 -0.28507
 H816 H 0.56571 -0.00158 -0.25689
 C817 C 0.64397 0.05556 -0.25404
 C818 C 0.64637 -0.05789 -0.24527
 C819 C 0.57092 0.00294 -0.30311
 C820 C 0.56998 -0.00681 -0.19674
 C821 C 0.02945 0.25897 0.85483
 H822 H 0.02295 0.27321 0.85410
 C823 C 0.04591 0.25478 0.84455
 H824 H 0.05223 0.26582 0.83583
 C825 C 0.02940 0.22723 0.86744
 H826 H 0.02308 0.21669 0.87661
 C827 C 0.04594 0.22244 0.85738
 H828 H 0.05232 0.20817 0.85872
 N829 N 0.02147 0.24521 0.86582
 C830 C -0.03822 0.26279 0.87115
 H831 H -0.03938 0.26371 0.88597
 C832 C -0.05443 0.26597 0.86020
 H833 H -0.06823 0.26933 0.86654
 C834 C -0.01898 0.25645 0.84473
 H835 H -0.00527 0.25224 0.83880
 C836 C -0.03484 0.25949 0.83327
 H837 H -0.03334 0.25773 0.81852
 Zn838 Zn -0.00038 0.25279 0.87924
 N839 N -0.02095 0.25821 0.86328
 C840 C -0.00298 0.29189 0.88964
 N841 N 0.00649 0.27492 0.89265
 C842 C 0.02166 0.27375 0.90453
 C843 C 0.02743 0.29003 0.91451
 C844 C 0.00233 0.30847 0.89927
 C845 C -0.01514 0.21647 0.88652
 C846 C -0.02093 0.20067 0.89705
 C847 C -0.01409 0.21920 0.92456
 C848 C -0.00846 0.23470 0.91348
 N849 N -0.00862 0.23284 0.89484
 H850 H -0.01455 0.29268 0.87971
 H851 H 0.02918 0.26013 0.90630
 H852 H 0.03930 0.28902 0.92418
 H853 H -0.00541 0.32191 0.89698
 H854 H -0.01539 0.21558 0.87166
 H855 H -0.02545 0.18741 0.89034
 H856 H -0.01331 0.22045 0.93940
 H857 H -0.00371 0.24804 0.91979
 C858 C -0.05268 0.26421 0.84113
 C859 C 0.05417 0.23637 0.84584
 C860 C -0.02013 0.20200 0.91621
 C861 C 0.01756 0.30747 0.91184
 C862 C 0.47451 0.25577 0.14515
 H863 H 0.48125 0.26989 0.14587
 C864 C 0.45763 0.25211 0.15496
 H865 H 0.45125 0.26343 0.16334
 C866 C 0.47427 0.22387 0.13287
 H867 H 0.48062 0.21309 0.12394
 C868 C 0.45729 0.21961 0.14247
 H869 H 0.45061 0.20549 0.14105
 N870 N 0.48251 0.24169 0.13450
 C871 C 0.54233 0.25896 0.12960
 H872 H 0.54368 0.25959 0.11478
 C873 C 0.55836 0.26246 0.14069
 H874 H 0.57222 0.26577 0.13446
 C875 C 0.52276 0.25311 0.15590
 H876 H 0.50899 0.24900 0.16173
 C877 C 0.53844 0.25648 0.16750
 H878 H 0.53674 0.25508 0.18226
 Zn879 Zn 0.50459 0.24887 0.12125
 N880 N 0.52498 0.25450 0.13734
 C881 C 0.50731 0.28780 0.11014
 N882 N 0.49786 0.27077 0.10747
 C883 C 0.48259 0.26936 0.09573
 C884 C 0.47659 0.28548 0.08567
 C885 C 0.50179 0.30423 0.10040
 C886 C 0.51902 0.21223 0.11446
 C887 C 0.52459 0.19623 0.10406
 C888 C 0.51838 0.21468 0.07639
 C889 C 0.51294 0.23037 0.08732
 N890 N 0.51286 0.22865 0.10597
 H891 H 0.51899 0.28877 0.11995
 H892 H 0.47510 0.25570 0.09423
 H893 H 0.46455 0.28430 0.07620
 H894 H 0.50944 0.31774 0.10249
 H895 H 0.51908 0.21145 0.12932
 H896 H 0.52876 0.18291 0.11088
 H897 H 0.51772 0.21581 0.06154
 H898 H 0.50847 0.24374 0.08090
 C899 C 0.55636 0.26114 0.15977
 C900 C 0.44897 0.23391 0.15356
 C901 C 0.52397 0.19741 0.08489
 C902 C 0.48635 0.30301 0.08806
 C903 C -0.02606 0.75635 0.64663
 H904 H -0.01917 0.77040 0.64745
 C905 C -0.04208 0.75279 0.65624
 H906 H -0.04825 0.76398 0.66492
 C907 C -0.02586 0.72457 0.63342
 H908 H -0.01979 0.71391 0.62420
 C909 C -0.04363 0.72000 0.64378
 H910 H -0.05036 0.70592 0.64216
 N911 N -0.01788 0.74159 0.63504
 C912 C 0.04179 0.75898 0.62932
 H913 H 0.04290 0.75979 0.61449
 C914 C 0.05797 0.76248 0.64021
 H915 H 0.07171 0.76596 0.63383
 C916 C 0.02266 0.75277 0.65584
 H917 H 0.00900 0.74855 0.66183
 C918 C 0.03851 0.75614 0.66725
 H919 H 0.03703 0.75462 0.68202
 Zn920 Zn 0.00390 0.74900 0.62147
 N921 N 0.02458 0.75437 0.63727
 C922 C 0.00634 0.78816 0.61117
 N923 N -0.00313 0.77118 0.60823
 C924 C -0.01859 0.77006 0.59670
 C925 C -0.02477 0.78643 0.58711
 C926 C 0.00063 0.80482 0.60192
 C927 C 0.01834 0.71257 0.61389
 C928 C 0.02374 0.69673 0.60320
 C929 C 0.01669 0.71545 0.57588
 C930 C 0.01144 0.73099 0.58710
 N931 N 0.01187 0.72905 0.60572
 H932 H 0.01816 0.78889 0.62084
 H933 H -0.02609 0.75643 0.59499
 H934 H -0.03695 0.78549 0.57778
 H935 H 0.00831 0.81829 0.60421
 H936 H 0.01879 0.71162 0.62874
 H937 H 0.02817 0.68337 0.60979
 H938 H 0.01564 0.71675 0.56106
 H939 H 0.00673 0.74440 0.58092
 C940 C 0.05626 0.76100 0.65931
 C941 C -0.05138 0.73363 0.65466
 C942 C 0.02262 0.69813 0.58406
 C943 C -0.01500 0.80391 0.58978
 C944 C 0.52893 0.75818 0.35433
 H945 H 0.52229 0.77234 0.35343
 C946 C 0.54543 0.75402 0.34409
 H947 H 0.55164 0.76501 0.33524
 C948 C 0.52921 0.72662 0.36733
 H949 H 0.52301 0.71615 0.37665
 C950 C 0.54580 0.72186 0.35733
 H951 H 0.55233 0.70768 0.35885
 N952 N 0.52110 0.74449 0.36550
 C953 C 0.46128 0.76165 0.37082
 H954 H 0.46016 0.76270 0.38563
 C955 C 0.44505 0.76472 0.35988
 H956 H 0.43126 0.76813 0.36622
 C957 C 0.48049 0.75517 0.34440
 H958 H 0.49419 0.75099 0.33847
 C959 C 0.46459 0.75810 0.33295
 H960 H 0.46607 0.75629 0.31820
 Zn961 Zn 0.49923 0.75206 0.37889
 N962 N 0.47855 0.75709 0.36294
 C963 C 0.49636 0.79131 0.38874
 N964 N 0.50596 0.77446 0.39198
 C965 C 0.52118 0.77360 0.40382
 C966 C 0.52688 0.79010 0.41350
 C967 C 0.50159 0.80809 0.39808
 C968 C 0.48480 0.71574 0.38665
 C969 C 0.47919 0.70002 0.39738
 C970 C 0.48603 0.71892 0.42466
 C971 C 0.49149 0.73434 0.41339
 N972 N 0.49123 0.73226 0.39477
 H973 H 0.48474 0.79184 0.37884
 H974 H 0.52881 0.76007 0.40577
 H975 H 0.53881 0.78934 0.42314
 H976 H 0.49374 0.82143 0.39560
 H977 H 0.48447 0.71467 0.37180
 H978 H 0.47473 0.68665 0.39083
 H979 H 0.48688 0.72035 0.43948
 H980 H 0.49617 0.74779 0.41953
 C981 C 0.44676 0.76286 0.34081
 C982 C 0.55389 0.73572 0.34562
 C983 C 0.48008 0.70158 0.41652
 C984 C 0.51689 0.80743 0.41060
 Zr985 Zr 0.01643 -0.01190 1.02348
 O986 O 0.03420 -0.00123 1.04493
 O987 O 0.01609 -0.04161 1.02901
 O988 O 0.00320 -0.01543 1.04960
 O989 O 0.05316 -0.01288 0.99110
 O990 O -0.02745 -0.00407 1.04516
 O991 O 0.04544 -0.02139 1.02051
 O992 O -0.00357 -0.05404 1.00678
 O993 O -0.01215 -0.01965 1.01725
 O994 O 0.01681 -0.02351 0.99691
 O995 O 0.00029 0.01384 1.02570
 O996 O 0.02858 0.00986 1.00663
 Zr997 Zr -0.01704 0.01641 0.97442
 Zr998 Zr -0.02791 0.00623 1.01803
 Zr999 Zr 0.02738 -0.00166 0.97996
 Zr1000 Zr -0.01165 -0.03019 0.99036
 O1001 O 0.05038 0.01770 0.97444
 O1002 O -0.03756 -0.04347 0.99961
 O1003 O -0.00080 -0.00937 0.97198
 O1004 O -0.02886 -0.00525 0.99139
 O1005 O -0.01759 0.02824 1.00094
 O1006 O 0.01149 0.02401 0.98082
 C1007 C 0.00738 -0.05574 1.02101
 C1008 C 0.05733 -0.02039 1.00682
 C1009 C -0.01412 -0.01160 1.05523
 O1010 O -0.05230 -0.01185 1.02185
 O1011 O -0.05260 0.02039 1.00783
 O1012 O -0.04543 0.02747 0.97796
 C1013 C -0.05680 0.02777 0.99207
 O1014 O 0.03102 0.03938 1.02930
 Zr1015 Zr 0.01101 0.03475 1.00754
 O1016 O -0.01713 0.04620 0.96910
 O1017 O -0.03547 0.02894 1.03625
 O1018 O -0.00226 0.05372 1.02675
 O1019 O 0.03536 0.05006 0.99733
 O1020 O 0.00010 0.05880 0.99300
 C1021 C -0.01038 0.06049 0.97845
 O1022 O -0.03593 0.00608 0.95371
 O1023 O 0.03649 -0.02528 0.96350
 O1024 O -0.00454 0.01777 0.94778
 O1025 O 0.02578 0.00541 0.95198
 O1026 O 0.00197 -0.05076 0.97294
 O1027 O -0.02877 -0.03524 0.96655
 C1028 C 0.01232 0.01257 0.94185
 H1029 H 0.02497 -0.03524 0.99575
 H1030 H -0.04227 -0.00840 0.98766
 H1031 H 0.01692 0.03369 0.97220
 H1032 H 0.00073 0.01901 1.03840
 H1033 H -0.03670 -0.05743 0.99653
 H1034 H -0.06068 -0.00541 1.03109
 H1035 H -0.04818 0.02552 1.04169
 H1036 H 0.00370 0.06667 1.02518
 H1037 H -0.00471 -0.06332 0.97473
 H1038 H 0.04913 -0.02164 0.95803
 H1039 H 0.05892 0.01122 0.96536
 H1040 H 0.03378 0.06381 1.00097
 H1041 H -0.03336 -0.04882 0.96657
 H1042 H -0.03986 0.01741 0.94619
 H1043 H 0.03832 -0.01254 1.05238
 H1044 H 0.03310 0.05346 1.03098
 Zr1045 Zr 0.51671 0.48756 0.52371
 O1046 O 0.53445 0.49813 0.54523
 O1047 O 0.51636 0.45783 0.52911
 O1048 O 0.50344 0.48393 0.54980
 O1049 O 0.55348 0.48667 0.49137
 O1050 O 0.47280 0.49532 0.54536
 O1051 O 0.54571 0.47806 0.52075
 O1052 O 0.49673 0.44550 0.50680
 O1053 O 0.48812 0.47987 0.51742
 O1054 O 0.51711 0.47606 0.49710
 O1055 O 0.50059 0.51331 0.52601
 O1056 O 0.52890 0.50938 0.50696
 Zr1057 Zr 0.48333 0.51611 0.47473
 Zr1058 Zr 0.47239 0.50576 0.51827
 Zr1059 Zr 0.52773 0.49797 0.48025
 Zr1060 Zr 0.48865 0.46943 0.49050
 O1061 O 0.55075 0.51734 0.47483
 O1062 O 0.46274 0.45614 0.49971
 O1063 O 0.49955 0.49032 0.47221
 O1064 O 0.47147 0.49439 0.49160
 O1065 O 0.48276 0.52783 0.50129
 O1066 O 0.51187 0.52365 0.48118
 C1067 C 0.50769 0.44373 0.52103
 C1068 C 0.55762 0.47909 0.50707
 C1069 C 0.48611 0.48775 0.55541
 O1070 O 0.44797 0.48770 0.52199
 O1071 O 0.44773 0.52002 0.50810
 O1072 O 0.45496 0.52718 0.47827
 C1073 C 0.44357 0.52747 0.49237
 O1074 O 0.53134 0.53880 0.52975
 Zr1075 Zr 0.51136 0.53428 0.50794
 O1076 O 0.48329 0.54592 0.46951
 O1077 O 0.46483 0.52839 0.53659
 O1078 O 0.49808 0.55319 0.52720
 O1079 O 0.53573 0.54961 0.49782
 O1080 O 0.50050 0.55841 0.49348
 C1081 C 0.49004 0.56017 0.47892
 O1082 O 0.46445 0.50589 0.45396
 O1083 O 0.53685 0.47441 0.46370
 O1084 O 0.49585 0.51754 0.44810
 O1085 O 0.52616 0.50516 0.45229
 O1086 O 0.50225 0.44894 0.47298
 O1087 O 0.47153 0.46451 0.46667
 C1088 C 0.51271 0.51235 0.44217
 H1089 H 0.52526 0.46434 0.49589
 H1090 H 0.45805 0.49128 0.48784
 H1091 H 0.51731 0.53337 0.47260
 H1092 H 0.50102 0.51843 0.53873
 H1093 H 0.46358 0.44220 0.49658
 H1094 H 0.43958 0.49411 0.53124
 H1095 H 0.45211 0.52496 0.54200
 H1096 H 0.50406 0.56614 0.52570
 H1097 H 0.49556 0.43637 0.47472
 H1098 H 0.54948 0.47807 0.45826
 H1099 H 0.55929 0.51090 0.46574
 H1100 H 0.53418 0.56334 0.50151
 H1101 H 0.46691 0.45094 0.46664
 H1102 H 0.46054 0.51725 0.44647
 H1103 H 0.53856 0.48679 0.55264
 H1104 H 0.53343 0.55287 0.53148
 Zr1105 Zr 0.48210 1.01590 0.52610
 O1106 O 0.46407 1.00362 0.54656
 O1107 O 0.48249 1.04506 0.53385
 O1108 O 0.49512 1.01735 0.55250
 O1109 O 0.44581 1.01935 0.49350
 O1110 O 0.52574 1.00617 0.54744
 O1111 O 0.45311 1.02566 0.52351
 O1112 O 0.50259 1.05908 0.51284
 O1113 O 0.51083 1.02387 0.52073
 O1114 O 0.48219 1.02966 0.50048
 O1115 O 0.49804 0.98992 0.52654
 O1116 O 0.47007 0.99570 0.50750
 Zr1117 Zr 0.51604 0.99132 0.47536
 Zr1118 Zr 0.52639 0.99789 0.51970
 Zr1119 Zr 0.47178 1.00935 0.48179
 Zr1120 Zr 0.51080 1.03660 0.49474
 O1121 O 0.44892 0.99064 0.47412
 O1122 O 0.53664 1.04886 0.50529
 O1123 O 0.50011 1.01742 0.47471
 O1124 O 0.52778 1.01147 0.49401
 O1125 O 0.51612 0.97743 0.50094
 O1126 O 0.48737 0.98351 0.48089
 C1127 C 0.49141 1.05972 0.52703
 C1128 C 0.44139 1.02559 0.50966
 C1129 C 0.51240 1.01306 0.55792
 O1130 O 0.55095 1.01532 0.52497
 O1131 O 0.55104 0.98425 0.50875
 O1132 O 0.54424 0.97964 0.47838
 C1133 C 0.55537 0.97804 0.49257
 O1134 O 0.46696 0.96450 0.52783
 Zr1135 Zr 0.48740 0.97066 0.50675
 O1136 O 0.51609 0.96205 0.46791
 O1137 O 0.53346 0.97377 0.53635
 O1138 O 0.50014 0.95008 0.52471
 O1139 O 0.46315 0.95639 0.49509
 O1140 O 0.49850 0.94776 0.49070
 C1141 C 0.50920 0.94712 0.47620
 O1142 O 0.53520 1.00328 0.45567
 O1143 O 0.46280 1.03447 0.46743
 O1144 O 0.50375 0.99179 0.44859
 O1145 O 0.47402 1.00527 0.45332
 O1146 O 0.49750 1.05853 0.47869
 O1147 O 0.52841 1.04360 0.47169
 C1148 C 0.48731 0.99834 0.44281
 H1149 H 0.47408 1.04147 0.50013
 H1150 H 0.54127 1.01477 0.49065
 H1151 H 0.48200 0.97462 0.47150
 H1152 H 0.49740 0.98377 0.53882
 H1153 H 0.53590 1.06304 0.50334
 H1154 H 0.55914 1.00809 0.53381
 H1155 H 0.54614 0.97660 0.54212
 H1156 H 0.49409 0.93736 0.52213
 H1157 H 0.50406 1.07092 0.48159
 H1158 H 0.45027 1.03135 0.46149
 H1159 H 0.44062 0.99798 0.46547
 H1160 H 0.46460 0.94238 0.49771
 H1161 H 0.53288 1.05717 0.47276
 H1162 H 0.53920 0.99257 0.44738
 H1163 H 0.45991 1.01433 0.55477
 H1164 H 0.46469 0.95035 0.52841
 Zr1165 Zr -0.01771 0.51617 1.02662
 O1166 O -0.03549 0.50408 1.04738
 O1167 O -0.01745 0.54544 1.03397
 O1168 O -0.00449 0.51801 1.05290
 O1169 O -0.05436 0.51888 0.99431
 O1170 O 0.02622 0.50715 1.04772
 O1171 O -0.04679 0.52571 1.02416
 O1172 O 0.00221 0.55934 1.01252
 O1173 O 0.01087 0.52437 1.02084
 O1174 O -0.01806 0.52949 1.00079
 O1175 O -0.00149 0.49038 1.02728
 O1176 O -0.02973 0.49552 1.00846
 Zr1177 Zr 0.01592 0.49114 0.97591
 Zr1178 Zr 0.02670 0.49855 1.02005
 Zr1179 Zr -0.02847 0.50875 0.98253
 Zr1180 Zr 0.01040 0.53665 0.99465
 O1181 O -0.05134 0.48972 0.97562
 O1182 O 0.03625 0.54935 1.00470
 O1183 O -0.00032 0.51703 0.97501
 O1184 O 0.02766 0.51171 0.99414
 O1185 O 0.01645 0.47768 1.00169
 O1186 O -0.01259 0.48309 0.98187
 C1187 C -0.00876 0.56008 1.02685
 C1188 C -0.05864 0.52537 1.01041
 C1189 C 0.01287 0.51394 1.05825
 O1190 O 0.05108 0.51637 1.02485
 O1191 O 0.05138 0.48500 1.00904
 O1192 O 0.04428 0.47981 0.97881
 C1193 C 0.05558 0.47855 0.99290
 O1194 O -0.03226 0.46464 1.02927
 Zr1195 Zr -0.01212 0.47066 1.00791
 O1196 O 0.01624 0.46175 0.96891
 O1197 O 0.03427 0.47476 1.03694
 O1198 O 0.00105 0.45055 1.02605
 O1199 O -0.03632 0.45591 0.99671
 O1200 O -0.00090 0.44763 0.99210
 C1201 C 0.00965 0.44688 0.97750
 O1202 O 0.03473 0.50299 0.95585
 O1203 O -0.03771 0.53346 0.96769
 O1204 O 0.00332 0.49104 0.94926
 O1205 O -0.02670 0.50378 0.95415
 O1206 O -0.00330 0.55822 0.97847
 O1207 O 0.02762 0.54339 0.97126
 C1208 C -0.01343 0.49689 0.94360
 H1209 H -0.02627 0.54123 1.00034
 H1210 H 0.04108 0.51510 0.99060
 H1211 H -0.01796 0.47395 0.97270
 H1212 H -0.00193 0.48440 1.03965
 H1213 H 0.03534 0.56350 1.00253
 H1214 H 0.05947 0.50937 1.03368
 H1215 H 0.04697 0.47784 1.04255
 H1216 H -0.00488 0.43771 1.02372
 H1217 H 0.00323 0.57070 0.98109
 H1218 H -0.05029 0.53013 0.96195
 H1219 H -0.05984 0.49679 0.96694
 H1220 H -0.03467 0.44196 0.99952
 H1221 H 0.03202 0.55701 0.97208
 H1222 H 0.03875 0.49219 0.94767
 H1223 H -0.03965 0.51489 1.05549
 H1224 H -0.03436 0.45048 1.03009
 Zr1225 Zr -0.01888 0.48594 0.47460
 O1226 O -0.03684 0.49714 0.45355
 O1227 O -0.01863 0.45637 0.46840
 O1228 O -0.00584 0.48301 0.44830
 O1229 O -0.05530 0.48430 0.50730
 O1230 O 0.02487 0.49416 0.45282
 O1231 O -0.04788 0.47640 0.47764
 O1232 O 0.00118 0.44341 0.49024
 O1233 O 0.00976 0.47803 0.48044
 O1234 O -0.01902 0.47373 0.50093
 O1235 O -0.00276 0.51171 0.47284
 O1236 O -0.03088 0.50731 0.49205
 Zr1237 Zr 0.01500 0.51309 0.52403
 Zr1238 Zr 0.02551 0.50390 0.48014
 Zr1239 Zr -0.02942 0.49519 0.51846
 Zr1240 Zr 0.00950 0.46686 0.50709
 O1241 O -0.05237 0.51445 0.52462
 O1242 O 0.03529 0.45378 0.49725
 O1243 O -0.00118 0.48725 0.52604
 O1244 O 0.02669 0.49181 0.50650
 O1245 O 0.01530 0.52551 0.49778
 O1246 O -0.01358 0.52086 0.51803
 C1247 C -0.00990 0.44204 0.47605
 C1248 C -0.05963 0.47712 0.49147
 C1249 C 0.01147 0.48690 0.44267
 O1250 O 0.04992 0.48593 0.47580
 O1251 O 0.05023 0.51793 0.49044
 O1252 O 0.04331 0.52429 0.52051
 C1253 C 0.05453 0.52500 0.50631
 O1254 O -0.03359 0.53733 0.47009
 Zr1255 Zr -0.01334 0.53220 0.49155
 O1256 O 0.01518 0.54274 0.52997
 O1257 O 0.03287 0.52698 0.46231
 O1258 O -0.00031 0.55159 0.47261
 O1259 O -0.03756 0.54733 0.50233
 O1260 O -0.00220 0.55591 0.50646
 C1261 C 0.00844 0.55725 0.52094
 O1262 O 0.03406 0.50219 0.54435
 O1263 O -0.03840 0.47118 0.53444
 O1264 O 0.00270 0.51399 0.55079
 O1265 O -0.02756 0.50156 0.54659
 O1266 O -0.00394 0.44593 0.52421
 O1267 O 0.02690 0.46118 0.53058
 C1268 C -0.01407 0.50861 0.55677
 H1269 H -0.02717 0.46199 0.50191
 H1270 H 0.04014 0.48858 0.51006
 H1271 H -0.01892 0.53036 0.52690
 H1272 H -0.00331 0.51717 0.46026
 H1273 H 0.03445 0.43974 0.49998
 H1274 H 0.05822 0.49258 0.46664
 H1275 H 0.04555 0.52370 0.45672
 H1276 H -0.00628 0.56450 0.47450
 H1277 H 0.00268 0.43339 0.52204
 H1278 H -0.05097 0.47472 0.54011
 H1279 H -0.06081 0.50778 0.53364
 H1280 H -0.03601 0.56115 0.49899
 H1281 H 0.03147 0.44759 0.53019
 H1282 H 0.03808 0.51333 0.55209
 H1283 H -0.04103 0.48601 0.44589
 H1284 H -0.03573 0.55144 0.46876
 Zr1285 Zr 0.48125 -0.01383 -0.02555
 O1286 O 0.46355 -0.00225 -0.04662
 O1287 O 0.48118 -0.04335 -0.03194
 O1288 O 0.49442 -0.01678 -0.05179
 O1289 O 0.44463 -0.01525 0.00695
 O1290 O 0.52524 -0.00608 -0.04704
 O1291 O 0.45214 -0.02308 -0.02271
 O1292 O 0.50070 -0.05670 -0.01007
 O1293 O 0.50976 -0.02213 -0.01961
 O1294 O 0.48082 -0.02620 0.00070
 O1295 O 0.49770 0.01175 -0.02709
 O1296 O 0.46941 0.00758 -0.00805
 Zr1297 Zr 0.51518 0.01258 0.02420
 Zr1298 Zr 0.52583 0.00354 -0.01969
 Zr1299 Zr 0.47057 -0.00473 0.01829
 Zr1300 Zr 0.50921 -0.03347 0.00697
 O1301 O 0.44782 0.01477 0.02443
 O1302 O 0.53490 -0.04680 -0.00281
 O1303 O 0.49867 -0.01306 0.02598
 O1304 O 0.52672 -0.00872 0.00661
 O1305 O 0.51579 0.02516 -0.00198
 O1306 O 0.48673 0.02075 0.01809
 C1307 C 0.48969 -0.05784 -0.02433
 C1308 C 0.44033 -0.02231 -0.00894
 C1309 C 0.51182 -0.01312 -0.05730
 O1310 O 0.55007 -0.01467 -0.02397
 O1311 O 0.55064 0.01725 -0.00920
 O1312 O 0.54362 0.02353 0.02087
 C1313 C 0.55492 0.02420 0.00672
 O1314 O 0.46721 0.03777 -0.02986
 Zr1315 Zr 0.48727 0.03226 -0.00833
 O1316 O 0.51568 0.04218 0.03033
 O1317 O 0.53355 0.02661 -0.03739
 O1318 O 0.50065 0.05159 -0.02709
 O1319 O 0.46318 0.04763 0.00242
 O1320 O 0.49862 0.05572 0.00678
 C1321 C 0.50918 0.05684 0.02134
 O1322 O 0.53400 0.00132 0.04453
 O1323 O 0.46122 -0.02870 0.03411
 O1324 O 0.50274 0.01348 0.05089
 O1325 O 0.47234 0.00149 0.04646
 O1326 O 0.49543 -0.05434 0.02389
 O1327 O 0.52639 -0.03950 0.03052
 C1328 C 0.48586 0.00830 0.05674
 H1329 H 0.47253 -0.03784 0.00158
 H1330 H 0.54011 -0.01213 0.01022
 H1331 H 0.48145 0.03026 0.02698
 H1332 H 0.49730 0.01729 -0.03965
 H1333 H 0.53387 -0.06084 -0.00017
 H1334 H 0.55849 -0.00807 -0.03306
 H1335 H 0.54623 0.02322 -0.04292
 H1336 H 0.49485 0.06457 -0.02515
 H1337 H 0.50191 -0.06694 0.02169
 H1338 H 0.44865 -0.02505 0.03973
 H1339 H 0.43925 0.00816 0.03337
 H1340 H 0.46493 0.06145 -0.00084
 H1341 H 0.53083 -0.05314 0.03007
 H1342 H 0.53812 0.01236 0.05235
 H1343 H 0.45927 -0.01328 -0.05437
 H1344 H 0.46526 0.05191 -0.03113
 Zr1345 Zr 0.51453 0.51325 -0.02507
 O1346 O 0.53239 0.50175 -0.04610
 O1347 O 0.51389 0.54266 -0.03187
 O1348 O 0.50128 0.51539 -0.05128
 O1349 O 0.55124 0.51582 0.00714
 O1350 O 0.47077 0.50390 -0.04635
 O1351 O 0.54349 0.52301 -0.02257
 O1352 O 0.49410 0.55595 -0.01014
 O1353 O 0.48586 0.52104 -0.01913
 O1354 O 0.51477 0.52613 0.00096
 O1355 O 0.49865 0.48729 -0.02615
 O1356 O 0.52686 0.49242 -0.00732
 Zr1357 Zr 0.48132 0.48697 0.02526
 Zr1358 Zr 0.47038 0.49501 -0.01875
 Zr1359 Zr 0.52550 0.50520 0.01882
 Zr1360 Zr 0.48622 0.53284 0.00728
 O1361 O 0.54861 0.48630 0.02537
 O1362 O 0.46020 0.54543 -0.00252
 O1363 O 0.49726 0.51301 0.02654
 O1364 O 0.46930 0.50771 0.00738
 O1365 O 0.48091 0.47393 -0.00075
 O1366 O 0.50993 0.47936 0.01910
 C1367 C 0.50507 0.55708 -0.02444
 C1368 C 0.55539 0.52258 -0.00888
 C1369 C 0.48404 0.51106 -0.05674
 O1370 O 0.44585 0.51273 -0.02335
 O1371 O 0.44582 0.48120 -0.00790
 O1372 O 0.45304 0.47549 0.02221
 C1373 C 0.44169 0.47448 0.00813
 O1374 O 0.52966 0.46188 -0.02867
 Zr1375 Zr 0.50956 0.46736 -0.00713
 O1376 O 0.48146 0.45746 0.03180
 O1377 O 0.46301 0.47136 -0.03591
 O1378 O 0.49654 0.44739 -0.02552
 O1379 O 0.53403 0.45275 0.00372
 O1380 O 0.49880 0.44395 0.00838
 C1381 C 0.48834 0.44282 0.02301
 O1382 O 0.46242 0.49821 0.04558
 O1383 O 0.53448 0.52974 0.03406
 O1384 O 0.49400 0.48664 0.05189
 O1385 O 0.52385 0.49974 0.04709
 O1386 O 0.49966 0.55427 0.02384
 O1387 O 0.46896 0.53895 0.03081
 C1388 C 0.51070 0.49258 0.05758
 H1389 H 0.52284 0.53794 0.00160
 H1390 H 0.45585 0.51091 0.01100
 H1391 H 0.51546 0.47014 0.02811
 H1392 H 0.49915 0.48151 -0.03861
 H1393 H 0.46092 0.55954 -0.00009
 H1394 H 0.43753 0.50578 -0.03228
 H1395 H 0.45029 0.47441 -0.04149
 H1396 H 0.50263 0.43459 -0.02341
 H1397 H 0.49295 0.56671 0.02147
 H1398 H 0.54712 0.52645 0.03971
 H1399 H 0.55707 0.49333 0.03412
 H1400 H 0.53258 0.43883 0.00070
 H1401 H 0.46435 0.55252 0.03023
 H1402 H 0.45857 0.48721 0.05357
 H1403 H 0.53641 0.51274 -0.05402
 H1404 H 0.53191 0.44776 -0.02974
 Zr1405 Zr 0.01401 1.01310 0.47519
 O1406 O 0.03252 1.00117 0.45490
 O1407 O 0.01311 1.04225 0.46747
 O1408 O 0.00134 1.01427 0.44866
 O1409 O 0.04983 1.01730 0.50815
 O1410 O -0.02900 1.00222 0.45324
 O1411 O 0.04277 1.02332 0.47805
 O1412 O -0.00760 1.05589 0.48821
 O1413 O -0.01496 1.02050 0.48019
 O1414 O 0.01330 1.02693 0.50078
 O1415 O -0.00132 0.98680 0.47459
 O1416 O 0.02624 0.99321 0.49395
 Zr1417 Zr -0.02005 0.98795 0.52555
 Zr1418 Zr -0.02992 0.99419 0.48105
 Zr1419 Zr 0.02390 1.00690 0.51961
 Zr1420 Zr -0.01554 1.03327 0.50618
 O1421 O 0.04697 0.98863 0.52771
 O1422 O -0.04150 1.04499 0.49531
 O1423 O -0.00470 1.01437 0.52634
 O1424 O -0.03195 1.00780 0.50672
 O1425 O -0.01948 0.97398 0.49998
 O1426 O 0.00887 0.98074 0.52038
 C1427 C 0.00379 1.05674 0.47419
 C1428 C 0.05434 1.02349 0.49200
 C1429 C -0.01569 1.00944 0.44296
 O1430 O -0.05469 1.01118 0.47531
 O1431 O -0.05451 0.98030 0.49175
 O1432 O -0.04804 0.97588 0.52221
 C1433 C -0.05899 0.97415 0.50790
 O1434 O 0.03033 0.96202 0.47372
 Zr1435 Zr 0.00947 0.96781 0.49453
 O1436 O -0.01957 0.95868 0.53301
 O1437 O -0.03629 0.96980 0.46449
 O1438 O -0.00256 0.94692 0.47645
 O1439 O 0.03388 0.95409 0.50651
 O1440 O -0.00130 0.94474 0.51048
 C1441 C -0.01219 0.94389 0.52484
 O1442 O -0.03967 0.99954 0.54505
 O1443 O 0.03227 1.03226 0.53394
 O1444 O -0.00809 0.98872 0.55246
 O1445 O 0.02125 1.00313 0.54807
 O1446 O -0.00293 1.05546 0.52241
 O1447 O -0.03364 1.03995 0.52900
 C1448 C 0.00801 0.99588 0.55842
 H1449 H 0.02116 1.03889 0.50121
 H1450 H -0.04556 1.01087 0.50990
 H1451 H 0.01431 0.97200 0.52986
 H1452 H -0.00037 0.98061 0.46233
 H1453 H -0.04111 1.05919 0.49728
 H1454 H -0.06261 1.00376 0.46640
 H1455 H -0.04892 0.97237 0.45851
 H1456 H 0.00375 0.93434 0.47913
 H1457 H -0.00970 1.06773 0.51943
 H1458 H 0.04477 1.02939 0.54005
 H1459 H 0.05502 0.99619 0.53640
 H1460 H 0.03279 0.94005 0.50389
 H1461 H -0.03835 1.05344 0.52789
 H1462 H -0.04355 0.98876 0.55329
 H1463 H 0.03658 1.01195 0.44674
 H1464 H 0.03292 0.94793 0.47319
 Zr1465 Zr 0.73901 0.26528 0.22645
 O1466 O 0.74933 0.28311 0.20488
 O1467 O 0.70931 0.26446 0.22100
 O1468 O 0.73568 0.25187 0.20038
 O1469 O 0.73761 0.30218 0.25866
 O1470 O 0.74757 0.22143 0.20491
 O1471 O 0.72916 0.29419 0.22929
 O1472 O 0.69724 0.24471 0.24335
 O1473 O 0.73172 0.23659 0.23282
 O1474 O 0.72745 0.26562 0.25305
 O1475 O 0.76498 0.24953 0.22426
 O1476 O 0.76059 0.27785 0.24321
 Zr1477 Zr 0.76793 0.23246 0.27562
 Zr1478 Zr 0.75782 0.22124 0.23207
 Zr1479 Zr 0.74915 0.27659 0.26992
 Zr1480 Zr 0.72123 0.23707 0.25974
 O1481 O 0.76818 0.29991 0.27535
 O1482 O 0.70834 0.21090 0.25064
 O1483 O 0.74191 0.24832 0.27804
 O1484 O 0.74642 0.22024 0.25874
 O1485 O 0.77969 0.23197 0.24907
 O1486 O 0.77505 0.26110 0.26908
 C1487 C 0.69534 0.25559 0.22908
 C1488 C 0.73004 0.30617 0.24292
 C1489 C 0.73983 0.23460 0.19480
 O1490 O 0.74006 0.19659 0.22834
 O1491 O 0.77225 0.19676 0.24237
 O1492 O 0.77933 0.20417 0.27218
 C1493 C 0.77970 0.19272 0.25813
 O1494 O 0.78999 0.28065 0.22047
 Zr1495 Zr 0.78572 0.26066 0.24233
 O1496 O 0.79772 0.23288 0.28087
 O1497 O 0.78064 0.21389 0.21391
 O1498 O 0.80486 0.24758 0.22317
 O1499 O 0.80064 0.28533 0.25239
 O1500 O 0.80995 0.25024 0.25687
 C1501 C 0.81186 0.23986 0.27146
 O1502 O 0.75797 0.21349 0.29646
 O1503 O 0.72541 0.28546 0.28634
 O1504 O 0.76909 0.24513 0.30222
 O1505 O 0.75623 0.27523 0.29791
 O1506 O 0.70054 0.25049 0.27716
 O1507 O 0.71650 0.21995 0.28362
 C1508 C 0.76361 0.26193 0.30810
 H1509 H 0.71562 0.27362 0.25419
 H1510 H 0.74348 0.20679 0.26254
 H1511 H 0.78465 0.26672 0.27766
 H1512 H 0.77013 0.24999 0.21155
 H1513 H 0.69439 0.21156 0.25375
 H1514 H 0.74661 0.18825 0.21914
 H1515 H 0.77740 0.20111 0.20851
 H1516 H 0.81770 0.25377 0.22466
 H1517 H 0.68807 0.24363 0.27543
 H1518 H 0.72886 0.29818 0.29174
 H1519 H 0.76157 0.30841 0.28438
 H1520 H 0.81440 0.28397 0.24872
 H1521 H 0.70298 0.21520 0.28368
 H1522 H 0.76938 0.20979 0.30397
 H1523 H 0.73795 0.28703 0.19744
 H1524 H 0.80402 0.28293 0.21874
 Zr1525 Zr 0.76664 0.73304 0.72466
 O1526 O 0.75419 0.71466 0.70458
 O1527 O 0.79574 0.73317 0.71676
 O1528 O 0.76795 0.74557 0.69805
 O1529 O 0.77029 0.69732 0.75785
 O1530 O 0.75690 0.77633 0.70265
 O1531 O 0.77636 0.70407 0.72767
 O1532 O 0.80994 0.75361 0.73736
 O1533 O 0.77470 0.76188 0.72948
 O1534 O 0.78056 0.73358 0.75019
 O1535 O 0.74072 0.74903 0.72411
 O1536 O 0.74657 0.72137 0.74359
 Zr1537 Zr 0.74249 0.76798 0.77496
 Zr1538 Zr 0.74877 0.77751 0.73042
 Zr1539 Zr 0.76039 0.72354 0.76918
 Zr1540 Zr 0.78759 0.76230 0.75539
 O1541 O 0.74166 0.70090 0.77739
 O1542 O 0.79982 0.78789 0.74424
 O1543 O 0.76854 0.75201 0.77571
 O1544 O 0.76251 0.77936 0.75599
 O1545 O 0.72844 0.76760 0.74947
 O1546 O 0.73459 0.73920 0.76998
 C1547 C 0.81047 0.74212 0.72338
 C1548 C 0.77640 0.69260 0.74172
 C1549 C 0.76368 0.76277 0.69236
 O1550 O 0.76616 0.80199 0.72464
 O1551 O 0.73519 0.80239 0.74102
 O1552 O 0.73085 0.79617 0.77154
 C1553 C 0.72912 0.80703 0.75718
 O1554 O 0.71531 0.71785 0.72358
 Zr1555 Zr 0.72158 0.73877 0.74420
 O1556 O 0.71327 0.76831 0.78253
 O1557 O 0.72458 0.78429 0.71377
 O1558 O 0.70093 0.75109 0.72606
 O1559 O 0.70729 0.71486 0.75646
 O1560 O 0.69882 0.75040 0.76008
 C1561 C 0.69828 0.76141 0.77437
 O1562 O 0.75463 0.78747 0.79425
 O1563 O 0.78556 0.71469 0.78351
 O1564 O 0.74304 0.75617 0.80192
 O1565 O 0.75667 0.72641 0.79764
 O1566 O 0.80955 0.74930 0.77160
 O1567 O 0.79478 0.78040 0.77805
 C1568 C 0.74977 0.73990 0.80794
 H1569 H 0.79235 0.72545 0.75062
 H1570 H 0.76585 0.79291 0.75910
 H1571 H 0.72576 0.73404 0.77952
 H1572 H 0.73448 0.74817 0.71188
 H1573 H 0.81401 0.78716 0.74610
 H1574 H 0.75889 0.81002 0.71570
 H1575 H 0.72739 0.79686 0.70776
 H1576 H 0.68823 0.74510 0.72883
 H1577 H 0.82194 0.75577 0.76850
 H1578 H 0.78244 0.70229 0.78970
 H1579 H 0.74904 0.69274 0.78614
 H1580 H 0.69328 0.71630 0.75389
 H1581 H 0.80834 0.78485 0.77678
 H1582 H 0.74400 0.79167 0.80253
 H1583 H 0.76483 0.71031 0.69638
 H1584 H 0.70118 0.71552 0.72317
 Zr1585 Zr 0.23625 0.23097 0.77536
 O1586 O 0.24828 0.21321 0.79616
 O1587 O 0.20688 0.23081 0.78226
 O1588 O 0.23366 0.24403 0.80167
 O1589 O 0.23431 0.19448 0.74276
 O1590 O 0.24422 0.27491 0.79688
 O1591 O 0.22702 0.20184 0.77257
 O1592 O 0.19310 0.25046 0.76074
 O1593 O 0.22779 0.25951 0.76966
 O1594 O 0.22339 0.23063 0.74933
 O1595 O 0.26180 0.24748 0.77655
 O1596 O 0.25735 0.21925 0.75746
 Zr1597 Zr 0.26165 0.26520 0.72533
 Zr1598 Zr 0.25341 0.27564 0.76939
 Zr1599 Zr 0.24455 0.22051 0.73134
 Zr1600 Zr 0.21596 0.25906 0.74329
 O1601 O 0.26396 0.19781 0.72476
 O1602 O 0.20278 0.28471 0.75336
 O1603 O 0.23603 0.24864 0.72390
 O1604 O 0.24066 0.27663 0.74331
 O1605 O 0.27470 0.26572 0.75129
 O1606 O 0.26998 0.23672 0.73119
 C1607 C 0.19226 0.23937 0.77498
 C1608 C 0.22756 0.19008 0.75874
 C1609 C 0.23734 0.26143 0.80718
 O1610 O 0.23527 0.29987 0.77405
 O1611 O 0.26690 0.30053 0.75878
 O1612 O 0.27262 0.29364 0.72858
 C1613 C 0.27356 0.30488 0.74276
 O1614 O 0.28792 0.21702 0.77876
 Zr1615 Zr 0.28197 0.23717 0.75740
 O1616 O 0.29110 0.26580 0.71868
 O1617 O 0.27673 0.28332 0.78678
 O1618 O 0.30160 0.25054 0.77587
 O1619 O 0.29719 0.21315 0.74632
 O1620 O 0.30510 0.24864 0.74191
 C1621 C 0.30592 0.25927 0.72738
 O1622 O 0.24994 0.28410 0.70528
 O1623 O 0.22033 0.21116 0.71589
 O1624 O 0.26217 0.25288 0.69859
 O1625 O 0.25024 0.22244 0.70308
 O1626 O 0.19481 0.24528 0.72671
 O1627 O 0.20945 0.27632 0.71989
 C1628 C 0.25690 0.23601 0.69275
 H1629 H 0.21176 0.22232 0.74862
 H1630 H 0.23717 0.29004 0.73981
 H1631 H 0.27933 0.23150 0.72212
 H1632 H 0.26755 0.24703 0.78901
 H1633 H 0.18870 0.28366 0.75095
 H1634 H 0.24200 0.30826 0.78307
 H1635 H 0.27341 0.29597 0.79241
 H1636 H 0.31454 0.24478 0.77368
 H1637 H 0.18224 0.25173 0.72916
 H1638 H 0.22391 0.19862 0.71015
 H1639 H 0.25719 0.18926 0.71590
 H1640 H 0.31106 0.21493 0.74935
 H1641 H 0.19582 0.28071 0.72059
 H1642 H 0.26081 0.28829 0.69728
 H1643 H 0.23742 0.20886 0.80409
 H1644 H 0.30208 0.21512 0.77980
 Zr1645 Zr 0.26375 0.76554 0.27420
 O1646 O 0.25327 0.78335 0.29575
 O1647 O 0.29341 0.76473 0.27984
 O1648 O 0.26682 0.75211 0.30027
 O1649 O 0.26511 0.80252 0.24212
 O1650 O 0.25518 0.72161 0.29556
 O1651 O 0.27348 0.79451 0.27149
 O1652 O 0.30571 0.74510 0.25746
 O1653 O 0.27122 0.73688 0.26777
 O1654 O 0.27547 0.76597 0.24767
 O1655 O 0.23784 0.74968 0.27617
 O1656 O 0.24221 0.77806 0.25736
 Zr1657 Zr 0.23530 0.73274 0.22472
 Zr1658 Zr 0.24519 0.72143 0.26831
 Zr1659 Zr 0.25382 0.77691 0.23072
 Zr1660 Zr 0.28186 0.73745 0.24090
 O1661 O 0.23472 0.80017 0.22525
 O1662 O 0.29482 0.71130 0.24997
 O1663 O 0.26125 0.74869 0.22251
 O1664 O 0.25674 0.72054 0.24169
 O1665 O 0.22340 0.73215 0.25121
 O1666 O 0.22798 0.76133 0.23135
 C1667 C 0.30747 0.75592 0.27180
 C1668 C 0.27255 0.80653 0.25790
 C1669 C 0.26268 0.73483 0.30579
 O1670 O 0.26307 0.69685 0.27204
 O1671 O 0.23084 0.69696 0.25785
 O1672 O 0.22392 0.70445 0.22802
 C1673 C 0.22344 0.69298 0.24205
 O1674 O 0.21270 0.78078 0.27988
 Zr1675 Zr 0.21715 0.76079 0.25803
 O1676 O 0.20554 0.73297 0.21937
 O1677 O 0.22230 0.71393 0.28631
 O1678 O 0.19799 0.74769 0.27714
 O1679 O 0.20208 0.78532 0.24789
 O1680 O 0.19308 0.75009 0.24345
 C1681 C 0.19131 0.73972 0.22882
 O1682 O 0.24554 0.71390 0.20388
 O1683 O 0.27762 0.78589 0.21448
 O1684 O 0.23406 0.74556 0.19818
 O1685 O 0.24690 0.77563 0.20270
 O1686 O 0.30259 0.75100 0.22366
 O1687 O 0.28685 0.72042 0.21699
 C1688 C 0.23949 0.76242 0.19241
 H1689 H 0.28727 0.77402 0.24662
 H1690 H 0.25977 0.70710 0.23786
 H1691 H 0.21839 0.76693 0.22275
 H1692 H 0.23259 0.75011 0.28885
 H1693 H 0.30879 0.71200 0.24694
 H1694 H 0.25650 0.68844 0.28115
 H1695 H 0.22557 0.70115 0.29168
 H1696 H 0.18513 0.75384 0.27559
 H1697 H 0.31508 0.74418 0.22543
 H1698 H 0.27414 0.79861 0.20909
 H1699 H 0.24135 0.80873 0.21630
 H1700 H 0.18832 0.78386 0.25148
 H1701 H 0.30039 0.71573 0.21699
 H1702 H 0.23421 0.71016 0.19629
 H1703 H 0.26460 0.78726 0.30326
 H1704 H 0.19865 0.78308 0.28151
 Zr1705 Zr 0.23900 0.76601 0.72614
 O1706 O 0.24943 0.78383 0.70461
 O1707 O 0.20932 0.76525 0.72061
 O1708 O 0.23569 0.75262 0.70007
 O1709 O 0.23761 0.80291 0.75835
 O1710 O 0.24750 0.72214 0.70462
 O1711 O 0.22919 0.79494 0.72897
 O1712 O 0.19715 0.74552 0.74294
 O1713 O 0.23162 0.73735 0.73251
 O1714 O 0.22738 0.76638 0.75272
 O1715 O 0.26493 0.75019 0.72401
 O1716 O 0.26057 0.77852 0.74295
 Zr1717 Zr 0.26771 0.73312 0.77538
 Zr1718 Zr 0.25767 0.72192 0.73180
 Zr1719 Zr 0.24907 0.77730 0.76963
 Zr1720 Zr 0.22107 0.73785 0.75940
 O1721 O 0.26814 0.80057 0.77510
 O1722 O 0.20813 0.71170 0.75030
 O1723 O 0.24173 0.74905 0.77774
 O1724 O 0.24621 0.72096 0.75845
 O1725 O 0.27953 0.73260 0.74886
 O1726 O 0.27493 0.76174 0.76885
 C1727 C 0.19531 0.75638 0.72865
 C1728 C 0.23007 0.80692 0.74260
 C1729 C 0.23981 0.73533 0.69449
 O1730 O 0.23986 0.69732 0.72802
 O1731 O 0.27201 0.69740 0.74214
 O1732 O 0.27902 0.70479 0.77197
 C1733 C 0.27939 0.69334 0.75792
 O1734 O 0.29004 0.78126 0.72029
 Zr1735 Zr 0.28567 0.76127 0.74213
 O1736 O 0.29749 0.73343 0.78068
 O1737 O 0.28053 0.71451 0.71370
 O1738 O 0.30481 0.74815 0.72298
 O1739 O 0.30064 0.78588 0.75224
 O1740 O 0.30983 0.75073 0.75670
 C1741 C 0.31168 0.74033 0.77129
 O1742 O 0.25764 0.71419 0.79621
 O1743 O 0.22532 0.78622 0.78600
 O1744 O 0.26885 0.74579 0.80198
 O1745 O 0.25608 0.77593 0.79764
 O1746 O 0.20036 0.75133 0.77675
 O1747 O 0.21623 0.72077 0.78329
 C1748 C 0.26341 0.76261 0.80785
 H1749 H 0.21556 0.77441 0.75383
 H1750 H 0.24322 0.70752 0.76224
 H1751 H 0.28453 0.76733 0.77746
 H1752 H 0.27011 0.75064 0.71131
 H1753 H 0.19417 0.71240 0.75338
 H1754 H 0.24641 0.68896 0.71884
 H1755 H 0.27726 0.70174 0.70829
 H1756 H 0.31766 0.75431 0.72451
 H1757 H 0.18788 0.74450 0.77499
 H1758 H 0.22879 0.79893 0.79142
 H1759 H 0.26153 0.80909 0.78411
 H1760 H 0.31440 0.78447 0.74861
 H1761 H 0.20270 0.71606 0.78332
 H1762 H 0.26902 0.71045 0.80374
 H1763 H 0.23807 0.78777 0.69714
 H1764 H 0.30408 0.78352 0.71860
 Zr1765 Zr 0.26612 0.23310 0.22436
 O1766 O 0.25355 0.21474 0.20433
 O1767 O 0.29519 0.23315 0.21636
 O1768 O 0.26740 0.24561 0.19774
 O1769 O 0.26982 0.19740 0.25757
 O1770 O 0.25641 0.27640 0.20236
 O1771 O 0.27577 0.20410 0.22736
 O1772 O 0.30949 0.25362 0.23687
 O1773 O 0.27424 0.26192 0.22913
 O1774 O 0.28014 0.23364 0.24984
 O1775 O 0.24022 0.24912 0.22388
 O1776 O 0.24610 0.22148 0.24337
 Zr1777 Zr 0.24221 0.26813 0.27470
 Zr1778 Zr 0.24833 0.27760 0.23014
 Zr1779 Zr 0.26003 0.22366 0.26891
 Zr1780 Zr 0.28723 0.26236 0.25499
 O1781 O 0.24130 0.20106 0.27724
 O1782 O 0.29945 0.28793 0.24377
 O1783 O 0.26825 0.25212 0.27539
 O1784 O 0.26218 0.27946 0.25566
 O1785 O 0.22807 0.26774 0.24926
 O1786 O 0.23426 0.23935 0.26979
 C1787 C 0.30995 0.24212 0.22291
 C1788 C 0.27584 0.19264 0.24142
 C1789 C 0.26316 0.26282 0.19207
 O1790 O 0.26571 0.30207 0.22431
 O1791 O 0.23479 0.30249 0.24075
 O1792 O 0.23056 0.29631 0.27129
 C1793 C 0.22876 0.30715 0.25692
 O1794 O 0.21476 0.21798 0.22348
 Zr1795 Zr 0.22114 0.23892 0.24405
 O1796 O 0.21304 0.26851 0.28239
 O1797 O 0.22411 0.28437 0.21353
 O1798 O 0.20045 0.25124 0.22597
 O1799 O 0.20686 0.21504 0.25639
 O1800 O 0.19846 0.25061 0.25999
 C1801 C 0.19800 0.26164 0.27428
 O1802 O 0.25447 0.28763 0.29392
 O1803 O 0.28525 0.21477 0.28314
 O1804 O 0.24284 0.25635 0.30167
 O1805 O 0.25646 0.22658 0.29739
 O1806 O 0.30925 0.24933 0.27112
 O1807 O 0.29454 0.28046 0.27760
 C1808 C 0.24959 0.24008 0.30769
 H1809 H 0.29192 0.22548 0.25023
 H1810 H 0.26555 0.29301 0.25874
 H1811 H 0.22545 0.23422 0.27937
 H1812 H 0.23394 0.24826 0.21167
 H1813 H 0.31365 0.28717 0.24558
 H1814 H 0.25843 0.31009 0.21537
 H1815 H 0.22691 0.29694 0.20751
 H1816 H 0.18775 0.24527 0.22879
 H1817 H 0.32163 0.25578 0.26797
 H1818 H 0.28213 0.20239 0.28937
 H1819 H 0.24870 0.19290 0.28597
 H1820 H 0.19284 0.21651 0.25386
 H1821 H 0.30810 0.28489 0.27629
 H1822 H 0.24388 0.29186 0.30223
 H1823 H 0.26415 0.21035 0.19610
 H1824 H 0.20062 0.21567 0.22312
 Zr1825 Zr 0.73609 0.73060 0.27513
 O1826 O 0.74818 0.71284 0.29588
 O1827 O 0.70675 0.73049 0.28215
 O1828 O 0.73362 0.74368 0.30144
 O1829 O 0.73396 0.69411 0.24254
 O1830 O 0.74426 0.77452 0.29662
 O1831 O 0.72681 0.70148 0.27238
 O1832 O 0.69291 0.75017 0.26069
 O1833 O 0.72766 0.75916 0.26947
 O1834 O 0.72311 0.73029 0.24915
 O1835 O 0.76167 0.74706 0.27621
 O1836 O 0.75708 0.71884 0.25714
 Zr1837 Zr 0.76133 0.76478 0.22499
 Zr1838 Zr 0.75331 0.77524 0.26909
 Zr1839 Zr 0.74417 0.72012 0.23107
 Zr1840 Zr 0.71571 0.75873 0.24315
 O1841 O 0.76350 0.69739 0.22440
 O1842 O 0.70262 0.78440 0.25328
 O1843 O 0.73567 0.74827 0.22367
 O1844 O 0.74045 0.77624 0.24305
 O1845 O 0.77450 0.76527 0.25089
 O1846 O 0.76963 0.73628 0.23082
 C1847 C 0.69211 0.73907 0.27492
 C1848 C 0.72729 0.68972 0.25856
 C1849 C 0.73739 0.76106 0.30694
 O1850 O 0.73523 0.79949 0.27382
 O1851 O 0.76680 0.80010 0.25841
 O1852 O 0.77238 0.79319 0.22819
 C1853 C 0.77340 0.80443 0.24237
 O1854 O 0.78776 0.71657 0.27833
 Zr1855 Zr 0.78174 0.73670 0.25698
 O1856 O 0.79074 0.76530 0.21820
 O1857 O 0.77674 0.78288 0.28637
 O1858 O 0.80148 0.75007 0.27535
 O1859 O 0.79684 0.71263 0.24586
 O1860 O 0.80482 0.74809 0.24137
 C1861 C 0.80559 0.75871 0.22682
 O1862 O 0.74957 0.78370 0.20498
 O1863 O 0.71984 0.71082 0.21574
 O1864 O 0.76171 0.75244 0.19825
 O1865 O 0.74972 0.72204 0.20279
 O1866 O 0.69446 0.74499 0.22665
 O1867 O 0.70912 0.77602 0.21979
 C1868 C 0.75638 0.73559 0.19243
 H1869 H 0.71146 0.72199 0.24850
 H1870 H 0.73697 0.78966 0.23957
 H1871 H 0.77892 0.73103 0.22171
 H1872 H 0.76748 0.74660 0.28865
 H1873 H 0.68853 0.78338 0.25093
 H1874 H 0.74203 0.80787 0.28281
 H1875 H 0.77346 0.79554 0.29201
 H1876 H 0.81441 0.74429 0.27310
 H1877 H 0.68192 0.75145 0.22915
 H1878 H 0.72337 0.69827 0.20999
 H1879 H 0.75667 0.68886 0.21556
 H1880 H 0.81073 0.71438 0.24883
 H1881 H 0.69550 0.78042 0.22053
 H1882 H 0.76040 0.78786 0.19694
 H1883 H 0.73736 0.70850 0.30386
 H1884 H 0.80193 0.71466 0.27932
 Zr1885 Zr 0.76429 0.26459 0.77454
 O1886 O 0.75360 0.28236 0.79602
 O1887 O 0.79393 0.26397 0.78029
 O1888 O 0.76731 0.25120 0.80062
 O1889 O 0.76567 0.30155 0.74243
 O1890 O 0.75584 0.22063 0.79589
 O1891 O 0.77390 0.29360 0.77185
 O1892 O 0.80644 0.24440 0.75798
 O1893 O 0.77194 0.23597 0.76816
 O1894 O 0.77613 0.26506 0.74806
 O1895 O 0.73845 0.24860 0.77641
 O1896 O 0.74277 0.27700 0.75759
 Zr1897 Zr 0.73624 0.23162 0.72496
 Zr1898 Zr 0.74598 0.22038 0.76859
 Zr1899 Zr 0.75451 0.27588 0.73100
 Zr1900 Zr 0.78270 0.23657 0.74135
 O1901 O 0.73533 0.29905 0.72544
 O1902 O 0.79576 0.21051 0.75053
 O1903 O 0.76213 0.24769 0.72285
 O1904 O 0.75767 0.21953 0.74203
 O1905 O 0.72422 0.23099 0.75140
 O1906 O 0.72876 0.26018 0.73154
 C1907 C 0.80808 0.25526 0.77230
 C1908 C 0.77302 0.30560 0.75824
 C1909 C 0.76322 0.23390 0.80614
 O1910 O 0.76396 0.19589 0.77241
 O1911 O 0.73180 0.19585 0.75808
 O1912 O 0.72496 0.20328 0.72823
 C1913 C 0.72448 0.19181 0.74226
 O1914 O 0.71313 0.27958 0.77999
 Zr1915 Zr 0.71780 0.25960 0.75817
 O1916 O 0.70651 0.23170 0.71947
 O1917 O 0.72304 0.21279 0.78650
 O1918 O 0.69861 0.24643 0.77721
 O1919 O 0.70265 0.28405 0.74795
 O1920 O 0.69385 0.24877 0.74349
 C1921 C 0.69220 0.23838 0.72885
 O1922 O 0.74670 0.21283 0.70417
 O1923 O 0.77833 0.28496 0.71483
 O1924 O 0.73503 0.24444 0.69840
 O1925 O 0.74774 0.27455 0.70296
 O1926 O 0.80344 0.25020 0.72416
 O1927 O 0.78791 0.21952 0.71748
 C1928 C 0.74042 0.26131 0.69265
 H1929 H 0.78789 0.27316 0.74705
 H1930 H 0.76077 0.20611 0.73822
 H1931 H 0.71917 0.26573 0.72289
 H1932 H 0.73314 0.24901 0.78906
 H1933 H 0.80974 0.21129 0.74758
 H1934 H 0.75739 0.18746 0.78150
 H1935 H 0.72635 0.20002 0.79189
 H1936 H 0.68572 0.25250 0.77559
 H1937 H 0.81596 0.24344 0.72599
 H1938 H 0.77482 0.29767 0.70943
 H1939 H 0.74196 0.30763 0.71652
 H1940 H 0.68888 0.28252 0.75148
 H1941 H 0.80147 0.21487 0.71758
 H1942 H 0.73542 0.20901 0.69654
 H1943 H 0.76487 0.28633 0.80359
 H1944 H 0.69906 0.28180 0.78156
 C1945 C 0.46138 1.00786 0.39786
 C1946 C 0.47252 0.99744 0.38524
 C1947 C 0.48906 0.98749 0.39129
 C1948 C 0.49425 0.98787 0.41000
 C1949 C 0.44086 0.99759 0.31956
 C1950 C 0.46644 1.00820 0.41639
 C1951 C 0.46612 0.99676 0.36636
 C1952 C 0.45924 0.99680 0.35109
 C1953 C 0.44980 0.99722 0.33383
 C1954 C 0.48284 0.99811 0.42280
 H1955 H 0.44856 1.01560 0.39340
 H1956 H 0.49779 0.97932 0.38163
 H1957 H 0.50695 0.97996 0.41446
 H1958 H 0.45734 1.01639 0.42572
 C1959 C -0.04225 0.50018 0.89942
 C1960 C -0.02844 0.49567 0.88606
 C1961 C -0.00950 0.49098 0.89145
 C1962 C -0.00444 0.49103 0.91019
 C1963 C -0.05865 0.49801 0.81980
 C1964 C -0.03729 0.50026 0.91798
 C1965 C -0.03428 0.49602 0.86700
 C1966 C -0.04079 0.49664 0.85159
 C1967 C -0.04990 0.49748 0.83418
 C1968 C -0.01830 0.49582 0.92369
 H1969 H -0.05695 0.50376 0.89547
 H1970 H 0.00133 0.48741 0.88121
 H1971 H 0.01028 0.48757 0.91409
 H1972 H -0.04845 0.50393 0.92786
 C1973 C 0.00773 0.01272 0.88972
 C1974 C 0.02731 0.01282 0.88456
 C1975 C 0.04160 0.01457 0.89804
 C1976 C 0.03653 0.01540 0.91658
 C1977 C 0.05743 0.00126 0.81911
 C1978 C 0.00257 0.01369 0.90840
 C1979 C 0.03329 0.01001 0.86573
 C1980 C 0.03979 0.00730 0.85052
 C1981 C 0.04881 0.00398 0.83333
 C1982 C 0.01700 0.01453 0.92204
 H1983 H -0.00347 0.01136 0.87938
 H1984 H 0.05678 0.01472 0.89426
 H1985 H 0.04799 0.01621 0.92671
 H1986 H -0.01257 0.01289 0.91221
 C1987 C 0.50809 0.51246 0.39005
 C1988 C 0.52767 0.51260 0.38489
 C1989 C 0.54196 0.51442 0.39836
 C1990 C 0.53690 0.51527 0.41690
 C1991 C 0.55768 0.50081 0.31944
 C1992 C 0.50294 0.51344 0.40874
 C1993 C 0.53363 0.50973 0.36607
 C1994 C 0.54011 0.50697 0.35086
 C1995 C 0.54909 0.50358 0.33367
 C1996 C 0.51737 0.51435 0.42236
 H1997 H 0.49689 0.51103 0.37973
 H1998 H 0.55714 0.51460 0.39456
 H1999 H 0.54836 0.51612 0.42702
 H2000 H 0.48781 0.51260 0.41256
 C2001 C 0.50706 0.48679 0.10975
 C2002 C 0.52606 0.49141 0.11500
 C2003 C 0.53982 0.49568 0.10154
 C2004 C 0.53475 0.49565 0.08302
 C2005 C 0.55739 0.49537 0.18062
 C2006 C 0.50189 0.48673 0.09102
 C2007 C 0.53204 0.49207 0.13400
 C2008 C 0.53879 0.49304 0.14929
 C2009 C 0.54828 0.49437 0.16648
 C2010 C 0.51569 0.49136 0.07744
 H2011 H 0.49627 0.48339 0.12007
 H2012 H 0.55456 0.49921 0.10538
 H2013 H 0.54588 0.49919 0.07307
 H2014 H 0.48712 0.48338 0.08722
 C2015 C 0.03166 1.00869 0.60366
 C2016 C 0.02312 0.99559 0.61581
 C2017 C 0.00864 0.98299 0.60944
 C2018 C 0.00309 0.98331 0.59083
 C2019 C 0.05720 0.99628 0.68039
 C2020 C 0.02627 1.00896 0.58521
 C2021 C 0.03034 0.99479 0.63441
 C2022 C 0.03781 0.99490 0.64943
 C2023 C 0.04784 0.99559 0.66637
 C2024 C 0.01215 0.99609 0.57845
 H2025 H 0.04284 1.01851 0.60838
 H2026 H 0.00195 0.97272 0.61873
 H2027 H -0.00780 0.97323 0.58603
 H2028 H 0.03341 1.01917 0.57616
 C2029 C -0.04289 0.50936 0.60097
 C2030 C -0.02837 0.50903 0.61432
 C2031 C -0.00888 0.50999 0.60892
 C2032 C -0.00402 0.51071 0.59015
 C2033 C -0.05729 0.49973 0.68059
 C2034 C -0.03810 0.50996 0.58236
 C2035 C -0.03396 0.50685 0.63334
 C2036 C -0.04017 0.50467 0.64874
 C2037 C -0.04888 0.50195 0.66617
 C2038 C -0.01862 0.51029 0.57666
 H2039 H -0.05800 0.50869 0.60494
 H2040 H 0.00251 0.50975 0.61915
 H2041 H 0.01110 0.51088 0.58619
 H2042 H -0.04974 0.50979 0.57238
 C2043 C 0.45671 0.00936 0.10073
 C2044 C 0.47111 0.00855 0.11418
 C2045 C 0.49066 0.00912 0.10893
 C2046 C 0.49569 0.00991 0.09020
 C2047 C 0.44145 -0.00102 0.18010
 C2048 C 0.46166 0.01004 0.08216
 C2049 C 0.46531 0.00624 0.13312
 C2050 C 0.45893 0.00399 0.14844
 C2051 C 0.45001 0.00122 0.16577
 C2052 C 0.48119 0.00995 0.07661
 H2053 H 0.44155 0.00899 0.10458
 H2054 H 0.50195 0.00850 0.11923
 H2055 H 0.51084 0.00976 0.08634
 H2056 H 0.45010 0.01023 0.07209
 C2057 C 0.40086 0.44244 0.02600
 C2058 C 0.38732 0.44412 0.01171
 C2059 C 0.39127 0.45633 -0.00315
 C2060 C 0.40871 0.46650 -0.00399
 C2061 C 0.32236 0.40428 0.00709
 C2062 C 0.41840 0.45270 0.02523
 C2063 C 0.36961 0.43299 0.01170
 C2064 C 0.35471 0.42385 0.01079
 C2065 C 0.33724 0.41327 0.00899
 C2066 C 0.42263 0.46468 0.01007
 H2067 H 0.39801 0.43299 0.03759
 H2068 H 0.38096 0.45780 -0.01429
 H2069 H 0.41137 0.47563 -0.01583
 H2070 H 0.42882 0.45087 0.03622
 C2071 C -0.10014 0.94272 0.52611
 C2072 C -0.11326 0.94359 0.51141
 C2073 C -0.10890 0.95501 0.49609
 C2074 C -0.09148 0.96520 0.49523
 C2075 C -0.17819 0.90370 0.50703
 C2076 C -0.08262 0.95301 0.52532
 C2077 C -0.13098 0.93248 0.51149
 C2078 C -0.14587 0.92333 0.51065
 C2079 C -0.16333 0.91272 0.50890
 C2080 C -0.07800 0.96422 0.50973
 H2081 H -0.10332 0.93390 0.53806
 H2082 H -0.11889 0.95584 0.48463
 H2083 H -0.08852 0.97372 0.48304
 H2084 H -0.07254 0.95184 0.53667
 C2085 C -0.10733 0.04536 1.00400
 C2086 C -0.11165 0.05743 0.98912
 C2087 C -0.09826 0.05932 0.97471
 C2088 C -0.08054 0.04937 0.97535
 C2089 C -0.17756 0.09587 0.99340
 C2090 C -0.08970 0.03549 1.00469
 C2091 C -0.12964 0.06814 0.98916
 C2092 C -0.14475 0.07694 0.99001
 C2093 C -0.16247 0.08716 0.99166
 C2094 C -0.07597 0.03746 0.99047
 H2095 H -0.11753 0.04374 1.01523
 H2096 H -0.10141 0.06866 0.96312
 H2097 H -0.07028 0.05131 0.96422
 H2098 H -0.08678 0.02642 1.01652
 C2099 C 0.39309 0.54525 0.50427
 C2100 C 0.38879 0.55725 0.48934
 C2101 C 0.40218 0.55905 0.47492
 C2102 C 0.41988 0.54906 0.47559
 C2103 C 0.32296 0.59587 0.49326
 C2104 C 0.41070 0.53534 0.50500
 C2105 C 0.37082 0.56799 0.48931
 C2106 C 0.35573 0.57684 0.49008
 C2107 C 0.33803 0.58711 0.49162
 C2108 C 0.42443 0.53721 0.49075
 H2109 H 0.38289 0.54372 0.51551
 H2110 H 0.39904 0.56832 0.46328
 H2111 H 0.43013 0.55092 0.46444
 H2112 H 0.41361 0.52633 0.51687
 C2113 C 0.10469 0.54350 0.49428
 C2114 C 0.10891 0.55544 0.50929
 C2115 C 0.09562 0.55688 0.52383
 C2116 C 0.07808 0.54663 0.52320
 C2117 C 0.17384 0.59550 0.50540
 C2118 C 0.08723 0.53333 0.49359
 C2119 C 0.12666 0.56652 0.50927
 C2120 C 0.14155 0.57569 0.50849
 C2121 C 0.15900 0.58638 0.50698
 C2122 C 0.07359 0.53487 0.50794
 H2123 H 0.11481 0.54224 0.48294
 H2124 H 0.09869 0.56612 0.53553
 H2125 H 0.06789 0.54825 0.53442
 H2126 H 0.08436 0.52440 0.48165
 C2127 C 0.60527 0.04235 -0.00504
 C2128 C 0.60940 0.05443 0.00990
 C2129 C 0.59601 0.05602 0.02434
 C2130 C 0.57845 0.04581 0.02367
 C2131 C 0.67428 0.09456 0.00592
 C2132 C 0.58779 0.03222 -0.00578
 C2133 C 0.62714 0.06552 0.00987
 C2134 C 0.64202 0.07470 0.00907
 C2135 C 0.65945 0.08541 0.00753
 C2136 C 0.57404 0.03394 0.00846
 H2137 H 0.61546 0.04097 -0.01631
 H2138 H 0.59901 0.06535 0.03598
 H2139 H 0.56817 0.04756 0.03480
 H2140 H 0.58497 0.02320 -0.01767
 C2141 C 0.59601 0.94600 0.47420
 C2142 C 0.60937 0.94698 0.48870
 C2143 C 0.60539 0.95876 0.50389
 C2144 C 0.58809 0.96919 0.50484
 C2145 C 0.67362 0.90578 0.49251
 C2146 C 0.57862 0.95652 0.47509
 C2147 C 0.62691 0.93554 0.48856
 C2148 C 0.64164 0.92609 0.48929
 C2149 C 0.65891 0.91511 0.49084
 C2150 C 0.57435 0.96806 0.49056
 H2151 H 0.59889 0.93690 0.46236
 H2152 H 0.61557 0.95968 0.51519
 H2153 H 0.58539 0.97796 0.51693
 H2154 H 0.56833 0.95522 0.46392
 C2155 C 0.10584 0.45976 1.00401
 C2156 C 0.10970 0.44772 0.98897
 C2157 C 0.09619 0.44643 0.97462
 C2158 C 0.07876 0.45688 0.97552
 C2159 C 0.17405 0.40666 0.99272
 C2160 C 0.08850 0.47012 1.00496
 C2161 C 0.12728 0.43633 0.98883
 C2162 C 0.14203 0.42692 0.98955
 C2163 C 0.15932 0.41597 0.99108
 C2164 C 0.07461 0.46868 0.99084
 H2165 H 0.11614 0.46091 1.01519
 H2166 H 0.09898 0.43713 0.96291
 H2167 H 0.06836 0.45533 0.96448
 H2168 H 0.08588 0.47908 1.01695
 C2169 C -0.02812 0.40184 0.44524
 C2170 C -0.01854 0.38583 0.45267
 C2171 C -0.00648 0.38804 0.46795
 C2172 C -0.00376 0.40632 0.47569
 C2173 C -0.01628 0.31989 0.41768
 C2174 C -0.02544 0.42014 0.45294
 C2175 C -0.01976 0.36743 0.44371
 C2176 C -0.01978 0.35217 0.43582
 C2177 C -0.01851 0.33462 0.42619
 C2178 C -0.01306 0.42261 0.46814
 H2179 H -0.03735 0.40024 0.43329
 H2180 H 0.00112 0.37569 0.47366
 H2181 H 0.00580 0.40769 0.48741
 H2182 H -0.03290 0.43236 0.44685
 C2183 C 0.49265 -0.11178 -0.03292
 C2184 C 0.48066 -0.11371 -0.04829
 C2185 C 0.47125 -0.09754 -0.05560
 C2186 C 0.47404 -0.07935 -0.04769
 C2187 C 0.48298 -0.17931 -0.08382
 C2188 C 0.49547 -0.09361 -0.02498
 C2189 C 0.47938 -0.13198 -0.05747
 C2190 C 0.47935 -0.14715 -0.06553
 C2191 C 0.48066 -0.16462 -0.07528
 C2192 C 0.48636 -0.07716 -0.03241
 H2193 H 0.50012 -0.12425 -0.02731
 H2194 H 0.46208 -0.09892 -0.06761
 H2195 H 0.46672 -0.06700 -0.05370
 H2196 H 0.50499 -0.09245 -0.01320
 C2197 C 0.02563 -0.09661 1.05092
 C2198 C 0.01540 -0.11231 1.04370
 C2199 C 0.00292 -0.10971 1.02879
 C2200 C 0.00044 -0.09132 1.02122
 C2201 C 0.01471 -0.17731 1.08024
 C2202 C 0.02318 -0.07821 1.04341
 C2203 C 0.01649 -0.13072 1.05261
 C2204 C 0.01670 -0.14583 1.06074
 C2205 C 0.01605 -0.16302 1.07096
 C2206 C 0.01038 -0.07532 1.02861
 H2207 H 0.03521 -0.09852 1.06258
 H2208 H -0.00517 -0.12182 1.02325
 H2209 H -0.00947 -0.08960 1.00981
 H2210 H 0.03114 -0.06623 1.04935
 C2211 C 0.52630 0.40269 0.55051
 C2212 C 0.51607 0.38701 0.54326
 C2213 C 0.50343 0.38969 0.52848
 C2214 C 0.50080 0.40814 0.52108
 C2215 C 0.51602 0.32187 0.57956
 C2216 C 0.52370 0.42115 0.54317
 C2217 C 0.51733 0.36853 0.55203
 C2218 C 0.51770 0.35338 0.56008
 C2219 C 0.51723 0.33616 0.57026
 C2220 C 0.51076 0.42411 0.52849
 H2221 H 0.53600 0.40072 0.56207
 H2222 H 0.49533 0.37759 0.52292
 H2223 H 0.49078 0.40991 0.50976
 H2224 H 0.53169 0.43310 0.54913
 C2225 C 0.47313 1.09825 0.55977
 C2226 C 0.48257 1.11466 0.55300
 C2227 C 0.49473 1.11323 0.53768
 C2228 C 0.49760 1.09535 0.52917
 C2229 C 0.48234 1.18069 0.58799
 C2230 C 0.47596 1.08034 0.55128
 C2231 C 0.48077 1.13277 0.56239
 C2232 C 0.48018 1.14796 0.57040
 C2233 C 0.48073 1.16565 0.57987
 C2234 C 0.48833 1.07868 0.53595
 H2235 H 0.46380 1.09925 0.57172
 H2236 H 0.50219 1.12588 0.53246
 H2237 H 0.50716 1.09459 0.51738
 H2238 H 0.46855 1.06782 0.55682
 C2239 C -0.02681 0.59889 1.05940
 C2240 C -0.01742 0.61524 1.05246
 C2241 C -0.00541 0.61369 1.03704
 C2242 C -0.00263 0.59575 1.02862
 C2243 C -0.01765 0.68122 1.08757
 C2244 C -0.02407 0.58092 1.05101
 C2245 C -0.01910 0.63340 1.06179
 C2246 C -0.01964 0.64858 1.06981
 C2247 C -0.01913 0.66623 1.07934
 C2248 C -0.01183 0.57913 1.03560
 H2249 H -0.03603 0.59998 1.07143
 H2250 H 0.00201 0.62631 1.03168
 H2251 H 0.00683 0.59490 1.01676
 H2252 H -0.03143 0.56844 1.05670
 C2253 C 0.50139 0.61090 -0.03340
 C2254 C 0.51386 0.61293 -0.04842
 C2255 C 0.52354 0.59683 -0.05558
 C2256 C 0.52068 0.57862 -0.04778
 C2257 C 0.51705 0.67911 -0.08296
 C2258 C 0.49850 0.59271 -0.02555
 C2259 C 0.51589 0.63136 -0.05715
 C2260 C 0.51699 0.64665 -0.06489
 C2261 C 0.51744 0.66427 -0.07442
 C2262 C 0.50804 0.57635 -0.03272
 H2263 H 0.49375 0.62333 -0.02789
 H2264 H 0.53312 0.59831 -0.06730
 H2265 H 0.52831 0.56635 -0.05358
 H2266 H 0.48872 0.59147 -0.01396
 C2267 C -0.00006 1.11029 0.46399
 C2268 C 0.01273 1.11206 0.44919
 C2269 C 0.02257 1.09585 0.44248
 C2270 C 0.01961 1.07779 0.45057
 C2271 C 0.01686 1.17849 0.41514
 C2272 C -0.00306 1.09225 0.47211
 C2273 C 0.01506 1.13040 0.44036
 C2274 C 0.01639 1.14571 0.43269
 C2275 C 0.01709 1.16345 0.42339
 C2276 C 0.00671 1.07579 0.46545
 H2277 H -0.00782 1.12281 0.46916
 H2278 H 0.03242 1.09714 0.43094
 H2279 H 0.02741 1.06543 0.44515
 H2280 H -0.01305 1.09123 0.48356
 C2281 C 0.73735 0.74072 0.85909
 C2282 C 0.74902 0.72550 0.86552
 C2283 C 0.76132 0.71585 0.85333
 C2284 C 0.76173 0.72094 0.83481
 C2285 C 0.74835 0.69259 0.93064
 C2286 C 0.73782 0.74596 0.84040
 C2287 C 0.74803 0.71871 0.88426
 C2288 C 0.74786 0.71153 0.89940
 C2289 C 0.74811 0.70178 0.91651
 C2290 C 0.74981 0.73586 0.82800
 H2291 H 0.72771 0.74827 0.86841
 H2292 H 0.77041 0.70408 0.85810
 H2293 H 0.77132 0.71296 0.82575
 H2294 H 0.72847 0.75749 0.83558
 C2295 C 0.23698 0.24059 0.35879
 C2296 C 0.24890 0.22558 0.36523
 C2297 C 0.26148 0.21623 0.35308
 C2298 C 0.26188 0.22138 0.33457
 C2299 C 0.24815 0.19235 0.43020
 C2300 C 0.23745 0.24591 0.34012
 C2301 C 0.24788 0.21865 0.38392
 C2302 C 0.24769 0.21140 0.39903
 C2303 C 0.24791 0.20157 0.41610
 C2304 C 0.24969 0.23607 0.32775
 H2305 H 0.22712 0.24790 0.36808
 H2306 H 0.27076 0.20461 0.35785
 H2307 H 0.27167 0.21363 0.32553
 H2308 H 0.22789 0.25725 0.33528
 C2309 C 0.76398 0.25754 0.36028
 C2310 C 0.76363 0.27715 0.36538
 C2311 C 0.76496 0.29144 0.35183
 C2312 C 0.76585 0.28631 0.33331
 C2313 C 0.75199 0.30714 0.43094
 C2314 C 0.76501 0.25233 0.34160
 C2315 C 0.76083 0.28313 0.38422
 C2316 C 0.75811 0.28960 0.39945
 C2317 C 0.75476 0.29856 0.41669
 C2318 C 0.76547 0.26673 0.32791
 H2319 H 0.76295 0.24633 0.37065
 H2320 H 0.76476 0.30664 0.35557
 H2321 H 0.76636 0.29777 0.32314
 H2322 H 0.76459 0.23716 0.33785
 C2323 C 0.26377 0.75820 0.86003
 C2324 C 0.26340 0.77781 0.86514
 C2325 C 0.26471 0.79210 0.85159
 C2326 C 0.26560 0.78698 0.83306
 C2327 C 0.25181 0.80782 0.93070
 C2328 C 0.26479 0.75300 0.84135
 C2329 C 0.26061 0.78379 0.88399
 C2330 C 0.25791 0.79026 0.89922
 C2331 C 0.25457 0.79922 0.91645
 C2332 C 0.26524 0.76740 0.82766
 H2333 H 0.26275 0.74699 0.87040
 H2334 H 0.26449 0.80730 0.85533
 H2335 H 0.26609 0.79844 0.82290
 H2336 H 0.26439 0.73782 0.83760
 C2337 C 0.23778 0.79248 0.14903
 C2338 C 0.23805 0.77835 0.13527
 C2339 C 0.23734 0.75869 0.14014
 C2340 C 0.23694 0.75326 0.15879
 C2341 C 0.24464 0.80964 0.06966
 C2342 C 0.23749 0.78714 0.16750
 C2343 C 0.23976 0.78457 0.11638
 C2344 C 0.24141 0.79134 0.10113
 C2345 C 0.24332 0.80070 0.08390
 C2346 C 0.23743 0.76748 0.17267
 H2347 H 0.23822 0.80772 0.14548
 H2348 H 0.23750 0.74760 0.12959
 H2349 H 0.23697 0.73803 0.16233
 H2350 H 0.23768 0.79849 0.17779
 C2351 C 0.73884 0.29137 0.64924
 C2352 C 0.73883 0.27724 0.63548
 C2353 C 0.73795 0.25758 0.64037
 C2354 C 0.73764 0.25216 0.65902
 C2355 C 0.74498 0.30858 0.56987
 C2356 C 0.73862 0.28604 0.66772
 C2357 C 0.74042 0.28345 0.61658
 C2358 C 0.74196 0.29022 0.60133
 C2359 C 0.74375 0.29961 0.58410
 C2360 C 0.73837 0.26638 0.67290
 H2361 H 0.73940 0.30660 0.64568
 H2362 H 0.73788 0.24649 0.62983
 H2363 H 0.73750 0.23693 0.66257
 H2364 H 0.73900 0.29741 0.67799
 C2365 C 0.25788 0.24117 0.64059
 C2366 C 0.25685 0.22167 0.63522
 C2367 C 0.25717 0.20714 0.64858
 C2368 C 0.25788 0.21194 0.66718
 C2369 C 0.24780 0.19238 0.56915
 C2370 C 0.25869 0.24605 0.65936
 C2371 C 0.25467 0.21605 0.61623
 C2372 C 0.25253 0.20977 0.60087
 C2373 C 0.24991 0.20092 0.58350
 C2374 C 0.25830 0.23144 0.67285
 H2375 H 0.25765 0.25256 0.63035
 H2376 H 0.25646 0.19202 0.64462
 H2377 H 0.25774 0.20029 0.67716
 H2378 H 0.25894 0.26117 0.66330
 C2379 C 0.75750 0.74067 0.14026
 C2380 C 0.75629 0.72118 0.13491
 C2381 C 0.75640 0.70667 0.14828
 C2382 C 0.75709 0.71148 0.16688
 C2383 C 0.74761 0.69177 0.06882
 C2384 C 0.75830 0.74557 0.15902
 C2385 C 0.75420 0.71554 0.11591
 C2386 C 0.75214 0.70924 0.10054
 C2387 C 0.74962 0.70036 0.08317
 C2388 C 0.75771 0.73098 0.17253
 H2389 H 0.75745 0.75205 0.13000
 H2390 H 0.75554 0.69155 0.14434
 H2391 H 0.75680 0.69985 0.17687
 H2392 H 0.75871 0.76070 0.16294
 C2393 C 0.19087 0.65230 0.22474
 C2394 C 0.19278 0.63870 0.23896
 C2395 C 0.20525 0.64259 0.25364
 C2396 C 0.21548 0.66001 0.25434
 C2397 C 0.15300 0.57362 0.24337
 C2398 C 0.20119 0.66981 0.22538
 C2399 C 0.18166 0.62096 0.23904
 C2400 C 0.17253 0.60605 0.23993
 C2401 C 0.16197 0.58854 0.24162
 C2402 C 0.21347 0.67396 0.24032
 H2403 H 0.18123 0.64949 0.21330
 H2404 H 0.20689 0.63223 0.26472
 H2405 H 0.22484 0.66261 0.26603
 H2406 H 0.19921 0.68025 0.21442
 C2407 C 0.70647 0.14136 0.75384
 C2408 C 0.69395 0.13746 0.73920
 C2409 C 0.69198 0.15106 0.72499
 C2410 C 0.70226 0.16860 0.72561
 C2411 C 0.65416 0.07239 0.74380
 C2412 C 0.71668 0.15880 0.75452
 C2413 C 0.68285 0.11971 0.73932
 C2414 C 0.67372 0.10480 0.74025
 C2415 C 0.66315 0.08730 0.74200
 C2416 C 0.71459 0.17276 0.74052
 H2417 H 0.70816 0.13099 0.76491
 H2418 H 0.68229 0.14825 0.71358
 H2419 H 0.70022 0.17904 0.71467
 H2420 H 0.72606 0.16141 0.76619
 C2421 C 0.81158 0.15149 0.27550
 C2422 C 0.80957 0.13798 0.26121
 C2423 C 0.79734 0.14214 0.24642
 C2424 C 0.78741 0.15974 0.24570
 C2425 C 0.84778 0.07197 0.25656
 C2426 C 0.80157 0.16920 0.27484
 C2427 C 0.82030 0.12000 0.26117
 C2428 C 0.82908 0.10487 0.26025
 C2429 C 0.83919 0.08711 0.25846
 C2430 C 0.78950 0.17360 0.25980
 H2431 H 0.82104 0.14846 0.28702
 H2432 H 0.79564 0.13184 0.23528
 H2433 H 0.77821 0.16253 0.23394
 H2434 H 0.80358 0.17955 0.28586
 C2435 C 0.31106 0.65200 0.77538
 C2436 C 0.30903 0.63849 0.76109
 C2437 C 0.29685 0.64269 0.74628
 C2438 C 0.28700 0.66033 0.74552
 C2439 C 0.34693 0.57231 0.75663
 C2440 C 0.30113 0.66974 0.77468
 C2441 C 0.31968 0.62047 0.76109
 C2442 C 0.32838 0.60530 0.76021
 C2443 C 0.33842 0.58749 0.75846
 C2444 C 0.28911 0.67419 0.75962
 H2445 H 0.32048 0.64894 0.78692
 H2446 H 0.29513 0.63239 0.73514
 H2447 H 0.27784 0.66315 0.73374
 H2448 H 0.30316 0.68010 0.78571
 C2449 C 0.29200 0.35516 0.75441
 C2450 C 0.30394 0.35925 0.73936
 C2451 C 0.30529 0.34589 0.72487
 C2452 C 0.29500 0.32837 0.72562
 C2453 C 0.34460 0.42380 0.74324
 C2454 C 0.28179 0.33772 0.75521
 C2455 C 0.31516 0.37691 0.73934
 C2456 C 0.32447 0.39171 0.74010
 C2457 C 0.33533 0.40904 0.74163
 C2458 C 0.28330 0.32398 0.74093
 H2459 H 0.29080 0.36534 0.76570
 H2460 H 0.31452 0.34886 0.71315
 H2461 H 0.29660 0.31810 0.71445
 H2462 H 0.27290 0.33492 0.76719
 C2463 C 0.79200 0.85467 0.25394
 C2464 C 0.80389 0.85874 0.23885
 C2465 C 0.80515 0.84537 0.22435
 C2466 C 0.79482 0.82788 0.22514
 C2467 C 0.84489 0.92308 0.24256
 C2468 C 0.78175 0.83727 0.25478
 C2469 C 0.81517 0.87636 0.23879
 C2470 C 0.82455 0.89112 0.23951
 C2471 C 0.83551 0.90840 0.24099
 C2472 C 0.78317 0.82352 0.24050
 H2473 H 0.79088 0.86486 0.26524
 H2474 H 0.81434 0.84832 0.21260
 H2475 H 0.79634 0.81760 0.21397
 H2476 H 0.77290 0.83448 0.26679
 C2477 C 0.69753 0.84813 0.77537
 C2478 C 0.69814 0.86117 0.76058
 C2479 C 0.70951 0.85681 0.74519
 C2480 C 0.71989 0.83946 0.74437
 C2481 C 0.65699 0.92551 0.75675
 C2482 C 0.70799 0.83070 0.77460
 C2483 C 0.68677 0.87877 0.76067
 C2484 C 0.67735 0.89352 0.75993
 C2485 C 0.66636 0.91080 0.75840
 C2486 C 0.71914 0.82606 0.75897
 H2487 H 0.68875 0.85130 0.78736
 H2488 H 0.71014 0.86673 0.73366
 H2489 H 0.72833 0.83647 0.73213
 H2490 H 0.70699 0.82068 0.78602
 C2491 C 0.19700 0.34813 0.27507
 C2492 C 0.19756 0.36115 0.26027
 C2493 C 0.20897 0.35684 0.24490
 C2494 C 0.21943 0.33954 0.24410
 C2495 C 0.15605 0.42527 0.25647
 C2496 C 0.20756 0.33075 0.27433
 C2497 C 0.18609 0.37869 0.26033
 C2498 C 0.17658 0.39338 0.25959
 C2499 C 0.16549 0.41061 0.25807
 C2500 C 0.21874 0.32615 0.25871
 H2501 H 0.18820 0.35126 0.28705
 H2502 H 0.20956 0.36676 0.23336
 H2503 H 0.22790 0.33658 0.23187
 H2504 H 0.20658 0.32073 0.28575
 C2505 C 0.13854 0.24226 0.78460
 C2506 C 0.13696 0.23032 0.80005
 C2507 C 0.15329 0.22098 0.80709
 C2508 C 0.17129 0.22377 0.79882
 C2509 C 0.07152 0.23232 0.83583
 C2510 C 0.15652 0.24509 0.77630
 C2511 C 0.11885 0.22895 0.80949
 C2512 C 0.10377 0.22885 0.81767
 C2513 C 0.08630 0.23007 0.82742
 C2514 C 0.17313 0.23603 0.78344
 H2515 H 0.12594 0.24967 0.77918
 H2516 H 0.15217 0.21183 0.81915
 H2517 H 0.18377 0.21650 0.80462
 H2518 H 0.15741 0.25456 0.76446
 C2519 C 0.63841 0.74192 0.28463
 C2520 C 0.63687 0.72999 0.30010
 C2521 C 0.65322 0.72070 0.30713
 C2522 C 0.67121 0.72351 0.29884
 C2523 C 0.57131 0.73173 0.33570
 C2524 C 0.65637 0.74478 0.27631
 C2525 C 0.61876 0.72856 0.30953
 C2526 C 0.60365 0.72839 0.31766
 C2527 C 0.58613 0.72954 0.32735
 C2528 C 0.67301 0.73575 0.28344
 H2529 H 0.62579 0.74929 0.27922
 H2530 H 0.65213 0.71156 0.31921
 H2531 H 0.68371 0.71628 0.30464
 H2532 H 0.65723 0.75423 0.26446
 C2533 C 0.65410 0.27339 0.19944
 C2534 C 0.63855 0.26308 0.20684
 C2535 C 0.64139 0.25060 0.22173
 C2536 C 0.65987 0.24825 0.22911
 C2537 C 0.57303 0.26317 0.17122
 C2538 C 0.67259 0.27106 0.20676
 C2539 C 0.62000 0.26421 0.19822
 C2540 C 0.60478 0.26456 0.19032
 C2541 C 0.58744 0.26419 0.18034
 C2542 C 0.67570 0.25831 0.22157
 H2543 H 0.65200 0.28296 0.18780
 H2544 H 0.62940 0.24245 0.22741
 H2545 H 0.66177 0.23837 0.24053
 H2546 H 0.68443 0.27911 0.20070
 C2547 C 0.15421 0.77389 0.69868
 C2548 C 0.13863 0.76365 0.70611
 C2549 C 0.14140 0.75135 0.72114
 C2550 C 0.15984 0.74908 0.72863
 C2551 C 0.07306 0.76317 0.67057
 C2552 C 0.17266 0.77166 0.70611
 C2553 C 0.12012 0.76466 0.69742
 C2554 C 0.10490 0.76488 0.68951
 C2555 C 0.08753 0.76433 0.67959
 C2556 C 0.17571 0.75907 0.72106
 H2557 H 0.15216 0.78334 0.68694
 H2558 H 0.12938 0.74326 0.72686
 H2559 H 0.16168 0.73933 0.74015
 H2560 H 0.18453 0.77964 0.70002
 C2561 C 0.86402 0.74445 0.71292
 C2562 C 0.86536 0.73189 0.69788
 C2563 C 0.84887 0.72258 0.69118
 C2564 C 0.83096 0.72590 0.69948
 C2565 C 0.93172 0.73055 0.66363
 C2566 C 0.84614 0.74781 0.72124
 C2567 C 0.88352 0.72960 0.68868
 C2568 C 0.89878 0.72869 0.68084
 C2569 C 0.91658 0.72900 0.67159
 C2570 C 0.82939 0.73865 0.71455
 H2571 H 0.87675 0.75183 0.71807
 H2572 H 0.84981 0.71295 0.67944
 H2573 H 0.81836 0.71855 0.69403
 H2574 H 0.84547 0.75765 0.73283
 C2575 C 0.36346 0.24441 0.21223
 C2576 C 0.36473 0.23188 0.19717
 C2577 C 0.34819 0.22259 0.19052
 C2578 C 0.33032 0.22591 0.19890
 C2579 C 0.43109 0.23052 0.16293
 C2580 C 0.34563 0.24777 0.22063
 C2581 C 0.38285 0.22957 0.18791
 C2582 C 0.39810 0.22865 0.18006
 C2583 C 0.41592 0.22897 0.17083
 C2584 C 0.32883 0.23863 0.21399
 H2585 H 0.37622 0.25176 0.21734
 H2586 H 0.34907 0.21298 0.17876
 H2587 H 0.31769 0.21858 0.19349
 H2588 H 0.34501 0.25759 0.23224
 C2589 C 0.36142 0.75114 0.27932
 C2590 C 0.36413 0.76351 0.29432
 C2591 C 0.34847 0.77364 0.30179
 C2592 C 0.33002 0.77126 0.29440
 C2593 C 0.42990 0.76451 0.32955
 C2594 C 0.34299 0.74873 0.27187
 C2595 C 0.38268 0.76481 0.30291
 C2596 C 0.39795 0.76534 0.31072
 C2597 C 0.41537 0.76524 0.32057
 C2598 C 0.32705 0.75864 0.27944
 H2599 H 0.37350 0.74313 0.27358
 H2600 H 0.35047 0.78314 0.31351
 H2601 H 0.31810 0.77919 0.30049
 H2602 H 0.34120 0.73895 0.26034
 C2603 C 0.84886 0.27366 0.80219
 C2604 C 0.86464 0.26370 0.79476
 C2605 C 0.86209 0.25118 0.77984
 C2606 C 0.84367 0.24847 0.77243
 C2607 C 0.93045 0.26575 0.82986
 C2608 C 0.83044 0.27097 0.79483
 C2609 C 0.88320 0.26534 0.80329
 C2610 C 0.89847 0.26614 0.81107
 C2611 C 0.91591 0.26632 0.82089
 C2612 C 0.82762 0.25822 0.77996
 H2613 H 0.85074 0.28328 0.81384
 H2614 H 0.87426 0.24330 0.77413
 H2615 H 0.84201 0.23860 0.76096
 H2616 H 0.81842 0.27880 0.80088
 C2617 C 0.54290 1.01652 0.60090
 C2618 C 0.52898 1.01534 0.61481
 C2619 C 0.50927 1.01505 0.61016
 C2620 C 0.50361 1.01529 0.59160
 C2621 C 0.55989 1.00580 0.68026
 C2622 C 0.53733 1.01664 0.58248
 C2623 C 0.53542 1.01328 0.63359
 C2624 C 0.54216 1.01112 0.64878
 C2625 C 0.55129 1.00829 0.66599
 C2626 C 0.51766 1.01560 0.57756
 H2627 H 0.55818 1.01680 0.60429
 H2628 H 0.49835 1.01412 0.62082
 H2629 H 0.48837 1.01440 0.58823
 H2630 H 0.54853 1.01706 0.57204
 C2631 C 0.04344 0.51737 1.10120
 C2632 C 0.02954 0.51606 1.11512
 C2633 C 0.00983 0.51576 1.11049
 C2634 C 0.00415 0.51610 1.09193
 C2635 C 0.06015 0.50598 1.18067
 C2636 C 0.03785 0.51759 1.08278
 C2637 C 0.03598 0.51385 1.13389
 C2638 C 0.04265 0.51155 1.14909
 C2639 C 0.05167 0.50858 1.16634
 C2640 C 0.01817 0.51652 1.07787
 H2641 H 0.05872 0.51765 1.10458
 H2642 H -0.00108 0.51473 1.12115
 H2643 H -0.01109 0.51517 1.08858
 H2644 H 0.04903 0.51808 1.07233
 C2645 C -0.01072 -0.01695 1.10719
 C2646 C -0.03040 -0.01717 1.11199
 C2647 C -0.04444 -0.01728 1.09817
 C2648 C -0.03900 -0.01638 1.07972
 C2649 C -0.06013 -0.01023 1.17828
 C2650 C -0.00520 -0.01615 1.08860
 C2651 C -0.03662 -0.01601 1.13092
 C2652 C -0.04308 -0.01449 1.14629
 C2653 C -0.05184 -0.01228 1.16377
 C2654 C -0.01934 -0.01537 1.07469
 H2655 H 0.00029 -0.01682 1.11779
 H2656 H -0.05969 -0.01749 1.10168
 H2657 H -0.05027 -0.01595 1.06937
 H2658 H 0.01003 -0.01530 1.08517
 C2659 C 0.48939 0.48242 0.60738
 C2660 C 0.46971 0.48207 0.61212
 C2661 C 0.45571 0.48183 0.59827
 C2662 C 0.46120 0.48275 0.57982
 C2663 C 0.43981 0.48927 0.67831
 C2664 C 0.49497 0.48322 0.58880
 C2665 C 0.46343 0.48328 0.63102
 C2666 C 0.45692 0.48485 0.64638
 C2667 C 0.44812 0.48714 0.66382
 C2668 C 0.48086 0.48390 0.57485
 H2669 H 0.50038 0.48265 0.61800
 H2670 H 0.44045 0.48153 0.60173
 H2671 H 0.44996 0.48309 0.56945
 H2672 H 0.51020 0.48420 0.58541
 C2673 C 0.45409 0.51351 -0.10019
 C2674 C 0.46834 0.51370 -0.11384
 C2675 C 0.48792 0.51463 -0.10883
 C2676 C 0.49318 0.51474 -0.09018
 C2677 C 0.44045 0.50443 -0.18055
 C2678 C 0.45928 0.51351 -0.08166
 C2679 C 0.46250 0.51180 -0.13281
 C2680 C 0.45644 0.50970 -0.14825
 C2681 C 0.44822 0.50690 -0.16587
 C2682 C 0.47889 0.51372 -0.07639
 H2683 H 0.43891 0.51283 -0.10387
 H2684 H 0.49909 0.51477 -0.11930
 H2685 H 0.50839 0.51482 -0.08657
 H2686 H 0.44789 0.51286 -0.07143
 C2687 C -0.01113 1.01316 0.39088
 C2688 C -0.03060 1.01174 0.38561
 C2689 C -0.04502 1.01100 0.39909
 C2690 C -0.04008 1.01099 0.41768
 C2691 C -0.05815 1.00338 0.31869
 C2692 C -0.00612 1.01325 0.40961
 C2693 C -0.03619 1.01008 0.36656
 C2694 C -0.04215 1.00819 0.35105
 C2695 C -0.05035 1.00564 0.33339
 C2696 C -0.02057 1.01175 0.42320
 H2697 H 0.00017 1.01374 0.38055
 H2698 H -0.06013 1.00995 0.39521
 H2699 H -0.05161 1.00999 0.42774
 H2700 H 0.00902 1.01379 0.41341
 C2701 C 0.00809 0.48311 0.39055
 C2702 C 0.02777 0.48259 0.38578
 C2703 C 0.04176 0.48173 0.39963
 C2704 C 0.03628 0.48221 0.41809
 C2705 C 0.05766 0.49075 0.31963
 C2706 C 0.00253 0.48347 0.40915
 C2707 C 0.03409 0.48418 0.36690
 C2708 C 0.04062 0.48600 0.35158
 C2709 C 0.04942 0.48850 0.33414
 C2710 C 0.01664 0.48352 0.42311
 H2711 H -0.00289 0.48381 0.37994
 H2712 H 0.05701 0.48129 0.39615
 H2713 H 0.04752 0.48207 0.42847
 H2714 H -0.01269 0.48458 0.41258
 C2715 C 0.50886 -0.01654 -0.10945
 C2716 C 0.52857 -0.01746 -0.11405
 C2717 C 0.54240 -0.01872 -0.10009
 C2718 C 0.53675 -0.01824 -0.08167
 C2719 C 0.55927 -0.00938 -0.17986
 C2720 C 0.50312 -0.01618 -0.09090
 C2721 C 0.53511 -0.01586 -0.13285
 C2722 C 0.54183 -0.01405 -0.14810
 C2723 C 0.55086 -0.01159 -0.16543
 C2724 C 0.51709 -0.01651 -0.07682
 H2725 H 0.49800 -0.01553 -0.12015
 H2726 H 0.55768 -0.01947 -0.10343
 H2727 H 0.54788 -0.01868 -0.07120
 H2728 H 0.48790 -0.01475 -0.08760
 C2729 C 0.59681 0.55405 -0.02612
 C2730 C 0.61064 0.55110 -0.01229
 C2731 C 0.60689 0.53778 0.00175
 C2732 C 0.58924 0.52795 0.00236
 C2733 C 0.67461 0.59231 -0.00622
 C2734 C 0.57909 0.54413 -0.02559
 C2735 C 0.62827 0.56234 -0.01171
 C2736 C 0.64295 0.57175 -0.01043
 C2737 C 0.66008 0.58281 -0.00830
 C2738 C 0.57495 0.53124 -0.01111
 H2739 H 0.59952 0.56436 -0.03705
 H2740 H 0.61743 0.53534 0.01253
 H2741 H 0.58662 0.51809 0.01367
 H2742 H 0.56838 0.54710 -0.03609
 C2743 C 0.10558 1.03918 0.50313
 C2744 C 0.10978 1.05168 0.48854
 C2745 C 0.09630 1.05397 0.47428
 C2746 C 0.07850 1.04419 0.47490
 C2747 C 0.17412 1.09240 0.49388
 C2748 C 0.08786 1.02949 0.50382
 C2749 C 0.12751 1.06276 0.48891
 C2750 C 0.14229 1.07205 0.49002
 C2751 C 0.15952 1.08298 0.49196
 C2752 C 0.07393 1.03210 0.48989
 H2753 H 0.11585 1.03726 0.51424
 H2754 H 0.09935 1.06365 0.46292
 H2755 H 0.06808 1.04663 0.46402
 H2756 H 0.08492 1.02025 0.51553
 C2757 C 0.09867 -0.05249 1.02325
 C2758 C 0.11234 -0.04964 1.00924
 C2759 C 0.10852 -0.03623 0.99529
 C2760 C 0.09096 -0.02617 0.99498
 C2761 C 0.17598 -0.09160 1.00337
 C2762 C 0.08104 -0.04236 1.02300
 C2763 C 0.12988 -0.06106 1.00848
 C2764 C 0.14448 -0.07063 1.00719
 C2765 C 0.16151 -0.08191 1.00521
 C2766 C 0.07683 -0.02933 1.00865
 H2767 H 0.10142 -0.06286 1.03411
 H2768 H 0.11894 -0.03387 0.98437
 H2769 H 0.08828 -0.01623 0.98374
 H2770 H 0.07047 -0.04525 1.03366
 C2771 C 0.59888 0.44690 0.52351
 C2772 C 0.61256 0.44970 0.50949
 C2773 C 0.60877 0.46311 0.49554
 C2774 C 0.59123 0.47321 0.49522
 C2775 C 0.67615 0.40764 0.50373
 C2776 C 0.58128 0.45707 0.52325
 C2777 C 0.63008 0.43826 0.50875
 C2778 C 0.64467 0.42865 0.50749
 C2779 C 0.66169 0.41735 0.50554
 C2780 C 0.57710 0.47010 0.50889
 H2781 H 0.60162 0.43653 0.53438
 H2782 H 0.61920 0.46544 0.48462
 H2783 H 0.58858 0.48314 0.48397
 H2784 H 0.57071 0.45421 0.53392
 C2785 C -0.10102 0.44501 0.47527
 C2786 C -0.11460 0.44788 0.48937
 C2787 C -0.11073 0.46137 0.50324
 C2788 C -0.09321 0.47145 0.50342
 C2789 C -0.17806 0.40573 0.49532
 C2790 C -0.08342 0.45517 0.47538
 C2791 C -0.13209 0.43643 0.49028
 C2792 C -0.14665 0.42682 0.49166
 C2793 C -0.16363 0.41549 0.49364
 C2794 C -0.07915 0.46825 0.48969
 H2795 H -0.10381 0.43458 0.46445
 H2796 H -0.12109 0.46376 0.51422
 H2797 H -0.09048 0.48144 0.51462
 H2798 H -0.07290 0.45224 0.46468
 C2799 C 0.39887 -0.05426 -0.02524
 C2800 C 0.38523 -0.05127 -0.01122
 C2801 C 0.38906 -0.03771 0.00260
 C2802 C 0.40662 -0.02768 0.00281
 C2803 C 0.32177 -0.09340 -0.00519
 C2804 C 0.41651 -0.04416 -0.02510
 C2805 C 0.36773 -0.06270 -0.01030
 C2806 C 0.35317 -0.07231 -0.00891
 C2807 C 0.33619 -0.08364 -0.00690
 C2808 C 0.42075 -0.03103 -0.01083
 H2809 H 0.39611 -0.06475 -0.03602
 H2810 H 0.37866 -0.03522 0.01351
 H2811 H 0.40933 -0.01766 0.01398
 H2812 H 0.42708 -0.04720 -0.03572
 C2813 C 0.39951 1.05662 0.52676
 C2814 C 0.38584 1.05363 0.51278
 C2815 C 0.38985 1.04039 0.49873
 C2816 C 0.40758 1.03068 0.49824
 C2817 C 0.32151 1.09446 0.50682
 C2818 C 0.41733 1.04682 0.52635
 C2819 C 0.36812 1.06476 0.51209
 C2820 C 0.35336 1.07407 0.51075
 C2821 C 0.33613 1.08502 0.50868
 C2822 C 0.42172 1.03402 0.51184
 H2823 H 0.39661 1.06687 0.53771
 H2824 H 0.37943 1.03791 0.48784
 H2825 H 0.41040 1.02088 0.48690
 H2826 H 0.42792 1.04984 0.53694
 C2827 C -0.11025 0.54007 0.99965
 C2828 C -0.11409 0.55361 1.01350
 C2829 C -0.10030 0.55680 1.02733
 C2830 C -0.08253 0.54693 1.02694
 C2831 C -0.17824 0.59468 1.00733
 C2832 C -0.09256 0.53029 0.99919
 C2833 C -0.13176 0.56482 1.01273
 C2834 C -0.14648 0.57419 1.01135
 C2835 C -0.16365 0.58520 1.00923
 C2836 C -0.07829 0.53385 1.01262
 H2837 H -0.12077 0.53743 0.98888
 H2838 H -0.10307 0.56728 1.03812
 H2839 H -0.07183 0.55012 1.03740
 H2840 H -0.08986 0.52028 0.98800
 C2841 C 0.03072 0.59786 0.54871
 C2842 C 0.02242 0.61408 0.54034
 C2843 C 0.00985 0.61181 0.52544
 C2844 C 0.00535 0.59331 0.51904
 C2845 C 0.02545 0.68114 0.57312
 C2846 C 0.02625 0.57933 0.54235
 C2847 C 0.02524 0.63288 0.54815
 C2848 C 0.02652 0.64847 0.55535
 C2849 C 0.02662 0.66632 0.56456
 C2850 C 0.01334 0.57685 0.52757
 H2851 H 0.04032 0.59952 0.56038
 H2852 H 0.00320 0.62431 0.51903
 H2853 H -0.00457 0.59192 0.50759
 H2854 H 0.03278 0.56698 0.54912
 C2855 C 0.53173 0.09695 0.04957
 C2856 C 0.52372 0.11333 0.04123
 C2857 C 0.51127 0.11133 0.02621
 C2858 C 0.50660 0.09294 0.01964
 C2859 C 0.52693 0.18030 0.07416
 C2860 C 0.52709 0.07853 0.04304
 C2861 C 0.52668 0.13203 0.04920
 C2862 C 0.52803 0.14758 0.05648
 C2863 C 0.52814 0.16543 0.06569
 C2864 C 0.51428 0.07632 0.02813
 H2865 H 0.54123 0.09840 0.06134
 H2866 H 0.50484 0.12397 0.01982
 H2867 H 0.49677 0.09177 0.00810
 H2868 H 0.53339 0.06605 0.04979
 C2869 C -0.01101 0.11513 0.97472
 C2870 C -0.02308 0.11779 0.95952
 C2871 C -0.03144 0.10183 0.95077
 C2872 C -0.02746 0.08315 0.95702
 C2873 C -0.02357 0.18506 0.92705
 C2874 C -0.00701 0.09648 0.98101
 C2875 C -0.02524 0.13671 0.95177
 C2876 C -0.02592 0.15237 0.94464
 C2877 C -0.02530 0.17025 0.93552
 C2878 C -0.01499 0.08026 0.97207
 H2879 H -0.00432 0.12743 0.98144
 H2880 H -0.04066 0.10379 0.93886
 H2881 H -0.03397 0.07099 0.94992
 H2882 H 0.00258 0.09478 0.99268
 C2883 C 0.48956 0.61482 0.47532
 C2884 C 0.47743 0.61756 0.46017
 C2885 C 0.46899 0.60164 0.45142
 C2886 C 0.47293 0.58293 0.45761
 C2887 C 0.47678 0.68474 0.42754
 C2888 C 0.49353 0.59614 0.48155
 C2889 C 0.47529 0.63650 0.45245
 C2890 C 0.47459 0.65214 0.44531
 C2891 C 0.47514 0.66999 0.43612
 C2892 C 0.48547 0.57997 0.47261
 H2893 H 0.49632 0.62709 0.48203
 H2894 H 0.45972 0.60366 0.43955
 H2895 H 0.46635 0.57081 0.45052
 H2896 H 0.50317 0.59439 0.49318
 C2897 C 0.53025 0.90780 0.44585
 C2898 C 0.52262 0.89122 0.45414
 C2899 C 0.51100 0.89282 0.46981
 C2900 C 0.50672 0.91101 0.47706
 C2901 C 0.52163 0.82454 0.42071
 C2902 C 0.52602 0.92605 0.45309
 C2903 C 0.52491 0.87271 0.44556
 C2904 C 0.52540 0.85724 0.43805
 C2905 C 0.52419 0.83942 0.42889
 C2906 C 0.51399 0.92786 0.46864
 H2907 H 0.53909 0.90666 0.43358
 H2908 H 0.50486 0.88002 0.47617
 H2909 H 0.49752 0.91186 0.48910
 H2910 H 0.53197 0.93871 0.44637
 C2911 C 0.03103 0.40737 0.94761
 C2912 C 0.02346 0.39083 0.95602
 C2913 C 0.01180 0.39252 0.97166
 C2914 C 0.00742 0.41076 0.97874
 C2915 C 0.02237 0.32438 0.92224
 C2916 C 0.02669 0.42566 0.95468
 C2917 C 0.02574 0.37230 0.94749
 C2918 C 0.02622 0.35685 0.93994
 C2919 C 0.02498 0.33912 0.93062
 C2920 C 0.01460 0.42756 0.97018
 H2921 H 0.03990 0.40616 0.93536
 H2922 H 0.00570 0.37975 0.97810
 H2923 H -0.00183 0.41168 0.99075
 H2924 H 0.03259 0.43829 0.94786
 C2925 C 0.46889 0.40254 0.05306
 C2926 C 0.47664 0.38627 0.04428
 C2927 C 0.48763 0.38838 0.02827
 C2928 C 0.49125 0.40678 0.02121
 C2929 C 0.48101 0.31982 0.07778
 C2930 C 0.47245 0.42099 0.04602
 C2931 C 0.47532 0.36765 0.05278
 C2932 C 0.47566 0.35219 0.06028
 C2933 C 0.47778 0.33450 0.06951
 C2934 C 0.48394 0.42332 0.03017
 H2935 H 0.46054 0.40100 0.06560
 H2936 H 0.49387 0.37583 0.02152
 H2937 H 0.50004 0.40803 0.00893
 H2938 H 0.46650 0.43341 0.05317
 C2939 C -0.03186 0.90414 0.55543
 C2940 C -0.02412 0.88771 0.54690
 C2941 C -0.01295 0.88956 0.53097
 C2942 C -0.00919 0.90784 0.52371
 C2943 C -0.02042 0.82097 0.57990
 C2944 C -0.02816 0.92248 0.54818
 C2945 C -0.02574 0.86916 0.55547
 C2946 C -0.02560 0.85365 0.56291
 C2947 C -0.02361 0.83582 0.57190
 C2948 C -0.01654 0.92454 0.53237
 H2949 H -0.04034 0.90280 0.56791
 H2950 H -0.00673 0.87690 0.52442
 H2951 H -0.00031 0.90888 0.51147
 H2952 H -0.03414 0.93503 0.55510
 C2953 C 0.26687 0.29265 0.14870
 C2954 C 0.26510 0.27857 0.13499
 C2955 C 0.26438 0.25892 0.13988
 C2956 C 0.26476 0.25350 0.15851
 C2957 C 0.25491 0.30917 0.06954
 C2958 C 0.26712 0.28732 0.16718
 C2959 C 0.26282 0.28483 0.11619
 C2960 C 0.26050 0.29148 0.10099
 C2961 C 0.25750 0.30057 0.08379
 C2962 C 0.26563 0.26773 0.17236
 H2963 H 0.26748 0.30787 0.14511
 H2964 H 0.26298 0.24788 0.12938
 H2965 H 0.26351 0.23833 0.16209
 H2966 H 0.26798 0.29864 0.17747
 C2967 C 0.76716 0.79253 0.64893
 C2968 C 0.76541 0.77841 0.63525
 C2969 C 0.76480 0.75877 0.64019
 C2970 C 0.76527 0.75339 0.65882
 C2971 C 0.75480 0.80870 0.56972
 C2972 C 0.76749 0.78724 0.66743
 C2973 C 0.76303 0.78462 0.61644
 C2974 C 0.76061 0.79120 0.60123
 C2975 C 0.75750 0.80019 0.58400
 C2976 C 0.76611 0.76766 0.67264
 H2977 H 0.76769 0.80775 0.64532
 H2978 H 0.76342 0.74770 0.62970
 H2979 H 0.76409 0.73822 0.66243
 H2980 H 0.76833 0.79858 0.67770
 C2981 C 0.23507 0.70491 0.65145
 C2982 C 0.23450 0.71900 0.63766
 C2983 C 0.23404 0.73867 0.64253
 C2984 C 0.23479 0.74416 0.66113
 C2985 C 0.24119 0.68976 0.57111
 C2986 C 0.23592 0.71033 0.66992
 C2987 C 0.23559 0.71288 0.61870
 C2988 C 0.23705 0.70653 0.60327
 C2989 C 0.23919 0.69792 0.58570
 C2990 C 0.23621 0.73001 0.67500
 H2991 H 0.23539 0.68967 0.64790
 H2992 H 0.23363 0.74972 0.63197
 H2993 H 0.23508 0.75942 0.66459
 H2994 H 0.23685 0.69904 0.68022
 C2995 C 0.73505 0.20414 0.15179
 C2996 C 0.73455 0.21822 0.13799
 C2997 C 0.73412 0.23789 0.14283
 C2998 C 0.73484 0.24341 0.16143
 C2999 C 0.74144 0.18893 0.07147
 C3000 C 0.73589 0.20958 0.17025
 C3001 C 0.73569 0.21207 0.11903
 C3002 C 0.73720 0.20571 0.10361
 C3003 C 0.73939 0.19709 0.08606
 C3004 C 0.73621 0.22927 0.17532
 H3005 H 0.73536 0.18889 0.14826
 H3006 H 0.73375 0.24893 0.13226
 H3007 H 0.73516 0.25866 0.16487
 H3008 H 0.73678 0.19830 0.18057
 C3009 C 0.76717 0.23756 0.85821
 C3010 C 0.76667 0.21792 0.86314
 C3011 C 0.76681 0.20374 0.84941
 C3012 C 0.76664 0.20904 0.83090
 C3013 C 0.75714 0.18986 0.92983
 C3014 C 0.76711 0.24293 0.83958
 C3015 C 0.76476 0.21195 0.88209
 C3016 C 0.76262 0.20584 0.89752
 C3017 C 0.75973 0.19760 0.91514
 C3018 C 0.76635 0.22869 0.82572
 H3019 H 0.76704 0.24868 0.86873
 H3020 H 0.76645 0.18852 0.85302
 H3021 H 0.76619 0.19769 0.82061
 H3022 H 0.76679 0.25817 0.83605
 C3023 C 0.26687 0.73839 0.35785
 C3024 C 0.26634 0.71875 0.36276
 C3025 C 0.26639 0.70460 0.34900
 C3026 C 0.26615 0.70993 0.33050
 C3027 C 0.25695 0.69062 0.42945
 C3028 C 0.26674 0.74380 0.33922
 C3029 C 0.26449 0.71276 0.38170
 C3030 C 0.26239 0.70663 0.39714
 C3031 C 0.25953 0.69838 0.41476
 C3032 C 0.26588 0.72959 0.32535
 H3033 H 0.26681 0.74950 0.36838
 H3034 H 0.26601 0.68937 0.35259
 H3035 H 0.26563 0.69859 0.32020
 H3036 H 0.26644 0.75904 0.33571
 C3037 C 0.73379 0.75778 0.35908
 C3038 C 0.73326 0.77748 0.36381
 C3039 C 0.73245 0.79146 0.34994
 C3040 C 0.73295 0.78595 0.33150
 C3041 C 0.74060 0.80777 0.42982
 C3042 C 0.73418 0.75217 0.34050
 C3043 C 0.73468 0.78384 0.38267
 C3044 C 0.73633 0.79045 0.39797
 C3045 C 0.73859 0.79939 0.41536
 C3046 C 0.73424 0.76627 0.32652
 H3047 H 0.73444 0.74681 0.36971
 H3048 H 0.73199 0.80673 0.35339
 H3049 H 0.73280 0.79718 0.32110
 H3050 H 0.73525 0.73694 0.33710
 C3051 C 0.23396 0.25824 0.85932
 C3052 C 0.23316 0.27795 0.86400
 C3053 C 0.23206 0.29187 0.85009
 C3054 C 0.23255 0.28631 0.83166
 C3055 C 0.24077 0.30854 0.92985
 C3056 C 0.23433 0.25259 0.84075
 C3057 C 0.23467 0.28440 0.88282
 C3058 C 0.23638 0.29108 0.89809
 C3059 C 0.23870 0.30010 0.91543
 C3060 C 0.23412 0.26665 0.82674
 H3061 H 0.23484 0.24732 0.86998
 H3062 H 0.23140 0.30715 0.85350
 H3063 H 0.23218 0.29751 0.82123
 H3064 H 0.23562 0.23736 0.83739
 C3065 C 0.80489 0.34694 0.77508
 C3066 C 0.80184 0.36079 0.76127
 C3067 C 0.78839 0.35707 0.74735
 C3068 C 0.77849 0.33943 0.74685
 C3069 C 0.84300 0.42491 0.75551
 C3070 C 0.79491 0.32923 0.77464
 C3071 C 0.81308 0.37844 0.76067
 C3072 C 0.82248 0.39316 0.75943
 C3073 C 0.83351 0.41033 0.75743
 C3074 C 0.78184 0.32513 0.76030
 H3075 H 0.81529 0.34962 0.78592
 H3076 H 0.78586 0.36763 0.73660
 H3077 H 0.76850 0.33685 0.73564
 H3078 H 0.79795 0.31852 0.78513
 C3079 C 0.30458 0.84781 0.27458
 C3080 C 0.30142 0.86170 0.26083
 C3081 C 0.28785 0.85801 0.24701
 C3082 C 0.27794 0.84038 0.24654
 C3083 C 0.34253 0.92582 0.25483
 C3084 C 0.29460 0.83011 0.27419
 C3085 C 0.31265 0.87935 0.26017
 C3086 C 0.32204 0.89406 0.25888
 C3087 C 0.33306 0.91124 0.25681
 C3088 C 0.28141 0.82604 0.25993
 H3089 H 0.31509 0.85046 0.28535
 H3090 H 0.28525 0.86860 0.23629
 H3091 H 0.26787 0.83783 0.23540
 H3092 H 0.29771 0.81937 0.28463
 C3093 C 0.19771 0.84790 0.72588
 C3094 C 0.20046 0.86171 0.73980
 C3095 C 0.21388 0.85809 0.75377
 C3096 C 0.22406 0.84060 0.75421
 C3097 C 0.15822 0.92515 0.74544
 C3098 C 0.20795 0.83035 0.72626
 C3099 C 0.18893 0.87917 0.74044
 C3100 C 0.17928 0.89372 0.74166
 C3101 C 0.16793 0.91071 0.74361
 C3102 C 0.22099 0.82634 0.74064
 H3103 H 0.18732 0.85050 0.71500
 H3104 H 0.21617 0.86863 0.76461
 H3105 H 0.23400 0.83808 0.76546
 H3106 H 0.20514 0.81966 0.71567
 C3107 C 0.71384 0.35735 0.25410
 C3108 C 0.70042 0.36097 0.24013
 C3109 C 0.69766 0.34717 0.22622
 C3110 C 0.70789 0.32960 0.22659
 C3111 C 0.65830 0.42451 0.24574
 C3112 C 0.72400 0.33985 0.25454
 C3113 C 0.68892 0.37846 0.24076
 C3114 C 0.67929 0.39303 0.24198
 C3115 C 0.66798 0.41004 0.24391
 C3116 C 0.72094 0.32559 0.24098
 H3117 H 0.71613 0.36789 0.26494
 H3118 H 0.68728 0.34977 0.21533
 H3119 H 0.70508 0.31892 0.21601
 H3120 H 0.73395 0.33733 0.26580
 C3121 C 0.69572 0.64815 0.27525
 C3122 C 0.69853 0.63454 0.26117
 C3123 C 0.71188 0.63841 0.24718
 C3124 C 0.72186 0.65600 0.24686
 C3125 C 0.65627 0.57115 0.25531
 C3126 C 0.70578 0.66581 0.27500
 C3127 C 0.68708 0.61704 0.26033
 C3128 C 0.67745 0.60250 0.25899
 C3129 C 0.66607 0.58555 0.25701
 C3130 C 0.71868 0.67011 0.26056
 H3131 H 0.68540 0.64535 0.28615
 H3132 H 0.71422 0.62803 0.23621
 H3133 H 0.73171 0.65875 0.23556
 H3134 H 0.70287 0.67638 0.28567
 C3135 C 0.19588 0.14855 0.77531
 C3136 C 0.19869 0.13495 0.76121
 C3137 C 0.21209 0.13882 0.74726
 C3138 C 0.22211 0.15639 0.74699
 C3139 C 0.15628 0.07168 0.75520
 C3140 C 0.20598 0.16618 0.77511
 C3141 C 0.18720 0.11749 0.76032
 C3142 C 0.17752 0.10297 0.75894
 C3143 C 0.16611 0.08605 0.75693
 C3144 C 0.21892 0.17048 0.76070
 H3145 H 0.18553 0.14575 0.78619
 H3146 H 0.21443 0.12845 0.73628
 H3147 H 0.23199 0.15913 0.73571
 H3148 H 0.20307 0.17674 0.78579
 C3149 C 0.29094 0.14127 0.25304
 C3150 C 0.30345 0.13678 0.23852
 C3151 C 0.30589 0.15008 0.22412
 C3152 C 0.29627 0.16800 0.22454
 C3153 C 0.34375 0.07198 0.24368
 C3154 C 0.28139 0.15911 0.25352
 C3155 C 0.31438 0.11891 0.23907
 C3156 C 0.32356 0.10404 0.24024
 C3157 C 0.33439 0.08670 0.24206
 C3158 C 0.28417 0.17287 0.23945
 H3159 H 0.28889 0.13113 0.26425
 H3160 H 0.31557 0.14681 0.21281
 H3161 H 0.29884 0.17829 0.21356
 H3162 H 0.27215 0.16228 0.26519
 C3163 C 0.80684 0.65025 0.72460
 C3164 C 0.80436 0.63691 0.73896
 C3165 C 0.79168 0.64129 0.75338
 C3166 C 0.78201 0.65907 0.75380
 C3167 C 0.84512 0.57242 0.74438
 C3168 C 0.79709 0.66810 0.72496
 C3169 C 0.81542 0.61913 0.73959
 C3170 C 0.82471 0.60433 0.74082
 C3171 C 0.83566 0.58707 0.74271
 C3172 C 0.78484 0.67287 0.73978
 H3173 H 0.81665 0.64705 0.71336
 H3174 H 0.78960 0.63113 0.76456
 H3175 H 0.77265 0.66217 0.76540
 H3176 H 0.79971 0.67842 0.71402
 C3177 C 0.84502 0.78103 0.19757
 C3178 C 0.86157 0.77315 0.20568
 C3179 C 0.85992 0.76085 0.22086
 C3180 C 0.84170 0.75621 0.22782
 C3181 C 0.92872 0.77640 0.17309
 C3182 C 0.82676 0.77642 0.20450
 C3183 C 0.88013 0.77619 0.19746
 C3184 C 0.89566 0.77756 0.19016
 C3185 C 0.91362 0.77766 0.18117
 C3186 C 0.82490 0.76378 0.21959
 H3187 H 0.84620 0.79043 0.18569
 H3188 H 0.87270 0.75454 0.22708
 H3189 H 0.84079 0.74650 0.23949
 H3190 H 0.81413 0.78262 0.19793
 C3191 C 0.36028 0.26171 0.72175
 C3192 C 0.36197 0.27407 0.70663
 C3193 C 0.34543 0.28189 0.69844
 C3194 C 0.32715 0.27716 0.70523
 C3195 C 0.42917 0.27755 0.67420
 C3196 C 0.34203 0.25694 0.72858
 C3197 C 0.38056 0.27721 0.69851
 C3198 C 0.39611 0.27865 0.69127
 C3199 C 0.41408 0.27880 0.68230
 C3200 C 0.32525 0.26445 0.72027
 H3201 H 0.37304 0.25544 0.72804
 H3202 H 0.34664 0.29134 0.68659
 H3203 H 0.31453 0.28332 0.69861
 H3204 H 0.34110 0.24719 0.74022
 C3205 C 0.36629 0.74031 0.77471
 C3206 C 0.36918 0.72843 0.79001
 C3207 C 0.35337 0.72002 0.79897
 C3208 C 0.33461 0.72375 0.79280
 C3209 C 0.43663 0.72840 0.82204
 C3210 C 0.34757 0.74407 0.76850
 C3211 C 0.38817 0.72648 0.79761
 C3212 C 0.40388 0.72595 0.80461
 C3213 C 0.42181 0.72666 0.81361
 C3214 C 0.33150 0.73602 0.77763
 H3215 H 0.37848 0.74704 0.76783
 H3216 H 0.35551 0.71095 0.81096
 H3217 H 0.32258 0.71720 0.80004
 H3218 H 0.34571 0.75350 0.75674
 C3219 C 0.86647 0.24025 0.27489
 C3220 C 0.86945 0.22844 0.29023
 C3221 C 0.85370 0.21994 0.29920
 C3222 C 0.83492 0.22348 0.29301
 C3223 C 0.93687 0.22893 0.32234
 C3224 C 0.84773 0.24382 0.26866
 C3225 C 0.88845 0.22669 0.29785
 C3226 C 0.90415 0.22629 0.30487
 C3227 C 0.92207 0.22713 0.31389
 C3228 C 0.83172 0.23568 0.27780
 H3229 H 0.87861 0.24705 0.26800
 H3230 H 0.85590 0.21092 0.31122
 H3231 H 0.82293 0.21686 0.30027
 H3232 H 0.84580 0.25320 0.25687
 C3233 C 0.15911 0.28409 0.30419
 C3234 C 0.14239 0.27669 0.29597
 C3235 C 0.14378 0.26473 0.28052
 C3236 C 0.16188 0.25989 0.27341
 C3237 C 0.07596 0.27594 0.32954
 C3238 C 0.17726 0.27931 0.29708
 C3239 C 0.12395 0.27939 0.30455
 C3240 C 0.10851 0.28005 0.31208
 C3241 C 0.09074 0.27878 0.32130
 C3242 C 0.17885 0.26693 0.28175
 H3243 H 0.15812 0.29318 0.31632
 H3244 H 0.13088 0.25874 0.27424
 H3245 H 0.16256 0.25044 0.26152
 H3246 H 0.19003 0.28510 0.30374
 C3247 C 0.64403 0.76436 0.78036
 C3248 C 0.64253 0.77627 0.79585
 C3249 C 0.65918 0.78368 0.80417
 C3250 C 0.67739 0.77896 0.79713
 C3251 C 0.57586 0.77550 0.82902
 C3252 C 0.66218 0.75959 0.77333
 C3253 C 0.62403 0.77892 0.80432
 C3254 C 0.60854 0.77956 0.81176
 C3255 C 0.59069 0.77830 0.82087
 C3256 C 0.67908 0.76664 0.78177
 H3257 H 0.63117 0.75837 0.77400
 H3258 H 0.65811 0.79272 0.81632
 H3259 H 0.69011 0.78476 0.80387
 H3260 H 0.66293 0.75018 0.76142
 C3261 C 0.63762 0.23761 0.72536
 C3262 C 0.63496 0.22634 0.70960
 C3263 C 0.65091 0.21839 0.70046
 C3264 C 0.66958 0.22206 0.70686
 C3265 C 0.56847 0.23095 0.67643
 C3266 C 0.65625 0.24132 0.73179
 C3267 C 0.61613 0.22506 0.70156
 C3268 C 0.60060 0.22545 0.69422
 C3269 C 0.58296 0.22765 0.68495
 C3270 C 0.67246 0.23386 0.72242
 H3271 H 0.62533 0.24403 0.73236
 H3272 H 0.64894 0.20985 0.68809
 H3273 H 0.68173 0.21596 0.69942
 H3274 H 0.65794 0.25036 0.74386
 C3275 C 0.13671 0.73922 0.22557
 C3276 C 0.13391 0.72786 0.20989
 C3277 C 0.14977 0.71980 0.20071
 C3278 C 0.16850 0.72342 0.20699
 C3279 C 0.06721 0.73218 0.17703
 C3280 C 0.15539 0.74289 0.23188
 C3281 C 0.11502 0.72656 0.20197
 C3282 C 0.09944 0.72689 0.19472
 C3283 C 0.08175 0.72898 0.18552
 C3284 C 0.17151 0.73529 0.22248
 H3285 H 0.12448 0.74572 0.23260
 H3286 H 0.14770 0.71117 0.18840
 H3287 H 0.18058 0.71721 0.19954
 H3288 H 0.15718 0.75198 0.24391
   
