data_POSCAR
  _audit_creation_date              2014-09-24
  _audit_creation_method            'ToBaCCo'
  _symmetry_space_group_name_H-M    'P1'
  _symmetry_Int_Tables_number       1
  _symmetry_cell_setting            triclinic
  loop_
  _symmetry_equiv_pos_as_xyz
 x,y,z
_cell_length_a 60.7934
_cell_length_b 55.1904
_cell_length_c 59.5148
_cell_angle_alpha 90.056000
_cell_angle_beta 90.479100
_cell_angle_gamma 90.924000
loop_
  _atom_site_label
  _atom_site_type_symbol
  _atom_site_fract_x
  _atom_site_fract_y
  _atom_site_fract_z
C1 C 0.30904 0.45274 0.90238
 C2 C 0.30039 0.44586 0.92341
 C3 C 0.30911 0.45637 0.94270
 C4 C 0.32708 0.47228 0.94170
 C5 C 0.33659 0.47779 0.92144
 C6 C 0.32716 0.46844 0.90161
 C7 C 0.30395 0.44653 0.88037
 N8 N 0.31850 0.45809 0.86666
 C9 C 0.33288 0.47111 0.87957
 C10 C 0.35654 0.48920 0.92616
 N11 N 0.35915 0.49038 0.94890
 C12 C 0.34087 0.48054 0.95836
 C13 C 0.30040 0.44466 0.96076
 N14 N 0.28688 0.42662 0.95339
 C15 C 0.28652 0.42715 0.93049
 H16 H 0.29061 0.43472 0.87476
 H17 H 0.34616 0.48247 0.87335
 H18 H 0.36888 0.49435 0.91398
 H19 H 0.33855 0.47712 0.97607
 H20 H 0.30549 0.44750 0.97805
 H21 H 0.27825 0.41387 0.91987
 C22 C 0.43310 0.83130 0.43054
 C23 C 0.42057 0.81180 0.43954
 C24 C 0.41746 0.79090 0.42684
 C25 C 0.42592 0.78918 0.40523
 C26 C 0.43805 0.80810 0.39644
 C27 C 0.44180 0.82910 0.40918
 C28 C 0.43995 0.85388 0.43852
 N29 N 0.45270 0.86491 0.42258
 C30 C 0.45363 0.84977 0.40463
 C31 C 0.44383 0.80156 0.37502
 N32 N 0.43523 0.77916 0.37063
 C33 C 0.42430 0.77140 0.38910
 C34 C 0.40529 0.77476 0.43909
 N35 N 0.40048 0.78506 0.45901
 C36 C 0.40952 0.80782 0.45957
 H37 H 0.43640 0.86133 0.45490
 H38 H 0.46239 0.85323 0.38919
 H39 H 0.45318 0.81256 0.36333
 H40 H 0.41558 0.75424 0.39064
 H41 H 0.39977 0.75693 0.43362
 H42 H 0.40814 0.82042 0.47342
 C43 C 0.94346 0.90344 0.79979
 C44 C 0.92165 0.91064 0.79630
 C45 C 0.91344 0.92996 0.80823
 C46 C 0.92683 0.94208 0.82403
 C47 C 0.94807 0.93450 0.82798
 C48 C 0.95655 0.91535 0.81550
 C49 C 0.95600 0.88562 0.79035
 N50 N 0.97646 0.88662 0.79985
 C51 C 0.97685 0.90480 0.81528
 C52 C 0.95683 0.94873 0.84492
 N53 N 0.94154 0.96513 0.85095
 C54 C 0.92318 0.96125 0.83815
 C55 C 0.89186 0.93277 0.80164
 N56 N 0.88676 0.91551 0.78609
 C57 C 0.90491 0.90195 0.78270
 H58 H 0.95056 0.87297 0.77749
 H59 H 0.99073 0.91002 0.82579
 H60 H 0.97321 0.94744 0.85204
 H61 H 0.90799 0.97109 0.83938
 H62 H 0.88064 0.94614 0.80795
 H63 H 0.90595 0.88677 0.77126
 C64 C 0.40831 -0.07272 0.30949
 C65 C 0.39528 -0.05241 0.31216
 C66 C 0.40360 -0.03217 0.32289
 C67 C 0.42520 -0.03213 0.33122
 C68 C 0.43835 -0.05238 0.32877
 C69 C 0.42980 -0.07305 0.31733
 C70 C 0.40426 -0.09349 0.29781
 N71 N 0.42274 -0.10694 0.29753
 C72 C 0.43856 -0.09473 0.30970
 C73 C 0.45856 -0.04638 0.33845
 N74 N 0.45775 -0.02315 0.34612
 C75 C 0.43752 -0.01440 0.34167
 C76 C 0.38776 -0.01462 0.32149
 N77 N 0.37020 -0.02388 0.30986
 C78 C 0.37468 -0.04703 0.30414
 H79 H 0.38889 -0.09766 0.28931
 H80 H 0.45537 -0.10050 0.31195
 H81 H 0.47278 -0.05788 0.33966
 H82 H 0.43204 0.00355 0.34609
 H83 H 0.38930 0.00377 0.32768
 H84 H 0.36399 -0.05893 0.29435
 C85 C 0.80476 0.31729 0.35366
 C86 C 0.79320 0.32843 0.33605
 C87 C 0.79914 0.32407 0.31396
 C88 C 0.81695 0.30902 0.30924
 C89 C 0.82839 0.29847 0.32667
 C90 C 0.82230 0.30259 0.34885
 C91 C 0.80146 0.31583 0.37652
 N92 N 0.81662 0.30062 0.38538
 C93 C 0.82955 0.29270 0.36857
 C94 C 0.84461 0.28465 0.31758
 N95 N 0.84356 0.28668 0.29491
 C96 C 0.82659 0.30147 0.28958
 C97 C 0.78451 0.33607 0.30042
 N98 N 0.77009 0.34784 0.31368
 C99 C 0.77524 0.34340 0.33549
 H100 H 0.78836 0.32421 0.38578
 H101 H 0.84233 0.27939 0.37023
 H102 H 0.85653 0.27423 0.32689
 H103 H 0.82178 0.30668 0.27275
 H104 H 0.78434 0.33627 0.28223
 H105 H 0.76630 0.35015 0.34980
 C106 C -0.17360 0.80326 0.80428
 C107 C -0.15185 0.79589 0.80603
 C108 C -0.14462 0.78418 0.82500
 C109 C -0.15927 0.77984 0.84264
 C110 C -0.18070 0.78822 0.84163
 C111 C -0.18801 0.80034 0.82204
 C112 C -0.18493 0.81263 0.78652
 N113 N -0.20592 0.81637 0.79285
 C114 C -0.20809 0.80935 0.81471
 C115 C -0.19092 0.78035 0.86114
 N116 N -0.17636 0.76695 0.87326
 C117 C -0.15701 0.76684 0.86203
 C118 C -0.12259 0.77939 0.82197
 N119 N -0.11648 0.78851 0.80172
 C120 C -0.13437 0.79835 0.79179
 H121 H -0.17835 0.81640 0.77000
 H122 H -0.22333 0.80930 0.82399
 H123 H -0.20797 0.78300 0.86548
 H124 H -0.14222 0.75775 0.86734
 H125 H -0.11169 0.77080 0.83390
 H126 H -0.13460 0.80711 0.77552
 C127 C 0.94719 0.33773 0.44470
 C128 C 0.94258 0.31925 0.42899
 C129 C 0.93015 0.29902 0.43536
 C130 C 0.92279 0.29656 0.45762
 C131 C 0.92821 0.31431 0.47309
 C132 C 0.93987 0.33503 0.46652
 C133 C 0.95357 0.36183 0.44226
 N134 N 0.94911 0.37358 0.46177
 C135 C 0.94129 0.35713 0.47669
 C136 C 0.91695 0.30939 0.49244
 N137 N 0.90454 0.28907 0.48932
 C138 C 0.90784 0.28104 0.46798
 C139 C 0.92556 0.28597 0.41619
 N140 N 0.93511 0.29740 0.39849
 C141 C 0.94548 0.31780 0.40605
 H142 H 0.95794 0.37067 0.42665
 H143 H 0.93523 0.36122 0.49330
 H144 H 0.91657 0.32090 0.50717
 H145 H 0.89916 0.26590 0.46022
 H146 H 0.91560 0.26958 0.41512
 H147 H 0.95365 0.33110 0.39552
 C148 C 0.45149 0.43248 0.82869
 C149 C 0.45437 0.40859 0.82148
 C150 C 0.44363 0.40018 0.80241
 C151 C 0.42970 0.41566 0.79039
 C152 C 0.42646 0.43914 0.79784
 C153 C 0.43748 0.44765 0.81718
 C154 C 0.46012 0.44531 0.84650
 N155 N 0.45162 0.46796 0.84635
 C156 C 0.43760 0.46952 0.82848
 C157 C 0.41150 0.44957 0.78346
 N158 N 0.40576 0.43309 0.76742
 C159 C 0.41682 0.41234 0.77150
 C160 C 0.44926 0.37622 0.79975
 N161 N 0.46301 0.36999 0.81686
 C162 C 0.46622 0.38973 0.83020
 H163 H 0.47156 0.43832 0.85882
 H164 H 0.42833 0.48535 0.82383
 H165 H 0.40512 0.46772 0.78469
 H166 H 0.41518 0.39578 0.76184
 H167 H 0.44350 0.36415 0.78654
 H168 H 0.47638 0.39039 0.84521
 C169 C 0.81040 0.91113 0.93113
 C170 C 0.80151 0.92219 0.91215
 C171 C 0.80921 0.94471 0.90529
 C172 C 0.82568 0.95677 0.91799
 C173 C 0.83419 0.94577 0.93700
 C174 C 0.82674 0.92269 0.94342
 C175 C 0.80721 0.88854 0.94019
 N176 N 0.82145 0.88593 0.95768
 C177 C 0.83344 0.90684 0.95984
 C178 C 0.85024 0.96084 0.94569
 N179 N 0.85195 0.98085 0.93247
 C180 C 0.83698 0.97849 0.91540
 C181 C 0.79873 0.94967 0.88518
 N182 N 0.78494 0.93075 0.88010
 C183 C 0.78651 0.91398 0.89655
 H184 H 0.79583 0.87479 0.93392
 H185 H 0.84639 0.91024 0.97207
 H186 H 0.86019 0.95709 0.96040
 H187 H 0.83458 0.99135 0.90193
 H188 H 0.80132 0.96554 0.87479
 H189 H 0.77813 0.89653 0.89668
 C190 C 0.29994 0.83224 0.32603
 C191 C 0.30243 0.81207 0.33998
 C192 C 0.31475 0.79282 0.33294
 C193 C 0.32495 0.79360 0.31192
 C194 C 0.32289 0.81373 0.29813
 C195 C 0.30993 0.83328 0.30521
 C196 C 0.28754 0.85250 0.32833
 N197 N 0.28924 0.86609 0.30938
 C198 C 0.30315 0.85459 0.29514
 C199 C 0.33469 0.80897 0.27882
 N200 N 0.34333 0.78647 0.28070
 C201 C 0.33740 0.77701 0.30079
 C202 C 0.31395 0.77560 0.34964
 N203 N 0.30147 0.78404 0.36671
 C204 C 0.29429 0.80635 0.36089
 H205 H 0.27745 0.85642 0.34272
 H206 H 0.30740 0.86071 0.27843
 H207 H 0.33653 0.82074 0.26440
 H208 H 0.34197 0.75931 0.30694
 H209 H 0.32206 0.75829 0.34938
 H210 H 0.28392 0.81763 0.37109
 C211 C 0.80418 0.43525 0.45471
 C212 C 0.79541 0.44893 0.43717
 C213 C 0.80634 0.46944 0.42960
 C214 C 0.82622 0.47671 0.43990
 C215 C 0.83497 0.46318 0.45733
 C216 C 0.82382 0.44222 0.46483
 C217 C 0.79705 0.41426 0.46482
 N218 N 0.81181 0.40820 0.48097
 C219 C 0.82827 0.42520 0.48118
 C220 C 0.85451 0.47428 0.46367
 N221 N 0.85775 0.49426 0.45062
 C222 C 0.84044 0.49585 0.43609
 C223 C 0.79407 0.47862 0.41202
 N224 N 0.77594 0.46420 0.40917
 C225 C 0.77668 0.44605 0.42446
 H226 H 0.78217 0.40413 0.46067
 H227 H 0.84257 0.42505 0.49213
 H228 H 0.86551 0.46813 0.47678
 H229 H 0.83836 0.50958 0.42334
 H230 H 0.79791 0.49461 0.40219
 H231 H 0.76464 0.43150 0.42602
 C232 C 0.93034 0.83547 -0.04708
 C233 C 0.92350 0.81117 -0.04568
 C234 C 0.93231 0.79396 -0.05981
 C235 C 0.94835 0.80098 -0.07558
 C236 C 0.95560 0.82488 -0.07624
 C237 C 0.94645 0.84223 -0.06210
 C238 C 0.92387 0.85611 -0.03615
 N239 N 0.93575 0.87521 -0.04420
 C240 C 0.94971 0.86687 -0.06001
 C241 C 0.97138 0.82670 -0.09244
 N242 N 0.97380 0.80463 -0.10216
 C243 C 0.95964 0.78873 -0.09207
 C244 C 0.92243 0.77202 -0.05443
 N245 N 0.90803 0.77567 -0.03741
 C246 C 0.90858 0.79959 -0.03209
 H247 H 0.91139 0.85711 -0.02334
 H248 H 0.96105 0.87798 -0.06962
 H249 H 0.97996 0.84323 -0.09715
 H250 H 0.95792 0.76966 -0.09611
 H251 H 0.92556 0.75477 -0.06233
 H252 H 0.89881 0.80808 -0.01926
 C253 C 0.31913 0.31876 0.82623
 C254 C 0.31732 0.30591 0.84659
 C255 C 0.33300 0.28884 0.85206
 C256 C 0.35078 0.28474 0.83771
 C257 C 0.35284 0.29787 0.81811
 C258 C 0.33681 0.31460 0.81224
 C259 C 0.30481 0.33338 0.81444
 N260 N 0.31339 0.33753 0.79376
 C261 C 0.33293 0.32627 0.79238
 C262 C 0.37002 0.28839 0.80618
 N263 N 0.37818 0.26954 0.81794
 C264 C 0.36655 0.26710 0.83723
 C265 C 0.32584 0.27689 0.87090
 N266 N 0.30639 0.28630 0.87728
 C267 C 0.30096 0.30410 0.86259
 H268 H 0.28872 0.33904 0.81981
 H269 H 0.34310 0.32563 0.77755
 H270 H 0.37508 0.29358 0.78943
 H271 H 0.36869 0.25279 0.84945
 H272 H 0.33389 0.26183 0.87900
 H273 H 0.28569 0.31393 0.86275
 C274 C 0.17330 0.56714 0.53333
 C275 C 0.18593 0.58540 0.54441
 C276 C 0.20004 0.57899 0.56185
 C277 C 0.20200 0.55468 0.56833
 C278 C 0.18995 0.53702 0.55722
 C279 C 0.17580 0.54319 0.53971
 C280 C 0.15660 0.56709 0.51720
 N281 N 0.14957 0.54375 0.51387
 C282 C 0.16133 0.52923 0.52754
 C283 C 0.19350 0.51538 0.56787
 N284 N 0.20749 0.51940 0.58534
 C285 C 0.21299 0.54340 0.58569
 C286 C 0.20956 0.59984 0.57018
 N287 N 0.20208 0.61896 0.55822
 C288 C 0.18758 0.61043 0.54238
 H289 H 0.14975 0.58278 0.50899
 H290 H 0.15873 0.50988 0.52944
 H291 H 0.18584 0.49813 0.56360
 H292 H 0.22334 0.55219 0.59825
 H293 H 0.22144 0.60091 0.58381
 H294 H 0.17881 0.62157 0.53045
 C295 C 0.59410 0.70688 0.04284
 C296 C 0.57885 0.68724 0.04312
 C297 C 0.55890 0.68983 0.05411
 C298 C 0.55369 0.71178 0.06459
 C299 C 0.56828 0.73107 0.06349
 C300 C 0.58844 0.72858 0.05274
 C301 C 0.61597 0.70951 0.03646
 N302 N 0.62327 0.73217 0.04239
 C303 C 0.60636 0.74380 0.05215
 C304 C 0.56020 0.74935 0.07654
 N305 N 0.54105 0.74165 0.08583
 C306 C 0.53687 0.71860 0.07867
 C307 C 0.54827 0.66775 0.05376
 N308 N 0.56082 0.65174 0.04255
 C309 C 0.57963 0.66330 0.03602
 H310 H 0.62604 0.69563 0.02913
 H311 H 0.60715 0.76172 0.05948
 H312 H 0.56848 0.76644 0.08014
 H313 H 0.52316 0.70733 0.08403
 H314 H 0.53275 0.66338 0.06172
 H315 H 0.59327 0.65468 0.02780
 C316 C 0.68403 0.18618 0.68590
 C317 C 0.67373 0.18090 0.70629
 C318 C 0.67847 0.15968 0.71769
 C319 C 0.69354 0.14327 0.70856
 C320 C 0.70376 0.14881 0.68847
 C321 C 0.69901 0.17030 0.67713
 C322 C 0.68257 0.20537 0.67126
 N323 N 0.69641 0.20147 0.65389
 C324 C 0.70652 0.18003 0.65734
 C325 C 0.71749 0.13016 0.68340
 N326 N 0.71590 0.11315 0.69975
 C327 C 0.70124 0.12091 0.71526
 C328 C 0.66599 0.15964 0.73694
 N329 N 0.65386 0.18015 0.73730
 C330 C 0.65846 0.19319 0.71859
 H331 H 0.67230 0.22105 0.67325
 H332 H 0.71842 0.17202 0.64627
 H333 H 0.72765 0.12896 0.66861
 H334 H 0.69664 0.11112 0.73030
 H335 H 0.66553 0.14550 0.74952
 H336 H 0.65122 0.21037 0.71423
 C337 C 1.06709 0.04882 0.19480
 C338 C 1.05187 0.06434 0.20474
 C339 C 1.03356 0.07131 0.19267
 C340 C 1.03019 0.06310 0.17067
 C341 C 1.04499 0.04771 0.16082
 C342 C 1.06365 0.04047 0.17303
 C343 C 1.08731 0.04075 0.20175
 N344 N 1.09620 0.02769 0.18484
 C345 C 1.08185 0.02737 0.16723
 C346 C 1.03828 0.04447 0.13877
 N347 N 1.01993 0.05781 0.13511
 C348 C 1.01494 0.06916 0.15464
 C349 C 1.02274 0.08808 0.20529
 N350 N 1.03399 0.09164 0.22482
 C351 C 1.05187 0.07714 0.22471
 H352 H 1.09517 0.04456 0.21778
 H353 H 1.08482 0.01914 0.15104
 H354 H 1.04674 0.03409 0.12616
 H355 H 1.00153 0.08149 0.15711
 H356 H 1.00825 0.09780 0.20008
 H357 H 1.06453 0.07680 0.23758
 C358 C 0.08122 0.18200 1.06132
 C359 C 0.09180 0.20345 1.06766
 C360 C 0.08853 0.21359 1.08866
 C361 C 0.07443 0.20166 1.10394
 C362 C 0.06432 0.18001 1.09759
 C363 C 0.06753 0.17027 1.07621
 C364 C 0.07713 0.17254 1.04033
 N365 N 0.06112 0.15546 1.04220
 C366 C 0.05526 0.15370 1.06405
 C367 C 0.04959 0.17374 1.11381
 N368 N 0.05014 0.19086 1.13019
 C369 C 0.06536 0.20812 1.12436
 C370 C 0.09946 0.23580 1.08859
 N371 N 0.10908 0.23875 1.06816
 C372 C 0.10419 0.21918 1.05534
 H373 H 0.08295 0.17994 1.02457
 H374 H 0.04096 0.14375 1.07002
 H375 H 0.03853 0.15823 1.11289
 H376 H 0.06889 0.22461 1.13366
 H377 H 0.10036 0.24870 1.10228
 H378 H 0.10913 0.21660 1.03808
 C379 C 0.18671 0.69504 0.69854
 C380 C 0.20071 0.70519 0.68231
 C381 C 0.21694 0.69121 0.67295
 C382 C 0.21931 0.66701 0.67939
 C383 C 0.20570 0.65710 0.69551
 C384 C 0.18938 0.67121 0.70521
 C385 C 0.16857 0.70359 0.70953
 N386 N 0.16042 0.68557 0.72276
 C387 C 0.17304 0.66575 0.72023
 C388 C 0.21088 0.63302 0.69752
 N389 N 0.22720 0.62814 0.68284
 C390 C 0.23247 0.64882 0.67167
 C391 C 0.22723 0.70493 0.65690
 N392 N 0.21767 0.72698 0.65608
 C393 C 0.20139 0.72736 0.67158
 H394 H 0.16163 0.72143 0.70779
 H395 H 0.17008 0.64833 0.72807
 H396 H 0.20287 0.61988 0.70832
 H397 H 0.24469 0.65049 0.65863
 H398 H 0.24025 0.69888 0.64607
 H399 H 0.19040 0.74227 0.67438
 C400 C 1.16968 0.18250 0.19706
 C401 C 1.15363 0.19748 0.20614
 C402 C 1.14997 0.22024 0.19709
 C403 C 1.16291 0.22853 0.17898
 C404 C 1.17896 0.21370 0.17041
 C405 C 1.18221 0.19059 0.17932
 C406 C 1.17633 0.15937 0.20208
 N407 N 1.19262 0.15333 0.18772
 C408 C 1.19633 0.17238 0.17376
 C409 C 1.18926 0.22596 0.15338
 N410 N 1.17999 0.24807 0.15106
 C411 C 1.16374 0.24980 0.16664
 C412 C 1.13290 0.23012 0.20909
 N413 N 1.12655 0.21399 0.22517
 C414 C 1.13918 0.19407 0.22346
 H415 H 1.16979 0.14784 0.21520
 H416 H 1.20831 0.17300 0.16044
 H417 H 1.20254 0.21900 0.14340
 H418 H 1.15337 0.26533 0.16902
 H419 H 1.12567 0.24768 0.20637
 H420 H 1.13763 0.17797 0.23374
 C421 C 0.66822 1.03320 0.56552
 C422 C 0.68845 1.02454 0.57283
 C423 C 0.70734 1.03763 0.56853
 C424 C 0.70615 1.05993 0.55754
 C425 C 0.68614 1.06924 0.55074
 C426 C 0.66674 1.05518 0.55426
 C427 C 0.64760 1.02337 0.56723
 N428 N 0.63327 1.03823 0.55689
 C429 C 0.64463 1.05786 0.54888
 C430 C 0.69063 1.09258 0.54287
 N431 N 0.71278 1.09701 0.54467
 C432 C 0.72211 1.07690 0.55342
 C433 C 0.72443 1.02585 0.57880
 N434 N 0.71619 1.00602 0.58946
 C435 C 0.69415 1.00497 0.58586
 H436 H 0.64345 1.00604 0.57471
 H437 H 0.63742 1.07271 0.53969
 H438 H 0.67867 1.10544 0.53691
 H439 H 0.73924 1.07491 0.55796
 H440 H 0.74136 1.03219 0.57973
 H441 H 0.68301 0.99165 0.59305
 C442 C 0.55858 0.53653 0.16289
 C443 C 0.56488 0.53910 0.18547
 C444 C 0.56297 0.56128 0.19628
 C445 C 0.55413 0.58106 0.18466
 C446 C 0.54775 0.57829 0.16246
 C447 C 0.54999 0.55605 0.15159
 C448 C 0.55898 0.51741 0.14794
 N449 N 0.55060 0.52507 0.12801
 C450 C 0.54502 0.54865 0.13015
 C451 C 0.53910 0.59972 0.15539
 N452 N 0.53976 0.61561 0.17278
 C453 C 0.54904 0.60444 0.19081
 C454 C 0.57118 0.55849 0.21778
 N455 N 0.57748 0.53517 0.22015
 C456 C 0.57368 0.52320 0.20059
 H457 H 0.56476 0.49932 0.15134
 H458 H 0.53814 0.55978 0.11697
 H459 H 0.53215 0.60309 0.13893
 H460 H 0.55135 0.61246 0.20728
 H461 H 0.57273 0.57234 0.23061
 H462 H 0.57779 0.50449 0.19741
 C463 C 0.65002 0.69649 0.19705
 C464 C 0.66397 0.67654 0.20041
 C465 C 0.68414 0.67591 0.18949
 C466 C 0.69058 0.69486 0.17500
 C467 C 0.67684 0.71425 0.17203
 C468 C 0.65670 0.71503 0.18294
 C469 C 0.63013 0.70355 0.20609
 N470 N 0.62509 0.72579 0.19770
 C471 C 0.64128 0.73273 0.18353
 C472 C 0.68730 0.73083 0.15859
 N473 N 0.70716 0.72208 0.15292
 C474 C 0.70943 0.69997 0.16274
 C475 C 0.69521 0.65623 0.19771
 N476 N 0.68245 0.64474 0.21314
 C477 C 0.66324 0.65686 0.21486
 H478 H 0.62039 0.69359 0.21822
 H479 H 0.64196 0.74961 0.17431
 H480 H 0.68085 0.74808 0.15325
 H481 H 0.72382 0.68877 0.16144
 H482 H 0.71190 0.65135 0.19364
 H483 H 0.65046 0.65275 0.22689
 C484 C 0.15380 0.07934 1.05053
 C485 C 0.16686 0.09964 1.05730
 C486 C 0.18507 0.09612 1.07118
 C487 C 0.19089 0.07279 1.07807
 C488 C 0.17859 0.05308 1.07086
 C489 C 0.16001 0.05638 1.05722
 C490 C 0.13370 0.07639 1.03931
 N491 N 0.12794 0.05236 1.03932
 C492 C 0.14416 0.04023 1.05006
 C493 C 0.18707 0.03288 1.08111
 N494 N 0.20418 0.03987 1.09455
 C495 C 0.20664 0.06432 1.09285
 C496 C 0.19398 0.11842 1.07631
 N497 N 0.18215 0.13564 1.06573
 C498 C 0.16547 0.12451 1.05402
 H499 H 0.12361 0.09073 1.03267
 H500 H 0.14423 0.02098 1.05337
 H501 H 0.18046 0.01461 1.07975
 H502 H 0.21854 0.07521 1.10219
 H503 H 0.20819 0.12190 1.08700
 H504 H 0.15305 0.13381 1.04434
 C505 C 0.59918 0.20623 0.58034
 C506 C 0.58745 0.20538 0.60045
 C507 C 0.57070 0.18854 0.60318
 C508 C 0.56541 0.17238 0.58576
 C509 C 0.57715 0.17291 0.56589
 C510 C 0.59429 0.19001 0.56315
 C511 C 0.61501 0.22204 0.57268
 N512 N 0.62004 0.21575 0.55137
 C513 C 0.60760 0.19617 0.54527
 C514 C 0.56729 0.15622 0.55161
 N515 N 0.54985 0.14599 0.56236
 C516 C 0.54866 0.15569 0.58323
 C517 C 0.56166 0.19247 0.62396
 N518 N 0.57263 0.21130 0.63387
 C519 C 0.58839 0.21936 0.61954
 H520 H 0.62201 0.23742 0.58170
 H521 H 0.60759 0.18777 0.52882
 H522 H 0.57179 0.15260 0.53438
 H523 H 0.53618 0.15136 0.59553
 H524 H 0.54803 0.18245 0.63124
 H525 H 0.59972 0.23433 0.62265
 C526 C 0.10602 0.56376 0.68298
 C527 C 0.08820 0.57752 0.69017
 C528 C 0.07128 0.58317 0.67536
 C529 C 0.07185 0.57485 0.65300
 C530 C 0.08932 0.56096 0.64606
 C531 C 0.10640 0.55535 0.66111
 C532 C 0.12313 0.55295 0.69447
 N533 N 0.13352 0.53794 0.68012
 C534 C 0.12338 0.53926 0.65976
 C535 C 0.08399 0.55188 0.62518
 N536 N 0.06387 0.55996 0.61902
 C537 C 0.05621 0.57399 0.63592
 C538 C 0.05546 0.59485 0.68768
 N539 N 0.06235 0.59614 0.70944
 C540 C 0.08227 0.58552 0.71109
 H541 H 0.12649 0.55423 0.71233
 H542 H 0.12724 0.52817 0.64535
 H543 H 0.09319 0.53851 0.61600
 H544 H 0.03965 0.58085 0.63678
 H545 H 0.03985 0.60132 0.68143
 H546 H 0.09176 0.58361 0.72644
 C547 C 0.66095 0.53701 0.06466
 C548 C 0.66757 0.53526 0.08717
 C549 C 0.67858 0.55441 0.09730
 C550 C 0.68293 0.57554 0.08519
 C551 C 0.67625 0.57758 0.06301
 C552 C 0.66494 0.55814 0.05265
 C553 C 0.64959 0.52133 0.05082
 N554 N 0.64628 0.53245 0.03084
 C555 C 0.65541 0.55503 0.03171
 C556 C 0.68344 0.60003 0.05560
 N557 N 0.69419 0.61134 0.07288
 C558 C 0.69378 0.59649 0.09100
 C559 C 0.68249 0.54819 0.11928
 N560 N 0.67377 0.52577 0.12281
 C561 C 0.66465 0.51764 0.10325
 H562 H 0.64333 0.50350 0.05524
 H563 H 0.65473 0.56826 0.01831
 H564 H 0.68152 0.60727 0.03882
 H565 H 0.70156 0.60011 0.10709
 H566 H 0.69035 0.55950 0.13197
 H567 H 0.65622 0.50039 0.10095
 C568 C 0.07437 0.71835 0.58964
 C569 C 0.09022 0.72891 0.57549
 C570 C 0.09180 0.72114 0.55345
 C571 C 0.07767 0.70303 0.54518
 C572 C 0.06202 0.69270 0.55900
 C573 C 0.06039 0.70035 0.58137
 C574 C 0.07041 0.72034 0.61234
 N575 N 0.05442 0.70397 0.61792
 C576 C 0.04825 0.69170 0.59906
 C577 C 0.05251 0.67370 0.54735
 N578 N 0.06217 0.67225 0.52689
 C579 C 0.07754 0.69022 0.52540
 C580 C 0.11011 0.73191 0.54437
 N581 N 0.11970 0.74616 0.56028
 C582 C 0.10767 0.74464 0.57936
 H583 H 0.07900 0.73228 0.62400
 H584 H 0.03623 0.67705 0.59826
 H585 H 0.04036 0.66104 0.55383
 H586 H 0.08862 0.69303 0.51148
 H587 H 0.11651 0.72881 0.52771
 H588 H 0.11206 0.75307 0.59524
 C589 C 0.56796 1.02864 0.64643
 C590 C 0.58861 1.02554 0.65667
 C591 C 0.59770 1.04415 0.66928
 C592 C 0.58594 1.06523 0.67297
 C593 C 0.56536 1.06842 0.66341
 C594 C 0.55667 1.05023 0.64891
 C595 C 0.55469 1.01302 0.63434
 N596 N 0.53615 1.02474 0.62811
 C597 C 0.53713 1.04754 0.63689
 C598 C 0.55589 1.08743 0.67517
 N599 N 0.57019 1.09487 0.69173
 C600 C 0.58876 1.08185 0.68968
 C601 C 0.61562 1.03527 0.68050
 N602 N 0.61783 1.01167 0.67507
 C603 C 0.60138 1.00535 0.66052
 H604 H 0.55877 0.99471 0.62955
 H605 H 0.52434 1.06087 0.63524
 H606 H 0.53897 1.09310 0.67365
 H607 H 0.60283 1.08255 0.70089
 H608 H 0.62495 1.04453 0.69360
 H609 H 0.59762 0.98701 0.65510
 C610 C 0.43757 0.32390 0.92424
 C611 C 0.43697 0.29971 0.91711
 C612 C 0.42313 0.28324 0.92737
 C613 C 0.40969 0.29069 0.94491
 C614 C 0.41007 0.31461 0.95218
 C615 C 0.42458 0.33145 0.94187
 C616 C 0.45003 0.34333 0.91733
 N617 N 0.44560 0.36270 0.93054
 C618 C 0.43003 0.35563 0.94569
 C619 C 0.39474 0.31605 0.96927
 N620 N 0.38568 0.29359 0.97241
 C621 C 0.39482 0.27812 0.95766
 C622 C 0.42613 0.26108 0.91730
 N623 N 0.44169 0.26376 0.90125
 C624 C 0.44843 0.28735 0.90101
 H625 H 0.46214 0.34286 0.90413
 H626 H 0.42324 0.36709 0.95859
 H627 H 0.39060 0.33207 0.97874
 H628 H 0.39063 0.25905 0.95603
 H629 H 0.41784 0.24422 0.92156
 H630 H 0.46072 0.29502 0.88992
 C631 C 0.92250 0.43765 0.33314
 C632 C 0.91911 0.41667 0.32012
 C633 C 0.89827 0.41112 0.31220
 C634 C 0.88074 0.42627 0.31686
 C635 C 0.88389 0.44716 0.32951
 C636 C 0.90504 0.45255 0.33838
 C637 C 0.94137 0.44882 0.34094
 N638 N 0.93599 0.46961 0.35168
 C639 C 0.91377 0.47206 0.35034
 C640 C 0.86533 0.46109 0.32606
 N641 N 0.85151 0.44896 0.31169
 C642 C 0.86069 0.42756 0.30649
 C643 C 0.89997 0.39233 0.29726
 N644 N 0.92133 0.38595 0.29607
 C645 C 0.93329 0.40058 0.31010
 H646 H 0.95785 0.44194 0.33922
 H647 H 0.90478 0.48739 0.35665
 H648 H 0.86344 0.47979 0.33110
 H649 H 0.85448 0.41516 0.29372
 H650 H 0.88672 0.38452 0.28722
 H651 H 0.95104 0.40063 0.31165
 C652 C 0.30301 0.94326 0.39753
 C653 C 0.31136 0.92651 0.41307
 C654 C 0.33311 0.92838 0.41965
 C655 C 0.34664 0.94673 0.41128
 C656 C 0.33865 0.96341 0.39616
 C657 C 0.31659 0.96143 0.38890
 C658 C 0.28226 0.94680 0.38897
 N659 N 0.28286 0.96626 0.37495
 C660 C 0.30380 0.97537 0.37490
 C661 C 0.35490 0.98110 0.39387
 N662 N 0.37212 0.97541 0.40763
 C663 C 0.36717 0.95416 0.41792
 C664 C 0.33661 0.91203 0.43645
 N665 N 0.31750 0.90000 0.44045
 C666 C 0.30186 0.90848 0.42613
 H667 H 0.26794 0.93560 0.39250
 H668 H 0.30935 0.99117 0.36564
 H669 H 0.35352 0.99761 0.38419
 H670 H 0.37707 0.94536 0.43060
 H671 H 0.35187 0.90967 0.44562
 H672 H 0.28469 0.90296 0.42612
 O673 O 0.27911 0.45362 0.78213
 O674 O 0.23990 0.45930 0.78041
 O675 O 0.29142 0.40777 0.72598
 O676 O 0.28784 0.40780 0.68861
 O677 O 0.33023 0.47321 0.73754
 O678 O 0.32328 0.51552 0.72908
 O679 O 0.22935 0.46375 0.66625
 O680 O 0.23352 0.42394 0.67951
 O681 O 0.21205 0.50797 0.71788
 O682 O 0.22273 0.51010 0.75665
 O683 O 0.26447 0.52986 0.68026
 O684 O 0.30202 0.51857 0.67548
 O685 O 0.25515 0.49258 0.65753
 O686 O 0.29705 0.48707 0.65819
 O687 O 0.24318 0.53731 0.71069
 O688 O 0.25078 0.53514 0.75188
 O689 O 0.20667 0.47278 0.69858
 O690 O 0.21263 0.43126 0.71289
 O691 O 0.30606 0.48050 0.77193
 O692 O 0.30324 0.52160 0.75763
 O693 O 0.32442 0.43953 0.71605
 O694 O 0.30866 0.43616 0.67734
 O695 O 0.27237 0.41535 0.75802
 O696 O 0.23245 0.42587 0.75618
 Zr697 Zr 0.25965 0.45017 0.75249
 O698 O 0.23623 0.46870 0.73280
 Zr699 Zr 0.29082 0.44015 0.70748
 O700 O 0.26849 0.45763 0.68616
 Zr701 Zr 0.29909 0.48957 0.73843
 O702 O 0.27740 0.50954 0.71819
 Zr703 Zr 0.23689 0.45535 0.69979
 O704 O 0.25874 0.43512 0.71979
 Zr705 Zr 0.24496 0.50544 0.72994
 O706 O 0.26717 0.48763 0.75202
 Zr707 Zr 0.27633 0.49481 0.68564
 O708 O 0.30036 0.47687 0.70514
 O709 O 0.29148 0.45293 0.74019
 O710 O 0.24430 0.49222 0.69730
 C711 C 0.29683 0.46610 0.78606
 C712 C 0.28395 0.40173 0.74536
 C713 C 0.33673 0.45367 0.72803
 C714 C 0.23794 0.47958 0.65301
 C715 C 0.20020 0.49334 0.70574
 C716 C 0.25187 0.54336 0.69187
 H717 H 0.22139 0.46681 0.73937
 H718 H 0.28246 0.52665 0.71820
 H719 H 0.30203 0.44384 0.74954
 H720 H 0.26874 0.45026 0.67102
 H721 H 0.23837 0.41012 0.68881
 H722 H 0.27437 0.40920 0.67933
 H723 H 0.26412 0.54382 0.74662
 H724 H 0.29081 0.52203 0.76827
 H725 H 0.20048 0.42985 0.70171
 H726 H 0.23525 0.41502 0.76912
 H727 H 0.30542 0.52943 0.68831
 H728 H 0.32869 0.51054 0.71416
 H729 H 0.24195 0.44697 0.79233
 H730 H 0.22882 0.50104 0.76955
 H731 H 0.31825 0.45074 0.67587
 H732 H 0.29058 0.47311 0.64989
 O733 O 0.17831 0.02438 0.21880
 O734 O 0.17701 0.03039 0.25798
 O735 O 0.23911 0.06141 0.20082
 O736 O 0.27571 0.05737 0.20780
 O737 O 0.22308 -0.01065 0.17503
 O738 O 0.22597 -0.05002 0.19044
 O739 O 0.28649 0.01822 0.27939
 O740 O 0.27634 0.05627 0.26756
 O741 O 0.22675 -0.01629 0.30065
 O742 O 0.19155 -0.02022 0.28528
 O743 O 0.26923 -0.05373 0.25947
 O744 O 0.27733 -0.05442 0.22061
 O745 O 0.29466 -0.01647 0.26064
 O746 O 0.29568 -0.02309 0.21720
 O747 O 0.23726 -0.05190 0.27895
 O748 O 0.19775 -0.05091 0.26355
 O749 O 0.25384 0.01260 0.30137
 O750 O 0.24228 0.05450 0.28744
 O751 O 0.18637 -0.00943 0.19859
 O752 O 0.19780 -0.04996 0.21044
 O753 O 0.24517 0.02303 0.17539
 O754 O 0.28333 0.02405 0.19331
 O755 O 0.20620 0.06217 0.21883
 O756 O 0.20412 0.06112 0.26073
 Zr757 Zr 0.20644 0.03069 0.23897
 O758 O 0.22136 0.01613 0.26790
 Zr759 Zr 0.25292 0.02818 0.20980
 O760 O 0.27011 0.01498 0.23805
 Zr761 Zr 0.21838 -0.01874 0.20918
 O762 O 0.23467 -0.03479 0.23666
 Zr763 Zr 0.25484 0.02571 0.26797
 O764 O 0.23969 0.04205 0.23977
 Zr765 Zr 0.22073 -0.02174 0.26634
 O766 O 0.20307 -0.00745 0.23889
 Zr767 Zr 0.26780 -0.02306 0.23826
 O768 O 0.25222 -0.00994 0.20860
 O769 O 0.21979 0.01887 0.20894
 O770 O 0.25385 -0.01190 0.26808
 C771 C 0.17345 0.00769 0.20440
 C772 C 0.22080 0.07136 0.20567
 C773 C 0.23332 0.00684 0.16520
 C774 C 0.29904 0.00041 0.27511
 C775 C 0.24172 -0.00373 0.31081
 C776 C 0.25592 -0.06134 0.27470
 H777 H 0.21392 0.02189 0.28160
 H778 H 0.23347 -0.05262 0.23554
 H779 H 0.21189 0.02603 0.19602
 H780 H 0.28552 0.02096 0.23748
 H781 H 0.26858 0.06922 0.25932
 H782 H 0.27975 0.06159 0.22345
 H783 H 0.20518 -0.06469 0.25637
 H784 H 0.18657 -0.04681 0.22198
 H785 H 0.25212 0.05666 0.30068
 H786 H 0.19338 0.07268 0.25445
 H787 H 0.26373 -0.06362 0.21676
 H788 H 0.24190 -0.04888 0.18718
 H789 H 0.16724 0.04329 0.25229
 H790 H 0.18103 -0.01077 0.27620
 H791 H 0.28264 0.00822 0.18548
 H792 H 0.30487 -0.00871 0.22109
 O793 O 0.54032 0.73606 0.22390
 O794 O 0.52936 0.72860 0.26158
 O795 O 0.49038 0.70514 0.18301
 O796 O 0.45349 0.70649 0.17937
 O797 O 0.51107 0.77821 0.17095
 O798 O 0.50500 0.81567 0.18812
 O799 O 0.41938 0.74237 0.24621
 O800 O 0.43138 0.70512 0.23391
 O801 O 0.46800 0.77221 0.28813
 O802 O 0.50603 0.77660 0.28677
 O803 O 0.44235 0.81388 0.23713
 O804 O 0.44678 0.81723 0.19689
 O805 O 0.41775 0.77899 0.22871
 O806 O 0.42892 0.78728 0.18740
 O807 O 0.46597 0.81148 0.26684
 O808 O 0.50791 0.80898 0.26632
 O809 O 0.44549 0.74042 0.27856
 O810 O 0.45862 0.70151 0.26307
 O811 O 0.53911 0.77251 0.20598
 O812 O 0.52492 0.81248 0.21634
 O813 O 0.48949 0.74590 0.16071
 O814 O 0.44855 0.74213 0.16541
 O815 O 0.51454 0.70070 0.21215
 O816 O 0.50301 0.69780 0.25246
 Zr817 Zr 0.50754 0.73014 0.23358
 O818 O 0.48426 0.74275 0.25667
 Zr819 Zr 0.47282 0.73640 0.19047
 O820 O 0.44761 0.74741 0.21211
 Zr821 Zr 0.50562 0.78237 0.20558
 O822 O 0.48139 0.79645 0.22680
 Zr823 Zr 0.45271 0.73366 0.24458
 O824 O 0.47599 0.71944 0.22206
 Zr825 Zr 0.48497 0.78081 0.25868
 O826 O 0.51052 0.76813 0.23793
 Zr827 Zr 0.44984 0.78510 0.21594
 O828 O 0.47396 0.77443 0.19258
 O829 O 0.50432 0.74510 0.20168
 O830 O 0.45332 0.77119 0.24812
 C831 C 0.54941 0.75395 0.21359
 C832 C 0.50604 0.69417 0.19317
 C833 C 0.50357 0.76286 0.15644
 C834 C 0.40907 0.76132 0.23984
 C835 C 0.45318 0.75616 0.29260
 C836 C 0.44969 0.82101 0.25631
 H837 H 0.48709 0.73542 0.27157
 H838 H 0.48286 0.81431 0.22732
 H839 H 0.51571 0.73934 0.19126
 H840 H 0.43312 0.74211 0.20606
 H841 H 0.44073 0.69278 0.22684
 H842 H 0.44133 0.70459 0.19017
 H843 H 0.50397 0.82331 0.25725
 H844 H 0.53214 0.80772 0.23060
 H845 H 0.44517 0.69748 0.27171
 H846 H 0.51539 0.68679 0.24951
 H847 H 0.45957 0.82781 0.20066
 H848 H 0.49049 0.81623 0.18047
 H849 H 0.54037 0.71588 0.25885
 H850 H 0.51846 0.76680 0.28154
 H851 H 0.45044 0.75906 0.16020
 H852 H 0.41844 0.77338 0.18783
 O853 O 0.01628 0.67163 0.74182
 O854 O -0.02131 0.68594 0.74812
 O855 O 0.04908 0.72620 0.70686
 O856 O 0.05828 0.76507 0.71017
 O857 O 0.07629 0.69782 0.77013
 O858 O 0.06829 0.70485 0.80854
 O859 O 0.00419 0.80517 0.76237
 O860 O 0.00873 0.79460 0.72420
 O861 O -0.03333 0.75335 0.79329
 O862 O -0.03299 0.71055 0.79479
 O863 O 0.02735 0.77653 0.82104
 O864 O 0.06611 0.76612 0.81463
 O865 O 0.03185 0.80393 0.78839
 O866 O 0.07038 0.78796 0.78763
 O867 O -0.00410 0.75387 0.82386
 O868 O -0.00630 0.71138 0.82356
 O869 O -0.02804 0.77892 0.76377
 O870 O -0.02183 0.76582 0.72447
 O871 O 0.04113 0.66988 0.77062
 O872 O 0.04012 0.68351 0.81055
 O873 O 0.08090 0.72271 0.73998
 O874 O 0.07903 0.76779 0.73878
 O875 O 0.01887 0.70143 0.70979
 O876 O -0.01848 0.71450 0.71800
 Zr877 Zr 0.00680 0.70824 0.74209
 O878 O -0.01019 0.73529 0.75948
 Zr879 Zr 0.05193 0.74321 0.73858
 O880 O 0.03647 0.77185 0.75525
 Zr881 Zr 0.04489 0.70591 0.78210
 O882 O 0.02962 0.73313 0.80095
 Zr883 Zr 0.00232 0.76946 0.75028
 O884 O 0.01801 0.74266 0.73113
 Zr885 Zr -0.00432 0.73279 0.79417
 O886 O 0.01063 0.70340 0.77713
 Zr887 Zr 0.04082 0.76733 0.79000
 O888 O 0.05830 0.74000 0.77326
 O889 O 0.04062 0.70912 0.74760
 O890 O 0.00697 0.76697 0.78481
 C891 C 0.03008 0.66027 0.75428
 C892 C 0.03513 0.71056 0.69887
 C893 C 0.08749 0.70624 0.75363
 C894 C 0.01664 0.81494 0.77754
 C895 C -0.03937 0.77061 0.78021
 C896 C 0.00961 0.77016 0.83109
 H897 H -0.02609 0.73360 0.75598
 H898 H 0.03247 0.73054 0.81715
 H899 H 0.04846 0.69677 0.73882
 H900 H 0.04234 0.78762 0.74992
 H901 H 0.01178 0.78495 0.71057
 H902 H 0.04832 0.77899 0.71116
 H903 H -0.00202 0.69484 0.81925
 H904 H 0.02670 0.67355 0.80771
 H905 H -0.02979 0.78132 0.72340
 H906 H -0.01994 0.70020 0.70797
 H907 H 0.06203 0.75346 0.82564
 H908 H 0.07750 0.71971 0.80712
 H909 H -0.02229 0.67325 0.73633
 H910 H -0.02867 0.69440 0.78929
 H911 H 0.08729 0.76498 0.75292
 H912 H 0.06942 0.79806 0.77394
 O913 O -0.00388 0.09633 0.01019
 O914 O -0.04248 0.09698 0.00090
 O915 O 0.00362 0.03144 0.04892
 O916 O -0.00402 -0.00852 0.04455
 O917 O 0.04673 0.04744 -0.00633
 O918 O 0.04228 0.04157 -0.04638
 O919 O -0.05923 -0.02314 -0.01364
 O920 O -0.05789 -0.01226 0.02389
 O921 O -0.07007 0.04122 -0.05025
 O922 O -0.05060 0.08401 -0.04609
 O923 O -0.02349 -0.00428 -0.07029
 O924 O 0.01364 -0.01242 -0.06144
 O925 O -0.03132 -0.03310 -0.03706
 O926 O 0.01083 -0.03236 -0.03227
 O927 O -0.03984 0.03215 -0.07525
 O928 O -0.02905 0.07328 -0.07087
 O929 O -0.07875 0.01374 -0.02315
 O930 O -0.07548 0.02560 0.01798
 O931 O 0.02461 0.08655 -0.01270
 O932 O 0.02454 0.07414 -0.05194
 O933 O 0.03711 0.02069 0.02104
 O934 O 0.01861 -0.01947 0.01980
 O935 O -0.01461 0.06678 0.04349
 O936 O -0.05222 0.07019 0.03080
 Zr937 Zr -0.02457 0.06555 0.00967
 O938 O -0.04812 0.04848 -0.01128
 Zr939 Zr 0.00304 0.01444 0.01704
 O940 O -0.01958 -0.00483 -0.00352
 Zr941 Zr 0.01685 0.05152 -0.02435
 O942 O -0.00514 0.03396 -0.04691
 Zr943 Zr -0.05042 0.01174 -0.00280
 O944 O -0.02853 0.02921 0.01990
 Zr945 Zr -0.03650 0.04922 -0.04424
 O946 O -0.01388 0.06855 -0.02377
 Zr947 Zr -0.00992 -0.00242 -0.03735
 O948 O 0.01442 0.01446 -0.01636
 O949 O 0.00671 0.05066 0.00885
 O950 O -0.04083 0.01274 -0.03619
 C951 C 0.01444 0.10099 0.00039
 C952 C -0.00431 0.05159 0.05589
 C953 C 0.05127 0.03400 0.01066
 C954 C -0.04955 -0.03778 -0.02692
 C955 C -0.08328 0.02596 -0.04091
 C956 C -0.03489 0.01089 -0.08183
 H957 H -0.06252 0.05642 -0.00995
 H958 H 0.00051 0.03517 -0.06241
 H959 H 0.01712 0.05920 0.01911
 H960 H -0.02049 -0.02177 0.00183
 H961 H -0.05286 -0.00411 0.03789
 H962 H -0.01773 -0.01752 0.04071
 H963 H -0.01436 0.06907 -0.07653
 H964 H 0.01280 0.08633 -0.05287
 H965 H -0.08865 0.01492 0.01616
 H966 H -0.04953 0.08437 0.04076
 H967 H 0.02203 0.00244 -0.06539
 H968 H 0.04619 0.02473 -0.04251
 H969 H -0.04037 0.10944 0.01278
 H970 H -0.06500 0.08325 -0.03848
 H971 H 0.02895 -0.02060 0.00709
 H972 H 0.00473 -0.04188 -0.01962
 O973 O 0.06599 0.54410 0.47278
 O974 O 0.05407 0.53948 0.43468
 O975 O 0.02120 0.59025 0.50349
 O976 O -0.01445 0.59333 0.50951
 O977 O 0.03468 0.52043 0.53433
 O978 O 0.02545 0.48083 0.52690
 O979 O -0.05600 0.54184 0.45237
 O980 O -0.04017 0.58001 0.45481
 O981 O -0.01209 0.49669 0.42024
 O982 O 0.02398 0.48758 0.42281
 O983 O -0.04002 0.47497 0.48135
 O984 O -0.03429 0.48407 0.52035
 O985 O -0.06047 0.51366 0.47991
 O986 O -0.04817 0.51705 0.52140
 O987 O -0.01732 0.46513 0.45273
 O988 O 0.02475 0.46461 0.45091
 O989 O -0.03108 0.53191 0.42074
 O990 O -0.01320 0.57284 0.42652
 O991 O 0.06209 0.51396 0.49867
 O992 O 0.04315 0.47392 0.49874
 O993 O 0.01710 0.55638 0.53690
 O994 O -0.02343 0.56404 0.53023
 O995 O 0.04405 0.58328 0.47413
 O996 O 0.03159 0.57470 0.43514
 Zr997 Zr 0.03349 0.54922 0.46181
 O998 O 0.00798 0.53245 0.44297
 Zr999 Zr 0.00071 0.55950 0.50522
 O1000 O -0.02661 0.54543 0.48703
 Zr1001 Zr 0.02781 0.50788 0.50190
 O1002 O 0.00096 0.49075 0.48573
 Zr1003 Zr -0.02195 0.54779 0.45208
 O1004 O 0.00371 0.56573 0.47029
 Zr1005 Zr 0.00453 0.49549 0.45104
 O1006 O 0.03242 0.51135 0.46720
 Zr1007 Zr -0.02862 0.50823 0.49334
 O1008 O -0.00216 0.52248 0.51277
 O1009 O 0.03062 0.54487 0.49647
 O1010 O -0.02553 0.51088 0.45866
 C1011 C 0.07375 0.52872 0.48677
 C1012 C 0.03697 0.59632 0.49033
 C1013 C 0.02882 0.53924 0.54522
 C1014 C -0.06784 0.52720 0.46404
 C1015 C -0.02499 0.51213 0.41129
 C1016 C -0.03353 0.46065 0.46597
 H1017 H 0.01093 0.53471 0.42677
 H1018 H 0.00062 0.47348 0.49010
 H1019 H 0.04288 0.55244 0.50515
 H1020 H -0.04013 0.55389 0.49143
 H1021 H -0.02953 0.59300 0.45913
 H1022 H -0.02511 0.59486 0.49697
 H1023 H 0.02019 0.45408 0.46354
 H1024 H 0.05100 0.47405 0.48423
 H1025 H -0.02629 0.57515 0.41674
 H1026 H 0.04543 0.58441 0.43465
 H1027 H -0.02307 0.47133 0.51951
 H1028 H 0.01087 0.48275 0.53391
 H1029 H 0.06643 0.55136 0.43367
 H1030 H 0.03583 0.50007 0.42257
 H1031 H -0.02295 0.54954 0.53999
 H1032 H -0.05689 0.53146 0.51751
 O1033 O 0.55640 0.03450 0.50863
 O1034 O 0.55951 0.03978 0.46886
 O1035 O 0.49541 0.06642 0.52519
 O1036 O 0.45947 0.06186 0.51744
 O1037 O 0.50987 -0.00729 0.54755
 O1038 O 0.51042 -0.04534 0.52989
 O1039 O 0.45164 0.02513 0.44159
 O1040 O 0.45914 0.06260 0.45742
 O1041 O 0.50755 -0.00804 0.42207
 O1042 O 0.54410 -0.00775 0.43634
 O1043 O 0.46810 -0.04794 0.46267
 O1044 O 0.45703 -0.04840 0.49965
 O1045 O 0.44323 -0.01077 0.45862
 O1046 O 0.43936 -0.01733 0.50278
 O1047 O 0.50046 -0.04459 0.44389
 O1048 O 0.53989 -0.03977 0.45814
 O1049 O 0.48639 0.02561 0.42190
 O1050 O 0.49487 0.06576 0.44050
 O1051 O 0.54742 -0.00034 0.52720
 O1052 O 0.53902 -0.04115 0.51100
 O1053 O 0.48834 0.02601 0.54882
 O1054 O 0.45077 0.02685 0.52899
 O1055 O 0.52894 0.06947 0.50843
 O1056 O 0.53273 0.07077 0.46662
 Zr1057 Zr 0.52941 0.03915 0.48672
 O1058 O 0.51534 0.02542 0.45666
 Zr1059 Zr 0.48190 0.03326 0.51429
 O1060 O 0.46567 0.02110 0.48481
 Zr1061 Zr 0.51693 -0.01207 0.51349
 O1062 O 0.50127 -0.02737 0.48512
 Zr1063 Zr 0.48199 0.03410 0.45611
 O1064 O 0.49614 0.04934 0.48554
 Zr1065 Zr 0.51572 -0.01262 0.45619
 O1066 O 0.53292 0.00116 0.48475
 Zr1067 Zr 0.46821 -0.01672 0.48307
 O1068 O 0.48301 -0.00483 0.51368
 O1069 O 0.51497 0.02526 0.51563
 O1070 O 0.48279 -0.00354 0.45413
 C1071 C 0.56007 0.01815 0.52348
 C1072 C 0.51398 0.07715 0.52174
 C1073 C 0.49933 0.00897 0.55824
 C1074 C 0.43946 0.00624 0.44426
 C1075 C 0.49582 0.00787 0.41206
 C1076 C 0.48210 -0.05540 0.44830
 H1077 H 0.52310 0.03220 0.44346
 H1078 H 0.50258 -0.04518 0.48593
 H1079 H 0.52185 0.03208 0.52941
 H1080 H 0.45018 0.02628 0.48488
 H1081 H 0.46572 0.07524 0.46733
 H1082 H 0.45358 0.06492 0.50220
 H1083 H 0.53361 -0.05346 0.46682
 H1084 H 0.55125 -0.03556 0.50131
 H1085 H 0.48565 0.06908 0.42706
 H1086 H 0.54365 0.08195 0.47374
 H1087 H 0.47030 -0.05716 0.50453
 H1088 H 0.49436 -0.04604 0.53250
 H1089 H 0.56922 0.05275 0.47516
 H1090 H 0.55474 0.00164 0.44569
 H1091 H 0.45142 0.01090 0.53654
 H1092 H 0.42899 -0.00553 0.49631
 O1093 O 0.51905 0.55788 0.02595
 O1094 O 0.47924 0.55603 0.02199
 O1095 O 0.54004 0.48688 0.03567
 O1096 O 0.53608 0.45075 0.01965
 O1097 O 0.56880 0.53079 -0.01662
 O1098 O 0.55675 0.54194 -0.05352
 O1099 O 0.47056 0.44856 -0.03255
 O1100 O 0.47927 0.44226 0.00432
 O1101 O 0.44692 0.51938 -0.03859
 O1102 O 0.46332 0.56071 -0.02707
 O1103 O 0.49614 0.49331 -0.08180
 O1104 O 0.53529 0.48934 -0.08001
 O1105 O 0.49522 0.45417 -0.06072
 O1106 O 0.53742 0.45949 -0.06084
 O1107 O 0.47257 0.52304 -0.07211
 O1108 O 0.48005 0.56239 -0.05677
 O1109 O 0.44611 0.48335 -0.01992
 O1110 O 0.45921 0.47585 0.01883
 O1111 O 0.54207 0.56570 -0.00327
 O1112 O 0.53493 0.56954 -0.04355
 O1113 O 0.56779 0.49373 0.00019
 O1114 O 0.55283 0.45363 -0.01146
 O1115 O 0.51726 0.51733 0.04582
 O1116 O 0.47728 0.51766 0.04078
 Zr1117 Zr 0.50096 0.52697 0.01605
 O1118 O 0.47604 0.51463 -0.00597
 Zr1119 Zr 0.53450 0.48310 0.00078
 O1120 O 0.51057 0.46843 -0.02123
 Zr1121 Zr 0.53573 0.53638 -0.02583
 O1122 O 0.51235 0.52358 -0.04972
 Zr1123 Zr 0.47887 0.47713 -0.01048
 O1124 O 0.50275 0.48896 0.01330
 Zr1125 Zr 0.48044 0.52983 -0.03802
 O1126 O 0.50393 0.54480 -0.01512
 Zr1127 Zr 0.51374 0.48563 -0.05244
 O1128 O 0.53924 0.49878 -0.03107
 O1129 O 0.53277 0.52022 0.00543
 O1130 O 0.48175 0.49244 -0.04230
 C1131 C 0.53414 0.57052 0.01626
 C1132 C 0.53178 0.50133 0.05021
 C1133 C 0.57800 0.51261 -0.00715
 C1134 C 0.47924 0.44257 -0.05133
 C1135 C 0.43683 0.50096 -0.03014
 C1136 C 0.48025 0.50760 -0.08608
 H1137 H 0.46175 0.51884 0.00069
 H1138 H 0.51489 0.53145 -0.06439
 H1139 H 0.54427 0.52606 0.01608
 H1140 H 0.51229 0.45068 -0.02231
 H1141 H 0.48655 0.44417 0.01918
 H1142 H 0.52301 0.44087 0.01536
 H1143 H 0.49433 0.56400 -0.06448
 H1144 H 0.52168 0.57808 -0.03840
 H1145 H 0.44694 0.46411 0.01616
 H1146 H 0.48065 0.52685 0.05475
 H1147 H 0.53666 0.50681 -0.08348
 H1148 H 0.56151 0.52567 -0.05831
 H1149 H 0.48231 0.56289 0.03712
 H1150 H 0.45380 0.55559 -0.01448
 H1151 H 0.56090 0.45948 -0.02483
 H1152 H 0.53349 0.44425 -0.05299
 O1153 O 0.79728 0.31625 0.53042
 O1154 O 0.78477 0.30898 0.56757
 O1155 O 0.82425 0.24989 0.50873
 O1156 O 0.81337 0.21045 0.50808
 O1157 O 0.77929 0.28608 0.46658
 O1158 O 0.74080 0.28990 0.46507
 O1159 O 0.74887 0.19257 0.55047
 O1160 O 0.78529 0.19696 0.55817
 O1161 O 0.72014 0.25903 0.57364
 O1162 O 0.72958 0.29919 0.56980
 O1163 O 0.70175 0.23064 0.51371
 O1164 O 0.71420 0.23064 0.47717
 O1165 O 0.72898 0.19427 0.51789
 O1166 O 0.73983 0.20667 0.47756
 O1167 O 0.69928 0.26351 0.53659
 O1168 O 0.71475 0.30607 0.53763
 O1169 O 0.74113 0.22579 0.57922
 O1170 O 0.78202 0.22936 0.58374
 O1171 O 0.77680 0.31975 0.49834
 O1172 O 0.73679 0.31503 0.49084
 O1173 O 0.80144 0.25383 0.47245
 O1174 O 0.79077 0.21070 0.47952
 O1175 O 0.82241 0.27897 0.53584
 O1176 O 0.80444 0.27288 0.57341
 Zr1177 Zr 0.78847 0.28177 0.54268
 O1178 O 0.76192 0.26400 0.55849
 Zr1179 Zr 0.79131 0.23925 0.50331
 O1180 O 0.76594 0.21895 0.51842
 Zr1181 Zr 0.75921 0.28647 0.49515
 O1182 O 0.73206 0.26761 0.50877
 Zr1183 Zr 0.76423 0.22666 0.55296
 O1184 O 0.79197 0.24419 0.53843
 Zr1185 Zr 0.73200 0.27362 0.54354
 O1186 O 0.75818 0.29419 0.52973
 Zr1187 Zr 0.73542 0.22982 0.50546
 O1188 O 0.76108 0.24897 0.48851
 O1189 O 0.78933 0.27626 0.50818
 O1190 O 0.73369 0.23605 0.53983
 C1191 C 0.79079 0.32795 0.51300
 C1192 C 0.83306 0.26579 0.52190
 C1193 C 0.79495 0.27205 0.46095
 C1194 C 0.73654 0.18295 0.53517
 C1195 C 0.72555 0.24009 0.58470
 C1196 C 0.69080 0.24580 0.52539
 H1197 H 0.76200 0.26788 0.57474
 H1198 H 0.71844 0.27322 0.50137
 H1199 H 0.80162 0.28533 0.50114
 H1200 H 0.76888 0.20167 0.51549
 H1201 H 0.80054 0.20327 0.55656
 H1202 H 0.80645 0.19919 0.51892
 H1203 H 0.70691 0.30440 0.52306
 H1204 H 0.73738 0.32480 0.50480
 H1205 H 0.77678 0.21618 0.59378
 H1206 H 0.81811 0.28279 0.57496
 H1207 H 0.71475 0.24740 0.47135
 H1208 H 0.74075 0.27378 0.45776
 H1209 H 0.79916 0.31733 0.57008
 H1210 H 0.74346 0.30877 0.56967
 H1211 H 0.78085 0.21564 0.46713
 H1212 H 0.74933 0.19330 0.48256
 O1213 O 0.81642 0.79613 0.00920
 O1214 O 0.81235 0.79535 0.04835
 O1215 O 0.83109 0.72198 -0.00698
 O1216 O 0.81544 0.68518 0.00019
 O1217 O 0.78462 0.75950 -0.04629
 O1218 O 0.74704 0.76872 -0.04188
 O1219 O 0.75647 0.69032 0.05822
 O1220 O 0.79461 0.68448 0.05499
 O1221 O 0.74541 0.76136 0.07298
 O1222 O 0.75752 0.79873 0.05964
 O1223 O 0.71058 0.72812 0.01945
 O1224 O 0.71876 0.71800 -0.01844
 O1225 O 0.73138 0.69032 0.02957
 O1226 O 0.73800 0.68832 -0.01330
 O1227 O 0.71733 0.76189 0.04051
 O1228 O 0.73672 0.80169 0.03107
 O1229 O 0.76246 0.72582 0.08038
 O1230 O 0.80291 0.72128 0.07574
 O1231 O 0.79115 0.79830 -0.01923
 O1232 O 0.75087 0.79871 -0.02076
 O1233 O 0.80203 0.72407 -0.03919
 O1234 O 0.78761 0.68493 -0.02291
 O1235 O 0.83774 0.75669 0.01290
 O1236 O 0.82790 0.75669 0.05440
 Zr1237 Zr 0.80694 0.76506 0.02684
 O1238 O 0.78217 0.75563 0.04978
 Zr1239 Zr 0.79674 0.71668 -0.00492
 O1240 O 0.77244 0.70415 0.01762
 Zr1241 Zr 0.77009 0.76767 -0.01513
 O1242 O 0.74412 0.75683 0.00599
 Zr1243 Zr 0.77864 0.71789 0.05004
 O1244 O 0.80488 0.72706 0.02825
 Zr1245 Zr 0.75153 0.76821 0.03890
 O1246 O 0.77672 0.78082 0.01748
 Zr1247 Zr 0.74206 0.71874 0.00815
 O1248 O 0.76604 0.72961 -0.01576
 O1249 O 0.80032 0.75409 -0.00596
 O1250 O 0.74789 0.73084 0.04079
 C1251 C 0.80791 0.80648 -0.00796
 C1252 C 0.84379 0.73933 -0.00003
 C1253 C 0.79664 0.74165 -0.05218
 C1254 C 0.73882 0.68262 0.04854
 C1255 C 0.75049 0.74377 0.08605
 C1256 C 0.70436 0.74565 0.03196
 H1257 H 0.78611 0.76204 0.06485
 H1258 H 0.73026 0.76377 0.00030
 H1259 H 0.81170 0.76000 -0.01648
 H1260 H 0.77195 0.68624 0.01779
 H1261 H 0.81010 0.68710 0.05047
 H1262 H 0.80907 0.67673 0.01330
 H1263 H 0.72572 0.79873 0.01899
 H1264 H 0.75386 0.80986 -0.00802
 H1265 H 0.79853 0.71042 0.08826
 H1266 H 0.84273 0.76375 0.05166
 H1267 H 0.71646 0.73497 -0.02310
 H1268 H 0.74382 0.75166 -0.04610
 H1269 H 0.82790 0.80090 0.04702
 H1270 H 0.77229 0.80501 0.05557
 H1271 H 0.77586 0.68952 -0.03363
 H1272 H 0.74533 0.67441 -0.00613
 O1273 O 0.99305 0.17309 0.24408
 O1274 O 0.95267 0.17753 0.24373
 O1275 O 1.01855 0.23164 0.20710
 O1276 O 1.01393 0.27269 0.20642
 O1277 O 1.04240 0.21835 0.27367
 O1278 O 1.02764 0.22710 0.31096
 O1279 O 0.94915 0.29925 0.24767
 O1280 O 0.96085 0.28726 0.21206
 O1281 O 0.92075 0.24158 0.27937
 O1282 O 0.93370 0.19624 0.28422
 O1283 O 0.96883 0.28057 0.31374
 O1284 O 1.00988 0.28289 0.31149
 O1285 O 0.96994 0.30712 0.27896
 O1286 O 1.01064 0.30483 0.28418
 O1287 O 0.94421 0.24912 0.31287
 O1288 O 0.94864 0.20708 0.31411
 O1289 O 0.92327 0.26455 0.24774
 O1290 O 0.93812 0.25095 0.21126
 O1291 O 1.01473 0.18107 0.27473
 O1292 O 1.00651 0.19624 0.31143
 O1293 O 1.04438 0.24168 0.24219
 O1294 O 1.03291 0.28313 0.23717
 O1295 O 0.99444 0.19964 0.20912
 O1296 O 0.95507 0.20101 0.20990
 Zr1297 Zr 0.97635 0.20557 0.23814
 O1298 O 0.95105 0.22754 0.24998
 Zr1299 Zr 1.01181 0.25225 0.23640
 O1300 O 0.98802 0.27602 0.24902
 Zr1301 Zr 1.00870 0.21780 0.28218
 O1302 O 0.98434 0.23966 0.29647
 Zr1303 Zr 0.95662 0.26335 0.23954
 O1304 O 0.98046 0.24092 0.22511
 Zr1305 Zr 0.95289 0.22859 0.28503
 O1306 O 0.97709 0.20459 0.27343
 Zr1307 Zr 0.98797 0.27529 0.28447
 O1308 O 1.01390 0.25387 0.27185
 O1309 O 1.00792 0.21690 0.24743
 O1310 O 0.95653 0.26427 0.27453
 C1311 C 1.00737 0.16704 0.25900
 C1312 C 1.01002 0.21160 0.19959
 C1313 C 1.05306 0.22837 0.25744
 C1314 C 0.95554 0.31293 0.26404
 C1315 C 0.91250 0.25536 0.26414
 C1316 C 0.95218 0.26863 0.32153
 H1317 H 0.93667 0.22118 0.24449
 H1318 H 0.98552 0.23890 0.31303
 H1319 H 1.01939 0.20639 0.24119
 H1320 H 0.99067 0.29257 0.24322
 H1321 H 0.96826 0.27795 0.20016
 H1322 H 1.00412 0.28669 0.20801
 H1323 H 0.96243 0.20842 0.32299
 H1324 H 0.99257 0.18682 0.31008
 H1325 H 0.92698 0.26332 0.20763
 H1326 H 0.95805 0.18519 0.20270
 H1327 H 1.00751 0.27030 0.32308
 H1328 H 1.03462 0.24307 0.30784
 H1329 H 0.95634 0.16326 0.23443
 H1330 H 0.92208 0.19814 0.27265
 H1331 H 1.03748 0.28550 0.25303
 H1332 H 1.00979 0.31257 0.26923
 O1333 O 0.69266 0.98746 0.72626
 O1334 O 0.69877 0.98721 0.76530
 O1335 O 0.75584 1.01586 0.70276
 O1336 O 0.79123 1.00528 0.70612
 O1337 O 0.72522 0.95547 0.66912
 O1338 O 0.72180 0.91301 0.67833
 O1339 O 0.80328 0.94450 0.76536
 O1340 O 0.80196 0.98621 0.76010
 O1341 O 0.74127 0.92354 0.79108
 O1342 O 0.70473 0.93028 0.78041
 O1343 O 0.76798 0.88578 0.73607
 O1344 O 0.77112 0.89394 0.69542
 O1345 O 0.80110 0.91467 0.73892
 O1346 O 0.79685 0.91656 0.69744
 O1347 O 0.74195 0.88995 0.76295
 O1348 O 0.70263 0.90215 0.75470
 O1349 O 0.77161 0.94822 0.79259
 O1350 O 0.77088 0.99156 0.78438
 O1351 O 0.69216 0.95948 0.69804
 O1352 O 0.69540 0.91672 0.70089
 O1353 O 0.75568 0.97991 0.67134
 O1354 O 0.79285 0.97438 0.68432
 O1355 O 0.72643 1.01937 0.72593
 O1356 O 0.73108 1.01055 0.76701
 Zr1357 Zr 0.72416 0.98490 0.74110
 O1358 O 0.73935 0.96153 0.76424
 Zr1359 Zr 0.76524 0.97936 0.70518
 O1360 O 0.78222 0.95612 0.72698
 Zr1361 Zr 0.72221 0.94155 0.70205
 O1362 O 0.73725 0.91650 0.72383
 Zr1363 Zr 0.77368 0.96332 0.76035
 O1364 O 0.75866 0.98871 0.73862
 Zr1365 Zr 0.73063 0.92540 0.75745
 O1366 O 0.71344 0.94883 0.73556
 Zr1367 Zr 0.77153 0.92021 0.72137
 O1368 O 0.75647 0.94320 0.69758
 O1369 O 0.73121 0.97750 0.70764
 O1370 O 0.76474 0.92718 0.75493
 C1371 C 0.68325 0.97611 0.70982
 C1372 C 0.74041 1.02809 0.71188
 C1373 C 0.73990 0.96956 0.66042
 C1374 C 0.81090 0.92586 0.75517
 C1375 C 0.75760 0.93359 0.80151
 C1376 C 0.75640 0.87769 0.75247
 H1377 H 0.73496 0.96626 0.77959
 H1378 H 0.73214 0.89991 0.72003
 H1379 H 0.72361 0.98841 0.69702
 H1380 H 0.79824 0.95822 0.72478
 H1381 H 0.79700 1.00236 0.75510
 H1382 H 0.80190 0.99980 0.71758
 H1383 H 0.70587 0.88931 0.74366
 H1384 H 0.68821 0.91762 0.71573
 H1385 H 0.78298 0.98994 0.79554
 H1386 H 0.72227 1.02528 0.76452
 H1387 H 0.75674 0.88532 0.69584
 H1388 H 0.73685 0.91223 0.67216
 H1389 H 0.69094 1.00269 0.76316
 H1390 H 0.69489 0.94241 0.77363
 H1391 H 0.79075 0.95847 0.67684
 H1392 H 0.80807 0.92937 0.70045
 O1393 O 0.65268 0.52393 0.27200
 O1394 O 0.66393 0.52358 0.31037
 O1395 O 0.70976 0.55304 0.23829
 O1396 O 0.74376 0.54325 0.23096
 O1397 O 0.67536 0.48628 0.21476
 O1398 O 0.67678 0.44589 0.22575
 O1399 O 0.77074 0.49194 0.29510
 O1400 O 0.76475 0.53247 0.28772
 O1401 O 0.71646 0.46616 0.33162
 O1402 O 0.67921 0.46723 0.32869
 O1403 O 0.73708 0.42761 0.27399
 O1404 O 0.73420 0.43121 0.23577
 O1405 O 0.76761 0.46158 0.26926
 O1406 O 0.75362 0.45973 0.22831
 O1407 O 0.71419 0.43018 0.30393
 O1408 O 0.67317 0.44046 0.30394
 O1409 O 0.74438 0.49355 0.32697
 O1410 O 0.73761 0.53664 0.31661
 O1411 O 0.64884 0.48977 0.25070
 O1412 O 0.65746 0.44720 0.25383
 O1413 O 0.70212 0.51477 0.20882
 O1414 O 0.74341 0.51069 0.21449
 O1415 O 0.68447 0.55671 0.26605
 O1416 O 0.69439 0.55040 0.30620
 Zr1417 Zr 0.68579 0.52271 0.28273
 O1418 O 0.70641 0.50231 0.30405
 Zr1419 Zr 0.71974 0.51690 0.23965
 O1420 O 0.74248 0.49821 0.25981
 Zr1421 Zr 0.68051 0.47559 0.24801
 O1422 O 0.70186 0.45411 0.26699
 Zr1423 Zr 0.73920 0.50693 0.29405
 O1424 O 0.71881 0.52866 0.27338
 Zr1425 Zr 0.70016 0.46493 0.30066
 O1426 O 0.67729 0.48535 0.28186
 Zr1427 Zr 0.73468 0.46116 0.25796
 O1428 O 0.71292 0.47965 0.23628
 O1429 O 0.68716 0.51269 0.24907
 O1430 O 0.73307 0.46971 0.29199
 C1431 C 0.64122 0.50861 0.26038
 C1432 C 0.69611 0.56531 0.24982
 C1433 C 0.68572 0.50141 0.20227
 C1434 C 0.77863 0.47453 0.28352
 C1435 C 0.73341 0.47803 0.33869
 C1436 C 0.72782 0.41880 0.29149
 H1437 H 0.70434 0.50762 0.31977
 H1438 H 0.69768 0.43688 0.26484
 H1439 H 0.67707 0.52237 0.23965
 H1440 H 0.75753 0.50200 0.25453
 H1441 H 0.75758 0.54730 0.28211
 H1442 H 0.75366 0.54487 0.24416
 H1443 H 0.67538 0.42680 0.29347
 H1444 H 0.65101 0.45015 0.26878
 H1445 H 0.75119 0.53675 0.32597
 H1446 H 0.68370 0.56371 0.30498
 H1447 H 0.71886 0.42498 0.23514
 H1448 H 0.69074 0.44481 0.21739
 H1449 H 0.65480 0.53828 0.30925
 H1450 H 0.66988 0.48146 0.32598
 H1451 H 0.73836 0.49626 0.20587
 H1452 H 0.76547 0.47218 0.22955
 O1453 O 0.57295 0.19028 0.78331
 O1454 O 0.55678 0.18102 0.81808
 O1455 O 0.52574 0.16660 0.73387
 O1456 O 0.48908 0.17179 0.72844
 O1457 O 0.55398 0.23723 0.72770
 O1458 O 0.55083 0.27439 0.74604
 O1459 O 0.45243 0.21031 0.79192
 O1460 O 0.46187 0.17218 0.77970
 O1461 O 0.49768 0.23517 0.83850
 O1462 O 0.53631 0.23148 0.84238
 O1463 O 0.48466 0.28104 0.78678
 O1464 O 0.49149 0.28278 0.74747
 O1465 O 0.45661 0.24849 0.77801
 O1466 O 0.47122 0.25492 0.73648
 O1467 O 0.50493 0.27369 0.81829
 O1468 O 0.54502 0.26418 0.82360
 O1469 O 0.47367 0.20595 0.82606
 O1470 O 0.48513 0.16511 0.81177
 O1471 O 0.57782 0.22513 0.76332
 O1472 O 0.56755 0.26651 0.77610
 O1473 O 0.52977 0.20900 0.71378
 O1474 O 0.48877 0.20862 0.71457
 O1475 O 0.54595 0.15938 0.76555
 O1476 O 0.52874 0.15517 0.80411
 Zr1477 Zr 0.53895 0.18769 0.78792
 O1478 O 0.51513 0.20254 0.80905
 Zr1479 Zr 0.50997 0.19944 0.74154
 O1480 O 0.48407 0.21329 0.76099
 Zr1481 Zr 0.54589 0.24038 0.76166
 O1482 O 0.52124 0.25701 0.78057
 Zr1483 Zr 0.48448 0.19795 0.79329
 O1484 O 0.50809 0.18132 0.77272
 Zr1485 Zr 0.51985 0.24015 0.81211
 O1486 O 0.54583 0.22478 0.79382
 Zr1487 Zr 0.48974 0.25046 0.76646
 O1488 O 0.51492 0.23714 0.74539
 O1489 O 0.54074 0.20375 0.75634
 O1490 O 0.48875 0.23511 0.79811
 C1491 C 0.58497 0.20566 0.77272
 C1492 C 0.53971 0.15429 0.74534
 C1493 C 0.54593 0.22417 0.71172
 C1494 C 0.44516 0.23136 0.78730
 C1495 C 0.48050 0.22158 0.84067
 C1496 C 0.49189 0.28674 0.80646
 H1497 H 0.51544 0.19459 0.82396
 H1498 H 0.52482 0.27452 0.78164
 H1499 H 0.55243 0.19719 0.74675
 H1500 H 0.46975 0.21016 0.75345
 H1501 H 0.47071 0.15892 0.77339
 H1502 H 0.47530 0.17229 0.73710
 H1503 H 0.54517 0.27842 0.81352
 H1504 H 0.57343 0.25935 0.79012
 H1505 H 0.47062 0.16296 0.81907
 H1506 H 0.53964 0.14241 0.80117
 H1507 H 0.50550 0.29104 0.75163
 H1508 H 0.53763 0.27714 0.73658
 H1509 H 0.56648 0.16695 0.81578
 H1510 H 0.54840 0.22062 0.83817
 H1511 H 0.49202 0.22576 0.71078
 H1512 H 0.45781 0.24459 0.73746
 O1513 O 0.30358 0.82071 0.50515
 O1514 O 0.29868 0.82095 0.54547
 O1515 O 0.32013 0.74679 0.49214
 O1516 O 0.30488 0.70957 0.49725
 O1517 O 0.26965 0.78195 0.45241
 O1518 O 0.23146 0.79039 0.46017
 O1519 O 0.24958 0.71149 0.55692
 O1520 O 0.28749 0.70813 0.55274
 O1521 O 0.23705 0.78334 0.57434
 O1522 O 0.25208 0.82384 0.55656
 O1523 O 0.20135 0.75073 0.52546
 O1524 O 0.20757 0.74310 0.48327
 O1525 O 0.22355 0.71111 0.52913
 O1526 O 0.22326 0.71189 0.48887
 O1527 O 0.20872 0.78545 0.54495
 O1528 O 0.22437 0.82364 0.53593
 O1529 O 0.25561 0.74834 0.57972
 O1530 O 0.29594 0.74460 0.57307
 O1531 O 0.27727 0.82130 0.47763
 O1532 O 0.23792 0.82191 0.47926
 O1533 O 0.28909 0.74773 0.45887
 O1534 O 0.27720 0.70903 0.47528
 O1535 O 0.32664 0.78265 0.51024
 O1536 O 0.31940 0.78448 0.55051
 Zr1537 Zr 0.29596 0.78994 0.52439
 O1538 O 0.27337 0.77880 0.54906
 Zr1539 Zr 0.28569 0.74091 0.49339
 O1540 O 0.26250 0.72778 0.51661
 Zr1541 Zr 0.25710 0.79076 0.48439
 O1542 O 0.23278 0.78008 0.50761
 Zr1543 Zr 0.27032 0.74094 0.54880
 O1544 O 0.29504 0.75174 0.52597
 Zr1545 Zr 0.24223 0.79134 0.54013
 O1546 O 0.26507 0.80454 0.51649
 Zr1547 Zr 0.23128 0.74202 0.50952
 O1548 O 0.25403 0.75270 0.48432
 O1549 O 0.28829 0.77831 0.49191
 O1550 O 0.23904 0.75372 0.54181
 C1551 C 0.29437 0.83009 0.48779
 C1552 C 0.33287 0.76430 0.49883
 C1553 C 0.28167 0.76432 0.44590
 C1554 C 0.23244 0.70241 0.54703
 C1555 C 0.24311 0.76535 0.58645
 C1556 C 0.19587 0.76819 0.53859
 H1557 H 0.27821 0.78477 0.56400
 H1558 H 0.21848 0.78690 0.50311
 H1559 H 0.29925 0.78398 0.48081
 H1560 H 0.26239 0.70987 0.51625
 H1561 H 0.30261 0.71120 0.54724
 H1562 H 0.29926 0.70090 0.51060
 H1563 H 0.21638 0.82244 0.52143
 H1564 H 0.24048 0.83245 0.49253
 H1565 H 0.29231 0.73384 0.58590
 H1566 H 0.33249 0.79498 0.54780
 H1567 H 0.19936 0.75834 0.48471
 H1568 H 0.22861 0.77318 0.45626
 H1569 H 0.31318 0.82896 0.54303
 H1570 H 0.26021 0.81948 0.57041
 H1571 H 0.26405 0.71279 0.46608
 H1572 H 0.23552 0.70040 0.49018
 O1573 O 0.25426 0.29393 0.95359
 O1574 O 0.21496 0.29674 0.95631
 O1575 O 0.27570 0.34025 1.00856
 O1576 O 0.28049 0.33936 1.04513
 O1577 O 0.30097 0.26339 0.99943
 O1578 O 0.28469 0.22511 1.00825
 O1579 O 0.20838 0.30178 1.07107
 O1580 O 0.22333 0.33908 1.05605
 O1581 O 0.18024 0.26208 1.02337
 O1582 O 0.18673 0.25501 0.98425
 O1583 O 0.22602 0.22974 1.06013
 O1584 O 0.26648 0.23047 1.06275
 O1585 O 0.22826 0.26870 1.08078
 O1586 O 0.27006 0.26291 1.07867
 O1587 O 0.20306 0.22500 1.03000
 O1588 O 0.20833 0.22382 0.98877
 O1589 O 0.18372 0.29877 1.04065
 O1590 O 0.19896 0.33604 1.02323
 O1591 O 0.27266 0.26013 0.96417
 O1592 O 0.26294 0.22255 0.98171
 O1593 O 0.30455 0.30089 1.01510
 O1594 O 0.29293 0.30730 1.05562
 O1595 O 0.25569 0.33509 0.97634
 O1596 O 0.21552 0.33271 0.97831
 Zr1597 Zr 0.23727 0.30338 0.98335
 O1598 O 0.21141 0.29256 1.00494
 Zr1599 Zr 0.27249 0.30768 1.02665
 O1600 O 0.24800 0.29759 1.04986
 Zr1601 Zr 0.26688 0.25606 0.99865
 O1602 O 0.24238 0.24324 1.02061
 Zr1603 Zr 0.21708 0.30709 1.03722
 O1604 O 0.24173 0.31969 1.01531
 Zr1605 Zr 0.21137 0.25492 1.00950
 O1606 O 0.23572 0.26526 0.98583
 Zr1607 Zr 0.24664 0.25959 1.05226
 O1608 O 0.27295 0.26987 1.03101
 O1609 O 0.26839 0.29348 0.99458
 O1610 O 0.21574 0.26964 1.04129
 C1611 C 0.26671 0.27578 0.94948
 C1612 C 0.26819 0.34764 0.98954
 C1613 C 0.31248 0.28187 1.00594
 C1614 C 0.21386 0.28493 1.08485
 C1615 C 0.17279 0.27964 1.03527
 C1616 C 0.21031 0.21872 1.04946
 H1617 H 0.19708 0.29778 0.99878
 H1618 H 0.24314 0.22538 1.02141
 H1619 H 0.27997 0.29942 0.98426
 H1620 H 0.25086 0.30544 1.06456
 H1621 H 0.23054 0.35074 1.04572
 H1622 H 0.26693 0.34401 1.05299
 H1623 H 0.21931 0.21204 0.99406
 H1624 H 0.24964 0.22389 0.97210
 H1625 H 0.18875 0.34188 1.03489
 H1626 H 0.21938 0.34129 0.96422
 H1627 H 0.26439 0.21722 1.05170
 H1628 H 0.29016 0.22820 1.02372
 H1629 H 0.21898 0.30737 0.94350
 H1630 H 0.19381 0.26147 0.97055
 H1631 H 0.29980 0.29116 1.05623
 H1632 H 0.26793 0.27871 1.08613
 N1633 N 0.29885 0.36063 0.74067
 N1634 N 0.30672 0.34343 0.75366
 C1635 C 0.30303 0.34939 0.77522
 C1636 C 0.29212 0.37118 0.77618
 C1637 C 0.29011 0.37784 0.75377
 H1638 H 0.28855 0.38187 0.79092
 H1639 H 0.30053 0.36111 0.72322
 H1640 H 0.31537 0.32853 0.74780
 N1641 N 0.25321 -0.08454 0.30987
 N1642 N 0.26285 -0.10447 0.31993
 C1643 C 0.27764 -0.11334 0.30541
 C1644 C 0.27806 -0.09908 0.28599
 C1645 C 0.26233 -0.08136 0.28955
 H1646 H 0.28803 -0.10143 0.27120
 H1647 H 0.24121 -0.07390 0.31732
 H1648 H 0.25856 -0.11100 0.33575
 N1649 N 0.76699 0.83583 0.74472
 N1650 N 0.77822 0.81812 0.75653
 C1651 C 0.77825 0.82419 0.77847
 C1652 C 0.76685 0.84569 0.78122
 C1653 C 0.76072 0.85273 0.75954
 H1654 H 0.76711 0.85710 0.79604
 H1655 H 0.76684 0.83741 0.72723
 H1656 H 0.78753 0.80463 0.74903
 N1657 N 0.41584 0.84379 0.26043
 N1658 N 0.40798 0.86345 0.27217
 C1659 C 0.42451 0.87223 0.28526
 C1660 C 0.44318 0.85795 0.28256
 C1661 C 0.43688 0.84041 0.26665
 H1662 H 0.45922 0.86045 0.29030
 H1663 H 0.40677 0.83397 0.24844
 H1664 H 0.39216 0.87007 0.26990
 N1665 N 0.02513 0.85286 0.79853
 N1666 N 0.01332 0.87296 0.80541
 C1667 C -0.00657 0.87163 0.79522
 C1668 C -0.00773 0.85137 0.78137
 C1669 C 0.01226 0.83996 0.78422
 H1670 H -0.02193 0.84438 0.77222
 H1671 H 0.04035 0.84786 0.80515
 H1672 H 0.01888 0.88550 0.81738
 N1673 N -0.07941 -0.06842 -0.02097
 N1674 N -0.08323 -0.09158 -0.02532
 C1675 C -0.06631 -0.10001 -0.03733
 C1676 C -0.05107 -0.08149 -0.04095
 C1677 C -0.05999 -0.06176 -0.03010
 H1678 H -0.03538 -0.08246 -0.04933
 H1679 H -0.08979 -0.05754 -0.01155
 H1680 H -0.09711 -0.10128 -0.01997
 N1681 N -0.06208 0.43264 0.47951
 N1682 N -0.06602 0.40786 0.47962
 C1683 C -0.05211 0.39789 0.46490
 C1684 C -0.03905 0.41584 0.45493
 C1685 C -0.04543 0.43730 0.46525
 H1686 H -0.02534 0.41332 0.44372
 H1687 H -0.06957 0.44480 0.49040
 H1688 H -0.07789 0.39919 0.48946
 N1689 N 0.48650 -0.08299 0.41593
 N1690 N 0.47798 -0.10517 0.40851
 C1691 C 0.46354 -0.11324 0.42404
 C1692 C 0.46228 -0.09635 0.44144
 C1693 C 0.47696 -0.07773 0.43561
 H1694 H 0.45232 -0.09747 0.45639
 H1695 H 0.49815 -0.07251 0.40735
 H1696 H 0.48291 -0.11375 0.39381
 N1697 N 0.47882 0.41350 -0.08304
 N1698 N 0.46955 0.39089 -0.08803
 C1699 C 0.45601 0.38475 -0.07103
 C1700 C 0.45607 0.40328 -0.05505
 C1701 C 0.47091 0.42071 -0.06309
 H1702 H 0.44770 0.40341 -0.03908
 H1703 H 0.49061 0.42241 -0.09282
 H1704 H 0.47311 0.38093 -0.10242
 N1705 N 0.81686 0.36207 0.52207
 N1706 N 0.82263 0.38328 0.51344
 C1707 C 0.81018 0.38712 0.49502
 C1708 C 0.79585 0.36762 0.49171
 C1709 C 0.80069 0.35209 0.50924
 H1710 H 0.78395 0.36483 0.47830
 H1711 H 0.82409 0.35450 0.53636
 H1712 H 0.83482 0.39476 0.52016
 N1713 N 0.83521 0.84016 -0.00377
 N1714 N 0.83874 0.86298 -0.01320
 C1715 C 0.82361 0.86561 -0.02966
 C1716 C 0.81038 0.84488 -0.03126
 C1717 C 0.81807 0.82958 -0.01470
 H1718 H 0.79641 0.84162 -0.04229
 H1719 H 0.84393 0.83329 0.00994
 H1720 H 0.85079 0.87541 -0.00783
 N1721 N 0.82690 0.26861 0.43564
 N1722 N 0.83303 0.27688 0.41584
 C1723 C 0.81715 0.29137 0.40785
 C1724 C 0.80026 0.29266 0.42321
 C1725 C 0.80707 0.27772 0.44048
 H1726 H 0.78479 0.30195 0.42160
 H1727 H 0.83611 0.25679 0.44551
 H1728 H 0.84762 0.27216 0.40794
 N1729 N 0.82482 0.72904 -0.07915
 N1730 N 0.83312 0.73696 -0.09961
 C1731 C 0.81983 0.75447 -0.10734
 C1732 C 0.80287 0.75820 -0.09213
 C1733 C 0.80690 0.74210 -0.07452
 H1734 H 0.79031 0.77186 -0.09293
 H1735 H 0.83254 0.71658 -0.06864
 H1736 H 0.84715 0.73007 -0.10712
 N1737 N 0.33053 0.46764 0.80947
 N1738 N 0.33649 0.46480 0.83062
 C1739 C 0.31867 0.45821 0.84254
 C1740 C 0.30042 0.45642 0.82830
 C1741 C 0.30878 0.46293 0.80743
 H1742 H 0.28345 0.45283 0.83272
 H1743 H 0.34121 0.47317 0.79674
 H1744 H 0.35242 0.46804 0.83674
 N1745 N 0.23277 -0.02486 0.34627
 N1746 N 0.24487 -0.03441 0.36407
 C1747 C 0.26559 -0.02553 0.36249
 C1748 C 0.26705 -0.00977 0.34428
 C1749 C 0.24629 -0.01036 0.33427
 H1750 H 0.28186 -0.00174 0.33733
 H1751 H 0.21691 -0.03065 0.34171
 H1752 H 0.23881 -0.04734 0.37530
 N1753 N -0.06245 0.01455 -0.11216
 N1754 N -0.06980 0.00113 -0.13060
 C1755 C -0.05603 -0.01754 -0.13295
 C1756 C -0.03984 -0.01671 -0.11622
 C1757 C -0.04468 0.00353 -0.10344
 H1758 H -0.02704 -0.02969 -0.11302
 H1759 H -0.07050 0.02955 -0.10563
 H1760 H -0.08344 0.00540 -0.14050
 N1761 N -0.01680 0.49915 0.37308
 N1762 N -0.02767 0.48546 0.35668
 C1763 C -0.04920 0.48498 0.36176
 C1764 C -0.05268 0.49857 0.38120
 C1765 C -0.03176 0.50650 0.38810
 H1766 H -0.06762 0.49902 0.39095
 H1767 H 0.00028 0.50012 0.37501
 H1768 H -0.01987 0.47617 0.34378
 N1769 N 0.48698 0.02324 0.37402
 N1770 N 0.47685 0.01460 0.35594
 C1771 C 0.47454 -0.00962 0.35796
 C1772 C 0.48396 -0.01680 0.37812
 C1773 C 0.49141 0.00472 0.38795
 H1774 H 0.48205 -0.03425 0.38622
 H1775 H 0.48899 0.04168 0.37760
 H1776 H 0.46981 0.02539 0.34349
 N1777 N 0.45382 0.51843 -0.11703
 N1778 N 0.44566 0.50674 -0.13633
 C1779 C 0.45635 0.48559 -0.13821
 C1780 C 0.47162 0.48364 -0.12097
 C1781 C 0.46948 0.50430 -0.10807
 H1782 H 0.48217 0.46852 -0.11732
 H1783 H 0.44779 0.53449 -0.11035
 H1784 H 0.43267 0.51292 -0.14625
 N1785 N 0.42976 0.73995 0.32360
 N1786 N 0.42512 0.74607 0.34450
 C1787 C 0.43670 0.76636 0.34974
 C1788 C 0.44926 0.77346 0.33163
 C1789 C 0.44437 0.75623 0.31541
 H1790 H 0.46012 0.78910 0.33022
 H1791 H 0.42287 0.72504 0.31514
 H1792 H 0.41396 0.73668 0.35465
 N1793 N 0.01486 0.80513 0.85649
 N1794 N 0.00435 0.81532 0.87478
 C1795 C -0.01193 0.79991 0.88091
 C1796 C -0.01231 0.77969 0.86679
 C1797 C 0.00460 0.78394 0.85155
 H1798 H -0.02399 0.76469 0.86675
 H1799 H 0.02756 0.81355 0.84755
 H1800 H 0.00882 0.83192 0.88203
 N1801 N 0.37343 0.74299 0.25122
 N1802 N 0.35574 0.74976 0.26211
 C1803 C 0.35648 0.77400 0.26461
 C1804 C 0.37544 0.78320 0.25469
 C1805 C 0.38589 0.76275 0.24660
 H1806 H 0.38208 0.80142 0.25608
 H1807 H 0.37758 0.72496 0.24838
 H1808 H 0.34415 0.73779 0.26898
 N1809 N -0.06795 0.80060 0.77114
 N1810 N -0.08840 0.80523 0.77661
 C1811 C -0.09471 0.78949 0.79267
 C1812 C -0.07750 0.77420 0.79789
 C1813 C -0.06085 0.78180 0.78356
 H1814 H -0.07745 0.75915 0.80953
 H1815 H -0.05918 0.80995 0.75876
 H1816 H -0.09778 0.81885 0.76929
 N1817 N 0.86931 0.28125 0.53573
 N1818 N 0.88854 0.28718 0.52698
 C1819 C 0.88857 0.28038 0.50521
 C1820 C 0.86861 0.26923 0.49991
 C1821 C 0.85679 0.27045 0.51976
 H1822 H 0.86257 0.26383 0.48346
 H1823 H 0.86451 0.28571 0.55201
 H1824 H 0.90088 0.29687 0.53556
 N1825 N 0.87453 0.72468 -0.02377
 N1826 N 0.89148 0.73470 -0.03427
 C1827 C 0.89389 0.75777 -0.02713
 C1828 C 0.87809 0.76250 -0.01115
 C1829 C 0.86595 0.74113 -0.00968
 H1830 H 0.87426 0.77975 -0.00361
 H1831 H 0.86807 0.70745 -0.02741
 H1832 H 0.90024 0.72624 -0.04700
 N1833 N -0.11183 0.03134 -0.07094
 N1834 N -0.13013 0.01802 -0.07870
 C1835 C -0.13322 -0.00063 -0.06437
 C1836 C -0.11766 0.00066 -0.04720
 C1837 C -0.10449 0.02063 -0.05202
 H1838 H -0.11501 -0.01224 -0.03382
 H1839 H -0.10441 0.04578 -0.07948
 H1840 H -0.13854 0.02138 -0.09370
 N1841 N -0.10108 0.53905 0.44240
 N1842 N -0.12205 0.52938 0.43828
 C1843 C -0.12447 0.50963 0.45142
 C1844 C -0.10554 0.50649 0.46433
 C1845 C -0.09127 0.52508 0.45796
 H1846 H -0.10190 0.49172 0.47563
 H1847 H -0.09405 0.55363 0.43371
 H1848 H -0.13309 0.53617 0.42645
 N1849 N 0.41371 0.02021 0.41416
 N1850 N 0.39472 0.01120 0.40348
 C1851 C 0.39020 -0.01064 0.41258
 C1852 C 0.40589 -0.01603 0.42888
 C1853 C 0.42008 0.00370 0.42949
 H1854 H 0.40686 -0.03196 0.43938
 H1855 H 0.42128 0.03690 0.41073
 H1856 H 0.38583 0.02032 0.39112
 N1857 N 0.40139 0.49801 -0.01098
 N1858 N 0.37930 0.49553 -0.01679
 C1859 C 0.37783 0.49641 -0.03942
 C1860 C 0.39868 0.50033 -0.04849
 C1861 C 0.41284 0.50077 -0.03004
 H1862 H 0.40324 0.50056 -0.06602
 H1863 H 0.40775 0.49669 0.00532
 H1864 H 0.36680 0.49231 -0.00523
 N1865 N 0.36858 0.42690 0.72170
 N1866 N 0.38691 0.42121 0.73236
 C1867 C 0.38964 0.43633 0.74997
 C1868 C 0.37250 0.45258 0.75045
 C1869 C 0.35934 0.44574 0.73231
 H1870 H 0.36892 0.46572 0.76336
 H1871 H 0.36199 0.41719 0.70809
 H1872 H 0.39677 0.40663 0.72808
 N1873 N 0.32656 0.01716 0.30238
 N1874 N 0.34537 0.01075 0.31170
 C1875 C 0.35074 -0.01109 0.30353
 C1876 C 0.33477 -0.01898 0.28827
 C1877 C 0.31973 -0.00042 0.28803
 H1878 H 0.33409 -0.03572 0.27879
 H1879 H 0.31853 0.03329 0.30592
 H1880 H 0.35410 0.02115 0.32352
 N1881 N 0.16541 0.48529 0.68503
 N1882 N 0.14808 0.49710 0.67780
 C1883 C 0.14905 0.51970 0.68617
 C1884 C 0.16787 0.52260 0.69949
 C1885 C 0.17794 0.50013 0.69809
 H1886 H 0.17402 0.53895 0.70756
 H1887 H 0.16896 0.46756 0.68027
 H1888 H 0.13607 0.48985 0.66697
 N1889 N 0.14524 -0.00479 0.17566
 N1890 N 0.12470 0.00062 0.17043
 C1891 C 0.11771 0.01731 0.18516
 C1892 C 0.13441 0.02291 0.20032
 C1893 C 0.15161 0.00850 0.19367
 H1894 H 0.13417 0.03566 0.21413
 H1895 H 0.15468 -0.01728 0.16693
 H1896 H 0.11575 -0.00718 0.15716
 N1897 N 0.58522 0.77166 0.20169
 N1898 N 0.60530 0.76421 0.19765
 C1899 C 0.60640 0.74044 0.20271
 C1900 C 0.58618 0.73236 0.21058
 C1901 C 0.57314 0.75283 0.20942
 H1902 H 0.58127 0.71407 0.21504
 H1903 H 0.57981 0.78924 0.19868
 H1904 H 0.61779 0.77527 0.19112
 N1905 N 0.11682 0.67632 0.76099
 N1906 N 0.13619 0.67077 0.75273
 C1907 C 0.14111 0.68668 0.73631
 C1908 C 0.12426 0.70305 0.73388
 C1909 C 0.10912 0.69572 0.74983
 H1910 H 0.12289 0.71767 0.72186
 H1911 H 0.10893 0.66669 0.77378
 H1912 H 0.14566 0.65630 0.75825
 N1913 N 0.65335 0.26182 0.52921
 N1914 N 0.63401 0.25358 0.53589
 C1915 C 0.63481 0.22930 0.53751
 C1916 C 0.65554 0.22162 0.53149
 C1917 C 0.66685 0.24295 0.52656
 H1918 H 0.66236 0.20381 0.53393
 H1919 H 0.65769 0.28019 0.52827
 H1920 H 0.62119 0.26454 0.54116
 N1921 N 0.67239 0.76755 0.04676
 N1922 N 0.65104 0.76422 0.04924
 C1923 C 0.64528 0.74220 0.04105
 C1924 C 0.66389 0.73097 0.03280
 C1925 C 0.68078 0.74785 0.03687
 H1926 H 0.66510 0.71312 0.02542
 H1927 H 0.68102 0.78314 0.05190
 H1928 H 0.64089 0.77693 0.05671
 N1929 N 0.08210 0.01307 0.02904
 N1930 N 0.10219 0.01770 0.03648
 C1931 C 0.10758 0.04095 0.03179
 C1932 C 0.08998 0.05163 0.02050
 C1933 C 0.07410 0.03305 0.01920
 H1934 H 0.08854 0.07021 0.01499
 H1935 H 0.07388 -0.00356 0.03099
 H1936 H 0.11161 0.00507 0.04513
 N1937 N 0.10894 0.50714 0.48764
 N1938 N 0.12944 0.51143 0.49410
 C1939 C 0.13152 0.53488 0.50032
 C1940 C 0.11149 0.54621 0.49733
 C1941 C 0.09764 0.52776 0.48942
 H1942 H 0.10701 0.56424 0.50258
 H1943 H 0.10264 0.49012 0.48301
 H1944 H 0.14137 0.49810 0.49542
 N1945 N 0.58078 0.01038 0.55860
 N1946 N 0.59970 0.01676 0.56802
 C1947 C 0.61039 0.03217 0.55418
 C1948 C 0.59767 0.03601 0.53509
 C1949 C 0.57910 0.02148 0.53854
 H1950 H 0.60194 0.04635 0.52027
 H1951 H 0.56938 -0.00162 0.56577
 H1952 H 0.60539 0.01001 0.58335
 N1953 N 0.61400 0.49327 -0.00214
 N1954 N 0.63279 0.49879 0.00799
 C1955 C 0.63292 0.52252 0.01318
 C1956 C 0.61348 0.53272 0.00583
 C1957 C 0.60179 0.51338 -0.00346
 H1958 H 0.60720 0.55031 0.01027
 H1959 H 0.60889 0.47564 -0.00623
 H1960 H 0.64433 0.48607 0.01314
 N1961 N -0.01386 0.07516 0.08970
 N1962 N -0.00732 0.07664 0.11212
 C1963 C 0.00896 0.06063 0.11524
 C1964 C 0.01297 0.04844 0.09520
 C1965 C -0.00169 0.05813 0.07970
 H1966 H 0.02496 0.03456 0.09217
 H1967 H -0.02621 0.08551 0.08234
 H1968 H -0.01381 0.08873 0.12370
 N1969 N 0.03951 0.51907 0.58048
 N1970 N 0.04853 0.52442 0.60010
 C1971 C 0.05075 0.54861 0.60173
 C1972 C 0.04274 0.55941 0.58218
 C1973 C 0.03586 0.53972 0.56902
 H1974 H 0.04371 0.57831 0.57745
 H1975 H 0.03670 0.50140 0.57471
 H1976 H 0.05399 0.51162 0.61170
 N1977 N 0.50447 -0.01346 0.59336
 N1978 N 0.51638 -0.00911 0.61304
 C1979 C 0.52015 0.01494 0.61458
 C1980 C 0.51045 0.02653 0.59625
 C1981 C 0.50155 0.00790 0.58288
 H1982 H 0.51352 0.04507 0.59107
 H1983 H 0.50200 -0.03064 0.58631
 H1984 H 0.52297 -0.02260 0.62325
 N1985 N 0.55425 0.48453 0.08197
 N1986 N 0.55908 0.49088 0.10294
 C1987 C 0.54799 0.51114 0.10780
 C1988 C 0.53551 0.51788 0.08948
 C1989 C 0.53996 0.50063 0.07344
 H1990 H 0.52530 0.53366 0.08767
 H1991 H 0.56104 0.46984 0.07359
 H1992 H 0.57032 0.48198 0.11326
 N1993 N 0.21078 0.46965 0.62273
 N1994 N 0.20273 0.48032 0.60465
 C1995 C 0.21348 0.50164 0.60180
 C1996 C 0.22914 0.50468 0.61857
 C1997 C 0.22684 0.48394 0.63150
 H1998 H 0.23978 0.52024 0.62173
 H1999 H 0.20486 0.45327 0.62927
 H2000 H 0.18950 0.47347 0.59519
 N2001 N 0.22279 -0.00904 0.12753
 N2002 N 0.21470 -0.00015 0.10865
 C2003 C 0.21583 0.02423 0.10970
 C2004 C 0.22548 0.03119 0.12997
 C2005 C 0.22940 0.00944 0.14092
 H2006 H 0.22664 0.04927 0.13700
 H2007 H 0.22239 -0.02742 0.13174
 H2008 H 0.20740 -0.01067 0.09596
 N2009 N 0.69620 0.24777 0.61267
 N2010 N 0.68841 0.23749 0.63106
 C2011 C 0.70000 0.21735 0.63517
 C2012 C 0.71582 0.21461 0.61881
 C2013 C 0.71284 0.23435 0.60489
 H2014 H 0.72783 0.20047 0.61724
 H2015 H 0.69016 0.26370 0.60565
 H2016 H 0.67540 0.24422 0.64041
 N2017 N 0.73402 0.76484 0.11839
 N2018 N 0.72262 0.75906 0.13642
 C2019 C 0.72248 0.73479 0.13878
 C2020 C 0.73462 0.72460 0.12166
 C2021 C 0.74135 0.74440 0.10884
 H2022 H 0.73593 0.70562 0.11763
 H2023 H 0.73562 0.78242 0.11205
 H2024 H 0.71404 0.77150 0.14609
 N2025 N 0.52271 0.78436 0.12548
 N2026 N 0.53259 0.77873 0.10656
 C2027 C 0.52913 0.75496 0.10241
 C2028 C 0.51616 0.74502 0.11924
 C2029 C 0.51269 0.76435 0.13369
 H2030 H 0.51192 0.72612 0.12190
 H2031 H 0.52371 0.80140 0.13311
 H2032 H 0.54232 0.79081 0.09734
 N2033 N 0.02562 0.68419 0.66627
 N2034 N 0.03061 0.68248 0.64479
 C2035 C 0.04587 0.69964 0.64002
 C2036 C 0.05100 0.71279 0.65930
 C2037 C 0.03763 0.70239 0.67555
 H2038 H 0.06213 0.72817 0.66112
 H2039 H 0.01390 0.67325 0.67427
 H2040 H 0.02335 0.66996 0.63374
 N2041 N 0.51214 0.66961 0.15915
 N2042 N 0.52140 0.64906 0.15357
 C2043 C 0.53042 0.63933 0.17218
 C2044 C 0.52702 0.65445 0.19044
 C2045 C 0.51513 0.67337 0.18134
 H2046 H 0.53151 0.65161 0.20786
 H2047 H 0.50373 0.68072 0.14789
 H2048 H 0.52104 0.64187 0.13735
 N2049 N 0.04660 0.62027 0.76171
 N2050 N 0.05575 0.60323 0.74950
 C2051 C 0.05100 0.60731 0.72770
 C2052 C 0.03793 0.62755 0.72592
 C2053 C 0.03579 0.63547 0.74794
 H2054 H 0.03362 0.63724 0.71073
 H2055 H 0.04926 0.62252 0.77896
 H2056 H 0.06621 0.59009 0.75597
 N2057 N 0.01452 0.14464 0.00921
 N2058 N 0.02772 0.15968 0.02030
 C2059 C 0.04687 0.14849 0.02425
 C2060 C 0.04610 0.12556 0.01518
 C2061 C 0.02525 0.12383 0.00591
 H2062 H 0.05752 0.11102 0.01812
 H2063 H -0.00205 0.14784 0.00574
 H2064 H 0.02291 0.17624 0.02703
 N2065 N 0.06422 0.62950 0.48251
 N2066 N 0.07075 0.64997 0.49222
 C2067 C 0.05854 0.65329 0.51076
 C2068 C 0.04364 0.63437 0.51297
 C2069 C 0.04783 0.61967 0.49477
 H2070 H 0.03196 0.63117 0.52630
 H2071 H 0.07119 0.62226 0.46805
 H2072 H 0.08366 0.66093 0.48646
 N2073 N 0.50400 0.10810 0.54983
 N2074 N 0.51358 0.12615 0.56088
 C2075 C 0.53415 0.12909 0.55307
 C2076 C 0.53798 0.11232 0.53625
 C2077 C 0.51835 0.09920 0.53491
 H2078 H 0.55311 0.10923 0.52733
 H2079 H 0.48809 0.10160 0.55301
 H2080 H 0.50615 0.13592 0.57370
 N2081 N 0.53999 0.59280 0.05193
 N2082 N 0.54750 0.61400 0.05903
 C2083 C 0.55584 0.62626 0.04147
 C2084 C 0.55356 0.61223 0.02207
 C2085 C 0.54313 0.59107 0.02958
 H2086 H 0.55704 0.61748 0.00494
 H2087 H 0.53210 0.58008 0.06220
 H2088 H 0.54602 0.62035 0.07548
 N2089 N 0.75291 0.14320 0.53892
 N2090 N 0.74657 0.11913 0.54137
 C2091 C 0.72440 0.11789 0.54028
 C2092 C 0.71609 0.14112 0.53644
 C2093 C 0.73472 0.15639 0.53613
 H2094 H 0.69904 0.14641 0.53565
 H2095 H 0.76914 0.14967 0.53980
 H2096 H 0.75766 0.10515 0.54385
 N2097 N 0.72814 0.66241 0.08365
 N2098 N 0.71581 0.64405 0.09036
 C2099 C 0.70592 0.63403 0.07220
 C2100 C 0.71179 0.64689 0.05303
 C2101 C 0.72616 0.66461 0.06121
 H2102 H 0.70752 0.64299 0.03571
 H2103 H 0.73820 0.67284 0.09430
 H2104 H 0.71488 0.63830 0.10702
 N2105 N 0.25626 0.57685 0.66417
 N2106 N 0.24985 0.59947 0.66186
 C2107 C 0.23684 0.60492 0.67931
 C2108 C 0.23478 0.58504 0.69333
 C2109 C 0.24746 0.56765 0.68312
 H2110 H 0.22586 0.58359 0.70894
 H2111 H 0.26669 0.56804 0.65307
 H2112 H 0.25441 0.61078 0.64859
 N2113 N 0.22886 0.10467 0.17877
 N2114 N 0.22142 0.12641 0.17398
 C2115 C 0.20421 0.13087 0.18741
 C2116 C 0.20036 0.11108 0.20126
 C2117 C 0.21649 0.09491 0.19524
 H2118 H 0.18812 0.10896 0.21424
 H2119 H 0.24235 0.09682 0.17100
 H2120 H 0.22836 0.13794 0.16200
 N2121 N 0.75211 1.06454 0.69034
 N2122 N 0.74569 1.08702 0.68718
 C2123 C 0.72794 1.09093 0.70000
 C2124 C 0.72275 1.07004 0.71195
 C2125 C 0.73855 1.05366 0.70516
 H2126 H 0.70917 1.06696 0.72328
 H2127 H 0.76546 1.05680 0.68224
 H2128 H 0.75343 1.09928 0.67635
 N2129 N 0.71428 0.60518 0.24624
 N2130 N 0.71097 0.62605 0.23611
 C2131 C 0.69027 0.62617 0.22800
 C2132 C 0.67973 0.60428 0.23323
 C2133 C 0.69580 0.59145 0.24489
 H2134 H 0.66377 0.59779 0.22746
 H2135 H 0.72941 0.59989 0.25290
 H2136 H 0.72303 0.63954 0.23402
 N2137 N 0.57006 0.12566 0.74363
 N2138 N 0.57938 0.11015 0.72820
 C2139 C 0.56616 0.10933 0.70985
 C2140 C 0.54821 0.12443 0.71309
 C2141 C 0.55152 0.13444 0.73450
 H2142 H 0.53508 0.12830 0.70131
 H2143 H 0.57730 0.13052 0.75901
 H2144 H 0.59378 0.10069 0.73137
 N2145 N 1.03329 0.13407 0.26964
 N2146 N 1.04050 0.11392 0.26035
 C2147 C 1.02894 0.10977 0.24127
 C2148 C 1.01362 0.12778 0.23841
 C2149 C 1.01702 0.14293 0.25665
 H2150 H 1.00282 0.13071 0.22417
 H2151 H 1.04013 0.14213 0.28403
 H2152 H 1.05360 0.10388 0.26661
 N2153 N 0.22691 0.67332 0.57831
 N2154 N 0.21869 0.65130 0.58134
 C2155 C 0.20916 0.64367 0.56202
 C2156 C 0.21114 0.66181 0.54592
 C2157 C 0.22281 0.68025 0.55701
 H2158 H 0.20666 0.66087 0.52830
 H2159 H 0.23589 0.68303 0.59047
 H2160 H 0.22033 0.64148 0.59623
 N2161 N 0.20272 0.19291 1.08272
 N2162 N 0.19474 0.17107 1.08712
 C2163 C 0.18680 0.16116 1.06796
 C2164 C 0.18979 0.17752 1.05042
 C2165 C 0.20026 0.19740 1.06060
 H2166 H 0.18701 0.17441 1.03267
 H2167 H 0.21062 0.20407 1.09458
 H2168 H 0.19580 0.16265 1.10279
 N2169 N 0.21834 0.77646 0.61812
 N2170 N 0.21137 0.76592 0.63679
 C2171 C 0.22289 0.74551 0.63996
 C2172 C 0.23791 0.74312 0.62288
 C2173 C 0.23435 0.76289 0.60924
 H2174 H 0.24853 0.72801 0.61955
 H2175 H 0.21130 0.79181 0.61096
 H2176 H 0.19824 0.77201 0.64635
 N2177 N 0.18564 0.29704 1.11312
 N2178 N 0.17575 0.28608 1.13177
 C2179 C 0.18611 0.26501 1.13551
 C2180 C 0.20281 0.26236 1.11995
 C2181 C 0.20191 0.28255 1.10620
 H2182 H 0.21340 0.24700 1.11777
 H2183 H 0.18009 0.31269 1.10519
 H2184 H 0.16203 0.29270 1.14007
 N2185 N 0.66198 0.48901 0.16995
 N2186 N 0.65904 0.49514 0.14872
 C2187 C 0.67301 0.51355 0.14400
 C2188 C 0.68544 0.51948 0.16290
 C2189 C 0.67790 0.50338 0.17899
 H2190 H 0.69806 0.53341 0.16472
 H2191 H 0.65314 0.47523 0.17805
 H2192 H 0.64739 0.48709 0.13797
 N2193 N 0.75676 0.98048 0.62414
 N2194 N 0.75044 0.99023 0.60497
 C2195 C 0.72834 0.99120 0.60474
 C2196 C 0.72011 0.98126 0.62442
 C2197 C 0.73881 0.97502 0.63638
 H2198 H 0.70338 0.98167 0.63046
 H2199 H 0.77316 0.97904 0.62929
 H2200 H 0.76119 0.99740 0.59300
 N2201 N 0.57266 0.24314 0.68554
 N2202 N 0.57982 0.23977 0.66492
 C2203 C 0.56850 0.22099 0.65579
 C2204 C 0.55338 0.21202 0.67114
 C2205 C 0.55666 0.22663 0.68983
 H2206 H 0.54219 0.19669 0.66932
 H2207 H 0.57893 0.25634 0.69655
 H2208 H 0.59243 0.25001 0.65760
 N2209 N 1.01065 0.17871 0.17174
 N2210 N 1.02195 0.17264 0.15245
 C2211 C 1.03658 0.19070 0.14833
 C2212 C 1.03507 0.20858 0.16488
 C2213 C 1.01850 0.20027 0.17912
 H2214 H 1.04451 0.22531 0.16633
 H2215 H 0.99834 0.16792 0.17898
 H2216 H 1.01910 0.15668 0.14342
 N2217 N 0.61812 0.18287 0.78376
 N2218 N 0.63625 0.17540 0.77405
 C2219 C 0.63811 0.18657 0.75407
 C2220 C 0.62060 0.20214 0.75100
 C2221 C 0.60813 0.19899 0.77021
 H2222 H 0.61616 0.21196 0.73593
 H2223 H 0.61200 0.17583 0.79880
 H2224 H 0.64645 0.16207 0.78062
 N2225 N 1.08747 0.20750 0.26863
 N2226 N 1.10700 0.20354 0.25989
 C2227 C 1.10892 0.21660 0.24087
 C2228 C 1.08988 0.22952 0.23729
 C2229 C 1.07658 0.22301 0.25526
 H2230 H 1.08559 0.24032 0.22278
 H2231 H 1.08139 0.19877 0.28290
 H2232 H 1.11838 0.19145 0.26650
 N2233 N 0.16756 0.78299 0.56488
 N2234 N 0.14739 0.77695 0.57098
 C2235 C 0.14038 0.75852 0.55784
 C2236 C 0.15663 0.75238 0.54280
 C2237 C 0.17366 0.76833 0.54793
 H2238 H 0.15649 0.73776 0.53066
 H2239 H 0.17719 0.79644 0.57271
 H2240 H 0.13883 0.78514 0.58401
 N2241 N 0.14353 0.29047 1.06231
 N2242 N 0.12676 0.27904 1.07187
 C2243 C 0.12337 0.25798 1.06092
 C2244 C 0.13831 0.25591 1.04368
 C2245 C 0.15100 0.27669 1.04529
 H2246 H 0.14130 0.24026 1.03325
 H2247 H 0.15072 0.30648 1.06848
 H2248 H 0.11871 0.28505 1.08621
 N2249 N 0.60275 0.49460 0.25658
 N2250 N 0.58515 0.50197 0.24562
 C2251 C 0.58865 0.52499 0.23899
 C2252 C 0.60926 0.53281 0.24630
 C2253 C 0.61778 0.51279 0.25707
 H2254 H 0.61824 0.54879 0.24078
 H2255 H 0.60523 0.47671 0.26160
 H2256 H 0.57201 0.49064 0.24079
 N2257 N 0.64490 0.98469 0.72035
 N2258 N 0.62686 0.99276 0.71064
 C2259 C 0.63056 0.99557 0.68851
 C2260 C 0.65199 0.98906 0.68385
 C2261 C 0.66044 0.98227 0.70459
 H2262 H 0.66085 0.99158 0.66831
 H2263 H 0.64678 0.98193 0.73761
 H2264 H 0.61287 0.99808 0.71931
 N2265 N 0.81391 0.46127 0.26820
 N2266 N 0.83354 0.45521 0.27557
 C2267 C 0.83461 0.45915 0.29789
 C2268 C 0.81480 0.46844 0.30519
 C2269 C 0.80208 0.46923 0.28563
 H2270 H 0.80967 0.47166 0.32228
 H2271 H 0.80848 0.45907 0.25160
 H2272 H 0.84555 0.44731 0.26562
 N2273 N 0.84077 0.89577 0.75360
 N2274 N 0.86090 0.89305 0.76158
 C2275 C 0.86578 0.91191 0.77519
 C2276 C 0.84795 0.92733 0.77608
 C2277 C 0.83245 0.91638 0.76197
 H2278 H 0.84669 0.94438 0.78493
 H2279 H 0.83306 0.88380 0.74232
 H2280 H 0.87100 0.87862 0.75747
 N2281 N 0.41030 0.21868 0.80529
 N2282 N 0.39302 0.22886 0.81434
 C2283 C 0.39389 0.25268 0.80978
 C2284 C 0.41244 0.25810 0.79712
 C2285 C 0.42258 0.23585 0.79488
 H2286 H 0.41846 0.27575 0.79189
 H2287 H 0.41408 0.20040 0.80717
 H2288 H 0.38112 0.21964 0.82372
 N2289 N 0.87774 0.27244 0.24912
 N2290 N 0.85930 0.28098 0.25736
 C2291 C 0.85897 0.27641 0.27958
 C2292 C 0.87780 0.26408 0.28571
 C2293 C 0.88936 0.26219 0.26591
 H2294 H 0.88342 0.25937 0.30241
 H2295 H 0.88275 0.27472 0.23250
 H2296 H 0.84791 0.29086 0.24807
 N2297 N 0.36673 0.74328 0.48742
 N2298 N 0.38534 0.74909 0.47738
 C2299 C 0.38677 0.77340 0.47537
 C2300 C 0.36840 0.78362 0.48492
 C2301 C 0.35597 0.76377 0.49205
 H2302 H 0.36328 0.80227 0.48380
 H2303 H 0.36093 0.72554 0.48973
 H2304 H 0.39602 0.73649 0.47049
 N2305 N 0.34768 0.26027 1.00471
 N2306 N 0.36744 0.26359 0.99619
 C2307 C 0.36904 0.28633 0.98810
 C2308 C 0.34945 0.29825 0.99189
 C2309 C 0.33628 0.28081 1.00232
 H2310 H 0.34454 0.31568 0.98541
 H2311 H 0.34174 0.24376 1.01096
 H2312 H 0.37907 0.24998 0.99468
 N2313 N 0.72750 0.46012 0.37623
 N2314 N 0.73866 0.45650 0.39496
 C2315 C 0.75865 0.46704 0.39293
 C2316 C 0.76038 0.47814 0.37207
 C2317 C 0.74018 0.47300 0.36193
 H2318 H 0.77460 0.48710 0.36483
 H2319 H 0.71162 0.45332 0.37318
 H2320 H 0.73271 0.44658 0.40860
 N2321 N 0.74826 0.91181 0.83682
 N2322 N 0.75542 0.91130 0.85782
 C2323 C 0.77203 0.92761 0.86004
 C2324 C 0.77579 0.93895 0.83973
 C2325 C 0.76038 0.92826 0.82543
 H2326 H 0.78828 0.95242 0.83575
 H2327 H 0.73549 0.90085 0.83045
 H2328 H 0.74905 0.89986 0.87021
 N2329 N 0.29850 0.74393 0.41313
 N2330 N 0.30381 0.74909 0.39219
 C2331 C 0.29708 0.77168 0.38750
 C2332 C 0.28686 0.78132 0.40622
 C2333 C 0.28825 0.76307 0.42217
 H2334 H 0.28031 0.79929 0.40833
 H2335 H 0.30223 0.72767 0.42117
 H2336 H 0.31218 0.73737 0.38161
 N2337 N 0.28261 0.25029 0.91983
 N2338 N 0.29321 0.25298 0.90076
 C2339 C 0.29306 0.27653 0.89500
 C2340 C 0.28163 0.28959 0.91105
 C2341 C 0.27549 0.27205 0.92674
 H2342 H 0.28006 0.30904 0.91232
 H2343 H 0.28118 0.23388 0.92848
 H2344 H 0.30112 0.23902 0.89236
 N2345 N 0.44944 0.21224 0.86673
 N2346 N 0.43898 0.22377 0.88285
 C2347 C 0.44960 0.24499 0.88685
 C2348 C 0.46764 0.24699 0.87302
 C2349 C 0.46695 0.22586 0.86050
 H2350 H 0.47880 0.26232 0.87113
 H2351 H 0.44411 0.19587 0.85956
 H2352 H 0.42431 0.21766 0.89007
 N2353 N 0.92063 0.26874 0.34740
 N2354 N 0.91604 0.27618 0.36784
 C2355 C 0.93314 0.28958 0.37558
 C2356 C 0.94940 0.29104 0.35930
 C2357 C 0.94081 0.27711 0.34173
 H2358 H 0.96573 0.29901 0.36084
 H2359 H 0.91040 0.25725 0.33788
 H2360 H 0.90176 0.27139 0.37652
 N2361 N 0.49105 0.31814 0.83657
 N2362 N 0.48346 0.34024 0.83930
 C2363 C 0.47257 0.34662 0.82045
 C2364 C 0.47311 0.32777 0.80506
 C2365 C 0.48516 0.31008 0.81596
 H2366 H 0.46645 0.32728 0.78814
 H2367 H 0.50037 0.30894 0.84856
 H2368 H 0.48592 0.35064 0.85379
 N2369 N 0.92895 0.34408 0.25203
 N2370 N 0.91971 0.36339 0.26068
 C2371 C 0.92953 0.36849 0.28052
 C2372 C 0.94582 0.35181 0.28481
 C2373 C 0.94470 0.33641 0.26629
 H2374 H 0.95551 0.34979 0.30001
 H2375 H 0.92372 0.33564 0.23716
 H2376 H 0.90640 0.37230 0.25344
 N2377 N 0.32229 0.86315 0.48867
 N2378 N 0.32838 0.88174 0.47620
 C2379 C 0.31466 0.88297 0.45836
 C2380 C 0.29902 0.86450 0.45944
 C2381 C 0.30466 0.85223 0.47896
 H2382 H 0.28612 0.86007 0.44742
 H2383 H 0.33035 0.85792 0.50342
 H2384 H 0.34175 0.89319 0.47994
 N2385 N 0.27419 0.39021 1.00020
 N2386 N 0.27763 0.41140 0.99065
 C2387 C 0.27839 0.40828 0.96821
 C2388 C 0.27485 0.38390 0.96312
 C2389 C 0.27257 0.37313 0.98412
 H2390 H 0.27534 0.37514 0.94686
 H2391 H 0.27300 0.38756 1.01753
 H2392 H 0.28004 0.42754 0.99957
 N2393 N 0.72922 0.37580 0.28101
 N2394 N 0.74103 0.35685 0.28655
 C2395 C 0.75221 0.36206 0.30558
 C2396 C 0.74731 0.38534 0.31262
 C2397 C 0.73265 0.39345 0.29638
 H2398 H 0.75548 0.39586 0.32567
 H2399 H 0.72030 0.37729 0.26601
 H2400 H 0.74242 0.34129 0.27670
   
