data_POSCAR
  _audit_creation_date              2014-09-24
  _audit_creation_method            'ToBaCCo'
  _symmetry_space_group_name_H-M    'P1'
  _symmetry_Int_Tables_number       1
  _symmetry_cell_setting            triclinic
  loop_
  _symmetry_equiv_pos_as_xyz
 x,y,z
_cell_length_a 50.8197
_cell_length_b 50.9792
_cell_length_c 50.9295
_cell_angle_alpha 89.973700
_cell_angle_beta 90.103500
_cell_angle_gamma 89.970800
loop_
  _atom_site_label
  _atom_site_type_symbol
  _atom_site_fract_x
  _atom_site_fract_y
  _atom_site_fract_z
C1 C 0.21848 1.07438 0.00125
 C2 C 0.21533 1.06080 0.02485
 C3 C 0.21375 1.03332 0.02480
 C4 C 0.21709 1.01884 0.00127
 C5 C 0.22096 1.03314 -0.02222
 C6 C 0.22098 1.06060 -0.02228
 C7 C 0.21777 0.98923 0.00132
 C8 C 0.21501 0.97466 -0.02225
 C9 C 0.21788 0.94732 -0.02235
 C10 C 0.22172 0.93386 0.00117
 C11 C 0.22359 0.94763 0.02473
 C12 C 0.22231 0.97505 0.02480
 H13 H 0.21965 1.09565 0.00127
 H14 H 0.21031 1.02362 0.04333
 H15 H 0.22469 1.02332 -0.04063
 H16 H 0.21101 0.98413 -0.04079
 H17 H 0.22382 0.91267 0.00107
 H18 H 0.22552 0.98488 0.04329
 C19 C 0.71909 0.57332 0.50137
 C20 C 0.72307 0.55982 0.52489
 C21 C 0.72360 0.53234 0.52505
 C22 C 0.71901 0.51789 0.50177
 C23 C 0.71417 0.53204 0.47837
 C24 C 0.71503 0.55948 0.47808
 C25 C 0.72035 0.48843 0.50163
 C26 C 0.72628 0.47452 0.47832
 C27 C 0.72778 0.44710 0.47828
 C28 C 0.72460 0.43318 0.50164
 C29 C 0.71937 0.44649 0.52498
 C30 C 0.71654 0.47382 0.52492
 H31 H 0.71985 0.59459 0.50107
 H32 H 0.72828 0.52258 0.54332
 H33 H 0.71020 0.52204 0.46008
 H34 H 0.73029 0.48469 0.46014
 H35 H 0.72665 0.41199 0.50173
 H36 H 0.71163 0.48337 0.54321
 C37 C 0.78056 1.00083 1.07384
 C38 C 0.78141 0.97722 1.06007
 C39 C 0.78096 0.97735 1.03256
 C40 C 0.77772 1.00108 1.01835
 C41 C 0.77633 1.02472 1.03289
 C42 C 0.77839 1.02455 1.06034
 C43 C 0.77475 1.00101 0.98886
 C44 C 0.77796 1.02421 0.97379
 C45 C 0.77382 1.02403 0.94655
 C46 C 0.76790 1.00060 0.93374
 C47 C 0.76524 0.97747 0.94801
 C48 C 0.76790 0.97772 0.97533
 H49 H 0.78095 1.00071 1.09518
 H50 H 0.78281 0.95871 1.02267
 H51 H 0.77299 1.04334 1.02333
 H52 H 0.78354 1.04257 0.98278
 H53 H 0.76504 1.00042 0.91261
 H54 H 0.76413 0.95959 0.98560
 C55 C 0.28384 0.50123 0.57208
 C56 C 0.28439 0.47760 0.55839
 C57 C 0.28395 0.47760 0.53092
 C58 C 0.28104 0.50130 0.51659
 C59 C 0.27999 0.52502 0.53107
 C60 C 0.28200 0.52491 0.55851
 C61 C 0.27803 0.50112 0.48709
 C62 C 0.28109 0.52430 0.47196
 C63 C 0.27685 0.52406 0.44474
 C64 C 0.27097 0.50059 0.43197
 C65 C 0.26845 0.47747 0.44628
 C66 C 0.27124 0.47777 0.47359
 H67 H 0.28413 0.50117 0.59339
 H68 H 0.28549 0.45885 0.52121
 H69 H 0.27692 0.54369 0.52153
 H70 H 0.28659 0.54271 0.48087
 H71 H 0.26799 0.50039 0.41087
 H72 H 0.26758 0.45963 0.48388
 C73 C 1.07132 0.22412 -0.00301
 C74 C 1.05783 0.22838 0.02044
 C75 C 1.03027 0.22865 0.02063
 C76 C 1.01573 0.22337 -0.00249
 C77 C 1.02986 0.21856 -0.02591
 C78 C 1.05741 0.21962 -0.02621
 C79 C 0.98614 0.22340 -0.00220
 C80 C 0.97148 0.22835 -0.02533
 C81 C 0.94390 0.22858 -0.02484
 C82 C 0.93058 0.22505 -0.00115
 C83 C 0.94465 0.22068 0.02197
 C84 C 0.97214 0.21911 0.02139
 H85 H 1.09268 0.22463 -0.00332
 H86 H 1.02046 0.23337 0.03885
 H87 H 1.01979 0.21406 -0.04408
 H88 H 0.98123 0.23251 -0.04373
 H89 H 0.90925 0.22610 -0.00059
 H90 H 0.98229 0.21475 0.03955
 C91 C 0.57149 0.72272 0.49752
 C92 C 0.55853 0.72677 0.52127
 C93 C 0.53101 0.72685 0.52215
 C94 C 0.51594 0.72163 0.49937
 C95 C 0.52957 0.71694 0.47559
 C96 C 0.55709 0.71821 0.47463
 C97 C 0.48636 0.72179 0.50033
 C98 C 0.47132 0.72658 0.47744
 C99 C 0.44380 0.72702 0.47840
 C100 C 0.43084 0.72389 0.50230
 C101 C 0.44524 0.71977 0.52527
 C102 C 0.47273 0.71797 0.52425
 H103 H 0.59282 0.72344 0.49678
 H104 H 0.52172 0.73146 0.54065
 H105 H 0.51913 0.71243 0.45765
 H106 H 0.48065 0.73052 0.45879
 H107 H 0.40954 0.72515 0.50310
 H108 H 0.48315 0.71383 0.54230
 C109 C -0.00184 0.78023 -0.07081
 C110 C 0.02204 0.77700 -0.05762
 C111 C 0.02271 0.77685 -0.03013
 C112 C -0.00042 0.78114 -0.01533
 C113 C -0.02424 0.78520 -0.02916
 C114 C -0.02504 0.78392 -0.05663
 C115 C 0.00009 0.78041 0.01418
 C116 C -0.02287 0.77436 0.02865
 C117 C -0.02236 0.77350 0.05614
 C118 C 0.00126 0.77743 0.06958
 C119 C 0.02430 0.78273 0.05571
 C120 C 0.02365 0.78494 0.02830
 H121 H -0.00240 0.77929 -0.09210
 H122 H 0.04131 0.77277 -0.02062
 H123 H -0.04242 0.78902 -0.01884
 H124 H -0.04118 0.76976 0.01884
 H125 H 0.00186 0.77591 0.09084
 H126 H 0.04171 0.78993 0.01829
 C127 C 0.49979 0.28185 0.42610
 C128 C 0.52354 0.27885 0.43957
 C129 C 0.52392 0.27878 0.46706
 C130 C 0.50062 0.28295 0.48160
 C131 C 0.47690 0.28677 0.46748
 C132 C 0.47643 0.28539 0.44001
 C133 C 0.50088 0.28222 0.51114
 C134 C 0.47775 0.27628 0.52537
 C135 C 0.47803 0.27522 0.55282
 C136 C 0.50150 0.27890 0.56652
 C137 C 0.52472 0.28413 0.55295
 C138 C 0.52436 0.28650 0.52553
 H139 H 0.49941 0.28082 0.40482
 H140 H 0.54244 0.27484 0.47674
 H141 H 0.45854 0.29044 0.47750
 H142 H 0.45947 0.27186 0.51546
 H143 H 0.50178 0.27720 0.58776
 H144 H 0.54257 0.29140 0.51577
 C145 C 1.06920 -0.00318 0.22069
 C146 C 1.05562 0.02005 0.22587
 C147 C 1.02812 0.01987 0.22763
 C148 C 1.01370 -0.00341 0.22310
 C149 C 1.02784 -0.02660 0.21739
 C150 C 1.05540 -0.02653 0.21684
 C151 C 0.98423 -0.00355 0.22501
 C152 C 0.97039 -0.02668 0.23165
 C153 C 0.94289 -0.02652 0.23382
 C154 C 0.92894 -0.00314 0.23043
 C155 C 0.94227 0.01997 0.22430
 C156 C 0.96959 0.01969 0.22093
 H157 H 1.09056 -0.00323 0.22012
 H158 H 1.01825 0.03789 0.23304
 H159 H 1.01773 -0.04486 0.21354
 H160 H 0.98078 -0.04478 0.23565
 H161 H 0.90772 -0.00281 0.23290
 H162 H 0.97917 0.03778 0.21534
 C163 C 0.56920 0.49619 0.72019
 C164 C 0.55646 0.51998 0.72479
 C165 C 0.52898 0.52094 0.72622
 C166 C 0.51370 0.49817 0.72200
 C167 C 0.52702 0.47435 0.71676
 C168 C 0.55457 0.47331 0.71655
 C169 C 0.48423 0.49912 0.72404
 C170 C 0.46974 0.47646 0.73078
 C171 C 0.44232 0.47740 0.73306
 C172 C 0.42899 0.50110 0.72973
 C173 C 0.44292 0.52388 0.72360
 C174 C 0.47025 0.52283 0.72012
 H175 H 0.59054 0.49538 0.71996
 H176 H 0.51986 0.53944 0.73121
 H177 H 0.51628 0.45642 0.71306
 H178 H 0.47949 0.45803 0.73481
 H179 H 0.40781 0.50190 0.73227
 H180 H 0.48033 0.54065 0.71456
 C181 C 0.99994 1.06790 0.76523
 C182 C 0.97613 1.05445 0.76296
 C183 C 0.97559 1.02706 0.76533
 C184 C 0.99883 1.01285 0.77110
 C185 C 1.02258 1.02703 0.77404
 C186 C 1.02315 1.05424 0.77044
 C187 C 0.99848 0.98348 0.77329
 C188 C 1.02137 0.96856 0.76812
 C189 C 1.02102 0.94114 0.77000
 C190 C 0.99759 0.92813 0.77592
 C191 C 0.97462 0.94243 0.78047
 C192 C 0.97515 0.96990 0.77984
 H193 H 1.00051 1.08903 0.76259
 H194 H 0.95709 1.01706 0.76215
 H195 H 1.04080 1.01720 0.77892
 H196 H 1.03946 0.97797 0.76211
 H197 H 0.99708 0.90685 0.77653
 H198 H 0.95719 0.98037 0.78428
 C199 C 0.49960 0.56544 0.26648
 C200 C 0.47601 0.55174 0.26403
 C201 C 0.47568 0.52439 0.26636
 C202 C 0.49898 0.51038 0.27228
 C203 C 0.52260 0.52482 0.27541
 C204 C 0.52292 0.55205 0.27181
 C205 C 0.49882 0.48096 0.27416
 C206 C 0.52199 0.46636 0.26952
 C207 C 0.52186 0.43896 0.27088
 C208 C 0.49843 0.42555 0.27572
 C209 C 0.47514 0.43951 0.27975
 C210 C 0.47541 0.46700 0.27969
 H211 H 0.49989 0.58656 0.26378
 H212 H 0.45726 0.51435 0.26295
 H213 H 0.54090 0.51520 0.28039
 H214 H 0.54020 0.47593 0.26425
 H215 H 0.49824 0.40427 0.27588
 H216 H 0.45720 0.47718 0.28374
 O217 O 0.24463 0.18250 0.21650
 O218 O 0.27395 0.17479 0.25309
 O219 O 0.17603 0.21366 0.25251
 O220 O 0.16607 0.24730 0.27921
 O221 O 0.20963 0.25141 0.18476
 O222 O 0.24639 0.28016 0.17850
 O223 O 0.24321 0.28564 0.32202
 O224 O 0.21289 0.25005 0.32788
 O225 O 0.31203 0.25150 0.29087
 O226 O 0.32039 0.22118 0.25487
 O227 O 0.28018 0.31817 0.25772
 O228 O 0.24399 0.32617 0.22520
 O229 O 0.24396 0.31749 0.29066
 O230 O 0.21459 0.32565 0.25229
 O231 O 0.31182 0.28657 0.25864
 O232 O 0.31778 0.25191 0.22321
 O233 O 0.27976 0.25323 0.32187
 O234 O 0.24839 0.22096 0.32951
 O235 O 0.24535 0.21449 0.18522
 O236 O 0.27574 0.25094 0.17918
 O237 O 0.17708 0.25028 0.21548
 O238 O 0.17003 0.28063 0.25269
 O239 O 0.20790 0.18222 0.25215
 O240 O 0.24554 0.17399 0.28191
 Zr241 Zr 0.24358 0.20314 0.25235
 O242 O 0.26750 0.22557 0.27756
 Zr243 Zr 0.19720 0.24915 0.25178
 O244 O 0.21914 0.27343 0.27717
 Zr245 Zr 0.24465 0.24978 0.20670
 O246 O 0.26854 0.27428 0.22999
 Zr247 Zr 0.24424 0.25047 0.30059
 O248 O 0.21971 0.22565 0.27770
 Zr249 Zr 0.29123 0.25094 0.25529
 O250 O 0.26955 0.22616 0.22988
 Zr251 Zr 0.24467 0.29701 0.25482
 O252 O 0.22057 0.27476 0.22919
 O253 O 0.21975 0.22530 0.22774
 O254 O 0.26879 0.27513 0.27941
 C255 C 0.24492 0.19038 0.19253
 C256 C 0.18379 0.18968 0.25229
 C257 C 0.18536 0.25114 0.19166
 C258 C 0.24364 0.30968 0.31461
 C259 C 0.30399 0.25344 0.31465
 C260 C 0.30419 0.31053 0.25952
 H261 H 0.27800 0.21379 0.28891
 H262 H 0.27994 0.28515 0.21865
 H263 H 0.20861 0.21428 0.21625
 H264 H 0.20703 0.28395 0.28809
 H265 H 0.20129 0.23525 0.32293
 H266 H 0.17231 0.25592 0.29545
 H267 H 0.33497 0.25865 0.22953
 H268 H 0.28868 0.23753 0.18476
 H269 H 0.23760 0.20597 0.32361
 H270 H 0.22975 0.17599 0.29308
 H271 H 0.25942 0.32339 0.21373
 H272 H 0.23455 0.29422 0.18483
 H273 H 0.28769 0.18100 0.24081
 H274 H 0.31557 0.20784 0.26811
 H275 H 0.17536 0.29308 0.23876
 H276 H 0.20174 0.32203 0.26640
 O277 O 0.75225 0.81557 0.21360
 O278 O 0.72198 0.82266 0.24890
 O279 O 0.81908 0.78209 0.25209
 O280 O 0.82767 0.74722 0.27725
 O281 O 0.78808 0.74752 0.18094
 O282 O 0.75116 0.71955 0.17195
 O283 O 0.74666 0.70890 0.31506
 O284 O 0.77844 0.74279 0.32372
 O285 O 0.68100 0.74463 0.28235
 O286 O 0.67451 0.77648 0.24696
 O287 O 0.71383 0.67890 0.24723
 O288 O 0.75164 0.67171 0.21717
 O289 O 0.74685 0.67806 0.28272
 O290 O 0.77955 0.67114 0.24615
 O291 O 0.68241 0.71070 0.24866
 O292 O 0.67806 0.74683 0.21442
 O293 O 0.71212 0.74256 0.31460
 O294 O 0.74404 0.77358 0.32452
 O295 O 0.75260 0.78493 0.18104
 O296 O 0.72225 0.74921 0.17233
 O297 O 0.81911 0.74686 0.21330
 O298 O 0.82400 0.71499 0.24964
 O299 O 0.78769 0.81400 0.25127
 O300 O 0.74842 0.82163 0.27919
 Zr301 Zr 0.75172 0.79365 0.24866
 O302 O 0.72637 0.77068 0.27181
 Zr303 Zr 0.79749 0.74703 0.24860
 O304 O 0.77418 0.72218 0.27211
 Zr305 Zr 0.75212 0.74885 0.20128
 O306 O 0.72696 0.72380 0.22256
 Zr307 Zr 0.74839 0.74475 0.29497
 O308 O 0.77422 0.76995 0.27423
 Zr309 Zr 0.70331 0.74637 0.24764
 O310 O 0.72645 0.77180 0.22422
 Zr311 Zr 0.74945 0.69984 0.24766
 O312 O 0.77483 0.72268 0.22396
 O313 O 0.77640 0.77217 0.22438
 O314 O 0.72451 0.72117 0.27183
 C315 C 0.75274 0.80871 0.18935
 C316 C 0.81166 0.80616 0.25262
 C317 C 0.81198 0.74697 0.18908
 C318 C 0.74554 0.68515 0.30686
 C319 C 0.68819 0.74248 0.30645
 C320 C 0.68986 0.68665 0.24848
 H321 H 0.71554 0.78221 0.28305
 H322 H 0.71600 0.71348 0.21026
 H323 H 0.78817 0.78351 0.21388
 H324 H 0.78550 0.71106 0.28334
 H325 H 0.79080 0.75732 0.31995
 H326 H 0.82069 0.73816 0.29292
 H327 H 0.66059 0.74002 0.21975
 H328 H 0.70902 0.76225 0.17806
 H329 H 0.75634 0.78791 0.32014
 H330 H 0.76373 0.81927 0.29098
 H331 H 0.73738 0.67555 0.20450
 H332 H 0.76285 0.70526 0.17810
 H333 H 0.70825 0.81670 0.23644
 H334 H 0.67873 0.78910 0.26109
 H335 H 0.81904 0.70312 0.23508
 H336 H 0.79073 0.67328 0.26192
 O337 O 0.75219 0.18070 0.78343
 O338 O 0.72256 0.17302 0.74558
 O339 O 0.81883 0.21511 0.74727
 O340 O 0.82537 0.25266 0.71960
 O341 O 0.78545 0.24953 0.81655
 O342 O 0.74758 0.27693 0.82428
 O343 O 0.74712 0.28708 0.68136
 O344 O 0.77918 0.25071 0.67271
 O345 O 0.68131 0.25027 0.71189
 O346 O 0.67588 0.21700 0.74351
 O347 O 0.71116 0.31597 0.74674
 O348 O 0.74759 0.32425 0.77931
 O349 O 0.74622 0.31796 0.71363
 O350 O 0.77651 0.32584 0.75158
 O351 O 0.68046 0.28351 0.74491
 O352 O 0.67593 0.24920 0.77924
 O353 O 0.71331 0.25229 0.68062
 O354 O 0.75135 0.22201 0.67186
 O355 O 0.75050 0.21159 0.81571
 O356 O 0.71952 0.24670 0.82339
 O357 O 0.81747 0.25079 0.78527
 O358 O 0.82424 0.28100 0.74962
 O359 O 0.78809 0.18258 0.74611
 O360 O 0.75178 0.17442 0.71754
 Zr361 Zr 0.75182 0.20241 0.74814
 O362 O 0.72675 0.22479 0.72395
 Zr363 Zr 0.79666 0.24998 0.74946
 O364 O 0.77360 0.27439 0.72525
 Zr365 Zr 0.75000 0.24746 0.79521
 O366 O 0.72487 0.27181 0.77301
 Zr367 Zr 0.74915 0.25108 0.70146
 O368 O 0.77458 0.22657 0.72343
 Zr369 Zr 0.70256 0.24868 0.74721
 O370 O 0.72534 0.22379 0.77172
 Zr371 Zr 0.74750 0.29619 0.74867
 O372 O 0.77278 0.27403 0.77316
 O373 O 0.77539 0.22448 0.77304
 O374 O 0.72399 0.27417 0.72364
 C375 C 0.75161 0.18776 0.80764
 C376 C 0.81192 0.19090 0.74601
 C377 C 0.80960 0.25051 0.80922
 C378 C 0.74562 0.31085 0.68949
 C379 C 0.68917 0.25238 0.68804
 C380 C 0.68742 0.30768 0.74454
 H381 H 0.71602 0.21297 0.71288
 H382 H 0.71327 0.28194 0.78484
 H383 H 0.78709 0.21343 0.78396
 H384 H 0.78518 0.28584 0.71470
 H385 H 0.79090 0.26582 0.67612
 H386 H 0.81938 0.24108 0.70519
 H387 H 0.65795 0.25147 0.77199
 H388 H 0.70617 0.23418 0.81682
 H389 H 0.73654 0.20972 0.67445
 H390 H 0.76273 0.18184 0.70330
 H391 H 0.73219 0.32079 0.79064
 H392 H 0.75900 0.29148 0.81833
 H393 H 0.71059 0.17552 0.76067
 H394 H 0.67830 0.20583 0.75921
 H395 H 0.81743 0.29434 0.76198
 H396 H 0.78905 0.32337 0.73696
 O397 O 0.24958 0.82169 0.78687
 O398 O 0.27972 0.82981 0.75028
 O399 O 0.18367 0.78723 0.74818
 O400 O 0.17583 0.75272 0.72227
 O401 O 0.21511 0.75286 0.81875
 O402 O 0.25241 0.72519 0.82751
 O403 O 0.25714 0.71595 0.68417
 O404 O 0.22504 0.74988 0.67586
 O405 O 0.32245 0.75211 0.71758
 O406 O 0.32701 0.78500 0.74933
 O407 O 0.29078 0.68623 0.75141
 O408 O 0.25343 0.67765 0.78172
 O409 O 0.25718 0.68500 0.71643
 O410 O 0.22514 0.67711 0.75329
 O411 O 0.32183 0.71841 0.75067
 O412 O 0.32548 0.75289 0.78513
 O413 O 0.29148 0.74991 0.68520
 O414 O 0.25938 0.78081 0.67543
 O415 O 0.25008 0.79058 0.81901
 O416 O 0.28100 0.75523 0.82740
 O417 O 0.18423 0.75176 0.78624
 O418 O 0.17994 0.72017 0.74955
 O419 O 0.21423 0.81988 0.74963
 O420 O 0.25284 0.82836 0.72112
 Zr421 Zr 0.25069 0.80012 0.75153
 O422 O 0.27650 0.77768 0.72825
 Zr423 Zr 0.20591 0.75261 0.75102
 O424 O 0.22964 0.72843 0.72731
 Zr425 Zr 0.25113 0.75479 0.79845
 O426 O 0.27670 0.73038 0.77697
 Zr427 Zr 0.25506 0.75166 0.70466
 O428 O 0.22874 0.77623 0.72565
 Zr429 Zr 0.29998 0.75353 0.75211
 O430 O 0.27649 0.77849 0.77584
 Zr431 Zr 0.25468 0.70633 0.75167
 O432 O 0.22889 0.72846 0.77555
 O433 O 0.22647 0.77786 0.77552
 O434 O 0.27922 0.72826 0.72768
 C435 C 0.24931 0.81447 0.81104
 C436 C 0.19045 0.81147 0.74832
 C437 C 0.19124 0.75202 0.81048
 C438 C 0.25834 0.69216 0.69231
 C439 C 0.31537 0.74995 0.69347
 C440 C 0.31465 0.69428 0.75019
 H441 H 0.28747 0.78950 0.71740
 H442 H 0.28783 0.72008 0.78915
 H443 H 0.21452 0.78885 0.78618
 H444 H 0.21848 0.71724 0.71601
 H445 H 0.21265 0.76436 0.67971
 H446 H 0.18306 0.74408 0.70648
 H447 H 0.34366 0.75037 0.77855
 H448 H 0.29419 0.76829 0.82162
 H449 H 0.24713 0.79512 0.68000
 H450 H 0.23747 0.82562 0.70949
 H451 H 0.26763 0.68167 0.79440
 H452 H 0.24116 0.71071 0.82106
 H453 H 0.29188 0.82656 0.76511
 H454 H 0.32410 0.79626 0.76487
 H455 H 0.18496 0.70830 0.76411
 H456 H 0.21370 0.67928 0.73771
 O457 O 0.25235 0.31556 0.71287
 O458 O 0.22203 0.32221 0.74835
 O459 O 0.31994 0.28354 0.75103
 O460 O 0.32958 0.24885 0.77597
 O461 O 0.28880 0.24790 0.68019
 O462 O 0.25233 0.21933 0.67177
 O463 O 0.25038 0.20938 0.81500
 O464 O 0.28100 0.24440 0.82307
 O465 O 0.18303 0.24382 0.78280
 O466 O 0.17544 0.27512 0.74751
 O467 O 0.21662 0.17841 0.74785
 O468 O 0.25406 0.17164 0.71733
 O469 O 0.25072 0.17835 0.78286
 O470 O 0.28247 0.17183 0.74563
 O471 O 0.18469 0.20970 0.74912
 O472 O 0.17939 0.24573 0.71487
 O473 O 0.21451 0.24218 0.81472
 O474 O 0.24568 0.27380 0.82431
 O475 O 0.25289 0.28473 0.68048
 O476 O 0.22284 0.24845 0.67242
 O477 O 0.32021 0.24814 0.71219
 O478 O 0.32619 0.21659 0.74868
 O479 O 0.28795 0.31485 0.75037
 O480 O 0.24879 0.32205 0.77834
 Zr481 Zr 0.25239 0.29385 0.74806
 O482 O 0.22779 0.27054 0.77165
 Zr483 Zr 0.29902 0.24808 0.74775
 O484 O 0.27647 0.22294 0.77164
 Zr485 Zr 0.25311 0.24879 0.70095
 O486 O 0.22869 0.22339 0.72266
 Zr487 Zr 0.25053 0.24514 0.79469
 O488 O 0.27561 0.27071 0.77352
 Zr489 Zr 0.20493 0.24568 0.74787
 O490 O 0.22728 0.27141 0.72402
 Zr491 Zr 0.25189 0.19997 0.74763
 O492 O 0.27656 0.22316 0.72351
 O493 O 0.27722 0.27269 0.72364
 O494 O 0.22681 0.22094 0.77200
 C495 C 0.25280 0.30857 0.68865
 C496 C 0.31205 0.30746 0.75162
 C497 C 0.31280 0.24789 0.68807
 C498 C 0.24992 0.18556 0.80698
 C499 C 0.19050 0.24180 0.80681
 C500 C 0.19253 0.18579 0.74907
 H501 H 0.21687 0.28193 0.78296
 H502 H 0.21777 0.21281 0.71054
 H503 H 0.28871 0.28417 0.71300
 H504 H 0.28822 0.21214 0.78275
 H505 H 0.29282 0.25929 0.81905
 H506 H 0.32278 0.24017 0.79194
 H507 H 0.16212 0.23846 0.72029
 H508 H 0.20961 0.26154 0.67806
 H509 H 0.25702 0.28873 0.81946
 H510 H 0.26411 0.31995 0.79016
 H511 H 0.23960 0.17519 0.70480
 H512 H 0.26419 0.20519 0.67795
 H513 H 0.20845 0.31602 0.73584
 H514 H 0.17991 0.28822 0.76110
 H515 H 0.32137 0.20459 0.73416
 H516 H 0.29415 0.17452 0.76095
 O517 O 0.75037 0.68348 0.71710
 O518 O 0.77861 0.67610 0.75447
 O519 O 0.67987 0.71265 0.75192
 O520 O 0.66844 0.74582 0.77851
 O521 O 0.71393 0.75160 0.68512
 O522 O 0.74996 0.78145 0.67988
 O523 O 0.74374 0.78559 0.82335
 O524 O 0.71405 0.74921 0.82820
 O525 O 0.81390 0.75338 0.79348
 O526 O 0.82389 0.72369 0.75739
 O527 O 0.78112 0.81962 0.75989
 O528 O 0.74543 0.82709 0.72702
 O529 O 0.74440 0.81770 0.79227
 O530 O 0.71543 0.82538 0.75332
 O531 O 0.81351 0.78881 0.76147
 O532 O 0.82124 0.75459 0.72599
 O533 O 0.78093 0.75385 0.82378
 O534 O 0.75019 0.72104 0.83048
 O535 O 0.75097 0.71573 0.68610
 O536 O 0.78009 0.75318 0.68093
 O537 O 0.68081 0.74957 0.71517
 O538 O 0.67219 0.77940 0.75241
 O539 O 0.71246 0.68196 0.75177
 O540 O 0.74949 0.67439 0.78241
 Zr541 Zr 0.74762 0.70374 0.75305
 O542 O 0.77039 0.72654 0.77895
 Zr543 Zr 0.70016 0.74861 0.75183
 O544 O 0.72088 0.77321 0.77791
 Zr545 Zr 0.74851 0.75079 0.70780
 O546 O 0.77124 0.77566 0.73181
 Zr547 Zr 0.74600 0.75064 0.80166
 O548 O 0.72264 0.72543 0.77804
 Zr549 Zr 0.79395 0.75269 0.75742
 O550 O 0.77348 0.72761 0.73135
 Zr551 Zr 0.74626 0.79758 0.75628
 O552 O 0.72333 0.77497 0.72994
 O553 O 0.72379 0.72549 0.72806
 O554 O 0.77040 0.77611 0.78124
 C555 C 0.75121 0.69157 0.69323
 C556 C 0.68819 0.68887 0.75161
 C557 C 0.68954 0.75078 0.69155
 C558 C 0.74379 0.80969 0.81613
 C559 C 0.80529 0.75470 0.81710
 C560 C 0.80525 0.81257 0.76219
 H561 H 0.78093 0.71490 0.79042
 H562 H 0.78261 0.78692 0.72080
 H563 H 0.71326 0.71426 0.71621
 H564 H 0.70827 0.78333 0.78865
 H565 H 0.70300 0.73410 0.82294
 H566 H 0.67415 0.75432 0.79500
 H567 H 0.83808 0.76177 0.73274
 H568 H 0.79344 0.74029 0.68678
 H569 H 0.74013 0.70575 0.82411
 H570 H 0.73337 0.67592 0.79318
 H571 H 0.76086 0.82448 0.71550
 H572 H 0.73757 0.79510 0.68605
 H573 H 0.79259 0.68278 0.74271
 H574 H 0.81917 0.71016 0.77046
 H575 H 0.67751 0.79211 0.73872
 H576 H 0.70255 0.82149 0.76733
 O577 O 0.25270 0.68144 0.28290
 O578 O 0.22303 0.67459 0.24478
 O579 O 0.32019 0.71456 0.24768
 O580 O 0.32802 0.75213 0.22041
 O581 O 0.28654 0.74969 0.31670
 O582 O 0.24910 0.77756 0.32402
 O583 O 0.25163 0.78820 0.18110
 O584 O 0.28241 0.75089 0.17275
 O585 O 0.18402 0.75235 0.21065
 O586 O 0.17750 0.71938 0.24210
 O587 O 0.21474 0.81758 0.24568
 O588 O 0.25061 0.82513 0.27908
 O589 O 0.25101 0.81900 0.21346
 O590 O 0.28018 0.82611 0.25216
 O591 O 0.18341 0.78573 0.24365
 O592 O 0.17773 0.75151 0.27788
 O593 O 0.21644 0.75420 0.17981
 O594 O 0.25387 0.72312 0.17136
 O595 O 0.25120 0.71226 0.31526
 O596 O 0.22041 0.74788 0.32247
 O597 O 0.31905 0.75017 0.28590
 O598 O 0.32706 0.78027 0.25046
 O599 O 0.28878 0.68271 0.24584
 O600 O 0.25265 0.67528 0.21707
 Zr601 Zr 0.25298 0.70326 0.24768
 O602 O 0.22877 0.72621 0.22319
 Zr603 Zr 0.29878 0.74988 0.24978
 O604 O 0.27661 0.77480 0.22532
 Zr605 Zr 0.25142 0.74819 0.29484
 O606 O 0.22716 0.77313 0.27236
 Zr607 Zr 0.25201 0.75209 0.20109
 O608 O 0.27658 0.72701 0.22337
 Zr609 Zr 0.20477 0.75051 0.24620
 O610 O 0.22662 0.72508 0.27096
 Zr611 Zr 0.25063 0.79709 0.24840
 O612 O 0.27506 0.77435 0.27321
 O613 O 0.27666 0.72477 0.27296
 O614 O 0.22701 0.77566 0.22295
 C615 C 0.25209 0.68844 0.30712
 C616 C 0.31277 0.69054 0.24608
 C617 C 0.31080 0.75015 0.30972
 C618 C 0.25090 0.81197 0.18930
 C619 C 0.19220 0.75446 0.18692
 C620 C 0.19085 0.80975 0.24326
 H621 H 0.21795 0.71463 0.21195
 H622 H 0.21559 0.78347 0.28403
 H623 H 0.28805 0.71349 0.28397
 H624 H 0.28865 0.78599 0.21501
 H625 H 0.29469 0.76544 0.17658
 H626 H 0.32212 0.74062 0.20590
 H627 H 0.15990 0.75412 0.27039
 H628 H 0.20717 0.73527 0.31585
 H629 H 0.23875 0.71116 0.17372
 H630 H 0.26370 0.68259 0.20286
 H631 H 0.23483 0.82205 0.29000
 H632 H 0.26059 0.79208 0.31811
 H633 H 0.21116 0.67713 0.25994
 H634 H 0.17950 0.70810 0.25779
 H635 H 0.32048 0.79363 0.26294
 H636 H 0.29324 0.82314 0.23809
 O637 O 0.75593 0.32125 0.28730
 O638 O 0.78485 0.32876 0.24973
 O639 O 0.68792 0.28842 0.24975
 O640 O 0.67867 0.25412 0.22420
 O641 O 0.71969 0.25366 0.31988
 O642 O 0.75632 0.22466 0.32786
 O643 O 0.75818 0.21536 0.18458
 O644 O 0.72681 0.25013 0.17689
 O645 O 0.82506 0.25005 0.21667
 O646 O 0.83100 0.28278 0.24834
 O647 O 0.79245 0.18490 0.25138
 O648 O 0.75549 0.17717 0.28215
 O649 O 0.75811 0.18444 0.21688
 O650 O 0.72661 0.17742 0.25439
 O651 O 0.82426 0.21631 0.24991
 O652 O 0.82950 0.25063 0.28410
 O653 O 0.79342 0.24861 0.18489
 O654 O 0.76189 0.28005 0.17562
 O655 O 0.75625 0.29015 0.31944
 O656 O 0.78565 0.25381 0.32748
 O657 O 0.68827 0.25312 0.28788
 O658 O 0.68251 0.22155 0.25141
 O659 O 0.71921 0.32037 0.25087
 O660 O 0.75732 0.32794 0.22152
 Zr661 Zr 0.75523 0.29972 0.25195
 O662 O 0.77999 0.27663 0.22819
 Zr663 Zr 0.70931 0.25333 0.25233
 O664 O 0.73193 0.22854 0.22821
 Zr665 Zr 0.75541 0.25438 0.29892
 O666 O 0.77995 0.22939 0.27697
 Zr667 Zr 0.75746 0.25112 0.20506
 O668 O 0.73221 0.27637 0.22651
 Zr669 Zr 0.80331 0.25193 0.25163
 O670 O 0.78093 0.27744 0.27579
 Zr671 Zr 0.75687 0.20586 0.25212
 O672 O 0.73209 0.22861 0.27647
 O673 O 0.73094 0.27812 0.27646
 O674 O 0.78149 0.22713 0.22761
 C675 C 0.75623 0.31403 0.31147
 C676 C 0.69523 0.31248 0.24983
 C677 C 0.69567 0.25334 0.31199
 C678 C 0.75891 0.19155 0.19274
 C679 C 0.81746 0.24816 0.19269
 C680 C 0.81648 0.19237 0.24973
 H681 H 0.79102 0.28818 0.21712
 H682 H 0.79106 0.21883 0.28895
 H683 H 0.71958 0.28948 0.28737
 H684 H 0.72026 0.21763 0.21715
 H685 H 0.71490 0.26496 0.18096
 H686 H 0.68536 0.24531 0.20826
 H687 H 0.84749 0.24780 0.27713
 H688 H 0.79940 0.26607 0.32128
 H689 H 0.75035 0.29481 0.18058
 H690 H 0.74168 0.32550 0.21018
 H691 H 0.76969 0.18113 0.29484
 H692 H 0.74422 0.21071 0.32177
 H693 H 0.79751 0.32514 0.26405
 H694 H 0.82878 0.29400 0.26403
 H695 H 0.68743 0.20961 0.26595
 H696 H 0.71497 0.17981 0.23899
 C697 C 0.23373 0.13634 0.13431
 C698 C 0.20748 0.13150 0.12623
 C699 C 0.20243 0.11463 0.10456
 C700 C 0.22365 0.10258 0.09122
 C701 C 0.24983 0.10672 0.09991
 C702 C 0.25487 0.12368 0.12148
 C703 C 0.28120 0.12771 0.12963
 C704 C 0.30199 0.11527 0.11689
 C705 C 0.29708 0.09866 0.09582
 C706 C 0.27136 0.09437 0.08733
 C707 C 0.17608 0.11034 0.09665
 C708 C 0.15527 0.12224 0.10988
 C709 C 0.16017 0.13863 0.13113
 C710 C 0.18594 0.14335 0.13925
 C711 C 0.21891 0.08687 0.06786
 C712 C 0.21640 0.07433 0.04792
 C713 C 0.23893 0.15498 0.15525
 C714 C 0.24245 0.17091 0.17238
 H715 H 0.28600 0.14042 0.14597
 H716 H 0.32200 0.11854 0.12341
 H717 H 0.31330 0.08902 0.08600
 H718 H 0.26858 0.08123 0.07088
 H719 H 0.17131 0.09769 0.08026
 H720 H 0.13522 0.11872 0.10360
 H721 H 0.14394 0.14782 0.14134
 H722 H 0.18875 0.15627 0.15586
 C723 C 0.74386 0.63751 0.63451
 C724 C 0.71789 0.63067 0.62705
 C725 C 0.71366 0.61357 0.60541
 C726 C 0.73542 0.60335 0.59140
 C727 C 0.76140 0.60962 0.59934
 C728 C 0.76562 0.62678 0.62094
 C729 C 0.79174 0.63293 0.62838
 C730 C 0.81311 0.62238 0.61490
 C731 C 0.80899 0.60559 0.59379
 C732 C 0.78348 0.59922 0.58601
 C733 C 0.68752 0.60721 0.59819
 C734 C 0.66617 0.61739 0.61199
 C735 C 0.67030 0.63407 0.63317
 C736 C 0.69581 0.64072 0.64069
 C737 C 0.73111 0.58723 0.56827
 C738 C 0.72750 0.57440 0.54870
 C739 C 0.74800 0.65623 0.65559
 C740 C 0.75032 0.67219 0.67289
 H741 H 0.79591 0.64587 0.64470
 H742 H 0.83296 0.62727 0.62087
 H743 H 0.82565 0.59743 0.58339
 H744 H 0.78127 0.58604 0.56950
 H745 H 0.68331 0.59427 0.58188
 H746 H 0.64631 0.61229 0.60622
 H747 H 0.65366 0.64191 0.64383
 H748 H 0.69799 0.65375 0.65732
 C749 C 0.76277 0.86893 0.13724
 C750 C 0.77794 0.86554 0.11418
 C751 C 0.78299 0.88734 0.09747
 C752 C 0.77282 0.91236 0.10392
 C753 C 0.75765 0.91574 0.12700
 C754 C 0.75260 0.89397 0.14368
 C755 C 0.73743 0.89787 0.16665
 C756 C 0.72755 0.92256 0.17298
 C757 C 0.73250 0.94386 0.15670
 C758 C 0.74734 0.94061 0.13396
 C759 C 0.79828 0.88350 0.07461
 C760 C 0.80829 0.85882 0.06838
 C761 C 0.80329 0.83750 0.08466
 C762 C 0.78835 0.84071 0.10735
 C763 C 0.77749 0.93476 0.08689
 C764 C 0.78010 0.95426 0.07372
 C765 C 0.75839 0.84699 0.15492
 C766 C 0.75527 0.82926 0.17028
 H767 H 0.73301 0.88191 0.17994
 H768 H 0.71600 0.92518 0.19062
 H769 H 0.72480 0.96301 0.16170
 H770 H 0.75064 0.95782 0.12197
 H771 H 0.80267 0.89952 0.06137
 H772 H 0.81999 0.85622 0.05083
 H773 H 0.81115 0.81838 0.07975
 H774 H 0.78507 0.82357 0.11945
 C775 C 0.26323 0.36849 0.63634
 C776 C 0.27855 0.36484 0.61341
 C777 C 0.28412 0.38655 0.59677
 C778 C 0.27431 0.41174 0.60313
 C779 C 0.25898 0.41537 0.62606
 C780 C 0.25341 0.39369 0.64269
 C781 C 0.23811 0.39783 0.66552
 C782 C 0.22860 0.42269 0.67178
 C783 C 0.23405 0.44390 0.65555
 C784 C 0.24903 0.44041 0.63293
 C785 C 0.29957 0.38246 0.57405
 C786 C 0.30923 0.35762 0.56792
 C787 C 0.30371 0.33638 0.58413
 C788 C 0.28861 0.33984 0.60668
 C789 C 0.27951 0.43404 0.58613
 C790 C 0.28259 0.45343 0.57291
 C791 C 0.25850 0.34666 0.65406
 C792 C 0.25525 0.32901 0.66948
 H793 H 0.23331 0.38195 0.67878
 H794 H 0.21695 0.42550 0.68933
 H795 H 0.22663 0.46318 0.66049
 H796 H 0.25273 0.45756 0.62098
 H797 H 0.30436 0.39841 0.56086
 H798 H 0.32107 0.35483 0.55049
 H799 H 0.31130 0.31714 0.57929
 H800 H 0.28493 0.32275 0.61874
 C801 C 0.76071 0.12940 0.86207
 C802 C 0.75126 0.10392 0.85633
 C803 C 0.75533 0.08317 0.87453
 C804 C 0.76884 0.08800 0.89843
 C805 C 0.77850 0.11342 0.90407
 C806 C 0.77440 0.13420 0.88585
 C807 C 0.78422 0.15945 0.89194
 C808 C 0.79770 0.16404 0.91535
 C809 C 0.80179 0.14371 0.93309
 C810 C 0.79230 0.11864 0.92764
 C811 C 0.74569 0.05786 0.86828
 C812 C 0.73247 0.05319 0.84475
 C813 C 0.72850 0.07348 0.82697
 C814 C 0.73773 0.09859 0.83258
 C815 C 0.77227 0.06669 0.91709
 C816 C 0.77383 0.04787 0.93138
 C817 C 0.75681 0.15043 0.84319
 C818 C 0.75396 0.16757 0.82710
 H819 H 0.78164 0.17586 0.87869
 H820 H 0.80515 0.18346 0.91966
 H821 H 0.81237 0.14737 0.95118
 H822 H 0.79593 0.10343 0.94202
 H823 H 0.74828 0.04138 0.88142
 H824 H 0.72527 0.03370 0.84030
 H825 H 0.71822 0.06976 0.80872
 H826 H 0.73414 0.11372 0.81811
 C827 C 0.26189 0.62979 0.36106
 C828 C 0.25429 0.60391 0.35443
 C829 C 0.25893 0.58305 0.37236
 C830 C 0.27114 0.58817 0.39688
 C831 C 0.27904 0.61398 0.40338
 C832 C 0.27437 0.63487 0.38543
 C833 C 0.28239 0.66053 0.39239
 C834 C 0.29472 0.66540 0.41637
 C835 C 0.29939 0.64495 0.43385
 C836 C 0.29164 0.61949 0.42755
 C837 C 0.25115 0.55734 0.36522
 C838 C 0.23917 0.55239 0.34110
 C839 C 0.23464 0.57280 0.32358
 C840 C 0.24206 0.59830 0.33006
 C841 C 0.27485 0.56676 0.41538
 C842 C 0.27662 0.54790 0.42958
 C843 C 0.25749 0.65094 0.34244
 C844 C 0.25441 0.66818 0.32651
 H845 H 0.27931 0.67704 0.37938
 H846 H 0.30083 0.68512 0.42134
 H847 H 0.30908 0.64883 0.45239
 H848 H 0.29567 0.60420 0.44175
 H849 H 0.25426 0.54076 0.37812
 H850 H 0.23338 0.53261 0.33598
 H851 H 0.22532 0.56887 0.30487
 H852 H 0.23810 0.61350 0.31576
 C853 C 0.23771 0.86979 0.86804
 C854 C 0.25870 0.87840 0.88417
 C855 C 0.25365 0.89565 0.90550
 C856 C 0.22762 0.90423 0.91059
 C857 C 0.20673 0.89621 0.89402
 C858 C 0.21177 0.87890 0.87270
 C859 C 0.19051 0.87091 0.85659
 C860 C 0.16502 0.87978 0.86140
 C861 C 0.16013 0.89677 0.88216
 C862 C 0.18067 0.90494 0.89837
 C863 C 0.27496 0.90376 0.92150
 C864 C 0.30049 0.89510 0.91657
 C865 C 0.30541 0.87826 0.89570
 C866 C 0.28484 0.86994 0.87962
 C867 C 0.22243 0.92033 0.93356
 C868 C 0.21945 0.93304 0.95330
 C869 C 0.24261 0.85074 0.84740
 C870 C 0.24622 0.83443 0.83063
 H871 H 0.19334 0.85783 0.84010
 H872 H 0.14900 0.87357 0.84884
 H873 H 0.14031 0.90368 0.88571
 H874 H 0.17594 0.91819 0.91428
 H875 H 0.27218 0.91688 0.93795
 H876 H 0.31654 0.90151 0.92901
 H877 H 0.32529 0.87160 0.89194
 H878 H 0.28966 0.85687 0.86361
 C879 C 0.74882 0.36964 0.36875
 C880 C 0.77069 0.37917 0.38310
 C881 C 0.76671 0.39659 0.40453
 C882 C 0.74089 0.40436 0.41148
 C883 C 0.71907 0.39540 0.39664
 C884 C 0.72304 0.37794 0.37525
 C885 C 0.70087 0.36893 0.36098
 C886 C 0.67553 0.37692 0.36766
 C887 C 0.67166 0.39410 0.38846
 C888 C 0.69310 0.40329 0.40287
 C889 C 0.78887 0.40566 0.41875
 C890 C 0.81422 0.39774 0.41200
 C891 C 0.81810 0.38069 0.39107
 C892 C 0.79665 0.37146 0.37671
 C893 C 0.73663 0.42039 0.43466
 C894 C 0.73280 0.43298 0.45433
 C895 C 0.75261 0.35047 0.34802
 C896 C 0.75490 0.33407 0.33114
 H897 H 0.70285 0.35567 0.34452
 H898 H 0.65882 0.36984 0.35653
 H899 H 0.65194 0.40035 0.39348
 H900 H 0.68910 0.41666 0.41887
 H901 H 0.78684 0.41898 0.43516
 H902 H 0.83095 0.40487 0.42308
 H903 H 0.83783 0.37459 0.38592
 H904 H 0.80065 0.35825 0.36057
 C905 C 0.13387 0.24430 0.13041
 C906 C 0.11044 0.25915 0.12810
 C907 C 0.09395 0.25590 0.10576
 C908 C 0.10098 0.23778 0.08592
 C909 C 0.12423 0.22265 0.08841
 C910 C 0.14077 0.22597 0.11068
 C911 C 0.16407 0.21080 0.11259
 C912 C 0.17083 0.19293 0.09304
 C913 C 0.15455 0.18952 0.07137
 C914 C 0.13151 0.20417 0.06896
 C915 C 0.07068 0.27103 0.10381
 C916 C 0.06387 0.28885 0.12340
 C917 C 0.07998 0.29202 0.14525
 C918 C 0.10304 0.27739 0.14768
 C919 C 0.08463 0.23490 0.06270
 C920 C 0.07169 0.23210 0.04303
 C921 C 0.15114 0.24790 0.15286
 C922 C 0.16628 0.25004 0.17097
 H923 H 0.17731 0.21256 0.12915
 H924 H 0.18877 0.18159 0.09475
 H925 H 0.15982 0.17549 0.05633
 H926 H 0.11952 0.20084 0.05171
 H927 H 0.05751 0.26922 0.08718
 H928 H 0.04599 0.30027 0.12160
 H929 H 0.07460 0.30588 0.16041
 H930 H 0.11495 0.28051 0.16504
 C931 C 0.63800 0.74371 0.63040
 C932 C 0.61502 0.75923 0.62804
 C933 C 0.59800 0.75579 0.60614
 C934 C 0.60408 0.73684 0.58677
 C935 C 0.62692 0.72109 0.58929
 C936 C 0.64396 0.72457 0.61115
 C937 C 0.66679 0.70872 0.61314
 C938 C 0.67262 0.69004 0.59405
 C939 C 0.65586 0.68652 0.57277
 C940 C 0.63326 0.70182 0.57030
 C941 C 0.57516 0.77157 0.60415
 C942 C 0.56929 0.79021 0.62326
 C943 C 0.58594 0.79358 0.64469
 C944 C 0.60858 0.77832 0.64715
 C945 C 0.58718 0.73375 0.56401
 C946 C 0.57373 0.73084 0.54473
 C947 C 0.65562 0.74731 0.65254
 C948 C 0.67079 0.74951 0.67059
 H949 H 0.68040 0.71059 0.62940
 H950 H 0.69023 0.67820 0.59580
 H951 H 0.66042 0.67190 0.55806
 H952 H 0.62087 0.69837 0.55335
 H953 H 0.56160 0.76963 0.58785
 H954 H 0.55174 0.80211 0.62144
 H955 H 0.58130 0.80809 0.65948
 H956 H 0.62093 0.78164 0.66416
 C957 C 0.13148 0.75957 0.86347
 C958 C 0.11727 0.78348 0.86292
 C959 C 0.09563 0.78724 0.88015
 C960 C 0.08826 0.76703 0.89776
 C961 C 0.10274 0.74330 0.89859
 C962 C 0.12442 0.73955 0.88139
 C963 C 0.13849 0.71562 0.88246
 C964 C 0.13136 0.69592 0.90004
 C965 C 0.11017 0.69957 0.91687
 C966 C 0.09595 0.72295 0.91624
 C967 C 0.08168 0.81127 0.87918
 C968 C 0.08881 0.83097 0.86159
 C969 C 0.10988 0.82725 0.84464
 C970 C 0.12407 0.80387 0.84527
 C971 C 0.06524 0.77034 0.91429
 C972 C 0.04575 0.77324 0.92744
 C973 C 0.15307 0.75558 0.84527
 C974 C 0.17069 0.75323 0.82966
 H975 H 0.15512 0.71189 0.86975
 H976 H 0.14233 0.67772 0.90060
 H977 H 0.10472 0.68422 0.93049
 H978 H 0.07965 0.72490 0.92975
 H979 H 0.06514 0.81510 0.89197
 H980 H 0.07790 0.84921 0.86108
 H981 H 0.11523 0.84254 0.83090
 H982 H 0.14035 0.80197 0.83174
 C983 C 0.63568 0.26187 0.36446
 C984 C 0.62142 0.28573 0.36326
 C985 C 0.59895 0.28936 0.37943
 C986 C 0.59095 0.26915 0.39675
 C987 C 0.60554 0.24552 0.39834
 C988 C 0.62798 0.24187 0.38212
 C989 C 0.64217 0.21804 0.38390
 C990 C 0.63441 0.19835 0.40123
 C991 C 0.61247 0.20192 0.41710
 C992 C 0.59812 0.22519 0.41575
 C993 C 0.58484 0.31326 0.37768
 C994 C 0.59272 0.33302 0.36048
 C995 C 0.61471 0.32950 0.34469
 C996 C 0.62899 0.30619 0.34601
 C997 C 0.56734 0.27242 0.41240
 C998 C 0.54749 0.27524 0.42501
 C999 C 0.65765 0.25770 0.34680
 C1000 C 0.67537 0.25505 0.33136
 H1001 H 0.65939 0.21439 0.37198
 H1002 H 0.64548 0.18024 0.40236
 H1003 H 0.60652 0.18657 0.43053
 H1004 H 0.58121 0.22707 0.42850
 H1005 H 0.56761 0.31694 0.38957
 H1006 H 0.58168 0.35116 0.35938
 H1007 H 0.62074 0.34490 0.33134
 H1008 H 0.64599 0.30442 0.33337
 C1009 C 0.87016 0.75310 0.13418
 C1010 C 0.87432 0.77796 0.12247
 C1011 C 0.89562 0.78161 0.10480
 C1012 C 0.91269 0.76042 0.09904
 C1013 C 0.90805 0.73538 0.11016
 C1014 C 0.88671 0.73171 0.12778
 C1015 C 0.88259 0.70657 0.13882
 C1016 C 0.89907 0.68563 0.13260
 C1017 C 0.91994 0.68921 0.11537
 C1018 C 0.92449 0.71377 0.10423
 C1019 C 0.89947 0.80666 0.09342
 C1020 C 0.88283 0.82754 0.09944
 C1021 C 0.86211 0.82402 0.11685
 C1022 C 0.85775 0.79954 0.12822
 C1023 C 0.93573 0.76473 0.08280
 C1024 C 0.95524 0.76865 0.06996
 C1025 C 0.84940 0.74988 0.15344
 C1026 C 0.83229 0.74799 0.16967
 H1027 H 0.86658 0.70283 0.15230
 H1028 H 0.89562 0.66652 0.14121
 H1029 H 0.93268 0.67288 0.11060
 H1030 H 0.94093 0.71558 0.09088
 H1031 H 0.91532 0.81036 0.07975
 H1032 H 0.88606 0.84657 0.09057
 H1033 H 0.84932 0.84033 0.12155
 H1034 H 0.84127 0.79776 0.14152
 C1035 C 0.37002 0.25434 0.63227
 C1036 C 0.37420 0.27932 0.62083
 C1037 C 0.39520 0.28300 0.60282
 C1038 C 0.41193 0.26172 0.59647
 C1039 C 0.40723 0.23657 0.60728
 C1040 C 0.38620 0.23287 0.62525
 C1041 C 0.38200 0.20761 0.63599
 C1042 C 0.39813 0.18659 0.62917
 C1043 C 0.41872 0.19021 0.61160
 C1044 C 0.42332 0.21487 0.60074
 C1045 C 0.39911 0.30816 0.59173
 C1046 C 0.38282 0.32913 0.59834
 C1047 C 0.36239 0.32558 0.61609
 C1048 C 0.35797 0.30099 0.62719
 C1049 C 0.43482 0.26607 0.58007
 C1050 C 0.45429 0.27004 0.56721
 C1051 C 0.34964 0.25106 0.65189
 C1052 C 0.33282 0.24908 0.66839
 H1053 H 0.36621 0.20384 0.64972
 H1054 H 0.39464 0.16739 0.63755
 H1055 H 0.43119 0.17382 0.60636
 H1056 H 0.43953 0.21671 0.58712
 H1057 H 0.41474 0.31189 0.57782
 H1058 H 0.38608 0.34824 0.58968
 H1059 H 0.34984 0.34195 0.62124
 H1060 H 0.34172 0.29918 0.64077
 C1061 C 0.86435 0.24443 0.86773
 C1062 C 0.87950 0.26600 0.87655
 C1063 C 0.89720 0.26282 0.89797
 C1064 C 0.89961 0.23811 0.91044
 C1065 C 0.88485 0.21639 0.90126
 C1066 C 0.86721 0.21955 0.87980
 C1067 C 0.85266 0.19755 0.87098
 C1068 C 0.85550 0.17314 0.88297
 C1069 C 0.87261 0.17010 0.90406
 C1070 C 0.88717 0.19140 0.91318
 C1071 C 0.91205 0.28469 0.90652
 C1072 C 0.90950 0.30901 0.89426
 C1073 C 0.89219 0.31211 0.87332
 C1074 C 0.87730 0.29091 0.86449
 C1075 C 0.91648 0.23515 0.93328
 C1076 C 0.92978 0.23230 0.95271
 C1077 C 0.84540 0.24779 0.84664
 C1078 C 0.82924 0.24968 0.82940
 H1079 H 0.83901 0.19892 0.85471
 H1080 H 0.84427 0.15652 0.87593
 H1081 H 0.87463 0.15112 0.91340
 H1082 H 0.90029 0.18801 0.92959
 H1083 H 0.92579 0.28323 0.92271
 H1084 H 0.92102 0.32553 0.90104
 H1085 H 0.89029 0.33103 0.86385
 H1086 H 0.86412 0.29425 0.84811
 C1087 C 0.36432 0.74348 0.36920
 C1088 C 0.37983 0.76480 0.37797
 C1089 C 0.39708 0.76149 0.39971
 C1090 C 0.39865 0.73690 0.41255
 C1091 C 0.38347 0.71544 0.40347
 C1092 C 0.36630 0.71872 0.38167
 C1093 C 0.35136 0.69696 0.37289
 C1094 C 0.35337 0.67267 0.38527
 C1095 C 0.37001 0.66951 0.40671
 C1096 C 0.38494 0.69057 0.41579
 C1097 C 0.41235 0.78310 0.40821
 C1098 C 0.41063 0.80729 0.39556
 C1099 C 0.39376 0.81052 0.37429
 C1100 C 0.37847 0.78959 0.36551
 C1101 C 0.41530 0.73379 0.43550
 C1102 C 0.42862 0.73091 0.45488
 C1103 C 0.34587 0.74700 0.34773
 C1104 C 0.33008 0.74906 0.33019
 H1105 H 0.33804 0.69844 0.35636
 H1106 H 0.34186 0.65623 0.37825
 H1107 H 0.37138 0.65063 0.41635
 H1108 H 0.39767 0.68711 0.43249
 H1109 H 0.42578 0.78153 0.42465
 H1110 H 0.42247 0.82361 0.40229
 H1111 H 0.39250 0.82935 0.36452
 H1112 H 0.36565 0.79302 0.34887
 C1113 C 0.13114 0.12991 0.24314
 C1114 C 0.10846 0.12662 0.25889
 C1115 C 0.09188 0.10448 0.25501
 C1116 C 0.09813 0.08579 0.23544
 C1117 C 0.12049 0.08940 0.21929
 C1118 C 0.13706 0.11151 0.22316
 C1119 C 0.15944 0.11457 0.20689
 C1120 C 0.16529 0.09629 0.18742
 C1121 C 0.14901 0.07476 0.18355
 C1122 C 0.12686 0.07124 0.19924
 C1123 C 0.06935 0.10156 0.27102
 C1124 C 0.06335 0.11998 0.29032
 C1125 C 0.07958 0.14160 0.29413
 C1126 C 0.10192 0.14497 0.27866
 C1127 C 0.08205 0.06247 0.23230
 C1128 C 0.06933 0.04272 0.22945
 C1129 C 0.14876 0.15187 0.24761
 C1130 C 0.16425 0.16953 0.25043
 H1131 H 0.17267 0.13106 0.20901
 H1132 H 0.18255 0.09884 0.17527
 H1133 H 0.15359 0.06066 0.16833
 H1134 H 0.11481 0.05415 0.19547
 H1135 H 0.05612 0.08508 0.26875
 H1136 H 0.04601 0.11747 0.30238
 H1137 H 0.07483 0.15584 0.30916
 H1138 H 0.11394 0.16211 0.28232
 C1139 C 0.63585 0.62887 0.74235
 C1140 C 0.61268 0.62648 0.75755
 C1141 C 0.59568 0.60468 0.75370
 C1142 C 0.60198 0.58542 0.73470
 C1143 C 0.62493 0.58806 0.71918
 C1144 C 0.64193 0.60984 0.72303
 C1145 C 0.66484 0.61198 0.70737
 C1146 C 0.67081 0.59309 0.68852
 C1147 C 0.65414 0.57184 0.68470
 C1148 C 0.63145 0.56924 0.69980
 C1149 C 0.57265 0.60265 0.76915
 C1150 C 0.56659 0.62164 0.78787
 C1151 C 0.58322 0.64296 0.79163
 C1152 C 0.60604 0.64544 0.77671
 C1153 C 0.58523 0.56262 0.73141
 C1154 C 0.57182 0.54336 0.72853
 C1155 C 0.65365 0.65067 0.74664
 C1156 C 0.66907 0.66838 0.74948
 H1157 H 0.67839 0.62821 0.70950
 H1158 H 0.68846 0.59496 0.67681
 H1159 H 0.65882 0.55727 0.66998
 H1160 H 0.61911 0.55235 0.69610
 H1161 H 0.55910 0.58644 0.76690
 H1162 H 0.54888 0.61981 0.79951
 H1163 H 0.57842 0.65766 0.80620
 H1164 H 0.61837 0.66237 0.78032
 C1165 C 0.87049 0.13585 0.74625
 C1166 C 0.86667 0.11191 0.75985
 C1167 C 0.88767 0.09359 0.76198
 C1168 C 0.91237 0.09934 0.75055
 C1169 C 0.91596 0.12296 0.73633
 C1170 C 0.89496 0.14126 0.73417
 C1171 C 0.89911 0.16484 0.72009
 C1172 C 0.92332 0.17020 0.70847
 C1173 C 0.94386 0.15231 0.71057
 C1174 C 0.94034 0.12893 0.72431
 C1175 C 0.88346 0.06990 0.77584
 C1176 C 0.85918 0.06446 0.78729
 C1177 C 0.83865 0.08237 0.78525
 C1178 C 0.84224 0.10586 0.77170
 C1179 C 0.93455 0.08183 0.75461
 C1180 C 0.95370 0.06835 0.75835
 C1181 C 0.84961 0.15530 0.74550
 C1182 C 0.83240 0.17158 0.74540
 H1183 H 0.88372 0.17936 0.71789
 H1184 H 0.92616 0.18834 0.69778
 H1185 H 0.96264 0.15656 0.70151
 H1186 H 0.95691 0.11562 0.72534
 H1187 H 0.89884 0.05535 0.77790
 H1188 H 0.85629 0.04623 0.79782
 H1189 H 0.81984 0.07805 0.79419
 H1190 H 0.82567 0.11916 0.77060
 C1191 C 0.36988 0.63419 0.24610
 C1192 C 0.36623 0.61123 0.26132
 C1193 C 0.38691 0.59258 0.26350
 C1194 C 0.41108 0.59706 0.25050
 C1195 C 0.41439 0.61958 0.23455
 C1196 C 0.39372 0.63822 0.23235
 C1197 C 0.39757 0.66075 0.21656
 C1198 C 0.42120 0.66475 0.20331
 C1199 C 0.44143 0.64652 0.20546
 C1200 C 0.43818 0.62417 0.22087
 C1201 C 0.38294 0.56988 0.27900
 C1202 C 0.35920 0.56574 0.29202
 C1203 C 0.33898 0.58400 0.28993
 C1204 C 0.34234 0.60652 0.27478
 C1205 C 0.43317 0.57958 0.25485
 C1206 C 0.45228 0.56618 0.25884
 C1207 C 0.34955 0.65413 0.24543
 C1208 C 0.33278 0.67081 0.24541
 H1209 H 0.38239 0.67547 0.21425
 H1210 H 0.42381 0.68209 0.19132
 H1211 H 0.45975 0.64971 0.19513
 H1212 H 0.45447 0.61052 0.22185
 H1213 H 0.39809 0.55510 0.28115
 H1214 H 0.35648 0.54827 0.30378
 H1215 H 0.32057 0.58070 0.30009
 H1216 H 0.32603 0.62013 0.27370
 C1217 C 0.12989 0.86411 0.75164
 C1218 C 0.13117 0.88535 0.76950
 C1219 C 0.10906 0.90214 0.77270
 C1220 C 0.08583 0.89759 0.75799
 C1221 C 0.08472 0.87660 0.73982
 C1222 C 0.10682 0.85981 0.73663
 C1223 C 0.10517 0.83883 0.71850
 C1224 C 0.08234 0.83456 0.70393
 C1225 C 0.06073 0.85098 0.70704
 C1226 C 0.06179 0.87178 0.72474
 C1227 C 0.11072 0.92313 0.79081
 C1228 C 0.13361 0.92746 0.80529
 C1229 C 0.15526 0.91112 0.80208
 C1230 C 0.15413 0.89020 0.78451
 C1231 C 0.06279 0.91392 0.76211
 C1232 C 0.04332 0.92696 0.76569
 C1233 C 0.15184 0.84600 0.74954
 C1234 C 0.16970 0.83050 0.74846
 H1235 H 0.12147 0.82554 0.71536
 H1236 H 0.08141 0.81842 0.69015
 H1237 H 0.04303 0.84757 0.69567
 H1238 H 0.04448 0.88402 0.72645
 H1239 H 0.09441 0.93641 0.79393
 H1240 H 0.13457 0.94362 0.81904
 H1241 H 0.17301 0.91461 0.81333
 H1242 H 0.17145 0.87798 0.78277
 C1243 C 0.63460 0.36489 0.25311
 C1244 C 0.63426 0.38462 0.27266
 C1245 C 0.61155 0.40058 0.27584
 C1246 C 0.58936 0.39668 0.25945
 C1247 C 0.58993 0.37732 0.23953
 C1248 C 0.61263 0.36137 0.23635
 C1249 C 0.61268 0.34199 0.21645
 C1250 C 0.59092 0.33849 0.20014
 C1251 C 0.56871 0.35409 0.20325
 C1252 C 0.56811 0.37331 0.22268
 C1253 C 0.61158 0.42008 0.29561
 C1254 C 0.63348 0.42379 0.31170
 C1255 C 0.65572 0.40824 0.30853
 C1256 C 0.65618 0.38877 0.28934
 C1257 C 0.56568 0.41207 0.26343
 C1258 C 0.54578 0.42447 0.26677
 C1259 C 0.65691 0.34725 0.25116
 C1260 C 0.67483 0.33183 0.25010
 H1261 H 0.62951 0.32940 0.21323
 H1262 H 0.59129 0.32358 0.18502
 H1263 H 0.55185 0.35130 0.19054
 H1264 H 0.55039 0.38497 0.22431
 H1265 H 0.59477 0.43272 0.29877
 H1266 H 0.63321 0.43885 0.32667
 H1267 H 0.67272 0.41130 0.32098
 H1268 H 0.67391 0.37714 0.28765
 C1269 C 0.86569 0.86548 0.25354
 C1270 C 0.89225 0.86156 0.24617
 C1271 C 0.90940 0.88345 0.24360
 C1272 C 0.89985 0.90909 0.24839
 C1273 C 0.87351 0.91292 0.25657
 C1274 C 0.85639 0.89105 0.25917
 C1275 C 0.83005 0.89540 0.26712
 C1276 C 0.82090 0.92063 0.27234
 C1277 C 0.83765 0.94202 0.26979
 C1278 C 0.86366 0.93833 0.26201
 C1279 C 0.93581 0.87910 0.23600
 C1280 C 0.94503 0.85383 0.23107
 C1281 C 0.92826 0.83243 0.23355
 C1282 C 0.90214 0.83614 0.24100
 C1283 C 0.91656 0.93169 0.24367
 C1284 C 0.92945 0.95103 0.23927
 C1285 C 0.84748 0.84355 0.25401
 C1286 C 0.83154 0.82604 0.25377
 H1287 H 0.81628 0.87940 0.26944
 H1288 H 0.80071 0.92359 0.27840
 H1289 H 0.83045 0.96158 0.27388
 H1290 H 0.87592 0.95560 0.26037
 H1291 H 0.94958 0.89514 0.23386
 H1292 H 0.96531 0.85083 0.22530
 H1293 H 0.93553 0.81285 0.22970
 H1294 H 0.88984 0.81890 0.24273
 C1295 C 0.36481 0.36782 0.75279
 C1296 C 0.39173 0.36426 0.74666
 C1297 C 0.40851 0.38642 0.74420
 C1298 C 0.39822 0.41197 0.74784
 C1299 C 0.37150 0.41547 0.75485
 C1300 C 0.35474 0.39332 0.75734
 C1301 C 0.32802 0.39731 0.76412
 C1302 C 0.31816 0.42247 0.76832
 C1303 C 0.33456 0.44413 0.76588
 C1304 C 0.36093 0.44080 0.75921
 C1305 C 0.43531 0.38243 0.73786
 C1306 C 0.44527 0.35724 0.73409
 C1307 C 0.42885 0.33556 0.73647
 C1308 C 0.40235 0.33892 0.74267
 C1309 C 0.41467 0.43474 0.74323
 C1310 C 0.42765 0.45402 0.73886
 C1311 C 0.34707 0.34553 0.75314
 C1312 C 0.33152 0.32771 0.75280
 H1313 H 0.31450 0.38108 0.76633
 H1314 H 0.29769 0.42515 0.77352
 H1315 H 0.32682 0.46364 0.76917
 H1316 H 0.37290 0.45827 0.75760
 H1317 H 0.44884 0.39870 0.73585
 H1318 H 0.46583 0.35452 0.72930
 H1319 H 0.43668 0.31604 0.73352
 H1320 H 0.39035 0.32147 0.74437
 C1321 C 0.13610 0.22756 0.86405
 C1322 C 0.11045 0.23836 0.86326
 C1323 C 0.09289 0.23411 0.88454
 C1324 C 0.10111 0.21909 0.90646
 C1325 C 0.12633 0.20727 0.90669
 C1326 C 0.14392 0.21158 0.88546
 C1327 C 0.16922 0.19996 0.88637
 C1328 C 0.17690 0.18450 0.90763
 C1329 C 0.15961 0.18010 0.92827
 C1330 C 0.13460 0.19135 0.92794
 C1331 C 0.06744 0.24534 0.88346
 C1332 C 0.05954 0.26030 0.86193
 C1333 C 0.07671 0.26446 0.84113
 C1334 C 0.10191 0.25367 0.84168
 C1335 C 0.08462 0.21775 0.92968
 C1336 C 0.07170 0.21787 0.94950
 C1337 C 0.15470 0.23331 0.84324
 C1338 C 0.17070 0.23770 0.82637
 H1339 H 0.18330 0.20260 0.87068
 H1340 H 0.19630 0.17572 0.90798
 H1341 H 0.16560 0.16791 0.94463
 H1342 H 0.12182 0.18734 0.94443
 H1343 H 0.05336 0.24255 0.89913
 H1344 H 0.03998 0.26871 0.86140
 H1345 H 0.07047 0.27611 0.82445
 H1346 H 0.11456 0.25741 0.82503
 C1347 C 0.63403 0.72777 0.36379
 C1348 C 0.60794 0.73745 0.36299
 C1349 C 0.59071 0.73284 0.38447
 C1350 C 0.59968 0.71854 0.40658
 C1351 C 0.62537 0.70777 0.40682
 C1352 C 0.64265 0.71251 0.38542
 C1353 C 0.66845 0.70202 0.38638
 C1354 C 0.67688 0.68719 0.40780
 C1355 C 0.65989 0.68235 0.42859
 C1356 C 0.63443 0.69252 0.42824
 C1357 C 0.56481 0.74299 0.38338
 C1358 C 0.55615 0.75723 0.36166
 C1359 C 0.57299 0.76173 0.34065
 C1360 C 0.59862 0.75201 0.34121
 C1361 C 0.58345 0.71691 0.42997
 C1362 C 0.57086 0.71676 0.45001
 C1363 C 0.65229 0.73387 0.34275
 C1364 C 0.66821 0.73841 0.32583
 H1365 H 0.68233 0.70501 0.37058
 H1366 H 0.69662 0.67920 0.40814
 H1367 H 0.66646 0.67063 0.44508
 H1368 H 0.62191 0.68821 0.44486
 H1369 H 0.55097 0.73990 0.39921
 H1370 H 0.53625 0.76481 0.36112
 H1371 H 0.56616 0.77280 0.32382
 H1372 H 0.61101 0.75598 0.32440
 C1373 C 0.86204 0.76782 0.87236
 C1374 C 0.87105 0.79383 0.87616
 C1375 C 0.89352 0.79860 0.89211
 C1376 C 0.90662 0.77735 0.90438
 C1377 C 0.89675 0.75150 0.90165
 C1378 C 0.87442 0.74673 0.88555
 C1379 C 0.86509 0.72071 0.88284
 C1380 C 0.87744 0.69997 0.89575
 C1381 C 0.89928 0.70462 0.91153
 C1382 C 0.90892 0.73003 0.91451
 C1383 C 0.90250 0.82468 0.89523
 C1384 C 0.88947 0.84551 0.88312
 C1385 C 0.86737 0.84088 0.86769
 C1386 C 0.85822 0.81536 0.86411
 C1387 C 0.93087 0.78162 0.91886
 C1388 C 0.95144 0.78358 0.93053
 C1389 C 0.84114 0.76259 0.85365
 C1390 C 0.82443 0.75852 0.83737
 H1391 H 0.84809 0.71613 0.87086
 H1392 H 0.87000 0.68020 0.89352
 H1393 H 0.90880 0.68844 0.92154
 H1394 H 0.92592 0.73263 0.92705
 H1395 H 0.91956 0.82922 0.90712
 H1396 H 0.89658 0.86536 0.88571
 H1397 H 0.85732 0.85712 0.85832
 H1398 H 0.84097 0.81272 0.85191
 C1399 C 0.36229 0.26724 0.36821
 C1400 C 0.37105 0.29339 0.37169
 C1401 C 0.39373 0.29856 0.38724
 C1402 C 0.40727 0.27759 0.39952
 C1403 C 0.39786 0.25155 0.39685
 C1404 C 0.37534 0.24638 0.38112
 C1405 C 0.36648 0.22018 0.37851
 C1406 C 0.37949 0.19966 0.39112
 C1407 C 0.40151 0.20469 0.40652
 C1408 C 0.41068 0.23029 0.40942
 C1409 C 0.40248 0.32477 0.38993
 C1410 C 0.38905 0.34534 0.37781
 C1411 C 0.36671 0.34032 0.36284
 C1412 C 0.35775 0.31468 0.35971
 C1413 C 0.43135 0.28236 0.41418
 C1414 C 0.45173 0.28473 0.42612
 C1415 C 0.34087 0.26167 0.35016
 C1416 C 0.32369 0.25738 0.33440
 H1417 H 0.34938 0.21529 0.36680
 H1418 H 0.37242 0.17975 0.38893
 H1419 H 0.41154 0.18868 0.41628
 H1420 H 0.42786 0.23317 0.42166
 H1421 H 0.41972 0.32961 0.40145
 H1422 H 0.39602 0.36527 0.38003
 H1423 H 0.35635 0.35636 0.35347
 H1424 H 0.34032 0.31175 0.34783
 C1425 C 0.13567 0.76984 0.13195
 C1426 C 0.11947 0.79210 0.13597
 C1427 C 0.09803 0.79708 0.11871
 C1428 C 0.09296 0.77978 0.09756
 C1429 C 0.10999 0.75831 0.09277
 C1430 C 0.13139 0.75330 0.11005
 C1431 C 0.14794 0.73152 0.10510
 C1432 C 0.14350 0.71518 0.08362
 C1433 C 0.12259 0.72009 0.06669
 C1434 C 0.10595 0.74136 0.07112
 C1435 C 0.08191 0.81925 0.12326
 C1436 C 0.08686 0.83607 0.14427
 C1437 C 0.10780 0.83120 0.16117
 C1438 C 0.12400 0.80951 0.15717
 C1439 C 0.06915 0.78267 0.08203
 C1440 C 0.04891 0.78358 0.06968
 C1441 C 0.15612 0.76354 0.15083
 C1442 C 0.17276 0.75879 0.16702
 H1443 H 0.16449 0.72695 0.11770
 H1444 H 0.15637 0.69863 0.08009
 H1445 H 0.11924 0.70736 0.05001
 H1446 H 0.09001 0.74444 0.05734
 H1447 H 0.06544 0.82386 0.11057
 H1448 H 0.07438 0.85299 0.14744
 H1449 H 0.11157 0.84436 0.17741
 H1450 H 0.14012 0.80663 0.17078
 C1451 C 0.63309 0.26847 0.63275
 C1452 C 0.61641 0.29030 0.63715
 C1453 C 0.59594 0.29614 0.61899
 C1454 C 0.59214 0.27998 0.59670
 C1455 C 0.60960 0.25891 0.59169
 C1456 C 0.63013 0.25313 0.60978
 C1457 C 0.64716 0.23180 0.60451
 C1458 C 0.64402 0.21663 0.58196
 C1459 C 0.62396 0.22229 0.56425
 C1460 C 0.60687 0.24315 0.56898
 C1461 C 0.57951 0.31802 0.62377
 C1462 C 0.58318 0.33372 0.64588
 C1463 C 0.60308 0.32794 0.66373
 C1464 C 0.61955 0.30648 0.65954
 C1465 C 0.56898 0.28337 0.58029
 C1466 C 0.54913 0.28464 0.56734
 C1467 C 0.65306 0.26170 0.65200
 C1468 C 0.66954 0.25672 0.66830
 H1469 H 0.66307 0.22666 0.61769
 H1470 H 0.65724 0.20041 0.57821
 H1471 H 0.62163 0.21048 0.54675
 H1472 H 0.59165 0.24687 0.55456
 H1473 H 0.56381 0.32331 0.61039
 H1474 H 0.57049 0.35045 0.64921
 H1475 H 0.60579 0.34016 0.68087
 H1476 H 0.63484 0.30287 0.67392
 C1477 C 0.87135 0.23383 0.13510
 C1478 C 0.89059 0.25255 0.12798
 C1479 C 0.90704 0.24791 0.10594
 C1480 C 0.90404 0.22461 0.09108
 C1481 C 0.88556 0.20536 0.09888
 C1482 C 0.86924 0.20993 0.12106
 C1483 C 0.85095 0.19037 0.12857
 C1484 C 0.84885 0.16699 0.11456
 C1485 C 0.86460 0.16266 0.09270
 C1486 C 0.88278 0.18157 0.08485
 C1487 C 0.92605 0.26701 0.09910
 C1488 C 0.92871 0.29003 0.11362
 C1489 C 0.91258 0.29458 0.13514
 C1490 C 0.89369 0.27613 0.14233
 C1491 C 0.91887 0.22138 0.06697
 C1492 C 0.93084 0.22018 0.04660
 C1493 C 0.85299 0.23958 0.15608
 C1494 C 0.83713 0.24402 0.17305
 H1495 H 0.83822 0.19286 0.14540
 H1496 H 0.83493 0.15215 0.12070
 H1497 H 0.86279 0.14452 0.08181
 H1498 H 0.89474 0.17728 0.06782
 H1499 H 0.93913 0.26434 0.08257
 H1500 H 0.94338 0.30440 0.10813
 H1501 H 0.91471 0.31248 0.14636
 H1502 H 0.88165 0.28050 0.15928
 C1503 C 0.37073 0.73540 0.63726
 C1504 C 0.38915 0.75461 0.62928
 C1505 C 0.40612 0.74952 0.60773
 C1506 C 0.40449 0.72528 0.59422
 C1507 C 0.38686 0.70563 0.60293
 C1508 C 0.36999 0.71067 0.62460
 C1509 C 0.35251 0.69073 0.63296
 C1510 C 0.35173 0.66652 0.62028
 C1511 C 0.36805 0.66169 0.59895
 C1512 C 0.38546 0.68096 0.59028
 C1513 C 0.42425 0.76912 0.59999
 C1514 C 0.42556 0.79304 0.61316
 C1515 C 0.40892 0.79802 0.63420
 C1516 C 0.39087 0.77910 0.64225
 C1517 C 0.41966 0.72148 0.57038
 C1518 C 0.43170 0.71980 0.55007
 C1519 C 0.35182 0.74142 0.65771
 C1520 C 0.33552 0.74593 0.67426
 H1521 H 0.33938 0.69357 0.64942
 H1522 H 0.33833 0.65146 0.62699
 H1523 H 0.36726 0.64289 0.58911
 H1524 H 0.39789 0.67628 0.57370
 H1525 H 0.43768 0.76615 0.58380
 H1526 H 0.43957 0.80779 0.60700
 H1527 H 0.41001 0.81663 0.64437
 H1528 H 0.37839 0.78383 0.65878
 C1529 C 0.24003 0.13184 0.86546
 C1530 C 0.21406 0.12646 0.87391
 C1531 C 0.20986 0.11090 0.89667
 C1532 C 0.23168 0.10065 0.91066
 C1533 C 0.25761 0.10527 0.90165
 C1534 C 0.26179 0.12095 0.87898
 C1535 C 0.28788 0.12555 0.87046
 C1536 C 0.30925 0.11491 0.88395
 C1537 C 0.30517 0.09956 0.90613
 C1538 C 0.27969 0.09474 0.91497
 C1539 C 0.18375 0.10614 0.90502
 C1540 C 0.16238 0.11635 0.89118
 C1541 C 0.16648 0.13147 0.86885
 C1542 C 0.19198 0.13654 0.86023
 C1543 C 0.22756 0.08593 0.93468
 C1544 C 0.22441 0.07395 0.95483
 C1545 C 0.24434 0.14988 0.84390
 C1546 C 0.24739 0.16571 0.82664
 H1547 H 0.29203 0.13731 0.85326
 H1548 H 0.32907 0.11860 0.87715
 H1549 H 0.32183 0.09132 0.91654
 H1550 H 0.27752 0.08265 0.93230
 H1551 H 0.17957 0.09446 0.92226
 H1552 H 0.14253 0.11253 0.89783
 H1553 H 0.14983 0.13937 0.85817
 H1554 H 0.19417 0.14840 0.84273
 C1555 C 0.73154 0.63113 0.36431
 C1556 C 0.70536 0.62754 0.37309
 C1557 C 0.70031 0.61181 0.39558
 C1558 C 0.72147 0.59964 0.40897
 C1559 C 0.74752 0.60231 0.39946
 C1560 C 0.75256 0.61814 0.37708
 C1561 C 0.77878 0.62077 0.36810
 C1562 C 0.79945 0.60806 0.38086
 C1563 C 0.79454 0.59255 0.40274
 C1564 C 0.76893 0.58965 0.41204
 C1565 C 0.67406 0.60882 0.40426
 C1566 C 0.65331 0.62086 0.39095
 C1567 C 0.65822 0.63612 0.36887
 C1568 C 0.68392 0.63955 0.35999
 C1569 C 0.71693 0.58517 0.43309
 C1570 C 0.71497 0.57336 0.45349
 C1571 C 0.73703 0.64937 0.34317
 C1572 C 0.74139 0.66527 0.32625
 H1573 H 0.78357 0.63255 0.35110
 H1574 H 0.81937 0.61025 0.37370
 H1575 H 0.81065 0.58269 0.41258
 H1576 H 0.76615 0.57731 0.42910
 H1577 H 0.66931 0.59708 0.42131
 H1578 H 0.63333 0.61834 0.39782
 H1579 H 0.64205 0.64544 0.35861
 H1580 H 0.68676 0.65161 0.34273
 C1581 C 0.76834 0.13166 0.14044
 C1582 C 0.76511 0.10575 0.14990
 C1583 C 0.76806 0.08418 0.13253
 C1584 C 0.77424 0.08865 0.10579
 C1585 C 0.77845 0.11449 0.09656
 C1586 C 0.77544 0.13609 0.11394
 C1587 C 0.77975 0.16177 0.10431
 C1588 C 0.78707 0.16597 0.07829
 C1589 C 0.79006 0.14484 0.06130
 C1590 C 0.78573 0.11934 0.07021
 C1591 C 0.76478 0.05843 0.14247
 C1592 C 0.75890 0.05414 0.16884
 C1593 C 0.75608 0.07525 0.18584
 C1594 C 0.75909 0.10080 0.17660
 C1595 C 0.77604 0.06651 0.08801
 C1596 C 0.77720 0.04724 0.07436
 C1597 C 0.76459 0.15358 0.15815
 C1598 C 0.76165 0.17124 0.17357
 H1599 H 0.77777 0.17880 0.11683
 H1600 H 0.79050 0.18572 0.07129
 H1601 H 0.79577 0.14820 0.04111
 H1602 H 0.78832 0.10350 0.05630
 H1603 H 0.76685 0.04133 0.13007
 H1604 H 0.75654 0.03432 0.17610
 H1605 H 0.75155 0.07183 0.20632
 H1606 H 0.75677 0.11655 0.19063
 C1607 C 0.27047 0.63262 0.64009
 C1608 C 0.26618 0.60666 0.64897
 C1609 C 0.26966 0.58527 0.63147
 C1610 C 0.27748 0.58995 0.60520
 C1611 C 0.28290 0.61581 0.59666
 C1612 C 0.27933 0.63724 0.61416
 C1613 C 0.28484 0.66294 0.60521
 C1614 C 0.29387 0.66731 0.57976
 C1615 C 0.29741 0.64635 0.56267
 C1616 C 0.29192 0.62085 0.57089
 C1617 C 0.26519 0.55947 0.64080
 C1618 C 0.25764 0.55496 0.66670
 C1619 C 0.25432 0.57590 0.68383
 C1620 C 0.25848 0.60148 0.67518
 C1621 C 0.27958 0.56803 0.58715
 C1622 C 0.28083 0.54889 0.57333
 C1623 C 0.26585 0.65441 0.65780
 C1624 C 0.26209 0.67194 0.67318
 H1625 H 0.28252 0.67983 0.61786
 H1626 H 0.29823 0.68707 0.57330
 H1627 H 0.30445 0.64985 0.54293
 H1628 H 0.29500 0.60515 0.55693
 H1629 H 0.26761 0.54250 0.62829
 H1630 H 0.25438 0.53511 0.67351
 H1631 H 0.24849 0.57230 0.70394
 H1632 H 0.25570 0.61710 0.68928
 C1633 C 0.74612 0.86692 0.87210
 C1634 C 0.76789 0.86807 0.88945
 C1635 C 0.77076 0.88980 0.90667
 C1636 C 0.75182 0.91018 0.90644
 C1637 C 0.72953 0.90850 0.88982
 C1638 C 0.72667 0.88679 0.87258
 C1639 C 0.70438 0.88565 0.85592
 C1640 C 0.68544 0.90542 0.85629
 C1641 C 0.68824 0.92668 0.87314
 C1642 C 0.71000 0.92831 0.88975
 C1643 C 0.79284 0.89073 0.92362
 C1644 C 0.81149 0.87067 0.92365
 C1645 C 0.80862 0.84935 0.90689
 C1646 C 0.78717 0.84801 0.88986
 C1647 C 0.75603 0.93356 0.92210
 C1648 C 0.75994 0.95339 0.93434
 C1649 C 0.74452 0.84611 0.85278
 C1650 C 0.74379 0.82926 0.83624
 H1651 H 0.70131 0.86947 0.84251
 H1652 H 0.66850 0.90424 0.84342
 H1653 H 0.67347 0.94199 0.87335
 H1654 H 0.71128 0.94520 0.90255
 H1655 H 0.79586 0.90686 0.93710
 H1656 H 0.82823 0.87165 0.93679
 H1657 H 0.82308 0.83376 0.90711
 H1658 H 0.78580 0.83104 0.87717
 C1659 C 0.24771 0.36720 0.37024
 C1660 C 0.26954 0.36797 0.38754
 C1661 C 0.27281 0.38962 0.40481
 C1662 C 0.25424 0.41033 0.40464
 C1663 C 0.23190 0.40907 0.38804
 C1664 C 0.22862 0.38742 0.37078
 C1665 C 0.20628 0.38670 0.35416
 C1666 C 0.18770 0.40680 0.35458
 C1667 C 0.19091 0.42800 0.37144
 C1668 C 0.21273 0.42923 0.38801
 C1669 C 0.29492 0.39012 0.42174
 C1670 C 0.31323 0.36975 0.42168
 C1671 C 0.31000 0.34855 0.40484
 C1672 C 0.28849 0.34760 0.38785
 C1673 C 0.25884 0.43360 0.42038
 C1674 C 0.26299 0.45338 0.43264
 C1675 C 0.24560 0.34634 0.35100
 C1676 C 0.24435 0.32941 0.33457
 H1677 H 0.20289 0.37059 0.34075
 H1678 H 0.17071 0.40592 0.34175
 H1679 H 0.17643 0.44357 0.37168
 H1680 H 0.21433 0.44607 0.40083
 H1681 H 0.29822 0.40616 0.43526
 H1682 H 0.32999 0.37041 0.43482
 H1683 H 0.32422 0.33274 0.40496
 H1684 H 0.28683 0.33070 0.37511
 C1685 C 0.24224 0.86868 0.13337
 C1686 C 0.26412 0.88134 0.12182
 C1687 C 0.26020 0.89932 0.10085
 C1688 C 0.23443 0.90452 0.09163
 C1689 C 0.21246 0.89271 0.10395
 C1690 C 0.21639 0.87459 0.12479
 C1691 C 0.19416 0.86258 0.13645
 C1692 C 0.16878 0.86857 0.12797
 C1693 C 0.16493 0.88648 0.10774
 C1694 C 0.18646 0.89841 0.09574
 C1695 C 0.28239 0.91156 0.08941
 C1696 C 0.30773 0.90622 0.09846
 C1697 C 0.31155 0.88863 0.11898
 C1698 C 0.29007 0.87626 0.13060
 C1699 C 0.23064 0.92071 0.06851
 C1700 C 0.22749 0.93339 0.04879
 C1701 C 0.24625 0.84896 0.15349
 C1702 C 0.24891 0.83221 0.16994
 H1703 H 0.19611 0.84865 0.15237
 H1704 H 0.15201 0.85939 0.13724
 H1705 H 0.14516 0.89114 0.10130
 H1706 H 0.18248 0.91223 0.08008
 H1707 H 0.28039 0.92546 0.07346
 H1708 H 0.32447 0.91579 0.08952
 H1709 H 0.33127 0.88454 0.12594
 H1710 H 0.29401 0.86276 0.14653
 C1711 C 0.73287 0.36711 0.63377
 C1712 C 0.75320 0.38434 0.62588
 C1713 C 0.74874 0.40239 0.60509
 C1714 C 0.72397 0.40309 0.59231
 C1715 C 0.70327 0.38670 0.60100
 C1716 C 0.70776 0.36854 0.62172
 C1717 C 0.68687 0.35207 0.62982
 C1718 C 0.66221 0.35367 0.61792
 C1719 C 0.65780 0.37152 0.59775
 C1720 C 0.67805 0.38786 0.58925
 C1721 C 0.76947 0.41924 0.59735
 C1722 C 0.79388 0.41830 0.60983
 C1723 C 0.79823 0.40063 0.63017
 C1724 C 0.77820 0.38379 0.63818
 C1725 C 0.72060 0.41926 0.56910
 C1726 C 0.71918 0.43205 0.54924
 C1727 C 0.73798 0.34748 0.65376
 C1728 C 0.74194 0.33089 0.67015
 H1729 H 0.68929 0.33796 0.64553
 H1730 H 0.64643 0.34102 0.62436
 H1731 H 0.63858 0.37269 0.58861
 H1732 H 0.67370 0.40147 0.57352
 H1733 H 0.76702 0.43340 0.58170
 H1734 H 0.80949 0.43136 0.60369
 H1735 H 0.81722 0.39997 0.63981
 H1736 H 0.78252 0.37041 0.65412
 C1737 C 0.13386 0.13160 0.75667
 C1738 C 0.11180 0.13341 0.73976
 C1739 C 0.08993 0.11650 0.74349
 C1740 C 0.09025 0.09783 0.76412
 C1741 C 0.11246 0.09575 0.78079
 C1742 C 0.13437 0.11269 0.77705
 C1743 C 0.15634 0.11032 0.79401
 C1744 C 0.15670 0.09166 0.81401
 C1745 C 0.13524 0.07517 0.81773
 C1746 C 0.11331 0.07711 0.80136
 C1747 C 0.06801 0.11883 0.72642
 C1748 C 0.06773 0.13731 0.70626
 C1749 C 0.08914 0.15384 0.70261
 C1750 C 0.11097 0.15200 0.71909
 C1751 C 0.06745 0.08118 0.76808
 C1752 C 0.04767 0.06830 0.77002
 C1753 C 0.15545 0.14996 0.75366
 C1754 C 0.17273 0.16595 0.75128
 H1755 H 0.17346 0.12276 0.79192
 H1756 H 0.17372 0.08998 0.82672
 H1757 H 0.13561 0.06078 0.83336
 H1758 H 0.09709 0.06385 0.80496
 H1759 H 0.05085 0.10644 0.72841
 H1760 H 0.05080 0.13882 0.69341
 H1761 H 0.08884 0.16816 0.68692
 H1762 H 0.12715 0.16528 0.71542
 C1763 C 0.63158 0.63206 0.25683
 C1764 C 0.60948 0.63289 0.23990
 C1765 C 0.58814 0.61538 0.24395
 C1766 C 0.58901 0.59709 0.26490
 C1767 C 0.61126 0.59600 0.28162
 C1768 C 0.63265 0.61352 0.27755
 C1769 C 0.65471 0.61206 0.29449
 C1770 C 0.65565 0.59375 0.31481
 C1771 C 0.63467 0.57674 0.31887
 C1772 C 0.61267 0.57777 0.30252
 C1773 C 0.56618 0.61671 0.22681
 C1774 C 0.56537 0.63478 0.20630
 C1775 C 0.58627 0.65188 0.20234
 C1776 C 0.60811 0.65104 0.21888
 C1777 C 0.56672 0.57980 0.26916
 C1778 C 0.54725 0.56646 0.27130
 C1779 C 0.65273 0.65087 0.25339
 C1780 C 0.66986 0.66700 0.25077
 H1781 H 0.67147 0.62494 0.29216
 H1782 H 0.67274 0.59275 0.32748
 H1783 H 0.63548 0.56264 0.33475
 H1784 H 0.59684 0.56412 0.30638
 H1785 H 0.54940 0.60385 0.22903
 H1786 H 0.54843 0.63551 0.19340
 H1787 H 0.58556 0.66588 0.18636
 H1788 H 0.62389 0.66474 0.21497
 C1789 C 0.13573 0.86543 0.22568
 C1790 C 0.14324 0.88663 0.20935
 C1791 C 0.12513 0.90724 0.20418
 C1792 C 0.09970 0.90656 0.21544
 C1793 C 0.09161 0.88449 0.23022
 C1794 C 0.10969 0.86384 0.23536
 C1795 C 0.10126 0.84207 0.25039
 C1796 C 0.07564 0.84072 0.26001
 C1797 C 0.05795 0.86093 0.25499
 C1798 C 0.06576 0.88265 0.24032
 C1799 C 0.13309 0.92835 0.18798
 C1800 C 0.15826 0.92906 0.17717
 C1801 C 0.17603 0.90898 0.18235
 C1802 C 0.16871 0.88793 0.19821
 C1803 C 0.08297 0.92961 0.21415
 C1804 C 0.06988 0.94933 0.21455
 C1805 C 0.15491 0.84555 0.23276
 C1806 C 0.17117 0.82921 0.23820
 H1807 H 0.11430 0.82585 0.25474
 H1808 H 0.06948 0.82389 0.27141
 H1809 H 0.03806 0.85977 0.26249
 H1810 H 0.05128 0.89783 0.23678
 H1811 H 0.11990 0.94437 0.18335
 H1812 H 0.16400 0.94529 0.16473
 H1813 H 0.19556 0.90963 0.17392
 H1814 H 0.18316 0.87267 0.20149
 C1815 C 0.63176 0.36303 0.72736
 C1816 C 0.63818 0.38216 0.70823
 C1817 C 0.62042 0.40306 0.70297
 C1818 C 0.59641 0.40475 0.71691
 C1819 C 0.58921 0.38464 0.73467
 C1820 C 0.60695 0.36371 0.73992
 C1821 C 0.59946 0.34399 0.75798
 C1822 C 0.57508 0.34488 0.77044
 C1823 C 0.55773 0.36534 0.76530
 C1824 C 0.56463 0.38508 0.74767
 C1825 C 0.62734 0.42211 0.68398
 C1826 C 0.65117 0.42057 0.67058
 C1827 C 0.66861 0.40022 0.67582
 C1828 C 0.66227 0.38112 0.69433
 C1829 C 0.58049 0.42836 0.71506
 C1830 C 0.56814 0.44857 0.71493
 C1831 C 0.65092 0.34308 0.73441
 C1832 C 0.66733 0.32684 0.73973
 H1833 H 0.61229 0.32765 0.76254
 H1834 H 0.56963 0.32959 0.78415
 H1835 H 0.53880 0.36593 0.77501
 H1836 H 0.55044 0.40053 0.74418
 H1837 H 0.61434 0.43825 0.67920
 H1838 H 0.65616 0.43529 0.65608
 H1839 H 0.68718 0.39926 0.66550
 H1840 H 0.67641 0.36557 0.69757
 C1841 C 0.86907 0.13345 0.23598
 C1842 C 0.86388 0.11681 0.21431
 C1843 C 0.87990 0.09437 0.20994
 C1844 C 0.90110 0.08886 0.22716
 C1845 C 0.90704 0.10623 0.24805
 C1846 C 0.89094 0.12857 0.25251
 C1847 C 0.89706 0.14549 0.27368
 C1848 C 0.91855 0.14052 0.28996
 C1849 C 0.93434 0.11868 0.28561
 C1850 C 0.92873 0.10165 0.26494
 C1851 C 0.87413 0.07780 0.18841
 C1852 C 0.85322 0.08334 0.17152
 C1853 C 0.83766 0.10538 0.17567
 C1854 C 0.84278 0.12194 0.19683
 C1855 C 0.91591 0.06466 0.22446
 C1856 C 0.92804 0.04436 0.22358
 C1857 C 0.85131 0.15496 0.24175
 C1858 C 0.83584 0.17233 0.24602
 H1859 H 0.88539 0.16277 0.27778
 H1860 H 0.92300 0.15369 0.30603
 H1861 H 0.95103 0.11491 0.29830
 H1862 H 0.94165 0.08499 0.26230
 H1863 H 0.88578 0.06050 0.18433
 H1864 H 0.84911 0.07050 0.15509
 H1865 H 0.82156 0.10968 0.16241
 H1866 H 0.83012 0.13885 0.19922
 C1867 C 0.36880 0.63668 0.73632
 C1868 C 0.36485 0.62093 0.71372
 C1869 C 0.38147 0.59897 0.70905
 C1870 C 0.40196 0.59295 0.72695
 C1871 C 0.40661 0.60940 0.74889
 C1872 C 0.38996 0.63130 0.75360
 C1873 C 0.39479 0.64726 0.77583
 C1874 C 0.41552 0.64176 0.79292
 C1875 C 0.43182 0.62035 0.78832
 C1876 C 0.42750 0.60429 0.76660
 C1877 C 0.37695 0.58334 0.68654
 C1878 C 0.35661 0.58923 0.66910
 C1879 C 0.34036 0.61069 0.67364
 C1880 C 0.34434 0.62643 0.69566
 C1881 C 0.41707 0.56892 0.72401
 C1882 C 0.42917 0.54858 0.72298
 C1883 C 0.35048 0.65773 0.74221
 C1884 C 0.33456 0.67471 0.74652
 H1885 H 0.38268 0.66416 0.78018
 H1886 H 0.41895 0.65418 0.80981
 H1887 H 0.44790 0.61617 0.80165
 H1888 H 0.44078 0.58793 0.76381
 H1889 H 0.38914 0.56649 0.68215
 H1890 H 0.35343 0.57709 0.65195
 H1891 H 0.32460 0.61517 0.66004
 H1892 H 0.33123 0.64295 0.69829
 C1893 C 0.86271 0.86656 0.77724
 C1894 C 0.88474 0.85797 0.79200
 C1895 C 0.90650 0.87505 0.79586
 C1896 C 0.90622 0.90047 0.78467
 C1897 C 0.88363 0.90952 0.77111
 C1898 C 0.86178 0.89251 0.76738
 C1899 C 0.83955 0.90185 0.75347
 C1900 C 0.83888 0.92733 0.74357
 C1901 C 0.86024 0.94398 0.74722
 C1902 C 0.88242 0.93527 0.76079
 C1903 C 0.92833 0.86605 0.81063
 C1904 C 0.92871 0.84083 0.82121
 C1905 C 0.90757 0.82402 0.81720
 C1906 C 0.88577 0.83239 0.80281
 C1907 C 0.92999 0.91625 0.78487
 C1908 C 0.95016 0.92862 0.78365
 C1909 C 0.84153 0.84835 0.77146
 C1910 C 0.82458 0.83248 0.76684
 H1911 H 0.82246 0.88962 0.75018
 H1912 H 0.82169 0.93419 0.73301
 H1913 H 0.85961 0.96377 0.73951
 H1914 H 0.89851 0.94896 0.76325
 H1915 H 0.94521 0.87846 0.81430
 H1916 H 0.94550 0.83431 0.83258
 H1917 H 0.90795 0.80446 0.82548
 H1918 H 0.86970 0.81867 0.80046
 C1919 C 0.36304 0.36339 0.27382
 C1920 C 0.38511 0.35447 0.28835
 C1921 C 0.40700 0.37137 0.29235
 C1922 C 0.40686 0.39695 0.28151
 C1923 C 0.38432 0.40625 0.26800
 C1924 C 0.36233 0.38943 0.26419
 C1925 C 0.34011 0.39910 0.25047
 C1926 C 0.33961 0.42468 0.24082
 C1927 C 0.36112 0.44111 0.24451
 C1928 C 0.38329 0.43210 0.25791
 C1929 C 0.42879 0.36206 0.30698
 C1930 C 0.42903 0.33673 0.31726
 C1931 C 0.40777 0.32010 0.31311
 C1932 C 0.38600 0.32877 0.29885
 C1933 C 0.43059 0.41283 0.28237
 C1934 C 0.45071 0.42538 0.28189
 C1935 C 0.34149 0.34549 0.26824
 C1936 C 0.32412 0.32998 0.26385
 H1937 H 0.32290 0.38704 0.24713
 H1938 H 0.32243 0.43179 0.23042
 H1939 H 0.36062 0.46097 0.23699
 H1940 H 0.39950 0.44564 0.26040
 H1941 H 0.44577 0.37431 0.31075
 H1942 H 0.44580 0.32997 0.32852
 H1943 H 0.40803 0.30045 0.32118
 H1944 H 0.36984 0.31517 0.29638
   
