data_POSCAR
  _audit_creation_date              2014-09-24
  _audit_creation_method            'ToBaCCo'
  _symmetry_space_group_name_H-M    'P1'
  _symmetry_Int_Tables_number       1
  _symmetry_cell_setting            triclinic
  loop_
  _symmetry_equiv_pos_as_xyz
 x,y,z
_cell_length_a 29.3201
_cell_length_b 29.3999
_cell_length_c 25.1517
_cell_angle_alpha 91.491300
_cell_angle_beta 88.612700
_cell_angle_gamma 89.891800
loop_
  _atom_site_label
  _atom_site_type_symbol
  _atom_site_fract_x
  _atom_site_fract_y
  _atom_site_fract_z
C1 C 0.37715 0.02018 0.31438
 C2 C 0.35206 0.06150 0.29449
 C3 C 0.32127 0.05157 0.25607
 C4 C 0.31885 0.00057 0.24088
 C5 C 0.33944 -0.01217 0.33257
 C6 C 0.30960 -0.02326 0.29393
 C7 C 0.39835 -0.00302 0.26457
 C8 C 0.36820 -0.01270 0.22608
 H9 H 0.35729 0.09531 0.31125
 H10 H 0.29416 -0.00807 0.20941
 H11 H 0.34073 -0.03118 0.36874
 H12 H 0.43465 -0.00916 0.25902
 C13 C 0.13396 -0.02379 0.78850
 C14 C 0.16798 -0.05789 0.76503
 C15 C 0.19644 -0.04102 0.72731
 C16 C 0.18785 0.00973 0.71613
 C17 C 0.16307 0.01549 0.80891
 C18 C 0.19079 0.03358 0.77132
 C19 C 0.10995 -0.00648 0.74313
 C20 C 0.13948 0.01271 0.70317
 H21 H 0.16829 -0.09326 0.77459
 H22 H 0.21230 0.02315 0.68619
 H23 H 0.15854 0.03060 0.84848
 H24 H 0.07313 -0.00680 0.74083
 C25 C 0.63816 0.47833 0.28510
 C26 C 0.66071 0.44002 0.25238
 C27 C 0.68587 0.45330 0.20958
 C28 C 0.68508 0.50527 0.20244
 C29 C 0.67661 0.51170 0.29869
 C30 C 0.70052 0.52629 0.25553
 C31 C 0.60943 0.50330 0.24517
 C32 C 0.63393 0.51779 0.20203
 H33 H 0.65918 0.40503 0.26386
 H34 H 0.70524 0.51657 0.16725
 H35 H 0.68095 0.52655 0.33812
 H36 H 0.57314 0.50923 0.25081
 C37 C 0.87132 0.51849 0.82041
 C38 C 0.84206 0.55720 0.80119
 C39 C 0.81838 0.54665 0.75671
 C40 C 0.82532 0.49748 0.73622
 C41 C 0.83780 0.47886 0.82835
 C42 C 0.81355 0.46823 0.78444
 C43 C 0.90135 0.50432 0.77242
 C44 C 0.87745 0.49299 0.72867
 H45 H 0.84132 0.59052 0.82045
 H46 H 0.80608 0.48874 0.69985
 H47 H 0.83219 0.46200 0.86568
 H48 H 0.93830 0.50353 0.77298
 C49 C 0.29365 0.45132 1.00796
 C50 C 0.28422 0.41433 1.04929
 C51 C 0.25572 0.38076 1.03234
 C52 C 0.24106 0.38605 0.97491
 C53 C 0.31217 0.42426 0.95902
 C54 C 0.28478 0.39091 0.94201
 C55 C 0.24504 0.46752 0.99324
 C56 C 0.21702 0.43251 0.97704
 H57 H 0.29576 0.41628 1.08970
 H58 H 0.22039 0.35763 0.95892
 H59 H 0.34553 0.42866 0.94071
 H60 H 0.23167 0.50054 1.00573
 C61 C 0.78335 0.06014 0.96868
 C62 C 0.76378 0.08898 0.92572
 C63 C 0.72873 0.11649 0.94268
 C64 C 0.71615 0.11160 1.00234
 C65 C 0.79621 0.09391 1.01332
 C66 C 0.76143 0.12071 1.03184
 C67 C 0.74522 0.03495 0.99076
 C68 C 0.70753 0.06304 1.00809
 H69 H 0.77768 0.08769 0.88551
 H70 H 0.68772 0.13384 1.01714
 H71 H 0.82689 0.09000 1.03605
 H72 H 0.74402 -0.00176 0.99089
 C73 C 0.29036 0.55385 0.45833
 C74 C 0.27347 0.58632 0.41725
 C75 C 0.24324 0.61819 0.43662
 C76 C 0.23301 0.61495 0.49683
 C77 C 0.30936 0.58419 0.50284
 C78 C 0.28032 0.61620 0.52315
 C79 C 0.24714 0.53345 0.48309
 C80 C 0.21710 0.56547 0.50274
 H81 H 0.28309 0.58246 0.37553
 H82 H 0.20841 0.64077 0.51315
 H83 H 0.34246 0.57837 0.51949
 H84 H 0.23965 0.49745 0.48321
 C85 C 0.80356 0.94561 0.51541
 C86 C 0.79173 0.91195 0.55980
 C87 C 0.76368 0.87728 0.54379
 C88 C 0.75190 0.87916 0.48483
 C89 C 0.82370 0.91627 0.46948
 C90 C 0.79696 0.88182 0.45430
 C91 C 0.75608 0.96132 0.49644
 C92 C 0.72848 0.92575 0.48144
 H93 H 0.80022 0.91835 0.60095
 H94 H 0.73182 0.85024 0.46902
 H95 H 0.85705 0.92163 0.45120
 H96 H 0.74237 0.99486 0.50578
 C97 C -0.00839 0.29950 0.41916
 C98 C 0.03061 0.30965 0.37912
 C99 C 0.03995 0.27509 0.34328
 C100 C 0.00954 0.23250 0.35128
 C101 C -0.04680 0.28608 0.38697
 C102 C -0.03766 0.24967 0.34878
 C103 C 0.00698 0.25561 0.44500
 C104 C 0.01718 0.22043 0.41056
 H105 H 0.04889 0.34164 0.37888
 H106 H 0.01801 0.20398 0.32299
 H107 H -0.07890 0.30427 0.38995
 H108 H 0.01235 0.25283 0.48704
 C109 C 0.01208 0.78628 0.07291
 C110 C -0.02774 0.79520 0.11219
 C111 C -0.03247 0.76337 0.14984
 C112 C 0.00266 0.72426 0.14443
 C113 C 0.05384 0.78063 0.10742
 C114 C 0.04930 0.74814 0.14499
 C115 C 0.00293 0.73868 0.04955
 C116 C -0.00190 0.70627 0.08673
 H117 H -0.04992 0.82466 0.11074
 H118 H -0.00226 0.69765 0.17449
 H119 H 0.08442 0.80059 0.10155
 H120 H -0.00270 0.73122 0.00792
 C121 C 0.51837 0.29038 0.58370
 C122 C 0.47541 0.29448 0.61978
 C123 C 0.46679 0.25687 0.64870
 C124 C 0.50153 0.21787 0.63843
 C125 C 0.55632 0.27778 0.62101
 C126 C 0.54793 0.23974 0.64924
 C127 C 0.51094 0.24770 0.54953
 C128 C 0.50207 0.20956 0.57761
 H129 H 0.45521 0.32520 0.62479
 H130 H 0.49457 0.18689 0.66157
 H131 H 0.58712 0.29774 0.62514
 H132 H 0.51409 0.24785 0.50657
 C133 C 0.48404 0.80309 0.91528
 C134 C 0.52632 0.80870 0.87819
 C135 C 0.53797 0.77021 0.84937
 C136 C 0.50614 0.72906 0.86089
 C137 C 0.44680 0.78592 0.87853
 C138 C 0.45767 0.74764 0.84911
 C139 C 0.49502 0.76520 0.94777
 C140 C 0.50805 0.72442 0.91912
 H141 H 0.54436 0.84039 0.87314
 H142 H 0.51564 0.69771 0.83758
 H143 H 0.41481 0.80396 0.87519
 H144 H 0.49295 0.76793 0.99076
 C145 C -0.22321 0.62231 0.94458
 C146 C -0.18670 0.59530 0.97237
 C147 C -0.20255 0.57381 1.01636
 C148 C -0.25361 0.58053 1.02811
 C149 C -0.26062 0.58759 0.93240
 C150 C -0.27658 0.56620 0.97604
 C151 C -0.24446 0.65409 0.98764
 C152 C -0.26044 0.63217 1.03109
 H153 H -0.15161 0.59311 0.95827
 H154 H -0.26659 0.56261 1.06375
 H155 H -0.27466 0.58171 0.89339
 H156 H -0.24589 0.69075 0.98436
 C157 C -0.26758 0.39098 0.45258
 C158 C -0.30536 0.42423 0.46850
 C159 C -0.29841 0.44760 0.51451
 C160 C -0.25303 0.43617 0.54013
 C161 C -0.22388 0.41905 0.45114
 C162 C -0.21676 0.44320 0.49628
 C163 C -0.26295 0.36143 0.49817
 C164 C -0.25296 0.38679 0.54667
 H165 H -0.33693 0.42596 0.44712
 H166 H -0.24797 0.45728 0.57666
 H167 H -0.20042 0.41961 0.41714
 H168 H -0.25976 0.32480 0.49437
 C169 C 0.23459 -0.12044 -0.04758
 C170 C 0.19165 -0.09927 -0.02274
 C171 C 0.19780 -0.07407 0.02220
 C172 C 0.24816 -0.07225 0.03861
 C173 C 0.26655 -0.08026 -0.05672
 C174 C 0.27415 -0.05525 -0.01152
 C175 C 0.25536 -0.14593 -0.00620
 C176 C 0.26298 -0.11973 0.04136
 H177 H 0.15964 -0.10025 -0.04280
 H178 H 0.25421 -0.05150 0.07533
 H179 H 0.28502 -0.07464 -0.09376
 H180 H 0.26584 -0.18117 -0.01157
 C181 C 0.27588 1.12917 0.43863
 C182 C 0.31601 1.10466 0.46188
 C183 C 0.30479 1.07799 0.50335
 C184 C 0.25341 1.07739 0.51711
 C185 C 0.24228 1.09134 0.42325
 C186 C 0.23030 1.06453 0.46445
 C187 C 0.25248 1.15474 0.48541
 C188 C 0.24056 1.12764 0.52628
 H189 H 0.35012 1.10672 0.44473
 H190 H 0.24363 1.05558 0.55089
 H191 H 0.22678 1.08793 0.38473
 H192 H 0.24619 1.19109 0.48622
 C193 C 0.18622 0.55124 0.22056
 C194 C 0.15478 0.52326 0.18412
 C195 C 0.13128 0.48956 0.20953
 C196 C 0.14145 0.48711 0.26878
 C197 C 0.15534 0.56821 0.26626
 C198 C 0.13170 0.53552 0.29149
 C199 C 0.21703 0.51569 0.24484
 C200 C 0.19359 0.48128 0.26859
 H201 H 0.15197 0.52919 0.14215
 H202 H 0.12279 0.45986 0.28983
 H203 H 0.15319 0.60377 0.27803
 H204 H 0.25326 0.51371 0.23556
 C205 C -0.18416 1.04665 0.28002
 C206 C -0.15189 1.02991 0.32140
 C207 C -0.12814 0.99165 0.30641
 C208 C -0.13925 0.97378 0.24983
 C209 C -0.15436 1.05278 0.22992
 C210 C -0.13092 1.01510 0.21343
 C211 C -0.21321 1.00817 0.26709
 C212 C -0.18870 0.96744 0.25149
 H213 H -0.14834 1.04785 0.35912
 H214 H -0.11954 0.94313 0.23656
 H215 H -0.15840 1.08132 0.20397
 H216 H -0.24990 1.00955 0.27156
 C217 C 0.31733 0.54128 -0.23197
 C218 C 0.34565 0.52368 -0.18695
 C219 C 0.37256 0.48751 -0.20092
 C220 C 0.36807 0.47134 -0.25921
 C221 C 0.35278 0.55055 -0.27607
 C222 C 0.37757 0.51388 -0.29248
 C223 C 0.29024 0.49993 -0.25209
 C224 C 0.31690 0.46308 -0.26549
 H225 H 0.34701 0.53997 -0.14804
 H226 H 0.39018 0.44179 -0.27070
 H227 H 0.35184 0.58056 -0.30014
 H228 H 0.25339 0.49962 -0.25421
 C229 C 0.69298 0.04325 -0.25980
 C230 C 0.66156 0.02159 -0.30129
 C231 C 0.63277 -0.01086 -0.28142
 C232 C 0.63761 -0.01773 -0.22145
 C233 C 0.66121 0.06103 -0.21522
 C234 C 0.63151 0.03043 -0.19589
 C235 C 0.71738 0.00297 -0.23565
 C236 C 0.68858 -0.02925 -0.21645
 H237 H 0.66278 0.03100 -0.34259
 H238 H 0.61456 -0.04378 -0.20446
 H239 H 0.66296 0.09550 -0.19931
 H240 H 0.75370 -0.00302 -0.23960
 C241 C 0.03563 0.24191 0.82983
 C242 C 0.03792 0.27907 0.87408
 C243 C -0.00080 0.28293 0.90549
 C244 C -0.03919 0.24989 0.88840
 C245 C 0.02310 0.19841 0.85943
 C246 C -0.01590 0.20211 0.89092
 C247 C -0.00490 0.25197 0.80093
 C248 C -0.04535 0.25907 0.83171
 H249 H 0.06829 0.29901 0.88124
 H250 H -0.07107 0.25345 0.91285
 H251 H 0.04501 0.16872 0.85835
 H252 H -0.00685 0.24636 0.75836
 C253 C 0.54492 0.27605 0.16799
 C254 C 0.55088 0.23494 0.12934
 C255 C 0.51573 0.22869 0.09598
 C256 C 0.47687 0.26361 0.10474
 C257 C 0.53527 0.31653 0.13269
 C258 C 0.49921 0.31059 0.09996
 C259 C 0.49927 0.26695 0.19747
 C260 C 0.46385 0.25985 0.16412
 H261 H 0.57978 0.21194 0.12936
 H262 H 0.44774 0.25817 0.07791
 H263 H 0.55394 0.34817 0.13606
 H264 H 0.49644 0.26066 0.23963
 C265 C 0.04582 0.77170 0.66175
 C266 C 0.05076 0.73181 0.62147
 C267 C 0.01492 0.72645 0.58923
 C268 C -0.02381 0.76105 0.60062
 C269 C 0.03531 0.81306 0.62870
 C270 C -0.00124 0.80803 0.59692
 C271 C 0.00109 0.76206 0.69269
 C272 C -0.03538 0.75599 0.66052
 H273 H 0.07900 0.70815 0.61971
 H274 H -0.05367 0.75651 0.57473
 H275 H 0.05566 0.84373 0.63054
 H276 H -0.00047 0.75571 0.73491
 C277 C 0.54500 0.73397 0.33836
 C278 C 0.54889 0.76995 0.38382
 C279 C 0.50909 0.77786 0.41201
 C280 C 0.46865 0.74898 0.39181
 C281 C 0.52529 0.69201 0.36497
 C282 C 0.48577 0.69931 0.39336
 C283 C 0.50654 0.75176 0.30457
 C284 C 0.46652 0.75979 0.33178
 H285 H 0.57995 0.78816 0.39254
 H286 H 0.43603 0.75525 0.41417
 H287 H 0.54329 0.65977 0.36431
 H288 H 0.51088 0.75748 0.26238
 B289 B -0.04730 0.01351 1.03266
 B290 B -0.05791 0.00333 0.96790
 B291 B -0.02435 0.04751 0.98505
 B292 B 0.00729 0.03190 1.03727
 B293 B -0.00688 -0.02313 1.05115
 B294 B -0.04807 -0.04031 1.00817
 B295 B 0.02827 -0.02245 0.95008
 B296 B 0.04008 -0.01197 1.01426
 B297 B 0.00588 -0.05552 0.99655
 B298 B -0.02578 -0.04001 0.94523
 B299 B -0.01129 0.01428 0.93124
 B300 B 0.03016 0.03152 0.97399
 B301 B 0.45385 0.51266 0.52631
 B302 B 0.44527 0.49785 0.46206
 B303 B 0.47506 0.54524 0.47752
 B304 B 0.50665 0.53526 0.53133
 B305 B 0.49603 0.48054 0.54886
 B306 B 0.45735 0.45787 0.50618
 B307 B 0.53370 0.47820 0.44900
 B308 B 0.54275 0.49325 0.51272
 B309 B 0.51280 0.44635 0.49777
 B310 B 0.48130 0.45590 0.44401
 B311 B 0.49198 0.51054 0.42598
 B312 B 0.53078 0.53346 0.46879
 B313 B 0.53033 0.96232 0.56735
 B314 B 0.55598 0.96577 0.50755
 B315 B 0.51064 0.93083 0.51532
 B316 B 0.47384 0.95591 0.55962
 B317 B 0.49598 1.00776 0.57772
 B318 B 0.54741 1.01369 0.54518
 B319 B 0.48212 1.00687 0.47079
 B320 B 0.45627 1.00338 0.53095
 B321 B 0.50067 1.03856 0.52210
 B322 B 0.53874 1.01354 0.47862
 B323 B 0.51631 0.96201 0.46043
 B324 B 0.46468 0.95633 0.49275
 B325 B 0.02087 0.45797 1.07384
 B326 B 0.04358 0.46595 1.01306
 B327 B -0.00040 0.42927 1.02084
 B328 B -0.03595 0.45051 1.06933
 B329 B -0.01413 0.50173 1.09016
 B330 B 0.03547 0.51116 1.05520
 B331 B -0.03310 0.50720 0.98492
 B332 B -0.05605 0.49909 1.04587
 B333 B -0.01316 0.53591 1.03741
 B334 B 0.02355 0.51502 0.98959
 B335 B 0.00173 0.46393 0.96864
 B336 B -0.04816 0.45469 1.00361
 B337 B 0.02467 0.53299 0.45546
 B338 B 0.04871 0.52564 0.51451
 B339 B 0.01004 0.56712 0.50768
 B340 B -0.03039 0.54818 0.46610
 B341 B -0.01653 0.49404 0.44668
 B342 B 0.03339 0.48005 0.47680
 B343 B -0.03103 0.49638 0.55436
 B344 B -0.05544 0.50460 0.49636
 B345 B -0.01685 0.46249 0.50150
 B346 B 0.02347 0.48099 0.54379
 B347 B 0.00976 0.53566 0.56325
 B348 B -0.03928 0.54962 0.53353
 B349 B 0.51649 0.03588 -0.03958
 B350 B 0.53894 0.02476 0.01943
 B351 B 0.50228 0.06826 0.01442
 B352 B 0.46182 0.05310 -0.02943
 B353 B 0.47383 -0.00061 -0.05197
 B354 B 0.52230 -0.01789 -0.02138
 B355 B 0.45699 -0.00340 0.05490
 B356 B 0.43419 0.00892 -0.00308
 B357 B 0.47109 -0.03484 0.00038
 B358 B 0.51114 -0.02018 0.04490
 B359 B 0.49923 0.03395 0.06791
 B360 B 0.45133 0.05153 0.03773
 B361 B 0.47603 0.49195 -0.04433
 B362 B 0.45275 0.51102 0.01415
 B363 B 0.48734 0.46508 0.01194
 B364 B 0.52911 0.47333 -0.03432
 B365 B 0.52038 0.52555 -0.06069
 B366 B 0.47227 0.54856 -0.03032
 B367 B 0.53580 0.53761 0.04539
 B368 B 0.55856 0.51864 -0.01270
 B369 B 0.52411 0.56479 -0.01083
 B370 B 0.48242 0.55655 0.03578
 B371 B 0.49124 0.50437 0.06175
 B372 B 0.53871 0.48166 0.03165
 B373 B -0.01677 0.98744 0.45319
 B374 B -0.03799 1.00809 0.51192
 B375 B -0.00482 0.96134 0.50928
 B376 B 0.03620 0.96739 0.46172
 B377 B 0.02807 1.01924 0.43434
 B378 B -0.01852 1.04404 0.46566
 B379 B 0.04682 1.03261 0.53995
 B380 B 0.06746 1.01231 0.48111
 B381 B 0.03420 1.05941 0.48294
 B382 B -0.00640 1.05318 0.53135
 B383 B 0.00135 1.00109 0.55827
 B384 B 0.04765 0.97620 0.52708
 B385 B 0.77542 0.21448 0.20453
 B386 B 0.76644 0.20873 0.27039
 B387 B 0.81138 0.23959 0.24920
 B388 B 0.79544 0.26774 0.19430
 B389 B 0.73947 0.25441 0.18328
 B390 B 0.72193 0.21714 0.23051
 B391 B 0.74345 0.29630 0.28089
 B392 B 0.75280 0.30320 0.21495
 B393 B 0.70844 0.27209 0.23738
 B394 B 0.72412 0.24349 0.29109
 B395 B 0.77936 0.25730 0.30235
 B396 B 0.79700 0.29491 0.25529
 B397 B 0.72569 0.78404 0.70034
 B398 B 0.73832 0.80476 0.76101
 B399 B 0.69582 0.76682 0.75428
 B400 B 0.71083 0.72862 0.70561
 B401 B 0.76351 0.74337 0.68212
 B402 B 0.78073 0.79117 0.71646
 B403 B 0.77087 0.72330 0.78622
 B404 B 0.75730 0.70206 0.72661
 B405 B 0.80003 0.73988 0.73192
 B406 B 0.78564 0.77796 0.78130
 B407 B 0.73246 0.76324 0.80516
 B408 B 0.71547 0.71579 0.77085
 B409 B 0.27655 0.27920 0.78635
 B410 B 0.26986 0.29682 0.72438
 B411 B 0.30828 0.25612 0.73630
 B412 B 0.28687 0.22300 0.78472
 B413 B 0.23405 0.24353 0.80233
 B414 B 0.22376 0.28965 0.76461
 B415 B 0.23335 0.21602 0.69763
 B416 B 0.24010 0.19857 0.75982
 B417 B 0.20158 0.23896 0.74822
 B418 B 0.22308 0.27217 0.69961
 B419 B 0.27592 0.25185 0.68192
 B420 B 0.28613 0.20550 0.71958
 B421 B 0.23179 0.72811 0.28740
 B422 B 0.24566 0.71140 0.22453
 B423 B 0.20291 0.74840 0.23642
 B424 B 0.21618 0.78330 0.28780
 B425 B 0.26908 0.76760 0.30771
 B426 B 0.28716 0.72234 0.26822
 B427 B 0.27704 0.79530 0.20503
 B428 B 0.26279 0.81195 0.26751
 B429 B 0.30596 0.77497 0.25642
 B430 B 0.29241 0.73985 0.20463
 B431 B 0.23966 0.75598 0.18479
 B432 B 0.22162 0.80102 0.22388
 B433 B 0.28123 0.71948 0.69070
 B434 B 0.26791 0.70378 0.75282
 B435 B 0.31276 0.73835 0.74228
 B436 B 0.29951 0.77399 0.69287
 B437 B 0.24528 0.76083 0.67391
 B438 B 0.22622 0.71659 0.71105
 B439 B 0.24118 0.78842 0.77813
 B440 B 0.25448 0.80489 0.71604
 B441 B 0.21029 0.76996 0.72733
 B442 B 0.22351 0.73420 0.77565
 B443 B 0.27726 0.74776 0.79491
 B444 B 0.29619 0.79211 0.75793
 B445 B 0.22509 0.28781 0.19080
 B446 B 0.23875 0.31273 0.24930
 B447 B 0.19507 0.27551 0.24634
 B448 B 0.20903 0.23346 0.20141
 B449 B 0.26205 0.24533 0.17641
 B450 B 0.28035 0.29486 0.20591
 B451 B 0.26872 0.23284 0.28247
 B452 B 0.25509 0.20763 0.22497
 B453 B 0.29834 0.24482 0.22682
 B454 B 0.28499 0.28627 0.27214
 B455 B 0.23159 0.27476 0.29747
 B456 B 0.21338 0.22538 0.26777
 B457 B 0.78429 0.77091 0.30037
 B458 B 0.76913 0.79802 0.24558
 B459 B 0.81306 0.76128 0.24302
 B460 B 0.80085 0.71746 0.28308
 B461 B 0.74823 0.72738 0.31123
 B462 B 0.72889 0.77794 0.28796
 B463 B 0.73946 0.71902 0.20352
 B464 B 0.75494 0.69171 0.25771
 B465 B 0.71083 0.72856 0.26133
 B466 B 0.72285 0.77206 0.22098
 B467 B 0.77568 0.76234 0.19270
 B468 B 0.79528 0.71220 0.21580
 B469 B 0.72375 0.22691 0.79552
 B470 B 0.74297 0.20555 0.73623
 B471 B 0.69607 0.23824 0.74052
 B472 B 0.70323 0.27974 0.78741
 B473 B 0.75608 0.27174 0.81288
 B474 B 0.78013 0.22511 0.78104
 B475 B 0.76606 0.28925 0.70655
 B476 B 0.74781 0.31059 0.76599
 B477 B 0.79466 0.27736 0.76261
 B478 B 0.78722 0.23673 0.71493
 B479 B 0.73427 0.24417 0.68994
 B480 B 0.70994 0.29057 0.72166
 N481 N 0.48124 1.04608 0.38025
 N482 N 0.45309 1.05069 0.34067
 C483 C 0.41283 1.03166 0.35412
 C484 C 0.41495 1.01604 0.40532
 C485 C 0.45886 1.02562 0.42045
 H486 H 0.38982 0.99668 0.42719
 H487 H 0.51562 1.05533 0.37874
 H488 H 0.46247 1.06365 0.30371
 N489 N -0.05209 0.56818 0.91562
 N490 N -0.07731 0.57067 0.87293
 C491 C -0.10108 0.53166 0.86749
 C492 C -0.08986 0.50315 0.90735
 C493 C -0.05967 0.52765 0.93790
 H494 H -0.10017 0.46812 0.91190
 H495 H -0.02884 0.59302 0.92768
 H496 H -0.07676 0.59784 0.84700
 N497 N 0.08650 -0.07803 0.90380
 N498 N 0.11199 -0.07952 0.85988
 C499 C 0.10442 -0.04134 0.83268
 C500 C 0.07320 -0.01470 0.86068
 C501 C 0.06310 -0.03867 0.90578
 H502 H 0.06176 0.01908 0.85105
 H503 H 0.08655 -0.10317 0.93213
 H504 H 0.13568 -0.10525 0.85114
 N505 N 0.57389 0.41910 0.38684
 N506 N 0.59905 0.41928 0.34269
 C507 C 0.61199 0.46249 0.33337
 C508 C 0.59435 0.49064 0.37341
 C509 C 0.57051 0.46195 0.40671
 H510 H 0.59572 0.52744 0.37562
 H511 H 0.55654 0.39054 0.40048
 H512 H 0.60431 0.39039 0.31843
 N513 N 0.60747 0.57729 0.08466
 N514 N 0.63435 0.56963 0.12494
 C515 C 0.61254 0.54188 0.15866
 C516 C 0.56977 0.53247 0.13987
 C517 C 0.56806 0.55422 0.09171
 H518 H 0.54630 0.50722 0.15491
 H519 H 0.61772 0.59519 0.05122
 H520 H 0.66787 0.58121 0.12755
 N521 N 0.12231 1.06574 0.57854
 N522 N 0.14889 1.05654 0.62227
 C523 C 0.12320 1.03284 0.65692
 C524 C 0.07972 1.02791 0.63663
 C525 C 0.08062 1.04745 0.58649
 H526 H 0.05270 1.00704 0.65287
 H527 H 0.13546 1.07949 0.54375
 H528 H 0.18322 1.06519 0.62493
 N529 N -0.08665 0.44264 0.60420
 N530 N -0.10961 0.44207 0.64986
 C531 C -0.09992 0.47983 0.67820
 C532 C -0.06804 0.50501 0.65058
 C533 C -0.06044 0.48023 0.60351
 H534 H -0.05429 0.53792 0.66183
 H535 H -0.09064 0.41838 0.57376
 H536 H -0.13061 0.41577 0.66185
 N537 N 0.43349 -0.06481 0.12211
 N538 N 0.40798 -0.06784 0.16585
 C539 C 0.38432 -0.02886 0.17356
 C540 C 0.39540 0.00026 0.13305
 C541 C 0.42699 -0.02357 0.10139
 H542 H 0.38663 0.03595 0.13114
 H543 H 0.45736 -0.08933 0.10912
 H544 H 0.41013 -0.09434 0.19253
 N545 N 0.38315 0.50518 0.07951
 N546 N 0.33985 0.49289 0.07777
 C547 C 0.32774 0.48737 0.02648
 C548 C 0.36474 0.50106 -0.00499
 C549 C 0.39996 0.50865 0.02953
 H550 H 0.36747 0.49936 -0.04776
 H551 H 0.40156 0.50773 0.11450
 H552 H 0.32044 0.48469 0.11149
 N553 N -0.12053 1.04081 0.51369
 N554 N -0.16271 1.02484 0.51540
 C555 C -0.16161 0.98125 0.53053
 C556 C -0.11662 0.96991 0.54041
 C557 C -0.09123 1.00761 0.52661
 H558 H -0.10411 0.93607 0.54723
 H559 H -0.11176 1.07240 0.49840
 H560 H -0.19070 1.04204 0.50066
 N561 N -0.13425 -0.02693 0.93356
 N562 N -0.17691 -0.01239 0.93552
 C563 C -0.17675 0.03252 0.94762
 C564 C -0.13234 0.04730 0.95025
 C565 C -0.10647 0.00850 0.94437
 H566 H -0.12138 0.08047 0.96372
 H567 H -0.12498 -0.06124 0.93057
 H568 H -0.20517 -0.03376 0.93275
 N569 N 0.36828 0.46148 0.43784
 N570 N 0.32571 0.47634 0.43781
 C571 C 0.32652 0.52205 0.43567
 C572 C 0.37121 0.53610 0.42988
 C573 C 0.39673 0.49753 0.43640
 H574 H 0.38260 0.57089 0.43299
 H575 H 0.37720 0.42804 0.44622
 H576 H 0.29746 0.45582 0.44561
 N577 N 0.12305 0.50965 0.56311
 N578 N 0.16659 0.52053 0.56063
 C579 C 0.17242 0.55264 0.52412
 C580 C 0.13089 0.56273 0.50207
 C581 C 0.10036 0.53407 0.52744
 H582 H 0.12466 0.58478 0.46922
 H583 H 0.10976 0.48438 0.58741
 H584 H 0.19206 0.50469 0.58188
 N585 N 0.61565 -0.00853 0.04628
 N586 N 0.66181 0.00145 0.04162
 C587 C 0.66574 0.04409 0.02392
 C588 C 0.62227 0.06241 0.01745
 C589 C 0.59184 0.02780 0.03049
 H590 H 0.61396 0.09456 -0.00003
 H591 H 0.60289 -0.04047 0.05600
 H592 H 0.68793 -0.02130 0.04985
 N593 N 0.61203 0.89992 0.51123
 N594 N 0.65467 0.88940 0.50128
 C595 C 0.67779 0.92650 0.48598
 C596 C 0.64683 0.96266 0.48410
 C597 C 0.60491 0.94353 0.49942
 H598 H 0.65388 0.99774 0.47498
 H599 H 0.58968 0.87751 0.52962
 H600 H 0.66694 0.85711 0.50792
 N601 N 0.10202 0.40182 1.00957
 N602 N 0.14500 0.39338 0.99888
 C603 C 0.16639 0.43179 0.98445
 C604 C 0.13389 0.46678 0.98476
 C605 C 0.09289 0.44554 1.00006
 H606 H 0.13943 0.50244 0.97729
 H607 H 0.08091 0.37796 1.02743
 H608 H 0.15881 0.36154 1.00485
 N609 N -0.02006 0.37900 0.53304
 N610 N -0.01712 0.33737 0.51210
 C611 C -0.01868 0.33923 0.45850
 C612 C -0.02454 0.38460 0.44562
 C613 C -0.02501 0.40902 0.49405
 H614 H -0.02367 0.39832 0.40610
 H615 H -0.01547 0.38674 0.57331
 H616 H -0.01215 0.30886 0.53502
 N617 N 0.42758 -0.11331 0.00438
 N618 N 0.43164 -0.15441 -0.01823
 C619 C 0.46854 -0.15549 -0.05150
 C620 C 0.48861 -0.11319 -0.04964
 C621 C 0.46189 -0.08712 -0.01379
 H622 H 0.51856 -0.10240 -0.07176
 H623 H 0.40138 -0.10356 0.03116
 H624 H 0.40931 -0.18132 -0.01120
 N625 N 0.01181 -0.13873 0.96133
 N626 N 0.01294 -0.17994 0.98085
 C627 C 0.01730 -0.17600 1.03399
 C628 C 0.02007 -0.13040 1.04844
 C629 C 0.01624 -0.10774 1.00135
 H630 H 0.02053 -0.11576 1.08836
 H631 H 0.00575 -0.13215 0.92150
 H632 H 0.00853 -0.20956 0.95788
 N633 N 0.57067 0.37963 0.50659
 N634 N 0.57158 0.33959 0.52927
 C635 C 0.53001 0.33119 0.55103
 C636 C 0.50136 0.36680 0.54037
 C637 C 0.52832 0.39705 0.51244
 H638 H 0.46605 0.37115 0.55289
 H639 H 0.59897 0.39513 0.48904
 H640 H 0.60061 0.31909 0.53101
 N641 N 0.48350 1.11833 0.48404
 N642 N 0.48302 1.16150 0.49901
 C643 C 0.49510 1.16519 0.55011
 C644 C 0.50304 1.12180 0.56881
 C645 C 0.49544 1.09269 0.52518
 H646 H 0.51431 1.11276 0.60781
 H647 H 0.47545 1.10771 0.44586
 H648 H 0.47447 1.18782 0.47398
 N649 N -0.05945 0.61068 1.03054
 N650 N -0.05695 0.65401 1.04484
 C651 C -0.01842 0.66076 1.07172
 C652 C 0.00504 0.61990 1.07429
 C653 C -0.02213 0.58877 1.04705
 H654 H 0.03788 0.61402 1.09165
 H655 H -0.08644 0.59675 1.00954
 H656 H -0.08097 0.67864 1.03544
 N657 N 0.54571 0.64687 0.01656
 N658 N 0.53861 0.69030 -0.00221
 C659 C 0.52472 0.68673 -0.05295
 C660 C 0.52462 0.64062 -0.06807
 C661 C 0.53672 0.61651 -0.02271
 H662 H 0.51109 0.62619 -0.10442
 H663 H 0.54939 0.64019 0.05673
 H664 H 0.54253 0.71984 0.02111
 N665 N 0.07095 1.14012 0.49430
 N666 N 0.06704 1.18096 0.47409
 C667 C 0.03980 1.17899 0.43152
 C668 C 0.02704 1.13384 0.42374
 C669 C 0.04734 1.10993 0.46487
 H670 H 0.00176 1.12119 0.39645
 H671 H 0.08591 1.13444 0.53061
 H672 H 0.08017 1.21044 0.49198
 N673 N 0.83217 0.69659 0.85163
 N674 N 0.83366 0.66941 0.89267
 C675 C 0.79330 0.64769 0.89719
 C676 C 0.76513 0.66206 0.85817
 C677 C 0.79066 0.69293 0.83021
 H678 H 0.72939 0.65411 0.85363
 H679 H 0.85826 0.71875 0.84037
 H680 H 0.86087 0.66782 0.91858
 N681 N 0.32650 0.21344 0.35445
 N682 N 0.32794 0.18612 0.39523
 C683 C 0.29017 0.15992 0.39522
 C684 C 0.26351 0.17141 0.35375
 C685 C 0.28755 0.20522 0.32881
 H686 H 0.22987 0.15879 0.34464
 H687 H 0.35085 0.23823 0.34582
 H688 H 0.35347 0.18680 0.42347
 N689 N 0.72991 0.37888 0.31220
 N690 N 0.72470 0.40223 0.35699
 C691 C 0.72421 0.37331 0.39759
 C692 C 0.72628 0.32929 0.37748
 C693 C 0.72974 0.33445 0.32259
 H694 H 0.73028 0.29841 0.39942
 H695 H 0.73858 0.39394 0.27673
 H696 H 0.72666 0.43770 0.35988
 N697 N 0.18510 0.80404 0.85557
 N698 N 0.18568 0.82470 0.90251
 C699 C 0.22278 0.85146 0.90448
 C700 C 0.24707 0.84744 0.85696
 C701 C 0.22190 0.81718 0.82662
 H702 H 0.28052 0.86100 0.84773
 H703 H 0.16140 0.77902 0.84531
 H704 H 0.16173 0.81923 0.93309
 N705 N 0.32791 0.81009 0.12297
 N706 N 0.32137 0.83188 0.07530
 C707 C 0.28731 0.86224 0.08304
 C708 C 0.27169 0.86080 0.13548
 C709 C 0.29649 0.82611 0.15878
 H710 H 0.24041 0.87617 0.15116
 H711 H 0.34792 0.78091 0.12621
 H712 H 0.33698 0.82216 0.03902
 N713 N 0.80049 0.36236 0.66889
 N714 N 0.79036 0.39091 0.62755
 C715 C 0.76521 0.36741 0.59222
 C716 C 0.75903 0.32349 0.61029
 C717 C 0.78014 0.32219 0.65979
 H718 H 0.73681 0.29794 0.59323
 H719 H 0.81674 0.37286 0.70338
 H720 H 0.80042 0.42483 0.62613
 N721 N 0.17832 0.19525 0.62153
 N722 N 0.18085 0.17192 0.57596
 C723 C 0.21887 0.14624 0.57505
 C724 C 0.24147 0.15344 0.62182
 C725 C 0.21509 0.18538 0.65028
 H726 H 0.27566 0.14223 0.63030
 H727 H 0.15414 0.22056 0.63000
 H728 H 0.15910 0.17662 0.54429
 N729 N 0.68896 0.71369 0.12101
 N730 N 0.68986 0.69114 0.07489
 C731 C 0.71980 0.65660 0.07750
 C732 C 0.73830 0.65677 0.12726
 C733 C 0.71878 0.69418 0.15353
 H734 H 0.76704 0.63692 0.13949
 H735 H 0.67124 0.74418 0.12815
 H736 H 0.67282 0.70132 0.04118
 N737 N 0.21022 0.65568 0.15579
 N738 N 0.19550 0.61327 0.15360
 C739 C 0.21054 0.59124 0.19617
 C740 C 0.23715 0.62120 0.22561
 C741 C 0.23456 0.66230 0.20014
 H742 H 0.25023 0.61516 0.26440
 H743 H 0.19985 0.68066 0.12985
 H744 H 0.17156 0.60167 0.12642
 N745 N 0.78090 0.12659 0.72417
 N746 N 0.76829 0.08350 0.72387
 C747 C 0.72252 0.08156 0.72022
 C748 C 0.70601 0.12548 0.71533
 C749 C 0.74358 0.15314 0.72100
 H750 H 0.67059 0.13562 0.71714
 H751 H 0.81413 0.13753 0.73129
 H752 H 0.79061 0.05679 0.73093
 N753 N 0.73652 0.13690 0.31650
 N754 N 0.74881 0.09366 0.31734
 C755 C 0.79215 0.08998 0.29860
 C756 C 0.80855 0.13291 0.28834
 C757 C 0.77183 0.16152 0.29749
 H758 H 0.84041 0.14080 0.26844
 H759 H 0.70319 0.14843 0.32389
 H760 H 0.72668 0.06726 0.32721
 N761 N 0.27385 0.64526 0.82662
 N762 N 0.28430 0.60191 0.83102
 C763 C 0.28904 0.58294 0.78176
 C764 C 0.27823 0.61523 0.74494
 C765 C 0.27153 0.65465 0.77464
 H766 H 0.28079 0.61177 0.70211
 H767 H 0.27091 0.66833 0.85882
 H768 H 0.29055 0.58696 0.86729
 N769 N 0.25068 0.37229 0.67992
 N770 N 0.26150 0.41572 0.68461
 C771 C 0.29840 0.41955 0.71500
 C772 C 0.31217 0.37666 0.72973
 C773 C 0.28022 0.34741 0.70769
 H774 H 0.33875 0.36860 0.75704
 H775 H 0.22158 0.36051 0.66083
 H776 H 0.24279 0.44224 0.66884
 N777 N 0.73246 0.87640 0.23381
 N778 N 0.74363 0.92226 0.23637
 C779 C 0.78895 0.92558 0.24306
 C780 C 0.80761 0.88166 0.24432
 C781 C 0.77082 0.85180 0.23937
 H782 H 0.84258 0.87251 0.25185
 H783 H 0.69915 0.86420 0.23100
 H784 H 0.71992 0.94850 0.23329
 N785 N 0.75809 0.87699 0.81609
 N786 N 0.74399 0.91931 0.82362
 C787 C 0.70630 0.92552 0.79532
 C788 C 0.69600 0.88528 0.76811
 C789 C 0.73016 0.85535 0.78194
 H790 H 0.66979 0.87973 0.73908
 H791 H 0.78744 0.86388 0.83282
 H792 H 0.76133 0.94411 0.84564
 N793 N 0.27100 0.38932 0.28383
 N794 N 0.25907 0.43237 0.29037
 C795 C 0.21558 0.43698 0.27583
 C796 C 0.19896 0.39477 0.25913
 C797 C 0.23551 0.36534 0.26442
 H798 H 0.16614 0.38716 0.24228
 H799 H 0.30363 0.37710 0.29131
 H800 H 0.28096 0.45826 0.30299
 N801 N 0.11989 0.25855 0.72304
 N802 N 0.07874 0.26162 0.74482
 C803 C 0.07762 0.24046 0.79194
 C804 C 0.12157 0.22388 0.80044
 C805 C 0.14745 0.23588 0.75521
 H806 H 0.13383 0.20881 0.83621
 H807 H 0.12952 0.27586 0.68885
 H808 H 0.05311 0.28127 0.72866
 N809 N 0.63176 0.68978 0.24450
 N810 N 0.58946 0.69266 0.26401
 C811 C 0.58807 0.72232 0.30592
 C812 C 0.63181 0.73844 0.31357
 C813 C 0.65868 0.71719 0.27376
 H814 H 0.64278 0.76302 0.34329
 H815 H 0.64159 0.66965 0.21137
 H816 H 0.56186 0.67473 0.24852
 N817 N 0.62737 0.29804 0.27143
 N818 N 0.58516 0.29803 0.25378
 C819 C 0.58605 0.28368 0.20240
 C820 C 0.63094 0.27520 0.18671
 C821 C 0.65614 0.28412 0.23161
 H822 H 0.64344 0.26224 0.14841
 H823 H 0.63592 0.30598 0.31065
 H824 H 0.55640 0.30695 0.27705
 N825 N 0.13373 0.81423 0.74787
 N826 N 0.09096 0.81243 0.73247
 C827 C 0.08750 0.77970 0.69443
 C828 C 0.13020 0.76047 0.68502
 C829 C 0.15856 0.78294 0.71969
 H830 H 0.14039 0.73431 0.65617
 H831 H 0.14511 0.83661 0.77717
 H832 H 0.06494 0.83401 0.74701
 N833 N 0.85869 0.69756 0.67019
 N834 N 0.90048 0.70278 0.65108
 C835 C 0.92080 0.73637 0.67862
 C836 C 0.89044 0.75298 0.71814
 C837 C 0.85079 0.72728 0.71141
 H838 H 0.89457 0.78293 0.74346
 H839 H 0.83485 0.67687 0.65128
 H840 H 0.91372 0.68540 0.61736
 N841 N 0.35881 0.19987 0.17078
 N842 N 0.40129 0.20478 0.15379
 C843 C 0.42019 0.23951 0.18097
 C844 C 0.38835 0.25717 0.21785
 C845 C 0.34928 0.23107 0.20992
 H846 H 0.39122 0.28814 0.24172
 H847 H 0.33575 0.17825 0.15185
 H848 H 0.41598 0.18650 0.12155
 N849 N 0.38743 0.80947 0.24226
 N850 N 0.42856 0.80503 0.26207
 C851 C 0.42612 0.77788 0.30451
 C852 C 0.38116 0.76479 0.31207
 C853 C 0.35757 0.78502 0.27118
 H854 H 0.36806 0.74087 0.34062
 H855 H 0.38056 0.82774 0.20839
 H856 H 0.45802 0.81951 0.24567
 N857 N 0.87606 0.30472 0.73979
 N858 N 0.91962 0.29725 0.75840
 C859 C 0.91622 0.27754 0.80637
 C860 C 0.87008 0.27431 0.82032
 C861 C 0.84586 0.29034 0.77660
 H862 H 0.85591 0.25652 0.85402
 H863 H 0.86948 0.31267 0.70056
 H864 H 0.94930 0.30472 0.73660
 N865 N 0.53559 0.93312 0.66323
 N866 N 0.56202 0.94303 0.70386
 C867 C 0.60044 0.96290 0.68540
 C868 C 0.59909 0.96341 0.63066
 C869 C 0.55663 0.94600 0.61779
 H870 H 0.62242 0.98113 0.60450
 H871 H 0.50166 0.92274 0.66740
 H872 H 0.55161 0.94034 0.74364
 N873 N 0.03192 0.42985 1.16892
 N874 N 0.06120 0.44141 1.20616
 C875 C 0.09881 0.45878 1.18261
 C876 C 0.09424 0.45522 1.12839
 C877 C 0.05023 0.43944 1.12075
 H878 H 0.11605 0.47138 1.09930
 H879 H -0.00222 0.42193 1.17704
 H880 H 0.05295 0.44270 1.24679
 N881 N -0.12892 0.00416 1.07214
 N882 N -0.14795 -0.00126 1.11954
 C883 C -0.11820 0.01148 1.15661
 C884 C -0.07892 0.02762 1.13154
 C885 C -0.08646 0.02154 1.07717
 H886 H -0.04784 0.03859 1.15030
 H887 H -0.14374 -0.00824 1.03760
 H888 H -0.18067 -0.01426 1.12625
 N889 N 0.37351 0.50228 0.56688
 N890 N 0.35676 0.49626 0.61519
 C891 C 0.38732 0.51115 0.65033
 C892 C 0.42407 0.52973 0.62341
 C893 C 0.41502 0.52190 0.56980
 H894 H 0.45524 0.54237 0.64056
 H895 H 0.35807 0.48903 0.53323
 H896 H 0.32517 0.48142 0.62362
 N897 N 0.44033 0.42934 -0.10744
 N898 N 0.41507 0.42869 -0.15056
 C899 C 0.40692 0.47196 -0.16394
 C900 C 0.42837 0.50086 -0.12894
 C901 C 0.44826 0.47307 -0.09293
 H902 H 0.42736 0.53770 -0.12815
 H903 H 0.45101 0.40042 -0.08793
 H904 H 0.40205 0.39936 -0.16884
 N905 N -0.03226 0.94006 0.36680
 N906 N -0.06126 0.94228 0.32737
 C907 C -0.09508 0.97127 0.34224
 C908 C -0.08788 0.98661 0.39369
 C909 C -0.04734 0.96726 0.40764
 H910 H -0.10620 1.01306 0.41562
 H911 H -0.00084 0.92329 0.36383
 H912 H -0.05569 0.92717 0.28975
 N913 N 0.05305 0.58962 0.38468
 N914 N 0.08038 0.58967 0.34229
 C915 C 0.09859 0.54775 0.33459
 C916 C 0.08193 0.51984 0.37375
 C917 C 0.05328 0.54782 0.40509
 H918 H 0.08991 0.48432 0.37912
 H919 H 0.03456 0.61791 0.39859
 H920 H 0.08557 0.61808 0.31888
 N921 N 0.55415 0.09122 -0.10665
 N922 N 0.58341 0.08901 -0.14732
 C923 C 0.59655 0.04530 -0.15592
 C924 C 0.57439 0.01863 -0.11947
 C925 C 0.54795 0.04908 -0.08842
 H926 H 0.57806 -0.01771 -0.11516
 H927 H 0.53931 0.12131 -0.09198
 H928 H 0.59380 0.11734 -0.16864
 N929 N 0.63815 0.48365 -0.00155
 N930 N 0.68114 0.49648 -0.00319
 C931 C 0.68331 0.53731 -0.02547
 C932 C 0.64004 0.55134 -0.03890
 C933 C 0.61197 0.51673 -0.02168
 H934 H 0.63005 0.58441 -0.05262
 H935 H 0.62700 0.45394 0.01651
 H936 H 0.70797 0.47865 0.01330
 N937 N 0.14832 0.97916 0.49045
 N938 N 0.19097 0.99306 0.48671
 C939 C 0.19184 1.03293 0.46195
 C940 C 0.14776 1.04482 0.44871
 C941 C 0.12078 1.01044 0.46913
 H942 H 0.13655 1.07720 0.43419
 H943 H 0.13821 0.95050 0.51135
 H944 H 0.21843 0.97712 0.50435
 N945 N 0.11939 0.01606 1.04643
 N946 N 0.16108 -0.00072 1.05079
 C947 C 0.15935 -0.04622 1.04393
 C948 C 0.11422 -0.05858 1.03689
 C949 C 0.09001 -0.01830 1.03658
 H950 H 0.10247 -0.09192 1.02491
 H951 H 0.11205 0.05081 1.04542
 H952 H 0.19058 0.01908 1.05199
 N953 N 0.59951 0.46957 0.58441
 N954 N 0.64341 0.45937 0.58557
 C955 C 0.66378 0.47312 0.54024
 C956 C 0.63183 0.49530 0.51069
 C957 C 0.59114 0.49018 0.53836
 H958 H 0.63614 0.50533 0.46985
 H959 H 0.57518 0.45786 0.61178
 H960 H 0.65745 0.43755 0.61297
 N961 N -0.13759 0.53227 0.51583
 N962 N -0.17888 0.51508 0.52011
 C963 C -0.17714 0.47215 0.50124
 C964 C -0.13321 0.46117 0.48398
 C965 C -0.10878 0.50014 0.49468
 H966 H -0.12061 0.42868 0.46862
 H967 H -0.12944 0.56513 0.52915
 H968 H -0.20753 0.53265 0.53530
 N969 N 0.35128 0.03410 0.01901
 N970 N 0.30991 0.01666 0.01875
 C971 C 0.31167 -0.02279 -0.00905
 C972 C 0.35597 -0.03103 -0.02743
 C973 C 0.38053 0.00544 -0.00764
 H974 H 0.36892 -0.06133 -0.04793
 H975 H 0.35940 0.06395 0.04007
 H976 H 0.28154 0.03078 0.03902
 N977 N 0.37216 0.99274 0.56247
 N978 N 0.33227 1.01230 0.55492
 C979 C 0.33973 1.05151 0.52983
 C980 C 0.38616 1.05772 0.52285
 C981 C 0.40563 1.01933 0.54253
 H982 H 0.40314 1.08402 0.50089
 H983 H 0.37592 0.96020 0.57753
 H984 H 0.30075 0.99716 0.56302
 N985 N -0.11555 0.54499 1.10321
 N986 N -0.15553 0.56425 1.09546
 C987 C -0.17209 0.54775 1.04942
 C988 C -0.14219 0.51558 1.02823
 C989 C -0.10572 0.51613 1.06195
 H990 H -0.14401 0.49951 0.98938
 H991 H -0.09339 0.55536 1.13306
 H992 H -0.16816 0.59215 1.11774
 N993 N -0.00941 0.64922 0.48182
 N994 N -0.01082 0.68999 0.50498
 C995 C 0.01321 0.68885 0.54957
 C996 C 0.03142 0.64549 0.55457
 C997 C 0.01585 0.62083 0.51092
 H998 H 0.04857 0.63233 0.58858
 H999 H -0.02904 0.64036 0.44905
 H1000 H -0.02978 0.71732 0.49155
 N1001 N 0.49136 0.15188 -0.01182
 N1002 N 0.49298 0.19295 0.01038
 C1003 C 0.51384 0.19037 0.05706
 C1004 C 0.52663 0.14536 0.06469
 C1005 C 0.51137 0.12161 0.01994
 H1006 H 0.54021 0.13123 0.10034
 H1007 H 0.47344 0.14458 -0.04638
 H1008 H 0.47804 0.22181 -0.00527
 N1009 N -0.05697 0.13169 0.99895
 N1010 N -0.05532 0.17080 0.97352
 C1011 C -0.03011 0.16526 0.92809
 C1012 C -0.01580 0.12033 0.92476
 C1013 C -0.03345 0.09973 0.97022
 H1014 H 0.00567 0.10472 0.89377
 H1015 H -0.07377 0.12715 1.03552
 H1016 H -0.07027 0.20102 0.98804
 N1017 N 0.44859 0.62878 0.50025
 N1018 N 0.45087 0.66896 0.47750
 C1019 C 0.46584 0.66298 0.42668
 C1020 C 0.47199 0.61678 0.41672
 C1021 C 0.46131 0.59606 0.46437
 H1022 H 0.48748 0.60088 0.38141
 H1023 H 0.44247 0.62432 0.54083
 H1024 H 0.44646 0.70005 0.49799
 N1025 N 0.47823 0.84874 0.52679
 N1026 N 0.47588 0.81039 0.49810
 C1027 C 0.50512 0.81256 0.45613
 C1028 C 0.52700 0.85434 0.45855
 C1029 C 0.50894 0.87683 0.50400
 H1030 H 0.54965 0.86826 0.42852
 H1031 H 0.45674 0.85663 0.55947
 H1032 H 0.45334 0.78391 0.50634
 N1033 N -0.02912 0.34553 1.02724
 N1034 N -0.03141 0.30895 0.99554
 C1035 C -0.00453 0.31500 0.95213
 C1036 C 0.01589 0.35734 0.95684
 C1037 C -0.00072 0.37616 1.00506
 H1038 H 0.03662 0.37394 0.92692
 H1039 H -0.04913 0.35049 1.06183
 H1040 H -0.05223 0.28098 1.00303
 N1041 N 0.43490 0.39321 0.02781
 N1042 N 0.43865 0.35319 0.05075
 C1043 C 0.48204 0.34763 0.06630
 C1044 C 0.50668 0.38533 0.05167
 C1045 C 0.47586 0.41398 0.02781
 H1046 H 0.54212 0.39204 0.05991
 H1047 H 0.40440 0.40660 0.01433
 H1048 H 0.41133 0.33125 0.05785
 N1049 N -0.04032 0.88008 0.49378
 N1050 N -0.03889 0.84017 0.51710
 C1051 C -0.01683 0.84529 0.56326
 C1052 C -0.00502 0.89047 0.57001
 C1053 C -0.01972 0.91152 0.52498
 H1054 H 0.01479 0.90560 0.60160
 H1055 H -0.05339 0.88489 0.45612
 H1056 H -0.05042 0.80969 0.50001
 N1057 N 0.19604 0.29002 0.09639
 N1058 N 0.21031 0.31134 0.05358
 C1059 C 0.23244 0.34934 0.06889
 C1060 C 0.23131 0.35264 0.12378
 C1061 C 0.20968 0.31329 0.14016
 H1062 H 0.24979 0.37666 0.14840
 H1063 H 0.18255 0.25716 0.09520
 H1064 H 0.20753 0.29810 0.01488
 N1065 N 0.69662 0.79067 0.60695
 N1066 N 0.71385 0.81075 0.56475
 C1067 C 0.73786 0.84749 0.58052
 C1068 C 0.73549 0.85074 0.63550
 C1069 C 0.71095 0.81250 0.65131
 H1070 H 0.75529 0.87330 0.66055
 H1071 H 0.68119 0.75868 0.60507
 H1072 H 0.71188 0.79694 0.52624
 N1073 N 0.33899 0.67810 0.62643
 N1074 N 0.33807 0.65316 0.58202
 C1075 C 0.29427 0.64531 0.56896
 C1076 C 0.26617 0.66614 0.60697
 C1077 C 0.29586 0.68646 0.64302
 H1078 H 0.22925 0.66673 0.60815
 H1079 H 0.36871 0.68994 0.64412
 H1080 H 0.36723 0.64255 0.56067
 N1081 N 0.76061 0.13146 0.17324
 N1082 N 0.75132 0.11008 0.12813
 C1083 C 0.76362 0.13648 0.08771
 C1084 C 0.78362 0.17589 0.10805
 C1085 C 0.78020 0.17220 0.16337
 H1086 H 0.79476 0.20505 0.08583
 H1087 H 0.74860 0.11988 0.20965
 H1088 H 0.73553 0.07831 0.12531
 N1089 N 0.67729 0.21207 0.88239
 N1090 N 0.67952 0.18323 0.92176
 C1091 C 0.70829 0.14927 0.90675
 C1092 C 0.72358 0.15629 0.85518
 C1093 C 0.70424 0.19677 0.84146
 H1094 H 0.75001 0.13804 0.83284
 H1095 H 0.66057 0.24347 0.88540
 H1096 H 0.66438 0.18892 0.95933
 N1097 N 0.17937 0.70193 0.36695
 N1098 N 0.18408 0.67492 0.40800
 C1099 C 0.22302 0.65096 0.40053
 C1100 C 0.24326 0.66304 0.35330
 C1101 C 0.21494 0.69514 0.33248
 H1102 H 0.27690 0.65299 0.33873
 H1103 H 0.15362 0.72629 0.36420
 H1104 H 0.16164 0.67394 0.44082
 N1105 N 0.83485 0.78255 0.38317
 N1106 N 0.83894 0.81282 0.42253
 C1107 C 0.81080 0.84790 0.41391
 C1108 C 0.78797 0.83989 0.36768
 C1109 C 0.80442 0.79832 0.34874
 H1110 H 0.76027 0.85979 0.35254
 H1111 H 0.85015 0.75045 0.38230
 H1112 H 0.85796 0.80787 0.45650
 N1113 N 0.33881 0.31519 0.84635
 N1114 N 0.34044 0.34475 0.88673
 C1115 C 0.29776 0.35947 0.89830
 C1116 C 0.26788 0.33875 0.86432
 C1117 C 0.29507 0.31103 0.83172
 H1118 H 0.23123 0.34312 0.86356
 H1119 H 0.36721 0.29816 0.82992
 H1120 H 0.37008 0.35345 0.90680
 N1121 N 0.72262 0.39335 0.75171
 N1122 N 0.74080 0.43431 0.75483
 C1123 C 0.77892 0.43218 0.78324
 C1124 C 0.78487 0.38801 0.79991
 C1125 C 0.74918 0.36386 0.77736
 H1126 H 0.81468 0.37435 0.81841
 H1127 H 0.69479 0.38525 0.72812
 H1128 H 0.72884 0.46244 0.73477
 N1129 N 0.25150 0.87773 0.33658
 N1130 N 0.26129 0.92137 0.34209
 C1131 C 0.28389 0.93446 0.29791
 C1132 C 0.28956 0.89762 0.26338
 C1133 C 0.26856 0.86211 0.28926
 H1134 H 0.30934 0.89653 0.22661
 H1135 H 0.23414 0.85893 0.36532
 H1136 H 0.25406 0.94126 0.37629
 N1137 N 0.22782 0.86505 0.64945
 N1138 N 0.21572 0.90844 0.65114
 C1139 C 0.22731 0.92713 0.69836
 C1140 C 0.25028 0.89433 0.72620
 C1141 C 0.24758 0.85493 0.69553
 H1142 H 0.25859 0.89666 0.76773
 H1143 H 0.21817 0.84192 0.61959
 H1144 H 0.19367 0.92280 0.62416
 N1145 N 0.78025 0.38268 0.18350
 N1146 N 0.76171 0.42362 0.17992
 C1147 C 0.71593 0.41961 0.18085
 C1148 C 0.70572 0.37343 0.18062
 C1149 C 0.74689 0.35117 0.18673
 H1150 H 0.67216 0.35975 0.18757
 H1151 H 0.81473 0.37733 0.19085
 H1152 H 0.77978 0.45387 0.18565
 N1153 N 0.78674 0.61043 0.24033
 N1154 N 0.77258 0.56786 0.23870
 C1155 C 0.72959 0.56676 0.25801
 C1156 C 0.71539 0.61066 0.27205
 C1157 C 0.75264 0.63774 0.25956
 H1158 H 0.68174 0.62137 0.28575
 H1159 H 0.81875 0.62060 0.22596
 H1160 H 0.79163 0.54039 0.22300
 N1161 N 0.23663 0.13513 0.82802
 N1162 N 0.22664 0.09151 0.83008
 C1163 C 0.21264 0.07732 0.78186
 C1164 C 0.21326 0.11324 0.74791
 C1165 C 0.22859 0.14952 0.77868
 H1166 H 0.20180 0.11290 0.70752
 H1167 H 0.24876 0.15452 0.86006
 H1168 H 0.22863 0.07224 0.86425
 N1169 N 0.23487 0.12257 0.20169
 N1170 N 0.25231 0.08183 0.21043
 C1171 C 0.29338 0.08738 0.23262
 C1172 C 0.30254 0.13311 0.23698
 C1173 C 0.26475 0.15468 0.21764
 H1174 H 0.33169 0.14878 0.25540
 H1175 H 0.20216 0.12812 0.18764
 H1176 H 0.23513 0.05117 0.20408
 N1177 N 0.73517 0.61851 0.69999
 N1178 N 0.75147 0.57730 0.70856
 C1179 C 0.79321 0.58181 0.72914
 C1180 C 0.80423 0.62709 0.73216
 C1181 C 0.76655 0.64973 0.71449
 H1182 H 0.83387 0.64171 0.75074
 H1183 H 0.70186 0.62507 0.68849
 H1184 H 0.73276 0.54726 0.70466
 N1185 N 0.89790 0.75809 0.26784
 N1186 N 0.93769 0.75516 0.24229
 C1187 C 0.93197 0.76714 0.19183
 C1188 C 0.88669 0.77884 0.18504
 C1189 C 0.86565 0.77184 0.23418
 H1190 H 0.87043 0.78567 0.14788
 H1191 H 0.89258 0.74650 0.30625
 H1192 H 0.96765 0.74309 0.25866
 N1193 N 0.39077 0.23401 0.75817
 N1194 N 0.43106 0.23177 0.73370
 C1195 C 0.42930 0.25530 0.68875
 C1196 C 0.38594 0.27387 0.68473
 C1197 C 0.36207 0.25902 0.72940
 H1198 H 0.37239 0.29143 0.65125
 H1199 H 0.38245 0.21599 0.79229
 H1200 H 0.45866 0.21302 0.74689
 N1201 N 0.38202 0.68411 0.76328
 N1202 N 0.41922 0.68683 0.79245
 C1203 C 0.42627 0.73067 0.80691
 C1204 C 0.39268 0.75663 0.78419
 C1205 C 0.36437 0.72619 0.75766
 H1206 H 0.38670 0.79265 0.79099
 H1207 H 0.36734 0.65352 0.75072
 H1208 H 0.43723 0.65872 0.80554
 N1209 N 0.89577 0.20494 0.23925
 N1210 N 0.93642 0.20760 0.26787
 C1211 C 0.92925 0.23557 0.31087
 C1212 C 0.88408 0.25018 0.31031
 C1213 C 0.86381 0.23048 0.26544
 H1214 H 0.86743 0.27299 0.33907
 H1215 H 0.89162 0.18632 0.20378
 H1216 H 0.96695 0.19171 0.25587
 N1217 N 0.10938 0.27211 0.22329
 N1218 N 0.06986 0.26827 0.24934
 C1219 C 0.07578 0.27907 0.30096
 C1220 C 0.12125 0.29066 0.30787
 C1221 C 0.14199 0.28507 0.25757
 H1222 H 0.13783 0.29701 0.34531
 H1223 H 0.11451 0.26242 0.18333
 H1224 H 0.03972 0.25683 0.23224
 N1225 N 0.61002 0.76104 0.73157
 N1226 N 0.57014 0.75816 0.75707
 C1227 C 0.57546 0.77008 0.80848
 C1228 C 0.62105 0.78141 0.81583
 C1229 C 0.64234 0.77465 0.76591
 H1230 H 0.63713 0.78953 0.85316
 H1231 H 0.61538 0.75104 0.69175
 H1232 H 0.53995 0.74733 0.73958
 N1233 N 0.61287 0.21086 0.76120
 N1234 N 0.57368 0.21085 0.73608
 C1235 C 0.58198 0.22196 0.68518
 C1236 C 0.62817 0.22764 0.67729
 C1237 C 0.64669 0.22160 0.72645
 H1238 H 0.64520 0.24068 0.64219
 H1239 H 0.61556 0.20722 0.80214
 H1240 H 0.54173 0.20770 0.75481
 N1241 N 0.12569 0.70365 0.24154
 N1242 N 0.08612 0.70368 0.21714
 C1243 C 0.08634 0.73749 0.18183
 C1244 C 0.12769 0.75975 0.18437
 C1245 C 0.15178 0.73744 0.22243
 H1246 H 0.13954 0.78784 0.16085
 H1247 H 0.13468 0.68045 0.27013
 H1248 H 0.06004 0.68035 0.22425
   
