data_POSCAR
  _audit_creation_date              2014-09-24
  _audit_creation_method            'ToBaCCo'
  _symmetry_space_group_name_H-M    'P1'
  _symmetry_Int_Tables_number       1
  _symmetry_cell_setting            triclinic
  loop_
  _symmetry_equiv_pos_as_xyz
 x,y,z
_cell_length_a 40.9200
_cell_length_b 39.6924
_cell_length_c 51.6026
_cell_angle_alpha 89.750700
_cell_angle_beta 90.122000
_cell_angle_gamma 89.952700
loop_
  _atom_site_label
  _atom_site_type_symbol
  _atom_site_fract_x
  _atom_site_fract_y
  _atom_site_fract_z
B1 B 0.26043 0.24024 0.27921
 B2 B 0.22163 0.23580 0.26892
 B3 B 0.23738 0.27455 0.27234
 B4 B 0.27705 0.27384 0.26362
 B5 B 0.28563 0.23370 0.25430
 B6 B 0.25110 0.20981 0.25772
 B7 B 0.23869 0.25885 0.22159
 B8 B 0.27739 0.26349 0.23188
 B9 B 0.26168 0.22457 0.22854
 B10 B 0.22202 0.22539 0.23722
 B11 B 0.21344 0.26552 0.24646
 B12 B 0.24789 0.28940 0.24311
 B13 B 0.74277 0.77134 0.22538
 B14 B 0.72651 0.73275 0.22997
 B15 B 0.76617 0.73693 0.22159
 B16 B 0.78158 0.77140 0.23659
 B17 B 0.75093 0.78814 0.25462
 B18 B 0.71654 0.76434 0.25014
 B19 B 0.76311 0.72444 0.27285
 B20 B 0.77925 0.76295 0.26870
 B21 B 0.73960 0.75919 0.27682
 B22 B 0.72420 0.72473 0.26190
 B23 B 0.75516 0.70790 0.24392
 B24 B 0.78929 0.73200 0.24805
 B25 B 0.74061 0.22969 -0.22342
 B26 B 0.72400 0.26794 -0.22905
 B27 B 0.76368 0.26441 -0.22042
 B28 B 0.77941 0.22940 -0.23449
 B29 B 0.74890 0.21165 -0.25217
 B30 B 0.71433 0.23541 -0.24843
 B31 B 0.76060 0.27459 -0.27198
 B32 B 0.77699 0.23637 -0.26681
 B33 B 0.73733 0.23955 -0.27511
 B34 B 0.72167 0.27456 -0.26118
 B35 B 0.75246 0.29244 -0.24353
 B36 B 0.78679 0.26835 -0.24690
 B37 B 0.26162 0.76142 -0.27945
 B38 B 0.22278 0.76579 -0.26938
 B39 B 0.23876 0.72707 -0.27245
 B40 B 0.27842 0.72810 -0.26354
 B41 B 0.28673 0.76839 -0.25446
 B42 B 0.25204 0.79207 -0.25823
 B43 B 0.23988 0.74341 -0.22179
 B44 B 0.27863 0.73884 -0.23187
 B45 B 0.26266 0.77775 -0.22888
 B46 B 0.22302 0.77661 -0.23775
 B47 B 0.21473 0.73631 -0.24674
 B48 B 0.24931 0.71263 -0.24306
 B49 B 1.24376 1.27164 0.72420
 B50 B 1.22637 1.23364 0.72902
 B51 B 1.26642 1.23659 0.72152
 B52 B 1.28212 1.27103 0.73634
 B53 B 1.25122 1.28906 0.75338
 B54 B 1.21644 1.26605 0.74843
 B55 B 1.26115 1.22553 0.77287
 B56 B 1.27841 1.26351 0.76852
 B57 B 1.23837 1.26098 0.77575
 B58 B 1.22268 1.22656 0.76098
 B59 B 1.25385 1.20847 0.74401
 B60 B 1.28844 1.23177 0.74859
 B61 B 0.76013 0.74249 0.77955
 B62 B 0.72128 0.73713 0.76957
 B63 B 0.73667 0.77620 0.77182
 B64 B 0.77624 0.77552 0.76290
 B65 B 0.78525 0.73512 0.75469
 B66 B 0.75098 0.71099 0.75902
 B67 B 0.73775 0.75795 0.72152
 B68 B 0.77649 0.76366 0.73146
 B69 B 0.76122 0.72431 0.72934
 B70 B 0.72165 0.72511 0.73823
 B71 B 0.71261 0.76559 0.74634
 B72 B 0.74676 0.78969 0.74208
 B73 B 1.23767 0.73927 0.22568
 B74 B 1.27743 0.73662 0.23394
 B75 B 1.26014 0.77471 0.22980
 B76 B 1.22124 0.77319 0.24060
 B77 B 1.21474 0.73331 0.25230
 B78 B 1.24982 0.71061 0.24788
 B79 B 1.26346 0.76214 0.28107
 B80 B 1.22371 0.76518 0.27254
 B81 B 1.24118 0.72709 0.27715
 B82 B 1.27994 0.72821 0.26606
 B83 B 1.28651 0.76781 0.25470
 B84 B 1.25163 0.79089 0.25874
 B85 B 0.76163 1.26206 0.22084
 B86 B 0.72243 1.26530 0.23035
 B87 B 0.73950 1.22704 0.22745
 B88 B 0.77890 1.22919 0.23696
 B89 B 0.78596 1.26969 0.24625
 B90 B 0.75071 1.29234 0.24195
 B91 B 0.73902 1.24333 0.27818
 B92 B 0.77815 1.23986 0.26865
 B93 B 0.76100 1.27833 0.27148
 B94 B 0.72167 1.27605 0.26198
 B95 B 0.71465 1.23559 0.25283
 B96 B 0.74977 1.21290 0.25702
 O97 O 0.47592 1.05742 0.03168
 O98 O 0.51988 0.94369 0.03222
 O99 O 0.44264 0.98520 0.03435
 O100 O 0.55426 1.01631 0.03337
 O101 O 0.46453 0.93808 0.02358
 O102 O 0.53159 1.06324 0.02230
 O103 O 0.56242 0.96070 0.01420
 O104 O 0.43350 1.04009 0.01377
 C105 C 0.44603 1.05459 0.03235
 C106 C 0.54978 0.94644 0.03296
 C107 C 0.44713 0.95488 0.03897
 C108 C 0.54955 1.04667 0.03766
 O109 O 0.51695 1.05844 -0.03094
 O110 O 0.47793 0.94288 -0.03014
 O111 O 0.44128 1.01277 -0.03202
 O112 O 0.55414 0.98691 -0.03240
 O113 O 0.53377 0.93919 -0.02107
 O114 O 0.46116 1.06115 -0.02191
 O115 O 0.56029 1.04266 -0.01323
 O116 O 0.43511 0.95755 -0.01160
 Co117 Co 0.49651 1.05473 0.00036
 Co118 Co 0.49890 0.94626 0.00107
 Co119 Co 0.44432 0.99904 0.00111
 Co120 Co 0.55163 1.00148 0.00051
 O121 O 0.49790 1.00038 0.00077
 C122 C 0.54689 1.05629 -0.03198
 C123 C 0.44790 0.94410 -0.03050
 C124 C 0.44411 1.04323 -0.03690
 C125 C 0.55029 0.95650 -0.03680
 O126 O 0.96575 0.55851 0.52650
 O127 O 1.03066 0.43565 0.52178
 O128 O 0.93292 0.45805 0.51073
 O129 O 1.06332 0.53820 0.51433
 O130 O 0.97471 0.44003 0.52911
 O131 O 1.02116 0.55296 0.53359
 O132 O 1.05394 0.48202 0.53369
 O133 O 0.94222 0.51091 0.53456
 C134 C 0.94813 0.54041 0.54104
 C135 C 1.04825 0.45164 0.53773
 C136 C 0.94473 0.44191 0.52886
 C137 C 1.05114 0.55179 0.53339
 O138 O 1.03336 0.56036 0.47979
 O139 O 0.96282 0.44082 0.47485
 O140 O 0.93501 0.54313 0.49078
 O141 O 1.06139 0.45664 0.48749
 O142 O 1.01889 0.44347 0.46784
 O143 O 0.97741 0.55821 0.47204
 O144 O 1.05461 0.51306 0.46802
 O145 O 0.94152 0.48968 0.46691
 Co146 Co 0.99928 0.55250 0.50276
 Co147 Co 0.99688 0.44507 0.49860
 Co148 Co 0.94426 0.50030 0.50074
 Co149 Co 1.05190 0.49766 0.50087
 O150 O 0.99810 0.49888 0.50075
 C151 C 1.05014 0.54359 0.46388
 C152 C 0.94572 0.45982 0.46046
 C153 C 0.94739 0.55800 0.47233
 C154 C 1.04890 0.44386 0.46818
 O155 O 1.02153 0.46127 0.04997
 O156 O 1.02195 0.54236 -0.05085
 O157 O 1.02715 0.43904 -0.02899
 O158 O 1.02836 0.56445 0.02812
 O159 O 1.04308 0.48583 -0.04525
 O160 O 1.04365 0.51736 0.04435
 O161 O 1.04256 0.55916 -0.01579
 O162 O 1.04170 0.44404 0.01494
 C163 C 1.04353 0.44546 0.03874
 C164 C 1.04422 0.55781 -0.03959
 C165 C 1.04755 0.45521 -0.04211
 C166 C 1.04860 0.54788 0.04118
 O167 O 0.98316 0.54221 0.04993
 O168 O 0.98215 0.46219 -0.05078
 O169 O 0.97638 0.43915 0.02821
 O170 O 0.97732 0.56536 -0.02904
 O171 O 0.96078 0.51887 -0.04513
 O172 O 0.96078 0.48598 0.04431
 O173 O 0.96296 0.55960 0.01479
 O174 O 0.96192 0.44516 -0.01563
 Co175 Co 1.00225 0.50174 0.04217
 Co176 Co 1.00198 0.50228 -0.04303
 Co177 Co 1.00183 0.44758 -0.00038
 Co178 Co 1.00275 0.55641 -0.00047
 O179 O 1.00225 0.50200 -0.00043
 C180 C 0.96146 0.55852 0.03859
 C181 C 0.96028 0.44626 -0.03942
 C182 C 0.95587 0.45547 0.04103
 C183 C 0.95640 0.54946 -0.04178
 O184 O 0.52173 0.95935 0.55019
 O185 O 0.52168 1.04012 0.44883
 O186 O 0.52802 0.93705 0.47136
 O187 O 0.52861 1.06248 0.52772
 O188 O 0.54351 0.98375 0.45467
 O189 O 0.54390 1.01545 0.54419
 O190 O 0.54227 1.05742 0.48375
 O191 O 0.54239 0.94274 0.51523
 C192 C 0.54382 0.94356 0.53905
 C193 C 0.54385 1.05586 0.45996
 C194 C 0.54827 0.95323 0.45810
 C195 C 0.54881 1.04598 0.54092
 O196 O 0.48362 1.04036 0.54989
 O197 O 0.48284 0.95943 0.44928
 O198 O 0.47684 0.93728 0.52830
 O199 O 0.47682 1.06276 0.47085
 O200 O 0.46092 1.01603 0.45460
 O201 O 0.46107 0.98415 0.54421
 O202 O 0.46294 1.05734 0.51485
 O203 O 0.46268 0.94280 0.48455
 Co204 Co 0.50254 0.99982 0.54211
 Co205 Co 0.50225 0.99983 0.45683
 Co206 Co 0.50251 0.94565 0.49983
 Co207 Co 0.50263 1.05432 0.49933
 O208 O 0.50252 0.99991 0.49951
 C209 C 0.46174 1.05651 0.53866
 C210 C 0.46105 0.94354 0.46076
 C211 C 0.45618 0.95364 0.54094
 C212 C 0.45616 1.04656 0.45802
 O213 O 1.05603 1.03924 0.48132
 O214 O 0.94529 1.04248 0.51773
 O215 O 0.98737 1.04366 0.45494
 O216 O 1.01472 1.04446 0.54349
 O217 O 0.94113 1.03272 0.47355
 O218 O 1.06039 1.03075 0.52528
 O219 O 0.96116 1.01742 0.55069
 O220 O 1.03987 1.01349 0.44913
 C221 C 1.05298 1.03888 0.45767
 C222 C 0.94827 1.04267 0.54144
 C223 C 0.95842 1.05156 0.45920
 C224 C 1.04381 1.05110 0.53879
 O225 O 1.05505 0.95924 0.51701
 O226 O 0.94281 0.96160 0.48348
 O227 O 1.01061 0.95627 0.45596
 O228 O 0.98730 0.95844 0.54529
 O229 O 0.94088 0.97179 0.52778
 O230 O 1.05773 0.96749 0.47289
 O231 O 1.04148 0.98573 0.54959
 O232 O 0.95808 0.98627 0.45033
 Co233 Co 1.05246 0.99930 0.49919
 Co234 Co 0.94747 1.00200 0.50055
 Co235 Co 0.99913 0.99998 0.45731
 Co236 Co 1.00109 1.00144 0.54250
 O237 O 1.00004 1.00067 0.49990
 C238 C 1.05289 0.95965 0.54071
 C239 C 0.94491 0.96135 0.45972
 C240 C 1.03963 0.94820 0.45963
 C241 C 0.95785 0.95206 0.54170
 O242 O 0.55606 0.53978 -0.01769
 O243 O 0.44517 0.54276 0.01823
 O244 O 0.48744 0.54426 -0.04443
 O245 O 0.51452 0.54434 0.04419
 O246 O 0.44113 0.53302 -0.02610
 O247 O 0.56028 0.53061 0.02622
 O248 O 0.46092 0.51749 0.05116
 O249 O 0.54004 0.51451 -0.05019
 C250 C 0.55313 0.53976 -0.04135
 C251 C 0.44799 0.54277 0.04196
 C252 C 0.45843 0.55196 -0.04032
 C253 C 0.54364 0.55093 0.03967
 O254 O 0.55487 0.45933 0.01732
 O255 O 0.44272 0.46207 -0.01632
 O256 O 0.51094 0.45698 -0.04374
 O257 O 0.48695 0.45841 0.04547
 O258 O 0.44061 0.47210 0.02804
 O259 O 0.55795 0.46829 -0.02672
 O260 O 0.54112 0.48535 0.05011
 O261 O 0.45837 0.48668 -0.04945
 Co262 Co 0.55243 0.49962 -0.00016
 Co263 Co 0.44738 0.50235 0.00090
 Co264 Co 0.49932 0.50063 -0.04220
 Co265 Co 0.50083 0.50137 0.04296
 O266 O 0.50000 0.50097 0.00038
 C267 C 0.55253 0.45938 0.04102
 C268 C 0.44498 0.46184 -0.04008
 C269 C 0.54001 0.44908 -0.04015
 C270 C 0.45749 0.45222 0.04188
 C271 C 0.30494 1.15625 0.17057
 C272 C 0.32252 1.16596 0.19260
 C273 C 0.30826 1.18629 0.21121
 C274 C 0.27588 1.19792 0.20835
 C275 C 0.25767 1.18702 0.18682
 C276 C 0.27217 1.16656 0.16797
 C277 C 0.32208 1.13755 0.14986
 C278 C 0.31800 1.14685 0.12376
 C279 C 0.33777 1.13267 0.10465
 C280 C 0.36208 1.10914 0.11132
 C281 C 0.36537 1.09892 0.13722
 C282 C 0.34540 1.11279 0.15628
 C283 C 0.38400 1.09536 0.09128
 C284 C 0.41800 1.09381 0.09531
 C285 C 0.43858 1.08101 0.07607
 C286 C 0.42532 1.06921 0.05273
 C287 C 0.39131 1.07068 0.04887
 C288 C 0.37091 1.08378 0.06787
 H289 H 0.34796 1.15905 0.19500
 H290 H 0.32347 1.19375 0.22734
 H291 H 0.23264 1.19502 0.18415
 H292 H 0.25794 1.15914 0.15123
 H293 H 0.30060 1.16618 0.11827
 H294 H 0.33486 1.14099 0.08476
 H295 H 0.38349 1.08029 0.14272
 H296 H 0.34869 1.10467 0.17618
 H297 H 0.42862 1.10287 0.11321
 H298 H 0.46468 1.08002 0.07951
 H299 H 0.38037 1.06172 0.03106
 H300 H 0.34480 1.08444 0.06442
 C301 C 0.80807 0.65426 0.67460
 C302 C 0.82079 0.65897 0.69950
 C303 C 0.80489 0.67958 0.71705
 C304 C 0.77558 0.69616 0.71032
 C305 C 0.76091 0.68838 0.68638
 C306 C 0.77728 0.66794 0.66847
 C307 C 0.82845 0.63715 0.65498
 C308 C 0.81524 0.61329 0.63794
 C309 C 0.83545 0.59669 0.62023
 C310 C 0.86911 0.60390 0.61921
 C311 C 0.88209 0.62804 0.63610
 C312 C 0.86200 0.64456 0.65366
 C313 C 0.89072 0.58690 0.60034
 C314 C 0.91486 0.60534 0.58713
 C315 C 0.93464 0.58978 0.56875
 C316 C 0.93061 0.55548 0.56309
 C317 C 0.90718 0.53674 0.57687
 C318 C 0.88738 0.55233 0.59530
 H319 H 0.84380 0.64756 0.70515
 H320 H 0.81658 0.68315 0.73565
 H321 H 0.73790 0.69958 0.68083
 H322 H 0.76668 0.66423 0.64945
 H323 H 0.78948 0.60712 0.63860
 H324 H 0.82472 0.57850 0.60716
 H325 H 0.90792 0.63395 0.63593
 H326 H 0.87277 0.66330 0.66625
 H327 H 0.91781 0.63209 0.59042
 H328 H 0.95236 0.60491 0.55836
 H329 H 0.90350 0.51023 0.57290
 H330 H 0.86936 0.53740 0.60552
 C331 C 0.69724 0.83418 0.16441
 C332 C 0.71238 0.80366 0.15779
 C333 C 0.72911 0.78477 0.17651
 C334 C 0.73096 0.79585 0.20237
 C335 C 0.71776 0.82768 0.20836
 C336 C 0.70110 0.84652 0.18965
 C337 C 0.67562 0.85187 0.14564
 C338 C 0.64549 0.86521 0.15375
 C339 C 0.62449 0.88089 0.13603
 C340 C 0.63320 0.88365 0.10980
 C341 C 0.66333 0.87027 0.10169
 C342 C 0.68428 0.85452 0.11940
 C343 C 0.61121 0.90066 0.09094
 C344 C 0.62432 0.92218 0.07199
 C345 C 0.60412 0.93734 0.05356
 C346 C 0.57026 0.93142 0.05360
 C347 C 0.55687 0.91058 0.07289
 C348 C 0.57720 0.89531 0.09142
 H349 H 0.70956 0.79330 0.13854
 H350 H 0.73786 0.76022 0.17098
 H351 H 0.71868 0.83749 0.22788
 H352 H 0.69032 0.87036 0.19517
 H353 H 0.63788 0.86304 0.17377
 H354 H 0.60158 0.89117 0.14289
 H355 H 0.67055 0.87165 0.08154
 H356 H 0.70735 0.84456 0.11259
 H357 H 0.65029 0.92737 0.07144
 H358 H 0.61513 0.95359 0.03911
 H359 H 0.53085 0.90563 0.07337
 H360 H 0.56643 0.87869 0.10573
 C361 C 1.20102 0.33329 0.66159
 C362 C 1.20759 0.34767 0.68579
 C363 C 1.22357 0.32900 0.70500
 C364 C 1.23359 0.29557 0.70035
 C365 C 1.22988 0.28269 0.67512
 C366 C 1.21331 0.30114 0.65609
 C367 C 1.17838 0.35021 0.64335
 C368 C 1.15082 0.33293 0.63418
 C369 C 1.12794 0.34926 0.61841
 C370 C 1.13239 0.38314 0.61106
 C371 C 1.16034 0.40023 0.62009
 C372 C 1.18290 0.38402 0.63629
 C373 C 1.10835 0.40034 0.59371
 C374 C 1.10210 0.43508 0.59606
 C375 C 1.08146 0.45161 0.57850
 C376 C 1.06611 0.43367 0.55850
 C377 C 1.07100 0.39874 0.55687
 C378 C 1.09209 0.38232 0.57410
 H379 H 1.19838 0.37251 0.69043
 H380 H 1.22617 0.34023 0.72396
 H381 H 1.23674 0.25714 0.67056
 H382 H 1.20868 0.28966 0.63744
 H383 H 1.14651 0.30699 0.63984
 H384 H 1.10648 0.33542 0.61238
 H385 H 1.16505 0.42605 0.61443
 H386 H 1.20402 0.39780 0.64318
 H387 H 1.11343 0.44968 0.61129
 H388 H 1.07802 0.47857 0.58026
 H389 H 1.05979 0.38432 0.54145
 H390 H 1.09657 0.35571 0.57134
 C391 C 0.69512 1.16923 -0.16138
 C392 C 0.70049 1.15532 -0.18593
 C393 C 0.71723 1.17351 -0.20489
 C394 C 0.72908 1.20615 -0.19980
 C395 C 0.72597 1.21879 -0.17446
 C396 C 0.70896 1.20065 -0.15555
 C397 C 0.67313 1.15210 -0.14273
 C398 C 0.64919 1.17053 -0.12937
 C399 C 0.62732 1.15423 -0.11276
 C400 C 0.62907 1.11920 -0.10907
 C401 C 0.65298 1.10078 -0.12248
 C402 C 0.67473 1.11704 -0.13917
 C403 C 0.60708 1.10206 -0.09041
 C404 C 0.61987 1.07792 -0.07324
 C405 C 0.59995 1.06277 -0.05473
 C406 C 0.56669 1.07122 -0.05296
 C407 C 0.55351 1.09471 -0.07052
 C408 C 0.57363 1.11019 -0.08902
 H409 H 0.69005 1.13117 -0.19102
 H410 H 0.71906 1.16255 -0.22400
 H411 H 0.73397 1.24387 -0.16963
 H412 H 0.70552 1.21179 -0.13663
 H413 H 0.64704 1.19752 -0.13209
 H414 H 0.60938 1.16909 -0.10246
 H415 H 0.65475 1.07371 -0.12015
 H416 H 0.69294 1.10222 -0.14920
 H417 H 0.64557 1.07140 -0.07364
 H418 H 0.61078 1.04463 -0.04154
 H419 H 0.52793 1.10163 -0.06957
 H420 H 0.56309 1.12851 -0.10222
 C421 C 1.19940 0.66135 0.33786
 C422 C 1.21010 0.69400 0.34408
 C423 C 1.22605 0.71393 0.32564
 C424 C 1.23080 0.70215 0.30024
 C425 C 1.22251 0.66849 0.29478
 C426 C 1.20727 0.64834 0.31338
 C427 C 1.17793 0.64207 0.35589
 C428 C 1.15266 0.62160 0.34610
 C429 C 1.13118 0.60502 0.36283
 C430 C 1.13402 0.60905 0.38969
 C431 C 1.15926 0.62918 0.39962
 C432 C 1.18117 0.64529 0.38292
 C433 C 1.11051 0.59258 0.40738
 C434 C 1.09479 0.61139 0.42665
 C435 C 1.07368 0.59568 0.44415
 C436 C 1.06841 0.56074 0.44301
 C437 C 1.08350 0.54206 0.42328
 C438 C 1.10415 0.55792 0.40545
 H439 H 1.20437 0.70512 0.36264
 H440 H 1.23182 0.73959 0.33080
 H441 H 1.22631 0.65792 0.27574
 H442 H 1.20060 0.62286 0.30818
 H443 H 1.14877 0.61910 0.32545
 H444 H 1.11171 0.58981 0.35476
 H445 H 1.16214 0.63225 0.42035
 H446 H 1.20059 0.66029 0.39123
 H447 H 1.09908 0.63822 0.42827
 H448 H 1.06254 0.61068 0.45923
 H449 H 1.07992 0.51507 0.42200
 H450 H 1.11605 0.54295 0.39072
 C451 C 0.30631 0.84560 -0.17061
 C452 C 0.27374 0.83480 -0.16778
 C453 C 0.25895 0.81481 -0.18684
 C454 C 0.27669 0.80480 -0.20882
 C455 C 0.30868 0.81728 -0.21205
 C456 C 0.32323 0.83717 -0.19323
 C457 C 0.32396 0.86331 -0.14956
 C458 C 0.34700 0.88850 -0.15547
 C459 C 0.36719 0.90167 -0.13619
 C460 C 0.36447 0.89029 -0.11053
 C461 C 0.34056 0.86616 -0.10436
 C462 C 0.32056 0.85271 -0.12370
 C463 C 0.38635 0.90366 -0.09018
 C464 C 0.37331 0.91362 -0.06633
 C465 C 0.39358 0.92646 -0.04707
 C466 C 0.42744 0.92935 -0.05109
 C467 C 0.44070 0.91914 -0.07485
 C468 C 0.42023 0.90656 -0.09434
 H469 H 0.25995 0.84131 -0.15063
 H470 H 0.23418 0.80625 -0.18389
 H471 H 0.32346 0.81071 -0.22861
 H472 H 0.34846 0.84459 -0.19592
 H473 H 0.34982 0.89760 -0.17515
 H474 H 0.38496 0.92077 -0.14132
 H475 H 0.33808 0.85689 -0.08469
 H476 H 0.30345 0.83299 -0.11859
 H477 H 0.34729 0.91197 -0.06274
 H478 H 0.38262 0.93421 -0.02896
 H479 H 0.46669 0.92125 -0.07843
 H480 H 0.43086 0.89878 -0.11256
 C481 C 0.79985 0.35090 0.32856
 C482 C 0.81565 0.34567 0.30490
 C483 C 0.80263 0.32377 0.28669
 C484 C 0.77322 0.30636 0.29152
 C485 C 0.75622 0.31334 0.31457
 C486 C 0.76973 0.33497 0.33316
 C487 C 0.81663 0.37077 0.34880
 C488 C 0.82058 0.35743 0.37384
 C489 C 0.84140 0.37311 0.39158
 C490 C 0.85846 0.40254 0.38465
 C491 C 0.85311 0.41683 0.36007
 C492 C 0.83247 0.40105 0.34230
 C493 C 0.88255 0.41761 0.40269
 C494 C 0.88403 0.45266 0.40612
 C495 C 0.90579 0.46660 0.42400
 C496 C 0.92660 0.44575 0.43874
 C497 C 0.92610 0.41083 0.43447
 C498 C 0.90424 0.39690 0.41668
 H499 H 0.83902 0.35739 0.30091
 H500 H 0.81646 0.32000 0.26911
 H501 H 0.73326 0.30116 0.31875
 H502 H 0.75694 0.33888 0.35125
 H503 H 0.80890 0.33396 0.37924
 H504 H 0.84464 0.36189 0.41058
 H505 H 0.86595 0.43944 0.35418
 H506 H 0.82969 0.41189 0.32312
 H507 H 0.86759 0.46921 0.39561
 H508 H 0.90554 0.49362 0.42690
 H509 H 0.94183 0.39412 0.44551
 H510 H 0.90411 0.36986 0.41400
 C511 C 1.19317 0.30452 0.15190
 C512 C 1.18174 0.27344 0.16146
 C513 C 1.19772 0.25724 0.18218
 C514 C 1.22558 0.27168 0.19377
 C515 C 1.23772 0.30192 0.18309
 C516 C 1.22214 0.31770 0.16228
 C517 C 1.17347 0.32507 0.13327
 C518 C 1.17072 0.36008 0.13686
 C519 C 1.15131 0.37971 0.12043
 C520 C 1.13387 0.36496 0.09995
 C521 C 1.13696 0.33003 0.09595
 C522 C 1.15645 0.31026 0.11253
 C523 C 1.11149 0.38596 0.08374
 C524 C 1.10948 0.38177 0.05672
 C525 C 1.08808 0.40167 0.04183
 C526 C 1.06806 0.42589 0.05374
 C527 C 1.07033 0.43019 0.08069
 C528 C 1.09174 0.41053 0.09547
 H529 H 1.15930 0.26269 0.15405
 H530 H 1.18696 0.23454 0.19010
 H531 H 1.25817 0.31492 0.19172
 H532 H 1.23202 0.34127 0.15513
 H533 H 1.18295 0.37235 0.15287
 H534 H 1.14978 0.40655 0.12389
 H535 H 1.12363 0.31788 0.08045
 H536 H 1.15814 0.28341 0.10915
 H537 H 1.12458 0.36326 0.04709
 H538 H 1.08679 0.39771 0.02111
 H539 H 1.05520 0.44856 0.09047
 H540 H 1.09232 0.41413 0.11625
 C541 C 0.68973 0.79732 0.65069
 C542 C 0.71824 0.81249 0.66025
 C543 C 0.73485 0.79865 0.68145
 C544 C 0.72388 0.76876 0.69348
 C545 C 0.69627 0.75264 0.68291
 C546 C 0.67949 0.76668 0.66178
 C547 C 0.66893 0.81544 0.63141
 C548 C 0.63494 0.81724 0.63503
 C549 C 0.61556 0.83748 0.61895
 C550 C 0.62961 0.85637 0.59874
 C551 C 0.66340 0.85356 0.59439
 C552 C 0.68289 0.83346 0.61064
 C553 C 0.60907 0.87992 0.58315
 C554 C 0.61202 0.88198 0.55603
 C555 C 0.59139 0.90323 0.54157
 C556 C 0.56766 0.92304 0.55401
 C557 C 0.56554 0.92173 0.58118
 C558 C 0.58589 0.90040 0.59553
 H559 H 0.72649 0.83641 0.65250
 H560 H 0.75506 0.81282 0.68936
 H561 H 0.68650 0.73003 0.69175
 H562 H 0.65772 0.75420 0.65472
 H563 H 0.62342 0.80407 0.65100
 H564 H 0.58953 0.83876 0.62257
 H565 H 0.67492 0.86786 0.57900
 H566 H 0.70898 0.83243 0.60726
 H567 H 0.62965 0.86648 0.54596
 H568 H 0.59361 0.90370 0.52067
 H569 H 0.54766 0.93677 0.59139
 H570 H 0.58345 0.89989 0.61642
 C571 C 1.19421 0.69811 -0.15223
 C572 C 1.18257 0.72900 -0.16209
 C573 C 1.19861 0.74512 -0.18274
 C574 C 1.22674 0.73084 -0.19396
 C575 C 1.23910 0.70084 -0.18295
 C576 C 1.22343 0.68510 -0.16223
 C577 C 1.17449 0.67759 -0.13369
 C578 C 1.17193 0.64254 -0.13719
 C579 C 1.15246 0.62295 -0.12085
 C580 C 1.13480 0.63776 -0.10056
 C581 C 1.13771 0.67272 -0.09667
 C582 C 1.15722 0.69247 -0.11315
 C583 C 1.11243 0.61680 -0.08443
 C584 C 1.11033 0.62113 -0.05743
 C585 C 1.08889 0.60135 -0.04260
 C586 C 1.06887 0.57712 -0.05454
 C587 C 1.07124 0.57266 -0.08146
 C588 C 1.09274 0.59218 -0.09619
 H589 H 1.15995 0.73962 -0.15497
 H590 H 1.18770 0.76764 -0.19091
 H591 H 1.25979 0.68795 -0.19129
 H592 H 1.23343 0.66168 -0.15485
 H593 H 1.18437 0.63024 -0.15304
 H594 H 1.15106 0.59608 -0.12424
 H595 H 1.12420 0.68493 -0.08132
 H596 H 1.15875 0.71934 -0.10986
 H597 H 1.12540 0.63967 -0.04778
 H598 H 1.08752 0.60544 -0.02190
 H599 H 1.05613 0.55427 -0.09126
 H600 H 1.09341 0.58847 -0.11696
 C601 C 0.69283 1.19700 0.34715
 C602 C 0.72274 1.18487 0.33775
 C603 C 0.73854 1.20100 0.31724
 C604 C 0.72546 1.23038 0.30577
 C605 C 0.69643 1.24365 0.31629
 C606 C 0.68040 1.22725 0.33679
 C607 C 0.67336 1.17625 0.36568
 C608 C 0.65543 1.19106 0.38589
 C609 C 0.63607 1.17116 0.40235
 C610 C 0.63395 1.13609 0.39876
 C611 C 0.65225 1.12133 0.37880
 C612 C 0.67164 1.14110 0.36250
 C613 C 0.61177 1.11496 0.41492
 C614 C 0.59252 1.08987 0.40328
 C615 C 0.57107 1.07034 0.41806
 C616 C 0.56838 1.07523 0.44492
 C617 C 0.58800 1.09988 0.45674
 C618 C 0.60935 1.11969 0.44186
 H619 H 0.73327 1.16189 0.34549
 H620 H 0.75995 1.18884 0.30940
 H621 H 0.68498 1.26565 0.30775
 H622 H 0.65723 1.23714 0.34342
 H623 H 0.65632 1.21801 0.38892
 H624 H 0.62206 1.18331 0.41744
 H625 H 0.65143 1.09439 0.37566
 H626 H 0.68466 1.12885 0.34691
 H627 H 0.59348 1.08584 0.38255
 H628 H 0.55627 1.05160 0.40836
 H629 H 0.58639 1.10430 0.47739
 H630 H 0.62408 1.13859 0.45142
 C631 C 0.81492 0.69850 0.15101
 C632 C 0.81929 0.73214 0.15864
 C633 C 0.80269 0.74490 0.18022
 C634 C 0.78158 0.72417 0.19479
 C635 C 0.77709 0.69068 0.18669
 C636 C 0.79314 0.67818 0.16497
 C637 C 0.83524 0.68320 0.13038
 C638 C 0.82132 0.66119 0.11215
 C639 C 0.84118 0.64275 0.09530
 C640 C 0.87534 0.64564 0.09666
 C641 C 0.88915 0.66877 0.11408
 C642 C 0.86929 0.68752 0.13066
 C643 C 0.89666 0.62289 0.08147
 C644 C 0.92232 0.60571 0.09390
 C645 C 0.94265 0.58413 0.08001
 C646 C 0.93809 0.57952 0.05326
 C647 C 0.91220 0.59641 0.04080
 C648 C 0.89146 0.61770 0.05485
 H649 H 0.83603 0.74835 0.14820
 H650 H 0.80705 0.77076 0.18582
 H651 H 0.76244 0.67329 0.19774
 H652 H 0.78989 0.65192 0.15995
 H653 H 0.79510 0.65752 0.11149
 H654 H 0.82995 0.62504 0.08210
 H655 H 0.91542 0.67168 0.11532
 H656 H 0.88069 0.70404 0.14466
 H657 H 0.92652 0.60882 0.11448
 H658 H 0.96238 0.57152 0.09018
 H659 H 0.90813 0.59332 0.02020
 H660 H 0.87179 0.63063 0.04486
 C661 C 0.31569 1.19629 0.65173
 C662 C 0.29495 1.17588 0.66658
 C663 C 0.27890 1.18885 0.68815
 C664 C 0.28231 1.22290 0.69516
 C665 C 0.30253 1.24361 0.67981
 C666 C 0.31916 1.23039 0.65840
 C667 C 0.33577 1.18082 0.63103
 C668 C 0.36970 1.18600 0.63055
 C669 C 0.38948 1.16730 0.61387
 C670 C 0.37569 1.14337 0.59710
 C671 C 0.34159 1.13955 0.59650
 C672 C 0.32183 1.15793 0.61347
 C673 C 0.39707 1.12077 0.58181
 C674 C 0.39124 1.11489 0.55535
 C675 C 0.41197 1.09369 0.54120
 C676 C 0.43848 1.07755 0.55343
 C677 C 0.44371 1.08288 0.58002
 C678 C 0.42340 1.10440 0.59398
 H679 H 0.29245 1.14931 0.66231
 H680 H 0.26501 1.17151 0.69985
 H681 H 0.30609 1.26987 0.68462
 H682 H 0.33513 1.24667 0.64728
 H683 H 0.38112 1.20324 0.64403
 H684 H 0.41571 1.17091 0.61452
 H685 H 0.33039 1.12120 0.58382
 H686 H 0.29570 1.15357 0.61341
 H687 H 0.37104 1.12720 0.54555
 H688 H 0.40737 1.09004 0.52073
 H689 H 0.46394 1.07086 0.59000
 H690 H 0.42811 1.10806 0.61444
 C691 C 0.81222 0.30558 -0.15058
 C692 C 0.81642 0.27158 -0.15728
 C693 C 0.79982 0.25799 -0.17859
 C694 C 0.77891 0.27822 -0.19384
 C695 C 0.77447 0.31206 -0.18662
 C696 C 0.79054 0.32541 -0.16515
 C697 C 0.83264 0.32159 -0.13029
 C698 C 0.81886 0.34439 -0.11260
 C699 C 0.83884 0.36315 -0.09599
 C700 C 0.87297 0.35980 -0.09709
 C701 C 0.88663 0.33602 -0.11401
 C702 C 0.86666 0.31695 -0.13033
 C703 C 0.89447 0.38261 -0.08206
 C704 C 0.92033 0.39924 -0.09454
 C705 C 0.94096 0.42066 -0.08075
 C706 C 0.93652 0.42562 -0.05405
 C707 C 0.91040 0.40933 -0.04154
 C708 C 0.88935 0.38821 -0.05550
 H709 H 0.83304 0.25572 -0.14634
 H710 H 0.80408 0.23186 -0.18349
 H711 H 0.75985 0.32901 -0.19817
 H712 H 0.78739 0.35189 -0.16081
 H713 H 0.79267 0.34834 -0.11213
 H714 H 0.82773 0.38137 -0.08316
 H715 H 0.91288 0.33277 -0.11504
 H716 H 0.87795 0.29983 -0.14393
 H717 H 0.92448 0.39577 -0.11508
 H718 H 0.96087 0.43281 -0.09095
 H719 H 0.90641 0.41270 -0.02097
 H720 H 0.86953 0.37570 -0.04547
 C721 C 0.31179 0.80175 0.35145
 C722 C 0.31628 0.76798 0.34419
 C723 C 0.29955 0.75474 0.32281
 C724 C 0.27827 0.77512 0.30803
 C725 C 0.27330 0.80862 0.31595
 C726 C 0.28951 0.82161 0.33748
 C727 C 0.33258 0.81766 0.37156
 C728 C 0.31908 0.84020 0.38958
 C729 C 0.33933 0.85911 0.40586
 C730 C 0.37346 0.85618 0.40413
 C731 C 0.38687 0.83258 0.38692
 C732 C 0.36664 0.81338 0.37090
 C733 C 0.39513 0.87914 0.41887
 C734 C 0.42079 0.89578 0.40612
 C735 C 0.44150 0.91741 0.41966
 C736 C 0.43730 0.92262 0.44636
 C737 C 0.41137 0.90632 0.45912
 C738 C 0.39030 0.88497 0.44544
 H739 H 0.33332 0.75209 0.35469
 H740 H 0.30416 0.72885 0.31739
 H741 H 0.25824 0.82566 0.30485
 H742 H 0.28605 0.84792 0.34226
 H743 H 0.29288 0.84387 0.39052
 H744 H 0.32839 0.87716 0.41892
 H745 H 0.41311 0.82960 0.38543
 H746 H 0.37773 0.79647 0.35705
 H747 H 0.42472 0.89217 0.38557
 H748 H 0.46124 0.92958 0.40928
 H749 H 0.40756 0.90989 0.47969
 H750 H 0.37065 0.87246 0.45569
 C751 C 1.14979 1.19227 0.32352
 C752 C 1.17159 1.21721 0.33167
 C753 C 1.19303 1.23203 0.31418
 C754 C 1.19348 1.22243 0.28792
 C755 C 1.17020 1.19887 0.27943
 C756 C 1.14858 1.18395 0.29705
 C757 C 1.13142 1.17253 0.34311
 C758 C 1.12911 1.13743 0.34063
 C759 C 1.11502 1.11809 0.36019
 C760 C 1.10296 1.13333 0.38276
 C761 C 1.10497 1.16841 0.38532
 C762 C 1.11892 1.18790 0.36558
 C763 C 1.08789 1.11212 0.40307
 C764 C 1.09653 1.11519 0.42939
 C765 C 1.08465 1.09201 0.44774
 C766 C 1.06410 1.06565 0.43983
 C767 C 1.05445 1.06388 0.41372
 C768 C 1.06605 1.08684 0.39565
 H769 H 1.17374 1.22375 0.35195
 H770 H 1.21096 1.24897 0.32205
 H771 H 1.16939 1.19093 0.25940
 H772 H 1.13159 1.16513 0.29009
 H773 H 1.13927 1.12468 0.32398
 H774 H 1.11418 1.09098 0.35793
 H775 H 1.09550 1.18071 0.40243
 H776 H 1.12016 1.21496 0.36797
 H777 H 1.11340 1.13460 0.43553
 H778 H 1.09226 1.09403 0.46779
 H779 H 1.03829 1.04427 0.40696
 H780 H 1.05846 1.08437 0.37561
 C781 C 0.65058 0.69379 -0.17488
 C782 C 0.67143 0.71992 -0.16733
 C783 C 0.69231 0.73491 -0.18520
 C784 C 0.69321 0.72416 -0.21118
 C785 C 0.67066 0.69954 -0.21911
 C786 C 0.64954 0.68457 -0.20117
 C787 C 0.63301 0.67387 -0.15491
 C788 C 0.63164 0.63866 -0.15702
 C789 C 0.61763 0.61930 -0.13745
 C790 C 0.60476 0.63459 -0.11520
 C791 C 0.60612 0.66974 -0.11286
 C792 C 0.61998 0.68927 -0.13264
 C793 C 0.58923 0.61336 -0.09515
 C794 C 0.59740 0.61619 -0.06873
 C795 C 0.58511 0.59289 -0.05064
 C796 C 0.56460 0.56668 -0.05891
 C797 C 0.55537 0.56520 -0.08512
 C798 C 0.56741 0.58824 -0.10295
 H799 H 0.67335 0.72728 -0.14720
 H800 H 0.70966 0.75277 -0.17779
 H801 H 0.67012 0.69074 -0.23892
 H802 H 0.63318 0.66493 -0.20771
 H803 H 0.64228 0.62589 -0.17347
 H804 H 0.61729 0.59215 -0.13951
 H805 H 0.59606 0.68205 -0.09597
 H806 H 0.62053 0.71639 -0.13051
 H807 H 0.61423 0.63549 -0.06232
 H808 H 0.59240 0.59469 -0.03050
 H809 H 0.53922 0.54572 -0.09215
 H810 H 0.56023 0.58596 -0.12309
 C811 C 0.84303 1.18967 0.67535
 C812 C 0.84717 1.18234 0.70187
 C813 C 0.82729 1.19800 0.72052
 C814 C 0.80307 1.22127 0.71291
 C815 C 0.80044 1.22925 0.68632
 C816 C 0.82013 1.21398 0.66798
 C817 C 0.86062 1.17091 0.65488
 C818 C 0.84333 1.15902 0.63318
 C819 C 0.85943 1.14199 0.61335
 C820 C 0.89325 1.13640 0.61471
 C821 C 0.91064 1.14862 0.63634
 C822 C 0.89444 1.16554 0.65630
 C823 C 0.90966 1.11534 0.59483
 C824 C 0.93284 1.09137 0.60267
 C825 C 0.94587 1.06883 0.58493
 C826 C 0.93618 1.06949 0.55877
 C827 C 0.91404 1.09431 0.55047
 C828 C 0.90077 1.11702 0.56841
 H829 H 0.86476 1.16356 0.70806
 H830 H 0.83018 1.19100 0.74069
 H831 H 0.78159 1.24557 0.67895
 H832 H 0.81660 1.22043 0.64774
 H833 H 0.81712 1.16240 0.63176
 H834 H 0.84518 1.13225 0.59735
 H835 H 0.93681 1.14502 0.63786
 H836 H 0.90835 1.17482 0.67266
 H837 H 0.93992 1.08894 0.62282
 H838 H 0.96303 1.05020 0.59200
 H839 H 0.90627 1.09546 0.53041
 H840 H 0.88319 1.13553 0.56172
 C841 C 0.34399 0.69178 0.17562
 C842 C 0.32189 0.71713 0.16872
 C843 C 0.30220 0.73205 0.18729
 C844 C 0.30400 0.72260 0.21361
 C845 C 0.32752 0.69834 0.22080
 C846 C 0.34737 0.68308 0.20197
 C847 C 0.36140 0.67323 0.15489
 C848 C 0.39482 0.66581 0.15697
 C849 C 0.41078 0.64839 0.13714
 C850 C 0.39356 0.63766 0.11496
 C851 C 0.36021 0.64551 0.11284
 C852 C 0.34435 0.66306 0.13254
 C853 C 0.40951 0.61583 0.09529
 C854 C 0.40189 0.61839 0.06866
 C855 C 0.41497 0.59540 0.05081
 C856 C 0.43567 0.56942 0.05940
 C857 C 0.44393 0.56769 0.08584
 C858 C 0.43106 0.59047 0.10349
 H859 H 0.31889 0.72462 0.14864
 H860 H 0.28380 0.74900 0.18024
 H861 H 0.32974 0.69013 0.24076
 H862 H 0.36426 0.66346 0.20783
 H863 H 0.40861 0.67372 0.17381
 H864 H 0.43662 0.64313 0.13924
 H865 H 0.34605 0.63704 0.09636
 H866 H 0.31842 0.66801 0.13058
 H867 H 0.38556 0.63791 0.06169
 H868 H 0.40831 0.59740 0.03054
 H869 H 0.45988 0.54811 0.09318
 H870 H 0.43706 0.58728 0.12380
 C871 C 1.15039 0.80759 0.67533
 C872 C 1.14887 0.81607 0.70177
 C873 C 1.17075 0.80177 0.71958
 C874 C 1.19457 0.77865 0.71134
 C875 C 1.19446 0.76886 0.68512
 C876 C 1.17282 0.78309 0.66743
 C877 C 1.13157 0.82668 0.65553
 C878 C 1.11982 0.81087 0.63295
 C879 C 1.10549 0.82986 0.61303
 C880 C 1.10230 0.86485 0.61554
 C881 C 1.11356 0.88051 0.63822
 C882 C 1.12807 0.86169 0.65795
 C883 C 1.08692 0.88556 0.59502
 C884 C 1.06396 0.90991 0.60214
 C885 C 1.05242 0.93295 0.58406
 C886 C 1.06326 0.93220 0.55826
 C887 C 1.08472 0.90653 0.55054
 C888 C 1.09657 0.88327 0.56891
 H889 H 1.13140 0.83451 0.70855
 H890 H 1.16966 0.80979 0.73958
 H891 H 1.21274 0.75215 0.67746
 H892 H 1.17522 0.77644 0.64719
 H893 H 1.12193 0.78386 0.63061
 H894 H 1.09667 0.81725 0.59581
 H895 H 1.11178 0.90758 0.64045
 H896 H 1.13762 0.87481 0.67468
 H897 H 1.05559 0.91172 0.62200
 H898 H 1.03541 0.95189 0.59060
 H899 H 1.09328 0.90531 0.53072
 H900 H 1.11431 0.86456 0.56301
 C901 C 0.64985 0.30593 0.17469
 C902 C 0.67326 0.28245 0.16673
 C903 C 0.69497 0.26848 0.18453
 C904 C 0.69421 0.27761 0.21086
 C905 C 0.66941 0.29960 0.21912
 C906 C 0.64744 0.31358 0.20123
 C907 C 0.63086 0.32498 0.15494
 C908 C 0.62606 0.35975 0.15798
 C909 C 0.61140 0.37869 0.13839
 C910 C 0.60128 0.36342 0.11522
 C911 C 0.60573 0.32865 0.11210
 C912 C 0.62021 0.30952 0.13188
 C913 C 0.58600 0.38433 0.09475
 C914 C 0.59646 0.38293 0.06879
 C915 C 0.58476 0.40647 0.05058
 C916 C 0.56267 0.43157 0.05830
 C917 C 0.55102 0.43141 0.08389
 C918 C 0.56238 0.40805 0.10181
 H919 H 0.67634 0.27645 0.14644
 H920 H 0.71395 0.25265 0.17692
 H921 H 0.66757 0.30704 0.23922
 H922 H 0.62920 0.33118 0.20806
 H923 H 0.63474 0.37265 0.17511
 H924 H 0.60869 0.40560 0.14111
 H925 H 0.59782 0.31631 0.09450
 H926 H 0.62333 0.28270 0.12905
 H927 H 0.61471 0.36474 0.06293
 H928 H 0.59395 0.40596 0.03092
 H929 H 0.53347 0.44987 0.09037
 H930 H 0.55338 0.40915 0.12152
 C931 C 0.84481 0.80812 0.32756
 C932 C 0.82315 0.78236 0.33421
 C933 C 0.80363 0.76749 0.31549
 C934 C 0.80535 0.77732 0.28924
 C935 C 0.82845 0.80200 0.28229
 C936 C 0.84803 0.81729 0.30130
 C937 C 0.86184 0.82669 0.34846
 C938 C 0.89494 0.83532 0.34629
 C939 C 0.91040 0.85328 0.36608
 C940 C 0.89297 0.86323 0.38829
 C941 C 0.86006 0.85392 0.39065
 C942 C 0.84467 0.83591 0.37095
 C943 C 0.90795 0.88626 0.40751
 C944 C 0.90183 0.88317 0.43431
 C945 C 0.91415 0.90710 0.45177
 C946 C 0.93242 0.93454 0.44257
 C947 C 0.93880 0.93708 0.41586
 C948 C 0.92684 0.91332 0.39863
 H949 H 0.82032 0.77449 0.35421
 H950 H 0.78548 0.75016 0.32240
 H951 H 0.83055 0.81047 0.26240
 H952 H 0.86457 0.83727 0.29565
 H953 H 0.90882 0.82813 0.32934
 H954 H 0.93594 0.85981 0.36386
 H955 H 0.84582 0.86178 0.40723
 H956 H 0.81895 0.83003 0.37298
 H957 H 0.88738 0.86241 0.44169
 H958 H 0.90899 0.90448 0.47226
 H959 H 0.95270 0.95788 0.40800
 H960 H 0.93144 0.91690 0.37814
 C961 C 0.34311 0.30912 -0.17216
 C962 C 0.32091 0.28381 -0.16552
 C963 C 0.30168 0.26873 -0.18436
 C964 C 0.30415 0.27796 -0.21069
 C965 C 0.32768 0.30224 -0.21758
 C966 C 0.34701 0.31767 -0.19848
 C967 C 0.36018 0.32777 -0.15129
 C968 C 0.39340 0.33595 -0.15335
 C969 C 0.40894 0.35401 -0.13364
 C970 C 0.39148 0.36454 -0.11160
 C971 C 0.35843 0.35571 -0.10935
 C972 C 0.34295 0.33759 -0.12898
 C973 C 0.40675 0.38742 -0.09237
 C974 C 0.40027 0.38467 -0.06560
 C975 C 0.41304 0.40834 -0.04812
 C976 C 0.43215 0.43520 -0.05727
 C977 C 0.43891 0.43739 -0.08393
 C978 C 0.42648 0.41389 -0.10118
 H979 H 0.31754 0.27640 -0.14547
 H980 H 0.28322 0.25168 -0.17758
 H981 H 0.33036 0.31028 -0.23753
 H982 H 0.36395 0.33730 -0.20416
 H983 H 0.40735 0.32831 -0.17014
 H984 H 0.43459 0.36011 -0.13578
 H985 H 0.34415 0.36399 -0.09291
 H986 H 0.31715 0.33209 -0.12702
 H987 H 0.38523 0.36436 -0.05825
 H988 H 0.40755 0.40599 -0.02768
 H989 H 0.45351 0.45774 -0.09173
 H990 H 0.43142 0.41721 -0.12164
 C991 C 1.18939 0.31284 -0.15886
 C992 C 1.17656 0.28254 -0.16876
 C993 C 1.19308 0.26471 -0.18821
 C994 C 1.22268 0.27687 -0.19847
 C995 C 1.23543 0.30697 -0.18821
 C996 C 1.21970 0.32397 -0.16828
 C997 C 1.17068 0.33406 -0.14011
 C998 C 1.17364 0.36942 -0.14067
 C999 C 1.15622 0.38961 -0.12344
 C1000 C 1.13442 0.37527 -0.10552
 C1001 C 1.13125 0.33991 -0.10498
 C1002 C 1.14933 0.31959 -0.12186
 C1003 C 1.11443 0.39718 -0.08812
 C1004 C 1.10466 0.38579 -0.06343
 C1005 C 1.08390 0.40527 -0.04806
 C1006 C 1.07302 0.43697 -0.05667
 C1007 C 1.08393 0.44920 -0.08067
 C1008 C 1.10405 0.42941 -0.09634
 H1009 H 1.15305 0.27326 -0.16239
 H1010 H 1.18182 0.24226 -0.19602
 H1011 H 1.25709 0.31856 -0.19617
 H1012 H 1.23104 0.34657 -0.16085
 H1013 H 1.18904 0.38188 -0.15477
 H1014 H 1.15995 0.41657 -0.12429
 H1015 H 1.11433 0.32777 -0.09184
 H1016 H 1.14652 0.29253 -0.12054
 H1017 H 1.11273 0.36163 -0.05602
 H1018 H 1.07589 0.39531 -0.02956
 H1019 H 1.07553 0.47336 -0.08793
 H1020 H 1.11036 0.43899 -0.11533
 C1021 C 0.69116 0.80976 0.34297
 C1022 C 0.67873 0.77915 0.33329
 C1023 C 0.69530 0.76152 0.31374
 C1024 C 0.72447 0.77425 0.30313
 C1025 C 0.73695 0.80450 0.31335
 C1026 C 0.72126 0.82123 0.33341
 C1027 C 0.67217 0.83110 0.36146
 C1028 C 0.67468 0.86649 0.36040
 C1029 C 0.65709 0.88684 0.37738
 C1030 C 0.63550 0.87266 0.39552
 C1031 C 0.63271 0.83727 0.39653
 C1032 C 0.65099 0.81678 0.37989
 C1033 C 0.61537 0.89476 0.41267
 C1034 C 0.60588 0.88388 0.43755
 C1035 C 0.58507 0.90355 0.45274
 C1036 C 0.57387 0.93494 0.44373
 C1037 C 0.58449 0.94670 0.41951
 C1038 C 0.60466 0.92669 0.40403
 H1039 H 0.65542 0.76955 0.33985
 H1040 H 0.68426 0.73891 0.30601
 H1041 H 0.75823 0.81655 0.30517
 H1042 H 0.73237 0.84403 0.34072
 H1043 H 0.68988 0.87882 0.34610
 H1044 H 0.66052 0.91383 0.37615
 H1045 H 0.61596 0.82524 0.40986
 H1046 H 0.64849 0.78972 0.38155
 H1047 H 0.61420 0.85997 0.44526
 H1048 H 0.57726 0.89396 0.47140
 H1049 H 0.57581 0.97059 0.41194
 H1050 H 0.61074 0.93587 0.38488
 C1051 C 0.80783 0.69552 -0.15224
 C1052 C 0.82049 0.72550 -0.16299
 C1053 C 0.80365 0.74267 -0.18283
 C1054 C 0.77400 0.73005 -0.19273
 C1055 C 0.76093 0.70092 -0.18096
 C1056 C 0.77695 0.68468 -0.16063
 C1057 C 0.82752 0.67386 -0.13417
 C1058 C 0.82431 0.63851 -0.13482
 C1059 C 0.84291 0.61780 -0.11856
 C1060 C 0.86609 0.63156 -0.10150
 C1061 C 0.86947 0.66692 -0.10084
 C1062 C 0.85031 0.68776 -0.11680
 C1063 C 0.88716 0.60909 -0.08511
 C1064 C 0.89842 0.61969 -0.06067
 C1065 C 0.91994 0.59965 -0.04620
 C1066 C 0.93023 0.56816 -0.05548
 C1067 C 0.91794 0.55671 -0.07925
 C1068 C 0.89694 0.57706 -0.09402
 H1069 H 0.84430 0.73470 -0.15727
 H1070 H 0.81510 0.76447 -0.19162
 H1071 H 0.73934 0.68879 -0.18850
 H1072 H 0.76568 0.66243 -0.15241
 H1073 H 0.80783 0.62647 -0.14833
 H1074 H 0.83902 0.59087 -0.11947
 H1075 H 0.88739 0.67862 -0.08834
 H1076 H 0.85344 0.71477 -0.11550
 H1077 H 0.89088 0.64366 -0.05274
 H1078 H 0.92899 0.60903 -0.02785
 H1079 H 0.92584 0.53276 -0.08704
 H1080 H 0.88943 0.56808 -0.11287
 C1081 C 0.30706 1.19139 0.34719
 C1082 C 0.31958 1.22188 0.33722
 C1083 C 0.30312 1.23940 0.31740
 C1084 C 0.27397 1.22667 0.30670
 C1085 C 0.26103 1.19690 0.31756
 C1086 C 0.27669 1.18023 0.33789
 C1087 C 0.32645 1.16972 0.36547
 C1088 C 0.32384 1.13434 0.36444
 C1089 C 0.34237 1.11370 0.38082
 C1090 C 0.36491 1.12759 0.39836
 C1091 C 0.36761 1.16298 0.39945
 C1092 C 0.34848 1.18373 0.38340
 C1093 C 0.38611 1.10526 0.41477
 C1094 C 0.39687 1.11574 0.43939
 C1095 C 0.41869 1.09598 0.45382
 C1096 C 0.42974 1.06489 0.44433
 C1097 C 0.41791 1.05350 0.42040
 C1098 C 0.39665 1.07359 0.40567
 H1099 H 0.34304 1.23132 0.34360
 H1100 H 0.31449 1.26169 0.30929
 H1101 H 0.23971 1.18488 0.30942
 H1102 H 0.26551 1.15755 0.34546
 H1103 H 0.30794 1.12223 0.35055
 H1104 H 0.33899 1.08672 0.37958
 H1105 H 0.38501 1.17481 0.41233
 H1106 H 0.35110 1.21076 0.38506
 H1107 H 0.38875 1.13940 0.44748
 H1108 H 0.42736 1.10529 0.47230
 H1109 H 0.42639 1.02984 0.41247
 H1110 H 0.38955 1.06472 0.38668
 C1111 C 1.19069 0.68879 0.15873
 C1112 C 1.17765 0.71903 0.16858
 C1113 C 1.19367 0.73653 0.18849
 C1114 C 1.22293 0.72408 0.19928
 C1115 C 1.23597 0.69413 0.18899
 C1116 C 1.22077 0.67749 0.16859
 C1117 C 1.17229 0.66773 0.13965
 C1118 C 1.17516 0.63235 0.14021
 C1119 C 1.15786 0.61228 0.12280
 C1120 C 1.13627 0.62675 0.10470
 C1121 C 1.13325 0.66213 0.10412
 C1122 C 1.15122 0.68234 0.12119
 C1123 C 1.11625 0.60498 0.08721
 C1124 C 1.10671 0.61638 0.06245
 C1125 C 1.08574 0.59713 0.04704
 C1126 C 1.07444 0.56566 0.05571
 C1127 C 1.08518 0.55335 0.07977
 C1128 C 1.10551 0.57293 0.09547
 H1129 H 1.15431 0.72844 0.16184
 H1130 H 1.18222 0.75890 0.19625
 H1131 H 1.25738 0.68235 0.19730
 H1132 H 1.23228 0.65495 0.16120
 H1133 H 1.19035 0.61980 0.15447
 H1134 H 1.16146 0.58529 0.12369
 H1135 H 1.11650 0.67437 0.09083
 H1136 H 1.14851 0.70941 0.11986
 H1137 H 1.11506 0.64040 0.05502
 H1138 H 1.07785 0.60714 0.02849
 H1139 H 1.07644 0.52937 0.08708
 H1140 H 1.11166 0.56336 0.11453
 C1141 C 0.68998 1.18758 0.65871
 C1142 C 0.67770 1.21868 0.66757
 C1143 C 0.69380 1.23649 0.68729
 C1144 C 0.72232 1.22348 0.69889
 C1145 C 0.73450 1.19256 0.68969
 C1146 C 0.71934 1.17562 0.66945
 C1147 C 0.67155 1.16642 0.63971
 C1148 C 0.67355 1.13101 0.64095
 C1149 C 0.65643 1.11085 0.62351
 C1150 C 0.63576 1.12527 0.60472
 C1151 C 0.63354 1.16070 0.60348
 C1152 C 0.65142 1.18098 0.62056
 C1153 C 0.61585 1.10342 0.58720
 C1154 C 0.60708 1.11435 0.56213
 C1155 C 0.58629 1.09499 0.54665
 C1156 C 0.57446 1.06385 0.55555
 C1157 C 0.58441 1.05199 0.57995
 C1158 C 0.60450 1.07171 0.59572
 H1159 H 0.65490 1.22864 0.66016
 H1160 H 0.68293 1.25960 0.69427
 H1161 H 0.75534 1.18045 0.69863
 H1162 H 0.73035 1.15243 0.66282
 H1163 H 0.68792 1.11849 0.65574
 H1164 H 0.65946 1.08383 0.62492
 H1165 H 0.61751 1.17293 0.58965
 H1166 H 0.64940 1.20806 0.61870
 H1167 H 0.61591 1.13808 0.55450
 H1168 H 0.57896 1.10465 0.52785
 H1169 H 0.57521 1.02830 0.58744
 H1170 H 0.60996 1.06251 0.61501
 C1171 C 0.80861 0.31132 0.15330
 C1172 C 0.77794 0.32209 0.16221
 C1173 C 0.76222 0.30528 0.18239
 C1174 C 0.77554 0.27583 0.19357
 C1175 C 0.80515 0.26359 0.18339
 C1176 C 0.82156 0.28119 0.16365
 C1177 C 0.82777 0.33293 0.13492
 C1178 C 0.84994 0.31887 0.11719
 C1179 C 0.86876 0.33955 0.10094
 C1180 C 0.86563 0.37492 0.10165
 C1181 C 0.84300 0.38887 0.11903
 C1182 C 0.82472 0.36830 0.13558
 C1183 C 0.88647 0.39716 0.08496
 C1184 C 0.89681 0.42907 0.09371
 C1185 C 0.91783 0.44903 0.07874
 C1186 C 0.92959 0.43730 0.05491
 C1187 C 0.91865 0.40599 0.04575
 C1188 C 0.89711 0.38634 0.06043
 H1189 H 0.76649 0.34452 0.15437
 H1190 H 0.74045 0.31686 0.19013
 H1191 H 0.81677 0.24157 0.19176
 H1192 H 0.84526 0.27209 0.15760
 H1193 H 0.85288 0.29184 0.11581
 H1194 H 0.88626 0.32768 0.08821
 H1195 H 0.83932 0.41584 0.11999
 H1196 H 0.80865 0.38044 0.14930
 H1197 H 0.88976 0.43822 0.11261
 H1198 H 0.92621 0.47287 0.08643
 H1199 H 0.92724 0.39641 0.02736
 H1200 H 0.88911 0.36248 0.05260
 C1201 C 0.30800 0.80967 0.65241
 C1202 C 0.27760 0.82085 0.66157
 C1203 C 0.26204 0.80436 0.68196
 C1204 C 0.27511 0.77473 0.69303
 C1205 C 0.30430 0.76195 0.68249
 C1206 C 0.32066 0.77931 0.66260
 C1207 C 0.32726 0.83120 0.63405
 C1208 C 0.34929 0.81708 0.61624
 C1209 C 0.36825 0.83773 0.60008
 C1210 C 0.36538 0.87312 0.60095
 C1211 C 0.34286 0.88712 0.61838
 C1212 C 0.32449 0.86659 0.63487
 C1213 C 0.38640 0.89535 0.58441
 C1214 C 0.39683 0.92716 0.59332
 C1215 C 0.41796 0.94713 0.57848
 C1216 C 0.42977 0.93550 0.55465
 C1217 C 0.41880 0.90428 0.54535
 C1218 C 0.39711 0.88464 0.55987
 H1219 H 0.26631 0.84341 0.65383
 H1220 H 0.24068 0.81641 0.68997
 H1221 H 0.31576 0.73978 0.69076
 H1222 H 0.34415 0.76987 0.65633
 H1223 H 0.35203 0.79004 0.61475
 H1224 H 0.38566 0.82582 0.58729
 H1225 H 0.33935 0.91410 0.61946
 H1226 H 0.30859 0.87879 0.64868
 H1227 H 0.38975 0.93622 0.61224
 H1228 H 0.42639 0.97089 0.58628
 H1229 H 0.42748 0.89476 0.52696
 H1230 H 0.38906 0.86086 0.55192
 C1231 C 0.29555 1.15651 -0.16517
 C1232 C 0.26559 1.17343 -0.16223
 C1233 C 0.25357 1.19426 -0.18218
 C1234 C 0.27204 1.19952 -0.20485
 C1235 C 0.30156 1.18154 -0.20768
 C1236 C 0.31301 1.16044 -0.18823
 C1237 C 0.31048 1.13621 -0.14419
 C1238 C 0.32446 1.10483 -0.14999
 C1239 C 0.34505 1.08879 -0.13227
 C1240 C 0.35205 1.10375 -0.10827
 C1241 C 0.33644 1.13420 -0.10183
 C1242 C 0.31575 1.15028 -0.11964
 C1243 C 0.37658 1.08824 -0.09064
 C1244 C 0.39916 1.10838 -0.07716
 C1245 C 0.42224 1.09371 -0.06056
 C1246 C 0.42321 1.05861 -0.05713
 C1247 C 0.40125 1.03843 -0.07118
 C1248 C 0.37817 1.05308 -0.08767
 H1249 H 0.25167 1.17062 -0.14453
 H1250 H 0.23054 1.20707 -0.17947
 H1251 H 0.31659 1.18388 -0.22478
 H1252 H 0.33632 1.14798 -0.19091
 H1253 H 0.32071 1.09351 -0.16883
 H1254 H 0.35677 1.06550 -0.13792
 H1255 H 0.34087 1.14600 -0.08327
 H1256 H 0.30546 1.17461 -0.11484
 H1257 H 0.39903 1.13550 -0.07949
 H1258 H 0.43878 1.10990 -0.04995
 H1259 H 0.40119 1.01129 -0.06883
 H1260 H 0.36102 1.03687 -0.09762
 C1261 C 0.80292 0.65873 0.33481
 C1262 C 0.77103 0.67173 0.33709
 C1263 C 0.75735 0.69119 0.31700
 C1264 C 0.77575 0.69873 0.29471
 C1265 C 0.80711 0.68431 0.29232
 C1266 C 0.82040 0.66481 0.31202
 C1267 C 0.81960 0.64095 0.35641
 C1268 C 0.84031 0.61351 0.35119
 C1269 C 0.86093 0.60061 0.37037
 C1270 C 0.86095 0.61456 0.39527
 C1271 C 0.83896 0.64074 0.40098
 C1272 C 0.81851 0.65391 0.38167
 C1273 C 0.88385 0.60173 0.41522
 C1274 C 0.87245 0.59433 0.44017
 C1275 C 0.89352 0.58081 0.45873
 C1276 C 0.92655 0.57479 0.45286
 C1277 C 0.93831 0.58302 0.42814
 C1278 C 0.91702 0.59619 0.40936
 H1279 H 0.75693 0.66719 0.35448
 H1280 H 0.73304 0.70137 0.31937
 H1281 H 0.82234 0.68869 0.27556
 H1282 H 0.84517 0.65564 0.30977
 H1283 H 0.84126 0.60266 0.33199
 H1284 H 0.87707 0.57988 0.36569
 H1285 H 0.83852 0.65187 0.42010
 H1286 H 0.80312 0.67530 0.38616
 H1287 H 0.84701 0.59814 0.44511
 H1288 H 0.88380 0.57470 0.47768
 H1289 H 0.96362 0.57845 0.42315
 H1290 H 0.92641 0.60202 0.39026
 C1291 C 0.69428 1.16275 0.16783
 C1292 C 0.68058 1.16545 0.19253
 C1293 C 0.69623 1.18369 0.21176
 C1294 C 0.72611 1.20017 0.20686
 C1295 C 0.74160 1.19447 0.18293
 C1296 C 0.72562 1.17610 0.16341
 C1297 C 0.67440 1.14774 0.14684
 C1298 C 0.68702 1.12267 0.13060
 C1299 C 0.66662 1.10661 0.11263
 C1300 C 0.63341 1.11563 0.11048
 C1301 C 0.62127 1.14154 0.12618
 C1302 C 0.64152 1.15740 0.14410
 C1303 C 0.61116 1.09777 0.09240
 C1304 C 0.58756 1.11570 0.07805
 C1305 C 0.56661 1.09893 0.06103
 C1306 C 0.56881 1.06386 0.05796
 C1307 C 0.59190 1.04582 0.07275
 C1308 C 0.61288 1.06261 0.08975
 H1309 H 0.65700 1.15431 0.19674
 H1310 H 0.68379 1.18584 0.23014
 H1311 H 0.76496 1.20589 0.17869
 H1312 H 0.73693 1.17384 0.14455
 H1313 H 0.71228 1.11481 0.13237
 H1314 H 0.67676 1.08704 0.10050
 H1315 H 0.59582 1.14894 0.12515
 H1316 H 0.63130 1.17700 0.15619
 H1317 H 0.58579 1.14284 0.07955
 H1318 H 0.54926 1.11355 0.04977
 H1319 H 0.59426 1.01877 0.07079
 H1320 H 0.63037 1.04805 0.10090
 C1321 C 1.19289 0.66420 0.66740
 C1322 C 1.17674 0.67087 0.69066
 C1323 C 1.19219 0.68874 0.71019
 C1324 C 1.22429 0.70095 0.70695
 C1325 C 1.24143 0.69204 0.68436
 C1326 C 1.22577 0.67379 0.66466
 C1327 C 1.17420 0.64878 0.64601
 C1328 C 1.18526 0.61952 0.63371
 C1329 C 1.16543 0.60331 0.61548
 C1330 C 1.13436 0.61632 0.60909
 C1331 C 1.12398 0.64630 0.62086
 C1332 C 1.14363 0.66227 0.63915
 C1333 C 1.11283 0.59894 0.59017
 C1334 C 1.07871 0.59779 0.59381
 C1335 C 1.05844 0.58235 0.57550
 C1336 C 1.07194 0.56760 0.55332
 C1337 C 1.10601 0.56829 0.54990
 C1338 C 1.12619 0.58386 0.56805
 H1339 H 1.15165 0.66297 0.69345
 H1340 H 1.17802 0.69408 0.72734
 H1341 H 1.26626 0.70049 0.68138
 H1342 H 1.23877 0.66852 0.64687
 H1343 H 1.20865 0.60858 0.63889
 H1344 H 1.17405 0.58010 0.60692
 H1345 H 1.10064 0.65750 0.61591
 H1346 H 1.13480 0.68510 0.64820
 H1347 H 1.06768 0.60868 0.61089
 H1348 H 1.03228 0.58197 0.57867
 H1349 H 1.11714 0.55718 0.53294
 H1350 H 1.15223 0.58470 0.56444
 C1351 C 0.69037 0.84229 -0.17051
 C1352 C 0.67608 0.83738 -0.19485
 C1353 C 0.69179 0.81826 -0.21350
 C1354 C 0.72237 0.80330 -0.20835
 C1355 C 0.73820 0.81096 -0.18486
 C1356 C 0.72216 0.83011 -0.16594
 C1357 C 0.67075 0.85822 -0.14985
 C1358 C 0.68374 0.88361 -0.13406
 C1359 C 0.66391 0.89972 -0.11581
 C1360 C 0.63090 0.89044 -0.11295
 C1361 C 0.61829 0.86450 -0.12839
 C1362 C 0.63799 0.84855 -0.14656
 C1363 C 0.60945 0.90768 -0.09406
 C1364 C 0.58708 0.88907 -0.07913
 C1365 C 0.56695 0.90513 -0.06122
 C1366 C 0.56881 0.94015 -0.05780
 C1367 C 0.59066 0.95890 -0.07313
 C1368 C 0.61082 0.94280 -0.09105
 H1369 H 0.65209 0.84752 -0.19921
 H1370 H 0.67900 0.81433 -0.23159
 H1371 H 0.76205 0.80063 -0.18050
 H1372 H 0.73386 0.83397 -0.14735
 H1373 H 0.70892 0.89149 -0.13625
 H1374 H 0.67438 0.91935 -0.10389
 H1375 H 0.59295 0.85696 -0.12680
 H1376 H 0.62749 0.82866 -0.15823
 H1377 H 0.58567 0.86193 -0.08087
 H1378 H 0.55050 0.89000 -0.04959
 H1379 H 0.59266 0.98594 -0.07091
 H1380 H 0.62742 0.95784 -0.10261
 C1381 C 1.19089 0.33635 0.33258
 C1382 C 1.22368 0.32650 0.33567
 C1383 C 1.23960 0.30868 0.31591
 C1384 C 1.22279 0.30042 0.29298
 C1385 C 1.19086 0.31304 0.28941
 C1386 C 1.17517 0.33052 0.30897
 C1387 C 1.17186 0.35106 0.35398
 C1388 C 1.14107 0.33756 0.36001
 C1389 C 1.12125 0.35279 0.37850
 C1390 C 1.13173 0.38200 0.39129
 C1391 C 1.16295 0.39507 0.38567
 C1392 C 1.18294 0.37959 0.36724
 C1393 C 1.11021 0.39847 0.41058
 C1394 C 1.12358 0.41185 0.43336
 C1395 C 1.10348 0.42671 0.45182
 C1396 C 1.06948 0.42837 0.44806
 C1397 C 1.05595 0.41519 0.42528
 C1398 C 1.07617 0.40043 0.40665
 H1399 H 1.23636 0.33115 0.35374
 H1400 H 1.26433 0.29997 0.31913
 H1401 H 1.17700 0.30830 0.27195
 H1402 H 1.15018 0.33871 0.30592
 H1403 H 1.13225 0.31524 0.35021
 H1404 H 1.09776 0.34160 0.38283
 H1405 H 1.17162 0.41772 0.39504
 H1406 H 1.20650 0.39051 0.36271
 H1407 H 1.14957 0.41028 0.43720
 H1408 H 1.11464 0.43659 0.46925
 H1409 H 1.02984 0.41636 0.42186
 H1410 H 1.06518 0.39078 0.38909
 C1411 C 0.30153 0.83847 0.16791
 C1412 C 0.27042 0.82423 0.16428
 C1413 C 0.25558 0.80592 0.18447
 C1414 C 0.27215 0.80106 0.20816
 C1415 C 0.30166 0.81863 0.21220
 C1416 C 0.31608 0.83688 0.19238
 C1417 C 0.32074 0.85292 0.14637
 C1418 C 0.35323 0.84235 0.14311
 C1419 C 0.37357 0.85845 0.12541
 C1420 C 0.36188 0.88543 0.11038
 C1421 C 0.32892 0.89522 0.11288
 C1422 C 0.30842 0.87895 0.13071
 C1423 C 0.38444 0.90355 0.09271
 C1424 C 0.38351 0.93885 0.09064
 C1425 C 0.40498 0.95579 0.07406
 C1426 C 0.42777 0.93773 0.05922
 C1427 C 0.42924 0.90254 0.06179
 C1428 C 0.40776 0.88564 0.07828
 H1429 H 0.25850 0.82573 0.14556
 H1430 H 0.23237 0.79381 0.18093
 H1431 H 0.31480 0.81744 0.23037
 H1432 H 0.33951 0.84875 0.19591
 H1433 H 0.36317 0.82211 0.15489
 H1434 H 0.39883 0.85048 0.12416
 H1435 H 0.31912 0.91562 0.10123
 H1436 H 0.28346 0.88750 0.13297
 H1437 H 0.36625 0.95338 0.10188
 H1438 H 0.40318 0.98295 0.07241
 H1439 H 0.44633 0.88790 0.05045
 H1440 H 0.40893 0.85841 0.07929
 C1441 C 0.80163 0.33094 0.66192
 C1442 C 0.76829 0.32250 0.66170
 C1443 C 0.75423 0.30636 0.68327
 C1444 C 0.77346 0.29851 0.70515
 C1445 C 0.80619 0.30969 0.70567
 C1446 C 0.82002 0.32538 0.68434
 C1447 C 0.81858 0.34434 0.63892
 C1448 C 0.84700 0.32814 0.63020
 C1449 C 0.86677 0.34323 0.61153
 C1450 C 0.85863 0.37496 0.60128
 C1451 C 0.82932 0.39047 0.60919
 C1452 C 0.80937 0.37519 0.62784
 C1453 C 0.88101 0.39203 0.58283
 C1454 C 0.86835 0.41019 0.56171
 C1455 C 0.88925 0.42634 0.54439
 C1456 C 0.92335 0.42464 0.54767
 C1457 C 0.93617 0.40655 0.56876
 C1458 C 0.91517 0.39041 0.58622
 H1459 H 0.75362 0.32706 0.64456
 H1460 H 0.72890 0.29872 0.68234
 H1461 H 0.82209 0.30511 0.72206
 H1462 H 0.84558 0.33246 0.68510
 H1463 H 0.85439 0.30418 0.63850
 H1464 H 0.88870 0.33026 0.60538
 H1465 H 0.82248 0.41504 0.60177
 H1466 H 0.78775 0.38821 0.63457
 H1467 H 0.84226 0.41155 0.55835
 H1468 H 0.87860 0.44004 0.52825
 H1469 H 0.96233 0.40500 0.57179
 H1470 H 0.92566 0.37703 0.60257
 C1471 C 1.16071 1.18950 0.67014
 C1472 C 1.15804 1.22382 0.67645
 C1473 C 1.17680 1.23739 0.69656
 C1474 C 1.19988 1.21739 0.70983
 C1475 C 1.19949 1.18246 0.70550
 C1476 C 1.18042 1.16875 0.68580
 C1477 C 1.14379 1.17517 0.64714
 C1478 C 1.15908 1.14992 0.63247
 C1479 C 1.14286 1.13469 0.61183
 C1480 C 1.11102 1.14463 0.60495
 C1481 C 1.09626 1.17103 0.61884
 C1482 C 1.11240 1.18604 0.63976
 C1483 C 1.09252 1.12539 0.58500
 C1484 C 1.05910 1.11867 0.58853
 C1485 C 1.04278 1.09624 0.57229
 C1486 C 1.05956 1.07957 0.55234
 C1487 C 1.09236 1.08785 0.54767
 C1488 C 1.10862 1.11072 0.56373
 H1489 H 1.14246 1.24049 0.66527
 H1490 H 1.17425 1.26391 0.70084
 H1491 H 1.21443 1.16549 0.71692
 H1492 H 1.18153 1.14184 0.68259
 H1493 H 1.18359 1.14154 0.63713
 H1494 H 1.15494 1.11421 0.60191
 H1495 H 1.07197 1.17975 0.61384
 H1496 H 1.09988 1.20543 0.65059
 H1497 H 1.04589 1.12910 0.60477
 H1498 H 1.01744 1.09048 0.57639
 H1499 H 1.10580 1.07570 0.53225
 H1500 H 1.13413 1.11601 0.55999
 C1501 C 0.66016 0.68818 0.17187
 C1502 C 0.65784 0.72263 0.17778
 C1503 C 0.67680 0.73638 0.19769
 C1504 C 0.69972 0.71642 0.21113
 C1505 C 0.69892 0.68139 0.20727
 C1506 C 0.67967 0.66750 0.18775
 C1507 C 0.64320 0.67372 0.14896
 C1508 C 0.65839 0.64825 0.13445
 C1509 C 0.64224 0.63319 0.11371
 C1510 C 0.61060 0.64352 0.10659
 C1511 C 0.59592 0.67003 0.12038
 C1512 C 0.61198 0.68487 0.14140
 C1513 C 0.59220 0.62459 0.08645
 C1514 C 0.55871 0.61806 0.08974
 C1515 C 0.54244 0.59585 0.07331
 C1516 C 0.55935 0.57924 0.05340
 C1517 C 0.59223 0.58738 0.04896
 C1518 C 0.60845 0.61002 0.06521
 H1519 H 0.64237 0.73924 0.16646
 H1520 H 0.67426 0.76293 0.20177
 H1521 H 0.71387 0.66453 0.21879
 H1522 H 0.68054 0.64052 0.18480
 H1523 H 0.68278 0.63963 0.13927
 H1524 H 0.65422 0.61258 0.10387
 H1525 H 0.57177 0.67900 0.11521
 H1526 H 0.59955 0.70442 0.15213
 H1527 H 0.54540 0.62846 0.10595
 H1528 H 0.51703 0.59019 0.07722
 H1529 H 0.60576 0.57527 0.03356
 H1530 H 0.63402 0.61519 0.06167
 C1531 C 1.15226 0.80829 0.32752
 C1532 C 1.17251 0.82943 0.31285
 C1533 C 1.19403 0.81588 0.29472
 C1534 C 1.19610 0.78081 0.29104
 C1535 C 1.17311 0.76020 0.30376
 C1536 C 1.15216 0.77363 0.32247
 C1537 C 1.13197 0.82267 0.34836
 C1538 C 1.13609 0.81188 0.37413
 C1539 C 1.11958 0.82818 0.39425
 C1540 C 1.09815 0.85495 0.38879
 C1541 C 1.09324 0.86488 0.36289
 C1542 C 1.11025 0.84911 0.34289
 C1543 C 1.08217 0.87403 0.40985
 C1544 C 1.10081 0.88796 0.43004
 C1545 C 1.08662 0.91073 0.44739
 C1546 C 1.05347 0.91956 0.44497
 C1547 C 1.03440 0.90358 0.42591
 C1548 C 1.04867 0.88129 0.40841
 H1549 H 1.17240 0.85639 0.31601
 H1550 H 1.20934 0.83310 0.28392
 H1551 H 1.17176 0.73351 0.29981
 H1552 H 1.13587 0.75702 0.33300
 H1553 H 1.15301 0.79171 0.37872
 H1554 H 1.12372 0.82015 0.41408
 H1555 H 1.07710 0.88569 0.35823
 H1556 H 1.10685 0.85785 0.32315
 H1557 H 1.12674 0.88278 0.43145
 H1558 H 1.10189 0.92257 0.46189
 H1559 H 1.00876 0.90967 0.42356
 H1560 H 1.03377 0.87061 0.39315
 C1561 C 0.65368 0.31295 -0.17418
 C1562 C 0.65280 0.27831 -0.17920
 C1563 C 0.67332 0.26440 -0.19795
 C1564 C 0.69666 0.28445 -0.21080
 C1565 C 0.69528 0.31957 -0.20727
 C1566 C 0.67418 0.33364 -0.18904
 C1567 C 0.63388 0.32759 -0.15314
 C1568 C 0.61312 0.35496 -0.15819
 C1569 C 0.59604 0.37026 -0.13801
 C1570 C 0.59994 0.35888 -0.11237
 C1571 C 0.62055 0.33133 -0.10731
 C1572 C 0.63710 0.31551 -0.12763
 C1573 C 0.58357 0.37705 -0.09107
 C1574 C 0.55008 0.38424 -0.09272
 C1575 C 0.53542 0.40571 -0.07484
 C1576 C 0.55412 0.42097 -0.05520
 C1577 C 0.58725 0.41215 -0.05262
 C1578 C 0.60181 0.39015 -0.07034
 H1579 H 0.63630 0.26204 -0.16856
 H1580 H 0.67139 0.23772 -0.20178
 H1581 H 0.71085 0.33636 -0.21824
 H1582 H 0.67463 0.36060 -0.18593
 H1583 H 0.61036 0.36465 -0.17773
 H1584 H 0.58051 0.39169 -0.14231
 H1585 H 0.62389 0.32220 -0.08768
 H1586 H 0.65324 0.29456 -0.12335
 H1587 H 0.53551 0.37416 -0.10843
 H1588 H 0.50981 0.41185 -0.07734
 H1589 H 0.60223 0.42345 -0.03768
 H1590 H 0.62773 0.38496 -0.06877
 C1591 C 0.84741 1.19667 0.32596
 C1592 C 0.84624 1.18398 0.30055
 C1593 C 0.82578 1.19886 0.28189
 C1594 C 0.80578 1.22648 0.28832
 C1595 C 0.80818 1.23958 0.31354
 C1596 C 0.82904 1.22541 0.33183
 C1597 C 0.86544 1.17884 0.34697
 C1598 C 0.85197 1.17703 0.37201
 C1599 C 0.86816 1.15999 0.39189
 C1600 C 0.89800 1.14368 0.38722
 C1601 C 0.91167 1.14560 0.36224
 C1602 C 0.89559 1.16306 0.34233
 C1603 C 0.91377 1.12324 0.40795
 C1604 C 0.94798 1.12168 0.41019
 C1605 C 0.96262 1.09980 0.42805
 C1606 C 0.94335 1.07918 0.44411
 C1607 C 0.90921 1.08217 0.44294
 C1608 C 0.89458 1.10380 0.42496
 H1609 H 0.85991 1.16165 0.29540
 H1610 H 0.82453 1.18763 0.26283
 H1611 H 0.79250 1.25934 0.32021
 H1612 H 0.82975 1.23632 0.35101
 H1613 H 0.82845 1.18822 0.37623
 H1614 H 0.85711 1.15938 0.41093
 H1615 H 0.93441 1.13289 0.35787
 H1616 H 0.90673 1.16417 0.32334
 H1617 H 0.96344 1.13684 0.39778
 H1618 H 0.98904 1.09814 0.42861
 H1619 H 0.89372 1.06645 0.45493
 H1620 H 0.86818 1.10402 0.42359
 C1621 C 0.34789 0.69521 -0.17482
 C1622 C 0.32920 0.72362 -0.16875
 C1623 C 0.30821 0.73772 -0.18690
 C1624 C 0.30622 0.72514 -0.21232
 C1625 C 0.32661 0.69794 -0.21900
 C1626 C 0.34710 0.68296 -0.20038
 C1627 C 0.36570 0.67724 -0.15380
 C1628 C 0.39615 0.66196 -0.15816
 C1629 C 0.41216 0.64473 -0.13809
 C1630 C 0.39809 0.64261 -0.11325
 C1631 C 0.36790 0.65834 -0.10890
 C1632 C 0.35177 0.67505 -0.12894
 C1633 C 0.41379 0.62256 -0.09231
 C1634 C 0.39457 0.60295 -0.07544
 C1635 C 0.40917 0.58176 -0.05717
 C1636 C 0.44331 0.57934 -0.05558
 C1637 C 0.46260 0.60013 -0.07151
 C1638 C 0.44797 0.62160 -0.08965
 H1639 H 0.32963 0.73423 -0.14945
 H1640 H 0.29202 0.75693 -0.17995
 H1641 H 0.32565 0.68715 -0.23821
 H1642 H 0.36109 0.66090 -0.20568
 H1643 H 0.40760 0.66333 -0.17703
 H1644 H 0.43518 0.63243 -0.14220
 H1645 H 0.35653 0.65758 -0.08998
 H1646 H 0.32799 0.68579 -0.12496
 H1647 H 0.36820 0.60268 -0.07714
 H1648 H 0.39367 0.56588 -0.04530
 H1649 H 0.48902 0.59888 -0.07063
 H1650 H 0.46343 0.63692 -0.10196
 C1651 C 0.84502 0.80803 0.67443
 C1652 C 0.84378 0.82055 0.69988
 C1653 C 0.82346 0.80543 0.71843
 C1654 C 0.80376 0.77765 0.71186
 C1655 C 0.80624 0.76470 0.68662
 C1656 C 0.82685 0.77923 0.66839
 C1657 C 0.86303 0.82602 0.65360
 C1658 C 0.84941 0.82841 0.62859
 C1659 C 0.86567 0.84558 0.60886
 C1660 C 0.89577 0.86130 0.61366
 C1661 C 0.90958 0.85881 0.63861
 C1662 C 0.89338 0.84132 0.65837
 C1663 C 0.91180 0.88161 0.59306
 C1664 C 0.94599 0.88204 0.59059
 C1665 C 0.96101 0.90356 0.57275
 C1666 C 0.94213 0.92505 0.55698
 C1667 C 0.90793 0.92330 0.55845
 C1668 C 0.89293 0.90194 0.57637
 H1669 H 0.85733 0.84292 0.70515
 H1670 H 0.82218 0.81651 0.73753
 H1671 H 0.79080 0.74472 0.67997
 H1672 H 0.82759 0.76850 0.64914
 H1673 H 0.82577 0.81753 0.62431
 H1674 H 0.85451 0.84669 0.58984
 H1675 H 0.93253 0.87106 0.64305
 H1676 H 0.90461 0.83976 0.67736
 H1677 H 0.96117 0.86617 0.60278
 H1678 H 0.98743 0.90418 0.57192
 H1679 H 0.89273 0.93968 0.54666
 H1680 H 0.86656 0.90254 0.57792
 C1681 C 0.34608 0.30853 0.17542
 C1682 C 0.34559 0.32004 0.20117
 C1683 C 0.32529 0.30457 0.21959
 C1684 C 0.30490 0.27755 0.21253
 C1685 C 0.30672 0.26557 0.18693
 C1686 C 0.32739 0.28030 0.16891
 C1687 C 0.36361 0.32711 0.15467
 C1688 C 0.34906 0.33068 0.13009
 C1689 C 0.36501 0.34786 0.11025
 C1690 C 0.39570 0.36253 0.11456
 C1691 C 0.41035 0.35908 0.13915
 C1692 C 0.39446 0.34150 0.15902
 C1693 C 0.41152 0.38267 0.09381
 C1694 C 0.44559 0.38199 0.09048
 C1695 C 0.46050 0.40320 0.07237
 C1696 C 0.44164 0.42543 0.05722
 C1697 C 0.40749 0.42477 0.05954
 C1698 C 0.39261 0.40376 0.07773
 H1699 H 0.35964 0.34193 0.20677
 H1700 H 0.32448 0.31486 0.23897
 H1701 H 0.29058 0.24640 0.17977
 H1702 H 0.32760 0.27034 0.14940
 H1703 H 0.32498 0.32058 0.12619
 H1704 H 0.35318 0.34973 0.09151
 H1705 H 0.43380 0.37055 0.14320
 H1706 H 0.40632 0.33906 0.17771
 H1707 H 0.46075 0.36550 0.10217
 H1708 H 0.48688 0.40299 0.07085
 H1709 H 0.39233 0.44177 0.04826
 H1710 H 0.36635 0.40522 0.07998
   
