data_POSCAR
  _audit_creation_date              2014-09-24
  _audit_creation_method            'ToBaCCo'
  _symmetry_space_group_name_H-M    'P1'
  _symmetry_Int_Tables_number       1
  _symmetry_cell_setting            triclinic
  loop_
  _symmetry_equiv_pos_as_xyz
 x,y,z
_cell_length_a 53.5086
_cell_length_b 53.5091
_cell_length_c 53.5083
_cell_angle_alpha 89.999800
_cell_angle_beta 89.997600
_cell_angle_gamma 90.001500
loop_
  _atom_site_label
  _atom_site_type_symbol
  _atom_site_fract_x
  _atom_site_fract_y
  _atom_site_fract_z
N1 N 0.34953 1.34902 0.34905
 N2 N 0.34878 0.84941 0.84943
 N3 N 0.84918 1.34947 0.84904
 N4 N 0.84908 0.84897 0.34927
 N5 N 0.65115 0.65092 0.34950
 N6 N 0.65055 0.15093 0.84918
 N7 N 1.15108 0.65073 0.84914
 N8 N 1.15061 0.15064 0.34878
 N9 N 0.65068 1.34921 0.65103
 N10 N 0.65094 0.84913 1.15077
 N11 N 1.15053 1.34914 1.15085
 N12 N 1.15103 0.84912 0.65051
 N13 N 0.34896 0.65062 0.65084
 N14 N 0.34935 0.15101 1.15117
 N15 N 0.84919 0.65116 1.15063
 N16 N 0.84930 0.15064 0.65079
 N17 N 1.34928 0.34914 0.65117
 N18 N 1.34903 0.84921 1.15080
 N19 N 0.84944 0.34920 1.15090
 N20 N 0.84891 0.84910 0.65062
 N21 N 0.65126 0.65074 0.65074
 N22 N 0.65042 1.15100 1.15103
 N23 N 0.15100 0.65096 1.15053
 N24 N 0.15070 1.15060 0.65091
 N25 N 1.34911 0.65087 0.34924
 N26 N 1.34918 1.15065 0.84911
 N27 N 0.84896 0.65086 0.84936
 N28 N 0.84947 1.15083 0.34906
 N29 N 0.65059 0.34899 0.34919
 N30 N 0.65105 0.84927 0.84946
 N31 N 0.15065 0.34941 0.84884
 N32 N 0.15091 0.84907 0.34920
 O33 O 1.09048 1.02453 1.12390
 O34 O 1.11952 1.02463 1.15314
 C35 C 1.09920 1.03314 1.14422
 C36 C 1.08587 1.05368 1.15720
 C37 C 1.09414 1.06237 1.18056
 H38 H 1.10994 1.05343 1.18951
 O39 O 0.90976 0.97590 1.12476
 O40 O 0.88078 0.97595 1.15406
 C41 C 0.90104 0.96738 1.14514
 C42 C 0.91431 0.94692 1.15823
 C43 C 0.90575 0.93817 1.18145
 H44 H 0.88977 0.94703 1.19016
 O45 O 1.02443 1.12489 1.08925
 O46 O 1.02453 1.15420 1.11822
 C47 C 1.03300 1.14527 1.09791
 C48 C 1.05353 1.15825 1.08460
 C49 C 1.06217 1.18163 1.09286
 H50 H 1.05314 1.19062 1.10859
 O51 O 0.97565 0.87620 1.09064
 O52 O 0.97562 0.84699 1.11971
 C53 C 0.96708 0.85587 1.09940
 C54 C 0.94662 0.84277 1.08610
 C55 C 0.93788 0.81953 1.09462
 H56 H 0.94673 0.81082 1.11061
 O57 O 1.12504 1.09001 1.02402
 O58 O 1.15434 1.11899 1.02391
 C59 C 1.14541 1.09875 1.03253
 C60 C 1.15846 1.08555 1.05306
 C61 C 1.18167 1.09412 1.06183
 H62 H 1.19042 1.11005 1.05291
 O63 O 0.87575 0.91012 1.02470
 O64 O 0.84652 0.88106 1.02478
 C65 C 0.85543 0.90135 1.03332
 C66 C 0.84238 0.91459 1.05384
 C67 C 0.81917 0.90601 1.06258
 H68 H 0.81045 0.89007 1.05367
 O69 O 0.97579 1.09070 1.12377
 O70 O 0.97589 1.11988 1.15287
 C71 C 0.96732 1.09953 1.14412
 C72 C 0.94692 1.08628 1.15738
 C73 C 0.93831 1.09486 1.18065
 H74 H 0.94722 1.11085 1.18929
 O75 O 1.02450 0.91030 1.12486
 O76 O 1.02454 0.88125 1.15410
 C77 C 1.03305 0.90156 1.14521
 C78 C 1.05357 0.91485 1.15823
 C79 C 1.06224 0.90654 1.18158
 H80 H 1.05326 0.89075 1.19052
 O81 O 1.12466 0.97565 1.08983
 O82 O 1.15391 0.97563 1.11886
 C83 C 1.14501 0.96709 1.09855
 C84 C 1.15801 0.94657 1.08524
 C85 C 1.18136 0.93787 1.09353
 H86 H 1.19029 0.94682 1.10934
 O87 O 0.87547 1.02472 1.09068
 O88 O 0.84640 1.02478 1.11989
 C89 C 0.85515 1.03326 1.09952
 C90 C 0.84190 1.05360 1.08622
 C91 C 0.81867 1.06227 1.09480
 H92 H 0.81006 1.05346 1.11087
 O93 O 0.90897 1.12410 1.02434
 O94 O 0.87982 1.15324 1.02443
 C95 C 0.90020 1.14443 1.03289
 C96 C 0.91359 1.15762 1.05323
 C97 C 0.90506 1.18085 1.06198
 H98 H 0.88897 1.18948 1.05324
 O99 O 1.08979 0.87543 1.02425
 O100 O 1.11884 0.84621 1.02423
 C101 C 1.09854 0.85510 1.03280
 C102 C 1.08530 0.84210 1.05337
 C103 C 1.09363 0.81875 1.06205
 H104 H 1.10939 0.80981 1.05303
 O105 O 0.91004 1.02467 1.12458
 O106 O 0.88112 1.02477 1.15394
 C107 C 0.90142 1.03324 1.14496
 C108 C 0.91483 1.05374 1.15790
 C109 C 0.90666 1.06243 1.18130
 H110 H 0.89089 1.05349 1.19030
 O111 O 1.09069 0.97574 1.12430
 O112 O 1.11978 0.97578 1.15349
 C113 C 1.09946 0.96724 1.14466
 C114 C 1.08617 0.94684 1.15784
 C115 C 1.09473 0.93812 1.18107
 H116 H 1.11074 0.94696 1.18974
 O117 O 1.02445 0.87603 1.09067
 O118 O 1.02448 0.84683 1.11975
 C119 C 1.03299 0.85568 1.09942
 C120 C 1.05339 0.84251 1.08608
 C121 C 1.06214 0.81929 1.09463
 H122 H 1.05334 0.81062 1.11067
 O123 O 0.97564 1.12480 1.08939
 O124 O 0.97572 1.15411 1.11837
 C125 C 0.96710 1.14516 1.09812
 C126 C 0.94647 1.15812 1.08495
 C127 C 0.93782 1.18148 1.09328
 H128 H 0.94692 1.19047 1.10897
 O129 O 0.87464 1.09000 1.02437
 O130 O 0.84533 1.11897 1.02440
 C131 C 0.85428 1.09870 1.03293
 C132 C 0.84132 1.08543 1.05348
 C133 C 0.81796 1.09369 1.06217
 H134 H 0.80894 1.10941 1.05315
 O135 O 1.12411 0.90954 1.02418
 O136 O 1.15332 0.88047 1.02414
 C137 C 1.14447 0.90078 1.03270
 C138 C 1.15763 0.91404 1.05315
 C139 C 1.18085 0.90546 1.06187
 H140 H 1.18954 0.88948 1.05299
 O141 O 0.97578 0.91026 1.12504
 O142 O 0.97576 0.88120 1.15426
 C143 C 0.96727 0.90153 1.14541
 C144 C 0.94682 0.91484 1.15850
 C145 C 0.93814 0.90649 1.18185
 H146 H 0.94708 0.89065 1.19074
 O147 O 1.02461 1.09063 1.12345
 O148 O 1.02473 1.11980 1.15256
 C149 C 1.03325 1.09946 1.14373
 C150 C 1.05376 1.08621 1.15683
 C151 C 1.06246 1.09477 1.18007
 H152 H 1.05356 1.11074 1.18877
 O153 O 0.87555 0.97600 1.09054
 O154 O 0.84641 0.97600 1.11969
 C155 C 0.85521 0.96749 1.09933
 C156 C 0.84212 0.94702 1.08601
 C157 C 0.81878 0.93832 1.09436
 H158 H 0.80989 0.94722 1.11022
 O159 O 1.12504 1.02436 1.08997
 O160 O 1.15425 1.02441 1.11904
 C161 C 1.14543 1.03286 1.09868
 C162 C 1.15858 1.05322 1.08530
 C163 C 1.18192 1.06189 1.09367
 H164 H 1.19075 1.05303 1.10959
 O165 O 0.90997 0.87587 1.02446
 O166 O 0.88088 0.84668 1.02458
 C167 C 0.90124 0.85552 1.03303
 C168 C 0.91458 0.84247 1.05351
 C169 C 0.90626 0.81910 1.06216
 H170 H 0.89045 0.81019 1.05319
 O171 O 1.09079 1.12417 1.02394
 O172 O 1.11996 1.15329 1.02386
 C173 C 1.09960 1.14452 1.03240
 C174 C 1.08627 1.15775 1.05275
 C175 C 1.09482 1.18101 1.06144
 H176 H 1.11087 1.18964 1.05264
 Cu177 Cu 1.10480 1.00007 1.10409
 Cu178 Cu 1.13978 1.00012 1.13907
 Cu179 Cu 0.89561 1.00032 1.10472
 Cu180 Cu 0.86077 1.00039 1.13985
 Cu181 Cu 1.00010 1.10484 1.10356
 Cu182 Cu 1.00023 1.13992 1.13843
 Cu183 Cu 1.00010 0.89611 1.10489
 Cu184 Cu 1.00010 0.86113 1.13987
 C185 C 1.06548 1.06555 1.14564
 H186 H 1.05915 1.05912 1.12752
 C187 C 1.08260 1.08296 1.19212
 C188 C 0.93496 0.93525 1.14701
 H189 H 0.94138 0.94162 1.12890
 C190 C 0.91755 0.91799 1.19344
 C191 C 1.06551 1.14663 1.06434
 H192 H 1.05910 1.12849 1.05804
 C193 C 1.08286 1.19313 1.08145
 C194 C 0.93495 0.85398 1.06542
 H195 H 0.94130 0.87211 1.05902
 C196 C 0.91774 0.80751 1.08277
 C197 C 1.14718 1.06498 1.06480
 H198 H 1.12907 1.05856 1.05842
 C199 C 1.19358 1.08240 1.08210
 C200 C 0.85360 0.93521 1.06556
 H201 H 0.87171 0.94163 1.05918
 C202 C 0.80718 0.91776 1.08280
 C203 C 0.93517 1.06560 1.14626
 H204 H 0.94141 1.05917 1.12811
 C205 C 0.91823 1.08304 1.19280
 C206 C 1.06547 0.93519 1.14668
 H207 H 1.05905 0.94153 1.12855
 C208 C 1.08287 0.91801 1.19313
 C209 C 1.14645 0.93471 1.06485
 H210 H 1.12834 0.94114 1.05852
 C211 C 1.19290 0.91727 1.08201
 C212 C 0.85298 1.06518 1.06544
 H213 H 0.87111 1.05888 1.05901
 C214 C 0.80650 1.08227 1.08288
 C215 C 0.93440 1.14650 1.06473
 H216 H 0.94080 1.12838 1.05837
 C217 C 0.91707 1.19297 1.08196
 C218 C 1.06498 0.85367 1.06533
 H219 H 1.05863 0.87178 1.05892
 C220 C 1.08222 0.80722 1.08272
 O221 O 1.08940 0.97563 0.87466
 O222 O 1.11837 0.97563 0.84534
 C223 C 1.09808 0.96712 0.85425
 C224 C 1.08479 0.94662 0.84121
 C225 C 1.09310 0.93796 0.81785
 H226 H 1.10886 0.94697 0.80890
 O227 O 0.91013 1.02447 0.87536
 O228 O 0.88111 1.02449 0.84609
 C229 C 0.90141 1.03303 0.85501
 C230 C 0.91467 1.05361 0.84205
 C231 C 0.90642 1.06226 0.81866
 H232 H 0.89073 1.05320 0.80964
 O233 O 0.97534 1.12517 0.91045
 O234 O 0.97528 1.15447 0.88146
 C235 C 0.96676 1.14552 0.90175
 C236 C 0.94617 1.15846 0.91501
 C237 C 0.93751 1.18183 0.90675
 H238 H 0.94658 1.19085 0.89105
 O239 O 1.02414 0.87532 0.90951
 O240 O 1.02405 0.84602 0.88053
 C241 C 1.03265 0.85495 0.90079
 C242 C 1.05314 0.84188 0.91405
 C243 C 1.06190 0.81867 0.90552
 H244 H 1.05303 0.80993 0.88956
 O245 O 1.12385 0.90968 0.97537
 O246 O 1.15310 0.88065 0.97528
 C247 C 1.14418 0.90096 0.96676
 C248 C 1.15715 0.91427 0.94619
 C249 C 1.18053 0.90600 0.93752
 H250 H 1.18949 0.89023 0.94650
 O251 O 0.87479 1.08987 0.97562
 O252 O 0.84547 1.11884 0.97559
 C253 C 0.85442 1.09856 0.96707
 C254 C 0.84147 1.08526 0.94653
 C255 C 0.81810 1.09350 0.93784
 H256 H 0.80910 1.10923 0.94685
 O257 O 1.02409 1.09101 0.87611
 O258 O 1.02407 1.12016 0.84698
 C259 C 1.03259 1.09980 0.85577
 C260 C 1.05294 1.08646 0.84252
 C261 C 1.06162 1.09502 0.81928
 H262 H 1.05284 1.11110 0.81067
 O263 O 0.97540 0.90947 0.87524
 O264 O 0.97525 0.88033 0.84609
 C265 C 0.96685 0.90072 0.85489
 C266 C 0.94650 0.91414 0.84175
 C267 C 0.93782 0.90583 0.81839
 H268 H 0.94664 0.88990 0.80955
 O269 O 1.12388 1.02419 0.90899
 O270 O 1.15298 1.02416 0.87980
 C271 C 1.14424 1.03267 0.90017
 C272 C 1.15753 1.05300 0.91348
 C273 C 1.18081 1.06161 0.90491
 H274 H 1.18943 1.05275 0.88889
 O275 O 0.87592 0.97576 0.90966
 O276 O 0.84674 0.97569 0.88055
 C277 C 0.85559 0.96720 0.90090
 C278 C 0.84245 0.94680 0.91426
 C279 C 0.81921 0.93807 0.90573
 H280 H 0.81053 0.94690 0.88972
 O281 O 1.09086 1.12424 0.97523
 O282 O 1.12006 1.15332 0.97510
 C283 C 1.09966 1.14457 0.96668
 C284 C 1.08627 1.15784 0.94641
 C285 C 1.09483 1.18108 0.93771
 H286 H 1.11096 1.18965 0.94642
 O287 O 0.90966 0.87588 0.97567
 O288 O 0.88052 0.84674 0.97576
 C289 C 0.90081 0.85556 0.96714
 C290 C 0.91396 0.84241 0.94663
 C291 C 0.90535 0.81916 0.93799
 H292 H 0.88941 0.81048 0.94695
 O293 O 0.90992 0.97566 0.87524
 O294 O 0.88087 0.97566 0.84601
 C295 C 0.90113 0.96709 0.85491
 C296 C 0.91429 0.94652 0.84187
 C297 C 0.90572 0.93781 0.81864
 H298 H 0.88985 0.94680 0.80987
 O299 O 1.08926 1.02440 0.87515
 O300 O 1.11821 1.02444 0.84582
 C301 C 1.09796 1.03300 0.85481
 C302 C 1.08473 1.05365 0.84193
 C303 C 1.09298 1.06232 0.81856
 H304 H 1.10867 1.05326 0.80953
 O305 O 0.97539 0.87537 0.90964
 O306 O 0.97523 0.84606 0.88067
 C307 C 0.96679 0.85500 0.90099
 C308 C 0.94635 0.84201 0.91441
 C309 C 0.93763 0.81863 0.90619
 H310 H 0.94651 0.80968 0.89036
 O311 O 1.02414 1.12523 0.91034
 O312 O 1.02411 1.15452 0.88135
 C313 C 1.03269 1.14558 0.90160
 C314 C 1.05333 1.15850 0.91478
 C315 C 1.06200 1.18186 0.90648
 H316 H 1.05289 1.19089 0.89083
 O317 O 0.87554 0.91022 0.97590
 O318 O 0.84626 0.88122 0.97596
 C319 C 0.85515 0.90153 0.96742
 C320 C 0.84209 0.91483 0.94691
 C321 C 0.81872 0.90652 0.93826
 H322 H 0.80978 0.89074 0.94726
 O323 O 1.12482 1.08971 0.97524
 O324 O 1.15416 1.11864 0.97509
 C325 C 1.14518 1.09834 0.96663
 C326 C 1.15811 1.08497 0.94612
 C327 C 1.18151 1.09315 0.93744
 H328 H 1.19053 1.10888 0.94644
 O329 O 1.02408 0.90941 0.87522
 O330 O 1.02401 0.88026 0.84608
 C331 C 1.03256 0.90061 0.85487
 C332 C 1.05291 0.91392 0.84166
 C333 C 1.06164 0.90535 0.81843
 H334 H 1.05284 0.88930 0.80979
 O335 O 0.97535 1.09100 0.87616
 O336 O 0.97528 1.12015 0.84702
 C337 C 0.96681 1.09978 0.85582
 C338 C 0.94648 1.08641 0.84260
 C339 C 0.93781 1.09493 0.81934
 H340 H 0.94662 1.11099 0.81071
 O341 O 0.87564 1.02450 0.90936
 O342 O 0.84649 1.02447 0.88022
 C343 C 0.85529 1.03300 0.90056
 C344 C 0.84204 1.05335 0.91385
 C345 C 0.81879 1.06201 0.90527
 H346 H 0.81017 1.05317 0.88923
 O347 O 1.12337 0.97540 0.90915
 O348 O 1.15248 0.97533 0.87998
 C349 C 1.14365 0.96679 0.90032
 C350 C 1.15676 0.94630 0.91358
 C351 C 1.18000 0.93759 0.90503
 H352 H 1.18869 0.94647 0.88905
 O353 O 1.08984 0.87519 0.97549
 O354 O 1.11893 0.84600 0.97543
 C355 C 1.09858 0.85483 0.96696
 C356 C 1.08525 0.84170 0.94654
 C357 C 1.09361 0.81835 0.93789
 H358 H 1.10947 0.80949 0.94682
 O359 O 0.90881 1.12429 0.97562
 O360 O 0.87966 1.15342 0.97563
 C361 C 0.90002 1.14464 0.96712
 C362 C 0.91337 1.15789 0.94679
 C363 C 0.90482 1.18114 0.93811
 H364 H 0.88874 1.18975 0.94689
 Cu365 Cu 1.10357 0.99990 0.89490
 Cu366 Cu 1.13843 0.99989 0.85980
 Cu367 Cu 0.89583 1.00011 0.89531
 Cu368 Cu 0.86089 1.00008 0.86028
 Cu369 Cu 1.10496 1.10411 0.99961
 Cu370 Cu 1.14008 1.13897 0.99947
 Cu371 Cu 1.10399 0.89537 0.99982
 Cu372 Cu 1.13899 0.86042 0.99976
 Cu373 Cu 0.89471 1.10415 0.99998
 Cu374 Cu 0.85963 1.13904 1.00001
 Cu375 Cu 0.89565 0.89593 1.00017
 Cu376 Cu 0.86061 0.86101 1.00028
 Cu377 Cu 0.99973 1.10520 0.89619
 Cu378 Cu 0.99967 1.14027 0.86129
 Cu379 Cu 0.99974 0.89530 0.89531
 Cu380 Cu 0.99961 0.86021 0.86043
 C381 C 1.06449 0.93467 0.85279
 H382 H 1.05816 0.94108 0.87091
 C383 C 1.08169 0.91727 0.80634
 C384 C 0.93490 1.06563 0.85370
 H385 H 0.94119 1.05924 0.87185
 C386 C 0.91783 1.08297 0.80718
 C387 C 0.93416 1.14680 0.93523
 H388 H 0.94058 1.12866 0.94153
 C389 C 0.91679 1.19330 0.91813
 C390 C 1.06482 0.85315 0.93468
 H391 H 1.05844 0.87127 0.94107
 C392 C 1.08210 0.80672 0.91732
 C393 C 1.14558 0.93461 0.93427
 H394 H 1.12745 0.94094 0.94069
 C395 C 1.19207 0.91750 0.91690
 C396 C 0.85312 1.06499 0.93459
 H397 H 0.87126 1.05870 0.94102
 C398 C 0.80663 1.08204 0.91717
 C399 C 1.06450 1.06566 0.85360
 H400 H 1.05820 1.05923 0.87173
 C401 C 1.08160 1.08305 0.80711
 C402 C 0.93480 0.93468 0.85317
 H403 H 0.94121 0.94103 0.87129
 C404 C 0.91737 0.91750 0.80672
 C405 C 1.14644 1.06469 0.93420
 H406 H 1.12828 1.05845 0.94062
 C407 C 1.19299 1.08164 0.91680
 C408 C 0.85363 0.93517 0.93497
 H409 H 0.87177 0.94151 0.94135
 C410 C 0.80716 0.91798 0.91762
 C411 C 1.06540 1.14681 0.93494
 H412 H 1.05898 1.12868 0.94127
 C413 C 1.08280 1.19327 0.91778
 C414 C 0.93457 0.85358 0.93483
 H415 H 0.94102 0.87171 0.94111
 C416 C 0.91708 0.80709 0.91782
 O417 O 0.97553 0.40920 0.37616
 O418 O 0.97541 0.38001 0.34707
 C419 C 0.96696 0.40039 0.35584
 C420 C 0.94658 0.41371 0.34264
 C421 C 0.93791 0.40516 0.31939
 H422 H 0.94675 0.38914 0.31075
 O423 O 1.02463 0.58985 0.37488
 O424 O 1.02471 0.61891 0.34566
 C425 C 1.03317 0.59857 0.35452
 C426 C 1.05360 0.58521 0.34145
 C427 C 1.06227 0.59352 0.31809
 H428 H 1.05337 0.60939 0.30921
 O429 O 0.87556 0.47568 0.40940
 O430 O 0.84641 0.47572 0.38027
 C431 C 0.85519 0.46722 0.40062
 C432 C 0.84190 0.44691 0.41395
 C433 C 0.81865 0.43826 0.40537
 H434 H 0.81005 0.44706 0.38931
 O435 O 1.12454 0.52390 0.40945
 O436 O 1.15373 0.52383 0.38035
 C437 C 1.14490 0.53238 0.40069
 C438 C 1.15798 0.55287 0.41398
 C439 C 1.18132 0.56157 0.40564
 H440 H 1.19023 0.55264 0.38980
 O441 O 0.90880 0.37611 0.47572
 O442 O 0.87958 0.34705 0.47570
 C443 C 0.89997 0.35579 0.46720
 C444 C 0.91332 0.34254 0.44687
 C445 C 0.90477 0.31928 0.43819
 H446 H 0.88867 0.31068 0.44695
 O447 O 1.09023 0.62430 0.47543
 O448 O 1.11934 0.65348 0.47535
 C449 C 1.09897 0.64466 0.46688
 C450 C 1.08565 0.65775 0.44641
 C451 C 1.09397 0.68112 0.43777
 H452 H 1.10976 0.69004 0.44675
 O453 O 0.90999 0.52429 0.37512
 O454 O 0.88093 0.52431 0.34590
 C455 C 0.90124 0.53282 0.35475
 C456 C 0.91454 0.55322 0.34161
 C457 C 0.90598 0.56196 0.31838
 H458 H 0.88999 0.55309 0.30968
 O459 O 1.09004 0.47524 0.37540
 O460 O 1.11901 0.47507 0.34610
 C461 C 1.09869 0.46662 0.35505
 C462 C 1.08530 0.44610 0.34212
 C463 C 1.09349 0.43741 0.31873
 H464 H 1.10924 0.44637 0.30972
 O465 O 1.02423 0.37489 0.41041
 O466 O 1.02414 0.34557 0.38145
 C467 C 1.03273 0.35450 0.40171
 C468 C 1.05331 0.34151 0.41491
 C469 C 1.06196 0.31816 0.40657
 H470 H 1.05288 0.30918 0.39087
 O471 O 0.97584 0.62400 0.40911
 O472 O 0.97585 0.65321 0.38004
 C473 C 0.96729 0.64433 0.40034
 C474 C 0.94680 0.65743 0.41362
 C475 C 0.93802 0.68064 0.40506
 H476 H 0.94686 0.68934 0.38906
 O477 O 0.87596 0.59025 0.47567
 O478 O 0.84674 0.61931 0.47562
 C479 C 0.85558 0.59896 0.46715
 C480 C 0.84248 0.58561 0.44670
 C481 C 0.81911 0.59396 0.43806
 H482 H 0.81023 0.60978 0.44702
 O483 O 1.12505 0.40973 0.47559
 O484 O 1.15432 0.38071 0.47560
 C485 C 1.14543 0.40102 0.46708
 C486 C 1.15846 0.41431 0.44658
 C487 C 1.18184 0.40603 0.43792
 H488 H 1.19081 0.39027 0.44692
 O489 O 0.97595 0.58988 0.37479
 O490 O 0.97597 0.61894 0.34557
 C491 C 0.96746 0.59861 0.35441
 C492 C 0.94703 0.58530 0.34132
 C493 C 0.93837 0.59363 0.31796
 H494 H 0.94730 0.60947 0.30908
 O495 O 1.02431 0.40913 0.37620
 O496 O 1.02423 0.37995 0.34710
 C497 C 1.03281 0.40029 0.35587
 C498 C 1.05324 0.41352 0.34264
 C499 C 1.06187 0.40495 0.31938
 H500 H 1.05296 0.38895 0.31074
 O501 O 1.12451 0.47517 0.40939
 O502 O 1.15364 0.47504 0.38023
 C503 C 1.14483 0.46659 0.40059
 C504 C 1.15801 0.44622 0.41391
 C505 C 1.18125 0.43754 0.40537
 H506 H 1.18991 0.44638 0.38935
 O507 O 0.87606 0.52444 0.40961
 O508 O 0.84687 0.52452 0.38052
 C509 C 0.85575 0.53305 0.40084
 C510 C 0.84270 0.55354 0.41414
 C511 C 0.81947 0.56231 0.40563
 H512 H 0.81073 0.55345 0.38966
 O513 O 0.91030 0.62441 0.47539
 O514 O 0.88124 0.65363 0.47532
 C515 C 0.90154 0.64473 0.46679
 C516 C 0.91479 0.65773 0.44622
 C517 C 0.90643 0.68107 0.43754
 H518 H 0.89063 0.68998 0.44653
 O519 O 1.09075 0.37556 0.47549
 O520 O 1.11987 0.34640 0.47547
 C521 C 1.09953 0.35522 0.46697
 C522 C 1.08616 0.34202 0.44663
 C523 C 1.09471 0.31879 0.43789
 H524 H 1.11080 0.31016 0.44662
 O525 O 1.09040 0.52402 0.37516
 O526 O 1.11944 0.52390 0.34591
 C527 C 1.09918 0.53252 0.35480
 C528 C 1.08599 0.55302 0.34169
 C529 C 1.09456 0.56174 0.31846
 H530 H 1.11050 0.55282 0.30974
 O531 O 0.91010 0.47553 0.37545
 O532 O 0.88109 0.47551 0.34618
 C533 C 0.90138 0.46696 0.35511
 C534 C 0.91465 0.44639 0.34215
 C535 C 0.90639 0.43771 0.31877
 H536 H 0.89065 0.44672 0.30978
 O537 O 1.02464 0.62399 0.40920
 O538 O 1.02471 0.65320 0.38014
 C539 C 1.03321 0.64433 0.40047
 C540 C 1.05364 0.65744 0.41381
 C541 C 1.06236 0.68069 0.40530
 H542 H 1.05351 0.68939 0.38932
 O543 O 0.97543 0.37515 0.41056
 O544 O 0.97532 0.34582 0.38161
 C545 C 0.96681 0.35481 0.40188
 C546 C 0.94618 0.34192 0.41513
 C547 C 0.93752 0.31854 0.40689
 H548 H 0.94661 0.30951 0.39122
 O549 O 1.12429 0.58990 0.47518
 O550 O 1.15354 0.61893 0.47511
 C551 C 1.14462 0.59865 0.46658
 C552 C 1.15768 0.58538 0.44608
 C553 C 1.18089 0.59394 0.43734
 H554 H 1.18960 0.60991 0.44623
 O555 O 0.87465 0.41040 0.47575
 O556 O 0.84527 0.38150 0.47575
 C557 C 0.85425 0.40176 0.46722
 C558 C 0.84131 0.41506 0.44668
 C559 C 0.81794 0.40682 0.43799
 H560 H 0.80892 0.39110 0.44701
 Cu561 Cu 0.99989 0.39500 0.39625
 Cu562 Cu 0.99976 0.35990 0.36139
 Cu563 Cu 1.00026 0.60402 0.39491
 Cu564 Cu 1.00032 0.63902 0.35995
 Cu565 Cu 0.89584 0.49997 0.39531
 Cu566 Cu 0.86090 0.50002 0.36029
 Cu567 Cu 1.10446 0.49959 0.39526
 Cu568 Cu 1.13937 0.49944 0.36020
 C569 C 0.93494 0.43444 0.35377
 H570 H 0.94125 0.44086 0.37190
 C571 C 0.91786 0.41705 0.30727
 C572 C 1.06539 0.56477 0.35293
 H573 H 1.05897 0.55842 0.37105
 C574 C 1.08281 0.58195 0.30648
 C575 C 0.85297 0.43531 0.43472
 H576 H 0.87111 0.44160 0.44115
 C577 C 0.80648 0.41825 0.41729
 C578 C 1.14647 0.56473 0.43439
 H579 H 1.12836 0.55831 0.44077
 C580 C 1.19290 0.58216 0.41716
 C581 C 0.93414 0.35360 0.43533
 H582 H 0.94056 0.37174 0.44162
 C583 C 0.91677 0.30710 0.41824
 C584 C 1.06529 0.64623 0.43449
 H585 H 1.05894 0.62809 0.44086
 C586 C 1.08248 0.69271 0.41717
 C587 C 0.93518 0.56489 0.35281
 H588 H 0.94159 0.55854 0.37094
 C589 C 0.91778 0.58213 0.30638
 C590 C 1.06497 0.43422 0.35376
 H591 H 1.05872 0.44065 0.37191
 C592 C 1.08194 0.41679 0.30723
 C593 C 1.06535 0.35312 0.43514
 H594 H 1.05894 0.37124 0.44149
 C595 C 1.08271 0.30667 0.41790
 C596 C 0.93516 0.64622 0.43431
 H597 H 0.94155 0.62812 0.44074
 C598 C 0.91788 0.69265 0.41692
 C599 C 0.85395 0.56521 0.43480
 H600 H 0.87208 0.55884 0.44118
 C601 C 0.80749 0.58247 0.41747
 C602 C 1.14687 0.43460 0.43463
 H603 H 1.12873 0.44092 0.44103
 C604 C 1.19336 0.41749 0.41726
 O605 O 1.02437 0.40911 0.62355
 O606 O 1.02439 0.37998 0.65270
 C607 C 1.03294 0.40031 0.64386
 C608 C 1.05339 0.41359 0.65701
 C609 C 1.06208 0.40505 0.68026
 H610 H 1.05323 0.38904 0.68893
 O611 O 0.97584 0.59050 0.62457
 O612 O 0.97593 0.61963 0.65372
 C613 C 0.96734 0.59932 0.64491
 C614 C 0.94689 0.58608 0.65807
 C615 C 0.93816 0.59467 0.68129
 H616 H 0.94702 0.61067 0.68996
 O617 O 0.87617 0.52457 0.59058
 O618 O 0.84702 0.52470 0.61971
 C619 C 0.85586 0.53317 0.59934
 C620 C 0.84281 0.55365 0.58599
 C621 C 0.81947 0.56234 0.59432
 H622 H 0.81059 0.55346 0.61019
 O623 O 1.12461 0.47550 0.59026
 O624 O 1.15375 0.47547 0.61939
 C625 C 1.14498 0.46700 0.59902
 C626 C 1.15816 0.44661 0.58570
 C627 C 1.18151 0.43797 0.59410
 H628 H 1.19032 0.44687 0.61001
 O629 O 1.09069 0.37546 0.52420
 O630 O 1.11979 0.34627 0.52423
 C631 C 1.09943 0.35509 0.53270
 C632 C 1.08604 0.34188 0.55302
 C633 C 1.09457 0.31863 0.56172
 H634 H 1.11063 0.30999 0.55294
 O635 O 0.91036 0.62477 0.52414
 O636 O 0.88130 0.65400 0.52412
 C637 C 0.90164 0.64517 0.53262
 C638 C 0.91497 0.65829 0.55305
 C639 C 0.90661 0.68164 0.56170
 H640 H 0.89078 0.69052 0.55273
 O641 O 0.91035 0.47571 0.62468
 O642 O 0.88140 0.47572 0.65401
 C643 C 0.90166 0.46714 0.64504
 C644 C 0.91492 0.44653 0.65795
 C645 C 0.90667 0.43785 0.68133
 H646 H 0.89097 0.44690 0.69035
 O647 O 1.09020 0.52422 0.62442
 O648 O 1.11922 0.52416 0.65369
 C649 C 1.09895 0.53274 0.64478
 C650 C 1.08575 0.55327 0.65786
 C651 C 1.09432 0.56197 0.68110
 H652 H 1.11021 0.55299 0.68985
 O653 O 0.97542 0.37502 0.58944
 O654 O 0.97539 0.34573 0.61843
 C655 C 0.96683 0.35468 0.59817
 C656 C 0.94618 0.34178 0.58497
 C657 C 0.93751 0.31841 0.59324
 H658 H 0.94661 0.30938 0.60890
 O659 O 1.02467 0.62451 0.59025
 O660 O 1.02481 0.65380 0.61924
 C661 C 1.03326 0.64487 0.59892
 C662 C 1.05372 0.65788 0.58553
 C663 C 1.06243 0.68125 0.59377
 H664 H 1.05355 0.69018 0.60961
 O665 O 0.87478 0.41046 0.52451
 O666 O 0.84539 0.38156 0.52456
 C667 C 0.85440 0.40182 0.53309
 C668 C 0.84149 0.41514 0.55365
 C669 C 0.81812 0.40691 0.56236
 H670 H 0.80909 0.39119 0.55335
 O671 O 1.12462 0.58989 0.52396
 O672 O 1.15391 0.61887 0.52393
 C673 C 1.14502 0.59856 0.53246
 C674 C 1.15807 0.58524 0.55295
 C675 C 1.18142 0.59355 0.56165
 H676 H 1.19036 0.60935 0.55270
 O677 O 1.02456 0.59030 0.62456
 O678 O 1.02472 0.61943 0.65372
 C679 C 1.03312 0.59903 0.64491
 C680 C 1.05349 0.58561 0.65803
 C681 C 1.06217 0.59390 0.68140
 H682 H 1.05333 0.60981 0.69026
 O683 O 0.97560 0.40915 0.62376
 O684 O 0.97557 0.38001 0.65290
 C685 C 0.96708 0.40038 0.64412
 C686 C 0.94675 0.41375 0.65737
 C687 C 0.93808 0.40519 0.68062
 H688 H 0.94687 0.38913 0.68924
 O689 O 1.12422 0.52423 0.59004
 O690 O 1.15337 0.52424 0.61917
 C691 C 1.14454 0.53278 0.59883
 C692 C 1.15768 0.55322 0.58555
 C693 C 1.18090 0.56194 0.59412
 H694 H 1.18956 0.55309 0.61013
 O695 O 0.87576 0.47582 0.59083
 O696 O 0.84666 0.47589 0.62001
 C697 C 0.85540 0.46736 0.59965
 C698 C 0.84211 0.44702 0.58636
 C699 C 0.81886 0.43837 0.59496
 H700 H 0.81027 0.44720 0.61102
 O701 O 1.09039 0.62411 0.52422
 O702 O 1.11955 0.65324 0.52417
 C703 C 1.09926 0.64441 0.53277
 C704 C 1.08610 0.65753 0.55331
 C705 C 1.09471 0.68076 0.56197
 H706 H 1.11064 0.68946 0.55301
 O707 O 0.90877 0.37601 0.52445
 O708 O 0.87955 0.34695 0.52449
 C709 C 0.89994 0.35569 0.53296
 C710 C 0.91330 0.34241 0.55326
 C711 C 0.90475 0.31916 0.56195
 H712 H 0.88864 0.31057 0.55319
 O713 O 1.08998 0.47540 0.62414
 O714 O 1.11897 0.47531 0.65342
 C715 C 1.09867 0.46680 0.64448
 C716 C 1.08537 0.44624 0.65744
 C717 C 1.09363 0.43757 0.68082
 H718 H 1.10938 0.44657 0.68979
 O719 O 0.91022 0.52448 0.62502
 O720 O 0.88123 0.52456 0.65432
 C721 C 0.90154 0.53303 0.64541
 C722 C 0.91487 0.55351 0.65844
 C723 C 0.90656 0.56220 0.68179
 H724 H 0.89076 0.55324 0.69072
 O725 O 0.97592 0.62456 0.59023
 O726 O 0.97599 0.65384 0.61924
 C727 C 0.96743 0.64494 0.59895
 C728 C 0.94700 0.65805 0.58563
 C729 C 0.93823 0.68127 0.59416
 H730 H 0.94706 0.68998 0.61015
 O731 O 1.02421 0.37480 0.58940
 O732 O 1.02422 0.34552 0.61841
 C733 C 1.03274 0.35442 0.59811
 C734 C 1.05327 0.34140 0.58484
 C735 C 1.06191 0.31802 0.59313
 H736 H 1.05287 0.30905 0.60886
 O737 O 1.12480 0.40976 0.52436
 O738 O 1.15403 0.38071 0.52442
 C739 C 1.14511 0.40099 0.53296
 C740 C 1.15811 0.41423 0.55350
 C741 C 1.18131 0.40570 0.56230
 H742 H 1.19009 0.38978 0.55340
 O743 O 0.87632 0.59037 0.52450
 O744 O 0.84711 0.61945 0.52449
 C745 C 0.85602 0.59919 0.53311
 C746 C 0.84301 0.58602 0.55372
 C747 C 0.81979 0.59459 0.56247
 H748 H 0.81104 0.61050 0.55353
 Cu749 Cu 0.99990 0.39492 0.60362
 Cu750 Cu 0.99989 0.35988 0.63853
 Cu751 Cu 1.00026 0.60455 0.60450
 Cu752 Cu 1.00039 0.63962 0.63940
 Cu753 Cu 0.89467 0.39616 0.50011
 Cu754 Cu 0.85950 0.36136 0.50013
 Cu755 Cu 1.10492 0.39555 0.49990
 Cu756 Cu 1.13995 0.36060 0.49993
 Cu757 Cu 0.89614 0.60454 0.49992
 Cu758 Cu 0.86116 0.63951 0.49988
 Cu759 Cu 1.10446 0.60415 0.49970
 Cu760 Cu 1.13952 0.63905 0.49963
 Cu761 Cu 0.89604 0.50014 0.60487
 Cu762 Cu 0.86116 0.50023 0.63995
 Cu763 Cu 1.10433 0.49982 0.60431
 Cu764 Cu 1.13923 0.49978 0.63936
 C765 C 1.06505 0.43430 0.64585
 H766 H 1.05873 0.44072 0.62772
 C767 C 1.08215 0.41693 0.69235
 C768 C 0.93524 0.56539 0.64690
 H769 H 0.94158 0.55896 0.62878
 C770 C 0.91804 0.58283 0.69334
 C771 C 0.85427 0.56543 0.56550
 H772 H 0.87238 0.55900 0.55913
 C773 C 0.80783 0.58286 0.58272
 C774 C 1.14678 0.43480 0.56521
 H775 H 1.12868 0.44119 0.55880
 C776 C 1.19319 0.41745 0.58256
 C777 C 1.06527 0.35300 0.56458
 H778 H 1.05888 0.37114 0.55825
 C779 C 1.08262 0.30652 0.58174
 C780 C 0.93536 0.64682 0.56496
 H781 H 0.94173 0.62869 0.55857
 C782 C 0.91807 0.69325 0.58230
 C783 C 0.93516 0.43453 0.64629
 H784 H 0.94146 0.44095 0.62815
 C785 C 0.91808 0.41714 0.69279
 C786 C 1.06522 0.56510 0.64659
 H787 H 1.05881 0.55876 0.62846
 C788 C 1.08264 0.58224 0.69305
 C789 C 0.93414 0.35346 0.56479
 H790 H 0.94056 0.37160 0.55848
 C791 C 0.91676 0.30697 0.58189
 C792 C 1.06550 0.64633 0.56510
 H793 H 1.05905 0.62821 0.55879
 C794 C 1.08297 0.69281 0.58216
 C795 C 0.85317 0.43539 0.56559
 H796 H 0.87131 0.44167 0.55914
 C797 C 0.80668 0.41836 0.58306
 C798 C 1.14652 0.56487 0.56485
 H799 H 1.12840 0.55853 0.55842
 C800 C 1.19295 0.58206 0.58229
 O801 O 0.47544 0.90997 0.37521
 O802 O 0.47531 0.88094 0.34595
 C803 C 0.46688 0.90129 0.35484
 C804 C 0.44644 0.91468 0.34181
 C805 C 0.43775 0.90643 0.31844
 H806 H 0.44667 0.89061 0.30950
 O807 O 0.52446 1.09037 0.37617
 O808 O 0.52448 1.11954 0.34706
 C809 C 0.53301 1.09919 0.35585
 C810 C 0.55343 1.08591 0.34265
 C811 C 0.56209 1.09450 0.31942
 H812 H 0.55321 1.11051 0.31078
 O813 O 0.37531 0.97579 0.41002
 O814 O 0.34610 0.97581 0.38095
 C815 C 0.35494 0.96729 0.40127
 C816 C 0.34186 0.94682 0.41458
 C817 C 0.31851 0.93814 0.40624
 H818 H 0.30962 0.94706 0.39039
 O819 O 0.62454 1.02433 0.40951
 O820 O 0.65365 1.02432 0.38034
 C821 C 0.64487 1.03284 0.40068
 C822 C 0.65810 1.05322 0.41395
 C823 C 0.68133 1.06190 0.40536
 H824 H 0.68994 1.05307 0.38931
 O825 O 0.40974 0.87555 0.47578
 O826 O 0.38061 0.84640 0.47578
 C827 C 0.40095 0.85522 0.46724
 C828 C 0.41420 0.84215 0.44671
 C829 C 0.40584 0.81881 0.43804
 H830 H 0.39004 0.80990 0.44703
 O831 O 0.59095 1.12379 0.47570
 O832 O 0.62011 1.15291 0.47567
 C833 C 0.59975 1.14412 0.46717
 C834 C 0.58639 1.15733 0.44680
 C835 C 0.59494 1.18057 0.43809
 H836 H 0.61101 1.18920 0.44687
 O837 O 0.40969 1.02457 0.37599
 O838 O 0.38064 1.02467 0.34676
 C839 C 0.40095 1.03319 0.35568
 C840 C 0.41423 1.05372 0.34266
 C841 C 0.40571 1.06252 0.31946
 H842 H 0.38976 1.05364 0.31070
 O843 O 0.59025 0.97544 0.37552
 O844 O 0.61927 0.97541 0.34626
 C845 C 0.59899 0.96687 0.35518
 C846 C 0.58572 0.94639 0.34211
 C847 C 0.59428 0.93764 0.31890
 H848 H 0.61025 0.94651 0.31019
 O849 O 0.52403 0.87552 0.40941
 O850 O 0.52399 0.84630 0.38035
 C851 C 0.53252 0.85514 0.40068
 C852 C 0.55298 0.84206 0.41401
 C853 C 0.56170 0.81871 0.40568
 H854 H 0.55282 0.80981 0.38982
 O855 O 0.47559 1.12452 0.41040
 O856 O 0.47559 1.15381 0.38141
 C857 C 0.46703 1.14487 0.40168
 C858 C 0.44644 1.15785 0.41492
 C859 C 0.43778 1.18120 0.40658
 H860 H 0.44682 1.19015 0.39083
 O861 O 0.37477 1.09004 0.47610
 O862 O 0.34549 1.11905 0.47615
 C863 C 0.35436 1.09874 0.46763
 C864 C 0.34131 1.08541 0.44716
 C865 C 0.31794 1.09371 0.43846
 H866 H 0.30899 1.10950 0.44740
 O867 O 0.62423 0.90974 0.47558
 O868 O 0.65345 0.88067 0.47554
 C869 C 0.64459 0.90100 0.46704
 C870 C 0.65772 0.91429 0.44660
 C871 C 0.68096 0.90574 0.43790
 H872 H 0.68968 0.88981 0.44684
 O873 O 0.47569 1.09040 0.37602
 O874 O 0.47567 1.11954 0.34688
 C875 C 0.46717 1.09917 0.35567
 C876 C 0.44671 1.08587 0.34254
 C877 C 0.43805 1.09426 0.31919
 H878 H 0.44697 1.11013 0.31035
 O879 O 0.52416 0.90981 0.37523
 O880 O 0.52411 0.88076 0.34600
 C881 C 0.53268 0.90106 0.35487
 C882 C 0.55319 0.91432 0.34182
 C883 C 0.56187 0.90598 0.31847
 H884 H 0.55292 0.89015 0.30957
 O885 O 0.62452 0.97562 0.40971
 O886 O 0.65369 0.97554 0.38060
 C887 C 0.64488 0.96709 0.40098
 C888 C 0.65798 0.94668 0.41437
 C889 C 0.68135 0.93800 0.40608
 H890 H 0.69024 0.94689 0.39022
 O891 O 0.37530 1.02452 0.41004
 O892 O 0.34612 1.02457 0.38093
 C893 C 0.35495 1.03305 0.40127
 C894 C 0.34176 1.05342 0.41458
 C895 C 0.31853 1.06210 0.40599
 H896 H 0.30989 1.05324 0.38998
 O897 O 0.40920 1.12403 0.47580
 O898 O 0.38010 1.15321 0.47582
 C899 C 0.40040 1.14434 0.46724
 C900 C 0.41370 1.15746 0.44678
 C901 C 0.40515 1.18067 0.43802
 H902 H 0.38911 1.18935 0.44681
 O903 O 0.58984 0.87569 0.47532
 O904 O 0.61895 0.84651 0.47524
 C905 C 0.59864 0.85540 0.46670
 C906 C 0.58542 0.84234 0.44618
 C907 C 0.59401 0.81914 0.43745
 H908 H 0.60996 0.81044 0.44637
 O909 O 0.59012 1.02423 0.37549
 O910 O 0.61908 1.02425 0.34616
 C911 C 0.59878 1.03277 0.35510
 C912 C 0.58544 1.05331 0.34214
 C913 C 0.59368 1.06203 0.31877
 H914 H 0.60945 1.05307 0.30977
 O915 O 0.40951 0.97576 0.37573
 O916 O 0.38043 0.97583 0.34652
 C917 C 0.40073 0.96726 0.35537
 C918 C 0.41397 0.94682 0.34219
 C919 C 0.40540 0.93815 0.31894
 H920 H 0.38944 0.94706 0.31026
 O921 O 0.52441 1.12455 0.41044
 O922 O 0.52444 1.15386 0.38147
 C923 C 0.53298 1.14491 0.40175
 C924 C 0.55358 1.15786 0.41500
 C925 C 0.56225 1.18123 0.40672
 H926 H 0.55319 1.19023 0.39101
 O927 O 0.47527 0.87584 0.40951
 O928 O 0.47514 0.84664 0.38042
 C929 C 0.46665 0.85553 0.40075
 C930 C 0.44618 0.84245 0.41407
 C931 C 0.43741 0.81924 0.40554
 H932 H 0.44624 0.81054 0.38954
 O933 O 0.62529 1.08969 0.47572
 O934 O 0.65461 1.11865 0.47572
 C935 C 0.64567 1.09838 0.46718
 C936 C 0.65864 1.08510 0.44664
 C937 C 0.68200 1.09338 0.43794
 H938 H 0.69100 1.10912 0.44694
 O939 O 0.37557 0.90983 0.47572
 O940 O 0.34630 0.88081 0.47573
 C941 C 0.35522 0.90109 0.46718
 C942 C 0.34213 0.91435 0.44670
 C943 C 0.31891 0.90579 0.43796
 H944 H 0.31020 0.88982 0.44685
 Cu945 Cu 0.49974 0.89569 0.39525
 Cu946 Cu 0.49963 0.86072 0.36026
 Cu947 Cu 0.50003 1.10455 0.39617
 Cu948 Cu 0.50005 1.13963 0.36130
 Cu949 Cu 0.39537 1.00014 0.39585
 Cu950 Cu 0.36042 1.00023 0.36084
 Cu951 Cu 0.60444 0.99991 0.39547
 Cu952 Cu 0.63933 0.99987 0.36039
 C953 C 0.43461 0.93507 0.35337
 H954 H 0.44103 0.94137 0.37151
 C955 C 0.41718 0.91800 0.30688
 C956 C 0.56511 1.06520 0.35376
 H957 H 0.55882 1.05876 0.37189
 C958 C 0.58217 1.08267 0.30729
 C959 C 0.35335 0.93498 0.43500
 H960 H 0.37146 0.94140 0.44137
 C961 C 0.30692 0.91756 0.41777
 C962 C 0.64701 1.06482 0.43471
 H963 H 0.62889 1.05851 0.44115
 C964 C 0.69347 1.08193 0.41724
 C965 C 0.43457 0.85366 0.43477
 H966 H 0.44096 0.87177 0.44117
 C967 C 0.41728 0.80723 0.41741
 C968 C 0.56560 1.14623 0.43525
 H969 H 0.55918 1.12810 0.44157
 C970 C 0.58297 1.19271 0.41810
 C971 C 0.43485 1.06540 0.35395
 H972 H 0.44125 1.05900 0.37206
 C973 C 0.41749 1.08275 0.30754
 C974 C 0.56506 0.93472 0.35332
 H975 H 0.55864 0.94110 0.37143
 C976 C 0.58247 0.91747 0.30690
 C977 C 0.56480 0.85355 0.43445
 H978 H 0.55836 0.87166 0.44082
 C979 C 0.58228 0.80714 0.41724
 C980 C 0.43445 1.14629 0.43521
 H981 H 0.44087 1.12818 0.44158
 C982 C 0.41709 1.19274 0.41796
 C983 C 0.35289 1.06507 0.43528
 H984 H 0.37101 1.05875 0.44170
 C985 C 0.30644 1.08221 0.41781
 C986 C 0.64649 0.93488 0.43483
 H987 H 0.62835 0.94128 0.44115
 C988 C 0.69296 0.91747 0.41769
 O989 O 0.52438 0.90915 0.62447
 O990 O 0.52441 0.88000 0.65360
 C991 C 0.53292 0.90035 0.64479
 C992 C 0.55333 0.91365 0.65796
 C993 C 0.56204 0.90511 0.68120
 H994 H 0.55320 0.88910 0.68989
 O995 O 0.47594 1.09059 0.62414
 O996 O 0.47600 1.11975 0.65327
 C997 C 0.46747 1.09939 0.64450
 C998 C 0.44713 1.08607 0.65776
 C999 C 0.43847 1.09464 0.68101
 H1000 H 0.44729 1.11069 0.68963
 O1001 O 0.37607 1.02436 0.59101
 O1002 O 0.34698 1.02435 0.62021
 C1003 C 0.35575 1.03290 0.59986
 C1004 C 0.34254 1.05333 0.58663
 C1005 C 0.31929 1.06199 0.59522
 H1006 H 0.31064 1.05310 0.61122
 O1007 O 0.62405 0.97533 0.59061
 O1008 O 0.65325 0.97518 0.61969
 C1009 C 0.64439 0.96674 0.59933
 C1010 C 0.65745 0.94630 0.58593
 C1011 C 0.68081 0.93760 0.59421
 H1012 H 0.68970 0.94646 0.61009
 O1013 O 0.58995 0.87512 0.52407
 O1014 O 0.61903 0.84592 0.52400
 C1015 C 0.59869 0.85471 0.53251
 C1016 C 0.58539 0.84153 0.55291
 C1017 C 0.59379 0.81818 0.56153
 H1018 H 0.60964 0.80933 0.55257
 O1019 O 0.40928 1.12444 0.52451
 O1020 O 0.38019 1.15364 0.52462
 C1021 C 0.40060 1.14484 0.53301
 C1022 C 0.41409 1.15803 0.55329
 C1023 C 0.40579 1.18139 0.56197
 H1024 H 0.38982 1.19021 0.55320
 O1025 O 0.41038 0.97554 0.62511
 O1026 O 0.38142 0.97554 0.65444
 C1027 C 0.40169 0.96700 0.64549
 C1028 C 0.41494 0.94644 0.65847
 C1029 C 0.40664 0.93780 0.68184
 H1030 H 0.39091 0.94685 0.69081
 O1031 O 0.58992 1.02411 0.62485
 O1032 O 0.61892 1.02408 0.65413
 C1033 C 0.59865 1.03267 0.64519
 C1034 C 0.58542 1.05329 0.65812
 C1035 C 0.59369 1.06200 0.68148
 H1036 H 0.60939 1.05297 0.69050
 O1037 O 0.47564 0.87498 0.59020
 O1038 O 0.47564 0.84565 0.61915
 C1039 C 0.46712 0.85458 0.59887
 C1040 C 0.44663 0.84158 0.58553
 C1041 C 0.43794 0.81821 0.59380
 H1042 H 0.44689 0.80925 0.60959
 O1043 O 0.52458 1.12479 0.58968
 O1044 O 0.52465 1.15410 0.61866
 C1045 C 0.53316 1.14516 0.59836
 C1046 C 0.55372 1.15812 0.58508
 C1047 C 0.56238 1.18150 0.59335
 H1048 H 0.55332 1.19050 0.60906
 O1049 O 0.37565 0.90998 0.52451
 O1050 O 0.34632 0.88103 0.52456
 C1051 C 0.35527 0.90132 0.53307
 C1052 C 0.34230 0.91465 0.55361
 C1053 C 0.31892 0.90640 0.56227
 H1054 H 0.30994 0.89065 0.55326
 O1055 O 0.62506 1.08950 0.52448
 O1056 O 0.65439 1.11846 0.52454
 C1057 C 0.64542 1.09817 0.53305
 C1058 C 0.65837 1.08485 0.55359
 C1059 C 0.68175 1.09308 0.56226
 H1060 H 0.69075 1.10882 0.55326
 O1061 O 0.52469 1.09057 0.62395
 O1062 O 0.52476 1.11975 0.65306
 C1063 C 0.53324 1.09938 0.64427
 C1064 C 0.55360 1.08606 0.65750
 C1065 C 0.56227 1.09465 0.68073
 H1066 H 0.55347 1.11072 0.68932
 O1067 O 0.47564 0.90917 0.62447
 O1068 O 0.47561 0.87999 0.65357
 C1069 C 0.46712 0.90036 0.64479
 C1070 C 0.44676 0.91368 0.65800
 C1071 C 0.43804 0.90514 0.68124
 H1072 H 0.44682 0.88908 0.68988
 O1073 O 0.62425 1.02406 0.59076
 O1074 O 0.65341 1.02399 0.61988
 C1075 C 0.64461 1.03254 0.59955
 C1076 C 0.65784 1.05292 0.58625
 C1077 C 0.68110 1.06157 0.59481
 H1078 H 0.68974 1.05272 0.61084
 O1079 O 0.37624 0.97557 0.59078
 O1080 O 0.34715 0.97551 0.61997
 C1081 C 0.35593 0.96701 0.59960
 C1082 C 0.34275 0.94661 0.58628
 C1083 C 0.31949 0.93792 0.59482
 H1084 H 0.31083 0.94677 0.61083
 O1085 O 0.59107 1.12398 0.52444
 O1086 O 0.62025 1.15309 0.52448
 C1087 C 0.59987 1.14432 0.53296
 C1088 C 0.58652 1.15757 0.55329
 C1089 C 0.59507 1.18082 0.56198
 H1090 H 0.61115 1.18944 0.55320
 O1091 O 0.40967 0.87553 0.52454
 O1092 O 0.38048 0.84644 0.52458
 C1093 C 0.40083 0.85522 0.53309
 C1094 C 0.41408 0.84203 0.55350
 C1095 C 0.40549 0.81879 0.56218
 H1096 H 0.38949 0.81014 0.55330
 O1097 O 0.58990 0.97534 0.62495
 O1098 O 0.61893 0.97525 0.65420
 C1099 C 0.59861 0.96677 0.64531
 C1100 C 0.58530 0.94627 0.65833
 C1101 C 0.59359 0.93763 0.68171
 H1102 H 0.60936 0.94663 0.69065
 O1103 O 0.41056 1.02430 0.62496
 O1104 O 0.38162 1.02433 0.65430
 C1105 C 0.40190 1.03285 0.64534
 C1106 C 0.41522 1.05338 0.65830
 C1107 C 0.40698 1.06206 0.68167
 H1108 H 0.39125 1.05305 0.69067
 O1109 O 0.47575 1.12465 0.58977
 O1110 O 0.47582 1.15393 0.61878
 C1111 C 0.46719 1.14498 0.59854
 C1112 C 0.44658 1.15798 0.58541
 C1113 C 0.43786 1.18121 0.59397
 H1114 H 0.44690 1.19000 0.60981
 O1115 O 0.52438 0.87510 0.59011
 O1116 O 0.52442 0.84581 0.61910
 C1117 C 0.53293 0.85474 0.59880
 C1118 C 0.55337 0.84168 0.58546
 C1119 C 0.56216 0.81847 0.59397
 H1120 H 0.55333 0.80973 0.60995
 O1121 O 0.62389 0.90965 0.52443
 O1122 O 0.65310 0.88058 0.52438
 C1123 C 0.64419 0.90084 0.53301
 C1124 C 0.65723 0.91399 0.55361
 C1125 C 0.68046 0.90541 0.56232
 H1126 H 0.68921 0.88952 0.55334
 O1127 O 0.37528 1.08996 0.52484
 O1128 O 0.34601 1.11897 0.52498
 C1129 C 0.35496 1.09867 0.53348
 C1130 C 0.34204 1.08537 0.55406
 C1131 C 0.31867 1.09360 0.56276
 H1132 H 0.30968 1.10935 0.55378
 Cu1133 Cu 0.50000 0.89502 0.60440
 Cu1134 Cu 0.50002 0.85992 0.63928
 Cu1135 Cu 0.50024 1.10475 0.60396
 Cu1136 Cu 0.50032 1.13983 0.63884
 Cu1137 Cu 0.39558 0.89563 0.50014
 Cu1138 Cu 0.36049 0.86076 0.50017
 Cu1139 Cu 0.60407 0.89547 0.49987
 Cu1140 Cu 0.63907 0.86051 0.49978
 Cu1141 Cu 0.39503 1.10420 0.50031
 Cu1142 Cu 0.36001 1.13914 0.50041
 Cu1143 Cu 0.60518 1.10383 0.50008
 Cu1144 Cu 0.64028 1.13869 0.50011
 Cu1145 Cu 0.39622 0.99994 0.60505
 Cu1146 Cu 0.36137 0.99993 0.64016
 Cu1147 Cu 0.60412 0.99971 0.60489
 Cu1148 Cu 0.63905 0.99961 0.63991
 C1149 C 0.56497 0.93434 0.64678
 H1150 H 0.55864 0.94074 0.62864
 C1151 C 0.58212 0.91700 0.69326
 C1152 C 0.43550 1.06533 0.64666
 H1153 H 0.44179 1.05890 0.62852
 C1154 C 0.41844 1.08274 0.69315
 C1155 C 0.35367 1.06504 0.56594
 H1156 H 0.37180 1.05875 0.55949
 C1157 C 0.30717 1.08207 0.58338
 C1158 C 0.64597 0.93454 0.56543
 H1159 H 0.62785 0.94098 0.55910
 C1160 C 0.69244 0.91711 0.58257
 C1161 C 0.56498 0.85296 0.56481
 H1162 H 0.55858 0.87108 0.55845
 C1163 C 0.58234 0.80654 0.58212
 C1164 C 0.43468 1.14665 0.56495
 H1165 H 0.44102 1.12852 0.55854
 C1166 C 0.41751 1.19310 0.58237
 C1167 C 0.43520 0.93445 0.64687
 H1168 H 0.44153 0.94086 0.62874
 C1169 C 0.41802 0.91710 0.69335
 C1170 C 0.56518 1.06527 0.64644
 H1171 H 0.55886 1.05882 0.62832
 C1172 C 0.58227 1.08273 0.69291
 C1173 C 0.43476 0.85317 0.56519
 H1174 H 0.44120 0.87130 0.55888
 C1175 C 0.41731 0.80670 0.58228
 C1176 C 0.56573 1.14648 0.56485
 H1177 H 0.55932 1.12834 0.55854
 C1178 C 0.58310 1.19297 0.58197
 C1179 C 0.35390 0.93496 0.56556
 H1180 H 0.37204 0.94126 0.55916
 C1181 C 0.30739 0.91787 0.58291
 C1182 C 0.64673 1.06457 0.56552
 H1183 H 0.62859 1.05829 0.55911
 C1184 C 0.69324 1.08160 0.58292
 O1185 O 0.47551 0.40949 0.87603
 O1186 O 0.47547 0.38040 0.84684
 C1187 C 0.46701 0.40077 0.85565
 C1188 C 0.44664 0.41417 0.84249
 C1189 C 0.43797 0.40583 0.81913
 H1190 H 0.44682 0.38990 0.81032
 O1191 O 0.52417 0.59084 0.87536
 O1192 O 0.52421 0.61994 0.84618
 C1193 C 0.53265 0.59955 0.85496
 C1194 C 0.55298 0.58613 0.84179
 C1195 C 0.56168 0.59445 0.81843
 H1196 H 0.55287 0.61038 0.80958
 O1197 O 0.37549 0.47582 0.90979
 O1198 O 0.34634 0.47591 0.88066
 C1199 C 0.35513 0.46735 0.90098
 C1200 C 0.34190 0.44694 0.91423
 C1201 C 0.31866 0.43829 0.90562
 H1202 H 0.31002 0.44720 0.88963
 O1203 O 0.62388 0.52452 0.90954
 O1204 O 0.65301 0.52457 0.88038
 C1205 C 0.64422 0.53305 0.90075
 C1206 C 0.65745 0.55339 0.91411
 C1207 C 0.68069 0.56208 0.90556
 H1208 H 0.68932 0.55328 0.88951
 O1209 O 0.40896 0.37583 0.97550
 O1210 O 0.37982 0.34669 0.97549
 C1211 C 0.40015 0.35551 0.96695
 C1212 C 0.41345 0.34235 0.94654
 C1213 C 0.40489 0.31912 0.93782
 H1214 H 0.38884 0.31048 0.94661
 O1215 O 0.59044 0.62422 0.97563
 O1216 O 0.61961 0.65333 0.97564
 C1217 C 0.59930 0.64451 0.96706
 C1218 C 0.58613 0.65765 0.94656
 C1219 C 0.59475 0.68087 0.93788
 H1220 H 0.61072 0.68954 0.94680
 O1221 O 0.40988 0.52456 0.87559
 O1222 O 0.38086 0.52462 0.84633
 C1223 C 0.40117 0.53312 0.85522
 C1224 C 0.41444 0.55365 0.84219
 C1225 C 0.40610 0.56230 0.81883
 H1226 H 0.39032 0.55329 0.80990
 O1227 O 0.58957 0.47583 0.87529
 O1228 O 0.61853 0.47582 0.84597
 C1229 C 0.59826 0.46727 0.85492
 C1230 C 0.58499 0.44669 0.84197
 C1231 C 0.59327 0.43799 0.81861
 H1232 H 0.60899 0.44702 0.80960
 O1233 O 0.52419 0.37528 0.91040
 O1234 O 0.52423 0.34600 0.88140
 C1235 C 0.53277 0.35493 0.90169
 C1236 C 0.55337 0.34200 0.91494
 C1237 C 0.56204 0.31863 0.90666
 H1238 H 0.55298 0.30962 0.89096
 O1239 O 0.47579 0.62522 0.90990
 O1240 O 0.47574 0.65452 0.88092
 C1241 C 0.46729 0.64563 0.90126
 C1242 C 0.44690 0.65870 0.91469
 C1243 C 0.43819 0.68207 0.90645
 H1244 H 0.44707 0.69101 0.89060
 O1245 O 0.37597 0.59049 0.97579
 O1246 O 0.34673 0.61953 0.97586
 C1247 C 0.35562 0.59925 0.96727
 C1248 C 0.34253 0.58602 0.94675
 C1249 C 0.31931 0.59457 0.93802
 H1250 H 0.31057 0.61051 0.94693
 O1251 O 0.62496 0.41042 0.97560
 O1252 O 0.65426 0.38144 0.97550
 C1253 C 0.64531 0.40173 0.96701
 C1254 C 0.65823 0.41503 0.94645
 C1255 C 0.68160 0.40680 0.93774
 H1256 H 0.69063 0.39108 0.94674
 O1257 O 0.47545 0.59082 0.87588
 O1258 O 0.47539 0.61995 0.84671
 C1259 C 0.46685 0.59963 0.85559
 C1260 C 0.44637 0.58633 0.84251
 C1261 C 0.43761 0.59486 0.81929
 H1262 H 0.44642 0.61087 0.81059
 O1263 O 0.52423 0.40939 0.87607
 O1264 O 0.52426 0.38026 0.84691
 C1265 C 0.53277 0.40061 0.85573
 C1266 C 0.55314 0.41393 0.84252
 C1267 C 0.56184 0.40536 0.81929
 H1268 H 0.55304 0.38930 0.81067
 O1269 O 0.62402 0.47578 0.90932
 O1270 O 0.65311 0.47581 0.88013
 C1271 C 0.64435 0.46728 0.90048
 C1272 C 0.65762 0.44692 0.91376
 C1273 C 0.68087 0.43828 0.90516
 H1274 H 0.68947 0.44712 0.88910
 O1275 O 0.37573 0.52457 0.90995
 O1276 O 0.34656 0.52469 0.88084
 C1277 C 0.35539 0.53315 0.90121
 C1278 C 0.34232 0.55360 0.91456
 C1279 C 0.31896 0.56227 0.90624
 H1280 H 0.31008 0.55336 0.89038
 O1281 O 0.41011 0.62477 0.97580
 O1282 O 0.38099 0.65393 0.97590
 C1283 C 0.40130 0.64511 0.96732
 C1284 C 0.41450 0.65830 0.94687
 C1285 C 0.40590 0.68154 0.93823
 H1286 H 0.38995 0.69021 0.94718
 O1287 O 0.59080 0.37612 0.97561
 O1288 O 0.61995 0.34698 0.97553
 C1289 C 0.59958 0.35578 0.96706
 C1290 C 0.58620 0.34256 0.94672
 C1291 C 0.59475 0.31932 0.93801
 H1292 H 0.61083 0.31070 0.94678
 O1293 O 0.58967 0.52465 0.87531
 O1294 O 0.61867 0.52465 0.84603
 C1295 C 0.59841 0.53322 0.85497
 C1296 C 0.58522 0.55377 0.84193
 C1297 C 0.59379 0.56248 0.81871
 H1298 H 0.60967 0.55349 0.80995
 O1299 O 0.40995 0.47572 0.87584
 O1300 O 0.38093 0.47576 0.84659
 C1301 C 0.40119 0.46715 0.85552
 C1302 C 0.41437 0.44654 0.84253
 C1303 C 0.40584 0.43778 0.81932
 H1304 H 0.38997 0.44675 0.81052
 O1305 O 0.52450 0.62481 0.90985
 O1306 O 0.52455 0.65410 0.88086
 C1307 C 0.53309 0.64514 0.90114
 C1308 C 0.55364 0.65809 0.91445
 C1309 C 0.56237 0.68144 0.90619
 H1310 H 0.55344 0.69041 0.89039
 O1311 O 0.47537 0.37519 0.91022
 O1312 O 0.47536 0.34593 0.88120
 C1313 C 0.46680 0.35485 0.90148
 C1314 C 0.44621 0.34188 0.91470
 C1315 C 0.43753 0.31852 0.90638
 H1316 H 0.44657 0.30954 0.89065
 O1317 O 0.62458 0.58991 0.97592
 O1318 O 0.65389 0.61888 0.97590
 C1319 C 0.64497 0.59858 0.96739
 C1320 C 0.65797 0.58526 0.94686
 C1321 C 0.68134 0.59353 0.93818
 H1322 H 0.69033 0.60926 0.94720
 O1323 O 0.37482 0.41011 0.97572
 O1324 O 0.34551 0.38114 0.97568
 C1325 C 0.35443 0.40146 0.96720
 C1326 C 0.34142 0.41485 0.94674
 C1327 C 0.31806 0.40661 0.93802
 H1328 H 0.30909 0.39081 0.94693
 Cu1329 Cu 0.49981 0.39524 0.89610
 Cu1330 Cu 0.49983 0.36020 0.86118
 Cu1331 Cu 0.49999 0.60501 0.89565
 Cu1332 Cu 0.49997 0.64006 0.86074
 Cu1333 Cu 0.39568 0.50018 0.89570
 Cu1334 Cu 0.36077 0.50026 0.86066
 Cu1335 Cu 0.60386 0.50018 0.89527
 Cu1336 Cu 0.63874 0.50021 0.86018
 C1337 C 0.43489 0.43472 0.85387
 H1338 H 0.44129 0.44110 0.87199
 C1339 C 0.41752 0.41747 0.80743
 C1340 C 0.56469 0.56559 0.85321
 H1341 H 0.55828 0.55924 0.87133
 C1342 C 0.58215 0.58278 0.80678
 C1343 C 0.35303 0.43521 0.93490
 H1344 H 0.37116 0.44150 0.94134
 C1345 C 0.30656 0.41817 0.91741
 C1346 C 0.64634 0.56499 0.93488
 H1347 H 0.62820 0.55868 0.94129
 C1348 C 0.69282 0.58211 0.91749
 C1349 C 0.43422 0.35347 0.93497
 H1350 H 0.44064 0.37159 0.94132
 C1351 C 0.41683 0.30702 0.91778
 C1352 C 0.56547 0.64650 0.93482
 H1353 H 0.55901 0.62839 0.94114
 C1354 C 0.58297 0.69296 0.91774
 C1355 C 0.43477 0.56562 0.85371
 H1356 H 0.44114 0.55922 0.87183
 C1357 C 0.41752 0.58295 0.80726
 C1358 C 0.56472 0.43472 0.85361
 H1359 H 0.55840 0.44115 0.87173
 C1360 C 0.58186 0.41728 0.80714
 C1361 C 0.56539 0.35365 0.93517
 H1362 H 0.55898 0.37178 0.94149
 C1363 C 0.58278 0.30717 0.91803
 C1364 C 0.43512 0.64714 0.93510
 H1365 H 0.44155 0.62900 0.94139
 C1366 C 0.41764 0.69361 0.91806
 C1367 C 0.35379 0.56542 0.93501
 H1368 H 0.37191 0.55900 0.94136
 C1369 C 0.30733 0.58280 0.91780
 C1370 C 0.64656 0.43529 0.93452
 H1371 H 0.62843 0.44157 0.94097
 C1372 C 0.69305 0.41827 0.91704
 O1373 O 0.52446 0.40951 1.12399
 O1374 O 0.52444 0.38030 1.15305
 C1375 C 0.53299 0.40064 1.14429
 C1376 C 0.55343 0.41385 1.15753
 C1377 C 0.56206 0.40523 1.18077
 H1378 H 0.55316 0.38922 1.18939
 O1379 O 0.47590 0.59010 1.12485
 O1380 O 0.47589 0.61917 1.15407
 C1381 C 0.46739 0.59883 1.14522
 C1382 C 0.44692 0.58553 1.15829
 C1383 C 0.43825 0.59386 1.18164
 H1384 H 0.44719 0.60968 1.19055
 O1385 O 0.37561 0.52427 1.09032
 O1386 O 0.34642 0.52435 1.11942
 C1387 C 0.35526 0.53282 1.09906
 C1388 C 0.34221 0.55329 1.08571
 C1389 C 0.31883 0.56197 1.09398
 H1390 H 0.30989 0.55303 1.10979
 O1391 O 0.62450 0.47561 1.09077
 O1392 O 0.65365 0.47552 1.11990
 C1393 C 0.64483 0.46706 1.09954
 C1394 C 0.65802 0.44671 1.08618
 C1395 C 0.68126 0.43800 1.09471
 H1396 H 0.68990 0.44680 1.11076
 O1397 O 0.59083 0.37612 1.02435
 O1398 O 0.61996 0.34698 1.02434
 C1399 C 0.59961 0.35578 1.03285
 C1400 C 0.58625 0.34256 1.05320
 C1401 C 0.59478 0.31932 1.06192
 H1402 H 0.61086 0.31068 1.05316
 O1403 O 0.41018 0.62474 1.02456
 O1404 O 0.38109 0.65393 1.02466
 C1405 C 0.40144 0.64508 1.03312
 C1406 C 0.41475 0.65813 1.05360
 C1407 C 0.40642 0.68149 1.06227
 H1408 H 0.39061 0.69040 1.05331
 O1409 O 0.40998 0.47569 1.12460
 O1410 O 0.38101 0.47567 1.15391
 C1411 C 0.40132 0.46717 1.14499
 C1412 C 0.41469 0.44668 1.15800
 C1413 C 0.40645 0.43798 1.18138
 H1414 H 0.39066 0.44692 1.19035
 O1415 O 0.59031 0.52429 1.12511
 O1416 O 0.61932 0.52425 1.15438
 C1417 C 0.59902 0.53277 1.14550
 C1418 C 0.58570 0.55322 1.15857
 C1419 C 0.59403 0.56189 1.18193
 H1420 H 0.60985 0.55295 1.19084
 O1421 O 0.47550 0.37558 1.08966
 O1422 O 0.47550 0.34627 1.11864
 C1423 C 0.46691 0.35524 1.09840
 C1424 C 0.44631 0.34224 1.08523
 C1425 C 0.43759 0.31902 1.09380
 H1426 H 0.44661 0.31024 1.10965
 O1427 O 0.52457 0.62427 1.09046
 O1428 O 0.52461 0.65351 1.11951
 C1429 C 0.53312 0.64462 1.09919
 C1430 C 0.55356 0.65772 1.08586
 C1431 C 0.56230 0.68096 1.09437
 H1432 H 0.55344 0.68969 1.11033
 O1433 O 0.37494 0.40994 1.02446
 O1434 O 0.34564 0.38096 1.02451
 C1435 C 0.35459 0.40124 1.03304
 C1436 C 0.34163 0.41453 1.05358
 C1437 C 0.31827 0.40626 1.06228
 H1438 H 0.30929 0.39049 1.05332
 O1439 O 0.62432 0.59007 1.02474
 O1440 O 0.65358 0.61909 1.02475
 C1441 C 0.64464 0.59884 1.03334
 C1442 C 0.65766 0.58566 1.05392
 C1443 C 0.68087 0.59425 1.06265
 H1444 H 0.68961 0.61015 1.05368
 O1445 O 0.52464 0.59020 1.12482
 O1446 O 0.52467 0.61931 1.15400
 C1447 C 0.53319 0.59899 1.14514
 C1448 C 0.55364 0.58574 1.15827
 C1449 C 0.56236 0.59430 1.18149
 H1450 H 0.55349 0.61028 1.19019
 O1451 O 0.47568 0.40967 1.12400
 O1452 O 0.47565 0.38048 1.15309
 C1453 C 0.46715 0.40085 1.14433
 C1454 C 0.44675 0.41413 1.15754
 C1455 C 0.43810 0.40555 1.18079
 H1456 H 0.44699 0.38956 1.18944
 O1457 O 0.62446 0.52433 1.09079
 O1458 O 0.65366 0.52434 1.11988
 C1459 C 0.64482 0.53286 1.09954
 C1460 C 0.65789 0.55332 1.08620
 C1461 C 0.68124 0.56204 1.09452
 H1462 H 0.69012 0.55318 1.11040
 O1463 O 0.37560 0.47552 1.09054
 O1464 O 0.34647 0.47554 1.11970
 C1465 C 0.35528 0.46698 1.09938
 C1466 C 0.34210 0.44654 1.08615
 C1467 C 0.31886 0.43787 1.09475
 H1468 H 0.31021 0.44675 1.11075
 O1469 O 0.59024 0.62444 1.02440
 O1470 O 0.61936 0.65361 1.02443
 C1471 C 0.59898 0.64481 1.03290
 C1472 C 0.58564 0.65795 1.05332
 C1473 C 0.59398 0.68132 1.06196
 H1474 H 0.60981 0.69019 1.05300
 O1475 O 0.40914 0.37567 1.02421
 O1476 O 0.38002 0.34649 1.02430
 C1477 C 0.40042 0.35529 1.03272
 C1478 C 0.41387 0.34213 1.05305
 C1479 C 0.40556 0.31878 1.06176
 H1480 H 0.38961 0.30994 1.05297
 O1481 O 0.59015 0.47556 1.12483
 O1482 O 0.61913 0.47544 1.15413
 C1483 C 0.59882 0.46695 1.14518
 C1484 C 0.58547 0.44641 1.15810
 C1485 C 0.59368 0.43768 1.18146
 H1486 H 0.60945 0.44662 1.19047
 O1487 O 0.40984 0.52445 1.12454
 O1488 O 0.38080 0.52449 1.15379
 C1489 C 0.40110 0.53302 1.14488
 C1490 C 0.41438 0.55348 1.15798
 C1491 C 0.40582 0.56221 1.18120
 H1492 H 0.38984 0.55335 1.18990
 O1493 O 0.47579 0.62435 1.09064
 O1494 O 0.47579 0.65356 1.11972
 C1495 C 0.46725 0.64469 1.09942
 C1496 C 0.44679 0.65782 1.08615
 C1497 C 0.43806 0.68104 1.09471
 H1498 H 0.44692 0.68974 1.11069
 O1499 O 0.52433 0.37543 1.08958
 O1500 O 0.52432 0.34609 1.11853
 C1501 C 0.53287 0.35504 1.09826
 C1502 C 0.55343 0.34206 1.08499
 C1503 C 0.56208 0.31869 1.09329
 H1504 H 0.55301 0.30971 1.10900
 O1505 O 0.62509 0.41032 1.02437
 O1506 O 0.65438 0.38133 1.02432
 C1507 C 0.64547 0.40161 1.03289
 C1508 C 0.65847 0.41485 1.05344
 C1509 C 0.68185 0.40655 1.06210
 H1510 H 0.69082 0.39081 1.05306
 O1511 O 0.37604 0.59039 1.02461
 O1512 O 0.34682 0.61945 1.02469
 C1513 C 0.35571 0.59913 1.03318
 C1514 C 0.34258 0.58582 1.05362
 C1515 C 0.31933 0.59436 1.06230
 H1516 H 0.31064 0.61033 1.05340
 Cu1517 Cu 0.50001 0.39546 1.10389
 Cu1518 Cu 0.49998 0.36034 1.13873
 Cu1519 Cu 0.50022 0.60431 1.10478
 Cu1520 Cu 0.50024 0.63932 1.13974
 Cu1521 Cu 0.39487 0.39580 0.99998
 Cu1522 Cu 0.35981 0.36090 1.00000
 Cu1523 Cu 0.60502 0.39617 0.99999
 Cu1524 Cu 0.64007 0.36126 0.99992
 Cu1525 Cu 0.39599 0.60468 1.00019
 Cu1526 Cu 0.36096 0.63962 1.00030
 Cu1527 Cu 0.60448 0.60425 1.00017
 Cu1528 Cu 0.63956 0.63913 1.00018
 Cu1529 Cu 0.39566 0.49998 1.10458
 Cu1530 Cu 0.36075 0.50002 1.13964
 Cu1531 Cu 0.60444 0.49997 1.10496
 Cu1532 Cu 0.63937 0.49988 1.14001
 C1533 C 0.56514 0.43456 1.14644
 H1534 H 0.55887 0.44102 1.12831
 C1535 C 0.58214 0.41704 1.19292
 C1536 C 0.43504 0.56514 1.14677
 H1537 H 0.44145 0.55878 1.12865
 C1538 C 0.41764 0.58236 1.19321
 C1539 C 0.35376 0.56517 1.06533
 H1540 H 0.37190 0.55877 1.05901
 C1541 C 0.30727 0.58256 1.08243
 C1542 C 0.64688 0.43513 1.06543
 H1543 H 0.62875 0.44146 1.05903
 C1544 C 0.69336 0.41796 1.08278
 C1545 C 0.56545 0.35368 1.06475
 H1546 H 0.55905 0.37181 1.05842
 C1547 C 0.58280 0.30719 1.08192
 C1548 C 0.43513 0.64662 1.06548
 H1549 H 0.44148 0.62849 1.05907
 C1550 C 0.41792 0.69307 1.08287
 C1551 C 0.43504 0.43481 1.14641
 H1552 H 0.44133 0.44124 1.12827
 C1553 C 0.41799 0.41737 1.19289
 C1554 C 0.56531 0.56509 1.14706
 H1555 H 0.55896 0.55867 1.12894
 C1556 C 0.58252 0.58248 1.19351
 C1557 C 0.43444 0.35355 1.06474
 H1558 H 0.44079 0.37167 1.05832
 C1559 C 0.41727 0.30711 1.08219
 C1560 C 0.56523 0.64647 1.06522
 H1561 H 0.55888 0.62834 1.05885
 C1562 C 0.58247 0.69294 1.08253
 C1563 C 0.35323 0.43486 1.06546
 H1564 H 0.37136 0.44117 1.05902
 C1565 C 0.30676 0.41778 1.08292
 C1566 C 0.64642 0.56508 1.06571
 H1567 H 0.62831 0.55864 1.05934
 C1568 C 0.69285 0.58256 1.08289
 C1569 C 1.12011 1.12101 1.28360
 N1570 N 1.13422 1.10657 1.29895
 N1571 N 1.14377 1.11598 1.31993
 C1572 C 1.13971 1.14023 1.32635
 N1573 N 1.12553 1.15460 1.31093
 N1574 N 1.11588 1.14518 1.29002
 C1575 C 1.10997 1.11086 1.26020
 N1576 N 1.09404 1.12462 1.24606
 N1577 N 1.08520 1.11565 1.22459
 C1578 C 1.09201 1.09262 1.21634
 N1579 N 1.10795 1.07887 1.23055
 N1580 N 1.11672 1.08779 1.25209
 C1581 C 1.12109 0.61994 0.78426
 N1582 N 1.14531 0.61580 0.79052
 N1583 N 1.15485 0.62553 0.81134
 C1584 C 1.14055 0.63970 0.82683
 N1585 N 1.11623 0.64366 0.82058
 N1586 N 1.10671 0.63404 0.79968
 C1587 C 1.11081 0.60974 0.76095
 N1588 N 1.08772 0.61650 0.75291
 N1589 N 1.07870 0.60769 0.73143
 C1590 C 1.09238 0.59169 0.71721
 N1591 N 1.11542 0.58486 0.72540
 N1592 N 1.12449 0.59375 0.74680
 C1593 C 0.61979 1.12107 0.78424
 N1594 N 0.63377 1.10663 0.79970
 N1595 N 0.64339 1.11611 0.82062
 C1596 C 0.63952 1.14044 0.82685
 N1597 N 0.62545 1.15481 0.81134
 N1598 N 0.61573 1.14530 0.79049
 C1599 C 0.60963 1.11083 0.76089
 N1600 N 0.59384 1.12461 0.74663
 N1601 N 0.58500 1.11558 0.72519
 C1602 C 0.59168 1.09245 0.71709
 N1603 N 0.60748 1.07868 0.73143
 N1604 N 0.61624 1.08766 0.75294
 C1605 C 0.62044 0.62090 1.28462
 N1606 N 0.63445 0.60650 1.30009
 N1607 N 0.64408 0.61604 1.32098
 C1608 C 0.64020 0.64038 1.32716
 N1609 N 0.62613 0.65471 1.31161
 N1610 N 0.61639 0.64515 1.29080
 C1611 C 0.61019 0.61062 1.26133
 N1612 N 0.59429 0.62437 1.24716
 N1613 N 0.58534 0.61531 1.22578
 C1614 C 0.59202 0.59220 1.21764
 N1615 N 0.60793 0.57846 1.23190
 N1616 N 0.61680 0.58747 1.25336
 C1617 C 0.87909 0.87992 1.28448
 N1618 N 0.85484 0.88396 1.29069
 N1619 N 0.84529 0.87416 1.31148
 C1620 C 0.85961 0.86002 1.32697
 N1621 N 0.88395 0.85615 1.32077
 N1622 N 0.89349 0.86585 1.29991
 C1623 C 0.88937 0.89022 1.26122
 N1624 N 0.91252 0.88360 1.25323
 N1625 N 0.92154 0.89250 1.23179
 C1626 C 0.90782 0.90846 1.21756
 N1627 N 0.88471 0.91514 1.22571
 N1628 N 0.87564 0.90616 1.24707
 C1629 C 0.88020 0.37908 0.78410
 N1630 N 0.86613 0.39358 0.79943
 N1631 N 0.85641 0.38417 0.82034
 C1632 C 0.86025 0.35987 0.82669
 N1633 N 0.87440 0.34544 0.81129
 N1634 N 0.88422 0.35487 0.79045
 C1635 C 0.89049 0.38924 0.76077
 N1636 N 0.90632 0.37541 0.74660
 N1637 N 0.91526 0.38438 0.72517
 C1638 C 0.90864 0.40749 0.71699
 N1639 N 0.89280 0.42131 0.73124
 N1640 N 0.88394 0.41240 0.75274
 C1641 C 0.37979 0.87906 0.78450
 N1642 N 0.38381 0.85484 0.79084
 N1643 N 0.37396 0.84540 0.81166
 C1644 C 0.35981 0.85982 0.82706
 N1645 N 0.35595 0.88412 0.82072
 N1646 N 0.36569 0.89354 0.79982
 C1647 C 0.39016 0.88922 0.76122
 N1648 N 0.38366 0.91238 0.75317
 N1649 N 0.39261 0.92130 0.73171
 C1650 C 0.40849 0.90746 0.71751
 N1651 N 0.41508 0.88435 0.72572
 N1652 N 0.40605 0.87538 0.74711
 C1653 C 0.38036 0.37897 1.28417
 N1654 N 0.36624 0.39335 1.29956
 N1655 N 0.35660 0.38384 1.32045
 C1656 C 0.36057 0.35954 1.32673
 N1657 N 0.37478 0.34523 1.31128
 N1658 N 0.38452 0.35476 1.29046
 C1659 C 0.39056 0.38923 1.26084
 N1660 N 0.40649 0.37552 1.24666
 N1661 N 0.41536 0.38457 1.22524
 C1662 C 0.40858 0.40764 1.21707
 N1663 N 0.39264 0.42135 1.23134
 N1664 N 0.38385 0.41234 1.25283
 C1665 C 0.88020 1.12099 0.71577
 N1666 N 0.86620 1.10649 0.70038
 N1667 N 0.85654 1.11591 0.67945
 C1668 C 0.86037 1.14023 0.67314
 N1669 N 0.87445 1.15466 0.68859
 N1670 N 0.88421 1.14522 0.70945
 C1671 C 0.89041 1.11084 0.73913
 N1672 N 0.90619 1.12468 0.75334
 N1673 N 0.91507 1.11572 0.77480
 C1674 C 0.90842 1.09261 0.78297
 N1675 N 0.89263 1.07877 0.76867
 N1676 N 0.88384 1.08768 0.74715
 C1677 C 0.87928 0.62025 0.21539
 N1678 N 0.89367 0.63429 0.19994
 N1679 N 0.88411 0.64399 0.17909
 C1680 C 0.85976 0.64014 0.17293
 N1681 N 0.84544 0.62604 0.18846
 N1682 N 0.85501 0.61624 0.20923
 C1683 C 0.88958 0.60993 0.23864
 N1684 N 0.87585 0.59400 0.25279
 N1685 N 0.88492 0.58500 0.27414
 C1686 C 0.90804 0.59166 0.28226
 N1687 N 0.92178 0.60760 0.26803
 N1688 N 0.91275 0.61652 0.24660
 C1689 C 0.37921 1.12057 0.21628
 N1690 N 0.39358 1.13474 0.20091
 N1691 N 0.38409 1.14427 0.17995
 C1692 C 0.35984 1.14014 0.17359
 N1693 N 0.34554 1.12591 0.18903
 N1694 N 0.35505 1.11627 0.20991
 C1695 C 0.38944 1.11040 0.23963
 N1696 N 0.37575 1.09436 0.25371
 N1697 N 0.38478 1.08544 0.27512
 C1698 C 0.40779 1.09228 0.28339
 N1699 N 0.42148 1.10834 0.26923
 N1700 N 0.41250 1.11718 0.24774
 C1701 C 0.37961 0.62098 0.71595
 N1702 N 0.36555 0.60651 0.70058
 N1703 N 0.35594 0.61593 0.67962
 C1704 C 0.35988 0.64021 0.67327
 N1705 N 0.37401 0.65461 0.68871
 N1706 N 0.38372 0.64518 0.70959
 C1707 C 0.38984 0.61082 0.73930
 N1708 N 0.40574 0.62463 0.75342
 N1709 N 0.41468 0.61567 0.77485
 C1710 C 0.40801 0.59259 0.78308
 N1711 N 0.39210 0.57879 0.76888
 N1712 N 0.38323 0.58770 0.74738
 C1713 C 1.11990 0.87897 0.71528
 N1714 N 1.11594 0.85472 0.70905
 N1715 N 1.12581 0.84522 0.68827
 C1716 C 1.13993 0.85960 0.67281
 N1717 N 1.14372 0.88394 0.67905
 N1718 N 1.13396 0.89343 0.69990
 C1719 C 1.10954 0.88921 0.73854
 N1720 N 1.11604 0.91239 0.74652
 N1721 N 1.10710 0.92137 0.76796
 C1722 C 1.09122 0.90757 0.78220
 N1723 N 1.08464 0.88444 0.77406
 N1724 N 1.09366 0.87541 0.75269
 C1725 C 1.11958 0.37874 0.21582
 N1726 N 1.13369 0.39322 0.20051
 N1727 N 1.14338 0.38381 0.17959
 C1728 C 1.13947 0.35953 0.17320
 N1729 N 1.12527 0.34512 0.18858
 N1730 N 1.11548 0.35455 0.20943
 C1731 C 1.10934 0.38890 0.23918
 N1732 N 1.09346 0.37510 0.25333
 N1733 N 1.08458 0.38407 0.27479
 C1734 C 1.09131 0.40714 0.28301
 N1735 N 1.10719 0.42092 0.26876
 N1736 N 1.11599 0.41201 0.24724
 C1737 C 0.62091 0.87971 0.21572
 N1738 N 0.60652 0.86570 0.20023
 N1739 N 0.61606 0.85613 0.17931
 C1740 C 0.64039 0.86006 0.17312
 N1741 N 0.65471 0.87413 0.18868
 N1742 N 0.64515 0.88382 0.20952
 C1743 C 0.61063 0.88990 0.23903
 N1744 N 0.62436 0.90580 0.25322
 N1745 N 0.61530 0.91470 0.27462
 C1746 C 0.59220 0.90798 0.28276
 N1747 N 0.57848 0.89206 0.26849
 N1748 N 0.58749 0.88324 0.24701
 C1749 C 0.61969 0.37900 0.71590
 N1750 N 0.61567 0.35476 0.70962
 N1751 N 0.62547 0.34528 0.68880
 C1752 C 0.63959 0.35967 0.67334
 N1753 N 0.64342 0.38400 0.67961
 N1754 N 0.63372 0.39346 0.70050
 C1755 C 0.60943 0.38922 0.73922
 N1756 N 0.61600 0.41239 0.74720
 N1757 N 0.60716 0.42136 0.76868
 C1758 C 0.59132 0.40757 0.78297
 N1759 N 0.58468 0.38445 0.77484
 N1760 N 0.59360 0.37542 0.75343
 C1761 C 1.28453 1.12093 1.12034
 N1762 N 1.29993 1.10657 1.13448
 N1763 N 1.32079 1.11613 1.14415
 C1764 C 1.32701 1.14045 1.14021
 N1765 N 1.31153 1.15473 1.12602
 N1766 N 1.29074 1.14516 1.11623
 C1767 C 1.26129 1.11062 1.11001
 N1768 N 1.24721 1.12431 1.09397
 N1769 N 1.22587 1.11523 1.08494
 C1770 C 1.21768 1.09215 1.09168
 N1771 N 1.23184 1.07847 1.10772
 N1772 N 1.25326 1.08750 1.11667
 C1773 C 1.28411 0.61983 0.62079
 N1774 N 1.29033 0.61571 0.64503
 N1775 N 1.31115 0.62544 0.65459
 C1776 C 1.32666 0.63959 0.64029
 N1777 N 1.32044 0.64353 0.61597
 N1778 N 1.29956 0.63390 0.60642
 C1779 C 1.26081 0.60962 0.61050
 N1780 N 1.25284 0.61629 0.58736
 N1781 N 1.23137 0.60747 0.57833
 C1782 C 1.21709 0.59154 0.59204
 N1783 N 1.22522 0.58480 0.61514
 N1784 N 1.24661 0.59371 0.62422
 C1785 C 0.78448 1.11951 0.62106
 N1786 N 0.79076 1.11554 0.64530
 N1787 N 0.81156 1.12540 0.65477
 C1788 C 0.82699 1.13952 0.64035
 N1789 N 0.82072 1.14331 0.61602
 N1790 N 0.79984 1.13356 0.60658
 C1791 C 0.76118 1.10920 0.61087
 N1792 N 0.75318 1.11574 0.58770
 N1793 N 0.73169 1.10687 0.57876
 C1794 C 0.71743 1.09104 0.59258
 N1795 N 0.72559 1.08442 0.61570
 N1796 N 0.74700 1.09336 0.62469
 C1797 C 0.78419 0.62110 1.12019
 N1798 N 0.79970 0.60673 1.13418
 N1799 N 0.82065 0.61628 1.14368
 C1800 C 0.82685 0.64060 1.13968
 N1801 N 0.81128 0.65489 1.12560
 N1802 N 0.79040 0.64532 1.11599
 C1803 C 0.76082 0.61080 1.11014
 N1804 N 0.74658 0.62447 1.09423
 N1805 N 0.72514 0.61539 1.08544
 C1806 C 0.71700 0.59233 1.09230
 N1807 N 0.73131 0.57867 1.10824
 N1808 N 0.75283 0.58770 1.11694
 C1809 C 1.28359 0.87999 0.87896
 N1810 N 1.29001 0.88415 0.85478
 N1811 N 1.31093 0.87448 0.84538
 C1812 C 1.32635 0.86034 0.85980
 N1813 N 1.31993 0.85636 0.88406
 N1814 N 1.29894 0.86593 0.89344
 C1815 C 1.26018 0.89013 0.88908
 N1816 N 1.25208 0.88344 0.91217
 N1817 N 1.23053 0.89220 0.92106
 C1818 C 1.21629 0.90809 0.90726
 N1819 N 1.22455 0.91485 0.88422
 N1820 N 1.24603 0.90600 0.87527
 C1821 C 1.28463 0.37982 0.37896
 N1822 N 1.29086 0.38387 0.35471
 N1823 N 1.31169 0.37413 0.34519
 C1824 C 1.32721 0.36005 0.35955
 N1825 N 1.32099 0.35619 0.38389
 N1826 N 1.30008 0.36582 0.39339
 C1827 C 1.26130 0.39001 0.38920
 N1828 N 1.25333 0.38340 0.41235
 N1829 N 1.23183 0.39220 0.42133
 C1830 C 1.21753 0.40805 0.40756
 N1831 N 1.22566 0.41473 0.38445
 N1832 N 1.24708 0.40585 0.37542
 C1833 C 0.78419 0.87899 0.38004
 N1834 N 0.79962 0.89336 0.36594
 N1835 N 0.82052 0.88383 0.35633
 C1836 C 0.82676 0.85952 0.36030
 N1837 N 0.81127 0.84522 0.37447
 N1838 N 0.79045 0.85477 0.38420
 C1839 C 0.76087 0.88928 0.39022
 N1840 N 0.74670 0.87560 0.40618
 N1841 N 0.72529 0.88467 0.41506
 C1842 C 0.71712 0.90773 0.40824
 N1843 N 0.73137 0.92140 0.39226
 N1844 N 0.75285 0.91238 0.38346
 C1845 C 0.78432 0.38052 0.87880
 N1846 N 0.79971 0.36649 0.89327
 N1847 N 0.82060 0.35677 0.88381
 C1848 C 0.82687 0.36058 0.85949
 N1849 N 0.81142 0.37470 0.84508
 N1850 N 0.79060 0.38452 0.85456
 C1851 C 0.76101 0.39078 0.88901
 N1852 N 0.74679 0.40660 0.87520
 N1853 N 0.72537 0.41550 0.88422
 C1854 C 0.71724 0.40886 0.90734
 N1855 N 0.73154 0.39304 0.92114
 N1856 N 0.75303 0.38421 0.91218
 C1857 C 0.71593 0.87923 1.12030
 N1858 N 0.70045 0.89357 1.13437
 N1859 N 0.67952 0.88401 1.14389
 C1860 C 0.67329 0.85971 1.13985
 N1861 N 0.68883 0.84544 1.12570
 N1862 N 0.70969 0.85501 1.11607
 C1863 C 0.73927 0.88953 1.11020
 N1864 N 0.75346 0.87586 1.09425
 N1865 N 0.77488 0.88494 1.08541
 C1866 C 0.78304 0.90800 1.09225
 N1867 N 0.76877 0.92166 1.10822
 N1868 N 0.74727 0.91263 1.11698
 C1869 C 0.71550 0.38037 0.62129
 N1870 N 0.70923 0.38432 0.64554
 N1871 N 0.68843 0.37444 0.65500
 C1872 C 0.67300 0.36033 0.64059
 N1873 N 0.67927 0.35655 0.61625
 N1874 N 0.70013 0.36632 0.60681
 C1875 C 0.73878 0.39071 0.61108
 N1876 N 0.74676 0.38420 0.58790
 N1877 N 0.76822 0.39309 0.57894
 C1878 C 0.78250 0.40892 0.59275
 N1879 N 0.77437 0.41551 0.61589
 N1880 N 0.75297 0.40654 0.62491
 C1881 C 0.21605 0.88001 0.62091
 N1882 N 0.20965 0.88411 0.64510
 N1883 N 0.18879 0.87432 0.65452
 C1884 C 0.17341 0.86014 0.64012
 N1885 N 0.17981 0.85621 0.61584
 N1886 N 0.20074 0.86589 0.60644
 C1887 C 0.23939 0.89028 0.61077
 N1888 N 0.24747 0.88366 0.58765
 N1889 N 0.26898 0.89252 0.57874
 C1890 C 0.28319 0.90842 0.59255
 N1891 N 0.27495 0.91511 0.61562
 N1892 N 0.25351 0.90617 0.62458
 C1893 C 0.21544 0.38010 1.12111
 N1894 N 0.20917 0.38408 1.14536
 N1895 N 0.18834 0.37429 1.15483
 C1896 C 0.17286 0.36023 1.14041
 N1897 N 0.17912 0.35644 1.11607
 N1898 N 0.20002 0.36612 1.10663
 C1899 C 0.23878 0.39032 1.11092
 N1900 N 0.24677 0.38373 1.08776
 N1901 N 0.26828 0.39254 1.07881
 C1902 C 0.28257 0.40836 1.09261
 N1903 N 0.27443 0.41503 1.11572
 N1904 N 0.25299 0.40614 1.12473
 C1905 C 0.71542 1.11994 0.87896
 N1906 N 0.70002 1.13397 0.89343
 N1907 N 0.67914 1.14368 0.88397
 C1908 C 0.67289 1.13988 0.85963
 N1909 N 0.68835 1.12578 0.84523
 N1910 N 0.70917 1.11596 0.85471
 C1911 C 0.73872 1.10964 0.88917
 N1912 N 0.75291 1.09381 0.87535
 N1913 N 0.77432 1.08487 0.88436
 C1914 C 0.78245 1.09148 0.90748
 N1915 N 0.76818 1.10731 0.92130
 N1916 N 0.74670 1.11617 0.91234
 C1917 C 0.71623 0.62038 0.37931
 N1918 N 0.70985 0.61612 0.35514
 N1919 N 0.68898 0.62580 0.34566
 C1920 C 0.67357 0.64004 0.35997
 N1921 N 0.67995 0.64414 0.38423
 N1922 N 0.70090 0.63456 0.39369
 C1923 C 0.73957 0.61015 0.38951
 N1924 N 0.74769 0.61688 0.41259
 N1925 N 0.76918 0.60801 0.42153
 C1926 C 0.78332 0.59199 0.40781
 N1927 N 0.77505 0.58519 0.38478
 N1928 N 0.75364 0.59414 0.37578
 C1929 C 0.21534 1.11982 0.37906
 N1930 N 0.20924 1.11576 0.35478
 N1931 N 0.18845 1.12549 0.34514
 C1932 C 0.17286 1.13957 0.35941
 N1933 N 0.17895 1.14344 0.38378
 N1934 N 0.19980 1.13382 0.39340
 C1935 C 0.23862 1.10965 0.38942
 N1936 N 0.24650 1.11632 0.41260
 N1937 N 0.26797 1.10753 0.42169
 C1938 C 0.28231 1.09165 0.40800
 N1939 N 0.27427 1.08492 0.38487
 N1940 N 0.25289 1.09379 0.37574
 C1941 C 0.21608 0.62098 0.87991
 N1942 N 0.20974 0.64517 0.88405
 N1943 N 0.18888 0.65464 0.87430
 C1944 C 0.17346 0.64028 0.86012
 N1945 N 0.17981 0.61600 0.85615
 N1946 N 0.20073 0.60655 0.86579
 C1947 C 0.23941 0.61078 0.89016
 N1948 N 0.24750 0.58769 0.88347
 N1949 N 0.26899 0.57874 0.89233
 C1950 C 0.28317 0.59248 0.90831
 N1951 N 0.27492 0.61553 0.91508
 N1952 N 0.25351 0.62453 0.90613
 C1953 C 1.12090 1.28429 1.11966
 N1954 N 1.10640 1.29962 1.13373
 N1955 N 1.11581 1.32049 1.14352
 C1956 C 1.14013 1.32680 1.13974
 N1957 N 1.15457 1.31141 1.12561
 N1958 N 1.14514 1.29061 1.11572
 C1959 C 1.11074 1.26101 1.10927
 N1960 N 1.12460 1.24688 1.09342
 N1961 N 1.11563 1.22549 1.08439
 C1962 C 1.09250 1.21731 1.09095
 N1963 N 1.07865 1.23152 1.10680
 N1964 N 1.08757 1.25299 1.11574
 C1965 C 1.12124 0.78416 0.61969
 N1966 N 1.14546 0.79046 0.61561
 N1967 N 1.15495 0.81131 0.62535
 C1968 C 1.14057 0.82678 0.63947
 N1969 N 1.11626 0.82050 0.64335
 N1970 N 1.10679 0.79958 0.63372
 C1971 C 1.11103 0.76081 0.60952
 N1972 N 1.08791 0.75279 0.61621
 N1973 N 1.07894 0.73127 0.60745
 C1974 C 1.09268 0.71700 0.59155
 N1975 N 1.11575 0.72518 0.58477
 N1976 N 1.12477 0.74662 0.59363
 C1977 C 0.62111 1.28425 0.62000
 N1978 N 0.60662 1.29955 0.63412
 N1979 N 0.61601 1.32046 0.64385
 C1980 C 0.64030 1.32684 0.63997
 N1981 N 0.65473 1.31147 0.62579
 N1982 N 0.64532 1.29063 0.61596
 C1983 C 0.61097 1.26092 0.60968
 N1984 N 0.62481 1.24680 0.59381
 N1985 N 0.61584 1.22538 0.58483
 C1986 C 0.59274 1.21717 0.59145
 N1987 N 0.57891 1.23138 0.60732
 N1988 N 0.58782 1.25287 0.61622
 C1989 C 0.62035 0.78414 1.12083
 N1990 N 0.63448 0.79954 1.10645
 N1991 N 0.64407 0.82046 1.11596
 C1992 C 0.64003 0.82676 1.14025
 N1993 N 0.62584 0.81129 1.15455
 N1994 N 0.61614 0.79044 1.14502
 C1995 C 0.61013 0.76082 1.11058
 N1996 N 0.59414 0.74672 1.12430
 N1997 N 0.58520 0.72532 1.11527
 C1998 C 0.59198 0.71709 1.09222
 N1999 N 0.60798 0.73128 1.07850
 N2000 N 0.61684 0.75276 1.08748
 C2001 C 0.87877 1.28455 0.88012
 N2002 N 0.89328 1.29990 0.86607
 N2003 N 0.88388 1.32079 0.85633
 C2004 C 0.85957 1.32712 0.86012
 N2005 N 0.84512 1.31171 0.87423
 N2006 N 0.85454 1.29088 0.88408
 C2007 C 0.88892 1.26124 0.89044
 N2008 N 0.87506 1.24708 0.90626
 N2009 N 0.88402 1.22566 0.91524
 C2010 C 0.90715 1.21749 0.90866
 N2011 N 0.92101 1.23174 0.89285
 N2012 N 0.91209 1.25322 0.88395
 C2013 C 0.87982 0.78389 0.37888
 N2014 N 0.88394 0.79028 0.35469
 N2015 N 0.87418 0.81115 0.34526
 C2016 C 0.86002 0.82655 0.35967
 N2017 N 0.85607 0.82016 0.38394
 N2018 N 0.86572 0.79922 0.39335
 C2019 C 0.89011 0.76056 0.38903
 N2020 N 0.88350 0.75246 0.41214
 N2021 N 0.89240 0.73098 0.42106
 C2022 C 0.90835 0.71681 0.40726
 N2023 N 0.91503 0.72506 0.38419
 N2024 N 0.90605 0.74647 0.37523
 C2025 C 0.37912 1.28398 0.37987
 N2026 N 0.39362 1.29933 0.36583
 N2027 N 0.38422 1.32026 0.35615
 C2028 C 0.35992 1.32661 0.36002
 N2029 N 0.34549 1.31118 0.37412
 N2030 N 0.35490 1.29032 0.38390
 C2031 C 0.38926 1.26065 0.39018
 N2032 N 0.37541 1.24653 0.40604
 N2033 N 0.38436 1.22512 0.41503
 C2034 C 0.40746 1.21691 0.40843
 N2035 N 0.42131 1.23111 0.39256
 N2036 N 0.41241 1.25259 0.38365
 C2037 C 0.37897 0.78473 0.88042
 N2038 N 0.35470 0.79086 0.88445
 N2039 N 0.34509 0.81163 0.87466
 C2040 C 0.35938 0.82718 0.86055
 N2041 N 0.38375 0.82107 0.85672
 N2042 N 0.39334 0.80023 0.86640
 C2043 C 0.38931 0.76146 0.89064
 N2044 N 0.41247 0.75354 0.88396
 N2045 N 0.42154 0.73208 0.89275
 C2046 C 0.40785 0.71776 0.90865
 N2047 N 0.38474 0.72583 0.91540
 N2048 N 0.37562 0.74722 0.90653
 C2049 C 1.12020 0.71561 0.87903
 N2050 N 1.13428 0.70022 0.89345
 N2051 N 1.14396 0.67933 0.88396
 C2052 C 1.14007 0.67307 0.85964
 N2053 N 1.12592 0.68853 0.84528
 N2054 N 1.11614 0.70935 0.85480
 C2055 C 1.10990 0.73890 0.88927
 N2056 N 1.09394 0.75301 0.87551
 N2057 N 1.08495 0.77438 0.88454
 C2058 C 1.09165 0.78258 0.90763
 N2059 N 1.10762 0.76839 0.92137
 N2060 N 1.11653 0.74694 0.91240
 C2061 C 1.12085 0.21556 0.37968
 N2062 N 1.10639 0.20019 0.36562
 N2063 N 1.11585 0.17930 0.35591
 C2064 C 1.14017 0.17301 0.35977
 N2065 N 1.15456 0.18846 0.37389
 N2066 N 1.14509 0.20928 0.38370
 C2067 C 1.11066 0.23884 0.39003
 N2068 N 1.12449 0.25298 0.40589
 N2069 N 1.11550 0.27436 0.41491
 C2070 C 1.09237 0.28253 0.40835
 N2071 N 1.07854 0.26830 0.39248
 N2072 N 1.08748 0.24685 0.38354
 C2073 C 0.62095 0.71587 0.37993
 N2074 N 0.60662 0.70033 0.36592
 N2075 N 0.61621 0.67940 0.35643
 C2076 C 0.64054 0.67324 0.36044
 N2077 N 0.65479 0.68884 0.37454
 N2078 N 0.64518 0.70969 0.38414
 C2079 C 0.61061 0.73922 0.38998
 N2080 N 0.62426 0.75348 0.40588
 N2081 N 0.61515 0.77490 0.41467
 C2082 C 0.59207 0.78300 0.40782
 N2083 N 0.57843 0.76867 0.39189
 N2084 N 0.58749 0.74717 0.38318
 C2085 C 0.62088 0.21591 0.88007
 N2086 N 0.60642 0.20058 0.86595
 N2087 N 0.61585 0.17967 0.85626
 C2088 C 0.64013 0.17330 0.86019
 N2089 N 0.65452 0.18870 0.87438
 N2090 N 0.64508 0.20954 0.88417
 C2091 C 0.61070 0.23923 0.89035
 N2092 N 0.62452 0.25337 0.90624
 N2093 N 0.61553 0.27479 0.91519
 C2094 C 0.59244 0.28298 0.90855
 N2095 N 0.57863 0.26876 0.89266
 N2096 N 0.58756 0.24727 0.88378
 C2097 C 0.87983 0.71624 1.12089
 N2098 N 0.86564 0.70092 1.10649
 N2099 N 0.85603 0.67998 1.11593
 C2100 C 0.86010 0.67358 1.14018
 N2101 N 0.87435 0.68896 1.15452
 N2102 N 0.88407 0.70983 1.14505
 C2103 C 0.89007 0.73957 1.11070
 N2104 N 0.90607 0.75365 1.12445
 N2105 N 0.91502 0.77506 1.11546
 C2106 C 0.90824 0.78334 1.09243
 N2107 N 0.89223 0.76918 1.07869
 N2108 N 0.88336 0.74769 1.08762
 C2109 C 0.87882 0.21563 0.61981
 N2110 N 0.85461 0.20925 0.61579
 N2111 N 0.84522 0.18840 0.62560
 C2112 C 0.85966 0.17301 0.63974
 N2113 N 0.88396 0.17939 0.64359
 N2114 N 0.89334 0.20031 0.63387
 C2115 C 0.88895 0.23897 0.60952
 N2116 N 0.91211 0.24702 0.61603
 N2117 N 0.92100 0.26852 0.60716
 C2118 C 0.90713 0.28277 0.59135
 N2119 N 0.88402 0.27457 0.58475
 N2120 N 0.87507 0.25313 0.59370
 C2121 C 0.37892 0.71549 0.62002
 N2122 N 0.39332 0.70007 0.63409
 N2123 N 0.38380 0.67917 0.64373
 C2124 C 0.35948 0.67294 0.63983
 N2125 N 0.34515 0.68843 0.62569
 N2126 N 0.35468 0.70925 0.61594
 C2127 C 0.38918 0.73880 0.60980
 N2128 N 0.37544 0.75299 0.59390
 N2129 N 0.38449 0.77439 0.58500
 C2130 C 0.40759 0.78253 0.59172
 N2131 N 0.42132 0.76826 0.60762
 N2132 N 0.41232 0.74678 0.61644
 C2133 C 0.37984 0.21590 1.12092
 N2134 N 0.38402 0.20976 1.14516
 N2135 N 0.37439 0.18892 1.15479
 C2136 C 0.36030 0.17332 1.14054
 N2137 N 0.35632 0.17945 1.11620
 N2138 N 0.36584 0.20036 1.10660
 C2139 C 0.38993 0.23923 1.11056
 N2140 N 0.38311 0.24720 1.08746
 N2141 N 0.39184 0.26868 1.07838
 C2142 C 0.40783 0.28297 1.09200
 N2143 N 0.41472 0.27485 1.11505
 N2144 N 0.40590 0.25345 1.12418
 C2145 C 1.11961 1.12104 0.71584
 N2146 N 1.13368 1.10652 0.70052
 N2147 N 1.14343 1.11591 0.67961
 C2148 C 1.13962 1.14022 0.67327
 N2149 N 1.12549 1.15467 0.68866
 N2150 N 1.11564 1.14526 0.70949
 C2151 C 1.10929 1.11090 0.73915
 N2152 N 1.09346 1.12477 0.75331
 N2153 N 1.08449 1.11581 0.77473
 C2154 C 1.09107 1.09269 0.78291
 N2155 N 1.10688 1.07883 0.76867
 N2156 N 1.11578 1.08773 0.74718
 C2157 C 1.12112 0.62000 0.21537
 N2158 N 1.14536 0.61598 0.20913
 N2159 N 1.15487 0.62579 0.18833
 C2160 C 1.14051 0.63992 0.17286
 N2161 N 1.11618 0.64378 0.17910
 N2162 N 1.10669 0.63407 0.19998
 C2163 C 1.11088 0.60969 0.23865
 N2164 N 1.08774 0.61630 0.24667
 N2165 N 1.07876 0.60740 0.26813
 C2166 C 1.09251 0.59145 0.28233
 N2167 N 1.11560 0.58476 0.27415
 N2168 N 1.12463 0.59375 0.25277
 C2169 C 0.61965 1.12108 0.21595
 N2170 N 0.63373 1.10669 0.20053
 N2171 N 0.64334 1.11619 0.17962
 C2172 C 0.63938 1.14050 0.17335
 N2173 N 0.62521 1.15482 0.18882
 N2174 N 0.61549 1.14529 0.20967
 C2175 C 0.60950 1.11082 0.23930
 N2176 N 0.59361 1.12455 0.25352
 N2177 N 0.58478 1.11549 0.27496
 C2178 C 0.59156 1.09241 0.28310
 N2179 N 0.60745 1.07870 0.26880
 N2180 N 0.61621 1.08770 0.24729
 C2181 C 0.62094 0.62023 0.71560
 N2182 N 0.64518 0.61601 0.70945
 N2183 N 0.65483 0.62564 0.68863
 C2184 C 0.64061 0.63978 0.67303
 N2185 N 0.61628 0.64380 0.67917
 N2186 N 0.60665 0.63428 0.70007
 C2187 C 0.61056 0.61014 0.73892
 N2188 N 0.58746 0.61697 0.74688
 N2189 N 0.57837 0.60823 0.76836
 C2190 C 0.59197 0.59222 0.78265
 N2191 N 0.61502 0.58533 0.77453
 N2192 N 0.62417 0.59415 0.75314
 C2193 C 0.87892 0.87981 0.71552
 N2194 N 0.89331 0.86578 0.70005
 N2195 N 0.88378 0.85618 0.67915
 C2196 C 0.85945 0.86009 0.67294
 N2197 N 0.84513 0.87420 0.68847
 N2198 N 0.85468 0.88391 0.70930
 C2199 C 0.88920 0.89000 0.73883
 N2200 N 0.87551 0.90597 0.75299
 N2201 N 0.88457 0.91486 0.77440
 C2202 C 0.90763 0.90805 0.78257
 N2203 N 0.92132 0.89207 0.76834
 N2204 N 0.91230 0.88326 0.74685
 C2205 C 0.88023 0.37893 0.21589
 N2206 N 0.86618 0.39338 0.20051
 N2207 N 0.85655 0.38394 0.17958
 C2208 C 0.86046 0.35964 0.17325
 N2209 N 0.87460 0.34526 0.18870
 N2210 N 0.88433 0.35472 0.20956
 C2211 C 0.89043 0.38911 0.23925
 N2212 N 0.90628 0.37532 0.25343
 N2213 N 0.91516 0.38430 0.27488
 C2214 C 0.90844 0.40739 0.28307
 N2215 N 0.89258 0.42117 0.26880
 N2216 N 0.88379 0.41224 0.24728
 C2217 C 0.37888 0.88017 0.21566
 N2218 N 0.35465 0.88424 0.20938
 N2219 N 0.34515 0.87444 0.18856
 C2220 C 0.35951 0.86027 0.17312
 N2221 N 0.38383 0.85639 0.17940
 N2222 N 0.39331 0.86608 0.20028
 C2223 C 0.38911 0.89044 0.23897
 N2224 N 0.41224 0.88379 0.24699
 N2225 N 0.42122 0.89263 0.26847
 C2226 C 0.40748 0.90856 0.28270
 N2227 N 0.38440 0.91529 0.27453
 N2228 N 0.37537 0.90636 0.25312
 C2229 C 0.37920 0.37969 0.71620
 N2230 N 0.35501 0.38391 0.70989
 N2231 N 0.34549 0.37423 0.68903
 C2232 C 0.35979 0.36005 0.67356
 N2233 N 0.38408 0.35600 0.67986
 N2234 N 0.39358 0.36557 0.70080
 C2235 C 0.38945 0.38988 0.73953
 N2236 N 0.41251 0.38310 0.74762
 N2237 N 0.42150 0.39193 0.76911
 C2238 C 0.40782 0.40797 0.78328
 N2239 N 0.38480 0.41482 0.77503
 N2240 N 0.37576 0.40591 0.75362
 C2241 C 1.12110 0.87995 1.28428
 N2242 N 1.10666 0.86586 1.29965
 N2243 N 1.11613 0.85617 1.32055
 C2244 C 1.14044 0.86007 1.32684
 N2245 N 1.15481 0.87422 1.31140
 N2246 N 1.14532 0.88401 1.29057
 C2247 C 1.11089 0.89026 1.26099
 N2248 N 1.12467 0.90618 1.24686
 N2249 N 1.11565 0.91517 1.22547
 C2250 C 1.09256 0.90850 1.21729
 N2251 N 1.07878 0.89257 1.23149
 N2252 N 1.08774 0.88367 1.25296
 C2253 C 1.11988 0.37897 0.78376
 N2254 N 1.13394 0.39347 0.79910
 N2255 N 1.14358 0.38408 0.82006
 C2256 C 1.13967 0.35979 0.82644
 N2257 N 1.12554 0.34537 0.81102
 N2258 N 1.11580 0.35477 0.79014
 C2259 C 1.10966 0.38910 0.76039
 N2260 N 1.09380 0.37528 0.74624
 N2261 N 1.08489 0.38423 0.72479
 C2262 C 1.09159 0.40730 0.71656
 N2263 N 1.10746 0.42112 0.73079
 N2264 N 1.11628 0.41222 0.75231
 C2265 C 0.62014 0.87894 0.78450
 N2266 N 0.61612 0.85472 0.79082
 N2267 N 0.62592 0.84527 0.81166
 C2268 C 0.64004 0.85969 0.82709
 N2269 N 0.64390 0.88399 0.82077
 N2270 N 0.63420 0.89342 0.79986
 C2271 C 0.60984 0.88911 0.76119
 N2272 N 0.61640 0.91225 0.75313
 N2273 N 0.60750 0.92117 0.73165
 C2274 C 0.59161 0.90736 0.71744
 N2275 N 0.58497 0.88426 0.72565
 N2276 N 0.59395 0.87529 0.74706
 C2277 C 0.61969 0.37876 1.28427
 N2278 N 0.61566 0.35452 1.29054
 N2279 N 0.62543 0.34505 1.31138
 C2280 C 0.63952 0.35944 1.32686
 N2281 N 0.64336 0.38377 1.32059
 N2282 N 0.63370 0.39322 1.29968
 C2283 C 0.60949 0.38897 1.26092
 N2284 N 0.61611 0.41212 1.25295
 N2285 N 0.60734 0.42110 1.23144
 C2286 C 0.59151 0.40732 1.21712
 N2287 N 0.58481 0.38421 1.22525
 N2288 N 0.59367 0.37519 1.24669
 C2289 C 0.88052 1.12116 1.28415
 N2290 N 0.88461 1.14537 1.29052
 N2291 N 0.87478 1.15481 1.31136
 C2292 C 0.86057 1.14042 1.32673
 N2293 N 0.85667 1.11613 1.32036
 N2294 N 0.86639 1.10670 1.29946
 C2295 C 0.89078 1.11099 1.26082
 N2296 N 0.88413 1.08787 1.25276
 N2297 N 0.89295 1.07894 1.23126
 C2298 C 0.90885 1.09271 1.21701
 N2299 N 0.91559 1.11578 1.22522
 N2300 N 0.90669 1.12477 1.24666
 C2301 C 0.87993 0.62108 0.78447
 N2302 N 0.86583 0.60663 0.79983
 N2303 N 0.85612 0.61609 0.82072
 C2304 C 0.85999 0.64041 0.82702
 N2305 N 0.87415 0.65478 0.81159
 N2306 N 0.88397 0.64530 0.79077
 C2307 C 0.89026 0.61086 0.76118
 N2308 N 0.90619 0.62464 0.74706
 N2309 N 0.91518 0.61562 0.72568
 C2310 C 0.90852 0.59252 0.71749
 N2311 N 0.89259 0.57875 0.73170
 N2312 N 0.88367 0.58772 0.75315
 C2313 C 0.38038 1.12092 0.78432
 N2314 N 0.36635 1.10643 0.79969
 N2315 N 0.35658 1.11587 0.82056
 C2316 C 0.36032 1.14022 0.82681
 N2317 N 0.37442 1.15464 0.81137
 N2318 N 0.38430 1.14518 0.79058
 C2319 C 0.39073 1.11072 0.76104
 N2320 N 0.40656 1.12456 0.74686
 N2321 N 0.41555 1.11555 0.72547
 C2322 C 0.40897 1.09241 0.71733
 N2323 N 0.39315 1.07858 0.73159
 N2324 N 0.38425 1.08753 0.75306
 C2325 C 0.37918 0.62022 1.28434
 N2326 N 0.35495 0.61609 1.29055
 N2327 N 0.34538 0.62580 1.31137
 C2328 C 0.35967 0.63993 1.32690
 N2329 N 0.38400 0.64389 1.32069
 N2330 N 0.39355 0.63429 1.29980
 C2331 C 0.38947 0.61000 1.26105
 N2332 N 0.41261 0.61666 1.25306
 N2333 N 0.42163 0.60781 1.23159
 C2334 C 0.40791 0.59186 1.21735
 N2335 N 0.38482 0.58513 1.22550
 N2336 N 0.37575 0.59407 1.24688
 C2337 C 1.12094 1.28449 0.87979
 N2338 N 1.14518 1.29078 0.88378
 N2339 N 1.15464 1.31161 0.87397
 C2340 C 1.14022 1.32706 0.85988
 N2341 N 1.11590 1.32078 0.85606
 N2342 N 1.10646 1.29988 0.86577
 C2343 C 1.11076 1.26118 0.89009
 N2344 N 1.08756 1.25320 0.88361
 N2345 N 1.07862 1.23173 0.89250
 C2346 C 1.09247 1.21744 0.90830
 N2347 N 1.11562 1.22558 0.91485
 N2348 N 1.12461 1.24698 0.90588
 C2349 C 1.12023 0.78403 0.37899
 N2350 N 1.11606 0.79038 0.35480
 N2351 N 1.12576 0.81125 0.34531
 C2352 C 1.13994 0.82669 0.35966
 N2353 N 1.14394 0.82035 0.38394
 N2354 N 1.13434 0.79941 0.39340
 C2355 C 1.11004 0.76068 0.38919
 N2356 N 1.11673 0.75261 0.41229
 N2357 N 1.10791 0.73110 0.42124
 C2358 C 1.09196 0.71689 0.40749
 N2359 N 1.08520 0.72512 0.38444
 N2360 N 1.09410 0.74655 0.37544
 C2361 C 0.62100 1.28400 0.38013
 N2362 N 0.64520 1.29038 0.38420
 N2363 N 0.65462 1.31123 0.37440
 C2364 C 0.64020 1.32662 0.36023
 N2365 N 0.61592 1.32023 0.35633
 N2366 N 0.60652 1.29931 0.36603
 C2367 C 0.61085 1.26067 0.39042
 N2368 N 0.58771 1.25261 0.38386
 N2369 N 0.57880 1.23112 0.39274
 C2370 C 0.59262 1.21690 0.40861
 N2371 N 0.61572 1.22511 0.41525
 N2372 N 0.62468 1.24653 0.40629
 C2373 C 0.62124 0.78430 0.88022
 N2374 N 0.64547 0.79056 0.88427
 N2375 N 0.65496 0.81141 0.87455
 C2376 C 0.64058 0.82692 0.86048
 N2377 N 0.61625 0.82067 0.85662
 N2378 N 0.60678 0.79975 0.86624
 C2379 C 0.61102 0.76095 0.89039
 N2380 N 0.58788 0.75296 0.88374
 N2381 N 0.57891 0.73145 0.89251
 C2382 C 0.59268 0.71714 0.90835
 N2383 N 0.61577 0.72529 0.91508
 N2384 N 0.62479 0.74673 0.90623
 C2385 C 0.87907 1.28422 1.12000
 N2386 N 0.89356 1.29958 1.13405
 N2387 N 0.88415 1.32050 1.14374
 C2388 C 0.85985 1.32683 1.13988
 N2389 N 0.84542 1.31140 1.12577
 N2390 N 0.85485 1.29055 1.11597
 C2391 C 0.88922 1.26090 1.10970
 N2392 N 0.87537 1.24675 1.09387
 N2393 N 0.88432 1.22533 1.08489
 C2394 C 0.90744 1.21714 1.09147
 N2395 N 0.92129 1.23137 1.10731
 N2396 N 0.91239 1.25286 1.11621
 C2397 C 0.87983 0.78427 0.62066
 N2398 N 0.88392 0.79053 0.64489
 N2399 N 0.87411 0.81132 0.65442
 C2400 C 0.85992 0.82677 0.64010
 N2401 N 0.85600 0.82051 0.61578
 N2402 N 0.86570 0.79964 0.60627
 C2403 C 0.89017 0.76101 0.61040
 N2404 N 0.88356 0.75298 0.58726
 N2405 N 0.89251 0.73154 0.57827
 C2406 C 0.90850 0.71737 0.59201
 N2407 N 0.91518 0.72557 0.61510
 N2408 N 0.90616 0.74692 0.62414
 C2409 C 0.37990 1.28427 0.62099
 N2410 N 0.38412 1.29048 0.64521
 N2411 N 0.37444 1.31130 0.65482
 C2412 C 0.36025 1.32683 0.64057
 N2413 N 0.35622 1.32062 0.61626
 N2414 N 0.36579 1.29973 0.60667
 C2415 C 0.39006 1.26096 0.61066
 N2416 N 0.38322 1.25293 0.58759
 N2417 N 0.39200 1.23145 0.57854
 C2418 C 0.40806 1.21724 0.59215
 N2419 N 0.41497 1.22542 0.61517
 N2420 N 0.40610 1.24682 0.62428
 C2421 C 0.37994 0.78428 1.12106
 N2422 N 0.36585 0.79963 1.10660
 N2423 N 0.35617 0.82054 1.11605
 C2424 C 0.36006 0.82686 1.14036
 N2425 N 0.37422 0.81143 1.15474
 N2426 N 0.38401 0.79060 1.14527
 C2427 C 0.39022 0.76096 1.11086
 N2428 N 0.40615 0.74684 1.12464
 N2429 N 0.41511 0.72544 1.11563
 C2430 C 0.40842 0.71723 1.09255
 N2431 N 0.39248 0.73143 1.07878
 N2432 N 0.38360 0.75291 1.08773
 C2433 C 0.87878 0.71578 0.88021
 N2434 N 0.89322 0.70038 0.86616
 N2435 N 0.88374 0.67947 0.85651
 C2436 C 0.85943 0.67319 0.86040
 N2437 N 0.84506 0.68866 0.87453
 N2438 N 0.85455 0.70950 0.88429
 C2439 C 0.88901 0.73911 0.89042
 N2440 N 0.87526 0.75330 0.90632
 N2441 N 0.88429 0.77473 0.91519
 C2442 C 0.90737 0.78290 0.90843
 N2443 N 0.92111 0.76863 0.89253
 N2444 N 0.91213 0.74713 0.88374
 C2445 C 0.87892 0.21581 0.38015
 N2446 N 0.89348 0.20049 0.36613
 N2447 N 0.88412 0.17957 0.35638
 C2448 C 0.85981 0.17322 0.36012
 N2449 N 0.84531 0.18862 0.37420
 N2450 N 0.85468 0.20946 0.38406
 C2451 C 0.88902 0.23913 0.39050
 N2452 N 0.87510 0.25329 0.40628
 N2453 N 0.88403 0.27471 0.41528
 C2454 C 0.90717 0.28290 0.40877
 N2455 N 0.92108 0.26865 0.39300
 N2456 N 0.91220 0.24716 0.38408
 C2457 C 0.37955 0.71595 0.37913
 N2458 N 0.38379 0.70964 0.35495
 N2459 N 0.37415 0.68876 0.34543
 C2460 C 0.35998 0.67327 0.35974
 N2461 N 0.35591 0.67958 0.38402
 N2462 N 0.36545 0.70054 0.39352
 C2463 C 0.38971 0.73930 0.38937
 N2464 N 0.38299 0.74736 0.41247
 N2465 N 0.39181 0.76886 0.42144
 C2466 C 0.40778 0.78307 0.40771
 N2467 N 0.41455 0.77487 0.38465
 N2468 N 0.40565 0.75345 0.37563
 C2469 C 0.37878 0.21566 0.88001
 N2470 N 0.39329 0.20028 0.86600
 N2471 N 0.38388 0.17935 0.85634
 C2472 C 0.35957 0.17302 0.86017
 N2473 N 0.34514 0.18846 0.87426
 N2474 N 0.35456 0.20932 0.88403
 C2475 C 0.38893 0.23902 0.89023
 N2476 N 0.37509 0.25321 0.90605
 N2477 N 0.38406 0.27465 0.91496
 C2478 C 0.40717 0.28283 0.90832
 N2479 N 0.42100 0.26856 0.89249
 N2480 N 0.41208 0.24705 0.88367
 C2481 C 1.12022 0.71598 1.12084
 N2482 N 1.13437 0.70066 1.10640
 N2483 N 1.14402 0.67973 1.11583
 C2484 C 1.14004 0.67335 1.14011
 N2485 N 1.12583 0.68875 1.15448
 N2486 N 1.11607 0.70960 1.14503
 C2487 C 1.10995 0.73931 1.11066
 N2488 N 1.09401 0.75341 1.12445
 N2489 N 1.08503 0.77482 1.11546
 C2490 C 1.09173 0.78305 1.09239
 N2491 N 1.10768 0.76887 1.07861
 N2492 N 1.11657 0.74739 1.08754
 C2493 C 1.12086 0.21537 0.61977
 N2494 N 1.14512 0.20913 0.61580
 N2495 N 1.15462 0.18834 0.62566
 C2496 C 1.14022 0.17288 0.63977
 N2497 N 1.11588 0.17912 0.64356
 N2498 N 1.10640 0.19998 0.63381
 C2499 C 1.11064 0.23866 0.60945
 N2500 N 1.08746 0.24663 0.61598
 N2501 N 1.07849 0.26810 0.60708
 C2502 C 1.09230 0.28236 0.59124
 N2503 N 1.11543 0.27423 0.58464
 N2504 N 1.12445 0.25284 0.59361
 C2505 C 0.62052 0.71556 0.62062
 N2506 N 0.61642 0.70938 0.64486
 N2507 N 0.62617 0.68859 0.65445
 C2508 C 0.64031 0.67306 0.64016
 N2509 N 0.64424 0.67924 0.61583
 N2510 N 0.63460 0.70011 0.60626
 C2511 C 0.61022 0.73881 0.61031
 N2512 N 0.61685 0.74681 0.58716
 N2513 N 0.60792 0.76824 0.57814
 C2514 C 0.59193 0.78244 0.59185
 N2515 N 0.58524 0.77428 0.61495
 N2516 N 0.59425 0.75293 0.62402
 C2517 C 0.62081 0.21598 1.12008
 N2518 N 0.60633 0.20068 1.13421
 N2519 N 0.61574 0.17977 1.14393
 C2520 C 0.64002 0.17339 1.14003
 N2521 N 0.65444 0.18877 1.12584
 N2522 N 0.64501 0.20961 1.11602
 C2523 C 0.61066 0.23929 1.10974
 N2524 N 0.62449 0.25339 1.09385
 N2525 N 0.61553 0.27480 1.08483
 C2526 C 0.59243 0.28302 1.09144
 N2527 N 0.57860 0.26883 1.10734
 N2528 N 0.58751 0.24735 1.11627
 C2529 C 1.28429 1.11953 0.87874
 N2530 N 1.29067 1.11548 0.85453
 N2531 N 1.31149 1.12534 0.84510
 C2532 C 1.32684 1.13955 0.85951
 N2533 N 1.32047 1.14343 0.88380
 N2534 N 1.29958 1.13368 0.89321
 C2535 C 1.26098 1.10921 0.88890
 N2536 N 1.25292 1.11580 0.91203
 N2537 N 1.23143 1.10693 0.92095
 C2538 C 1.21720 1.09105 0.90715
 N2539 N 1.22541 1.08437 0.88406
 N2540 N 1.24684 1.09332 0.87509
 C2541 C 1.28415 0.62072 0.37969
 N2542 N 1.29967 0.60638 0.36568
 N2543 N 1.32060 0.61595 0.35617
 C2544 C 1.32677 0.64028 0.36016
 N2545 N 1.31119 0.65455 0.37425
 N2546 N 1.29033 0.64496 0.38387
 C2547 C 1.26081 0.61041 0.38978
 N2548 N 1.24657 0.62410 0.40568
 N2549 N 1.22516 0.61501 0.41451
 C2550 C 1.21704 0.59193 0.40771
 N2551 N 1.23134 0.57824 0.39179
 N2552 N 1.25284 0.58729 0.38304
 C2553 C 0.78468 1.11975 0.37891
 N2554 N 0.79092 1.11576 0.35466
 N2555 N 0.81172 1.12559 0.34515
 C2556 C 0.82719 1.13970 0.35954
 N2557 N 0.82096 1.14349 0.38388
 N2558 N 0.80009 1.13377 0.39336
 C2559 C 0.76137 1.10949 0.38915
 N2560 N 0.75341 1.11605 0.41232
 N2561 N 0.73193 1.10721 0.42131
 C2562 C 0.71763 1.09138 0.40752
 N2563 N 0.72575 1.08474 0.38439
 N2564 N 0.74715 1.09366 0.37536
 C2565 C 0.78405 0.61996 0.87920
 N2566 N 0.79943 0.63405 0.89363
 N2567 N 0.82033 0.64372 0.88415
 C2568 C 0.82662 0.63982 0.85984
 N2569 N 0.81117 0.62566 0.84548
 N2570 N 0.79035 0.61588 0.85498
 C2571 C 0.76074 0.60971 0.88943
 N2572 N 0.74656 0.59383 0.87565
 N2573 N 0.72515 0.58490 0.88468
 C2574 C 0.71700 0.59157 0.90778
 N2575 N 0.73126 0.60746 0.92155
 N2576 N 0.75274 0.61631 0.91258
 C2577 C 1.28412 0.87901 1.11989
 N2578 N 1.29950 0.89345 1.13396
 N2579 N 1.32040 0.88398 1.14364
 C2580 C 1.32669 0.85967 1.13976
 N2581 N 1.31124 0.84530 1.12561
 N2582 N 1.29042 0.85478 1.11583
 C2583 C 1.26081 0.88922 1.10963
 N2584 N 1.24665 0.87546 1.09371
 N2585 N 1.22525 0.88448 1.08478
 C2586 C 1.21707 0.90757 1.09148
 N2587 N 1.23130 0.92133 1.10740
 N2588 N 1.25278 0.91236 1.11625
 C2589 C 1.28432 0.37910 0.62055
 N2590 N 1.29057 0.35488 0.61641
 N2591 N 1.31141 0.34535 0.62611
 C2592 C 1.32691 0.35966 0.64025
 N2593 N 1.32066 0.38397 0.64422
 N2594 N 1.29975 0.39349 0.63462
 C2595 C 1.26101 0.38936 0.61032
 N2596 N 1.25296 0.41246 0.61701
 N2597 N 1.23149 0.42146 0.60813
 C2598 C 1.21732 0.40775 0.59212
 N2599 N 1.22553 0.38469 0.58536
 N2600 N 1.24691 0.37565 0.59432
 C2601 C 0.78383 0.87889 0.62006
 N2602 N 0.79018 0.85471 0.61584
 N2603 N 0.81107 0.84523 0.62550
 C2604 C 0.82652 0.85956 0.63968
 N2605 N 0.82017 0.88383 0.64372
 N2606 N 0.79921 0.89330 0.63417
 C2607 C 0.76045 0.88909 0.60993
 N2608 N 0.75236 0.91216 0.61672
 N2609 N 0.73084 0.92112 0.60796
 C2610 C 0.71663 0.90742 0.59198
 N2611 N 0.72487 0.88440 0.58512
 N2612 N 0.74632 0.87539 0.59396
 C2613 C 0.78458 0.38012 1.12103
 N2614 N 0.80000 0.36610 1.10659
 N2615 N 0.82089 0.35642 1.11608
 C2616 C 0.82713 0.36027 1.14041
 N2617 N 0.81164 0.37437 1.15478
 N2618 N 0.79082 0.38415 1.14528
 C2619 C 0.76127 0.39037 1.11081
 N2620 N 0.74707 0.40621 1.12461
 N2621 N 0.72566 0.41513 1.11559
 C2622 C 0.71752 0.40849 1.09247
 N2623 N 0.73180 0.39264 1.07868
 N2624 N 0.75328 0.38379 1.08764
 C2625 C 0.71529 1.12008 1.12118
 N2626 N 0.69984 1.13405 1.10672
 N2627 N 0.67895 1.14373 1.11620
 C2628 C 0.67274 1.13996 1.14055
 N2629 N 0.68827 1.12592 1.15495
 N2630 N 0.70908 1.11613 1.14545
 C2631 C 0.73860 1.10983 1.11095
 N2632 N 0.75283 1.09404 1.12477
 N2633 N 0.77424 1.08512 1.11574
 C2634 C 0.78234 1.09172 1.09259
 N2635 N 0.76802 1.10751 1.07878
 N2636 N 0.74653 1.11635 1.08776
 C2637 C 0.71646 0.62101 0.62036
 N2638 N 0.71007 0.64517 0.61609
 N2639 N 0.68916 0.65463 0.62572
 C2640 C 0.67372 0.64029 0.63991
 N2641 N 0.68011 0.61604 0.64402
 N2642 N 0.70110 0.60660 0.63450
 C2643 C 0.73984 0.61082 0.61021
 N2644 N 0.74796 0.58777 0.61700
 N2645 N 0.76948 0.57883 0.60820
 C2646 C 0.78365 0.59254 0.59218
 N2647 N 0.77538 0.61555 0.58533
 N2648 N 0.75394 0.62454 0.59421
 C2649 C 0.21573 1.11970 0.62137
 N2650 N 0.20039 1.13375 0.60687
 N2651 N 0.17945 1.14342 0.61625
 C2652 C 0.17308 1.13955 0.64054
 N2653 N 0.18848 1.12542 0.65498
 N2654 N 0.20935 1.11565 0.64558
 C2655 C 0.23910 1.10948 0.61124
 N2656 N 0.25327 1.09363 0.62506
 N2657 N 0.27473 1.08475 0.61611
 C2658 C 0.28295 1.09146 0.59303
 N2659 N 0.26869 1.10730 0.57921
 N2660 N 0.24716 1.11610 0.58812
 C2661 C 0.21594 0.62097 1.11986
 N2662 N 0.20971 0.64520 1.11574
 N2663 N 0.18886 0.65475 1.12542
 C2664 C 0.17332 0.64042 1.13952
 N2665 N 0.17953 0.61610 1.14344
 N2666 N 0.20046 0.60657 1.13387
 C2667 C 0.23929 0.61070 1.10974
 N2668 N 0.24727 0.58758 1.11646
 N2669 N 0.26879 0.57857 1.10772
 C2670 C 0.28309 0.59229 1.09184
 N2671 N 0.27496 0.61537 1.08505
 N2672 N 0.25352 0.62443 1.09387
 C2673 C 0.71594 0.88013 0.87935
 N2674 N 0.70057 0.86600 0.89375
 N2675 N 0.67967 0.85634 0.88426
 C2676 C 0.67337 0.86031 0.85996
 N2677 N 0.68880 0.87451 0.84563
 N2678 N 0.70963 0.88427 0.85514
 C2679 C 0.73925 0.89036 0.88958
 N2680 N 0.75340 0.90630 0.87583
 N2681 N 0.77480 0.91522 0.88486
 C2682 C 0.78300 0.90849 0.90793
 N2683 N 0.76878 0.89255 0.92167
 N2684 N 0.74729 0.88370 0.91270
 C2685 C 0.71536 0.38016 0.37901
 N2686 N 0.70911 0.38412 0.35476
 N2687 N 0.68833 0.37425 0.34526
 C2688 C 0.67289 0.36010 0.35966
 N2689 N 0.67914 0.35632 0.38399
 N2690 N 0.70000 0.36609 0.39346
 C2691 C 0.73863 0.39051 0.38923
 N2692 N 0.74660 0.38401 0.41242
 N2693 N 0.76805 0.39292 0.42139
 C2694 C 0.78232 0.40877 0.40759
 N2695 N 0.77419 0.41536 0.38445
 N2696 N 0.75281 0.40637 0.37543
 C2697 C 0.21576 0.87909 0.37999
 N2698 N 0.20030 0.89348 0.36596
 N2699 N 0.17941 0.88395 0.35633
 C2700 C 0.17321 0.85961 0.36022
 N2701 N 0.18874 0.84529 0.37433
 N2702 N 0.20955 0.85485 0.38407
 C2703 C 0.23906 0.88938 0.39020
 N2704 N 0.25325 0.87566 0.40612
 N2705 N 0.27464 0.88473 0.41503
 C2706 C 0.28278 0.90782 0.40829
 N2707 N 0.26852 0.92153 0.39235
 N2708 N 0.24705 0.91251 0.38353
 C2709 C 0.21540 0.38043 0.87888
 N2710 N 0.20918 0.38449 0.85463
 N2711 N 0.18840 0.37469 0.84507
 C2712 C 0.17292 0.36052 0.85939
 N2713 N 0.17913 0.35664 0.88372
 N2714 N 0.19998 0.36634 0.89326
 C2715 C 0.23868 0.39067 0.88917
 N2716 N 0.24664 0.38401 0.91232
 N2717 N 0.26811 0.39284 0.92136
 C2718 C 0.28240 0.40875 0.90765
 N2719 N 0.27428 0.41549 0.88455
 N2720 N 0.25289 0.40658 0.87546
   
