data_POSCAR
  _audit_creation_date              2014-09-24
  _audit_creation_method            'ToBaCCo'
  _symmetry_space_group_name_H-M    'P1'
  _symmetry_Int_Tables_number       1
  _symmetry_cell_setting            triclinic
  loop_
  _symmetry_equiv_pos_as_xyz
 x,y,z
_cell_length_a 66.4616
_cell_length_b 66.4511
_cell_length_c 66.5346
_cell_angle_alpha 89.982000
_cell_angle_beta 89.979700
_cell_angle_gamma 89.951800
loop_
  _atom_site_label
  _atom_site_type_symbol
  _atom_site_fract_x
  _atom_site_fract_y
  _atom_site_fract_z
C1 C 0.35251 0.35229 0.32680
 C2 C 0.36959 0.34341 0.31814
 C3 C 0.37804 0.32607 0.32664
 C4 C 0.36956 0.31753 0.34393
 C5 C 0.35247 0.32621 0.35279
 C6 C 0.34387 0.34366 0.34420
 C7 C 0.34370 0.36944 0.31820
 C8 C 0.32642 0.37796 0.32676
 C9 C 0.31788 0.36949 0.34406
 C10 C 0.32649 0.35234 0.35285
 C11 C 0.31785 0.34351 0.36995
 C12 C 0.32636 0.32616 0.37839
 C13 C 0.34364 0.31758 0.36989
 H14 H 0.37621 0.34984 0.30469
 H15 H 0.37616 0.30404 0.35034
 H16 H 0.35013 0.37606 0.30475
 H17 H 0.30444 0.37614 0.35050
 H18 H 0.30441 0.34997 0.37659
 H19 H 0.35004 0.30408 0.37648
 C20 C 0.35272 0.85268 -0.17402
 C21 C 0.36983 0.84384 -0.18267
 C22 C 0.37836 0.82654 -0.17413
 C23 C 0.36992 0.81803 -0.15679
 C24 C 0.35281 0.82668 -0.14795
 C25 C 0.34414 0.84408 -0.15658
 C26 C 0.34385 0.86979 -0.18266
 C27 C 0.32654 0.87829 -0.17410
 C28 C 0.31806 0.86983 -0.15675
 C29 C 0.32674 0.85272 -0.14793
 C30 C 0.31816 0.84392 -0.13079
 C31 C 0.32674 0.82663 -0.12231
 C32 C 0.34403 0.81808 -0.13080
 H33 H 0.37638 0.85030 -0.19616
 H34 H 0.37654 0.80458 -0.15030
 H35 H 0.35028 0.87636 -0.19614
 H36 H 0.30460 0.87642 -0.15025
 H37 H 0.30471 0.85036 -0.12415
 H38 H 0.35049 0.80463 -0.12418
 C39 C 0.85280 0.35285 -0.17384
 C40 C 0.86992 0.34402 -0.18248
 C41 C 0.87845 0.32671 -0.17393
 C42 C 0.86998 0.31819 -0.15661
 C43 C 0.85286 0.32683 -0.14779
 C44 C 0.84419 0.34423 -0.15643
 C45 C 0.84393 0.36995 -0.18249
 C46 C 0.82660 0.37844 -0.17395
 C47 C 0.81810 0.36996 -0.15663
 C48 C 0.82677 0.35286 -0.14780
 C49 C 0.81817 0.34404 -0.13067
 C50 C 0.82674 0.32675 -0.12219
 C51 C 0.84406 0.31821 -0.13066
 H52 H 0.87649 0.35048 -0.19595
 H53 H 0.87660 0.30474 -0.15012
 H54 H 0.85039 0.37653 -0.19596
 H55 H 0.80463 0.37654 -0.15015
 H56 H 0.80470 0.35046 -0.12405
 H57 H 0.85052 0.30476 -0.12404
 C58 C 0.85217 0.85287 0.32665
 C59 C 0.86930 0.84402 0.31803
 C60 C 0.87779 0.82672 0.32658
 C61 C 0.86933 0.81820 0.34388
 C62 C 0.85220 0.82685 0.35270
 C63 C 0.84355 0.84426 0.34406
 C64 C 0.84333 0.86998 0.31800
 C65 C 0.82600 0.87848 0.32652
 C66 C 0.81747 0.87001 0.34384
 C67 C 0.82613 0.85290 0.35268
 C68 C 0.81751 0.84408 0.36980
 C69 C 0.82607 0.82678 0.37828
 C70 C 0.84338 0.81823 0.36982
 H71 H 0.87591 0.85044 0.30457
 H72 H 0.87596 0.80475 0.35033
 H73 H 0.84980 0.87654 0.30453
 H74 H 0.80400 0.87660 0.35030
 H75 H 0.80405 0.85051 0.37641
 H76 H 0.84983 0.80478 0.37644
 C77 C 0.64741 0.64745 0.32654
 C78 C 0.63032 0.65632 0.31790
 C79 C 0.62182 0.67361 0.32645
 C80 C 0.63024 0.68210 0.34378
 C81 C 0.64733 0.67343 0.35262
 C82 C 0.65599 0.65603 0.34398
 C83 C 0.65627 0.63035 0.31790
 C84 C 0.67356 0.62184 0.32645
 C85 C 0.68205 0.63027 0.34378
 C86 C 0.67338 0.64737 0.35262
 C87 C 0.68197 0.65615 0.36976
 C88 C 0.67340 0.67345 0.37825
 C89 C 0.65612 0.68202 0.36976
 H90 H 0.62374 0.64993 0.30442
 H91 H 0.62360 0.69555 0.35021
 H92 H 0.64988 0.62377 0.30442
 H93 H 0.69549 0.62362 0.35022
 H94 H 0.69542 0.64969 0.37639
 H95 H 0.64966 0.69547 0.37638
 C96 C 0.64771 0.14720 -0.17353
 C97 C 0.63059 0.15603 -0.18215
 C98 C 0.62211 0.17335 -0.17363
 C99 C 0.63059 0.18190 -0.15636
 C100 C 0.64771 0.17326 -0.14754
 C101 C 0.65635 0.15583 -0.15616
 C102 C 0.65654 0.13007 -0.18216
 C103 C 0.67387 0.12157 -0.17364
 C104 C 0.68241 0.13007 -0.15635
 C105 C 0.67377 0.14720 -0.14754
 C106 C 0.68240 0.15604 -0.13045
 C107 C 0.67386 0.17336 -0.12200
 C108 C 0.65655 0.18190 -0.13046
 H109 H 0.62396 0.14960 -0.19558
 H110 H 0.62397 0.19537 -0.14994
 H111 H 0.65006 0.12348 -0.19560
 H112 H 0.69589 0.12348 -0.14988
 H113 H 0.69587 0.14961 -0.12384
 H114 H 0.65011 0.19537 -0.12385
 C115 C 0.14785 0.64720 -0.17357
 C116 C 0.13074 0.65605 -0.18220
 C117 C 0.12227 0.67338 -0.17369
 C118 C 0.13074 0.68191 -0.15641
 C119 C 0.14785 0.67326 -0.14758
 C120 C 0.15648 0.65583 -0.15618
 C121 C 0.15667 0.63006 -0.18219
 C122 C 0.17399 0.62155 -0.17365
 C123 C 0.18252 0.63004 -0.15635
 C124 C 0.17388 0.64718 -0.14755
 C125 C 0.18251 0.65601 -0.13046
 C126 C 0.17397 0.67333 -0.12201
 C127 C 0.15667 0.68189 -0.13048
 H128 H 0.12412 0.64962 -0.19564
 H129 H 0.12413 0.69539 -0.14999
 H130 H 0.15020 0.62348 -0.19563
 H131 H 0.19598 0.62344 -0.14987
 H132 H 0.19596 0.64956 -0.12383
 H133 H 0.15024 0.69537 -0.12389
 C134 C 0.14746 0.14745 0.32620
 C135 C 0.13037 0.15631 0.31753
 C136 C 0.12182 0.17360 0.32609
 C137 C 0.13022 0.18206 0.34347
 C138 C 0.14731 0.17338 0.35232
 C139 C 0.15600 0.15600 0.34366
 C140 C 0.15635 0.13037 0.31753
 C141 C 0.17364 0.12184 0.32610
 C142 C 0.18208 0.13026 0.34348
 C143 C 0.17338 0.14733 0.35233
 C144 C 0.18192 0.15609 0.36950
 C145 C 0.17333 0.17336 0.37800
 C146 C 0.15605 0.18193 0.36950
 H147 H 0.12386 0.14989 0.30402
 H148 H 0.12359 0.19549 0.34997
 H149 H 0.14994 0.12384 0.30403
 H150 H 0.19552 0.12364 0.34998
 H151 H 0.19536 0.14963 0.37614
 H152 H 0.14958 0.19537 0.37614
 C153 C 0.64741 0.35262 0.67315
 C154 C 0.63029 0.34380 0.68177
 C155 C 0.62177 0.32655 0.67319
 C156 C 0.63021 0.31806 0.65585
 C157 C 0.64733 0.32668 0.64703
 C158 C 0.65601 0.34404 0.65571
 C159 C 0.65629 0.36968 0.68183
 C160 C 0.67361 0.37814 0.67331
 C161 C 0.68211 0.36971 0.65597
 C162 C 0.67343 0.35266 0.64709
 C163 C 0.68203 0.34387 0.62995
 C164 C 0.67344 0.32661 0.62143
 C165 C 0.65613 0.31809 0.62989
 H166 H 0.62370 0.35019 0.69525
 H167 H 0.62356 0.30464 0.64939
 H168 H 0.64989 0.37626 0.69531
 H169 H 0.69558 0.37632 0.64955
 H170 H 0.69550 0.35028 0.62335
 H171 H 0.64966 0.30467 0.62324
 C172 C 0.64706 0.85231 1.17362
 C173 C 0.62992 0.84353 1.18224
 C174 C 0.62138 0.82624 1.17371
 C175 C 0.62985 0.81770 1.15640
 C176 C 0.64699 0.82629 1.14758
 C177 C 0.65567 0.84367 1.15622
 C178 C 0.65593 0.86940 1.18225
 C179 C 0.67326 0.87782 1.17372
 C180 C 0.68178 0.86933 1.15642
 C181 C 0.67310 0.85225 1.14759
 C182 C 0.68172 0.84340 1.13049
 C183 C 0.67314 0.82613 1.12201
 C184 C 0.65581 0.81764 1.13048
 H185 H 0.62335 0.85002 1.19570
 H186 H 0.62324 0.80425 1.14992
 H187 H 0.64952 0.87603 1.19570
 H188 H 0.69526 0.87591 1.15000
 H189 H 0.69520 0.84980 1.12388
 H190 H 0.64935 0.80421 1.12386
 C191 C 0.14726 0.35230 1.17383
 C192 C 0.13018 0.34343 1.18249
 C193 C 0.12173 0.32609 1.17397
 C194 C 0.13022 0.31758 1.15665
 C195 C 0.14730 0.32626 1.14781
 C196 C 0.15589 0.34369 1.15642
 C197 C 0.15605 0.36944 1.18244
 C198 C 0.17332 0.37795 1.17388
 C199 C 0.18186 0.36950 1.15657
 C200 C 0.17326 0.35237 1.14777
 C201 C 0.18190 0.34356 1.13065
 C202 C 0.17341 0.32624 1.12220
 C203 C 0.15614 0.31766 1.13070
 H204 H 0.12359 0.34989 1.19595
 H205 H 0.12366 0.30410 1.15019
 H206 H 0.14962 0.37604 1.19590
 H207 H 0.19529 0.37615 1.15012
 H208 H 0.19534 0.35003 1.12402
 H209 H 0.14974 0.30418 1.12409
 C210 C 0.14691 0.85234 0.67363
 C211 C 0.12981 0.84349 0.68228
 C212 C 0.12129 0.82621 0.67370
 C213 C 0.12973 0.81775 0.65633
 C214 C 0.14683 0.82641 0.64750
 C215 C 0.15549 0.84377 0.65617
 C216 C 0.15578 0.86940 0.68230
 C217 C 0.17307 0.87790 0.67375
 C218 C 0.18155 0.86949 0.65640
 C219 C 0.17288 0.85242 0.64753
 C220 C 0.18147 0.84366 0.63037
 C221 C 0.17290 0.82640 0.62186
 C222 C 0.15561 0.81784 0.63034
 H223 H 0.12327 0.84992 0.69578
 H224 H 0.12312 0.80432 0.64983
 H225 H 0.14939 0.87597 0.69579
 H226 H 0.19500 0.87612 0.64996
 H227 H 0.19491 0.85011 0.62375
 H228 H 0.14916 0.80442 0.62369
 C229 C 0.35236 0.64756 0.67325
 C230 C 0.36945 0.65641 0.68188
 C231 C 0.37792 0.67371 0.67333
 C232 C 0.36946 0.68223 0.65602
 C233 C 0.35236 0.67358 0.64719
 C234 C 0.34374 0.65617 0.65583
 C235 C 0.34353 0.63045 0.68189
 C236 C 0.32624 0.62196 0.67336
 C237 C 0.31772 0.63042 0.65605
 C238 C 0.32635 0.64753 0.64721
 C239 C 0.31772 0.65634 0.63009
 C240 C 0.32625 0.67364 0.62161
 C241 C 0.34354 0.68219 0.63007
 H242 H 0.37606 0.64999 0.69534
 H243 H 0.37607 0.69569 0.64959
 H244 H 0.34995 0.62385 0.69535
 H245 H 0.30427 0.62379 0.64962
 H246 H 0.30428 0.64990 0.62348
 H247 H 0.34997 0.69565 0.62345
 C248 C 0.35280 0.14730 1.17406
 C249 C 0.36993 0.15610 1.18267
 C250 C 0.37848 0.17337 1.17409
 C251 C 0.37004 0.18188 1.15675
 C252 C 0.35291 0.17326 1.14795
 C253 C 0.34422 0.15591 1.15663
 C254 C 0.34391 0.13024 1.18274
 C255 C 0.32658 0.12178 1.17422
 C256 C 0.31810 0.13024 1.15688
 C257 C 0.32680 0.14731 1.14801
 C258 C 0.31821 0.15611 1.13087
 C259 C 0.32680 0.17336 1.12235
 C260 C 0.34412 0.18187 1.13081
 H261 H 0.37649 0.14965 1.19615
 H262 H 0.37666 0.19530 1.15023
 H263 H 0.35035 0.12367 1.19622
 H264 H 0.30463 0.12368 1.15041
 H265 H 0.30474 0.14970 1.12427
 H266 H 0.35059 0.19529 1.12415
 C267 C 0.85250 0.64686 1.17366
 C268 C 0.86959 0.65574 1.18228
 C269 C 0.87804 0.67304 1.17372
 C270 C 0.86957 0.68153 1.15640
 C271 C 0.85248 0.67286 1.14759
 C272 C 0.84387 0.65546 1.15624
 C273 C 0.84369 0.62975 1.18232
 C274 C 0.82639 0.62123 1.17380
 C275 C 0.81786 0.62968 1.15647
 C276 C 0.82648 0.64679 1.14763
 C277 C 0.81785 0.65559 1.13050
 C278 C 0.82637 0.67289 1.12201
 C279 C 0.84365 0.68146 1.13047
 H280 H 0.87621 0.64934 1.19574
 H281 H 0.87617 0.69499 1.14995
 H282 H 0.85017 0.62320 1.19579
 H283 H 0.80441 0.62307 1.15001
 H284 H 0.80440 0.64914 1.12389
 H285 H 0.85006 0.69492 1.12384
 C286 C 0.85248 0.14765 0.67339
 C287 C 0.86955 0.15651 0.68204
 C288 C 0.87804 0.17380 0.67349
 C289 C 0.86962 0.18229 0.65615
 C290 C 0.85255 0.17363 0.64729
 C291 C 0.84390 0.15623 0.65594
 C292 C 0.84363 0.13055 0.68203
 C293 C 0.82636 0.12205 0.67347
 C294 C 0.81788 0.13048 0.65613
 C295 C 0.82653 0.14758 0.64728
 C296 C 0.81795 0.15636 0.63013
 C297 C 0.82650 0.17365 0.62164
 C298 C 0.84377 0.18222 0.63014
 H299 H 0.87612 0.15011 0.69553
 H300 H 0.87625 0.19574 0.64971
 H301 H 0.85002 0.12397 0.69552
 H302 H 0.80444 0.12384 0.64968
 H303 H 0.80452 0.14991 0.62350
 H304 H 0.85021 0.19567 0.62351
 C305 C 0.35220 0.35251 0.67347
 C306 C 0.34336 0.36963 0.68209
 C307 C 0.32603 0.37809 0.67359
 C308 C 0.31748 0.36961 0.65632
 C309 C 0.32612 0.35248 0.64750
 C310 C 0.34356 0.34386 0.65609
 C311 C 0.36934 0.34368 0.68207
 C312 C 0.37783 0.32637 0.67354
 C313 C 0.36934 0.31782 0.65627
 C314 C 0.35220 0.32645 0.64747
 C315 C 0.34336 0.31780 0.63039
 C316 C 0.32603 0.32633 0.62195
 C317 C 0.31748 0.34364 0.63042
 H318 H 0.34980 0.37625 0.69552
 H319 H 0.30400 0.37622 0.64991
 H320 H 0.37597 0.35013 0.69550
 H321 H 0.37597 0.30436 0.64984
 H322 H 0.34980 0.30434 0.62378
 H323 H 0.30400 0.35007 0.62382
 C324 C 0.35262 0.85336 0.17305
 C325 C 0.34378 0.87047 0.18169
 C326 C 0.32646 0.87896 0.17319
 C327 C 0.31791 0.87049 0.15591
 C328 C 0.32655 0.85338 0.14707
 C329 C 0.34398 0.84474 0.15566
 C330 C 0.36975 0.84452 0.18165
 C331 C 0.37824 0.82722 0.17310
 C332 C 0.36976 0.81870 0.15582
 C333 C 0.35262 0.82734 0.14702
 C334 C 0.34379 0.81872 0.12993
 C335 C 0.32646 0.82726 0.12149
 C336 C 0.31791 0.84456 0.12997
 H337 H 0.35022 0.87708 0.19514
 H338 H 0.30444 0.87712 0.14951
 H339 H 0.37638 0.85094 0.19509
 H340 H 0.37638 0.80524 0.14938
 H341 H 0.35023 0.80526 0.12330
 H342 H 0.30444 0.85099 0.12338
 C343 C 0.85326 0.35251 0.17314
 C344 C 0.84442 0.36964 0.18174
 C345 C 0.82712 0.37813 0.17319
 C346 C 0.81861 0.36966 0.15590
 C347 C 0.82725 0.35253 0.14710
 C348 C 0.84465 0.34388 0.15574
 C349 C 0.87037 0.34366 0.18178
 C350 C 0.87885 0.32634 0.17327
 C351 C 0.87039 0.31780 0.15598
 C352 C 0.85329 0.32645 0.14714
 C353 C 0.84447 0.31782 0.13004
 C354 C 0.82718 0.32637 0.12155
 C355 C 0.81863 0.34370 0.13000
 H356 H 0.85083 0.37626 0.19519
 H357 H 0.80515 0.37629 0.14946
 H358 H 0.87697 0.35009 0.19523
 H359 H 0.87702 0.30433 0.14957
 H360 H 0.85091 0.30435 0.12344
 H361 H 0.80518 0.35014 0.12337
 C362 C 0.85249 0.85278 0.67346
 C363 C 0.84363 0.86988 0.68211
 C364 C 0.82629 0.87834 0.67363
 C365 C 0.81774 0.86987 0.65635
 C366 C 0.82640 0.85277 0.64750
 C367 C 0.84385 0.84415 0.65608
 C368 C 0.86964 0.84396 0.68204
 C369 C 0.87814 0.82667 0.67349
 C370 C 0.86965 0.81813 0.65621
 C371 C 0.85250 0.82676 0.64743
 C372 C 0.84366 0.81813 0.63034
 C373 C 0.82632 0.82665 0.62192
 C374 C 0.81775 0.84394 0.63041
 H375 H 0.85008 0.87650 0.69555
 H376 H 0.80426 0.87648 0.64996
 H377 H 0.87627 0.85039 0.69548
 H378 H 0.87629 0.80469 0.64976
 H379 H 0.85011 0.80468 0.62371
 H380 H 0.80427 0.85036 0.62383
 C381 C 0.64738 0.64733 0.67388
 C382 C 0.65624 0.63022 0.68252
 C383 C 0.67355 0.62174 0.67397
 C384 C 0.68205 0.63020 0.65665
 C385 C 0.67338 0.64730 0.64781
 C386 C 0.65597 0.65594 0.65645
 C387 C 0.63026 0.65617 0.68252
 C388 C 0.62175 0.67346 0.67397
 C389 C 0.63019 0.68198 0.65665
 C390 C 0.64731 0.67334 0.64781
 C391 C 0.65610 0.68195 0.63068
 C392 C 0.67341 0.67340 0.62220
 C393 C 0.68198 0.65611 0.63068
 H394 H 0.64984 0.62362 0.69599
 H395 H 0.69551 0.62357 0.65021
 H396 H 0.62367 0.64976 0.69599
 H397 H 0.62354 0.69542 0.65021
 H398 H 0.64964 0.69540 0.62405
 H399 H 0.69544 0.64967 0.62406
 C400 C 0.64756 0.14702 0.17298
 C401 C 0.65640 0.12992 0.18164
 C402 C 0.67377 0.12147 0.17318
 C403 C 0.68235 0.12996 0.15591
 C404 C 0.67370 0.14706 0.14705
 C405 C 0.65623 0.15566 0.15561
 C406 C 0.63038 0.15582 0.18154
 C407 C 0.62189 0.17311 0.17298
 C408 C 0.63040 0.18166 0.15571
 C409 C 0.64758 0.17306 0.14695
 C410 C 0.65645 0.18171 0.12988
 C411 C 0.67382 0.17320 0.12148
 C412 C 0.68237 0.15591 0.12998
 H413 H 0.64994 0.12329 0.19507
 H414 H 0.69585 0.12337 0.14954
 H415 H 0.62373 0.14937 0.19497
 H416 H 0.62377 0.19511 0.14926
 H417 H 0.65001 0.19516 0.12324
 H418 H 0.69588 0.14950 0.12342
 C419 C 0.14737 0.64753 0.17312
 C420 C 0.15620 0.63041 0.18175
 C421 C 0.17352 0.62192 0.17323
 C422 C 0.18207 0.63040 0.15595
 C423 C 0.17344 0.64753 0.14712
 C424 C 0.15602 0.65617 0.15574
 C425 C 0.13025 0.65637 0.18174
 C426 C 0.12177 0.67369 0.17321
 C427 C 0.13026 0.68224 0.15593
 C428 C 0.14739 0.67360 0.14711
 C429 C 0.15623 0.68223 0.13002
 C430 C 0.17355 0.67369 0.12156
 C431 C 0.18209 0.65637 0.13003
 H432 H 0.14976 0.62378 0.19519
 H433 H 0.19554 0.62378 0.14953
 H434 H 0.12362 0.64993 0.19518
 H435 H 0.12364 0.69571 0.14951
 H436 H 0.14980 0.69571 0.12341
 H437 H 0.19555 0.64993 0.12342
 C438 C 0.14713 0.14719 0.67394
 C439 C 0.15598 0.13008 0.68258
 C440 C 0.17325 0.12156 0.67402
 C441 C 0.18175 0.12998 0.65667
 C442 C 0.17310 0.14709 0.64783
 C443 C 0.15572 0.15577 0.65649
 C444 C 0.13005 0.15607 0.68259
 C445 C 0.12156 0.17337 0.67404
 C446 C 0.12998 0.18185 0.65670
 C447 C 0.14707 0.17317 0.64784
 C448 C 0.15586 0.18175 0.63069
 C449 C 0.17313 0.17316 0.62219
 C450 C 0.18169 0.15586 0.63068
 H451 H 0.14958 0.12351 0.69607
 H452 H 0.19518 0.12332 0.65022
 H453 H 0.12346 0.14969 0.69608
 H454 H 0.12335 0.19531 0.65025
 H455 H 0.14941 0.19521 0.62406
 H456 H 0.19512 0.14939 0.62404
 C457 C 0.35264 0.64769 0.32637
 C458 C 0.34384 0.63055 0.31777
 C459 C 0.32655 0.62206 0.32632
 C460 C 0.31801 0.63054 0.34360
 C461 C 0.32661 0.64768 0.35240
 C462 C 0.34400 0.65633 0.34376
 C463 C 0.36974 0.65654 0.31772
 C464 C 0.37819 0.67386 0.32623
 C465 C 0.36970 0.68240 0.34351
 C466 C 0.35260 0.67376 0.35236
 C467 C 0.34376 0.68239 0.36946
 C468 C 0.32648 0.67384 0.37794
 C469 C 0.31797 0.65651 0.36950
 H470 H 0.35028 0.62393 0.30432
 H471 H 0.30456 0.62391 0.35005
 H472 H 0.37637 0.65010 0.30428
 H473 H 0.37630 0.69588 0.34992
 H474 H 0.35017 0.69587 0.37605
 H475 H 0.30452 0.65007 0.37613
 C476 C 0.35284 0.14693 0.82690
 C477 C 0.34402 0.12981 0.81829
 C478 C 0.32674 0.12132 0.82685
 C479 C 0.31821 0.12978 0.84415
 C480 C 0.32684 0.14690 0.85296
 C481 C 0.34422 0.15555 0.84431
 C482 C 0.36993 0.15578 0.81824
 C483 C 0.37839 0.17310 0.82675
 C484 C 0.36993 0.18162 0.84405
 C485 C 0.35284 0.17297 0.85291
 C486 C 0.34402 0.18160 0.87003
 C487 C 0.32674 0.17304 0.87853
 C488 C 0.31822 0.15573 0.87008
 H489 H 0.35044 0.12320 0.80483
 H490 H 0.30477 0.12315 0.85060
 H491 H 0.37653 0.14936 0.80477
 H492 H 0.37653 0.19509 0.85047
 H493 H 0.35044 0.19506 0.87662
 H494 H 0.30477 0.14928 0.87671
 C495 C 0.85304 0.64722 0.82673
 C496 C 0.84426 0.63007 0.81813
 C497 C 0.82698 0.62156 0.82669
 C498 C 0.81843 0.63003 0.84398
 C499 C 0.82702 0.64717 0.85278
 C500 C 0.84440 0.65584 0.84413
 C501 C 0.87012 0.65609 0.81808
 C502 C 0.87855 0.67342 0.82658
 C503 C 0.87006 0.68195 0.84388
 C504 C 0.85298 0.67328 0.85273
 C505 C 0.84413 0.68190 0.86983
 C506 C 0.82686 0.67333 0.87832
 C507 C 0.81837 0.65599 0.86988
 H508 H 0.85069 0.62346 0.80468
 H509 H 0.80500 0.62338 0.85043
 H510 H 0.87675 0.64966 0.80463
 H511 H 0.87665 0.69543 0.85028
 H512 H 0.85053 0.69539 0.87642
 H513 H 0.80494 0.64953 0.87651
 C514 C 0.85317 0.14704 0.32646
 C515 C 0.84435 0.12992 0.31785
 C516 C 0.82702 0.12148 0.32637
 C517 C 0.81846 0.12999 0.34363
 C518 C 0.82708 0.14710 0.35244
 C519 C 0.84452 0.15570 0.34383
 C520 C 0.87031 0.15584 0.31784
 C521 C 0.87878 0.17315 0.32636
 C522 C 0.87028 0.18172 0.34362
 C523 C 0.85314 0.17312 0.35243
 C524 C 0.84428 0.18179 0.36950
 C525 C 0.82695 0.17328 0.37796
 C526 C 0.81842 0.15597 0.36951
 H527 H 0.85080 0.12327 0.30442
 H528 H 0.80498 0.12339 0.35005
 H529 H 0.87695 0.14938 0.30441
 H530 H 0.87689 0.19518 0.35003
 H531 H 0.85070 0.19525 0.37610
 H532 H 0.80495 0.14956 0.37611
 C533 C 0.64731 0.35242 0.32587
 C534 C 0.65614 0.36953 0.31724
 C535 C 0.67342 0.37802 0.32579
 C536 C 0.68193 0.36957 0.34311
 C537 C 0.67330 0.35246 0.35194
 C538 C 0.65592 0.34381 0.34330
 C539 C 0.63022 0.34357 0.31724
 C540 C 0.62174 0.32627 0.32578
 C541 C 0.63020 0.31775 0.34310
 C542 C 0.64729 0.32640 0.35193
 C543 C 0.65610 0.31779 0.36906
 C544 C 0.67338 0.32635 0.37754
 C545 C 0.68191 0.34365 0.36906
 H546 H 0.64973 0.37614 0.30378
 H547 H 0.69537 0.37620 0.34955
 H548 H 0.62362 0.34998 0.30377
 H549 H 0.62358 0.30430 0.34954
 H550 H 0.64967 0.30433 0.37568
 H551 H 0.69535 0.35009 0.37569
 C552 C 0.64703 0.85283 0.82702
 C553 C 0.65585 0.86997 0.81841
 C554 C 0.67316 0.87841 0.82694
 C555 C 0.68172 0.86989 0.84420
 C556 C 0.67309 0.85276 0.85300
 C557 C 0.65567 0.84416 0.84439
 C558 C 0.62990 0.84403 0.81840
 C559 C 0.62144 0.82671 0.82690
 C560 C 0.62993 0.81812 0.84417
 C561 C 0.64705 0.82673 0.85298
 C562 C 0.65590 0.81805 0.87005
 C563 C 0.67322 0.82656 0.87852
 C564 C 0.68174 0.84388 0.87007
 H565 H 0.64941 0.87662 0.80499
 H566 H 0.69519 0.87648 0.85062
 H567 H 0.62327 0.85050 0.80497
 H568 H 0.62332 0.80465 0.85057
 H569 H 0.64948 0.80457 0.87665
 H570 H 0.69521 0.85029 0.87668
 C571 C 0.14714 0.35282 0.82726
 C572 C 0.15597 0.36995 0.81865
 C573 C 0.17330 0.37838 0.82716
 C574 C 0.18186 0.36985 0.84441
 C575 C 0.17323 0.35272 0.85322
 C576 C 0.15580 0.34414 0.84462
 C577 C 0.13001 0.34403 0.81865
 C578 C 0.12154 0.32671 0.82715
 C579 C 0.13004 0.31812 0.84441
 C580 C 0.14717 0.32671 0.85322
 C581 C 0.15603 0.31802 0.87028
 C582 C 0.17335 0.32652 0.87873
 C583 C 0.18189 0.34384 0.87028
 H584 H 0.14952 0.37661 0.80523
 H585 H 0.19534 0.37644 0.85082
 H586 H 0.12337 0.35050 0.80522
 H587 H 0.12342 0.30465 0.85082
 H588 H 0.14960 0.30455 0.87688
 H589 H 0.19536 0.35023 0.87688
 C590 C 0.14707 0.85330 0.32637
 C591 C 0.15590 0.87043 0.31775
 C592 C 0.17318 0.87891 0.32630
 C593 C 0.18170 0.87043 0.34360
 C594 C 0.17308 0.85330 0.35241
 C595 C 0.15569 0.84467 0.34377
 C596 C 0.12998 0.84446 0.31772
 C597 C 0.12151 0.82715 0.32625
 C598 C 0.12997 0.81861 0.34354
 C599 C 0.14706 0.82724 0.35238
 C600 C 0.15588 0.81860 0.36949
 C601 C 0.17317 0.82714 0.37798
 C602 C 0.18170 0.84446 0.36952
 H603 H 0.14948 0.87705 0.30430
 H604 H 0.19515 0.87705 0.35004
 H605 H 0.12337 0.85090 0.30427
 H606 H 0.12336 0.80514 0.34996
 H607 H 0.14945 0.80514 0.37609
 H608 H 0.19514 0.85089 0.37615
 O609 O 0.27547 0.98121 0.24787
 O610 O 0.24782 1.02046 0.27555
 O611 O 0.24779 0.98122 0.27550
 O612 O 0.27557 1.02044 0.24799
 O613 O 0.25215 1.02057 0.22452
 O614 O 0.22437 0.98132 0.25202
 O615 O 0.22440 1.02056 0.25207
 O616 O 0.25205 0.98133 0.22440
 Cu617 Cu 0.26401 1.00082 0.26408
 Cu618 Cu 0.23590 1.00096 0.23590
 C619 C 0.26845 0.97448 0.23144
 C620 C 0.23141 1.02730 0.26850
 C621 C 0.23137 0.97448 0.26843
 C622 C 0.26858 1.02729 0.23159
 O623 O 0.27526 0.48054 0.74812
 O624 O 0.24775 0.51987 0.77581
 O625 O 0.24771 0.48063 0.77587
 O626 O 0.27531 0.51978 0.74807
 O627 O 0.25176 0.51980 0.72473
 O628 O 0.22416 0.48065 0.75252
 O629 O 0.22420 0.51989 0.75246
 O630 O 0.25171 0.48057 0.72477
 Cu631 Cu 0.26387 0.50020 0.76431
 Cu632 Cu 0.23560 0.50023 0.73628
 C633 C 0.26815 0.47375 0.73175
 C634 C 0.23130 0.52668 0.76883
 C635 C 0.23125 0.47386 0.76891
 C636 C 0.26822 0.52656 0.73168
 O637 O 0.74807 -0.02010 0.22464
 O638 O 0.77581 0.01910 0.25217
 O639 O 0.77570 -0.02013 0.25230
 O640 O 0.74816 0.01913 0.22453
 O641 O 0.72468 0.01927 0.24796
 O642 O 0.75221 -0.01999 0.27572
 O643 O 0.75233 0.01925 0.27560
 O644 O 0.72458 -0.01997 0.24806
 Cu645 Cu 0.76429 -0.00052 0.23606
 Cu646 Cu 0.73610 -0.00035 0.26418
 C647 C 0.73162 -0.02682 0.23168
 C648 C 0.76878 0.02596 0.26856
 C649 C 0.76863 -0.02686 0.26872
 C650 C 0.73174 0.02599 0.23153
 O651 O 0.74829 0.48011 0.72463
 O652 O 0.77598 0.51925 0.75230
 O653 O 0.77596 0.48001 0.75224
 O654 O 0.74827 0.51934 0.72474
 O655 O 0.72483 0.51930 0.74821
 O656 O 0.75252 0.47997 0.77571
 O657 O 0.75254 0.51921 0.77578
 O658 O 0.72485 0.48006 0.74810
 Cu659 Cu 0.76447 0.49968 0.73613
 Cu660 Cu 0.73634 0.49963 0.76430
 C661 C 0.73187 0.47332 0.73166
 C662 C 0.76896 0.52601 0.76873
 C663 C 0.76894 0.47319 0.76865
 C664 C 0.73184 0.52612 0.73180
 O665 O 0.27555 0.51958 0.25213
 O666 O 0.24786 0.48032 0.22461
 O667 O 0.24791 0.51955 0.22448
 O668 O 0.27552 0.48034 0.25223
 O669 O 0.25205 0.48044 0.27567
 O670 O 0.22444 0.51965 0.24792
 O671 O 0.22439 0.48042 0.24805
 O672 O 0.25207 0.51967 0.27557
 Cu673 Cu 0.26406 0.49994 0.23601
 Cu674 Cu 0.23589 0.50006 0.26415
 C675 C 0.26851 0.52642 0.26852
 C676 C 0.23143 0.47357 0.23166
 C677 C 0.23149 0.52639 0.23149
 C678 C 0.26847 0.47360 0.26865
 O679 O 0.74770 1.01994 0.77584
 O680 O 0.77528 0.98066 0.74818
 O681 O 0.77530 1.01989 0.74814
 O682 O 0.74766 0.98071 0.77586
 O683 O 0.72415 0.98074 0.75247
 O684 O 0.75180 1.01991 0.72475
 O685 O 0.75178 0.98068 0.72479
 O686 O 0.72420 1.01998 0.75245
 Cu687 Cu 0.76384 1.00030 0.76435
 Cu688 Cu 0.73563 1.00033 0.73627
 C689 C 0.73127 1.02676 0.76884
 C690 C 0.76821 0.97387 0.73179
 C691 C 0.76824 1.02668 0.73174
 C692 C 0.73121 0.97394 0.76886
 O693 O 0.75243 0.51974 0.22415
 O694 O 0.72471 0.48046 0.25164
 O695 O 0.72474 0.51970 0.25176
 O696 O 0.75247 0.48050 0.22409
 O697 O 0.77588 0.48043 0.24758
 O698 O 0.74816 0.51961 0.27524
 O699 O 0.74812 0.48037 0.27512
 O700 O 0.77584 0.51967 0.24763
 Cu701 Cu 0.73624 0.50011 0.23556
 Cu702 Cu 0.76435 0.50001 0.26374
 C703 C 0.76884 0.52650 0.23122
 C704 C 0.73171 0.47362 0.26804
 C705 C 0.73175 0.52643 0.26820
 C706 C 0.76888 0.47368 0.23114
 O707 O 0.27562 0.01909 0.75238
 O708 O 0.24788 -0.02007 0.72477
 O709 O 0.24791 0.01916 0.72482
 O710 O 0.27566 -0.02015 0.75228
 O711 O 0.25226 -0.02019 0.77580
 O712 O 0.22451 0.01914 0.74834
 O713 O 0.22449 -0.02010 0.74829
 O714 O 0.25223 0.01905 0.77590
 Cu715 Cu 0.26411 -0.00049 0.73621
 Cu716 Cu 0.23603 -0.00053 0.76444
 C717 C 0.26863 0.02585 0.76883
 C718 C 0.23147 -0.02686 0.73185
 C719 C 0.23150 0.02595 0.73191
 C720 C 0.26867 -0.02697 0.76870
 O721 O 0.25227 0.22414 0.98079
 O722 O 0.22458 0.25180 1.01997
 O723 O 0.22459 0.25181 0.98079
 O724 O 0.25231 0.22418 1.01998
 O725 O 0.27574 0.24766 1.01994
 O726 O 0.24802 0.27529 0.98076
 O727 O 0.24801 0.27528 1.01995
 O728 O 0.27570 0.24762 0.98075
 Cu729 Cu 0.23609 0.23563 1.00038
 Cu730 Cu 0.26422 0.26382 1.00034
 C731 C 0.26869 0.23118 0.97399
 C732 C 0.23160 0.26823 1.02674
 C733 C 0.23160 0.26825 0.97400
 C734 C 0.26873 0.23123 1.02675
 O735 O 0.24755 0.77592 0.48023
 O736 O 0.27520 0.74819 0.51938
 O737 O 0.27523 0.74825 0.48020
 O738 O 0.24747 0.77581 0.51942
 O739 O 0.22404 0.75232 0.51934
 O740 O 0.25181 0.72476 0.48014
 O741 O 0.25177 0.72470 0.51932
 O742 O 0.22412 0.75243 0.48015
 Cu743 Cu 0.26371 0.76439 0.49981
 Cu744 Cu 0.23559 0.73620 0.49973
 C745 C 0.23114 0.76888 0.47341
 C746 C 0.26818 0.73174 0.52613
 C747 C 0.26823 0.73183 0.47338
 C748 C 0.23105 0.76873 0.52617
 O749 O 0.27583 0.75236 -0.01981
 O750 O 0.24816 0.72475 0.01941
 O751 O 0.24824 0.72466 -0.01978
 O752 O 0.27574 0.75248 0.01938
 O753 O 0.25221 0.77590 0.01927
 O754 O 0.22471 0.74808 -0.01988
 O755 O 0.22464 0.74817 0.01931
 O756 O 0.25230 0.77579 -0.01992
 Cu757 Cu 0.26435 0.73621 -0.00019
 Cu758 Cu 0.23611 0.76433 -0.00031
 C759 C 0.26876 0.76876 -0.02665
 C760 C 0.23170 0.73177 0.02614
 C761 C 0.23180 0.73165 -0.02661
 C762 C 0.26864 0.76891 0.02610
 O763 O 0.27518 0.25170 0.48060
 O764 O 0.24748 0.22405 0.51976
 O765 O 0.24750 0.22407 0.48057
 O766 O 0.27510 0.25172 0.51978
 O767 O 0.25163 0.27520 0.51975
 O768 O 0.22403 0.24755 0.48055
 O769 O 0.22400 0.24752 0.51975
 O770 O 0.25170 0.27518 0.48057
 Cu771 Cu 0.26367 0.23553 0.50018
 Cu772 Cu 0.23549 0.26371 0.50015
 C773 C 0.26814 0.26813 0.47380
 C774 C 0.23105 0.23109 0.52654
 C775 C 0.23108 0.23112 0.47377
 C776 C 0.26805 0.26816 0.52655
 O777 O 0.77542 0.74751 1.01978
 O778 O 0.74779 0.77525 0.98060
 O779 O 0.74775 0.77518 1.01979
 O780 O 0.77551 0.74762 0.98059
 O781 O 0.75207 0.72414 0.98051
 O782 O 0.72431 0.75170 1.01973
 O783 O 0.72435 0.75178 0.98054
 O784 O 0.75199 0.72403 1.01970
 Cu785 Cu 0.76397 0.76374 1.00020
 Cu786 Cu 0.73584 0.73556 1.00011
 C787 C 0.76840 0.73106 1.02652
 C788 C 0.73138 0.76822 0.97380
 C789 C 0.73132 0.76812 1.02654
 C790 C 0.76850 0.73120 0.97377
 O791 O 0.75220 0.22444 0.48000
 O792 O 0.72446 0.25213 0.51914
 O793 O 0.72447 0.25206 0.47995
 O794 O 0.75215 0.22448 0.51919
 O795 O 0.77557 0.24797 0.51916
 O796 O 0.74789 0.27555 0.47991
 O797 O 0.74788 0.27562 0.51910
 O798 O 0.77562 0.24793 0.47998
 Cu799 Cu 0.73597 0.23592 0.49957
 Cu800 Cu 0.76409 0.26412 0.49953
 C801 C 0.76862 0.23148 0.47322
 C802 C 0.73147 0.26858 0.52590
 C803 C 0.73148 0.26848 0.47314
 C804 C 0.76856 0.23154 0.52597
 O805 O 0.72490 0.24788 -0.01981
 O806 O 0.75258 0.27549 0.01937
 O807 O 0.75250 0.27557 -0.01982
 O808 O 0.72491 0.24785 0.01937
 O809 O 0.74840 0.22438 0.01932
 O810 O 0.77599 0.25211 -0.01989
 O811 O 0.77607 0.25202 0.01930
 O812 O 0.74838 0.22441 -0.01986
 Cu813 Cu 0.73637 0.26405 -0.00022
 Cu814 Cu 0.76456 0.23588 -0.00029
 C815 C 0.73194 0.23145 -0.02662
 C816 C 0.76902 0.26844 0.02612
 C817 C 0.76893 0.26854 -0.02664
 C818 C 0.73197 0.23141 0.02613
 O819 O 0.77526 0.75216 0.48057
 O820 O 0.74769 0.72444 0.51978
 O821 O 0.74769 0.72444 0.48059
 O822 O 0.77530 0.75213 0.51975
 O823 O 0.75178 0.77557 0.51978
 O824 O 0.72417 0.74787 0.48061
 O825 O 0.72417 0.74787 0.51980
 O826 O 0.75174 0.77560 0.48059
 Cu827 Cu 0.76384 0.73595 0.50017
 Cu828 Cu 0.73561 0.76407 0.50020
 C829 C 0.76818 0.76859 0.47379
 C830 C 0.73125 0.73145 0.52658
 C831 C 0.73124 0.73146 0.47382
 C832 C 0.76823 0.76855 0.52654
 O833 O 1.02045 0.22420 0.25206
 O834 O 0.98121 0.25184 0.22439
 O835 O 1.02044 0.25188 0.22444
 O836 O 0.98122 0.22417 0.25203
 O837 O 0.98116 0.24763 0.27547
 O838 O 1.02037 0.27534 0.24788
 O839 O 0.98114 0.27530 0.24784
 O840 O 1.02039 0.24766 0.27550
 Cu841 Cu 1.00084 0.23567 0.23588
 Cu842 Cu 1.00076 0.26383 0.26402
 C843 C 1.02721 0.23123 0.26848
 C844 C 0.97439 0.26826 0.23142
 C845 C 1.02719 0.26832 0.23148
 C846 C 0.97440 0.23120 0.26843
 O847 O 0.48035 0.25195 0.72441
 O848 O 0.51967 0.22434 0.75199
 O849 O 0.48045 0.22429 0.75206
 O850 O 0.51958 0.25199 0.72434
 O851 O 0.51957 0.27547 0.74776
 O852 O 0.48043 0.24777 0.77548
 O853 O 0.51966 0.24782 0.77541
 O854 O 0.48034 0.27543 0.74783
 Cu855 Cu 0.50002 0.23579 0.73585
 Cu856 Cu 0.50000 0.26398 0.76397
 C857 C 0.47354 0.26838 0.73144
 C858 C 0.52647 0.23139 0.76839
 C859 C 0.47367 0.23133 0.76847
 C860 C 0.52635 0.26843 0.73134
 O861 O 0.01936 0.24824 0.72492
 O862 O -0.01993 0.27600 0.75241
 O863 O 0.01930 0.27591 0.75254
 O864 O -0.01987 0.24832 0.72480
 O865 O -0.01997 0.22486 0.74826
 O866 O 0.01919 0.25245 0.77599
 O867 O -0.02004 0.25254 0.77587
 O868 O 0.01925 0.22478 0.74837
 Cu869 Cu -0.00027 0.26447 0.73632
 Cu870 Cu -0.00040 0.23631 0.76447
 C871 C 0.02610 0.23180 0.73198
 C872 C -0.02678 0.26898 0.76881
 C873 C 0.02603 0.26886 0.76897
 C874 C -0.02669 0.23191 0.73182
 O875 O 0.48011 0.27500 0.25179
 O876 O 0.51930 0.24738 0.22401
 O877 O 0.48006 0.24734 0.22416
 O878 O 0.51934 0.27505 0.25163
 O879 O 0.51947 0.25158 0.27507
 O880 O 0.48019 0.22387 0.24761
 O881 O 0.51943 0.22391 0.24746
 O882 O 0.48025 0.25153 0.27524
 Cu883 Cu 0.49969 0.26354 0.23555
 Cu884 Cu 0.49985 0.23537 0.26369
 C885 C 0.47340 0.26795 0.26823
 C886 C 0.52615 0.23096 0.23102
 C887 C 0.47332 0.23090 0.23123
 C888 C 0.52620 0.26802 0.26801
 O889 O 0.98067 0.75221 0.72430
 O890 O 1.01994 0.72454 0.75190
 O891 O 0.98071 0.72455 0.75195
 O892 O 1.01990 0.75221 0.72426
 O893 O 1.01990 0.77568 0.74769
 O894 O 0.98071 0.74802 0.77538
 O895 O 1.01994 0.74801 0.77533
 O896 O 0.98067 0.77568 0.74774
 Cu897 Cu 1.00030 0.73603 0.73576
 Cu898 Cu 1.00031 0.76420 0.76388
 C899 C 0.97387 0.76864 0.73134
 C900 C 1.02673 0.73157 0.76830
 C901 C 0.97393 0.73159 0.76837
 C902 C 1.02669 0.76864 0.73128
 O903 O 0.48047 0.74839 0.27518
 O904 O 0.51976 0.77598 0.24757
 O905 O 0.48052 0.77606 0.24754
 O906 O 0.51969 0.74834 0.27522
 O907 O 0.51971 0.72486 0.25180
 O908 O 0.48053 0.75258 0.22411
 O909 O 0.51976 0.75251 0.22414
 O910 O 0.48048 0.72491 0.25175
 Cu911 Cu 0.50011 0.76455 0.26372
 Cu912 Cu 0.50012 0.73636 0.23560
 C913 C 0.47368 0.73196 0.26815
 C914 C 0.52656 0.76893 0.23117
 C915 C 0.47375 0.76902 0.23113
 C916 C 0.52648 0.73189 0.26821
 O917 O -0.01993 0.77568 0.25201
 O918 O 0.01934 0.74809 0.22434
 O919 O -0.01989 0.74797 0.22444
 O920 O 0.01930 0.77578 0.25193
 O921 O 0.01942 0.75234 0.27541
 O922 O -0.01976 0.72453 0.24792
 O923 O 0.01947 0.72465 0.24782
 O924 O -0.01981 0.75225 0.27549
 Cu925 Cu -0.00031 0.76423 0.23583
 Cu926 Cu -0.00015 0.73610 0.26401
 C927 C -0.02666 0.76865 0.26845
 C928 C 0.02620 0.73169 0.23138
 C929 C -0.02660 0.73153 0.23151
 C930 C 0.02614 0.76878 0.26834
 O931 O 0.48000 0.77587 0.75217
 O932 O 0.51932 0.74814 0.72469
 O933 O 0.48009 0.74819 0.72456
 O934 O 0.51923 0.77582 0.75230
 O935 O 0.51914 0.75236 0.77576
 O936 O 0.48000 0.72473 0.74802
 O937 O 0.51923 0.72468 0.74815
 O938 O 0.47990 0.75241 0.77563
 Cu939 Cu 0.49967 0.76436 0.73608
 Cu940 Cu 0.49955 0.73620 0.76424
 C941 C 0.47314 0.76884 0.76857
 C942 C 0.52608 0.73170 0.73176
 C943 C 0.47327 0.73177 0.73158
 C944 C 0.52596 0.76878 0.76874
 C945 C 0.42582 0.29879 0.29928
 C946 C 0.43367 0.30675 0.28145
 C947 C 0.44932 0.29686 0.27146
 C948 C 0.39511 0.31664 0.31722
 C949 C 0.44945 0.27105 0.29722
 C950 C 0.43380 0.28098 0.30719
 C951 C 0.40922 0.30859 0.30914
 C952 C 0.45731 0.27882 0.27917
 H953 H 0.42757 0.32051 0.27518
 H954 H 0.45501 0.30324 0.25760
 H955 H 0.45526 0.25720 0.30356
 H956 H 0.42781 0.27466 0.32096
 C957 C 0.42537 0.79977 0.79923
 C958 C 0.43336 0.80771 0.78146
 C959 C 0.44907 0.79779 0.77159
 C960 C 0.39455 0.81764 0.81698
 C961 C 0.44899 0.77201 0.79738
 C962 C 0.43328 0.78197 0.80722
 C963 C 0.40871 0.80960 0.80897
 C964 C 0.45699 0.77975 0.77938
 H965 H 0.42732 0.82147 0.77512
 H966 H 0.45488 0.80414 0.75777
 H967 H 0.45474 0.75817 0.80377
 H968 H 0.42718 0.77567 0.82095
 C969 C -0.07453 0.29995 0.79947
 C970 C -0.06653 0.30788 0.78170
 C971 C -0.05083 0.29795 0.77183
 C972 C -0.10535 0.31782 0.81719
 C973 C -0.05093 0.27217 0.79762
 C974 C -0.06663 0.28213 0.80745
 C975 C -0.09119 0.30977 0.80920
 C976 C -0.04292 0.27990 0.77962
 H977 H -0.07256 0.32165 0.77536
 H978 H -0.04501 0.30430 0.75801
 H979 H -0.04520 0.25831 0.80401
 H980 H -0.07274 0.27584 0.82118
 C981 C -0.07434 0.79948 0.29935
 C982 C -0.06646 0.80743 0.28153
 C983 C -0.05078 0.79754 0.27159
 C984 C -0.10510 0.81732 0.31720
 C985 C -0.05067 0.77177 0.29739
 C986 C -0.06635 0.78169 0.30730
 C987 C -0.09097 0.80928 0.30916
 C988 C -0.04278 0.77952 0.27934
 H989 H -0.07256 0.82118 0.27523
 H990 H -0.04506 0.80390 0.25773
 H991 H -0.04486 0.75794 0.30375
 H992 H -0.07237 0.77539 0.32107
 C993 C 0.57404 0.70094 0.29915
 C994 C 0.56614 0.69300 0.28135
 C995 C 0.55050 0.70293 0.27139
 C996 C 0.60474 0.68304 0.31704
 C997 C 0.55047 0.72874 0.29714
 C998 C 0.56611 0.71877 0.30707
 C999 C 0.59064 0.69111 0.30898
 C1000 C 0.54256 0.72099 0.27912
 H1001 H 0.57220 0.67922 0.27507
 H1002 H 0.54476 0.69656 0.25756
 H1003 H 0.54471 0.74260 0.30349
 H1004 H 0.57215 0.72507 0.32082
 C1005 C 0.57420 0.20057 0.79919
 C1006 C 0.56627 0.19260 0.78142
 C1007 C 0.55057 0.20249 0.77150
 C1008 C 0.60499 0.18274 0.81700
 C1009 C 0.55056 0.22830 0.79725
 C1010 C 0.56625 0.21838 0.80713
 C1011 C 0.59085 0.19077 0.80897
 C1012 C 0.54261 0.22053 0.77924
 H1013 H 0.57234 0.17884 0.77512
 H1014 H 0.54481 0.19611 0.75768
 H1015 H 0.54478 0.24215 0.80360
 H1016 H 0.57231 0.22470 0.82086
 C1017 C 1.07441 0.70066 0.79911
 C1018 C 1.06648 0.69271 0.78133
 C1019 C 1.05079 0.70263 0.77141
 C1020 C 1.10517 0.68279 0.81693
 C1021 C 1.05080 0.72843 0.79717
 C1022 C 1.06649 0.71848 0.80705
 C1023 C 1.09104 0.69084 0.80890
 C1024 C 1.04286 0.72068 0.77916
 H1025 H 1.07253 0.67895 0.77503
 H1026 H 1.04503 0.69627 0.75759
 H1027 H 1.04505 0.74229 0.80353
 H1028 H 1.07255 0.72479 0.82079
 C1029 C 1.07489 0.20037 0.29934
 C1030 C 1.06699 0.19242 0.28155
 C1031 C 1.05130 0.20232 0.27161
 C1032 C 1.10565 0.18252 0.31719
 C1033 C 1.05125 0.22811 0.29738
 C1034 C 1.06693 0.21818 0.30728
 C1035 C 1.09152 0.19057 0.30914
 C1036 C 1.04333 0.22035 0.27936
 H1037 H 1.07307 0.17866 0.27525
 H1038 H 1.04556 0.19595 0.25778
 H1039 H 1.04546 0.24195 0.30374
 H1040 H 1.07297 0.22448 0.32103
 C1041 C 0.57393 0.29932 0.70042
 C1042 C 0.56600 0.30728 0.71821
 C1043 C 0.55035 0.29737 0.72816
 C1044 C 0.60467 0.31716 0.68257
 C1045 C 0.55036 0.27156 0.70242
 C1046 C 0.56602 0.28150 0.69250
 C1047 C 0.59055 0.30912 0.69061
 C1048 C 0.54243 0.27932 0.72044
 H1049 H 0.57205 0.32105 0.72449
 H1050 H 0.54459 0.30375 0.74199
 H1051 H 0.54462 0.25771 0.69608
 H1052 H 0.57208 0.27519 0.67875
 C1053 C 0.57432 0.79967 0.20037
 C1054 C 0.56638 0.80765 0.21814
 C1055 C 0.55066 0.79779 0.22805
 C1056 C 0.60517 0.81740 0.18259
 C1057 C 0.55066 0.77199 0.20230
 C1058 C 0.56637 0.78188 0.19242
 C1059 C 0.59100 0.80941 0.19060
 C1060 C 0.54271 0.77977 0.22031
 H1061 H 0.57246 0.82139 0.22444
 H1062 H 0.54489 0.80418 0.24187
 H1063 H 0.54488 0.75815 0.19594
 H1064 H 0.57244 0.77555 0.17869
 C1065 C 1.07483 0.29927 0.20068
 C1066 C 1.06695 0.28145 0.19273
 C1067 C 1.05128 0.27149 0.20261
 C1068 C 1.10557 0.31717 0.18287
 C1069 C 1.05119 0.29727 0.22838
 C1070 C 1.06686 0.30721 0.21846
 C1071 C 1.09145 0.30910 0.19090
 C1072 C 1.04330 0.27923 0.22062
 H1073 H 1.07303 0.27516 0.17899
 H1074 H 1.04555 0.25763 0.19624
 H1075 H 1.04540 0.30363 0.24220
 H1076 H 1.07288 0.32097 0.22477
 C1077 C 1.07434 0.79948 0.70042
 C1078 C 1.06642 0.78167 0.69248
 C1079 C 1.05074 0.77175 0.70238
 C1080 C 1.10511 0.81731 0.68259
 C1081 C 1.05073 0.79755 0.72813
 C1082 C 1.06640 0.80744 0.71820
 C1083 C 1.09098 0.80927 0.69062
 C1084 C 1.04280 0.77951 0.72040
 H1085 H 1.07248 0.77536 0.67874
 H1086 H 1.04498 0.75790 0.69603
 H1087 H 1.04496 0.80393 0.74196
 H1088 H 1.07246 0.82120 0.72449
 C1089 C 0.42571 0.70094 0.70061
 C1090 C 0.43358 0.69298 0.71842
 C1091 C 0.44923 0.70287 0.72839
 C1092 C 0.39500 0.68311 0.68272
 C1093 C 0.44931 0.72867 0.70262
 C1094 C 0.43367 0.71874 0.69268
 C1095 C 0.40911 0.69115 0.69078
 C1096 C 0.45719 0.72090 0.72066
 H1097 H 0.42750 0.67923 0.72471
 H1098 H 0.45494 0.69650 0.74224
 H1099 H 0.45510 0.74251 0.69627
 H1100 H 0.42766 0.72506 0.67892
 C1101 C 0.42554 0.20004 0.20063
 C1102 C 0.43355 0.19208 0.21838
 C1103 C 0.44927 0.20198 0.22823
 C1104 C 0.39469 0.18223 0.18294
 C1105 C 0.44916 0.22777 0.20244
 C1106 C 0.43344 0.21784 0.19263
 C1107 C 0.40887 0.19025 0.19092
 C1108 C 0.45717 0.22001 0.22043
 H1109 H 0.42752 0.17833 0.22472
 H1110 H 0.45509 0.19561 0.24203
 H1111 H 0.45489 0.24161 0.19605
 H1112 H 0.42732 0.22414 0.17891
 C1113 C -0.07418 0.70044 0.20083
 C1114 C -0.06619 0.69254 0.21862
 C1115 C -0.05054 0.70252 0.22849
 C1116 C -0.10489 0.68247 0.18308
 C1117 C -0.05069 0.72828 0.20268
 C1118 C -0.06634 0.71827 0.19284
 C1119 C -0.09078 0.69057 0.19108
 C1120 C -0.04269 0.72057 0.22070
 H1121 H -0.07218 0.67877 0.22495
 H1122 H -0.04473 0.69619 0.24232
 H1123 H -0.04500 0.74214 0.19628
 H1124 H -0.07245 0.72454 0.17909
 C1125 C -0.07423 0.20107 0.70083
 C1126 C -0.06637 0.19311 0.71864
 C1127 C -0.05073 0.20301 0.72862
 C1128 C -0.10490 0.18322 0.68291
 C1129 C -0.05064 0.22881 0.70285
 C1130 C -0.06628 0.21888 0.69291
 C1131 C -0.09081 0.19127 0.69098
 C1132 C -0.04277 0.22104 0.72090
 H1133 H -0.07245 0.17935 0.72493
 H1134 H -0.04502 0.19663 0.74248
 H1135 H -0.04486 0.24265 0.69651
 H1136 H -0.07228 0.22519 0.67914
 C1137 C 0.29927 0.42591 0.29957
 C1138 C 0.28147 0.43389 0.30750
 C1139 C 0.27156 0.44958 0.29759
 C1140 C 0.31705 0.39510 0.31740
 C1141 C 0.29737 0.44950 0.27183
 C1142 C 0.30725 0.43381 0.28178
 C1143 C 0.30904 0.40926 0.30937
 C1144 C 0.27933 0.45748 0.27956
 H1145 H 0.27514 0.42785 0.32125
 H1146 H 0.25771 0.45537 0.30393
 H1147 H 0.30376 0.45524 0.25800
 H1148 H 0.32100 0.42772 0.27549
 C1149 C 0.29968 -0.07472 0.79932
 C1150 C 0.28189 -0.06681 0.80734
 C1151 C 0.27191 -0.05111 0.79752
 C1152 C 0.31761 -0.10552 0.81703
 C1153 C 0.29762 -0.05104 0.77167
 C1154 C 0.30757 -0.06674 0.78152
 C1155 C 0.30953 -0.09137 0.80904
 C1156 C 0.27960 -0.04312 0.77950
 H1157 H 0.27563 -0.07291 0.82109
 H1158 H 0.25808 -0.04536 0.80394
 H1159 H 0.30394 -0.04524 0.75783
 H1160 H 0.32132 -0.07278 0.77516
 C1161 C 0.79983 0.42543 0.79938
 C1162 C 0.78204 0.43337 0.80736
 C1163 C 0.77209 0.44908 0.79750
 C1164 C 0.81769 0.39463 0.81716
 C1165 C 0.79786 0.44908 0.77169
 C1166 C 0.80777 0.43338 0.78158
 C1167 C 0.80964 0.40878 0.80914
 C1168 C 0.77983 0.45703 0.77948
 H1169 H 0.77574 0.42730 0.82110
 H1170 H 0.75826 0.45485 0.80389
 H1171 H 0.80421 0.45486 0.75786
 H1172 H 0.82152 0.42731 0.77526
 C1173 C 0.79934 -0.07455 0.29971
 C1174 C 0.78154 -0.06654 0.30762
 C1175 C 0.77166 -0.05085 0.29768
 C1176 C 0.81711 -0.10534 0.31761
 C1177 C 0.79748 -0.05100 0.27194
 C1178 C 0.80734 -0.06669 0.28191
 C1179 C 0.80909 -0.09119 0.30955
 C1180 C 0.77945 -0.04298 0.27965
 H1181 H 0.77520 -0.07255 0.32138
 H1182 H 0.75782 -0.04503 0.30401
 H1183 H 0.80388 -0.04529 0.25810
 H1184 H 0.82109 -0.07281 0.27564
 C1185 C 0.29904 0.57414 0.70067
 C1186 C 0.30705 0.56620 0.71843
 C1187 C 0.29716 0.55055 0.72841
 C1188 C 0.31685 0.60487 0.68277
 C1189 C 0.27127 0.55059 0.70275
 C1190 C 0.28119 0.56625 0.69280
 C1191 C 0.30882 0.59075 0.69083
 C1192 C 0.27909 0.54265 0.72074
 H1193 H 0.32084 0.57224 0.72467
 H1194 H 0.30358 0.54478 0.74222
 H1195 H 0.25739 0.54486 0.69646
 H1196 H 0.27483 0.57231 0.67908
 C1197 C 0.29966 1.07492 0.20090
 C1198 C 0.30755 1.06692 0.21869
 C1199 C 0.29757 1.05126 0.22857
 C1200 C 0.31763 1.10564 0.18313
 C1201 C 0.27183 1.05141 0.20276
 C1202 C 0.28184 1.06708 0.19291
 C1203 C 0.30954 1.09152 0.19115
 C1204 C 0.27953 1.04340 0.22077
 H1205 H 0.32131 1.07291 0.22502
 H1206 H 0.30390 1.04544 0.24240
 H1207 H 0.25798 1.04572 0.19636
 H1208 H 0.27558 1.07319 0.17917
 C1209 C 0.79972 0.57423 0.20049
 C1210 C 0.80764 0.56629 0.21829
 C1211 C 0.79773 0.55059 0.22819
 C1212 C 0.81753 0.60504 0.18270
 C1213 C 0.77201 0.55059 0.20236
 C1214 C 0.78195 0.56629 0.19250
 C1215 C 0.80951 0.59088 0.19073
 C1216 C 0.77973 0.54264 0.22039
 H1217 H 0.82137 0.57235 0.22463
 H1218 H 0.80407 0.54481 0.24203
 H1219 H 0.75819 0.54483 0.19596
 H1220 H 0.77566 0.57236 0.17875
 C1221 C 0.79910 1.07426 0.70078
 C1222 C 0.78127 1.06636 0.69288
 C1223 C 0.77134 1.05071 0.70282
 C1224 C 0.81695 1.10498 0.68288
 C1225 C 0.79718 1.05068 0.72853
 C1226 C 0.80708 1.06633 0.71856
 C1227 C 0.80891 1.09087 0.69094
 C1228 C 0.77912 1.04277 0.72083
 H1229 H 0.77495 1.07241 0.67914
 H1230 H 0.75748 1.04496 0.69649
 H1231 H 0.80357 1.04492 0.74235
 H1232 H 0.82086 1.07237 0.72482
 C1233 C 0.70084 0.57403 0.29914
 C1234 C 0.71862 0.56605 0.30709
 C1235 C 0.72857 0.55039 0.29716
 C1236 C 0.68297 0.60476 0.31704
 C1237 C 0.70283 0.55052 0.27135
 C1238 C 0.69292 0.56618 0.28131
 C1239 C 0.69102 0.59064 0.30898
 C1240 C 0.72085 0.54253 0.27910
 H1241 H 0.72490 0.57204 0.32087
 H1242 H 0.74240 0.54458 0.30353
 H1243 H 0.69649 0.54482 0.25749
 H1244 H 0.67918 0.57229 0.27501
 C1245 C 0.70052 1.07453 0.79969
 C1246 C 0.69252 1.06659 0.78193
 C1247 C 0.70238 1.05088 0.77200
 C1248 C 0.68276 1.10536 0.81749
 C1249 C 0.72823 1.05085 0.79771
 C1250 C 0.71833 1.06656 0.80760
 C1251 C 0.69077 1.09120 0.80947
 C1252 C 0.72042 1.04291 0.77972
 H1253 H 0.67876 1.07268 0.77565
 H1254 H 0.69598 1.04512 0.75819
 H1255 H 0.74208 1.04506 0.80405
 H1256 H 0.72468 1.07262 0.82132
 C1257 C 0.20061 0.57448 0.79969
 C1258 C 0.21844 0.56653 0.80757
 C1259 C 0.22832 0.55081 0.79768
 C1260 C 0.18286 0.60533 0.81749
 C1261 C 0.20242 0.55080 0.77203
 C1262 C 0.19258 0.56652 0.78195
 C1263 C 0.19087 0.59116 0.80947
 C1264 C 0.22048 0.54284 0.77972
 H1265 H 0.22481 0.57261 0.82127
 H1266 H 0.24218 0.54503 0.80399
 H1267 H 0.19599 0.54502 0.75824
 H1268 H 0.17880 0.57260 0.77570
 C1269 C 0.20049 1.07494 0.29936
 C1270 C 0.21829 1.06699 0.30732
 C1271 C 0.22825 1.05132 0.29742
 C1272 C 0.18259 1.10568 0.31720
 C1273 C 0.20249 1.05137 0.27163
 C1274 C 0.19257 1.06704 0.28156
 C1275 C 0.19066 1.09156 0.30916
 C1276 C 0.22052 1.04341 0.27938
 H1277 H 0.22457 1.07302 0.32108
 H1278 H 0.24208 1.04554 0.30379
 H1279 H 0.19614 1.04564 0.25778
 H1280 H 0.17881 1.07312 0.27525
 C1281 C 0.70094 0.42582 0.70068
 C1282 C 0.71875 0.43376 0.69275
 C1283 C 0.72870 0.44938 0.70269
 C1284 C 0.68304 0.39518 0.68274
 C1285 C 0.70294 0.44930 0.72849
 C1286 C 0.69301 0.43368 0.71851
 C1287 C 0.69111 0.40926 0.69083
 C1288 C 0.72097 0.45725 0.72075
 H1289 H 0.72503 0.42775 0.67897
 H1290 H 0.74255 0.45515 0.69633
 H1291 H 0.69659 0.45502 0.74235
 H1292 H 0.67925 0.42762 0.72481
 C1293 C 0.70062 -0.07441 0.20091
 C1294 C 0.69268 -0.06643 0.21868
 C1295 C 0.70263 -0.05077 0.22859
 C1296 C 0.68269 -0.10511 0.18310
 C1297 C 0.72844 -0.05091 0.20283
 C1298 C 0.71846 -0.06656 0.19296
 C1299 C 0.69077 -0.09101 0.19113
 C1300 C 0.72069 -0.04291 0.22083
 H1301 H 0.67890 -0.07242 0.22499
 H1302 H 0.69627 -0.04497 0.24241
 H1303 H 0.74231 -0.04520 0.19646
 H1304 H 0.72476 -0.07266 0.17923
 C1305 C 0.20053 0.42587 0.20097
 C1306 C 0.21834 0.43375 0.19300
 C1307 C 0.22828 0.44945 0.20284
 C1308 C 0.18269 0.39508 0.18323
 C1309 C 0.20249 0.44956 0.22861
 C1310 C 0.19257 0.43386 0.21874
 C1311 C 0.19072 0.40922 0.19123
 C1312 C 0.22053 0.45745 0.22084
 H1313 H 0.22465 0.42765 0.17927
 H1314 H 0.24214 0.45517 0.19646
 H1315 H 0.19612 0.45537 0.24242
 H1316 H 0.17881 0.42784 0.22506
 C1317 C 0.20045 -0.07439 0.70102
 C1318 C 0.21824 -0.06648 0.69303
 C1319 C 0.22823 -0.05085 0.70292
 C1320 C 0.18250 -0.10505 0.68317
 C1321 C 0.20252 -0.05085 0.72877
 C1322 C 0.19256 -0.06648 0.71885
 C1323 C 0.19058 -0.09097 0.69122
 C1324 C 0.22054 -0.04293 0.72098
 H1325 H 0.22450 -0.07252 0.67925
 H1326 H 0.24207 -0.04510 0.69653
 H1327 H 0.19620 -0.04511 0.74264
 H1328 H 0.17881 -0.07252 0.72518
 C1329 C 0.29908 0.29897 0.42621
 C1330 C 0.30703 0.28116 0.43416
 C1331 C 0.29710 0.27124 0.44982
 C1332 C 0.31696 0.31678 0.39548
 C1333 C 0.27129 0.29704 0.44975
 C1334 C 0.28125 0.30693 0.43410
 C1335 C 0.30890 0.30875 0.40959
 C1336 C 0.27905 0.27901 0.45771
 H1337 H 0.32080 0.27484 0.42813
 H1338 H 0.30347 0.25739 0.45559
 H1339 H 0.25743 0.30342 0.45548
 H1340 H 0.27495 0.32069 0.42802
 C1341 C 0.29960 0.79952 -0.07436
 C1342 C 0.28177 0.80748 -0.06648
 C1343 C 0.27184 0.79761 -0.05078
 C1344 C 0.31739 0.81727 -0.10517
 C1345 C 0.29770 0.77186 -0.05066
 C1346 C 0.30760 0.78175 -0.06636
 C1347 C 0.30938 0.80927 -0.09102
 C1348 C 0.27964 0.77961 -0.04278
 H1349 H 0.27543 0.82120 -0.07259
 H1350 H 0.25798 0.80398 -0.04506
 H1351 H 0.30410 0.75804 -0.04485
 H1352 H 0.32137 0.77544 -0.07238
 C1353 C 0.79965 0.29949 -0.07430
 C1354 C 0.78186 0.30743 -0.06632
 C1355 C 0.77198 0.29751 -0.05064
 C1356 C 0.81739 0.31736 -0.10508
 C1357 C 0.79779 0.27171 -0.05074
 C1358 C 0.80764 0.28167 -0.06642
 C1359 C 0.80940 0.30931 -0.09094
 C1360 C 0.77977 0.27945 -0.04275
 H1361 H 0.77552 0.32120 -0.07234
 H1362 H 0.75814 0.30387 -0.04483
 H1363 H 0.80419 0.25785 -0.04502
 H1364 H 0.82139 0.27537 -0.07252
 C1365 C 0.79893 0.79953 0.42615
 C1366 C 0.80694 0.78173 0.43406
 C1367 C 0.79707 0.77177 0.44973
 C1368 C 0.81670 0.81740 0.39538
 C1369 C 0.77122 0.79753 0.44977
 C1370 C 0.78111 0.80746 0.43409
 C1371 C 0.80869 0.80935 0.40952
 C1372 C 0.77903 0.77950 0.45769
 H1373 H 0.82070 0.77545 0.42799
 H1374 H 0.80348 0.75794 0.45548
 H1375 H 0.75736 0.80387 0.45554
 H1376 H 0.77476 0.82121 0.42805
 C1377 C 0.70060 0.29945 0.57352
 C1378 C 0.71837 0.30742 0.56556
 C1379 C 0.72830 0.29752 0.54989
 C1380 C 0.68280 0.31725 0.60431
 C1381 C 0.70256 0.27170 0.54995
 C1382 C 0.69266 0.28163 0.56562
 C1383 C 0.69082 0.30923 0.59016
 C1384 C 0.72057 0.27947 0.54199
 H1385 H 0.72467 0.32119 0.57159
 H1386 H 0.74213 0.30390 0.54410
 H1387 H 0.69621 0.25784 0.54422
 H1388 H 0.67893 0.27530 0.57171
 C1389 C 0.70037 0.79891 1.07418
 C1390 C 0.69245 0.78110 1.06624
 C1391 C 0.70238 0.77119 1.05057
 C1392 C 0.68251 0.81673 1.10492
 C1393 C 0.72813 0.79702 1.05059
 C1394 C 0.71817 0.80689 1.06626
 C1395 C 0.69055 0.80869 1.09080
 C1396 C 0.72041 0.77898 1.04265
 H1397 H 0.67871 0.77477 1.07229
 H1398 H 0.69604 0.75734 1.04480
 H1399 H 0.74196 0.80341 1.04484
 H1400 H 0.72445 0.82065 1.07232
 C1401 C 0.20068 0.29907 1.07436
 C1402 C 0.21848 0.30704 1.06643
 C1403 C 0.22843 0.29715 1.05077
 C1404 C 0.18281 0.31687 1.10510
 C1405 C 0.20267 0.27134 1.05077
 C1406 C 0.19275 0.28126 1.06643
 C1407 C 0.19086 0.30885 1.09098
 C1408 C 0.22070 0.27911 1.04284
 H1409 H 0.22476 0.32080 1.07249
 H1410 H 0.24227 0.30353 1.04501
 H1411 H 0.19632 0.25749 1.04501
 H1412 H 0.17900 0.27494 1.07248
 C1413 C 0.20010 0.79939 0.57388
 C1414 C 0.21789 0.80740 0.56598
 C1415 C 0.22785 0.79757 0.55028
 C1416 C 0.18226 0.81708 0.60471
 C1417 C 0.20210 0.77175 0.55019
 C1418 C 0.19218 0.78161 0.56589
 C1419 C 0.19029 0.80911 0.59055
 C1420 C 0.22013 0.77956 0.54229
 H1421 H 0.22417 0.82114 0.57209
 H1422 H 0.24169 0.80398 0.54455
 H1423 H 0.19576 0.75792 0.54438
 H1424 H 0.17843 0.77526 0.57192
 C1425 C 0.29904 0.70084 0.57375
 C1426 C 0.28126 0.69288 0.56581
 C1427 C 0.27132 0.70279 0.55014
 C1428 C 0.31687 0.68302 0.60450
 C1429 C 0.29708 0.72860 0.55017
 C1430 C 0.30698 0.71866 0.56584
 C1431 C 0.30884 0.69105 0.59037
 C1432 C 0.27906 0.72084 0.54223
 H1433 H 0.27496 0.67912 0.57185
 H1434 H 0.25749 0.69642 0.54438
 H1435 H 0.30344 0.74246 0.54443
 H1436 H 0.32072 0.72498 0.57190
 C1437 C 0.29963 0.20047 1.07442
 C1438 C 0.30756 0.21827 1.06646
 C1439 C 0.29765 0.22817 1.05077
 C1440 C 0.31745 0.18272 1.10523
 C1441 C 0.27190 0.20235 1.05083
 C1442 C 0.28184 0.19249 1.06652
 C1443 C 0.30943 0.19072 1.09107
 C1444 C 0.27963 0.22038 1.04286
 H1445 H 0.32130 0.22460 1.07250
 H1446 H 0.30400 0.24201 1.04498
 H1447 H 0.25806 0.19596 1.04509
 H1448 H 0.27555 0.17874 1.07260
 C1449 C 0.79919 0.70012 1.07414
 C1450 C 0.80715 0.71794 1.06626
 C1451 C 0.79727 0.72790 1.05059
 C1452 C 0.81698 0.68226 1.10490
 C1453 C 0.77150 0.70209 1.05050
 C1454 C 0.78141 0.69217 1.06617
 C1455 C 0.80896 0.69030 1.09077
 C1456 C 0.77926 0.72015 1.04261
 H1457 H 0.82088 0.72424 1.07235
 H1458 H 0.80364 0.74176 1.04486
 H1459 H 0.75768 0.69573 1.04471
 H1460 H 0.77510 0.67840 1.07220
 C1461 C 0.79939 0.20077 0.57368
 C1462 C 0.80733 0.21858 0.56574
 C1463 C 0.79744 0.22848 0.55004
 C1464 C 0.81716 0.18300 0.60450
 C1465 C 0.77170 0.20265 0.55004
 C1466 C 0.78162 0.19278 0.56574
 C1467 C 0.80916 0.19101 0.59035
 C1468 C 0.77944 0.22069 0.54210
 H1469 H 0.82105 0.22491 0.57181
 H1470 H 0.80379 0.24233 0.54428
 H1471 H 0.75788 0.19625 0.54427
 H1472 H 0.77532 0.17902 0.57181
 C1473 C 0.70049 0.70060 0.42616
 C1474 C 0.71830 0.69265 0.43409
 C1475 C 0.72820 0.70255 0.44977
 C1476 C 0.68275 0.68280 0.39537
 C1477 C 0.70234 0.72831 0.44978
 C1478 C 0.69248 0.71838 0.43410
 C1479 C 0.69074 0.69081 0.40952
 C1480 C 0.72039 0.72057 0.45772
 H1481 H 0.72465 0.67891 0.42803
 H1482 H 0.74205 0.69620 0.45553
 H1483 H 0.69594 0.74214 0.45555
 H1484 H 0.67872 0.72468 0.42804
 C1485 C 0.70108 0.20060 -0.07421
 C1486 C 0.69312 0.21841 -0.06628
 C1487 C 0.70302 0.22834 -0.05063
 C1488 C 0.68325 0.18276 -0.10492
 C1489 C 0.72883 0.20254 -0.05064
 C1490 C 0.71889 0.19264 -0.06630
 C1491 C 0.69128 0.19080 -0.09081
 C1492 C 0.72106 0.22058 -0.04271
 H1493 H 0.67935 0.22472 -0.07232
 H1494 H 0.69664 0.24219 -0.04487
 H1495 H 0.74268 0.19617 -0.04490
 H1496 H 0.72521 0.17888 -0.07235
 C1497 C 0.20111 0.70063 -0.07420
 C1498 C 0.19308 0.71843 -0.06632
 C1499 C 0.20293 0.72841 -0.05066
 C1500 C 0.18335 0.68273 -0.10492
 C1501 C 0.22881 0.70268 -0.05058
 C1502 C 0.21893 0.69273 -0.06624
 C1503 C 0.19136 0.69079 -0.09081
 C1504 C 0.22098 0.72071 -0.04270
 H1505 H 0.17932 0.72470 -0.07240
 H1506 H 0.19651 0.74226 -0.04494
 H1507 H 0.24266 0.69635 -0.04480
 H1508 H 0.22529 0.67897 -0.07226
 C1509 C 0.20035 0.20038 0.42603
 C1510 C 0.19236 0.21817 0.43398
 C1511 C 0.20221 0.22805 0.44969
 C1512 C 0.18263 0.18267 0.39517
 C1513 C 0.22802 0.20225 0.44969
 C1514 C 0.21813 0.19240 0.43397
 C1515 C 0.19061 0.19065 0.40934
 C1516 C 0.22024 0.22027 0.45764
 H1517 H 0.17862 0.22450 0.42791
 H1518 H 0.19582 0.24189 0.45547
 H1519 H 0.24186 0.19586 0.45545
 H1520 H 0.22447 0.17866 0.42789
 C1521 C 0.29887 0.42600 0.70083
 C1522 C 0.30689 0.43394 0.71858
 C1523 C 0.29704 0.44964 0.72853
 C1524 C 0.31665 0.39521 0.68297
 C1525 C 0.27115 0.44966 0.70287
 C1526 C 0.28103 0.43396 0.69296
 C1527 C 0.30863 0.40935 0.69102
 C1528 C 0.27898 0.45760 0.72085
 H1529 H 0.32068 0.42786 0.72483
 H1530 H 0.30347 0.45541 0.74232
 H1531 H 0.25728 0.45544 0.69657
 H1532 H 0.27467 0.42789 0.67925
 C1533 C 0.29926 0.92682 0.20050
 C1534 C 0.30720 0.93466 0.21833
 C1535 C 0.29732 0.95034 0.22829
 C1536 C 0.31707 0.89606 0.18260
 C1537 C 0.27158 0.95051 0.20248
 C1538 C 0.28149 0.93484 0.19255
 C1539 C 0.30904 0.91019 0.19066
 C1540 C 0.27932 0.95836 0.22053
 H1541 H 0.32093 0.92853 0.22463
 H1542 H 0.30367 0.95603 0.24215
 H1543 H 0.25776 0.95635 0.19611
 H1544 H 0.27520 0.92885 0.17878
 C1545 C 0.79983 0.42603 0.20033
 C1546 C 0.80775 0.43395 0.21813
 C1547 C 0.79782 0.44962 0.22804
 C1548 C 0.81772 0.39525 0.18255
 C1549 C 0.77207 0.44965 0.20224
 C1550 C 0.78204 0.43397 0.19236
 C1551 C 0.80966 0.40939 0.19056
 C1552 C 0.77979 0.45757 0.22027
 H1553 H 0.82150 0.42788 0.22445
 H1554 H 0.80416 0.45538 0.24189
 H1555 H 0.75824 0.45542 0.19586
 H1556 H 0.77576 0.42792 0.17861
 C1557 C 0.79904 0.92619 0.70090
 C1558 C 0.80703 0.93411 0.71867
 C1559 C 0.79713 0.94979 0.72861
 C1560 C 0.81689 0.89544 0.68303
 C1561 C 0.77129 0.94981 0.70290
 C1562 C 0.78121 0.93412 0.69299
 C1563 C 0.80884 0.90956 0.69108
 C1564 C 0.77908 0.95774 0.72090
 H1565 H 0.82080 0.92805 0.72494
 H1566 H 0.80353 0.95555 0.74243
 H1567 H 0.75743 0.95557 0.69657
 H1568 H 0.77489 0.92807 0.67926
 C1569 C 0.70089 0.57386 0.70111
 C1570 C 0.71869 0.56596 0.69313
 C1571 C 0.72866 0.55026 0.70297
 C1572 C 0.68297 0.60464 0.68335
 C1573 C 0.70290 0.55019 0.72878
 C1574 C 0.69296 0.56589 0.71890
 C1575 C 0.69104 0.59050 0.69136
 C1576 C 0.72093 0.54227 0.72099
 H1577 H 0.72498 0.57205 0.67938
 H1578 H 0.74251 0.54451 0.69658
 H1579 H 0.69655 0.54439 0.74260
 H1580 H 0.67920 0.57192 0.72523
 C1581 C 0.70098 0.07364 0.20053
 C1582 C 0.69299 0.06578 0.21834
 C1583 C 0.70287 0.05011 0.22832
 C1584 C 0.68317 0.10438 0.18260
 C1585 C 0.72869 0.04998 0.20257
 C1586 C 0.71879 0.06565 0.19262
 C1587 C 0.69120 0.09026 0.19068
 C1588 C 0.72090 0.04211 0.22061
 H1589 H 0.67924 0.07188 0.22460
 H1590 H 0.69647 0.04440 0.24216
 H1591 H 0.74254 0.04417 0.19624
 H1592 H 0.72512 0.07166 0.17887
 C1593 C 0.20070 0.57404 0.20051
 C1594 C 0.19272 0.56617 0.21832
 C1595 C 0.20260 0.55049 0.22829
 C1596 C 0.18290 0.60481 0.18262
 C1597 C 0.22841 0.55038 0.20253
 C1598 C 0.21850 0.56605 0.19259
 C1599 C 0.19092 0.59067 0.19068
 C1600 C 0.22063 0.54250 0.22057
 H1601 H 0.17897 0.57227 0.22460
 H1602 H 0.19621 0.54478 0.24213
 H1603 H 0.24225 0.54457 0.19619
 H1604 H 0.22482 0.57207 0.17884
 C1605 C 0.20054 0.07368 0.70120
 C1606 C 0.19265 0.06575 0.71902
 C1607 C 0.20258 0.05005 0.72891
 C1608 C 0.18266 0.10445 0.68341
 C1609 C 0.22828 0.05003 0.70305
 C1610 C 0.21832 0.06572 0.69319
 C1611 C 0.19071 0.09032 0.69143
 C1612 C 0.22059 0.04209 0.72109
 H1613 H 0.17891 0.07182 0.72537
 H1614 H 0.19626 0.04429 0.74277
 H1615 H 0.24210 0.04425 0.69663
 H1616 H 0.22458 0.07178 0.67942
 C1617 C 0.29937 0.57414 0.29922
 C1618 C 0.28157 0.56624 0.30719
 C1619 C 0.27164 0.55054 0.29734
 C1620 C 0.31719 0.60494 0.31697
 C1621 C 0.29743 0.55046 0.27157
 C1622 C 0.30733 0.56616 0.28145
 C1623 C 0.30917 0.59079 0.30897
 C1624 C 0.27939 0.54255 0.27935
 H1625 H 0.27526 0.57233 0.32092
 H1626 H 0.25779 0.54480 0.30372
 H1627 H 0.30380 0.54466 0.25776
 H1628 H 0.32109 0.57219 0.27513
 C1629 C 0.29953 0.07346 0.79966
 C1630 C 0.30744 0.06557 0.78183
 C1631 C 0.29753 0.04991 0.77191
 C1632 C 0.31736 0.10421 0.81748
 C1633 C 0.27182 0.04983 0.79776
 C1634 C 0.28176 0.06549 0.80765
 C1635 C 0.30933 0.09008 0.80945
 C1636 C 0.27953 0.04194 0.77970
 H1637 H 0.32117 0.07166 0.77549
 H1638 H 0.30387 0.04419 0.75804
 H1639 H 0.25800 0.04404 0.80416
 H1640 H 0.27549 0.07152 0.82143
 C1641 C 0.79982 0.57365 0.79955
 C1642 C 0.78203 0.56571 0.80752
 C1643 C 0.77210 0.55003 0.79764
 C1644 C 0.81763 0.60444 0.81733
 C1645 C 0.79787 0.55005 0.77184
 C1646 C 0.80777 0.56572 0.78175
 C1647 C 0.80961 0.59029 0.80932
 C1648 C 0.77984 0.54210 0.77961
 H1649 H 0.77573 0.57176 0.82127
 H1650 H 0.75826 0.54427 0.80401
 H1651 H 0.80423 0.54429 0.75800
 H1652 H 0.82151 0.57179 0.77544
 C1653 C 0.79974 0.07361 0.29926
 C1654 C 0.80769 0.06560 0.28150
 C1655 C 0.79776 0.04993 0.27162
 C1656 C 0.81763 0.10437 0.31701
 C1657 C 0.77195 0.05008 0.29738
 C1658 C 0.78191 0.06576 0.30722
 C1659 C 0.80958 0.09024 0.30900
 C1660 C 0.77969 0.04207 0.27938
 H1661 H 0.82147 0.07160 0.27518
 H1662 H 0.80412 0.04411 0.25781
 H1663 H 0.75808 0.04438 0.30375
 H1664 H 0.77561 0.07187 0.32095
 C1665 C 0.70073 0.42591 0.29869
 C1666 C 0.69282 0.43391 0.28091
 C1667 C 0.70276 0.44960 0.27105
 C1668 C 0.68282 0.39513 0.31642
 C1669 C 0.72850 0.44948 0.29686
 C1670 C 0.71852 0.43379 0.30669
 C1671 C 0.69088 0.40927 0.30842
 C1672 C 0.72079 0.45749 0.27885
 H1673 H 0.67907 0.42790 0.27457
 H1674 H 0.69643 0.45542 0.25722
 H1675 H 0.74234 0.45520 0.30326
 H1676 H 0.72479 0.42767 0.32043
 C1677 C 0.70037 0.92630 0.79975
 C1678 C 0.71820 0.93420 0.80766
 C1679 C 0.72812 0.94987 0.79776
 C1680 C 0.68255 0.89552 0.81757
 C1681 C 0.70228 0.94994 0.77205
 C1682 C 0.69238 0.93426 0.78199
 C1683 C 0.69058 0.90966 0.80955
 C1684 C 0.72034 0.95784 0.77976
 H1685 H 0.72453 0.92811 0.82139
 H1686 H 0.74199 0.95561 0.80409
 H1687 H 0.69588 0.95572 0.75824
 H1688 H 0.67861 0.92823 0.77572
 C1689 C 0.20047 0.42625 0.79991
 C1690 C 0.19245 0.43420 0.78216
 C1691 C 0.20232 0.44986 0.77218
 C1692 C 0.18268 0.39549 0.81778
 C1693 C 0.22822 0.44982 0.79783
 C1694 C 0.21831 0.43416 0.80778
 C1695 C 0.19070 0.40962 0.80974
 C1696 C 0.22039 0.45777 0.77985
 H1697 H 0.17866 0.42816 0.77592
 H1698 H 0.19590 0.45563 0.75838
 H1699 H 0.24209 0.45556 0.80413
 H1700 H 0.22467 0.42809 0.82149
 C1701 C 0.20043 0.92680 0.29916
 C1702 C 0.21821 0.93471 0.30714
 C1703 C 0.22817 0.95039 0.29729
 C1704 C 0.18257 0.89602 0.31693
 C1705 C 0.20244 0.95045 0.27147
 C1706 C 0.19251 0.93476 0.28136
 C1707 C 0.19061 0.91016 0.30892
 C1708 C 0.22046 0.95836 0.27926
 H1709 H 0.22449 0.92863 0.32089
 H1710 H 0.24200 0.95613 0.30368
 H1711 H 0.19610 0.95623 0.25763
 H1712 H 0.17877 0.92872 0.27503
 C1713 C 0.42578 0.29919 0.70067
 C1714 C 0.43372 0.30716 0.71843
 C1715 C 0.44943 0.29728 0.72834
 C1716 C 0.39496 0.31700 0.68289
 C1717 C 0.44944 0.27146 0.70259
 C1718 C 0.43373 0.28138 0.69272
 C1719 C 0.40912 0.30897 0.69090
 C1720 C 0.45739 0.27924 0.72059
 H1721 H 0.42765 0.32092 0.72473
 H1722 H 0.45520 0.30366 0.74215
 H1723 H 0.45522 0.25762 0.69623
 H1724 H 0.42766 0.27506 0.67899
 C1725 C 0.42612 0.79995 0.20027
 C1726 C 0.43404 0.78213 0.19233
 C1727 C 0.44971 0.77217 0.20223
 C1728 C 0.39535 0.81782 0.18246
 C1729 C 0.44972 0.79799 0.22797
 C1730 C 0.43405 0.80791 0.21804
 C1731 C 0.40949 0.80977 0.19048
 C1732 C 0.45765 0.77993 0.22024
 H1733 H 0.42798 0.77582 0.17860
 H1734 H 0.45547 0.75831 0.19588
 H1735 H 0.45549 0.80436 0.24180
 H1736 H 0.42800 0.82168 0.22434
 C1737 C 0.92671 0.29911 0.20053
 C1738 C 0.93460 0.30706 0.21833
 C1739 C 0.95028 0.29717 0.22827
 C1740 C 0.89595 0.31694 0.18267
 C1741 C 0.95036 0.27138 0.20251
 C1742 C 0.93468 0.28131 0.19260
 C1743 C 0.91008 0.30890 0.19072
 C1744 C 0.95826 0.27914 0.22053
 H1745 H 0.92851 0.32082 0.22462
 H1746 H 0.95601 0.30354 0.24211
 H1747 H 0.95616 0.25754 0.19615
 H1748 H 0.92866 0.27500 0.17885
 C1749 C 0.92612 0.79948 0.70058
 C1750 C 0.93406 0.78168 0.69262
 C1751 C 0.94977 0.77176 0.70249
 C1752 C 0.89528 0.81729 0.68282
 C1753 C 0.94978 0.79756 0.72824
 C1754 C 0.93407 0.80745 0.71835
 C1755 C 0.90945 0.80927 0.69082
 C1756 C 0.95773 0.77952 0.72049
 H1757 H 0.92799 0.77536 0.67890
 H1758 H 0.95555 0.75791 0.69612
 H1759 H 0.95555 0.80393 0.74206
 H1760 H 0.92799 0.82120 0.72465
 C1761 C 0.57390 0.29897 0.29866
 C1762 C 0.56590 0.30691 0.28090
 C1763 C 0.55021 0.29698 0.27103
 C1764 C 0.60465 0.31686 0.31641
 C1765 C 0.55035 0.27118 0.29681
 C1766 C 0.56603 0.28115 0.30664
 C1767 C 0.59053 0.30880 0.30840
 C1768 C 0.54233 0.27893 0.27882
 H1769 H 0.57190 0.32068 0.27457
 H1770 H 0.54439 0.30333 0.25722
 H1771 H 0.54464 0.25733 0.30320
 H1772 H 0.57215 0.27485 0.32037
 C1773 C 0.57357 0.79957 0.79967
 C1774 C 0.56569 0.80754 0.78186
 C1775 C 0.55003 0.79766 0.77191
 C1776 C 0.60433 0.81735 0.81752
 C1777 C 0.54993 0.77187 0.79768
 C1778 C 0.56560 0.78178 0.80761
 C1779 C 0.59020 0.80934 0.80948
 C1780 C 0.54205 0.77964 0.77965
 H1781 H 0.57178 0.82128 0.77556
 H1782 H 0.54431 0.80404 0.75806
 H1783 H 0.54414 0.75804 0.80404
 H1784 H 0.57162 0.77546 0.82136
 C1785 C 0.07365 0.29961 0.79992
 C1786 C 0.06567 0.28183 0.80785
 C1787 C 0.05000 0.27193 0.79793
 C1788 C 0.10443 0.31736 0.81777
 C1789 C 0.05012 0.29773 0.77215
 C1790 C 0.06579 0.30759 0.78211
 C1791 C 0.09029 0.30936 0.80973
 C1792 C 0.04212 0.27971 0.77989
 H1793 H 0.07168 0.27550 0.82161
 H1794 H 0.04419 0.25810 0.80428
 H1795 H 0.04441 0.30411 0.75830
 H1796 H 0.07189 0.32133 0.77582
 C1797 C 0.07372 0.79982 0.29906
 C1798 C 0.06585 0.78201 0.30705
 C1799 C 0.05020 0.77202 0.29720
 C1800 C 0.10443 0.81774 0.31685
 C1801 C 0.05011 0.79777 0.27137
 C1802 C 0.06576 0.80773 0.28126
 C1803 C 0.09032 0.80968 0.30883
 C1804 C 0.04223 0.77972 0.27917
 H1805 H 0.07193 0.77574 0.32081
 H1806 H 0.04448 0.75817 0.30359
 H1807 H 0.04432 0.80410 0.25753
 H1808 H 0.07177 0.82149 0.27493
 C1809 C 0.57383 0.70075 0.70110
 C1810 C 0.56594 0.71856 0.69311
 C1811 C 0.55023 0.72853 0.70295
 C1812 C 0.60463 0.68286 0.68334
 C1813 C 0.55014 0.70275 0.72874
 C1814 C 0.56584 0.69282 0.71887
 C1815 C 0.59049 0.69092 0.69135
 C1816 C 0.54223 0.72079 0.72095
 H1817 H 0.57204 0.72486 0.67938
 H1818 H 0.54449 0.74238 0.69655
 H1819 H 0.54433 0.69639 0.74256
 H1820 H 0.57188 0.67905 0.72520
 C1821 C 0.57388 0.20021 0.20011
 C1822 C 0.56598 0.19222 0.21790
 C1823 C 0.55027 0.20208 0.22784
 C1824 C 0.60473 0.18247 0.18231
 C1825 C 0.55017 0.22789 0.20208
 C1826 C 0.56587 0.21800 0.19217
 C1827 C 0.59055 0.19047 0.19032
 C1828 C 0.54227 0.22011 0.22011
 H1829 H 0.57209 0.17848 0.22419
 H1830 H 0.54455 0.19569 0.24168
 H1831 H 0.54435 0.24173 0.19573
 H1832 H 0.57190 0.22434 0.17843
 C1833 C 0.07389 0.70089 0.20046
 C1834 C 0.06602 0.69294 0.21828
 C1835 C 0.05034 0.70282 0.22823
 C1836 C 0.10466 0.68308 0.18260
 C1837 C 0.05020 0.72858 0.20243
 C1838 C 0.06588 0.71867 0.19251
 C1839 C 0.09052 0.69111 0.19064
 C1840 C 0.04233 0.72083 0.22048
 H1841 H 0.07214 0.67920 0.22459
 H1842 H 0.04463 0.69645 0.24209
 H1843 H 0.04438 0.74241 0.19606
 H1844 H 0.07189 0.72498 0.17874
 C1845 C 0.07375 0.20077 0.70124
 C1846 C 0.06588 0.21860 0.69327
 C1847 C 0.05021 0.22859 0.70314
 C1848 C 0.10448 0.18281 0.68343
 C1849 C 0.05011 0.20281 0.72892
 C1850 C 0.06578 0.19285 0.71903
 C1851 C 0.09037 0.19090 0.69147
 C1852 C 0.04222 0.22087 0.72115
 H1853 H 0.07198 0.22488 0.67953
 H1854 H 0.04449 0.24246 0.69676
 H1855 H 0.04430 0.19646 0.74275
 H1856 H 0.07179 0.17907 0.72534
 C1857 C 0.42601 0.70112 0.29899
 C1858 C 0.43392 0.71893 0.30692
 C1859 C 0.44960 0.72886 0.29703
 C1860 C 0.39527 0.68326 0.31683
 C1861 C 0.44964 0.70305 0.27128
 C1862 C 0.43396 0.69315 0.28121
 C1863 C 0.40939 0.69131 0.30879
 C1864 C 0.45756 0.72110 0.27902
 H1865 H 0.42785 0.72525 0.32066
 H1866 H 0.45535 0.74271 0.30338
 H1867 H 0.45541 0.69667 0.25746
 H1868 H 0.42792 0.67939 0.27492
 C1869 C 0.42614 0.20040 0.79943
 C1870 C 0.43406 0.19244 0.78164
 C1871 C 0.44969 0.20237 0.77167
 C1872 C 0.39545 0.18251 0.81733
 C1873 C 0.44967 0.22818 0.79741
 C1874 C 0.43404 0.21822 0.80735
 C1875 C 0.40955 0.19057 0.80927
 C1876 C 0.45760 0.22043 0.77939
 H1877 H 0.42802 0.17867 0.77536
 H1878 H 0.45545 0.19600 0.75783
 H1879 H 0.45541 0.24204 0.80375
 H1880 H 0.42799 0.22453 0.82110
 C1881 C 0.92633 0.70071 0.79929
 C1882 C 0.93425 0.71853 0.80721
 C1883 C 0.94991 0.72847 0.79729
 C1884 C 0.89562 0.68284 0.81718
 C1885 C 0.94990 0.70266 0.77154
 C1886 C 0.93425 0.69276 0.78149
 C1887 C 0.90973 0.69090 0.80912
 C1888 C 0.95783 0.72071 0.77927
 H1889 H 0.92820 0.72483 0.82096
 H1890 H 0.95566 0.74232 0.80364
 H1891 H 0.95566 0.69629 0.75770
 H1892 H 0.92820 0.67899 0.77521
 C1893 C 0.92670 0.20033 0.29921
 C1894 C 0.93462 0.21812 0.30717
 C1895 C 0.95031 0.22806 0.29730
 C1896 C 0.89590 0.18251 0.31699
 C1897 C 0.95036 0.20228 0.27152
 C1898 C 0.93467 0.19238 0.28143
 C1899 C 0.91005 0.19053 0.30897
 C1900 C 0.95828 0.22031 0.27929
 H1901 H 0.92854 0.22443 0.32090
 H1902 H 0.95606 0.24190 0.30367
 H1903 H 0.95614 0.19592 0.25770
 H1904 H 0.92862 0.17862 0.27511
 C1905 C 0.29884 0.29906 0.57416
 C1906 C 0.30681 0.28124 0.56627
 C1907 C 0.29693 0.27129 0.55061
 C1908 C 0.31664 0.31693 0.60487
 C1909 C 0.27113 0.29710 0.55055
 C1910 C 0.28104 0.30701 0.56621
 C1911 C 0.30862 0.30888 0.59077
 C1912 C 0.27890 0.27905 0.54265
 H1913 H 0.32056 0.27493 0.57234
 H1914 H 0.30332 0.25743 0.54488
 H1915 H 0.25729 0.30347 0.54477
 H1916 H 0.27472 0.32078 0.57224
 C1917 C 0.29932 0.79995 0.07369
 C1918 C 0.30735 0.78215 0.06582
 C1919 C 0.29751 0.77215 0.05016
 C1920 C 0.31708 0.81787 0.10441
 C1921 C 0.27163 0.79789 0.05007
 C1922 C 0.28151 0.80785 0.06572
 C1923 C 0.30907 0.80980 0.09030
 C1924 C 0.27946 0.77985 0.04219
 H1925 H 0.32112 0.77588 0.07191
 H1926 H 0.30393 0.75831 0.04445
 H1927 H 0.25778 0.80422 0.04427
 H1928 H 0.27515 0.82161 0.07173
 C1929 C 0.79994 0.29921 0.07373
 C1930 C 0.80790 0.28142 0.06576
 C1931 C 0.79798 0.27152 0.05009
 C1932 C 0.81780 0.31699 0.10446
 C1933 C 0.77216 0.29732 0.05019
 C1934 C 0.78211 0.30719 0.06585
 C1935 C 0.80976 0.30898 0.09034
 C1936 C 0.77992 0.27929 0.04221
 H1937 H 0.82167 0.27510 0.07177
 H1938 H 0.80435 0.25768 0.04430
 H1939 H 0.75830 0.30370 0.04447
 H1940 H 0.77580 0.32093 0.07194
 C1941 C 0.79908 0.79943 0.57413
 C1942 C 0.80707 0.78164 0.56618
 C1943 C 0.79717 0.77170 0.55053
 C1944 C 0.81692 0.81727 0.60484
 C1945 C 0.77131 0.79746 0.55059
 C1946 C 0.78124 0.80736 0.56624
 C1947 C 0.80888 0.80923 0.59073
 C1948 C 0.77911 0.77944 0.54263
 H1949 H 0.82085 0.77535 0.57221
 H1950 H 0.80357 0.75787 0.54475
 H1951 H 0.75744 0.80381 0.54486
 H1952 H 0.77490 0.82111 0.57231
 C1953 C 0.29919 0.70104 0.42576
 C1954 C 0.30711 0.71885 0.43370
 C1955 C 0.29717 0.72876 0.44936
 C1956 C 0.31708 0.68323 0.39503
 C1957 C 0.27143 0.70293 0.44934
 C1958 C 0.28140 0.69306 0.43367
 C1959 C 0.30902 0.69126 0.40915
 C1960 C 0.27915 0.72098 0.45728
 H1961 H 0.32086 0.72518 0.42765
 H1962 H 0.30351 0.74261 0.45513
 H1963 H 0.25760 0.69654 0.45509
 H1964 H 0.27512 0.67929 0.42761
 C1965 C 0.29955 0.20028 0.92637
 C1966 C 0.30748 0.21811 0.93426
 C1967 C 0.29758 0.22805 0.94992
 C1968 C 0.31736 0.18243 0.89562
 C1969 C 0.27183 0.20223 0.95000
 C1970 C 0.28176 0.19232 0.93433
 C1971 C 0.30933 0.19047 0.90975
 C1972 C 0.27957 0.22029 0.95789
 H1973 H 0.32122 0.22442 0.92817
 H1974 H 0.30394 0.24191 0.95565
 H1975 H 0.25801 0.19586 0.95579
 H1976 H 0.27547 0.17855 0.92831
 C1977 C 0.79952 0.70047 0.92614
 C1978 C 0.80743 0.71826 0.93412
 C1979 C 0.79748 0.72815 0.94978
 C1980 C 0.81744 0.68270 0.89541
 C1981 C 0.77172 0.70234 0.94968
 C1982 C 0.78171 0.69248 0.93402
 C1983 C 0.80937 0.69071 0.90953
 C1984 C 0.77943 0.72036 0.95766
 H1985 H 0.82119 0.72459 0.92811
 H1986 H 0.80382 0.74199 0.95558
 H1987 H 0.75787 0.69595 0.95540
 H1988 H 0.77543 0.67873 0.92792
 C1989 C 0.79961 0.20058 0.42569
 C1990 C 0.78181 0.19261 0.43361
 C1991 C 0.77183 0.20253 0.44924
 C1992 C 0.81753 0.18270 0.39501
 C1993 C 0.79758 0.22835 0.44923
 C1994 C 0.80752 0.21840 0.43359
 C1995 C 0.80946 0.19076 0.40911
 C1996 C 0.77954 0.22059 0.45715
 H1997 H 0.77553 0.17884 0.42757
 H1998 H 0.75799 0.19616 0.45499
 H1999 H 0.80391 0.24221 0.45497
 H2000 H 0.82128 0.22472 0.42755
 C2001 C 0.70059 0.29923 0.42545
 C2002 C 0.71837 0.30722 0.43336
 C2003 C 0.72831 0.29736 0.44905
 C2004 C 0.68275 0.31699 0.39466
 C2005 C 0.70257 0.27154 0.44910
 C2006 C 0.69266 0.28143 0.43341
 C2007 C 0.69078 0.30898 0.40880
 C2008 C 0.72059 0.27933 0.45702
 H2009 H 0.72466 0.32097 0.42727
 H2010 H 0.74214 0.30375 0.45479
 H2011 H 0.69622 0.25769 0.45489
 H2012 H 0.67891 0.27509 0.42737
 C2013 C 0.70049 0.79920 0.92625
 C2014 C 0.71829 0.80715 0.93419
 C2015 C 0.72823 0.79720 0.94983
 C2016 C 0.68262 0.81712 0.89557
 C2017 C 0.70247 0.77140 0.94977
 C2018 C 0.69256 0.78137 0.93413
 C2019 C 0.69068 0.80905 0.90966
 C2020 C 0.72049 0.77914 0.95772
 H2021 H 0.72458 0.82092 0.92817
 H2022 H 0.74207 0.80357 0.95560
 H2023 H 0.69611 0.75753 0.95549
 H2024 H 0.67881 0.77507 0.92807
 C2025 C 0.20066 0.29916 0.92645
 C2026 C 0.21845 0.30712 0.93436
 C2027 C 0.22842 0.29720 0.95000
 C2028 C 0.18276 0.31707 0.89578
 C2029 C 0.20267 0.27137 0.94999
 C2030 C 0.19274 0.28133 0.93435
 C2031 C 0.19082 0.30900 0.90987
 C2032 C 0.22070 0.27913 0.95791
 H2033 H 0.22473 0.32090 0.92833
 H2034 H 0.24225 0.30357 0.95575
 H2035 H 0.19633 0.25751 0.95573
 H2036 H 0.17899 0.27502 0.92830
 C2037 C 0.20033 0.79985 0.42581
 C2038 C 0.19239 0.78201 0.43368
 C2039 C 0.20227 0.77204 0.44934
 C2040 C 0.18254 0.81774 0.39507
 C2041 C 0.22802 0.79787 0.44944
 C2042 C 0.21810 0.80780 0.43378
 C2043 C 0.19056 0.80968 0.40919
 C2044 C 0.22027 0.77980 0.45732
 H2045 H 0.17866 0.77570 0.42758
 H2046 H 0.19591 0.75818 0.45505
 H2047 H 0.24184 0.80423 0.45524
 H2048 H 0.22440 0.82158 0.42777
 C2049 C 0.70051 0.70058 0.57427
 C2050 C 0.69250 0.71836 0.56633
 C2051 C 0.70236 0.72830 0.55064
 C2052 C 0.68276 0.68277 0.60507
 C2053 C 0.72822 0.70254 0.55064
 C2054 C 0.71833 0.69264 0.56634
 C2055 C 0.69076 0.69079 0.59092
 C2056 C 0.72041 0.72056 0.54270
 H2057 H 0.67874 0.72466 0.57240
 H2058 H 0.69595 0.74213 0.54487
 H2059 H 0.74208 0.69619 0.54488
 H2060 H 0.72468 0.67890 0.57240
 C2061 C 0.70111 0.20048 0.07372
 C2062 C 0.69314 0.21830 0.06580
 C2063 C 0.70305 0.22825 0.05015
 C2064 C 0.68324 0.18261 0.10441
 C2065 C 0.72888 0.20247 0.05015
 C2066 C 0.71894 0.19254 0.06580
 C2067 C 0.69130 0.19066 0.09031
 C2068 C 0.72110 0.22051 0.04222
 H2069 H 0.67937 0.22459 0.07185
 H2070 H 0.69666 0.24210 0.04440
 H2071 H 0.74273 0.19611 0.04440
 H2072 H 0.72526 0.17878 0.07185
 C2073 C 0.20081 0.70092 0.07376
 C2074 C 0.19283 0.71870 0.06579
 C2075 C 0.20274 0.72863 0.05013
 C2076 C 0.18295 0.68308 0.10448
 C2077 C 0.22860 0.70288 0.05022
 C2078 C 0.21866 0.69298 0.06589
 C2079 C 0.19100 0.69112 0.09037
 C2080 C 0.22082 0.72089 0.04224
 H2081 H 0.17904 0.72500 0.07180
 H2082 H 0.19635 0.74246 0.04433
 H2083 H 0.24248 0.69653 0.04451
 H2084 H 0.22499 0.67925 0.07197
 C2085 C 0.20024 0.20028 0.57423
 C2086 C 0.21803 0.19230 0.56628
 C2087 C 0.22794 0.20218 0.55059
 C2088 C 0.18248 0.18250 0.60505
 C2089 C 0.20214 0.22799 0.55060
 C2090 C 0.19226 0.21808 0.56629
 C2091 C 0.19048 0.19051 0.59089
 C2092 C 0.22017 0.22022 0.54265
 H2093 H 0.22435 0.17854 0.57234
 H2094 H 0.24178 0.19580 0.54482
 H2095 H 0.19576 0.24184 0.54483
 H2096 H 0.17851 0.22440 0.57236
   
