data_POSCAR
  _audit_creation_date              2014-09-24
  _audit_creation_method            'ToBaCCo'
  _symmetry_space_group_name_H-M    'P1'
  _symmetry_Int_Tables_number       1
  _symmetry_cell_setting            triclinic
  loop_
  _symmetry_equiv_pos_as_xyz
 x,y,z
_cell_length_a 52.3785
_cell_length_b 51.9601
_cell_length_c 54.6100
_cell_angle_alpha 91.232800
_cell_angle_beta 89.988200
_cell_angle_gamma 89.643700
loop_
  _atom_site_label
  _atom_site_type_symbol
  _atom_site_fract_x
  _atom_site_fract_y
  _atom_site_fract_z
C1 C 0.43575 -0.01163 0.27837
 H2 H 0.44650 -0.01444 0.26162
 C3 C 0.44845 -0.01152 0.30096
 H4 H 0.46895 -0.01393 0.30111
 C5 C 0.39604 -0.00446 0.29820
 H6 H 0.37558 -0.00180 0.29694
 C7 C 0.40788 -0.00422 0.32106
 H8 H 0.39633 -0.00125 0.33734
 N9 N 0.40995 -0.00846 0.27746
 C10 C 0.41699 0.00951 0.20533
 H11 H 0.40656 0.02714 0.20887
 C12 C 0.43274 0.00757 0.18469
 H13 H 0.43404 0.02376 0.17260
 C14 C 0.42664 -0.03352 0.21560
 H15 H 0.42393 -0.04956 0.22762
 C16 C 0.44207 -0.03649 0.19482
 H17 H 0.45112 -0.05491 0.19084
 Zn18 Zn 0.39145 -0.00973 0.24762
 N19 N 0.41424 -0.01088 0.22036
 C20 C 0.38041 0.04387 0.24811
 N21 N 0.36978 0.02001 0.24683
 C22 C 0.34397 0.01714 0.24640
 C23 C 0.32785 0.03870 0.24698
 C24 C 0.36498 0.06597 0.24807
 C25 C 0.37115 -0.05667 0.26555
 C26 C 0.35700 -0.07942 0.26435
 C27 C 0.34420 -0.06867 0.22333
 C28 C 0.35845 -0.04606 0.22544
 N29 N 0.37149 -0.04039 0.24635
 H30 H 0.40093 0.04573 0.24935
 H31 H 0.33577 -0.00188 0.24613
 H32 H 0.30735 0.03606 0.24703
 H33 H 0.37379 0.08474 0.24934
 H34 H 0.38206 -0.05223 0.28185
 H35 H 0.35759 -0.09162 0.28009
 H36 H 0.33408 -0.07260 0.20636
 H37 H 0.35926 -0.03302 0.21029
 C38 C 0.44529 -0.01578 0.17910
 C39 C 0.43436 -0.00807 0.32277
 C40 C 0.34314 -0.08589 0.24292
 C41 C 0.33829 0.06348 0.24753
 C42 C 0.07011 0.01988 0.71679
 H43 H 0.06547 0.03511 0.72990
 C44 C 0.05660 0.01789 0.69465
 H45 H 0.04158 0.03165 0.69083
 C46 C 0.09586 -0.01596 0.70530
 H47 H 0.11154 -0.02883 0.70903
 C48 C 0.08292 -0.01864 0.68308
 H49 H 0.08844 -0.03414 0.67060
 N50 N 0.08928 0.00296 0.72178
 C51 C 0.10149 0.00508 0.80098
 H52 H 0.12211 0.00401 0.80012
 C53 C 0.08937 0.00669 0.82360
 H54 H 0.10090 0.00655 0.84007
 C55 C 0.06176 0.00688 0.78036
 H56 H 0.05113 0.00695 0.76342
 C57 C 0.04871 0.00847 0.80283
 H58 H 0.02810 0.00959 0.80274
 Zn59 Zn 0.10856 0.00598 0.75148
 N60 N 0.08774 0.00568 0.77992
 C61 C 0.12197 0.05578 0.76947
 N62 N 0.12707 0.03759 0.75179
 C63 C 0.14532 0.04156 0.73458
 C64 C 0.16007 0.06396 0.73544
 C65 C 0.13618 0.07842 0.77098
 C66 C 0.12107 -0.04663 0.75321
 C67 C 0.13668 -0.06849 0.75440
 C68 C 0.17325 -0.04072 0.75886
 C69 C 0.15699 -0.01937 0.75699
 N70 N 0.13142 -0.02266 0.75386
 H71 H 0.10687 0.05285 0.78255
 H72 H 0.14870 0.02710 0.72038
 H73 H 0.17425 0.06653 0.72136
 H74 H 0.13192 0.09248 0.78536
 H75 H 0.10062 -0.04876 0.75141
 H76 H 0.12805 -0.08736 0.75377
 H77 H 0.19354 -0.03782 0.76144
 H78 H 0.16484 -0.00022 0.75835
 C79 C 0.06270 0.00872 0.82488
 C80 C 0.06326 -0.00131 0.67727
 C81 C 0.16318 -0.06563 0.75707
 C82 C 0.15586 0.08262 0.75418
 C83 C 0.57173 0.52458 0.21377
 H84 H 0.57092 0.54016 0.22721
 C85 C 0.55637 0.52546 0.19277
 H86 H 0.54361 0.54167 0.19044
 C87 C 0.58942 0.48463 0.20052
 H88 H 0.60276 0.46904 0.20306
 C89 C 0.57418 0.48456 0.17951
 H90 H 0.57585 0.46875 0.16634
 N91 N 0.58780 0.50430 0.21736
 C92 C 0.60249 0.50111 0.29613
 H93 H 0.62292 0.49815 0.29507
 C94 C 0.59064 0.50326 0.31892
 H95 H 0.60217 0.50157 0.33529
 C96 C 0.56302 0.50755 0.27597
 H97 H 0.55239 0.50948 0.25915
 C98 C 0.55027 0.50977 0.29856
 H99 H 0.52993 0.51331 0.29861
 Zn100 Zn 0.60881 0.50425 0.24613
 N101 N 0.58878 0.50380 0.27523
 C102 C 0.62523 0.55246 0.26587
 N103 N 0.62879 0.53507 0.24714
 C104 C 0.64618 0.53950 0.22922
 C105 C 0.66141 0.56160 0.23022
 C106 C 0.63996 0.57476 0.26755
 C107 C 0.61981 0.45057 0.24485
 C108 C 0.63507 0.42833 0.24526
 C109 C 0.67210 0.45528 0.25044
 C110 C 0.65625 0.47700 0.24920
 N111 N 0.63057 0.47436 0.24628
 H112 H 0.61085 0.54924 0.27960
 H113 H 0.64837 0.52572 0.21422
 H114 H 0.67480 0.56458 0.21551
 H115 H 0.63680 0.58821 0.28270
 H116 H 0.59929 0.44884 0.24339
 H117 H 0.62612 0.40961 0.24424
 H118 H 0.69242 0.45773 0.25321
 H119 H 0.66448 0.49592 0.25121
 C120 C 0.56428 0.50802 0.32050
 C121 C 0.55760 0.50524 0.17523
 C122 C 0.66161 0.43059 0.24813
 C123 C 0.65863 0.57950 0.24985
 C124 C 0.93343 0.51127 0.78163
 H125 H 0.94371 0.52027 0.76701
 C126 C 0.94556 0.50765 0.80423
 H127 H 0.96516 0.51372 0.80636
 C128 C 0.89490 0.49458 0.79714
 H129 H 0.87511 0.48951 0.79439
 C130 C 0.90594 0.49130 0.82004
 H131 H 0.89433 0.48371 0.83462
 N132 N 0.90879 0.50374 0.77823
 C133 C 0.89805 0.50294 0.69813
 H134 H 0.87767 0.50637 0.69876
 C135 C 0.91052 0.50153 0.67559
 H136 H 0.89948 0.50437 0.65911
 C137 C 0.93691 0.49578 0.71908
 H138 H 0.94707 0.49246 0.73587
 C139 C 0.95023 0.49428 0.69680
 H140 H 0.97059 0.49049 0.69682
 Zn141 Zn 0.89045 0.50443 0.74803
 N142 N 0.91132 0.50074 0.71939
 C143 C 0.87876 0.55427 0.73033
 N144 N 0.87173 0.53630 0.74680
 C145 C 0.85240 0.54124 0.76292
 C146 C 0.83894 0.56464 0.76242
 C147 C 0.86585 0.57785 0.72920
 C148 C 0.88123 0.45234 0.75127
 C149 C 0.86769 0.42954 0.75412
 C150 C 0.82842 0.45354 0.74966
 C151 C 0.84278 0.47603 0.74699
 N152 N 0.86873 0.47505 0.74812
 H153 H 0.89472 0.55061 0.71822
 H154 H 0.84732 0.52695 0.77615
 H155 H 0.82326 0.56758 0.77506
 H156 H 0.87185 0.59181 0.71595
 H157 H 0.90186 0.45209 0.75223
 H158 H 0.87809 0.41177 0.75694
 H159 H 0.80782 0.45500 0.74939
 H160 H 0.83315 0.49422 0.74445
 C161 C 0.93700 0.49705 0.67468
 C162 C 0.93177 0.49716 0.82379
 C163 C 0.84094 0.42983 0.75340
 C164 C 0.84576 0.58349 0.74545
 C165 C 0.19962 0.38025 0.98391
 H166 H 0.20539 0.36864 0.96822
 C167 C 0.17649 0.39391 0.98306
 H168 H 0.16490 0.39212 0.96676
 C169 C 0.20800 0.39672 1.02379
 H170 H 0.22024 0.39805 1.03960
 C171 C 0.18512 0.41066 1.02371
 H172 H 0.18011 0.42239 1.03965
 N173 N 0.21474 0.38153 1.00422
 C174 C 0.29758 0.37191 1.01081
 H175 H 0.29862 0.35121 1.01246
 C176 C 0.31963 0.38665 1.01367
 H177 H 0.33767 0.37712 1.01720
 C178 C 0.27264 0.40939 1.00465
 H179 H 0.25419 0.41816 1.00152
 C180 C 0.29429 0.42491 1.00731
 H181 H 0.29203 0.44556 1.00634
 Zn182 Zn 0.24566 0.36154 1.00531
 N183 N 0.27469 0.38338 1.00636
 C184 C 0.26548 0.34377 0.95992
 N185 N 0.24706 0.33960 0.97688
 C186 C 0.22841 0.32191 0.97264
 C187 C 0.22755 0.30799 0.95041
 C188 C 0.26537 0.33031 0.93753
 C189 C 0.25217 0.35640 1.05533
 C190 C 0.25550 0.34450 1.07772
 C191 C 0.24957 0.30335 1.05729
 C192 C 0.24622 0.31615 1.03516
 N193 N 0.24735 0.34231 1.03461
 H194 H 0.27973 0.35837 0.96326
 H195 H 0.21356 0.31937 0.98612
 H196 H 0.21219 0.29451 0.94707
 H197 H 0.27958 0.33520 0.92409
 H198 H 0.25415 0.37703 1.05442
 H199 H 0.25851 0.35666 1.09373
 H200 H 0.24855 0.28254 1.05745
 H201 H 0.24310 0.30510 1.01847
 C202 C 0.31828 0.41349 1.01176
 C203 C 0.16886 0.40926 1.00330
 C204 C 0.25458 0.31750 1.07895
 C205 C 0.24613 0.31213 0.93243
 C206 C 0.80774 0.11885 0.97164
 H207 H 0.80216 0.13121 0.95691
 C208 C 0.83010 0.10404 0.96918
 H209 H 0.84113 0.10591 0.95262
 C210 C 0.79972 0.10184 1.01065
 H211 H 0.78796 0.10089 1.02680
 C212 C 0.82183 0.08666 1.00895
 H213 H 0.82662 0.07434 1.02406
 N214 N 0.79324 0.11796 0.99234
 C215 C 0.71165 0.13541 1.00321
 H216 H 0.71295 0.15606 1.00584
 C217 C 0.68829 0.12316 1.00662
 H218 H 0.67162 0.13457 1.01155
 C219 C 0.73204 0.09553 0.99416
 H220 H 0.74928 0.08483 0.98978
 C221 C 0.70894 0.08246 0.99726
 H222 H 0.70885 0.06171 0.99529
 Zn223 Zn 0.76404 0.14048 0.99591
 N224 N 0.73295 0.12157 0.99711
 C225 C 0.74370 0.16184 0.95284
 N226 N 0.76339 0.16332 0.96899
 C227 C 0.78342 0.17934 0.96512
 C228 C 0.78429 0.19438 0.94417
 C229 C 0.74374 0.17656 0.93176
 C230 C 0.75998 0.14540 1.04644
 C231 C 0.75776 0.15741 1.06940
 C232 C 0.76595 0.19820 1.05071
 C233 C 0.76795 0.18534 1.02794
 N234 N 0.76526 0.15929 1.02626
 H235 H 0.72829 0.14854 0.95580
 H236 H 0.79917 0.17980 0.97793
 H237 H 0.80063 0.20656 0.94109
 H238 H 0.72832 0.17394 0.91881
 H239 H 0.75633 0.12502 1.04458
 H240 H 0.75267 0.14582 1.08486
 H241 H 0.76811 0.21891 1.05179
 H242 H 0.77110 0.19630 1.01166
 C243 C 0.68658 0.09637 1.00352
 C244 C 0.83771 0.08776 0.98818
 C245 C 0.76106 0.18418 1.07187
 C246 C 0.76427 0.19317 0.92715
 C247 C 0.29048 0.61162 0.48137
 H248 H 0.28600 0.62293 0.46558
 C249 C 0.31334 0.59747 0.48165
 H250 H 0.32588 0.59853 0.46601
 C251 C 0.27928 0.59654 0.52044
 H252 H 0.26609 0.59600 0.53555
 C253 C 0.30188 0.58212 0.52147
 H254 H 0.30568 0.57082 0.53752
 N255 N 0.27411 0.61136 0.50078
 C256 C 0.19146 0.62659 0.50438
 H257 H 0.19185 0.64740 0.50546
 C258 C 0.16831 0.61370 0.50695
 H259 H 0.15090 0.62475 0.50966
 C260 C 0.21386 0.58703 0.50007
 H261 H 0.23174 0.57674 0.49785
 C262 C 0.19105 0.57332 0.50247
 H263 H 0.19185 0.55251 0.50217
 Zn264 Zn 0.24417 0.63310 0.50067
 N265 N 0.21365 0.61321 0.50101
 C266 C 0.22740 0.64881 0.45410
 N267 N 0.24495 0.65361 0.47193
 C268 C 0.26426 0.67056 0.46829
 C269 C 0.26666 0.68303 0.44589
 C270 C 0.22910 0.66075 0.43148
 C271 C 0.23650 0.64044 0.55037
 C272 C 0.23374 0.65300 0.57300
 C273 C 0.24320 0.69314 0.55367
 C274 C 0.24590 0.67967 0.53123
 N275 N 0.24280 0.65366 0.53005
 H276 H 0.21262 0.63477 0.45695
 H277 H 0.27847 0.67359 0.48241
 H278 H 0.28251 0.69594 0.44315
 H279 H 0.21547 0.65529 0.41751
 H280 H 0.23305 0.62000 0.54897
 H281 H 0.22962 0.64141 0.58868
 H282 H 0.24589 0.71379 0.55437
 H283 H 0.25025 0.69008 0.51486
 C284 C 0.16777 0.58672 0.50587
 C285 C 0.31951 0.58266 0.50212
 C286 C 0.23679 0.67985 0.57494
 C287 C 0.24905 0.67814 0.42699
 C288 C 0.70599 0.87895 0.48160
 H289 H 0.71237 0.86936 0.46494
 C290 C 0.68282 0.89255 0.48159
 H291 H 0.67192 0.89298 0.46482
 C292 C 0.71294 0.89025 0.52324
 H293 H 0.72456 0.88937 0.53950
 C294 C 0.68996 0.90407 0.52403
 H295 H 0.68429 0.91364 0.54101
 N296 N 0.72038 0.87761 0.50234
 C297 C 0.80316 0.86415 0.50648
 H298 H 0.80329 0.84333 0.50639
 C299 C 0.82593 0.87759 0.50998
 H300 H 0.84359 0.86694 0.51217
 C301 C 0.77977 0.90319 0.50428
 H302 H 0.76162 0.91302 0.50258
 C303 C 0.80217 0.91744 0.50772
 H304 H 0.80077 0.93820 0.50869
 Zn305 Zn 0.75067 0.85660 0.50206
 N306 N 0.78069 0.87702 0.50365
 C307 C 0.76908 0.83869 0.45609
 N308 N 0.75044 0.83577 0.47309
 C309 C 0.73044 0.81966 0.46884
 C310 C 0.72857 0.80585 0.44666
 C311 C 0.76799 0.82525 0.43375
 C312 C 0.75800 0.84860 0.55131
 C313 C 0.76040 0.83549 0.57312
 C314 C 0.75171 0.79570 0.55113
 C315 C 0.74947 0.80968 0.52955
 N316 N 0.75199 0.83579 0.53017
 H317 H 0.78439 0.85214 0.45947
 H318 H 0.71551 0.81816 0.48241
 H319 H 0.71228 0.79352 0.44335
 H320 H 0.78253 0.82896 0.42024
 H321 H 0.76144 0.86908 0.55117
 H322 H 0.76525 0.84620 0.58969
 H323 H 0.74910 0.77503 0.55059
 H324 H 0.74577 0.79962 0.51243
 C325 C 0.82575 0.90458 0.51050
 C326 C 0.67431 0.90510 0.50318
 C327 C 0.75658 0.80877 0.57334
 C328 C 0.74750 0.80849 0.42878
 C329 C 0.02190 0.27420 0.39277
 H330 H 0.03813 0.26121 0.39282
 C331 C 0.02355 0.29841 0.40419
 H332 H 0.04110 0.30400 0.41329
 C333 C -0.02059 0.28296 0.38035
 H334 H -0.03762 0.27716 0.37067
 C335 C -0.01984 0.30717 0.39160
 H336 H -0.03682 0.31909 0.39115
 N337 N 0.00003 0.26700 0.38122
 C338 C 0.00058 0.18414 0.37417
 H339 H -0.00349 0.18268 0.35477
 C340 C 0.00351 0.16200 0.38764
 H341 H 0.00097 0.14368 0.37823
 C342 C 0.00703 0.21044 0.40962
 H343 H 0.00810 0.22943 0.41800
 C344 C 0.00953 0.18869 0.42402
 H345 H 0.01276 0.19112 0.44353
 Zn346 Zn -0.00091 0.23533 0.36418
 N347 N 0.00313 0.20766 0.38511
 C348 C 0.04317 0.21612 0.34066
 N349 N 0.02530 0.23520 0.34077
 C350 C 0.02702 0.25544 0.32549
 C351 C 0.04752 0.25707 0.30928
 C352 C 0.06362 0.21673 0.32450
 C353 C -0.05261 0.22838 0.36528
 C354 C -0.07746 0.22697 0.35651
 C355 C -0.06087 0.22983 0.31529
 C356 C -0.03628 0.23136 0.32493
 N357 N -0.03281 0.23122 0.34955
 H358 H 0.04219 0.20078 0.35358
 H359 H 0.01281 0.27063 0.32640
 H360 H 0.04916 0.27358 0.29762
 H361 H 0.07806 0.20178 0.32531
 H362 H -0.04907 0.22818 0.38479
 H363 H -0.09279 0.22607 0.36967
 H364 H -0.06354 0.23068 0.29565
 H365 H -0.02012 0.23320 0.31281
 C366 C 0.00850 0.16405 0.41294
 C367 C 0.00262 0.31534 0.40337
 C368 C -0.08185 0.22799 0.33115
 C369 C 0.06599 0.23746 0.30865
 C370 C 0.01963 0.71479 0.09696
 H371 H 0.03715 0.72564 0.09825
 C372 C 0.01868 0.69244 0.08255
 H373 H 0.03586 0.68620 0.07316
 C374 C -0.02333 0.70927 0.10944
 H375 H -0.03942 0.71557 0.12043
 C376 C -0.02521 0.68689 0.09511
 H377 H -0.04291 0.67620 0.09500
 N378 N -0.00119 0.72274 0.10994
 C379 C 0.00829 0.80380 0.12429
 H380 H 0.00595 0.80414 0.14397
 C381 C 0.01277 0.82650 0.11205
 H382 H 0.01306 0.84440 0.12252
 C383 C 0.00958 0.77972 0.08687
 H384 H 0.00814 0.76145 0.07719
 C385 C 0.01416 0.80198 0.07388
 H386 H 0.01617 0.80075 0.05414
 Zn387 Zn 0.00304 0.75172 0.13023
 N388 N 0.00724 0.78105 0.11164
 C389 C 0.05318 0.76115 0.14402
 N390 N 0.03263 0.74614 0.14854
 C391 C 0.03422 0.72565 0.16357
 C392 C 0.05728 0.71979 0.17504
 C393 C 0.07656 0.75571 0.15466
 C394 C -0.04723 0.76418 0.13792
 C395 C -0.07005 0.76727 0.15059
 C396 C -0.04785 0.75685 0.18800
 C397 C -0.02536 0.75418 0.17450
 N398 N -0.02572 0.75705 0.14986
 H399 H 0.05182 0.77683 0.13146
 H400 H 0.01774 0.71357 0.16618
 H401 H 0.05854 0.70343 0.18696
 H402 H 0.09277 0.76783 0.15082
 H403 H -0.04669 0.76687 0.11833
 H404 H -0.08705 0.77233 0.14040
 H405 H -0.04660 0.75421 0.20750
 H406 H -0.00776 0.74951 0.18372
 C407 C 0.01624 0.82563 0.08653
 C408 C -0.00408 0.67824 0.08143
 C409 C -0.07094 0.76278 0.17590
 C410 C 0.07881 0.73459 0.17004
 C411 C 0.51812 0.21537 0.59428
 H412 H 0.53286 0.22941 0.59111
 C413 C 0.51915 0.19138 0.58242
 H414 H 0.53466 0.18697 0.56987
 C415 C 0.48013 0.20386 0.61491
 H416 H 0.46518 0.20868 0.62785
 C417 C 0.48051 0.17961 0.60361
 H418 H 0.46525 0.16634 0.60741
 N419 N 0.49870 0.22115 0.60998
 C420 C 0.49495 0.30381 0.61600
 H421 H 0.49514 0.30560 0.63577
 C422 C 0.49182 0.32554 0.60197
 H423 H 0.48995 0.34419 0.61108
 C424 C 0.49660 0.27705 0.58029
 H425 H 0.49777 0.25800 0.57205
 C426 C 0.49353 0.29837 0.56544
 H427 H 0.49266 0.29527 0.54585
 Zn428 Zn 0.49920 0.25297 0.62658
 N429 N 0.49756 0.28027 0.60503
 C430 C 0.54612 0.27379 0.64232
 N431 N 0.52915 0.25439 0.64507
 C432 C 0.53383 0.23458 0.66030
 C433 C 0.55655 0.23365 0.67349
 C434 C 0.56891 0.27382 0.65540
 C435 C 0.44799 0.25822 0.63434
 C436 C 0.42549 0.26313 0.64708
 C437 C 0.44987 0.26536 0.68470
 C438 C 0.47200 0.26036 0.67117
 N439 N 0.47053 0.25684 0.64649
 H440 H 0.54226 0.28906 0.62972
 H441 H 0.51996 0.21936 0.66193
 H442 H 0.55997 0.21782 0.68565
 H443 H 0.58239 0.28930 0.65300
 H444 H 0.44761 0.25558 0.61464
 H445 H 0.40773 0.26331 0.63699
 H446 H 0.45111 0.26804 0.70439
 H447 H 0.49029 0.25969 0.68029
 C448 C 0.49121 0.32305 0.57640
 C449 C 0.50040 0.17310 0.58733
 C450 C 0.42635 0.26711 0.67258
 C451 C 0.57447 0.25337 0.67082
 C452 C 0.51265 0.79219 0.90699
 H453 H 0.52878 0.77926 0.90874
 C454 C 0.51150 0.81486 0.92098
 H455 H 0.52679 0.81938 0.93370
 C456 C 0.47350 0.80253 0.88755
 H457 H 0.45899 0.79787 0.87417
 C458 C 0.47173 0.82554 0.90097
 H459 H 0.45543 0.83805 0.89824
 N460 N 0.49375 0.78646 0.89080
 C461 C 0.49848 0.70463 0.87661
 H462 H 0.49731 0.70494 0.85683
 C463 C 0.49979 0.68128 0.88846
 H464 H 0.49898 0.66369 0.87755
 C465 C 0.49952 0.72764 0.91458
 H466 H 0.49899 0.74574 0.92465
 C467 C 0.50095 0.70467 0.92723
 H468 H 0.50166 0.70523 0.94706
 Zn469 Zn 0.49758 0.75689 0.87110
 N470 N 0.49882 0.72714 0.88971
 C471 C 0.54659 0.74201 0.85639
 N472 N 0.52799 0.76004 0.85358
 C473 C 0.53157 0.78100 0.83953
 C474 C 0.55451 0.78401 0.82692
 C475 C 0.56957 0.74411 0.84400
 C476 C 0.44723 0.74842 0.86173
 C477 C 0.42509 0.74474 0.84822
 C478 C 0.44954 0.75047 0.81114
 C479 C 0.47134 0.75408 0.82546
 N480 N 0.46963 0.75320 0.85027
 H481 H 0.54385 0.72611 0.86846
 H482 H 0.51662 0.79536 0.83821
 H483 H 0.55724 0.80063 0.81560
 H484 H 0.58425 0.72966 0.84663
 H485 H 0.44664 0.74775 0.88151
 H486 H 0.40735 0.74196 0.85792
 H487 H 0.45091 0.75142 0.79139
 H488 H 0.48951 0.75751 0.81680
 C489 C 0.50151 0.68117 0.91412
 C490 C 0.49114 0.83201 0.91764
 C491 C 0.42615 0.74549 0.82254
 C492 C 0.57352 0.76509 0.82876
 C493 C -0.24108 0.67810 0.96570
 H494 H -0.22464 0.68034 0.97753
 C495 C -0.24157 0.68998 0.94290
 H496 H -0.22540 0.70126 0.93720
 C497 C -0.28149 0.65933 0.95795
 H498 H -0.29700 0.64731 0.96370
 C499 C -0.28241 0.67018 0.93485
 H500 H -0.29851 0.66620 0.92294
 N501 N -0.26076 0.66287 0.97262
 C502 C -0.25536 0.65270 1.05140
 H503 H -0.25881 0.63218 1.05120
 C504 C -0.25043 0.66548 1.07345
 H505 H -0.25162 0.65428 1.08982
 C506 C -0.25134 0.69138 1.02968
 H507 H -0.25160 0.70131 1.01250
 C508 C -0.24626 0.70512 1.05156
 H509 H -0.24269 0.72561 1.05093
 Zn510 Zn -0.25850 0.64368 1.00174
 N511 N -0.25510 0.66548 1.03000
 C512 C -0.21014 0.62455 1.01727
 N513 N -0.22859 0.62217 0.99977
 C514 C -0.22527 0.60573 0.98028
 C515 C -0.20334 0.59028 0.97840
 C516 C -0.18797 0.60949 1.01613
 C517 C -0.30656 0.63161 1.02212
 C518 C -0.32949 0.61844 1.02489
 C519 C -0.31693 0.58952 0.99186
 C520 C -0.29391 0.60297 0.99003
 N521 N -0.28906 0.62363 1.00509
 H522 H -0.21210 0.63855 1.03199
 H523 H -0.23933 0.60498 0.96583
 H524 H -0.20106 0.57739 0.96269
 H525 H -0.17364 0.61237 1.03013
 H526 H -0.30307 0.64854 1.03338
 H527 H -0.34305 0.62507 1.03866
 H528 H -0.32028 0.57306 0.97983
 H529 H -0.28020 0.59707 0.97627
 C530 C -0.24474 0.69201 1.07383
 C531 C -0.26224 0.68549 0.92703
 C532 C -0.33506 0.59732 1.00951
 C533 C -0.18440 0.59183 0.99658
 C534 C -0.23339 0.33313 0.55115
 H535 H -0.21863 0.34719 0.54848
 C536 C -0.23283 0.31866 0.57109
 H537 H -0.21766 0.32150 0.58434
 C538 C -0.27021 0.31176 0.53549
 H539 H -0.28450 0.30884 0.52148
 C540 C -0.27058 0.29550 0.55741
 H541 H -0.28584 0.28174 0.55893
 N542 N -0.25346 0.33007 0.53340
 C543 C -0.26856 0.34885 0.45757
 H544 H -0.27446 0.36873 0.46004
 C545 C -0.26972 0.33708 0.43437
 H546 H -0.27626 0.34839 0.41918
 C547 C -0.25112 0.31094 0.47436
 H548 H -0.24332 0.30107 0.48993
 C549 C -0.25188 0.29842 0.45143
 H550 H -0.24491 0.27881 0.44957
 Zn551 Zn -0.25635 0.35390 0.50725
 N552 N -0.25942 0.33571 0.47697
 C553 C -0.21006 0.37252 0.48668
 N554 N -0.22644 0.37500 0.50599
 C555 C -0.22149 0.39183 0.52479
 C556 C -0.19924 0.40657 0.52484
 C557 C -0.18755 0.38694 0.48598
 C558 C -0.30884 0.36354 0.51771
 C559 C -0.33087 0.37827 0.52209
 C560 C -0.30658 0.41645 0.51412
 C561 C -0.28490 0.40096 0.51030
 N562 N -0.28626 0.37495 0.51232
 H563 H -0.21415 0.35895 0.47195
 H564 H -0.23470 0.39353 0.53997
 H565 H -0.19556 0.41956 0.54020
 H566 H -0.17472 0.38395 0.47067
 H567 H -0.31001 0.34290 0.51850
 H568 H -0.34832 0.36814 0.52590
 H569 H -0.30492 0.43708 0.51221
 H570 H -0.26706 0.40981 0.50537
 C571 C -0.26140 0.31142 0.43107
 C572 C -0.25304 0.29927 0.57519
 C573 C -0.33003 0.40529 0.52043
 C574 C -0.18179 0.40422 0.50536
 C575 C 0.28712 -0.14672 0.04923
 H576 H 0.29991 -0.13122 0.04506
 C577 C 0.28927 -0.15836 0.07076
 H578 H 0.30376 -0.15189 0.08361
 C579 C 0.25327 -0.17415 0.03623
 H580 H 0.23925 -0.18025 0.02285
 C581 C 0.25503 -0.18773 0.05981
 H582 H 0.24181 -0.20321 0.06281
 N583 N 0.26789 -0.15453 0.03186
 C584 C 0.25130 -0.14366 -0.04582
 H585 H 0.24470 -0.12392 -0.04424
 C586 C 0.25059 -0.15649 -0.06851
 H587 H 0.24260 -0.14649 -0.08392
 C588 C 0.26898 -0.18042 -0.02718
 H589 H 0.27652 -0.18949 -0.01106
 C590 C 0.26871 -0.19403 -0.04970
 H591 H 0.27582 -0.21364 -0.05068
 Zn592 Zn 0.26287 -0.13434 0.00309
 N593 N 0.26055 -0.15557 -0.02575
 C594 C 0.30854 -0.11706 -0.01920
 N595 N 0.29152 -0.11174 -0.00089
 C596 C 0.29536 -0.09154 0.01495
 C597 C 0.31724 -0.07629 0.01312
 C598 C 0.33067 -0.10235 -0.02165
 C599 C 0.20991 -0.12758 0.01295
 C600 C 0.18652 -0.11454 0.01488
 C601 C 0.20747 -0.07575 0.00249
 C602 C 0.23057 -0.08953 0.00110
 N603 N 0.23147 -0.11503 0.00628
 H604 H 0.30538 -0.13319 -0.03162
 H605 H 0.28160 -0.08751 0.02933
 H606 H 0.31949 -0.06032 0.02593
 H607 H 0.34416 -0.10732 -0.03605
 H608 H 0.21066 -0.14787 0.01660
 H609 H 0.16975 -0.12521 0.02015
 H610 H 0.20791 -0.05554 -0.00166
 H611 H 0.24769 -0.07983 -0.00459
 C612 C 0.26000 -0.18187 -0.07090
 C613 C 0.27198 -0.17980 0.07699
 C614 C 0.18474 -0.08831 0.00928
 C615 C 0.33564 -0.08198 -0.00509
 C616 C 0.26502 1.15941 0.45874
 H617 H 0.28261 1.15027 0.46431
 C618 C 0.26376 1.17130 0.43610
 H619 H 0.28072 1.17152 0.42479
 C620 C 0.22195 1.17064 0.46712
 H621 H 0.20562 1.16991 0.47922
 C622 C 0.21983 1.18274 0.44451
 H623 H 0.20183 1.19141 0.43932
 N624 N 0.24416 1.15884 0.47353
 C625 C 0.25152 1.14848 0.55240
 H626 H 0.25250 1.12767 0.55250
 C627 C 0.25412 1.16248 0.57426
 H628 H 0.25624 1.15200 0.59105
 C629 C 0.24656 1.18685 0.53021
 H630 H 0.24370 1.19620 0.51292
 C631 C 0.24907 1.20172 0.55184
 H632 H 0.24797 1.22251 0.55110
 Zn633 Zn 0.24586 1.13905 0.50232
 N634 N 0.24785 1.16068 0.53091
 C635 C 0.29642 1.12436 0.51536
 N636 N 0.27604 1.11795 0.50101
 C637 C 0.27741 1.09756 0.48500
 C638 C 0.29966 1.08263 0.48321
 C639 C 0.31898 1.10984 0.51428
 C640 C 0.20164 1.11779 0.52449
 C641 C 0.18003 1.10232 0.52591
 C642 C 0.18701 1.08837 0.48403
 C643 C 0.20871 1.10403 0.48347
 N644 N 0.21590 1.11805 0.50366
 H645 H 0.29555 1.14120 0.52727
 H646 H 0.26140 1.09301 0.47330
 H647 H 0.30042 1.06663 0.47017
 H648 H 0.33499 1.11585 0.52547
 H649 H 0.20685 1.12958 0.54016
 H650 H 0.16920 1.10224 0.54282
 H651 H 0.18211 1.07707 0.46788
 H652 H 0.21967 1.10515 0.46676
 C653 C 0.25336 1.18954 0.57420
 C654 C 0.24067 1.18246 0.42835
 C655 C 0.17241 1.08731 0.50560
 C656 C 0.32077 1.08856 0.49805
 C657 C 0.13107 0.45257 0.26133
 H658 H 0.13043 0.46413 0.27803
 C659 C 0.14378 0.42874 0.26101
 H660 H 0.15328 0.42251 0.27746
 C661 C 0.11969 0.44704 0.21960
 H662 H 0.11002 0.45393 0.20355
 C663 C 0.13235 0.42330 0.21841
 H664 H 0.13253 0.41238 0.20129
 N665 N 0.11956 0.46137 0.24074
 C666 C 0.11653 0.54538 0.24028
 H667 H 0.09678 0.54788 0.23499
 C668 C 0.13266 0.56670 0.24165
 H669 H 0.12500 0.58556 0.23774
 C670 C 0.15015 0.51773 0.25238
 H671 H 0.15697 0.49863 0.25638
 C672 C 0.16682 0.53862 0.25443
 H673 H 0.18635 0.53541 0.26020
 Zn674 Zn 0.10196 0.49368 0.24238
 N675 N 0.12543 0.52146 0.24558
 C676 C 0.08321 0.51165 0.28798
 N677 N 0.08025 0.49323 0.27018
 C678 C 0.06416 0.47308 0.27327
 C679 C 0.05111 0.47032 0.29546
 C680 C 0.07059 0.50965 0.31033
 C681 C 0.09777 0.50328 0.19289
 C682 C 0.08630 0.50869 0.17058
 C683 C 0.04500 0.50610 0.19005
 C684 C 0.05742 0.50068 0.21215
 N685 N 0.08335 0.49919 0.21307
 H686 H 0.09608 0.52749 0.28523
 H687 H 0.06232 0.45855 0.25890
 H688 H 0.03907 0.45372 0.29804
 H689 H 0.07347 0.52447 0.32428
 H690 H 0.11837 0.50244 0.19423
 H691 H 0.09851 0.51168 0.15486
 H692 H 0.02438 0.50667 0.19005
 H693 H 0.04632 0.49776 0.22854
 C694 C 0.15821 0.56342 0.24879
 C695 C 0.14456 0.41379 0.23925
 C696 C 0.05952 0.51023 0.16867
 C697 C 0.05503 0.48825 0.31464
 C698 C -0.13851 1.03751 0.26704
 H699 H -0.13969 1.02529 0.28279
 C700 C -0.15212 1.06088 0.26683
 H701 H -0.16404 1.06614 0.28235
 C702 C -0.12178 1.04518 0.22762
 H703 H -0.10974 1.03931 0.21243
 C704 C -0.13519 1.06842 0.22654
 H705 H -0.13346 1.07998 0.21035
 N706 N -0.12382 1.03005 0.24753
 C707 C -0.11524 0.94617 0.24208
 H708 H -0.09466 0.94498 0.24069
 C709 C -0.12987 0.92395 0.23885
 H710 H -0.12024 0.90571 0.23561
 C711 C -0.15249 0.97154 0.24834
 H712 H -0.16125 0.99017 0.25167
 C713 C -0.16786 0.94970 0.24554
 H714 H -0.18840 0.95168 0.24706
 Zn715 Zn -0.10472 0.99859 0.24818
 N716 N -0.12664 0.96939 0.24667
 C717 C -0.08801 0.97871 0.29315
 N718 N -0.08501 0.99837 0.27741
 C719 C -0.06950 1.01856 0.28306
 C720 C -0.05638 1.01957 0.30543
 C721 C -0.07525 0.97889 0.31557
 C722 C -0.09649 0.98977 0.19897
 C723 C -0.08351 0.98617 0.17692
 C724 C -0.04400 0.99528 0.19806
 C725 C -0.05786 0.99834 0.21994
 N726 N -0.08369 0.99573 0.21990
 H727 H -0.10074 0.96305 0.28863
 H728 H -0.06780 1.03421 0.27042
 H729 H -0.04478 1.03620 0.30967
 H730 H -0.07824 0.96317 0.32794
 H731 H -0.11705 0.98790 0.19943
 H732 H -0.09502 0.98232 0.16090
 H733 H -0.02347 0.99772 0.19843
 H734 H -0.04797 1.00286 0.23684
 C735 C -0.15661 0.92558 0.24036
 C736 C -0.15054 1.07666 0.24627
 C737 C -0.05668 0.98879 0.17605
 C738 C -0.05931 0.99952 0.32212
 C739 C 0.35987 0.53740 -0.22716
 H740 H 0.35931 0.52307 -0.21309
 C741 C 0.34645 0.56066 -0.22387
 H742 H 0.33528 0.56391 -0.20739
 C743 C 0.37565 0.55088 -0.26538
 H744 H 0.38764 0.54745 -0.28121
 C745 C 0.36262 0.57434 -0.26281
 H746 H 0.36500 0.58850 -0.27685
 N747 N 0.37380 0.53276 -0.24787
 C748 C 0.38448 0.44798 -0.25824
 H749 H 0.40466 0.44792 -0.26249
 C750 C 0.37136 0.42599 -0.25942
 H751 H 0.38119 0.40828 -0.26457
 C752 C 0.34765 0.47261 -0.24683
 H753 H 0.33841 0.49074 -0.24238
 C754 C 0.33242 0.44866 -0.24745
 H755 H 0.31231 0.45041 -0.24338
 Zn756 Zn 0.39323 0.50156 -0.25108
 N757 N 0.37203 0.47182 -0.25147
 C758 C 0.41406 0.48056 -0.20811
 N759 N 0.41562 0.50055 -0.22369
 C760 C 0.43046 0.52132 -0.21828
 C761 C 0.44374 0.52294 -0.19600
 C762 C 0.42709 0.48130 -0.18583
 C763 C 0.39604 0.49919 -0.30169
 C764 C 0.40675 0.49636 -0.32499
 C765 C 0.44857 0.49576 -0.30644
 C766 C 0.43698 0.49875 -0.28335
 N767 N 0.41110 0.50036 -0.28145
 H768 H 0.40184 0.46443 -0.21241
 H769 H 0.43101 0.53720 -0.23076
 H770 H 0.45446 0.54018 -0.19183
 H771 H 0.42490 0.46547 -0.17342
 H772 H 0.37551 0.50037 -0.29967
 H773 H 0.39404 0.49632 -0.34056
 H774 H 0.46917 0.49441 -0.30768
 H775 H 0.44861 0.49937 -0.26699
 C776 C 0.34374 0.42584 -0.25328
 C777 C 0.34736 0.57937 -0.24200
 C778 C 0.43342 0.49410 -0.32767
 C779 C 0.44174 0.50287 -0.17919
 C780 C 0.64163 -0.02617 -0.22716
 H781 H 0.64153 -0.01215 -0.21223
 C782 C 0.65426 -0.04857 -0.22476
 H783 H 0.66452 -0.05217 -0.20795
 C784 C 0.62679 -0.03793 -0.26702
 H785 H 0.61534 -0.03444 -0.28303
 C786 C 0.64050 -0.06271 -0.26529
 H787 H 0.63869 -0.07571 -0.28082
 N788 N 0.62762 -0.02092 -0.24920
 C789 C 0.61566 0.06106 -0.26194
 H790 H 0.59665 0.05958 -0.26954
 C791 C 0.62895 0.08419 -0.26366
 H792 H 0.61985 0.10026 -0.27258
 C793 C 0.65033 0.04178 -0.24135
 H794 H 0.65883 0.02507 -0.23312
 C795 C 0.66413 0.06479 -0.24215
 H796 H 0.68321 0.06486 -0.23464
 Zn797 Zn 0.60677 0.00940 -0.25123
 N798 N 0.62644 0.04035 -0.25102
 C799 C 0.58133 0.03115 -0.21000
 N800 N 0.58420 0.00949 -0.22412
 C801 C 0.57290 -0.01298 -0.21794
 C802 C 0.55919 -0.01460 -0.19602
 C803 C 0.56760 0.03046 -0.18811
 C804 C 0.60251 0.01174 -0.30171
 C805 C 0.59079 0.01300 -0.32454
 C806 C 0.54982 0.00852 -0.30482
 C807 C 0.56241 0.00737 -0.28221
 N808 N 0.58832 0.00889 -0.28113
 H809 H 0.59029 0.04885 -0.21535
 H810 H 0.57550 -0.02995 -0.22952
 H811 H 0.55128 -0.03290 -0.19082
 H812 H 0.56569 0.04800 -0.17722
 H813 H 0.62306 0.01322 -0.30029
 H814 H 0.60255 0.01521 -0.34067
 H815 H 0.52927 0.00683 -0.30521
 H816 H 0.55150 0.00537 -0.26555
 C817 C 0.65342 0.08661 -0.25339
 C818 C 0.65395 -0.06834 -0.24490
 C819 C 0.56414 0.01153 -0.32640
 C820 C 0.55723 0.00704 -0.18033
 C821 C 0.03054 0.24246 0.83075
 H822 H 0.01324 0.24557 0.82043
 C823 C 0.05383 0.24011 0.81856
 H824 H 0.05436 0.24166 0.79881
 C825 C 0.05099 0.23667 0.86900
 H826 H 0.04956 0.23553 0.88871
 C827 C 0.07466 0.23438 0.85762
 H828 H 0.09134 0.23206 0.86901
 N829 N 0.02970 0.24116 0.85555
 C830 C -0.04653 0.22908 0.85048
 H831 H -0.04468 0.21226 0.86160
 C832 C -0.06788 0.23176 0.83565
 H833 H -0.08228 0.21691 0.83564
 C834 C -0.03103 0.26969 0.83839
 H835 H -0.01663 0.28448 0.83994
 C836 C -0.05233 0.27334 0.82351
 H837 H -0.05436 0.29096 0.81343
 Zn838 Zn -0.00087 0.24501 0.87284
 N839 N -0.02856 0.24781 0.85142
 C840 C -0.02218 0.28204 0.90396
 N841 N -0.00024 0.27504 0.89228
 C842 C 0.02084 0.29014 0.89315
 C843 C 0.02046 0.31322 0.90653
 C844 C -0.02348 0.30507 0.91742
 C845 C -0.00174 0.19285 0.88036
 C846 C -0.00393 0.17019 0.89322
 C847 C -0.01076 0.19558 0.93033
 C848 C -0.00847 0.21782 0.91670
 N849 N -0.00440 0.21598 0.89213
 H850 H -0.03882 0.26990 0.90235
 H851 H 0.03783 0.28464 0.88312
 H852 H 0.03735 0.32514 0.90691
 H853 H -0.04145 0.31046 0.92584
 H854 H 0.00213 0.19211 0.86089
 H855 H -0.00117 0.15203 0.88348
 H856 H -0.01401 0.19718 0.94989
 H857 H -0.00982 0.23645 0.92576
 C858 C -0.07087 0.25409 0.82190
 C859 C 0.07627 0.23617 0.83201
 C860 C -0.00886 0.17144 0.91851
 C861 C -0.00184 0.32094 0.91888
 C862 C 0.46637 0.27829 0.16827
 H863 H 0.47939 0.29437 0.16921
 C864 C 0.44621 0.27689 0.18488
 H865 H 0.44412 0.29187 0.19879
 C866 C 0.45356 0.23924 0.14878
 H867 H 0.45605 0.22493 0.13436
 C868 C 0.43333 0.23698 0.16504
 H869 H 0.42049 0.22080 0.16305
 N870 N 0.46964 0.25959 0.15074
 C871 C 0.54853 0.26176 0.12837
 H872 H 0.54568 0.26279 0.10879
 C873 C 0.57310 0.25993 0.13782
 H874 H 0.58896 0.25918 0.12518
 C875 C 0.53063 0.25994 0.16820
 H876 H 0.51399 0.25943 0.17984
 C877 C 0.55491 0.25824 0.17849
 H878 H 0.55681 0.25670 0.19816
 Zn879 Zn 0.49625 0.26311 0.12815
 N880 N 0.52801 0.26192 0.14357
 C881 C 0.50987 0.31339 0.11688
 N882 N 0.49222 0.29471 0.11287
 C883 C 0.47138 0.29870 0.09860
 C884 C 0.46856 0.32178 0.08631
 C885 C 0.50752 0.33691 0.10540
 C886 C 0.50146 0.21230 0.11492
 C887 C 0.50285 0.19050 0.09982
 C888 C 0.49411 0.21716 0.06500
 C889 C 0.49291 0.23857 0.08085
 N890 N 0.49630 0.23565 0.10533
 H891 H 0.52577 0.31015 0.12903
 H892 H 0.45721 0.28376 0.09646
 H893 H 0.45207 0.32466 0.07471
 H894 H 0.52184 0.35158 0.10850
 H895 H 0.50434 0.21068 0.13444
 H896 H 0.50614 0.17204 0.10808
 H897 H 0.49130 0.21958 0.04553
 H898 H 0.48959 0.25740 0.07350
 C899 C 0.57649 0.25842 0.16327
 C900 C 0.42923 0.25610 0.18310
 C901 C 0.49943 0.19287 0.07445
 C902 C 0.48707 0.34097 0.08947
 C903 C -0.03769 0.77217 0.65147
 H904 H -0.02572 0.78868 0.64849
 C905 C -0.05884 0.77481 0.66498
 H906 H -0.06319 0.79360 0.67277
 C907 C -0.04645 0.72819 0.64157
 H908 H -0.04201 0.71026 0.63225
 C909 C -0.06984 0.73007 0.65636
 H910 H -0.08169 0.71312 0.65768
 N911 N -0.03118 0.74775 0.64022
 C912 C 0.04622 0.72818 0.64317
 H913 H 0.04591 0.71418 0.62831
 C914 C 0.06660 0.72812 0.65949
 H915 H 0.08169 0.71399 0.65695
 C916 C 0.02820 0.76483 0.66336
 H917 H 0.01342 0.77933 0.66459
 C918 C 0.04852 0.76576 0.67983
 H919 H 0.04923 0.78094 0.69372
 Zn920 Zn -0.00002 0.74543 0.62299
 N921 N 0.02734 0.74616 0.64552
 C922 C 0.02186 0.79052 0.60506
 N923 N 0.00190 0.77406 0.60275
 C924 C -0.01800 0.77893 0.58753
 C925 C -0.01853 0.80146 0.57410
 C926 C 0.02195 0.81340 0.59224
 C927 C 0.00170 0.69209 0.61696
 C928 C 0.00348 0.66851 0.60456
 C929 C 0.00559 0.69113 0.56640
 C930 C 0.00372 0.71439 0.57959
 N931 N 0.00173 0.71441 0.60442
 H932 H 0.03746 0.78625 0.61728
 H933 H -0.03379 0.76563 0.58642
 H934 H -0.03491 0.80545 0.56269
 H935 H 0.03766 0.82667 0.59466
 H936 H 0.00036 0.69269 0.63673
 H937 H 0.00264 0.65111 0.61505
 H938 H 0.00709 0.69132 0.54662
 H939 H 0.00401 0.73236 0.57000
 C940 C 0.06777 0.74704 0.67815
 C941 C -0.07587 0.75226 0.66822
 C942 C 0.00575 0.66785 0.57893
 C943 C 0.00157 0.81909 0.57664
 C944 C 0.53232 0.74035 0.32806
 H945 H 0.51425 0.74053 0.31854
 C946 C 0.55499 0.73781 0.31481
 H947 H 0.55433 0.73640 0.29500
 C948 C 0.55538 0.74140 0.36547
 H949 H 0.55519 0.74270 0.38527
 C950 C 0.57839 0.73892 0.35303
 H951 H 0.59592 0.73915 0.36348
 N952 N 0.53305 0.74221 0.35291
 C953 C 0.45859 0.72025 0.35546
 H954 H 0.46300 0.70545 0.36839
 C955 C 0.43627 0.71849 0.34178
 H956 H 0.42373 0.70232 0.34447
 C957 C 0.46857 0.76021 0.33767
 H958 H 0.48124 0.77650 0.33649
 C959 C 0.44626 0.75936 0.32378
 H960 H 0.44170 0.77506 0.31177
 Zn961 Zn 0.50373 0.74354 0.37220
 N962 N 0.47431 0.74074 0.35298
 C963 C 0.48157 0.77901 0.40482
 N964 N 0.50202 0.77469 0.38996
 C965 C 0.52048 0.79265 0.38724
 C966 C 0.51910 0.81589 0.40028
 C967 C 0.47942 0.80203 0.41825
 C968 C 0.51055 0.69250 0.38172
 C969 C 0.51272 0.67038 0.39537
 C970 C 0.50705 0.69640 0.43227
 C971 C 0.50501 0.71812 0.41782
 N972 N 0.50624 0.71563 0.39303
 H973 H 0.46704 0.76441 0.40634
 H974 H 0.53621 0.78912 0.37482
 H975 H 0.53400 0.83000 0.39796
 H976 H 0.46330 0.80463 0.43042
 H977 H 0.51198 0.69129 0.36196
 H978 H 0.51566 0.65201 0.38599
 H979 H 0.50598 0.69892 0.45193
 H980 H 0.50248 0.73686 0.42642
 C981 C 0.43001 0.73818 0.32561
 C982 C 0.57831 0.73674 0.32735
 C983 C 0.51056 0.67207 0.42092
 C984 C 0.49838 0.82087 0.41593
 Zr985 Zr 0.03115 -0.01898 1.03515
 O986 O 0.05607 -0.00352 1.06212
 O987 O 0.02808 -0.05732 1.04565
 O988 O 0.01431 -0.01954 1.07049
 O989 O 0.07818 -0.02750 0.99100
 O990 O -0.02498 -0.00164 1.06434
 O991 O 0.06871 -0.03402 1.03118
 O992 O -0.00128 -0.07420 1.01902
 O993 O -0.00747 -0.02679 1.02863
 O994 O 0.02917 -0.03838 1.00125
 O995 O 0.01255 0.01705 1.03592
 O996 O 0.04814 0.00586 1.00982
 Zr997 Zr -0.01299 0.01489 0.96827
 Zr998 Zr -0.02562 0.00907 1.02760
 Zr999 Zr 0.04405 -0.01325 0.97584
 Zr1000 Zr -0.00933 -0.04479 0.99424
 O1001 O 0.07526 0.00898 0.96400
 O1002 O -0.04458 -0.05805 1.00816
 O1003 O 0.00580 -0.02124 0.96719
 O1004 O -0.02950 -0.00991 0.99364
 O1005 O -0.01104 0.03454 1.00209
 O1006 O 0.02570 0.02243 0.97480
 C1007 C 0.01381 -0.07562 1.03750
 C1008 C 0.08404 -0.03496 1.01264
 C1009 C -0.00814 -0.01251 1.07785
 O1010 O -0.05944 -0.01127 1.03549
 O1011 O -0.05735 0.02879 1.01384
 O1012 O -0.04951 0.03256 0.97300
 C1013 C -0.06350 0.03618 0.99232
 O1014 O 0.05491 0.04830 1.03698
 Zr1015 Zr 0.02761 0.04074 1.00899
 O1016 O -0.01019 0.05322 0.95788
 O1017 O -0.03198 0.04230 1.04991
 O1018 O 0.01227 0.07020 1.03220
 O1019 O 0.06126 0.05596 0.99344
 O1020 O 0.01623 0.07132 0.98658
 C1021 C 0.00171 0.07241 0.96762
 O1022 O -0.03974 0.00029 0.94254
 O1023 O 0.05346 -0.04830 0.95741
 O1024 O 0.00239 0.01195 0.93234
 O1025 O 0.04016 -0.00939 0.93791
 O1026 O 0.00625 -0.07605 0.97344
 O1027 O -0.03309 -0.05312 0.96357
 C1028 C 0.02312 0.00106 0.92436
 H1029 H 0.03887 -0.05479 1.00090
 H1030 H -0.04764 -0.01318 0.98961
 H1031 H 0.03343 0.03315 0.96203
 H1032 H 0.01422 0.02555 1.05224
 H1033 H -0.04507 -0.07695 1.00536
 H1034 H -0.06923 -0.00063 1.04755
 H1035 H -0.04866 0.03998 1.05812
 H1036 H 0.02123 0.08638 1.02844
 H1037 H -0.00355 -0.09162 0.97757
 H1038 H 0.06993 -0.04561 0.94893
 H1039 H 0.08527 -0.00208 0.95247
 H1040 H 0.06105 0.07481 0.99664
 H1041 H -0.03982 -0.07081 0.96478
 H1042 H -0.04425 0.01459 0.93156
 H1043 H 0.06093 -0.01782 1.07297
 H1044 H 0.05873 0.06694 1.03768
 Zr1045 Zr 0.51850 0.47679 0.53028
 O1046 O 0.54146 0.48936 0.56007
 O1047 O 0.51331 0.43789 0.53807
 O1048 O 0.49870 0.47584 0.56412
 O1049 O 0.56965 0.47023 0.49031
 O1050 O 0.46045 0.49506 0.55587
 O1051 O 0.55581 0.46057 0.52867
 O1052 O 0.48818 0.42288 0.50680
 O1053 O 0.48053 0.47017 0.51984
 O1054 O 0.51975 0.45990 0.49519
 O1055 O 0.50048 0.51312 0.53151
 O1056 O 0.53855 0.50294 0.50843
 Zr1057 Zr 0.48245 0.51610 0.46190
 Zr1058 Zr 0.46313 0.50655 0.51925
 Zr1059 Zr 0.53772 0.48640 0.47306
 Zr1060 Zr 0.48210 0.45468 0.48427
 O1061 O 0.57043 0.50882 0.46608
 O1062 O 0.44569 0.44105 0.49471
 O1063 O 0.50049 0.47967 0.46036
 O1064 O 0.46279 0.49002 0.48393
 O1065 O 0.48096 0.53331 0.49693
 O1066 O 0.52028 0.52251 0.47258
 C1067 C 0.50085 0.42005 0.52674
 C1068 C 0.57286 0.46053 0.51154
 C1069 C 0.47621 0.48386 0.57035
 O1070 O 0.42885 0.48573 0.52321
 O1071 O 0.43292 0.52725 0.50329
 O1072 O 0.44611 0.53409 0.46414
 C1073 C 0.42974 0.53633 0.48173
 O1074 O 0.54352 0.54281 0.53853
 Zr1075 Zr 0.51877 0.53823 0.50792
 O1076 O 0.48724 0.55513 0.45428
 O1077 O 0.45450 0.53900 0.54191
 O1078 O 0.50205 0.56629 0.53183
 O1079 O 0.55380 0.55425 0.49634
 O1080 O 0.50956 0.57065 0.48726
 C1081 C 0.49766 0.57341 0.46688
 O1082 O 0.45821 0.50407 0.43287
 O1083 O 0.54841 0.45254 0.45327
 O1084 O 0.50127 0.51471 0.42739
 O1085 O 0.53831 0.49308 0.43538
 O1086 O 0.49891 0.42494 0.46235
 O1087 O 0.46088 0.44908 0.45144
 C1088 C 0.52271 0.50422 0.42082
 H1089 H 0.52914 0.44331 0.49457
 H1090 H 0.44514 0.48734 0.47796
 H1091 H 0.52946 0.53395 0.46134
 H1092 H 0.50072 0.52070 0.54829
 H1093 H 0.44522 0.42236 0.49073
 H1094 H 0.41787 0.49590 0.53465
 H1095 H 0.43704 0.53644 0.54837
 H1096 H 0.51181 0.58244 0.53016
 H1097 H 0.48846 0.40927 0.46426
 H1098 H 0.56578 0.45541 0.44671
 H1099 H 0.58148 0.49844 0.45487
 H1100 H 0.55344 0.57281 0.50093
 H1101 H 0.45336 0.43164 0.45116
 H1102 H 0.45524 0.51920 0.42243
 H1103 H 0.54478 0.47419 0.57035
 H1104 H 0.54784 0.56123 0.54082
 Zr1105 Zr 0.48111 1.01661 0.53427
 O1106 O 0.45599 1.00377 0.56177
 O1107 O 0.48983 1.05372 0.54720
 O1108 O 0.49979 1.01316 0.56845
 O1109 O 0.43331 1.03358 0.49369
 O1110 O 0.53506 0.98879 0.55925
 O1111 O 0.44560 1.03629 0.53375
 O1112 O 0.51944 1.06779 0.51999
 O1113 O 0.52005 1.01936 0.52611
 O1114 O 0.48365 1.03695 0.50173
 O1115 O 0.49455 0.97844 0.53141
 O1116 O 0.45934 0.99555 0.50831
 Zr1117 Zr 0.51593 0.97986 0.46260
 Zr1118 Zr 0.53298 0.98141 0.52137
 Zr1119 Zr 0.46401 1.01523 0.47547
 Zr1120 Zr 0.52222 1.03836 0.49294
 O1121 O 0.42910 0.99829 0.46438
 O1122 O 0.55965 1.04612 0.50581
 O1123 O 0.50245 1.01826 0.46512
 O1124 O 0.53718 1.00113 0.48861
 O1125 O 0.51345 0.95926 0.49506
 O1126 O 0.47705 0.97746 0.47102
 C1127 C 0.50563 1.07050 0.53936
 C1128 C 0.42965 1.04038 0.51623
 C1129 C 0.52062 1.00142 0.57433
 O1130 O 0.56915 0.99729 0.52966
 O1131 O 0.56177 0.95952 0.50392
 O1132 O 0.55038 0.95815 0.46361
 C1133 C 0.56554 0.95268 0.48143
 O1134 O 0.44832 0.95373 0.53309
 Zr1135 Zr 0.47470 0.95829 0.50394
 O1136 O 0.50744 0.94252 0.44993
 O1137 O 0.53647 0.94600 0.53954
 O1138 O 0.48712 0.92602 0.52397
 O1139 O 0.43829 0.94846 0.48968
 O1140 O 0.48007 0.92753 0.47877
 C1141 C 0.49327 0.92501 0.45898
 O1142 O 0.54236 0.99196 0.43592
 O1143 O 0.45889 1.05183 0.45984
 O1144 O 0.49851 0.98545 0.42807
 O1145 O 0.46455 1.01178 0.43709
 O1146 O 0.50990 1.07210 0.47509
 O1147 O 0.54540 1.04461 0.46169
 C1148 C 0.47890 0.99907 0.42197
 H1149 H 0.47626 1.05450 0.50313
 H1150 H 0.55532 1.00228 0.48368
 H1151 H 0.46708 0.96838 0.45814
 H1152 H 0.49258 0.96948 0.54711
 H1153 H 0.56254 1.06486 0.50440
 H1154 H 0.57824 0.98475 0.54000
 H1155 H 0.55373 0.94567 0.54697
 H1156 H 0.47566 0.91149 0.51971
 H1157 H 0.52191 1.08606 0.47968
 H1158 H 0.44165 1.05196 0.45238
 H1159 H 0.42006 1.01109 0.45430
 H1160 H 0.43602 0.92971 0.49177
 H1161 H 0.55446 1.06118 0.46375
 H1162 H 0.54429 0.97764 0.42373
 H1163 H 0.45383 1.01815 0.57387
 H1164 H 0.44215 0.93575 0.53302
 Zr1165 Zr -0.02414 0.51961 1.03356
 O1166 O -0.04745 0.50684 1.06251
 O1167 O -0.01674 0.55766 1.04476
 O1168 O -0.00406 0.51787 1.06726
 O1169 O -0.07458 0.53201 0.99424
 O1170 O 0.03302 0.49717 1.05677
 O1171 O -0.06074 0.53733 1.03363
 O1172 O 0.00950 0.57243 1.01486
 O1173 O 0.01408 0.52452 1.02340
 O1174 O -0.02449 0.53832 1.00001
 O1175 O -0.00834 0.48230 1.03147
 O1176 O -0.04570 0.49591 1.00950
 Zr1177 Zr 0.00961 0.48184 0.96164
 Zr1178 Zr 0.02923 0.48733 1.01954
 Zr1179 Zr -0.04396 0.51413 0.97564
 Zr1180 Zr 0.01338 0.54185 0.98929
 O1181 O -0.07832 0.49442 0.96773
 O1182 O 0.05065 0.55272 1.00040
 O1183 O -0.00639 0.51925 0.96334
 O1184 O 0.03066 0.50558 0.98579
 O1185 O 0.00999 0.46279 0.99505
 O1186 O -0.02858 0.47720 0.97193
 C1187 C -0.00300 0.57511 1.03504
 C1188 C -0.07756 0.53990 1.01655
 C1189 C 0.01813 0.50840 1.07241
 O1190 O 0.06483 0.50565 1.02492
 O1191 O 0.05805 0.46576 1.00192
 O1192 O 0.04501 0.46171 0.96220
 C1193 C 0.06106 0.45769 0.97968
 O1194 O -0.05279 0.45467 1.03616
 Zr1195 Zr -0.02807 0.45962 1.00577
 O1196 O 0.00225 0.44376 0.95043
 O1197 O 0.03587 0.45350 1.03953
 O1198 O -0.01268 0.42933 1.02674
 O1199 O -0.06419 0.44660 0.99330
 O1200 O -0.02128 0.42805 0.98189
 C1201 C -0.00952 0.42561 0.96128
 O1202 O 0.03472 0.49352 0.93364
 O1203 O -0.05204 0.54924 0.95819
 O1204 O -0.00880 0.48694 0.92745
 O1205 O -0.04573 0.50814 0.93760
 O1206 O -0.00180 0.57374 0.97041
 O1207 O 0.03461 0.54793 0.95677
 C1208 C -0.03025 0.49779 0.92196
 H1209 H -0.03289 0.55544 1.00093
 H1210 H 0.04845 0.50753 0.98000
 H1211 H -0.03849 0.46696 0.95980
 H1212 H -0.00893 0.47392 1.04757
 H1213 H 0.05218 0.57151 0.99808
 H1214 H 0.07523 0.49431 1.03540
 H1215 H 0.05349 0.45462 1.04606
 H1216 H -0.02330 0.41389 1.02361
 H1217 H 0.00956 0.58859 0.97371
 H1218 H -0.06965 0.54794 0.95166
 H1219 H -0.08878 0.50589 0.95743
 H1220 H -0.06498 0.42784 0.99613
 H1221 H 0.04303 0.56492 0.95789
 H1222 H 0.03660 0.47880 0.92187
 H1223 H -0.04988 0.52163 1.07410
 H1224 H -0.05794 0.43640 1.03690
 Zr1225 Zr -0.02174 0.47089 0.46029
 O1226 O -0.04668 0.48417 0.43271
 O1227 O -0.01523 0.43267 0.44880
 O1228 O -0.00381 0.47171 0.42546
 O1229 O -0.06998 0.46020 0.50243
 O1230 O 0.03379 0.49207 0.43345
 O1231 O -0.05845 0.45406 0.46242
 O1232 O 0.01241 0.41708 0.47728
 O1233 O 0.01693 0.46483 0.46829
 O1234 O -0.02039 0.45234 0.49388
 O1235 O -0.00520 0.50772 0.46119
 O1236 O -0.04135 0.49548 0.48532
 Zr1237 Zr 0.01698 0.50818 0.52981
 Zr1238 Zr 0.03295 0.50152 0.47096
 Zr1239 Zr -0.03790 0.47733 0.51912
 Zr1240 Zr 0.01797 0.44772 0.50251
 O1241 O -0.07130 0.49816 0.52908
 O1242 O 0.05443 0.43560 0.48969
 O1243 O 0.00026 0.47123 0.52937
 O1244 O 0.03602 0.48347 0.50473
 O1245 O 0.01573 0.52696 0.49628
 O1246 O -0.02168 0.51386 0.52163
 C1247 C -0.00103 0.41485 0.45768
 C1248 C -0.07433 0.45212 0.48037
 C1249 C 0.01788 0.48091 0.41882
 O1250 O 0.06741 0.48156 0.46302
 O1251 O 0.06378 0.52125 0.48685
 O1252 O 0.05304 0.52659 0.52713
 C1253 C 0.06840 0.52924 0.50883
 O1254 O -0.04926 0.53680 0.45874
 Zr1255 Zr -0.02289 0.53128 0.48777
 O1256 O 0.01189 0.54684 0.54047
 O1257 O 0.03930 0.53535 0.45100
 O1258 O -0.00820 0.56088 0.46575
 O1259 O -0.05805 0.54538 0.50210
 O1260 O -0.01436 0.56292 0.51109
 C1261 C -0.00066 0.56524 0.53054
 O1262 O 0.04279 0.49528 0.55680
 O1263 O -0.04560 0.44258 0.53718
 O1264 O -0.00035 0.50588 0.56487
 O1265 O -0.03679 0.48326 0.55719
 O1266 O 0.00312 0.41655 0.52240
 O1267 O 0.04091 0.44114 0.53390
 C1268 C -0.02114 0.49488 0.57176
 H1269 H -0.02907 0.43547 0.49349
 H1270 H 0.05406 0.48086 0.50952
 H1271 H -0.03066 0.52461 0.53414
 H1272 H -0.00665 0.51603 0.44510
 H1273 H 0.05581 0.41681 0.49216
 H1274 H 0.07737 0.49247 0.45187
 H1275 H 0.05633 0.53346 0.44324
 H1276 H -0.01834 0.57669 0.46932
 H1277 H 0.01389 0.40124 0.51856
 H1278 H -0.06268 0.44456 0.54484
 H1279 H -0.08117 0.48708 0.54015
 H1280 H -0.05878 0.56412 0.49913
 H1281 H 0.04863 0.42372 0.53263
 H1282 H 0.04602 0.51007 0.56815
 H1283 H -0.05004 0.46939 0.42137
 H1284 H -0.05410 0.55523 0.45812
 Zr1285 Zr 0.48833 -0.00975 -0.02989
 O1286 O 0.46135 0.00608 -0.05429
 O1287 O 0.49108 -0.04781 -0.04302
 O1288 O 0.50274 -0.00807 -0.06624
 O1289 O 0.44455 -0.02061 0.01643
 O1290 O 0.54154 0.01096 -0.06117
 O1291 O 0.45118 -0.02491 -0.02476
 O1292 O 0.52191 -0.06551 -0.01898
 O1293 O 0.52740 -0.01779 -0.02614
 O1294 O 0.49253 -0.02999 0.00261
 O1295 O 0.50653 0.02626 -0.02914
 O1296 O 0.47262 0.01430 -0.00197
 Zr1297 Zr 0.53591 0.02236 0.03672
 Zr1298 Zr 0.54525 0.01806 -0.02350
 Zr1299 Zr 0.47894 -0.00566 0.03052
 Zr1300 Zr 0.53139 -0.03664 0.00701
 O1301 O 0.44771 0.01600 0.04467
 O1302 O 0.56579 -0.04952 -0.00984
 O1303 O 0.51772 -0.01385 0.03652
 O1304 O 0.55113 -0.00183 0.00893
 O1305 O 0.53191 0.04288 0.00435
 O1306 O 0.49686 0.03004 0.03271
 C1307 C 0.50563 -0.06649 -0.03657
 C1308 C 0.43733 -0.02722 -0.00535
 C1309 C 0.52378 0.00118 -0.07461
 O1310 O 0.57766 -0.00300 -0.03586
 O1311 O 0.57853 0.03557 -0.00996
 O1312 O 0.57227 0.03935 0.03130
 C1313 C 0.58575 0.04228 0.01174
 O1314 O 0.46348 0.05707 -0.02577
 Zr1315 Zr 0.49280 0.04915 -0.00006
 O1316 O 0.53392 0.06060 0.04947
 O1317 O 0.55099 0.05272 -0.04232
 O1318 O 0.50600 0.07919 -0.02242
 O1319 O 0.46029 0.06436 0.01850
 O1320 O 0.50571 0.07916 0.02325
 C1321 C 0.52137 0.07996 0.04141
 O1322 O 0.56359 0.00662 0.06044
 O1323 O 0.47177 -0.04099 0.04776
 O1324 O 0.52196 0.01992 0.07304
 O1325 O 0.48438 -0.00173 0.06852
 O1326 O 0.51743 -0.06834 0.02675
 O1327 O 0.55722 -0.04595 0.03556
 C1328 C 0.50177 0.00923 0.08165
 H1329 H 0.48311 -0.04645 0.00247
 H1330 H 0.56946 -0.00544 0.01177
 H1331 H 0.48973 0.04061 0.04640
 H1332 H 0.50370 0.03547 -0.04459
 H1333 H 0.56657 -0.06850 -0.00845
 H1334 H 0.58691 0.00813 -0.04736
 H1335 H 0.56705 0.05059 -0.05177
 H1336 H 0.49707 0.09522 -0.01709
 H1337 H 0.52702 -0.08385 0.02106
 H1338 H 0.45570 -0.03872 0.05717
 H1339 H 0.43858 0.00474 0.05613
 H1340 H 0.46026 0.08325 0.01635
 H1341 H 0.56397 -0.06361 0.03275
 H1342 H 0.56880 0.02061 0.07200
 H1343 H 0.45614 -0.00794 -0.06582
 H1344 H 0.45935 0.07570 -0.02517
 Zr1345 Zr 0.50773 0.52528 -0.03296
 O1346 O 0.53169 0.50803 -0.06000
 O1347 O 0.50488 0.56313 -0.04512
 O1348 O 0.49011 0.52374 -0.06790
 O1349 O 0.55598 0.53608 0.00946
 O1350 O 0.45104 0.50642 -0.06029
 O1351 O 0.54562 0.53903 -0.03099
 O1352 O 0.47680 0.58223 -0.01830
 O1353 O 0.46945 0.53463 -0.02580
 O1354 O 0.50719 0.54638 0.00010
 O1355 O 0.48866 0.48985 -0.03154
 O1356 O 0.52533 0.50139 -0.00700
 Zr1357 Zr 0.46580 0.49614 0.03675
 Zr1358 Zr 0.45088 0.49939 -0.02253
 Zr1359 Zr 0.52271 0.52228 0.02626
 Zr1360 Zr 0.46907 0.55426 0.00794
 O1361 O 0.55444 0.49991 0.03722
 O1362 O 0.43356 0.56780 -0.00547
 O1363 O 0.48489 0.53178 0.03571
 O1364 O 0.44860 0.52003 0.01077
 O1365 O 0.46611 0.47492 0.00371
 O1366 O 0.50404 0.48714 0.02930
 C1367 C 0.49135 0.58232 -0.03725
 C1368 C 0.56123 0.54164 -0.01286
 C1369 C 0.46792 0.51563 -0.07472
 O1370 O 0.41772 0.52089 -0.03102
 O1371 O 0.41902 0.48223 -0.00647
 O1372 O 0.42910 0.47914 0.03403
 C1373 C 0.41396 0.47571 0.01559
 O1374 O 0.53144 0.45822 -0.03204
 Zr1375 Zr 0.50436 0.46719 -0.00409
 O1376 O 0.46823 0.45836 0.04895
 O1377 O 0.44268 0.46481 -0.04205
 O1378 O 0.48872 0.43725 -0.02630
 O1379 O 0.53751 0.45088 0.01179
 O1380 O 0.49176 0.43794 0.01911
 C1381 C 0.47834 0.43823 0.03889
 O1382 O 0.44043 0.51313 0.06267
 O1383 O 0.53261 0.55774 0.04343
 O1384 O 0.48292 0.49942 0.07191
 O1385 O 0.52070 0.51956 0.06456
 O1386 O 0.48570 0.58605 0.02685
 O1387 O 0.44636 0.56474 0.03888
 C1388 C 0.50411 0.50977 0.07899
 H1389 H 0.51703 0.56255 -0.00061
 H1390 H 0.43069 0.52407 0.01528
 H1391 H 0.51203 0.47666 0.04218
 H1392 H 0.48979 0.48037 -0.04742
 H1393 H 0.43347 0.58682 -0.00361
 H1394 H 0.40715 0.50982 -0.04194
 H1395 H 0.42579 0.46721 -0.04989
 H1396 H 0.49765 0.42106 -0.02210
 H1397 H 0.47593 0.60165 0.02237
 H1398 H 0.54943 0.55517 0.05136
 H1399 H 0.56500 0.51115 0.04799
 H1400 H 0.53657 0.43198 0.00910
 H1401 H 0.43989 0.58255 0.03711
 H1402 H 0.43602 0.49961 0.07447
 H1403 H 0.53629 0.52161 -0.07169
 H1404 H 0.53518 0.43951 -0.03220
 Zr1405 Zr 0.01683 1.01157 0.46462
 O1406 O 0.03881 0.99543 0.43552
 O1407 O 0.01397 1.05007 0.45478
 O1408 O -0.00292 1.01286 0.43080
 O1409 O 0.06771 1.01909 0.50461
 O1410 O -0.04209 0.99657 0.43984
 O1411 O 0.05482 1.02513 0.46521
 O1412 O -0.01045 1.06884 0.48486
 O1413 O -0.02060 1.02159 0.47458
 O1414 O 0.01897 1.03041 0.49878
 O1415 O -0.00317 0.97666 0.46504
 O1416 O 0.03543 0.98547 0.48786
 Zr1417 Zr -0.02154 0.97881 0.53473
 Zr1418 Zr -0.03997 0.98669 0.47688
 Zr1419 Zr 0.03545 1.00410 0.52233
 Zr1420 Zr -0.01825 1.03893 0.50931
 O1421 O 0.06738 0.98021 0.52928
 O1422 O -0.05387 1.05441 0.49822
 O1423 O -0.00144 1.01398 0.53455
 O1424 O -0.03951 1.00507 0.51138
 O1425 O -0.02390 0.95991 0.50056
 O1426 O 0.01593 0.96935 0.52447
 C1427 C 0.00237 1.06949 0.46477
 C1428 C 0.07148 1.02659 0.48256
 C1429 C -0.02585 1.00614 0.42498
 O1430 O -0.07302 1.00960 0.47178
 O1431 O -0.07136 0.96949 0.49359
 O1432 O -0.05888 0.96298 0.53302
 C1433 C -0.07530 0.96152 0.51538
 O1434 O 0.03827 0.94386 0.45983
 Zr1435 Zr 0.01360 0.95173 0.49001
 O1436 O -0.01868 0.94009 0.54464
 O1437 O -0.05039 0.95376 0.45580
 O1438 O -0.00457 0.92371 0.46733
 O1439 O 0.04744 0.93368 0.50259
 O1440 O 0.00226 0.92121 0.51223
 C1441 C -0.00955 0.92041 0.53287
 O1442 O -0.04525 0.99409 0.56295
 O1443 O 0.04724 1.03778 0.54158
 O1444 O -0.00267 0.98075 0.56914
 O1445 O 0.03608 0.99811 0.56021
 O1446 O 0.00029 1.06858 0.52967
 O1447 O -0.03912 1.04795 0.54180
 C1448 C 0.01971 0.98899 0.57526
 H1449 H 0.02913 1.04640 0.49858
 H1450 H -0.05699 1.00931 0.51715
 H1451 H 0.02447 0.95787 0.53621
 H1452 H -0.00337 0.96826 0.44860
 H1453 H -0.05324 1.07329 0.50113
 H1454 H -0.08452 0.99968 0.46075
 H1455 H -0.06763 0.95720 0.44910
 H1456 H 0.00421 0.90703 0.46988
 H1457 H -0.00912 1.08484 0.52676
 H1458 H 0.06454 1.03425 0.54811
 H1459 H 0.07894 0.99028 0.54013
 H1460 H 0.04596 0.91502 0.49876
 H1461 H -0.04544 1.06593 0.54121
 H1462 H -0.04909 0.97979 0.57410
 H1463 H 0.04300 1.00960 0.42432
 H1464 H 0.04141 0.92508 0.45832
 Zr1465 Zr 0.73114 0.26649 0.21543
 O1466 O 0.74674 0.29183 0.18960
 O1467 O 0.69509 0.25905 0.20050
 O1468 O 0.73688 0.24780 0.18088
 O1469 O 0.71248 0.31510 0.25645
 O1470 O 0.75871 0.21127 0.19045
 O1471 O 0.71197 0.30255 0.21611
 O1472 O 0.67793 0.22990 0.22638
 O1473 O 0.72640 0.22731 0.22235
 O1474 O 0.70860 0.26454 0.24696
 O1475 O 0.76825 0.25157 0.21977
 O1476 O 0.75086 0.28767 0.24286
 Zr1477 Zr 0.76072 0.22982 0.28763
 Zr1478 Zr 0.76318 0.21291 0.22857
 Zr1479 Zr 0.72882 0.28364 0.27465
 Zr1480 Zr 0.70504 0.22572 0.25453
 O1481 O 0.74614 0.31829 0.28685
 O1482 O 0.69699 0.18841 0.24015
 O1483 O 0.72347 0.24495 0.28375
 O1484 O 0.74099 0.20916 0.26015
 O1485 O 0.78364 0.23176 0.25633
 O1486 O 0.76540 0.26894 0.28051
 C1487 C 0.67718 0.24400 0.20733
 C1488 C 0.70697 0.31871 0.23378
 C1489 C 0.74823 0.22641 0.17501
 O1490 O 0.74692 0.17695 0.21878
 O1491 O 0.78323 0.18348 0.24632
 O1492 O 0.78109 0.19442 0.28694
 C1493 C 0.78810 0.17939 0.26901
 O1494 O 0.79417 0.29783 0.22088
 Zr1495 Zr 0.78686 0.27076 0.24863
 O1496 O 0.79730 0.23595 0.30177
 O1497 O 0.79938 0.20820 0.21179
 O1498 O 0.81969 0.25779 0.22913
 O1499 O 0.79728 0.30653 0.26507
 O1500 O 0.81564 0.26279 0.27438
 C1501 C 0.81623 0.24873 0.29346
 O1502 O 0.74535 0.20374 0.31290
 O1503 O 0.69178 0.28991 0.28917
 O1504 O 0.75365 0.24753 0.32224
 O1505 O 0.73011 0.28318 0.31314
 O1506 O 0.67063 0.23902 0.27106
 O1507 O 0.69580 0.20253 0.28483
 C1508 C 0.74092 0.26799 0.32839
 H1509 H 0.69153 0.27252 0.24504
 H1510 H 0.73892 0.19090 0.26452
 H1511 H 0.77403 0.27842 0.29403
 H1512 H 0.77838 0.25334 0.20460
 H1513 H 0.67822 0.18617 0.24062
 H1514 H 0.75984 0.16741 0.20885
 H1515 H 0.79967 0.19081 0.20398
 H1516 H 0.83417 0.26877 0.23440
 H1517 H 0.65683 0.22723 0.26564
 H1518 H 0.69180 0.30725 0.29711
 H1519 H 0.73318 0.32787 0.29669
 H1520 H 0.81610 0.30790 0.26393
 H1521 H 0.67945 0.19361 0.28162
 H1522 H 0.75850 0.20097 0.32567
 H1523 H 0.73352 0.29453 0.17688
 H1524 H 0.81204 0.30381 0.22219
 Zr1525 Zr 0.77150 0.73688 0.72156
 O1526 O 0.75904 0.70851 0.69591
 O1527 O 0.80897 0.74295 0.70992
 O1528 O 0.76980 0.75112 0.68536
 O1529 O 0.78436 0.69389 0.76786
 O1530 O 0.74770 0.78878 0.69031
 O1531 O 0.78922 0.70054 0.72695
 O1532 O 0.82323 0.77513 0.73543
 O1533 O 0.77577 0.77676 0.72632
 O1534 O 0.79017 0.74278 0.75509
 O1535 O 0.73431 0.75233 0.72074
 O1536 O 0.74838 0.71938 0.74808
 Zr1537 Zr 0.73346 0.78268 0.78721
 Zr1538 Zr 0.73870 0.79187 0.72746
 Zr1539 Zr 0.76640 0.72749 0.78167
 Zr1540 Zr 0.79313 0.78239 0.76036
 O1541 O 0.74760 0.69432 0.79421
 O1542 O 0.80327 0.81793 0.74475
 O1543 O 0.77086 0.76713 0.78854
 O1544 O 0.75688 0.79963 0.76084
 O1545 O 0.71459 0.77666 0.75381
 O1546 O 0.72952 0.74279 0.78230
 C1547 C 0.82588 0.75914 0.71724
 C1548 C 0.79184 0.68683 0.74626
 C1549 C 0.75935 0.77174 0.67703
 O1550 O 0.75654 0.82641 0.71709
 O1551 O 0.71691 0.82328 0.74038
 O1552 O 0.71338 0.81776 0.78151
 C1553 C 0.70888 0.83028 0.76177
 O1554 O 0.70783 0.70666 0.72197
 Zr1555 Zr 0.71216 0.73687 0.74849
 O1556 O 0.69539 0.77743 0.79802
 O1557 O 0.70490 0.79454 0.70638
 O1558 O 0.68195 0.74761 0.72487
 O1559 O 0.69968 0.70306 0.76587
 O1560 O 0.68075 0.74745 0.77039
 C1561 C 0.67779 0.76310 0.78873
 O1562 O 0.74545 0.81226 0.81181
 O1563 O 0.80133 0.72356 0.80072
 O1564 O 0.73708 0.76981 0.82356
 O1565 O 0.75984 0.73231 0.81946
 O1566 O 0.82516 0.77080 0.78127
 O1567 O 0.79916 0.80906 0.78982
 C1568 C 0.74799 0.74968 0.83232
 H1569 H 0.80725 0.73453 0.75552
 H1570 H 0.75857 0.81837 0.76404
 H1571 H 0.71930 0.73490 0.79538
 H1572 H 0.72598 0.74872 0.70477
 H1573 H 0.82189 0.82019 0.74710
 H1574 H 0.74508 0.83469 0.70511
 H1575 H 0.70578 0.81087 0.69738
 H1576 H 0.66681 0.73731 0.72922
 H1577 H 0.83976 0.78162 0.77645
 H1578 H 0.80037 0.70722 0.80969
 H1579 H 0.75921 0.68606 0.80607
 H1580 H 0.68111 0.70142 0.76277
 H1581 H 0.81610 0.81717 0.78801
 H1582 H 0.73085 0.81634 0.82284
 H1583 H 0.77373 0.70430 0.68503
 H1584 H 0.68982 0.70098 0.72164
 Zr1585 Zr 0.23402 0.23169 0.78502
 O1586 O 0.24860 0.20592 0.81116
 O1587 O 0.19582 0.23501 0.79569
 O1588 O 0.23379 0.24828 0.82088
 O1589 O 0.22541 0.18490 0.73958
 O1590 O 0.25367 0.28686 0.81617
 O1591 O 0.21875 0.19418 0.78013
 O1592 O 0.17912 0.26417 0.76936
 O1593 O 0.22618 0.27077 0.77955
 O1594 O 0.21564 0.23383 0.75113
 O1595 O 0.26967 0.25015 0.78607
 O1596 O 0.25926 0.21422 0.75939
 Zr1597 Zr 0.26888 0.27560 0.71904
 Zr1598 Zr 0.26181 0.28879 0.77863
 Zr1599 Zr 0.24121 0.21852 0.72541
 Zr1600 Zr 0.20911 0.27262 0.74508
 O1601 O 0.26313 0.18589 0.71448
 O1602 O 0.19549 0.30811 0.76008
 O1603 O 0.23310 0.25709 0.71752
 O1604 O 0.24365 0.29256 0.74475
 O1605 O 0.28763 0.27368 0.75283
 O1606 O 0.27654 0.23665 0.72495
 C1607 C 0.17746 0.24890 0.78752
 C1608 C 0.21749 0.17910 0.76106
 C1609 C 0.24312 0.26963 0.82933
 O1610 O 0.24013 0.32182 0.78874
 O1611 O 0.27975 0.32158 0.76482
 O1612 O 0.28568 0.31231 0.72416
 C1613 C 0.28768 0.32720 0.74327
 O1614 O 0.30039 0.20689 0.78644
 Zr1615 Zr 0.29378 0.23463 0.75907
 O1616 O 0.30743 0.27296 0.70908
 O1617 O 0.29532 0.29620 0.79918
 O1618 O 0.32239 0.24968 0.78273
 O1619 O 0.30961 0.20067 0.74287
 O1620 O 0.32460 0.24596 0.73719
 C1621 C 0.32622 0.26078 0.71873
 O1622 O 0.25456 0.30221 0.69354
 O1623 O 0.20738 0.21063 0.70552
 O1624 O 0.26773 0.25977 0.68289
 O1625 O 0.24853 0.22087 0.68776
 O1626 O 0.17864 0.25746 0.72376
 O1627 O 0.20140 0.29690 0.71510
 C1628 C 0.25922 0.23800 0.67461
 H1629 H 0.19933 0.22432 0.75044
 H1630 H 0.24021 0.31082 0.74102
 H1631 H 0.28776 0.22869 0.71228
 H1632 H 0.27806 0.24820 0.80216
 H1633 H 0.17677 0.30868 0.75748
 H1634 H 0.25067 0.33197 0.80047
 H1635 H 0.29265 0.31290 0.80795
 H1636 H 0.33852 0.24037 0.77890
 H1637 H 0.16309 0.26756 0.72802
 H1638 H 0.20999 0.19376 0.69704
 H1639 H 0.25267 0.17590 0.70257
 H1640 H 0.32819 0.20073 0.74631
 H1641 H 0.18392 0.30411 0.71669
 H1642 H 0.26895 0.30678 0.68267
 H1643 H 0.23419 0.20128 0.82197
 H1644 H 0.31887 0.20290 0.78730
 Zr1645 Zr 0.27240 0.75753 0.28330
 O1646 O 0.25980 0.78349 0.31125
 O1647 O 0.30981 0.74971 0.29459
 O1648 O 0.26966 0.73967 0.31784
 O1649 O 0.28713 0.80519 0.24195
 O1650 O 0.24613 0.70367 0.30970
 O1651 O 0.29097 0.79354 0.28185
 O1652 O 0.32395 0.71981 0.26646
 O1653 O 0.27621 0.71813 0.27500
 O1654 O 0.29165 0.75476 0.24975
 O1655 O 0.23494 0.74323 0.28202
 O1656 O 0.25019 0.77863 0.25831
 Zr1657 Zr 0.23546 0.72049 0.21327
 Zr1658 Zr 0.23886 0.70428 0.27188
 Zr1659 Zr 0.26890 0.77380 0.22446
 Zr1660 Zr 0.29414 0.71574 0.24087
 O1661 O 0.25073 0.80864 0.21485
 O1662 O 0.30346 0.67846 0.25331
 O1663 O 0.27304 0.73487 0.21394
 O1664 O 0.25768 0.69977 0.23822
 O1665 O 0.21585 0.72320 0.24662
 O1666 O 0.23179 0.75976 0.22178
 C1667 C 0.32674 0.73409 0.28580
 C1668 C 0.29441 0.80933 0.26423
 C1669 C 0.25801 0.71911 0.32444
 O1670 O 0.25632 0.66854 0.27958
 O1671 O 0.21735 0.67466 0.25511
 O1672 O 0.21420 0.68610 0.21510
 C1673 C 0.20946 0.67103 0.23298
 O1674 O 0.20966 0.79015 0.28448
 Zr1675 Zr 0.21364 0.76236 0.25558
 O1676 O 0.19793 0.72768 0.20233
 O1677 O 0.20420 0.70012 0.29128
 O1678 O 0.18294 0.75048 0.27791
 O1679 O 0.20156 0.79792 0.24100
 O1680 O 0.18224 0.75419 0.23268
 C1681 C 0.17988 0.74061 0.21287
 O1682 O 0.24786 0.69334 0.18629
 O1683 O 0.30439 0.77904 0.20678
 O1684 O 0.23929 0.73737 0.17856
 O1685 O 0.26367 0.77294 0.18612
 O1686 O 0.32686 0.72817 0.22164
 O1687 O 0.30009 0.69195 0.20920
 C1688 C 0.25131 0.75756 0.17163
 H1689 H 0.30888 0.76249 0.25034
 H1690 H 0.25915 0.68141 0.23314
 H1691 H 0.22192 0.76922 0.20936
 H1692 H 0.22630 0.74552 0.29805
 H1693 H 0.32209 0.67592 0.25106
 H1694 H 0.24434 0.65923 0.29023
 H1695 H 0.20464 0.68287 0.29867
 H1696 H 0.16810 0.76173 0.27438
 H1697 H 0.34104 0.71617 0.22541
 H1698 H 0.30376 0.79628 0.19937
 H1699 H 0.26275 0.81783 0.20414
 H1700 H 0.18297 0.79959 0.24408
 H1701 H 0.31669 0.68286 0.21056
 H1702 H 0.23350 0.69075 0.17467
 H1703 H 0.27429 0.78612 0.32273
 H1704 H 0.19180 0.79648 0.28511
 Zr1705 Zr 0.22507 0.76945 0.71738
 O1706 O 0.23585 0.79384 0.68863
 O1707 O 0.18635 0.76331 0.70985
 O1708 O 0.22304 0.75050 0.68270
 O1709 O 0.21728 0.81946 0.75991
 O1710 O 0.24311 0.71212 0.68899
 O1711 O 0.20787 0.80621 0.72083
 O1712 O 0.17397 0.73539 0.73923
 O1713 O 0.22007 0.73075 0.72612
 O1714 O 0.20964 0.76918 0.75271
 O1715 O 0.26158 0.75261 0.71462
 O1716 O 0.25119 0.78996 0.73973
 Zr1717 Zr 0.26787 0.73234 0.78317
 Zr1718 Zr 0.25663 0.71449 0.72518
 Zr1719 Zr 0.23621 0.78764 0.77525
 Zr1720 Zr 0.20612 0.73078 0.76191
 O1721 O 0.25716 0.82165 0.78252
 O1722 O 0.19361 0.69356 0.75089
 O1723 O 0.23129 0.74948 0.78630
 O1724 O 0.24174 0.71238 0.76066
 O1725 O 0.28352 0.73257 0.74788
 O1726 O 0.27257 0.77102 0.77420
 C1727 C 0.16986 0.74887 0.72012
 C1728 C 0.20720 0.82284 0.73868
 C1729 C 0.23090 0.72803 0.67548
 O1730 O 0.23727 0.67912 0.72028
 O1731 O 0.27922 0.68473 0.73906
 O1732 O 0.28669 0.69609 0.77896
 C1733 C 0.28915 0.68070 0.76018
 O1734 O 0.28945 0.79701 0.70919
 Zr1735 Zr 0.28687 0.77116 0.73872
 O1736 O 0.30683 0.73727 0.78976
 O1737 O 0.28775 0.70764 0.70113
 O1738 O 0.31427 0.75564 0.71381
 O1739 O 0.30193 0.80677 0.75153
 O1740 O 0.32018 0.76268 0.75874
 C1741 C 0.32413 0.74919 0.77785
 O1742 O 0.25748 0.70709 0.81135
 O1743 O 0.20354 0.79592 0.79689
 O1744 O 0.26842 0.75083 0.81830
 O1745 O 0.24611 0.78811 0.81252
 O1746 O 0.17636 0.74629 0.78416
 O1747 O 0.20265 0.70905 0.79426
 C1748 C 0.25878 0.77250 0.82600
 H1749 H 0.19283 0.77792 0.75394
 H1750 H 0.23995 0.69433 0.76580
 H1751 H 0.28426 0.78031 0.78550
 H1752 H 0.26831 0.75353 0.69772
 H1753 H 0.17527 0.69235 0.75514
 H1754 H 0.24719 0.66877 0.70811
 H1755 H 0.28551 0.69011 0.69396
 H1756 H 0.33006 0.76590 0.71571
 H1757 H 0.16127 0.73508 0.78185
 H1758 H 0.20591 0.81342 0.80408
 H1759 H 0.24702 0.83213 0.79442
 H1760 H 0.32014 0.80722 0.74663
 H1761 H 0.18555 0.70105 0.79474
 H1762 H 0.27301 0.70406 0.82132
 H1763 H 0.22039 0.79700 0.67860
 H1764 H 0.30752 0.80177 0.70668
 Zr1765 Zr 0.27286 0.22785 0.21648
 O1766 O 0.26482 0.20340 0.18596
 O1767 O 0.31095 0.23765 0.21005
 O1768 O 0.27378 0.24777 0.18307
 O1769 O 0.28338 0.17740 0.25591
 O1770 O 0.25031 0.28409 0.19130
 O1771 O 0.29291 0.19243 0.21803
 O1772 O 0.32071 0.26533 0.24164
 O1773 O 0.27435 0.26664 0.22767
 O1774 O 0.28760 0.22855 0.25207
 O1775 O 0.23513 0.24163 0.21408
 O1776 O 0.24822 0.20467 0.23706
 Zr1777 Zr 0.22586 0.25950 0.28363
 Zr1778 Zr 0.23654 0.27980 0.22709
 Zr1779 Zr 0.26227 0.20742 0.27299
 Zr1780 Zr 0.28769 0.26690 0.26367
 O1781 O 0.24381 0.17189 0.27847
 O1782 O 0.29727 0.30522 0.25490
 O1783 O 0.26372 0.24560 0.28636
 O1784 O 0.25066 0.28216 0.26292
 O1785 O 0.21088 0.25887 0.24807
 O1786 O 0.22465 0.22079 0.27229
 C1787 C 0.32617 0.25284 0.22170
 C1788 C 0.29418 0.17530 0.23475
 C1789 C 0.26407 0.26962 0.17708
 O1790 O 0.25299 0.31674 0.22455
 O1791 O 0.21159 0.30754 0.24251
 O1792 O 0.20473 0.29432 0.28152
 C1793 C 0.20147 0.31018 0.26390
 O1794 O 0.21151 0.19497 0.20541
 Zr1795 Zr 0.21116 0.22034 0.23647
 O1796 O 0.18724 0.25098 0.28922
 O1797 O 0.20520 0.28448 0.20311
 O1798 O 0.18302 0.23372 0.21180
 O1799 O 0.19884 0.18337 0.24698
 O1800 O 0.17692 0.22569 0.25606
 C1801 C 0.17135 0.23800 0.27605
 O1802 O 0.23336 0.28483 0.31364
 O1803 O 0.29546 0.20097 0.29416
 O1804 O 0.22674 0.24062 0.31766
 O1805 O 0.25283 0.20598 0.31031
 O1806 O 0.31798 0.25338 0.28582
 O1807 O 0.28876 0.28831 0.29725
 C1808 C 0.23891 0.22034 0.32453
 H1809 H 0.30502 0.22115 0.25306
 H1810 H 0.25092 0.30017 0.26923
 H1811 H 0.21366 0.21033 0.28291
 H1812 H 0.22878 0.24053 0.19701
 H1813 H 0.31535 0.30791 0.25962
 H1814 H 0.24245 0.32648 0.21282
 H1815 H 0.20606 0.30228 0.19700
 H1816 H 0.16820 0.22201 0.21275
 H1817 H 0.33221 0.26577 0.28454
 H1818 H 0.29428 0.18323 0.30037
 H1819 H 0.25464 0.16208 0.28990
 H1820 H 0.18085 0.18148 0.24164
 H1821 H 0.30512 0.29770 0.29850
 H1822 H 0.21745 0.28627 0.32347
 H1823 H 0.28071 0.20182 0.17612
 H1824 H 0.19405 0.18847 0.20235
 Zr1825 Zr 0.73614 0.72842 0.28164
 O1826 O 0.74989 0.70270 0.30822
 O1827 O 0.69741 0.73122 0.29067
 O1828 O 0.73422 0.74466 0.31754
 O1829 O 0.73027 0.68157 0.23584
 O1830 O 0.75313 0.78384 0.31365
 O1831 O 0.72156 0.69073 0.27603
 O1832 O 0.68141 0.75993 0.26350
 O1833 O 0.72763 0.76731 0.27582
 O1834 O 0.71942 0.73021 0.24697
 O1835 O 0.77127 0.74775 0.28422
 O1836 O 0.76315 0.71162 0.25732
 Zr1837 Zr 0.77299 0.77339 0.21721
 Zr1838 Zr 0.76279 0.78618 0.27653
 Zr1839 Zr 0.74665 0.71543 0.22264
 Zr1840 Zr 0.71230 0.76884 0.24057
 O1841 O 0.76988 0.68316 0.21351
 O1842 O 0.69714 0.80407 0.25469
 O1843 O 0.73791 0.75377 0.21422
 O1844 O 0.74626 0.78973 0.24185
 O1845 O 0.79009 0.77186 0.25183
 O1846 O 0.78147 0.73464 0.22351
 C1847 C 0.67922 0.74480 0.28168
 C1848 C 0.72123 0.67568 0.25690
 C1849 C 0.74280 0.76614 0.32637
 O1850 O 0.73981 0.81863 0.28552
 O1851 O 0.78118 0.81913 0.26385
 O1852 O 0.78919 0.81033 0.22342
 C1853 C 0.79040 0.82489 0.24288
 O1854 O 0.80317 0.70494 0.28545
 Zr1855 Zr 0.79710 0.73308 0.25834
 O1856 O 0.81187 0.77148 0.20852
 O1857 O 0.79497 0.79440 0.29874
 O1858 O 0.82388 0.74827 0.28386
 O1859 O 0.81517 0.70025 0.24216
 O1860 O 0.82862 0.74677 0.23864
 C1861 C 0.83069 0.76109 0.21980
 O1862 O 0.75955 0.80018 0.19146
 O1863 O 0.71443 0.70675 0.20067
 O1864 O 0.77265 0.75790 0.18084
 O1865 O 0.75651 0.71767 0.18569
 O1866 O 0.68314 0.75295 0.21805
 O1867 O 0.70575 0.79268 0.21002
 C1868 C 0.76613 0.73541 0.17253
 H1869 H 0.70334 0.72039 0.24552
 H1870 H 0.74268 0.80794 0.23803
 H1871 H 0.79355 0.72711 0.21135
 H1872 H 0.77899 0.74592 0.30064
 H1873 H 0.67860 0.80424 0.25107
 H1874 H 0.74945 0.82900 0.29778
 H1875 H 0.79144 0.81097 0.30747
 H1876 H 0.84047 0.73957 0.28065
 H1877 H 0.66727 0.76288 0.22146
 H1878 H 0.71798 0.68997 0.19235
 H1879 H 0.76049 0.67286 0.20100
 H1880 H 0.83357 0.70123 0.24628
 H1881 H 0.68813 0.79965 0.21076
 H1882 H 0.77436 0.80498 0.18122
 H1883 H 0.73508 0.69773 0.31839
 H1884 H 0.82166 0.70113 0.28678
 Zr1885 Zr 0.76964 0.27791 0.78457
 O1886 O 0.75864 0.30375 0.81323
 O1887 O 0.80876 0.27306 0.79171
 O1888 O 0.77244 0.26104 0.81958
 O1889 O 0.77389 0.32528 0.74098
 O1890 O 0.75099 0.22315 0.81476
 O1891 O 0.78488 0.31533 0.78009
 O1892 O 0.82157 0.24382 0.76238
 O1893 O 0.77574 0.23871 0.77653
 O1894 O 0.78461 0.27564 0.74909
 O1895 O 0.73361 0.26047 0.78770
 O1896 O 0.74240 0.29608 0.76206
 Zr1897 Zr 0.72729 0.23524 0.71981
 Zr1898 Zr 0.73968 0.22171 0.77795
 Zr1899 Zr 0.75703 0.29171 0.72649
 Zr1900 Zr 0.78929 0.23672 0.74056
 O1901 O 0.73457 0.32440 0.71824
 O1902 O 0.80343 0.20070 0.75234
 O1903 O 0.76321 0.25302 0.71612
 O1904 O 0.75440 0.21758 0.74245
 O1905 O 0.71187 0.23749 0.75517
 O1906 O 0.72131 0.27439 0.72796
 C1907 C 0.82560 0.25844 0.78126
 C1908 C 0.78395 0.33081 0.76190
 C1909 C 0.76312 0.23996 0.82780
 O1910 O 0.76160 0.18830 0.78484
 O1911 O 0.72005 0.18929 0.76444
 O1912 O 0.70970 0.19902 0.72516
 C1913 C 0.70949 0.18394 0.74369
 O1914 O 0.70366 0.30420 0.79269
 Zr1915 Zr 0.70736 0.27663 0.76356
 O1916 O 0.68817 0.23926 0.71308
 O1917 O 0.70792 0.21489 0.80082
 O1918 O 0.68064 0.26204 0.78885
 O1919 O 0.69141 0.31122 0.75019
 O1920 O 0.67427 0.26635 0.74380
 C1921 C 0.67062 0.25174 0.72485
 O1922 O 0.73783 0.20795 0.69222
 O1923 O 0.78946 0.29966 0.70485
 O1924 O 0.72695 0.25087 0.68413
 O1925 O 0.74759 0.28923 0.68930
 O1926 O 0.81796 0.25149 0.71739
 O1927 O 0.79330 0.21274 0.70874
 C1928 C 0.73621 0.27210 0.67608
 H1929 H 0.80101 0.28484 0.74751
 H1930 H 0.75700 0.19927 0.73764
 H1931 H 0.70935 0.28263 0.71644
 H1932 H 0.72674 0.26252 0.80452
 H1933 H 0.82174 0.19964 0.74784
 H1934 H 0.75195 0.17824 0.79694
 H1935 H 0.71093 0.19808 0.80861
 H1936 H 0.66442 0.27167 0.78677
 H1937 H 0.83358 0.24095 0.71968
 H1938 H 0.78638 0.31659 0.69733
 H1939 H 0.74421 0.33430 0.70602
 H1940 H 0.67312 0.31163 0.75486
 H1941 H 0.81070 0.20520 0.70825
 H1942 H 0.72228 0.20412 0.68247
 H1943 H 0.77423 0.30788 0.82283
 H1944 H 0.68542 0.30879 0.79495
 C1945 C 0.44603 0.99223 0.34759
 C1946 C 0.47004 0.98479 0.35282
 C1947 C 0.48027 0.98476 0.37821
 C1948 C 0.47124 1.00040 0.39607
 H1949 H 0.48229 0.97689 0.33859
 H1950 H 0.49567 0.97145 0.38211
 H1951 H 0.43345 0.99789 0.36250
 H1952 H 0.45666 1.01451 0.39196
 C1953 C -0.05783 0.49317 0.84716
 C1954 C -0.03174 0.49372 0.85313
 C1955 C -0.02278 0.49240 0.87733
 C1956 C -0.03814 0.49872 0.89761
 H1957 H -0.01764 0.49352 0.83865
 H1958 H -0.00269 0.48837 0.88014
 H1959 H -0.07111 0.48785 0.86136
 H1960 H -0.05700 0.50668 0.89457
 C1961 C 0.05108 0.01057 0.84967
 C1962 C 0.02606 0.01286 0.85493
 C1963 C 0.01677 0.01319 0.88069
 C1964 C 0.02898 0.00001 0.89802
 H1965 H 0.01213 0.01537 0.84058
 H1966 H -0.00029 0.02417 0.88523
 H1967 H 0.06448 0.01029 0.86476
 H1968 H 0.04510 -0.01210 0.89287
 C1969 C 0.55300 0.51118 0.34542
 C1970 C 0.52798 0.51344 0.35079
 C1971 C 0.51829 0.51480 0.37646
 C1972 C 0.53107 0.50422 0.39504
 H1973 H 0.51396 0.51460 0.33636
 H1974 H 0.49976 0.52355 0.37978
 H1975 H 0.56661 0.51169 0.36032
 H1976 H 0.54873 0.49395 0.39133
 C1977 C 0.54257 0.50528 0.15211
 C1978 C 0.53666 0.52695 0.14042
 C1979 C 0.52691 0.52708 0.11500
 C1980 C 0.51047 0.50985 0.10541
 H1981 H 0.54269 0.54531 0.14808
 H1982 H 0.53367 0.54253 0.10372
 H1983 H 0.53898 0.48689 0.14305
 H1984 H 0.50185 0.49558 0.11693
 C1985 C 0.05022 0.99755 0.65304
 C1986 C 0.06256 0.98951 0.63271
 C1987 C 0.05221 0.99056 0.60761
 C1988 C 0.02754 0.98786 0.60132
 H1989 H 0.08255 0.98430 0.63386
 H1990 H 0.06643 0.99234 0.59335
 H1991 H 0.03110 1.00543 0.65161
 H1992 H 0.01326 0.98421 0.61513
 C1993 C -0.04912 0.49531 0.65094
 C1994 C -0.06043 0.48572 0.63073
 C1995 C -0.04919 0.48391 0.60595
 C1996 C -0.02819 0.49604 0.59808
 H1997 H -0.07947 0.47792 0.63216
 H1998 H -0.06041 0.47272 0.59297
 H1999 H -0.02934 0.50114 0.65043
 H2000 H -0.01679 0.50763 0.61056
 C2001 C 0.45908 -0.01991 0.15567
 C2002 C 0.47234 -0.00151 0.14459
 C2003 C 0.48127 -0.00555 0.11918
 C2004 C 0.49739 0.01061 0.10837
 H2005 H 0.47534 0.01697 0.15367
 H2006 H 0.47321 -0.02144 0.10861
 H2007 H 0.45763 -0.03876 0.14687
 H2008 H 0.50648 0.02581 0.11904
 C2009 C 0.34216 0.42865 0.01446
 C2010 C 0.34535 0.45167 0.00430
 C2011 C 0.37012 0.46509 0.00320
 C2012 C 0.38907 0.46314 0.01969
 H2013 H 0.33010 0.45989 -0.00642
 H2014 H 0.37252 0.47762 -0.01223
 H2015 H 0.35834 0.41947 0.02311
 H2016 H 0.38639 0.45230 0.03620
 C2017 C -0.14957 0.91833 0.51382
 C2018 C -0.14575 0.94238 0.50629
 C2019 C -0.12039 0.95467 0.50521
 C2020 C -0.10048 0.94975 0.52001
 H2021 H -0.16107 0.95264 0.49743
 H2022 H -0.11834 0.96895 0.49119
 H2023 H -0.13345 0.90740 0.52056
 H2024 H -0.10260 0.93711 0.53537
 C2025 C -0.13942 0.07308 0.98781
 C2026 C -0.12146 0.07182 0.96851
 C2027 C -0.09761 0.05904 0.96953
 C2028 C -0.08714 0.04880 0.99087
 H2029 H -0.12585 0.08074 0.95134
 H2030 H -0.08642 0.05804 0.95285
 H2031 H -0.13583 0.06187 1.00387
 H2032 H -0.09734 0.05104 1.00797
 C2033 C 0.34390 0.56792 0.50457
 C2034 C 0.36282 0.56682 0.48795
 C2035 C 0.38661 0.55234 0.49303
 C2036 C 0.40567 0.55037 0.47666
 H2037 H 0.36123 0.57662 0.47077
 H2038 H 0.38854 0.54322 0.51061
 H2039 H 0.34659 0.55760 0.52144
 H2040 H 0.40358 0.55927 0.45899
 C2041 C 0.14274 0.57349 0.50831
 C2042 C 0.13826 0.55002 0.49865
 C2043 C 0.11276 0.53795 0.49725
 C2044 C 0.09331 0.54205 0.51302
 H2045 H 0.15324 0.54007 0.48856
 H2046 H 0.11038 0.52410 0.48232
 H2047 H 0.12701 0.58436 0.51635
 H2048 H 0.09582 0.55421 0.52918
 C2049 C 0.66134 0.08388 0.00708
 C2050 C 0.65495 0.06154 -0.00397
 C2051 C 0.62896 0.05048 -0.00377
 C2052 C 0.61146 0.05393 0.01408
 H2053 H 0.66848 0.05201 -0.01613
 H2054 H 0.62448 0.03797 -0.01929
 H2055 H 0.64692 0.09454 0.01735
 H2056 H 0.61615 0.06470 0.03065
 C2057 C 0.64954 0.91926 0.50520
 C2058 C 0.63160 0.92062 0.48766
 C2059 C 0.60751 0.93478 0.49268
 C2060 C 0.58920 0.93791 0.47576
 H2061 H 0.63423 0.91136 0.46993
 H2062 H 0.60486 0.94312 0.51089
 H2063 H 0.64564 0.92891 0.52264
 H2064 H 0.59190 0.93010 0.45737
 C2065 C 0.14427 0.42377 1.00452
 C2066 C 0.12683 0.42526 0.98655
 C2067 C 0.10296 0.43992 0.99104
 C2068 C 0.08473 0.44294 0.97402
 H2069 H 0.12978 0.41588 0.96891
 H2070 H 0.10029 0.44855 1.00913
 H2071 H 0.14019 0.43386 1.02169
 H2072 H 0.08729 0.43466 0.95580
 C2073 C 0.00451 0.34088 0.41556
 C2074 C -0.01054 0.36083 0.40975
 C2075 C -0.01023 0.38599 0.42268
 C2076 C -0.00007 0.38979 0.44494
 H2077 H -0.02354 0.35923 0.39443
 H2078 H -0.01987 0.40171 0.41372
 H2079 H 0.01929 0.34322 0.42923
 H2080 H 0.00903 0.37423 0.45451
 C2081 C 0.49117 -0.14338 -0.06864
 C2082 C 0.48198 -0.12156 -0.07797
 C2083 C 0.48460 -0.09636 -0.06547
 C2084 C 0.50353 -0.09118 -0.04969
 H2085 H 0.47234 -0.12181 -0.09549
 H2086 H 0.47095 -0.08150 -0.07012
 H2087 H 0.50055 -0.14318 -0.05099
 H2088 H 0.51798 -0.10549 -0.04582
 C2089 C 0.02036 -0.15097 1.07241
 C2090 C 0.02906 -0.12892 1.08234
 C2091 C 0.02994 -0.10481 1.06879
 C2092 C 0.01432 -0.10018 1.04998
 H2093 H 0.03600 -0.12819 1.10099
 H2094 H 0.04258 -0.08991 1.07567
 H2095 H 0.01616 -0.15220 1.05301
 H2096 H 0.00063 -0.11443 1.04384
 C2097 C 0.48846 0.34683 0.56241
 C2098 C 0.49193 0.34854 0.53822
 C2099 C 0.49187 0.37367 0.52637
 C2100 C 0.50134 0.39466 0.53768
 H2101 H 0.49481 0.33167 0.52663
 H2102 H 0.48493 0.37456 0.50772
 H2103 H 0.48424 0.36426 0.57296
 H2104 H 0.51022 0.39321 0.55552
 C2105 C 0.50174 1.14780 0.57476
 C2106 C 0.49271 1.12632 0.58471
 C2107 C 0.49282 1.10100 0.57207
 C2108 C 0.50781 1.09502 0.55289
 H2109 H 0.48392 1.12715 0.60264
 H2110 H 0.47976 1.08682 0.57903
 H2111 H 0.51067 1.14720 0.55692
 H2112 H 0.52178 1.10847 0.54634
 C2113 C -0.00608 0.65361 1.06767
 C2114 C 0.01064 0.64581 1.05046
 C2115 C 0.00936 0.62046 1.03808
 C2116 C -0.00192 0.60005 1.04793
 H2117 H 0.02545 0.65852 1.04429
 H2118 H 0.01899 0.61853 1.02058
 H2119 H -0.02231 0.64166 1.07181
 H2120 H -0.01063 0.60139 1.06588
 C2121 C 0.50243 0.65706 -0.07220
 C2122 C 0.50975 0.63441 -0.08222
 C2123 C 0.50870 0.61013 -0.06892
 C2124 C 0.49246 0.60647 -0.05043
 H2125 H 0.51753 0.63337 -0.10055
 H2126 H 0.52095 0.59455 -0.07540
 H2127 H 0.49735 0.65831 -0.05300
 H2128 H 0.47926 0.62150 -0.04464
 C2129 C 0.01150 1.14228 0.42736
 C2130 C 0.01692 1.11782 0.41739
 C2131 C 0.01571 1.09516 0.43037
 C2132 C 0.00380 1.09296 0.45317
 H2133 H 0.02343 1.11588 0.39864
 H2134 H 0.02305 1.07803 0.42106
 H2135 H 0.01082 1.14492 0.44707
 H2136 H -0.00557 1.10941 0.46182
 C2137 C 0.73820 0.69357 0.90132
 C2138 C 0.74593 0.71671 0.89419
 C2139 C 0.74730 0.72195 0.86784
 C2140 C 0.74641 0.74574 0.85895
 H2141 H 0.75113 0.73147 0.90757
 H2142 H 0.74845 0.70556 0.85523
 H2143 H 0.73127 0.67986 0.88765
 H2144 H 0.74345 0.76219 0.87117
 C2145 C 0.23787 0.19327 0.40346
 C2146 C 0.25104 0.18351 0.38429
 C2147 C 0.24975 0.19227 0.35873
 C2148 C 0.23708 0.21299 0.35057
 H2149 H 0.26358 0.16719 0.38701
 H2150 H 0.26097 0.18072 0.34590
 H2151 H 0.22383 0.20831 0.40084
 H2152 H 0.22594 0.22506 0.36296
 C2153 C 0.73912 0.29837 0.40657
 C2154 C 0.72360 0.30520 0.38823
 C2155 C 0.72494 0.29502 0.36273
 C2156 C 0.73928 0.27499 0.35476
 H2157 H 0.70935 0.32003 0.39147
 H2158 H 0.71337 0.30534 0.34970
 H2159 H 0.75286 0.28297 0.40381
 H2160 H 0.75035 0.26375 0.36741
 C2161 C 0.26044 0.80415 0.90492
 C2162 C 0.26220 0.81677 0.88378
 C2163 C 0.25955 0.80546 0.85883
 C2164 C 0.26270 0.78060 0.85199
 H2165 H 0.26428 0.83747 0.88434
 H2166 H 0.25523 0.81939 0.84491
 H2167 H 0.25913 0.78336 0.90465
 H2168 H 0.26871 0.76648 0.86512
 C2169 C 0.27393 0.81000 0.10075
 C2170 C 0.26004 0.79065 0.10979
 C2171 C 0.26287 0.78348 0.13578
 C2172 C 0.25009 0.76375 0.14529
 H2173 H 0.24628 0.78033 0.09866
 H2174 H 0.27528 0.79498 0.14746
 H2175 H 0.28769 0.81901 0.11299
 H2176 H 0.23794 0.75207 0.13351
 C2177 C 0.74657 0.28714 0.59805
 C2178 C 0.72904 0.27022 0.60586
 C2179 C 0.72828 0.26203 0.63176
 C2180 C 0.73423 0.27850 0.65004
 H2181 H 0.71492 0.26206 0.59363
 H2182 H 0.72207 0.24272 0.63572
 H2183 H 0.76146 0.29281 0.61081
 H2184 H 0.73905 0.29814 0.64571
 C2185 C 0.25566 0.20497 0.59737
 C2186 C 0.26886 0.19618 0.61654
 C2187 C 0.26691 0.20665 0.64177
 C2188 C 0.26253 0.23131 0.64836
 H2189 H 0.27947 0.17833 0.61466
 H2190 H 0.26976 0.19264 0.65596
 H2191 H 0.24531 0.22303 0.59898
 H2192 H 0.26199 0.24625 0.63486
 C2193 C 0.76194 0.70543 0.09568
 C2194 C 0.76908 0.69253 0.11691
 C2195 C 0.77091 0.70307 0.14047
 C2196 C 0.76976 0.72915 0.14769
 H2197 H 0.77232 0.67199 0.11602
 H2198 H 0.77318 0.68892 0.15465
 H2199 H 0.76186 0.72627 0.09589
 H2200 H 0.77281 0.74416 0.13458
 C2201 C 0.17577 0.58556 0.25189
 C2202 C 0.17449 0.60672 0.23831
 C2203 C 0.19166 0.62868 0.24319
 C2204 C 0.19353 0.64820 0.22764
 H2205 H 0.16077 0.60792 0.22352
 H2206 H 0.20280 0.62893 0.25993
 H2207 H 0.19071 0.58407 0.26554
 H2208 H 0.18310 0.64742 0.21050
 C2209 C 0.66607 0.11052 0.74516
 C2210 C 0.68741 0.11729 0.75934
 C2211 C 0.69979 0.14113 0.75905
 C2212 C 0.69707 0.16013 0.74121
 H2213 H 0.69396 0.10437 0.77328
 H2214 H 0.71340 0.14440 0.77372
 H2215 H 0.65757 0.12512 0.73382
 H2216 H 0.68618 0.15617 0.72473
 C2217 C 0.83479 0.10106 0.24384
 C2218 C 0.82519 0.11535 0.26247
 C2219 C 0.81108 0.13939 0.25725
 C2220 C 0.80252 0.15565 0.27489
 H2221 H 0.82797 0.10976 0.28127
 H2222 H 0.80764 0.14386 0.23823
 H2223 H 0.83241 0.10808 0.22541
 H2224 H 0.80608 0.15144 0.29394
 C2225 C 0.33258 0.60386 0.76126
 C2226 C 0.32425 0.61720 0.74204
 C2227 C 0.30865 0.64106 0.74302
 C2228 C 0.30450 0.65670 0.76264
 H2229 H 0.32779 0.60964 0.72374
 H2230 H 0.30076 0.64632 0.72547
 H2231 H 0.32735 0.61006 0.77964
 H2232 H 0.31277 0.65237 0.78024
 C2233 C 0.33107 0.40186 0.74634
 C2234 C 0.30736 0.39784 0.75490
 C2235 C 0.29585 0.37199 0.75651
 C2236 C 0.29985 0.35257 0.74028
 H2237 H 0.29656 0.41326 0.76360
 H2238 H 0.28247 0.36940 0.77137
 H2239 H 0.34190 0.38520 0.73992
 H2240 H 0.31146 0.35553 0.72418
 C2241 C 0.82697 0.90242 0.23795
 C2242 C 0.83352 0.88133 0.22460
 C2243 C 0.81823 0.85734 0.22355
 C2244 C 0.80324 0.85008 0.24201
 H2245 H 0.85061 0.88151 0.21348
 H2246 H 0.82136 0.84429 0.20810
 H2247 H 0.80861 0.90319 0.24706
 H2248 H 0.80163 0.86229 0.25827
 C2249 C 0.66763 0.90824 0.75823
 C2250 C 0.66969 0.88938 0.74100
 C2251 C 0.68537 0.86571 0.74278
 C2252 C 0.69349 0.85441 0.76336
 H2253 H 0.66102 0.89139 0.72326
 H2254 H 0.68956 0.85647 0.72525
 H2255 H 0.67763 0.90578 0.77538
 H2256 H 0.68845 0.86240 0.78120
 C2257 C 0.15884 0.38905 0.23694
 C2258 C 0.16503 0.37391 0.25567
 C2259 C 0.17998 0.35007 0.25105
 C2260 C 0.18535 0.33328 0.26870
 H2261 H 0.15912 0.37886 0.27418
 H2262 H 0.18702 0.34636 0.23262
 H2263 H 0.16415 0.38272 0.21856
 H2264 H 0.17807 0.33674 0.28706
 C2265 C 0.10090 0.23582 0.81889
 C2266 C 0.12281 0.22749 0.82869
 C2267 C 0.14762 0.22952 0.81630
 C2268 C 0.15250 0.24714 0.79939
 H2269 H 0.12294 0.21812 0.84616
 H2270 H 0.16265 0.21670 0.82230
 H2271 H 0.10077 0.24271 0.80032
 H2272 H 0.13799 0.26079 0.79398
 C2273 C 0.60221 0.73474 0.31325
 C2274 C 0.62387 0.72540 0.32274
 C2275 C 0.64860 0.72614 0.31011
 C2276 C 0.65391 0.74315 0.29279
 H2277 H 0.62378 0.71656 0.34050
 H2278 H 0.66337 0.71329 0.31659
 H2279 H 0.60171 0.74096 0.29448
 H2280 H 0.63965 0.75681 0.28684
 C2281 C 0.60193 0.25604 0.17458
 C2282 C 0.62377 0.26197 0.16325
 C2283 C 0.64878 0.25999 0.17530
 C2284 C 0.65352 0.24335 0.19313
 H2285 H 0.62355 0.27041 0.14534
 H2286 H 0.66357 0.27288 0.16926
 H2287 H 0.60244 0.25019 0.19348
 H2288 H 0.63921 0.22959 0.19843
 C2289 C 0.09000 0.74886 0.69447
 C2290 C 0.10289 0.72805 0.70164
 C2291 C 0.12738 0.72999 0.71458
 C2292 C 0.14447 0.74799 0.70901
 H2293 H 0.09547 0.70896 0.69791
 H2294 H 0.13231 0.71487 0.72712
 H2295 H 0.09608 0.76788 0.70047
 H2296 H 0.14027 0.76172 0.69487
 C2297 C 0.90191 0.75316 0.68260
 C2298 C 0.89384 0.77378 0.69577
 C2299 C 0.86969 0.77397 0.70966
 C2300 C 0.84990 0.75896 0.70353
 H2301 H 0.90517 0.79099 0.69746
 H2302 H 0.86798 0.78770 0.72479
 H2303 H 0.89078 0.73569 0.68328
 H2304 H 0.85085 0.74629 0.68757
 C2305 C 0.40646 0.25389 0.19874
 C2306 C 0.39468 0.27401 0.20965
 C2307 C 0.36928 0.27152 0.22086
 C2308 C 0.35173 0.25557 0.21131
 H2309 H 0.40306 0.29296 0.20984
 H2310 H 0.36452 0.28425 0.23617
 H2311 H 0.39781 0.23504 0.19954
 H2312 H 0.35596 0.24431 0.19486
 C2313 C 0.40589 0.73790 0.31187
 C2314 C 0.39444 0.71605 0.30470
 C2315 C 0.36949 0.71607 0.29250
 C2316 C 0.35127 0.73322 0.29854
 H2317 H 0.40392 0.69766 0.30683
 H2318 H 0.36580 0.70091 0.27906
 H2319 H 0.39755 0.75629 0.30717
 H2320 H 0.35441 0.74715 0.31328
 C2321 C 0.90600 0.25822 0.80723
 C2322 C 0.89395 0.23863 0.79608
 C2323 C 0.86913 0.24140 0.78401
 C2324 C 0.85132 0.25830 0.79181
 H2325 H 0.90258 0.21963 0.79554
 H2326 H 0.86465 0.22727 0.76982
 H2327 H 0.89885 0.27772 0.80558
 H2328 H 0.85513 0.27127 0.80715
 C2329 C 0.55271 1.01227 0.64874
 C2330 C 0.52770 1.01497 0.64378
 C2331 C 0.51763 1.01472 0.61835
 C2332 C 0.52937 1.00189 0.59995
 H2333 H 0.51414 1.01851 0.65839
 H2334 H 0.49973 1.02459 0.61503
 H2335 H 0.56607 1.01117 0.63362
 H2336 H 0.54640 0.99072 0.60363
 C2337 C 0.04929 0.51487 1.14639
 C2338 C 0.02314 0.51782 1.14094
 C2339 C 0.01343 0.51820 1.11688
 C2340 C 0.02740 0.50959 1.09636
 H2341 H 0.00944 0.52070 1.15554
 H2342 H -0.00642 0.52357 1.11455
 H2343 H 0.06264 0.51687 1.13144
 H2344 H 0.04624 0.50145 1.09890
 C2345 C -0.04253 -0.01360 1.15400
 C2346 C -0.05240 -0.02280 1.13284
 C2347 C -0.04064 -0.02058 1.10846
 C2348 C -0.01580 -0.01725 1.10341
 H2349 H -0.07138 -0.03068 1.13221
 H2350 H -0.05408 -0.02176 1.09338
 H2351 H -0.02292 -0.00709 1.15410
 H2352 H -0.00144 -0.01810 1.11762
 C2353 C 0.44584 0.49111 0.64780
 C2354 C 0.43328 0.48264 0.62776
 C2355 C 0.44338 0.48337 0.60250
 C2356 C 0.46804 0.48080 0.59611
 H2357 H 0.41358 0.47683 0.62915
 H2358 H 0.42915 0.48562 0.58829
 H2359 H 0.46563 0.49675 0.64618
 H2360 H 0.48233 0.47661 0.60980
 C2361 C 0.45248 0.50415 -0.15395
 C2362 C 0.46798 0.52263 -0.14500
 C2363 C 0.47600 0.52375 -0.11890
 C2364 C 0.46069 0.51601 -0.10083
 H2365 H 0.47577 0.53696 -0.15689
 H2366 H 0.49440 0.53206 -0.11455
 H2367 H 0.44689 0.48888 -0.14189
 H2368 H 0.44169 0.50923 -0.10525
 C2369 C -0.04775 0.99972 0.34700
 C2370 C -0.02997 1.01633 0.35528
 C2371 C -0.02025 1.01595 0.38083
 C2372 C -0.03488 1.00870 0.39958
 H2373 H -0.02132 1.02986 0.34308
 H2374 H -0.00090 1.02236 0.38419
 H2375 H -0.05425 0.98491 0.35914
 H2376 H -0.05465 1.00377 0.39626
 C2377 C 0.04378 0.48396 0.33918
 C2378 C 0.05664 0.49058 0.35958
 C2379 C 0.04772 0.48819 0.38508
 C2380 C 0.02496 0.47941 0.39253
 H2381 H 0.07556 0.49863 0.35784
 H2382 H 0.06121 0.49522 0.39866
 H2383 H 0.02560 0.47429 0.34029
 H2384 H 0.01115 0.47205 0.37947
 C2385 C 0.54594 0.00432 -0.15550
 C2386 C 0.55405 0.01882 -0.13649
 C2387 C 0.54688 0.01598 -0.11056
 C2388 C 0.52803 0.00147 -0.10147
 H2389 H 0.56870 0.03301 -0.13943
 H2390 H 0.55836 0.02751 -0.09805
 H2391 H 0.53282 -0.01131 -0.15250
 H2392 H 0.51545 -0.00936 -0.11348
 C2393 C 0.64047 0.58369 0.01297
 C2394 C 0.62750 0.57188 -0.00515
 C2395 C 0.60256 0.56000 -0.00008
 C2396 C 0.58675 0.55228 -0.01805
 H2397 H 0.63469 0.57184 -0.02375
 H2398 H 0.59670 0.55834 0.01886
 H2399 H 0.63198 0.58479 0.03109
 H2400 H 0.59225 0.55472 -0.03699
 C2401 C 0.14961 1.07069 0.50819
 C2402 C 0.13584 1.06088 0.48954
 C2403 C 0.11258 1.04594 0.49463
 C2404 C 0.09618 1.03883 0.47693
 H2405 H 0.14086 1.06471 0.47075
 H2406 H 0.10821 1.04174 0.51353
 H2407 H 0.14314 1.06727 0.52670
 H2408 H 0.10016 1.04365 0.45811
 C2409 C 0.16039 -0.07620 1.01023
 C2410 C 0.15515 -0.05251 1.00196
 C2411 C 0.12895 -0.04170 1.00024
 C2412 C 0.10999 -0.04586 1.01627
 H2413 H 0.16977 -0.04132 0.99333
 H2414 H 0.12560 -0.02878 0.98525
 H2415 H 0.14449 -0.08742 1.01677
 H2416 H 0.11359 -0.05707 1.03241
 C2417 C 0.64826 0.42138 0.52354
 C2418 C 0.62545 0.41374 0.53216
 C2419 C 0.60208 0.43009 0.53218
 C2420 C 0.59787 0.44800 0.51534
 H2421 H 0.62321 0.39489 0.53980
 H2422 H 0.58676 0.42493 0.54442
 H2423 H 0.65028 0.44140 0.51876
 H2424 H 0.61238 0.45159 0.50173
 C2425 C -0.15760 0.41918 0.50687
 C2426 C -0.14057 0.42165 0.48866
 C2427 C -0.11660 0.43602 0.49300
 C2428 C -0.09898 0.43910 0.47543
 H2429 H -0.14394 0.41310 0.47074
 H2430 H -0.11311 0.44382 0.51126
 H2431 H -0.15353 0.42874 0.52428
 H2432 H -0.10246 0.43136 0.45715
 C2433 C 0.36022 -0.06768 -0.00723
 C2434 C 0.37056 -0.05401 0.01139
 C2435 C 0.39600 -0.04150 0.01131
 C2436 C 0.41159 -0.03887 -0.00810
 H2437 H 0.36074 -0.05291 0.02879
 H2438 H 0.40216 -0.03408 0.02902
 H2439 H 0.37076 -0.07008 -0.02417
 H2440 H 0.40580 -0.04556 -0.02613
 C2441 C 0.34463 1.07324 0.49480
 C2442 C 0.36344 1.07201 0.51142
 C2443 C 0.38697 1.05721 0.50584
 C2444 C 0.40565 1.05424 0.52237
 H2445 H 0.36166 1.08179 0.52904
 H2446 H 0.38911 1.04880 0.48761
 H2447 H 0.34666 1.06218 0.47783
 H2448 H 0.40334 1.06225 0.54073
 C2449 C -0.16082 0.57596 0.99362
 C2450 C -0.14344 0.57213 1.01128
 C2451 C -0.11997 0.55717 1.00589
 C2452 C -0.10174 0.55341 1.02276
 H2453 H -0.14616 0.58001 1.02959
 H2454 H -0.11733 0.54963 0.98739
 H2455 H -0.15760 0.56692 0.97578
 H2456 H -0.10433 0.56097 1.04125
 C2457 C 0.00714 0.64333 0.56480
 C2458 C 0.01550 0.62132 0.57450
 C2459 C 0.01528 0.59622 0.56144
 C2460 C 0.00019 0.59091 0.54222
 H2461 H 0.02350 0.62141 0.59275
 H2462 H 0.02709 0.58118 0.56903
 H2463 H 0.00161 0.64376 0.54573
 H2464 H -0.01243 0.60543 0.53497
 C2465 C 0.50046 0.17020 0.05780
 C2466 C 0.51455 0.14948 0.06280
 C2467 C 0.51281 0.12599 0.04768
 C2468 C 0.52490 0.10461 0.05442
 H2469 H 0.52689 0.14942 0.07872
 H2470 H 0.50051 0.12585 0.03171
 H2471 H 0.48923 0.17051 0.04113
 H2472 H 0.53705 0.10499 0.07051
 C2473 C -0.01045 0.14803 0.93314
 C2474 C -0.01737 0.12524 0.92345
 C2475 C -0.01627 0.10107 0.93690
 C2476 C -0.00084 0.09748 0.95611
 H2477 H -0.02439 0.12391 0.90484
 H2478 H -0.02725 0.08515 0.92941
 H2479 H -0.00607 0.14989 0.95246
 H2480 H 0.01108 0.11288 0.96313
 C2481 C 0.51163 0.64787 0.43447
 C2482 C 0.50490 0.64550 0.45795
 C2483 C 0.50417 0.62013 0.46924
 C2484 C 0.49643 0.59915 0.45669
 H2485 H 0.50021 0.66202 0.46944
 H2486 H 0.50951 0.61894 0.48835
 H2487 H 0.51734 0.63075 0.42411
 H2488 H 0.48916 0.60082 0.43822
 C2489 C 0.49767 0.84574 0.42942
 C2490 C 0.47660 0.85603 0.43961
 C2491 C 0.47675 0.88133 0.45219
 C2492 C 0.49234 0.90032 0.44561
 H2493 H 0.45875 0.84574 0.43948
 H2494 H 0.46302 0.88447 0.46680
 H2495 H 0.51545 0.85625 0.43051
 H2496 H 0.50475 0.89791 0.42985
 C2497 C -0.00203 0.34625 0.93164
 C2498 C -0.02011 0.35397 0.94754
 C2499 C -0.02032 0.37975 0.95918
 C2500 C -0.00948 0.40026 0.94906
 H2501 H -0.03477 0.34090 0.95334
 H2502 H -0.03058 0.38185 0.97634
 H2503 H 0.01387 0.35882 0.92799
 H2504 H -0.00038 0.39870 0.93129
 C2505 C 0.48553 0.36544 0.07666
 C2506 C 0.47734 0.36694 0.05354
 C2507 C 0.47851 0.39115 0.04023
 C2508 C 0.47472 0.41398 0.05144
 H2509 H 0.47201 0.34968 0.04337
 H2510 H 0.48239 0.39001 0.02075
 H2511 H 0.49368 0.38222 0.08576
 H2512 H 0.46864 0.41500 0.07041
 C2513 C 0.00110 0.84420 0.56463
 C2514 C -0.01013 0.84798 0.54299
 C2515 C -0.00965 0.87321 0.53135
 C2516 C -0.01216 0.89528 0.54426
 H2517 H -0.01805 0.83193 0.53263
 H2518 H -0.00779 0.87346 0.51160
 H2519 H 0.01143 0.85986 0.57344
 H2520 H -0.01625 0.89494 0.56371
 C2521 C 0.25760 0.30384 0.10251
 C2522 C 0.26810 0.31481 0.12256
 C2523 C 0.26660 0.30383 0.14716
 C2524 C 0.26836 0.27869 0.15198
 H2525 H 0.27579 0.33400 0.12195
 H2526 H 0.26439 0.31762 0.16220
 H2527 H 0.24995 0.28457 0.10358
 H2528 H 0.27280 0.26479 0.13751
 C2529 C 0.75688 0.79492 0.59677
 C2530 C 0.74624 0.80599 0.61665
 C2531 C 0.74537 0.79549 0.64139
 C2532 C 0.76031 0.77680 0.65044
 H2533 H 0.73657 0.82435 0.61484
 H2534 H 0.73225 0.80577 0.65348
 H2535 H 0.76456 0.77556 0.59732
 H2536 H 0.77354 0.76610 0.63883
 C2537 C 0.23475 0.69400 0.59893
 C2538 C 0.22290 0.68425 0.61845
 C2539 C 0.22539 0.69476 0.64362
 C2540 C 0.22617 0.71985 0.64980
 H2541 H 0.21318 0.66602 0.61692
 H2542 H 0.22599 0.68064 0.65793
 H2543 H 0.24435 0.71235 0.60083
 H2544 H 0.22334 0.73433 0.63607
 C2545 C 0.75867 0.19766 0.09608
 C2546 C 0.76442 0.18577 0.11694
 C2547 C 0.76250 0.19698 0.14194
 C2548 C 0.74962 0.21844 0.14879
 H2549 H 0.77216 0.16641 0.11600
 H2550 H 0.77176 0.18560 0.15580
 H2551 H 0.75307 0.21775 0.09653
 H2552 H 0.73981 0.22993 0.13540
 C2553 C 0.76619 0.20750 0.90391
 C2554 C 0.74552 0.21384 0.89083
 C2555 C 0.74606 0.22240 0.86526
 C2556 C 0.76527 0.23465 0.85420
 H2557 H 0.72671 0.21004 0.89801
 H2558 H 0.72887 0.21827 0.85489
 H2559 H 0.78504 0.21165 0.89695
 H2560 H 0.78177 0.24126 0.86442
 C2561 C 0.25311 0.68977 0.40250
 C2562 C 0.23481 0.69068 0.38532
 C2563 C 0.23851 0.69825 0.35959
 C2564 C 0.25734 0.71297 0.35085
 H2565 H 0.21585 0.68398 0.38944
 H2566 H 0.22371 0.69165 0.34715
 H2567 H 0.27197 0.69691 0.39836
 H2568 H 0.27132 0.72153 0.36307
 C2569 C 0.74439 0.79543 0.40452
 C2570 C 0.76427 0.79036 0.38974
 C2571 C 0.76207 0.78288 0.36368
 C2572 C 0.74229 0.77070 0.35308
 H2573 H 0.78345 0.79431 0.39604
 H2574 H 0.77841 0.78773 0.35253
 H2575 H 0.72521 0.79112 0.39836
 H2576 H 0.72673 0.76331 0.36385
 C2577 C 0.24371 0.29915 0.90796
 C2578 C 0.26348 0.29650 0.89249
 C2579 C 0.26142 0.28882 0.86640
 C2580 C 0.24274 0.27470 0.85607
 H2581 H 0.28231 0.30243 0.89830
 H2582 H 0.27705 0.29512 0.85502
 H2583 H 0.22494 0.29280 0.90225
 H2584 H 0.22804 0.26613 0.86714
 C2585 C 0.82717 0.40515 0.75682
 C2586 C 0.80335 0.40085 0.74878
 C2587 C 0.79095 0.37530 0.74881
 C2588 C 0.79583 0.35653 0.76480
 H2589 H 0.79328 0.41573 0.73910
 H2590 H 0.77664 0.37214 0.73476
 H2591 H 0.83787 0.38933 0.76447
 H2592 H 0.80869 0.35993 0.78003
 C2593 C 0.32930 0.89223 0.24009
 C2594 C 0.32559 0.87343 0.25789
 C2595 C 0.31180 0.85110 0.25227
 C2596 C 0.30727 0.83229 0.26976
 H2597 H 0.33315 0.87576 0.27620
 H2598 H 0.30455 0.84829 0.23381
 H2599 H 0.32008 0.88878 0.22252
 H2600 H 0.31405 0.83550 0.28834
 C2601 C 0.18039 0.91179 0.75929
 C2602 C 0.17684 0.88978 0.74656
 C2603 C 0.19354 0.86717 0.75011
 C2604 C 0.19283 0.84690 0.73456
 H2605 H 0.16142 0.88836 0.73337
 H2606 H 0.20612 0.86694 0.76586
 H2607 H 0.19689 0.91363 0.77117
 H2608 H 0.18082 0.84774 0.71842
 C2609 C 0.67835 0.40770 0.25097
 C2610 C 0.67533 0.38560 0.23820
 C2611 C 0.69153 0.36290 0.24324
 C2612 C 0.69298 0.34259 0.22768
 H2613 H 0.66076 0.38416 0.22415
 H2614 H 0.70216 0.36269 0.26027
 H2615 H 0.69414 0.40937 0.26373
 H2616 H 0.68327 0.34331 0.21018
 C2617 C 0.67375 0.60368 0.25217
 C2618 C 0.69545 0.60797 0.23985
 C2619 C 0.70929 0.63279 0.24041
 C2620 C 0.70862 0.65033 0.25890
 H2621 H 0.70296 0.59342 0.22736
 H2622 H 0.72097 0.63642 0.22450
 H2623 H 0.66639 0.61861 0.26443
 H2624 H 0.69830 0.64640 0.27557
 C2625 C 0.17066 0.10697 0.75642
 C2626 C 0.19323 0.11068 0.74547
 C2627 C 0.20672 0.13562 0.74567
 C2628 C 0.20521 0.15370 0.76362
 H2629 H 0.20172 0.09556 0.73424
 H2630 H 0.21891 0.13886 0.73002
 H2631 H 0.16236 0.12248 0.76740
 H2632 H 0.19457 0.15009 0.78018
 C2633 C 0.32101 0.08613 0.24954
 C2634 C 0.32587 0.10874 0.23920
 C2635 C 0.30856 0.13101 0.24322
 C2636 C 0.30989 0.15207 0.22952
 H2637 H 0.34266 0.11089 0.22784
 H2638 H 0.29466 0.13020 0.25789
 H2639 H 0.30326 0.08386 0.25946
 H2640 H 0.32306 0.15240 0.21422
 C2641 C 0.83265 0.60903 0.74401
 C2642 C 0.81924 0.61969 0.76262
 C2643 C 0.80700 0.64556 0.76279
 C2644 C 0.80451 0.66124 0.74359
 H2645 H 0.81783 0.60961 0.77967
 H2646 H 0.79927 0.65174 0.78037
 H2647 H 0.83540 0.61978 0.72749
 H2648 H 0.81151 0.65542 0.72567
 C2649 C 0.90613 0.76383 0.18709
 C2650 C 0.90142 0.75712 0.21144
 C2651 C 0.87704 0.75624 0.22173
 C2652 C 0.85488 0.76559 0.21055
 H2653 H 0.91662 0.75022 0.22295
 H2654 H 0.87559 0.74748 0.23950
 H2655 H 0.89002 0.76872 0.17574
 H2656 H 0.85591 0.77712 0.19436
 C2657 C 0.40292 0.27124 0.68706
 C2658 C 0.38123 0.28035 0.67741
 C2659 C 0.35658 0.27995 0.69025
 C2660 C 0.35154 0.26317 0.70782
 H2661 H 0.38111 0.28810 0.65919
 H2662 H 0.34158 0.29235 0.68348
 H2663 H 0.40364 0.26621 0.70618
 H2664 H 0.36605 0.24992 0.71402
 C2665 C 0.40291 0.74283 0.80755
 C2666 C 0.38250 0.72987 0.81527
 C2667 C 0.35745 0.73024 0.80319
 C2668 C 0.35038 0.74780 0.78689
 H2669 H 0.38372 0.71863 0.83168
 H2670 H 0.34366 0.71645 0.80958
 H2671 H 0.40279 0.75197 0.78995
 H2672 H 0.36364 0.76195 0.78036
 C2673 C 0.89223 0.22929 0.32068
 C2674 C 0.87081 0.22484 0.33330
 C2675 C 0.84536 0.22877 0.32269
 C2676 C 0.84076 0.24675 0.30603
 H2677 H 0.87148 0.21710 0.35149
 H2678 H 0.83007 0.21670 0.32911
 H2679 H 0.89082 0.23448 0.30161
 H2680 H 0.85578 0.25957 0.30038
 C2681 C 0.08904 0.24019 0.29362
 C2682 C 0.10166 0.21976 0.28436
 C2683 C 0.12748 0.22177 0.27426
 C2684 C 0.14491 0.23726 0.28466
 H2685 H 0.09318 0.20081 0.28465
 H2686 H 0.13284 0.20840 0.25963
 H2687 H 0.09641 0.25940 0.29107
 H2688 H 0.13990 0.24912 0.30054
 C2689 C 0.59758 0.76754 0.81524
 C2690 C 0.60938 0.74676 0.80573
 C2691 C 0.63423 0.74766 0.79357
 C2692 C 0.65247 0.76439 0.80010
 H2693 H 0.60020 0.72815 0.80616
 H2694 H 0.63818 0.73247 0.78018
 H2695 H 0.60522 0.78660 0.81253
 H2696 H 0.64920 0.77849 0.81468
 C2697 C 0.59903 0.25321 0.68377
 C2698 C 0.61175 0.23146 0.68846
 C2699 C 0.63733 0.23181 0.69945
 C2700 C 0.64443 0.24996 0.71575
 H2701 H 0.60445 0.21306 0.68209
 H2702 H 0.65045 0.21652 0.69406
 H2703 H 0.60784 0.27167 0.68764
 H2704 H 0.63069 0.26399 0.72268
 C2705 C 0.10348 0.72844 0.18115
 C2706 C 0.12512 0.73005 0.16829
 C2707 C 0.15028 0.72882 0.17983
 C2708 C 0.15455 0.74001 0.20171
 H2709 H 0.12447 0.73285 0.14870
 H2710 H 0.16592 0.72080 0.16911
 H2711 H 0.10389 0.72300 0.20020
 H2712 H 0.13914 0.74972 0.21149
   
