data_POSCAR
  _audit_creation_date              2014-09-24
  _audit_creation_method            'ToBaCCo'
  _symmetry_space_group_name_H-M    'P1'
  _symmetry_Int_Tables_number       1
  _symmetry_cell_setting            triclinic
  loop_
  _symmetry_equiv_pos_as_xyz
 x,y,z
_cell_length_a 44.8476
_cell_length_b 43.6306
_cell_length_c 43.6885
_cell_angle_alpha 89.970600
_cell_angle_beta 90.207200
_cell_angle_gamma 89.595800
loop_
  _atom_site_label
  _atom_site_type_symbol
  _atom_site_fract_x
  _atom_site_fract_y
  _atom_site_fract_z
N1 N 0.33725 0.43986 0.94596
 N2 N 0.43187 0.79970 0.42866
 N3 N 0.93963 0.93612 0.80025
 N4 N 0.41721 -0.05518 0.31179
 N5 N 0.80273 0.32310 0.30540
 N6 N -0.18293 0.80906 0.81092
 N7 N 0.93517 0.29506 0.43171
 N8 N 0.44702 0.44027 0.81800
 N9 N 0.81948 0.94911 0.93938
 N10 N 0.30014 0.81593 0.30526
 N11 N 0.81631 0.42962 0.44483
 N12 N 0.94980 0.81231 -0.05834
 N13 N 0.32836 0.31654 0.81455
 N14 N 0.19102 0.54779 0.56739
 N15 N 0.56719 0.69633 0.04812
 N16 N 0.69377 0.19398 0.69170
 N17 N 1.04596 0.06798 0.18725
 N18 N 0.06223 0.20305 1.04086
 N19 N 0.18280 0.68766 0.68168
 N20 N 1.17961 0.20244 0.19066
 N21 N 0.67516 1.05321 0.55448
 N22 N 0.56056 0.56954 0.19673
 N23 N 0.68352 0.71004 0.19602
 N24 N 0.19594 0.06491 1.06114
 N25 N 0.55622 0.18073 0.55354
 N26 N 0.07617 0.54865 0.69498
 N27 N 0.70567 0.57146 0.07303
 N28 N 0.05739 0.67666 0.55744
 N29 N 0.56246 1.05323 0.69339
 N30 N 0.45125 0.30934 0.94315
 N31 N 0.93460 0.44897 0.31551
 N32 N 0.29275 0.93486 0.44869
 O33 O 0.18260 0.52864 0.75235
 O34 O 0.19252 0.52382 0.80918
 O35 O 0.24856 0.59262 0.72504
 O36 O 0.29925 0.59655 0.73042
 O37 O 0.23678 0.50850 0.67618
 O38 O 0.25447 0.45503 0.68744
 O39 O 0.34346 0.52343 0.80530
 O40 O 0.32383 0.57664 0.79647
 O41 O 0.28112 0.47250 0.83953
 O42 O 0.22355 0.46542 0.82584
 O43 O 0.32442 0.44270 0.76425
 O44 O 0.31934 0.45584 0.70638
 O45 O 0.35321 0.49111 0.76571
 O46 O 0.34706 0.49222 0.71229
 O47 O 0.28664 0.43179 0.79702
 O48 O 0.23566 0.43005 0.79753
 O49 O 0.30297 0.51926 0.84283
 O50 O 0.28868 0.56699 0.83497
 O51 O 0.19497 0.49448 0.71508
 O52 O 0.21749 0.44625 0.71549
 O53 O 0.26133 0.55375 0.68118
 O54 O 0.31200 0.56197 0.69421
 O55 O 0.21185 0.58037 0.75872
 O56 O 0.21030 0.56698 0.81097
 Zr57 Zr 0.22369 0.53702 0.77551
 O58 O 0.25534 0.51796 0.80599
 Zr59 Zr 0.27737 0.55391 0.72602
 O60 O 0.31080 0.53287 0.75295
 Zr61 Zr 0.24074 0.48797 0.72010
 O62 O 0.27071 0.46472 0.74916
 Zr63 Zr 0.29811 0.53623 0.79879
 O64 O 0.26542 0.55950 0.77222
 Zr65 Zr 0.25995 0.47132 0.79571
 O66 O 0.22664 0.48985 0.76621
 Zr67 Zr 0.31241 0.48531 0.74422
 O68 O 0.28281 0.50741 0.71348
 O69 O 0.23553 0.53423 0.72981
 O70 O 0.30225 0.48941 0.79048
 C71 C 0.17623 0.51165 0.72906
 C72 C 0.22385 0.59823 0.73903
 C73 C 0.24588 0.53448 0.66587
 C74 C 0.36060 0.50501 0.79026
 C75 C 0.29639 0.49310 0.85383
 C76 C 0.31132 0.42529 0.78376
 H77 H 0.24875 0.52146 0.82729
 H78 H 0.27098 0.44277 0.74356
 H79 H 0.22066 0.54441 0.71639
 H80 H 0.33035 0.54261 0.74950
 H81 H 0.31011 0.59339 0.79021
 H82 H 0.31933 0.59265 0.73912
 H83 H 0.23384 0.42273 0.77619
 H84 H 0.20774 0.44248 0.73542
 H85 H 0.27405 0.58201 0.82693
 H86 H 0.22633 0.58224 0.81332
 H87 H 0.30924 0.43623 0.71074
 H88 H 0.27094 0.46426 0.67564
 H89 H 0.18488 0.50347 0.80311
 H90 H 0.22729 0.47789 0.84435
 H91 H 0.31588 0.54233 0.68355
 H92 H 0.35118 0.51445 0.71179
 O93 O 0.21839 0.08861 0.22370
 O94 O 0.27186 0.07912 0.22711
 O95 O 0.18913 0.00370 0.18259
 O96 O 0.18916 -0.04590 0.19448
 O97 O 0.14307 0.04407 0.26056
 O98 O 0.15406 0.04200 0.31524
 O99 O 0.26421 -0.07125 0.26981
 O100 O 0.26081 -0.06113 0.21473
 O101 O 0.30096 0.00739 0.30769
 O102 O 0.29069 0.06462 0.29697
 O103 O 0.23048 -0.02800 0.34636
 O104 O 0.17452 -0.02575 0.33610
 O105 O 0.23014 -0.06929 0.30825
 O106 O 0.17590 -0.06092 0.30538
 O107 O 0.26126 0.01320 0.34586
 O108 O 0.25902 0.06714 0.33032
 O109 O 0.30333 -0.03001 0.27150
 O110 O 0.29902 -0.02668 0.22025
 O111 O 0.18405 0.08884 0.26195
 O112 O 0.18345 0.07868 0.31419
 O113 O 0.14520 0.00434 0.22686
 O114 O 0.16006 -0.04895 0.23196
 O115 O 0.22067 0.04428 0.18184
 O116 O 0.27303 0.04630 0.19338
 Zr117 Zr 0.23873 0.04490 0.22647
 O118 O 0.26876 0.01980 0.25442
 Zr119 Zr 0.18951 -0.01140 0.22845
 O120 O 0.21680 -0.03850 0.25709
 Zr121 Zr 0.18620 0.04448 0.28004
 O122 O 0.21412 0.02046 0.31074
 Zr123 Zr 0.26162 -0.02747 0.24957
 O124 O 0.23457 -0.00258 0.21821
 Zr125 Zr 0.25913 0.02889 0.30056
 O126 O 0.23106 0.05638 0.27261
 Zr127 Zr 0.20909 -0.02674 0.30321
 O128 O 0.17885 -0.00268 0.27456
 O129 O 0.19390 0.03568 0.23390
 O130 O 0.25390 -0.01814 0.29552
 C131 C 0.19830 0.10174 0.24017
 C132 C 0.20262 0.02563 0.16879
 C133 C 0.13124 0.02588 0.24090
 C134 C 0.25080 -0.08270 0.29308
 C135 C 0.31399 -0.01530 0.29442
 C136 C 0.24984 -0.01029 0.35883
 H137 H 0.28958 0.02489 0.24918
 H138 H 0.20911 0.02642 0.33194
 H139 H 0.18065 0.04764 0.22012
 H140 H 0.21291 -0.06037 0.25285
 H141 H 0.25540 -0.05054 0.19541
 H142 H 0.20527 -0.06057 0.19976
 H143 H 0.24106 0.06566 0.34330
 H144 H 0.20331 0.08840 0.31517
 H145 H 0.29452 -0.01123 0.20436
 H146 H 0.27157 0.02734 0.18106
 H147 H 0.17845 -0.00864 0.35036
 H148 H 0.14479 0.02153 0.31369
 H149 H 0.27015 0.08965 0.24710
 H150 H 0.30704 0.05758 0.28351
 H151 H 0.14937 -0.04663 0.25162
 H152 H 0.17874 -0.07471 0.28765
 O153 O 0.48600 0.68219 0.19342
 O154 O 0.43356 0.69401 0.19630
 O155 O 0.52153 0.75763 0.14523
 O156 O 0.51674 0.81002 0.14862
 O157 O 0.56545 0.72947 0.22551
 O158 O 0.55435 0.73313 0.27936
 O159 O 0.44523 0.84667 0.22378
 O160 O 0.44982 0.83382 0.17104
 O161 O 0.40765 0.77322 0.26724
 O162 O 0.41894 0.71485 0.26589
 O163 O 0.48688 0.80705 0.30568
 O164 O 0.53866 0.80927 0.28976
 O165 O 0.47697 0.84644 0.26448
 O166 O 0.53357 0.84036 0.25609
 O167 O 0.44933 0.77237 0.30807
 O168 O 0.44901 0.71854 0.30035
 O169 O 0.40746 0.80831 0.22864
 O170 O 0.41436 0.79791 0.17346
 O171 O 0.52441 0.68499 0.22750
 O172 O 0.52225 0.69856 0.28081
 O173 O 0.56335 0.76519 0.18760
 O174 O 0.55045 0.81717 0.18582
 O175 O 0.48448 0.72221 0.14769
 O176 O 0.43268 0.72521 0.15996
 Zr177 Zr 0.46779 0.72683 0.19231
 O178 O 0.43941 0.75560 0.21797
 Zr179 Zr 0.51928 0.78098 0.18738
 O180 O 0.49344 0.81216 0.21311
 Zr181 Zr 0.52190 0.73033 0.24425
 O182 O 0.49571 0.75888 0.27241
 Zr183 Zr 0.44835 0.80161 0.20720
 O184 O 0.47392 0.77271 0.17859
 Zr185 Zr 0.44993 0.75124 0.26463
 O186 O 0.47629 0.71972 0.23921
 Zr187 Zr 0.50155 0.80511 0.26008
 O188 O 0.53039 0.77664 0.23411
 O189 O 0.51317 0.73503 0.19797
 O190 O 0.45639 0.79711 0.25409
 C191 C 0.50813 0.67038 0.20817
 C192 C 0.50606 0.73555 0.13397
 C193 C 0.57739 0.74556 0.20414
 C194 C 0.45640 0.85889 0.24791
 C195 C 0.39581 0.79549 0.25195
 C196 C 0.46627 0.79280 0.32006
 H197 H 0.41840 0.75025 0.21397
 H198 H 0.50159 0.75474 0.29386
 H199 H 0.52620 0.72130 0.18582
 H200 H 0.49748 0.83348 0.20678
 H201 H 0.45743 0.82284 0.15280
 H202 H 0.50710 0.82941 0.15510
 H203 H 0.46938 0.71740 0.30905
 H204 H 0.50283 0.68792 0.28015
 H205 H 0.40050 0.78149 0.17955
 H206 H 0.43238 0.74534 0.14950
 H207 H 0.53927 0.79065 0.30269
 H208 H 0.56464 0.75293 0.27658
 H209 H 0.43515 0.68540 0.21721
 H210 H 0.40266 0.71961 0.25128
 H211 H 0.55796 0.81988 0.20696
 H212 H 0.52571 0.85603 0.24175
 O213 O -0.00994 0.78044 0.82862
 O214 O 0.04340 0.78744 0.81109
 O215 O -0.05494 0.81105 0.74549
 O216 O -0.06268 0.79347 0.69795
 O217 O -0.07896 0.72730 0.79696
 O218 O -0.05509 0.67334 0.79244
 O219 O 0.02454 0.73655 0.66515
 O220 O 0.00705 0.78914 0.67277
 O221 O 0.08006 0.71793 0.73909
 O222 O 0.07290 0.72733 0.79767
 O223 O 0.01470 0.65588 0.71804
 O224 O -0.03839 0.65374 0.72862
 O225 O -0.00127 0.69239 0.67241
 O226 O -0.04756 0.68190 0.68553
 O227 O 0.05206 0.66955 0.75055
 O228 O 0.05434 0.68498 0.80207
 O229 O 0.06662 0.74900 0.69954
 O230 O 0.04974 0.79782 0.70212
 O231 O -0.03381 0.73492 0.83428
 O232 O -0.02472 0.68418 0.82600
 O233 O -0.08892 0.76190 0.75923
 O234 O -0.08409 0.75096 0.70427
 O235 O -0.02088 0.82003 0.78310
 O236 O 0.03070 0.82118 0.78137
 Zr237 Zr 0.00573 0.78030 0.78276
 O238 O 0.03723 0.75965 0.75339
 Zr239 Zr -0.04924 0.76424 0.73421
 O240 O -0.02055 0.74036 0.70442
 Zr241 Zr -0.03317 0.71612 0.79058
 O242 O -0.00163 0.69202 0.76415
 Zr243 Zr 0.02205 0.75921 0.70780
 O244 O -0.00696 0.78488 0.73616
 Zr245 Zr 0.04046 0.71332 0.76532
 O246 O 0.01017 0.73426 0.79613
 Zr247 Zr -0.01488 0.69430 0.71822
 O248 O -0.04810 0.71688 0.74496
 O249 O -0.03684 0.76251 0.78000
 O250 O 0.02756 0.71322 0.71946
 C251 C -0.02434 0.76049 0.84449
 C252 C -0.04243 0.82839 0.76558
 C253 C -0.09630 0.74628 0.78282
 C254 C 0.01372 0.71096 0.65581
 C255 C 0.08541 0.73202 0.71376
 C256 C 0.03962 0.65078 0.73212
 H257 H 0.05657 0.77030 0.75500
 H258 H -0.00067 0.67056 0.77143
 H259 H -0.05027 0.77441 0.79350
 H260 H -0.02854 0.74178 0.68333
 H261 H -0.00236 0.80699 0.68299
 H262 H -0.05001 0.78869 0.68009
 H263 H 0.03795 0.67051 0.80613
 H264 H -0.00354 0.68676 0.83185
 H265 H 0.04049 0.81463 0.71394
 H266 H 0.02835 0.82963 0.76049
 H267 H -0.05893 0.65988 0.73428
 H268 H -0.07415 0.67548 0.78111
 H269 H 0.04415 0.77028 0.82591
 H270 H 0.08485 0.74383 0.78833
 H271 H -0.09236 0.73157 0.71230
 H272 H -0.06176 0.69925 0.68435
 O273 O 0.00377 0.08741 0.02189
 O274 O -0.04442 0.06942 0.02516
 O275 O 0.05417 0.01494 0.06653
 O276 O 0.05875 -0.03583 0.06108
 O277 O 0.08764 0.05246 -0.01616
 O278 O 0.07386 0.04884 -0.06879
 O279 O -0.01575 -0.07929 -0.01129
 O280 O -0.00819 -0.06864 0.04172
 O281 O -0.06600 -0.00862 -0.04761
 O282 O -0.06160 0.04602 -0.05137
 O283 O 0.01446 -0.03918 -0.09056
 O284 O 0.06640 -0.03004 -0.08272
 O285 O 0.02124 -0.07731 -0.04671
 O286 O 0.07402 -0.05697 -0.04642
 O287 O -0.02732 -0.00942 -0.09088
 O288 O -0.02919 0.04916 -0.08320
 O289 O -0.06051 -0.04164 -0.00759
 O290 O -0.04993 -0.03721 0.04177
 O291 O 0.04052 0.09067 -0.01380
 O292 O 0.03591 0.07730 -0.06799
 O293 O 0.09235 0.01880 0.02346
 O294 O 0.08832 -0.03741 0.02042
 O295 O 0.01458 0.04786 0.06702
 O296 O -0.04001 0.03562 0.05732
 Zr297 Zr -0.00628 0.04072 0.02394
 O298 O -0.03170 0.00950 -0.00148
 Zr299 Zr 0.05245 -0.00572 0.02358
 O300 O 0.02921 -0.03956 -0.00068
 Zr301 Zr 0.04353 0.04573 -0.03203
 O302 O 0.02051 0.01366 -0.05941
 Zr303 Zr -0.01665 -0.03518 0.00763
 O304 O 0.00700 -0.00414 0.03588
 Zr305 Zr -0.02517 0.01504 -0.04890
 O306 O -0.00260 0.04945 -0.02347
 Zr307 Zr 0.03394 -0.03107 -0.04769
 O308 O 0.05990 0.00116 -0.02343
 O309 O 0.03899 0.03906 0.01465
 O310 O -0.01190 -0.02981 -0.03954
 C311 C 0.02311 0.10238 0.00656
 C312 C 0.03804 0.03566 0.07915
 C313 C 0.10226 0.04008 0.00610
 C314 C 0.00100 -0.09147 -0.03174
 C315 C -0.07588 -0.02891 -0.02897
 C316 C -0.00965 -0.02933 -0.10309
 H317 H -0.05277 0.01245 0.00453
 H318 H 0.02410 0.01801 -0.08128
 H319 H 0.05043 0.05440 0.02641
 H320 H 0.03669 -0.06009 0.00524
 H321 H -0.00064 -0.05759 0.05992
 H322 H 0.04942 -0.05557 0.05565
 H323 H -0.01426 0.04477 -0.09925
 H324 H 0.01510 0.08466 -0.06577
 H325 H -0.04265 -0.02504 0.05928
 H326 H -0.03174 0.02273 0.07400
 H327 H 0.06317 -0.01103 -0.09466
 H328 H 0.08558 0.02953 -0.06865
 H329 H -0.04780 0.07656 0.00391
 H330 H -0.07152 0.04582 -0.03119
 H331 H 0.09938 -0.03249 0.00149
 H332 H 0.07281 -0.07141 -0.02901
 O333 O 0.08802 0.50919 0.51916
 O334 O 0.07814 0.50684 0.46148
 O335 O 0.00976 0.55549 0.54890
 O336 O -0.04255 0.54694 0.53803
 O337 O 0.04131 0.48036 0.59433
 O338 O 0.03419 0.42184 0.58380
 O339 O -0.06916 0.46968 0.46902
 O340 O -0.05935 0.52589 0.47490
 O341 O 0.01006 0.43819 0.42855
 O342 O 0.06644 0.44368 0.44659
 O343 O -0.02786 0.39312 0.50086
 O344 O -0.02294 0.39909 0.55635
 O345 O -0.06762 0.43043 0.50337
 O346 O -0.06334 0.43523 0.55522
 O347 O 0.01194 0.39469 0.46882
 O348 O 0.06074 0.40398 0.47106
 O349 O -0.02890 0.47181 0.42930
 O350 O -0.02595 0.52184 0.43532
 O351 O 0.08398 0.47258 0.55606
 O352 O 0.07253 0.42137 0.55708
 O353 O 0.00106 0.51219 0.59110
 O354 O -0.04502 0.51435 0.57847
 O355 O 0.04877 0.55357 0.51566
 O356 O 0.05052 0.54502 0.46345
 Zr357 Zr 0.04577 0.50999 0.49648
 O358 O 0.01974 0.48509 0.46509
 Zr359 Zr -0.01082 0.51145 0.54531
 O360 O -0.03760 0.48252 0.51809
 Zr361 Zr 0.04080 0.45691 0.55112
 O362 O 0.01885 0.42769 0.52012
 Zr363 Zr -0.02652 0.49091 0.47260
 O364 O -0.00038 0.52116 0.49960
 Zr365 Zr 0.02793 0.43882 0.47397
 O366 O 0.05487 0.46357 0.50514
 Zr367 Zr -0.02680 0.43570 0.52471
 O368 O -0.00498 0.46441 0.55694
 O369 O 0.03461 0.50307 0.54187
 O370 O -0.01787 0.44453 0.47892
 C371 C 0.09827 0.49340 0.54199
 C372 C 0.03312 0.56706 0.53606
 C373 C 0.02409 0.50178 0.60491
 C374 C -0.08029 0.44579 0.48216
 C375 C -0.01230 0.45218 0.41588
 C376 C -0.01084 0.38149 0.48000
 H377 H 0.02518 0.49100 0.44398
 H378 H 0.02405 0.40610 0.52478
 H379 H 0.04692 0.51592 0.55549
 H380 H -0.05896 0.48656 0.52203
 H381 H -0.04887 0.54524 0.47965
 H382 H -0.06153 0.53752 0.53145
 H383 H 0.06556 0.39796 0.49234
 H384 H 0.08226 0.41855 0.53697
 H385 H -0.00930 0.53599 0.43933
 H386 H 0.03109 0.55586 0.46228
 H387 H -0.02009 0.40819 0.57686
 H388 H 0.02057 0.43013 0.59959
 H389 H 0.09234 0.49040 0.46744
 H390 H 0.06099 0.45644 0.42866
 H391 H -0.05960 0.49824 0.57340
 H392 H -0.05674 0.44605 0.57392
 O393 O 0.40249 -0.01798 0.47416
 O394 O 0.41249 0.03707 0.47380
 O395 O 0.48505 -0.04808 0.42773
 O396 O 0.53287 -0.05462 0.43942
 O397 O 0.44812 -0.09481 0.51107
 O398 O 0.45382 -0.08205 0.56458
 O399 O 0.56156 0.02833 0.50803
 O400 O 0.54796 0.02277 0.45412
 O401 O 0.48215 0.06997 0.54543
 O402 O 0.42928 0.05663 0.54434
 O403 O 0.52458 -0.00213 0.58766
 O404 O 0.52033 -0.06102 0.58017
 O405 O 0.56357 -0.00900 0.54432
 O406 O 0.55365 -0.06080 0.54933
 O407 O 0.48445 0.03001 0.58841
 O408 O 0.43074 0.02534 0.57750
 O409 O 0.51932 0.06973 0.51019
 O410 O 0.51588 0.06204 0.45896
 O411 O 0.40528 -0.05215 0.51350
 O412 O 0.41909 -0.05022 0.56551
 O413 O 0.48012 -0.09353 0.47080
 O414 O 0.53486 -0.08206 0.47748
 O415 O 0.44337 -0.01819 0.42894
 O416 O 0.44205 0.03556 0.43785
 Zr417 Zr 0.44536 0.00210 0.47277
 O418 O 0.47151 0.03333 0.49788
 Zr419 Zr 0.49978 -0.04959 0.47339
 O420 O 0.52806 -0.02077 0.49888
 Zr421 Zr 0.44945 -0.04986 0.52861
 O422 O 0.47493 -0.02055 0.55637
 Zr423 Zr 0.51735 0.02550 0.49078
 O424 O 0.49106 -0.00323 0.46220
 Zr425 Zr 0.46549 0.02521 0.54481
 O426 O 0.43708 -0.00400 0.51979
 Zr427 Zr 0.52024 -0.02653 0.54601
 O428 O 0.49485 -0.05854 0.52044
 O429 O 0.45455 -0.04367 0.48161
 O430 O 0.51131 0.01964 0.53764
 C431 C 0.39105 -0.03804 0.49221
 C432 C 0.46206 -0.03573 0.41506
 C433 C 0.46092 -0.10714 0.48783
 C434 C 0.57556 0.01210 0.52816
 C435 C 0.50339 0.08290 0.53085
 C436 C 0.50793 0.01825 0.60052
 H437 H 0.46586 0.05450 0.49207
 H438 H 0.47074 -0.02482 0.57814
 H439 H 0.44159 -0.05685 0.46888
 H440 H 0.54885 -0.02566 0.49307
 H441 H 0.53671 0.01554 0.43597
 H442 H 0.54529 -0.03603 0.44039
 H443 H 0.43445 0.00823 0.59192
 H444 H 0.40890 -0.03003 0.56540
 H445 H 0.49597 0.06155 0.44932
 H446 H 0.46068 0.03424 0.42581
 H447 H 0.50699 -0.05432 0.59690
 H448 H 0.47378 -0.09163 0.56246
 H449 H 0.40225 0.03531 0.49376
 H450 H 0.43054 0.06883 0.52531
 H451 H 0.53016 -0.09528 0.49523
 H452 H 0.56060 -0.06489 0.52826
 O453 O 0.60884 0.53326 -0.00625
 O454 O 0.59400 0.52406 -0.05948
 O455 O 0.53240 0.57727 0.03102
 O456 O 0.48284 0.56674 0.03363
 O457 O 0.57061 0.49944 0.08071
 O458 O 0.57503 0.44657 0.07135
 O459 O 0.45032 0.48340 -0.03247
 O460 O 0.45816 0.53802 -0.03252
 O461 O 0.52370 0.44335 -0.07348
 O462 O 0.58017 0.45503 -0.06937
 O463 O 0.49457 0.41181 0.00148
 O464 O 0.50485 0.42411 0.05945
 O465 O 0.45473 0.45092 0.00804
 O466 O 0.47044 0.45483 0.06105
 O467 O 0.53403 0.40823 -0.03081
 O468 O 0.58472 0.42258 -0.03539
 O469 O 0.48708 0.47978 -0.07518
 O470 O 0.49005 0.53214 -0.07445
 O471 O 0.61216 0.50249 0.03575
 O472 O 0.60562 0.44727 0.03602
 O473 O 0.53600 0.53777 0.07843
 O474 O 0.48357 0.53186 0.07020
 O475 O 0.56533 0.57433 -0.00839
 O476 O 0.56306 0.55783 -0.06037
 Zr477 Zr 0.56472 0.52843 -0.02185
 O478 O 0.53744 0.49849 -0.04690
 Zr479 Zr 0.51598 0.53200 0.03507
 O480 O 0.48692 0.50111 0.01288
 Zr481 Zr 0.57063 0.48002 0.03661
 O482 O 0.54449 0.44716 0.01371
 Zr483 Zr 0.49252 0.50461 -0.03463
 O484 O 0.51936 0.53799 -0.01277
 Zr485 Zr 0.54826 0.45351 -0.03378
 O486 O 0.57766 0.48338 -0.01089
 Zr487 Zr 0.49915 0.45539 0.02276
 O488 O 0.52557 0.48640 0.04843
 O489 O 0.56079 0.52530 0.02558
 O490 O 0.50307 0.45938 -0.02418
 C491 C 0.62295 0.52214 0.01689
 C492 C 0.55129 0.58918 0.01236
 C493 C 0.55575 0.52166 0.09267
 C494 C 0.43989 0.46307 -0.01410
 C495 C 0.50063 0.45602 -0.08555
 C496 C 0.51067 0.39734 -0.01829
 H497 H 0.54014 0.50191 -0.06909
 H498 H 0.55080 0.42633 0.01999
 H499 H 0.57319 0.54008 0.03704
 H500 H 0.46613 0.50572 0.01889
 H501 H 0.46785 0.55788 -0.02820
 H502 H 0.46490 0.55787 0.02393
 H503 H 0.58786 0.41480 -0.01435
 H504 H 0.61544 0.44907 0.01584
 H505 H 0.50045 0.55141 -0.06964
 H506 H 0.54455 0.57018 -0.05879
 H507 H 0.51707 0.40667 0.05208
 H508 H 0.55481 0.44362 0.07978
 H509 H 0.60629 0.50547 -0.05580
 H510 H 0.57132 0.46629 -0.08688
 H511 H 0.48665 0.51270 0.08198
 H512 H 0.45826 0.47381 0.06018
 O513 O 0.74728 0.15299 0.52620
 O514 O 0.80063 0.16730 0.52142
 O515 O 0.70906 0.22916 0.57118
 O516 O 0.70219 0.27941 0.56277
 O517 O 0.67124 0.18852 0.48887
 O518 O 0.68119 0.19872 0.43453
 O519 O 0.77896 0.31899 0.48910
 O520 O 0.76981 0.30897 0.54287
 O521 O 0.82464 0.24721 0.45376
 O522 O 0.81779 0.18919 0.45467
 O523 O 0.74748 0.27865 0.41058
 O524 O 0.69201 0.26934 0.42123
 O525 O 0.74293 0.31740 0.45241
 O526 O 0.69098 0.30395 0.45241
 O527 O 0.78528 0.24363 0.41030
 O528 O 0.78998 0.19025 0.41869
 O529 O 0.82110 0.28011 0.49403
 O530 O 0.80785 0.27671 0.54652
 O531 O 0.71623 0.15146 0.48490
 O532 O 0.71623 0.16626 0.43269
 O533 O 0.66642 0.22432 0.52653
 O534 O 0.67164 0.27967 0.52322
 O535 O 0.74837 0.19589 0.56967
 O536 O 0.79891 0.19747 0.55794
 Zr537 Zr 0.76433 0.19829 0.52492
 O538 O 0.79099 0.22936 0.50072
 Zr539 Zr 0.70746 0.24790 0.52631
 O540 O 0.73167 0.28077 0.50100
 Zr541 Zr 0.71340 0.19698 0.46998
 O542 O 0.73836 0.22698 0.44259
 Zr543 Zr 0.77738 0.27488 0.50933
 O544 O 0.75327 0.24396 0.53701
 Zr545 Zr 0.78388 0.22320 0.45367
 O546 O 0.75923 0.18984 0.47783
 Zr547 Zr 0.72700 0.27238 0.45373
 O548 O 0.69951 0.24217 0.47904
 O549 O 0.71897 0.20274 0.51697
 O550 O 0.77263 0.26877 0.46225
 C551 C 0.72917 0.13904 0.50803
 C552 C 0.72726 0.20981 0.58373
 C553 C 0.65688 0.20149 0.51074
 C554 C 0.76389 0.33105 0.46695
 C555 C 0.83533 0.26755 0.47197
 C556 C 0.76968 0.26497 0.39780
 H557 H 0.81200 0.22566 0.50659
 H558 H 0.73450 0.22232 0.42081
 H559 H 0.70766 0.18836 0.52995
 H560 H 0.72523 0.30178 0.50641
 H561 H 0.76048 0.29859 0.56055
 H562 H 0.71084 0.29915 0.55626
 H563 H 0.77079 0.18833 0.40766
 H564 H 0.73683 0.15798 0.43277
 H565 H 0.82080 0.25831 0.54554
 H566 H 0.79852 0.21770 0.56818
 H567 H 0.69791 0.25396 0.40572
 H568 H 0.66816 0.21662 0.43876
 H569 H 0.79806 0.15602 0.50195
 H570 H 0.83110 0.19360 0.47220
 H571 H 0.66203 0.27660 0.50302
 H572 H 0.68916 0.31310 0.47302
 O573 O 0.78752 0.84964 0.00352
 O574 O 0.79043 0.83954 0.05788
 O575 O 0.83562 0.77271 -0.03334
 O576 O 0.83124 0.72113 -0.03324
 O577 O 0.75239 0.80326 -0.07136
 O578 O 0.70095 0.79259 -0.05795
 O579 O 0.77163 0.68490 0.04867
 O580 O 0.81988 0.70192 0.04468
 O581 O 0.72482 0.75800 0.09184
 O582 O 0.72505 0.81548 0.08177
 O583 O 0.68395 0.72022 0.01779
 O584 O 0.69278 0.71852 -0.03711
 O585 O 0.72867 0.68220 0.02093
 O586 O 0.72751 0.68916 -0.03685
 O587 O 0.68294 0.75927 0.05231
 O588 O 0.69115 0.81396 0.05179
 O589 O 0.76175 0.72222 0.08809
 O590 O 0.81667 0.74003 0.07819
 O591 O 0.74833 0.84517 -0.02944
 O592 O 0.69808 0.82744 -0.02479
 O593 O 0.79087 0.76906 -0.07427
 O594 O 0.79194 0.71392 -0.06105
 O595 O 0.83281 0.81225 0.00068
 O596 O 0.82718 0.80872 0.05554
 Zr597 Zr 0.79210 0.80575 0.02327
 O598 O 0.77106 0.77713 0.05541
 Zr599 Zr 0.79389 0.75073 -0.02959
 O600 O 0.77293 0.71967 0.00027
 Zr601 Zr 0.73634 0.79888 -0.02650
 O602 O 0.71289 0.77017 0.00319
 Zr603 Zr 0.78225 0.73137 0.04588
 O604 O 0.80633 0.76013 0.01600
 Zr605 Zr 0.72480 0.77987 0.04879
 O606 O 0.74560 0.81135 0.01910
 Zr607 Zr 0.72622 0.72424 -0.00337
 O608 O 0.74729 0.75291 -0.03611
 O609 O 0.78233 0.79623 -0.02217
 O610 O 0.73596 0.73399 0.04192
 C611 C 0.76920 0.86046 -0.01655
 C612 C 0.84606 0.79691 -0.02041
 C613 C 0.77386 0.79003 -0.08566
 C614 C 0.74844 0.67071 0.03921
 C615 C 0.73962 0.73476 0.10189
 C616 C 0.67084 0.73686 0.03810
 H617 H 0.77681 0.78289 0.07646
 H618 H 0.69144 0.77354 -0.00097
 H619 H 0.79278 0.81044 -0.03606
 H620 H 0.77985 0.69864 -0.00440
 H621 H 0.83554 0.71282 0.03313
 H622 H 0.82883 0.70491 -0.01765
 H623 H 0.67828 0.81193 0.03347
 H624 H 0.69946 0.83929 -0.00553
 H625 H 0.80761 0.74796 0.09725
 H626 H 0.83860 0.78928 0.05406
 H627 H 0.68052 0.73745 -0.03724
 H628 H 0.70520 0.77329 -0.06906
 H629 H 0.76946 0.84668 0.05885
 H630 H 0.74127 0.81130 0.09663
 H631 H 0.77172 0.71436 -0.07021
 H632 H 0.74569 0.67668 -0.03330
 O633 O 1.06342 0.22725 0.22674
 O634 O 1.04862 0.22950 0.28154
 O635 O 0.98746 0.18512 0.18536
 O636 O 0.94152 0.19610 0.17288
 O637 O 1.02763 0.27336 0.14937
 O638 O 1.02299 0.32589 0.16750
 O639 O 0.90250 0.26638 0.26007
 O640 O 0.90988 0.21262 0.24644
 O641 O 0.97228 0.29381 0.31089
 O642 O 1.02854 0.29589 0.30131
 O643 O 0.94283 0.34448 0.22984
 O644 O 0.95212 0.33563 0.17333
 O645 O 0.90380 0.30312 0.22319
 O646 O 0.91784 0.30576 0.17093
 O647 O 0.97121 0.34021 0.27294
 O648 O 1.02246 0.33606 0.27653
 O649 O 0.93844 0.25618 0.30245
 O650 O 0.94181 0.20395 0.28406
 O651 O 1.06473 0.26692 0.19291
 O652 O 1.05411 0.32031 0.20349
 O653 O 0.99764 0.23191 0.14331
 O654 O 0.94200 0.23786 0.14730
 O655 O 1.01968 0.18389 0.22580
 O656 O 1.02019 0.19345 0.27738
 Zr657 Zr 1.01903 0.22830 0.24374
 O658 O 0.98822 0.25100 0.27211
 Zr659 Zr 0.97214 0.23103 0.18417
 O660 O 0.93959 0.25474 0.21005
 Zr661 Zr 1.02186 0.28614 0.19519
 O662 O 0.99192 0.31207 0.22184
 Zr663 Zr 0.94427 0.24397 0.25662
 O664 O 0.97474 0.21772 0.23064
 Zr665 Zr 0.99419 0.29844 0.26806
 O666 O 1.02748 0.27558 0.24189
 Zr667 Zr 0.94815 0.30200 0.20799
 O668 O 0.97834 0.27856 0.17896
 O669 O 1.01575 0.23883 0.19759
 O670 O 0.95036 0.29105 0.25450
 C671 C 1.07654 0.24370 0.20636
 C672 C 1.00508 0.17112 0.20409
 C673 C 1.01762 0.25074 0.13380
 C674 C 0.89077 0.28877 0.24495
 C675 C 0.95166 0.27546 0.31982
 C676 C 0.95293 0.35467 0.25532
 H677 H 0.99155 0.24354 0.29322
 H678 H 0.99655 0.33408 0.21952
 H679 H 1.02927 0.22587 0.18521
 H680 H 0.91927 0.24992 0.20273
 H681 H 0.91922 0.19572 0.23469
 H682 H 0.92299 0.20028 0.18438
 H683 H 1.03233 0.34083 0.25693
 H684 H 1.06395 0.31508 0.22316
 H685 H 0.95819 0.20465 0.29926
 H686 H 0.99990 0.18474 0.27811
 H687 H 0.96690 0.35085 0.18033
 H688 H 1.00572 0.32471 0.15339
 H689 H 1.06058 0.24838 0.27952
 H690 H 1.02528 0.27707 0.31345
 H691 H 0.94768 0.25719 0.13704
 H692 H 0.91015 0.28502 0.16666
 O693 O 0.66759 1.02352 0.74891
 O694 O 0.68018 1.01897 0.80202
 O695 O 0.73612 1.08013 0.71324
 O696 O 0.78540 1.07894 0.70771
 O697 O 0.70586 0.99969 0.66870
 O698 O 0.72193 0.94656 0.67211
 O699 O 0.83131 1.00829 0.78152
 O700 O 0.81280 1.05826 0.78100
 O701 O 0.77000 0.95164 0.81978
 O702 O 0.71817 0.94726 0.81923
 O703 O 0.80292 0.92417 0.73911
 O704 O 0.79877 0.93850 0.68728
 O705 O 0.83472 0.97036 0.74593
 O706 O 0.82137 0.97992 0.68773
 O707 O 0.76855 0.91491 0.77606
 O708 O 0.71147 0.92122 0.77904
 O709 O 0.79578 0.99625 0.82334
 O710 O 0.77952 1.05119 0.81738
 O711 O 0.67121 0.98523 0.71371
 O712 O 0.69346 0.93509 0.70794
 O713 O 0.73644 1.04111 0.66750
 O714 O 0.79240 1.04144 0.67522
 O715 O 0.70412 1.07272 0.75295
 O716 O 0.70872 1.05547 0.80561
 Zr717 Zr 0.71136 1.02677 0.76673
 O718 O 0.74324 1.00242 0.79285
 Zr719 Zr 0.75961 1.03859 0.70985
 O720 O 0.79394 1.01603 0.73448
 Zr721 Zr 0.71708 0.97685 0.70957
 O722 O 0.74986 0.95085 0.73255
 Zr723 Zr 0.78578 1.01873 0.78177
 O724 O 0.75381 1.04500 0.75751
 Zr725 Zr 0.74405 0.95605 0.77990
 O726 O 0.70896 0.97944 0.75700
 Zr727 Zr 0.79245 0.96897 0.72431
 O728 O 0.75979 0.99206 0.69726
 O729 O 0.71699 1.02335 0.71986
 O730 O 0.78663 0.97213 0.77125
 C731 C 0.65634 1.00524 0.72891
 C732 C 0.71583 1.08930 0.73183
 C733 C 0.71532 1.02456 0.65649
 C734 C 0.84568 0.98730 0.76726
 C735 C 0.78860 0.96954 0.83306
 C736 C 0.79097 0.90704 0.75954
 H737 H 0.73888 1.00444 0.81492
 H738 H 0.74820 0.92929 0.72583
 H739 H 0.70133 1.03555 0.70941
 H740 H 0.81350 1.02494 0.72935
 H741 H 0.80060 1.07490 0.77179
 H742 H 0.80347 1.07540 0.72027
 H743 H 0.71660 0.90715 0.76207
 H744 H 0.68379 0.93260 0.72811
 H745 H 0.76617 1.04225 0.83293
 H746 H 0.72619 1.06919 0.80477
 H747 H 0.77948 0.92816 0.68390
 H748 H 0.73902 0.95400 0.65995
 H749 H 0.67235 0.99803 0.79890
 H750 H 0.70503 0.96528 0.82208
 H751 H 0.78920 1.02396 0.66116
 H752 H 0.83662 0.99423 0.69553
 O753 O 0.73611 0.60675 0.23819
 O754 O 0.79019 0.59766 0.23754
 O755 O 0.70182 0.52492 0.19886
 O756 O 0.70628 0.47391 0.20820
 O757 O 0.66424 0.56227 0.28002
 O758 O 0.67869 0.55893 0.33352
 O759 O 0.78532 0.44582 0.27686
 O760 O 0.77878 0.45738 0.22325
 O761 O 0.82624 0.52837 0.31104
 O762 O 0.81231 0.58297 0.30790
 O763 O 0.75584 0.48794 0.35770
 O764 O 0.70028 0.48904 0.35082
 O765 O 0.75528 0.44722 0.31874
 O766 O 0.69991 0.45509 0.31871
 O767 O 0.79057 0.52544 0.35317
 O768 O 0.78237 0.58210 0.34278
 O769 O 0.82422 0.48737 0.27901
 O770 O 0.81681 0.49243 0.22675
 O771 O 0.70430 0.60623 0.27876
 O772 O 0.70991 0.59485 0.33163
 O773 O 0.66411 0.52546 0.24307
 O774 O 0.67778 0.47052 0.24901
 O775 O 0.73642 0.56267 0.19515
 O776 O 0.78933 0.56604 0.20337
 Zr777 Zr 0.75724 0.56325 0.23862
 O778 O 0.78895 0.53761 0.26376
 Zr779 Zr 0.70777 0.50730 0.24323
 O780 O 0.73715 0.47929 0.26891
 Zr781 Zr 0.70862 0.56175 0.29635
 O782 O 0.73841 0.53662 0.32418
 Zr783 Zr 0.78148 0.49041 0.25859
 O784 O 0.75216 0.51598 0.22977
 Zr785 Zr 0.78238 0.54579 0.31062
 O786 O 0.75274 0.57395 0.28539
 Zr787 Zr 0.73270 0.48961 0.31572
 O788 O 0.70047 0.51476 0.29027
 O789 O 0.71332 0.55402 0.24965
 O790 O 0.77688 0.49876 0.30504
 C791 C 0.71647 0.61932 0.25573
 C792 C 0.71515 0.54633 0.18422
 C793 C 0.65147 0.54688 0.25863
 C794 C 0.77446 0.43400 0.30131
 C795 C 0.83778 0.50446 0.29857
 C796 C 0.77885 0.50264 0.36702
 H797 H 0.80933 0.54294 0.25711
 H798 H 0.73508 0.54176 0.34593
 H799 H 0.69942 0.56655 0.23714
 H800 H 0.73302 0.45752 0.26447
 H801 H 0.77096 0.46807 0.20487
 H802 H 0.72095 0.45778 0.21363
 H803 H 0.76840 0.57681 0.35940
 H804 H 0.72963 0.60479 0.33026
 H805 H 0.81017 0.50653 0.21039
 H806 H 0.78756 0.54721 0.19089
 H807 H 0.70356 0.50713 0.36400
 H808 H 0.66932 0.53849 0.33234
 H809 H 0.78861 0.60903 0.25708
 H810 H 0.82348 0.58091 0.28852
 H811 H 0.66767 0.47379 0.26886
 H812 H 0.70218 0.44153 0.30073
 O813 O 0.52128 0.17095 0.70734
 O814 O 0.46741 0.17457 0.70674
 O815 O 0.54234 0.25865 0.66384
 O816 O 0.53440 0.30856 0.67453
 O817 O 0.59021 0.22714 0.74398
 O818 O 0.57857 0.22770 0.79804
 O819 O 0.45684 0.32610 0.74416
 O820 O 0.46079 0.31305 0.69115
 O821 O 0.42786 0.23873 0.78227
 O822 O 0.44856 0.18582 0.77856
 O823 O 0.49386 0.28794 0.82651
 O824 O 0.54851 0.29500 0.81672
 O825 O 0.48820 0.32944 0.78506
 O826 O 0.54310 0.32818 0.78540
 O827 O 0.46648 0.24433 0.82466
 O828 O 0.47819 0.19101 0.81255
 O829 O 0.42315 0.27915 0.74969
 O830 O 0.42792 0.27449 0.69800
 O831 O 0.55805 0.17835 0.74262
 O832 O 0.55198 0.18747 0.79690
 O833 O 0.58424 0.26418 0.70769
 O834 O 0.56342 0.31576 0.71296
 O835 O 0.51729 0.21342 0.66427
 O836 O 0.46432 0.20697 0.67250
 Zr837 Zr 0.49670 0.21233 0.70740
 O838 O 0.46339 0.23371 0.73381
 Zr839 Zr 0.53849 0.27492 0.70917
 O840 O 0.50731 0.29869 0.73627
 Zr841 Zr 0.54742 0.22106 0.76227
 O842 O 0.51622 0.24215 0.79153
 Zr843 Zr 0.46455 0.28145 0.72775
 O844 O 0.49524 0.25977 0.69784
 Zr845 Zr 0.47321 0.22700 0.78037
 O846 O 0.50485 0.20270 0.75388
 Zr847 Zr 0.51488 0.28956 0.78306
 O848 O 0.54877 0.26885 0.75598
 O849 O 0.53953 0.22785 0.71594
 O850 O 0.47184 0.27449 0.77443
 C851 C 0.54482 0.16243 0.72199
 C852 C 0.53339 0.23375 0.65112
 C853 C 0.60004 0.24463 0.72268
 C854 C 0.46776 0.34027 0.76732
 C855 C 0.41297 0.26066 0.76989
 C856 C 0.47595 0.26835 0.83847
 H857 H 0.44362 0.22556 0.72811
 H858 H 0.52150 0.23752 0.81302
 H859 H 0.55448 0.21737 0.70295
 H860 H 0.50873 0.32074 0.73132
 H861 H 0.46866 0.30275 0.67262
 H862 H 0.51668 0.32118 0.67949
 H863 H 0.49616 0.19528 0.82497
 H864 H 0.53483 0.17348 0.79457
 H865 H 0.43405 0.25822 0.68360
 H866 H 0.46493 0.22563 0.65962
 H867 H 0.54857 0.27652 0.82984
 H868 H 0.58455 0.24947 0.79710
 H869 H 0.46994 0.16393 0.72661
 H870 H 0.43489 0.18706 0.76078
 H871 H 0.57424 0.31469 0.73273
 H872 H 0.53999 0.34024 0.76648
 O873 O 0.32153 0.72612 0.44103
 O874 O 0.30398 0.67069 0.44924
 O875 O 0.24661 0.76843 0.40168
 O876 O 0.19573 0.77048 0.41313
 O877 O 0.28752 0.80996 0.47938
 O878 O 0.28803 0.79704 0.53440
 O879 O 0.16296 0.70059 0.49371
 O880 O 0.16802 0.70766 0.43894
 O881 O 0.23636 0.65131 0.52201
 O882 O 0.29357 0.65838 0.51341
 O883 O 0.21270 0.73112 0.56721
 O884 O 0.22199 0.78849 0.55442
 O885 O 0.16954 0.73861 0.52864
 O886 O 0.18465 0.79011 0.52824
 O887 O 0.24508 0.69099 0.56329
 O888 O 0.29445 0.68592 0.55157
 O889 O 0.19717 0.65702 0.48922
 O890 O 0.19938 0.66409 0.43698
 O891 O 0.32633 0.76443 0.47604
 O892 O 0.32021 0.76220 0.53000
 O893 O 0.25165 0.81133 0.44233
 O894 O 0.19965 0.80704 0.45018
 O895 O 0.27660 0.72609 0.40089
 O896 O 0.27670 0.67716 0.41074
 Zr897 Zr 0.27699 0.71057 0.44572
 O898 O 0.24846 0.68433 0.47314
 Zr899 Zr 0.22961 0.76944 0.44701
 O900 O 0.20037 0.74683 0.47723
 Zr901 Zr 0.28478 0.76522 0.49807
 O902 O 0.25890 0.73987 0.52917
 Zr903 Zr 0.20393 0.69966 0.46955
 O904 O 0.23165 0.72219 0.43758
 Zr905 Zr 0.26043 0.69276 0.51861
 O906 O 0.29057 0.71759 0.49110
 Zr907 Zr 0.21399 0.75230 0.52324
 O908 O 0.24015 0.77935 0.49325
 O909 O 0.27416 0.75759 0.45251
 O910 O 0.21563 0.70537 0.51532
 C911 C 0.33647 0.74746 0.45440
 C912 C 0.26525 0.75001 0.38854
 C913 C 0.27320 0.82324 0.45742
 C914 C 0.15380 0.71773 0.51583
 C915 C 0.21201 0.64215 0.50938
 C916 C 0.22617 0.70720 0.57803
 H917 H 0.25034 0.66243 0.46757
 H918 H 0.26596 0.74378 0.55027
 H919 H 0.28702 0.76927 0.43842
 H920 H 0.17969 0.75417 0.47394
 H921 H 0.17686 0.71339 0.41904
 H922 H 0.17663 0.76538 0.42313
 H923 H 0.30189 0.70645 0.55714
 H924 H 0.32853 0.74120 0.52826
 H925 H 0.20867 0.67149 0.41787
 H926 H 0.25814 0.66538 0.41336
 H927 H 0.23697 0.78128 0.56951
 H928 H 0.27034 0.81067 0.53290
 H929 H 0.32020 0.67527 0.46394
 H930 H 0.28530 0.64213 0.50012
 H931 H 0.20336 0.81689 0.47023
 H932 H 0.17500 0.79350 0.50812
 O933 O 0.34004 0.26716 0.96825
 O934 O 0.33569 0.21258 0.97007
 O935 O 0.25523 0.28959 0.92131
 O936 O 0.20620 0.28939 0.93284
 O937 O 0.28979 0.34090 0.99985
 O938 O 0.28365 0.33316 1.05377
 O939 O 0.18652 0.20874 0.99934
 O940 O 0.20237 0.20935 0.94793
 O941 O 0.26774 0.17681 1.04576
 O942 O 0.31793 0.19349 1.04595
 O943 O 0.21823 0.24803 1.08222
 O944 O 0.21272 0.29953 1.07471
 O945 O 0.17928 0.24426 1.03674
 O946 O 0.18720 0.30280 1.03503
 O947 O 0.26039 0.21888 1.08522
 O948 O 0.31506 0.23009 1.07404
 O949 O 0.22991 0.17265 1.01131
 O950 O 0.23891 0.17471 0.95922
 O951 O 0.33488 0.30192 1.00682
 O952 O 0.31847 0.30193 1.06021
 O953 O 0.25667 0.33462 0.96075
 O954 O 0.20278 0.31944 0.96923
 O955 O 0.29962 0.26412 0.92403
 O956 O 0.30433 0.20851 0.93510
 Zr957 Zr 0.29926 0.24353 0.96820
 O958 O 0.27666 0.21124 0.99533
 Zr959 Zr 0.24025 0.28984 0.96637
 O960 O 0.21466 0.25902 0.99183
 Zr961 Zr 0.29030 0.29765 1.02154
 O962 O 0.26612 0.26801 1.05020
 Zr963 Zr 0.23085 0.21402 0.98637
 O964 O 0.25365 0.24423 0.95666
 Zr965 Zr 0.28035 0.22283 1.04193
 O966 O 0.30656 0.25267 1.01517
 Zr967 Zr 0.22044 0.26831 1.03859
 O968 O 0.24414 0.30162 1.01286
 O969 O 0.28579 0.28823 0.97521
 O970 O 0.23454 0.22317 1.03294
 C971 C 0.35001 0.28850 0.98567
 C972 C 0.27995 0.28057 0.90981
 C973 C 0.27666 0.34989 0.97520
 C974 C 0.17016 0.22264 1.01895
 C975 C 0.24642 0.16205 1.03307
 C976 C 0.23614 0.22981 1.09645
 H977 H 0.28433 0.19035 0.99116
 H978 H 0.26917 0.27411 1.07178
 H979 H 0.29808 0.30151 0.96207
 H980 H 0.19381 0.26154 0.98478
 H981 H 0.21363 0.21630 0.92976
 H982 H 0.20040 0.26772 0.93036
 H983 H 0.30789 0.24522 1.08924
 H984 H 0.33239 0.28423 1.05980
 H985 H 0.25464 0.18031 0.94456
 H986 H 0.28745 0.21056 0.92055
 H987 H 0.23168 0.31046 1.07808
 H988 H 0.26341 0.34159 1.04999
 H989 H 0.34444 0.21458 0.99080
 H990 H 0.32056 0.18304 1.02605
 H991 H 0.20696 0.33447 0.98564
 H992 H 0.17413 0.29737 1.01760
 N993 N 0.35466 0.38992 0.79181
 N994 N 0.35916 0.36128 0.80073
 C995 C 0.33245 0.34802 0.80534
 C996 C 0.31004 0.36948 0.80037
 C997 C 0.32512 0.39560 0.79140
 H998 H 0.28621 0.36662 0.80237
 H999 H 0.37163 0.40543 0.78699
 H1000 H 0.38021 0.35163 0.80456
 N1001 N 0.25633 -0.12225 0.33316
 N1002 N 0.26955 -0.14910 0.33659
 C1003 C 0.28127 -0.15758 0.30950
 C1004 C 0.27566 -0.13494 0.28792
 C1005 C 0.25994 -0.11294 0.30404
 H1006 H 0.28304 -0.13401 0.26438
 H1007 H 0.24630 -0.10994 0.35090
 H1008 H 0.27164 -0.16035 0.35753
 N1009 N 0.83159 0.86770 0.75621
 N1010 N 0.83862 0.84162 0.77002
 C1011 C 0.81583 0.83348 0.78839
 C1012 C 0.79289 0.85474 0.78497
 C1013 C 0.80417 0.87655 0.76524
 H1014 H 0.77164 0.85545 0.79660
 H1015 H 0.84608 0.87999 0.74220
 H1016 H 0.85927 0.83079 0.76770
 N1017 N 0.42638 0.90668 0.24029
 N1018 N 0.41572 0.92933 0.25722
 C1019 C 0.42594 0.92589 0.28610
 C1020 C 0.44371 0.89968 0.28757
 C1021 C 0.44362 0.88839 0.25794
 H1022 H 0.45372 0.88920 0.30762
 H1023 H 0.42134 0.90352 0.21715
 H1024 H 0.40162 0.94645 0.24881
 N1025 N -0.06514 0.87631 0.74493
 N1026 N -0.06870 0.90510 0.75362
 C1027 C -0.05898 0.90796 0.78276
 C1028 C -0.04834 0.87977 0.79291
 C1029 C -0.05272 0.86035 0.76813
 H1030 H -0.03873 0.87414 0.81498
 H1031 H -0.07014 0.86810 0.72307
 H1032 H -0.07686 0.92246 0.73936
 N1033 N 0.01394 -0.14041 -0.05745
 N1034 N 0.00024 -0.16615 -0.06443
 C1035 C -0.02714 -0.16571 -0.05158
 C1036 C -0.03023 -0.13929 -0.03427
 C1037 C -0.00413 -0.12355 -0.03952
 H1038 H -0.04924 -0.13132 -0.02132
 H1039 H 0.03481 -0.13415 -0.06583
 H1040 H 0.00944 -0.18302 -0.07851
 N1041 N 0.00114 0.33646 0.44751
 N1042 N -0.01333 0.31414 0.43366
 C1043 C -0.04184 0.31496 0.44302
 C1044 C -0.04564 0.33847 0.46411
 C1045 C -0.01784 0.35172 0.46611
 H1046 H -0.06597 0.34582 0.47512
 H1047 H 0.02343 0.34180 0.44336
 H1048 H -0.00379 0.29905 0.41788
 N1049 N 0.44022 -0.15907 0.49858
 N1050 N 0.43237 -0.18368 0.48288
 C1051 C 0.43807 -0.17872 0.45300
 C1052 C 0.45037 -0.14977 0.44962
 C1053 C 0.45150 -0.13821 0.47911
 H1054 H 0.45657 -0.13822 0.42868
 H1055 H 0.43786 -0.15670 0.52224
 H1056 H 0.42353 -0.20345 0.49268
 N1057 N 0.52002 0.34665 -0.04253
 N1058 N 0.50421 0.32381 -0.05378
 C1059 C 0.47522 0.32934 -0.04791
 C1060 C 0.47241 0.35679 -0.03202
 C1061 C 0.50146 0.36690 -0.02893
 H1062 H 0.45215 0.36850 -0.02516
 H1063 H 0.54311 0.34859 -0.04474
 H1064 H 0.51325 0.30495 -0.06524
 N1065 N 0.76099 0.37356 0.42927
 N1066 N 0.77491 0.39934 0.42299
 C1067 C 0.79453 0.40522 0.44565
 C1068 C 0.79319 0.38166 0.46723
 C1069 C 0.77161 0.36198 0.45580
 H1070 H 0.80707 0.37840 0.48730
 H1071 H 0.74562 0.36323 0.41458
 H1072 H 0.77207 0.41124 0.40250
 N1073 N 0.75412 0.90760 -0.04486
 N1074 N 0.76775 0.93164 -0.05657
 C1075 C 0.79620 0.93162 -0.04657
 C1076 C 0.80090 0.90648 -0.02776
 C1077 C 0.77372 0.89185 -0.02734
 H1078 H 0.82195 0.89776 -0.01911
 H1079 H 0.73241 0.90109 -0.05048
 H1080 H 0.75826 0.94651 -0.07269
 N1081 N 0.79082 0.25392 0.34666
 N1082 N 0.79961 0.26914 0.32224
 C1083 C 0.79362 0.29921 0.32638
 C1084 C 0.77908 0.30302 0.35433
 C1085 C 0.77834 0.27369 0.36658
 H1086 H 0.77157 0.32398 0.36511
 H1087 H 0.79382 0.23036 0.34978
 H1088 H 0.80980 0.25881 0.30342
 N1089 N 0.77885 0.83282 -0.12185
 N1090 N 0.79130 0.83838 -0.14852
 C1091 C 0.80110 0.81166 -0.16049
 C1092 C 0.79578 0.78814 -0.13970
 C1093 C 0.78126 0.80269 -0.11571
 H1094 H 0.80228 0.76427 -0.14125
 H1095 H 0.77065 0.84980 -0.10721
 H1096 H 0.79458 0.86044 -0.15691
 N1097 N 0.32427 0.50681 0.90127
 N1098 N 0.33588 0.49262 0.92529
 C1099 C 0.32832 0.46284 0.92387
 C1100 C 0.31025 0.45820 0.89828
 C1101 C 0.30871 0.48648 0.88439
 H1102 H 0.30029 0.43736 0.88989
 H1103 H 0.32752 0.52997 0.89629
 H1104 H 0.34846 0.50340 0.94224
 N1105 N 0.27402 0.00292 0.40819
 N1106 N 0.28575 -0.01166 0.43186
 C1107 C 0.28065 -0.04190 0.42859
 C1108 C 0.26408 -0.04671 0.40210
 C1109 C 0.26076 -0.01762 0.38970
 H1110 H 0.25728 -0.06824 0.39211
 H1111 H 0.27593 0.02646 0.40437
 H1112 H 0.29764 -0.00095 0.44939
 N1113 N 0.00230 -0.05954 -0.14989
 N1114 N -0.01097 -0.06887 -0.17523
 C1115 C -0.03917 -0.05812 -0.17542
 C1116 C -0.04407 -0.04092 -0.14899
 C1117 C -0.01702 -0.04244 -0.13341
 H1118 H -0.06442 -0.02958 -0.14183
 H1119 H 0.02436 -0.06484 -0.14407
 H1120 H -0.00061 -0.08203 -0.19214
 N1121 N -0.00133 0.43529 0.36230
 N1122 N -0.01514 0.43595 0.33549
 C1123 C -0.04298 0.44734 0.33937
 C1124 C -0.04703 0.45432 0.36992
 C1125 C -0.02006 0.44632 0.38368
 H1126 H -0.06682 0.46355 0.38076
 H1127 H 0.02070 0.42811 0.36564
 H1128 H -0.00542 0.42894 0.31494
 N1129 N 0.47893 -0.05165 0.36326
 N1130 N 0.46727 -0.05627 0.33586
 C1131 C 0.43768 -0.05057 0.33711
 C1132 C 0.43049 -0.04057 0.36648
 C1133 C 0.45725 -0.04220 0.38237
 H1134 H 0.40902 -0.03380 0.37548
 H1135 H 0.50147 -0.05473 0.36862
 H1136 H 0.47972 -0.06288 0.31681
 N1137 N 0.46932 0.41622 -0.10817
 N1138 N 0.45346 0.41295 -0.13341
 C1139 C 0.46115 0.43532 -0.15299
 C1140 C 0.48244 0.45387 -0.13987
 C1141 C 0.48695 0.44086 -0.11143
 H1142 H 0.49161 0.47493 -0.14879
 H1143 H 0.46643 0.40326 -0.08830
 H1144 H 0.43668 0.39673 -0.13639
 N1145 N 0.48581 0.81025 0.37023
 N1146 N 0.47722 0.81110 0.39908
 C1147 C 0.44892 0.80105 0.40069
 C1148 C 0.43915 0.79302 0.37155
 C1149 C 0.46335 0.79929 0.35293
 H1150 H 0.41767 0.78404 0.36481
 H1151 H 0.50709 0.81620 0.36274
 H1152 H 0.49091 0.81775 0.41723
 N1153 N -0.03892 0.74565 0.89720
 N1154 N -0.04646 0.75937 0.92300
 C1155 C -0.04456 0.78976 0.91860
 C1156 C -0.03531 0.79591 0.88906
 C1157 C -0.03178 0.76721 0.87635
 H1158 H -0.03204 0.81801 0.87836
 H1159 H -0.03862 0.72192 0.89403
 H1160 H -0.05215 0.74801 0.94315
 N1161 N 0.36621 0.84011 0.26833
 N1162 N 0.34110 0.84571 0.28295
 C1163 C 0.32667 0.81899 0.28692
 C1164 C 0.34339 0.79530 0.27416
 C1165 C 0.36848 0.80977 0.26323
 H1166 H 0.33875 0.77100 0.27394
 H1167 H 0.38236 0.85660 0.26370
 H1168 H 0.33515 0.86721 0.29154
 N1169 N -0.15016 0.73700 0.79318
 N1170 N -0.17356 0.75453 0.79957
 C1171 C -0.16383 0.78292 0.80614
 C1172 C -0.13317 0.78351 0.80446
 C1173 C -0.12533 0.75401 0.79596
 H1174 H -0.11865 0.80307 0.80693
 H1175 H -0.15140 0.71454 0.78505
 H1176 H -0.19574 0.74757 0.79789
 N1177 N 0.88479 0.28136 0.49253
 N1178 N 0.91151 0.28796 0.48201
 C1179 C 0.91036 0.28777 0.45118
 C1180 C 0.88182 0.28021 0.44158
 C1181 C 0.86645 0.27635 0.46861
 H1182 H 0.87328 0.27839 0.41845
 H1183 H 0.87944 0.27968 0.51572
 H1184 H 0.93009 0.29193 0.49587
 N1185 N 0.87793 0.83962 -0.03746
 N1186 N 0.90516 0.84382 -0.04791
 C1187 C 0.91954 0.81659 -0.04806
 C1188 C 0.90016 0.79375 -0.03862
 C1189 C 0.87415 0.80959 -0.03168
 H1190 H 0.90430 0.76942 -0.03647
 H1191 H 0.86191 0.85697 -0.03525
 H1192 H 0.91306 0.86479 -0.05589
 N1193 N -0.12381 -0.04151 -0.00480
 N1194 N -0.15182 -0.04580 -0.01285
 C1195 C -0.15380 -0.04418 -0.04360
 C1196 C -0.12595 -0.03757 -0.05570
 C1197 C -0.10758 -0.03648 -0.03014
 H1198 H -0.11980 -0.03477 -0.07946
 H1199 H -0.11614 -0.04136 0.01781
 H1200 H -0.16905 -0.04968 0.00265
 N1201 N -0.11189 0.40315 0.46503
 N1202 N -0.13973 0.39818 0.45674
 C1203 C -0.15489 0.42481 0.45873
 C1204 C -0.13580 0.44780 0.46885
 C1205 C -0.10864 0.43303 0.47183
 H1206 H -0.14059 0.47195 0.47184
 H1207 H -0.09507 0.38658 0.46472
 H1208 H -0.14746 0.37741 0.44801
 N1209 N 0.34377 -0.06091 0.51019
 N1210 N 0.31731 -0.06770 0.49890
 C1211 C 0.31587 -0.05727 0.46996
 C1212 C 0.34248 -0.04326 0.46231
 C1213 C 0.35959 -0.04619 0.48857
 H1214 H 0.34916 -0.03442 0.44024
 H1215 H 0.35107 -0.06701 0.53211
 H1216 H 0.30098 -0.07976 0.51073
 N1217 N 0.39552 0.43285 0.00110
 N1218 N 0.36845 0.42685 -0.00915
 C1219 C 0.36366 0.44287 -0.03513
 C1220 C 0.38924 0.45953 -0.04196
 C1221 C 0.40884 0.45258 -0.01816
 H1222 H 0.39359 0.47348 -0.06190
 H1223 H 0.40480 0.42309 0.02081
 H1224 H 0.35397 0.41166 0.00152
 N1225 N 0.40357 0.50852 0.82693
 N1226 N 0.42671 0.49090 0.83413
 C1227 C 0.42819 0.46715 0.81419
 C1228 C 0.40486 0.46994 0.79372
 C1229 C 0.38997 0.49639 0.80236
 H1230 H 0.39719 0.45341 0.77713
 H1231 H 0.39646 0.52747 0.83962
 H1232 H 0.44001 0.49457 0.85339
 N1233 N 0.34178 -0.04437 0.33392
 N1234 N 0.36878 -0.05597 0.33797
 C1235 C 0.38633 -0.04630 0.31501
 C1236 C 0.36970 -0.02798 0.29516
 C1237 C 0.34155 -0.02731 0.30822
 H1238 H 0.37671 -0.01681 0.27434
 H1239 H 0.32348 -0.04921 0.34781
 H1240 H 0.37468 -0.07106 0.35557
 N1241 N 0.14210 0.50444 0.68540
 N1242 N 0.11607 0.51484 0.67581
 C1243 C 0.10288 0.53023 0.69886
 C1244 C 0.12167 0.52967 0.72441
 C1245 C 0.14658 0.51349 0.71455
 H1246 H 0.11879 0.54137 0.74604
 H1247 H 0.15754 0.49344 0.67122
 H1248 H 0.10901 0.51345 0.65308
 N1249 N 0.08227 0.00693 0.22339
 N1250 N 0.05859 0.01851 0.20947
 C1251 C 0.06049 0.04926 0.20979
 C1252 C 0.08642 0.05774 0.22485
 C1253 C 0.09977 0.03011 0.23273
 H1254 H 0.09655 0.08018 0.22506
 H1255 H 0.08755 -0.01642 0.22405
 H1256 H 0.04309 0.00556 0.19724
 N1257 N 0.62453 0.76260 0.18060
 N1258 N 0.65266 0.75384 0.17890
 C1259 C 0.65622 0.72781 0.19517
 C1260 C 0.62885 0.71945 0.20757
 C1261 C 0.60944 0.74236 0.19780
 H1262 H 0.62347 0.69916 0.22062
 H1263 H 0.61590 0.78224 0.17003
 H1264 H 0.66868 0.76580 0.16665
 N1265 N 0.11596 0.72927 0.66709
 N1266 N 0.14136 0.71689 0.65816
 C1267 C 0.15642 0.70694 0.68306
 C1268 C 0.13952 0.71325 0.70910
 C1269 C 0.11377 0.72684 0.69775
 H1270 H 0.14409 0.70670 0.73255
 H1271 H 0.09936 0.73696 0.65206
 H1272 H 0.14660 0.71317 0.63522
 N1273 N 0.62639 0.15663 0.52425
 N1274 N 0.60014 0.15102 0.53651
 C1275 C 0.58515 0.17776 0.53946
 C1276 C 0.60332 0.20163 0.53001
 C1277 C 0.62903 0.18706 0.52014
 H1278 H 0.59906 0.22600 0.53057
 H1279 H 0.64290 0.14003 0.52056
 H1280 H 0.59381 0.12951 0.54454
 N1281 N 0.62066 0.75580 0.05166
 N1282 N 0.59309 0.74565 0.05316
 C1283 C 0.59333 0.71540 0.04701
 C1284 C 0.62238 0.70593 0.04059
 C1285 C 0.63896 0.73243 0.04401
 H1286 H 0.63032 0.68323 0.03468
 H1287 H 0.62662 0.77868 0.05490
 H1288 H 0.57458 0.75955 0.05764
 N1289 N 0.15199 0.06193 -0.00689
 N1290 N 0.17725 0.06755 0.00774
 C1291 C 0.17357 0.06083 0.03767
 C1292 C 0.14496 0.05031 0.04223
 C1293 C 0.13212 0.05125 0.01344
 H1294 H 0.13475 0.04314 0.06345
 H1295 H 0.14881 0.06453 -0.03045
 H1296 H 0.19665 0.07523 -0.00284
 N1297 N 0.13270 0.49705 0.58576
 N1298 N 0.15726 0.51179 0.59301
 C1299 C 0.16830 0.52460 0.56741
 C1300 C 0.14978 0.51762 0.54275
 C1301 C 0.12716 0.50081 0.55565
 H1302 H 0.15094 0.52606 0.51949
 H1303 H 0.11861 0.48691 0.60178
 H1304 H 0.16428 0.51520 0.61553
 N1305 N 0.62594 -0.00750 0.54091
 N1306 N 0.65282 0.00316 0.54668
 C1307 C 0.65271 0.03357 0.54179
 C1308 C 0.62431 0.04291 0.53248
 C1309 C 0.60796 0.01591 0.53240
 H1310 H 0.61604 0.06610 0.52961
 H1311 H 0.61974 -0.03031 0.54411
 H1312 H 0.67033 -0.00986 0.55584
 N1313 N 0.66718 0.55351 0.00410
 N1314 N 0.68892 0.56712 0.01922
 C1315 C 0.68807 0.55799 0.04873
 C1316 C 0.66569 0.53636 0.05204
 C1317 C 0.65245 0.53499 0.02342
 H1318 H 0.65830 0.52492 0.07257
 H1319 H 0.66167 0.55812 -0.01871
 H1320 H 0.70316 0.58314 0.00941
 N1321 N 0.07727 0.04231 0.11816
 N1322 N 0.07974 0.05173 0.14666
 C1323 C 0.05303 0.06249 0.15579
 C1324 C 0.03252 0.06013 0.13206
 C1325 C 0.04892 0.04674 0.10872
 H1326 H 0.00877 0.06463 0.13269
 H1327 H 0.09456 0.03200 0.10583
 H1328 H 0.09906 0.04944 0.15990
 N1329 N 0.02705 0.55090 0.63134
 N1330 N 0.04138 0.56388 0.65411
 C1331 C 0.05590 0.54198 0.67006
 C1332 C 0.05106 0.51352 0.65612
 C1333 C 0.03269 0.52050 0.63142
 H1334 H 0.06061 0.49145 0.66204
 H1335 H 0.01540 0.56324 0.61456
 H1336 H 0.04273 0.58759 0.65681
 N1337 N 0.49586 0.03932 0.65188
 N1338 N 0.51022 0.04845 0.67667
 C1339 C 0.53963 0.04466 0.67193
 C1340 C 0.54437 0.03231 0.64309
 C1341 C 0.51590 0.02920 0.63121
 H1342 H 0.56542 0.02713 0.63213
 H1343 H 0.47270 0.03979 0.64933
 H1344 H 0.49986 0.05645 0.69649
 N1345 N 0.57163 0.50726 0.14532
 N1346 N 0.57194 0.51944 0.17299
 C1347 C 0.56213 0.54865 0.17106
 C1348 C 0.55473 0.55523 0.14080
 C1349 C 0.56122 0.52826 0.12525
 H1350 H 0.54611 0.57648 0.13140
 H1351 H 0.57765 0.48461 0.14049
 H1352 H 0.57816 0.50753 0.19276
 N1353 N 0.23566 0.57524 0.62841
 N1354 N 0.22028 0.57911 0.60300
 C1355 C 0.21095 0.55155 0.59310
 C1356 C 0.22071 0.52897 0.61340
 C1357 C 0.23594 0.54525 0.63572
 H1358 H 0.21602 0.50468 0.61304
 H1359 H 0.24402 0.59323 0.64159
 H1360 H 0.21465 0.60054 0.59406
 N1361 N 0.18559 0.00725 0.11770
 N1362 N 0.18463 0.01725 0.08916
 C1363 C 0.19538 0.04602 0.08836
 C1364 C 0.20386 0.05465 0.11774
 C1365 C 0.19717 0.02930 0.13567
 H1366 H 0.21296 0.07633 0.12516
 H1367 H 0.17878 -0.01453 0.12459
 H1368 H 0.17697 0.00433 0.07065
 N1369 N 0.74745 0.18950 0.63259
 N1370 N 0.73896 0.18564 0.66119
 C1371 C 0.71089 0.19628 0.66398
 C1372 C 0.70101 0.20776 0.63594
 C1373 C 0.72504 0.20284 0.61661
 H1374 H 0.67935 0.21726 0.63023
 H1375 H 0.76838 0.18308 0.62424
 H1376 H 0.75226 0.17589 0.67833
 N1377 N 0.72071 0.68892 0.12781
 N1378 N 0.70424 0.68257 0.15191
 C1379 C 0.70133 0.70820 0.16878
 C1380 C 0.71615 0.73212 0.15468
 C1381 C 0.72803 0.71880 0.12865
 H1382 H 0.71750 0.75585 0.16163
 H1383 H 0.72497 0.67356 0.10998
 H1384 H 0.69407 0.66147 0.15580
 N1385 N 0.49749 0.70726 0.08518
 N1386 N 0.51393 0.69649 0.06249
 C1387 C 0.54244 0.70491 0.06732
 C1388 C 0.54421 0.72189 0.09399
 C1389 C 0.51523 0.72304 0.10440
 H1390 H 0.56392 0.73072 0.10520
 H1391 H 0.47464 0.70350 0.08758
 H1392 H 0.50565 0.68357 0.04428
 N1393 N -0.00410 0.69057 0.60615
 N1394 N 0.00724 0.68217 0.57957
 C1395 C 0.03665 0.68821 0.57980
 C1396 C 0.04440 0.70122 0.60771
 C1397 C 0.01779 0.70229 0.62367
 H1398 H 0.06648 0.70666 0.61606
 H1399 H -0.02638 0.68772 0.61236
 H1400 H -0.00504 0.67208 0.56201
 N1401 N 0.49787 0.61879 0.18611
 N1402 N 0.51168 0.59210 0.18319
 C1403 C 0.53865 0.59396 0.19671
 C1404 C 0.54218 0.62310 0.20894
 C1405 C 0.51569 0.63811 0.20168
 H1406 H 0.56151 0.63239 0.22046
 H1407 H 0.47662 0.62363 0.17743
 H1408 H 0.50263 0.57307 0.17214
 N1409 N 0.08652 0.62103 0.73047
 N1410 N 0.09656 0.59439 0.72054
 C1411 C 0.07320 0.57758 0.71102
 C1412 C 0.04702 0.59475 0.71481
 C1413 C 0.05676 0.62244 0.72656
 H1414 H 0.02446 0.58864 0.70858
 H1415 H 0.10007 0.63857 0.73866
 H1416 H 0.11917 0.58904 0.71861
 N1417 N 0.00268 0.15294 0.02242
 N1418 N 0.01301 0.17952 0.03212
 C1419 C 0.04301 0.17861 0.03081
 C1420 C 0.05219 0.15039 0.01935
 C1421 C 0.02585 0.13493 0.01422
 H1422 H 0.07470 0.14168 0.01685
 H1423 H -0.01987 0.14710 0.02195
 H1424 H -0.00040 0.19768 0.03955
 N1425 N 0.07444 0.59734 0.55745
 N1426 N 0.08176 0.62634 0.56133
 C1427 C 0.05832 0.64394 0.55317
 C1428 C 0.03470 0.62527 0.54424
 C1429 C 0.04602 0.59579 0.54741
 H1430 H 0.01312 0.63191 0.53529
 H1431 H 0.08887 0.57883 0.56132
 H1432 H 0.10226 0.63375 0.56986
 N1433 N 0.49366 0.13124 0.55924
 N1434 N 0.50756 0.15713 0.56522
 C1435 C 0.53356 0.15745 0.54971
 C1436 C 0.53539 0.13107 0.53182
 C1437 C 0.51009 0.11473 0.53938
 H1438 H 0.55277 0.12385 0.51631
 H1439 H 0.47357 0.12476 0.56930
 H1440 H 0.49927 0.17381 0.58009
 N1441 N 0.57417 0.63707 -0.00676
 N1442 N 0.57859 0.66540 0.00264
 C1443 C 0.56584 0.66871 0.03026
 C1444 C 0.55248 0.64142 0.03889
 C1445 C 0.55843 0.62191 0.01465
 H1446 H 0.54114 0.63623 0.06008
 H1447 H 0.58209 0.62827 -0.02745
 H1448 H 0.59010 0.68200 -0.00975
 N1449 N 0.71244 0.08756 0.49225
 N1450 N 0.69704 0.06501 0.50448
 C1451 C 0.69486 0.06997 0.53479
 C1452 C 0.70992 0.09665 0.54236
 C1453 C 0.72055 0.10727 0.51449
 H1454 H 0.70967 0.10864 0.56405
 H1455 H 0.71542 0.09054 0.46874
 H1456 H 0.68682 0.04763 0.49191
 N1457 N 0.76633 0.62212 0.06321
 N1458 N 0.75502 0.59579 0.07237
 C1459 C 0.72567 0.59603 0.06598
 C1460 C 0.71780 0.62348 0.05205
 C1461 C 0.74438 0.63933 0.05059
 H1462 H 0.69588 0.63101 0.04466
 H1463 H 0.78874 0.62808 0.06551
 H1464 H 0.76740 0.57799 0.08222
 N1465 N 0.17642 0.62691 0.73514
 N1466 N 0.16526 0.65008 0.71938
 C1467 C 0.18760 0.66450 0.70494
 C1468 C 0.21438 0.64943 0.71158
 C1469 C 0.20607 0.62540 0.73049
 H1470 H 0.23616 0.65361 0.70191
 H1471 H 0.16346 0.61092 0.74680
 H1472 H 0.14251 0.65399 0.71644
 N1473 N 0.18254 0.15405 0.25579
 N1474 N 0.17815 0.18108 0.24286
 C1475 C 0.18336 0.17826 0.21268
 C1476 C 0.19169 0.14838 0.20600
 C1477 C 0.19096 0.13388 0.23407
 H1478 H 0.19706 0.13858 0.18392
 H1479 H 0.18041 0.14973 0.27920
 H1480 H 0.17263 0.20100 0.25481
 N1481 N 0.69556 1.13871 0.75177
 N1482 N 0.69072 1.16677 0.74136
 C1483 C 0.69723 1.16740 0.71123
 C1484 C 0.70700 1.13861 0.70217
 C1485 C 0.70559 1.12116 0.72860
 H1486 H 0.71399 1.13125 0.67964
 H1487 H 0.69291 1.13204 0.77456
 H1488 H 0.68378 1.18512 0.75497
 N1489 N 0.68669 0.66689 0.26507
 N1490 N 0.67765 0.69092 0.24901
 C1491 C 0.69027 0.68949 0.22108
 C1492 C 0.70913 0.66417 0.21984
 C1493 C 0.70564 0.65014 0.24786
 H1494 H 0.72224 0.65574 0.20089
 H1495 H 0.67927 0.66167 0.28709
 H1496 H 0.66290 0.70760 0.25718
 N1497 N 0.58775 0.12863 0.70935
 N1498 N 0.59238 0.09991 0.70099
 C1499 C 0.56600 0.08523 0.70078
 C1500 C 0.54341 0.10586 0.70807
 C1501 C 0.55833 0.13293 0.71374
 H1502 H 0.51973 0.10201 0.70978
 H1503 H 0.60440 0.14516 0.71106
 H1504 H 0.61312 0.09107 0.69457
 N1505 N 1.00055 0.12025 0.22736
 N1506 N 1.01199 0.09264 0.22337
 C1507 C 1.02630 0.09223 0.19639
 C1508 C 1.02377 0.12067 0.18232
 C1509 C 1.00729 0.13778 0.20298
 H1510 H 1.03522 0.12868 0.16211
 H1511 H 0.99000 0.12752 0.24739
 H1512 H 1.01137 0.07510 0.23962
 N1513 N 0.16896 0.60913 0.51933
 N1514 N 0.16309 0.58424 0.53518
 C1515 C 0.18908 0.57202 0.54508
 C1516 C 0.21254 0.59011 0.53540
 C1517 C 0.19863 0.61360 0.51958
 H1518 H 0.23593 0.58796 0.54127
 H1519 H 0.15268 0.62401 0.51059
 H1520 H 0.14157 0.57745 0.54096
 N1521 N 0.25835 0.11469 1.06299
 N1522 N 0.24482 0.08898 1.07067
 C1523 C 0.21740 0.08913 1.05795
 C1524 C 0.21332 0.11595 1.04139
 C1525 C 0.23987 0.13138 1.04503
 H1526 H 0.19362 0.12361 1.02912
 H1527 H 0.27986 0.12058 1.06994
 H1528 H 0.25444 0.07169 1.08406
 N1529 N 0.22423 0.66580 0.61618
 N1530 N 0.21249 0.66018 0.64315
 C1531 C 0.20018 0.68625 0.65390
 C1532 C 0.20401 0.70960 0.63241
 C1533 C 0.21903 0.69529 0.60861
 H1534 H 0.19607 0.73306 0.63335
 H1535 H 0.23447 0.64917 0.60253
 H1536 H 0.21155 0.63835 0.65284
 N1537 N 0.24524 0.20145 1.14503
 N1538 N 0.23031 0.19430 1.16999
 C1539 C 0.20314 0.20782 1.16869
 C1540 C 0.20134 0.22547 1.14221
 C1541 C 0.22818 0.22002 1.12755
 H1542 H 0.18309 0.23952 1.13393
 H1543 H 0.26651 0.19308 1.13985
 H1544 H 0.23872 0.18004 1.18720
 N1545 N 0.67495 0.55437 0.14587
 N1546 N 0.67233 0.56163 0.11665
 C1547 C 0.69985 0.56456 0.10475
 C1548 C 0.72097 0.56027 0.12775
 C1549 C 0.70409 0.55341 0.15334
 H1550 H 0.74499 0.56098 0.12621
 H1551 H 0.65699 0.55083 0.16057
 H1552 H 0.65198 0.56530 0.10552
 N1553 N 0.66726 1.03850 0.63307
 N1554 N 0.65649 1.04754 0.60646
 C1555 C 0.67934 1.05185 0.58707
 C1556 C 0.70614 1.04556 0.60214
 C1557 C 0.69719 1.03682 0.63126
 H1558 H 0.72830 1.04432 0.59250
 H1559 H 0.65417 1.03254 0.65188
 H1560 H 0.63377 1.04892 0.60124
 N1561 N 0.54779 0.24852 0.59789
 N1562 N 0.55332 0.23434 0.57172
 C1563 C 0.55224 0.20388 0.57667
 C1564 C 0.54565 0.19834 0.60703
 C1565 C 0.54273 0.22726 0.61962
 H1566 H 0.54275 0.17641 0.61820
 H1567 H 0.54638 0.27229 0.60045
 H1568 H 0.55644 0.24545 0.55084
 N1569 N 1.04838 0.26670 0.08942
 N1570 N 1.06074 0.25397 0.06511
 C1571 C 1.05214 0.22451 0.06370
 C1572 C 1.03326 0.21818 0.08800
 C1573 C 1.03150 0.24567 0.10377
 H1574 H 1.02358 0.19640 0.09424
 H1575 H 1.05201 0.28929 0.09634
 H1576 H 1.07487 0.26534 0.05001
 N1577 N 0.64723 0.25994 0.69694
 N1578 N 0.67225 0.24618 0.68851
 C1579 C 0.67181 0.21706 0.69887
 C1580 C 0.64573 0.21216 0.71477
 C1581 C 0.63087 0.23987 0.71308
 H1582 H 0.63756 0.19088 0.72418
 H1583 H 0.64124 0.28236 0.69103
 H1584 H 0.68887 0.25650 0.67547
 N1585 N 1.10890 0.22784 0.16372
 N1586 N 1.13588 0.21649 0.15935
 C1587 C 1.15011 0.21521 0.18654
 C1588 C 1.13075 0.22495 0.20951
 C1589 C 1.10505 0.23310 0.19382
 H1590 H 1.13444 0.22626 0.23389
 H1591 H 1.09292 0.23065 0.14646
 H1592 H 1.14348 0.20826 0.13834
 N1593 N 0.10836 0.73691 0.54202
 N1594 N 0.08312 0.72627 0.55311
 C1595 C 0.08141 0.69607 0.54689
 C1596 C 0.10654 0.68730 0.53007
 C1597 C 0.12323 0.71404 0.52789
 H1598 H 0.11252 0.66471 0.52187
 H1599 H 0.11542 0.75954 0.54450
 H1600 H 0.06766 0.73967 0.56499
 N1601 N 0.12580 0.20189 0.99299
 N1602 N 0.09725 0.19746 0.99815
 C1603 C 0.09111 0.20647 1.02690
 C1604 C 0.11691 0.21778 1.04065
 C1605 C 0.13847 0.21417 1.01815
 H1606 H 0.11972 0.22656 1.06363
 H1607 H 0.13628 0.19700 0.97222
 H1608 H 0.08236 0.18873 0.98199
 N1609 N 0.60124 0.57096 0.26704
 N1610 N 0.57715 0.57705 0.25045
 C1611 C 0.58151 0.56632 0.22182
 C1612 C 0.60940 0.55257 0.22029
 C1613 C 0.62107 0.55582 0.24943
 H1614 H 0.62029 0.54268 0.20056
 H1615 H 0.60399 0.57716 0.28996
 H1616 H 0.55820 0.58821 0.25881
 N1617 N 0.60991 0.98839 0.70320
 N1618 N 0.58511 1.00143 0.69311
 C1619 C 0.58401 1.03053 0.70351
 C1620 C 0.60849 1.03558 0.72242
 C1621 C 0.62476 1.00862 0.72072
 H1622 H 0.61513 1.05644 0.73381
 H1623 H 0.61724 0.96657 0.69672
 H1624 H 0.57010 0.99065 0.67842
 N1625 N 0.88649 0.51355 0.32518
 N1626 N 0.91196 0.49877 0.33000
 C1627 C 0.91052 0.47122 0.31619
 C1628 C 0.88291 0.46839 0.30187
 C1629 C 0.86842 0.49586 0.30798
 H1630 H 0.87438 0.44907 0.28912
 H1631 H 0.88172 0.53551 0.33342
 H1632 H 0.93003 0.50779 0.34203
 N1633 N 0.89492 1.00277 0.78857
 N1634 N 0.91978 0.98908 0.79774
 C1635 C 0.91712 0.95871 0.79281
 C1636 C 0.88955 0.95285 0.77970
 C1637 C 0.87638 0.98142 0.77716
 H1638 H 0.87987 0.93092 0.77400
 H1639 H 0.89076 1.02629 0.79022
 H1640 H 0.93812 1.00051 0.80694
 N1641 N 0.36875 0.24765 0.80091
 N1642 N 0.34642 0.26293 0.81340
 C1643 C 0.34659 0.29195 0.80258
 C1644 C 0.36895 0.29465 0.78101
 C1645 C 0.38301 0.26641 0.78150
 H1646 H 0.37591 0.31471 0.76850
 H1647 H 0.37502 0.22535 0.80699
 H1648 H 0.33234 0.25360 0.82985
 N1649 N 0.84284 0.31664 0.23561
 N1650 N 0.81956 0.32601 0.25165
 C1651 C 0.82261 0.31565 0.28055
 C1652 C 0.84893 0.29885 0.28301
 C1653 C 0.86100 0.29993 0.25388
 H1654 H 0.85867 0.28877 0.30341
 H1655 H 0.84639 0.32203 0.21261
 H1656 H 0.80206 0.33906 0.24266
 N1657 N 0.38280 0.73593 0.42462
 N1658 N 0.40810 0.74980 0.41793
 C1659 C 0.40844 0.77734 0.43195
 C1660 C 0.38232 0.78107 0.44848
 C1661 C 0.36670 0.75422 0.44323
 H1662 H 0.37514 0.80089 0.46146
 H1663 H 0.37670 0.71438 0.41641
 H1664 H 0.42471 0.74040 0.40405
 N1665 N 0.39856 0.30866 1.00399
 N1666 N 0.42553 0.31340 0.99300
 C1667 C 0.42556 0.30646 0.96288
 C1668 C 0.39738 0.29639 0.95445
 C1669 C 0.38102 0.29813 0.98131
 H1670 H 0.38974 0.28906 0.93212
 H1671 H 0.39260 0.31172 1.02688
 H1672 H 0.44358 0.32044 1.00633
 N1673 N 0.82583 0.49143 0.39298
 N1674 N 0.83617 0.47042 0.41188
 C1675 C 0.81294 0.45590 0.42489
 C1676 C 0.78651 0.46821 0.41342
 C1677 C 0.79587 0.49026 0.39275
 H1678 H 0.76391 0.46080 0.41755
 H1679 H 0.83925 0.50398 0.37810
 H1680 H 0.85877 0.46477 0.41346
 N1681 N 0.81406 0.92840 0.86210
 N1682 N 0.82366 0.92337 0.89023
 C1683 C 0.81988 0.94919 0.90663
 C1684 C 0.80723 0.97177 0.88828
 C1685 C 0.80384 0.95742 0.86020
 H1686 H 0.79889 0.99404 0.89515
 H1687 H 0.81356 0.91190 0.84481
 H1688 H 0.83074 0.90207 0.89854
 N1689 N 0.30721 0.75080 0.35314
 N1690 N 0.31757 0.76947 0.33212
 C1691 C 0.29549 0.78879 0.32354
 C1692 C 0.26988 0.78201 0.34013
 C1693 C 0.27868 0.75840 0.35929
 H1694 H 0.24899 0.79451 0.34076
 H1695 H 0.32070 0.73566 0.36564
 H1696 H 0.34016 0.77070 0.32677
 N1697 N 0.26456 0.30038 0.85878
 N1698 N 0.27736 0.31111 0.83384
 C1699 C 0.30705 0.30956 0.83784
 C1700 C 0.31365 0.29693 0.86619
 C1701 C 0.28597 0.29124 0.87864
 H1702 H 0.33539 0.29262 0.87622
 H1703 H 0.24152 0.29921 0.86201
 H1704 H 0.26589 0.31849 0.81432
 N1705 N 0.44943 0.25174 0.88557
 N1706 N 0.44285 0.26235 0.91305
 C1707 C 0.45403 0.29077 0.91584
 C1708 C 0.46877 0.29855 0.88887
 C1709 C 0.46519 0.27298 0.87018
 H1710 H 0.48010 0.31970 0.88356
 H1711 H 0.44337 0.23007 0.87765
 H1712 H 0.43142 0.24992 0.92967
 N1713 N 0.92875 0.25012 0.36447
 N1714 N 0.92509 0.25466 0.39403
 C1715 C 0.93683 0.28197 0.40144
 C1716 C 0.94898 0.29541 0.37538
 C1717 C 0.94314 0.27428 0.35235
 H1718 H 0.95987 0.31736 0.37337
 H1719 H 0.92186 0.23042 0.35293
 H1720 H 0.91500 0.23901 0.40876
 N1721 N 0.44787 0.39172 0.75219
 N1722 N 0.44328 0.41861 0.76544
 C1723 C 0.44852 0.41566 0.79576
 C1724 C 0.45811 0.38587 0.80163
 C1725 C 0.45697 0.37146 0.77361
 H1726 H 0.46587 0.37592 0.82289
 H1727 H 0.44638 0.38784 0.72865
 H1728 H 0.43852 0.43870 0.75337
 N1729 N 0.93155 0.40670 0.24620
 N1730 N 0.92708 0.43202 0.26217
 C1731 C 0.93552 0.42664 0.29133
 C1732 C 0.94585 0.39686 0.29414
 C1733 C 0.94312 0.38514 0.26497
 H1734 H 0.95438 0.38542 0.31437
 H1735 H 0.92751 0.40461 0.22273
 H1736 H 0.91921 0.45263 0.25295
 N1737 N 0.29295 0.85946 0.41905
 N1738 N 0.29677 0.88930 0.41610
 C1739 C 0.28860 0.90287 0.44245
 C1740 C 0.27973 0.88081 0.46335
 C1741 C 0.28272 0.85361 0.44737
 H1742 H 0.27154 0.88398 0.48638
 H1743 H 0.29783 0.84330 0.40217
 H1744 H 0.30553 0.89994 0.39672
 N1745 N 0.29933 0.37122 0.92926
 N1746 N 0.31807 0.39319 0.92222
 C1747 C 0.32079 0.41178 0.94656
 C1748 C 0.30356 0.40097 0.97051
 C1749 C 0.29022 0.37508 0.95839
 H1750 H 0.30154 0.41006 0.99345
 H1751 H 0.29458 0.35264 0.91501
 H1752 H 0.32929 0.39487 0.90138
 N1753 N 0.79616 0.39712 0.33865
 N1754 N 0.80375 0.36783 0.33975
 C1755 C 0.79730 0.35493 0.31252
 C1756 C 0.78566 0.37715 0.29294
 C1757 C 0.78514 0.40350 0.31065
 H1758 H 0.77764 0.37465 0.26975
 H1759 H 0.79928 0.41267 0.35652
 H1760 H 0.81375 0.35718 0.35862
   
