data_POSCAR
  _audit_creation_date              2014-09-24
  _audit_creation_method            'ToBaCCo'
  _symmetry_space_group_name_H-M    'P1'
  _symmetry_Int_Tables_number       1
  _symmetry_cell_setting            triclinic
  loop_
  _symmetry_equiv_pos_as_xyz
 x,y,z
_cell_length_a 65.1528
_cell_length_b 65.1658
_cell_length_c 65.1002
_cell_angle_alpha 89.172800
_cell_angle_beta 89.226700
_cell_angle_gamma 89.238500
loop_
  _atom_site_label
  _atom_site_type_symbol
  _atom_site_fract_x
  _atom_site_fract_y
  _atom_site_fract_z
C1 C 0.73543 0.65252 0.97471
 H2 H 0.75009 0.65292 0.96674
 C3 C 0.71859 0.66335 0.96674
 H4 H 0.72028 0.67224 0.95264
 C5 C 0.71491 0.63960 1.00223
 H6 H 0.71330 0.62987 1.01570
 C7 C 0.69773 0.65020 0.99481
 H8 H 0.68307 0.64873 1.00272
 N9 N 0.73329 0.64088 0.99213
 C10 C 0.79437 0.62969 1.01700
 H11 H 0.79364 0.61318 1.01876
 C12 C 0.81173 0.64004 1.02328
 H13 H 0.82445 0.63150 1.02992
 C14 C 0.77857 0.66102 1.00636
 H15 H 0.76552 0.66911 0.99995
 C16 C 0.79570 0.67200 1.01248
 H17 H 0.79587 0.68855 1.01069
 Zn18 Zn 0.75573 0.62425 1.00076
 N19 N 0.77833 0.64021 1.00854
 C20 C 0.78275 0.60822 0.97044
 N21 N 0.76337 0.60733 0.97844
 C22 C 0.74880 0.59557 0.96975
 C23 C 0.75356 0.58401 0.95234
 C24 C 0.78814 0.59691 0.95312
 C25 C 0.74404 0.61895 1.04160
 C26 C 0.73736 0.60871 1.05937
 C27 C 0.73939 0.57674 1.04096
 C28 C 0.74608 0.58763 1.02350
 N29 N 0.74787 0.60841 1.02406
 H30 H 0.79397 0.61805 0.97715
 H31 H 0.73339 0.59547 0.97615
 H32 H 0.74185 0.57489 0.94533
 H33 H 0.80354 0.59793 0.94672
 H34 H 0.74581 0.63544 1.04163
 H35 H 0.73393 0.61740 1.07311
 H36 H 0.73758 0.56025 1.04026
 H37 H 0.74955 0.57951 1.00951
 C38 C 0.81245 0.66137 1.02095
 C39 C 0.69953 0.66202 0.97682
 C40 C 0.73480 0.58744 1.05901
 C41 C 0.77341 0.58479 0.94393
 C42 C 0.73429 0.34811 0.51965
 H43 H 0.74896 0.34705 0.52720
 C44 C 0.71760 0.33700 0.52740
 H45 H 0.71943 0.32726 0.54089
 C46 C 0.71361 0.36279 0.49342
 H47 H 0.71189 0.37326 0.48054
 C48 C 0.69659 0.35196 0.50065
 H49 H 0.68193 0.35399 0.49316
 N50 N 0.73202 0.36070 0.50294
 C51 C 0.79306 0.37171 0.47686
 H52 H 0.79230 0.38828 0.47585
 C53 C 0.81050 0.36125 0.46973
 H54 H 0.82324 0.36978 0.46320
 C55 C 0.77733 0.34032 0.48648
 H56 H 0.76429 0.33224 0.49284
 C57 C 0.79453 0.32923 0.47950
 H58 H 0.79476 0.31263 0.48060
 Zn59 Zn 0.75437 0.37726 0.49441
 N60 N 0.77703 0.36120 0.48524
 C61 C 0.78140 0.39136 0.52463
 N62 N 0.76200 0.39300 0.51725
 C63 C 0.74747 0.40488 0.52673
 C64 C 0.75236 0.41594 0.54423
 C65 C 0.78691 0.40213 0.54202
 C66 C 0.74246 0.38466 0.45419
 C67 C 0.73571 0.39585 0.43710
 C68 C 0.73784 0.42688 0.45682
 C69 C 0.74460 0.41508 0.47359
 N70 N 0.74638 0.39431 0.47208
 H71 H 0.79259 0.38143 0.51729
 H72 H 0.73204 0.40560 0.52080
 H73 H 0.74072 0.42530 0.55175
 H74 H 0.80237 0.40064 0.54784
 H75 H 0.74422 0.36815 0.45337
 H76 H 0.73220 0.38796 0.42307
 H77 H 0.73603 0.44336 0.45820
 H78 H 0.74815 0.42250 0.48781
 C79 C 0.81129 0.33984 0.47113
 C80 C 0.69855 0.33907 0.51786
 C81 C 0.73319 0.41711 0.43849
 C82 C 0.77227 0.41450 0.55192
 C83 C 0.23413 -0.15157 0.01943
 H84 H 0.24881 -0.15260 0.02696
 C85 C 0.21745 -0.16268 0.02722
 H86 H 0.21930 -0.17240 0.04073
 C87 C 0.21341 -0.13696 -0.00680
 H88 H 0.21167 -0.12651 -0.01970
 C89 C 0.19640 -0.14778 0.00046
 H90 H 0.18173 -0.14578 -0.00701
 N91 N 0.23183 -0.13902 0.00270
 C92 C 0.29281 -0.12801 -0.02355
 H93 H 0.29202 -0.11144 -0.02461
 C94 C 0.31025 -0.13847 -0.03067
 H95 H 0.32296 -0.12994 -0.03726
 C96 C 0.27714 -0.15940 -0.01378
 H97 H 0.26413 -0.16747 -0.00735
 C98 C 0.29435 -0.17048 -0.02075
 H99 H 0.29461 -0.18708 -0.01959
 Zn100 Zn 0.25415 -0.12246 -0.00590
 N101 N 0.27681 -0.13852 -0.01509
 C102 C 0.28126 -0.10830 0.02421
 N103 N 0.26183 -0.10666 0.01688
 C104 C 0.24733 -0.09477 0.02639
 C105 C 0.25226 -0.08370 0.04386
 C106 C 0.28681 -0.09751 0.04157
 C107 C 0.24220 -0.11519 -0.04612
 C108 C 0.23538 -0.10409 -0.06323
 C109 C 0.23742 -0.07296 -0.04358
 C110 C 0.24425 -0.08471 -0.02680
 N111 N 0.24610 -0.10547 -0.02827
 H112 H 0.29243 -0.11823 0.01685
 H113 H 0.23189 -0.09406 0.02049
 H114 H 0.24065 -0.07433 0.05141
 H115 H 0.30229 -0.09900 0.04735
 H116 H 0.24402 -0.13169 -0.04688
 H117 H 0.23190 -0.11212 -0.07721
 H118 H 0.23557 -0.05648 -0.04214
 H119 H 0.24779 -0.07724 -0.01260
 C120 C 0.31108 -0.15987 -0.02919
 C121 C 0.19839 -0.16064 0.01770
 C122 C 0.23275 -0.08279 -0.06191
 C123 C 0.27220 -0.08513 0.05150
 C124 C 0.23579 0.15242 0.47424
 H125 H 0.25046 0.15288 0.46627
 C126 C 0.21893 0.16324 0.46629
 H127 H 0.22061 0.17217 0.45222
 C128 C 0.21529 0.13937 0.50170
 H129 H 0.21370 0.12960 0.51514
 C130 C 0.19809 0.14995 0.49431
 H131 H 0.18343 0.14843 0.50221
 N132 N 0.23368 0.14073 0.49162
 C133 C 0.29476 0.12959 0.51647
 H134 H 0.29407 0.11307 0.51817
 C135 C 0.31210 0.13995 0.52280
 H136 H 0.32483 0.13141 0.52943
 C137 C 0.27891 0.16092 0.50593
 H138 H 0.26585 0.16902 0.49953
 C139 C 0.29602 0.17192 0.51211
 H140 H 0.29616 0.18848 0.51039
 Zn141 Zn 0.25615 0.12412 0.50021
 N142 N 0.27871 0.14011 0.50803
 C143 C 0.28321 0.10822 0.46986
 N144 N 0.26383 0.10726 0.47786
 C145 C 0.24930 0.09546 0.46916
 C146 C 0.25410 0.08393 0.45174
 C147 C 0.28864 0.09693 0.45253
 C148 C 0.24446 0.11872 0.54105
 C149 C 0.23785 0.10841 0.55879
 C150 C 0.24000 0.07650 0.54036
 C151 C 0.24662 0.08743 0.52290
 N152 N 0.24833 0.10822 0.52348
 H153 H 0.29440 0.11808 0.47657
 H154 H 0.23389 0.09531 0.47556
 H155 H 0.24241 0.07477 0.44474
 H156 H 0.30403 0.09801 0.44614
 H157 H 0.24616 0.13521 0.54110
 H158 H 0.23437 0.11697 0.57258
 H159 H 0.23824 0.06002 0.53973
 H160 H 0.25012 0.07934 0.50889
 C161 C 0.31278 0.16128 0.52056
 C162 C 0.19987 0.16183 0.47635
 C163 C 0.23541 0.08715 0.55839
 C164 C 0.27395 0.08477 0.44334
 C165 C 0.15304 0.47425 0.23580
 H166 H 0.15348 0.46632 0.25051
 C167 C 0.16386 0.46627 0.21896
 H168 H 0.17277 0.45221 0.22069
 C169 C 0.14005 0.50165 0.21519
 H170 H 0.13028 0.51507 0.21355
 C171 C 0.15063 0.49422 0.19801
 H172 H 0.14912 0.50207 0.18331
 N173 N 0.14137 0.49161 0.23362
 C174 C 0.13008 0.51647 0.29469
 H175 H 0.11356 0.51814 0.29396
 C176 C 0.14041 0.52285 0.31204
 H177 H 0.13183 0.52947 0.32475
 C178 C 0.16147 0.50600 0.27890
 H179 H 0.16959 0.49962 0.26585
 C180 C 0.17243 0.51222 0.29603
 H181 H 0.18899 0.51054 0.29619
 Zn182 Zn 0.12471 0.50021 0.25606
 N183 N 0.14064 0.50806 0.27866
 C184 C 0.10874 0.46988 0.28315
 N185 N 0.10783 0.47786 0.26374
 C186 C 0.09608 0.46915 0.24918
 C187 C 0.08453 0.45174 0.25396
 C188 C 0.09744 0.45255 0.28857
 C189 C 0.11932 0.54098 0.24426
 C190 C 0.10900 0.55869 0.23762
 C191 C 0.07708 0.54023 0.23983
 C192 C 0.08802 0.52281 0.24647
 N193 N 0.10881 0.52342 0.24817
 H194 H 0.11856 0.47660 0.29437
 H195 H 0.09597 0.47555 0.23375
 H196 H 0.07541 0.44473 0.24225
 H197 H 0.09847 0.44616 0.30398
 H198 H 0.13581 0.54106 0.24595
 H199 H 0.11756 0.57248 0.23412
 H200 H 0.06060 0.53958 0.23808
 H201 H 0.07993 0.50881 0.25000
 C202 C 0.16175 0.52066 0.31276
 C203 C 0.16248 0.47628 0.19986
 C204 C 0.08773 0.55826 0.23520
 C205 C 0.08532 0.44335 0.27384
 C206 C -0.15259 0.02012 0.23353
 H207 H -0.15368 0.02764 0.24821
 C208 C -0.16364 0.02789 0.21679
 H209 H -0.17337 0.04137 0.21865
 C210 C -0.13786 -0.00605 0.21287
 H211 H -0.12738 -0.01890 0.21118
 C212 C -0.14862 0.00118 0.19579
 H213 H -0.14651 -0.00632 0.18114
 N214 N -0.14000 0.00344 0.23129
 C215 C -0.12899 -0.02267 0.29238
 H216 H -0.11241 -0.02367 0.29158
 C217 C -0.13942 -0.02981 0.30985
 H218 H -0.13087 -0.03635 0.32257
 C219 C -0.16041 -0.01303 0.27670
 H220 H -0.16850 -0.00664 0.26367
 C221 C -0.17147 -0.02003 0.29394
 H222 H -0.18807 -0.01893 0.29421
 Zn223 Zn -0.12346 -0.00507 0.25367
 N224 N -0.13952 -0.01427 0.27636
 C225 C -0.10937 0.02509 0.28075
 N226 N -0.10770 0.01774 0.26132
 C227 C -0.09579 0.02724 0.24680
 C228 C -0.08469 0.04468 0.25172
 C229 C -0.09855 0.04243 0.28629
 C230 C -0.11605 -0.04524 0.24178
 C231 C -0.10485 -0.06230 0.23507
 C232 C -0.07380 -0.04258 0.23723
 C233 C -0.08562 -0.02583 0.24395
 N234 N -0.10640 -0.02736 0.24570
 H235 H -0.11932 0.01774 0.29193
 H236 H -0.09506 0.02133 0.23136
 H237 H -0.07529 0.05221 0.24010
 H238 H -0.10005 0.04821 0.30177
 H239 H -0.13256 -0.04607 0.24352
 H240 H -0.11273 -0.07633 0.23155
 H241 H -0.05733 -0.04118 0.23544
 H242 H -0.07820 -0.01162 0.24751
 C243 C -0.16083 -0.02841 0.31069
 C244 C -0.16151 0.01839 0.19771
 C245 C -0.08357 -0.06090 0.23258
 C246 C -0.08614 0.05233 0.27166
 C247 C 0.34778 0.51983 0.73442
 H248 H 0.34673 0.52732 0.74913
 C249 C 0.33667 0.52764 0.71774
 H250 H 0.32694 0.54111 0.71961
 C251 C 0.36244 0.49371 0.71365
 H252 H 0.37290 0.48086 0.71188
 C253 C 0.35162 0.50100 0.69663
 H254 H 0.35364 0.49358 0.68194
 N255 N 0.36036 0.50315 0.73210
 C256 C 0.37145 0.47692 0.79312
 H257 H 0.38803 0.47595 0.79233
 C258 C 0.36102 0.46969 0.81056
 H259 H 0.36957 0.46314 0.82327
 C260 C 0.34003 0.48652 0.77743
 H261 H 0.33193 0.49291 0.76440
 C262 C 0.32896 0.47944 0.79463
 H263 H 0.31236 0.48049 0.79488
 Zn264 Zn 0.37695 0.49458 0.75442
 N265 N 0.36091 0.48533 0.77711
 C266 C 0.39111 0.52470 0.78152
 N267 N 0.39272 0.51738 0.76207
 C268 C 0.40457 0.52690 0.74753
 C269 C 0.41565 0.54437 0.75242
 C270 C 0.40190 0.54207 0.78703
 C271 C 0.38431 0.45444 0.74241
 C272 C 0.39549 0.43740 0.73562
 C273 C 0.42655 0.45710 0.73777
 C274 C 0.41476 0.47383 0.74456
 N275 N 0.39398 0.47231 0.74635
 H276 H 0.38120 0.51732 0.79272
 H277 H 0.40525 0.52101 0.73208
 H278 H 0.42499 0.55193 0.74077
 H279 H 0.40044 0.54783 0.80252
 H280 H 0.36781 0.45362 0.74418
 H281 H 0.38760 0.42338 0.73209
 H282 H 0.44303 0.45850 0.73595
 H283 H 0.42219 0.48803 0.74814
 C284 C 0.33960 0.47103 0.81137
 C285 C 0.33874 0.51818 0.69865
 C286 C 0.41676 0.43880 0.73309
 C287 C 0.41425 0.55200 0.77237
 C288 C 0.65362 0.97464 0.73628
 H289 H 0.65409 0.96665 0.75096
 C290 C 0.66443 0.96674 0.71939
 H291 H 0.67336 0.95268 0.72106
 C292 C 0.64054 1.00208 0.71578
 H293 H 0.63075 1.01548 0.71421
 C294 C 0.65111 0.99473 0.69856
 H295 H 0.64957 1.00264 0.68389
 N296 N 0.64191 0.99198 0.73418
 C297 C 0.63056 1.01661 0.79534
 H298 H 0.61404 1.01824 0.79462
 C299 C 0.64086 1.02296 0.81273
 H300 H 0.63221 1.02952 0.82543
 C301 C 0.66198 1.00626 0.77953
 H302 H 0.67011 0.99993 0.76646
 C303 C 0.67292 1.01246 0.79667
 H304 H 0.68950 1.01080 0.79679
 Zn305 Zn 0.62524 1.00046 0.75666
 N306 N 0.64115 1.00827 0.77929
 C307 C 0.60930 0.97001 0.78365
 N308 N 0.60841 0.97804 0.76426
 C309 C 0.59668 0.96936 0.74965
 C310 C 0.58514 0.95193 0.75438
 C311 C 0.59801 0.95266 0.78900
 C312 C 0.61974 1.04126 0.74499
 C313 C 0.60939 1.05895 0.73835
 C314 C 0.57753 1.04039 0.74045
 C315 C 0.58850 1.02299 0.74709
 N316 N 0.60929 1.02365 0.74884
 H317 H 0.61910 0.97671 0.79490
 H318 H 0.59658 0.97581 0.73424
 H319 H 0.57604 0.94494 0.74263
 H320 H 0.59902 0.94623 0.80440
 H321 H 0.63623 1.04138 0.74671
 H322 H 0.61791 1.07276 0.73488
 H323 H 0.56105 1.03968 0.73865
 H324 H 0.58045 1.00896 0.75057
 C325 C 0.66222 1.02083 0.81345
 C326 C 0.66299 0.97681 0.70032
 C327 C 0.58813 1.05845 0.73587
 C328 C 0.58591 0.94349 0.77423
 C329 C 0.01934 0.23387 -0.15149
 H330 H 0.02685 0.24856 -0.15247
 C331 C 0.02719 0.21723 -0.16259
 H332 H 0.04071 0.21912 -0.17226
 C333 C -0.00689 0.21308 -0.13699
 H334 H -0.01980 0.21130 -0.12659
 C335 C 0.00044 0.19611 -0.14781
 H336 H -0.00701 0.18143 -0.14586
 N337 N 0.00259 0.23152 -0.13899
 C338 C -0.02368 0.29243 -0.12790
 H339 H -0.02476 0.29158 -0.11131
 C340 C -0.03080 0.30989 -0.13834
 H341 H -0.03740 0.32256 -0.12978
 C342 C -0.01388 0.27688 -0.15933
 H343 H -0.00743 0.26390 -0.16743
 C344 C -0.02084 0.29412 -0.17040
 H345 H -0.01967 0.29443 -0.18702
 Zn346 Zn -0.00605 0.25377 -0.12239
 N347 N -0.01521 0.27648 -0.13844
 C348 C 0.02402 0.28082 -0.10807
 N349 N 0.01668 0.26139 -0.10649
 C350 C 0.02617 0.24685 -0.09461
 C351 C 0.04363 0.25173 -0.08350
 C352 C 0.04137 0.28632 -0.09723
 C353 C -0.04624 0.24176 -0.11525
 C354 C -0.06336 0.23492 -0.10418
 C355 C -0.04379 0.23690 -0.07297
 C356 C -0.02700 0.24375 -0.08467
 N357 N -0.02842 0.24565 -0.10546
 H358 H 0.01668 0.29203 -0.11800
 H359 H 0.02027 0.23141 -0.09396
 H360 H 0.05117 0.24008 -0.07415
 H361 H 0.04716 0.30180 -0.09869
 H362 H -0.04697 0.24362 -0.13176
 H363 H -0.07731 0.23146 -0.11227
 H364 H -0.04238 0.23502 -0.05647
 H365 H -0.01282 0.24729 -0.07716
 C366 C -0.02930 0.31079 -0.15976
 C367 C 0.01770 0.19815 -0.16061
 C368 C -0.06208 0.23225 -0.08287
 C369 C 0.05128 0.27166 -0.08488
 C370 C 0.47476 0.23562 0.15291
 H371 H 0.46677 0.25027 0.15335
 C372 C 0.46685 0.21875 0.16377
 H373 H 0.45279 0.22041 0.17270
 C374 C 0.50222 0.21516 0.13988
 H375 H 0.51562 0.21358 0.13009
 C376 C 0.49486 0.19796 0.15050
 H377 H 0.50277 0.18331 0.14899
 N378 N 0.49211 0.23352 0.14120
 C379 C 0.51676 0.29464 0.12975
 H380 H 0.51842 0.29390 0.11322
 C381 C 0.52307 0.31203 0.14004
 H382 H 0.52964 0.32475 0.13142
 C383 C 0.50636 0.27886 0.16121
 H384 H 0.50002 0.26581 0.16938
 C385 C 0.51252 0.29602 0.17213
 H386 H 0.51084 0.29621 0.18871
 Zn387 Zn 0.50059 0.25598 0.12448
 N388 N 0.50840 0.27860 0.14037
 C389 C 0.47014 0.28290 0.10851
 N390 N 0.47818 0.26354 0.10763
 C391 C 0.46947 0.24893 0.09593
 C392 C 0.45201 0.25363 0.08442
 C393 C 0.45277 0.28822 0.09725
 C394 C 0.54140 0.24437 0.11900
 C395 C 0.55911 0.23777 0.10865
 C396 C 0.54056 0.23981 0.07676
 C397 C 0.52314 0.24641 0.08773
 N398 N 0.52380 0.24817 0.10853
 H399 H 0.47687 0.29414 0.11829
 H400 H 0.47591 0.23354 0.09583
 H401 H 0.44500 0.24188 0.07534
 H402 H 0.44634 0.30360 0.09826
 H403 H 0.54152 0.24610 0.13550
 H404 H 0.57293 0.23434 0.11719
 H405 H 0.53987 0.23801 0.06027
 H406 H 0.50911 0.24986 0.07966
 C407 C 0.52089 0.31277 0.16140
 C408 C 0.47692 0.19971 0.16239
 C409 C 0.55863 0.23528 0.08738
 C410 C 0.44356 0.27345 0.08519
 C411 C 0.97404 0.73576 0.65344
 H412 H 0.96608 0.75042 0.65393
 C413 C 0.96612 0.71888 0.66427
 H414 H 0.95208 0.72054 0.67323
 C415 C 1.00145 0.71529 0.64033
 H416 H 1.01485 0.71373 0.63052
 C417 C 0.99408 0.69807 0.65091
 H418 H 1.00196 0.68342 0.64936
 N419 N 0.99137 0.73367 0.64171
 C420 C 1.01615 0.79478 0.63053
 H421 H 1.01781 0.79411 0.61399
 C422 C 1.02252 0.81210 0.64089
 H423 H 1.02912 0.82484 0.63233
 C424 C 1.00573 0.77888 0.66192
 H425 H 0.99936 0.76580 0.67003
 C426 C 1.01194 0.79597 0.67292
 H427 H 1.01027 0.79608 0.68949
 Zn428 Zn 0.99992 0.75617 0.62508
 N429 N 1.00776 0.77871 0.64107
 C430 C 0.96955 0.78323 0.60919
 N431 N 0.97754 0.76385 0.60823
 C432 C 0.96883 0.74933 0.59643
 C433 C 0.95143 0.75413 0.58488
 C434 C 0.95222 0.78865 0.59788
 C435 C 1.04071 0.74450 0.61960
 C436 C 1.05842 0.73792 0.60924
 C437 C 1.03991 0.74017 0.57733
 C438 C 1.02249 0.74675 0.58831
 N439 N 1.02312 0.74839 0.60912
 H440 H 0.97626 0.79441 0.61905
 H441 H 0.97524 0.73393 0.59628
 H442 H 0.94442 0.74245 0.57571
 H443 H 0.94583 0.80404 0.59894
 H444 H 1.04080 0.74614 0.63611
 H445 H 1.07222 0.73442 0.61778
 H446 H 1.03924 0.73846 0.56083
 H447 H 1.00848 0.75027 0.58024
 C448 C 1.02035 0.81274 0.66226
 C449 C 0.97616 0.69983 0.66283
 C450 C 1.05796 0.73555 0.58796
 C451 C 0.94303 0.77397 0.58571
 C452 C 0.51988 0.73473 0.34709
 H453 H 0.52740 0.74941 0.34602
 C454 C 0.52762 0.71805 0.33599
 H455 H 0.54109 0.71989 0.32623
 C456 C 0.49371 0.71402 0.36183
 H457 H 0.48087 0.71228 0.37232
 C458 C 0.50094 0.69700 0.35101
 H459 H 0.49348 0.68234 0.35306
 N460 N 0.50320 0.73244 0.35971
 C461 C 0.47713 0.79342 0.37081
 H462 H 0.47616 0.79260 0.38741
 C463 C 0.46995 0.81088 0.36040
 H464 H 0.46343 0.82355 0.36903
 C465 C 0.48670 0.77780 0.33935
 H466 H 0.49306 0.76480 0.33124
 C467 C 0.47968 0.79503 0.32829
 H468 H 0.48076 0.79525 0.31166
 Zn469 Zn 0.49470 0.75475 0.37630
 N470 N 0.48550 0.77744 0.36025
 C471 C 0.52488 0.78178 0.39045
 N472 N 0.51752 0.76236 0.39208
 C473 C 0.52698 0.74784 0.40400
 C474 C 0.54443 0.75273 0.41513
 C475 C 0.54223 0.78729 0.40129
 C476 C 0.45452 0.74280 0.38370
 C477 C 0.43745 0.73606 0.39490
 C478 C 0.45715 0.73821 0.42598
 C479 C 0.47391 0.74496 0.41416
 N480 N 0.47239 0.74673 0.39337
 H481 H 0.51756 0.79296 0.38050
 H482 H 0.52106 0.73241 0.40470
 H483 H 0.55193 0.74110 0.42453
 H484 H 0.54802 0.80276 0.39982
 H485 H 0.45370 0.74455 0.36717
 H486 H 0.42342 0.73254 0.38700
 H487 H 0.45854 0.73641 0.44247
 H488 H 0.48812 0.74853 0.42159
 C489 C 0.47130 0.81175 0.33895
 C490 C 0.51812 0.69899 0.33809
 C491 C 0.43884 0.73355 0.41619
 C492 C 0.55210 0.77265 0.41372
 C493 C 0.39875 -0.01618 0.26942
 H494 H 0.39914 -0.00146 0.27687
 C495 C 0.40981 -0.03288 0.27755
 H496 H 0.41884 -0.03102 0.29123
 C497 C 0.38575 -0.03696 0.24309
 H498 H 0.37594 -0.03870 0.23002
 C499 C 0.39656 -0.05401 0.25069
 H500 H 0.39517 -0.06872 0.24332
 N501 N 0.38700 -0.01850 0.25250
 C502 C 0.37583 0.04229 0.22556
 H503 H 0.35934 0.04148 0.22410
 C504 C 0.38614 0.05976 0.21872
 H505 H 0.37760 0.07246 0.21192
 C506 C 0.40711 0.02673 0.23623
 H507 H 0.41521 0.01377 0.24296
 C508 C 0.41806 0.04397 0.22956
 H509 H 0.43457 0.04431 0.23124
 Zn510 Zn 0.37034 0.00389 0.24358
 N511 N 0.38633 0.02635 0.23438
 C512 C 0.35494 0.03140 0.27336
 N513 N 0.35369 0.01193 0.26622
 C514 C 0.34185 -0.00234 0.27601
 C515 C 0.33063 0.00281 0.29372
 C516 C 0.34397 0.03717 0.29092
 C517 C 0.36468 -0.00813 0.20339
 C518 C 0.35424 -0.01460 0.18614
 C519 C 0.32240 -0.01213 0.20550
 C520 C 0.33346 -0.00566 0.22245
 N521 N 0.35427 -0.00412 0.22117
 H522 H 0.36483 0.04239 0.26579
 H523 H 0.34146 -0.01783 0.27027
 H524 H 0.32147 -0.00868 0.30161
 H525 H 0.34531 0.05263 0.29663
 H526 H 0.38118 -0.00656 0.20276
 H527 H 0.36272 -0.01810 0.17217
 H528 H 0.30589 -0.01367 0.20667
 H529 H 0.32545 -0.00206 0.23661
 C530 C 0.40742 0.06067 0.22085
 C531 C 0.40857 -0.05200 0.26815
 C532 C 0.33294 -0.01677 0.18725
 C533 C 0.33182 0.02275 0.30126
 C534 C 0.09275 1.02476 0.77536
 H535 H 0.09153 1.00997 0.78302
 C536 C 0.08183 1.04170 0.78297
 H537 H 0.07208 1.03997 0.79648
 C538 C 0.10764 1.04539 0.74896
 H539 H 0.11813 1.04696 0.73608
 C540 C 0.09701 1.06268 0.75606
 H541 H 0.09920 1.07741 0.74845
 N542 N 0.10535 1.02688 0.75863
 C543 C 0.11581 0.96591 0.73341
 H544 H 0.13240 0.96625 0.73239
 C545 C 0.10536 0.94889 0.72646
 H546 H 0.11389 0.93605 0.72006
 C547 C 0.08443 0.98233 0.74285
 H548 H 0.07637 0.99549 0.74906
 C549 C 0.07333 0.96553 0.73604
 H550 H 0.05672 0.96573 0.73710
 Zn551 Zn 0.12161 1.00406 0.75033
 N552 N 0.10532 0.98209 0.74160
 C553 C 0.13563 0.97610 0.78083
 N554 N 0.13752 0.99551 0.77311
 C555 C 0.14996 1.00932 0.78208
 C556 C 0.16144 1.00362 0.79929
 C557 C 0.14680 0.96980 0.79796
 C558 C 0.12883 1.01634 0.70987
 C559 C 0.14007 1.02223 0.69244
 C560 C 0.17126 1.01764 0.71176
 C561 C 0.15941 1.01180 0.72888
 N562 N 0.13856 1.01158 0.72771
 H563 H 0.12527 0.96550 0.77391
 H564 H 0.15088 1.02478 0.77587
 H565 H 0.17133 1.01466 0.80635
 H566 H 0.14517 0.95431 0.80400
 H567 H 0.11226 1.01575 0.70931
 H568 H 0.13216 1.02629 0.67839
 H569 H 0.18783 1.01807 0.71283
 H570 H 0.16688 1.00754 0.74305
 C571 C 0.08395 0.94865 0.72784
 C572 C 0.08411 1.06086 0.77328
 C573 C 0.16146 1.02301 0.69343
 C574 C 0.15983 0.98365 0.80726
 C575 C 0.59259 0.52539 0.27393
 H576 H 0.59137 0.51061 0.28160
 C577 C 0.58169 0.54234 0.28155
 H578 H 0.57194 0.54061 0.29506
 C579 C 0.60749 0.54602 0.24753
 H580 H 0.61798 0.54759 0.23465
 C581 C 0.59687 0.56331 0.25463
 H582 H 0.59906 0.57804 0.24703
 N583 N 0.60519 0.52751 0.25721
 C584 C 0.61578 0.46655 0.23198
 H585 H 0.63236 0.46694 0.23095
 C586 C 0.60536 0.44949 0.22507
 H587 H 0.61393 0.43667 0.21867
 C588 C 0.58436 0.48288 0.24145
 H589 H 0.57627 0.49602 0.24768
 C590 C 0.57330 0.46605 0.23467
 H591 H 0.55669 0.46619 0.23576
 Zn592 Zn 0.62148 0.50471 0.24892
 N593 N 0.60524 0.48270 0.24018
 C594 C 0.63552 0.47676 0.27943
 N595 N 0.63739 0.49618 0.27172
 C596 C 0.64978 0.51001 0.28071
 C597 C 0.66125 0.50434 0.29794
 C598 C 0.64668 0.47048 0.29658
 C599 C 0.62875 0.51697 0.20846
 C600 C 0.64001 0.52291 0.19105
 C601 C 0.67117 0.51840 0.21044
 C602 C 0.65931 0.51252 0.22754
 N603 N 0.63846 0.51224 0.22632
 H604 H 0.62519 0.46614 0.27250
 H605 H 0.65068 0.52547 0.27451
 H606 H 0.67110 0.51539 0.30502
 H607 H 0.64508 0.45499 0.30261
 H608 H 0.61218 0.51635 0.20787
 H609 H 0.63211 0.52696 0.17700
 H610 H 0.68773 0.51889 0.21155
 H611 H 0.66676 0.50828 0.24172
 C612 C 0.58396 0.44919 0.22648
 C613 C 0.58397 0.56149 0.27186
 C614 C 0.66139 0.52376 0.19209
 C615 C 0.65967 0.48436 0.30590
 C616 C 0.89808 0.48396 0.77005
 H617 H 0.89844 0.49868 0.77749
 C618 C 0.90912 0.46727 0.77822
 H619 H 0.91811 0.46914 0.79192
 C620 C 0.88515 0.46316 0.74370
 H621 H 0.87537 0.46140 0.73061
 C622 C 0.89595 0.44612 0.75134
 H623 H 0.89458 0.43141 0.74397
 N624 N 0.88637 0.48163 0.75310
 C625 C 0.87517 0.54238 0.72609
 H626 H 0.85868 0.54154 0.72460
 C627 C 0.88547 0.55985 0.71924
 H628 H 0.87693 0.57253 0.71241
 C629 C 0.90646 0.52686 0.73683
 H630 H 0.91455 0.51392 0.74359
 C631 C 0.91739 0.54411 0.73015
 H632 H 0.93390 0.54447 0.73185
 Zn633 Zn 0.86970 0.50399 0.74413
 N634 N 0.88568 0.52646 0.73494
 C635 C 0.85421 0.53150 0.77386
 N636 N 0.85300 0.51203 0.76674
 C637 C 0.84118 0.49774 0.77653
 C638 C 0.82994 0.50288 0.79423
 C639 C 0.84322 0.53727 0.79142
 C640 C 0.86414 0.49195 0.70394
 C641 C 0.85376 0.48543 0.68668
 C642 C 0.82188 0.48781 0.70598
 C643 C 0.83289 0.49433 0.72294
 N644 N 0.85369 0.49593 0.72170
 H645 H 0.86408 0.54251 0.76630
 H646 H 0.84082 0.48225 0.77080
 H647 H 0.82080 0.49138 0.80213
 H648 H 0.84454 0.55273 0.79712
 H649 H 0.88065 0.49357 0.70334
 H650 H 0.86228 0.48195 0.67272
 H651 H 0.80537 0.48621 0.70712
 H652 H 0.82484 0.49791 0.73708
 C653 C 0.90675 0.56079 0.72140
 C654 C 0.90791 0.44815 0.76883
 C655 C 0.83247 0.48319 0.68775
 C656 C 0.83109 0.52283 0.80176
 C657 C 0.26945 0.39748 -0.01571
 H658 H 0.27689 0.39782 -0.00096
 C659 C 0.27761 0.40855 -0.03240
 H660 H 0.29130 0.41755 -0.03050
 C661 C 0.24313 0.38458 -0.03656
 H662 H 0.23005 0.37480 -0.03834
 C663 C 0.25076 0.39541 -0.05360
 H664 H 0.24340 0.39407 -0.06834
 N665 N 0.25252 0.38578 -0.01806
 C666 C 0.22552 0.37467 0.04275
 H667 H 0.22404 0.35818 0.04197
 C668 C 0.21869 0.38501 0.06020
 H669 H 0.21188 0.37650 0.07292
 C670 C 0.23625 0.40592 0.02711
 H671 H 0.24299 0.41398 0.01413
 C672 C 0.22959 0.41689 0.04433
 H673 H 0.23128 0.43340 0.04463
 Zn674 Zn 0.24354 0.36913 0.00434
 N675 N 0.23436 0.38514 0.02678
 C676 C 0.27325 0.35368 0.03194
 N677 N 0.26612 0.35244 0.01245
 C678 C 0.27590 0.34061 -0.00182
 C679 C 0.29361 0.32940 0.00336
 C680 C 0.29081 0.34274 0.03774
 C681 C 0.20339 0.36357 -0.00776
 C682 C 0.18612 0.35319 -0.01425
 C683 C 0.20537 0.32130 -0.01173
 C684 C 0.22234 0.33231 -0.00524
 N685 N 0.22112 0.35312 -0.00371
 H686 H 0.26569 0.36356 0.04292
 H687 H 0.27017 0.34022 -0.01733
 H688 H 0.30151 0.32027 -0.00813
 H689 H 0.29652 0.34408 0.05321
 H690 H 0.20280 0.38008 -0.00620
 H691 H 0.17219 0.36171 -0.01777
 H692 H 0.20649 0.30479 -0.01326
 H693 H 0.23646 0.32427 -0.00161
 C694 C 0.22085 0.40628 0.06106
 C695 C 0.26823 0.40737 -0.05155
 C696 C 0.18717 0.33190 -0.01641
 C697 C 0.30116 0.33060 0.02332
 C698 C 0.77504 0.09251 1.02474
 H699 H 0.78269 0.09127 1.00995
 C700 C 0.78265 0.08161 1.04173
 H701 H 0.79613 0.07184 1.04002
 C702 C 0.74870 0.10746 1.04535
 H703 H 0.73584 0.11796 1.04690
 C704 C 0.75578 0.09685 1.06269
 H705 H 0.74820 0.09906 1.07742
 N706 N 0.75835 0.10513 1.02683
 C707 C 0.73312 0.11564 0.96578
 H708 H 0.73213 0.13221 0.96610
 C709 C 0.72616 0.10520 0.94874
 H710 H 0.71976 0.11374 0.93589
 C711 C 0.74252 0.08424 0.98223
 H712 H 0.74874 0.07617 0.99541
 C713 C 0.73569 0.07316 0.96543
 H714 H 0.73673 0.05655 0.96564
 Zn715 Zn 0.75006 0.12139 1.00396
 N716 N 0.74131 0.10512 0.98198
 C717 C 0.78056 0.13536 0.97597
 N718 N 0.77285 0.13728 0.99539
 C719 C 0.78184 0.14970 1.00920
 C720 C 0.79906 0.16115 1.00349
 C721 C 0.79770 0.14650 0.96965
 C722 C 0.70966 0.12866 1.01622
 C723 C 0.69226 0.13992 1.02212
 C724 C 0.71162 0.17108 1.01755
 C725 C 0.72871 0.15922 1.01170
 N726 N 0.72749 0.13838 1.01146
 H727 H 0.77363 0.12501 0.96537
 H728 H 0.77565 0.15064 1.02467
 H729 H 0.80613 0.17103 1.01453
 H730 H 0.80372 0.14486 0.95416
 H731 H 0.70907 0.11210 1.01562
 H732 H 0.67822 0.13202 1.02619
 H733 H 0.71273 0.18764 1.01800
 H734 H 0.74287 0.16667 1.00744
 C735 C 0.72750 0.08379 0.94852
 C736 C 0.77298 0.08392 1.06090
 C737 C 0.69329 0.16130 1.02292
 C738 C 0.80701 0.15952 0.98351
 C739 C 0.27457 0.59321 0.52501
 H740 H 0.28221 0.59201 0.51021
 C741 C 0.28220 0.58229 0.54197
 H742 H 0.29569 0.57255 0.54024
 C743 C 0.24821 0.60807 0.54566
 H744 H 0.23533 0.61854 0.54723
 C745 C 0.25532 0.59744 0.56297
 H746 H 0.24774 0.59960 0.57771
 N747 N 0.25785 0.60579 0.52713
 C748 C 0.23253 0.61623 0.46612
 H749 H 0.23148 0.63281 0.46644
 C750 C 0.22559 0.60577 0.44909
 H751 H 0.21917 0.61429 0.43623
 C752 C 0.24203 0.58487 0.48258
 H753 H 0.24828 0.57682 0.49575
 C754 C 0.23523 0.57376 0.46578
 H755 H 0.23633 0.55716 0.46599
 Zn756 Zn 0.24950 0.62204 0.50428
 N757 N 0.24075 0.60575 0.48231
 C758 C 0.27993 0.63606 0.47624
 N759 N 0.27224 0.63797 0.49568
 C760 C 0.28123 0.65040 0.50948
 C761 C 0.29844 0.66187 0.50374
 C762 C 0.29705 0.64722 0.46991
 C763 C 0.20910 0.62924 0.51659
 C764 C 0.19169 0.64046 0.52252
 C765 C 0.21098 0.67166 0.51792
 C766 C 0.22808 0.65983 0.51205
 N767 N 0.22691 0.63898 0.51181
 H768 H 0.27300 0.62570 0.46566
 H769 H 0.27506 0.65133 0.52495
 H770 H 0.30552 0.67176 0.51477
 H771 H 0.30306 0.64558 0.45441
 H772 H 0.20854 0.61267 0.51599
 H773 H 0.17767 0.63254 0.52661
 H774 H 0.21206 0.68822 0.51837
 H775 H 0.24223 0.66731 0.50777
 C776 C 0.22701 0.58436 0.44887
 C777 C 0.27254 0.58455 0.56115
 C778 C 0.19268 0.66184 0.52332
 C779 C 0.30637 0.66025 0.48375
 C780 C 0.76943 0.89878 0.48412
 H781 H 0.77688 0.89915 0.49886
 C782 C 0.77755 0.90984 0.46739
 H783 H 0.79124 0.91885 0.46926
 C784 C 0.74309 0.88582 0.46332
 H785 H 0.73002 0.87602 0.46158
 C786 C 0.75068 0.89663 0.44625
 H787 H 0.74330 0.89525 0.43153
 N788 N 0.75250 0.88706 0.48181
 C789 C 0.72552 0.87587 0.54262
 H790 H 0.72401 0.85939 0.54179
 C791 C 0.71871 0.88617 0.56010
 H792 H 0.71190 0.87763 0.57280
 C793 C 0.73629 0.90714 0.52707
 H794 H 0.74305 0.91523 0.51411
 C795 C 0.72966 0.91808 0.54433
 H796 H 0.73140 0.93458 0.54468
 Zn797 Zn 0.74357 0.87039 0.50422
 N798 N 0.73437 0.88637 0.52668
 C799 C 0.77327 0.85496 0.53183
 N800 N 0.76618 0.85373 0.51232
 C801 C 0.77598 0.84191 0.49806
 C802 C 0.79366 0.83068 0.50327
 C803 C 0.79081 0.84399 0.53766
 C804 C 0.70341 0.86476 0.49214
 C805 C 0.68620 0.85435 0.48557
 C806 C 0.70555 0.82251 0.48797
 C807 C 0.72247 0.83355 0.49455
 N808 N 0.72117 0.85434 0.49616
 H809 H 0.76569 0.86483 0.54281
 H810 H 0.77027 0.84154 0.48254
 H811 H 0.80158 0.82154 0.49179
 H812 H 0.79648 0.84531 0.55315
 H813 H 0.70278 0.88125 0.49377
 H814 H 0.67224 0.86284 0.48205
 H815 H 0.70673 0.80601 0.48635
 H816 H 0.73661 0.82553 0.49815
 C817 C 0.72092 0.90744 0.56103
 C818 C 0.76815 0.90861 0.44826
 C819 C 0.68732 0.83307 0.48330
 C820 C 0.80117 0.83185 0.52325
 C821 C -0.01576 0.26938 0.39843
 H822 H -0.00100 0.27677 0.39880
 C823 C -0.03243 0.27755 0.40950
 H824 H -0.03049 0.29121 0.41853
 C825 C -0.03667 0.24316 0.38544
 H826 H -0.03848 0.23013 0.37562
 C827 C -0.05369 0.25081 0.39626
 H828 H -0.06843 0.24350 0.39488
 N829 N -0.01816 0.25249 0.38668
 C830 C 0.04251 0.22541 0.37536
 H831 H 0.04166 0.22399 0.35886
 C832 C 0.05997 0.21850 0.38565
 H833 H 0.07263 0.21170 0.37708
 C834 C 0.02703 0.23606 0.40671
 H835 H 0.01411 0.24281 0.41484
 C836 C 0.04427 0.22932 0.41763
 H837 H 0.04463 0.23096 0.43416
 Zn838 Zn 0.00417 0.24355 0.36996
 N839 N 0.02662 0.23425 0.38591
 C840 C 0.03178 0.27325 0.35453
 N841 N 0.01228 0.26618 0.35331
 C842 C -0.00199 0.27603 0.34152
 C843 C 0.00320 0.29375 0.33032
 C844 C 0.03760 0.29081 0.34357
 C845 C -0.00804 0.20346 0.36425
 C846 C -0.01463 0.18629 0.35379
 C847 C -0.01215 0.20571 0.32195
 C848 C -0.00556 0.22258 0.33304
 N849 N -0.00397 0.22123 0.35385
 H850 H 0.04277 0.26562 0.36437
 H851 H -0.01750 0.27034 0.34116
 H852 H -0.00828 0.30170 0.32120
 H853 H 0.05308 0.29647 0.34489
 H854 H -0.00644 0.20278 0.38076
 H855 H -0.01818 0.17231 0.36226
 H856 H -0.01373 0.20693 0.30543
 H857 H -0.00191 0.23673 0.32504
 C858 C 0.06092 0.22059 0.40695
 C859 C -0.05159 0.26824 0.40827
 C860 C -0.01686 0.18746 0.33248
 C861 C 0.02318 0.30122 0.33147
 C862 C 1.02484 0.77478 0.09226
 H863 H 1.01004 0.78240 0.09103
 C864 C 1.04178 0.78244 0.08133
 H865 H 1.04003 0.79593 0.07156
 C866 C 1.04552 0.74848 0.10720
 H867 H 1.04711 0.73561 0.11771
 C868 C 1.06280 0.75561 0.09656
 H869 H 1.07754 0.74807 0.09876
 N870 N 1.02699 0.75809 0.10489
 C871 C 0.96607 0.73273 0.11556
 H872 H 0.96646 0.73173 0.13215
 C873 C 0.94902 0.72575 0.10516
 H874 H 0.93622 0.71932 0.11375
 C875 C 0.98238 0.74220 0.08408
 H876 H 0.99550 0.74845 0.07596
 C877 C 0.96555 0.73535 0.07304
 H878 H 0.96570 0.73641 0.05642
 Zn879 Zn 1.00420 0.74975 0.12122
 N880 N 0.98220 0.74096 0.10498
 C881 C 0.97622 0.78017 0.13523
 N882 N 0.99565 0.77251 0.13711
 C883 C 1.00947 0.78152 0.14951
 C884 C 1.00378 0.79873 0.16096
 C885 C 0.96992 0.79730 0.14638
 C886 C 1.01652 0.70937 0.12850
 C887 C 1.02246 0.69198 0.13977
 C888 C 1.01792 0.71131 0.17096
 C889 C 1.01204 0.72839 0.15908
 N890 N 1.01177 0.72719 0.13822
 H891 H 0.96561 0.77322 0.12490
 H892 H 1.02494 0.77536 0.15042
 H893 H 1.01483 0.80583 0.17081
 H894 H 0.95442 0.80329 0.14476
 H895 H 1.01590 0.70879 0.11192
 H896 H 1.02652 0.67795 0.13187
 H897 H 1.01840 0.71240 0.18753
 H898 H 1.00779 0.74255 0.16653
 C899 C 0.94871 0.72712 0.08373
 C900 C 1.06095 0.77282 0.08363
 C901 C 1.02329 0.69300 0.16117
 C902 C 0.98379 0.80664 0.15936
 C903 C 0.52498 0.27455 0.59243
 H904 H 0.51019 0.28218 0.59120
 C905 C 0.54192 0.28220 0.58150
 H906 H 0.54018 0.29568 0.57172
 C907 C 0.54565 0.24824 0.60737
 H908 H 0.54724 0.23537 0.61788
 C909 C 0.56294 0.25536 0.59673
 H910 H 0.57768 0.24781 0.59893
 N911 N 0.52712 0.25785 0.60506
 C912 C 0.46618 0.23254 0.61569
 H913 H 0.46655 0.23154 0.63228
 C914 C 0.44914 0.22556 0.60527
 H915 H 0.43632 0.21915 0.61384
 C916 C 0.48254 0.24198 0.58423
 H917 H 0.49568 0.24821 0.57613
 C918 C 0.46573 0.23514 0.57317
 H919 H 0.46590 0.23620 0.55654
 Zn920 Zn 0.50433 0.24953 0.62138
 N921 N 0.48233 0.24075 0.60514
 C922 C 0.47635 0.27997 0.63539
 N923 N 0.49578 0.27230 0.63726
 C924 C 0.50961 0.28132 0.64964
 C925 C 0.50393 0.29853 0.66110
 C926 C 0.47006 0.29710 0.64654
 C927 C 0.51665 0.20915 0.62872
 C928 C 0.52260 0.19179 0.64002
 C929 C 0.51804 0.21116 0.67117
 C930 C 0.51215 0.22822 0.65927
 N931 N 0.51189 0.22699 0.63841
 H932 H 0.46573 0.27302 0.62507
 H933 H 0.52508 0.27515 0.65054
 H934 H 0.51499 0.30562 0.67094
 H935 H 0.45456 0.30309 0.64494
 H936 H 0.51604 0.20855 0.61214
 H937 H 0.52668 0.17775 0.63214
 H938 H 0.51851 0.21228 0.68775
 H939 H 0.50788 0.24238 0.66670
 C940 C 0.44886 0.22693 0.58384
 C941 C 0.56109 0.27257 0.58380
 C942 C 0.52343 0.19284 0.66141
 C943 C 0.48394 0.30644 0.65951
 C944 C 0.48415 0.76971 0.89833
 H945 H 0.49891 0.77710 0.89872
 C946 C 0.46747 0.77791 0.90936
 H947 H 0.46938 0.79158 0.91837
 C948 C 0.46325 0.74347 0.88535
 H949 H 0.46146 0.73042 0.87555
 C950 C 0.44623 0.75114 0.89613
 H951 H 0.43148 0.74383 0.89473
 N952 N 0.48176 0.75281 0.88660
 C953 C 0.54242 0.72562 0.87550
 H954 H 0.54161 0.72415 0.85900
 C955 C 0.55984 0.71870 0.88585
 H956 H 0.57251 0.71185 0.87732
 C957 C 0.52690 0.73638 0.90679
 H958 H 0.51397 0.74318 0.91487
 C959 C 0.54410 0.72965 0.91776
 H960 H 0.54444 0.73134 0.93428
 Zn961 Zn 0.50412 0.74380 0.86996
 N962 N 0.52652 0.73451 0.88599
 C963 C 0.53183 0.77341 0.85454
 N964 N 0.51231 0.76638 0.85328
 C965 C 0.49810 0.77624 0.84143
 C966 C 0.50335 0.79394 0.83023
 C967 C 0.53770 0.79096 0.84359
 C968 C 0.49193 0.70370 0.86436
 C969 C 0.48536 0.68649 0.85395
 C970 C 0.48788 0.70580 0.82204
 C971 C 0.49444 0.72272 0.83308
 N972 N 0.49600 0.72144 0.85390
 H973 H 0.54277 0.76579 0.86443
 H974 H 0.48258 0.77057 0.84103
 H975 H 0.49190 0.80190 0.82108
 H976 H 0.55319 0.79660 0.84495
 H977 H 0.49352 0.70307 0.88087
 H978 H 0.48181 0.67254 0.86246
 H979 H 0.48632 0.70697 0.80552
 H980 H 0.49809 0.73684 0.82504
 C981 C 0.56076 0.72085 0.90714
 C982 C 0.44831 0.76859 0.90811
 C983 C 0.48316 0.68759 0.83264
 C984 C 0.52333 0.80139 0.83144
 C985 C 0.44969 -0.13712 0.31052
 C986 C 0.42947 -0.14031 0.29926
 C987 C 0.42167 -0.12282 0.29050
 C988 C 0.43486 -0.10383 0.29385
 C989 C 0.45631 -0.10978 0.28567
 C990 C 0.46412 -0.12730 0.29444
 C991 C 0.44497 -0.12007 0.32598
 C992 C 0.43717 -0.10258 0.31722
 C993 C 0.45791 -0.15593 0.32018
 C994 C 0.46433 -0.17123 0.32869
 C995 C 0.42621 -0.08504 0.28453
 C996 C 0.41851 -0.06982 0.27702
 H997 H 0.42194 -0.15501 0.29823
 H998 H 0.40747 -0.12255 0.28197
 H999 H 0.46463 -0.10102 0.27402
 H1000 H 0.47911 -0.13355 0.29031
 H1001 H 0.44754 -0.12160 0.34237
 H1002 H 0.43308 -0.08913 0.32611
 C1003 C 0.94884 0.36297 0.81128
 C1004 C 0.95481 0.38258 0.82241
 C1005 C 0.94706 0.40010 0.81365
 C1006 C 0.93409 0.39630 0.79460
 C1007 C 0.91756 0.38117 0.80187
 C1008 C 0.92531 0.36367 0.81063
 C1009 C 0.95593 0.36637 0.78891
 C1010 C 0.94817 0.38390 0.78014
 C1011 C 0.95701 0.34413 0.82093
 C1012 C 0.96339 0.32881 0.82941
 C1013 C 0.92548 0.41510 0.78527
 C1014 C 0.91782 0.43033 0.77774
 H1015 H 0.96432 0.38270 0.83598
 H1016 H 0.94992 0.41522 0.81970
 H1017 H 0.90119 0.38396 0.80027
 H1018 H 0.91557 0.35147 0.81652
 H1019 H 0.96614 0.35594 0.78070
 H1020 H 0.95173 0.38850 0.76441
 C1021 C 0.04196 1.14638 0.81251
 C1022 C 0.04195 1.14619 0.78893
 C1023 C 0.05009 1.12865 0.78084
 C1024 C 0.05743 1.11302 0.79711
 C1025 C 0.03867 1.10935 0.81113
 C1026 C 0.03054 1.12688 0.81922
 C1027 C 0.06439 1.14231 0.81841
 C1028 C 0.07252 1.12479 0.81032
 C1029 C 0.03328 1.16518 0.82144
 C1030 C 0.02619 1.18040 0.82930
 C1031 C 0.06636 1.09417 0.78850
 C1032 C 0.07416 1.07885 0.78154
 H1033 H 0.03608 1.15872 0.77945
 H1034 H 0.05117 1.12615 0.76440
 H1035 H 0.03232 1.09431 0.81439
 H1036 H 0.01722 1.12686 0.82942
 H1037 H 0.07314 1.15233 0.82808
 H1038 H 0.08822 1.11981 0.81307
 C1039 C 0.54212 0.64711 0.31117
 C1040 C 0.53165 0.64059 0.29135
 C1041 C 0.53971 0.62301 0.28323
 C1042 C 0.55745 0.61371 0.29574
 C1043 C 0.54867 0.61084 0.31756
 C1044 C 0.54062 0.62839 0.32567
 C1045 C 0.56499 0.64860 0.30548
 C1046 C 0.57304 0.63105 0.29738
 C1047 C 0.53352 0.66595 0.32011
 C1048 C 0.52650 0.68119 0.32798
 C1049 C 0.56631 0.59484 0.28710
 C1050 C 0.57406 0.57950 0.28013
 H1051 H 0.51902 0.64902 0.28432
 H1052 H 0.53399 0.61639 0.26925
 H1053 H 0.54875 0.59629 0.32591
 H1054 H 0.53380 0.62887 0.34097
 H1055 H 0.57406 0.66224 0.30762
 H1056 H 0.58902 0.62967 0.29257
 C1057 C 0.54174 0.36459 0.18914
 C1058 C 0.56526 0.36458 0.19005
 C1059 C 0.57299 0.38199 0.19807
 C1060 C 0.55646 0.39776 0.20440
 C1061 C 0.54216 0.38609 0.21929
 C1062 C 0.53441 0.36862 0.21125
 C1063 C 0.53601 0.38417 0.17700
 C1064 C 0.54375 0.40160 0.18502
 C1065 C 0.53370 0.34586 0.18016
 C1066 C 0.52761 0.33062 0.17203
 C1067 C 0.56519 0.41646 0.21280
 C1068 C 0.57324 0.43158 0.21925
 H1069 H 0.57500 0.35198 0.18488
 H1070 H 0.58935 0.38429 0.19975
 H1071 H 0.53843 0.39110 0.23474
 H1072 H 0.52405 0.35867 0.21982
 H1073 H 0.52665 0.38434 0.16332
 H1074 H 0.54101 0.41669 0.17823
 C1075 C 0.04141 0.86436 0.69022
 C1076 C 0.02764 0.87391 0.70697
 C1077 C 0.03547 0.89131 0.71508
 C1078 C 0.05627 0.89740 0.70560
 C1079 C 0.05258 0.89901 0.68241
 C1080 C 0.04478 0.88166 0.67433
 C1081 C 0.06235 0.86102 0.70033
 C1082 C 0.07016 0.87837 0.70841
 C1083 C 0.03329 0.84569 0.68117
 C1084 C 0.02714 0.83052 0.67298
 C1085 C 0.06507 0.91603 0.71407
 C1086 C 0.07318 0.93110 0.72056
 H1087 H 0.01307 0.86757 0.71202
 H1088 H 0.02760 0.89989 0.72706
 H1089 H 0.05578 0.91261 0.67314
 H1090 H 0.04130 0.88040 0.65813
 H1091 H 0.07033 0.84630 0.70112
 H1092 H 0.08483 0.87851 0.71612
 C1093 C 0.95115 0.64729 0.68756
 C1094 C 0.93555 0.65049 0.70513
 C1095 C 0.92707 0.63272 0.71231
 C1096 C 0.93502 0.61350 0.70120
 C1097 C 0.95845 0.61399 0.70325
 C1098 C 0.96694 0.63177 0.69607
 C1099 C 0.93950 0.63556 0.67120
 C1100 C 0.93103 0.61782 0.67836
 C1101 C 0.96018 0.66635 0.67956
 C1102 C 0.96749 0.68179 0.67232
 C1103 C 0.92566 0.59442 0.70874
 C1104 C 0.91739 0.57893 0.71463
 H1105 H 0.93155 0.66538 0.71141
 H1106 H 0.91579 0.63240 0.72473
 H1107 H 0.96756 0.60151 0.70977
 H1108 H 0.98333 0.63451 0.69645
 H1109 H 0.93803 0.64075 0.65535
 H1110 H 0.92231 0.60781 0.66865
 C1111 C 0.45189 0.14717 0.18710
 C1112 C 0.44001 0.14962 0.20746
 C1113 C 0.43151 0.13185 0.21461
 C1114 C 0.43573 0.11338 0.20070
 C1115 C 0.45919 0.11218 0.19837
 C1116 C 0.46769 0.12995 0.19121
 C1117 C 0.43648 0.13791 0.17233
 C1118 C 0.42800 0.12017 0.17947
 C1119 C 0.46093 0.16624 0.17912
 C1120 C 0.46824 0.18168 0.17188
 C1121 C 0.42635 0.09430 0.20822
 C1122 C 0.41807 0.07882 0.21410
 H1123 H 0.43843 0.16402 0.21554
 H1124 H 0.42265 0.13103 0.22884
 H1125 H 0.46831 0.09858 0.20203
 H1126 H 0.48410 0.13158 0.18874
 H1127 H 0.43257 0.14470 0.15754
 H1128 H 0.41683 0.11176 0.17080
 C1129 C 0.31063 0.44881 -0.13658
 C1130 C 0.31433 0.42565 -0.13367
 C1131 C 0.30558 0.41778 -0.11620
 C1132 C 0.29396 0.43383 -0.10333
 C1133 C 0.27845 0.44381 -0.11809
 C1134 C 0.28722 0.45168 -0.13559
 C1135 C 0.31847 0.45845 -0.11683
 C1136 C 0.30971 0.45057 -0.09935
 C1137 C 0.32029 0.45710 -0.15537
 C1138 C 0.32877 0.46360 -0.17067
 C1139 C 0.28463 0.42510 -0.08456
 C1140 C 0.27712 0.41735 -0.06935
 H1141 H 0.32306 0.41624 -0.14439
 H1142 H 0.30681 0.40164 -0.11198
 H1143 H 0.26203 0.44463 -0.11507
 H1144 H 0.27832 0.45925 -0.14755
 H1145 H 0.32989 0.47043 -0.11660
 H1146 H 0.31361 0.45580 -0.08415
 C1147 C 0.81031 0.94966 0.36292
 C1148 C 0.81549 0.92691 0.36686
 C1149 C 0.80679 0.91914 0.38439
 C1150 C 0.79375 0.93486 0.39631
 C1151 C 0.77805 0.94316 0.38077
 C1152 C 0.78676 0.95094 0.36321
 C1153 C 0.81688 0.96061 0.38246
 C1154 C 0.80817 0.95283 0.40001
 C1155 C 0.81991 0.95785 0.34406
 C1156 C 0.82835 0.96426 0.32871
 C1157 C 0.78448 0.92623 0.41515
 C1158 C 0.77701 0.91854 0.43041
 H1159 H 0.82514 0.91770 0.35675
 H1160 H 0.80901 0.90328 0.38930
 H1161 H 0.76156 0.94296 0.38335
 H1162 H 0.77774 0.95741 0.35074
 H1163 H 0.82742 0.97337 0.38249
 H1164 H 0.81126 0.95892 0.41508
 C1165 C 0.81219 0.04202 1.14668
 C1166 C 0.82774 0.05390 1.13335
 C1167 C 0.81966 0.06196 1.11577
 C1168 C 0.79680 0.05737 1.11321
 C1169 C 0.78632 0.06531 1.13288
 C1170 C 0.79441 0.05724 1.15048
 C1171 C 0.80346 0.02583 1.13241
 C1172 C 0.79536 0.03390 1.11480
 C1173 C 0.82111 0.03339 1.16555
 C1174 C 0.82898 0.02636 1.18082
 C1175 C 0.78819 0.06624 1.09431
 C1176 C 0.78123 0.07401 1.07893
 H1177 H 0.84371 0.05581 1.13737
 H1178 H 0.82871 0.07077 1.10474
 H1179 H 0.77364 0.07629 1.13297
 H1180 H 0.78867 0.06130 1.16563
 H1181 H 0.80360 0.00947 1.13583
 H1182 H 0.78858 0.02447 1.10315
 C1183 C 0.31183 0.54239 0.64677
 C1184 C 0.28935 0.53661 0.64353
 C1185 C 0.28123 0.54475 0.62596
 C1186 C 0.29641 0.55786 0.61337
 C1187 C 0.31508 0.54375 0.60958
 C1188 C 0.32318 0.53562 0.62714
 C1189 C 0.31197 0.56593 0.64589
 C1190 C 0.30386 0.57406 0.62834
 C1191 C 0.32077 0.53371 0.66561
 C1192 C 0.32864 0.52664 0.68085
 C1193 C 0.28778 0.56679 0.59450
 C1194 C 0.28081 0.57459 0.57916
 H1195 H 0.28058 0.52699 0.65409
 H1196 H 0.26551 0.54209 0.62146
 H1197 H 0.32137 0.54042 0.59445
 H1198 H 0.33642 0.52532 0.62703
 H1199 H 0.31789 0.57540 0.65800
 H1200 H 0.30286 0.59048 0.62542
 C1201 C 0.18958 0.54175 0.36447
 C1202 C 0.17332 0.54797 0.38057
 C1203 C 0.18136 0.55579 0.39795
 C1204 C 0.20488 0.55665 0.39756
 C1205 C 0.21033 0.56894 0.37798
 C1206 C 0.20229 0.56111 0.36060
 C1207 C 0.20404 0.52674 0.37578
 C1208 C 0.21209 0.53459 0.39321
 C1209 C 0.18058 0.53361 0.34577
 C1210 C 0.17243 0.52746 0.33057
 C1211 C 0.21330 0.56547 0.41622
 C1212 C 0.21976 0.57359 0.43130
 H1213 H 0.15692 0.54634 0.37852
 H1214 H 0.17184 0.56085 0.41077
 H1215 H 0.21973 0.58258 0.37779
 H1216 H 0.20480 0.56804 0.34552
 H1217 H 0.20763 0.51134 0.37056
 H1218 H 0.22259 0.52591 0.40293
 C1219 C 0.68967 0.04143 0.86417
 C1220 C 0.71285 0.03738 0.86607
 C1221 C 0.72100 0.04516 0.88348
 C1222 C 0.70515 0.05621 0.89724
 C1223 C 0.68831 0.04040 0.90146
 C1224 C 0.68018 0.03263 0.88408
 C1225 C 0.68703 0.06478 0.86588
 C1226 C 0.69516 0.07253 0.88324
 C1227 C 0.68058 0.03336 0.84549
 C1228 C 0.67234 0.02725 0.83031
 C1229 C 0.71366 0.06497 0.91588
 C1230 C 0.72019 0.07305 0.93096
 H1231 H 0.72203 0.02913 0.85478
 H1232 H 0.73716 0.04357 0.88710
 H1233 H 0.68326 0.03568 0.91675
 H1234 H 0.66815 0.02125 0.88449
 H1235 H 0.67946 0.07439 0.85444
 H1236 H 0.69453 0.08879 0.88665
 C1237 C 0.68752 0.95180 0.64770
 C1238 C 0.67742 0.93137 0.64270
 C1239 C 0.68449 0.92290 0.62492
 C1240 C 0.70099 0.93569 0.61384
 C1241 C 0.71775 0.93861 0.62986
 C1242 C 0.71067 0.94708 0.64767
 C1243 C 0.68408 0.96551 0.62863
 C1244 C 0.69116 0.95703 0.61083
 C1245 C 0.67961 0.96083 0.66680
 C1246 C 0.67243 0.96813 0.68226
 C1247 C 0.70843 0.92634 0.59472
 C1248 C 0.71424 0.91807 0.57920
 H1249 H 0.66573 0.92415 0.65230
 H1250 H 0.67885 0.90845 0.61929
 H1251 H 0.73377 0.93440 0.62742
 H1252 H 0.72061 0.95014 0.66049
 H1253 H 0.67675 0.98056 0.62908
 H1254 H 0.68990 0.96481 0.59603
 C1255 C 0.18714 0.45103 0.14741
 C1256 C 0.19039 0.46665 0.12982
 C1257 C 0.19753 0.45809 0.11208
 C1258 C 0.20073 0.43474 0.11368
 C1259 C 0.17993 0.42637 0.12098
 C1260 C 0.17279 0.43492 0.13869
 C1261 C 0.20792 0.43994 0.14973
 C1262 C 0.21507 0.43137 0.13199
 C1263 C 0.17917 0.46015 0.16644
 C1264 C 0.17195 0.46752 0.18185
 C1265 C 0.20824 0.42530 0.09464
 C1266 C 0.21411 0.41697 0.07918
 H1267 H 0.18736 0.48301 0.13118
 H1268 H 0.20063 0.46709 0.09825
 H1269 H 0.17153 0.41473 0.11294
 H1270 H 0.15828 0.43061 0.14581
 H1271 H 0.21629 0.43892 0.16403
 H1272 H 0.22958 0.42301 0.13109
 C1273 C -0.13663 0.31080 0.44926
 C1274 C -0.12523 0.29704 0.46483
 C1275 C -0.10772 0.28824 0.45706
 C1276 C -0.10335 0.29407 0.43450
 C1277 C -0.10319 0.31762 0.43394
 C1278 C -0.12067 0.32640 0.44169
 C1279 C -0.14030 0.29704 0.43077
 C1280 C -0.12282 0.28825 0.42302
 C1281 C -0.15543 0.32049 0.45743
 C1282 C -0.17073 0.32898 0.46382
 C1283 C -0.08458 0.28471 0.42588
 C1284 C -0.06937 0.27716 0.41820
 H1285 H -0.13045 0.29444 0.48054
 H1286 H -0.09793 0.27810 0.46612
 H1287 H -0.09046 0.32661 0.42800
 H1288 H -0.12290 0.34292 0.44238
 H1289 H -0.15532 0.29440 0.42436
 H1290 H -0.12287 0.27808 0.40995
 C1291 C 0.36319 0.81112 0.94898
 C1292 C 0.37518 0.79828 0.96487
 C1293 C 0.39271 0.78949 0.95713
 C1294 C 0.39650 0.79442 0.93426
 C1295 C 0.39617 0.81793 0.93267
 C1296 C 0.37867 0.82671 0.94040
 C1297 C 0.35943 0.79647 0.93122
 C1298 C 0.37693 0.78769 0.92349
 C1299 C 0.34437 0.82079 0.95714
 C1300 C 0.32906 0.82928 0.96351
 C1301 C 0.41529 0.78507 0.92567
 C1302 C 0.43051 0.77752 0.91801
 H1303 H 0.37033 0.79627 0.98079
 H1304 H 0.40287 0.77996 0.96640
 H1305 H 0.40860 0.82692 0.92607
 H1306 H 0.37612 0.84321 0.94042
 H1307 H 0.34434 0.79324 0.92526
 H1308 H 0.37683 0.77695 0.91090
 C1309 C 1.14654 0.81234 0.04175
 C1310 C 1.14233 0.79055 0.03435
 C1311 C 1.12477 0.78239 0.04242
 C1312 C 1.11314 0.79683 0.05708
 C1313 C 1.10954 0.81666 0.04457
 C1314 C 1.12709 0.82481 0.03651
 C1315 C 1.14643 0.81062 0.06528
 C1316 C 1.12889 0.80247 0.07334
 C1317 C 1.16537 0.82132 0.03313
 C1318 C 1.18061 0.82923 0.02611
 C1319 C 1.09428 0.78815 0.06595
 C1320 C 1.07894 0.78114 0.07371
 H1321 H 1.15227 0.78226 0.02372
 H1322 H 1.11965 0.76711 0.03869
 H1323 H 1.09453 0.82367 0.04223
 H1324 H 1.12710 0.83881 0.02726
 H1325 H 1.15904 0.81536 0.07478
 H1326 H 1.12647 0.80024 0.08975
 C1327 C 0.64667 0.31206 0.54187
 C1328 C 0.64245 0.29028 0.53446
 C1329 C 0.62489 0.28212 0.54254
 C1330 C 0.61328 0.29656 0.55722
 C1331 C 0.60968 0.31640 0.54473
 C1332 C 0.62723 0.32454 0.53666
 C1333 C 0.64658 0.31032 0.56540
 C1334 C 0.62904 0.30217 0.57347
 C1335 C 0.66551 0.32104 0.53326
 C1336 C 0.68075 0.32894 0.52624
 C1337 C 0.59442 0.28788 0.56610
 C1338 C 0.57909 0.28088 0.57387
 H1339 H 0.65237 0.28199 0.52382
 H1340 H 0.61976 0.26685 0.53881
 H1341 H 0.59467 0.32342 0.54240
 H1342 H 0.62724 0.33855 0.52742
 H1343 H 0.65920 0.31505 0.57490
 H1344 H 0.62664 0.29993 0.58988
 C1345 C 0.36446 0.18925 0.54149
 C1346 C 0.36064 0.20198 0.56085
 C1347 C 0.37802 0.21007 0.56861
 C1348 C 0.39755 0.20465 0.55628
 C1349 C 0.39311 0.21181 0.53418
 C1350 C 0.37569 0.20370 0.52640
 C1351 C 0.38061 0.17304 0.54772
 C1352 C 0.39798 0.18113 0.55549
 C1353 C 0.34577 0.18020 0.53342
 C1354 C 0.33058 0.17200 0.52731
 C1355 C 0.41621 0.21312 0.56504
 C1356 C 0.43129 0.21963 0.57311
 H1357 H 0.34559 0.20447 0.56781
 H1358 H 0.37786 0.21949 0.58224
 H1359 H 0.40277 0.22231 0.52544
 H1360 H 0.37042 0.20726 0.51099
 H1361 H 0.37858 0.15663 0.54614
 H1362 H 0.41083 0.17164 0.56055
 C1363 C 0.86422 0.68935 0.04167
 C1364 C 0.86045 0.70210 0.06101
 C1365 C 0.87786 0.71021 0.06871
 C1366 C 0.89735 0.70478 0.05632
 C1367 C 0.89283 0.71192 0.03423
 C1368 C 0.87538 0.70379 0.02652
 C1369 C 0.88039 0.67316 0.04786
 C1370 C 0.89778 0.68126 0.05555
 C1371 C 0.84550 0.68028 0.03367
 C1372 C 0.83028 0.67208 0.02762
 C1373 C 0.91602 0.71327 0.06501
 C1374 C 0.93112 0.71980 0.07304
 H1375 H 0.84543 0.70459 0.06803
 H1376 H 0.87773 0.71965 0.08233
 H1377 H 0.90246 0.72241 0.02545
 H1378 H 0.87006 0.70732 0.01112
 H1379 H 0.87837 0.65674 0.04631
 H1380 H 0.91065 0.67179 0.06058
 C1381 C 0.64709 0.68683 0.95170
 C1382 C 0.63728 0.67172 0.93699
 C1383 C 0.61957 0.67892 0.92849
 C1384 C 0.61336 0.70054 0.93551
 C1385 C 0.63208 0.71388 0.93052
 C1386 C 0.64982 0.70667 0.93903
 C1387 C 0.63018 0.69186 0.96758
 C1388 C 0.61244 0.69907 0.95906
 C1389 C 0.66612 0.67879 0.96076
 C1390 C 0.68153 0.67153 0.96810
 C1391 C 0.59432 0.70811 0.92612
 C1392 C 0.57886 0.71404 0.91782
 H1393 H 0.64368 0.65667 0.93355
 H1394 H 0.61080 0.67003 0.91778
 H1395 H 0.63146 0.72778 0.92114
 H1396 H 0.66439 0.71439 0.93695
 H1397 H 0.63199 0.68995 0.98405
 H1398 H 0.59905 0.70334 0.96823
 C1399 C 0.14738 0.18660 0.45131
 C1400 C 0.12983 0.18965 0.46701
 C1401 C 0.11207 0.19685 0.45853
 C1402 C 0.11360 0.20029 0.43519
 C1403 C 0.12092 0.17960 0.42660
 C1404 C 0.13865 0.17241 0.43507
 C1405 C 0.14962 0.20750 0.44040
 C1406 C 0.13186 0.21470 0.43192
 C1407 C 0.16643 0.17858 0.46034
 C1408 C 0.18185 0.17133 0.46766
 C1409 C 0.09454 0.20786 0.42584
 C1410 C 0.07905 0.21378 0.41758
 H1411 H 0.13124 0.18646 0.48335
 H1412 H 0.09826 0.19982 0.46759
 H1413 H 0.11287 0.17131 0.41489
 H1414 H 0.14578 0.15797 0.43060
 H1415 H 0.16389 0.21591 0.43944
 H1416 H 0.13091 0.22929 0.42369
 C1417 C 0.56045 0.10959 0.71048
 C1418 C 0.53747 0.10793 0.70593
 C1419 C 0.52941 0.12500 0.69655
 C1420 C 0.54513 0.14203 0.69266
 C1421 C 0.56260 0.13180 0.68034
 C1422 C 0.57064 0.11477 0.68970
 C1423 C 0.56231 0.12914 0.72317
 C1424 C 0.55424 0.14621 0.71379
 C1425 C 0.56945 0.09124 0.72027
 C1426 C 0.57757 0.07622 0.72771
 C1427 C 0.53674 0.16034 0.68227
 C1428 C 0.53040 0.17526 0.67310
 H1429 H 0.52835 0.09455 0.70976
 H1430 H 0.51337 0.12626 0.69234
 H1431 H 0.56817 0.13744 0.66554
 H1432 H 0.58310 0.10583 0.68291
 H1433 H 0.56929 0.12954 0.73820
 H1434 H 0.55432 0.16123 0.72079
 C1435 C 1.06014 0.60952 0.20997
 C1436 C 1.06691 0.62964 0.21965
 C1437 C 1.05888 0.64676 0.21035
 C1438 C 1.04489 0.64206 0.19227
 C1439 C 1.02855 0.62757 0.20122
 C1440 C 1.03658 0.61043 0.21054
 C1441 C 1.06607 0.61164 0.18715
 C1442 C 1.05806 0.62872 0.17786
 C1443 C 1.06911 0.59112 0.21969
 C1444 C 1.07721 0.57607 0.22708
 C1445 C 1.03654 0.66043 0.18195
 C1446 C 1.03023 0.67538 0.17282
 H1447 H 1.07706 0.63038 0.23270
 H1448 H 1.06216 0.66216 0.21542
 H1449 H 1.01214 0.63051 0.20034
 H1450 H 1.02706 0.59869 0.21764
 H1451 H 1.07571 0.60065 0.17899
 H1452 H 1.06084 0.63236 0.16174
 C1453 C 0.94619 0.88941 0.20733
 C1454 C 0.95446 0.89381 0.18555
 C1455 C 0.96297 0.87705 0.17631
 C1456 C 0.96237 0.85752 0.18976
 C1457 C 0.93968 0.85494 0.19573
 C1458 C 0.93119 0.87168 0.20496
 C1459 C 0.96447 0.88006 0.21902
 C1460 C 0.97299 0.86326 0.20976
 C1461 C 0.93661 0.90738 0.21701
 C1462 C 0.92786 0.92197 0.22441
 C1463 C 0.97109 0.83943 0.17955
 C1464 C 0.97736 0.82449 0.17061
 H1465 H 0.95376 0.90880 0.17806
 H1466 H 0.96954 0.87768 0.16091
 H1467 H 0.93104 0.84113 0.19299
 H1468 H 0.91527 0.87221 0.21012
 H1469 H 0.97021 0.88610 0.23326
 H1470 H 0.98604 0.85490 0.21606
 C1471 C 0.44645 0.38915 0.70768
 C1472 C 0.45675 0.39404 0.68687
 C1473 C 0.46523 0.37729 0.67758
 C1474 C 0.46257 0.35729 0.69001
 C1475 C 0.43937 0.35564 0.69391
 C1476 C 0.43091 0.37236 0.70318
 C1477 C 0.46319 0.37838 0.72044
 C1478 C 0.47168 0.36159 0.71113
 C1479 C 0.43690 0.40711 0.71741
 C1480 C 0.42817 0.42168 0.72486
 C1481 C 0.47127 0.33921 0.67975
 C1482 C 0.47752 0.32428 0.67079
 H1483 H 0.45739 0.40933 0.68006
 H1484 H 0.47313 0.37823 0.66281
 H1485 H 0.43037 0.34245 0.68977
 H1486 H 0.41466 0.37350 0.70699
 H1487 H 0.46796 0.38349 0.73541
 H1488 H 0.48373 0.35232 0.71813
 C1489 C 0.44290 0.60413 0.79108
 C1490 C 0.45183 0.60109 0.81261
 C1491 C 0.46047 0.61826 0.82015
 C1492 C 0.45936 0.63685 0.80545
 C1493 C 0.43649 0.63953 0.80058
 C1494 C 0.42784 0.62234 0.79303
 C1495 C 0.46076 0.61225 0.77778
 C1496 C 0.46943 0.62949 0.78535
 C1497 C 0.43332 0.58557 0.78337
 C1498 C 0.42491 0.57026 0.77790
 C1499 C 0.46844 0.65527 0.81403
 C1500 C 0.47541 0.67017 0.82202
 H1501 H 0.45144 0.58667 0.82118
 H1502 H 0.46749 0.61856 0.83518
 H1503 H 0.42786 0.65371 0.80281
 H1504 H 0.41180 0.62179 0.78880
 H1505 H 0.46610 0.60511 0.76368
 H1506 H 0.48221 0.63712 0.77774
 C1507 C -0.05733 0.10430 0.29055
 C1508 C -0.04842 0.10113 0.31208
 C1509 C -0.03973 0.11824 0.31971
 C1510 C -0.04078 0.13690 0.30508
 C1511 C -0.06364 0.13967 0.30022
 C1512 C -0.07234 0.12254 0.29258
 C1513 C -0.03944 0.11242 0.27730
 C1514 C -0.03072 0.12960 0.28495
 C1515 C -0.06696 0.08580 0.28276
 C1516 C -0.07542 0.07054 0.27724
 C1517 C -0.03165 0.15525 0.31375
 C1518 C -0.02464 0.17010 0.32181
 H1519 H -0.04886 0.08668 0.32058
 H1520 H -0.03272 0.11845 0.33474
 H1521 H -0.07223 0.15386 0.30251
 H1522 H -0.08838 0.12206 0.28834
 H1523 H -0.03412 0.10534 0.26317
 H1524 H -0.01792 0.13723 0.27739
 C1525 C 0.05761 0.38966 0.29168
 C1526 C 0.05953 0.37204 0.27633
 C1527 C 0.05164 0.35400 0.28357
 C1528 C 0.04263 0.35539 0.30542
 C1529 C 0.02676 0.37301 0.30444
 C1530 C 0.03465 0.39105 0.29720
 C1531 C 0.06796 0.38152 0.31124
 C1532 C 0.06010 0.36355 0.31845
 C1533 C 0.06651 0.40901 0.28431
 C1534 C 0.07466 0.42477 0.27909
 C1535 C 0.03458 0.33599 0.31364
 C1536 C 0.02888 0.32007 0.32129
 H1537 H 0.06641 0.37360 0.26112
 H1538 H 0.05177 0.34011 0.27456
 H1539 H 0.01075 0.37144 0.30897
 H1540 H 0.02541 0.40494 0.29553
 H1541 H 0.08040 0.38922 0.31880
 H1542 H 0.06582 0.35586 0.33218
 C1543 C 0.55807 0.88980 0.79189
 C1544 C 0.54420 0.89226 0.81096
 C1545 C 0.53626 0.87426 0.81813
 C1546 C 0.54296 0.85555 0.80552
 C1547 C 0.56650 0.85589 0.80535
 C1548 C 0.57443 0.87386 0.79819
 C1549 C 0.54480 0.87892 0.77617
 C1550 C 0.53683 0.86086 0.78335
 C1551 C 0.56703 0.90915 0.78459
 C1552 C 0.57523 0.92491 0.77943
 C1553 C 0.53484 0.83615 0.81367
 C1554 C 0.52909 0.82024 0.82129
 H1555 H 0.54086 0.90687 0.81817
 H1556 H 0.52611 0.87345 0.83147
 H1557 H 0.57612 0.84309 0.81037
 H1558 H 0.59084 0.87646 0.79710
 H1559 H 0.54189 0.88486 0.76080
 H1560 H 0.52710 0.85133 0.77414
 C1561 C 0.71023 0.56075 0.10864
 C1562 C 0.70217 0.57701 0.12364
 C1563 C 0.69286 0.56897 0.14072
 C1564 C 0.69250 0.54543 0.14116
 C1565 C 0.71505 0.53866 0.13859
 C1566 C 0.72439 0.54673 0.12146
 C1567 C 0.69155 0.54758 0.10394
 C1568 C 0.68224 0.53953 0.12103
 C1569 C 0.71996 0.56975 0.09025
 C1570 C 0.72735 0.57791 0.07520
 C1571 C 0.68217 0.53705 0.15951
 C1572 C 0.67303 0.53072 0.17447
 H1573 H 0.70367 0.59343 0.12109
 H1574 H 0.68639 0.57850 0.15279
 H1575 H 0.72296 0.52844 0.14925
 H1576 H 0.74030 0.54342 0.11744
 H1577 H 0.68615 0.54479 0.08854
 H1578 H 0.66885 0.52984 0.12028
 C1579 C 0.21020 1.05964 0.60976
 C1580 C 0.21331 1.03634 0.61226
 C1581 C 0.20399 1.02835 0.62943
 C1582 C 0.19252 1.04447 0.64237
 C1583 C 0.17757 1.05510 0.62749
 C1584 C 0.18686 1.06307 0.61037
 C1585 C 0.21789 1.06870 0.62985
 C1586 C 0.20859 1.06072 0.64700
 C1587 C 0.21992 1.06857 0.59132
 C1588 C 0.22730 1.07664 0.57623
 C1589 C 0.18221 1.03617 0.66078
 C1590 C 0.17308 1.02990 0.67577
 H1591 H 0.22205 1.02697 0.60152
 H1592 H 0.20476 1.01213 0.63341
 H1593 H 0.16111 1.05625 0.63016
 H1594 H 0.17835 1.07104 0.59838
 H1595 H 0.22964 1.08032 0.63055
 H1596 H 0.21237 1.06550 0.66238
 C1597 C 0.20805 0.94596 0.88999
 C1598 C 0.22146 0.96156 0.87829
 C1599 C 0.21215 0.97010 0.86151
 C1600 C 0.19037 0.96219 0.85812
 C1601 C 0.17878 0.96618 0.87838
 C1602 C 0.18807 0.95765 0.89514
 C1603 C 0.20207 0.93025 0.87386
 C1604 C 0.19279 0.93877 0.85714
 C1605 C 0.21778 0.93634 0.90794
 C1606 C 0.22521 0.92753 0.92251
 C1607 C 0.18011 0.97094 0.84004
 C1608 C 0.17113 0.97722 0.82510
 H1609 H 0.23687 0.96555 0.88281
 H1610 H 0.21958 0.98142 0.85164
 H1611 H 0.16455 0.97499 0.87948
 H1612 H 0.18181 0.95915 0.91059
 H1613 H 0.20490 0.91385 0.87543
 H1614 H 0.18768 0.92966 0.84439
 C1615 C 0.70782 0.44683 0.38874
 C1616 C 0.72122 0.46245 0.37705
 C1617 C 0.71192 0.47095 0.36024
 C1618 C 0.69017 0.46298 0.35682
 C1619 C 0.67852 0.46697 0.37706
 C1620 C 0.68781 0.45848 0.39384
 C1621 C 0.70191 0.43109 0.37263
 C1622 C 0.69264 0.43957 0.35588
 C1623 C 0.71754 0.43727 0.40673
 C1624 C 0.72498 0.42853 0.42133
 C1625 C 0.67991 0.47169 0.33872
 C1626 C 0.67095 0.47795 0.32376
 H1627 H 0.73660 0.46648 0.38159
 H1628 H 0.71933 0.48227 0.35037
 H1629 H 0.66428 0.47575 0.37813
 H1630 H 0.68151 0.45999 0.40928
 H1631 H 0.70478 0.41470 0.37422
 H1632 H 0.68757 0.43043 0.34313
 C1633 C 0.79096 0.44308 0.60412
 C1634 C 0.77563 0.45762 0.61488
 C1635 C 0.78320 0.46626 0.63214
 C1636 C 0.80533 0.45949 0.63690
 C1637 C 0.81772 0.46459 0.61731
 C1638 C 0.81017 0.45597 0.60010
 C1639 C 0.79725 0.42734 0.62072
 C1640 C 0.80480 0.43596 0.63793
 C1641 C 0.78326 0.43353 0.58553
 C1642 C 0.77779 0.42514 0.57020
 C1643 C 0.81390 0.46853 0.65535
 C1644 C 0.82188 0.47547 0.67028
 H1645 H 0.76023 0.46083 0.60942
 H1646 H 0.77429 0.47688 0.64149
 H1647 H 0.83122 0.47418 0.61698
 H1648 H 0.81721 0.45818 0.58503
 H1649 H 0.79586 0.41086 0.61911
 H1650 H 0.80986 0.42686 0.65106
 C1651 C 0.29107 -0.05663 0.10368
 C1652 C 0.27581 -0.04208 0.11451
 C1653 C 0.28346 -0.03348 0.13176
 C1654 C 0.30559 -0.04031 0.13643
 C1655 C 0.31793 -0.03520 0.11681
 C1656 C 0.31031 -0.04377 0.09961
 C1657 C 0.29738 -0.07241 0.12022
 C1658 C 0.30501 -0.06384 0.13743
 C1659 C 0.28329 -0.06613 0.08510
 C1660 C 0.27777 -0.07450 0.06977
 C1661 C 0.31424 -0.03132 0.15487
 C1662 C 0.32229 -0.02443 0.16980
 H1663 H 0.26040 -0.03882 0.10911
 H1664 H 0.27460 -0.02286 0.14116
 H1665 H 0.33145 -0.02564 0.11646
 H1666 H 0.31730 -0.04155 0.08452
 H1667 H 0.29595 -0.08888 0.11859
 H1668 H 0.31009 -0.07297 0.15052
 C1669 C 0.29185 0.05708 0.38966
 C1670 C 0.30449 0.03720 0.39244
 C1671 C 0.31175 0.02933 0.37442
 C1672 C 0.30566 0.04212 0.35541
 C1673 C 0.31323 0.06383 0.35962
 C1674 C 0.30599 0.07168 0.37759
 C1675 C 0.27487 0.05169 0.37460
 C1676 C 0.28214 0.04381 0.35656
 C1677 C 0.28445 0.06597 0.40900
 C1678 C 0.27922 0.07411 0.42477
 C1679 C 0.31391 0.03408 0.33602
 C1680 C 0.32160 0.02841 0.32011
 H1681 H 0.30742 0.02992 0.40723
 H1682 H 0.32090 0.01530 0.37377
 H1683 H 0.32340 0.07232 0.34935
 H1684 H 0.30996 0.08689 0.38270
 H1685 H 0.25860 0.05382 0.37783
 H1686 H 0.27210 0.03918 0.34433
 C1687 C 0.79122 0.55710 0.89022
 C1688 C 0.80243 0.53637 0.89280
 C1689 C 0.80967 0.52851 0.87477
 C1690 C 0.80498 0.54216 0.85594
 C1691 C 0.81386 0.56316 0.86097
 C1692 C 0.80664 0.57100 0.87895
 C1693 C 0.77435 0.55328 0.87454
 C1694 C 0.78159 0.54541 0.85648
 C1695 C 0.78385 0.56598 0.90958
 C1696 C 0.77865 0.57412 0.92535
 C1697 C 0.81320 0.53413 0.83654
 C1698 C 0.82088 0.52847 0.82062
 H1699 H 0.80445 0.52853 0.90748
 H1700 H 0.81789 0.51393 0.87399
 H1701 H 0.82486 0.57120 0.85122
 H1702 H 0.81148 0.58574 0.88460
 H1703 H 0.75816 0.55642 0.87737
 H1704 H 0.77161 0.54180 0.84385
 C1705 C 0.10921 0.71046 0.56027
 C1706 C 0.12190 0.69846 0.57621
 C1707 C 0.13898 0.68920 0.56818
 C1708 C 0.14174 0.69283 0.54497
 C1709 C 0.14144 0.71626 0.54208
 C1710 C 0.12431 0.72555 0.55013
 C1711 C 0.10457 0.69487 0.54356
 C1712 C 0.12167 0.68560 0.53552
 C1713 C 0.09081 0.72014 0.56926
 C1714 C 0.07576 0.72749 0.57739
 C1715 C 0.16010 0.68254 0.53660
 C1716 C 0.17506 0.67344 0.53027
 H1717 H 0.11783 0.69734 0.59241
 H1718 H 0.14954 0.68016 0.57750
 H1719 H 0.15358 0.72479 0.53438
 H1720 H 0.12177 0.74204 0.54933
 H1721 H 0.08920 0.69145 0.53846
 H1722 H 0.12096 0.67423 0.52353
 C1723 C 0.60987 0.21008 1.05976
 C1724 C 0.62206 0.19737 1.07555
 C1725 C 0.63913 0.18808 1.06754
 C1726 C 0.64238 0.19238 1.04451
 C1727 C 0.64252 0.21588 1.04235
 C1728 C 0.62539 0.22520 1.05038
 C1729 C 0.60528 0.19512 1.04247
 C1730 C 0.62238 0.18581 1.03445
 C1731 C 0.59147 0.21980 1.06872
 C1732 C 0.57642 0.22718 1.07683
 C1733 C 0.66074 0.18206 1.03616
 C1734 C 0.67568 0.17293 1.02985
 H1735 H 0.61767 0.19581 1.09164
 H1736 H 0.64936 0.17857 1.07678
 H1737 H 0.65493 0.22443 1.03515
 H1738 H 0.62313 0.24174 1.05006
 H1739 H 0.58996 0.19213 1.03697
 H1740 H 0.62171 0.17485 1.02208
 C1741 C 0.88978 0.20758 0.94582
 C1742 C 0.88582 0.18617 0.93732
 C1743 C 0.86909 0.17693 0.94583
 C1744 C 0.85790 0.18996 0.96203
 C1745 C 0.85291 0.21039 0.95104
 C1746 C 0.86968 0.21965 0.94252
 C1747 C 0.89118 0.20440 0.96918
 C1748 C 0.87438 0.19512 0.97772
 C1749 C 0.90775 0.21729 0.93621
 C1750 C 0.92233 0.22471 0.92743
 C1751 C 0.83980 0.17973 0.97077
 C1752 C 0.82486 0.17079 0.97706
 H1753 H 0.89536 0.17889 0.92564
 H1754 H 0.86430 0.16173 0.94144
 H1755 H 0.83757 0.21702 0.95009
 H1756 H 0.86870 0.23422 0.93426
 H1757 H 0.90417 0.20905 0.97821
 H1758 H 0.87298 0.19182 0.99407
 C1759 C 0.38913 0.70827 0.44600
 C1760 C 0.38563 0.68653 0.43812
 C1761 C 0.36889 0.67730 0.44664
 C1762 C 0.35724 0.69068 0.46223
 C1763 C 0.35215 0.71068 0.45052
 C1764 C 0.36892 0.71993 0.44199
 C1765 C 0.39016 0.70585 0.46947
 C1766 C 0.37336 0.69659 0.47802
 C1767 C 0.40710 0.71796 0.43639
 C1768 C 0.42169 0.72537 0.42763
 C1769 C 0.33914 0.68046 0.47099
 C1770 C 0.32420 0.67152 0.47729
 H1771 H 0.39547 0.67902 0.42684
 H1772 H 0.36440 0.66189 0.44266
 H1773 H 0.33674 0.71705 0.44911
 H1774 H 0.36788 0.73422 0.43326
 H1775 H 0.40291 0.71098 0.47855
 H1776 H 0.37172 0.69377 0.49443
 C1777 C 0.60407 0.79142 0.44263
 C1778 C 0.59970 0.80287 0.46270
 C1779 C 0.61685 0.81046 0.47145
 C1780 C 0.63669 0.80585 0.45927
 C1781 C 0.63275 0.81437 0.43757
 C1782 C 0.61563 0.80679 0.42883
 C1783 C 0.62008 0.77482 0.44823
 C1784 C 0.63726 0.78242 0.45699
 C1785 C 0.58557 0.78368 0.43296
 C1786 C 0.57030 0.77820 0.42447
 C1787 C 0.65505 0.81446 0.46845
 C1788 C 0.66992 0.82246 0.47549
 H1789 H 0.58449 0.80480 0.46947
 H1790 H 0.61633 0.81889 0.48571
 H1791 H 0.64258 0.82538 0.42972
 H1792 H 0.61081 0.81132 0.41351
 H1793 H 0.61809 0.75857 0.44557
 H1794 H 0.65000 0.77268 0.46184
 C1795 C 0.10349 0.29034 -0.05632
 C1796 C 0.09932 0.30182 -0.03624
 C1797 C 0.11656 0.30939 -0.02765
 C1798 C 0.13628 0.30473 -0.03998
 C1799 C 0.13218 0.31323 -0.06166
 C1800 C 0.11497 0.30568 -0.07024
 C1801 C 0.11952 0.27372 -0.05085
 C1802 C 0.13679 0.28130 -0.04224
 C1803 C 0.08489 0.28263 -0.06583
 C1804 C 0.06956 0.27717 -0.07422
 C1805 C 0.15475 0.31331 -0.03098
 C1806 C 0.16969 0.32130 -0.02408
 H1807 H 0.08417 0.30379 -0.02934
 H1808 H 0.11618 0.31784 -0.01340
 H1809 H 0.14197 0.32421 -0.06961
 H1810 H 0.11002 0.31020 -0.08553
 H1811 H 0.11748 0.25747 -0.05346
 H1812 H 0.14955 0.27154 -0.03748
 C1813 C 0.38974 0.29106 0.05759
 C1814 C 0.37070 0.28295 0.06904
 C1815 C 0.35265 0.29011 0.06120
 C1816 C 0.35541 0.30469 0.04267
 C1817 C 0.36857 0.29256 0.02716
 C1818 C 0.38666 0.28538 0.03503
 C1819 C 0.38745 0.31451 0.05804
 C1820 C 0.36943 0.32166 0.05021
 C1821 C 0.40913 0.28376 0.06645
 C1822 C 0.42494 0.27862 0.07457
 C1823 C 0.33597 0.31284 0.03466
 C1824 C 0.32003 0.32046 0.02899
 H1825 H 0.37133 0.27244 0.08212
 H1826 H 0.33783 0.28574 0.06756
 H1827 H 0.36407 0.28984 0.01145
 H1828 H 0.39768 0.27651 0.02605
 H1829 H 0.39900 0.32463 0.06396
 H1830 H 0.36556 0.33791 0.04943
 C1831 C 0.88943 0.79189 0.55787
 C1832 C 0.87034 0.78487 0.56998
 C1833 C 0.85237 0.79213 0.56206
 C1834 C 0.85523 0.80570 0.54279
 C1835 C 0.86782 0.79246 0.52774
 C1836 C 0.88584 0.78519 0.53569
 C1837 C 0.88779 0.81539 0.55717
 C1838 C 0.86984 0.82264 0.54926
 C1839 C 0.90874 0.78449 0.56682
 C1840 C 0.92448 0.77925 0.57501
 C1841 C 0.83587 0.81395 0.53469
 C1842 C 0.81998 0.82164 0.52897
 H1843 H 0.87089 0.77501 0.58355
 H1844 H 0.83752 0.78849 0.56884
 H1845 H 0.86301 0.78910 0.51227
 H1846 H 0.89648 0.77558 0.52702
 H1847 H 0.89972 0.82548 0.56240
 H1848 H 0.86641 0.83894 0.54771
   
