data_POSCAR
  _audit_creation_date              2014-09-24
  _audit_creation_method            'ToBaCCo'
  _symmetry_space_group_name_H-M    'P1'
  _symmetry_Int_Tables_number       1
  _symmetry_cell_setting            triclinic
  loop_
  _symmetry_equiv_pos_as_xyz
 x,y,z
_cell_length_a 61.9719
_cell_length_b 52.0150
_cell_length_c 55.7753
_cell_angle_alpha 89.836500
_cell_angle_beta 89.616500
_cell_angle_gamma 90.016300
loop_
  _atom_site_label
  _atom_site_type_symbol
  _atom_site_fract_x
  _atom_site_fract_y
  _atom_site_fract_z
O1 O 0.34491 0.32891 -0.03387
 O2 O 0.32355 0.35718 0.02249
 O3 O 0.35799 0.33159 0.01035
 O4 O 0.31111 0.35665 -0.02192
 O5 O 0.29312 0.32108 -0.01390
 O6 O 0.34065 0.29537 0.01786
 O7 O 0.30665 0.32067 0.03015
 O8 O 0.32634 0.29358 -0.02618
 Cu9 Cu 0.33617 0.34717 -0.00660
 Cu10 Cu 0.31494 0.30405 0.00263
 C11 C 0.33901 0.30633 -0.03961
 C12 C 0.31164 0.34341 0.03606
 C13 C 0.35734 0.30941 0.01987
 C14 C 0.29395 0.34341 -0.02326
 O15 O 0.62752 0.66442 -0.03285
 O16 O 0.65789 0.61687 0.00178
 O17 O 0.62993 0.65195 0.01304
 O18 O 0.65833 0.63055 -0.04242
 O19 O 0.68148 0.66227 -0.03773
 O20 O 0.65699 0.67854 0.01983
 O21 O 0.68452 0.64461 0.00613
 O22 O 0.65158 0.69418 -0.02421
 Cu23 Cu 0.64066 0.63832 -0.01592
 Cu24 Cu 0.67114 0.67283 -0.00850
 C25 C 0.63404 0.68751 -0.03415
 C26 C 0.67652 0.62232 0.00954
 C27 C 0.63942 0.66818 0.02638
 C28 C 0.67487 0.64305 -0.04954
 O29 O 0.62901 0.35100 1.01342
 O30 O 0.66487 0.36502 0.96202
 O31 O 0.62469 0.35169 0.96684
 O32 O 0.66964 0.36402 1.00837
 O33 O 0.67818 0.32292 1.00738
 O34 O 0.63403 0.31081 0.96517
 O35 O 0.67426 0.32415 0.96072
 O36 O 0.63776 0.30996 1.01138
 Cu37 Cu 0.64613 0.36203 0.98791
 Cu38 Cu 0.65704 0.31290 0.98602
 C39 C 0.62709 0.32806 1.02105
 C40 C 0.67567 0.34692 0.95252
 C41 C 0.62179 0.32913 0.95877
 C42 C 0.68161 0.34552 1.01509
 O43 O 0.36876 0.67343 1.02742
 O44 O 0.32046 0.64965 0.99664
 O45 O 0.35490 0.67503 0.98369
 O46 O 0.33340 0.64880 1.04090
 O47 O 0.31889 0.68654 1.04878
 O48 O 0.33675 0.71086 0.99039
 O49 O 0.30327 0.68549 1.00582
 O50 O 0.35265 0.71070 1.03364
 Cu51 Cu 0.34609 0.65800 1.01153
 Cu52 Cu 0.32629 0.70211 1.02033
 C53 C 0.36908 0.69624 1.03544
 C54 C 0.30349 0.66332 0.99630
 C55 C 0.34906 0.69740 0.97720
 C56 C 0.32246 0.66337 1.05470
 O57 O 0.02124 0.36417 0.38332
 O58 O -0.01768 0.39851 0.34645
 O59 O -0.01975 0.37154 0.38611
 O60 O 0.02354 0.38832 0.34258
 O61 O 0.01680 0.35243 0.32305
 O62 O -0.02665 0.33656 0.36533
 O63 O -0.02438 0.36335 0.32580
 O64 O 0.01490 0.32818 0.36372
 Cu65 Cu 0.00242 0.38428 0.36648
 Cu66 Cu -0.00554 0.34163 0.34241
 C67 C 0.02470 0.34042 0.38012
 C68 C -0.02775 0.38708 0.32989
 C69 C -0.03048 0.35090 0.38324
 C70 C 0.02778 0.37280 0.32558
 O71 O 0.01713 0.65331 0.63327
 O72 O -0.02161 0.63218 0.67942
 O73 O -0.02463 0.65037 0.63642
 O74 O 0.02057 0.63607 0.67746
 O75 O 0.01841 0.67559 0.69149
 O76 O -0.02541 0.69018 0.64984
 O77 O -0.02372 0.67188 0.69303
 O78 O 0.01631 0.69273 0.64780
 Cu79 Cu -0.00182 0.63896 0.65532
 Cu80 Cu -0.00369 0.68649 0.67205
 C81 C 0.02320 0.67661 0.63248
 C82 C -0.02978 0.64852 0.69369
 C83 C -0.03275 0.67285 0.63612
 C84 C 0.02718 0.65355 0.69154
 O85 O 0.96946 0.64181 0.35693
 O86 O 1.01068 0.62144 0.31341
 O87 O 1.01119 0.64178 0.35591
 O88 O 0.96849 0.62216 0.31388
 O89 O 0.96781 0.66156 0.29916
 O90 O 1.01251 0.67993 0.33867
 O91 O 1.00964 0.65969 0.29620
 O92 O 0.97039 0.68106 0.34188
 Cu93 Cu 0.98991 0.62786 0.33656
 Cu94 Cu 0.99010 0.67447 0.31740
 C95 C 0.96310 0.66500 0.35712
 C96 C 1.01709 0.63698 0.29728
 C97 C 1.01937 0.66415 0.35432
 C98 C 0.96066 0.63868 0.29953
 O99 O 0.99123 0.31239 0.65241
 O100 O 1.02655 0.36266 0.67580
 O101 O 1.03247 0.32218 0.64833
 O102 O 0.98630 0.35110 0.68197
 O103 O 0.99420 0.32615 0.71273
 O104 O 1.03980 0.29881 0.68024
 O105 O 1.03393 0.33852 0.70730
 O106 O 0.99846 0.28770 0.68355
 Cu107 Cu 1.00841 0.33939 0.66138
 Cu108 Cu 1.01738 0.31013 0.69890
 C109 C 0.98855 0.29162 0.66399
 C110 C 1.03585 0.35954 0.69579
 C111 C 1.04429 0.30572 0.65897
 C112 C 0.98280 0.34374 0.70347
 O113 O 0.39342 0.01878 0.37640
 O114 O 0.36081 -0.03331 0.40323
 O115 O 0.39505 -0.03063 0.37676
 O116 O 0.35979 0.01652 0.40527
 O117 O 0.33861 0.01714 0.37365
 O118 O 0.37440 -0.03104 0.34472
 O119 O 0.33954 -0.03275 0.37165
 O120 O 0.37226 0.01901 0.34475
 Cu121 Cu 0.37929 -0.00697 0.39362
 Cu122 Cu 0.35409 -0.00683 0.35549
 C123 C 0.38871 0.02736 0.35571
 C124 C 0.34456 -0.04189 0.39199
 C125 C 0.39099 -0.03890 0.35593
 C126 C 0.34300 0.02459 0.39477
 O127 O 0.65980 -0.02482 0.62448
 O128 O 0.62794 0.03035 0.64770
 O129 O 0.66607 0.02421 0.62816
 O130 O 0.62154 -0.01998 0.64312
 O131 O 0.63415 -0.02395 0.67988
 O132 O 0.68051 0.01667 0.66354
 O133 O 0.64345 0.02523 0.68295
 O134 O 0.67186 -0.03175 0.66108
 Cu135 Cu 0.64219 0.00315 0.63232
 Cu136 Cu 0.65866 -0.00404 0.67555
 C137 C 0.67119 -0.03779 0.63906
 C138 C 0.63117 0.03774 0.66910
 C139 C 0.68119 0.02750 0.64311
 C140 C 0.62049 -0.02984 0.66394
 O141 O 0.37353 0.96154 0.62266
 O142 O 0.35124 1.02337 0.60015
 O143 O 0.38175 1.00934 0.62987
 O144 O 0.34510 0.97488 0.59039
 O145 O 0.31978 0.97470 0.61835
 O146 O 0.35757 1.00816 0.65913
 O147 O 0.32752 1.02270 0.62989
 O148 O 0.34769 0.96052 0.65014
 Cu149 Cu 0.36528 0.99241 0.60780
 Cu150 Cu 0.33561 0.99152 0.64217
 C151 C 0.36419 0.95060 0.64034
 C152 C 0.33571 1.03367 0.61169
 C153 C 0.37627 1.01414 0.65132
 C154 C 0.32628 0.96875 0.59739
 O155 O 0.65163 0.98440 0.34466
 O156 O 0.68018 1.04067 0.37005
 O157 O 0.64273 1.03342 0.34868
 O158 O 0.68728 0.99198 0.36780
 O159 O 0.70436 0.99946 0.33363
 O160 O 0.65840 1.03889 0.31341
 O161 O 0.69474 1.04825 0.33457
 O162 O 0.66937 0.99033 0.31058
 Cu163 Cu 0.66364 1.01215 0.36123
 Cu164 Cu 0.68326 1.02000 0.31955
 C165 C 0.65639 0.97737 0.32345
 C166 C 0.69251 1.05402 0.35654
 C167 C 0.64276 1.04303 0.32775
 C168 C 0.70348 0.98869 0.35413
 C169 C 0.81388 0.80865 0.51142
 C170 C 0.81606 0.80987 0.48712
 C171 C 0.83043 0.79136 0.47460
 C172 C 0.80537 0.82952 0.47185
 C173 C 0.79804 0.82417 0.52537
 C174 C 0.82799 0.79108 0.52530
 C175 C 0.84947 0.79993 0.46351
 C176 C 0.86366 0.78231 0.45301
 C177 C 0.85889 0.75586 0.45325
 C178 C 0.83944 0.74750 0.46382
 C179 C 0.82534 0.76511 0.47439
 C180 C 0.80538 0.85573 0.47801
 C181 C 0.79695 0.87408 0.46224
 C182 C 0.78901 0.86658 0.43981
 C183 C 0.78892 0.84047 0.43369
 C184 C 0.79689 0.82213 0.44960
 C185 C 0.77630 0.82617 0.51845
 C186 C 0.76136 0.83912 0.53302
 C187 C 0.76783 0.84969 0.55496
 C188 C 0.78958 0.84806 0.56162
 C189 C 0.80451 0.83552 0.54698
 C190 C 0.81957 0.76851 0.53549
 C191 C 0.83329 0.75088 0.54668
 C192 C 0.85552 0.75588 0.54823
 C193 C 0.86376 0.77889 0.53861
 C194 C 0.85012 0.79628 0.52713
 H195 H 0.85358 0.82017 0.46356
 H196 H 0.87860 0.78934 0.44525
 H197 H 0.83507 0.72735 0.46386
 H198 H 0.81053 0.75828 0.48262
 H199 H 0.81242 0.86209 0.49468
 H200 H 0.79727 0.89420 0.46719
 H201 H 0.79675 0.80210 0.44433
 H202 H 0.77077 0.81711 0.50215
 H203 H 0.74461 0.83998 0.52765
 H204 H 0.79498 0.85628 0.57837
 H205 H 0.82113 0.83435 0.55274
 H206 H 0.80251 0.76424 0.53414
 H207 H 0.82656 0.73335 0.55412
 H208 H 0.88086 0.78308 0.53941
 H209 H 0.85682 0.81363 0.51929
 H210 H 0.78269 0.83429 0.41655
 C211 C 0.19085 0.19504 0.50326
 C212 C 0.18699 0.19131 0.47943
 C213 C 0.17213 0.20840 0.46614
 C214 C 0.19794 0.17032 0.46614
 C215 C 0.20855 0.18115 0.51595
 C216 C 0.17701 0.21220 0.51828
 C217 C 0.15390 0.19831 0.45471
 C218 C 0.13788 0.21482 0.44604
 C219 C 0.14004 0.24158 0.44859
 C220 C 0.15917 0.25154 0.45825
 C221 C 0.17508 0.23511 0.46690
 C222 C 0.19690 0.14504 0.47496
 C223 C 0.21173 0.12672 0.46712
 C224 C 0.22746 0.13326 0.44995
 C225 C 0.22684 0.15761 0.43906
 C226 C 0.21209 0.17610 0.44712
 C227 C 0.22981 0.18101 0.50686
 C228 C 0.24622 0.16815 0.51916
 C229 C 0.24180 0.15607 0.54115
 C230 C 0.22066 0.15640 0.55034
 C231 C 0.20418 0.16867 0.53780
 C232 C 0.18662 0.22907 0.53468
 C233 C 0.17402 0.24224 0.55147
 C234 C 0.15153 0.23906 0.55199
 C235 C 0.14174 0.22333 0.53481
 C236 C 0.15439 0.20974 0.51830
 H237 H 0.15144 0.17772 0.45388
 H238 H 0.12330 0.20666 0.43864
 H239 H 0.16148 0.27210 0.45990
 H240 H 0.18926 0.24321 0.47526
 H241 H 0.18584 0.14016 0.48939
 H242 H 0.21187 0.10795 0.47559
 H243 H 0.21302 0.19548 0.44004
 H244 H 0.23374 0.19106 0.49039
 H245 H 0.26248 0.16832 0.51191
 H246 H 0.21693 0.14712 0.56728
 H247 H 0.18799 0.16852 0.54522
 H248 H 0.20400 0.23122 0.53511
 H249 H 0.18189 0.25420 0.56466
 H250 H 0.12445 0.22026 0.53520
 H251 H 0.14658 0.19632 0.50636
 H252 H 0.23890 0.16299 0.42582
 C253 C 0.17530 0.80579 0.47017
 C254 C 0.17352 0.80900 0.49439
 C255 C 0.15629 0.79609 0.50864
 C256 C 0.18995 0.82403 0.50754
 C257 C 0.19274 0.81875 0.45641
 C258 C 0.16156 0.78720 0.45731
 C259 C 0.13452 0.79813 0.50200
 C260 C 0.11883 0.78312 0.51339
 C261 C 0.12454 0.76665 0.53223
 C262 C 0.14599 0.76591 0.54004
 C263 C 0.16180 0.78047 0.52825
 C264 C 0.18450 0.84761 0.51811
 C265 C 0.20072 0.86383 0.52674
 C266 C 0.22249 0.85664 0.52470
 C267 C 0.22773 0.83231 0.51553
 C268 C 0.21156 0.81600 0.50732
 C269 C 0.21039 0.80436 0.44811
 C270 C 0.22924 0.81676 0.44050
 C271 C 0.23051 0.84372 0.44057
 C272 C 0.21223 0.85810 0.44710
 C273 C 0.19349 0.84569 0.45508
 C274 C 0.16419 0.76077 0.46115
 C275 C 0.14971 0.74326 0.45122
 C276 C 0.13196 0.75186 0.43771
 C277 C 0.12990 0.77846 0.43331
 C278 C 0.14477 0.79590 0.44272
 H279 H 0.12978 0.81078 0.48753
 H280 H 0.10228 0.78405 0.50733
 H281 H 0.15061 0.75326 0.55459
 H282 H 0.17845 0.77874 0.53380
 H283 H 0.16788 0.85401 0.51849
 H284 H 0.19637 0.88253 0.53376
 H285 H 0.21598 0.79763 0.49962
 H286 H 0.21014 0.78357 0.44921
 H287 H 0.24312 0.80532 0.43537
 H288 H 0.21290 0.87891 0.44742
 H289 H 0.18003 0.85706 0.46154
 H290 H 0.17723 0.75378 0.47224
 H291 H 0.15238 0.72299 0.45440
 H292 H 0.11638 0.78602 0.42336
 H293 H 0.14251 0.81631 0.43971
 H294 H 0.24441 0.82626 0.51408
 C295 C 0.82519 0.19501 0.50264
 C296 C 0.82746 0.18684 0.52569
 C297 C 0.84484 0.19667 0.54153
 C298 C 0.81287 0.16751 0.53682
 C299 C 0.80922 0.18351 0.48595
 C300 C 0.83909 0.21578 0.49282
 C301 C 0.86668 0.19514 0.53472
 C302 C 0.88287 0.20197 0.55084
 C303 C 0.87749 0.20965 0.57423
 C304 C 0.85571 0.21126 0.58102
 C305 C 0.83954 0.20499 0.56478
 C306 C 0.82189 0.14596 0.54813
 C307 C 0.80902 0.12950 0.56180
 C308 C 0.78685 0.13429 0.56454
 C309 C 0.77759 0.15518 0.55230
 C310 C 0.79054 0.17179 0.53863
 C311 C 0.79656 0.19962 0.47147
 C312 C 0.78237 0.18921 0.45475
 C313 C 0.78039 0.16247 0.45232
 C314 C 0.79280 0.14629 0.46694
 C315 C 0.80733 0.15671 0.48334
 C316 C 0.83736 0.24101 0.50139
 C317 C 0.85074 0.26038 0.49216
 C318 C 0.86641 0.25478 0.47449
 C319 C 0.86797 0.22931 0.46606
 C320 C 0.85423 0.21016 0.47485
 H321 H 0.87124 0.18787 0.51725
 H322 H 0.89962 0.20041 0.54535
 H323 H 0.85123 0.21732 0.59894
 H324 H 0.82283 0.20608 0.57051
 H325 H 0.83908 0.14234 0.54692
 H326 H 0.81650 0.11330 0.57071
 H327 H 0.78335 0.18853 0.53032
 H328 H 0.79779 0.22032 0.47299
 H329 H 0.77298 0.20204 0.44359
 H330 H 0.79184 0.12561 0.46502
 H331 H 0.81743 0.14382 0.49360
 H332 H 0.82556 0.24568 0.51510
 H333 H 0.84862 0.27975 0.49877
 H334 H 0.88009 0.22392 0.45296
 H335 H 0.85580 0.19073 0.46814
 H336 H 0.76055 0.15936 0.55426
 C337 C 0.50011 0.79985 0.79819
 C338 C 0.47816 0.80022 0.79746
 C339 C 0.46607 0.81204 0.77739
 C340 C 0.46457 0.78966 0.81710
 C341 C 0.51166 0.78958 0.81938
 C342 C 0.51367 0.81212 0.77912
 C343 C 0.46695 0.83859 0.77295
 C344 C 0.45430 0.84951 0.75488
 C345 C 0.44053 0.83405 0.74103
 C346 C 0.44016 0.80738 0.74528
 C347 C 0.45263 0.79656 0.76342
 C348 C 0.44993 0.80603 0.82871
 C349 C 0.43489 0.79619 0.84496
 C350 C 0.43398 0.76968 0.84976
 C351 C 0.44930 0.75338 0.83895
 C352 C 0.46449 0.76332 0.82264
 C353 C 0.52653 0.76951 0.81648
 C354 C 0.53934 0.76161 0.83566
 C355 C 0.53775 0.77397 0.85799
 C356 C 0.52256 0.79379 0.86096
 C357 C 0.50958 0.80150 0.84183
 C358 C 0.50973 0.80827 0.75461
 C359 C 0.52072 0.82277 0.73727
 C360 C 0.53681 0.84047 0.74394
 C361 C 0.54210 0.84235 0.76840
 C362 C 0.53048 0.82868 0.78573
 H363 H 0.47706 0.85085 0.78380
 H364 H 0.45474 0.87015 0.75233
 H365 H 0.43007 0.79484 0.73470
 H366 H 0.45178 0.77603 0.76663
 H367 H 0.44984 0.82642 0.82472
 H368 H 0.42366 0.80932 0.85345
 H369 H 0.47555 0.75037 0.81364
 H370 H 0.52853 0.76036 0.79919
 H371 H 0.55109 0.74651 0.83278
 H372 H 0.52094 0.80355 0.87801
 H373 H 0.49845 0.81734 0.84427
 H374 H 0.49761 0.79469 0.74885
 H375 H 0.51601 0.82054 0.71877
 H376 H 0.55504 0.85465 0.77439
 H377 H 0.53431 0.83163 0.80443
 H378 H 0.44893 0.73287 0.84231
 C379 C 0.50760 0.19493 0.19117
 C380 C 0.48591 0.19057 0.18992
 C381 C 0.47504 0.17165 0.20602
 C382 C 0.47226 0.20525 0.17296
 C383 C 0.51888 0.21265 0.17439
 C384 C 0.52115 0.18205 0.20938
 C385 C 0.48281 0.14635 0.20808
 C386 C 0.47509 0.13016 0.22621
 C387 C 0.45884 0.13862 0.24193
 C388 C 0.44976 0.16307 0.23863
 C389 C 0.45788 0.17954 0.22085
 C390 C 0.46028 0.19227 0.15551
 C391 C 0.44945 0.20608 0.13772
 C392 C 0.45043 0.23308 0.13718
 C393 C 0.46149 0.24601 0.15547
 C394 C 0.47217 0.23222 0.17328
 C395 C 0.53010 0.23390 0.18342
 C396 C 0.54040 0.25109 0.16784
 C397 C 0.53993 0.24712 0.14294
 C398 C 0.52902 0.22553 0.13394
 C399 C 0.51855 0.20846 0.14954
 C400 C 0.51727 0.18573 0.23393
 C401 C 0.52881 0.17161 0.25090
 C402 C 0.54440 0.15353 0.24359
 C403 C 0.54871 0.15064 0.21894
 C404 C 0.53732 0.16495 0.20202
 H405 H 0.49558 0.13958 0.19636
 H406 H 0.48211 0.11123 0.22833
 H407 H 0.43717 0.16987 0.25059
 H408 H 0.45151 0.19887 0.21944
 H409 H 0.46009 0.17145 0.15508
 H410 H 0.44106 0.19565 0.12382
 H411 H 0.48094 0.24257 0.18694
 H412 H 0.53061 0.23735 0.20255
 H413 H 0.54893 0.26737 0.17526
 H414 H 0.52835 0.22209 0.11482
 H415 H 0.51014 0.19200 0.14228
 H416 H 0.50498 0.19912 0.23988
 H417 H 0.52540 0.17475 0.26972
 H418 H 0.56035 0.13667 0.21261
 H419 H 0.54046 0.16188 0.18311
 H420 H 0.46210 0.26681 0.15579
 C421 C 0.47659 0.18962 0.79847
 C422 C 0.49763 0.19727 0.79776
 C423 C 0.51386 0.18513 0.78148
 C424 C 0.50594 0.21687 0.81464
 C425 C 0.46026 0.20246 0.81406
 C426 C 0.46879 0.16742 0.78424
 C427 C 0.53354 0.17659 0.79095
 C428 C 0.54893 0.16491 0.77625
 C429 C 0.54497 0.16131 0.75173
 C430 C 0.52534 0.16983 0.74212
 C431 C 0.51004 0.18202 0.75680
 C432 C 0.50544 0.21238 0.83946
 C433 C 0.51489 0.22993 0.85515
 C434 C 0.52484 0.25233 0.84627
 C435 C 0.52495 0.25700 0.82145
 C436 C 0.51576 0.23926 0.80575
 C437 C 0.45714 0.22924 0.81342
 C438 C 0.44080 0.24064 0.82722
 C439 C 0.42704 0.22536 0.84141
 C440 C 0.43033 0.19866 0.84218
 C441 C 0.44677 0.18736 0.82869
 C442 C 0.45105 0.17049 0.76900
 C443 C 0.44360 0.14986 0.75538
 C444 C 0.45375 0.12576 0.75681
 C445 C 0.47116 0.12254 0.77256
 C446 C 0.47849 0.14313 0.78632
 H447 H 0.53692 0.17870 0.80987
 H448 H 0.56388 0.15832 0.78412
 H449 H 0.52205 0.16748 0.72321
 H450 H 0.49522 0.18896 0.74892
 H451 H 0.49819 0.19500 0.84660
 H452 H 0.51458 0.22596 0.87422
 H453 H 0.51646 0.24287 0.78662
 H454 H 0.46701 0.24124 0.80186
 H455 H 0.43845 0.26124 0.82622
 H456 H 0.42009 0.18651 0.85321
 H457 H 0.44886 0.16670 0.82951
 H458 H 0.44322 0.18902 0.76734
 H459 H 0.43028 0.15295 0.74325
 H460 H 0.47905 0.10406 0.77427
 H461 H 0.49182 0.14018 0.79849
 H462 H 0.53276 0.27395 0.81415
 C463 C 0.50789 0.81294 0.19428
 C464 C 0.52961 0.80915 0.19585
 C465 C 0.54279 0.82313 0.21389
 C466 C 0.54146 0.79118 0.17965
 C467 C 0.49500 0.80279 0.17400
 C468 C 0.49599 0.82627 0.21377
 C469 C 0.54218 0.85009 0.21527
 C470 C 0.55618 0.86326 0.23049
 C471 C 0.57127 0.84973 0.24436
 C472 C 0.57139 0.82271 0.24350
 C473 C 0.55731 0.80956 0.22839
 C474 C 0.56101 0.79902 0.16906
 C475 C 0.57303 0.78199 0.15506
 C476 C 0.56562 0.75689 0.15113
 C477 C 0.54592 0.74904 0.16125
 C478 C 0.53409 0.76594 0.17574
 C479 C 0.47584 0.78918 0.17862
 C480 C 0.46446 0.77789 0.15987
 C481 C 0.47209 0.77992 0.13619
 C482 C 0.49077 0.79436 0.13142
 C483 C 0.50195 0.80604 0.15013
 C484 C 0.49677 0.81667 0.23725
 C485 C 0.48637 0.82965 0.25585
 C486 C 0.47505 0.85259 0.25138
 C487 C 0.47368 0.86168 0.22765
 C488 C 0.48397 0.84850 0.20896
 H489 H 0.53141 0.86099 0.20391
 H490 H 0.55593 0.88407 0.23051
 H491 H 0.58269 0.81178 0.25417
 H492 H 0.55805 0.78877 0.22763
 H493 H 0.56710 0.81829 0.17184
 H494 H 0.58825 0.78832 0.14740
 H495 H 0.51937 0.75917 0.18421
 H496 H 0.47008 0.78653 0.19683
 H497 H 0.45013 0.76675 0.16397
 H498 H 0.49677 0.79644 0.11323
 H499 H 0.51633 0.81709 0.14604
 H500 H 0.50559 0.79920 0.24116
 H501 H 0.48726 0.82173 0.27379
 H502 H 0.46523 0.87936 0.22361
 H503 H 0.48311 0.85604 0.19087
 H504 H 0.54012 0.72962 0.15862
 C505 C 0.80660 0.50595 0.80001
 C506 C 0.80958 0.48002 0.79922
 C507 C 0.79443 0.46140 0.81079
 C508 C 0.82979 0.46893 0.78914
 C509 C 0.82333 0.52399 0.79079
 C510 C 0.78776 0.51831 0.81192
 C511 C 0.80287 0.44217 0.82580
 C512 C 0.78930 0.42460 0.83723
 C513 C 0.76691 0.42595 0.83418
 C514 C 0.75829 0.44499 0.81911
 C515 C 0.77199 0.46234 0.80716
 C516 C 0.84961 0.47335 0.80042
 C517 C 0.86813 0.46037 0.79281
 C518 C 0.86716 0.44274 0.77379
 C519 C 0.84750 0.43911 0.76188
 C520 C 0.82890 0.45194 0.76966
 C521 C 0.82969 0.52409 0.76659
 C522 C 0.84528 0.54158 0.75840
 C523 C 0.85466 0.55932 0.77425
 C524 C 0.84822 0.55904 0.79846
 C525 C 0.83267 0.54165 0.80659
 C526 C 0.77629 0.53728 0.79940
 C527 C 0.76129 0.55276 0.81126
 C528 C 0.75736 0.54946 0.83588
 C529 C 0.76786 0.52951 0.84819
 C530 C 0.78316 0.51421 0.83635
 H531 H 0.82005 0.44094 0.82902
 H532 H 0.79629 0.41025 0.84896
 H533 H 0.74103 0.44623 0.81641
 H534 H 0.76507 0.47652 0.79524
 H535 H 0.85053 0.48608 0.81571
 H536 H 0.88312 0.46353 0.80223
 H537 H 0.81367 0.44814 0.76094
 H538 H 0.82246 0.51081 0.75407
 H539 H 0.84969 0.54154 0.73958
 H540 H 0.85538 0.57211 0.81122
 H541 H 0.82802 0.54180 0.82535
 H542 H 0.77973 0.54092 0.78062
 H543 H 0.75344 0.56810 0.80147
 H544 H 0.76531 0.52694 0.86728
 H545 H 0.79219 0.50015 0.84652
 H546 H 0.84632 0.42542 0.74736
 C547 C 0.19153 0.51430 0.19327
 C548 C 0.19296 0.48828 0.19457
 C549 C 0.21009 0.47374 0.18190
 C550 C 0.17609 0.47282 0.20696
 C551 C 0.17179 0.52757 0.20173
 C552 C 0.20850 0.53068 0.18193
 C553 C 0.21236 0.47552 0.15691
 C554 C 0.22681 0.45950 0.14474
 C555 C 0.23924 0.44140 0.15738
 C556 C 0.23750 0.44047 0.18254
 C557 C 0.22289 0.45629 0.19463
 C558 C 0.17191 0.47597 0.23155
 C559 C 0.15602 0.46117 0.24301
 C560 C 0.14406 0.44294 0.23006
 C561 C 0.14826 0.44005 0.20539
 C562 C 0.16420 0.45470 0.19402
 C563 C 0.17253 0.54366 0.22181
 C564 C 0.15415 0.55725 0.22896
 C565 C 0.13503 0.55540 0.21570
 C566 C 0.13433 0.53926 0.19561
 C567 C 0.15255 0.52524 0.18880
 C568 C 0.23051 0.52766 0.18745
 C569 C 0.24598 0.54431 0.17755
 C570 C 0.23956 0.56451 0.16251
 C571 C 0.21771 0.56743 0.15689
 C572 C 0.20236 0.55063 0.16637
 H573 H 0.20231 0.48859 0.14675
 H574 H 0.22746 0.46046 0.12536
 H575 H 0.24710 0.42710 0.19286
 H576 H 0.22129 0.45466 0.21393
 H577 H 0.18110 0.48970 0.24187
 H578 H 0.15342 0.46363 0.26207
 H579 H 0.16710 0.45214 0.17500
 H580 H 0.18734 0.54571 0.23183
 H581 H 0.15498 0.56973 0.24444
 H582 H 0.11969 0.53757 0.18523
 H583 H 0.15186 0.51302 0.17313
 H584 H 0.23565 0.51288 0.19985
 H585 H 0.26280 0.54200 0.18223
 H586 H 0.21252 0.58295 0.14528
 H587 H 0.18559 0.55343 0.16172
 H588 H 0.13908 0.42658 0.19476
 C589 C 0.82181 0.47129 0.16375
 C590 C 0.81942 0.49720 0.16046
 C591 C 0.80260 0.50779 0.14436
 C592 C 0.83293 0.51619 0.17359
 C593 C 0.83520 0.46129 0.18367
 C594 C 0.81048 0.45215 0.14844
 C595 C 0.80825 0.52537 0.12625
 C596 C 0.79261 0.53462 0.11048
 C597 C 0.77104 0.52655 0.11266
 C598 C 0.76532 0.50961 0.13134
 C599 C 0.78093 0.50045 0.14712
 C600 C 0.85554 0.51398 0.17399
 C601 C 0.86797 0.53142 0.18702
 C602 C 0.85807 0.55180 0.19936
 C603 C 0.83552 0.55436 0.19848
 C604 C 0.82308 0.53670 0.18576
 C605 C 0.83093 0.46900 0.20731
 C606 C 0.84516 0.46263 0.22563
 C607 C 0.86383 0.44820 0.22071
 C608 C 0.86729 0.43896 0.19734
 C609 C 0.85301 0.44541 0.17893
 C610 C 0.79953 0.43132 0.15906
 C611 C 0.78764 0.41428 0.14500
 C612 C 0.78631 0.41791 0.12010
 C613 C 0.79779 0.43818 0.10935
 C614 C 0.81010 0.45485 0.12334
 H615 H 0.82486 0.53141 0.12398
 H616 H 0.79749 0.54756 0.09620
 H617 H 0.74875 0.50350 0.13378
 H618 H 0.77616 0.48739 0.16137
 H619 H 0.86356 0.49873 0.16423
 H620 H 0.88535 0.52927 0.18710
 H621 H 0.80570 0.53886 0.18568
 H622 H 0.81699 0.48081 0.21136
 H623 H 0.84184 0.46950 0.24359
 H624 H 0.88156 0.42783 0.19306
 H625 H 0.85643 0.43913 0.16081
 H626 H 0.79970 0.42865 0.17832
 H627 H 0.77893 0.39870 0.15362
 H628 H 0.79728 0.44103 0.09012
 H629 H 0.81899 0.47018 0.11459
 H630 H 0.82750 0.56984 0.20794
 C631 C 0.16067 0.50493 0.84864
 C632 C 0.16401 0.53078 0.84877
 C633 C 0.17738 0.54302 0.86745
 C634 C 0.15330 0.54844 0.83149
 C635 C 0.14564 0.49245 0.83162
 C636 C 0.17242 0.48752 0.86510
 C637 C 0.17073 0.54255 0.89154
 C638 C 0.18203 0.55658 0.90870
 C639 C 0.20030 0.57100 0.90204
 C640 C 0.20728 0.57079 0.87804
 C641 C 0.19576 0.55712 0.86082
 C642 C 0.14148 0.56947 0.84023
 C643 C 0.13045 0.58564 0.82453
 C644 C 0.13096 0.58112 0.79972
 C645 C 0.14308 0.56035 0.79085
 C646 C 0.15442 0.54435 0.80659
 C647 C 0.15295 0.47184 0.81756
 C648 C 0.13939 0.46056 0.80073
 C649 C 0.11835 0.46983 0.79757
 C650 C 0.11080 0.48999 0.81204
 C651 C 0.12423 0.50093 0.82924
 C652 C 0.19489 0.48487 0.86338
 C653 C 0.20555 0.46622 0.87698
 C654 C 0.19393 0.45000 0.89268
 C655 C 0.17147 0.45339 0.89486
 C656 C 0.16082 0.47179 0.88103
 H657 H 0.15639 0.53201 0.89686
 H658 H 0.17640 0.55642 0.92712
 H659 H 0.22119 0.58197 0.87246
 H660 H 0.20094 0.55785 0.84224
 H661 H 0.14036 0.57305 0.85931
 H662 H 0.12108 0.60138 0.83186
 H663 H 0.16380 0.52857 0.79939
 H664 H 0.16933 0.46485 0.81923
 H665 H 0.14551 0.44504 0.78970
 H666 H 0.09450 0.49715 0.81007
 H667 H 0.11805 0.51629 0.84040
 H668 H 0.20404 0.49658 0.85085
 H669 H 0.22278 0.46393 0.87453
 H670 H 0.16205 0.44167 0.90711
 H671 H 0.14345 0.47358 0.88252
 H672 H 0.14391 0.55666 0.77177
 C673 C 0.29007 0.38830 0.08366
 C674 C 0.28448 0.37079 0.10117
 C675 C 0.28805 0.34457 0.09887
 C676 C 0.29753 0.33593 0.07750
 C677 C 0.30330 0.35350 0.05901
 C678 C 0.29984 0.38016 0.06233
 O679 O 0.28394 0.41212 0.08885
 C680 C 0.27424 0.40953 0.11005
 C681 C 0.27423 0.38463 0.11836
 C682 C 0.26394 0.37725 0.13948
 C683 C 0.25302 0.39627 0.15250
 C684 C 0.25254 0.42217 0.14430
 C685 C 0.26359 0.42884 0.12281
 H686 H 0.28325 0.33116 0.11279
 H687 H 0.30012 0.31549 0.07524
 H688 H 0.30369 0.39393 0.04835
 H689 H 0.26382 0.35741 0.14539
 H690 H 0.24424 0.39054 0.16848
 H691 H 0.26353 0.44832 0.11594
 C692 C 0.71776 0.58935 0.04878
 C693 C 0.71002 0.56456 0.04849
 C694 C 0.69188 0.55739 0.03567
 C695 C 0.68116 0.57658 0.02269
 C696 C 0.68871 0.60239 0.02269
 C697 C 0.70743 0.60876 0.03584
 O698 O 0.73494 0.59214 0.06265
 C699 C 0.73806 0.56861 0.07128
 C700 C 0.72325 0.55105 0.06314
 C701 C 0.72325 0.52541 0.07020
 C702 C 0.73915 0.51753 0.08641
 C703 C 0.75458 0.53527 0.09526
 C704 C 0.75403 0.56119 0.08740
 H705 H 0.68604 0.53778 0.03584
 H706 H 0.66691 0.57128 0.01272
 H707 H 0.71351 0.62826 0.03641
 H708 H 0.71142 0.51196 0.06351
 H709 H 0.73954 0.49755 0.09193
 H710 H 0.76540 0.57526 0.09401
 C711 C 0.70600 0.38222 0.90339
 C712 C 0.71761 0.36238 0.89341
 C713 C 0.71613 0.33719 0.90167
 C714 C 0.70212 0.33223 0.92102
 C715 C 0.69002 0.35238 0.93178
 C716 C 0.69198 0.37774 0.92264
 O717 O 0.71040 0.40491 0.89353
 C718 C 0.72516 0.39928 0.87700
 C719 C 0.73014 0.37351 0.87621
 C720 C 0.74603 0.36359 0.86114
 C721 C 0.75750 0.38099 0.84662
 C722 C 0.75286 0.40770 0.84733
 C723 C 0.73616 0.41688 0.86244
 H724 H 0.72559 0.32194 0.89367
 H725 H 0.70087 0.31273 0.92772
 H726 H 0.68314 0.39361 0.93048
 H727 H 0.74984 0.34329 0.86104
 H728 H 0.77033 0.37380 0.83518
 H729 H 0.73265 0.43723 0.86373
 C730 C 0.26643 0.62361 0.95787
 C731 C 0.24666 0.63344 0.96445
 C732 C 0.24439 0.65328 0.98093
 C733 C 0.26326 0.66332 0.99112
 C734 C 0.28382 0.65319 0.98492
 C735 C 0.28533 0.63302 0.96801
 O736 O 0.26514 0.60519 0.94153
 C737 C 0.24409 0.60328 0.93774
 C738 C 0.23204 0.62000 0.95144
 C739 C 0.20964 0.62107 0.95037
 C740 C 0.19928 0.60437 0.93441
 C741 C 0.21140 0.58730 0.91978
 C742 C 0.23414 0.58674 0.92158
 H743 H 0.22867 0.66081 0.98574
 H744 H 0.26183 0.67870 1.00408
 H745 H 0.30078 0.62502 0.96275
 H746 H 0.20050 0.63438 0.96132
 H747 H 0.18187 0.60514 0.93300
 H748 H 0.24378 0.57383 0.91071
 C749 C 0.06708 0.29469 0.40376
 C750 C 0.07151 0.30626 0.42532
 C751 C 0.06088 0.32810 0.43335
 C752 C 0.04517 0.33873 0.41840
 C753 C 0.04031 0.32743 0.39592
 C754 C 0.05125 0.30481 0.38864
 O755 O 0.07977 0.27464 0.39925
 C756 C 0.09245 0.27365 0.41838
 C757 C 0.08798 0.29261 0.43481
 C758 C 0.09958 0.29579 0.45579
 C759 C 0.11660 0.27875 0.46006
 C760 C 0.12179 0.25907 0.44339
 C761 C 0.10934 0.25635 0.42231
 H762 H 0.06479 0.33691 0.45033
 H763 H 0.03692 0.35597 0.42429
 H764 H 0.04811 0.29597 0.37147
 H765 H 0.09573 0.31093 0.46838
 H766 H 0.12566 0.28078 0.47648
 H767 H 0.11300 0.24165 0.40920
 C768 C 0.06437 0.71514 0.59751
 C769 C 0.06459 0.70194 0.57617
 C770 C 0.05219 0.68007 0.57235
 C771 C 0.03893 0.67153 0.59126
 C772 C 0.03806 0.68514 0.61328
 C773 C 0.05103 0.70726 0.61639
 O774 O 0.07757 0.73524 0.59757
 C775 C 0.08622 0.73481 0.57574
 C776 C 0.07869 0.71493 0.56186
 C777 C 0.08522 0.71126 0.53820
 C778 C 0.10018 0.72876 0.52850
 C779 C 0.10843 0.74906 0.54264
 C780 C 0.10140 0.75212 0.56659
 H781 H 0.05268 0.66996 0.55542
 H782 H 0.02901 0.65465 0.58858
 H783 H 0.05080 0.71796 0.63301
 H784 H 0.07896 0.69559 0.52758
 H785 H 0.10557 0.72639 0.51012
 H786 H 0.10744 0.76762 0.57761
 C787 C 0.92256 0.70498 0.39146
 C788 C 0.91751 0.68852 0.41000
 C789 C 0.92660 0.66422 0.41222
 C790 C 0.94153 0.65658 0.39461
 C791 C 0.94716 0.67329 0.37535
 C792 C 0.93746 0.69788 0.37385
 O793 O 0.91198 0.72713 0.39256
 C794 C 0.90004 0.72461 0.41226
 C795 C 0.90285 0.70137 0.42362
 C796 C 0.89200 0.69479 0.44465
 C797 C 0.87762 0.71290 0.45432
 C798 C 0.87425 0.73699 0.44284
 C799 C 0.88575 0.74282 0.42146
 H800 H 0.92234 0.65158 0.42695
 H801 H 0.94880 0.63772 0.39610
 H802 H 0.94130 0.71106 0.35938
 H803 H 0.89459 0.67645 0.45337
 H804 H 0.86933 0.70826 0.47093
 H805 H 0.88346 0.76085 0.41208
 C806 C 0.95000 0.25765 0.62298
 C807 C 0.94139 0.23948 0.63823
 C808 C 0.94836 0.23639 0.66174
 C809 C 0.96463 0.25298 0.66993
 C810 C 0.97329 0.27234 0.65467
 C811 C 0.96601 0.27434 0.63075
 O812 O 0.94065 0.25822 0.60167
 C813 C 0.92567 0.24012 0.60350
 C814 C 0.92535 0.22812 0.62553
 C815 C 0.91003 0.20967 0.63173
 C816 C 0.89438 0.20349 0.61457
 C817 C 0.89451 0.21559 0.59173
 C818 C 0.91053 0.23396 0.58607
 H819 H 0.94123 0.22210 0.67350
 H820 H 0.96991 0.25132 0.68834
 H821 H 0.97216 0.28898 0.61866
 H822 H 0.90987 0.20072 0.64928
 H823 H 0.88214 0.18938 0.61903
 H824 H 0.91071 0.24382 0.56894
 C825 C 0.41085 0.07533 0.31086
 C826 C 0.43168 0.07781 0.31889
 C827 C 0.43905 0.06559 0.33948
 C828 C 0.42445 0.04985 0.35211
 C829 C 0.40303 0.04633 0.34381
 C830 C 0.39614 0.05957 0.32298
 O831 O 0.40720 0.08822 0.29070
 C832 C 0.42617 0.09894 0.28580
 C833 C 0.44175 0.09301 0.30241
 C834 C 0.46305 0.10118 0.30015
 C835 C 0.46849 0.11608 0.27997
 C836 C 0.45264 0.12273 0.26281
 C837 C 0.43114 0.11418 0.26585
 H838 H 0.45554 0.06778 0.34542
 H839 H 0.43007 0.03975 0.36787
 H840 H 0.37997 0.05723 0.31608
 H841 H 0.47508 0.09604 0.31329
 H842 H 0.48498 0.12263 0.27773
 H843 H 0.41884 0.11882 0.25284
 C844 C 0.59196 0.08790 0.69157
 C845 C 0.60634 0.10579 0.70013
 C846 C 0.62856 0.10304 0.69800
 C847 C 0.63635 0.08076 0.68689
 C848 C 0.62196 0.06195 0.67799
 C849 C 0.59941 0.06571 0.67996
 O850 O 0.57160 0.09326 0.69735
 C851 C 0.57322 0.11493 0.70984
 C852 C 0.59416 0.12338 0.71195
 C853 C 0.59984 0.14459 0.72563
 C854 C 0.58332 0.15745 0.73797
 C855 C 0.56162 0.14898 0.73647
 C856 C 0.55644 0.12767 0.72180
 H857 H 0.63953 0.11713 0.70534
 H858 H 0.65363 0.07782 0.68564
 H859 H 0.58816 0.05120 0.67393
 H860 H 0.61649 0.15061 0.72727
 H861 H 0.58746 0.17373 0.74910
 H862 H 0.54008 0.12046 0.72079
 C863 C 0.40067 0.90284 0.67044
 C864 C 0.38582 0.88438 0.67697
 C865 C 0.36425 0.88554 0.67039
 C866 C 0.35757 0.90694 0.65706
 C867 C 0.37246 0.92641 0.65035
 C868 C 0.39445 0.92404 0.65663
 O869 O 0.41987 0.89923 0.68039
 C870 C 0.41702 0.87811 0.69351
 C871 C 0.39648 0.86827 0.69195
 C872 C 0.38950 0.84731 0.70539
 C873 C 0.40427 0.83598 0.72112
 C874 C 0.42562 0.84569 0.72324
 C875 C 0.43205 0.86705 0.70901
 H876 H 0.35279 0.87105 0.67618
 H877 H 0.34065 0.90884 0.65261
 H878 H 0.40593 0.93913 0.65249
 H879 H 0.37309 0.84031 0.70424
 H880 H 0.39879 0.82013 0.73221
 H881 H 0.44811 0.87509 0.71023
 C882 C 0.61805 0.92726 0.29984
 C883 C 0.63263 0.90943 0.29139
 C884 C 0.65482 0.91240 0.29354
 C885 C 0.66232 0.93480 0.30463
 C886 C 0.64767 0.95337 0.31364
 C887 C 0.62519 0.94943 0.31154
 O888 O 0.59776 0.92152 0.29440
 C889 C 0.59961 0.89963 0.28231
 C890 C 0.62061 0.89136 0.28015
 C891 C 0.62639 0.86943 0.26749
 C892 C 0.60988 0.85548 0.25642
 C893 C 0.58807 0.86373 0.25797
 C894 C 0.58290 0.88611 0.27129
 H895 H 0.66596 0.89832 0.28636
 H896 H 0.67956 0.93785 0.30604
 H897 H 0.61375 0.96370 0.31777
 H898 H 0.64307 0.86351 0.26582
 H899 H 0.61420 0.83874 0.24595
 H900 H 0.56645 0.89299 0.27270
 C901 C 0.37523 0.28499 0.90948
 C902 C 0.36217 0.26687 0.89900
 C903 C 0.34130 0.26179 0.90691
 C904 C 0.33366 0.27564 0.92671
 C905 C 0.34681 0.29427 0.93807
 C906 C 0.36778 0.29938 0.92901
 O907 O 0.39507 0.28537 0.90029
 C908 C 0.39450 0.26704 0.88373
 C909 C 0.37470 0.25521 0.88225
 C910 C 0.37080 0.23442 0.86730
 C911 C 0.38808 0.22522 0.85348
 C912 C 0.40877 0.23681 0.85484
 C913 C 0.41191 0.25833 0.86992
 H914 H 0.33149 0.24713 0.89860
 H915 H 0.31760 0.27152 0.93350
 H916 H 0.37834 0.31302 0.93770
 H917 H 0.35513 0.22525 0.86670
 H918 H 0.38545 0.20885 0.84190
 H919 H 0.42763 0.26722 0.87165
 C920 C 0.59342 0.71669 0.92361
 C921 C 0.59671 0.74248 0.92751
 C922 C 0.61201 0.75159 0.94356
 C923 C 0.62436 0.73336 0.95610
 C924 C 0.62108 0.70662 0.95255
 C925 C 0.60529 0.69829 0.93606
 O926 O 0.57861 0.71198 0.90711
 C927 C 0.57236 0.73532 0.90047
 C928 C 0.58282 0.75467 0.91250
 C929 C 0.57876 0.78056 0.90816
 C930 C 0.56346 0.78673 0.89058
 C931 C 0.55273 0.76710 0.87761
 C932 C 0.55723 0.74100 0.88281
 H933 H 0.61446 0.77198 0.94621
 H934 H 0.63635 0.74007 0.96866
 H935 H 0.60253 0.67806 0.93272
 H936 H 0.58722 0.79548 0.91779
 H937 H 0.56040 0.80678 0.88660
 H938 H 0.54928 0.72559 0.87330
 C939 C 0.40623 0.73408 0.07522
 C940 C 0.42597 0.72440 0.06829
 C941 C 0.42817 0.70543 0.05091
 C942 C 0.40927 0.69609 0.04026
 C943 C 0.38877 0.70608 0.04688
 C944 C 0.38731 0.72546 0.06454
 O945 O 0.40755 0.75123 0.09270
 C946 C 0.42857 0.75248 0.09687
 C947 C 0.44059 0.73661 0.08229
 C948 C 0.46294 0.73484 0.08377
 C949 C 0.47327 0.74985 0.10116
 C950 C 0.46114 0.76589 0.11676
 C951 C 0.43846 0.76730 0.11443
 H952 H 0.44385 0.69794 0.04590
 H953 H 0.41059 0.68129 0.02672
 H954 H 0.37187 0.73321 0.07016
 H955 H 0.47206 0.72218 0.07215
 H956 H 0.49062 0.74843 0.10297
 H957 H 0.42883 0.77940 0.12609
 C958 C 0.59359 0.29156 0.06662
 C959 C 0.58441 0.31147 0.07925
 C960 C 0.58845 0.33715 0.07380
 C961 C 0.60250 0.34250 0.05453
 C962 C 0.61228 0.32227 0.04129
 C963 C 0.60768 0.29642 0.04756
 O964 O 0.58769 0.26855 0.07463
 C965 C 0.57452 0.27402 0.09276
 C966 C 0.57199 0.29999 0.09640
 C967 C 0.55914 0.30991 0.11470
 C968 C 0.54856 0.29233 0.12991
 C969 C 0.55089 0.26542 0.12649
 C970 C 0.56401 0.25623 0.10751
 H971 H 0.58105 0.35251 0.08399
 H972 H 0.60582 0.36238 0.05005
 H973 H 0.61477 0.28050 0.03784
 H974 H 0.55741 0.33043 0.11726
 H975 H 0.53842 0.29965 0.14423
 H976 H 0.56632 0.23584 0.10461
 C977 C 0.30797 0.08521 0.57567
 C978 C 0.30310 0.10233 0.59369
 C979 C 0.30989 0.09903 0.61718
 C980 C 0.32176 0.07685 0.62250
 C981 C 0.32670 0.05863 0.60441
 C982 C 0.32018 0.06317 0.58050
 O983 O 0.29814 0.09074 0.55517
 C984 C 0.28677 0.11168 0.56044
 C985 C 0.28929 0.11951 0.58380
 C986 C 0.27747 0.13951 0.59387
 C987 C 0.26226 0.15184 0.57934
 C988 C 0.25921 0.14409 0.55526
 C989 C 0.27192 0.12400 0.54552
 H990 H 0.30544 0.11248 0.63113
 H991 H 0.32649 0.07336 0.64089
 H992 H 0.32308 0.04907 0.56660
 H993 H 0.27941 0.14492 0.61245
 H994 H 0.25256 0.16716 0.58693
 H995 H 0.26949 0.11732 0.52738
 C996 C 0.72023 0.09760 0.39911
 C997 C 0.73032 0.11398 0.38321
 C998 C 0.72802 0.11200 0.35855
 C999 C 0.71503 0.09209 0.34984
 C1000 C 0.70422 0.07485 0.36578
 C1001 C 0.70660 0.07815 0.39089
 O1002 O 0.72596 0.10158 0.42172
 C1003 C 0.73989 0.12093 0.42000
 C1004 C 0.74293 0.12938 0.39684
 C1005 C 0.75724 0.14899 0.39081
 C1006 C 0.76901 0.16028 0.40942
 C1007 C 0.76658 0.15151 0.43339
 C1008 C 0.75171 0.13161 0.43875
 H1009 H 0.73643 0.12487 0.34640
 H1010 H 0.71353 0.09011 0.33060
 H1011 H 0.69909 0.06514 0.40364
 H1012 H 0.75946 0.15516 0.37241
 H1013 H 0.78051 0.17530 0.40509
 H1014 H 0.74963 0.12450 0.45689
 C1015 C 0.70330 0.91681 0.59963
 C1016 C 0.71093 0.90003 0.61669
 C1017 C 0.70560 0.90193 0.64084
 C1018 C 0.69203 0.92213 0.64781
 C1019 C 0.68405 0.93999 0.63070
 C1020 C 0.68955 0.93699 0.60615
 O1021 O 0.71133 0.91233 0.57787
 C1022 C 0.72435 0.89236 0.58135
 C1023 C 0.72463 0.88416 0.60482
 C1024 C 0.73796 0.86451 0.61284
 C1025 C 0.75176 0.85297 0.59604
 C1026 C 0.75198 0.86115 0.57175
 C1027 C 0.73781 0.88090 0.56421
 H1028 H 0.71202 0.88863 0.65393
 H1029 H 0.68799 0.92406 0.66664
 H1030 H 0.68404 0.95051 0.59273
 H1031 H 0.73804 0.85861 0.63146
 H1032 H 0.76247 0.83780 0.60197
 H1033 H 0.73794 0.88778 0.54587
 C1034 C 0.29732 0.91485 0.40658
 C1035 C 0.30635 0.89885 0.42343
 C1036 C 0.32764 0.90125 0.43085
 C1037 C 0.34013 0.92094 0.42045
 C1038 C 0.33127 0.93746 0.40277
 C1039 C 0.30953 0.93423 0.39573
 O1040 O 0.27667 0.90979 0.40249
 C1041 C 0.27258 0.89008 0.41699
 C1042 C 0.29024 0.88251 0.43007
 C1043 C 0.28958 0.86208 0.44620
 C1044 C 0.26990 0.84900 0.44901
 C1045 C 0.25136 0.85674 0.43605
 C1046 C 0.25277 0.87762 0.41981
 H1047 H 0.33435 0.88857 0.44428
 H1048 H 0.35674 0.92315 0.42600
 H1049 H 0.30223 0.94670 0.38249
 H1050 H 0.30367 0.85647 0.45630
 H1051 H 0.26892 0.83327 0.46173
 H1052 H 0.23887 0.88392 0.40971
 C1053 C 0.07167 0.39793 0.73671
 C1054 C 0.06842 0.42234 0.72788
 C1055 C 0.05566 0.42731 0.70801
 C1056 C 0.04560 0.40630 0.69700
 C1057 C 0.04825 0.38098 0.70616
 C1058 C 0.06168 0.37681 0.72621
 O1059 O 0.08426 0.39737 0.75584
 C1060 C 0.08895 0.42196 0.75923
 C1061 C 0.07955 0.43807 0.74272
 C1062 C 0.08179 0.46467 0.74346
 C1063 C 0.09437 0.47505 0.76191
 C1064 C 0.10451 0.45875 0.77886
 C1065 C 0.10174 0.43183 0.77746
 H1066 H 0.05333 0.44668 0.70138
 H1067 H 0.03526 0.40988 0.68178
 H1068 H 0.06400 0.35778 0.73368
 H1069 H 0.07409 0.47697 0.73039
 H1070 H 0.09652 0.49569 0.76279
 H1071 H 0.10915 0.41901 0.79034
 C1072 C 0.06375 0.60161 0.26920
 C1073 C 0.06413 0.61242 0.24666
 C1074 C 0.04976 0.63151 0.23963
 C1075 C 0.03437 0.63975 0.25654
 C1076 C 0.03345 0.62851 0.27974
 C1077 C 0.04836 0.60913 0.28607
 O1078 O 0.07913 0.58427 0.27254
 C1079 C 0.08940 0.58399 0.25161
 C1080 C 0.08077 0.60070 0.23507
 C1081 C 0.08889 0.60315 0.21186
 C1082 C 0.10665 0.58780 0.20550
 C1083 C 0.11602 0.57083 0.22244
 C1084 C 0.10726 0.56893 0.24581
 H1085 H 0.05045 0.63986 0.22185
 H1086 H 0.02301 0.65460 0.25150
 H1087 H 0.04821 0.60042 0.30373
 H1088 H 0.08178 0.61634 0.19911
 H1089 H 0.11335 0.58937 0.18757
 H1090 H 0.11407 0.55597 0.25898
 C1091 C 0.92983 0.40517 0.28419
 C1092 C 0.92670 0.43058 0.29000
 C1093 C 0.93785 0.44279 0.30820
 C1094 C 0.95286 0.42822 0.32104
 C1095 C 0.95646 0.40187 0.31560
 C1096 C 0.94472 0.39022 0.29679
 O1097 O 0.91744 0.39740 0.26624
 C1098 C 0.90629 0.41838 0.26067
 C1099 C 0.91137 0.43916 0.27473
 C1100 C 0.90165 0.46306 0.27215
 C1101 C 0.88597 0.46568 0.25435
 C1102 C 0.88030 0.44457 0.23956
 C1103 C 0.89075 0.42058 0.24274
 H1104 H 0.93506 0.46282 0.31240
 H1105 H 0.96162 0.43755 0.33533
 H1106 H 0.94704 0.37021 0.29216
 H1107 H 0.90604 0.47914 0.28339
 H1108 H 0.87847 0.48429 0.25184
 H1109 H 0.88673 0.40413 0.23180
 C1110 C 0.92773 0.60825 0.72483
 C1111 C 0.91844 0.62620 0.73971
 C1112 C 0.92581 0.65141 0.74113
 C1113 C 0.94330 0.65848 0.72637
 C1114 C 0.95299 0.64040 0.71059
 C1115 C 0.94513 0.61482 0.71010
 O1116 O 0.91806 0.58550 0.72579
 C1117 C 0.90227 0.58915 0.74159
 C1118 C 0.90177 0.61372 0.75064
 C1119 C 0.88629 0.62181 0.76710
 C1120 C 0.87076 0.60381 0.77463
 C1121 C 0.87099 0.57822 0.76572
 C1122 C 0.88703 0.57093 0.74886
 H1123 H 0.91819 0.66522 0.75293
 H1124 H 0.94901 0.67815 0.72695
 H1125 H 0.95198 0.60056 0.69817
 H1126 H 0.88609 0.64132 0.77380
 H1127 H 0.85842 0.60992 0.78719
 H1128 H 0.88782 0.55158 0.74182
 C1129 C 0.69893 0.60287 0.90218
 C1130 C 0.71293 0.62041 0.89213
 C1131 C 0.71450 0.64563 0.89994
 C1132 C 0.70136 0.65306 0.91921
 C1133 C 0.68648 0.63554 0.92994
 C1134 C 0.68490 0.61017 0.92074
 O1135 O 0.70158 0.57925 0.89355
 C1136 C 0.71753 0.58207 0.87767
 C1137 C 0.72479 0.60700 0.87596
 C1138 C 0.74175 0.61435 0.86104
 C1139 C 0.75178 0.59519 0.84737
 C1140 C 0.74504 0.56919 0.84917
 C1141 C 0.72760 0.56251 0.86452
 H1142 H 0.72600 0.65889 0.89205
 H1143 H 0.70290 0.67255 0.92579
 H1144 H 0.67425 0.59605 0.92883
 H1145 H 0.74726 0.63409 0.86020
 H1146 H 0.76527 0.60043 0.83592
 H1147 H 0.72232 0.54276 0.86637
 C1148 C 0.25819 0.38887 0.94446
 C1149 C 0.24004 0.37399 0.94184
 C1150 C 0.23869 0.34890 0.95040
 C1151 C 0.25679 0.33874 0.96215
 C1152 C 0.27588 0.35362 0.96495
 C1153 C 0.27641 0.37913 0.95582
 O1154 O 0.25618 0.41228 0.93523
 C1155 C 0.23632 0.41218 0.92650
 C1156 C 0.22576 0.38921 0.93001
 C1157 C 0.20491 0.38486 0.92196
 C1158 C 0.19455 0.40499 0.90977
 C1159 C 0.20502 0.42904 0.90603
 C1160 C 0.22627 0.43253 0.91468
 H1161 H 0.22419 0.33758 0.94819
 H1162 H 0.25587 0.31923 0.96894
 H1163 H 0.29051 0.39127 0.95759
 H1164 H 0.19698 0.36653 0.92471
 H1165 H 0.17853 0.40158 0.90287
 H1166 H 0.23474 0.45058 0.91245
 C1167 C 0.30090 0.61877 0.10119
 C1168 C 0.29143 0.63620 0.11649
 C1169 C 0.29268 0.66257 0.11301
 C1170 C 0.30379 0.67144 0.09268
 C1171 C 0.31357 0.65398 0.07624
 C1172 C 0.31258 0.62719 0.08111
 O1173 O 0.29569 0.59457 0.10634
 C1174 C 0.28262 0.59685 0.12520
 C1175 C 0.27961 0.62196 0.13216
 C1176 C 0.26501 0.62912 0.14995
 C1177 C 0.25266 0.60965 0.16071
 C1178 C 0.25514 0.58370 0.15358
 C1179 C 0.27065 0.57708 0.13594
 H1180 H 0.28465 0.67586 0.12500
 H1181 H 0.30430 0.69200 0.08955
 H1182 H 0.31929 0.61321 0.06878
 H1183 H 0.26259 0.64908 0.15469
 H1184 H 0.24059 0.61481 0.17399
 H1185 H 0.27225 0.55748 0.12969
 C1186 C 0.72093 0.37894 0.05428
 C1187 C 0.73210 0.35827 0.06328
 C1188 C 0.72754 0.33307 0.05683
 C1189 C 0.71077 0.32899 0.04047
 C1190 C 0.69863 0.34997 0.03113
 C1191 C 0.70394 0.37536 0.03833
 O1192 O 0.72802 0.40135 0.06242
 C1193 C 0.74395 0.39466 0.07696
 C1194 C 0.74702 0.36850 0.07827
 C1195 C 0.76253 0.35731 0.09291
 C1196 C 0.77539 0.37376 0.10675
 C1197 C 0.77272 0.40080 0.10542
 C1198 C 0.75680 0.41136 0.09022
 H1199 H 0.73662 0.31710 0.06408
 H1200 H 0.70715 0.30940 0.03535
 H1201 H 0.69528 0.39193 0.03161
 H1202 H 0.76456 0.33666 0.09378
 H1203 H 0.78754 0.36553 0.11833
 H1204 H 0.75428 0.43193 0.08910
 C1205 C 0.92459 0.70941 0.60454
 C1206 C 0.91531 0.69027 0.59115
 C1207 C 0.92273 0.66502 0.59155
 C1208 C 0.94033 0.65929 0.60644
 C1209 C 0.95002 0.67869 0.62077
 C1210 C 0.94186 0.70415 0.61960
 O1211 O 0.91547 0.73222 0.60138
 C1212 C 0.90004 0.72741 0.58568
 C1213 C 0.89912 0.70202 0.57890
 C1214 C 0.88399 0.69289 0.56267
 C1215 C 0.86935 0.71069 0.55298
 C1216 C 0.87026 0.73705 0.55944
 C1217 C 0.88583 0.74541 0.57611
 H1218 H 0.91526 0.65027 0.58076
 H1219 H 0.94620 0.63969 0.60691
 H1220 H 0.94874 0.71961 0.63003
 H1221 H 0.88353 0.67283 0.55758
 H1222 H 0.85762 0.70410 0.54006
 H1223 H 0.88683 0.76536 0.58149
 C1224 C 0.92624 0.31329 0.41331
 C1225 C 0.92443 0.32619 0.43469
 C1226 C 0.93639 0.34817 0.43968
 C1227 C 0.95098 0.35697 0.42202
 C1228 C 0.95371 0.34342 0.40006
 C1229 C 0.94081 0.32137 0.39575
 O1230 O 0.91367 0.29271 0.41207
 C1231 C 0.90381 0.29242 0.43323
 C1232 C 0.90988 0.31234 0.44785
 C1233 C 0.90223 0.31481 0.47123
 C1234 C 0.88787 0.29592 0.47986
 C1235 C 0.88117 0.27520 0.46502
 C1236 C 0.88923 0.27384 0.44119
 H1237 H 0.93470 0.35806 0.45663
 H1238 H 0.96056 0.37386 0.42584
 H1239 H 0.94222 0.31044 0.37931
 H1240 H 0.90749 0.33038 0.48261
 H1241 H 0.88248 0.29720 0.49830
 H1242 H 0.88443 0.25874 0.42905
 C1243 C 0.08465 0.28605 0.61259
 C1244 C 0.09884 0.27275 0.62682
 C1245 C 0.09585 0.26957 0.65129
 C1246 C 0.07742 0.28051 0.66165
 C1247 C 0.06252 0.29497 0.64767
 C1248 C 0.06643 0.29792 0.62266
 O1249 O 0.09006 0.28539 0.58946
 C1250 C 0.10810 0.27151 0.58924
 C1251 C 0.11423 0.26362 0.61174
 C1252 C 0.13251 0.24886 0.61590
 C1253 C 0.14498 0.24170 0.59599
 C1254 C 0.13882 0.24896 0.57249
 C1255 C 0.12009 0.26412 0.56904
 H1256 H 0.10713 0.25867 0.66200
 H1257 H 0.07501 0.27789 0.68076
 H1258 H 0.05536 0.30840 0.61130
 H1259 H 0.13692 0.24290 0.63381
 H1260 H 0.15911 0.22984 0.59878
 H1261 H 0.11501 0.26976 0.55125
 C1262 C 0.06334 0.70185 0.38247
 C1263 C 0.06828 0.68618 0.40153
 C1264 C 0.05795 0.66285 0.40567
 C1265 C 0.04182 0.65539 0.38954
 C1266 C 0.03596 0.67150 0.36995
 C1267 C 0.04704 0.69515 0.36653
 O1268 O 0.07532 0.72300 0.38149
 C1269 C 0.08799 0.72071 0.40048
 C1270 C 0.08422 0.69865 0.41344
 C1271 C 0.09521 0.69286 0.43440
 C1272 C 0.11073 0.71052 0.44230
 C1273 C 0.11540 0.73328 0.42898
 C1274 C 0.10371 0.73823 0.40765
 H1275 H 0.06221 0.65075 0.42073
 H1276 H 0.03368 0.63724 0.39266
 H1277 H 0.04329 0.70794 0.35178
 H1278 H 0.09169 0.67558 0.44455
 H1279 H 0.11876 0.70655 0.45907
 H1280 H 0.10677 0.75510 0.39676
 C1281 C 0.58337 0.92587 0.69807
 C1282 C 0.57840 0.90838 0.68048
 C1283 C 0.58518 0.91129 0.65681
 C1284 C 0.59801 0.93278 0.65119
 C1285 C 0.60414 0.95040 0.66931
 C1286 C 0.59643 0.94703 0.69300
 O1287 O 0.57571 0.91936 0.71949
 C1288 C 0.56594 0.89713 0.71541
 C1289 C 0.56727 0.88939 0.69193
 C1290 C 0.55938 0.86583 0.68421
 C1291 C 0.54967 0.84965 0.70139
 C1292 C 0.54757 0.85743 0.72576
 C1293 C 0.55578 0.88181 0.73258
 H1294 H 0.58115 0.89725 0.64327
 H1295 H 0.60405 0.93499 0.63304
 H1296 H 0.60103 0.96004 0.70721
 H1297 H 0.56110 0.85983 0.66573
 H1298 H 0.54420 0.83095 0.69560
 H1299 H 0.55436 0.88896 0.75069
 C1300 C 0.41901 0.91732 0.31131
 C1301 C 0.43656 0.90991 0.32461
 C1302 C 0.43982 0.91784 0.34802
 C1303 C 0.42442 0.93428 0.35818
 C1304 C 0.40620 0.94259 0.34487
 C1305 C 0.40342 0.93377 0.32107
 O1306 O 0.41927 0.90778 0.28923
 C1307 C 0.43742 0.89415 0.28864
 C1308 C 0.44856 0.89490 0.30985
 C1309 C 0.46818 0.88257 0.31313
 C1310 C 0.47672 0.86878 0.29374
 C1311 C 0.46552 0.86735 0.27161
 C1312 C 0.44554 0.88036 0.26912
 H1313 H 0.45383 0.91179 0.35806
 H1314 H 0.42693 0.94075 0.37638
 H1315 H 0.38982 0.93983 0.31037
 H1316 H 0.47674 0.88373 0.32995
 H1317 H 0.49225 0.85958 0.29589
 H1318 H 0.43651 0.87965 0.25259
 C1319 C 0.60807 0.08884 0.29221
 C1320 C 0.58945 0.08869 0.30577
 C1321 C 0.58727 0.07429 0.32668
 C1322 C 0.60501 0.05943 0.33387
 C1323 C 0.62436 0.05906 0.32006
 C1324 C 0.62582 0.07406 0.29890
 O1325 O 0.60680 0.10374 0.27292
 C1326 C 0.58692 0.11311 0.27429
 C1327 C 0.57560 0.10447 0.29401
 C1328 C 0.55431 0.11142 0.29856
 C1329 C 0.54423 0.12780 0.28201
 C1330 C 0.55556 0.13707 0.26148
 C1331 C 0.57733 0.12965 0.25780
 H1332 H 0.57245 0.07445 0.33705
 H1333 H 0.60355 0.04801 0.35007
 H1334 H 0.64032 0.07428 0.28797
 H1335 H 0.54565 0.10414 0.31407
 H1336 H 0.52746 0.13272 0.28496
 H1337 H 0.58660 0.13645 0.24254
 C1338 C 0.40183 0.05594 0.69857
 C1339 C 0.42329 0.05064 0.69444
 C1340 C 0.43027 0.03341 0.67708
 C1341 C 0.41449 0.02128 0.66323
 C1342 C 0.39222 0.02634 0.66711
 C1343 C 0.38579 0.04368 0.68529
 O1344 O 0.39878 0.07405 0.71498
 C1345 C 0.41874 0.08027 0.72130
 C1346 C 0.43430 0.06638 0.70936
 C1347 C 0.45627 0.07030 0.71266
 C1348 C 0.46249 0.08949 0.72882
 C1349 C 0.44679 0.10442 0.74113
 C1350 C 0.42457 0.09953 0.73738
 H1351 H 0.44726 0.02981 0.67397
 H1352 H 0.41961 0.00799 0.64940
 H1353 H 0.36894 0.04823 0.68832
 H1354 H 0.46820 0.05928 0.70285
 H1355 H 0.47953 0.09326 0.73119
 H1356 H 0.41220 0.11061 0.74646
 C1357 C 0.60281 0.69282 0.07553
 C1358 C 0.61755 0.69501 0.09378
 C1359 C 0.63888 0.68719 0.09153
 C1360 C 0.64547 0.67719 0.06940
 C1361 C 0.63077 0.67507 0.05013
 C1362 C 0.60897 0.68242 0.05337
 O1363 O 0.58390 0.70356 0.08081
 C1364 C 0.58686 0.71279 0.10276
 C1365 C 0.60720 0.70801 0.11146
 C1366 C 0.61449 0.71774 0.13313
 C1367 C 0.60031 0.73327 0.14634
 C1368 C 0.57932 0.73865 0.13776
 C1369 C 0.57233 0.72793 0.11585
 H1370 H 0.65025 0.68960 0.10600
 H1371 H 0.66222 0.67176 0.06700
 H1372 H 0.59764 0.68173 0.03869
 H1373 H 0.63073 0.71415 0.13931
 H1374 H 0.60576 0.74154 0.16304
 H1375 H 0.55655 0.73233 0.10870
 C1376 C 0.39167 0.27239 0.06381
 C1377 C 0.41040 0.28655 0.06285
 C1378 C 0.41311 0.30755 0.04768
 C1379 C 0.39569 0.31446 0.03310
 C1380 C 0.37604 0.30040 0.03391
 C1381 C 0.37417 0.27881 0.04933
 O1382 O 0.39219 0.25373 0.08011
 C1383 C 0.41165 0.25624 0.08966
 C1384 C 0.42341 0.27606 0.07972
 C1385 C 0.44390 0.28267 0.08755
 C1386 C 0.45265 0.26829 0.10643
 C1387 C 0.44085 0.24777 0.11710
 C1388 C 0.42008 0.24158 0.10839
 H1389 H 0.42797 0.31849 0.04738
 H1390 H 0.39745 0.33103 0.02145
 H1391 H 0.35933 0.26789 0.05066
 H1392 H 0.45279 0.29844 0.07951
 H1393 H 0.46868 0.27302 0.11264
 H1394 H 0.41059 0.22624 0.11632
 C1395 C 0.58290 0.29427 0.91844
 C1396 C 0.57228 0.31458 0.90799
 C1397 C 0.57671 0.34006 0.91372
 C1398 C 0.59280 0.34474 0.93082
 C1399 C 0.60420 0.32407 0.94160
 C1400 C 0.59899 0.29847 0.93531
 O1401 O 0.57662 0.27157 0.91028
 C1402 C 0.56175 0.27763 0.89424
 C1403 C 0.55850 0.30370 0.89205
 C1404 C 0.54421 0.31419 0.87555
 C1405 C 0.53294 0.29712 0.86067
 C1406 C 0.53601 0.27016 0.86269
 C1407 C 0.55054 0.26037 0.87989
 H1408 H 0.56821 0.35576 0.90521
 H1409 H 0.59660 0.36445 0.93534
 H1410 H 0.60734 0.28223 0.94311
 H1411 H 0.54203 0.33477 0.87397
 H1412 H 0.52184 0.30485 0.84758
 H1413 H 0.55355 0.23993 0.88152
 C1414 C 0.38475 0.71635 0.92502
 C1415 C 0.37104 0.73255 0.91290
 C1416 C 0.34998 0.73728 0.92035
 C1417 C 0.34279 0.72504 0.94134
 C1418 C 0.35656 0.70825 0.95421
 C1419 C 0.37775 0.70350 0.94570
 O1420 O 0.40458 0.71601 0.91580
 C1421 C 0.40333 0.73234 0.89749
 C1422 C 0.38311 0.74285 0.89493
 C1423 C 0.37831 0.76119 0.87765
 C1424 C 0.39512 0.76932 0.86252
 C1425 C 0.41632 0.75931 0.86505
 C1426 C 0.42035 0.74018 0.88260
 H1427 H 0.33964 0.75044 0.91070
 H1428 H 0.32656 0.72884 0.94773
 H1429 H 0.38873 0.69124 0.95551
 H1430 H 0.36227 0.76922 0.87607
 H1431 H 0.39162 0.78358 0.84891
 H1432 H 0.43638 0.73240 0.88518
 C1433 C 0.73799 0.94636 0.39317
 C1434 C 0.75264 0.93722 0.37665
 C1435 C 0.75266 0.94491 0.35273
 C1436 C 0.73678 0.96254 0.34551
 C1437 C 0.72118 0.97178 0.36214
 C1438 C 0.72204 0.96370 0.38637
 O1439 O 0.74022 0.93607 0.41479
 C1440 C 0.75659 0.91994 0.41188
 C1441 C 0.76473 0.91982 0.38885
 C1442 C 0.78110 0.90325 0.38156
 C1443 C 0.78925 0.88600 0.39865
 C1444 C 0.78111 0.88583 0.42249
 C1445 C 0.76472 0.90328 0.42924
 H1446 H 0.76427 0.93733 0.34001
 H1447 H 0.73629 0.96841 0.32689
 H1448 H 0.71036 0.97027 0.39952
 H1449 H 0.78706 0.90324 0.36328
 H1450 H 0.80180 0.87265 0.39335
 H1451 H 0.75795 0.90317 0.44719
 C1452 C 0.28049 0.92876 0.57259
 C1453 C 0.28808 0.92450 0.54972
 C1454 C 0.30735 0.93471 0.54119
 C1455 C 0.31946 0.94975 0.55694
 C1456 C 0.31227 0.95424 0.58083
 C1457 C 0.29230 0.94374 0.58864
 O1458 O 0.26208 0.91653 0.57724
 C1459 C 0.25807 0.90425 0.55688
 C1460 C 0.27355 0.90849 0.53952
 C1461 C 0.27312 0.89677 0.51716
 C1462 C 0.25607 0.87986 0.51253
 C1463 C 0.23990 0.87507 0.53010
 C1464 C 0.24078 0.88769 0.55253
 H1465 H 0.31301 0.93093 0.52314
 H1466 H 0.33464 0.95758 0.55055
 H1467 H 0.28643 0.94655 0.60677
 H1468 H 0.28560 0.90028 0.50387
 H1469 H 0.25538 0.87050 0.49524
 H1470 H 0.22874 0.88415 0.56630
 C1471 C 0.29678 0.06946 0.41003
 C1472 C 0.29970 0.07181 0.43435
 C1473 C 0.31659 0.06019 0.44646
 C1474 C 0.33101 0.04526 0.43302
 C1475 C 0.32825 0.04199 0.40793
 C1476 C 0.31086 0.05443 0.39627
 O1477 O 0.27957 0.08214 0.40218
 C1478 C 0.27145 0.09255 0.42203
 C1479 C 0.28315 0.08663 0.44219
 C1480 C 0.27734 0.09480 0.46501
 C1481 C 0.25868 0.10980 0.46719
 C1482 C 0.24643 0.11649 0.44671
 C1483 C 0.25296 0.10788 0.42374
 H1484 H 0.31850 0.06237 0.46562
 H1485 H 0.34408 0.03580 0.44234
 H1486 H 0.30824 0.05227 0.37721
 H1487 H 0.28678 0.08976 0.48059
 H1488 H 0.25391 0.11660 0.48479
 H1489 H 0.24383 0.11274 0.40788
 C1490 C 0.71891 0.07129 0.60857
 C1491 C 0.73552 0.07357 0.62464
 C1492 C 0.73528 0.06169 0.64699
 C1493 C 0.71719 0.04675 0.65301
 C1494 C 0.69985 0.04390 0.63669
 C1495 C 0.70078 0.05650 0.61415
 O1496 O 0.72246 0.08393 0.58820
 C1497 C 0.74176 0.09437 0.59149
 C1498 C 0.75044 0.08856 0.61349
 C1499 C 0.77065 0.09709 0.62056
 C1500 C 0.78244 0.11218 0.60425
 C1501 C 0.77391 0.11844 0.58139
 C1502 C 0.75316 0.10950 0.57502
 H1503 H 0.74859 0.06374 0.65931
 H1504 H 0.71680 0.03727 0.67031
 H1505 H 0.68789 0.05472 0.60125
 H1506 H 0.77714 0.09224 0.63796
 H1507 H 0.79816 0.11919 0.60952
 H1508 H 0.74630 0.11379 0.55767
 C1509 C 0.92183 0.59938 0.26249
 C1510 C 0.91014 0.61863 0.25171
 C1511 C 0.91409 0.64455 0.25577
 C1512 C 0.93080 0.65091 0.27155
 C1513 C 0.94305 0.63144 0.28307
 C1514 C 0.93837 0.60525 0.27848
 O1515 O 0.91571 0.57599 0.25586
 C1516 C 0.89979 0.58061 0.24061
 C1517 C 0.89569 0.60639 0.23754
 C1518 C 0.87960 0.61553 0.22248
 C1519 C 0.86723 0.59736 0.21008
 C1520 C 0.87123 0.57064 0.21277
 C1521 C 0.88782 0.56220 0.22827
 H1522 H 0.90472 0.65937 0.24702
 H1523 H 0.93410 0.67103 0.27486
 H1524 H 0.94748 0.58993 0.28682
 H1525 H 0.87669 0.63592 0.22035
 H1526 H 0.85473 0.60408 0.19813
 H1527 H 0.89112 0.54194 0.23084
 C1528 C 0.93551 0.38441 0.72480
 C1529 C 0.93651 0.37964 0.74903
 C1530 C 0.95153 0.36323 0.75919
 C1531 C 0.96630 0.35128 0.74379
 C1532 C 0.96603 0.35601 0.71866
 C1533 C 0.95030 0.37288 0.70903
 O1534 O 0.91971 0.40058 0.71905
 C1535 C 0.91070 0.40612 0.74015
 C1536 C 0.92054 0.39387 0.75902
 C1537 C 0.91412 0.39708 0.78272
 C1538 C 0.89672 0.41357 0.78725
 C1539 C 0.88602 0.42630 0.76820
 C1540 C 0.89310 0.42243 0.74424
 H1541 H 0.95192 0.35978 0.77833
 H1542 H 0.97821 0.33862 0.75162
 H1543 H 0.94964 0.37693 0.69000
 H1544 H 0.92220 0.38721 0.79722
 H1545 H 0.89130 0.41606 0.80560
 H1546 H 0.88525 0.43194 0.72937
 C1547 C 0.06968 0.61975 0.72867
 C1548 C 0.07844 0.64040 0.74050
 C1549 C 0.07146 0.66548 0.73699
 C1550 C 0.05469 0.66950 0.72067
 C1551 C 0.04525 0.64859 0.70817
 C1552 C 0.05304 0.62332 0.71217
 O1553 O 0.07812 0.59740 0.73540
 C1554 C 0.09249 0.60414 0.75183
 C1555 C 0.09330 0.63024 0.75556
 C1556 C 0.10656 0.64148 0.77258
 C1557 C 0.11934 0.62512 0.78658
 C1558 C 0.11864 0.59807 0.78338
 C1559 C 0.10520 0.58749 0.76547
 H1560 H 0.07849 0.68137 0.74668
 H1561 H 0.04903 0.68896 0.71787
 H1562 H 0.04608 0.60693 0.70314
 H1563 H 0.10680 0.66208 0.77526
 H1564 H 0.12964 0.63349 0.80009
 H1565 H 0.10404 0.56691 0.76291
 C1566 C 0.07315 0.40577 0.29143
 C1567 C 0.07982 0.38596 0.27689
 C1568 C 0.07022 0.36185 0.27722
 C1569 C 0.05301 0.35792 0.29324
 C1570 C 0.04580 0.37791 0.30866
 C1571 C 0.05612 0.40223 0.30772
 O1572 O 0.08435 0.42727 0.28794
 C1573 C 0.09841 0.42079 0.27088
 C1574 C 0.09631 0.39570 0.26359
 C1575 C 0.10935 0.38481 0.24600
 C1576 C 0.12515 0.40045 0.23533
 C1577 C 0.12754 0.42660 0.24217
 C1578 C 0.11396 0.43679 0.26039
 H1579 H 0.07574 0.34660 0.26553
 H1580 H 0.04543 0.33917 0.29371
 H1581 H 0.05100 0.41790 0.31915
 H1582 H 0.10746 0.36493 0.24072
 H1583 H 0.13563 0.39207 0.22186
 H1584 H 0.11515 0.45667 0.26592
   
