data_POSCAR
  _audit_creation_date              2014-09-24
  _audit_creation_method            'ToBaCCo'
  _symmetry_space_group_name_H-M    'P1'
  _symmetry_Int_Tables_number       1
  _symmetry_cell_setting            triclinic
  loop_
  _symmetry_equiv_pos_as_xyz
 x,y,z
_cell_length_a 75.8385
_cell_length_b 75.3217
_cell_length_c 75.6442
_cell_angle_alpha 89.902500
_cell_angle_beta 90.102700
_cell_angle_gamma 89.945400
loop_
  _atom_site_label
  _atom_site_type_symbol
  _atom_site_fract_x
  _atom_site_fract_y
  _atom_site_fract_z
N1 N 0.18227 0.22408 0.22679
 N2 N 0.18692 0.20970 0.23547
 C3 C 0.17566 0.20717 0.24899
 C4 C 0.16323 0.22069 0.24877
 C5 C 0.16791 0.23117 0.23445
 H6 H 0.17638 0.19622 0.25820
 H7 H 0.16145 0.24315 0.22994
 Cu8 Cu 0.20723 0.19567 0.22825
 Cu9 Cu 0.19514 0.23258 0.20621
 Cu10 Cu 0.23191 0.20843 0.19355
 N11 N 0.22816 0.18252 0.22120
 N12 N 0.23773 0.18757 0.20764
 C13 C 0.25130 0.17623 0.20564
 C14 C 0.25025 0.16332 0.21868
 C15 C 0.23535 0.16780 0.22831
 H16 H 0.26124 0.17742 0.19550
 H17 H 0.23005 0.16080 0.23958
 N18 N 0.22388 0.22990 0.18098
 N19 N 0.20984 0.23905 0.18576
 C20 C 0.20770 0.25279 0.17454
 C21 C 0.22104 0.25232 0.16207
 C22 C 0.23105 0.23761 0.16661
 H23 H 0.19724 0.26250 0.17546
 H24 H 0.24258 0.23271 0.15981
 H25 H 0.20514 0.20823 0.19856
 H26 H 0.21917 0.22188 0.21362
 N27 N 0.68060 0.72311 0.72668
 N28 N 0.68600 0.70950 0.73613
 C29 C 0.67484 0.70709 0.74976
 C30 C 0.66173 0.71990 0.74885
 C31 C 0.66587 0.72983 0.73397
 H32 H 0.67625 0.69682 0.75965
 H33 H 0.65866 0.74104 0.72871
 Cu34 Cu 0.70702 0.69616 0.72972
 Cu35 Cu 0.69301 0.73107 0.70560
 Cu36 Cu 0.72992 0.70700 0.69319
 N37 N 0.72749 0.68253 0.72223
 N38 N 0.73637 0.68683 0.70796
 C39 C 0.74972 0.67527 0.70579
 C40 C 0.74923 0.66297 0.71944
 C41 C 0.73489 0.66804 0.72961
 H42 H 0.75897 0.67573 0.69496
 H43 H 0.73021 0.66171 0.74153
 N44 N 0.72134 0.72783 0.67995
 N45 N 0.70732 0.73704 0.68470
 C46 C 0.70494 0.75045 0.67313
 C47 C 0.71807 0.74965 0.66045
 C48 C 0.72821 0.73512 0.66524
 H49 H 0.69433 0.76000 0.67382
 H50 H 0.73988 0.73030 0.65862
 H51 H 0.70335 0.70645 0.69936
 H52 H 0.71759 0.72157 0.71273
 N53 N 0.31977 0.77736 0.72656
 N54 N 0.31531 0.79178 0.73521
 C55 C 0.32662 0.79413 0.74876
 C56 C 0.33887 0.78046 0.74859
 C57 C 0.33406 0.77007 0.73426
 H58 H 0.32605 0.80506 0.75797
 H59 H 0.34036 0.75801 0.72980
 Cu60 Cu 0.29519 0.80610 0.72792
 Cu61 Cu 0.30673 0.76905 0.70599
 Cu62 Cu 0.27026 0.79373 0.69324
 N63 N 0.27444 0.81957 0.72080
 N64 N 0.26477 0.81467 0.70725
 C65 C 0.25133 0.82617 0.70523
 C66 C 0.25255 0.83912 0.71826
 C67 C 0.26747 0.83438 0.72789
 H68 H 0.24145 0.82507 0.69499
 H69 H 0.27292 0.84112 0.73924
 N70 N 0.27794 0.77214 0.68074
 N71 N 0.29186 0.76278 0.68555
 C72 C 0.29374 0.74899 0.67441
 C73 C 0.28034 0.74964 0.66195
 C74 C 0.27058 0.76452 0.66642
 H75 H 0.30404 0.73912 0.67539
 H76 H 0.25908 0.76956 0.65963
 H77 H 0.29704 0.79352 0.69828
 H78 H 0.28286 0.78006 0.71336
 N79 N 0.82062 0.27755 0.22571
 N80 N 0.81558 0.29135 0.23501
 C81 C 0.82687 0.29365 0.24857
 C82 C 0.83976 0.28053 0.24782
 C83 C 0.83525 0.27057 0.23303
 H84 H 0.82570 0.30413 0.25822
 H85 H 0.84202 0.25909 0.22785
 Cu86 Cu 0.79477 0.30503 0.22846
 Cu87 Cu 0.80788 0.26962 0.20481
 Cu88 Cu 0.77122 0.29413 0.19230
 N89 N 0.77447 0.31895 0.22091
 N90 N 0.76532 0.31461 0.20680
 C91 C 0.75210 0.32634 0.20461
 C92 C 0.75295 0.33878 0.21807
 C93 C 0.76737 0.33362 0.22816
 H94 H 0.74266 0.32586 0.19391
 H95 H 0.77227 0.33998 0.23997
 N96 N 0.77931 0.27297 0.17935
 N97 N 0.79329 0.26367 0.18408
 C98 C 0.79540 0.25012 0.17268
 C99 C 0.78209 0.25087 0.16015
 C100 C 0.77214 0.26556 0.16483
 H101 H 0.80576 0.24031 0.17358
 H102 H 0.76059 0.27058 0.15808
 H103 H 0.79784 0.29432 0.19823
 H104 H 0.78352 0.27961 0.21197
 N105 N 0.81907 0.72339 0.27359
 N106 N 0.81446 0.70914 0.26472
 C107 C 0.82552 0.70703 0.25098
 C108 C 0.83778 0.72068 0.25123
 C109 C 0.83322 0.73080 0.26582
 H110 H 0.82479 0.69626 0.24160
 H111 H 0.83962 0.74273 0.27045
 Cu112 Cu 0.79449 0.69470 0.27203
 Cu113 Cu 0.80645 0.73125 0.29457
 Cu114 Cu 0.77035 0.70622 0.30748
 N115 N 0.77393 0.68106 0.27922
 N116 N 0.76459 0.68560 0.29310
 C117 C 0.75125 0.67401 0.29513
 C118 C 0.75222 0.66147 0.28178
 C119 C 0.76682 0.66642 0.27193
 H120 H 0.74150 0.67480 0.30550
 H121 H 0.77197 0.65978 0.26039
 N122 N 0.77826 0.72752 0.32031
 N123 N 0.79200 0.73704 0.31541
 C124 C 0.79405 0.75061 0.32680
 C125 C 0.78096 0.74964 0.33952
 C126 C 0.77120 0.73480 0.33494
 H127 H 0.80427 0.76054 0.32581
 H128 H 0.75988 0.72956 0.34182
 H129 H 0.79702 0.70659 0.30192
 H130 H 0.78244 0.72037 0.28744
 N131 N 0.32132 0.22237 -0.22552
 N132 N 0.31713 0.20788 -0.23418
 C133 C 0.32876 0.20546 -0.24740
 C134 C 0.34099 0.21921 -0.24706
 C135 C 0.33572 0.22967 -0.23289
 H136 H 0.32825 0.19450 -0.25656
 H137 H 0.34180 0.24173 -0.22819
 Cu138 Cu 0.29683 0.19361 -0.22740
 Cu139 Cu 0.30780 0.23080 -0.20536
 Cu140 Cu 0.27110 0.20623 -0.19344
 N141 N 0.27582 0.18031 -0.22084
 N142 N 0.26586 0.18531 -0.20756
 C143 C 0.25233 0.17390 -0.20586
 C144 C 0.25381 0.16097 -0.21879
 C145 C 0.26892 0.16553 -0.22806
 H146 H 0.24212 0.17506 -0.19599
 H147 H 0.27455 0.15855 -0.23917
 N148 N 0.27854 0.22779 -0.18077
 N149 N 0.29249 0.23717 -0.18533
 C150 C 0.29411 0.25101 -0.17420
 C151 C 0.28054 0.25033 -0.16199
 C152 C 0.27094 0.23540 -0.16660
 H153 H 0.30455 0.26074 -0.17481
 H154 H 0.25920 0.23048 -0.16018
 H155 H 0.29800 0.20636 -0.19778
 H156 H 0.28415 0.21975 -0.21332
 N157 N 0.68007 0.27635 -0.22505
 N158 N 0.68520 0.29011 -0.23438
 C159 C 0.67373 0.29273 -0.24774
 C160 C 0.66061 0.27987 -0.24681
 C161 C 0.66519 0.26972 -0.23214
 H162 H 0.67492 0.30325 -0.25738
 H163 H 0.65832 0.25833 -0.22688
 Cu164 Cu 0.70637 0.30331 -0.22815
 Cu165 Cu 0.69302 0.26801 -0.20439
 Cu166 Cu 0.73031 0.29171 -0.19245
 N167 N 0.72710 0.31674 -0.22096
 N168 N 0.73640 0.31210 -0.20704
 C169 C 0.74988 0.32352 -0.20503
 C170 C 0.74904 0.33608 -0.21842
 C171 C 0.73435 0.33131 -0.22827
 H172 H 0.75947 0.32279 -0.19447
 H173 H 0.72936 0.33790 -0.23995
 N174 N 0.72203 0.27070 -0.17936
 N175 N 0.70785 0.26165 -0.18391
 C176 C 0.70569 0.24811 -0.17247
 C177 C 0.71915 0.24863 -0.16007
 C178 C 0.72924 0.26316 -0.16490
 H179 H 0.69500 0.23866 -0.17304
 H180 H 0.74108 0.26784 -0.15846
 H181 H 0.70358 0.29245 -0.19792
 H182 H 0.71740 0.27755 -0.21194
 N183 N 0.18298 0.77453 0.27145
 N184 N 0.18800 0.78859 0.26248
 C185 C 0.17669 0.79127 0.24899
 C186 C 0.16388 0.77816 0.24948
 C187 C 0.16835 0.76777 0.26396
 H188 H 0.17777 0.80191 0.23946
 H189 H 0.16139 0.75626 0.26885
 Cu190 Cu 0.20879 0.80208 0.26933
 Cu191 Cu 0.19564 0.76612 0.29226
 Cu192 Cu 0.23224 0.79034 0.30530
 N193 N 0.22910 0.81578 0.27715
 N194 N 0.23820 0.81113 0.29119
 C195 C 0.25139 0.82280 0.29367
 C196 C 0.25060 0.83561 0.28044
 C197 C 0.23618 0.83061 0.27020
 H198 H 0.26078 0.82193 0.30439
 H199 H 0.23112 0.83723 0.25858
 N200 N 0.22414 0.76892 0.31786
 N201 N 0.21017 0.75974 0.31294
 C202 C 0.20798 0.74604 0.32419
 C203 C 0.22122 0.74658 0.33682
 C204 C 0.23121 0.76129 0.33234
 H205 H 0.19757 0.73631 0.32318
 H206 H 0.24267 0.76622 0.33926
 H207 H 0.20561 0.79065 0.29933
 H208 H 0.21998 0.77625 0.28534
 N209 N 0.47180 0.43037 0.47526
 N210 N 0.45777 0.43520 0.48421
 C211 C 0.45557 0.42398 0.49792
 C212 C 0.46893 0.41140 0.49754
 C213 C 0.47897 0.41593 0.48292
 H214 H 0.44495 0.42484 0.50738
 H215 H 0.49073 0.40934 0.47824
 Cu216 Cu 0.44375 0.45564 0.47704
 Cu217 Cu 0.47980 0.44315 0.45438
 Cu218 Cu 0.45554 0.48009 0.44173
 N219 N 0.43052 0.47667 0.47000
 N220 N 0.43519 0.48613 0.45618
 C221 C 0.42389 0.49977 0.45421
 C222 C 0.41139 0.49888 0.46753
 C223 C 0.41607 0.48400 0.47731
 H224 H 0.42481 0.50965 0.44388
 H225 H 0.40939 0.47879 0.48880
 N226 N 0.47654 0.47184 0.42881
 N227 N 0.48578 0.45780 0.43363
 C228 C 0.49924 0.45561 0.42225
 C229 C 0.49847 0.46891 0.40960
 C230 C 0.48387 0.47894 0.41422
 H231 H 0.50880 0.44500 0.42303
 H232 H 0.47900 0.49066 0.40754
 H233 H 0.46941 0.46746 0.46167
 H234 H 0.45545 0.45319 0.44712
 N235 N -0.02450 -0.06905 0.97799
 N236 N -0.03864 -0.06442 0.98686
 C237 C -0.04064 -0.07553 1.00068
 C238 C -0.02703 -0.08784 1.00047
 C239 C -0.01704 -0.08325 0.98582
 H240 H -0.05133 -0.07482 1.01008
 H241 H -0.00518 -0.08968 0.98119
 Cu242 Cu -0.05313 -0.04442 0.97943
 Cu243 Cu -0.01686 -0.05642 0.95686
 Cu244 Cu -0.04197 -0.02022 0.94376
 N245 N -0.06686 -0.02383 0.97211
 N246 N -0.06240 -0.01441 0.95819
 C247 C -0.07399 -0.00103 0.95611
 C248 C -0.08647 -0.00208 0.96944
 C249 C -0.08147 -0.01675 0.97935
 H250 H -0.07344 0.00862 0.94554
 H251 H -0.08789 -0.02181 0.99105
 N252 N -0.02083 -0.02819 0.93089
 N253 N -0.01128 -0.04197 0.93587
 C254 C 0.00215 -0.04405 0.92444
 C255 C 0.00106 -0.03095 0.91160
 C256 C -0.01371 -0.02114 0.91616
 H257 H 0.01206 -0.05431 0.92547
 H258 H -0.01901 -0.00979 0.90921
 H259 H -0.02776 -0.03226 0.96383
 H260 H -0.04143 -0.04704 0.94953
 N261 N 1.02595 0.56918 0.97632
 N262 N 1.04184 0.56676 0.98282
 C263 C 1.04442 0.57809 0.99631
 C264 C 1.02932 0.58827 0.99839
 C265 C 1.01788 0.58218 0.98542
 H266 H 1.05649 0.57894 1.00387
 H267 H 1.00469 0.58689 0.98267
 Cu268 Cu 1.05772 0.54910 0.97309
 Cu269 Cu 1.01725 0.55591 0.95601
 Cu270 Cu 1.04551 0.52428 0.93846
 N271 N 1.06974 0.52706 0.96742
 N272 N 1.06489 0.51735 0.95386
 C273 C 1.07563 0.50319 0.95261
 C274 C 1.08790 0.50397 0.96621
 C275 C 1.08369 0.51936 0.97535
 H276 H 1.07465 0.49325 0.94237
 H277 H 1.09026 0.52466 0.98688
 N278 N 1.02205 0.52938 0.92853
 N279 N 1.01115 0.54119 0.93533
 C280 C 0.99632 0.54161 0.92553
 C281 C 0.99790 0.52942 0.91190
 C282 C 1.01441 0.52190 0.91431
 H283 H 0.98523 0.55025 0.92807
 H284 H 1.02057 0.51188 0.90619
 H285 H 1.03271 0.53355 0.96038
 H286 H 1.04130 0.55090 0.94506
 N287 N 0.52728 0.07197 0.47648
 N288 N 0.54156 0.06742 0.48525
 C289 C 0.54403 0.07894 0.49862
 C290 C 0.53057 0.09142 0.49822
 C291 C 0.52020 0.08652 0.48394
 H292 H 0.55489 0.07837 0.50786
 H293 H 0.50829 0.09293 0.47935
 Cu294 Cu 0.55549 0.04689 0.47828
 Cu295 Cu 0.51889 0.05871 0.45604
 Cu296 Cu 0.54354 0.02209 0.44337
 N297 N 0.56920 0.02630 0.47105
 N298 N 0.56446 0.01669 0.45737
 C299 C 0.57608 0.00336 0.45523
 C300 C 0.58885 0.00461 0.46830
 C301 C 0.58401 0.01937 0.47810
 H302 H 0.57515 -0.00659 0.44500
 H303 H 0.59082 0.02475 0.48944
 N304 N 0.52197 0.02970 0.43090
 N305 N 0.51258 0.04362 0.43573
 C306 C 0.49876 0.04537 0.42466
 C307 C 0.49943 0.03191 0.41221
 C308 C 0.51437 0.02225 0.41663
 H309 H 0.48892 0.05569 0.42565
 H310 H 0.51944 0.01069 0.40990
 H311 H 0.52974 0.03460 0.46334
 H312 H 0.54324 0.04903 0.44852
 N313 N -0.02807 0.07060 0.52522
 N314 N -0.04231 0.06614 0.51639
 C315 C -0.04435 0.07733 0.50263
 C316 C -0.03065 0.08951 0.50284
 C317 C -0.02059 0.08478 0.51742
 H318 H -0.05509 0.07671 0.49325
 H319 H -0.00863 0.09106 0.52201
 Cu320 Cu -0.05683 0.04615 0.52370
 Cu321 Cu -0.02030 0.05776 0.54619
 Cu322 Cu -0.04536 0.02157 0.55912
 N323 N -0.07043 0.02547 0.53087
 N324 N -0.06590 0.01594 0.54471
 C325 C -0.07743 0.00251 0.54667
 C326 C -0.08991 0.00361 0.53329
 C327 C -0.08499 0.01838 0.52352
 H328 H -0.07664 -0.00739 0.55699
 H329 H -0.09156 0.02366 0.51197
 N330 N -0.02413 0.02937 0.57198
 N331 N -0.01458 0.04313 0.56704
 C332 C -0.00104 0.04507 0.57841
 C333 C -0.00206 0.03190 0.59118
 C334 C -0.01690 0.02220 0.58662
 H335 H 0.00890 0.05528 0.57738
 H336 H -0.02217 0.01082 0.59352
 H337 H -0.03135 0.03372 0.53904
 H338 H -0.04484 0.04844 0.55357
 N339 N 0.47395 0.56762 0.02196
 N340 N 0.46026 0.56246 0.01263
 C341 C 0.45823 0.57349 -0.00126
 C342 C 0.47137 0.58627 -0.00064
 C343 C 0.48110 0.58206 0.01433
 H344 H 0.44797 0.57225 -0.01111
 H345 H 0.49244 0.58905 0.01945
 Cu346 Cu 0.44634 0.54191 0.01960
 Cu347 Cu 0.48145 0.55534 0.04335
 Cu348 Cu 0.45647 0.51923 0.05663
 N349 N 0.43216 0.52193 0.02759
 N350 N 0.43621 0.51313 0.04205
 C351 C 0.42436 0.50008 0.04452
 C352 C 0.41215 0.50067 0.03087
 C353 C 0.41757 0.51477 0.02039
 H354 H 0.42460 0.49093 0.05554
 H355 H 0.41142 0.51941 0.00834
 N356 N 0.47745 0.52743 0.06963
 N357 N 0.48693 0.54121 0.06461
 C358 C 0.50030 0.54346 0.07613
 C359 C 0.49924 0.53045 0.08905
 C360 C 0.48456 0.52054 0.08446
 H361 H 0.51021 0.55370 0.07507
 H362 H 0.47933 0.50920 0.09147
 H363 H 0.47128 0.53078 0.03678
 H364 H 0.45672 0.54585 0.04985
 N365 N 0.52402 -0.06789 0.02240
 N366 N 0.53800 -0.06304 0.01338
 C367 C 0.54042 -0.07446 -0.00008
 C368 C 0.52722 -0.08718 0.00048
 C369 C 0.51706 -0.08253 0.01498
 H370 H 0.55097 -0.07353 -0.00961
 H371 H 0.50555 -0.08935 0.01993
 Cu372 Cu 0.55178 -0.04235 0.02015
 Cu373 Cu 0.51598 -0.05502 0.04316
 Cu374 Cu 0.54076 -0.01867 0.05618
 N375 N 0.56578 -0.02219 0.02795
 N376 N 0.56141 -0.01300 0.04202
 C377 C 0.57323 0.00009 0.04443
 C378 C 0.58577 -0.00090 0.03115
 C379 C 0.58057 -0.01526 0.02095
 H380 H 0.57276 0.00953 0.05516
 H381 H 0.58699 -0.02024 0.00922
 N382 N 0.51941 -0.02650 0.06879
 N383 N 0.50997 -0.04031 0.06382
 C384 C 0.49631 -0.04226 0.07501
 C385 C 0.49715 -0.02902 0.08769
 C386 C 0.51201 -0.01929 0.08327
 H387 H 0.48645 -0.05253 0.07392
 H388 H 0.51717 -0.00786 0.09015
 H389 H 0.52646 -0.03066 0.03624
 H390 H 0.54058 -0.04545 0.05018
 N391 N 1.02582 0.42942 0.52250
 N392 N 1.04001 0.43424 0.51380
 C393 C 1.04262 0.42288 0.50031
 C394 C 1.02936 0.41021 0.50057
 C395 C 1.01894 0.41485 0.51488
 H396 H 1.05344 0.42372 0.49108
 H397 H 1.00714 0.40823 0.51940
 Cu398 Cu 1.05368 0.45488 0.52093
 Cu399 Cu 1.01727 0.44235 0.54303
 Cu400 Cu 1.04086 0.47964 0.55560
 N401 N 1.06647 0.47616 0.52789
 N402 N 1.06139 0.48575 0.54144
 C403 C 1.07247 0.49955 0.54340
 C404 C 1.08524 0.49863 0.53035
 C405 C 1.08096 0.48357 0.52074
 H406 H 1.07120 0.50955 0.55355
 H407 H 1.08794 0.47829 0.50947
 N408 N 1.01974 0.47132 0.56825
 N409 N 1.01073 0.45715 0.56344
 C410 C 0.99713 0.45492 0.57465
 C411 C 0.99757 0.46832 0.58717
 C412 C 1.01212 0.47846 0.58265
 H413 H 0.98772 0.44419 0.57388
 H414 H 1.01677 0.49026 0.58928
 H415 H 1.02756 0.46663 0.53555
 H416 H 1.04135 0.45266 0.55062
 Si417 Si 0.37335 -0.00070 0.25099
 Si418 Si 0.12680 -0.00005 0.75029
 Si419 Si 0.62616 0.49993 0.24992
 Si420 Si 0.87325 0.49901 0.74953
 Si421 Si 0.24884 0.37727 -0.00114
 Si422 Si 0.75015 0.12149 0.00116
 Si423 Si 0.24850 0.62260 0.50109
 Si424 Si 0.74943 0.87729 0.49981
 Si425 Si 0.00054 0.24901 0.37319
 Si426 Si 0.00003 0.74902 0.12634
 Si427 Si 0.50034 0.25154 0.62668
 Si428 Si 0.50039 0.74980 0.87468
 C429 C 0.12097 0.23858 0.26896
 C430 C 0.11956 0.22822 0.28425
 C431 C 0.13243 0.21544 0.28802
 C432 C 0.14664 0.21299 0.27653
 C433 C 0.14819 0.22332 0.26106
 C434 C 0.13516 0.23616 0.25745
 C435 C 0.10484 0.23066 0.29598
 C436 C 0.09242 0.23275 0.30568
 C437 C 0.07776 0.23527 0.31687
 C438 C 0.06515 0.23746 0.32629
 C439 C 0.04997 0.24015 0.33736
 C440 C 0.05092 0.23664 0.35551
 C441 C 0.03614 0.23928 0.36621
 C442 C 0.02022 0.24534 0.35886
 C443 C 0.01944 0.24905 0.34068
 C444 C 0.03421 0.24641 0.32998
 H445 H 0.11106 0.24849 0.26589
 H446 H 0.13147 0.20736 0.29984
 H447 H 0.15641 0.20307 0.27987
 H448 H 0.13577 0.24429 0.24567
 H449 H 0.06309 0.23191 0.36139
 H450 H 0.03725 0.23664 0.38020
 H451 H 0.00753 0.25419 0.33467
 H452 H 0.03336 0.24931 0.31597
 C453 C 0.62851 0.71201 0.78559
 C454 C 0.61801 0.72724 0.78432
 C455 C 0.62176 0.74006 0.77147
 C456 C 0.63594 0.73768 0.75993
 C457 C 0.64662 0.72242 0.76108
 C458 C 0.64270 0.70960 0.77407
 C459 C 0.60340 0.72973 0.79619
 C460 C 0.59114 0.73189 0.80608
 C461 C 0.57675 0.73451 0.81759
 C462 C 0.56441 0.73684 0.82734
 C463 C 0.54961 0.73976 0.83887
 C464 C 0.54829 0.75556 0.84847
 C465 C 0.53372 0.75859 0.85937
 C466 C 0.52021 0.74592 0.86061
 C467 C 0.52186 0.72989 0.85130
 C468 C 0.53642 0.72686 0.84042
 H469 H 0.62571 0.70198 0.79548
 H470 H 0.61372 0.75192 0.77038
 H471 H 0.63855 0.74791 0.75023
 H472 H 0.65048 0.69763 0.77533
 H473 H 0.55849 0.76557 0.84750
 H474 H 0.53315 0.77085 0.86670
 H475 H 0.51200 0.71960 0.85258
 H476 H 0.53740 0.71448 0.83321
 C477 C 0.38117 0.76237 0.76869
 C478 C 0.38236 0.77222 0.78430
 C479 C 0.36934 0.78475 0.78829
 C480 C 0.35519 0.78743 0.77670
 C481 C 0.35386 0.77760 0.76094
 C482 C 0.36704 0.76501 0.75709
 C483 C 0.39698 0.76951 0.79617
 C484 C 0.40928 0.76719 0.80601
 C485 C 0.42377 0.76442 0.81742
 C486 C 0.43622 0.76201 0.82707
 C487 C 0.45117 0.75908 0.83845
 C488 C 0.45489 0.77096 0.85215
 C489 C 0.46954 0.76820 0.86307
 C490 C 0.48071 0.75358 0.86029
 C491 C 0.47671 0.74156 0.84671
 C492 C 0.46207 0.74432 0.83581
 H493 H 0.39121 0.75266 0.76545
 H494 H 0.37011 0.79244 0.80035
 H495 H 0.34527 0.79713 0.78022
 H496 H 0.36660 0.75729 0.74507
 H497 H 0.44646 0.78235 0.85442
 H498 H 0.47196 0.77743 0.87371
 H499 H 0.48481 0.72998 0.84451
 H500 H 0.45925 0.73496 0.82533
 C501 C -0.12879 0.28664 0.28544
 C502 C -0.11707 0.27260 0.28263
 C503 C -0.11963 0.26120 0.26831
 C504 C -0.13385 0.26379 0.25681
 C505 C -0.14585 0.27790 0.25942
 C506 C -0.14304 0.28929 0.27398
 C507 C -0.10240 0.26987 0.29443
 C508 C -0.09008 0.26751 0.30424
 C509 C -0.07560 0.26465 0.31565
 C510 C -0.06320 0.26213 0.32532
 C511 C -0.04833 0.25904 0.33676
 C512 C -0.03858 0.24333 0.33526
 C513 C -0.02405 0.24037 0.34626
 C514 C -0.01916 0.25304 0.35893
 C515 C -0.02890 0.26883 0.36031
 C516 C -0.04345 0.27179 0.34930
 H517 H -0.12692 0.29556 0.29651
 H518 H -0.11062 0.25028 0.26601
 H519 H -0.13529 0.25463 0.24592
 H520 H -0.15175 0.30032 0.27668
 H521 H -0.04217 0.23341 0.32555
 H522 H -0.01654 0.22822 0.34481
 H523 H -0.02530 0.27895 0.36976
 H524 H -0.05085 0.28404 0.35051
 C525 C -0.12035 0.73918 0.23074
 C526 C -0.11910 0.72913 0.21526
 C527 C -0.13197 0.71642 0.21144
 C528 C -0.14602 0.71370 0.22308
 C529 C -0.14740 0.72368 0.23875
 C530 C -0.13438 0.73649 0.24241
 C531 C -0.10449 0.73174 0.20342
 C532 C -0.09217 0.73387 0.19360
 C533 C -0.07762 0.73632 0.18224
 C534 C -0.06509 0.73836 0.17268
 C535 C -0.04998 0.74075 0.16145
 C536 C -0.03611 0.72849 0.16200
 C537 C -0.02126 0.73098 0.15138
 C538 C -0.02007 0.74579 0.14016
 C539 C -0.03413 0.75791 0.13946
 C540 C -0.04899 0.75542 0.15009
 H541 H -0.11043 0.74903 0.23385
 H542 H -0.13114 0.70857 0.19948
 H543 H -0.15579 0.70382 0.21970
 H544 H -0.13486 0.74436 0.25433
 H545 H -0.03674 0.71706 0.17068
 H546 H -0.01064 0.72136 0.15195
 H547 H -0.03368 0.76932 0.13078
 H548 H -0.05968 0.76496 0.14951
 C549 C 0.38097 0.23947 0.73232
 C550 C 0.38432 0.22756 0.71859
 C551 C 0.37334 0.21285 0.71624
 C552 C 0.35904 0.21006 0.72756
 C553 C 0.35544 0.22197 0.74150
 C554 C 0.36670 0.23674 0.74367
 C555 C 0.39901 0.23046 0.70691
 C556 C 0.41131 0.23297 0.69716
 C557 C 0.42571 0.23597 0.68575
 C558 C 0.43800 0.23857 0.67601
 C559 C 0.45267 0.24172 0.66436
 C560 C 0.46754 0.23071 0.66509
 C561 C 0.48175 0.23376 0.65375
 C562 C 0.48116 0.24774 0.64149
 C563 C 0.46634 0.25889 0.64096
 C564 C 0.45212 0.25584 0.65231
 H565 H 0.38940 0.25091 0.73427
 H566 H 0.37582 0.20353 0.70564
 H567 H 0.35092 0.19852 0.72522
 H568 H 0.36465 0.24632 0.75408
 H569 H 0.46815 0.21980 0.67442
 H570 H 0.49319 0.22516 0.65449
 H571 H 0.46569 0.26998 0.63190
 H572 H 0.44073 0.26451 0.65171
 C573 C 0.61942 0.26139 0.73323
 C574 C 0.61684 0.27292 0.71896
 C575 C 0.62871 0.28679 0.71606
 C576 C 0.64315 0.28914 0.72734
 C577 C 0.64599 0.27759 0.74181
 C578 C 0.63382 0.26368 0.74455
 C579 C 0.60205 0.27045 0.70727
 C580 C 0.58969 0.26829 0.69747
 C581 C 0.57523 0.26568 0.68599
 C582 C 0.56290 0.26339 0.67618
 C583 C 0.54821 0.26057 0.66444
 C584 C 0.53342 0.27167 0.66528
 C585 C 0.51915 0.26889 0.65389
 C586 C 0.51962 0.25509 0.64147
 C587 C 0.53438 0.24387 0.64081
 C588 C 0.54864 0.24664 0.65221
 H589 H 0.61029 0.25059 0.73560
 H590 H 0.62684 0.29581 0.70504
 H591 H 0.65197 0.30003 0.72456
 H592 H 0.63527 0.25441 0.75538
 H593 H 0.53290 0.28243 0.67475
 H594 H 0.50776 0.27753 0.65473
 H595 H 0.53493 0.23290 0.63164
 H596 H 0.55997 0.23790 0.65153
 C597 C 0.12445 0.75785 0.22602
 C598 C 0.11974 0.77144 0.21431
 C599 C 0.12946 0.78721 0.21401
 C600 C 0.14384 0.78940 0.22540
 C601 C 0.14868 0.77583 0.23729
 C602 C 0.13881 0.76001 0.23744
 C603 C 0.10485 0.76921 0.20269
 C604 C 0.09231 0.76721 0.19308
 C605 C 0.07753 0.76472 0.18200
 C606 C 0.06482 0.76243 0.17269
 C607 C 0.04951 0.75950 0.16181
 C608 C 0.05022 0.76255 0.14357
 C609 C 0.03536 0.75945 0.13305
 C610 C 0.01969 0.75312 0.14063
 C611 C 0.01896 0.75049 0.15899
 C612 C 0.03382 0.75357 0.16950
 H613 H 0.11703 0.74557 0.22635
 H614 H 0.12590 0.79784 0.20502
 H615 H 0.15099 0.80180 0.22497
 H616 H 0.14218 0.74921 0.24625
 H617 H 0.06224 0.76735 0.13749
 H618 H 0.03607 0.76227 0.11904
 H619 H 0.00702 0.74610 0.16536
 H620 H 0.03306 0.75133 0.18363
 C621 C 0.28661 0.12928 0.21182
 C622 C 0.28518 0.11904 0.22718
 C623 C 0.27239 0.12326 0.23980
 C624 C 0.26105 0.13766 0.23707
 C625 C 0.26234 0.14806 0.22164
 C626 C 0.27529 0.14369 0.20905
 C627 C 0.29677 0.10415 0.22999
 C628 C 0.30641 0.09164 0.23237
 C629 C 0.31761 0.07694 0.23522
 C630 C 0.32710 0.06432 0.23770
 C631 C 0.33831 0.04919 0.24073
 C632 C 0.34775 0.04767 0.25659
 C633 C 0.35838 0.03280 0.25970
 C634 C 0.35962 0.01935 0.24696
 C635 C 0.35022 0.02097 0.23105
 C636 C 0.33960 0.03583 0.22795
 H637 H 0.29645 0.12611 0.20194
 H638 H 0.27118 0.11543 0.25176
 H639 H 0.25139 0.14062 0.24713
 H640 H 0.27665 0.15125 0.19696
 H641 H 0.34681 0.05791 0.26659
 H642 H 0.36541 0.03179 0.27211
 H643 H 0.35102 0.01068 0.22110
 H644 H 0.33234 0.03686 0.21565
 C645 C 0.78817 0.63149 0.71521
 C646 C 0.78411 0.61866 0.72794
 C647 C 0.76870 0.62030 0.73794
 C648 C 0.75737 0.63471 0.73522
 C649 C 0.76130 0.64770 0.72241
 C650 C 0.77687 0.64591 0.71245
 C651 C 0.79570 0.60377 0.73069
 C652 C 0.80536 0.59126 0.73299
 C653 C 0.81662 0.57657 0.73568
 C654 C 0.82618 0.56398 0.73798
 C655 C 0.83751 0.54889 0.74074
 C656 C 0.83871 0.54104 0.75747
 C657 C 0.84952 0.52622 0.76010
 C658 C 0.85932 0.51916 0.74605
 C659 C 0.85793 0.52701 0.72925
 C660 C 0.84713 0.54183 0.72663
 H661 H 0.80008 0.63036 0.70740
 H662 H 0.76541 0.61042 0.74782
 H663 H 0.74550 0.63551 0.74308
 H664 H 0.78045 0.65565 0.70258
 H665 H 0.83121 0.54630 0.76846
 H666 H 0.85001 0.52025 0.77307
 H667 H 0.86491 0.52160 0.71804
 H668 H 0.84617 0.54770 0.71357
 C669 C 0.78845 0.36698 0.78514
 C670 C 0.78398 0.38022 0.77293
 C671 C 0.76814 0.37903 0.76351
 C672 C 0.75679 0.36468 0.76628
 C673 C 0.76112 0.35129 0.77856
 C674 C 0.77712 0.35262 0.78794
 C675 C 0.79560 0.39505 0.77013
 C676 C 0.80526 0.40752 0.76778
 C677 C 0.81648 0.42220 0.76499
 C678 C 0.82596 0.43480 0.76256
 C679 C 0.83711 0.44996 0.75957
 C680 C 0.82978 0.46588 0.75340
 C681 C 0.84055 0.48061 0.75040
 C682 C 0.85875 0.47954 0.75354
 C683 C 0.86606 0.46359 0.75974
 C684 C 0.85527 0.44884 0.76275
 H685 H 0.80070 0.36776 0.79249
 H686 H 0.76454 0.38923 0.75405
 H687 H 0.74458 0.36424 0.75889
 H688 H 0.78102 0.34256 0.79739
 H689 H 0.81574 0.46688 0.75087
 H690 H 0.83463 0.49274 0.74550
 H691 H 0.88009 0.46254 0.76222
 H692 H 0.86109 0.43659 0.76752
 C693 C 0.28713 -0.13179 0.28718
 C694 C 0.28434 -0.12017 0.27303
 C695 C 0.27038 -0.12319 0.26133
 C696 C 0.25924 -0.13776 0.26374
 C697 C 0.26185 -0.14965 0.27797
 C698 C 0.27602 -0.14639 0.28966
 C699 C 0.29577 -0.10514 0.27050
 C700 C 0.30531 -0.09253 0.26835
 C701 C 0.31642 -0.07773 0.26576
 C702 C 0.32584 -0.06506 0.26349
 C703 C 0.33701 -0.04987 0.26071
 C704 C 0.32953 -0.03331 0.25688
 C705 C 0.34034 -0.01856 0.25402
 C706 C 0.35876 -0.02027 0.25486
 C707 C 0.36617 -0.03687 0.25889
 C708 C 0.35536 -0.05162 0.26176
 H709 H 0.29791 -0.12957 0.29633
 H710 H 0.26810 -0.11426 0.25031
 H711 H 0.24864 -0.13954 0.25435
 H712 H 0.27870 -0.15500 0.30078
 H713 H 0.31534 -0.03179 0.25610
 H714 H 0.33422 -0.00591 0.25118
 H715 H 0.38034 -0.03842 0.25984
 H716 H 0.36130 -0.06435 0.26479
 C717 C 0.23299 -0.11981 0.73784
 C718 C 0.21846 -0.11710 0.72677
 C719 C 0.21522 -0.12886 0.71288
 C720 C 0.22645 -0.14330 0.71004
 C721 C 0.24120 -0.14628 0.72109
 C722 C 0.24426 -0.13424 0.73506
 C723 C 0.20686 -0.10226 0.72969
 C724 C 0.19714 -0.08984 0.73214
 C725 C 0.18574 -0.07531 0.73501
 C726 C 0.17599 -0.06292 0.73747
 C727 C 0.16434 -0.04813 0.74042
 C728 C 0.15203 -0.04326 0.72746
 C729 C 0.14069 -0.02891 0.73032
 C730 C 0.14149 -0.01939 0.74622
 C731 C 0.15398 -0.02417 0.75908
 C732 C 0.16531 -0.03853 0.75622
 H733 H 0.23563 -0.11077 0.74865
 H734 H 0.20399 -0.12687 0.70422
 H735 H 0.22340 -0.15203 0.69913
 H736 H 0.25532 -0.13579 0.74395
 H737 H 0.15124 -0.05053 0.71513
 H738 H 0.13145 -0.02527 0.72004
 H739 H 0.15492 -0.01683 0.77134
 H740 H 0.17482 -0.04212 0.76631
 C741 C 0.71422 0.37059 0.21399
 C742 C 0.71840 0.38327 0.22681
 C743 C 0.73386 0.38147 0.23675
 C744 C 0.74511 0.36704 0.23391
 C745 C 0.74105 0.35417 0.22106
 C746 C 0.72545 0.35614 0.21112
 C747 C 0.70679 0.39809 0.22979
 C748 C 0.69704 0.41048 0.23227
 C749 C 0.68559 0.42497 0.23514
 C750 C 0.67578 0.43732 0.23756
 C751 C 0.66403 0.45205 0.24041
 C752 C 0.66472 0.46157 0.25628
 C753 C 0.65329 0.47587 0.25903
 C754 C 0.64098 0.48066 0.24601
 C755 C 0.64046 0.47122 0.23005
 C756 C 0.65191 0.45693 0.22729
 H757 H 0.70226 0.37184 0.20622
 H758 H 0.73724 0.39123 0.24670
 H759 H 0.75701 0.36611 0.24176
 H760 H 0.72176 0.34652 0.20120
 H761 H 0.67411 0.45797 0.26649
 H762 H 0.65402 0.48317 0.27133
 H763 H 0.63137 0.47488 0.21964
 H764 H 0.65134 0.44973 0.21492
 C765 C 0.71676 0.62658 0.28879
 C766 C 0.71767 0.61706 0.27295
 C767 C 0.72984 0.62203 0.25999
 C768 C 0.74108 0.63646 0.26284
 C769 C 0.74029 0.64615 0.27873
 C770 C 0.72797 0.64101 0.29167
 C771 C 0.70612 0.60221 0.27001
 C772 C 0.69643 0.58977 0.26756
 C773 C 0.68507 0.57522 0.26472
 C774 C 0.67535 0.56281 0.26231
 C775 C 0.66371 0.54800 0.25947
 C776 C 0.66452 0.53840 0.24365
 C777 C 0.65319 0.52404 0.24090
 C778 C 0.64087 0.51924 0.25386
 C779 C 0.64025 0.52876 0.26978
 C780 C 0.65159 0.54312 0.27253
 H781 H 0.70740 0.62282 0.29893
 H782 H 0.73064 0.61477 0.24767
 H783 H 0.75025 0.64004 0.25251
 H784 H 0.72703 0.64800 0.30411
 H785 H 0.67390 0.54200 0.23348
 H786 H 0.65399 0.51669 0.22863
 H787 H 0.63114 0.52511 0.28014
 H788 H 0.65093 0.55038 0.28487
 C789 C 0.23242 0.12071 0.75986
 C790 C 0.21923 0.11662 0.77211
 C791 C 0.21732 0.12699 0.78730
 C792 C 0.22854 0.14139 0.79026
 C793 C 0.24188 0.14566 0.77804
 C794 C 0.24367 0.13511 0.76279
 C795 C 0.20764 0.10180 0.76911
 C796 C 0.19788 0.08941 0.76671
 C797 C 0.18640 0.07492 0.76399
 C798 C 0.17657 0.06257 0.76173
 C799 C 0.16479 0.04783 0.75911
 C800 C 0.15287 0.04304 0.77239
 C801 C 0.14140 0.02874 0.76986
 C802 C 0.14168 0.01920 0.75395
 C803 C 0.15379 0.02391 0.74076
 C804 C 0.16525 0.03821 0.74329
 H805 H 0.23400 0.11278 0.74803
 H806 H 0.20716 0.12393 0.79688
 H807 H 0.22677 0.14905 0.80220
 H808 H 0.25366 0.13798 0.75302
 H809 H 0.15247 0.05032 0.78473
 H810 H 0.13246 0.02515 0.78038
 H811 H 0.15434 0.01655 0.72849
 H812 H 0.17447 0.04175 0.73295
 C813 C 0.21319 0.28824 0.12764
 C814 C 0.22918 0.28810 0.11845
 C815 C 0.24255 0.27635 0.12356
 C816 C 0.23994 0.26474 0.13776
 C817 C 0.22388 0.26473 0.14708
 C818 C 0.21055 0.27667 0.14185
 C819 C 0.23181 0.29989 0.10370
 C820 C 0.23397 0.30969 0.09129
 C821 C 0.23646 0.32107 0.07667
 C822 C 0.23855 0.33070 0.06410
 C823 C 0.24101 0.34206 0.04899
 C824 C 0.25767 0.34356 0.04119
 C825 C 0.25996 0.35427 0.02626
 C826 C 0.24561 0.36354 0.01902
 C827 C 0.22897 0.36210 0.02693
 C828 C 0.22668 0.35139 0.04187
 H829 H 0.20273 0.29725 0.12376
 H830 H 0.25500 0.27614 0.11656
 H831 H 0.25057 0.25590 0.14146
 H832 H 0.19797 0.27698 0.14856
 H833 H 0.26885 0.33638 0.04656
 H834 H 0.27289 0.35521 0.02028
 H835 H 0.21768 0.36903 0.02151
 H836 H 0.21372 0.35028 0.04777
 C837 C 0.71437 0.78945 0.62974
 C838 C 0.72597 0.78469 0.61619
 C839 C 0.73494 0.76848 0.61706
 C840 C 0.73236 0.75707 0.63142
 C841 C 0.72075 0.76173 0.64515
 C842 C 0.71176 0.77806 0.64412
 C843 C 0.72873 0.79644 0.60144
 C844 C 0.73110 0.80626 0.58907
 C845 C 0.73393 0.81775 0.57460
 C846 C 0.73639 0.82757 0.56224
 C847 C 0.73936 0.83930 0.54751
 C848 C 0.75520 0.83843 0.53808
 C849 C 0.75810 0.84987 0.52382
 C850 C 0.74526 0.86238 0.51896
 C851 C 0.72930 0.86305 0.52829
 C852 C 0.72640 0.85160 0.54256
 H853 H 0.70739 0.80200 0.62923
 H854 H 0.74393 0.76463 0.60661
 H855 H 0.73939 0.74457 0.63162
 H856 H 0.70283 0.78219 0.65446
 H857 H 0.76529 0.82891 0.54174
 H858 H 0.77040 0.84902 0.51661
 H859 H 0.71903 0.87230 0.52459
 H860 H 0.71404 0.85230 0.54969
 C861 C 0.78805 0.78593 0.37365
 C862 C 0.77254 0.78475 0.38355
 C863 C 0.75977 0.77214 0.37909
 C864 C 0.76249 0.76073 0.36479
 C865 C 0.77805 0.76177 0.35472
 C866 C 0.79081 0.77453 0.35934
 C867 C 0.76970 0.79649 0.39828
 C868 C 0.76730 0.80631 0.41061
 C869 C 0.76447 0.81781 0.42504
 C870 C 0.76205 0.82765 0.43736
 C871 C 0.75915 0.83940 0.45206
 C872 C 0.74326 0.83873 0.46142
 C873 C 0.74045 0.85016 0.47569
 C874 C 0.75344 0.86245 0.48061
 C875 C 0.76944 0.86293 0.47133
 C876 C 0.77225 0.85149 0.45707
 H877 H 0.79804 0.79563 0.37700
 H878 H 0.74769 0.77113 0.38665
 H879 H 0.75230 0.75121 0.36163
 H880 H 0.80300 0.77570 0.35204
 H881 H 0.73307 0.82938 0.45772
 H882 H 0.72812 0.84945 0.48286
 H883 H 0.77982 0.87200 0.47508
 H884 H 0.78464 0.85204 0.44999
 C885 C 0.28282 0.29080 -0.13217
 C886 C 0.27091 0.28618 -0.11884
 C887 C 0.26207 0.26991 -0.11964
 C888 C 0.26514 0.25827 -0.13368
 C889 C 0.27714 0.26275 -0.14715
 C890 C 0.28593 0.27918 -0.14622
 C891 C 0.26788 0.29803 -0.10425
 C892 C 0.26538 0.30787 -0.09196
 C893 C 0.26250 0.31929 -0.07747
 C894 C 0.26009 0.32893 -0.06501
 C895 C 0.25728 0.34031 -0.05001
 C896 C 0.25496 0.33292 -0.03319
 C897 C 0.25239 0.34392 -0.01856
 C898 C 0.25222 0.36245 -0.02059
 C899 C 0.25436 0.36978 -0.03753
 C900 C 0.25692 0.35877 -0.05216
 H901 H 0.28972 0.30338 -0.13169
 H902 H 0.25285 0.26617 -0.10935
 H903 H 0.25823 0.24572 -0.13381
 H904 H 0.29513 0.28319 -0.15638
 H905 H 0.25514 0.31865 -0.03138
 H906 H 0.25054 0.33786 -0.00573
 H907 H 0.25403 0.38403 -0.03941
 H908 H 0.25863 0.36465 -0.06513
 C909 C 0.71548 0.20880 -0.12940
 C910 C 0.72769 0.21315 -0.11622
 C911 C 0.73712 0.22906 -0.11736
 C912 C 0.73436 0.24059 -0.13160
 C913 C 0.72210 0.23637 -0.14494
 C914 C 0.71269 0.22031 -0.14366
 C915 C 0.73053 0.20134 -0.10152
 C916 C 0.73292 0.19149 -0.08917
 C917 C 0.73574 0.18002 -0.07466
 C918 C 0.73814 0.17027 -0.06224
 C919 C 0.74099 0.15868 -0.04736
 C920 C 0.73161 0.16134 -0.03166
 C921 C 0.73439 0.15011 -0.01719
 C922 C 0.74656 0.13613 -0.01831
 C923 C 0.75594 0.13350 -0.03405
 C924 C 0.75316 0.14473 -0.04853
 H925 H 0.70813 0.19650 -0.12867
 H926 H 0.74658 0.23258 -0.10721
 H927 H 0.74175 0.25285 -0.13200
 H928 H 0.70326 0.21650 -0.15369
 H929 H 0.72216 0.17208 -0.03060
 H930 H 0.72705 0.15233 -0.00512
 H931 H 0.76535 0.12276 -0.03524
 H932 H 0.76048 0.14255 -0.06061
 C933 C 0.24256 0.72280 0.37568
 C934 C 0.22917 0.71111 0.38077
 C935 C 0.21322 0.71090 0.37144
 C936 C 0.21065 0.72237 0.35711
 C937 C 0.22400 0.73425 0.35191
 C938 C 0.24001 0.73429 0.36136
 C939 C 0.23173 0.69948 0.39568
 C940 C 0.23388 0.68986 0.40825
 C941 C 0.23637 0.67873 0.42308
 C942 C 0.23848 0.66935 0.43584
 C943 C 0.24096 0.65834 0.45121
 C944 C 0.24341 0.64000 0.44938
 C945 C 0.24570 0.62934 0.46437
 C946 C 0.24555 0.63694 0.48129
 C947 C 0.24312 0.65532 0.48306
 C948 C 0.24083 0.66596 0.46808
 H949 H 0.25497 0.72305 0.38279
 H950 H 0.20274 0.70194 0.37531
 H951 H 0.19811 0.72203 0.35029
 H952 H 0.25065 0.74309 0.35769
 H953 H 0.24351 0.63395 0.43640
 H954 H 0.24754 0.61517 0.46278
 H955 H 0.24284 0.66147 0.49597
 H956 H 0.23891 0.68013 0.46965
 C957 C 0.28734 0.71334 0.62786
 C958 C 0.27131 0.71374 0.61869
 C959 C 0.25821 0.72581 0.62367
 C960 C 0.26111 0.73746 0.63774
 C961 C 0.27720 0.73720 0.64706
 C962 C 0.29027 0.72497 0.64195
 C963 C 0.26837 0.70187 0.60409
 C964 C 0.26595 0.69197 0.59182
 C965 C 0.26314 0.68046 0.57739
 C966 C 0.26078 0.67069 0.56500
 C967 C 0.25797 0.65912 0.55014
 C968 C 0.27079 0.65778 0.53692
 C969 C 0.26798 0.64675 0.52235
 C970 C 0.25238 0.63685 0.52088
 C971 C 0.23951 0.63837 0.53412
 C972 C 0.24232 0.64940 0.54870
 H973 H 0.29760 0.70408 0.62409
 H974 H 0.24573 0.72622 0.61667
 H975 H 0.25067 0.74654 0.64135
 H976 H 0.30286 0.72444 0.64867
 H977 H 0.28290 0.66535 0.53782
 H978 H 0.27795 0.64615 0.51220
 H979 H 0.22714 0.63132 0.53315
 H980 H 0.23224 0.65046 0.55877
 C981 C 0.76023 0.22717 0.12163
 C982 C 0.77347 0.21529 0.11655
 C983 C 0.78952 0.21504 0.12568
 C984 C 0.79234 0.22660 0.13984
 C985 C 0.77912 0.23861 0.14508
 C986 C 0.76302 0.23876 0.13578
 C987 C 0.77057 0.20336 0.10200
 C988 C 0.76815 0.19336 0.08981
 C989 C 0.76531 0.18164 0.07555
 C990 C 0.76286 0.17163 0.06338
 C991 C 0.75992 0.15970 0.04884
 C992 C 0.74782 0.14578 0.05049
 C993 C 0.74486 0.13425 0.03633
 C994 C 0.75413 0.13640 0.02042
 C995 C 0.76603 0.15057 0.01876
 C996 C 0.76897 0.16210 0.03291
 H997 H 0.74773 0.22745 0.11468
 H998 H 0.79988 0.20592 0.12183
 H999 H 0.80495 0.22618 0.14653
 H1000 H 0.75247 0.24767 0.13949
 H1001 H 0.74060 0.14390 0.06270
 H1002 H 0.73526 0.12381 0.03793
 H1003 H 0.77281 0.15297 0.00642
 H1004 H 0.77821 0.17296 0.03139
 C1005 C 0.48680 0.36879 0.51771
 C1006 C 0.47738 0.36792 0.53356
 C1007 C 0.46519 0.38123 0.53767
 C1008 C 0.46242 0.39537 0.52598
 C1009 C 0.47184 0.39640 0.50998
 C1010 C 0.48407 0.38291 0.50600
 C1011 C 0.48021 0.35335 0.54558
 C1012 C 0.48262 0.34112 0.55559
 C1013 C 0.48547 0.32675 0.56726
 C1014 C 0.48792 0.31445 0.57718
 C1015 C 0.49086 0.29973 0.58899
 C1016 C 0.50477 0.30022 0.60117
 C1017 C 0.50767 0.28588 0.61258
 C1018 C 0.49660 0.27098 0.61196
 C1019 C 0.48280 0.27047 0.59961
 C1020 C 0.47989 0.28480 0.58821
 H1021 H 0.49624 0.35853 0.51437
 H1022 H 0.45784 0.38070 0.54993
 H1023 H 0.45301 0.40552 0.52961
 H1024 H 0.49146 0.38312 0.49380
 H1025 H 0.51341 0.31165 0.60180
 H1026 H 0.51863 0.28646 0.62172
 H1027 H 0.47427 0.25897 0.59880
 H1028 H 0.46914 0.28423 0.57878
 C1029 C -0.00857 0.86996 0.02099
 C1030 C -0.01848 0.86871 0.03652
 C1031 C -0.03107 0.88172 0.04037
 C1032 C -0.03380 0.89589 0.02872
 C1033 C -0.02397 0.89725 0.01299
 C1034 C -0.01128 0.88411 0.00931
 C1035 C -0.01588 0.85397 0.04837
 C1036 C -0.01376 0.84151 0.05818
 C1037 C -0.01134 0.82680 0.06951
 C1038 C -0.00933 0.81410 0.07903
 C1039 C -0.00702 0.79878 0.09019
 C1040 C -0.00460 0.80080 0.10844
 C1041 C -0.00248 0.78585 0.11923
 C1042 C -0.00276 0.76878 0.11185
 C1043 C -0.00516 0.76682 0.09356
 C1044 C -0.00728 0.78176 0.08279
 H1045 H 0.00118 0.85994 0.01786
 H1046 H -0.03881 0.88089 0.05237
 H1047 H -0.04358 0.90575 0.03212
 H1048 H -0.00352 0.88458 -0.00266
 H1049 H -0.00439 0.81391 0.11431
 H1050 H -0.00065 0.78759 0.13332
 H1051 H -0.00554 0.75379 0.08758
 H1052 H -0.00917 0.78004 0.06870
 C1053 C 0.03551 0.61963 0.03721
 C1054 C 0.02084 0.63075 0.03540
 C1055 C 0.00882 0.62788 0.02166
 C1056 C 0.01149 0.61401 0.00970
 C1057 C 0.02628 0.60279 0.01130
 C1058 C 0.03822 0.60575 0.02526
 C1059 C 0.01824 0.64526 0.04748
 C1060 C 0.01608 0.65752 0.05748
 C1061 C 0.01357 0.67198 0.06905
 C1062 C 0.01143 0.68442 0.07881
 C1063 C 0.00888 0.69940 0.09032
 C1064 C -0.00677 0.70112 0.09994
 C1065 C -0.00939 0.71586 0.11085
 C1066 C 0.00368 0.72897 0.11233
 C1067 C 0.01929 0.72721 0.10255
 C1068 C 0.02190 0.71248 0.09164
 H1069 H 0.04490 0.62172 0.04782
 H1070 H -0.00258 0.63644 0.02012
 H1071 H 0.00205 0.61228 -0.00088
 H1072 H 0.04967 0.59736 0.02706
 H1073 H -0.01701 0.69116 0.09889
 H1074 H -0.02176 0.71705 0.11781
 H1075 H 0.02941 0.73726 0.10312
 H1076 H 0.03401 0.71137 0.08414
 C1077 C 0.51280 0.13422 0.51788
 C1078 C 0.52262 0.13547 0.53349
 C1079 C 0.53505 0.12236 0.53760
 C1080 C 0.53767 0.10805 0.52614
 C1081 C 0.52785 0.10664 0.51039
 C1082 C 0.51538 0.11992 0.50640
 C1083 C 0.51989 0.15016 0.54532
 C1084 C 0.51756 0.16247 0.55522
 C1085 C 0.51480 0.17686 0.56681
 C1086 C 0.51240 0.18915 0.57671
 C1087 C 0.50951 0.20380 0.58855
 C1088 C 0.52052 0.21870 0.58789
 C1089 C 0.51769 0.23292 0.59940
 C1090 C 0.50394 0.23230 0.61175
 C1091 C 0.49281 0.21744 0.61223
 C1092 C 0.49563 0.20322 0.60071
 H1093 H 0.50314 0.14431 0.51456
 H1094 H 0.54271 0.12318 0.54968
 H1095 H 0.54728 0.09807 0.52977
 H1096 H 0.50766 0.11942 0.49438
 H1097 H 0.53125 0.21933 0.57848
 H1098 H 0.52627 0.24438 0.59870
 H1099 H 0.48188 0.21678 0.62135
 H1100 H 0.48696 0.19181 0.60125
 C1101 C -0.03456 0.11995 0.46289
 C1102 C -0.02170 0.13270 0.46662
 C1103 C -0.01172 0.13134 0.48213
 C1104 C -0.01459 0.11730 0.49389
 C1105 C -0.02752 0.10439 0.49030
 C1106 C -0.03747 0.10589 0.47462
 C1107 C -0.01880 0.14723 0.45459
 C1108 C -0.01639 0.15943 0.44456
 C1109 C -0.01359 0.17375 0.43285
 C1110 C -0.01122 0.18602 0.42288
 C1111 C -0.00841 0.20070 0.41102
 C1112 C 0.00591 0.21212 0.41357
 C1113 C 0.00853 0.22647 0.40215
 C1114 C -0.00303 0.22947 0.38794
 C1115 C -0.01754 0.21814 0.38563
 C1116 C -0.02016 0.20378 0.39705
 H1117 H -0.04236 0.12086 0.45091
 H1118 H -0.00174 0.14116 0.48516
 H1119 H -0.00674 0.11672 0.50582
 H1120 H -0.04744 0.09620 0.47129
 H1121 H 0.01496 0.21001 0.42448
 H1122 H 0.01941 0.23541 0.40466
 H1123 H -0.02697 0.22032 0.37515
 H1124 H -0.03139 0.19513 0.39506
 C1125 C 0.46437 0.61962 0.96223
 C1126 C 0.47979 0.62974 0.96335
 C1127 C 0.49249 0.62562 0.97614
 C1128 C 0.48980 0.61147 0.98781
 C1129 C 0.47431 0.60121 0.98686
 C1130 C 0.46164 0.60546 0.97389
 C1131 C 0.48250 0.64446 0.95150
 C1132 C 0.48476 0.65688 0.94169
 C1133 C 0.48739 0.67152 0.93033
 C1134 C 0.48961 0.68412 0.92075
 C1135 C 0.49221 0.69930 0.90947
 C1136 C 0.50889 0.70714 0.90817
 C1137 C 0.51130 0.72217 0.89758
 C1138 C 0.49705 0.72948 0.88822
 C1139 C 0.48038 0.72152 0.88945
 C1140 C 0.47798 0.70649 0.90004
 H1141 H 0.45442 0.62272 0.95240
 H1142 H 0.50449 0.63337 0.97711
 H1143 H 0.49992 0.60860 0.99748
 H1144 H 0.44952 0.59800 0.97277
 H1145 H 0.51999 0.70172 0.91543
 H1146 H 0.52424 0.72818 0.89680
 H1147 H 0.46917 0.72699 0.88245
 H1148 H 0.46500 0.70056 0.90100
 C1149 C 0.50660 0.87303 0.97760
 C1150 C 0.51970 0.86853 0.96540
 C1151 C 0.53522 0.87850 0.96461
 C1152 C 0.53768 0.89290 0.97598
 C1153 C 0.52461 0.89756 0.98835
 C1154 C 0.50902 0.88743 0.98899
 C1155 C 0.51723 0.85364 0.95376
 C1156 C 0.51518 0.84115 0.94404
 C1157 C 0.51280 0.82647 0.93272
 C1158 C 0.51077 0.81388 0.92311
 C1159 C 0.50835 0.79879 0.91172
 C1160 C 0.50816 0.80100 0.89334
 C1161 C 0.50581 0.78632 0.88231
 C1162 C 0.50371 0.76927 0.88954
 C1163 C 0.50376 0.76717 0.90798
 C1164 C 0.50612 0.78185 0.91901
 H1165 H 0.49451 0.86541 0.97832
 H1166 H 0.54547 0.87511 0.95524
 H1167 H 0.54989 0.90024 0.97512
 H1168 H 0.49860 0.89062 0.99819
 H1169 H 0.50979 0.81406 0.88755
 H1170 H 0.50555 0.78826 0.86812
 H1171 H 0.50194 0.75426 0.91396
 H1172 H 0.50617 0.78000 0.93322
 C1173 C 0.01209 0.36742 0.48048
 C1174 C 0.02210 0.36627 0.46501
 C1175 C 0.03449 0.37945 0.46114
 C1176 C 0.03687 0.39374 0.47268
 C1177 C 0.02687 0.39505 0.48829
 C1178 C 0.01444 0.38168 0.49204
 C1179 C 0.01964 0.35155 0.45315
 C1180 C 0.01750 0.33920 0.44327
 C1181 C 0.01492 0.32469 0.43177
 C1182 C 0.01264 0.31227 0.42201
 C1183 C 0.00984 0.29741 0.41041
 C1184 C 0.02172 0.29397 0.39667
 C1185 C 0.01899 0.27951 0.38542
 C1186 C 0.00436 0.26840 0.38784
 C1187 C -0.00750 0.27188 0.40162
 C1188 C -0.00477 0.28633 0.41285
 H1189 H 0.00248 0.35726 0.48363
 H1190 H 0.04230 0.37870 0.44918
 H1191 H 0.04646 0.40377 0.46923
 H1192 H 0.00658 0.38210 0.50394
 H1193 H 0.03306 0.30246 0.39465
 H1194 H 0.02828 0.27712 0.37485
 H1195 H -0.01885 0.26342 0.40367
 H1196 H -0.01404 0.28886 0.42344
 C1197 C 0.37732 0.53531 0.46070
 C1198 C 0.36752 0.53406 0.47629
 C1199 C 0.37206 0.52140 0.48905
 C1200 C 0.38632 0.50998 0.48624
 C1201 C 0.39628 0.51107 0.47059
 C1202 C 0.39160 0.52391 0.45785
 C1203 C 0.35272 0.54568 0.47915
 C1204 C 0.34026 0.55531 0.48160
 C1205 C 0.32557 0.56644 0.48455
 C1206 C 0.31295 0.57581 0.48714
 C1207 C 0.29775 0.58680 0.49034
 C1208 C 0.28212 0.57915 0.49649
 C1209 C 0.26734 0.58976 0.49969
 C1210 C 0.26809 0.60818 0.49696
 C1211 C 0.28371 0.61573 0.49045
 C1212 C 0.29850 0.60511 0.48724
 H1213 H 0.37390 0.54504 0.45070
 H1214 H 0.36456 0.52033 0.50119
 H1215 H 0.38954 0.50041 0.49642
 H1216 H 0.39882 0.52512 0.44559
 H1217 H 0.28133 0.56497 0.49877
 H1218 H 0.25542 0.58341 0.50422
 H1219 H 0.28444 0.62978 0.48756
 H1220 H 0.31046 0.61116 0.48227
 C1221 C 0.87033 0.01623 -0.01292
 C1222 C 0.86907 0.03237 -0.02203
 C1223 C 0.88233 0.03728 -0.03390
 C1224 C 0.89679 0.02610 -0.03668
 C1225 C 0.89821 0.00983 -0.02759
 C1226 C 0.88479 0.00504 -0.01566
 C1227 C 0.85416 0.04385 -0.01921
 C1228 C 0.84164 0.05341 -0.01683
 C1229 C 0.82693 0.06454 -0.01401
 C1230 C 0.81433 0.07399 -0.01157
 C1231 C 0.79923 0.08518 -0.00863
 C1232 C 0.80140 0.10346 -0.00617
 C1233 C 0.78672 0.11430 -0.00326
 C1234 C 0.76972 0.10696 -0.00265
 C1235 C 0.76763 0.08864 -0.00538
 C1236 C 0.78231 0.07781 -0.00829
 H1237 H 0.86012 0.01228 -0.00373
 H1238 H 0.88150 0.04976 -0.04100
 H1239 H 0.90688 0.03034 -0.04584
 H1240 H 0.88529 -0.00741 -0.00854
 H1241 H 0.81443 0.10934 -0.00654
 H1242 H 0.78872 0.12838 -0.00157
 H1243 H 0.75469 0.08264 -0.00547
 H1244 H 0.78045 0.06370 -0.01032
 C1245 C 0.61781 0.03759 0.03563
 C1246 C 0.63071 0.03303 0.02325
 C1247 C 0.62897 0.01739 0.01347
 C1248 C 0.61438 0.00635 0.01603
 C1249 C 0.60130 0.01080 0.02845
 C1250 C 0.60321 0.02658 0.03823
 C1251 C 0.64572 0.04439 0.02057
 C1252 C 0.65831 0.05387 0.01829
 C1253 C 0.67306 0.06494 0.01558
 C1254 C 0.68568 0.07437 0.01325
 C1255 C 0.70077 0.08558 0.01044
 C1256 C 0.70071 0.09806 -0.00330
 C1257 C 0.71542 0.10888 -0.00610
 C1258 C 0.73029 0.10738 0.00488
 C1259 C 0.73031 0.09476 0.01855
 C1260 C 0.71562 0.08394 0.02135
 H1261 H 0.61901 0.04969 0.04326
 H1262 H 0.63890 0.01371 0.00387
 H1263 H 0.61350 -0.00571 0.00834
 H1264 H 0.59341 0.03056 0.04780
 H1265 H 0.68933 0.09938 -0.01187
 H1266 H 0.71510 0.11830 -0.01689
 H1267 H 0.74175 0.09322 0.02701
 H1268 H 0.71585 0.07427 0.03197
 C1269 C 0.12481 0.52126 0.50937
 C1270 C 0.12888 0.53415 0.52201
 C1271 C 0.11866 0.53553 0.53732
 C1272 C 0.10445 0.52404 0.54002
 C1273 C 0.10025 0.51096 0.52742
 C1274 C 0.11060 0.50974 0.51203
 C1275 C 0.14364 0.54585 0.51936
 C1276 C 0.15606 0.55557 0.51717
 C1277 C 0.17070 0.56683 0.51464
 C1278 C 0.18329 0.57634 0.51249
 C1279 C 0.19844 0.58754 0.50994
 C1280 C 0.19934 0.59887 0.49527
 C1281 C 0.21422 0.60948 0.49262
 C1282 C 0.22839 0.60878 0.50456
 C1283 C 0.22729 0.59760 0.51938
 C1284 C 0.21242 0.58700 0.52204
 H1285 H 0.13263 0.52008 0.49746
 H1286 H 0.12172 0.54545 0.54722
 H1287 H 0.09692 0.52536 0.55207
 H1288 H 0.10776 0.49998 0.50196
 H1289 H 0.18857 0.59944 0.48586
 H1290 H 0.21459 0.61813 0.48121
 H1291 H 0.23800 0.59704 0.52887
 H1292 H 0.21185 0.57834 0.53347
 C1293 C 0.11771 0.46346 -0.03608
 C1294 C 0.13077 0.46783 -0.02376
 C1295 C 0.12974 0.48388 -0.01456
 C1296 C 0.11576 0.49559 -0.01771
 C1297 C 0.10259 0.49140 -0.03016
 C1298 C 0.10371 0.47514 -0.03926
 C1299 C 0.14535 0.45595 -0.02074
 C1300 C 0.15763 0.44609 -0.01827
 C1301 C 0.17211 0.43464 -0.01543
 C1302 C 0.18456 0.42496 -0.01302
 C1303 C 0.19952 0.41354 -0.01015
 C1304 C 0.21032 0.41602 0.00466
 C1305 C 0.22499 0.40510 0.00735
 C1306 C 0.22911 0.39166 -0.00480
 C1307 C 0.21804 0.38904 -0.01947
 C1308 C 0.20336 0.39997 -0.02216
 H1309 H 0.11836 0.45105 -0.04327
 H1310 H 0.13980 0.48741 -0.00501
 H1311 H 0.11545 0.50797 -0.01050
 H1312 H 0.09380 0.47134 -0.04883
 H1313 H 0.20740 0.42640 0.01412
 H1314 H 0.23301 0.40718 0.01896
 H1315 H 0.22055 0.37851 -0.02881
 H1316 H 0.19501 0.39784 -0.03360
 C1317 C 0.62862 0.98249 0.48962
 C1318 C 0.63335 0.97009 0.47671
 C1319 C 0.62358 0.96899 0.46105
 C1320 C 0.60914 0.98021 0.45829
 C1321 C 0.60424 0.99273 0.47119
 C1322 C 0.61419 0.99373 0.48689
 C1323 C 0.64816 0.95846 0.47956
 C1324 C 0.66053 0.94868 0.48194
 C1325 C 0.67498 0.93719 0.48473
 C1326 C 0.68730 0.92735 0.48712
 C1327 C 0.70198 0.91555 0.48999
 C1328 C 0.70682 0.90337 0.47690
 C1329 C 0.72101 0.89184 0.47972
 C1330 C 0.73039 0.89232 0.49572
 C1331 C 0.72565 0.90471 0.50869
 C1332 C 0.71146 0.91623 0.50587
 H1333 H 0.63607 0.98343 0.50182
 H1334 H 0.62714 0.95945 0.45095
 H1335 H 0.60194 0.97910 0.44599
 H1336 H 0.61079 1.00306 0.49719
 H1337 H 0.69965 0.90280 0.46452
 H1338 H 0.72463 0.88268 0.46936
 H1339 H 0.73288 0.90542 0.52103
 H1340 H 0.70788 0.92566 0.51606
 C1341 C 0.87065 0.98155 0.51143
 C1342 C 0.86598 0.96887 0.52411
 C1343 C 0.87571 0.96752 0.53978
 C1344 C 0.89004 0.97879 0.54278
 C1345 C 0.89487 0.99161 0.53012
 C1346 C 0.88497 0.99284 0.51439
 C1347 C 0.85123 0.95727 0.52104
 C1348 C 0.83886 0.94756 0.51848
 C1349 C 0.82438 0.93619 0.51548
 C1350 C 0.81202 0.92647 0.51294
 C1351 C 0.79728 0.91484 0.50993
 C1352 C 0.79223 0.90265 0.52295
 C1353 C 0.77794 0.89132 0.52003
 C1354 C 0.76865 0.89201 0.50399
 C1355 C 0.77360 0.90441 0.49106
 C1356 C 0.78790 0.91573 0.49399
 H1357 H 0.86323 0.98270 0.49922
 H1358 H 0.87219 0.95776 0.54971
 H1359 H 0.89720 0.97747 0.55509
 H1360 H 0.88829 1.00241 0.50426
 H1361 H 0.79932 0.90193 0.53538
 H1362 H 0.77416 0.88216 0.53036
 H1363 H 0.76643 0.90528 0.47870
 H1364 H 0.79163 0.92517 0.48384
 C1365 C 0.36957 0.48157 0.01244
 C1366 C 0.36755 0.46632 0.02280
 C1367 C 0.38005 0.46228 0.03582
 C1368 C 0.39453 0.47344 0.03847
 C1369 C 0.39673 0.48883 0.02810
 C1370 C 0.38404 0.49275 0.01505
 C1371 C 0.35267 0.45479 0.02005
 C1372 C 0.34022 0.44515 0.01768
 C1373 C 0.32562 0.43389 0.01484
 C1374 C 0.31313 0.42433 0.01234
 C1375 C 0.29818 0.41300 0.00924
 C1376 C 0.28490 0.41151 0.02197
 C1377 C 0.27026 0.40071 0.01881
 C1378 C 0.26864 0.39142 0.00282
 C1379 C 0.28223 0.39262 -0.00971
 C1380 C 0.29687 0.40343 -0.00655
 H1381 H 0.35995 0.48483 0.00233
 H1382 H 0.37862 0.45049 0.04391
 H1383 H 0.40402 0.46987 0.04855
 H1384 H 0.38516 0.50449 0.00689
 H1385 H 0.28588 0.41868 0.03434
 H1386 H 0.26035 0.39945 0.02900
 H1387 H 0.28168 0.38528 -0.02193
 H1388 H 0.30716 0.40434 -0.01643
 C1389 C 0.51759 0.48643 0.36659
 C1390 C 0.53358 0.47720 0.36574
 C1391 C 0.53811 0.46527 0.37919
 C1392 C 0.52671 0.46256 0.39344
 C1393 C 0.51058 0.47177 0.39446
 C1394 C 0.50617 0.48375 0.38083
 C1395 C 0.54533 0.47999 0.35108
 C1396 C 0.55518 0.48234 0.33881
 C1397 C 0.56672 0.48510 0.32445
 C1398 C 0.57657 0.48747 0.31219
 C1399 C 0.58833 0.49032 0.29755
 C1400 C 0.60052 0.47720 0.29282
 C1401 C 0.61195 0.47997 0.27861
 C1402 C 0.61136 0.49596 0.26908
 C1403 C 0.59899 0.50898 0.27373
 C1404 C 0.58756 0.50621 0.28794
 H1405 H 0.51393 0.49568 0.35623
 H1406 H 0.55048 0.45808 0.37868
 H1407 H 0.53067 0.45335 0.40370
 H1408 H 0.49384 0.49098 0.38103
 H1409 H 0.60115 0.46480 0.30009
 H1410 H 0.62111 0.46956 0.27507
 H1411 H 0.59820 0.52131 0.26637
 H1412 H 0.57813 0.51643 0.29142
 C1413 C 0.02303 -0.00986 0.87163
 C1414 C 0.03571 -0.02263 0.86734
 C1415 C 0.03710 -0.03812 0.87749
 C1416 C 0.02585 -0.04084 0.89187
 C1417 C 0.01303 -0.02808 0.89632
 C1418 C 0.01176 -0.01255 0.88600
 C1419 C 0.04730 -0.01985 0.85255
 C1420 C 0.05700 -0.01749 0.84016
 C1421 C 0.06837 -0.01473 0.82566
 C1422 C 0.07807 -0.01236 0.81328
 C1423 C 0.08966 -0.00951 0.79850
 C1424 C 0.10169 -0.02271 0.79355
 C1425 C 0.11293 -0.01997 0.77917
 C1426 C 0.11231 -0.00394 0.76970
 C1427 C 0.10010 0.00916 0.77458
 C1428 C 0.08887 0.00642 0.78896
 H1429 H 0.02185 0.00219 0.86388
 H1430 H 0.04686 -0.04811 0.87427
 H1431 H 0.02719 -0.05300 0.89935
 H1432 H 0.00219 -0.00235 0.88903
 H1433 H 0.10233 -0.03513 0.80076
 H1434 H 0.12195 -0.03043 0.77546
 H1435 H 0.09929 0.02151 0.76728
 H1436 H 0.07956 0.01669 0.79262
 C1437 C 0.02020 0.01048 0.63092
 C1438 C 0.03309 0.02308 0.63508
 C1439 C 0.03450 0.03855 0.62494
 C1440 C 0.02309 0.04144 0.61069
 C1441 C 0.01006 0.02886 0.60635
 C1442 C 0.00876 0.01333 0.61667
 C1443 C 0.04489 0.02012 0.64972
 C1444 C 0.05481 0.01767 0.66195
 C1445 C 0.06645 0.01483 0.67626
 C1446 C 0.07642 0.01241 0.68846
 C1447 C 0.08834 0.00955 0.70301
 C1448 C 0.10056 0.02268 0.70764
 C1449 C 0.11217 0.01991 0.72175
 C1450 C 0.11174 0.00391 0.73127
 C1451 C 0.09934 -0.00911 0.72673
 C1452 C 0.08773 -0.00634 0.71262
 H1453 H 0.01900 -0.00156 0.63868
 H1454 H 0.04443 0.04841 0.62806
 H1455 H 0.02447 0.05359 0.60320
 H1456 H -0.00097 0.00327 0.61374
 H1457 H 0.10107 0.03508 0.70037
 H1458 H 0.12134 0.03032 0.72521
 H1459 H 0.09867 -0.02144 0.73409
 H1460 H 0.07828 -0.01656 0.70921
 C1461 C 0.52192 0.50920 0.12859
 C1462 C 0.53398 0.52239 0.13337
 C1463 C 0.53469 0.53822 0.12371
 C1464 C 0.52341 0.54087 0.10930
 C1465 C 0.51121 0.52768 0.10436
 C1466 C 0.51060 0.51181 0.11421
 C1467 C 0.54565 0.51966 0.14815
 C1468 C 0.55542 0.51734 0.16052
 C1469 C 0.56688 0.51461 0.17500
 C1470 C 0.57667 0.51226 0.18735
 C1471 C 0.58838 0.50944 0.20208
 C1472 C 0.60048 0.52261 0.20690
 C1473 C 0.61189 0.51987 0.22118
 C1474 C 0.61137 0.50386 0.23068
 C1475 C 0.59908 0.49080 0.22594
 C1476 C 0.58768 0.49354 0.21166
 H1477 H 0.52128 0.49687 0.13596
 H1478 H 0.54397 0.54854 0.12731
 H1479 H 0.52418 0.55330 0.10219
 H1480 H 0.50154 0.50130 0.11076
 H1481 H 0.60106 0.53501 0.19964
 H1482 H 0.62097 0.53031 0.22479
 H1483 H 0.59835 0.47846 0.23328
 H1484 H 0.57832 0.48329 0.20810
 C1485 C 0.47486 -0.00788 0.12740
 C1486 C 0.46189 -0.02044 0.13139
 C1487 C 0.46036 -0.03576 0.12108
 C1488 C 0.47177 -0.03854 0.10686
 C1489 C 0.48492 -0.02602 0.10273
 C1490 C 0.48629 -0.01062 0.11318
 C1491 C 0.45026 -0.01770 0.14616
 C1492 C 0.44059 -0.01548 0.15859
 C1493 C 0.42935 -0.01296 0.17322
 C1494 C 0.41983 -0.01087 0.18580
 C1495 C 0.40858 -0.00848 0.20091
 C1496 C 0.39926 -0.02290 0.20787
 C1497 C 0.38858 -0.02067 0.22275
 C1498 C 0.38727 -0.00401 0.23095
 C1499 C 0.39630 0.01049 0.22363
 C1500 C 0.40697 0.00826 0.20874
 H1501 H 0.47615 0.00404 0.13530
 H1502 H 0.45038 -0.04559 0.12408
 H1503 H 0.47031 -0.05059 0.09926
 H1504 H 0.49611 -0.00060 0.11042
 H1505 H 0.40027 -0.03589 0.20181
 H1506 H 0.38145 -0.03201 0.22770
 H1507 H 0.39496 0.02362 0.22924
 H1508 H 0.41395 0.01958 0.20335
 C1509 C 0.97792 0.48579 0.62989
 C1510 C 0.96204 0.47640 0.63070
 C1511 C 0.95772 0.46439 0.61729
 C1512 C 0.96925 0.46176 0.60313
 C1513 C 0.98528 0.47113 0.60217
 C1514 C 0.98946 0.48319 0.61574
 C1515 C 0.95023 0.47907 0.64533
 C1516 C 0.94045 0.48136 0.65766
 C1517 C 0.92914 0.48412 0.67219
 C1518 C 0.91961 0.48654 0.68469
 C1519 C 0.90840 0.48951 0.69973
 C1520 C 0.89705 0.47610 0.70562
 C1521 C 0.88641 0.47890 0.72045
 C1522 C 0.88712 0.49509 0.72957
 C1523 C 0.89835 0.50856 0.72345
 C1524 C 0.90896 0.50577 0.70863
 H1525 H 0.98141 0.49509 0.64023
 H1526 H 0.94545 0.45707 0.61777
 H1527 H 0.96548 0.45248 0.59290
 H1528 H 1.00170 0.49054 0.61560
 H1529 H 0.89646 0.46348 0.69880
 H1530 H 0.87774 0.46836 0.72473
 H1531 H 0.89893 0.52123 0.73018
 H1532 H 0.91765 0.51627 0.70416
 C1533 C 0.97550 0.50767 0.87256
 C1534 C 0.96114 0.51901 0.86978
 C1535 C 0.95859 0.53357 0.88094
 C1536 C 0.97042 0.53688 0.89475
 C1537 C 0.98503 0.52566 0.89757
 C1538 C 0.98736 0.51095 0.88634
 C1539 C 0.94931 0.51595 0.85521
 C1540 C 0.93960 0.51348 0.84283
 C1541 C 0.92847 0.51073 0.82812
 C1542 C 0.91919 0.50851 0.81536
 C1543 C 0.90839 0.50601 0.79990
 C1544 C 0.89018 0.50349 0.80153
 C1545 C 0.87976 0.50131 0.78641
 C1546 C 0.88740 0.50183 0.76953
 C1547 C 0.90573 0.50395 0.76804
 C1548 C 0.91614 0.50613 0.78314
 H1549 H 0.97761 0.49635 0.86400
 H1550 H 0.94754 0.54247 0.87887
 H1551 H 0.96821 0.54838 0.90298
 H1552 H 0.99830 0.50191 0.88815
 H1553 H 0.88406 0.50316 0.81445
 H1554 H 0.86578 0.49898 0.78798
 H1555 H 0.91214 0.50392 0.75532
 H1556 H 0.93024 0.50790 0.78173
 C1557 C 0.47703 0.01039 0.37267
 C1558 C 0.46356 0.02256 0.36901
 C1559 C 0.46172 0.03772 0.37949
 C1560 C 0.47332 0.04075 0.39355
 C1561 C 0.48698 0.02864 0.39735
 C1562 C 0.48865 0.01339 0.38672
 C1563 C 0.45175 0.01955 0.35441
 C1564 C 0.44195 0.01704 0.34210
 C1565 C 0.43058 0.01414 0.32761
 C1566 C 0.42097 0.01169 0.31514
 C1567 C 0.40962 0.00882 0.30015
 C1568 C 0.39617 -0.00386 0.30096
 C1569 C 0.38526 -0.00671 0.28632
 C1570 C 0.38778 0.00300 0.27066
 C1571 C 0.40112 0.01588 0.27005
 C1572 C 0.41202 0.01873 0.28468
 H1573 H 0.47858 -0.00140 0.36464
 H1574 H 0.45134 0.04724 0.37677
 H1575 H 0.47158 0.05267 0.40131
 H1576 H 0.49887 0.00368 0.38920
 H1577 H 0.39409 -0.01151 0.31292
 H1578 H 0.37480 -0.01638 0.28740
 H1579 H 0.40313 0.02383 0.25834
 H1580 H 0.42231 0.02868 0.28393
   
