data_POSCAR
  _audit_creation_date              2014-09-24
  _audit_creation_method            'ToBaCCo'
  _symmetry_space_group_name_H-M    'P1'
  _symmetry_Int_Tables_number       1
  _symmetry_cell_setting            triclinic
  loop_
  _symmetry_equiv_pos_as_xyz
 x,y,z
_cell_length_a 62.8018
_cell_length_b 51.4420
_cell_length_c 43.1278
_cell_angle_alpha 89.778600
_cell_angle_beta 89.422400
_cell_angle_gamma 90.121000
loop_
  _atom_site_label
  _atom_site_type_symbol
  _atom_site_fract_x
  _atom_site_fract_y
  _atom_site_fract_z
C1 C 1.22506 0.25583 0.31088
 H2 H 1.22618 0.23517 0.31538
 C3 C 1.21232 0.27142 0.32995
 H4 H 1.20376 0.26265 0.34925
 C5 C 1.23455 0.29229 0.27994
 H6 H 1.24284 0.30032 0.26002
 C7 C 1.22215 0.30859 0.29852
 H8 H 1.22097 0.32900 0.29255
 N9 N 1.23559 0.26637 0.28611
 C10 C 1.23926 0.20980 0.21024
 H11 H 1.25568 0.21159 0.20283
 C12 C 1.22538 0.19416 0.19325
 H13 H 1.23139 0.18398 0.17307
 C14 C 1.21124 0.22211 0.24415
 H15 H 1.20559 0.23310 0.26379
 C16 C 1.19687 0.20665 0.22796
 H17 H 1.18049 0.20569 0.23592
 Zn18 Zn 1.25121 0.24471 0.25838
 N19 N 1.23209 0.22331 0.23535
 C20 C 1.28219 0.20560 0.26515
 N21 N 1.27121 0.22423 0.28063
 C22 C 1.27634 0.23054 0.31019
 C23 C 1.29348 0.21853 0.32492
 C24 C 1.29933 0.19297 0.27892
 C25 C 1.26322 0.26998 0.20098
 C26 C 1.27662 0.28570 0.18270
 C27 C 1.29795 0.29393 0.22797
 C28 C 1.28420 0.27825 0.24528
 N29 N 1.26743 0.26634 0.23160
 H30 H 1.27805 0.20084 0.24166
 H31 H 1.26793 0.24603 0.32187
 H32 H 1.29744 0.22581 0.34757
 H33 H 1.30671 0.17769 0.26555
 H34 H 1.24956 0.26069 0.19070
 H35 H 1.27340 0.28807 0.15824
 H36 H 1.31125 0.30315 0.23937
 H37 H 1.28697 0.27536 0.26975
 C38 C 1.20382 0.19240 0.20206
 C39 C 1.21056 0.29814 0.32361
 C40 C 1.29444 0.29753 0.19617
 C41 C 1.30602 0.19971 0.30917
 C42 C 0.71016 -0.25095 0.29508
 H43 H 0.71065 -0.27161 0.29053
 C44 C 0.69453 -0.24089 0.31485
 H45 H 0.68321 -0.25396 0.32588
 C46 C 0.72419 -0.20878 0.28582
 H47 H 0.73554 -0.19629 0.27405
 C48 C 0.70893 -0.19793 0.30560
 H49 H 0.70867 -0.17707 0.30884
 N50 N 0.72461 -0.23489 0.28106
 C51 C 0.73952 -0.28797 0.20636
 H52 H 0.75629 -0.29152 0.20930
 C53 C 0.72805 -0.30315 0.18556
 H54 H 0.73621 -0.31815 0.17256
 C55 C 0.70854 -0.26400 0.21927
 H56 H 0.70100 -0.24856 0.23224
 C57 C 0.69646 -0.27876 0.19890
 H58 H 0.67958 -0.27492 0.19715
 Zn59 Zn 0.74459 -0.24967 0.25303
 N60 N 0.72956 -0.26915 0.22315
 C61 C 0.78164 -0.27909 0.25913
 N62 N 0.76371 -0.27158 0.27456
 C63 C 0.76011 -0.27882 0.30455
 C64 C 0.77461 -0.29480 0.31987
 C65 C 0.79652 -0.29503 0.27353
 C66 C 0.75877 -0.21955 0.20182
 C67 C 0.77214 -0.20196 0.18633
 C68 C 0.78904 -0.19248 0.23510
 C69 C 0.77536 -0.21023 0.24964
 N70 N 0.76078 -0.22354 0.23284
 H71 H 0.78451 -0.27244 0.23565
 H72 H 0.74612 -0.27214 0.31681
 H73 H 0.77158 -0.30015 0.34382
 H74 H 0.81052 -0.30107 0.26061
 H75 H 0.74713 -0.23046 0.18890
 H76 H 0.77079 -0.19970 0.16146
 H77 H 0.80068 -0.18224 0.24884
 H78 H 0.77667 -0.21389 0.27427
 C79 C 0.70615 -0.29885 0.18195
 C80 C 0.69381 -0.21406 0.32035
 C81 C 0.78779 -0.18848 0.20292
 C82 C 0.79311 -0.30311 0.30432
 C83 C 0.71599 0.25451 -0.20922
 H84 H 0.71323 0.23387 -0.21181
 C85 C 0.70285 0.26908 -0.18967
 H86 H 0.69016 0.25943 -0.17691
 C87 C 0.73549 0.29227 -0.22351
 H88 H 0.74782 0.30140 -0.23737
 C89 C 0.72273 0.30757 -0.20423
 H90 H 0.72539 0.32837 -0.20361
 N91 N 0.73183 0.26627 -0.22584
 C92 C 0.72953 0.20579 -0.29219
 H93 H 0.74380 0.19509 -0.28681
 C94 C 0.71348 0.19382 -0.30924
 H95 H 0.71581 0.17410 -0.31725
 C96 C 0.70913 0.24436 -0.28835
 H97 H 0.70743 0.26394 -0.27966
 C98 C 0.69257 0.23302 -0.30499
 H99 H 0.67811 0.24398 -0.30868
 Zn100 Zn 0.74714 0.24613 -0.25517
 N101 N 0.72699 0.23053 -0.28180
 C102 C 0.77858 0.20758 -0.25209
 N103 N 0.76389 0.22064 -0.23483
 C104 C 0.76237 0.21700 -0.20361
 C105 C 0.77595 0.19964 -0.18861
 C106 C 0.79249 0.19010 -0.23803
 C107 C 0.76252 0.27395 -0.30812
 C108 C 0.77665 0.29043 -0.32405
 C109 C 0.79739 0.29376 -0.27740
 C110 C 0.78285 0.27734 -0.26254
 N111 N 0.76581 0.26791 -0.27791
 H112 H 0.77980 0.21121 -0.27677
 H113 H 0.75101 0.22799 -0.19008
 H114 H 0.77484 0.19753 -0.16365
 H115 H 0.80410 0.17996 -0.25221
 H116 H 0.74893 0.26591 -0.31998
 H117 H 0.77361 0.29363 -0.34836
 H118 H 0.80984 0.30166 -0.26313
 H119 H 0.78494 0.27237 -0.23836
 C120 C 0.69446 0.20724 -0.31520
 C121 C 0.70592 0.29606 -0.18740
 C122 C 0.79476 0.30082 -0.30897
 C123 C 0.79144 0.18614 -0.20581
 C124 C 1.22453 -0.23778 -0.20022
 H125 H 1.22374 -0.25862 -0.19689
 C126 C 1.21164 -0.22158 -0.18233
 H127 H 1.20105 -0.23008 -0.16507
 C128 C 1.23895 -0.20151 -0.22727
 H129 H 1.24935 -0.19387 -0.24525
 C130 C 1.22635 -0.18453 -0.20977
 H131 H 1.22702 -0.16387 -0.21458
 N132 N 1.23743 -0.22764 -0.22272
 C133 C 1.24009 -0.28025 -0.30138
 H134 H 1.25679 -0.27887 -0.30747
 C135 C 1.22637 -0.29431 -0.32032
 H136 H 1.23267 -0.30375 -0.34083
 C137 C 1.21147 -0.26885 -0.26799
 H138 H 1.20557 -0.25895 -0.24770
 C139 C 1.19722 -0.28270 -0.28621
 H140 H 1.18063 -0.28358 -0.27923
 Zn141 Zn 1.25214 -0.25090 -0.24927
 N142 N 1.23256 -0.26826 -0.27541
 C143 C 1.27582 -0.29621 -0.24130
 N144 N 1.26715 -0.27582 -0.22574
 C145 C 1.27039 -0.27259 -0.19483
 C146 C 1.28297 -0.29020 -0.17848
 C147 C 1.28844 -0.31421 -0.22592
 C148 C 1.26576 -0.22148 -0.30111
 C149 C 1.28071 -0.20962 -0.32076
 C150 C 1.30821 -0.22053 -0.28415
 C151 C 1.29277 -0.23233 -0.26534
 N152 N 1.27205 -0.23273 -0.27417
 H153 H 1.27339 -0.29825 -0.26587
 H154 H 1.26390 -0.25585 -0.18303
 H155 H 1.28600 -0.28691 -0.15413
 H156 H 1.29532 -0.33020 -0.23883
 H157 H 1.24918 -0.22217 -0.30761
 H158 H 1.27546 -0.20138 -0.34251
 H159 H 1.32457 -0.22017 -0.27649
 H160 H 1.29735 -0.24128 -0.24370
 C161 C 1.20464 -0.29590 -0.31260
 C162 C 1.21206 -0.19464 -0.18753
 C163 C 1.30231 -0.20916 -0.31244
 C164 C 1.29243 -0.31109 -0.19422
 C165 C 0.26503 0.22141 0.69543
 H166 H 0.24820 0.21965 0.69076
 C167 C 0.27988 0.21040 0.67507
 H168 H 0.27425 0.20037 0.65471
 C169 C 0.29271 0.23742 0.72704
 H170 H 0.29770 0.24786 0.74740
 C171 C 0.30807 0.22650 0.70749
 H172 H 0.32471 0.22844 0.71342
 N173 N 0.27162 0.23473 0.72079
 C174 C 0.22671 0.23187 0.79850
 H175 H 0.22868 0.25142 0.80715
 C176 C 0.21407 0.21420 0.81510
 H177 H 0.20618 0.22105 0.83591
 C178 C 0.23379 0.20049 0.75989
 H179 H 0.24155 0.19509 0.73846
 C180 C 0.22099 0.18230 0.77542
 H181 H 0.21984 0.16301 0.76569
 Zn182 Zn 0.25155 0.25047 0.74817
 N183 N 0.23618 0.22489 0.77131
 C184 C 0.21574 0.28207 0.74231
 N185 N 0.23200 0.27123 0.72586
 C186 C 0.23469 0.27635 0.69508
 C187 C 0.22042 0.29253 0.67958
 C188 C 0.20117 0.29836 0.72779
 C189 C 0.27375 0.26498 0.80297
 C190 C 0.28656 0.28151 0.82051
 C191 C 0.28413 0.31377 0.77980
 C192 C 0.27135 0.29676 0.76318
 N193 N 0.26653 0.27286 0.77482
 H194 H 0.21422 0.27834 0.76689
 H195 H 0.24810 0.26834 0.68255
 H196 H 0.22268 0.29611 0.65501
 H197 H 0.18855 0.30706 0.74150
 H198 H 0.27017 0.24561 0.81135
 H199 H 0.29275 0.27477 0.84246
 H200 H 0.28801 0.33262 0.76996
 H201 H 0.26570 0.30237 0.74053
 C202 C 0.21055 0.18895 0.80343
 C203 C 0.30178 0.21280 0.68101
 C204 C 0.29218 0.30606 0.80862
 C205 C 0.20334 0.30372 0.69597
 C206 C 0.75593 0.72156 0.69218
 H207 H 0.73940 0.72262 0.68577
 C208 C 0.76965 0.70502 0.67577
 H209 H 0.76340 0.69352 0.65695
 C210 C 0.78389 0.73394 0.72548
 H211 H 0.78933 0.74462 0.74542
 C212 C 0.79811 0.71784 0.70967
 H213 H 0.81449 0.71705 0.71717
 N214 N 0.76318 0.73548 0.71674
 C215 C 0.71533 0.74133 0.79018
 H216 H 0.71261 0.76207 0.79127
 C217 C 0.70293 0.72444 0.80835
 H218 H 0.69061 0.73281 0.82285
 C219 C 0.73378 0.70587 0.76788
 H220 H 0.74582 0.69867 0.75207
 C221 C 0.72149 0.68826 0.78507
 H222 H 0.72498 0.66778 0.78266
 Zn223 Zn 0.74454 0.75506 0.74289
 N224 N 0.73028 0.73184 0.77029
 C225 C 0.70748 0.75742 0.70715
 N226 N 0.72301 0.77235 0.71987
 C227 C 0.72186 0.79876 0.71895
 C228 C 0.70467 0.81107 0.70472
 C229 C 0.69003 0.76893 0.69269
 C230 C 0.76228 0.77876 0.79679
 C231 C 0.77618 0.79527 0.81257
 C232 C 0.78783 0.81295 0.76330
 C233 C 0.77367 0.79624 0.74850
 N234 N 0.76134 0.77943 0.76528
 H235 H 0.70817 0.73651 0.70933
 H236 H 0.73393 0.81039 0.72994
 H237 H 0.70399 0.83209 0.70430
 H238 H 0.67754 0.75668 0.68357
 H239 H 0.75273 0.76494 0.80975
 H240 H 0.77712 0.79395 0.83758
 H241 H 0.79759 0.82602 0.74944
 H242 H 0.77286 0.79616 0.72345
 C243 C 0.70542 0.69727 0.80546
 C244 C 0.79100 0.70268 0.68480
 C245 C 0.78943 0.81240 0.79576
 C246 C 0.68835 0.79610 0.69163
 C247 C 0.75676 0.20892 0.20849
 H248 H 0.74031 0.21174 0.20206
 C249 C 0.76913 0.19022 0.19327
 H250 H 0.76200 0.17849 0.17533
 C251 C 0.78590 0.22057 0.24005
 H252 H 0.79235 0.23232 0.25844
 C253 C 0.79882 0.20223 0.22542
 H254 H 0.81528 0.20053 0.23236
 N255 N 0.76534 0.22374 0.23124
 C256 C 0.71575 0.24966 0.29567
 H257 H 0.71614 0.27044 0.29170
 C258 C 0.70070 0.23904 0.31609
 H259 H 0.68973 0.25182 0.32812
 C260 C 0.72955 0.20783 0.28456
 H261 H 0.74071 0.19575 0.27198
 C262 C 0.71480 0.19639 0.30492
 H263 H 0.71464 0.17546 0.30766
 Zn264 Zn 0.74856 0.24958 0.25077
 N265 N 0.72964 0.23402 0.28011
 C266 C 0.71063 0.26439 0.22116
 N267 N 0.73218 0.26718 0.22018
 C268 C 0.74169 0.28238 0.19811
 C269 C 0.72941 0.29691 0.17749
 C270 C 0.69778 0.27851 0.20110
 C271 C 0.76485 0.27743 0.30257
 C272 C 0.77868 0.29431 0.31779
 C273 C 0.79664 0.30246 0.26898
 C274 C 0.78250 0.28546 0.25472
 N275 N 0.76683 0.27346 0.27146
 H276 H 0.70321 0.25138 0.23768
 H277 H 0.75879 0.28352 0.19650
 H278 H 0.73726 0.30923 0.16046
 H279 H 0.68066 0.27675 0.20338
 H280 H 0.75290 0.26714 0.31591
 H281 H 0.77709 0.29679 0.34263
 H282 H 0.80893 0.31181 0.25510
 H283 H 0.78460 0.28117 0.23044
 C284 C 0.69998 0.21206 0.32075
 C285 C 0.79052 0.18674 0.20163
 C286 C 0.79490 0.30700 0.30097
 C287 C 0.70711 0.29543 0.17926
 C288 C 0.26239 0.71868 0.20873
 H289 H 0.24521 0.71720 0.20823
 C290 C 0.27488 0.70150 0.19124
 H291 H 0.26720 0.68671 0.17746
 C292 C 0.29329 0.73901 0.22837
 H293 H 0.30053 0.75371 0.24262
 C294 C 0.30631 0.72242 0.21124
 H295 H 0.32343 0.72464 0.21259
 N296 N 0.27176 0.73625 0.22782
 C297 C 0.22654 0.74571 0.30478
 H298 H 0.22625 0.76666 0.30685
 C299 C 0.21315 0.73046 0.32349
 H300 H 0.20264 0.73981 0.34007
 C301 C 0.24045 0.70812 0.28045
 H302 H 0.25117 0.69937 0.26384
 C303 C 0.22745 0.69213 0.29884
 H304 H 0.22800 0.67128 0.29554
 Zn305 Zn 0.25500 0.75656 0.25548
 N306 N 0.23924 0.73445 0.28292
 C307 C 0.21473 0.77514 0.23616
 N308 N 0.23611 0.77754 0.23166
 C309 C 0.24413 0.79401 0.20965
 C310 C 0.23047 0.80938 0.19181
 C311 C 0.20057 0.79010 0.21896
 C312 C 0.28574 0.76393 0.30065
 C313 C 0.30215 0.77649 0.31630
 C314 C 0.29263 0.81630 0.29024
 C315 C 0.27630 0.80291 0.27528
 N316 N 0.27365 0.77700 0.27988
 H317 H 0.20847 0.76148 0.25295
 H318 H 0.26116 0.79514 0.20587
 H319 H 0.23717 0.82223 0.17431
 H320 H 0.18366 0.78816 0.22359
 H321 H 0.28334 0.74325 0.30383
 H322 H 0.31204 0.76436 0.33066
 H323 H 0.29364 0.83698 0.28603
 H324 H 0.26614 0.81320 0.25936
 C325 C 0.21316 0.70330 0.32013
 C326 C 0.29717 0.70277 0.19320
 C327 C 0.30664 0.80312 0.31059
 C328 C 0.20832 0.80754 0.19637
 O329 O 1.02753 0.04323 0.05724
 O330 O 1.05205 0.02132 0.02757
 C331 C 1.04700 0.03765 0.04935
 O332 O 0.96903 -0.04994 0.05122
 O333 O 0.94562 -0.02540 0.02311
 C334 C 0.94989 -0.04365 0.04299
 O335 O 1.02834 -0.04724 0.05533
 O336 O 1.05244 -0.02324 0.02693
 C337 C 1.04770 -0.04064 0.04780
 O338 O 0.96827 0.04445 0.05349
 O339 O 0.94527 0.02009 0.02444
 C340 C 0.94924 0.03765 0.04516
 Zr341 Zr 0.99835 0.03109 0.03810
 O342 O 0.99718 0.03422 0.08698
 O343 O 0.99865 0.07200 0.03350
 Zr344 Zr 0.99883 -0.03440 0.03767
 O345 O 0.99589 -0.03423 0.08662
 O346 O 1.00131 -0.07544 0.03805
 O347 O 1.01751 -0.00150 0.04469
 O348 O 0.97989 -0.00202 0.04314
 O349 O 0.97054 0.04663 -0.05501
 O350 O 0.94636 0.02151 -0.02814
 C351 C 0.95118 0.03985 -0.04783
 O352 O 1.03042 -0.04562 -0.05704
 O353 O 1.05342 -0.02286 -0.02628
 C354 C 1.04945 -0.03936 -0.04820
 O355 O 0.97086 -0.04851 -0.05635
 O356 O 0.94651 -0.02415 -0.02924
 C357 C 0.95143 -0.04210 -0.04916
 O358 O 1.03003 0.04439 -0.05691
 O359 O 1.05313 0.02138 -0.02646
 C360 C 1.04908 0.03807 -0.04823
 Zr361 Zr 0.99999 0.03176 -0.03982
 O362 O 0.99847 0.03222 -0.08885
 O363 O 1.00196 0.07284 -0.03907
 Zr364 Zr 1.00024 -0.03359 -0.04050
 O365 O 0.99889 -0.03258 -0.08954
 O366 O 1.00278 -0.07461 -0.04123
 Zr367 Zr 1.03130 -0.00096 -0.00010
 Zr368 Zr 0.96737 -0.00173 -0.00194
 O369 O 0.98159 -0.00102 -0.04635
 O370 O 1.01936 -0.00069 -0.04569
 O371 O 0.98000 0.03627 -0.00129
 O372 O 1.01805 -0.03860 -0.00098
 O373 O 1.01781 0.03644 -0.00024
 O374 O 0.98053 -0.03942 -0.00197
 H375 H 0.96994 -0.00261 0.06111
 H376 H 1.02753 -0.05397 -0.00091
 H377 H 0.97237 -0.00085 -0.06485
 H378 H 1.02732 0.05183 0.00008
 H379 H 0.99045 -0.08230 0.02377
 H380 H 0.99077 -0.08174 -0.02884
 H381 H 1.01142 -0.02271 -0.09720
 H382 H 1.01039 0.02154 -0.09683
 H383 H 0.99089 0.07911 -0.02443
 H384 H 0.99860 0.07896 0.05488
 H385 H 0.99284 0.01706 0.09524
 H386 H 1.00797 -0.02403 0.09481
 O387 O 1.02869 0.54925 0.55449
 O388 O 1.05312 0.52541 0.52684
 C389 C 1.04811 0.54297 0.54717
 O390 O 0.96983 0.45538 0.55332
 O391 O 0.94651 0.47901 0.52393
 C392 C 0.95074 0.46138 0.54461
 O393 O 1.02900 0.45840 0.55790
 O394 O 1.05330 0.48095 0.52814
 C395 C 1.04838 0.46455 0.55005
 O396 O 0.96949 0.55096 0.55003
 O397 O 0.94637 0.52551 0.52257
 C398 C 0.95044 0.54410 0.54194
 Zr399 Zr 0.99942 0.53536 0.53742
 O400 O 0.99779 0.53168 0.58619
 O401 O 0.99955 0.57635 0.54095
 Zr402 Zr 0.99966 0.47038 0.53916
 O403 O 0.99649 0.47205 0.58804
 O404 O 1.00208 0.42936 0.54113
 O405 O 1.01865 0.50318 0.54489
 O406 O 0.98058 0.50285 0.54333
 O407 O 0.97181 0.54884 0.44336
 O408 O 0.94750 0.52454 0.47098
 C409 C 0.95242 0.54249 0.45089
 O410 O 1.03139 0.45617 0.44499
 O411 O 1.05445 0.48005 0.47444
 C412 C 1.05044 0.46253 0.45365
 O413 O 0.97210 0.45362 0.44580
 O414 O 0.94764 0.47840 0.47212
 C415 C 0.95267 0.46002 0.45285
 O416 O 1.03117 0.54713 0.44250
 O417 O 1.05431 0.52455 0.47331
 C418 C 1.05025 0.54130 0.45154
 Zr419 Zr 1.00118 0.53415 0.45903
 O420 O 1.00138 0.53016 0.41027
 O421 O 1.00282 0.57519 0.45595
 Zr422 Zr 1.00135 0.46909 0.46090
 O423 O 1.00044 0.46932 0.41183
 O424 O 1.00370 0.42804 0.46124
 Zr425 Zr 1.03236 0.50255 0.50007
 Zr426 Zr 0.96837 0.50201 0.49811
 O427 O 0.98261 0.50141 0.45374
 O428 O 1.02061 0.50170 0.45452
 O429 O 0.98139 0.53986 0.49747
 O430 O 1.01899 0.46499 0.50075
 O431 O 1.01872 0.53984 0.49864
 O432 O 0.98153 0.46434 0.49958
 H433 H 0.97047 0.50312 0.56111
 H434 H 1.02845 0.44962 0.50154
 H435 H 0.97334 0.50106 0.43528
 H436 H 1.02807 0.55537 0.49836
 H437 H 0.99110 0.42213 0.52733
 H438 H 0.99219 0.42127 0.47486
 H439 H 1.01186 0.48114 0.40436
 H440 H 1.00134 0.54807 0.40171
 H441 H 0.99202 0.58224 0.47049
 H442 H 1.00341 0.58329 0.52027
 H443 H 0.99713 0.54963 0.59437
 H444 H 1.00781 0.48370 0.59576
 O445 O 0.47333 -0.03329 0.43117
 O446 O 0.48591 -0.06281 0.46655
 C447 C 0.47597 -0.05687 0.44120
 O448 O 0.54787 0.03746 0.46523
 O449 O 0.52324 0.06714 0.48240
 C450 C 0.54166 0.06106 0.47057
 O451 O 0.54559 -0.03459 0.46082
 O452 O 0.52112 -0.06359 0.48071
 C453 C 0.53894 -0.05802 0.46662
 O454 O 0.47174 0.03883 0.43360
 O455 O 0.48574 0.06755 0.46857
 C456 C 0.47468 0.06214 0.44413
 Zr457 Zr 0.48127 0.00256 0.45174
 O458 O 0.49230 0.00523 0.40526
 O459 O 0.44931 0.00079 0.43675
 Zr460 Zr 0.53218 0.00164 0.47231
 O461 O 0.53800 0.00313 0.42401
 O462 O 0.56518 -0.00126 0.48115
 O463 O 0.50758 -0.02156 0.45624
 O464 O 0.50809 0.02533 0.45669
 O465 O 0.45126 0.03852 0.53340
 O466 O 0.47693 0.06768 0.51761
 C467 C 0.45816 0.06200 0.52871
 O468 O 0.52493 -0.03501 0.56784
 O469 O 0.51177 -0.06369 0.53215
 C470 C 0.52186 -0.05838 0.55752
 O471 O 0.52882 0.03713 0.56525
 O472 O 0.51456 0.06680 0.53152
 C473 C 0.52602 0.06072 0.55535
 O474 O 0.45198 -0.03339 0.53849
 O475 O 0.47579 -0.06304 0.51878
 C476 C 0.45807 -0.05698 0.53277
 Zr477 Zr 0.46649 0.00244 0.52756
 O478 O 0.46128 0.00370 0.57600
 O479 O 0.43323 0.00195 0.52046
 Zr480 Zr 0.51731 0.00147 0.54814
 O481 O 0.50514 0.00425 0.59400
 O482 O 0.54835 -0.00115 0.56633
 Zr483 Zr 0.49880 -0.03720 0.49983
 Zr484 Zr 0.49982 0.04121 0.50002
 O485 O 0.49112 0.02528 0.54333
 O486 O 0.49043 -0.02182 0.54358
 O487 O 0.47001 0.02543 0.48803
 O488 O 0.52842 -0.02087 0.51169
 O489 O 0.46965 -0.01988 0.48801
 O490 O 0.52924 0.02431 0.51192
 H491 H 0.51158 0.03752 0.43951
 H492 H 0.54077 -0.03208 0.51649
 H493 H 0.48797 0.03760 0.56038
 H494 H 0.45722 -0.03091 0.48295
 H495 H 0.56806 0.00915 0.49987
 H496 H 0.55827 0.00258 0.54897
 H497 H 0.49823 -0.01253 0.59926
 H498 H 0.44564 0.00464 0.57899
 H499 H 0.43109 -0.00070 0.49804
 H500 H 0.44095 0.01275 0.45000
 H501 H 0.50110 -0.01033 0.40101
 H502 H 0.55369 0.00332 0.42139
 O503 O 0.53026 0.54476 0.05695
 O504 O 0.55400 0.52118 0.02776
 C505 C 0.54949 0.53854 0.04854
 O506 O 0.47123 0.45170 0.05741
 O507 O 0.44743 0.47560 0.02920
 C508 C 0.45199 0.45775 0.04945
 O509 O 0.53053 0.45439 0.05919
 O510 O 0.55415 0.47733 0.02877
 C511 C 0.54974 0.46055 0.05045
 O512 O 0.47091 0.54633 0.05554
 O513 O 0.44723 0.52130 0.02854
 C514 C 0.45169 0.53956 0.04816
 Zr515 Zr 0.50063 0.53217 0.03977
 O516 O 0.50046 0.53646 0.08853
 O517 O 0.50106 0.57296 0.03373
 Zr518 Zr 0.50079 0.46656 0.04186
 O519 O 0.49910 0.46635 0.09092
 O520 O 0.50159 0.42553 0.03944
 O521 O 0.51969 0.49958 0.04684
 O522 O 0.48214 0.49932 0.04691
 O523 O 0.47117 0.54518 -0.05268
 O524 O 0.44743 0.52105 -0.02374
 C525 C 0.45195 0.53874 -0.04433
 O526 O 0.53037 0.45286 -0.05396
 O527 O 0.55411 0.47648 -0.02537
 C528 C 0.54960 0.45932 -0.04634
 O529 O 0.47109 0.45028 -0.05025
 O530 O 0.44735 0.47551 -0.02305
 C531 C 0.45186 0.45708 -0.04250
 O532 O 0.53068 0.54292 -0.05632
 O533 O 0.55420 0.52053 -0.02586
 C534 C 0.54984 0.53693 -0.04781
 Zr535 Zr 0.50082 0.53057 -0.03815
 O536 O 0.49852 0.52906 -0.08708
 O537 O 0.50282 0.57164 -0.03972
 Zr538 Zr 0.50072 0.46511 -0.03584
 O539 O 0.49882 0.46195 -0.08463
 O540 O 0.50150 0.42430 -0.03005
 Zr541 Zr 0.53265 0.49877 0.00156
 Zr542 Zr 0.46878 0.49851 0.00244
 O543 O 0.48219 0.49771 -0.04248
 O544 O 0.51983 0.49778 -0.04343
 O545 O 0.48161 0.53640 0.00095
 O546 O 0.51949 0.46119 0.00283
 O547 O 0.51934 0.53626 0.00050
 O548 O 0.48163 0.46074 0.00343
 H549 H 0.47252 0.49933 0.06525
 H550 H 0.52909 0.44591 0.00297
 H551 H 0.47267 0.49739 -0.06067
 H552 H 0.52882 0.55168 -0.00008
 H553 H 0.50185 0.41921 0.06117
 H554 H 0.50186 0.41690 -0.05122
 H555 H 0.50835 0.47540 -0.09355
 H556 H 0.51105 0.51946 -0.09504
 H557 H 0.49256 0.57841 -0.02420
 H558 H 0.50141 0.58046 0.05484
 H559 H 0.49615 0.51956 0.09757
 H560 H 0.51020 0.47841 0.09844
 C561 C 1.15881 0.14463 0.15269
 C562 C 1.17999 0.13642 0.15623
 C563 C 1.19469 0.15197 0.17194
 C564 C 1.18856 0.17613 0.18432
 C565 C 1.16750 0.18453 0.18008
 C566 C 1.15282 0.16897 0.16461
 C567 C 1.14280 0.12790 0.13731
 N568 N 1.12181 0.13399 0.13907
 N569 N 1.10724 0.11905 0.12573
 C570 C 1.11297 0.09734 0.10993
 N571 N 1.13400 0.09122 0.10802
 N572 N 1.14860 0.10616 0.12151
 C573 C 1.09645 0.08097 0.09516
 C574 C 1.10183 0.06139 0.07378
 C575 C 1.08587 0.04691 0.05914
 C576 C 1.06424 0.05162 0.06578
 C577 C 1.05900 0.07081 0.08769
 C578 C 1.07484 0.08529 0.10207
 H579 H 1.18513 0.11776 0.14738
 H580 H 1.21072 0.14478 0.17501
 H581 H 1.16232 0.20327 0.18863
 H582 H 1.13672 0.17609 0.16202
 H583 H 1.11833 0.05758 0.06793
 H584 H 1.09048 0.03229 0.04239
 H585 H 1.04255 0.07504 0.09348
 H586 H 1.07007 0.10004 0.11856
 C587 C 1.16033 0.65630 0.63768
 C588 C 1.15437 0.68108 0.64825
 C589 C 1.16895 0.69688 0.66350
 C590 C 1.18981 0.68825 0.66870
 C591 C 1.19602 0.66384 0.65721
 C592 C 1.18143 0.64804 0.64178
 C593 C 1.14428 0.63892 0.62374
 N594 N 1.15002 0.61636 0.60966
 N595 N 1.13533 0.60050 0.59801
 C596 C 1.11431 0.60651 0.60021
 N597 N 1.10864 0.62907 0.61423
 N598 N 1.12329 0.64493 0.62572
 C599 C 1.09775 0.58906 0.58771
 C600 C 1.07629 0.59314 0.59570
 C601 C 1.06036 0.57764 0.58320
 C602 C 1.06542 0.55773 0.56219
 C603 C 1.08693 0.55319 0.55466
 C604 C 1.10297 0.56867 0.56740
 H605 H 1.13832 0.68821 0.64511
 H606 H 1.16381 0.71581 0.67148
 H607 H 1.21193 0.65655 0.66111
 H608 H 1.18653 0.62906 0.63391
 H609 H 1.07171 0.60849 0.61151
 H610 H 1.04399 0.58168 0.58966
 H611 H 1.09137 0.53800 0.53853
 H612 H 1.11938 0.56505 0.56081
 C613 C 0.64006 0.16877 0.64509
 C614 C 0.64489 0.19461 0.63690
 C615 C 0.66273 0.20706 0.64931
 C616 C 0.67619 0.19385 0.66995
 C617 C 0.67156 0.16785 0.67751
 C618 C 0.65374 0.15549 0.66528
 C619 C 0.62079 0.15559 0.63324
 N620 N 0.61359 0.13347 0.64706
 N621 N 0.59660 0.12110 0.63632
 C622 C 0.58603 0.13023 0.61124
 N623 N 0.59313 0.15247 0.59742
 N624 N 0.61012 0.16497 0.60830
 C625 C 0.56801 0.11513 0.59842
 C626 C 0.56002 0.12036 0.56868
 C627 C 0.54508 0.10364 0.55526
 C628 C 0.53797 0.08140 0.57136
 C629 C 0.54493 0.07717 0.60178
 C630 C 0.55972 0.09385 0.61516
 H631 H 0.63467 0.20537 0.62140
 H632 H 0.66596 0.22703 0.64274
 H633 H 0.68140 0.15716 0.69358
 H634 H 0.65063 0.13549 0.67186
 H635 H 0.56611 0.13654 0.55511
 H636 H 0.54019 0.10721 0.53161
 H637 H 0.53954 0.06036 0.61487
 H638 H 0.56521 0.08948 0.63833
 C639 C 0.66521 0.65120 0.12947
 C640 C 0.66228 0.67826 0.12905
 C641 C 0.67615 0.69456 0.14492
 C642 C 0.69314 0.68416 0.16184
 C643 C 0.69667 0.65718 0.16105
 C644 C 0.68288 0.64086 0.14490
 C645 C 0.64898 0.63393 0.11591
 N646 N 0.65309 0.60842 0.11041
 N647 N 0.63789 0.59271 0.09992
 C648 C 0.61794 0.60187 0.09486
 N649 N 0.61393 0.62738 0.10019
 N650 N 0.62912 0.64308 0.11045
 C651 C 0.60069 0.58458 0.08439
 C652 C 0.57940 0.59179 0.08942
 C653 C 0.56287 0.57626 0.07877
 C654 C 0.56720 0.55326 0.06246
 C655 C 0.58851 0.54569 0.05791
 C656 C 0.60513 0.56115 0.06901
 H657 H 0.64897 0.68685 0.11699
 H658 H 0.67330 0.71531 0.14443
 H659 H 0.70952 0.64852 0.17405
 H660 H 0.68552 0.62007 0.14569
 H661 H 0.57547 0.60958 0.10152
 H662 H 0.54666 0.58273 0.08261
 H663 H 0.59235 0.52805 0.04543
 H664 H 0.62142 0.55515 0.06486
 C665 C 0.83435 -0.14154 0.15414
 C666 C 0.81278 -0.14053 0.14577
 C667 C 0.79755 -0.15548 0.16177
 C668 C 0.80356 -0.17164 0.18656
 C669 C 0.82508 -0.17238 0.19507
 C670 C 0.84025 -0.15755 0.17911
 C671 C 0.85085 -0.12653 0.13687
 N672 N 0.87170 -0.12955 0.14391
 N673 N 0.88675 -0.11655 0.12844
 C674 C 0.88167 -0.09989 0.10520
 N675 N 0.86078 -0.09672 0.09813
 N676 N 0.84567 -0.10982 0.11362
 C677 C 0.89877 -0.08563 0.08828
 C678 C 0.89416 -0.06599 0.06657
 C679 C 0.91068 -0.05237 0.05150
 C680 C 0.93208 -0.05820 0.05784
 C681 C 0.93655 -0.07810 0.07922
 C682 C 0.92017 -0.09156 0.09422
 H683 H 0.80768 -0.12839 0.12668
 H684 H 0.78106 -0.15436 0.15480
 H685 H 0.83032 -0.18498 0.21364
 H686 H 0.85668 -0.15889 0.18625
 H687 H 0.87784 -0.06095 0.06147
 H688 H 0.90669 -0.03718 0.03512
 H689 H 0.95280 -0.08329 0.08464
 H690 H 0.92438 -0.10666 0.11061
 C691 C 0.83881 0.35090 0.64573
 C692 C 0.84429 0.33755 0.67286
 C693 C 0.82983 0.32094 0.68765
 C694 C 0.80905 0.31691 0.67600
 C695 C 0.80386 0.33032 0.64822
 C696 C 0.81846 0.34702 0.63349
 C697 C 0.85447 0.36859 0.63056
 N698 N 0.84993 0.38145 0.60382
 N699 N 0.86434 0.39707 0.59038
 C700 C 0.88384 0.40046 0.60318
 N701 N 0.88825 0.38768 0.62994
 N702 N 0.87391 0.37214 0.64332
 C703 C 0.90036 0.41712 0.58828
 C704 C 0.92074 0.41848 0.60131
 C705 C 0.93679 0.43314 0.58723
 C706 C 0.93298 0.44703 0.55975
 C707 C 0.91250 0.44626 0.54691
 C708 C 0.89633 0.43132 0.56099
 H709 H 0.85998 0.33965 0.68274
 H710 H 0.83581 0.31046 0.70745
 H711 H 0.78820 0.32931 0.63820
 H712 H 0.81367 0.35712 0.61263
 H713 H 0.92448 0.40793 0.62232
 H714 H 0.95231 0.43346 0.59796
 H715 H 0.90910 0.45673 0.52570
 H716 H 0.88079 0.43073 0.55038
 C717 C 0.34969 -0.17223 0.62913
 C718 C 0.32905 -0.16187 0.63184
 C719 C 0.31371 -0.17390 0.65064
 C720 C 0.31855 -0.19673 0.66704
 C721 C 0.33910 -0.20736 0.66396
 C722 C 0.35452 -0.19519 0.64530
 C723 C 0.36610 -0.15848 0.61037
 N724 N 0.38700 -0.16528 0.61166
 N725 N 0.40178 -0.15161 0.59623
 C726 C 0.39623 -0.13067 0.57882
 N727 N 0.37532 -0.12426 0.57716
 N728 N 0.36059 -0.13784 0.59256
 C729 C 0.41250 -0.11368 0.56396
 C730 C 0.40608 -0.09021 0.55023
 C731 C 0.42108 -0.07239 0.53941
 C732 C 0.44291 -0.07762 0.54162
 C733 C 0.44954 -0.10165 0.55361
 C734 C 0.43440 -0.11952 0.56498
 H735 H 0.32479 -0.14409 0.61991
 H736 H 0.29819 -0.16494 0.65284
 H737 H 0.34325 -0.22518 0.67586
 H738 H 0.37023 -0.20373 0.64361
 H739 H 0.38941 -0.08507 0.54872
 H740 H 0.41556 -0.05418 0.52972
 H741 H 0.46633 -0.10609 0.55538
 H742 H 0.43984 -0.13753 0.57524
 C743 C 0.33969 0.34472 0.14559
 C744 C 0.34646 0.32546 0.16648
 C745 C 0.33172 0.30987 0.18218
 C746 C 0.30981 0.31305 0.17746
 C747 C 0.30294 0.33167 0.15584
 C748 C 0.31776 0.34743 0.14008
 C749 C 0.35564 0.36212 0.13062
 N750 N 0.34990 0.38079 0.10993
 N751 N 0.36449 0.39660 0.09727
 C752 C 0.38537 0.39442 0.10491
 N753 N 0.39101 0.37574 0.12552
 N754 N 0.37650 0.35998 0.13808
 C755 C 0.40190 0.41171 0.09120
 C756 C 0.42303 0.40974 0.10133
 C757 C 0.43902 0.42506 0.08813
 C758 C 0.43441 0.44288 0.06438
 C759 C 0.41321 0.44538 0.05458
 C760 C 0.39709 0.42991 0.06787
 H761 H 0.36320 0.32257 0.17112
 H762 H 0.33750 0.29534 0.19826
 H763 H 0.28611 0.33455 0.15185
 H764 H 0.31203 0.36202 0.12405
 H765 H 0.42737 0.39613 0.11940
 H766 H 0.45511 0.42268 0.09645
 H767 H 0.40913 0.45894 0.03634
 H768 H 0.38096 0.43197 0.05960
 C769 C 0.83765 0.13840 -0.15899
 C770 C 0.84371 0.15460 -0.18392
 C771 C 0.82866 0.16975 -0.19924
 C772 C 0.80715 0.16915 -0.19006
 C773 C 0.80099 0.15283 -0.16530
 C774 C 0.81607 0.13756 -0.14997
 C775 C 0.85394 0.12297 -0.14235
 N776 N 0.84849 0.10658 -0.11874
 N777 N 0.86335 0.09315 -0.10367
 C778 C 0.88427 0.09562 -0.11156
 N779 N 0.88964 0.11196 -0.13519
 N780 N 0.87483 0.12531 -0.15023
 C781 C 0.90109 0.08111 -0.09484
 C782 C 0.92261 0.08545 -0.10244
 C783 C 0.93867 0.07212 -0.08706
 C784 C 0.93374 0.05393 -0.06364
 C785 C 0.91222 0.04948 -0.05593
 C786 C 0.89604 0.06299 -0.07134
 H787 H 0.86016 0.15583 -0.19152
 H788 H 0.83400 0.18243 -0.21786
 H789 H 0.78449 0.15178 -0.15786
 H790 H 0.81084 0.12527 -0.13093
 H791 H 0.92716 0.09925 -0.12035
 H792 H 0.95504 0.07606 -0.09374
 H793 H 0.90786 0.03562 -0.03798
 H794 H 0.87962 0.05919 -0.06489
 C795 C 0.83957 0.64877 0.34967
 C796 C 0.81770 0.64432 0.35457
 C797 C 0.80257 0.65997 0.33999
 C798 C 0.80901 0.68038 0.32021
 C799 C 0.83087 0.68493 0.31557
 C800 C 0.84595 0.66932 0.33007
 C801 C 0.85580 0.63218 0.36464
 N802 N 0.87677 0.63581 0.35809
 N803 N 0.89150 0.62110 0.37138
 C804 C 0.88595 0.60209 0.39185
 N805 N 0.86496 0.59839 0.39845
 N806 N 0.85017 0.61312 0.38509
 C807 C 0.90264 0.58611 0.40669
 C808 C 0.89749 0.56699 0.42897
 C809 C 0.91357 0.55251 0.44321
 C810 C 0.93508 0.55691 0.43545
 C811 C 0.94011 0.57584 0.41294
 C812 C 0.92413 0.59020 0.39877
 H813 H 0.81224 0.62864 0.36949
 H814 H 0.78583 0.65584 0.34378
 H815 H 0.83635 0.70078 0.30093
 H816 H 0.86264 0.67347 0.32592
 H817 H 0.88107 0.56333 0.43558
 H818 H 0.90915 0.53805 0.46043
 H819 H 0.95648 0.57978 0.40628
 H820 H 0.92874 0.60467 0.38167
 C821 C 0.36189 0.16769 0.34830
 C822 C 0.34671 0.18009 0.36711
 C823 C 0.32816 0.19056 0.35437
 C824 C 0.32403 0.18908 0.32208
 C825 C 0.33970 0.17651 0.30354
 C826 C 0.35813 0.16607 0.31641
 C827 C 0.38133 0.15591 0.36172
 N828 N 0.39477 0.14176 0.34364
 N829 N 0.41171 0.13014 0.35570
 C830 C 0.41607 0.13225 0.38636
 N831 N 0.40281 0.14670 0.40443
 N832 N 0.38580 0.15830 0.39236
 C833 C 0.43382 0.11722 0.40009
 C834 C 0.43963 0.12062 0.43126
 C835 C 0.45439 0.10391 0.44509
 C836 C 0.46333 0.08332 0.42812
 C837 C 0.45847 0.08088 0.39658
 C838 C 0.44403 0.09777 0.38265
 H839 H 0.34896 0.18140 0.39192
 H840 H 0.31686 0.19867 0.37065
 H841 H 0.33875 0.17557 0.27861
 H842 H 0.36959 0.15689 0.30108
 H843 H 0.43218 0.13552 0.44529
 H844 H 0.45771 0.10605 0.46955
 H845 H 0.46516 0.06518 0.38297
 H846 H 0.44007 0.09465 0.35858
 C847 C 0.33744 0.63927 -0.14861
 C848 C 0.31826 0.64599 -0.13357
 C849 C 0.30350 0.66206 -0.14832
 C850 C 0.30760 0.67148 -0.17842
 C851 C 0.32667 0.66458 -0.19344
 C852 C 0.34140 0.64869 -0.17875
 C853 C 0.35362 0.62311 -0.13304
 N854 N 0.37305 0.61979 -0.14645
 N855 N 0.38796 0.60584 -0.13250
 C856 C 0.38410 0.59452 -0.10455
 N857 N 0.36460 0.59763 -0.09112
 N858 N 0.34965 0.61170 -0.10509
 C859 C 0.40113 0.57974 -0.08901
 C860 C 0.39684 0.56430 -0.06269
 C861 C 0.41327 0.55065 -0.04822
 C862 C 0.43428 0.55248 -0.05962
 C863 C 0.43845 0.56787 -0.08595
 C864 C 0.42209 0.58122 -0.10051
 H865 H 0.31476 0.63907 -0.11033
 H866 H 0.28883 0.66700 -0.13632
 H867 H 0.33043 0.67190 -0.21644
 H868 H 0.35599 0.64397 -0.19105
 H869 H 0.38083 0.56271 -0.05335
 H870 H 0.40957 0.53889 -0.02800
 H871 H 0.45442 0.56961 -0.09546
 H872 H 0.42600 0.59296 -0.12069
 C873 C 1.16568 -0.14491 -0.14385
 C874 C 1.15988 -0.16932 -0.15567
 C875 C 1.17506 -0.18545 -0.16932
 C876 C 1.19642 -0.17759 -0.17169
 C877 C 1.20235 -0.15324 -0.15983
 C878 C 1.18713 -0.13710 -0.14583
 C879 C 1.14916 -0.12782 -0.13020
 N880 N 1.15435 -0.10660 -0.11313
 N881 N 1.13920 -0.09155 -0.10085
 C882 C 1.11827 -0.09706 -0.10535
 N883 N 1.11318 -0.11820 -0.12249
 N884 N 1.12826 -0.13325 -0.13460
 C885 C 1.10114 -0.08087 -0.09166
 C886 C 1.08004 -0.08452 -0.10119
 C887 C 1.06348 -0.07059 -0.08751
 C888 C 1.06751 -0.05265 -0.06378
 C889 C 1.08869 -0.04844 -0.05467
 C890 C 1.10537 -0.06239 -0.06856
 H891 H 1.14354 -0.17601 -0.15450
 H892 H 1.16995 -0.20392 -0.17869
 H893 H 1.21875 -0.14676 -0.16130
 H894 H 1.19208 -0.11838 -0.13700
 H895 H 1.07619 -0.09837 -0.11913
 H896 H 1.04742 -0.07426 -0.09533
 H897 H 1.09234 -0.03472 -0.03649
 H898 H 1.12148 -0.05914 -0.06074
 C899 C 1.16559 0.34777 0.37063
 C900 C 1.16018 0.32204 0.36301
 C901 C 1.17503 0.30571 0.34875
 C902 C 1.19561 0.31475 0.34157
 C903 C 1.20125 0.34023 0.34992
 C904 C 1.18642 0.35654 0.36447
 C905 C 1.14920 0.36551 0.38356
 N906 N 1.15454 0.38889 0.39592
 N907 N 1.13955 0.40498 0.40662
 C908 C 1.11861 0.39840 0.40513
 N909 N 1.11335 0.37502 0.39284
 N910 N 1.12829 0.35893 0.38234
 C911 C 1.10167 0.41613 0.41640
 C912 C 1.08050 0.41179 0.40763
 C913 C 1.06413 0.42742 0.41899
 C914 C 1.06840 0.44779 0.43969
 C915 C 1.08966 0.45262 0.44799
 C916 C 1.10616 0.43699 0.43633
 H917 H 1.14432 0.31459 0.36759
 H918 H 1.17014 0.28629 0.34230
 H919 H 1.21707 0.34763 0.34489
 H920 H 1.19111 0.37622 0.37008
 H921 H 1.07647 0.39610 0.39206
 H922 H 1.04801 0.42307 0.41197
 H923 H 1.09350 0.46813 0.46390
 H924 H 1.12233 0.44083 0.44350
 C925 C 0.64559 -0.17904 0.37815
 C926 C 0.66708 -0.17162 0.38060
 C927 C 0.68271 -0.18329 0.36218
 C928 C 0.67729 -0.20279 0.34102
 C929 C 0.65594 -0.21088 0.33922
 C930 C 0.64022 -0.19905 0.35753
 C931 C 0.62896 -0.16483 0.39581
 N932 N 0.60788 -0.16913 0.39091
 N933 N 0.59312 -0.15462 0.40500
 C934 C 0.59888 -0.13523 0.42455
 N935 N 0.61991 -0.13138 0.42989
 N936 N 0.63461 -0.14585 0.41587
 C937 C 0.58300 -0.11697 0.43767
 C938 C 0.59004 -0.09337 0.45025
 C939 C 0.57554 -0.07468 0.45999
 C940 C 0.55357 -0.07915 0.45789
 C941 C 0.54629 -0.10315 0.44674
 C942 C 0.56094 -0.12187 0.43634
 H943 H 0.67186 -0.15634 0.39629
 H944 H 0.69909 -0.17696 0.36440
 H945 H 0.65130 -0.22581 0.32298
 H946 H 0.62384 -0.20526 0.35511
 H947 H 0.60685 -0.08887 0.45172
 H948 H 0.58156 -0.05649 0.46899
 H949 H 0.52938 -0.10702 0.44507
 H950 H 0.55504 -0.13994 0.42688
 C951 C 0.66110 0.34559 -0.14005
 C952 C 0.65415 0.32386 -0.15685
 C953 C 0.66875 0.30747 -0.17143
 C954 C 0.69070 0.31239 -0.16963
 C955 C 0.69775 0.33377 -0.15225
 C956 C 0.68309 0.35017 -0.13751
 C957 C 0.64531 0.36362 -0.12624
 N958 N 0.65129 0.38311 -0.10695
 N959 N 0.63687 0.39938 -0.09507
 C960 C 0.61593 0.39689 -0.10219
 N961 N 0.61004 0.37741 -0.12143
 N962 N 0.62439 0.36115 -0.13318
 C963 C 0.59960 0.41457 -0.08911
 C964 C 0.57864 0.41335 -0.10003
 C965 C 0.56269 0.42854 -0.08675
 C966 C 0.56722 0.44536 -0.06207
 C967 C 0.58833 0.44734 -0.05175
 C968 C 0.60440 0.43208 -0.06518
 H969 H 0.63734 0.31966 -0.15920
 H970 H 0.66278 0.29142 -0.18501
 H971 H 0.71459 0.33789 -0.15027
 H972 H 0.68897 0.36671 -0.12468
 H973 H 0.57437 0.40031 -0.11862
 H974 H 0.54667 0.42667 -0.09555
 H975 H 0.59233 0.46013 -0.03278
 H976 H 0.62042 0.43352 -0.05629
 C977 C 1.16665 0.13764 -0.15134
 C978 C 1.17802 0.15610 -0.13425
 C979 C 1.19258 0.17279 -0.14896
 C980 C 1.19651 0.17126 -0.18124
 C981 C 1.18547 0.15197 -0.19797
 C982 C 1.17066 0.13565 -0.18329
 C983 C 1.15016 0.12119 -0.13619
 N984 N 1.13460 0.10998 -0.15325
 N985 N 1.11923 0.09602 -0.13964
 C986 C 1.11886 0.09251 -0.10841
 N987 N 1.13454 0.10350 -0.09135
 N988 N 1.14983 0.11764 -0.10495
 C989 C 1.10133 0.07774 -0.09328
 C990 C 1.10371 0.06727 -0.06336
 C991 C 1.08689 0.05384 -0.04893
 C992 C 1.06725 0.05110 -0.06392
 C993 C 1.06492 0.06150 -0.09385
 C994 C 1.08183 0.07447 -0.10848
 H995 H 1.17537 0.15801 -0.10952
 H996 H 1.20111 0.18640 -0.13459
 H997 H 1.18721 0.15021 -0.22284
 H998 H 1.16214 0.12159 -0.19712
 H999 H 1.11857 0.06942 -0.05111
 H1000 H 1.08910 0.04613 -0.02578
 H1001 H 1.05000 0.05956 -0.10602
 H1002 H 1.07947 0.08241 -0.13147
 C1003 C 1.16636 0.65408 0.36493
 C1004 C 1.16073 0.67859 0.35306
 C1005 C 1.17606 0.69479 0.33941
 C1006 C 1.19740 0.68686 0.33709
 C1007 C 1.20316 0.66257 0.34949
 C1008 C 1.18782 0.64640 0.36342
 C1009 C 1.14970 0.63646 0.37778
 N1010 N 1.15486 0.61447 0.39359
 N1011 N 1.13971 0.59859 0.40456
 C1012 C 1.11879 0.60398 0.39997
 N1013 N 1.11370 0.62595 0.38418
 N1014 N 1.12880 0.64183 0.37336
 C1015 C 1.10170 0.58659 0.41202
 C1016 C 1.08064 0.59011 0.40222
 C1017 C 1.06418 0.57484 0.41438
 C1018 C 1.06825 0.55568 0.43687
 C1019 C 1.08940 0.55166 0.44622
 C1020 C 1.10598 0.56691 0.43382
 H1021 H 1.14438 0.68520 0.35392
 H1022 H 1.17106 0.71322 0.32971
 H1023 H 1.21952 0.65602 0.34824
 H1024 H 1.19271 0.62767 0.37237
 H1025 H 1.07676 0.60491 0.38528
 H1026 H 1.04813 0.57852 0.40652
 H1027 H 1.09310 0.53712 0.46356
 H1028 H 1.12204 0.56368 0.44183
 C1029 C 0.65195 0.17643 0.37911
 C1030 C 0.67325 0.16805 0.38018
 C1031 C 0.68885 0.17978 0.36151
 C1032 C 0.68357 0.20026 0.34144
 C1033 C 0.66239 0.20906 0.34083
 C1034 C 0.64674 0.19724 0.35941
 C1035 C 0.63524 0.16270 0.39743
 N1036 N 0.61430 0.16885 0.39448
 N1037 N 0.59929 0.15521 0.40945
 C1038 C 0.60461 0.13489 0.42802
 N1039 N 0.62556 0.12909 0.43132
 N1040 N 0.64053 0.14269 0.41640
 C1041 C 0.58811 0.11784 0.44225
 C1042 C 0.59420 0.09425 0.45600
 C1043 C 0.57894 0.07639 0.46603
 C1044 C 0.55716 0.08174 0.46302
 C1045 C 0.55086 0.10592 0.45107
 C1046 C 0.56625 0.12379 0.44049
 H1047 H 0.67788 0.15211 0.39512
 H1048 H 0.70509 0.17284 0.36280
 H1049 H 0.65781 0.22467 0.32537
 H1050 H 0.63052 0.20417 0.35797
 H1051 H 0.61082 0.08902 0.45800
 H1052 H 0.58422 0.05803 0.47561
 H1053 H 0.53413 0.11046 0.44862
 H1054 H 0.56104 0.14189 0.43021
 C1055 C 0.66294 0.64512 -0.14803
 C1056 C 0.66800 0.66918 -0.13479
 C1057 C 0.68199 0.68634 -0.14994
 C1058 C 0.69176 0.67963 -0.17847
 C1059 C 0.68699 0.65497 -0.19102
 C1060 C 0.67262 0.63817 -0.17621
 C1061 C 0.64716 0.62761 -0.13309
 N1062 N 0.63547 0.61098 -0.15044
 N1063 N 0.62080 0.59569 -0.13726
 C1064 C 0.61739 0.59619 -0.10613
 N1065 N 0.62921 0.61265 -0.08871
 N1066 N 0.64374 0.62816 -0.10194
 C1067 C 0.60067 0.57977 -0.09167
 C1068 C 0.60227 0.57177 -0.06059
 C1069 C 0.58607 0.55696 -0.04668
 C1070 C 0.56773 0.55047 -0.06336
 C1071 C 0.56617 0.55832 -0.09448
 C1072 C 0.58261 0.57254 -0.10862
 H1073 H 0.66080 0.67501 -0.11299
 H1074 H 0.68553 0.70455 -0.13861
 H1075 H 0.69337 0.64894 -0.21324
 H1076 H 0.66900 0.61971 -0.18695
 H1077 H 0.61604 0.57699 -0.04702
 H1078 H 0.58755 0.55132 -0.02258
 H1079 H 0.55219 0.55353 -0.10784
 H1080 H 0.58092 0.57857 -0.13257
 C1081 C 0.83671 -0.14125 -0.15748
 C1082 C 0.84153 -0.15379 -0.18562
 C1083 C 0.82614 -0.16856 -0.20079
 C1084 C 0.80553 -0.17130 -0.18823
 C1085 C 0.80064 -0.15879 -0.16012
 C1086 C 0.81603 -0.14385 -0.14497
 C1087 C 0.85333 -0.12593 -0.14130
 N1088 N 0.84858 -0.11179 -0.11556
 N1089 N 0.86365 -0.09828 -0.10108
 C1090 C 0.88412 -0.09837 -0.11167
 N1091 N 0.88881 -0.11250 -0.13738
 N1092 N 0.87377 -0.12594 -0.15187
 C1093 C 0.90112 -0.08365 -0.09555
 C1094 C 0.92250 -0.08645 -0.10486
 C1095 C 0.93868 -0.07298 -0.08979
 C1096 C 0.93398 -0.05615 -0.06504
 C1097 C 0.91258 -0.05315 -0.05576
 C1098 C 0.89634 -0.06681 -0.07079
 H1099 H 0.85727 -0.15230 -0.19596
 H1100 H 0.83053 -0.17827 -0.22215
 H1101 H 0.78485 -0.16038 -0.14997
 H1102 H 0.81175 -0.13449 -0.12335
 H1103 H 0.92685 -0.09924 -0.12375
 H1104 H 0.95494 -0.07575 -0.09769
 H1105 H 0.90838 -0.04037 -0.03676
 H1106 H 0.88005 -0.06414 -0.06302
 C1107 C 0.84065 0.35554 0.34717
 C1108 C 0.84703 0.33848 0.32345
 C1109 C 0.83217 0.32288 0.30851
 C1110 C 0.81052 0.32392 0.31683
 C1111 C 0.80407 0.34094 0.34055
 C1112 C 0.81898 0.35663 0.35555
 C1113 C 0.85670 0.37179 0.36303
 N1114 N 0.85104 0.38855 0.38598
 N1115 N 0.86570 0.40288 0.40021
 C1116 C 0.88661 0.40100 0.39208
 N1117 N 0.89218 0.38429 0.36913
 N1118 N 0.87757 0.37002 0.35493
 C1119 C 0.90318 0.41651 0.40783
 C1120 C 0.92470 0.41307 0.39968
 C1121 C 0.94058 0.42725 0.41431
 C1122 C 0.93544 0.44536 0.43750
 C1123 C 0.91391 0.44900 0.44567
 C1124 C 0.89793 0.43465 0.43100
 H1125 H 0.86359 0.33701 0.31644
 H1126 H 0.83772 0.30965 0.29073
 H1127 H 0.78745 0.34233 0.34729
 H1128 H 0.81352 0.36955 0.37370
 H1129 H 0.92940 0.39930 0.38198
 H1130 H 0.95695 0.42395 0.40729
 H1131 H 0.90942 0.46280 0.46345
 H1132 H 0.88150 0.43777 0.43782
 C1133 C 0.36174 -0.16103 0.34713
 C1134 C 0.35321 -0.18348 0.36098
 C1135 C 0.33482 -0.19517 0.34930
 C1136 C 0.32409 -0.18476 0.32322
 C1137 C 0.33271 -0.16164 0.31009
 C1138 C 0.35116 -0.15018 0.32172
 C1139 C 0.38147 -0.14879 0.35910
 N1140 N 0.39080 -0.12871 0.34356
 N1141 N 0.40813 -0.11716 0.35456
 C1142 C 0.41697 -0.12519 0.38157
 N1143 N 0.40777 -0.14544 0.39701
 N1144 N 0.39043 -0.15705 0.38596
 C1145 C 0.43519 -0.11069 0.39493
 C1146 C 0.44273 -0.11646 0.42481
 C1147 C 0.45756 -0.10012 0.43909
 C1148 C 0.46505 -0.07767 0.42379
 C1149 C 0.45875 -0.07308 0.39309
 C1150 C 0.44406 -0.08940 0.37882
 H1151 H 0.36076 -0.19216 0.38096
 H1152 H 0.32885 -0.21183 0.36198
 H1153 H 0.32627 -0.15279 0.28948
 H1154 H 0.35727 -0.13283 0.31042
 H1155 H 0.43636 -0.13281 0.43782
 H1156 H 0.46198 -0.10407 0.46286
 H1157 H 0.46434 -0.05602 0.38062
 H1158 H 0.43890 -0.08454 0.35564
 C1159 C 0.33743 0.35471 -0.14472
 C1160 C 0.32068 0.34294 -0.12789
 C1161 C 0.30591 0.32704 -0.14292
 C1162 C 0.30751 0.32294 -0.17505
 C1163 C 0.32414 0.33488 -0.19180
 C1164 C 0.33894 0.35050 -0.17684
 C1165 C 0.35366 0.37082 -0.12914
 N1166 N 0.37199 0.37717 -0.14428
 N1167 N 0.38690 0.39124 -0.13048
 C1168 C 0.38411 0.39970 -0.10096
 N1169 N 0.36570 0.39353 -0.08578
 N1170 N 0.35078 0.37930 -0.09958
 C1171 C 0.40112 0.41481 -0.08577
 C1172 C 0.39714 0.42896 -0.05849
 C1173 C 0.41352 0.44310 -0.04450
 C1174 C 0.43419 0.44297 -0.05732
 C1175 C 0.43808 0.42881 -0.08455
 C1176 C 0.42174 0.41504 -0.09868
 H1177 H 0.31913 0.34574 -0.10310
 H1178 H 0.29315 0.31814 -0.12953
 H1179 H 0.32592 0.33177 -0.21652
 H1180 H 0.35162 0.35925 -0.19054
 H1181 H 0.38139 0.42920 -0.04807
 H1182 H 0.41008 0.45382 -0.02348
 H1183 H 0.45379 0.42844 -0.09510
 H1184 H 0.42540 0.40428 -0.11958
 C1185 C 1.16302 -0.14573 0.14601
 C1186 C 1.18287 -0.13527 0.15429
 C1187 C 1.19779 -0.15049 0.17009
 C1188 C 1.19322 -0.17654 0.17782
 C1189 C 1.17364 -0.18714 0.16856
 C1190 C 1.15874 -0.17194 0.15302
 C1191 C 1.14648 -0.12947 0.13103
 N1192 N 1.12614 -0.13826 0.12920
 N1193 N 1.11103 -0.12372 0.11649
 C1194 C 1.11556 -0.09973 0.10491
 N1195 N 1.13595 -0.09092 0.10655
 N1196 N 1.15108 -0.10546 0.11944
 C1197 C 1.09844 -0.08374 0.09098
 C1198 C 1.10311 -0.06160 0.07287
 C1199 C 1.08670 -0.04731 0.05904
 C1200 C 1.06528 -0.05471 0.06335
 C1201 C 1.06070 -0.07653 0.08198
 C1202 C 1.07702 -0.09088 0.09548
 H1203 H 1.18668 -0.11514 0.14927
 H1204 H 1.21264 -0.14164 0.17703
 H1205 H 1.16977 -0.20728 0.17341
 H1206 H 1.14375 -0.18078 0.14663
 H1207 H 1.11945 -0.05556 0.06896
 H1208 H 1.09081 -0.03058 0.04485
 H1209 H 1.04443 -0.08291 0.08580
 H1210 H 1.07278 -0.10768 0.10944
 C1211 C 1.15846 0.35487 0.65179
 C1212 C 1.15165 0.33657 0.67409
 C1213 C 1.16618 0.31985 0.68806
 C1214 C 1.18792 0.32104 0.68022
 C1215 C 1.19475 0.33914 0.65768
 C1216 C 1.18017 0.35587 0.64360
 C1217 C 1.14289 0.37275 0.63743
 N1218 N 1.14866 0.38905 0.61391
 N1219 N 1.13443 0.40486 0.60099
 C1220 C 1.11388 0.40505 0.61115
 N1221 N 1.10820 0.38883 0.63473
 N1222 N 1.12237 0.37304 0.64758
 C1223 C 1.09770 0.42190 0.59645
 C1224 C 1.07672 0.42203 0.60807
 C1225 C 1.06097 0.43645 0.59342
 C1226 C 1.06573 0.45122 0.56676
 C1227 C 1.08685 0.45184 0.55561
 C1228 C 1.10268 0.43728 0.57031
 H1229 H 1.13503 0.33507 0.68080
 H1230 H 1.16033 0.30582 0.70490
 H1231 H 1.21143 0.34073 0.65138
 H1232 H 1.18596 0.36975 0.62655
 H1233 H 1.07229 0.41062 0.62828
 H1234 H 1.04492 0.43567 0.60281
 H1235 H 1.09102 0.46298 0.53507
 H1236 H 1.11870 0.43767 0.56081
 C1237 C 0.63205 -0.16776 0.65436
 C1238 C 0.64090 -0.15911 0.68236
 C1239 C 0.65926 -0.17065 0.69416
 C1240 C 0.66917 -0.19128 0.67844
 C1241 C 0.66032 -0.20007 0.65054
 C1242 C 0.64205 -0.18833 0.63851
 C1243 C 0.61277 -0.15498 0.64168
 N1244 N 0.60532 -0.16111 0.61311
 N1245 N 0.58859 -0.14871 0.60134
 C1246 C 0.57852 -0.12972 0.61768
 N1247 N 0.58581 -0.12389 0.64639
 N1248 N 0.60252 -0.13625 0.65812
 C1249 C 0.56107 -0.11420 0.60372
 C1250 C 0.55216 -0.09323 0.62012
 C1251 C 0.53809 -0.07616 0.60569
 C1252 C 0.53242 -0.07970 0.57457
 C1253 C 0.54005 -0.10171 0.55877
 C1254 C 0.55430 -0.11875 0.57318
 H1255 H 0.63372 -0.14330 0.69521
 H1256 H 0.66552 -0.16368 0.71592
 H1257 H 0.66769 -0.21587 0.63786
 H1258 H 0.63578 -0.19540 0.61680
 H1259 H 0.55680 -0.08919 0.64372
 H1260 H 0.53240 -0.05944 0.61851
 H1261 H 0.53614 -0.10480 0.53466
 H1262 H 0.56075 -0.13479 0.55992
 C1263 C 0.66468 0.34565 0.12948
 C1264 C 0.65984 0.31916 0.13347
 C1265 C 0.67409 0.30260 0.14825
 C1266 C 0.69345 0.31216 0.15965
 C1267 C 0.69879 0.33837 0.15425
 C1268 C 0.68456 0.35495 0.13922
 C1269 C 0.64839 0.36358 0.11724
 N1270 N 0.65353 0.38802 0.10762
 N1271 N 0.63849 0.40434 0.09795
 C1272 C 0.61770 0.39692 0.09787
 N1273 N 0.61264 0.37250 0.10744
 N1274 N 0.62764 0.35618 0.11688
 C1275 C 0.60074 0.41479 0.08762
 C1276 C 0.57949 0.40964 0.09598
 C1277 C 0.56310 0.42523 0.08496
 C1278 C 0.56751 0.44627 0.06501
 C1279 C 0.58885 0.45202 0.05742
 C1280 C 0.60534 0.43649 0.06878
 H1281 H 0.64479 0.31129 0.12579
 H1282 H 0.66973 0.28237 0.15136
 H1283 H 0.71352 0.34638 0.16292
 H1284 H 0.68874 0.37527 0.13647
 H1285 H 0.57545 0.39329 0.11082
 H1286 H 0.54688 0.42019 0.09137
 H1287 H 0.59278 0.46811 0.04212
 H1288 H 0.62160 0.44097 0.06205
 C1289 C 0.83281 0.13351 0.15458
 C1290 C 0.81705 0.14687 0.13800
 C1291 C 0.80299 0.16371 0.15330
 C1292 C 0.80432 0.16745 0.18552
 C1293 C 0.81959 0.15333 0.20217
 C1294 C 0.83369 0.13666 0.18690
 C1295 C 0.84894 0.11734 0.13835
 N1296 N 0.86664 0.10939 0.15347
 N1297 N 0.88174 0.09595 0.13881
 C1298 C 0.87979 0.08976 0.10840
 N1299 N 0.86198 0.09744 0.09327
 N1300 N 0.84689 0.11102 0.10794
 C1301 C 0.89720 0.07579 0.09208
 C1302 C 0.89396 0.06388 0.06318
 C1303 C 0.91074 0.05111 0.04794
 C1304 C 0.93113 0.05044 0.06110
 C1305 C 0.93428 0.06232 0.08995
 C1306 C 0.91752 0.07468 0.10532
 H1307 H 0.81597 0.14492 0.11308
 H1308 H 0.79153 0.17444 0.13974
 H1309 H 0.82075 0.15527 0.22708
 H1310 H 0.84545 0.12645 0.20048
 H1311 H 0.87846 0.06438 0.05242
 H1312 H 0.90787 0.04214 0.02569
 H1313 H 0.94974 0.06196 0.10083
 H1314 H 0.92063 0.08373 0.12745
 C1315 C 0.83482 0.64937 0.64064
 C1316 C 0.83509 0.65328 0.67286
 C1317 C 0.82067 0.67017 0.68704
 C1318 C 0.80569 0.68391 0.66940
 C1319 C 0.80508 0.67964 0.63721
 C1320 C 0.81947 0.66250 0.62298
 C1321 C 0.85097 0.63232 0.62578
 N1322 N 0.84913 0.62456 0.59581
 N1323 N 0.86410 0.60981 0.58255
 C1324 C 0.88156 0.60236 0.59867
 N1325 N 0.88330 0.61004 0.62862
 N1326 N 0.86833 0.62462 0.64189
 C1327 C 0.89882 0.58692 0.58394
 C1328 C 0.91893 0.58581 0.59785
 C1329 C 0.93552 0.57189 0.58413
 C1330 C 0.93243 0.55839 0.55628
 C1331 C 0.91225 0.55908 0.54246
 C1332 C 0.89563 0.57342 0.55603
 H1333 H 0.84651 0.64328 0.68726
 H1334 H 0.82122 0.67237 0.71198
 H1335 H 0.79383 0.69000 0.62289
 H1336 H 0.81886 0.65999 0.59809
 H1337 H 0.92200 0.59604 0.61925
 H1338 H 0.95082 0.57162 0.59550
 H1339 H 0.90941 0.54891 0.52096
 H1340 H 0.88030 0.57385 0.54477
 C1341 C 0.34908 0.17635 0.62233
 C1342 C 0.32911 0.16460 0.62747
 C1343 C 0.31380 0.17650 0.64627
 C1344 C 0.31793 0.20061 0.66018
 C1345 C 0.33778 0.21262 0.65457
 C1346 C 0.35322 0.20056 0.63598
 C1347 C 0.36557 0.16282 0.60364
 N1348 N 0.38632 0.17041 0.60411
 N1349 N 0.40122 0.15701 0.58877
 C1350 C 0.39591 0.13555 0.57222
 N1351 N 0.37512 0.12832 0.57140
 N1352 N 0.36030 0.14162 0.58674
 C1353 C 0.41237 0.11895 0.55738
 C1354 C 0.40611 0.09611 0.54218
 C1355 C 0.42122 0.07835 0.53181
 C1356 C 0.44301 0.08300 0.53600
 C1357 C 0.44954 0.10656 0.54921
 C1358 C 0.43429 0.12438 0.56004
 H1359 H 0.32543 0.14585 0.61753
 H1360 H 0.29889 0.16643 0.65049
 H1361 H 0.34139 0.23141 0.66446
 H1362 H 0.36839 0.21019 0.63232
 H1363 H 0.38945 0.09136 0.53929
 H1364 H 0.41578 0.06052 0.52116
 H1365 H 0.46629 0.11056 0.55256
 H1366 H 0.43964 0.14190 0.57145
 C1367 C 0.33887 0.64684 0.14993
 C1368 C 0.34228 0.65532 0.18042
 C1369 C 0.32855 0.67310 0.19434
 C1370 C 0.31103 0.68303 0.17819
 C1371 C 0.30716 0.67408 0.14800
 C1372 C 0.32099 0.65616 0.13396
 C1373 C 0.35446 0.62910 0.13499
 N1374 N 0.35106 0.61891 0.10641
 N1375 N 0.36562 0.60369 0.09295
 C1376 C 0.38419 0.59814 0.10751
 N1377 N 0.38745 0.60822 0.13610
 N1378 N 0.37292 0.62331 0.14953
 C1379 C 0.40101 0.58230 0.09242
 C1380 C 0.42161 0.58200 0.10482
 C1381 C 0.43788 0.56797 0.09050
 C1382 C 0.43397 0.55359 0.06353
 C1383 C 0.41329 0.55336 0.05135
 C1384 C 0.39698 0.56776 0.06554
 H1385 H 0.35572 0.64838 0.19361
 H1386 H 0.33165 0.67909 0.21792
 H1387 H 0.29377 0.68141 0.13500
 H1388 H 0.31790 0.65000 0.11046
 H1389 H 0.42534 0.59298 0.12544
 H1390 H 0.45358 0.56841 0.10066
 H1391 H 0.40980 0.54244 0.03060
 H1392 H 0.38125 0.56750 0.05549
   
