data_POSCAR
  _audit_creation_date              2014-09-24
  _audit_creation_method            'ToBaCCo'
  _symmetry_space_group_name_H-M    'P1'
  _symmetry_Int_Tables_number       1
  _symmetry_cell_setting            triclinic
  loop_
  _symmetry_equiv_pos_as_xyz
 x,y,z
_cell_length_a 72.4558
_cell_length_b 72.4560
_cell_length_c 72.4574
_cell_angle_alpha 89.998900
_cell_angle_beta 89.999900
_cell_angle_gamma 90.000400
loop_
  _atom_site_label
  _atom_site_type_symbol
  _atom_site_fract_x
  _atom_site_fract_y
  _atom_site_fract_z
N1 N 0.34468 0.34452 0.34454
 N2 N 0.34451 0.84478 -0.15549
 N3 N 0.84434 0.34456 -0.15541
 N4 N 0.84465 0.84433 0.34455
 N5 N 0.65554 0.65538 0.34452
 N6 N 0.65526 0.15531 -0.15548
 N7 N 0.15559 0.65565 -0.15542
 N8 N 0.15544 0.15548 0.34457
 N9 N 0.65540 0.34451 0.65550
 N10 N 0.65562 0.84434 1.15535
 N11 N 0.15527 0.34458 1.15566
 N12 N 0.15553 0.84476 0.65531
 N13 N 0.34440 0.65550 0.65537
 N14 N 0.34460 0.15564 1.15547
 N15 N 0.84469 0.65527 1.15533
 N16 N 0.84452 0.15538 0.65564
 N17 N 0.34449 0.34462 0.65546
 N18 N 0.34471 0.84468 0.15549
 N19 N 0.84442 0.34436 0.15542
 N20 N 0.84455 0.84450 0.65547
 N21 N 0.65529 0.65547 0.65543
 N22 N 0.65550 0.15522 0.15551
 N23 N 0.15565 0.65544 0.15539
 N24 N 0.15535 0.15568 0.65546
 N25 N 0.34462 0.65547 0.34452
 N26 N 0.34437 0.15566 0.84466
 N27 N 0.84472 0.65543 0.84433
 N28 N 0.84446 0.15524 0.34468
 N29 N 0.65560 0.34451 0.34464
 N30 N 0.65541 0.84436 0.84454
 N31 N 0.15532 0.34470 0.84466
 N32 N 0.15549 0.84462 0.34437
 O33 O 0.25188 1.01812 0.22648
 O34 O 0.22663 0.98212 0.25197
 O35 O 0.22661 1.01811 0.25198
 O36 O 0.25191 0.98214 0.22648
 O37 O 0.27356 0.98214 0.24795
 O38 O 0.24827 1.01811 0.27344
 O39 O 0.24828 0.98213 0.27343
 O40 O 0.27354 1.01813 0.24795
 Cu41 Cu 0.23708 1.00012 0.23707
 Cu42 Cu 0.26309 1.00013 0.26285
 C43 C 0.26697 1.02430 0.23292
 C44 C 0.23320 0.97595 0.26700
 C45 C 0.23318 1.02428 0.26701
 C46 C 0.26700 0.97597 0.23292
 O47 O 0.25153 0.51802 0.72631
 O48 O 0.22630 0.48204 0.75187
 O49 O 0.22623 0.51803 0.75177
 O50 O 0.25157 0.48203 0.72638
 O51 O 0.27321 0.48210 0.74786
 O52 O 0.24787 0.51812 0.77325
 O53 O 0.24794 0.48213 0.77335
 O54 O 0.27317 0.51809 0.74779
 Cu55 Cu 0.23673 0.50002 0.73692
 Cu56 Cu 0.26272 0.50012 0.76272
 C57 C 0.26661 0.52422 0.73275
 C58 C 0.23286 0.47592 0.76692
 C59 C 0.23277 0.52425 0.76679
 C60 C 0.26666 0.47589 0.73283
 O61 O 0.75186 -0.01823 0.27348
 O62 O 0.72661 0.01775 0.24796
 O63 O 0.72664 -0.01824 0.24794
 O64 O 0.75183 0.01775 0.27350
 O65 O 0.77353 0.01778 0.25208
 O66 O 0.74833 -0.01821 0.22652
 O67 O 0.74831 0.01778 0.22654
 O68 O 0.77356 -0.01821 0.25206
 Cu69 Cu 0.73705 -0.00024 0.26287
 Cu70 Cu 0.76311 -0.00021 0.23715
 C71 C 0.76696 -0.02439 0.26707
 C72 C 0.73321 0.02394 0.23294
 C73 C 0.73324 -0.02440 0.23292
 C74 C 0.76693 0.02394 0.26710
 O75 O 0.72669 0.51809 0.74786
 O76 O 0.75204 0.48210 0.77327
 O77 O 0.75213 0.51809 0.77318
 O78 O 0.72658 0.48210 0.74796
 O79 O 0.74808 0.48198 0.72634
 O80 O 0.77363 0.51798 0.75156
 O81 O 0.77354 0.48199 0.75164
 O82 O 0.74819 0.51797 0.72624
 Cu83 Cu 0.73720 0.50011 0.76274
 Cu84 Cu 0.76302 0.49997 0.73677
 C85 C 0.73316 0.52421 0.73276
 C86 C 0.76707 0.47587 0.76674
 C87 C 0.76719 0.52420 0.76662
 C88 C 0.73302 0.47587 0.73290
 O89 O 0.22639 0.51794 0.24833
 O90 O 0.25179 0.48195 0.27369
 O91 O 0.25175 0.51794 0.27373
 O92 O 0.22645 0.48195 0.24826
 O93 O 0.24804 0.48201 0.22673
 O94 O 0.27334 0.51800 0.25219
 O95 O 0.27338 0.48201 0.25215
 O96 O 0.24798 0.51800 0.22679
 Cu97 Cu 0.23693 0.49994 0.26316
 Cu98 Cu 0.26285 0.50001 0.23730
 C99 C 0.23290 0.52414 0.23328
 C100 C 0.26687 0.47581 0.26720
 C101 C 0.26681 0.52414 0.26725
 C102 C 0.23298 0.47581 0.23320
 O103 O 0.72657 0.98192 0.75203
 O104 O 0.75208 1.01792 0.72680
 O105 O 0.75204 0.98193 0.72673
 O106 O 0.72665 1.01791 0.75213
 O107 O 0.74816 1.01782 0.77375
 O108 O 0.77355 0.98185 0.74835
 O109 O 0.77359 1.01784 0.74841
 O110 O 0.74808 0.98183 0.77365
 Cu111 Cu 0.73718 0.99993 0.73725
 Cu112 Cu 0.76300 0.99983 0.76321
 C113 C 0.73303 0.97570 0.76710
 C114 C 0.76713 1.02406 0.73335
 C115 C 0.76708 0.97572 0.73326
 C116 C 0.73313 1.02404 0.76722
 O117 O 0.72657 0.48202 0.25187
 O118 O 0.75209 0.51799 0.22659
 O119 O 0.75194 0.48200 0.22647
 O120 O 0.72671 0.51801 0.25198
 O121 O 0.74827 0.51785 0.27353
 O122 O 0.77350 0.48184 0.24803
 O123 O 0.77366 0.51783 0.24815
 O124 O 0.74814 0.48187 0.27342
 Cu125 Cu 0.73716 0.50002 0.23706
 Cu126 Cu 0.76306 0.49983 0.26295
 C127 C 0.73305 0.47577 0.26691
 C128 C 0.76718 0.52408 0.23311
 C129 C 0.76697 0.47575 0.23295
 C130 C 0.73324 0.52410 0.26706
 O131 O 0.25188 -0.01786 0.77339
 O132 O 0.22637 0.01813 0.74814
 O133 O 0.22652 -0.01786 0.74798
 O134 O 0.25173 0.01813 0.77354
 O135 O 0.27331 0.01831 0.75200
 O136 O 0.24810 -0.01767 0.72644
 O137 O 0.24795 0.01832 0.72659
 O138 O 0.27346 -0.01768 0.75184
 Cu139 Cu 0.23696 0.00012 0.76293
 Cu140 Cu 0.26287 0.00034 0.73705
 C141 C 0.26697 -0.02394 0.76687
 C142 C 0.23286 0.02440 0.73311
 C143 C 0.23306 -0.02394 0.73290
 C144 C 0.26677 0.02439 0.76708
 O145 O 0.24784 0.27369 0.98215
 O146 O 0.27338 0.24844 1.01812
 O147 O 0.27336 0.24844 0.98213
 O148 O 0.24784 0.27367 1.01814
 O149 O 0.22640 0.25198 1.01814
 O150 O 0.25192 0.22676 0.98214
 O151 O 0.25194 0.22675 1.01813
 O152 O 0.22640 0.25200 0.98215
 Cu153 Cu 0.26276 0.26324 1.00014
 Cu154 Cu 0.23701 0.23720 1.00014
 C155 C 0.23282 0.26710 0.97598
 C156 C 0.26696 0.23334 1.02429
 C157 C 0.26694 0.23335 0.97596
 C158 C 0.23282 0.26708 1.02431
 O159 O 0.24800 0.77360 0.48186
 O160 O 0.27350 0.74836 0.51787
 O161 O 0.27352 0.74835 0.48188
 O162 O 0.24800 0.77362 0.51785
 O163 O 0.22655 0.75195 0.51786
 O164 O 0.25206 0.72668 0.48189
 O165 O 0.25205 0.72669 0.51787
 O166 O 0.22654 0.75192 0.48187
 Cu167 Cu 0.26291 0.76316 0.49986
 Cu168 Cu 0.23715 0.73713 0.49987
 C169 C 0.23297 0.76701 0.47569
 C170 C 0.26708 0.73327 0.52404
 C171 C 0.26709 0.73325 0.47571
 C172 C 0.23298 0.76705 0.52403
 O173 O 0.27375 0.75205 -0.01802
 O174 O 0.24855 0.72647 0.01797
 O175 O 0.24849 0.72654 -0.01801
 O176 O 0.27386 0.75193 0.01796
 O177 O 0.25222 0.77341 0.01808
 O178 O 0.22684 0.74802 -0.01792
 O179 O 0.22691 0.74795 0.01807
 O180 O 0.25210 0.77352 -0.01791
 Cu181 Cu 0.26334 0.73709 -0.00004
 Cu182 Cu 0.23734 0.76288 0.00009
 C183 C 0.26717 0.76710 -0.02414
 C184 C 0.23348 0.73290 0.02419
 C185 C 0.23339 0.73300 -0.02414
 C186 C 0.26732 0.76695 0.02420
 O187 O 0.27361 0.25178 0.48196
 O188 O 0.24820 0.22644 0.51794
 O189 O 0.24813 0.22650 0.48195
 O190 O 0.27363 0.25177 0.51795
 O191 O 0.25213 0.27339 0.51799
 O192 O 0.22663 0.24813 0.48201
 O193 O 0.22670 0.24806 0.51800
 O194 O 0.25212 0.27341 0.48200
 Cu195 Cu 0.26305 0.23695 0.49995
 Cu196 Cu 0.23724 0.26292 0.50001
 C197 C 0.26716 0.26687 0.47581
 C198 C 0.23317 0.23297 0.52414
 C199 C 0.23308 0.23306 0.47581
 C200 C 0.26718 0.26684 0.52414
 O201 O 0.74811 0.77312 0.98193
 O202 O 0.77339 0.74761 1.01789
 O203 O 0.77343 0.74767 0.98190
 O204 O 0.74805 0.77303 1.01792
 O205 O 0.72644 0.75151 1.01784
 O206 O 0.75182 0.72615 0.98184
 O207 O 0.75179 0.72609 1.01782
 O208 O 0.72650 0.75160 0.98185
 Cu209 Cu 0.76291 0.76252 0.99992
 Cu210 Cu 0.73697 0.73668 0.99983
 C211 C 0.73304 0.76666 0.97572
 C212 C 0.76686 0.73255 1.02403
 C213 C 0.76690 0.73264 0.97569
 C214 C 0.73296 0.76654 1.02405
 O215 O 0.77357 0.24799 0.51818
 O216 O 0.74835 0.27353 0.48217
 O217 O 0.74829 0.27348 0.51816
 O218 O 0.77366 0.24808 0.48219
 O219 O 0.75203 0.22659 0.48209
 O220 O 0.72665 0.25199 0.51808
 O221 O 0.72672 0.25204 0.48209
 O222 O 0.75193 0.22651 0.51809
 Cu223 Cu 0.76314 0.26293 0.50018
 Cu224 Cu 0.73716 0.23712 0.50008
 C225 C 0.76700 0.23294 0.52431
 C226 C 0.73328 0.26709 0.47596
 C227 C 0.73319 0.26702 0.52429
 C228 C 0.76713 0.23305 0.47597
 O229 O 0.75168 0.27344 0.01802
 O230 O 0.72615 0.24820 -0.01798
 O231 O 0.72622 0.24814 0.01801
 O232 O 0.75157 0.27354 -0.01797
 O233 O 0.77309 0.25193 -0.01808
 O234 O 0.74773 0.22652 0.01792
 O235 O 0.74767 0.22658 -0.01807
 O236 O 0.77319 0.25183 0.01791
 Cu237 Cu 0.73674 0.26300 0.00003
 Cu238 Cu 0.76258 0.23704 -0.00009
 C239 C 0.76674 0.26688 0.02414
 C240 C 0.73261 0.23313 -0.02420
 C241 C 0.73269 0.23305 0.02414
 C242 C 0.76660 0.26702 -0.02420
 O243 O 0.77339 0.75183 0.48209
 O244 O 0.74781 0.72664 0.51807
 O245 O 0.74788 0.72658 0.48208
 O246 O 0.77328 0.75194 0.51808
 O247 O 0.75181 0.77359 0.51797
 O248 O 0.72641 0.74823 0.48198
 O249 O 0.72634 0.74829 0.51797
 O250 O 0.75192 0.77348 0.48198
 Cu251 Cu 0.76275 0.73707 0.50009
 Cu252 Cu 0.73696 0.76307 0.49997
 C253 C 0.76697 0.76690 0.47587
 C254 C 0.73276 0.73321 0.52419
 C255 C 0.73286 0.73313 0.47586
 C256 C 0.76682 0.76704 0.52420
 O257 O 0.98186 0.25187 0.22662
 O258 O 1.01787 0.22641 0.25189
 O259 O 0.98188 0.22637 0.25189
 O260 O 1.01785 0.25192 0.22664
 O261 O 1.01781 0.27338 0.24830
 O262 O 0.98184 0.24783 0.27355
 O263 O 1.01783 0.24787 0.27356
 O264 O 0.98182 0.27333 0.24828
 Cu265 Cu 0.99987 0.23699 0.23708
 Cu266 Cu 0.99982 0.26276 0.26310
 C267 C 0.97567 0.26689 0.23319
 C268 C 1.02403 0.23285 0.26699
 C269 C 0.97569 0.23279 0.26697
 C270 C 1.02400 0.26696 0.23322
 O271 O 0.48186 0.25193 0.72645
 O272 O 0.51782 0.22635 0.75169
 O273 O 0.48184 0.22645 0.75174
 O274 O 0.51784 0.25180 0.72637
 O275 O 0.51796 0.27330 0.74800
 O276 O 0.48193 0.24794 0.77337
 O277 O 0.51792 0.24785 0.77332
 O278 O 0.48197 0.27342 0.74808
 Cu279 Cu 0.49983 0.23697 0.73689
 Cu280 Cu 0.49995 0.26278 0.76287
 C281 C 0.47574 0.26699 0.73302
 C282 C 0.52404 0.23279 0.76676
 C283 C 0.47571 0.23292 0.76683
 C284 C 0.52408 0.26682 0.73291
 O285 O -0.01816 0.27369 0.75197
 O286 O 0.01785 0.24846 0.72645
 O287 O -0.01813 0.24839 0.72651
 O288 O 0.01783 0.27379 0.75189
 O289 O 0.01793 0.25217 0.77339
 O290 O -0.01805 0.22677 0.74801
 O291 O 0.01794 0.22684 0.74796
 O292 O -0.01806 0.25207 0.77347
 Cu293 Cu -0.00016 0.26325 0.73704
 Cu294 Cu -0.00005 0.23729 0.76287
 C295 C -0.02428 0.26713 0.76703
 C296 C 0.02407 0.23340 0.73290
 C297 C -0.02426 0.23330 0.73298
 C298 C 0.02405 0.26727 0.76692
 O299 O 0.48223 0.27331 0.25205
 O300 O 0.51820 0.24777 0.22680
 O301 O 0.48221 0.24785 0.22674
 O302 O 0.51822 0.27320 0.25215
 O303 O 0.51811 0.25169 0.27376
 O304 O 0.48211 0.22634 0.24835
 O305 O 0.51810 0.22626 0.24842
 O306 O 0.48212 0.25180 0.27366
 Cu307 Cu 0.50023 0.26270 0.23726
 Cu308 Cu 0.50010 0.23686 0.26322
 C309 C 0.47600 0.26686 0.26711
 C310 C 0.52432 0.23271 0.23335
 C311 C 0.47599 0.23282 0.23327
 C312 C 0.52434 0.26671 0.26724
 O313 O 1.01810 0.77382 0.74816
 O314 O 0.98214 0.74841 0.77354
 O315 O 1.01812 0.74848 0.77359
 O316 O 0.98211 0.77372 0.74808
 O317 O 0.98221 0.75210 0.72657
 O318 O 1.01821 0.72687 0.75208
 O319 O 0.98222 0.72680 0.75203
 O320 O 1.01820 0.75221 0.72665
 Cu321 Cu 1.00011 0.76328 0.76300
 Cu322 Cu 1.00022 0.73732 0.73717
 C323 C 1.02432 0.76730 0.73313
 C324 C 0.97601 0.73332 0.76707
 C325 C 1.02434 0.73342 0.76713
 C326 C 0.97598 0.76716 0.73302
 O327 O 0.48210 0.75200 0.22650
 O328 O 0.51809 0.72645 0.25174
 O329 O 0.48210 0.72647 0.25174
 O330 O 0.51809 0.75196 0.22648
 O331 O 0.51812 0.77341 0.24816
 O332 O 0.48212 0.74791 0.27342
 O333 O 0.51811 0.74790 0.27341
 O334 O 0.48213 0.77344 0.24818
 Cu335 Cu 0.50009 0.73707 0.23694
 Cu336 Cu 0.50012 0.76282 0.26297
 C337 C 0.47595 0.76703 0.23309
 C338 C 0.52427 0.73287 0.26683
 C339 C 0.47593 0.73289 0.26683
 C340 C 0.52428 0.76698 0.23306
 O341 O -0.01792 0.77370 0.25145
 O342 O 0.01809 0.74837 0.22604
 O343 O -0.01790 0.74834 0.22605
 O344 O 0.01807 0.77375 0.25143
 O345 O 0.01811 0.75218 0.27298
 O346 O -0.01787 0.72677 0.24760
 O347 O 0.01812 0.72680 0.24759
 O348 O -0.01788 0.75213 0.27300
 Cu349 Cu 0.00008 0.76321 0.23658
 Cu350 Cu 0.00012 0.73730 0.26246
 C351 C -0.02408 0.76718 0.26651
 C352 C 0.02428 0.73332 0.23253
 C353 C -0.02405 0.73327 0.23254
 C354 C 0.02426 0.76725 0.26648
 O355 O 0.48187 0.77319 0.75217
 O356 O 0.51784 0.74775 0.72682
 O357 O 0.48184 0.74778 0.72682
 O358 O 0.51786 0.77315 0.75218
 O359 O 0.51783 0.75161 0.77376
 O360 O 0.48183 0.72624 0.74840
 O361 O 0.51781 0.72621 0.74840
 O362 O 0.48185 0.75165 0.77375
 Cu363 Cu 0.49985 0.76263 0.73733
 Cu364 Cu 0.49983 0.73676 0.76325
 C365 C 0.47569 0.76671 0.76724
 C366 C 0.52399 0.73269 0.73333
 C367 C 0.47566 0.73273 0.73334
 C368 C 0.52403 0.76666 0.76725
 N369 N 0.38740 0.31829 0.33815
 C370 C 0.39047 0.32040 0.31982
 N371 N 0.37853 0.33063 0.30970
 N372 N 0.36393 0.33848 0.31765
 C373 C 0.36073 0.33637 0.33602
 N374 N 0.37280 0.32614 0.34611
 C375 C 0.40591 0.31155 0.31113
 C376 C 0.41871 0.30397 0.30368
 C377 C 0.43373 0.29477 0.29462
 N378 N 0.44081 0.30162 0.27872
 N379 N 0.45442 0.29281 0.27003
 C380 C 0.46138 0.27684 0.27695
 N381 N 0.45428 0.27004 0.29291
 N382 N 0.44067 0.27886 0.30160
 N383 N 0.37825 0.80982 0.83065
 C384 C 0.39023 0.81989 0.82041
 N385 N 0.38720 0.83823 0.81826
 N386 N 0.37262 0.84624 0.82610
 C387 C 0.36053 0.83620 0.83635
 N388 N 0.36367 0.81782 0.83848
 C389 C 0.40565 0.81114 0.81160
 C390 C 0.41844 0.80362 0.80406
 C391 C 0.43345 0.79448 0.79494
 N392 N 0.44046 0.80138 0.77902
 N393 N 0.45406 0.79261 0.77027
 C394 C 0.46107 0.77664 0.77714
 N395 N 0.45404 0.76980 0.79311
 N396 N 0.44045 0.77857 0.80186
 N397 N -0.11290 0.33817 0.81841
 C398 C -0.10984 0.31984 0.82051
 N399 N -0.12181 0.30971 0.83071
 N400 N -0.13642 0.31766 0.83854
 C401 C -0.13960 0.33604 0.83645
 N402 N -0.12751 0.34613 0.82625
 C403 C -0.09440 0.31115 0.81167
 C404 C -0.08160 0.30369 0.80410
 C405 C -0.06657 0.29464 0.79491
 N406 N -0.05949 0.27873 0.80176
 N407 N -0.04589 0.27004 0.79295
 C408 C -0.03892 0.27697 0.77699
 N409 N -0.04601 0.29293 0.77019
 N410 N -0.05962 0.30162 0.77900
 N411 N -0.12160 0.83052 0.30959
 C412 C -0.10962 0.82027 0.31966
 N413 N -0.11265 0.81810 0.33799
 N414 N -0.12724 0.82593 0.34600
 C415 C -0.13933 0.83618 0.33597
 N416 N -0.13618 0.83834 0.31760
 C417 C -0.09419 0.81148 0.31090
 C418 C -0.08139 0.80395 0.30339
 C419 C -0.06637 0.79484 0.29425
 N420 N -0.05934 0.77893 0.30116
 N421 N -0.04573 0.77019 0.29239
 C422 C -0.03871 0.77707 0.27643
 N423 N -0.04576 0.79303 0.26958
 N424 N -0.05937 0.80177 0.27834
 N425 N 0.61281 0.68158 0.33801
 C426 C 0.60978 0.67943 0.31968
 N427 N 0.62176 0.66921 0.30959
 N428 N 0.63635 0.66138 0.31758
 C429 C 0.63951 0.66351 0.33596
 N430 N 0.62741 0.67375 0.34601
 C431 C 0.59435 0.68825 0.31095
 C432 C 0.58156 0.69582 0.30346
 C433 C 0.56654 0.70499 0.29439
 N434 N 0.55952 0.69817 0.27844
 N435 N 0.54592 0.70697 0.26973
 C436 C 0.53889 0.72290 0.27668
 N437 N 0.54593 0.72967 0.29268
 N438 N 0.55953 0.72087 0.30138
 N439 N 0.61251 0.18146 0.83798
 C440 C 0.60950 0.17932 0.81964
 N441 N 0.62149 0.16911 0.80956
 N442 N 0.63609 0.16130 0.81757
 C443 C 0.63922 0.16343 0.83594
 N444 N 0.62711 0.17364 0.84599
 C445 C 0.59407 0.18814 0.81090
 C446 C 0.58129 0.19570 0.80341
 C447 C 0.56628 0.20489 0.79433
 N448 N 0.55923 0.19804 0.77840
 N449 N 0.54564 0.20685 0.76969
 C450 C 0.53865 0.22281 0.77661
 N451 N 0.54572 0.22961 0.79259
 N452 N 0.55931 0.22079 0.80130
 N453 N 1.11286 0.66218 0.81839
 C454 C 1.10984 0.68052 0.82053
 N455 N 1.12183 0.69060 0.83075
 N456 N 1.13642 0.68260 0.83857
 C457 C 1.13956 0.66422 0.83645
 N458 N 1.12745 0.65417 0.82622
 C459 C 1.09442 0.68926 0.81171
 C460 C 1.08163 0.69675 0.80415
 C461 C 1.06661 0.70584 0.79498
 N462 N 1.05956 0.72176 0.80184
 N463 N 1.04596 0.73047 0.79305
 C464 C 1.03897 0.72356 0.77709
 N465 N 1.04603 0.70759 0.77028
 N466 N 1.05963 0.69888 0.77908
 N467 N 1.12159 0.16931 0.30970
 C468 C 1.10963 0.17954 0.31981
 N469 N 1.11270 0.18167 0.33814
 N470 N 1.12731 0.17385 0.34611
 C471 C 1.13939 0.16362 0.33603
 N472 N 1.13620 0.16149 0.31766
 C473 C 1.09418 0.18835 0.31110
 C474 C 1.08138 0.19590 0.30363
 C475 C 1.06634 0.20505 0.29456
 N476 N 1.05931 0.22092 0.30155
 N477 N 1.04569 0.22970 0.29284
 C478 C 1.03867 0.22291 0.27685
 N479 N 1.04572 0.20699 0.26991
 N480 N 1.05933 0.19821 0.27862
 N481 N 0.61269 0.33808 0.68173
 C482 C 0.60964 0.31974 0.67962
 N483 N 0.62160 0.30963 0.66941
 N484 N 0.63620 0.31760 0.66156
 C485 C 0.63937 0.33597 0.66366
 N486 N 0.62728 0.34605 0.67388
 C487 C 0.59420 0.31104 0.68845
 C488 C 0.58140 0.30356 0.69601
 C489 C 0.56638 0.29446 0.70516
 N490 N 0.55928 0.27860 0.69822
 N491 N 0.54567 0.26987 0.70699
 C492 C 0.53872 0.27671 0.72299
 N493 N 0.54582 0.29263 0.72988
 N494 N 0.55943 0.30136 0.72111
 N495 N 0.62182 0.83054 0.19027
 C496 C 0.60984 0.82031 0.18018
 N497 N 0.61288 0.81816 0.16185
 N498 N 0.62748 0.82598 0.15385
 C499 C 0.63958 0.83621 0.16391
 N500 N 0.63642 0.83835 0.18228
 C501 C 0.59440 0.81150 0.18891
 C502 C 0.58160 0.80396 0.19639
 C503 C 0.56658 0.79480 0.20548
 N504 N 0.55954 0.77893 0.19848
 N505 N 0.54593 0.77015 0.20720
 C506 C 0.53892 0.77693 0.22320
 N507 N 0.54597 0.79285 0.23014
 N508 N 0.55958 0.80163 0.22143
 N509 N 1.12147 0.33068 0.19054
 C510 C 1.10950 0.32047 0.18043
 N511 N 1.11255 0.31836 0.16209
 N512 N 1.12714 0.32621 0.15412
 C513 C 1.13923 0.33643 0.16420
 N514 N 1.13606 0.33853 0.18257
 C515 C 1.09407 0.31163 0.18914
 C516 C 1.08128 0.30405 0.19660
 C517 C 1.06626 0.29486 0.20567
 N518 N 1.05927 0.27897 0.19868
 N519 N 1.04567 0.27016 0.20737
 C520 C 1.03862 0.27693 0.22337
 N521 N 1.04563 0.29287 0.23031
 N522 N 1.05922 0.30168 0.22161
 N523 N 1.12176 0.83088 0.69023
 C524 C 1.10979 0.82066 0.68013
 N525 N 1.11282 0.81853 0.66180
 N526 N 1.12741 0.82638 0.65380
 C527 C 1.13950 0.83661 0.66387
 N528 N 1.13635 0.83872 0.68224
 C529 C 1.09436 0.81182 0.68886
 C530 C 1.08158 0.80426 0.69635
 C531 C 1.06657 0.79509 0.70546
 N532 N 1.05963 0.77914 0.69856
 N533 N 1.04603 0.77036 0.70730
 C534 C 1.03894 0.77723 0.72323
 N535 N 1.04589 0.79324 0.73007
 N536 N 1.05949 0.80202 0.72133
 N537 N 0.38713 0.68167 0.66194
 C538 C 0.39014 0.67951 0.68028
 N539 N 0.37815 0.66928 0.69035
 N540 N 0.36356 0.66147 0.68233
 C541 C 0.36043 0.66362 0.66396
 N542 N 0.37254 0.67385 0.65392
 C543 C 0.40557 0.68832 0.68903
 C544 C 0.41836 0.69586 0.69654
 C545 C 0.43338 0.70500 0.70566
 N546 N 0.44039 0.69810 0.72157
 N547 N 0.45400 0.70686 0.73032
 C548 C 0.46103 0.72282 0.72344
 N549 N 0.45400 0.72966 0.70747
 N550 N 0.44039 0.72090 0.69872
 N551 N 0.38734 0.18183 0.16193
 C552 C 0.39040 0.17967 0.18026
 N553 N 0.37844 0.16944 0.19036
 N554 N 0.36383 0.16162 0.18238
 C555 C 0.36065 0.16376 0.16402
 N556 N 0.37273 0.17401 0.15395
 C557 C 0.40585 0.18848 0.18898
 C558 C 0.41865 0.19601 0.19647
 C559 C 0.43368 0.20513 0.20558
 N560 N 0.44067 0.19825 0.22151
 N561 N 0.45428 0.20699 0.23026
 C562 C 0.46135 0.22292 0.22336
 N563 N 0.45435 0.22976 0.20737
 N564 N 0.44074 0.22101 0.19863
 N565 N -0.12153 0.69024 0.16909
 C566 C -0.10955 0.68017 0.17934
 N567 N -0.11258 0.66184 0.18151
 N568 N -0.12717 0.65382 0.17370
 C569 C -0.13927 0.66386 0.16344
 N570 N -0.13612 0.68223 0.16128
 C571 C -0.09412 0.68892 0.18814
 C572 C -0.08133 0.69643 0.19568
 C573 C -0.06631 0.70555 0.20481
 N574 N -0.05930 0.69863 0.22072
 N575 N -0.04570 0.70739 0.22948
 C576 C -0.03868 0.72336 0.22263
 N577 N -0.04571 0.73023 0.20667
 N578 N -0.05931 0.72147 0.19791
 N579 N -0.11276 0.16189 0.68184
 C580 C -0.10974 0.18023 0.67971
 N581 N -0.12172 0.19032 0.66949
 N582 N -0.13631 0.18233 0.66166
 C583 C -0.13945 0.16395 0.66378
 N584 N -0.12735 0.15389 0.67400
 C585 C -0.09431 0.18897 0.68853
 C586 C -0.08153 0.19647 0.69608
 C587 C -0.06651 0.20559 0.70523
 N588 N -0.05953 0.22153 0.69836
 N589 N -0.04594 0.23028 0.70712
 C590 C -0.03888 0.22339 0.72306
 N591 N -0.04588 0.20739 0.72988
 N592 N -0.05947 0.19864 0.72111
 N593 N 0.33822 0.38722 0.31829
 C594 C 0.31989 0.39027 0.32042
 N595 N 0.30978 0.37831 0.33065
 N596 N 0.31776 0.36372 0.33849
 C597 C 0.33613 0.36055 0.33638
 N598 N 0.34621 0.37263 0.32614
 C599 C 0.31117 0.40571 0.31159
 C600 C 0.30368 0.41851 0.30405
 C601 C 0.29457 0.43353 0.29491
 N602 N 0.27864 0.44053 0.30181
 N603 N 0.26989 0.45413 0.29305
 C604 C 0.27677 0.46118 0.27710
 N605 N 0.29275 0.45416 0.27026
 N606 N 0.30150 0.44056 0.27902
 N607 N 0.33065 -0.12143 0.80960
 C608 C 0.32042 -0.10946 0.81970
 N609 N 0.31829 -0.11251 0.83803
 N610 N 0.32613 -0.12710 0.84602
 C611 C 0.33637 -0.13919 0.83595
 N612 N 0.33849 -0.13602 0.81758
 C613 C 0.31159 -0.09403 0.81098
 C614 C 0.30402 -0.08124 0.80350
 C615 C 0.29483 -0.06622 0.79443
 N616 N 0.27889 -0.05930 0.80136
 N617 N 0.27009 -0.04570 0.79266
 C618 C 0.27693 -0.03857 0.77673
 N619 N 0.29293 -0.04551 0.76985
 N620 N 0.30173 -0.05911 0.77855
 N621 N 0.83050 0.37837 0.80969
 C622 C 0.82025 0.39032 0.81978
 N623 N 0.81810 0.38726 0.83811
 N624 N 0.82593 0.37267 0.84610
 C625 C 0.83619 0.36060 0.83603
 N626 N 0.83833 0.36378 0.81767
 C627 C 0.81144 0.40576 0.81106
 C628 C 0.80390 0.41856 0.80356
 C629 C 0.79477 0.43358 0.79444
 N630 N 0.77889 0.44064 0.80139
 N631 N 0.77014 0.45425 0.79264
 C632 C 0.77697 0.46124 0.77665
 N633 N 0.79290 0.45417 0.76975
 N634 N 0.80165 0.44056 0.77850
 N635 N 0.83816 -0.11293 0.31838
 C636 C 0.81982 -0.10989 0.32051
 N637 N 0.80972 -0.12188 0.33072
 N638 N 0.81771 -0.13647 0.33854
 C639 C 0.83609 -0.13963 0.33643
 N640 N 0.84615 -0.12752 0.32621
 C641 C 0.81109 -0.09446 0.31168
 C642 C 0.80361 -0.08167 0.30412
 C643 C 0.79453 -0.06666 0.29494
 N644 N 0.77857 -0.05966 0.30176
 N645 N 0.76986 -0.04606 0.29296
 C646 C 0.77682 -0.03902 0.27704
 N647 N 0.79283 -0.04603 0.27028
 N648 N 0.80154 -0.05963 0.27908
 N649 N 0.33784 0.61275 0.68151
 C650 C 0.31950 0.60973 0.67934
 N651 N 0.30943 0.62171 0.66911
 N652 N 0.31744 0.63631 0.66131
 C653 C 0.33581 0.63946 0.66347
 N654 N 0.34585 0.62735 0.67371
 C655 C 0.31076 0.59430 0.68815
 C656 C 0.30326 0.58150 0.69570
 C657 C 0.29418 0.56649 0.70487
 N658 N 0.27825 0.55945 0.69803
 N659 N 0.26954 0.54585 0.70683
 C660 C 0.27647 0.53885 0.72278
 N661 N 0.29245 0.54590 0.72957
 N662 N 0.30116 0.55950 0.72077
 N663 N 0.33814 1.11289 0.18164
 C664 C 0.31980 1.10985 0.17952
 N665 N 0.30969 1.12184 0.16932
 N666 N 0.31767 1.13644 0.16150
 C667 C 0.33605 1.13959 0.16360
 N668 N 0.34612 1.12749 0.17381
 C669 C 0.31108 1.09442 0.18835
 C670 C 0.30361 1.08162 0.19591
 C671 C 0.29453 1.06660 0.20508
 N672 N 0.27859 1.05957 0.19824
 N673 N 0.26989 1.04596 0.20703
 C674 C 0.27682 1.03894 0.22296
 N675 N 0.29281 1.04598 0.22976
 N676 N 0.30152 1.05959 0.22096
 N677 N 0.81854 0.61253 0.16187
 C678 C 0.82067 0.60952 0.18021
 N679 N 0.83088 0.62151 0.19029
 N680 N 0.83870 0.63610 0.18228
 C681 C 0.83658 0.63923 0.16391
 N682 N 0.82636 0.62712 0.15386
 C683 C 0.81183 0.59410 0.18895
 C684 C 0.80426 0.58132 0.19644
 C685 C 0.79507 0.56631 0.20552
 N686 N 0.80195 0.55922 0.22141
 N687 N 0.79314 0.54563 0.23013
 C688 C 0.77715 0.53869 0.22325
 N689 N 0.77031 0.54580 0.20730
 N690 N 0.77913 0.55939 0.19859
 N691 N 0.83070 1.12159 0.69057
 C692 C 0.82048 1.10961 0.68048
 N693 N 0.81833 1.11265 0.66214
 N694 N 0.82615 1.12725 0.65415
 C695 C 0.83638 1.13934 0.66420
 N696 N 0.83852 1.13618 0.68257
 C697 C 0.81167 1.09417 0.68921
 C698 C 0.80412 1.08137 0.69669
 C699 C 0.79496 1.06635 0.70578
 N700 N 0.77906 1.05936 0.69881
 N701 N 0.77027 1.04575 0.70752
 C702 C 0.77708 1.03869 0.72349
 N703 N 0.79304 1.04569 0.73040
 N704 N 0.80182 1.05930 0.72169
 N705 N 0.66205 0.61265 0.31834
 C706 C 0.68038 0.60962 0.32047
 N707 N 0.69048 0.62160 0.33070
 N708 N 0.68248 0.63619 0.33852
 C709 C 0.66411 0.63935 0.33639
 N710 N 0.65405 0.62725 0.32616
 C711 C 0.68912 0.59419 0.31165
 C712 C 0.69660 0.58140 0.30409
 C713 C 0.70568 0.56638 0.29491
 N714 N 0.72157 0.55929 0.30180
 N715 N 0.73027 0.54569 0.29300
 C716 C 0.72338 0.53874 0.27701
 N717 N 0.70744 0.54584 0.27018
 N718 N 0.69874 0.55944 0.27898
 N719 N 0.69020 1.12152 0.83074
 C720 C 0.68012 1.10954 0.82051
 N721 N 0.66179 1.11257 0.81836
 N722 N 0.65378 1.12716 0.82618
 C723 C 0.66383 1.13927 0.83641
 N724 N 0.68221 1.13612 0.83855
 C725 C 0.68886 1.09411 0.81170
 C726 C 0.69635 1.08132 0.80414
 C727 C 0.70546 1.06630 0.79499
 N728 N 0.69856 1.05935 0.77904
 N729 N 0.70730 1.04575 0.77027
 C730 C 0.72323 1.03866 0.77715
 N731 N 0.73007 1.04562 0.79315
 N732 N 0.72133 1.05922 0.80192
 N733 N 0.18176 0.61290 0.83810
 C734 C 0.17961 0.60985 0.81977
 N735 N 0.16938 0.62182 0.80968
 N736 N 0.16157 0.63643 0.81766
 C737 C 0.16371 0.63960 0.83603
 N738 N 0.17394 0.62750 0.84609
 C739 C 0.18841 0.59440 0.81105
 C740 C 0.19595 0.58160 0.80356
 C741 C 0.20508 0.56656 0.79446
 N742 N 0.19812 0.55948 0.77860
 N743 N 0.20687 0.54587 0.76986
 C744 C 0.22287 0.53889 0.77669
 N745 N 0.22978 0.54599 0.79261
 N746 N 0.22102 0.55960 0.80134
 N747 N 0.19036 1.12172 0.33066
 C748 C 0.18026 1.10974 0.32045
 N749 N 0.16192 1.11277 0.31834
 N750 N 0.15393 1.12736 0.32619
 C751 C 0.16400 1.13945 0.33641
 N752 N 0.18238 1.13631 0.33851
 C753 C 0.18899 1.09432 0.31161
 C754 C 0.19647 1.08154 0.30404
 C755 C 0.20556 1.06653 0.29486
 N756 N 0.19859 1.05952 0.27898
 N757 N 0.20731 1.04592 0.27018
 C758 C 0.22330 1.03890 0.27697
 N759 N 0.23023 1.04592 0.29290
 N760 N 0.22151 1.05952 0.30170
 N761 N 0.66927 0.37837 0.69034
 C762 C 0.67950 0.39032 0.68022
 N763 N 0.68162 0.38725 0.66189
 N764 N 0.67377 0.37264 0.65393
 C765 C 0.66354 0.36057 0.66402
 N766 N 0.66143 0.36376 0.68239
 C767 C 0.68834 0.40576 0.68891
 C768 C 0.69592 0.41856 0.69636
 C769 C 0.70511 0.43359 0.70541
 N770 N 0.72102 0.44054 0.69842
 N771 N 0.72984 0.45414 0.70711
 C772 C 0.72305 0.46124 0.72307
 N773 N 0.70708 0.45428 0.73000
 N774 N 0.69827 0.44067 0.72131
 N775 N 0.66211 -0.11292 0.18153
 C776 C 0.68045 -0.10989 0.17940
 N777 N 0.69055 -0.12187 0.16920
 N778 N 0.68256 -0.13647 0.16137
 C779 C 0.66418 -0.13962 0.16348
 N780 N 0.65412 -0.12751 0.17369
 C781 C 0.68917 -0.09446 0.18824
 C782 C 0.69665 -0.08167 0.19581
 C783 C 0.70571 -0.06666 0.20501
 N784 N 0.72167 -0.05964 0.19820
 N785 N 0.73036 -0.04604 0.20702
 C786 C 0.72340 -0.03902 0.22294
 N787 N 0.70739 -0.04606 0.22969
 N788 N 0.69870 -0.05966 0.22088
 N789 N 0.19018 0.37836 0.16955
 C790 C 0.18008 0.39032 0.17978
 N791 N 0.16174 0.38727 0.18191
 N792 N 0.15376 0.37269 0.17406
 C793 C 0.16382 0.36061 0.16382
 N794 N 0.18220 0.36378 0.16170
 C795 C 0.18880 0.40575 0.18863
 C796 C 0.19628 0.41853 0.19619
 C797 C 0.20537 0.43355 0.20537
 N798 N 0.19842 0.44052 0.22129
 N799 N 0.20714 0.45412 0.23008
 C800 C 0.22310 0.46118 0.22325
 N801 N 0.23000 0.45420 0.20728
 N802 N 0.22128 0.44060 0.19849
 N803 N 0.19042 -0.12142 0.66914
 C804 C 0.18032 -0.10946 0.67937
 N805 N 0.16199 -0.11251 0.68151
 N806 N 0.15401 -0.12711 0.67367
 C807 C 0.16408 -0.13920 0.66344
 N808 N 0.18245 -0.13602 0.66131
 C809 C 0.18903 -0.09402 0.68821
 C810 C 0.19649 -0.08123 0.69579
 C811 C 0.20555 -0.06621 0.70499
 N812 N 0.19859 -0.05929 0.72092
 N813 N 0.20728 -0.04569 0.72974
 C814 C 0.22322 -0.03857 0.72292
 N815 N 0.23013 -0.04550 0.70693
 N816 N 0.22144 -0.05910 0.69812
 N817 N 0.31844 0.33810 0.38725
 C818 C 0.32055 0.31977 0.39030
 N819 N 0.33077 0.30965 0.37835
 N820 N 0.33862 0.31761 0.36376
 C821 C 0.33653 0.33599 0.36058
 N822 N 0.32630 0.34607 0.37266
 C823 C 0.31170 0.31106 0.40574
 C824 C 0.30413 0.30359 0.41853
 C825 C 0.29496 0.29450 0.43354
 N826 N 0.30182 0.27856 0.44056
 N827 N 0.29303 0.26984 0.45416
 C828 C 0.27709 0.27675 0.46119
 N829 N 0.27028 0.29274 0.45416
 N830 N 0.27907 0.30146 0.44056
 N831 N 0.33813 0.81861 -0.11273
 C832 C 0.31980 0.82072 -0.10967
 N833 N 0.30967 0.83092 -0.12163
 N834 N 0.31762 0.83876 -0.13624
 C835 C 0.33599 0.83666 -0.13942
 N836 N 0.34609 0.82645 -0.12734
 C837 C 0.31111 0.81187 -0.09423
 C838 C 0.30367 0.80427 -0.08143
 C839 C 0.29463 0.79506 -0.06641
 N840 N 0.27871 0.80188 -0.05932
 N841 N 0.27004 0.79305 -0.04572
 C842 C 0.27699 0.77709 -0.03876
 N843 N 0.29296 0.77032 -0.04587
 N844 N 0.30163 0.77916 -0.05947
 N845 N 0.83788 0.31830 -0.11272
 C846 C 0.81954 0.32042 -0.10968
 N847 N 0.80944 0.33065 -0.12164
 N848 N 0.81742 0.33850 -0.13622
 C849 C 0.83579 0.33640 -0.13938
 N850 N 0.84586 0.32616 -0.12730
 C851 C 0.81083 0.31157 -0.09426
 C852 C 0.80334 0.30399 -0.08147
 C853 C 0.79425 0.29482 -0.06646
 N854 N 0.77837 0.30174 -0.05937
 N855 N 0.76964 0.29296 -0.04577
 C856 C 0.77649 0.27696 -0.03882
 N857 N 0.79242 0.27009 -0.04592
 N858 N 0.80115 0.27887 -0.05952
 N859 N 0.81847 0.83790 0.38730
 C860 C 0.82059 0.81957 0.39035
 N861 N 0.83080 0.80945 0.37839
 N862 N 0.83864 0.81742 0.36379
 C863 C 0.83653 0.83579 0.36061
 N864 N 0.82631 0.84588 0.37270
 C865 C 0.81174 0.81087 0.40579
 C866 C 0.80415 0.80341 0.41858
 C867 C 0.79493 0.79437 0.43360
 N868 N 0.80175 0.77845 0.44068
 N869 N 0.79292 0.76978 0.45428
 C870 C 0.77697 0.77673 0.46124
 N871 N 0.77020 0.79270 0.45414
 N872 N 0.77903 0.80138 0.44054
 N873 N 0.66187 0.31824 0.61281
 C874 C 0.68021 0.32036 0.60977
 N875 N 0.69031 0.33060 0.62172
 N876 N 0.68233 0.33846 0.63630
 C877 C 0.66396 0.33634 0.63947
 N878 N 0.65389 0.32610 0.62740
 C879 C 0.68893 0.31152 0.59434
 C880 C 0.69641 0.30396 0.58156
 C881 C 0.70552 0.29480 0.56654
 N882 N 0.72147 0.30166 0.55955
 N883 N 0.73021 0.29289 0.54596
 C884 C 0.72330 0.27695 0.53891
 N885 N 0.70730 0.27014 0.54591
 N886 N 0.69856 0.27892 0.55951
 N887 N 0.66945 0.80942 1.12156
 C888 C 0.67968 0.81951 1.10959
 N889 N 0.68183 0.83784 1.11263
 N890 N 0.67400 0.84584 1.12722
 C891 C 0.66376 0.83578 1.13931
 N892 N 0.66162 0.81741 1.13615
 C893 C 0.68851 0.81078 1.09416
 C894 C 0.69606 0.80329 1.08136
 C895 C 0.70521 0.79419 1.06634
 N896 N 0.72115 0.80110 1.05938
 N897 N 0.72992 0.79237 1.04578
 C898 C 0.72305 0.77643 1.03869
 N899 N 0.70705 0.76958 1.04566
 N900 N 0.69829 0.77831 1.05927
 N901 N 0.16913 0.30971 1.12182
 C902 C 0.17936 0.31983 1.10987
 N903 N 0.18148 0.33816 1.11293
 N904 N 0.17364 0.34613 1.12753
 C905 C 0.16341 0.33605 1.13961
 N906 N 0.16130 0.31768 1.13642
 C907 C 0.18819 0.31113 1.09443
 C908 C 0.19576 0.30366 1.08163
 C909 C 0.20495 0.29460 1.06660
 N910 N 0.22082 0.30161 1.05959
 N911 N 0.22962 0.29292 1.04598
 C912 C 0.22285 0.27692 1.03895
 N913 N 0.20693 0.26996 1.04597
 N914 N 0.19813 0.27866 1.05958
 N915 N 0.16938 0.80984 0.62152
 C916 C 0.17959 0.81993 0.60954
 N917 N 0.18173 0.83827 0.61258
 N918 N 0.17390 0.84626 0.62717
 C919 C 0.16367 0.83620 0.63927
 N920 N 0.16155 0.81782 0.63611
 C921 C 0.18841 0.81121 0.59411
 C922 C 0.19597 0.80372 0.58131
 C923 C 0.20514 0.79464 0.56629
 N924 N 0.22101 0.80163 0.55927
 N925 N 0.22980 0.79291 0.54567
 C926 C 0.22302 0.77691 0.53865
 N927 N 0.20709 0.76997 0.54569
 N928 N 0.19830 0.77869 0.55929
 N929 N 0.33063 0.69046 0.62158
 C930 C 0.32043 0.68038 0.60958
 N931 N 0.31828 0.66204 0.61260
 N932 N 0.32608 0.65403 0.62720
 C933 C 0.33630 0.66408 0.63932
 N934 N 0.33843 0.68246 0.63618
 C935 C 0.31163 0.68912 0.59415
 C936 C 0.30408 0.69661 0.58135
 C937 C 0.29491 0.70570 0.56633
 N938 N 0.27904 0.69870 0.55931
 N939 N 0.27025 0.70741 0.54570
 C940 C 0.27703 0.72341 0.53868
 N941 N 0.29296 0.73035 0.54571
 N942 N 0.30175 0.72164 0.55932
 N943 N 0.33073 0.19057 1.12170
 C944 C 0.32049 0.18048 1.10974
 N945 N 0.31836 0.16214 1.11277
 N946 N 0.32621 0.15414 1.12735
 C947 C 0.33645 0.16420 1.13944
 N948 N 0.33857 0.18258 1.13628
 C949 C 0.31165 0.18921 1.09432
 C950 C 0.30407 0.19669 1.08154
 C951 C 0.29487 0.20577 1.06654
 N952 N 0.27899 0.19877 1.05953
 N953 N 0.27018 0.20748 1.04594
 C954 C 0.27694 0.22349 1.03891
 N955 N 0.29287 0.23044 1.04593
 N956 N 0.30168 0.22173 1.05952
 N957 N 0.83815 0.68140 1.11257
 C958 C 0.81981 0.67924 1.10955
 N959 N 0.80974 0.66903 1.12154
 N960 N 0.81774 0.66123 1.13614
 C961 C 0.83612 0.66338 1.13928
 N962 N 0.84616 0.67360 1.12717
 C963 C 0.81107 0.68804 1.09411
 C964 C 0.80357 0.69558 1.08131
 C965 C 0.79448 0.70474 1.06629
 N966 N 0.77856 0.69786 1.05925
 N967 N 0.76983 0.70665 1.04565
 C968 C 0.77673 0.72261 1.03865
 N969 N 0.79270 0.72943 1.04570
 N970 N 0.80143 0.72064 1.05930
 N971 N 0.83807 0.18157 0.61290
 C972 C 0.81973 0.17943 0.60984
 N973 N 0.80963 0.16920 0.62180
 N974 N 0.81760 0.16138 0.63640
 C975 C 0.83597 0.16350 0.63958
 N976 N 0.84604 0.17374 0.62750
 C977 C 0.81102 0.18827 0.59441
 C978 C 0.80356 0.19585 0.58161
 C979 C 0.79451 0.20504 0.56659
 N980 N 0.77859 0.19820 0.55952
 N981 N 0.76990 0.20702 0.54592
 C982 C 0.77684 0.22297 0.53894
 N983 N 0.79281 0.22976 0.54602
 N984 N 0.80149 0.22094 0.55963
 N985 N 0.66936 0.69029 0.37834
 C986 C 0.67959 0.68019 0.39031
 N987 N 0.68172 0.66186 0.38727
 N988 N 0.67389 0.65387 0.37266
 C989 C 0.66367 0.66394 0.36057
 N990 N 0.66154 0.68231 0.36374
 C991 C 0.68840 0.68891 0.40575
 C992 C 0.69595 0.69639 0.41854
 C993 C 0.70510 0.70549 0.43357
 N994 N 0.72097 0.69851 0.44062
 N995 N 0.72974 0.70724 0.45422
 C996 C 0.72294 0.72324 0.46122
 N997 N 0.70702 0.73017 0.45416
 N998 N 0.69825 0.72144 0.44055
 N999 N 0.68143 0.16188 -0.11274
 C1000 C 0.67926 0.18021 -0.10972
 N1001 N 0.66903 0.19028 -0.12170
 N1002 N 0.66122 0.18227 -0.13630
 C1003 C 0.66338 0.16390 -0.13944
 N1004 N 0.67362 0.15386 -0.12733
 C1005 C 0.68806 0.18896 -0.09429
 C1006 C 0.69561 0.19646 -0.08149
 C1007 C 0.70477 0.20555 -0.06647
 N1008 N 0.69791 0.22146 -0.05943
 N1009 N 0.70670 0.23018 -0.04582
 C1010 C 0.72265 0.22327 -0.03883
 N1011 N 0.72947 0.20730 -0.04589
 N1012 N 0.72068 0.19859 -0.05949
 N1013 N 0.16208 0.68183 -0.11269
 C1014 C 0.18041 0.67970 -0.10965
 N1015 N 0.19051 0.66947 -0.12162
 N1016 N 0.18252 0.66164 -0.13621
 C1017 C 0.16415 0.66377 -0.13937
 N1018 N 0.15409 0.67400 -0.12728
 C1019 C 0.18914 0.68852 -0.09422
 C1020 C 0.19663 0.69607 -0.08143
 C1021 C 0.20573 0.70523 -0.06641
 N1022 N 0.22168 0.69837 -0.05943
 N1023 N 0.23042 0.70714 -0.04583
 C1024 C 0.22350 0.72307 -0.03877
 N1025 N 0.20750 0.72987 -0.04576
 N1026 N 0.19876 0.72110 -0.05936
 N1027 N 0.16932 0.19037 0.37838
 C1028 C 0.17956 0.18026 0.39033
 N1029 N 0.18169 0.16192 0.38727
 N1030 N 0.17383 0.15395 0.37268
 C1031 C 0.16359 0.16402 0.36061
 N1032 N 0.16147 0.18239 0.36379
 C1033 C 0.18841 0.18897 0.40575
 C1034 C 0.19600 0.19643 0.41854
 C1035 C 0.20519 0.20550 0.43355
 N1036 N 0.22109 0.19853 0.44052
 N1037 N 0.22991 0.20723 0.45412
 C1038 C 0.22311 0.22320 0.46119
 N1039 N 0.20716 0.23013 0.45420
 N1040 N 0.19835 0.22143 0.44061
 N1041 N 0.30956 0.37841 0.66929
 C1042 C 0.31964 0.39037 0.67954
 N1043 N 0.33797 0.38733 0.68169
 N1044 N 0.34597 0.37274 0.67386
 C1045 C 0.33592 0.36066 0.66360
 N1046 N 0.31755 0.36382 0.66146
 C1047 C 0.31091 0.40580 0.68836
 C1048 C 0.30341 0.41859 0.69592
 C1049 C 0.29431 0.43360 0.70507
 N1050 N 0.30128 0.44064 0.72095
 N1051 N 0.29255 0.45425 0.72972
 C1052 C 0.27655 0.46125 0.72291
 N1053 N 0.26963 0.45420 0.70698
 N1054 N 0.27836 0.44060 0.69821
 N1055 N 0.30981 0.87849 0.16933
 C1056 C 0.31990 0.89045 0.17956
 N1057 N 0.33824 0.88740 0.18171
 N1058 N 0.34622 0.87280 0.17387
 C1059 C 0.33616 0.86072 0.16363
 N1060 N 0.31779 0.86389 0.16150
 C1061 C 0.31118 0.90589 0.18838
 C1062 C 0.30370 0.91868 0.19593
 C1063 C 0.29461 0.93370 0.20509
 N1064 N 0.30159 0.94072 0.22097
 N1065 N 0.29287 0.95432 0.22976
 C1066 C 0.27687 0.96135 0.22297
 N1067 N 0.26994 0.95431 0.20703
 N1068 N 0.27867 0.94071 0.19825
 N1069 N 0.83802 0.38711 0.18161
 C1070 C 0.81969 0.39017 0.17949
 N1071 N 0.80957 0.37821 0.16929
 N1072 N 0.81752 0.36360 0.16146
 C1073 C 0.83589 0.36042 0.16356
 N1074 N 0.84599 0.37250 0.17377
 C1075 C 0.81100 0.40562 0.18833
 C1076 C 0.80354 0.41842 0.19590
 C1077 C 0.79449 0.43345 0.20508
 N1078 N 0.77861 0.44056 0.19820
 N1079 N 0.76991 0.45417 0.20700
 C1080 C 0.77681 0.46111 0.22299
 N1081 N 0.79275 0.45399 0.22982
 N1082 N 0.80144 0.44038 0.22101
 N1083 N 0.81826 0.88718 0.66193
 C1084 C 0.82039 0.89023 0.68026
 N1085 N 0.83064 0.87829 0.69036
 N1086 N 0.83850 0.86371 0.68238
 C1087 C 0.83638 0.86053 0.66401
 N1088 N 0.82612 0.87259 0.65395
 C1089 C 0.81155 0.90566 0.68898
 C1090 C 0.80399 0.91845 0.69647
 C1091 C 0.79484 0.93346 0.70558
 N1092 N 0.80171 0.94046 0.72152
 N1093 N 0.79294 0.95405 0.73026
 C1094 C 0.77700 0.96110 0.72336
 N1095 N 0.77018 0.95409 0.70737
 N1096 N 0.77895 0.94049 0.69863
 N1097 N 0.66183 0.61272 0.68159
 C1098 C 0.68016 0.60971 0.67945
 N1099 N 0.69024 0.62170 0.66923
 N1100 N 0.68224 0.63629 0.66142
 C1101 C 0.66386 0.63943 0.66355
 N1102 N 0.65382 0.62731 0.67377
 C1103 C 0.68891 0.59428 0.68827
 C1104 C 0.69640 0.58149 0.69582
 C1105 C 0.70551 0.56647 0.70498
 N1106 N 0.72138 0.55939 0.69805
 N1107 N 0.73012 0.54579 0.70683
 C1108 C 0.72327 0.53883 0.72283
 N1109 N 0.70735 0.54593 0.72971
 N1110 N 0.69861 0.55953 0.72093
 N1111 N 0.66201 0.11248 0.18167
 C1112 C 0.68034 0.10944 0.17952
 N1113 N 0.69043 0.12142 0.16930
 N1114 N 0.68244 0.13602 0.16148
 C1115 C 0.66407 0.13918 0.16362
 N1116 N 0.65401 0.12708 0.17386
 C1117 C 0.68908 0.09401 0.18834
 C1118 C 0.69656 0.08122 0.19590
 C1119 C 0.70564 0.06620 0.20508
 N1120 N 0.72160 0.05921 0.19826
 N1121 N 0.73031 0.04561 0.20706
 C1122 C 0.72335 0.03856 0.22298
 N1123 N 0.70734 0.04557 0.22974
 N1124 N 0.69863 0.05917 0.22094
 N1125 N 0.18180 0.61269 0.16194
 C1126 C 0.17964 0.60966 0.18027
 N1127 N 0.16941 0.62165 0.19035
 N1128 N 0.16161 0.63624 0.18234
 C1129 C 0.16376 0.63939 0.16397
 N1130 N 0.17399 0.62728 0.15393
 C1131 C 0.18844 0.59423 0.18902
 C1132 C 0.19599 0.58144 0.19652
 C1133 C 0.20513 0.56642 0.20562
 N1134 N 0.19822 0.55936 0.22151
 N1135 N 0.20699 0.54576 0.23025
 C1136 C 0.22297 0.53877 0.22339
 N1137 N 0.22984 0.54584 0.20745
 N1138 N 0.22107 0.55945 0.19871
 N1139 N 0.18155 0.11296 0.66194
 C1140 C 0.17941 0.10992 0.68028
 N1141 N 0.16918 0.12189 0.69037
 N1142 N 0.16135 0.13648 0.68239
 C1143 C 0.16348 0.13964 0.66401
 N1144 N 0.17372 0.12755 0.65395
 C1145 C 0.18824 0.09448 0.68900
 C1146 C 0.19581 0.08169 0.69648
 C1147 C 0.20499 0.06667 0.70555
 N1148 N 0.19809 0.05956 0.72143
 N1149 N 0.20690 0.04596 0.73013
 C1150 C 0.22289 0.03903 0.72326
 N1151 N 0.22974 0.04615 0.70733
 N1152 N 0.22093 0.05975 0.69862
 N1153 N 0.30968 0.62168 0.33074
 C1154 C 0.31976 0.60969 0.32052
 N1155 N 0.33810 0.61272 0.31837
 N1156 N 0.34610 0.62732 0.32618
 C1157 C 0.33605 0.63943 0.33641
 N1158 N 0.31767 0.63628 0.33854
 C1159 C 0.31103 0.59425 0.31172
 C1160 C 0.30353 0.58145 0.30418
 C1161 C 0.29444 0.56643 0.29504
 N1162 N 0.30138 0.55943 0.27913
 N1163 N 0.29265 0.54583 0.27035
 C1164 C 0.27669 0.53877 0.27719
 N1165 N 0.26980 0.54578 0.29315
 N1166 N 0.27853 0.55938 0.30192
 N1167 N 0.30946 0.12186 0.83083
 C1168 C 0.31955 0.10989 0.82060
 N1169 N 0.33789 0.11293 0.81847
 N1170 N 0.34588 0.12752 0.82630
 C1171 C 0.33582 0.13962 0.83653
 N1172 N 0.31744 0.13646 0.83865
 C1173 C 0.31083 0.09446 0.81177
 C1174 C 0.30336 0.08167 0.80419
 C1175 C 0.29429 0.06666 0.79499
 N1176 N 0.30125 0.05974 0.77906
 N1177 N 0.29256 0.04614 0.77024
 C1178 C 0.27661 0.03902 0.77706
 N1179 N 0.26971 0.04595 0.79304
 N1180 N 0.27840 0.05955 0.80186
 N1181 N 0.81853 0.61271 0.83781
 C1182 C 0.82067 0.60968 0.81947
 N1183 N 0.83089 0.62167 0.80938
 N1184 N 0.83872 0.63626 0.81738
 C1185 C 0.83659 0.63940 0.83576
 N1186 N 0.82636 0.62730 0.84581
 C1187 C 0.81184 0.59426 0.81073
 C1188 C 0.80427 0.58147 0.80325
 C1189 C 0.79508 0.56646 0.79417
 N1190 N 0.80193 0.55940 0.77825
 N1191 N 0.79312 0.54580 0.76955
 C1192 C 0.77716 0.53883 0.77647
 N1193 N 0.77036 0.54590 0.79244
 N1194 N 0.77917 0.55950 0.80114
 N1195 N 0.80957 0.12142 0.33084
 C1196 C 0.81968 0.10946 0.32062
 N1197 N 0.83801 0.11250 0.31849
 N1198 N 0.84599 0.12710 0.32633
 C1199 C 0.83592 0.13919 0.33655
 N1200 N 0.81755 0.13602 0.33867
 C1201 C 0.81096 0.09402 0.31179
 C1202 C 0.80350 0.08123 0.30421
 C1203 C 0.79444 0.06621 0.29502
 N1204 N 0.80146 0.05921 0.27915
 N1205 N 0.79277 0.04561 0.27033
 C1206 C 0.77677 0.03857 0.27708
 N1207 N 0.76980 0.04558 0.29301
 N1208 N 0.77849 0.05918 0.30182
 N1209 N 0.68176 0.38726 0.33814
 C1210 C 0.67963 0.39028 0.31980
 N1211 N 0.66942 0.37829 0.30971
 N1212 N 0.66160 0.36370 0.31770
 C1213 C 0.66372 0.36055 0.33608
 N1214 N 0.67394 0.37266 0.34613
 C1215 C 0.68845 0.40571 0.31107
 C1216 C 0.69601 0.41850 0.30358
 C1217 C 0.70519 0.43352 0.29450
 N1218 N 0.69830 0.44061 0.27861
 N1219 N 0.70710 0.45420 0.26989
 C1220 C 0.72309 0.46115 0.27677
 N1221 N 0.72993 0.45405 0.29271
 N1222 N 0.72113 0.44045 0.30143
 N1223 N 0.68165 0.88707 0.83814
 C1224 C 0.67952 0.89015 0.81981
 N1225 N 0.66929 0.87821 0.80969
 N1226 N 0.66144 0.86361 0.81765
 C1227 C 0.66356 0.86041 0.83602
 N1228 N 0.67380 0.87247 0.84610
 C1229 C 0.68837 0.90559 0.81112
 C1230 C 0.69595 0.91838 0.80367
 C1231 C 0.70514 0.93341 0.79461
 N1232 N 0.69829 0.94049 0.77870
 N1233 N 0.70710 0.95409 0.77001
 C1234 C 0.72306 0.96107 0.77694
 N1235 N 0.72986 0.95398 0.79290
 N1236 N 0.72105 0.94037 0.80159
 N1237 N 0.19021 0.37850 0.83076
 C1238 C 0.18010 0.39045 0.82053
 N1239 N 0.16176 0.38740 0.81841
 N1240 N 0.15379 0.37281 0.82627
 C1241 C 0.16386 0.36074 0.83651
 N1242 N 0.18224 0.36392 0.83862
 C1243 C 0.18881 0.40588 0.81166
 C1244 C 0.19627 0.41866 0.80407
 C1245 C 0.20533 0.43367 0.79486
 N1246 N 0.19835 0.44062 0.77896
 N1247 N 0.20704 0.45422 0.77013
 C1248 C 0.22302 0.46130 0.77691
 N1249 N 0.22995 0.45433 0.79287
 N1250 N 0.22126 0.44073 0.80169
 N1251 N 0.19041 0.87842 0.33057
 C1252 C 0.18032 0.89040 0.32034
 N1253 N 0.16198 0.88736 0.31819
 N1254 N 0.15399 0.87276 0.32601
 C1255 C 0.16405 0.86066 0.33625
 N1256 N 0.18242 0.86383 0.33839
 C1257 C 0.18905 0.90584 0.31153
 C1258 C 0.19653 0.91863 0.30398
 C1259 C 0.20562 0.93366 0.29482
 N1260 N 0.19863 0.94068 0.27894
 N1261 N 0.20734 0.95428 0.27015
 C1262 C 0.22334 0.96131 0.27694
 N1263 N 0.23027 0.95428 0.29288
 N1264 N 0.22155 0.94068 0.30166
 N1265 N 0.38725 0.31847 0.66191
 C1266 C 0.39028 0.32057 0.68025
 N1267 N 0.37829 0.33076 0.69036
 N1268 N 0.36370 0.33860 0.68239
 C1269 C 0.36054 0.33650 0.66401
 N1270 N 0.37265 0.32630 0.65393
 C1271 C 0.40570 0.31172 0.68897
 C1272 C 0.41849 0.30414 0.69643
 C1273 C 0.43350 0.29493 0.70549
 N1274 N 0.44058 0.30177 0.72141
 N1275 N 0.45417 0.29294 0.73010
 C1276 C 0.46113 0.27697 0.72317
 N1277 N 0.45404 0.27019 0.70720
 N1278 N 0.44045 0.27902 0.69851
 N1279 N 0.38742 0.81844 0.16196
 C1280 C 0.39047 0.82057 0.18029
 N1281 N 0.37851 0.83081 0.19039
 N1282 N 0.36392 0.83865 0.18241
 C1283 C 0.36075 0.83653 0.16404
 N1284 N 0.37283 0.82629 0.15397
 C1285 C 0.40589 0.81172 0.18901
 C1286 C 0.41868 0.80414 0.19648
 C1287 C 0.43369 0.79494 0.20555
 N1288 N 0.44072 0.80176 0.22149
 N1289 N 0.45432 0.79294 0.23019
 C1290 C 0.46132 0.77701 0.22324
 N1291 N 0.45428 0.77024 0.20724
 N1292 N 0.44068 0.77906 0.19855
 N1293 N 0.88710 0.31809 0.16192
 C1294 C 0.89015 0.32024 0.18026
 N1295 N 0.87819 0.33049 0.19034
 N1296 N 0.86361 0.33833 0.18235
 C1297 C 0.86044 0.33620 0.16398
 N1298 N 0.87251 0.32593 0.15393
 C1299 C 0.90558 0.31141 0.18898
 C1300 C 0.91837 0.30385 0.19648
 C1301 C 0.93338 0.29469 0.20557
 N1302 N 0.94038 0.30153 0.22152
 N1303 N 0.95398 0.29276 0.23025
 C1304 C 0.96103 0.27683 0.22331
 N1305 N 0.95402 0.27004 0.20731
 N1306 N 0.94042 0.27882 0.19859
 N1307 N 0.88730 0.83815 0.68166
 C1308 C 0.89038 0.81982 0.67955
 N1309 N 0.87843 0.80968 0.66934
 N1310 N 0.86382 0.81762 0.66150
 C1311 C 0.86062 0.83599 0.66360
 N1312 N 0.87269 0.84610 0.67382
 C1313 C 0.90583 0.81114 0.68839
 C1314 C 0.91864 0.80370 0.69596
 C1315 C 0.93368 0.79465 0.70515
 N1316 N 0.94076 0.77875 0.69829
 N1317 N 0.95437 0.77007 0.70710
 C1318 C 0.96135 0.77700 0.72306
 N1319 N 0.95425 0.79295 0.72986
 N1320 N 0.94063 0.80164 0.72105
 N1321 N 0.62181 0.30958 0.33081
 C1322 C 0.60984 0.31967 0.32058
 N1323 N 0.61287 0.33801 0.31844
 N1324 N 0.62746 0.34600 0.32628
 C1325 C 0.63956 0.33595 0.33651
 N1326 N 0.63640 0.31757 0.33864
 C1327 C 0.59441 0.31094 0.31175
 C1328 C 0.58162 0.30345 0.30419
 C1329 C 0.56661 0.29435 0.29503
 N1330 N 0.55967 0.30126 0.27908
 N1331 N 0.54607 0.29253 0.27030
 C1332 C 0.53897 0.27660 0.27717
 N1333 N 0.54592 0.26975 0.29317
 N1334 N 0.55952 0.27848 0.30195
 N1335 N 0.62159 0.80948 0.83067
 C1336 C 0.60962 0.81960 0.82045
 N1337 N 0.61268 0.83793 0.81832
 N1338 N 0.62728 0.84590 0.82616
 C1339 C 0.63937 0.83582 0.83639
 N1340 N 0.63619 0.81745 0.83850
 C1341 C 0.59418 0.81089 0.81163
 C1342 C 0.58137 0.80341 0.80409
 C1343 C 0.56634 0.79431 0.79496
 N1344 N 0.55934 0.80123 0.77904
 N1345 N 0.54573 0.79250 0.77029
 C1346 C 0.53867 0.77655 0.77716
 N1347 N 0.54567 0.76969 0.79313
 N1348 N 0.55929 0.77842 0.80188
 N1349 N 0.11259 0.31849 0.83821
 C1350 C 0.10956 0.32059 0.81988
 N1351 N 0.12153 0.33080 0.80976
 N1352 N 0.13612 0.33864 0.81774
 C1353 C 0.13928 0.33655 0.83611
 N1354 N 0.12719 0.32633 0.84619
 C1355 C 0.09412 0.31176 0.81116
 C1356 C 0.08133 0.30420 0.80368
 C1357 C 0.06631 0.29504 0.79458
 N1358 N 0.05923 0.30197 0.77871
 N1359 N 0.04563 0.29320 0.76997
 C1360 C 0.03868 0.27719 0.77681
 N1361 N 0.04577 0.27031 0.79274
 N1362 N 0.05937 0.27909 0.80147
 N1363 N 0.11277 0.81840 0.33785
 C1364 C 0.10974 0.82055 0.31951
 N1365 N 0.12172 0.83079 0.30943
 N1366 N 0.13630 0.83862 0.31743
 C1367 C 0.13945 0.83648 0.33580
 N1368 N 0.12736 0.82624 0.34585
 C1369 C 0.09432 0.81173 0.31077
 C1370 C 0.08153 0.80417 0.30327
 C1371 C 0.06651 0.79502 0.29416
 N1372 N 0.05947 0.80193 0.27826
 N1373 N 0.04588 0.79315 0.26952
 C1374 C 0.03888 0.77718 0.27638
 N1375 N 0.04593 0.77032 0.29234
 N1376 N 0.05953 0.77910 0.30108
 N1377 N 0.61253 0.68160 0.66197
 C1378 C 0.60951 0.67945 0.68031
 N1379 N 0.62150 0.66923 0.69039
 N1380 N 0.63610 0.66143 0.68238
 C1381 C 0.63924 0.66357 0.66401
 N1382 N 0.62713 0.67379 0.65396
 C1383 C 0.59407 0.68825 0.68905
 C1384 C 0.58128 0.69578 0.69655
 C1385 C 0.56626 0.70493 0.70566
 N1386 N 0.55923 0.69803 0.72158
 N1387 N 0.54563 0.70680 0.73032
 C1388 C 0.53862 0.72277 0.72344
 N1389 N 0.54566 0.72961 0.70747
 N1390 N 0.55926 0.72084 0.69873
 N1391 N 0.61279 0.18143 0.16208
 C1392 C 0.60978 0.17928 0.18041
 N1393 N 0.62176 0.16905 0.19048
 N1394 N 0.63635 0.16122 0.18247
 C1395 C 0.63948 0.16336 0.16409
 N1396 N 0.62737 0.17360 0.15406
 C1397 C 0.59436 0.18810 0.18917
 C1398 C 0.58158 0.19566 0.19667
 C1399 C 0.56657 0.20484 0.20576
 N1400 N 0.55952 0.19798 0.22168
 N1401 N 0.54593 0.20678 0.23040
 C1402 C 0.53894 0.22275 0.22349
 N1403 N 0.54601 0.22956 0.20752
 N1404 N 0.55960 0.22075 0.19880
 N1405 N 0.11289 0.66199 0.18152
 C1406 C 0.10987 0.68032 0.17935
 N1407 N 0.12186 0.69040 0.16913
 N1408 N 0.13646 0.68239 0.16134
 C1409 C 0.13961 0.66402 0.16349
 N1410 N 0.12749 0.65398 0.17372
 C1411 C 0.09442 0.68907 0.18814
 C1412 C 0.08162 0.69657 0.19567
 C1413 C 0.06659 0.70567 0.20480
 N1414 N 0.05956 0.72158 0.19790
 N1415 N 0.04594 0.73031 0.20666
 C1416 C 0.03892 0.72343 0.22262
 N1417 N 0.04597 0.70747 0.22947
 N1418 N 0.05959 0.69874 0.22071
 N1419 N 0.12157 0.19062 0.66928
 C1420 C 0.10959 0.18053 0.67950
 N1421 N 0.11262 0.16220 0.68165
 N1422 N 0.12722 0.15420 0.67382
 C1423 C 0.13931 0.16425 0.66359
 N1424 N 0.13616 0.18262 0.66146
 C1425 C 0.09416 0.18926 0.68832
 C1426 C 0.08136 0.19675 0.69588
 C1427 C 0.06635 0.20583 0.70505
 N1428 N 0.05937 0.19886 0.72096
 N1429 N 0.04577 0.20757 0.72975
 C1430 C 0.03870 0.22354 0.72295
 N1431 N 0.04569 0.23046 0.70699
 N1432 N 0.05930 0.22175 0.69819
 N1433 N 0.38735 0.68166 0.33802
 C1434 C 0.39040 0.67950 0.31969
 N1435 N 0.37843 0.66926 0.30960
 N1436 N 0.36383 0.66144 0.31759
 C1437 C 0.36066 0.66359 0.33596
 N1438 N 0.37275 0.67383 0.34602
 C1439 C 0.40583 0.68832 0.31096
 C1440 C 0.41863 0.69588 0.30348
 C1441 C 0.43365 0.70505 0.29440
 N1442 N 0.44066 0.69822 0.27845
 N1443 N 0.45426 0.70702 0.26974
 C1444 C 0.46130 0.72294 0.27669
 N1445 N 0.45428 0.72972 0.29269
 N1446 N 0.44067 0.72092 0.30140
 N1447 N 0.37817 0.16949 0.80973
 C1448 C 0.39015 0.17971 0.81983
 N1449 N 0.38711 0.18184 0.83816
 N1450 N 0.37252 0.17401 0.84616
 C1451 C 0.36042 0.16379 0.83610
 N1452 N 0.36357 0.16167 0.81772
 C1453 C 0.40558 0.18852 0.81110
 C1454 C 0.41838 0.19606 0.80361
 C1455 C 0.43341 0.20519 0.79450
 N1456 N 0.44046 0.22107 0.80146
 N1457 N 0.45407 0.22983 0.79272
 C1458 C 0.46107 0.22301 0.77672
 N1459 N 0.45400 0.20708 0.76982
 N1460 N 0.44039 0.19832 0.77856
 N1461 N 0.88746 0.66194 0.81814
 C1462 C 0.89049 0.68028 0.82029
 N1463 N 0.87852 0.69036 0.83053
 N1464 N 0.86392 0.68237 0.83835
 C1465 C 0.86076 0.66400 0.83621
 N1466 N 0.87286 0.65395 0.82597
 C1467 C 0.90593 0.68901 0.81148
 C1468 C 0.91872 0.69651 0.80394
 C1469 C 0.93374 0.70562 0.79480
 N1470 N 0.94073 0.72156 0.80168
 N1471 N 0.95433 0.73031 0.79292
 C1472 C 0.96138 0.72342 0.77698
 N1473 N 0.95438 0.70742 0.77015
 N1474 N 0.94078 0.69868 0.77892
 N1475 N 0.87824 0.16909 0.30975
 C1476 C 0.89021 0.17932 0.31984
 N1477 N 0.88718 0.18146 0.33818
 N1478 N 0.87259 0.17363 0.34617
 C1479 C 0.86050 0.16339 0.33612
 N1480 N 0.86365 0.16126 0.31774
 C1481 C 0.90564 0.18816 0.31111
 C1482 C 0.91843 0.19573 0.30363
 C1483 C 0.93344 0.20491 0.29455
 N1484 N 0.94044 0.22079 0.30154
 N1485 N 0.95403 0.22960 0.29283
 C1486 C 0.96107 0.22282 0.27683
 N1487 N 0.95406 0.20689 0.26989
 N1488 N 0.94046 0.19808 0.27860
 N1489 N 0.31831 0.33810 0.61272
 C1490 C 0.32048 0.31977 0.60969
 N1491 N 0.33070 0.30969 0.62167
 N1492 N 0.33851 0.31768 0.63627
 C1493 C 0.33637 0.33606 0.63942
 N1494 N 0.32613 0.34611 0.62733
 C1495 C 0.31168 0.31103 0.59425
 C1496 C 0.30414 0.30354 0.58145
 C1497 C 0.29498 0.29445 0.56643
 N1498 N 0.30185 0.27852 0.55940
 N1499 N 0.29307 0.26980 0.54580
 C1500 C 0.27712 0.27671 0.53877
 N1501 N 0.27031 0.29269 0.54581
 N1502 N 0.27909 0.30141 0.55942
 N1503 N 0.31851 0.83824 0.11276
 C1504 C 0.32062 0.81990 0.10972
 N1505 N 0.33083 0.80979 0.12169
 N1506 N 0.33867 0.81776 0.13629
 C1507 C 0.33657 0.83614 0.13945
 N1508 N 0.32636 0.84622 0.12735
 C1509 C 0.31179 0.81119 0.09428
 C1510 C 0.30423 0.80371 0.08149
 C1511 C 0.29508 0.79461 0.06647
 N1512 N 0.30202 0.77875 0.05937
 N1513 N 0.29325 0.77001 0.04577
 C1514 C 0.27724 0.77684 0.03882
 N1515 N 0.27034 0.79276 0.04594
 N1516 N 0.27912 0.80149 0.05954
 N1517 N 0.81819 0.33795 0.11270
 C1518 C 0.82029 0.31961 0.10965
 N1519 N 0.83051 0.30949 0.12161
 N1520 N 0.83836 0.31745 0.13620
 C1521 C 0.83627 0.33583 0.13938
 N1522 N 0.82605 0.34592 0.12730
 C1523 C 0.81143 0.31092 0.09422
 C1524 C 0.80385 0.30346 0.08143
 C1525 C 0.79465 0.29440 0.06641
 N1526 N 0.80150 0.27849 0.05933
 N1527 N 0.79268 0.26980 0.04573
 C1528 C 0.77671 0.27673 0.03877
 N1529 N 0.76991 0.29269 0.04586
 N1530 N 0.77873 0.30138 0.05946
 N1531 N 0.80966 0.83056 0.62168
 C1532 C 0.81978 0.82035 0.60972
 N1533 N 0.83812 0.81825 0.61276
 N1534 N 0.84609 0.82611 0.62735
 C1535 C 0.83601 0.83633 0.63944
 N1536 N 0.81763 0.83842 0.63627
 C1537 C 0.81107 0.81150 0.59429
 C1538 C 0.80359 0.80394 0.58150
 C1539 C 0.79449 0.79479 0.56648
 N1540 N 0.80137 0.77883 0.55954
 N1541 N 0.79263 0.77006 0.54594
 C1542 C 0.77672 0.77696 0.53883
 N1543 N 0.76990 0.79297 0.54578
 N1544 N 0.77863 0.80174 0.55938
 N1545 N 0.31843 0.66200 0.38725
 C1546 C 0.32056 0.68034 0.39027
 N1547 N 0.33077 0.69042 0.37828
 N1548 N 0.33860 0.68242 0.36369
 C1549 C 0.33649 0.66405 0.36056
 N1550 N 0.32627 0.65399 0.37267
 C1551 C 0.31173 0.68908 0.40568
 C1552 C 0.30415 0.69657 0.41847
 C1553 C 0.29497 0.70566 0.43347
 N1554 N 0.30180 0.72161 0.44048
 N1555 N 0.29299 0.73033 0.45407
 C1556 C 0.27706 0.72339 0.46109
 N1557 N 0.27028 0.70738 0.45407
 N1558 N 0.27909 0.69867 0.44048
 N1559 N 0.33056 0.19059 0.87845
 C1560 C 0.32034 0.18050 0.89043
 N1561 N 0.31819 0.16216 0.88739
 N1562 N 0.32601 0.15417 0.87279
 C1563 C 0.33625 0.16422 0.86070
 N1564 N 0.33838 0.18260 0.86386
 C1565 C 0.31152 0.18923 0.90586
 C1566 C 0.30396 0.19671 0.91866
 C1567 C 0.29479 0.20579 0.93368
 N1568 N 0.27892 0.19879 0.94070
 N1569 N 0.27013 0.20749 0.95431
 C1570 C 0.27690 0.22349 0.96133
 N1571 N 0.29282 0.23045 0.95429
 N1572 N 0.30162 0.22174 0.94069
 N1573 N 0.83823 0.68160 0.88708
 C1574 C 0.81990 0.67945 0.89012
 N1575 N 0.80980 0.66924 0.87814
 N1576 N 0.81779 0.66142 0.86354
 C1577 C 0.83616 0.66355 0.86038
 N1578 N 0.84622 0.67378 0.87248
 C1579 C 0.81117 0.68826 0.90556
 C1580 C 0.80368 0.69579 0.91836
 C1581 C 0.79457 0.70493 0.93339
 N1582 N 0.77864 0.69804 0.94039
 N1583 N 0.76990 0.70679 0.95400
 C1584 C 0.77680 0.72273 0.96105
 N1585 N 0.79278 0.72957 0.95404
 N1586 N 0.80152 0.72081 0.94043
 N1587 N 0.83061 0.19015 0.37848
 C1588 C 0.82039 0.18005 0.39045
 N1589 N 0.81826 0.16172 0.38741
 N1590 N 0.82610 0.15373 0.37281
 C1591 C 0.83633 0.16380 0.36072
 N1592 N 0.83845 0.18217 0.36388
 C1593 C 0.81157 0.18877 0.40588
 C1594 C 0.80402 0.19626 0.41868
 C1595 C 0.79487 0.20537 0.43370
 N1596 N 0.77892 0.19848 0.44065
 N1597 N 0.77015 0.20722 0.45425
 C1598 C 0.77704 0.22315 0.46134
 N1599 N 0.79305 0.22998 0.45438
 N1600 N 0.80181 0.22124 0.44078
 N1601 N 0.66211 0.31833 0.38738
 C1602 C 0.68044 0.32049 0.39042
 N1603 N 0.69053 0.33072 0.37844
 N1604 N 0.68253 0.33854 0.36385
 C1605 C 0.66416 0.33639 0.36068
 N1606 N 0.65411 0.32615 0.37278
 C1607 C 0.68917 0.31167 0.40585
 C1608 C 0.69666 0.30412 0.41865
 C1609 C 0.70573 0.29494 0.43367
 N1610 N 0.72166 0.30180 0.44072
 N1611 N 0.73036 0.29300 0.45432
 C1612 C 0.72343 0.27705 0.46132
 N1613 N 0.70746 0.27025 0.45426
 N1614 N 0.69876 0.27905 0.44066
 N1615 N 0.66185 0.81810 0.88724
 C1616 C 0.68019 0.82020 0.89028
 N1617 N 0.69030 0.83042 0.87832
 N1618 N 0.68233 0.83828 0.86373
 C1619 C 0.66395 0.83619 0.86057
 N1620 N 0.65387 0.82596 0.87265
 C1621 C 0.68890 0.81134 0.90570
 C1622 C 0.69638 0.80375 0.91848
 C1623 C 0.70546 0.79456 0.93349
 N1624 N 0.72137 0.80142 0.94055
 N1625 N 0.73009 0.79260 0.95414
 C1626 C 0.72318 0.77663 0.96111
 N1627 N 0.70721 0.76983 0.95403
 N1628 N 0.69850 0.77864 0.94044
 N1629 N 0.16916 0.30981 0.87848
 C1630 C 0.17940 0.31992 0.89044
 N1631 N 0.18154 0.33825 0.88738
 N1632 N 0.17371 0.34623 0.87278
 C1633 C 0.16346 0.33616 0.86070
 N1634 N 0.16133 0.31779 0.86388
 C1635 C 0.18822 0.31121 0.90588
 C1636 C 0.19578 0.30373 0.91868
 C1637 C 0.20496 0.29466 0.93370
 N1638 N 0.22082 0.30166 0.94072
 N1639 N 0.22963 0.29296 0.95433
 C1640 C 0.22285 0.27696 0.96135
 N1641 N 0.20693 0.27000 0.95432
 N1642 N 0.19813 0.27871 0.94071
 N1643 N 0.16932 0.80971 0.37818
 C1644 C 0.17953 0.81981 0.39016
 N1645 N 0.18165 0.83815 0.38712
 N1646 N 0.17382 0.84614 0.37252
 C1647 C 0.16361 0.83607 0.36042
 N1648 N 0.16150 0.81769 0.36358
 C1649 C 0.18835 0.81110 0.40559
 C1650 C 0.19592 0.80362 0.41839
 C1651 C 0.20510 0.79455 0.43341
 N1652 N 0.22098 0.80156 0.44041
 N1653 N 0.22978 0.79286 0.45402
 C1654 C 0.22301 0.77686 0.46106
 N1655 N 0.20708 0.76991 0.45404
 N1656 N 0.19827 0.77861 0.44044
 N1657 N 0.68146 0.66202 0.61270
 C1658 C 0.67929 0.68036 0.60967
 N1659 N 0.66906 0.69043 0.62166
 N1660 N 0.66125 0.68242 0.63625
 C1661 C 0.66340 0.66405 0.63940
 N1662 N 0.67364 0.65401 0.62729
 C1663 C 0.68811 0.68910 0.59425
 C1664 C 0.69567 0.69659 0.58146
 C1665 C 0.70486 0.70567 0.56645
 N1666 N 0.69802 0.72160 0.55940
 N1667 N 0.70684 0.73031 0.54580
 C1668 C 0.72279 0.72337 0.53881
 N1669 N 0.72957 0.70739 0.54587
 N1670 N 0.72075 0.69869 0.55947
 N1671 N 0.66930 0.19014 0.12169
 C1672 C 0.67951 0.18004 0.10971
 N1673 N 0.68165 0.16171 0.11274
 N1674 N 0.67383 0.15372 0.12735
 C1675 C 0.66361 0.16378 0.13945
 N1676 N 0.66149 0.18215 0.13630
 C1677 C 0.68831 0.18877 0.09426
 C1678 C 0.69585 0.19626 0.08146
 C1679 C 0.70498 0.20537 0.06643
 N1680 N 0.72086 0.19842 0.05939
 N1681 N 0.72962 0.20716 0.04578
 C1682 C 0.72279 0.22315 0.03877
 N1683 N 0.70685 0.23004 0.04583
 N1684 N 0.69810 0.22130 0.05944
 N1685 N 0.19065 0.66922 0.12165
 C1686 C 0.18058 0.67944 0.10965
 N1687 N 0.16224 0.68159 0.11265
 N1688 N 0.15422 0.67378 0.12724
 C1689 C 0.16425 0.66355 0.13936
 N1690 N 0.18263 0.66141 0.13624
 C1691 C 0.18934 0.68825 0.09423
 C1692 C 0.19684 0.69581 0.08145
 C1693 C 0.20592 0.70500 0.06644
 N1694 N 0.19894 0.72090 0.05946
 N1695 N 0.20765 0.72971 0.04587
 C1696 C 0.22363 0.72292 0.03881
 N1697 N 0.23056 0.70697 0.04580
 N1698 N 0.22185 0.69816 0.05940
 N1699 N 0.19026 0.16952 0.62165
 C1700 C 0.18016 0.17973 0.60968
 N1701 N 0.16182 0.18186 0.61271
 N1702 N 0.15383 0.17403 0.62731
 C1703 C 0.16390 0.16381 0.63941
 N1704 N 0.18228 0.16169 0.63625
 C1705 C 0.18888 0.18855 0.59424
 C1706 C 0.19637 0.19610 0.58144
 C1707 C 0.20548 0.20524 0.56642
 N1708 N 0.19859 0.22119 0.55946
 N1709 N 0.20733 0.22995 0.54585
 C1710 C 0.22326 0.22306 0.53877
 N1711 N 0.23010 0.20707 0.54575
 N1712 N 0.22135 0.19831 0.55935
   
