data_POSCAR
  _audit_creation_date              2014-09-24
  _audit_creation_method            'ToBaCCo'
  _symmetry_space_group_name_H-M    'P1'
  _symmetry_Int_Tables_number       1
  _symmetry_cell_setting            triclinic
  loop_
  _symmetry_equiv_pos_as_xyz
 x,y,z
_cell_length_a 36.7659
_cell_length_b 38.8155
_cell_length_c 45.6537
_cell_angle_alpha 90.124200
_cell_angle_beta 89.885200
_cell_angle_gamma 90.024400
loop_
  _atom_site_label
  _atom_site_type_symbol
  _atom_site_fract_x
  _atom_site_fract_y
  _atom_site_fract_z
Zr1 Zr 0.23994 0.24096 0.29947
 O2 O 0.26947 0.26622 0.33300
 O3 O 0.20175 0.21313 0.32376
 O4 O 0.20595 0.27545 0.32273
 O5 O 0.29835 0.17203 0.28951
 O6 O 0.18168 0.30918 0.28698
 O7 O 0.27108 0.20581 0.32419
 O8 O 0.16490 0.19048 0.28854
 O9 O 0.19341 0.24782 0.27384
 O10 O 0.23404 0.19612 0.27441
 O11 O 0.24981 0.28569 0.27484
 O12 O 0.28899 0.23562 0.27578
 Zr13 Zr 0.24557 0.24213 0.19711
 Zr14 Zr 0.20440 0.29067 0.24762
 Zr15 Zr 0.28100 0.19216 0.24910
 Zr16 Zr 0.18893 0.20389 0.24795
 O17 O 0.33840 0.18826 0.24930
 O18 O 0.13410 0.22073 0.24660
 O19 O 0.23551 0.19703 0.22171
 O20 O 0.19694 0.24706 0.22121
 O21 O 0.25158 0.28711 0.22208
 O22 O 0.29175 0.23507 0.22311
 C23 C 0.17398 0.19555 0.31551
 C24 C 0.29191 0.18073 0.31626
 C25 C 0.18494 0.29992 0.31393
 O26 O 0.14739 0.29503 0.24244
 O27 O 0.19274 0.31468 0.20754
 O28 O 0.21851 0.28053 0.17252
 C29 C 0.19979 0.30699 0.18068
 O30 O 0.32205 0.29458 0.28855
 Zr31 Zr 0.29648 0.27899 0.24897
 O32 O 0.28449 0.27014 0.17323
 O33 O 0.21718 0.34361 0.25181
 O34 O 0.29595 0.33361 0.24936
 O35 O 0.35212 0.26456 0.24851
 O36 O 0.31878 0.29563 0.20883
 C37 C 0.31057 0.28979 0.18186
 O38 O 0.21361 0.22040 0.16323
 O39 O 0.26792 0.13906 0.24976
 O40 O 0.27395 0.20333 0.17364
 O41 O 0.29665 0.16869 0.20951
 O42 O 0.18696 0.14933 0.24960
 O43 O 0.16594 0.18392 0.20875
 C44 C 0.29188 0.17668 0.18243
 H45 H 0.23095 0.17510 0.28638
 H46 H 0.17584 0.24986 0.20799
 H47 H 0.31417 0.23143 0.21148
 H48 H 0.25261 0.30599 0.28781
 H49 H 0.11859 0.20085 0.25202
 H50 H 0.14142 0.31989 0.24368
 H51 H 0.19395 0.35639 0.25013
 H52 H 0.32091 0.34154 0.24465
 H53 H 0.16164 0.14270 0.25453
 H54 H 0.29123 0.12634 0.25108
 H55 H 0.34430 0.16336 0.24874
 H56 H 0.36654 0.28549 0.24407
 H57 H 0.14293 0.17180 0.21341
 H58 H 0.22475 0.22743 0.14434
 H59 H 0.25889 0.25872 0.35195
 H60 H 0.34106 0.31190 0.28416
 Zr61 Zr 0.75575 0.75488 0.29969
 O62 O 0.72542 0.73035 0.33315
 O63 O 0.79444 0.78199 0.32406
 O64 O 0.78874 0.71983 0.32284
 O65 O 0.69901 0.82488 0.28995
 O66 O 0.81236 0.68545 0.28704
 O67 O 0.72561 0.79082 0.32454
 O68 O 0.83180 0.80408 0.28890
 O69 O 0.80226 0.74712 0.27405
 O70 O 0.76266 0.79953 0.27474
 O71 O 0.74512 0.71026 0.27499
 O72 O 0.70688 0.76096 0.27610
 Zr73 Zr 0.75053 0.75353 0.19744
 Zr74 Zr 0.79052 0.70442 0.24772
 Zr75 Zr 0.71588 0.80419 0.24953
 Zr76 Zr 0.80773 0.79092 0.24828
 O77 O 0.65855 0.80905 0.24992
 O78 O 0.86221 0.77310 0.24692
 O79 O 0.76137 0.79852 0.22210
 O80 O 0.79896 0.74786 0.22147
 O81 O 0.74353 0.70867 0.22223
 O82 O 0.70439 0.76142 0.22346
 C83 C 0.82252 0.79918 0.31586
 C84 C 0.70541 0.81630 0.31668
 C85 C 0.80914 0.69489 0.31398
 O86 O 0.84750 0.69901 0.24283
 O87 O 0.80239 0.68045 0.20755
 O88 O 0.77733 0.71500 0.17271
 C89 C 0.79583 0.68843 0.18073
 O90 O 0.67266 0.70260 0.28876
 Zr91 Zr 0.69868 0.71765 0.24919
 O92 O 0.71133 0.72598 0.17349
 O93 O 0.77660 0.65171 0.25149
 O94 O 0.69813 0.66303 0.24955
 O95 O 0.64334 0.73304 0.24875
 O96 O 0.67628 0.70126 0.20902
 C97 C 0.68481 0.70681 0.18207
 O98 O 0.78282 0.77489 0.16356
 O99 O 0.72990 0.85709 0.25013
 O100 O 0.72279 0.79254 0.17412
 O101 O 0.70073 0.82771 0.21006
 O102 O 0.81076 0.84545 0.24997
 O103 O 0.83128 0.81038 0.20911
 C104 C 0.70532 0.81945 0.18299
 H105 H 0.76616 0.82055 0.28674
 H106 H 0.82009 0.74472 0.20826
 H107 H 0.68206 0.76538 0.21186
 H108 H 0.74186 0.69004 0.28792
 H109 H 0.87809 0.79272 0.25237
 H110 H 0.85294 0.67404 0.24397
 H111 H 0.79958 0.63851 0.24983
 H112 H 0.67305 0.65553 0.24481
 H113 H 0.83618 0.85165 0.25490
 H114 H 0.70683 0.87020 0.25152
 H115 H 0.65312 0.83405 0.24941
 H116 H 0.62854 0.71235 0.24427
 H117 H 0.85454 0.82202 0.21376
 H118 H 0.77167 0.76798 0.14466
 H119 H 0.73607 0.73764 0.35213
 H120 H 0.65326 0.68568 0.28434
 Zr121 Zr 0.75201 0.25539 -0.30215
 O122 O 0.72161 0.27790 -0.33650
 O123 O 0.79179 0.22794 -0.32572
 O124 O 0.78269 0.29238 -0.32566
 O125 O 0.69517 0.18523 -0.29138
 O126 O 0.80666 0.32666 -0.28996
 O127 O 0.72228 0.21842 -0.32644
 O128 O 0.82776 0.20596 -0.28973
 O129 O 0.79837 0.26349 -0.27642
 O130 O 0.75827 0.21126 -0.27640
 O131 O 0.74125 0.30037 -0.27776
 O132 O 0.70284 0.25013 -0.27846
 Zr133 Zr 0.74585 0.25839 -0.19996
 Zr134 Zr 0.78650 0.30664 -0.25048
 Zr135 Zr 0.71111 0.20722 -0.25130
 Zr136 Zr 0.80306 0.22009 -0.24984
 O137 O 0.65380 0.20254 -0.25293
 O138 O 0.85771 0.23748 -0.24831
 O139 O 0.75638 0.21282 -0.22377
 O140 O 0.79453 0.26362 -0.22374
 O141 O 0.73933 0.30305 -0.22505
 O142 O 0.69984 0.25062 -0.22600
 C143 C 0.81934 0.21040 -0.31682
 C144 C 0.70205 0.19301 -0.31823
 C145 C 0.80211 0.31815 -0.31696
 O146 O 0.84366 0.31141 -0.24694
 O147 O 0.79918 0.33035 -0.21029
 O148 O 0.77305 0.29656 -0.17532
 C149 C 0.79233 0.32261 -0.18341
 O150 O 0.66887 0.30864 -0.29172
 Zr151 Zr 0.69461 0.29397 -0.25201
 O152 O 0.70760 0.28677 -0.17632
 O153 O 0.77292 0.35948 -0.25346
 O154 O 0.69460 0.34858 -0.25299
 O155 O 0.63910 0.27905 -0.25152
 O156 O 0.67224 0.31105 -0.21175
 C157 C 0.68113 0.30580 -0.18481
 O158 O 0.77738 0.23591 -0.16627
 O159 O 0.72507 0.15437 -0.25010
 O160 O 0.71521 0.22205 -0.17604
 O161 O 0.69353 0.18585 -0.21133
 O162 O 0.80596 0.16552 -0.25097
 O163 O 0.82561 0.20121 -0.21015
 C164 C 0.69661 0.19568 -0.18446
 H165 H 0.76194 0.18999 -0.28803
 H166 H 0.81561 0.26675 -0.21054
 H167 H 0.67714 0.24739 -0.21466
 H168 H 0.73785 0.32049 -0.29076
 H169 H 0.87352 0.21758 -0.25311
 H170 H 0.84927 0.33637 -0.24765
 H171 H 0.79598 0.37257 -0.25186
 H172 H 0.66964 0.35632 -0.24810
 H173 H 0.83156 0.15915 -0.25515
 H174 H 0.70198 0.14126 -0.25130
 H175 H 0.64816 0.17762 -0.25161
 H176 H 0.62454 0.29987 -0.24697
 H177 H 0.84894 0.18946 -0.21436
 H178 H 0.76663 0.24334 -0.14733
 H179 H 0.73278 0.27026 -0.35523
 H180 H 0.64968 0.32584 -0.28746
 Zr181 Zr 0.25163 0.75042 -0.30087
 O182 O 0.28210 0.72869 -0.33572
 O183 O 0.21229 0.77859 -0.32432
 O184 O 0.22171 0.71347 -0.32521
 O185 O 0.30629 0.82149 -0.28803
 O186 O 0.19801 0.67801 -0.29029
 O187 O 0.28314 0.78732 -0.32399
 O188 O 0.17442 0.79777 -0.28840
 O189 O 0.20489 0.74107 -0.27573
 O190 O 0.24396 0.79394 -0.27447
 O191 O 0.26259 0.70517 -0.27701
 O192 O 0.30009 0.75583 -0.27640
 Zr193 Zr 0.25558 0.74562 -0.19840
 Zr194 Zr 0.21693 0.69770 -0.25027
 Zr195 Zr 0.29038 0.79808 -0.24866
 Zr196 Zr 0.19882 0.78387 -0.24849
 O197 O 0.34762 0.80371 -0.24990
 O198 O 0.14445 0.76562 -0.24757
 O199 O 0.24470 0.79137 -0.22169
 O200 O 0.20757 0.74011 -0.22294
 O201 O 0.26337 0.70151 -0.22419
 O202 O 0.30197 0.75445 -0.22388
 C203 C 0.18371 0.79498 -0.31555
 C204 C 0.30193 0.81357 -0.31522
 C205 C 0.20273 0.68714 -0.31711
 O206 O 0.15980 0.69195 -0.24739
 O207 O 0.20398 0.67296 -0.21058
 O208 O 0.22736 0.70718 -0.17476
 C209 C 0.20898 0.68068 -0.18336
 O210 O 0.33555 0.69841 -0.29018
 Zr211 Zr 0.30849 0.71167 -0.25055
 O212 O 0.29335 0.71667 -0.17488
 O213 O 0.23149 0.64514 -0.25403
 O214 O 0.30939 0.65711 -0.25285
 O215 O 0.36372 0.72735 -0.24884
 O216 O 0.32987 0.69363 -0.21034
 C217 C 0.32012 0.69792 -0.18342
 O218 O 0.22351 0.76746 -0.16456
 O219 O 0.27539 0.85064 -0.24636
 O220 O 0.28566 0.78194 -0.17366
 O221 O 0.30696 0.81902 -0.20834
 O222 O 0.19503 0.83840 -0.24906
 O223 O 0.17512 0.80194 -0.20883
 C224 C 0.30394 0.80872 -0.18165
 H225 H 0.24028 0.81536 -0.28580
 H226 H 0.18618 0.73648 -0.21011
 H227 H 0.32439 0.75770 -0.21225
 H228 H 0.26660 0.68534 -0.29030
 H229 H 0.12835 0.78533 -0.25220
 H230 H 0.15466 0.66691 -0.24852
 H231 H 0.20864 0.63165 -0.25283
 H232 H 0.33434 0.64957 -0.24779
 H233 H 0.16945 0.84442 -0.25356
 H234 H 0.29821 0.86420 -0.24723
 H235 H 0.35281 0.82868 -0.24810
 H236 H 0.37847 0.70663 -0.24445
 H237 H 0.15182 0.81364 -0.21315
 H238 H 0.23399 0.75970 -0.14568
 H239 H 0.27120 0.73702 -0.35428
 H240 H 0.35501 0.68149 -0.28600
 Zr241 Zr 1.25610 1.25531 0.79940
 O242 O 1.22538 1.23127 0.83290
 O243 O 1.29521 1.28190 0.82372
 O244 O 1.28863 1.21992 0.82261
 O245 O 1.20046 1.32607 0.78959
 O246 O 1.31178 1.18520 0.78686
 O247 O 1.22668 1.29181 0.82421
 O248 O 1.33283 1.30353 0.78853
 O249 O 1.30248 1.24690 0.77376
 O250 O 1.26366 1.29981 0.77439
 O251 O 1.24480 1.21078 0.77479
 O252 O 1.20730 1.26200 0.77585
 Zr253 Zr 1.25078 1.25389 0.69720
 Zr254 Zr 1.29010 1.20430 0.74751
 Zr255 Zr 1.21691 1.30505 0.74921
 Zr256 Zr 1.30858 1.29057 0.74794
 O257 O 1.15967 1.31064 0.74967
 O258 O 1.36279 1.27200 0.74661
 O259 O 1.26231 1.29877 0.72178
 O260 O 1.29915 1.24758 0.72120
 O261 O 1.24316 1.20917 0.72205
 O262 O 1.20476 1.26239 0.72321
 C263 C 1.32349 1.29877 0.81550
 C264 C 1.20685 1.31753 0.81632
 C265 C 1.30874 1.19475 0.81378
 O266 O 1.34697 1.19809 0.74251
 O267 O 1.30142 1.18006 0.70736
 O268 O 1.27694 1.21500 0.67252
 C269 C 1.29495 1.18815 0.68054
 O270 O 1.17216 1.20426 0.78862
 Zr271 Zr 1.19845 1.21874 0.74901
 O272 O 1.21131 1.22668 0.67330
 O273 O 1.27543 1.15179 0.75145
 O274 O 1.19707 1.16413 0.74959
 O275 O 1.14332 1.23480 0.74840
 O276 O 1.17598 1.20236 0.70884
 C277 C 1.18465 1.20771 0.68189
 O278 O 1.28336 1.27483 0.66332
 O279 O 1.23168 1.35777 0.74970
 O280 O 1.22350 1.29313 0.67383
 O281 O 1.20203 1.32868 0.70972
 O282 O 1.31246 1.34506 0.74954
 O283 O 1.33240 1.30962 0.70872
 C284 C 1.20641 1.32028 0.68267
 H285 H 1.26749 1.32081 0.78634
 H286 H 1.32022 1.24414 0.70797
 H287 H 1.18249 1.26658 0.71160
 H288 H 1.24126 1.19064 0.78776
 H289 H 1.37896 1.29142 0.75203
 H290 H 1.35203 1.17306 0.74368
 H291 H 1.29821 1.13829 0.74977
 H292 H 1.17188 1.15695 0.74487
 H293 H 1.33798 1.35092 0.75442
 H294 H 1.20880 1.37117 0.75107
 H295 H 1.15459 1.33570 0.74911
 H296 H 1.12826 1.21427 0.74395
 H297 H 1.35585 1.32092 0.71334
 H298 H 1.27213 1.26802 0.64442
 H299 H 1.23615 1.23845 0.85186
 H300 H 1.15249 1.18761 0.78424
 Zr301 Zr 0.73988 0.74104 0.79956
 O302 O 0.76949 0.76614 0.83313
 O303 O 0.70147 0.71344 0.82378
 O304 O 0.70600 0.77563 0.82280
 O305 O 0.79792 0.67184 0.78968
 O306 O 0.68195 0.80948 0.78702
 O307 O 0.77070 0.70570 0.82432
 O308 O 0.66456 0.69099 0.78852
 O309 O 0.69344 0.74808 0.77386
 O310 O 0.73382 0.69622 0.77449
 O311 O 0.75001 0.78573 0.77497
 O312 O 0.78896 0.73549 0.77595
 Zr313 Zr 0.74577 0.74219 0.69722
 Zr314 Zr 0.70469 0.79090 0.74768
 Zr315 Zr 0.78082 0.69207 0.74925
 Zr316 Zr 0.68882 0.70418 0.74796
 O317 O 0.83821 0.68791 0.74961
 O318 O 0.63407 0.72122 0.74644
 O319 O 0.73543 0.69711 0.72179
 O320 O 0.69711 0.74732 0.72126
 O321 O 0.75191 0.78715 0.72221
 O322 O 0.79184 0.73495 0.72331
 C323 C 0.67359 0.69605 0.81550
 C324 C 0.79143 0.68053 0.81643
 C325 C 0.68510 0.80018 0.81397
 O326 O 0.64771 0.79549 0.74244
 O327 O 0.69319 0.81492 0.70761
 O328 O 0.71884 0.78065 0.67262
 C329 C 0.70020 0.80716 0.68076
 O330 O 0.82225 0.79430 0.78881
 Zr331 Zr 0.79671 0.77884 0.74918
 O332 O 0.78486 0.77006 0.67342
 O333 O 0.71771 0.84378 0.75188
 O334 O 0.79642 0.83347 0.74957
 O335 O 0.85229 0.76421 0.74881
 O336 O 0.81919 0.79539 0.70908
 C337 C 0.81101 0.78960 0.68210
 O338 O 0.71385 0.72055 0.66328
 O339 O 0.76746 0.63903 0.74982
 O340 O 0.77412 0.70332 0.67379
 O341 O 0.79660 0.66860 0.70969
 O342 O 0.68657 0.64962 0.74968
 O343 O 0.66589 0.68426 0.70872
 C344 C 0.79199 0.67665 0.68261
 H345 H 0.73057 0.67521 0.78646
 H346 H 0.67605 0.75020 0.70800
 H347 H 0.81429 0.73123 0.71172
 H348 H 0.75287 0.80602 0.78796
 H349 H 0.61845 0.70140 0.75184
 H350 H 0.64186 0.82038 0.74367
 H351 H 0.69455 0.85666 0.75018
 H352 H 0.82143 0.84129 0.74491
 H353 H 0.66120 0.64313 0.75457
 H354 H 0.79070 0.62620 0.75120
 H355 H 0.84399 0.66298 0.74908
 H356 H 0.86681 0.78509 0.74441
 H357 H 0.64284 0.67220 0.71333
 H358 H 0.72506 0.72756 0.64442
 H359 H 0.75883 0.75869 0.85207
 H360 H 0.84132 0.81158 0.78446
 Zr361 Zr 1.25195 0.75584 0.19777
 O362 O 1.22129 0.77832 0.16355
 O363 O 1.29190 0.72883 0.17404
 O364 O 1.28228 0.79314 0.17437
 O365 O 1.19581 0.68516 0.20825
 O366 O 1.30598 0.82748 0.21013
 O367 O 1.22258 0.71880 0.17335
 O368 O 1.32815 0.70695 0.20989
 O369 O 1.29828 0.76418 0.22346
 O370 O 1.25866 0.71162 0.22333
 O371 O 1.24081 0.80061 0.22232
 O372 O 1.20286 0.75003 0.22145
 Zr373 Zr 1.24593 0.75819 0.29989
 Zr374 Zr 1.28605 0.80710 0.24957
 Zr375 Zr 1.21155 0.70703 0.24843
 Zr376 Zr 1.30341 0.72067 0.24987
 O377 O 1.15429 0.70186 0.24677
 O378 O 1.35790 0.73852 0.25140
 O379 O 1.25683 0.71283 0.27593
 O380 O 1.29452 0.76400 0.27613
 O381 O 1.23895 0.80294 0.27501
 O382 O 1.19993 0.75021 0.27388
 C383 C 1.31960 0.71143 0.18283
 C384 C 1.20261 0.69318 0.18145
 C385 C 1.30146 0.81903 0.18312
 O386 O 1.34316 0.81234 0.25313
 O387 O 1.29841 0.83072 0.28986
 O388 O 1.27262 0.79648 0.32467
 C389 C 1.29158 0.82277 0.31670
 O390 O 1.16832 0.80827 0.20843
 Zr391 Zr 1.19426 0.79366 0.24807
 O392 O 1.20750 0.78607 0.32370
 O393 O 1.27200 0.85985 0.24677
 O394 O 1.19375 0.84828 0.24727
 O395 O 1.13888 0.77834 0.24860
 O396 O 1.17189 0.81038 0.28845
 C397 C 1.18090 0.80502 0.31535
 O398 O 1.27777 0.73577 0.33342
 O399 O 1.22601 0.65429 0.24946
 O400 O 1.21562 0.72155 0.32371
 O401 O 1.19409 0.68538 0.28834
 O402 O 1.30688 0.66614 0.24851
 O403 O 1.32617 0.70179 0.28947
 C404 C 1.19712 0.69514 0.31523
 H405 H 1.26250 0.69044 0.21161
 H406 H 1.31558 0.76724 0.28933
 H407 H 1.17727 0.74676 0.28524
 H408 H 1.23721 0.82076 0.20939
 H409 H 1.37389 0.71877 0.24650
 H410 H 1.34853 0.83735 0.25253
 H411 H 1.29495 0.87311 0.24843
 H412 H 1.16872 0.85579 0.25222
 H413 H 1.33255 0.66003 0.24433
 H414 H 1.20304 0.64101 0.24820
 H415 H 1.14889 0.67689 0.24798
 H416 H 1.12416 0.79904 0.25326
 H417 H 1.34964 0.69030 0.28522
 H418 H 1.26700 0.74298 0.35241
 H419 H 1.23248 0.77089 0.14477
 H420 H 1.14900 0.82532 0.21276
 Zr421 Zr 0.75238 1.24863 0.19903
 O422 O 0.78278 1.22610 0.16450
 O423 O 0.71279 1.27642 0.17569
 O424 O 0.72165 1.21195 0.17522
 O425 O 0.81006 1.31808 0.21023
 O426 O 0.69708 1.17772 0.21063
 O427 O 0.78249 1.28549 0.17498
 O428 O 0.67699 1.29867 0.21187
 O429 O 0.70580 1.24093 0.22472
 O430 O 0.74656 1.29270 0.22508
 O431 O 0.76249 1.20343 0.22314
 O432 O 0.80152 1.25316 0.22274
 Zr433 Zr 0.75811 1.24509 0.30129
 Zr434 Zr 0.71701 1.19753 0.25035
 Zr435 Zr 0.79370 1.29604 0.25017
 Zr436 Zr 0.70158 1.28426 0.25163
 O437 O 0.85108 1.29996 0.24850
 O438 O 0.64669 1.26755 0.25326
 O439 O 0.74826 1.29085 0.27772
 O440 O 0.70948 1.24052 0.27743
 O441 O 0.76409 1.20049 0.27583
 O442 O 0.80432 1.25242 0.27526
 C443 C 0.68530 1.29409 0.18473
 C444 C 0.80305 1.31060 0.18334
 C445 C 0.70202 1.18624 0.18368
 O446 O 0.65976 1.19348 0.25371
 O447 O 0.70373 1.17380 0.29038
 O448 O 0.73007 1.20716 0.32562
 C449 C 0.71051 1.18134 0.31733
 O450 O 0.83497 1.19454 0.20914
 Zr451 Zr 0.80908 1.20913 0.24894
 O452 O 0.79567 1.21582 0.32472
 O453 O 0.72992 1.14453 0.24716
 O454 O 0.80841 1.15454 0.24728
 O455 O 0.86476 1.22341 0.24980
 O456 O 0.83072 1.19117 0.28908
 C457 C 0.82169 1.19623 0.31607
 O458 O 0.72687 1.26784 0.33520
 O459 O 0.78045 1.34905 0.25176
 O460 O 0.78924 1.28112 0.32537
 O461 O 0.81142 1.31711 0.29019
 O462 O 0.69943 1.33886 0.25075
 O463 O 0.67925 1.30330 0.29148
 C464 C 0.80820 1.30733 0.31702
 H465 H 0.74316 1.31404 0.21359
 H466 H 0.68828 1.23759 0.29059
 H467 H 0.82700 1.25527 0.28666
 H468 H 0.76574 1.18333 0.21001
 H469 H 0.63114 1.28766 0.24865
 H470 H 0.65381 1.16860 0.25280
 H471 H 0.70667 1.13171 0.24859
 H472 H 0.83324 1.14644 0.25210
 H473 H 0.67393 1.34554 0.24664
 H474 H 0.80372 1.36189 0.25058
 H475 H 0.85708 1.32480 0.24995
 H476 H 0.87900 1.20239 0.25425
 H477 H 0.65615 1.31547 0.28739
 H478 H 0.73747 1.26015 0.35406
 H479 H 0.77179 1.23392 0.14583
 H480 H 0.85405 1.17723 0.21328
 O481 O 0.46686 1.04704 0.03998
 O482 O 0.53287 0.95615 0.04142
 O483 O 0.42622 0.96772 0.01012
 O484 O 0.57784 1.02742 0.01442
 O485 O 0.46862 0.96081 0.04101
 O486 O 0.53528 1.05683 0.03750
 O487 O 0.57526 0.96340 0.01058
 O488 O 0.42461 1.03023 0.01023
 C489 C 0.43407 1.04198 0.03487
 C490 C 0.56565 0.95571 0.03590
 C491 C 0.43580 0.96034 0.03559
 C492 C 0.56767 1.04749 0.03471
 O493 O 0.52983 1.07325 -0.01804
 O494 O 0.46603 0.92918 -0.01272
 O495 O 0.45402 1.02985 -0.04487
 O496 O 0.54950 0.96824 -0.04358
 O497 O 0.53205 0.92795 -0.01400
 O498 O 0.46230 1.07083 -0.01477
 O499 O 0.56033 1.03261 -0.04101
 O500 O 0.45939 0.96921 -0.04366
 Co501 Co 0.49852 1.05594 0.01009
 Co502 Co 0.49997 0.94825 0.01257
 Co503 Co 0.44601 0.99927 -0.01569
 Co504 Co 0.55938 0.99791 -0.01370
 O505 O 0.50139 1.00081 -0.00162
 C506 C 0.55065 1.06331 -0.03846
 C507 C 0.45788 0.93821 -0.03814
 C508 C 0.45362 1.06104 -0.03988
 C509 C 0.54408 0.93715 -0.03875
 O510 O 0.96755 0.54718 0.54016
 O511 O 1.03369 0.45652 0.54142
 O512 O 0.92679 0.46759 0.51042
 O513 O 1.07837 0.52793 0.51374
 O514 O 0.96935 0.46100 0.54119
 O515 O 1.03602 0.55705 0.53730
 O516 O 1.07587 0.46389 0.51035
 O517 O 0.92510 0.53015 0.51065
 C518 C 0.93472 0.54204 0.53521
 C519 C 1.06645 0.45626 0.53573
 C520 C 0.93651 0.46021 0.53585
 C521 C 1.06844 0.54798 0.53410
 O522 O 1.03006 0.57335 0.48176
 O523 O 0.96673 0.42926 0.48747
 O524 O 0.95400 0.52989 0.45539
 O525 O 1.04956 0.46825 0.45626
 O526 O 1.03271 0.42809 0.48616
 O527 O 0.96252 0.57087 0.48545
 O528 O 1.06019 0.53269 0.45846
 O529 O 0.95950 0.46923 0.45650
 Co530 Co 0.99899 0.55606 0.51009
 Co531 Co 1.00065 0.44843 0.51271
 Co532 Co 0.94632 0.49925 0.48459
 Co533 Co 1.05967 0.49815 0.48593
 O534 O 1.00182 0.50092 0.49839
 C535 C 1.05060 0.56341 0.46114
 C536 C 0.95857 0.43820 0.46202
 C537 C 0.95374 0.56108 0.46037
 C538 C 1.04442 0.43717 0.46129
 O539 O 1.02428 0.46145 0.05596
 O540 O 1.02257 0.54286 -0.05708
 O541 O 1.03084 0.43754 -0.03284
 O542 O 1.03033 0.56695 0.03128
 O543 O 1.04775 0.48587 -0.05067
 O544 O 1.04798 0.51916 0.04970
 O545 O 1.04653 0.56084 -0.01840
 O546 O 1.04674 0.44292 0.01654
 C547 C 1.04948 0.44624 0.04327
 C548 C 1.04879 0.55711 -0.04513
 C549 C 1.05365 0.45479 -0.04705
 C550 C 1.05322 0.55035 0.04588
 O551 O 0.98035 0.54327 0.05565
 O552 O 0.98081 0.46034 -0.05651
 O553 O 0.97406 0.43739 0.03211
 O554 O 0.97280 0.56607 -0.03313
 O555 O 0.95564 0.51745 -0.05029
 O556 O 0.95651 0.48537 0.05042
 O557 O 0.95744 0.56118 0.01637
 O558 O 0.95742 0.44276 -0.01743
 Co559 Co 1.00224 0.50229 0.04755
 Co560 Co 1.00172 0.50167 -0.04833
 Co561 Co 1.00218 0.44598 -0.00047
 Co562 Co 1.00188 0.55794 -0.00097
 O563 O 1.00199 0.50197 -0.00051
 C564 C 0.95467 0.55766 0.04307
 C565 C 0.95478 0.44630 -0.04412
 C566 C 0.95135 0.45409 0.04691
 C567 C 0.94987 0.54864 -0.04707
 O568 O 0.52286 0.96075 0.55685
 O569 O 0.52251 1.04144 0.44394
 O570 O 0.52852 0.93596 0.46809
 O571 O 0.52891 1.06619 0.53237
 O572 O 0.54635 0.98410 0.45046
 O573 O 0.54676 1.01842 0.55050
 O574 O 0.54581 1.05947 0.48295
 O575 O 0.54465 0.94132 0.51746
 C576 C 0.54777 0.94516 0.54411
 C577 C 0.54848 1.05570 0.45626
 C578 C 0.55162 0.95288 0.45388
 C579 C 0.55192 1.04964 0.54684
 O580 O 0.47882 1.04261 0.55626
 O581 O 0.47888 0.95972 0.44458
 O582 O 0.47204 0.93656 0.53332
 O583 O 0.47272 1.06555 0.46734
 O584 O 0.45480 1.01712 0.45055
 O585 O 0.45525 0.98489 0.55145
 O586 O 0.45635 1.06047 0.51676
 O587 O 0.45530 0.94208 0.48363
 Co588 Co 0.50094 1.00164 0.54844
 Co589 Co 0.50061 1.00067 0.45266
 Co590 Co 0.50010 0.94489 0.50056
 Co591 Co 0.50097 1.05703 0.49987
 O592 O 0.50064 1.00105 0.50043
 C593 C 0.45323 1.05688 0.54342
 C594 C 0.45268 0.94590 0.45696
 C595 C 0.44990 0.95360 0.54842
 C596 C 0.44956 1.04841 0.45344
 O597 O 1.06114 1.03889 0.48761
 O598 O 0.93659 1.03985 0.52369
 O599 O 0.98408 1.04132 0.45596
 O600 O 1.01481 1.04179 0.55656
 O601 O 0.93220 1.02766 0.47442
 O602 O 1.06584 1.02655 0.53743
 O603 O 0.95420 1.01693 0.56247
 O604 O 1.04348 1.01413 0.44985
 C605 C 1.05766 1.03978 0.46087
 C606 C 0.94005 1.04197 0.55034
 C607 C 0.95144 1.04810 0.45958
 C608 C 1.04746 1.04791 0.55204
 O609 O 1.06033 0.95587 0.52449
 O610 O 0.93620 0.95617 0.48762
 O611 O 1.01363 0.95319 0.45652
 O612 O 0.98182 0.95456 0.55686
 O613 O 0.93098 0.96938 0.53730
 O614 O 1.06523 0.96723 0.47516
 O615 O 1.04234 0.97945 0.56303
 O616 O 0.95435 0.98024 0.44972
 Co617 Co 1.05735 0.99727 0.50614
 Co618 Co 0.93977 0.99814 0.50577
 Co619 Co 0.99885 0.99727 0.45829
 Co620 Co 0.99832 0.99814 0.55440
 O621 O 0.99857 0.99772 0.50621
 C622 C 1.05703 0.95437 0.55120
 C623 C 0.93994 0.95484 0.46091
 C624 C 1.04619 0.94648 0.46048
 C625 C 0.94924 0.94832 0.55219
 O626 O 0.55996 0.53986 -0.01265
 O627 O 0.43538 0.54035 0.02326
 O628 O 0.48269 0.54216 -0.04432
 O629 O 0.51376 0.54230 0.05627
 O630 O 0.43089 0.52813 -0.02598
 O631 O 0.56477 0.52711 0.03713
 O632 O 0.45314 0.51745 0.06202
 O633 O 0.54222 0.51534 -0.05052
 C634 C 0.55634 0.54094 -0.03937
 C635 C 0.43900 0.54251 0.04990
 C636 C 0.45002 0.54877 -0.04070
 C637 C 0.54642 0.54841 0.05179
 O638 O 0.55941 0.45664 0.02384
 O639 O 0.43526 0.45668 -0.01280
 O640 O 0.51279 0.45416 -0.04409
 O641 O 0.48076 0.45504 0.05628
 O642 O 0.42988 0.46991 0.03689
 O643 O 0.56434 0.46838 -0.02548
 O644 O 0.54123 0.47986 0.06253
 O645 O 0.45333 0.48088 -0.05067
 Co646 Co 0.55630 0.49812 0.00567
 Co647 Co 0.43865 0.49865 0.00535
 Co648 Co 0.49773 0.49816 -0.04214
 Co649 Co 0.49725 0.49864 0.05395
 O650 O 0.49749 0.49840 0.00577
 C651 C 0.55606 0.45495 0.05055
 C652 C 0.43913 0.45535 -0.03950
 C653 C 0.54541 0.44762 -0.04023
 C654 C 0.44817 0.44881 0.05169
 C655 C 0.34498 1.11155 0.11918
 C656 C 0.35366 1.10868 0.14898
 C657 C 0.33557 1.12956 0.16938
 C658 C 0.30931 1.15380 0.16028
 C659 C 0.30073 1.15618 0.13023
 C660 C 0.31844 1.13498 0.10958
 C661 C 0.36502 1.09047 0.09753
 C662 C 0.35701 1.09380 0.06760
 C663 C 0.37781 1.07530 0.04698
 C664 C 0.40712 1.05470 0.05626
 C665 C 0.41404 1.05088 0.08636
 C666 C 0.39297 1.06856 0.10711
 C667 C 0.31068 1.13707 0.07949
 C668 C 0.32953 1.11678 0.05888
 C669 C 0.38087 1.08552 0.15778
 C670 C 0.40031 1.06592 0.13719
 H671 H 0.29017 1.15487 0.07174
 H672 H 0.32307 1.11965 0.03587
 H673 H 0.38772 1.08303 0.18075
 H674 H 0.42167 1.04897 0.14485
 H675 H 0.34270 1.12745 0.19233
 H676 H 0.28051 1.17456 0.12292
 H677 H 0.37289 1.07879 0.02377
 H678 H 0.43673 1.03516 0.09349
 C679 C 0.84553 0.61167 0.61948
 C680 C 0.85431 0.60901 0.64927
 C681 C 0.83608 0.62983 0.66963
 C682 C 0.80956 0.65381 0.66050
 C683 C 0.80090 0.65600 0.63045
 C684 C 0.81875 0.63483 0.60985
 C685 C 0.86568 0.59062 0.59787
 C686 C 0.85752 0.59370 0.56794
 C687 C 0.87837 0.57521 0.54736
 C688 C 0.90787 0.55484 0.55664
 C689 C 0.91496 0.55128 0.58674
 C690 C 0.89384 0.56896 0.60748
 C691 C 0.81088 0.63670 0.57976
 C692 C 0.82983 0.61643 0.55920
 C693 C 0.88176 0.58611 0.65811
 C694 C 0.90131 0.56655 0.63755
 H695 H 0.79019 0.65430 0.57199
 H696 H 0.82326 0.61912 0.53619
 H697 H 0.88870 0.58380 0.68107
 H698 H 0.92284 0.54981 0.64523
 H699 H 0.84328 0.62789 0.69258
 H700 H 0.78050 0.67417 0.62312
 H701 H 0.87330 0.57849 0.52414
 H702 H 0.93777 0.53573 0.59388
 C703 C 0.65252 0.88413 0.12002
 C704 C 0.67910 0.86068 0.11036
 C705 C 0.69677 0.83964 0.13095
 C706 C 0.68811 0.84225 0.16098
 C707 C 0.66185 0.86650 0.17017
 C708 C 0.64380 0.88722 0.14983
 C709 C 0.63258 0.90508 0.09846
 C710 C 0.60473 0.92715 0.10811
 C711 C 0.58403 0.94506 0.08743
 C712 C 0.59121 0.94122 0.05735
 C713 C 0.62030 0.92028 0.04800
 C714 C 0.64076 0.90164 0.06853
 C715 C 0.61660 0.91042 0.15872
 C716 C 0.59727 0.92996 0.13819
 C717 C 0.68696 0.85840 0.08027
 C718 C 0.66821 0.87861 0.05972
 H719 H 0.60973 0.91304 0.18171
 H720 H 0.57597 0.94703 0.14589
 H721 H 0.70749 0.84056 0.07250
 H722 H 0.67477 0.87568 0.03671
 H723 H 0.71700 0.82122 0.12361
 H724 H 0.65469 0.86873 0.19314
 H725 H 0.56167 0.96124 0.09462
 H726 H 0.62557 0.91697 0.02479
 C727 C 1.15387 0.38510 0.61968
 C728 C 1.18001 0.36125 0.60998
 C729 C 1.19766 0.34020 0.63058
 C730 C 1.18939 0.34319 0.66065
 C731 C 1.16361 0.36788 0.66988
 C732 C 1.14558 0.38861 0.64954
 C733 C 1.13387 0.40600 0.59812
 C734 C 1.10637 0.42845 0.60784
 C735 C 1.08553 0.44626 0.58719
 C736 C 1.09224 0.44195 0.55708
 C737 C 1.12101 0.42068 0.54765
 C738 C 1.14158 0.40212 0.56815
 C739 C 1.11878 0.41221 0.65848
 C740 C 1.09938 0.43170 0.63795
 C741 C 1.18745 0.35855 0.57985
 C742 C 1.16865 0.37871 0.55930
 H743 H 1.11225 0.41516 0.68150
 H744 H 1.07838 0.44907 0.64569
 H745 H 1.20765 0.34039 0.57204
 H746 H 1.17484 0.37545 0.53625
 H747 H 1.21752 0.32145 0.62321
 H748 H 1.15676 0.37042 0.69289
 H749 H 1.06341 0.46269 0.59443
 H750 H 1.12589 0.41701 0.52442
 C751 C 0.62957 1.14263 -0.12227
 C752 C 0.64805 1.17253 -0.11343
 C753 C 0.67100 1.18936 -0.13350
 C754 C 0.67536 1.17640 -0.16222
 C755 C 0.65681 1.14612 -0.17045
 C756 C 0.63391 1.12921 -0.15064
 C757 C 0.60564 1.12466 -0.10131
 C758 C 0.58806 1.09426 -0.11010
 C759 C 0.56749 1.07593 -0.08965
 C760 C 0.56467 1.08748 -0.06051
 C761 C 0.58085 1.11887 -0.05224
 C762 C 0.60183 1.13748 -0.07263
 C763 C 0.61518 1.09915 -0.15876
 C764 C 0.59266 1.08193 -0.13879
 C765 C 0.64304 1.18502 -0.08475
 C766 C 0.62038 1.16776 -0.06469
 H767 H 0.61823 1.08866 -0.18064
 H768 H 0.57916 1.05849 -0.14575
 H769 H 0.65700 1.20815 -0.07766
 H770 H 0.61776 1.17797 -0.04268
 H771 H 0.68481 1.21280 -0.12693
 H772 H 0.65978 1.13583 -0.19242
 H773 H 0.55507 1.05167 -0.09597
 H774 H 0.57918 1.12746 -0.02967
 C775 C 1.12979 0.64238 0.37737
 C776 C 1.14869 0.67201 0.38629
 C777 C 1.17176 0.68868 0.36623
 C778 C 1.17585 0.67586 0.33744
 C779 C 1.15689 0.64583 0.32914
 C780 C 1.13385 0.62907 0.34893
 C781 C 1.10570 0.62459 0.39831
 C782 C 1.08769 0.59445 0.38945
 C783 C 1.06701 0.57622 0.40990
 C784 C 1.06452 0.58762 0.43910
 C785 C 1.08111 0.61879 0.44744
 C786 C 1.10219 0.63728 0.42706
 C787 C 1.11469 0.59929 0.34074
 C788 C 1.09202 0.58222 0.36070
 C789 C 1.14396 0.68439 0.41503
 C790 C 1.12118 0.66729 0.43507
 H791 H 1.11751 0.58889 0.31881
 H792 H 1.07818 0.55898 0.35368
 H793 H 1.15826 0.70732 0.42218
 H794 H 1.11879 0.67739 0.45713
 H795 H 1.18588 0.71194 0.37286
 H796 H 1.15962 0.63566 0.30711
 H797 H 1.05428 0.55212 0.40353
 H798 H 1.07970 0.62724 0.47006
 C799 C 0.37228 0.86126 -0.11998
 C800 C 0.35229 0.83248 -0.11057
 C801 C 0.32875 0.81587 -0.13038
 C802 C 0.32522 0.82803 -0.15937
 C803 C 0.34507 0.85743 -0.16803
 C804 C 0.36871 0.87393 -0.14858
 C805 C 0.39725 0.87870 -0.09948
 C806 C 0.41679 0.90768 -0.10899
 C807 C 0.43889 0.92533 -0.08911
 C808 C 0.44109 0.91472 -0.05971
 C809 C 0.42261 0.88471 -0.05071
 C810 C 0.40035 0.86667 -0.07058
 C811 C 0.38913 0.90271 -0.15737
 C812 C 0.41281 0.91929 -0.13790
 C813 C 0.35657 0.82080 -0.08163
 C814 C 0.38008 0.83766 -0.06197
 H815 H 0.38668 0.91259 -0.17946
 H816 H 0.42776 0.94165 -0.14543
 H817 H 0.34143 0.79858 -0.07405
 H818 H 0.38215 0.82808 -0.03976
 H819 H 0.31391 0.79316 -0.12345
 H820 H 0.34283 0.86718 -0.19018
 H821 H 0.45311 0.94836 -0.09619
 H822 H 0.42389 0.87661 -0.02803
 C823 C 0.87599 0.35998 0.37908
 C824 C 0.85523 0.33170 0.38850
 C825 C 0.83210 0.31501 0.36845
 C826 C 0.82974 0.32654 0.33920
 C827 C 0.85054 0.35529 0.33043
 C828 C 0.87372 0.37196 0.35017
 C829 C 0.90029 0.37769 0.39994
 C830 C 0.92043 0.40633 0.39050
 C831 C 0.94171 0.42439 0.41072
 C832 C 0.94260 0.41439 0.44033
 C833 C 0.92362 0.38466 0.44927
 C834 C 0.90207 0.36633 0.42911
 C835 C 0.89483 0.40032 0.34144
 C836 C 0.91779 0.41723 0.36128
 C837 C 0.85822 0.32066 0.41772
 C838 C 0.88116 0.33772 0.43768
 H839 H 0.89339 0.40969 0.31913
 H840 H 0.93324 0.43931 0.35378
 H841 H 0.84247 0.29882 0.42530
 H842 H 0.88222 0.32866 0.46010
 H843 H 0.81653 0.29280 0.37549
 H844 H 0.84921 0.36450 0.30806
 H845 H 0.95634 0.44720 0.40370
 H846 H 0.92388 0.37708 0.47211
 C847 C 1.14738 0.37206 0.11780
 C848 C 1.16227 0.34061 0.10835
 C849 C 1.18105 0.31982 0.12856
 C850 C 1.18436 0.33023 0.15808
 C851 C 1.17040 0.36256 0.16669
 C852 C 1.15173 0.38339 0.14679
 C853 C 1.12534 0.39282 0.09740
 C854 C 1.10901 0.42332 0.10749
 C855 C 1.08568 0.44145 0.08892
 C856 C 1.07847 0.42940 0.06043
 C857 C 1.09640 0.39968 0.05003
 C858 C 1.11959 0.38097 0.06867
 C859 C 1.13616 0.41476 0.15568
 C860 C 1.11511 0.43439 0.13636
 C861 C 1.15689 0.33011 0.07916
 C862 C 1.13597 0.34994 0.05967
 H863 H 1.13955 0.42382 0.17798
 H864 H 1.10285 0.45803 0.14428
 H865 H 1.16833 0.30601 0.07147
 H866 H 1.13190 0.34051 0.03756
 H867 H 1.19168 0.29506 0.12163
 H868 H 1.17308 0.37118 0.18919
 H869 H 1.07210 0.46438 0.09700
 H870 H 1.09082 0.39018 0.02814
 C871 C 0.64703 0.87180 0.61806
 C872 C 0.66184 0.84031 0.60861
 C873 C 0.68096 0.81970 0.62873
 C874 C 0.68469 0.83033 0.65816
 C875 C 0.67088 0.86273 0.66673
 C876 C 0.65184 0.88337 0.64693
 C877 C 0.62456 0.89232 0.59780
 C878 C 0.60827 0.92284 0.60791
 C879 C 0.58454 0.94075 0.58951
 C880 C 0.57692 0.92844 0.56116
 C881 C 0.59479 0.89870 0.55073
 C882 C 0.61835 0.88022 0.56921
 C883 C 0.63633 0.91477 0.65582
 C884 C 0.61485 0.93416 0.63663
 C885 C 0.65600 0.82956 0.57955
 C886 C 0.63468 0.84918 0.56019
 H887 H 0.64007 0.92401 0.67802
 H888 H 0.60264 0.95782 0.64456
 H889 H 0.66736 0.80542 0.57187
 H890 H 0.63026 0.83957 0.53819
 H891 H 0.69147 0.79488 0.62185
 H892 H 0.67389 0.87150 0.68916
 H893 H 0.57103 0.96371 0.59759
 H894 H 0.58890 0.88903 0.52895
 C895 C 1.15220 0.62168 -0.12203
 C896 C 1.17277 0.64990 -0.11230
 C897 C 1.19354 0.66879 -0.13268
 C898 C 1.19287 0.66026 -0.16294
 C899 C 1.17302 0.63068 -0.17173
 C900 C 1.15270 0.61158 -0.15154
 C901 C 1.12837 0.60322 -0.10122
 C902 C 1.10686 0.57587 -0.11142
 C903 C 1.08227 0.56010 -0.09231
 C904 C 1.07863 0.57153 -0.06315
 C905 C 1.10151 0.59802 -0.05275
 C906 C 1.12631 0.61421 -0.07190
 C907 C 1.13180 0.58321 -0.16060
 C908 C 1.10929 0.56562 -0.14086
 C909 C 1.17104 0.65941 -0.08255
 C910 C 1.14818 0.64194 -0.06274
 H911 H 1.13220 0.57501 -0.18330
 H912 H 1.09299 0.54433 -0.14888
 H913 H 1.18686 0.68105 -0.07465
 H914 H 1.14710 0.65065 -0.04019
 H915 H 1.20872 0.69100 -0.12503
 H916 H 1.17233 0.62281 -0.19454
 H917 H 1.06503 0.53957 -0.10047
 H918 H 1.09887 0.60696 -0.03034
 C919 C 0.65261 1.12098 0.38065
 C920 C 0.67083 1.15084 0.38998
 C921 C 0.69145 1.16981 0.36959
 C922 C 0.69333 1.15923 0.34000
 C923 C 0.67603 1.12837 0.33151
 C924 C 0.65546 1.10936 0.35160
 C925 C 0.62864 1.10243 0.40126
 C926 C 0.60902 1.07371 0.39130
 C927 C 0.58406 1.05787 0.41007
 C928 C 0.57853 1.07036 0.43871
 C929 C 0.59960 1.09823 0.44895
 C930 C 0.62445 1.11471 0.43007
 C931 C 0.63653 1.07965 0.34286
 C932 C 0.61364 1.06214 0.36237
 C933 C 0.66689 1.16176 0.41922
 C934 C 0.64415 1.14399 0.43892
 H935 H 0.63872 1.07034 0.32053
 H936 H 0.59881 1.03981 0.35456
 H937 H 0.68091 1.18465 0.42680
 H938 H 0.64134 1.15373 0.46107
 H939 H 0.70464 1.19345 0.37646
 H940 H 0.67747 1.11967 0.30896
 H941 H 0.56800 1.03645 0.40204
 H942 H 0.59536 1.10806 0.47094
 C943 C 0.85152 0.62605 0.11750
 C944 C 0.84724 0.61419 0.14632
 C945 C 0.82721 0.63391 0.16629
 C946 C 0.81197 0.66574 0.15795
 C947 C 0.81515 0.67659 0.12856
 C948 C 0.83519 0.65687 0.10826
 C949 C 0.87511 0.60670 0.09710
 C950 C 0.88075 0.61917 0.06857
 C951 C 0.90533 0.60190 0.04998
 C952 C 0.92477 0.57308 0.06027
 C953 C 0.91778 0.56040 0.08856
 C954 C 0.89300 0.57701 0.10705
 C955 C 0.84052 0.66797 0.07926
 C956 C 0.86284 0.64941 0.05975
 C957 C 0.86435 0.58354 0.15501
 C958 C 0.88692 0.56528 0.13570
 H959 H 0.82796 0.69159 0.07175
 H960 H 0.86681 0.65929 0.03779
 H961 H 0.86103 0.57407 0.17717
 H962 H 0.90038 0.54222 0.14349
 H963 H 0.82469 0.62500 0.18869
 H964 H 0.80353 0.70097 0.12184
 H965 H 0.91073 0.61185 0.02822
 H966 H 0.93256 0.53818 0.09655
 C967 C 0.34971 1.12529 0.61726
 C968 C 0.34494 1.11321 0.64596
 C969 C 0.32514 1.13310 0.66596
 C970 C 0.31064 1.16527 0.65774
 C971 C 0.31421 1.17630 0.62844
 C972 C 0.33404 1.15646 0.60813
 C973 C 0.37321 1.10582 0.59690
 C974 C 0.37947 1.11857 0.56854
 C975 C 0.40414 1.10128 0.55007
 C976 C 0.42305 1.07216 0.56033
 C977 C 0.41535 1.05909 0.58837
 C978 C 0.39052 1.07578 0.60675
 C979 C 0.33987 1.16779 0.57926
 C980 C 0.36215 1.14915 0.55979
 C981 C 0.36140 1.08220 0.65454
 C982 C 0.38388 1.06380 0.63526
 H983 H 0.32781 1.19169 0.57185
 H984 H 0.36659 1.15923 0.53796
 H985 H 0.35769 1.07256 0.67660
 H986 H 0.39687 1.04047 0.64296
 H987 H 0.32228 1.12406 0.68830
 H988 H 0.30314 1.20096 0.62182
 H989 H 0.41009 1.11148 0.52850
 H990 H 0.42966 1.03654 0.59627
 C991 C 0.84988 0.38250 -0.11970
 C992 C 0.83142 0.35272 -0.11055
 C993 C 0.81081 0.33396 -0.13106
 C994 C 0.80917 0.34467 -0.16057
 C995 C 0.82658 0.37552 -0.16885
 C996 C 0.84719 0.39430 -0.14866
 C997 C 0.87402 0.40070 -0.09903
 C998 C 0.89402 0.42921 -0.10888
 C999 C 0.91924 0.44459 -0.09013
 C1000 C 0.92458 0.43196 -0.06160
 C1001 C 0.90315 0.40434 -0.05142
 C1002 C 0.87808 0.38822 -0.07032
 C1003 C 0.86643 0.42386 -0.15725
 C1004 C 0.88955 0.44099 -0.13770
 C1005 C 0.83520 0.34162 -0.08139
 C1006 C 0.85807 0.35910 -0.06162
 H1007 H 0.86438 0.43329 -0.17951
 H1008 H 0.90469 0.46316 -0.14540
 H1009 H 0.82098 0.31879 -0.07396
 H1010 H 0.86077 0.34922 -0.03955
 H1011 H 0.79750 0.31033 -0.12436
 H1012 H 0.82531 0.38432 -0.19135
 H1013 H 0.93565 0.46577 -0.09814
 H1014 H 0.90728 0.39439 -0.02951
 C1015 C 0.34810 0.88277 0.38087
 C1016 C 0.32952 0.85300 0.38988
 C1017 C 0.30923 0.83422 0.36919
 C1018 C 0.30803 0.84490 0.33966
 C1019 C 0.32550 0.87576 0.33151
 C1020 C 0.34580 0.89455 0.35188
 C1021 C 0.37201 0.90093 0.40172
 C1022 C 0.39221 0.92937 0.39200
 C1023 C 0.41733 0.94461 0.41089
 C1024 C 0.42239 0.93190 0.43943
 C1025 C 0.40071 0.90440 0.44949
 C1026 C 0.37574 0.88842 0.43044
 C1027 C 0.36518 0.92409 0.34343
 C1028 C 0.38810 0.94117 0.36315
 C1029 C 0.33291 0.84190 0.41906
 C1030 C 0.35556 0.85934 0.43901
 H1031 H 0.36343 0.93350 0.32115
 H1032 H 0.40342 0.96329 0.35555
 H1033 H 0.31857 0.81909 0.42638
 H1034 H 0.35800 0.84945 0.46109
 H1035 H 0.29584 0.81058 0.37579
 H1036 H 0.32455 0.88453 0.30900
 H1037 H 0.43398 0.96566 0.40296
 H1038 H 0.40464 0.89439 0.47141
 C1039 C 1.11596 1.13907 0.38084
 C1040 C 1.14486 1.16037 0.38944
 C1041 C 1.16270 1.18029 0.36821
 C1042 C 1.15203 1.17857 0.33853
 C1043 C 1.12190 1.15821 0.33065
 C1044 C 1.10401 1.13819 0.35162
 C1045 C 1.09908 1.11592 0.40246
 C1046 C 1.07168 1.09328 0.39327
 C1047 C 1.05780 1.06942 0.41307
 C1048 C 1.07075 1.06795 0.44203
 C1049 C 1.09718 1.09173 0.45147
 C1050 C 1.11186 1.11560 0.43150
 C1051 C 1.07541 1.11618 0.34364
 C1052 C 1.05957 1.09398 0.36413
 C1053 C 1.15622 1.16023 0.41885
 C1054 C 1.13995 1.13827 0.43954
 H1055 H 1.06586 1.11543 0.32121
 H1056 H 1.03819 1.07669 0.35697
 H1057 H 1.17840 1.17670 0.42579
 H1058 H 1.15003 1.13846 0.46182
 H1059 H 1.18573 1.19600 0.37464
 H1060 H 1.11325 1.15677 0.30799
 H1061 H 1.03744 1.05128 0.40559
 H1062 H 1.10733 1.09063 0.47372
 C1063 C 0.61494 0.64023 -0.11917
 C1064 C 0.64410 0.66121 -0.11058
 C1065 C 0.66214 0.68095 -0.13182
 C1066 C 0.65143 0.67932 -0.16150
 C1067 C 0.62104 0.65931 -0.16936
 C1068 C 0.60293 0.63949 -0.14837
 C1069 C 0.59788 0.61719 -0.09756
 C1070 C 0.57024 0.59482 -0.10674
 C1071 C 0.55625 0.57096 -0.08698
 C1072 C 0.56937 0.56925 -0.05808
 C1073 C 0.59599 0.59281 -0.04863
 C1074 C 0.61078 0.61666 -0.06855
 C1075 C 0.57406 0.61779 -0.15633
 C1076 C 0.55803 0.59571 -0.13585
 C1077 C 0.65554 0.66092 -0.08120
 C1078 C 0.63911 0.63906 -0.06052
 H1079 H 0.56445 0.61717 -0.17875
 H1080 H 0.53646 0.57863 -0.14300
 H1081 H 0.67792 0.67716 -0.07427
 H1082 H 0.64927 0.63908 -0.03826
 H1083 H 0.68537 0.69640 -0.12541
 H1084 H 0.61235 0.65798 -0.19201
 H1085 H 0.53574 0.55299 -0.09446
 H1086 H 0.60626 0.59149 -0.02642
 C1087 C 0.87901 1.14851 0.62237
 C1088 C 0.89147 1.15201 0.65126
 C1089 C 0.87319 1.17419 0.67040
 C1090 C 0.84198 1.19222 0.66118
 C1091 C 0.83077 1.18962 0.63171
 C1092 C 0.84916 1.16760 0.61222
 C1093 C 0.89638 1.12305 0.60289
 C1094 C 0.88328 1.11861 0.57423
 C1095 C 0.89865 1.09290 0.55638
 C1096 C 0.92599 1.07121 0.56754
 C1097 C 0.93915 1.07650 0.59609
 C1098 C 0.92467 1.10250 0.61379
 C1099 C 0.83742 1.16315 0.58316
 C1100 C 0.85429 1.13916 0.56445
 C1101 C 0.92093 1.13205 0.66091
 C1102 C 0.93719 1.10758 0.64250
 H1103 H 0.81454 1.17783 0.57499
 H1104 H 0.84398 1.13610 0.54238
 H1105 H 0.93085 1.13469 0.68314
 H1106 H 0.95924 1.09203 0.65099
 H1107 H 0.88234 1.17610 0.69290
 H1108 H 0.80685 1.20336 0.62431
 H1109 H 0.88839 1.08884 0.53439
 H1110 H 0.96026 1.05995 0.60474
 C1111 C 0.37896 0.64957 0.12188
 C1112 C 0.39156 0.65306 0.15072
 C1113 C 0.37345 0.67533 0.16989
 C1114 C 0.34223 0.69340 0.16075
 C1115 C 0.33092 0.69084 0.13131
 C1116 C 0.34915 0.66876 0.11179
 C1117 C 0.39608 0.62396 0.10240
 C1118 C 0.38282 0.61951 0.07379
 C1119 C 0.39794 0.59367 0.05595
 C1120 C 0.42517 0.57184 0.06709
 C1121 C 0.43848 0.57712 0.09559
 C1122 C 0.42427 0.60326 0.11326
 C1123 C 0.33726 0.66431 0.08277
 C1124 C 0.35392 0.64020 0.06405
 C1125 C 0.42095 0.63297 0.16033
 C1126 C 0.43695 0.60835 0.14193
 H1127 H 0.31441 0.67907 0.07465
 H1128 H 0.34349 0.63713 0.04201
 H1129 H 0.43097 0.63560 0.18253
 H1130 H 0.45892 0.59268 0.15039
 H1131 H 0.38269 0.67721 0.19237
 H1132 H 0.30699 0.70463 0.12397
 H1133 H 0.38757 0.58961 0.03400
 H1134 H 0.45950 0.56044 0.10423
 C1135 C 1.12345 0.85289 0.62503
 C1136 C 1.15335 0.83386 0.61479
 C1137 C 1.17271 0.81288 0.63444
 C1138 C 1.16279 0.81150 0.66446
 C1139 C 1.13136 0.82974 0.67367
 C1140 C 1.11199 0.85055 0.65426
 C1141 C 1.10467 0.87688 0.60514
 C1142 C 1.07589 0.89701 0.61594
 C1143 C 1.05988 0.92156 0.59773
 C1144 C 1.07225 0.92605 0.56882
 C1145 C 1.10011 0.90471 0.55779
 C1146 C 1.11679 0.88028 0.57608
 C1147 C 1.08212 0.87011 0.66390
 C1148 C 1.06439 0.89301 0.64506
 C1149 C 1.16406 0.83719 0.58533
 C1150 C 1.14607 0.85996 0.56630
 H1151 H 1.07291 0.86832 0.68641
 H1152 H 1.04197 0.90820 0.65352
 H1153 H 1.18699 0.82258 0.57705
 H1154 H 1.15565 0.86220 0.54393
 H1155 H 1.19635 0.79898 0.62650
 H1156 H 1.12237 0.82889 0.69630
 H1157 H 1.03827 0.93772 0.60627
 H1158 H 1.10973 0.90808 0.53551
 C1159 C 0.62315 0.35334 0.12377
 C1160 C 0.65386 0.33535 0.11367
 C1161 C 0.67331 0.31446 0.13327
 C1162 C 0.66231 0.31188 0.16282
 C1163 C 0.63048 0.32902 0.17209
 C1164 C 0.61105 0.34999 0.15280
 C1165 C 0.60425 0.37738 0.10402
 C1166 C 0.57482 0.39670 0.11475
 C1167 C 0.55869 0.42136 0.09670
 C1168 C 0.57149 0.42662 0.06801
 C1169 C 0.60003 0.40608 0.05704
 C1170 C 0.61693 0.38168 0.07519
 C1171 C 0.58057 0.36873 0.16235
 C1172 C 0.56279 0.39179 0.14365
 C1173 C 0.66519 0.33964 0.08446
 C1174 C 0.64697 0.36232 0.06553
 H1175 H 0.57091 0.36619 0.18468
 H1176 H 0.53989 0.40636 0.15204
 H1177 H 0.68873 0.32581 0.07632
 H1178 H 0.65698 0.36530 0.04334
 H1179 H 0.69771 0.30143 0.12583
 H1180 H 0.62147 0.32711 0.19465
 H1181 H 0.53662 0.43699 0.10519
 H1182 H 0.61002 0.41012 0.03495
 C1183 C 0.88100 0.85525 0.38124
 C1184 C 0.85148 0.83468 0.38978
 C1185 C 0.83349 0.81483 0.36855
 C1186 C 0.84461 0.81594 0.33892
 C1187 C 0.87533 0.83556 0.33112
 C1188 C 0.89339 0.85548 0.35209
 C1189 C 0.89807 0.87838 0.40283
 C1190 C 0.92612 0.90032 0.39368
 C1191 C 0.94020 0.92424 0.41341
 C1192 C 0.92676 0.92645 0.44224
 C1193 C 0.89970 0.90331 0.45166
 C1194 C 0.88484 0.87940 0.43176
 C1195 C 0.92262 0.87678 0.34418
 C1196 C 0.93867 0.89894 0.36463
 C1197 C 0.83968 0.83548 0.41910
 C1198 C 0.85612 0.85742 0.43976
 H1199 H 0.93252 0.87703 0.32181
 H1200 H 0.96053 0.91570 0.35750
 H1201 H 0.81702 0.81957 0.42601
 H1202 H 0.84568 0.85777 0.46197
 H1203 H 0.80999 0.79972 0.37492
 H1204 H 0.88433 0.83652 0.30851
 H1205 H 0.96104 0.94189 0.40595
 H1206 H 0.88917 0.90500 0.47381
 C1207 C 0.38171 0.35497 -0.11913
 C1208 C 0.35253 0.33399 -0.11056
 C1209 C 0.33472 0.31401 -0.13178
 C1210 C 0.34567 0.31541 -0.16145
 C1211 C 0.37613 0.33537 -0.16927
 C1212 C 0.39399 0.35543 -0.14830
 C1213 C 0.39845 0.37831 -0.09755
 C1214 C 0.42608 0.40071 -0.10674
 C1215 C 0.43977 0.42485 -0.08703
 C1216 C 0.42636 0.42682 -0.05817
 C1217 C 0.39974 0.40325 -0.04872
 C1218 C 0.38526 0.37912 -0.06859
 C1219 C 0.42286 0.37717 -0.15624
 C1220 C 0.43858 0.39955 -0.13580
 C1221 C 0.34080 0.33456 -0.08121
 C1222 C 0.35694 0.35670 -0.06056
 H1223 H 0.43267 0.37760 -0.17864
 H1224 H 0.46012 0.41665 -0.14296
 H1225 H 0.31840 0.31833 -0.07429
 H1226 H 0.34655 0.35688 -0.03834
 H1227 H 0.31144 0.29862 -0.12539
 H1228 H 0.38499 0.33655 -0.19191
 H1229 H 0.46026 0.44283 -0.09451
 H1230 H 0.38925 0.40476 -0.02654
 C1231 C 1.15295 0.37967 -0.11969
 C1232 C 1.16051 0.34503 -0.11321
 C1233 C 1.17975 0.32500 -0.13366
 C1234 C 1.19027 0.33924 -0.16071
 C1235 C 1.18321 0.37422 -0.16651
 C1236 C 1.16467 0.39460 -0.14604
 C1237 C 1.13082 0.40025 -0.09916
 C1238 C 1.12240 0.43458 -0.10612
 C1239 C 1.09911 0.45323 -0.08768
 C1240 C 1.08335 0.43740 -0.06302
 C1241 C 1.09319 0.40342 -0.05570
 C1242 C 1.11697 0.38469 -0.07374
 C1243 C 1.15664 0.42931 -0.15182
 C1244 C 1.13597 0.44902 -0.13212
 C1245 C 1.14749 0.33082 -0.08691
 C1246 C 1.12594 0.35028 -0.06757
 H1247 H 1.16580 0.44114 -0.17201
 H1248 H 1.12972 0.47550 -0.13767
 H1249 H 1.15321 0.30418 -0.08160
 H1250 H 1.11561 0.33807 -0.04792
 H1251 H 1.18503 0.29805 -0.12915
 H1252 H 1.19166 0.38543 -0.18717
 H1253 H 1.09156 0.47931 -0.09352
 H1254 H 1.08130 0.39119 -0.03662
 C1255 C 0.65050 0.87757 0.38076
 C1256 C 0.65761 0.84275 0.38685
 C1257 C 0.67715 0.82297 0.36638
 C1258 C 0.68838 0.83765 0.33968
 C1259 C 0.68166 0.87277 0.33425
 C1260 C 0.66289 0.89290 0.35476
 C1261 C 0.62826 0.89799 0.40134
 C1262 C 0.62045 0.93254 0.39482
 C1263 C 0.59725 0.95115 0.41336
 C1264 C 0.58096 0.93511 0.43770
 C1265 C 0.59008 0.90081 0.44454
 C1266 C 0.61381 0.88210 0.42640
 C1267 C 0.65535 0.92780 0.34940
 C1268 C 0.63461 0.94735 0.36917
 C1269 C 0.64393 0.82816 0.41277
 C1270 C 0.62224 0.84746 0.43215
 H1271 H 0.66502 0.93994 0.32950
 H1272 H 0.62883 0.97402 0.36396
 H1273 H 0.64927 0.80136 0.41778
 H1274 H 0.61145 0.83497 0.45151
 H1275 H 0.68215 0.79590 0.37059
 H1276 H 0.69064 0.88429 0.31386
 H1277 H 0.59027 0.97746 0.40786
 H1278 H 0.57779 0.88838 0.46336
 C1279 C 0.84862 0.62124 -0.11974
 C1280 C 0.84086 0.65601 -0.11382
 C1281 C 0.82052 0.67509 -0.13415
 C1282 C 0.80913 0.65979 -0.16058
 C1283 C 0.81655 0.62472 -0.16584
 C1284 C 0.83611 0.60527 -0.14544
 C1285 C 0.87162 0.60156 -0.09930
 C1286 C 0.88002 0.56704 -0.10564
 C1287 C 0.90380 0.54912 -0.08722
 C1288 C 0.92011 0.56578 -0.06316
 C1289 C 0.91047 0.60007 -0.05654
 C1290 C 0.88615 0.61809 -0.07456
 C1291 C 0.84430 0.57044 -0.15063
 C1292 C 0.86575 0.55158 -0.13098
 C1293 C 0.85469 0.67126 -0.08820
 C1294 C 0.87710 0.65267 -0.06898
 H1295 H 0.83457 0.55779 -0.17030
 H1296 H 0.87197 0.52494 -0.13606
 H1297 H 0.84887 0.69803 -0.08332
 H1298 H 0.88793 0.66567 -0.04987
 H1299 H 0.81504 0.70212 -0.13008
 H1300 H 0.80752 0.61272 -0.18603
 H1301 H 0.91116 0.52285 -0.09258
 H1302 H 0.92277 0.61301 -0.03796
 C1303 C 0.34930 1.12156 0.38013
 C1304 C 0.34175 1.15640 0.38593
 C1305 C 0.32140 1.17546 0.36558
 C1306 C 0.30979 1.16007 0.33924
 C1307 C 0.31708 1.12495 0.33408
 C1308 C 0.33664 1.10552 0.35451
 C1309 C 0.37220 1.10185 0.40063
 C1310 C 0.38030 1.06723 0.39446
 C1311 C 0.40384 1.04921 0.41302
 C1312 C 0.42021 1.06584 0.43706
 C1313 C 0.41095 1.10029 0.44347
 C1314 C 0.38684 1.11841 0.42532
 C1315 C 0.34460 1.07061 0.34945
 C1316 C 0.36591 1.05173 0.36918
 C1317 C 0.35574 1.17171 0.41147
 C1318 C 0.37805 1.15309 0.43075
 H1319 H 0.33474 1.05792 0.32985
 H1320 H 0.37191 1.02502 0.36423
 H1321 H 0.35009 1.19853 0.41625
 H1322 H 0.38897 1.16612 0.44981
 H1323 H 0.31602 1.20253 0.36958
 H1324 H 0.30790 1.11288 0.31396
 H1325 H 0.41093 1.02284 0.40780
 H1326 H 0.42330 1.11322 0.46203
 C1327 C 1.14995 0.62893 0.11823
 C1328 C 1.15716 0.66351 0.11120
 C1329 C 1.17598 0.68427 0.13138
 C1330 C 1.18644 0.67081 0.15871
 C1331 C 1.17966 0.63588 0.16507
 C1332 C 1.16156 0.61480 0.14489
 C1333 C 1.12839 0.60753 0.09793
 C1334 C 1.12038 0.57325 0.10540
 C1335 C 1.09776 0.55375 0.08707
 C1336 C 1.08224 0.56868 0.06195
 C1337 C 1.09160 0.60269 0.05420
 C1338 C 1.11472 0.62225 0.07214
 C1339 C 1.15389 0.58013 0.15122
 C1340 C 1.13377 0.55966 0.13175
 C1341 C 1.14426 0.67689 0.08459
 C1342 C 1.12326 0.65666 0.06546
 H1343 H 1.16296 0.56891 0.17165
 H1344 H 1.12785 0.53323 0.13772
 H1345 H 1.14969 0.70347 0.07883
 H1346 H 1.11307 0.66825 0.04553
 H1347 H 1.18101 0.71116 0.12642
 H1348 H 1.18803 0.62524 0.18594
 H1349 H 1.09053 0.52770 0.09329
 H1350 H 1.07990 0.61427 0.03479
 C1351 C 0.64882 1.12852 0.61895
 C1352 C 0.65622 1.16302 0.61171
 C1353 C 0.67522 1.18385 0.63175
 C1354 C 0.68568 1.17055 0.65915
 C1355 C 0.67868 1.13570 0.66571
 C1356 C 0.66040 1.11455 0.64567
 C1357 C 0.62714 1.10705 0.59877
 C1358 C 0.61900 1.07284 0.60642
 C1359 C 0.59633 1.05326 0.58816
 C1360 C 0.58092 1.06803 0.56292
 C1361 C 0.59038 1.10198 0.55503
 C1362 C 0.61354 1.12161 0.57290
 C1363 C 0.65257 1.07996 0.65220
 C1364 C 0.63234 1.05941 0.63284
 C1365 C 0.64335 1.17623 0.58504
 C1366 C 0.62223 1.15594 0.56603
 H1367 H 0.66160 1.06886 0.67268
 H1368 H 0.62631 1.03306 0.63896
 H1369 H 0.64890 1.20274 0.57912
 H1370 H 0.61209 1.16741 0.54603
 H1371 H 0.68040 1.21067 0.62664
 H1372 H 0.68704 1.12518 0.68662
 H1373 H 0.58902 1.02727 0.59450
 H1374 H 0.57874 1.11345 0.53555
 C1375 C 0.85602 0.37515 0.12040
 C1376 C 0.84800 0.34084 0.11290
 C1377 C 0.82924 0.31999 0.13306
 C1378 C 0.81961 0.33306 0.16081
 C1379 C 0.82731 0.36773 0.16767
 C1380 C 0.84535 0.38892 0.14753
 C1381 C 0.87730 0.39668 0.09998
 C1382 C 0.88598 0.43073 0.10783
 C1383 C 0.90823 0.45035 0.08925
 C1384 C 0.92268 0.43576 0.06347
 C1385 C 0.91271 0.40197 0.05544
 C1386 C 0.88995 0.38230 0.07362
 C1387 C 0.85375 0.42336 0.15429
 C1388 C 0.87359 0.44395 0.13471
 C1389 C 0.85996 0.32781 0.08579
 C1390 C 0.88072 0.34813 0.06655
 H1391 H 0.84542 0.43431 0.17509
 H1392 H 0.88004 0.47019 0.14100
 H1393 H 0.85392 0.30144 0.07967
 H1394 H 0.89013 0.33680 0.04620
 H1395 H 0.82351 0.29332 0.12768
 H1396 H 0.81959 0.37812 0.18886
 H1397 H 0.91599 0.47619 0.09573
 H1398 H 0.92362 0.39062 0.03556
 C1399 C 0.35575 0.87650 0.62442
 C1400 C 0.33998 0.84558 0.61468
 C1401 C 0.32035 0.82503 0.63464
 C1402 C 0.31822 0.83428 0.66467
 C1403 C 0.33438 0.86579 0.67364
 C1404 C 0.35247 0.88706 0.65366
 C1405 C 0.37718 0.89776 0.60385
 C1406 C 0.39264 0.92878 0.61371
 C1407 C 0.41434 0.94812 0.59458
 C1408 C 0.42200 0.93591 0.56620
 C1409 C 0.40589 0.90500 0.55641
 C1410 C 0.38298 0.88601 0.57511
 C1411 C 0.36793 0.91849 0.66259
 C1412 C 0.38738 0.93916 0.64288
 C1413 C 0.34511 0.83541 0.58536
 C1414 C 0.36654 0.85506 0.56602
 H1415 H 0.36525 0.92704 0.68510
 H1416 H 0.39917 0.96304 0.65074
 H1417 H 0.33317 0.81162 0.57747
 H1418 H 0.37053 0.84579 0.54385
 H1419 H 0.30837 0.80113 0.62697
 H1420 H 0.33277 0.87424 0.69627
 H1421 H 0.42709 0.97158 0.60239
 H1422 H 0.41173 0.89554 0.53454
 C1423 C 0.37510 1.14109 -0.12406
 C1424 C 0.35644 1.17088 -0.11510
 C1425 C 0.33422 1.18820 -0.13530
 C1426 C 0.33073 1.17587 -0.16428
 C1427 C 0.34975 1.14590 -0.17272
 C1428 C 0.37187 1.12844 -0.15276
 C1429 C 0.39800 1.12243 -0.10287
 C1430 C 0.41582 1.09218 -0.11178
 C1431 C 0.43582 1.07343 -0.09125
 C1432 C 0.43787 1.08445 -0.06190
 C1433 C 0.42113 1.11560 -0.05350
 C1434 C 0.40079 1.13458 -0.07395
 C1435 C 0.39074 1.09848 -0.16096
 C1436 C 0.41232 1.08062 -0.14080
 C1437 C 0.36038 1.18262 -0.08611
 C1438 C 0.38214 1.16478 -0.06589
 H1439 H 0.38852 1.08855 -0.18309
 H1440 H 0.42601 1.05732 -0.14788
 H1441 H 0.34627 1.20565 -0.07892
 H1442 H 0.38402 1.17447 -0.04367
 H1443 H 0.32003 1.21138 -0.12856
 H1444 H 0.34741 1.13606 -0.19488
 H1445 H 0.44877 1.04954 -0.09787
 H1446 H 0.42235 1.12406 -0.03088
 C1447 C 0.87555 0.64133 0.37616
 C1448 C 0.85671 0.67099 0.38515
 C1449 C 0.83451 0.68831 0.36493
 C1450 C 0.83123 0.67609 0.33591
 C1451 C 0.85047 0.64627 0.32742
 C1452 C 0.87256 0.62881 0.34740
 C1453 C 0.89838 0.62263 0.39736
 C1454 C 0.91636 0.59248 0.38843
 C1455 C 0.93626 0.57367 0.40898
 C1456 C 0.93807 0.58455 0.43837
 C1457 C 0.92119 0.61562 0.44681
 C1458 C 0.90093 0.63464 0.42635
 C1459 C 0.89160 0.59896 0.33916
 C1460 C 0.91311 0.58106 0.35935
 C1461 C 0.86041 0.68260 0.41420
 C1462 C 0.88212 0.66473 0.43444
 H1463 H 0.88957 0.58914 0.31698
 H1464 H 0.92693 0.55784 0.35223
 H1465 H 0.84616 0.70553 0.42142
 H1466 H 0.88381 0.67432 0.45670
 H1467 H 0.82014 0.71138 0.37170
 H1468 H 0.84829 0.63652 0.30522
 H1469 H 0.94932 0.54984 0.40233
 H1470 H 0.92223 0.62396 0.46947
 C1471 C 0.65081 1.12110 0.11969
 C1472 C 0.67701 1.14510 0.11043
 C1473 C 0.69355 1.16677 0.13128
 C1474 C 0.68411 1.16433 0.16119
 C1475 C 0.65782 1.13989 0.16991
 C1476 C 0.64102 1.11840 0.14932
 C1477 C 0.63253 1.09898 0.09787
 C1478 C 0.60517 1.07616 0.10712
 C1479 C 0.58583 1.05725 0.08616
 C1480 C 0.59378 1.06089 0.05620
 C1481 C 0.62239 1.08255 0.04723
 C1482 C 0.64162 1.10211 0.06807
 C1483 C 0.61430 1.09451 0.15779
 C1484 C 0.59657 1.07384 0.13703
 C1485 C 0.68589 1.14704 0.08050
 C1486 C 0.66853 1.12590 0.05970
 H1487 H 0.60662 1.09215 0.18063
 H1488 H 0.57559 1.05625 0.14441
 H1489 H 0.70614 1.16531 0.07303
 H1490 H 0.67580 1.12865 0.03682
 H1491 H 0.71386 1.18526 0.12427
 H1492 H 0.65013 1.13769 0.19277
 H1493 H 0.56347 1.04083 0.09294
 H1494 H 0.62788 1.08591 0.02407
 C1495 C 1.15206 0.62203 0.61851
 C1496 C 1.17649 0.64762 0.60917
 C1497 C 1.19297 0.66923 0.63013
 C1498 C 1.18516 0.66517 0.66022
 C1499 C 1.16063 0.63914 0.66898
 C1500 C 1.14397 0.61768 0.64831
 C1501 C 1.13379 0.59994 0.59664
 C1502 C 1.10816 0.57547 0.60607
 C1503 C 1.08872 0.55650 0.58519
 C1504 C 1.09490 0.56171 0.55515
 C1505 C 1.12180 0.58513 0.54593
 C1506 C 1.14110 0.60473 0.56670
 C1507 C 1.11900 0.59220 0.65691
 C1508 C 1.10129 0.57153 0.63613
 C1509 C 1.18364 0.65119 0.57905
 C1510 C 1.16628 0.63011 0.55820
 H1511 H 1.11265 0.58857 0.67988
 H1512 H 1.08167 0.55266 0.64364
 H1513 H 1.20251 0.67070 0.57149
 H1514 H 1.17216 0.63414 0.53520
 H1515 H 1.21187 0.68898 0.62306
 H1516 H 1.15416 0.63563 0.69195
 H1517 H 1.06761 0.53878 0.59217
 H1518 H 1.12586 0.58969 0.52272
 C1519 C 0.61776 0.85357 -0.12358
 C1520 C 0.63769 0.82469 -0.11442
 C1521 C 0.66000 0.80732 -0.13475
 C1522 C 0.66240 0.81875 -0.16406
 C1523 C 0.64190 0.84772 -0.17271
 C1524 C 0.61970 0.86521 -0.15263
 C1525 C 0.59514 0.87257 -0.10220
 C1526 C 0.57639 0.90218 -0.11126
 C1527 C 0.55726 0.92168 -0.09050
 C1528 C 0.55698 0.91203 -0.06080
 C1529 C 0.57431 0.88129 -0.05222
 C1530 C 0.59389 0.86163 -0.07288
 C1531 C 0.59968 0.89437 -0.16100
 C1532 C 0.57845 0.91259 -0.14066
 C1533 C 0.63509 0.81401 -0.08506
 C1534 C 0.61361 0.83216 -0.06467
 H1535 H 0.60086 0.90351 -0.18339
 H1536 H 0.56401 0.93535 -0.14790
 H1537 H 0.65015 0.79168 -0.07769
 H1538 H 0.61293 0.82337 -0.04217
 H1539 H 0.67530 0.78493 -0.12779
 H1540 H 0.64330 0.85687 -0.19510
 H1541 H 0.54396 0.94532 -0.09719
 H1542 H 0.57462 0.87401 -0.02931
 C1543 C 1.11774 0.35329 0.37648
 C1544 C 1.13803 0.32467 0.38569
 C1545 C 1.16027 0.30728 0.36532
 C1546 C 1.16224 0.31846 0.33593
 C1547 C 1.14137 0.34716 0.32722
 C1548 C 1.11924 0.36466 0.34734
 C1549 C 1.09521 0.37234 0.39790
 C1550 C 1.07610 0.40172 0.38877
 C1551 C 1.05709 0.42130 0.40954
 C1552 C 1.05726 0.41195 0.43931
 C1553 C 1.07494 0.38142 0.44797
 C1554 C 1.09442 0.36169 0.42730
 C1555 C 1.09886 0.39358 0.33890
 C1556 C 1.07771 0.41183 0.35928
 C1557 C 1.13588 0.31427 0.41514
 C1558 C 1.11449 0.33246 0.43557
 H1559 H 1.09968 0.40250 0.31644
 H1560 H 1.06298 0.43441 0.35199
 H1561 H 1.15123 0.29214 0.42256
 H1562 H 1.11416 0.32390 0.45814
 H1563 H 1.17587 0.28510 0.37232
 H1564 H 1.14243 0.35611 0.30476
 H1565 H 1.04350 0.44477 0.40279
 H1566 H 1.07559 0.37438 0.47092
 C1567 C 0.35310 0.88481 0.12005
 C1568 C 0.32670 0.86115 0.11051
 C1569 C 0.31001 0.83927 0.13106
 C1570 C 0.31947 0.84120 0.16095
 C1571 C 0.34593 0.86531 0.16998
 C1572 C 0.36290 0.88699 0.14968
 C1573 C 0.37154 0.90715 0.09853
 C1574 C 0.39905 0.92966 0.10802
 C1575 C 0.41843 0.94887 0.08728
 C1576 C 0.41042 0.94576 0.05728
 C1577 C 0.38154 0.92445 0.04817
 C1578 C 0.36232 0.90461 0.06875
 C1579 C 0.38978 0.91058 0.15843
 C1580 C 0.40765 0.93148 0.13793
 C1581 C 0.31775 0.85978 0.08060
 C1582 C 0.33521 0.88117 0.06010
 H1583 H 0.39746 0.91254 0.18128
 H1584 H 0.42872 0.94886 0.14550
 H1585 H 0.29734 0.84179 0.07293
 H1586 H 0.32786 0.87890 0.03720
 H1587 H 0.28956 0.82103 0.12384
 H1588 H 0.35363 0.86708 0.19284
 H1589 H 0.44071 0.96521 0.09431
 H1590 H 0.37570 0.92161 0.02503
 C1591 C 0.85420 0.38381 0.62009
 C1592 C 0.82757 0.36041 0.61051
 C1593 C 0.81077 0.33849 0.63099
 C1594 C 0.82035 0.34015 0.66087
 C1595 C 0.84710 0.36397 0.66993
 C1596 C 0.86416 0.38568 0.64970
 C1597 C 0.87264 0.40627 0.59865
 C1598 C 0.90029 0.42859 0.60820
 C1599 C 0.91957 0.44800 0.58753
 C1600 C 0.91134 0.44528 0.55754
 C1601 C 0.88235 0.42412 0.54840
 C1602 C 0.86321 0.40409 0.56891
 C1603 C 0.89124 0.40903 0.65851
 C1604 C 0.90910 0.43005 0.63808
 C1605 C 0.81845 0.35936 0.58062
 C1606 C 0.83592 0.38085 0.56019
 H1607 H 0.89906 0.41074 0.68133
 H1608 H 0.93030 0.44726 0.64570
 H1609 H 0.79787 0.34157 0.57290
 H1610 H 0.82841 0.37886 0.53731
 H1611 H 0.79011 0.32048 0.62375
 H1612 H 0.85492 0.36552 0.69278
 H1613 H 0.94192 0.46424 0.59460
 H1614 H 0.87631 0.42157 0.52526
 C1615 C 1.12258 1.14964 0.62026
 C1616 C 1.10543 1.16312 0.64530
 C1617 C 1.12565 1.18322 0.66489
 C1618 C 1.16263 1.19011 0.65944
 C1619 C 1.17906 1.17769 0.63361
 C1620 C 1.15925 1.15692 0.61413
 C1621 C 1.10225 1.12610 0.60090
 C1622 C 1.12003 1.11077 0.57694
 C1623 C 1.10142 1.08623 0.56003
 C1624 C 1.06534 1.07711 0.56703
 C1625 C 1.04743 1.09402 0.59026
 C1626 C 1.06591 1.11813 0.60755
 C1627 C 1.17570 1.14215 0.58929
 C1628 C 1.15646 1.11936 0.57107
 C1629 C 1.06873 1.15529 0.65075
 C1630 C 1.04923 1.13329 0.63210
 H1631 H 1.20395 1.14760 0.58429
 H1632 H 1.17043 1.10787 0.55255
 H1633 H 1.05516 1.16576 0.66989
 H1634 H 1.02117 1.12740 0.63736
 H1635 H 1.11287 1.19293 0.68468
 H1636 H 1.20764 1.18267 0.62949
 H1637 H 1.11532 1.07350 0.54206
 H1638 H 1.01973 1.08716 0.59586
 C1639 C 0.62222 0.64935 0.12036
 C1640 C 0.60529 0.66260 0.14557
 C1641 C 0.62570 0.68246 0.16520
 C1642 C 0.66266 0.68935 0.15963
 C1643 C 0.67887 0.67716 0.13363
 C1644 C 0.65886 0.65662 0.11410
 C1645 C 0.60168 0.62607 0.10092
 C1646 C 0.61924 0.61097 0.07675
 C1647 C 0.60044 0.58664 0.05975
 C1648 C 0.56440 0.57749 0.06687
 C1649 C 0.54670 0.59419 0.09031
 C1650 C 0.56536 0.61810 0.10768
 C1651 C 0.67508 0.64210 0.08905
 C1652 C 0.65564 0.61954 0.07076
 C1653 C 0.56862 0.65480 0.15115
 C1654 C 0.54892 0.63303 0.13243
 H1655 H 0.70330 0.64753 0.08395
 H1656 H 0.66943 0.60823 0.05208
 H1657 H 0.55522 0.66509 0.17043
 H1658 H 0.52088 0.62715 0.13780
 H1659 H 0.61308 0.69202 0.18511
 H1660 H 0.70742 0.68215 0.12940
 H1661 H 0.61417 0.57407 0.04162
 H1662 H 0.51904 0.58730 0.09601
 C1663 C 1.12022 0.85565 0.38230
 C1664 C 1.10237 0.84503 0.35662
 C1665 C 1.12232 0.82837 0.33460
 C1666 C 1.15960 0.82191 0.33849
 C1667 C 1.17685 0.83183 0.36469
 C1668 C 1.15739 0.84917 0.38653
 C1669 C 1.09998 0.87523 0.40462
 C1670 C 1.11841 0.88793 0.42933
 C1671 C 1.09989 0.90947 0.44898
 C1672 C 1.06334 0.91826 0.44388
 C1673 C 1.04466 0.90338 0.42010
 C1674 C 1.06304 0.88241 0.40005
 C1675 C 1.17455 0.86096 0.41213
 C1676 C 1.15541 0.88020 0.43312
 C1677 C 1.06511 0.85185 0.35325
 C1678 C 1.04570 0.87009 0.37471
 H1679 H 1.20322 0.85599 0.41561
 H1680 H 1.16985 0.88968 0.45218
 H1681 H 1.05099 0.84351 0.33367
 H1682 H 1.01715 0.87543 0.37106
 H1683 H 1.10896 0.82040 0.31455
 H1684 H 1.20568 0.82704 0.36765
 H1685 H 1.11433 0.92068 0.46737
 H1686 H 1.01655 0.90998 0.41602
 C1687 C 0.62008 0.35694 -0.11829
 C1688 C 0.60245 0.34637 -0.14408
 C1689 C 0.62253 0.32956 -0.16593
 C1690 C 0.65974 0.32289 -0.16180
 C1691 C 0.67677 0.33278 -0.13549
 C1692 C 0.65717 0.35027 -0.11381
 C1693 C 0.59970 0.37661 -0.09610
 C1694 C 0.61791 0.38919 -0.07124
 C1695 C 0.59924 0.41071 -0.05166
 C1696 C 0.56274 0.41958 -0.05695
 C1697 C 0.54431 0.40488 -0.08092
 C1698 C 0.56283 0.38392 -0.10090
 C1699 C 0.67412 0.36200 -0.08809
 C1700 C 0.65484 0.38132 -0.06722
 C1701 C 0.56526 0.35336 -0.14770
 C1702 C 0.54571 0.37169 -0.12637
 H1703 H 0.70272 0.35690 -0.08441
 H1704 H 0.66912 0.39071 -0.04806
 H1705 H 0.55130 0.34507 -0.16737
 H1706 H 0.51723 0.37713 -0.13021
 H1707 H 0.60931 0.32161 -0.18606
 H1708 H 0.70553 0.32783 -0.13233
 H1709 H 0.61351 0.42179 -0.03313
 H1710 H 0.51625 0.41156 -0.08517
 C1711 C 0.87994 1.14135 0.38183
 C1712 C 0.84302 1.14900 0.38620
 C1713 C 0.82439 1.16778 0.36483
 C1714 C 0.84220 1.17801 0.33892
 C1715 C 0.87923 1.17028 0.33489
 C1716 C 0.89837 1.15219 0.35646
 C1717 C 0.89933 1.12052 0.40372
 C1718 C 0.93607 1.11242 0.39910
 C1719 C 0.95373 1.09075 0.41892
 C1720 C 0.93460 1.07617 0.44262
 C1721 C 0.89814 1.08558 0.44761
 C1722 C 0.88034 1.10784 0.42819
 C1723 C 0.93538 1.14422 0.35296
 C1724 C 0.95398 1.12481 0.37403
 C1725 C 0.82526 1.13698 0.41148
 C1726 C 0.84357 1.11657 0.43206
 H1727 H 0.94995 1.15267 0.33362
 H1728 H 0.98238 1.11876 0.37032
 H1729 H 0.79677 1.14279 0.41507
 H1730 H 0.82868 1.10711 0.45090
 H1731 H 0.79575 1.17348 0.36789
 H1732 H 0.89306 1.17840 0.31507
 H1733 H 0.98173 1.08363 0.41485
 H1734 H 0.88330 1.07459 0.46589
 C1735 C 0.37833 0.64272 -0.11779
 C1736 C 0.34127 0.64989 -0.11362
 C1737 C 0.32265 0.66883 -0.13490
 C1738 C 0.34064 0.67970 -0.16055
 C1739 C 0.37782 0.67249 -0.16436
 C1740 C 0.39692 0.65422 -0.14287
 C1741 C 0.39770 0.62166 -0.09604
 C1742 C 0.43459 0.61401 -0.10049
 C1743 C 0.45227 0.59214 -0.08083
 C1744 C 0.43304 0.57694 -0.05747
 C1745 C 0.39642 0.58591 -0.05263
 C1746 C 0.37859 0.60834 -0.07189
 C1747 C 0.43406 0.64669 -0.14619
 C1748 C 0.45264 0.62706 -0.12525
 C1749 C 0.32336 0.63722 -0.08864
 C1750 C 0.34168 0.61663 -0.06819
 H1751 H 0.44876 0.65564 -0.16531
 H1752 H 0.48115 0.62137 -0.12884
 H1753 H 0.29476 0.64265 -0.08520
 H1754 H 0.32668 0.60667 -0.04959
 H1755 H 0.29390 0.67412 -0.13200
 H1756 H 0.39179 0.68109 -0.18396
 H1757 H 0.48040 0.58540 -0.08478
 H1758 H 0.38150 0.57445 -0.03460
 C1759 C 0.87361 0.84736 0.62065
 C1760 C 0.83712 0.83969 0.61424
 C1761 C 0.81712 0.81906 0.63369
 C1762 C 0.83318 0.80718 0.65975
 C1763 C 0.86999 0.81446 0.66548
 C1764 C 0.89040 0.83442 0.64594
 C1765 C 0.89411 0.87071 0.60128
 C1766 C 0.93026 0.87906 0.60819
 C1767 C 0.94889 0.90299 0.59085
 C1768 C 0.93128 0.91933 0.56730
 C1769 C 0.89540 0.90985 0.56006
 C1770 C 0.87666 0.88548 0.57702
 C1771 C 0.92692 0.84262 0.65167
 C1772 C 0.94659 0.86446 0.63303
 C1773 C 0.82102 0.85391 0.58913
 C1774 C 0.84042 0.87653 0.57089
 H1775 H 0.94020 0.83258 0.67102
 H1776 H 0.97451 0.87067 0.63851
 H1777 H 0.79292 0.84816 0.58392
 H1778 H 0.82672 0.88759 0.55214
 H1779 H 0.78867 0.81376 0.62936
 H1780 H 0.88250 0.80513 0.68544
 H1781 H 0.97645 0.91015 0.59664
 H1782 H 0.88176 0.92216 0.54184
 C1783 C 0.37279 0.34776 0.12030
 C1784 C 0.33625 0.34016 0.11403
 C1785 C 0.31636 0.31947 0.13352
 C1786 C 0.33259 0.30747 0.15947
 C1787 C 0.36944 0.31471 0.16506
 C1788 C 0.38974 0.33471 0.14548
 C1789 C 0.39320 0.37115 0.10089
 C1790 C 0.42942 0.37941 0.10764
 C1791 C 0.44797 0.40335 0.09027
 C1792 C 0.43023 0.41980 0.06683
 C1793 C 0.39428 0.41041 0.05974
 C1794 C 0.37561 0.38603 0.07674
 C1795 C 0.42631 0.34284 0.15106
 C1796 C 0.44589 0.36471 0.13237
 C1797 C 0.31999 0.35449 0.08903
 C1798 C 0.33930 0.37715 0.07076
 H1799 H 0.43972 0.33272 0.17032
 H1800 H 0.47386 0.37085 0.13773
 H1801 H 0.29185 0.34880 0.08393
 H1802 H 0.32549 0.38830 0.05210
 H1803 H 0.28788 0.31421 0.12930
 H1804 H 0.38207 0.30529 0.18494
 H1805 H 0.47558 0.41043 0.09593
 H1806 H 0.38054 0.42280 0.04161
   
