data_POSCAR
  _audit_creation_date              2014-09-24
  _audit_creation_method            'ToBaCCo'
  _symmetry_space_group_name_H-M    'P1'
  _symmetry_Int_Tables_number       1
  _symmetry_cell_setting            triclinic
  loop_
  _symmetry_equiv_pos_as_xyz
 x,y,z
_cell_length_a 51.1841
_cell_length_b 51.5932
_cell_length_c 59.7238
_cell_angle_alpha 89.964500
_cell_angle_beta 89.947800
_cell_angle_gamma 90.009000
loop_
  _atom_site_label
  _atom_site_type_symbol
  _atom_site_fract_x
  _atom_site_fract_y
  _atom_site_fract_z
Zr1 Zr 0.24646 0.24897 0.28958
 O2 O 0.26595 0.26918 0.31554
 O3 O 0.22124 0.22479 0.30793
 O4 O 0.22126 0.27351 0.30782
 O5 O 0.29659 0.20464 0.28137
 O6 O 0.20033 0.29732 0.28102
 O7 O 0.27223 0.22528 0.30804
 O8 O 0.19779 0.20422 0.28071
 O9 O 0.21227 0.24999 0.27035
 O10 O 0.24677 0.21520 0.27023
 O11 O 0.24874 0.28340 0.27077
 O12 O 0.28167 0.24999 0.27112
 Zr13 Zr 0.24928 0.25138 0.21143
 Zr14 Zr 0.21542 0.28331 0.25042
 Zr15 Zr 0.28045 0.21696 0.25061
 Zr16 Zr 0.21363 0.21698 0.25017
 O17 O 0.32169 0.21951 0.24933
 O18 O 0.17278 0.22370 0.24906
 O19 O 0.24723 0.21657 0.22998
 O20 O 0.21446 0.25019 0.23015
 O21 O 0.24914 0.28540 0.23055
 O22 O 0.28321 0.25021 0.23089
 C23 C 0.20344 0.20905 0.30121
 C24 C 0.29071 0.20997 0.30183
 C25 C 0.20523 0.29127 0.30150
 O26 O 0.17421 0.28039 0.24930
 O27 O 0.20187 0.29857 0.21976
 O28 O 0.22534 0.27704 0.19304
 C29 C 0.20791 0.29351 0.19931
 O30 O 0.29933 0.29680 0.28107
 Zr31 Zr 0.28229 0.28322 0.25082
 O32 O 0.27446 0.27556 0.19306
 O33 O 0.21948 0.32410 0.25145
 O34 O 0.27659 0.32393 0.25169
 O35 O 0.32334 0.27769 0.24993
 O36 O 0.29583 0.29832 0.22024
 C37 C 0.29087 0.29274 0.19975
 O38 O 0.22845 0.23251 0.18549
 O39 O 0.27667 0.17614 0.25200
 O40 O 0.27257 0.22513 0.19311
 O41 O 0.29261 0.20058 0.21993
 O42 O 0.21804 0.17613 0.25128
 O43 O 0.19972 0.20031 0.21990
 C44 C 0.28753 0.20648 0.19944
 H45 H 0.24684 0.19921 0.27941
 H46 H 0.19893 0.25005 0.22028
 H47 H 0.29937 0.24965 0.22178
 H48 H 0.24928 0.29883 0.28060
 H49 H 0.16395 0.20711 0.25264
 H50 H 0.16731 0.29833 0.24985
 H51 H 0.20160 0.33143 0.25085
 H52 H 0.29355 0.33221 0.24808
 H53 H 0.20063 0.16858 0.25454
 H54 H 0.29462 0.16898 0.25252
 H55 H 0.32839 0.20150 0.24889
 H56 H 0.33146 0.29471 0.24661
 H57 H 0.18476 0.18874 0.22320
 H58 H 0.23544 0.23898 0.17101
 H59 H 0.25917 0.26249 0.33001
 H60 H 0.31136 0.31133 0.27773
 Zr61 Zr 0.74917 0.75111 0.28832
 O62 O 0.72931 0.73012 0.31366
 O63 O 0.77399 0.77489 0.30735
 O64 O 0.77437 0.72654 0.30649
 O65 O 0.69900 0.79534 0.28018
 O66 O 0.79606 0.70354 0.27959
 O67 O 0.72297 0.77432 0.30687
 O68 O 0.79793 0.79603 0.28072
 O69 O 0.78368 0.75069 0.26945
 O70 O 0.74905 0.78530 0.26949
 O71 O 0.74749 0.71707 0.26899
 O72 O 0.71430 0.75031 0.26945
 Zr73 Zr 0.74779 0.75040 0.21015
 Zr74 Zr 0.78116 0.71779 0.24900
 Zr75 Zr 0.71574 0.78379 0.24945
 Zr76 Zr 0.78254 0.78413 0.24979
 O77 O 0.67454 0.78103 0.24758
 O78 O 0.82346 0.77771 0.24888
 O79 O 0.74931 0.78482 0.22923
 O80 O 0.78228 0.75136 0.22925
 O81 O 0.74779 0.71598 0.22875
 O82 O 0.71349 0.75094 0.22921
 C83 C 0.79200 0.79065 0.30108
 C84 C 0.70454 0.78967 0.30063
 C85 C 0.79085 0.70922 0.30010
 O86 O 0.82236 0.72092 0.24817
 O87 O 0.79516 0.70313 0.21822
 O88 O 0.77206 0.72523 0.19163
 C89 C 0.78939 0.70863 0.19779
 O90 O 0.69672 0.70329 0.27850
 Zr91 Zr 0.71428 0.71751 0.24865
 O92 O 0.72315 0.72646 0.19111
 O93 O 0.77732 0.67697 0.24960
 O94 O 0.72015 0.67682 0.24911
 O95 O 0.67322 0.72279 0.24723
 O96 O 0.70156 0.70288 0.21769
 C97 C 0.70688 0.70892 0.19734
 O98 O 0.76903 0.76994 0.18477
 O99 O 0.71921 0.82459 0.25158
 O100 O 0.72476 0.77698 0.19197
 O101 O 0.70415 0.80090 0.21891
 O102 O 0.77792 0.82492 0.25167
 O103 O 0.79676 0.80165 0.21995
 C104 C 0.70967 0.79550 0.19841
 H105 H 0.74876 0.80107 0.27893
 H106 H 0.79796 0.75178 0.21954
 H107 H 0.69752 0.75161 0.21989
 H108 H 0.74692 0.70144 0.27860
 H109 H 0.83212 0.79427 0.25283
 H110 H 0.82935 0.70301 0.24855
 H111 H 0.79526 0.66976 0.24907
 H112 H 0.70331 0.66853 0.24517
 H113 H 0.79524 0.83244 0.25528
 H114 H 0.70120 0.83163 0.25196
 H115 H 0.66775 0.79901 0.24736
 H116 H 0.66530 0.70578 0.24356
 H117 H 0.81153 0.81329 0.22359
 H118 H 0.76233 0.76379 0.17011
 H119 H 0.73576 0.73651 0.32832
 H120 H 0.68478 0.68881 0.27482
 Zr121 Zr 0.75200 0.24843 -0.29117
 O122 O 0.73235 0.26893 -0.31689
 O123 O 0.77687 0.22423 -0.30980
 O124 O 0.77726 0.27269 -0.30964
 O125 O 0.70148 0.20464 -0.28254
 O126 O 0.79897 0.29604 -0.28300
 O127 O 0.72582 0.22497 -0.30942
 O128 O 0.80046 0.20334 -0.28284
 O129 O 0.78643 0.24898 -0.27226
 O130 O 0.75154 0.21460 -0.27187
 O131 O 0.75042 0.28283 -0.27231
 O132 O 0.71703 0.24980 -0.27240
 Zr133 Zr 0.75026 0.25065 -0.21302
 Zr134 Zr 0.78401 0.28227 -0.25227
 Zr135 Zr 0.71813 0.21671 -0.25192
 Zr136 Zr 0.78495 0.21592 -0.25212
 O137 O 0.67695 0.21981 -0.25020
 O138 O 0.82591 0.22207 -0.25119
 O139 O 0.75162 0.21587 -0.23162
 O140 O 0.78482 0.24908 -0.23205
 O141 O 0.75056 0.28469 -0.23213
 O142 O 0.71602 0.24996 -0.23212
 C143 C 0.79473 0.20845 -0.30328
 C144 C 0.70722 0.20987 -0.30305
 C145 C 0.79372 0.29012 -0.30344
 O146 O 0.82518 0.27885 -0.25145
 O147 O 0.79803 0.29740 -0.22171
 O148 O 0.77474 0.27593 -0.19482
 C149 C 0.79219 0.29232 -0.20121
 O150 O 0.69968 0.29654 -0.28216
 Zr151 Zr 0.71711 0.28298 -0.25206
 O152 O 0.72593 0.27537 -0.19440
 O153 O 0.78045 0.32310 -0.25333
 O154 O 0.72313 0.32363 -0.25333
 O155 O 0.67603 0.27795 -0.25039
 O156 O 0.70464 0.29858 -0.22136
 C157 C 0.70998 0.29306 -0.20091
 O158 O 0.77114 0.23138 -0.18731
 O159 O 0.72131 0.17585 -0.25343
 O160 O 0.72686 0.22466 -0.19452
 O161 O 0.70628 0.20030 -0.22116
 O162 O 0.78004 0.17513 -0.25345
 O163 O 0.79887 0.19888 -0.22199
 C164 C 0.71170 0.20610 -0.20072
 H165 H 0.75121 0.19866 -0.28109
 H166 H 0.80046 0.24874 -0.22231
 H167 H 0.70003 0.24963 -0.22278
 H168 H 0.74996 0.29828 -0.28213
 H169 H 0.83447 0.20537 -0.25486
 H170 H 0.83230 0.29671 -0.25204
 H171 H 0.79843 0.33022 -0.25290
 H172 H 0.70630 0.33209 -0.24960
 H173 H 0.79732 0.16743 -0.25689
 H174 H 0.70325 0.16894 -0.25375
 H175 H 0.67002 0.20189 -0.24971
 H176 H 0.66822 0.29509 -0.24700
 H177 H 0.81356 0.18705 -0.22543
 H178 H 0.76445 0.23791 -0.17276
 H179 H 0.73886 0.26222 -0.33144
 H180 H 0.68764 0.31102 -0.27872
 Zr181 Zr 0.24976 0.75107 -0.28722
 O182 O 0.26924 0.73038 -0.31292
 O183 O 0.22541 0.77574 -0.30588
 O184 O 0.22429 0.72702 -0.30568
 O185 O 0.30055 0.79453 -0.27860
 O186 O 0.20242 0.70373 -0.27904
 O187 O 0.27626 0.77428 -0.30547
 O188 O 0.20196 0.79690 -0.27900
 O189 O 0.21524 0.75076 -0.26836
 O190 O 0.25043 0.78487 -0.26793
 O191 O 0.25100 0.71666 -0.26832
 O192 O 0.28465 0.74942 -0.26843
 Zr193 Zr 0.25126 0.74882 -0.20905
 Zr194 Zr 0.21736 0.71745 -0.24830
 Zr195 Zr 0.28375 0.78252 -0.24798
 Zr196 Zr 0.21692 0.78379 -0.24825
 O197 O 0.32490 0.77908 -0.24625
 O198 O 0.17593 0.77781 -0.24766
 O199 O 0.25020 0.78360 -0.22771
 O200 O 0.21676 0.75065 -0.22811
 O201 O 0.25074 0.71478 -0.22812
 O202 O 0.28554 0.74927 -0.22815
 C203 C 0.20787 0.79193 -0.29945
 C204 C 0.29491 0.78934 -0.29913
 C205 C 0.20774 0.70964 -0.29948
 O206 O 0.17621 0.72116 -0.24750
 O207 O 0.20314 0.70244 -0.21770
 O208 O 0.22662 0.72362 -0.19086
 C209 C 0.20900 0.70740 -0.19718
 O210 O 0.30155 0.70238 -0.27811
 Zr211 Zr 0.28424 0.71624 -0.24805
 O212 O 0.27558 0.72412 -0.19038
 O213 O 0.22061 0.67660 -0.24930
 O214 O 0.27780 0.67565 -0.24907
 O215 O 0.32537 0.72093 -0.24657
 O216 O 0.29677 0.70078 -0.21732
 C217 C 0.29157 0.70645 -0.19688
 O218 O 0.23038 0.76815 -0.18337
 O219 O 0.28090 0.82340 -0.24949
 O220 O 0.27471 0.77475 -0.19055
 O221 O 0.29563 0.79885 -0.21722
 O222 O 0.22216 0.82456 -0.24929
 O223 O 0.20276 0.80080 -0.21818
 C224 C 0.29006 0.79317 -0.19678
 H225 H 0.25097 0.80084 -0.27712
 H226 H 0.20109 0.75109 -0.21839
 H227 H 0.30153 0.74952 -0.21884
 H228 H 0.25138 0.70120 -0.27813
 H229 H 0.16749 0.79454 -0.25140
 H230 H 0.16897 0.70336 -0.24810
 H231 H 0.20258 0.66961 -0.24880
 H232 H 0.29454 0.66705 -0.24530
 H233 H 0.20498 0.83244 -0.25277
 H234 H 0.29902 0.83018 -0.24982
 H235 H 0.33197 0.79695 -0.24575
 H236 H 0.33306 0.70374 -0.24317
 H237 H 0.18803 0.81256 -0.22167
 H238 H 0.23701 0.76159 -0.16881
 H239 H 0.26286 0.73718 -0.32748
 H240 H 0.31332 0.68770 -0.27465
 Zr241 Zr 1.24791 1.25120 0.78878
 O242 O 1.22775 1.22959 0.81354
 O243 O 1.27159 1.27533 0.80850
 O244 O 1.27308 1.22691 0.80729
 O245 O 1.19736 1.29484 0.77998
 O246 O 1.29581 1.20451 0.78064
 O247 O 1.22087 1.27378 0.80695
 O248 O 1.29591 1.29720 0.78256
 O249 O 1.28295 1.25148 0.77064
 O250 O 1.24778 1.28557 0.77019
 O251 O 1.24725 1.21734 0.76919
 O252 O 1.21357 1.25013 0.76923
 Zr253 Zr 1.24863 1.25132 0.71064
 Zr254 Zr 1.28143 1.21877 0.74989
 Zr255 Zr 1.21505 1.28382 0.74950
 Zr256 Zr 1.28185 1.28510 0.75120
 O257 O 1.17396 1.28049 0.74682
 O258 O 1.32284 1.27912 0.75133
 O259 O 1.24916 1.28555 0.72999
 O260 O 1.28260 1.25254 0.73040
 O261 O 1.24863 1.21672 0.72899
 O262 O 1.21382 1.25116 0.72900
 C263 C 1.28936 1.29161 0.80274
 C264 C 1.20243 1.28898 0.80047
 C265 C 1.29000 1.20992 0.80109
 O266 O 1.32259 1.22246 0.74970
 O267 O 1.29619 1.20440 0.71928
 O268 O 1.27351 1.22650 0.69242
 C269 C 1.29077 1.20994 0.69879
 O270 O 1.19641 1.20280 0.77761
 Zr271 Zr 1.21458 1.21754 0.74821
 O272 O 1.22486 1.22728 0.69091
 O273 O 1.27819 1.17789 0.75027
 O274 O 1.22101 1.17694 0.74850
 O275 O 1.17350 1.22222 0.74597
 O276 O 1.20300 1.20304 0.71688
 C277 C 1.20875 1.20939 0.69669
 O278 O 1.27038 1.27140 0.68590
 O279 O 1.21785 1.32464 0.75197
 O280 O 1.22571 1.27772 0.69216
 O281 O 1.20400 1.30104 0.71887
 O282 O 1.27661 1.32582 0.75305
 O283 O 1.29686 1.30300 0.72181
 C284 C 1.21015 1.29592 0.69843
 H285 H 1.24696 1.30126 0.77971
 H286 H 1.29852 1.25322 0.72099
 H287 H 1.19810 1.25169 0.71937
 H288 H 1.24667 1.20162 0.77869
 H289 H 1.33116 1.29572 0.75563
 H290 H 1.32981 1.20465 0.75014
 H291 H 1.29624 1.17094 0.74998
 H292 H 1.20439 1.16845 0.74418
 H293 H 1.29370 1.33357 0.75706
 H294 H 1.19974 1.33141 0.75206
 H295 H 1.16690 1.29837 0.74659
 H296 H 1.16595 1.20514 0.74200
 H297 H 1.31147 1.31465 0.72587
 H298 H 1.26419 1.26532 0.67105
 H299 H 1.23366 1.23595 0.82838
 H300 H 1.18478 1.18820 0.77358
 Zr301 Zr 0.74669 0.74910 0.78939
 O302 O 0.76592 0.76966 0.81529
 O303 O 0.72204 0.72445 0.80781
 O304 O 0.72111 0.77318 0.80771
 O305 O 0.79749 0.70557 0.78105
 O306 O 0.69970 0.79662 0.78094
 O307 O 0.77289 0.72584 0.80777
 O308 O 0.69886 0.70344 0.78067
 O309 O 0.71242 0.74955 0.77026
 O310 O 0.74751 0.71534 0.77002
 O311 O 0.74834 0.78356 0.77060
 O312 O 0.78183 0.75066 0.77087
 Zr313 Zr 0.74925 0.75155 0.71125
 Zr314 Zr 0.71497 0.78291 0.75032
 Zr315 Zr 0.78109 0.71763 0.75033
 Zr316 Zr 0.71427 0.71658 0.75007
 O317 O 0.82228 0.72088 0.74893
 O318 O 0.67331 0.72269 0.74916
 O319 O 0.74780 0.71670 0.72980
 O320 O 0.71450 0.74979 0.73004
 O321 O 0.74860 0.78554 0.73040
 O322 O 0.78327 0.75094 0.73062
 C323 C 0.70455 0.70836 0.80115
 C324 C 0.79158 0.71081 0.80151
 C325 C 0.70475 0.79065 0.80141
 O326 O 0.67381 0.77935 0.74922
 O327 O 0.70118 0.79802 0.71969
 O328 O 0.72491 0.77684 0.69293
 C329 C 0.70727 0.79306 0.69923
 O330 O 0.79880 0.79762 0.78082
 Zr331 Zr 0.78183 0.78391 0.75059
 O332 O 0.77390 0.77621 0.69284
 O333 O 0.71835 0.82376 0.75140
 O334 O 0.77554 0.82452 0.75161
 O335 O 0.82296 0.77907 0.74948
 O336 O 0.79485 0.79937 0.72001
 C337 C 0.78992 0.79375 0.69952
 O338 O 0.72863 0.73234 0.68537
 O339 O 0.77803 0.67676 0.75174
 O340 O 0.77288 0.72568 0.69286
 O341 O 0.79336 0.70141 0.71962
 O342 O 0.71934 0.67579 0.75107
 O343 O 0.70042 0.69973 0.71985
 C344 C 0.78811 0.70722 0.69915
 H345 H 0.74788 0.69935 0.77919
 H346 H 0.69895 0.74942 0.72020
 H347 H 0.79938 0.75066 0.72145
 H348 H 0.74865 0.79899 0.78043
 H349 H 0.66476 0.70597 0.75279
 H350 H 0.66663 0.79717 0.74978
 H351 H 0.70035 0.83080 0.75083
 H352 H 0.79236 0.83307 0.74800
 H353 H 0.70208 0.66796 0.75439
 H354 H 0.79611 0.66991 0.75219
 H355 H 0.82927 0.70298 0.74848
 H356 H 0.83076 0.79623 0.74615
 H357 H 0.68563 0.68797 0.72320
 H358 H 0.73545 0.73892 0.67088
 H359 H 0.75933 0.76285 0.82978
 H360 H 0.81064 0.81230 0.77748
 Zr361 Zr 1.25299 0.74823 0.20859
 O362 O 1.23333 0.76896 0.18302
 O363 O 1.27835 0.72470 0.18982
 O364 O 1.27816 0.77301 0.19058
 O365 O 1.20288 0.70380 0.21634
 O366 O 1.29937 0.79619 0.21761
 O367 O 1.22724 0.72484 0.18987
 O368 O 1.30201 0.70372 0.21669
 O369 O 1.28723 0.74887 0.22774
 O370 O 1.25276 0.71407 0.22745
 O371 O 1.25084 0.78232 0.22782
 O372 O 1.21785 0.74889 0.22713
 Zr373 Zr 1.25051 0.74914 0.28669
 Zr374 Zr 1.28425 0.78181 0.24808
 Zr375 Zr 1.21915 0.71547 0.24720
 Zr376 Zr 1.28597 0.71546 0.24744
 O377 O 1.17792 0.71799 0.24868
 O378 O 1.32685 0.72200 0.24884
 O379 O 1.25245 0.71466 0.26772
 O380 O 1.28527 0.74830 0.26790
 O381 O 1.25059 0.78351 0.26802
 O382 O 1.21647 0.74837 0.26736
 C383 C 1.29643 0.70913 0.19627
 C384 C 1.20873 0.70948 0.19594
 C385 C 1.29439 0.79049 0.19708
 O386 O 1.32545 0.77887 0.24918
 O387 O 1.29777 0.79658 0.27892
 O388 O 1.27445 0.77442 0.30537
 C389 C 1.29177 0.79109 0.29931
 O390 O 1.20008 0.79564 0.21779
 Zr391 Zr 1.21735 0.78174 0.24785
 O392 O 1.22568 0.77319 0.30547
 O393 O 1.28022 0.82261 0.24746
 O394 O 1.22295 0.82247 0.24720
 O395 O 1.17631 0.77626 0.24908
 O396 O 1.20433 0.79658 0.27866
 C397 C 1.20952 0.79073 0.29906
 O398 O 1.27141 0.72968 0.31228
 O399 O 1.22288 0.67469 0.24522
 O400 O 1.22720 0.72267 0.30474
 O401 O 1.20713 0.69849 0.27770
 O402 O 1.28157 0.67465 0.24547
 O403 O 1.29973 0.69805 0.27747
 C404 C 1.21226 0.70409 0.29824
 H405 H 1.25272 0.69830 0.21801
 H406 H 1.30081 0.74798 0.27774
 H407 H 1.20038 0.74771 0.27656
 H408 H 1.25030 0.79792 0.21818
 H409 H 1.33563 0.70546 0.24502
 H410 H 1.33236 0.79681 0.24884
 H411 H 1.29811 0.82992 0.24812
 H412 H 1.20599 0.83068 0.25094
 H413 H 1.29898 0.66722 0.24206
 H414 H 1.20492 0.66755 0.24467
 H415 H 1.17122 0.69997 0.24885
 H416 H 1.16828 0.79325 0.25263
 H417 H 1.31453 0.68636 0.27399
 H418 H 1.26453 0.73587 0.32687
 H419 H 1.24004 0.76260 0.16842
 H420 H 1.18793 0.81001 0.22132
 Zr421 Zr 0.75084 1.24923 0.21314
 O422 O 0.77062 1.22866 0.18753
 O423 O 0.72593 1.27323 0.19439
 O424 O 0.72568 1.22469 0.19487
 O425 O 0.80088 1.29364 0.22140
 O426 O 0.70429 1.20124 0.22169
 O427 O 0.77683 1.27276 0.19469
 O428 O 0.70213 1.29412 0.22124
 O429 O 0.71641 1.24847 0.23211
 O430 O 0.75097 1.28320 0.23223
 O431 O 0.75276 1.21498 0.23220
 O432 O 0.78582 1.24835 0.23185
 Zr433 Zr 0.75268 1.24761 0.29128
 Zr434 Zr 0.71919 1.21535 0.25231
 Zr435 Zr 0.78440 1.28159 0.25212
 Zr436 Zr 0.71757 1.28169 0.25202
 O437 O 0.82562 1.27893 0.25373
 O438 O 0.67669 1.27505 0.25290
 O439 O 0.75092 1.28224 0.27247
 O440 O 0.71808 1.24869 0.27232
 O441 O 0.75268 1.21340 0.27241
 O442 O 0.78687 1.24850 0.27209
 C443 C 0.70803 1.28902 0.20082
 C444 C 0.79522 1.28816 0.20094
 C445 C 0.70939 1.20714 0.20120
 O446 O 0.67798 1.21834 0.25322
 O447 O 0.70531 1.20037 0.28302
 O448 O 0.72852 1.22219 0.30969
 C449 C 0.71115 1.20567 0.30347
 O450 O 0.80350 1.20153 0.22234
 Zr451 Zr 0.78608 1.21531 0.25238
 O452 O 0.77750 1.22347 0.31002
 O453 O 0.72317 1.17455 0.25151
 O454 O 0.78035 1.17460 0.25164
 O455 O 0.82713 1.22072 0.25367
 O456 O 0.79905 1.20035 0.28316
 C457 C 0.79383 1.20609 0.30358
 O458 O 0.73157 1.26680 0.31691
 O459 O 0.78077 1.32240 0.25040
 O460 O 0.77578 1.27399 0.30959
 O461 O 0.79617 1.29831 0.28276
 O462 O 0.72208 1.32253 0.25060
 O463 O 0.70333 1.29872 0.28205
 C464 C 0.79080 1.29261 0.30325
 H465 H 0.75118 1.29909 0.22293
 H466 H 0.70244 1.24895 0.28208
 H467 H 0.80289 1.24910 0.28135
 H468 H 0.75335 1.19946 0.22247
 H469 H 0.66795 1.29162 0.24909
 H470 H 0.67105 1.20041 0.25275
 H471 H 0.70527 1.16726 0.25205
 H472 H 0.79726 1.16633 0.25542
 H473 H 0.70473 1.33006 0.24712
 H474 H 0.79875 1.32951 0.24999
 H475 H 0.83236 1.29693 0.25410
 H476 H 0.83513 1.20369 0.25714
 H477 H 0.68845 1.31030 0.27854
 H478 H 0.73836 1.26048 0.33149
 H479 H 0.76407 1.23521 0.17295
 H480 H 0.81550 1.18703 0.22585
 O481 O 0.53617 1.04788 0.04067
 O482 O 0.56559 1.02461 0.01960
 C483 C 0.55974 1.04133 0.03509
 O484 O 0.46383 0.95481 0.03843
 O485 O 0.43442 0.97945 0.01861
 C486 C 0.44027 0.96139 0.03291
 O487 O 0.53638 0.95793 0.04105
 O488 O 0.56567 0.98111 0.01979
 C489 C 0.55991 0.96449 0.03537
 O490 O 0.46355 1.05037 0.03854
 O491 O 0.43436 1.02529 0.01890
 C492 C 0.44004 1.04340 0.03320
 Zr493 Zr 0.49986 1.03559 0.02762
 O494 O 0.49766 1.03697 0.06300
 O495 O 0.50099 1.07641 0.02483
 Zr496 Zr 0.50003 0.97064 0.02844
 O497 O 0.49881 0.97537 0.06357
 O498 O 0.50152 0.92991 0.03208
 O499 O 0.52344 1.00316 0.03232
 O500 O 0.47691 1.00303 0.03210
 O501 O 0.46379 1.04992 -0.03943
 O502 O 0.43443 1.02548 -0.01929
 C503 C 0.44024 1.04332 -0.03384
 O504 O 0.53631 0.95676 -0.04065
 O505 O 0.56561 0.98000 -0.01955
 C506 C 0.55983 0.96317 -0.03494
 O507 O 0.46365 0.95491 -0.03889
 O508 O 0.43432 0.97948 -0.01893
 C509 C 0.44011 0.96150 -0.03329
 O510 O 0.53637 1.04746 -0.04156
 O511 O 0.56562 1.02463 -0.02005
 C512 C 0.55988 1.04104 -0.03578
 Zr513 Zr 0.50004 1.03495 -0.02866
 O514 O 0.49714 1.03425 -0.06403
 O515 O 0.50248 1.07590 -0.02876
 Zr516 Zr 0.50005 0.96966 -0.02806
 O517 O 0.49728 0.96954 -0.06344
 O518 O 0.50268 0.92868 -0.02757
 Zr519 Zr 0.53936 1.00265 -0.00027
 Zr520 Zr 0.46066 1.00256 -0.00025
 O521 O 0.47721 1.00225 -0.03251
 O522 O 0.52351 1.00225 -0.03285
 O523 O 0.47647 1.04027 -0.00055
 O524 O 0.52281 0.96530 0.00024
 O525 O 0.52291 1.04003 -0.00052
 O526 O 0.47676 0.96489 0.00022
 H527 H 0.46511 1.00300 0.04526
 H528 H 0.53446 0.94996 0.00045
 H529 H 0.46547 1.00217 -0.04569
 H530 H 0.53467 1.05528 -0.00058
 H531 H 0.50110 0.92256 0.01683
 H532 H 0.48744 0.92199 -0.01915
 H533 H 0.51210 0.97976 -0.06937
 H534 H 0.51194 1.02389 -0.06980
 H535 H 0.49014 1.08234 -0.01728
 H536 H 0.50113 1.08319 0.04036
 H537 H 0.50940 1.02331 0.06882
 H538 H 0.49834 0.95766 0.06998
 O539 O 1.03596 0.54785 0.54091
 O540 O 1.06546 0.52468 0.51986
 C541 C 1.05954 0.54138 0.53534
 O542 O 0.96367 0.45527 0.53898
 O543 O 0.93434 0.47951 0.51872
 C544 C 0.94014 0.46166 0.53323
 O545 O 1.03627 0.45813 0.54137
 O546 O 1.06555 0.48062 0.51955
 C547 C 1.05980 0.46435 0.53540
 O548 O 0.96332 0.55026 0.53851
 O549 O 0.93416 0.52554 0.51847
 C550 C 0.93983 0.54349 0.53293
 Zr551 Zr 0.99973 0.53553 0.52774
 O552 O 0.99752 0.53681 0.56311
 O553 O 1.00083 0.57637 0.52506
 Zr554 Zr 0.99997 0.47051 0.52844
 O555 O 0.99858 0.47397 0.56368
 O556 O 1.00267 0.42962 0.53015
 O557 O 1.02333 0.50310 0.53242
 O558 O 0.97685 0.50295 0.53215
 O559 O 0.96373 0.54989 0.46066
 O560 O 0.93438 0.52536 0.48073
 C561 C 0.94019 0.54323 0.46621
 O562 O 1.03638 0.45696 0.45936
 O563 O 1.06562 0.48018 0.48056
 C564 C 1.05988 0.46339 0.46512
 O565 O 0.96375 0.45480 0.46116
 O566 O 0.93437 0.47936 0.48110
 C567 C 0.94019 0.46138 0.46672
 O568 O 1.03634 0.54753 0.45859
 O569 O 1.06559 0.52483 0.48021
 C570 C 1.05985 0.54118 0.46443
 Zr571 Zr 0.99999 0.53492 0.47140
 O572 O 0.99713 0.53408 0.43603
 O573 O 1.00233 0.57588 0.47117
 Zr574 Zr 1.00007 0.46973 0.47195
 O575 O 0.99726 0.46968 0.43657
 O576 O 1.00299 0.42878 0.47247
 Zr577 Zr 1.03932 0.50274 0.49987
 Zr578 Zr 0.96063 0.50250 0.49981
 O579 O 0.97716 0.50225 0.46753
 O580 O 1.02353 0.50232 0.46725
 O581 O 0.97643 0.54021 0.49952
 O582 O 1.02278 0.46538 0.50026
 O583 O 1.02278 0.54007 0.49961
 O584 O 0.97669 0.46486 0.50021
 H585 H 0.96506 0.50301 0.54532
 H586 H 1.03436 0.45000 0.50046
 H587 H 0.96543 0.50214 0.45435
 H588 H 1.03452 0.55535 0.49959
 H589 H 0.99021 0.42250 0.51911
 H590 H 0.98808 0.42203 0.48125
 H591 H 1.01209 0.47989 0.43065
 H592 H 1.01214 0.52403 0.43027
 H593 H 0.99030 0.58231 0.48290
 H594 H 1.00085 0.58309 0.54060
 H595 H 1.00847 0.52248 0.56885
 H596 H 0.99854 0.45604 0.56964
 O597 O 0.95282 0.46474 -0.04104
 O598 O 0.97600 0.43564 -0.01969
 C599 C 0.95925 0.44139 -0.03527
 O600 O 1.04650 0.53588 -0.03997
 O601 O 1.02235 0.56540 -0.01990
 C602 C 1.04023 0.55935 -0.03446
 O603 O 1.04300 0.46379 -0.04163
 O604 O 1.01981 0.43519 -0.01976
 C605 C 1.03634 0.44057 -0.03560
 O606 O 0.95067 0.53684 -0.03916
 O607 O 0.97592 0.56584 -0.01951
 C608 C 0.95766 0.56017 -0.03378
 Zr609 Zr 0.96536 0.50076 -0.02813
 O610 O 0.96389 0.50253 -0.06350
 O611 O 0.92420 0.49988 -0.02528
 Zr612 Zr 1.03101 0.50010 -0.02894
 O613 O 1.02768 0.50104 -0.06421
 O614 O 1.07221 0.49709 -0.03043
 O615 O 0.99795 0.47715 -0.03264
 O616 O 0.99838 0.52315 -0.03283
 O617 O 0.95122 0.53744 0.03853
 O618 O 0.97613 0.56614 0.01818
 C619 C 0.95804 0.56068 0.03274
 O620 O 1.04426 0.46476 0.04060
 O621 O 1.02025 0.43563 0.02002
 C622 C 1.03735 0.44141 0.03529
 O623 O 1.04703 0.53686 0.03800
 O624 O 1.02246 0.56587 0.01776
 C625 C 1.04052 0.56018 0.03220
 O626 O 0.95312 0.46542 0.04130
 O627 O 0.97587 0.43601 0.01998
 C628 C 0.95939 0.44198 0.03569
 Zr629 Zr 0.96606 0.50123 0.02813
 O630 O 0.96688 0.50455 0.06347
 O631 O 0.92476 0.49913 0.02834
 Zr632 Zr 1.03188 0.50074 0.02750
 O633 O 1.03248 0.50398 0.06284
 O634 O 1.07312 0.49750 0.02659
 Zr635 Zr 0.99831 0.46169 0.00004
 Zr636 Zr 0.99901 0.53969 -0.00067
 O637 O 0.99919 0.52369 0.03175
 O638 O 0.99883 0.47781 0.03248
 O639 O 0.96087 0.52431 -0.00016
 O640 O 1.03609 0.47772 -0.00057
 O641 O 0.96074 0.47825 0.00018
 O642 O 1.03686 0.52356 -0.00097
 H643 H 0.99834 0.53469 -0.04611
 H644 H 1.05137 0.46593 -0.00066
 H645 H 0.99937 0.53549 0.04483
 H646 H 0.94528 0.46669 0.00031
 H647 H 1.07943 0.50991 -0.01981
 H648 H 1.07999 0.51254 0.01816
 H649 H 1.02133 0.49001 0.06895
 H650 H 0.97690 0.48966 0.06939
 H651 H 0.91833 0.51117 0.01668
 H652 H 0.91735 0.49971 -0.04080
 H653 H 0.97853 0.49187 -0.06919
 H654 H 1.04578 0.50083 -0.07012
 O655 O 0.45164 0.96384 0.45947
 O656 O 0.47424 0.93457 0.48109
 C657 C 0.45773 0.94044 0.46537
 O658 O 0.54544 1.03505 0.46117
 O659 O 0.52116 1.06438 0.48133
 C660 C 0.53914 1.05846 0.46683
 O661 O 0.54210 0.96315 0.45889
 O662 O 0.51937 0.93420 0.48075
 C663 C 0.53570 0.93984 0.46481
 O664 O 0.44958 1.03585 0.46167
 O665 O 0.47463 1.06476 0.48159
 C666 C 0.45645 1.05915 0.46721
 Zr667 Zr 0.46435 0.99973 0.47250
 O668 O 0.46324 1.00181 0.43712
 O669 O 0.42317 0.99885 0.47509
 Zr670 Zr 0.52985 0.99919 0.47183
 O671 O 0.52639 1.00050 0.43659
 O672 O 0.57105 0.99625 0.47018
 O673 O 0.49690 0.97610 0.46789
 O674 O 0.49728 1.02228 0.46804
 O675 O 0.44993 1.03583 0.53940
 O676 O 0.47487 1.06473 0.51928
 C677 C 0.45676 1.05913 0.53376
 O678 O 0.54325 0.96321 0.54098
 O679 O 0.51974 0.93423 0.51983
 C680 C 0.53666 0.93990 0.53526
 O681 O 0.54582 1.03531 0.53902
 O682 O 0.52128 1.06451 0.51896
 C683 C 0.53933 1.05869 0.53338
 O684 O 0.45193 0.96383 0.54178
 O685 O 0.47470 0.93454 0.52033
 C686 C 0.45819 0.94042 0.53608
 Zr687 Zr 0.46494 0.99973 0.52886
 O688 O 0.46597 1.00276 0.56422
 O689 O 0.42365 0.99765 0.52923
 Zr690 Zr 0.53053 0.99931 0.52836
 O691 O 0.53034 1.00224 0.56373
 O692 O 0.57179 0.99622 0.52809
 Zr693 Zr 0.49718 0.96036 0.50048
 Zr694 Zr 0.49780 1.03850 0.50032
 O695 O 0.49793 1.02227 0.53266
 O696 O 0.49762 0.97617 0.53307
 O697 O 0.45972 1.02299 0.50066
 O698 O 0.53490 0.97664 0.50008
 O699 O 0.45966 0.97705 0.50072
 O700 O 0.53564 1.02234 0.50002
 H701 H 0.49727 1.03394 0.45485
 H702 H 0.55034 0.96507 0.49990
 H703 H 0.49807 1.03399 0.54580
 H704 H 0.44412 0.96559 0.50084
 H705 H 0.57829 1.00867 0.48114
 H706 H 0.57869 1.01070 0.51899
 H707 H 0.52032 0.98735 0.56968
 H708 H 0.47579 0.98768 0.57003
 H709 H 0.41722 1.00924 0.51724
 H710 H 0.41643 0.99883 0.45954
 H711 H 0.47746 0.99061 0.43144
 H712 H 0.54446 1.00045 0.43062
 O713 O 1.05081 0.95309 0.53226
 O714 O 1.02580 0.97649 0.55706
 C715 C 1.04414 0.96008 0.55230
 O716 O 1.04544 1.04384 0.46784
 O717 O 1.02239 1.01770 0.44376
 C718 C 1.03866 1.03628 0.44800
 O719 O 1.04977 1.04303 0.53015
 O720 O 1.02579 1.01992 0.55585
 C721 C 1.04345 1.03677 0.55043
 O722 O 1.04710 0.94843 0.47000
 O723 O 1.02304 0.97243 0.44500
 C724 C 1.04000 0.95469 0.44991
 Zr725 Zr 1.03511 0.96400 0.50095
 O726 O 1.07636 0.96328 0.49845
 O727 O 1.03290 0.92315 0.50296
 Zr728 Zr 1.03491 1.02914 0.49956
 O729 O 1.07596 1.02513 0.49814
 O730 O 1.03848 1.06999 0.49915
 O731 O 1.04045 0.99718 0.52023
 O732 O 1.03943 0.99614 0.48055
 O733 O 0.95707 0.94779 0.47096
 O734 O 0.97940 0.97260 0.44526
 C735 C 0.96318 0.95436 0.45066
 O736 O 0.95482 1.04199 0.53196
 O737 O 0.98037 1.01944 0.55687
 C738 C 0.96216 1.03593 0.55203
 O739 O 0.95579 1.04296 0.46956
 O740 O 0.97889 1.01782 0.44478
 C741 C 0.96223 1.03587 0.44953
 O742 O 0.95536 0.95207 0.53360
 O743 O 0.98061 0.97615 0.55769
 C744 C 0.96251 0.95931 0.55344
 Zr745 Zr 0.96934 0.96355 0.50183
 O746 O 0.92804 0.96329 0.49982
 O747 O 0.96965 0.92267 0.50474
 Zr748 Zr 0.96882 1.02886 0.50072
 O749 O 0.92751 1.02796 0.49887
 O750 O 0.96831 1.06985 0.50217
 Zr751 Zr 1.00261 0.99733 0.53417
 Zr752 Zr 1.00137 0.99566 0.46734
 O753 O 0.96388 0.99571 0.48182
 O754 O 0.96425 0.99666 0.52134
 O755 O 1.00193 0.95826 0.48149
 O756 O 1.00221 1.03437 0.51947
 O757 O 1.00264 0.95951 0.52104
 O758 O 1.00141 1.03372 0.48021
 H759 H 1.05453 0.99602 0.47015
 H760 H 1.00223 1.04985 0.52927
 H761 H 0.94837 0.99533 0.47191
 H762 H 1.00297 0.94454 0.53144
 H763 H 1.02138 1.07717 0.50363
 H764 H 0.97965 1.07633 0.48996
 H765 H 0.92103 1.01835 0.51210
 H766 H 0.92132 0.97402 0.51227
 H767 H 0.98344 0.91616 0.49457
 H768 H 1.05118 0.91683 0.50305
 H769 H 1.08309 0.97728 0.50818
 H770 H 1.08306 1.04295 0.49698
 O771 O 0.45196 0.45277 -0.03016
 O772 O 0.47682 0.47551 -0.05555
 C773 C 0.45846 0.45930 -0.05036
 O774 O 0.45729 0.54465 0.03227
 O775 O 0.48108 0.51955 0.05665
 C776 C 0.46454 0.53782 0.05219
 O777 O 0.45267 0.54186 -0.03021
 O778 O 0.47713 0.51868 -0.05555
 C779 C 0.45914 0.53531 -0.05040
 O780 O 0.45658 0.44970 0.03233
 O781 O 0.48073 0.47454 0.05667
 C782 C 0.46387 0.45653 0.05224
 Zr783 Zr 0.46803 0.46428 0.00081
 O784 O 0.42683 0.46333 0.00354
 O785 O 0.47035 0.42341 -0.00045
 Zr786 Zr 0.46816 0.52962 0.00075
 O787 O 0.42702 0.52705 0.00282
 O788 O 0.46671 0.57053 -0.00155
 O789 O 0.46250 0.49700 -0.01908
 O790 O 0.46381 0.49700 0.02042
 O791 O 0.54650 0.44907 0.03051
 O792 O 0.52422 0.47441 0.05578
 C793 C 0.54052 0.45613 0.05069
 O794 O 0.54809 0.54154 -0.03219
 O795 O 0.52227 0.51840 -0.05648
 C796 C 0.54062 0.53490 -0.05209
 O797 O 0.54717 0.54411 0.03044
 O798 O 0.52432 0.51932 0.05575
 C799 C 0.54087 0.53736 0.05062
 O800 O 0.54776 0.45189 -0.03214
 O801 O 0.52221 0.47532 -0.05646
 C802 C 0.54048 0.45873 -0.05205
 Zr803 Zr 0.53385 0.46399 -0.00055
 O804 O 0.57516 0.46374 0.00123
 O805 O 0.53341 0.42305 -0.00273
 Zr806 Zr 0.53421 0.52944 -0.00059
 O807 O 0.57552 0.52903 0.00119
 O808 O 0.53453 0.57036 -0.00323
 Zr809 Zr 0.50020 0.49690 -0.03321
 Zr810 Zr 0.50196 0.49690 0.03340
 O811 O 0.53938 0.49669 0.01879
 O812 O 0.53868 0.49670 -0.02062
 O813 O 0.50142 0.45912 0.02011
 O814 O 0.50068 0.53436 -0.01933
 O815 O 0.50036 0.45938 -0.01943
 O816 O 0.50174 0.53469 0.01995
 H817 H 0.44877 0.49708 0.03088
 H818 H 0.50045 0.54964 -0.02939
 H819 H 0.55495 0.49661 0.02864
 H820 H 0.49999 0.44423 -0.02962
 H821 H 0.47980 0.57745 0.00904
 H822 H 0.52412 0.57731 0.00937
 H823 H 0.58202 0.51873 -0.01161
 H824 H 0.58178 0.47450 -0.01125
 H825 H 0.51995 0.41677 0.00787
 H826 H 0.45209 0.41704 -0.00010
 H827 H 0.42009 0.47816 -0.00524
 H828 H 0.42049 0.54513 0.00295
 C829 C 0.29953 1.19092 0.18231
 C830 C 0.30957 1.17756 0.16811
 C831 C 0.32171 1.16127 0.15144
 C832 C 0.31193 1.16043 0.12955
 C833 C 0.32373 1.14448 0.11348
 C834 C 0.34544 1.12905 0.11913
 C835 C 0.35508 1.13006 0.14118
 C836 C 0.34330 1.14603 0.15718
 C837 C 0.35835 1.11229 0.10211
 C838 C 0.36762 1.08752 0.10799
 C839 C 0.38147 1.07251 0.09253
 C840 C 0.38622 1.08191 0.07091
 C841 C 0.37643 1.10621 0.06466
 C842 C 0.36250 1.12127 0.08012
 C843 C 0.40339 1.06777 0.05615
 C844 C 0.41925 1.05631 0.04491
 H845 H 0.29517 1.17207 0.12491
 H846 H 0.31570 1.14398 0.09672
 H847 H 0.37202 1.11879 0.14600
 H848 H 0.35110 1.14654 0.17404
 H849 H 0.36443 1.07988 0.12466
 H850 H 0.38909 1.05383 0.09763
 H851 H 0.38023 1.11386 0.04808
 H852 H 0.35586 1.14033 0.07512
 C853 C 0.80015 0.69175 0.68197
 C854 C 0.81015 0.67841 0.66773
 C855 C 0.82217 0.66211 0.65101
 C856 C 0.81280 0.66192 0.62897
 C857 C 0.82444 0.64592 0.61286
 C858 C 0.84559 0.62979 0.61860
 C859 C 0.85483 0.63014 0.64080
 C860 C 0.84321 0.64616 0.65685
 C861 C 0.85835 0.61296 0.60154
 C862 C 0.86682 0.58785 0.60722
 C863 C 0.88057 0.57274 0.59176
 C864 C 0.88600 0.58240 0.57034
 C865 C 0.87699 0.60705 0.56428
 C866 C 0.86317 0.62221 0.57973
 C867 C 0.90315 0.56811 0.55566
 C868 C 0.91900 0.55653 0.54450
 H869 H 0.79646 0.67410 0.62426
 H870 H 0.81672 0.64593 0.59599
 H871 H 0.87135 0.61832 0.64570
 H872 H 0.85069 0.64616 0.67381
 H873 H 0.86310 0.58000 0.62374
 H874 H 0.88759 0.55378 0.59672
 H875 H 0.88135 0.61489 0.54786
 H876 H 0.85716 0.64153 0.57489
 C877 C 0.69822 0.81158 0.18137
 C878 C 0.68880 0.82539 0.16718
 C879 C 0.67759 0.84214 0.15039
 C880 C 0.68509 0.86821 0.14916
 C881 C 0.67377 0.88466 0.13325
 C882 C 0.65475 0.87526 0.11830
 C883 C 0.64755 0.84895 0.11953
 C884 C 0.65888 0.83254 0.13547
 C885 C 0.64180 0.89293 0.10201
 C886 C 0.63561 0.88437 0.08027
 C887 C 0.62168 0.90034 0.06557
 C888 C 0.61381 0.92512 0.07231
 C889 C 0.62051 0.93410 0.09366
 C890 C 0.63446 0.91817 0.10839
 C891 C 0.59655 0.94016 0.05832
 C892 C 0.58067 0.95189 0.04733
 H893 H 0.69960 0.87586 0.16058
 H894 H 0.67996 0.90471 0.13259
 H895 H 0.63269 0.84117 0.10853
 H896 H 0.65284 0.81243 0.13629
 H897 H 0.64127 0.86520 0.07472
 H898 H 0.61644 0.89308 0.04915
 H899 H 0.61424 0.95310 0.09920
 H900 H 0.63859 0.92525 0.12507
 C901 C 1.19882 0.31193 0.68129
 C902 C 1.18944 0.32567 0.66702
 C903 C 1.17821 0.34231 0.65016
 C904 C 1.18586 0.36832 0.64868
 C905 C 1.17446 0.38469 0.63274
 C906 C 1.15521 0.37527 0.61802
 C907 C 1.14788 0.34901 0.61949
 C908 C 1.15929 0.33268 0.63545
 C909 C 1.14213 0.39287 0.60175
 C910 C 1.13561 0.38416 0.58013
 C911 C 1.12154 0.40007 0.56547
 C912 C 1.11387 0.42495 0.57215
 C913 C 1.12091 0.43407 0.59337
 C914 C 1.13499 0.41820 0.60805
 C915 C 1.09651 0.43996 0.55823
 C916 C 1.08058 0.45169 0.54730
 H917 H 1.20054 0.37599 0.65993
 H918 H 1.18075 0.40470 0.63190
 H919 H 1.13285 0.34122 0.60868
 H920 H 1.15314 0.31262 0.63647
 H921 H 1.14111 0.36493 0.57464
 H922 H 1.11605 0.39271 0.54916
 H923 H 1.11481 0.45315 0.59886
 H924 H 1.13940 0.42540 0.62465
 C925 C 0.70001 1.19048 -0.18348
 C926 C 0.69039 1.17703 -0.16912
 C927 C 0.67895 1.16071 -0.15212
 C928 C 0.68626 1.13463 -0.15046
 C929 C 0.67471 1.11858 -0.13435
 C930 C 0.65566 1.12841 -0.11961
 C931 C 0.64865 1.15474 -0.12127
 C932 C 0.66021 1.17074 -0.13741
 C933 C 0.64245 1.11116 -0.10312
 C934 C 0.63619 1.12018 -0.08153
 C935 C 0.62204 1.10459 -0.06665
 C936 C 0.61404 1.07973 -0.07307
 C937 C 0.62081 1.07031 -0.09427
 C938 C 0.63496 1.08585 -0.10917
 C939 C 0.59664 1.06504 -0.05892
 C940 C 0.58069 1.05353 -0.04783
 H941 H 0.70079 1.12665 -0.16171
 H942 H 0.68075 1.09850 -0.13336
 H943 H 0.63377 1.16284 -0.11044
 H944 H 0.65432 1.19087 -0.13856
 H945 H 0.64196 1.13941 -0.07624
 H946 H 0.61677 1.11219 -0.05035
 H947 H 0.61445 1.05124 -0.09955
 H948 H 0.63916 1.07842 -0.12574
 C949 C 1.20043 0.68827 0.31528
 C950 C 1.19069 0.67485 0.32959
 C951 C 1.17910 0.65872 0.34665
 C952 C 1.18611 0.63257 0.34841
 C953 C 1.17451 0.61679 0.36469
 C954 C 1.15572 0.62696 0.37949
 C955 C 1.14900 0.65335 0.37771
 C956 C 1.16060 0.66909 0.36141
 C957 C 1.14250 0.61002 0.39621
 C958 C 1.13656 0.61933 0.41778
 C959 C 1.12239 0.60405 0.43288
 C960 C 1.11405 0.57923 0.42671
 C961 C 1.12049 0.56951 0.40553
 C962 C 1.13466 0.58475 0.39040
 C963 C 1.09663 0.56486 0.44108
 C964 C 1.08066 0.55355 0.45231
 H965 H 1.20047 0.62434 0.33712
 H966 H 1.18033 0.59665 0.36576
 H967 H 1.13431 0.66171 0.38859
 H968 H 1.15497 0.68928 0.36020
 H969 H 1.14261 0.63855 0.42288
 H970 H 1.11737 0.61187 0.44916
 H971 H 1.11386 0.55046 0.40044
 H972 H 1.13860 0.57711 0.37386
 C973 C 0.30177 0.80882 -0.17957
 C974 C 0.31146 0.82240 -0.16535
 C975 C 0.32302 0.83903 -0.14864
 C976 C 0.32026 0.83337 -0.12582
 C977 C 0.33160 0.84954 -0.10970
 C978 C 0.34585 0.87167 -0.11617
 C979 C 0.34837 0.87723 -0.13916
 C980 C 0.33704 0.86104 -0.15523
 C981 C 0.35872 0.88849 -0.09917
 C982 C 0.35947 0.91559 -0.10192
 C983 C 0.37332 0.93119 -0.08687
 C984 C 0.38652 0.91997 -0.06878
 C985 C 0.38524 0.89312 -0.06551
 C986 C 0.37141 0.87749 -0.08054
 C987 C 0.40361 0.93551 -0.05504
 C988 C 0.41939 0.94787 -0.04447
 H989 H 0.30937 0.81644 -0.12049
 H990 H 0.32906 0.84483 -0.09216
 H991 H 0.35956 0.89383 -0.14476
 H992 H 0.33937 0.86563 -0.17283
 H993 H 0.34961 0.92472 -0.11589
 H994 H 0.37430 0.95191 -0.08969
 H995 H 0.39565 0.88415 -0.05175
 H996 H 0.37152 0.85670 -0.07806
 C997 C 0.80240 0.30841 0.32041
 C998 C 0.81192 0.32192 0.33476
 C999 C 0.82323 0.33827 0.35180
 C1000 C 0.81364 0.36338 0.35522
 C1001 C 0.82496 0.37946 0.37141
 C1002 C 0.84606 0.37064 0.38445
 C1003 C 0.85539 0.34527 0.38102
 C1004 C 0.84406 0.32923 0.36482
 C1005 C 0.85890 0.38804 0.40103
 C1006 C 0.86786 0.37830 0.42167
 C1007 C 0.88165 0.39423 0.43650
 C1008 C 0.88660 0.42015 0.43099
 C1009 C 0.87714 0.43022 0.41079
 C1010 C 0.86334 0.41433 0.39594
 C1011 C 0.90371 0.43555 0.44482
 C1012 C 0.91949 0.44781 0.45548
 H1013 H 0.79749 0.37058 0.34530
 H1014 H 0.81712 0.39875 0.37378
 H1015 H 0.87186 0.33800 0.39050
 H1016 H 0.85172 0.30988 0.36229
 H1017 H 0.86447 0.35826 0.42624
 H1018 H 0.88904 0.38613 0.45199
 H1019 H 0.88114 0.45014 0.40618
 H1020 H 0.85703 0.42238 0.38010
 C1021 C 1.19313 0.30647 0.18215
 C1022 C 1.17979 0.31681 0.16806
 C1023 C 1.16300 0.32880 0.15163
 C1024 C 1.14596 0.34867 0.15805
 C1025 C 1.12892 0.35972 0.14243
 C1026 C 1.12862 0.35105 0.12007
 C1027 C 1.14593 0.33114 0.11374
 C1028 C 1.16295 0.32008 0.12942
 C1029 C 1.11058 0.36305 0.10347
 C1030 C 1.11910 0.36856 0.08156
 C1031 C 1.10274 0.38155 0.06649
 C1032 C 1.07757 0.38908 0.07302
 C1033 C 1.06864 0.38298 0.09455
 C1034 C 1.08497 0.37003 0.10965
 C1035 C 1.06213 0.40555 0.05865
 C1036 C 1.05012 0.42094 0.04742
 H1037 H 1.14576 0.35557 0.17518
 H1038 H 1.11620 0.37529 0.14779
 H1039 H 1.14603 0.32385 0.09674
 H1040 H 1.17590 0.30458 0.12427
 H1041 H 1.13877 0.36373 0.07633
 H1042 H 1.11003 0.38645 0.04998
 H1043 H 1.04930 0.38887 0.09990
 H1044 H 1.07766 0.36573 0.12626
 C1045 C 0.69237 0.80584 0.68209
 C1046 C 0.67899 0.81599 0.66795
 C1047 C 0.66220 0.82769 0.65141
 C1048 C 0.64329 0.84574 0.65800
 C1049 C 0.62634 0.85652 0.64218
 C1050 C 0.62800 0.84937 0.61947
 C1051 C 0.64714 0.83126 0.61298
 C1052 C 0.66407 0.82047 0.62886
 C1053 C 0.61016 0.86121 0.60266
 C1054 C 0.61962 0.86894 0.58155
 C1055 C 0.60333 0.88192 0.56645
 C1056 C 0.57733 0.88723 0.57214
 C1057 C 0.56751 0.87888 0.59280
 C1058 C 0.58377 0.86591 0.60794
 C1059 C 0.56177 0.90382 0.55802
 C1060 C 0.54963 0.91933 0.54704
 H1061 H 0.64161 0.85146 0.67539
 H1062 H 0.61216 0.87072 0.64768
 H1063 H 0.64878 0.82518 0.59569
 H1064 H 0.67850 0.80637 0.62358
 H1065 H 0.63989 0.86590 0.57707
 H1066 H 0.61127 0.88861 0.55064
 H1067 H 0.54750 0.88305 0.59749
 H1068 H 0.57577 0.85987 0.62390
 C1069 C 1.19540 0.69576 -0.18161
 C1070 C 1.18223 0.68558 -0.16726
 C1071 C 1.16586 0.67395 -0.15027
 C1072 C 1.17443 0.65221 -0.13831
 C1073 C 1.15829 0.64079 -0.12211
 C1074 C 1.13327 0.65094 -0.11762
 C1075 C 1.12494 0.67293 -0.12962
 C1076 C 1.14111 0.68431 -0.14579
 C1077 C 1.11572 0.63821 -0.10096
 C1078 C 1.08881 0.63551 -0.10529
 C1079 C 1.07259 0.62215 -0.09031
 C1080 C 1.08294 0.61139 -0.07071
 C1081 C 1.10955 0.61451 -0.06597
 C1082 C 1.12581 0.62785 -0.08093
 C1083 C 1.06694 0.59491 -0.05671
 C1084 C 1.05421 0.57963 -0.04590
 H1085 H 1.19350 0.64394 -0.14163
 H1086 H 1.16519 0.62368 -0.11345
 H1087 H 1.10597 0.68143 -0.12642
 H1088 H 1.13426 0.70118 -0.15487
 H1089 H 1.08043 0.64292 -0.12065
 H1090 H 1.05213 0.61958 -0.09436
 H1091 H 1.11788 0.60610 -0.05096
 H1092 H 1.14633 0.62986 -0.07692
 C1093 C 0.69626 1.19297 0.32073
 C1094 C 0.68300 1.18307 0.33513
 C1095 C 0.66646 1.17184 0.35216
 C1096 C 0.67456 1.14990 0.36408
 C1097 C 0.65819 1.13884 0.38028
 C1098 C 0.63342 1.14956 0.38479
 C1099 C 0.62557 1.17175 0.37285
 C1100 C 0.64198 1.18279 0.35668
 C1101 C 0.61558 1.13717 0.40138
 C1102 C 0.58866 1.13490 0.39691
 C1103 C 0.57218 1.12171 0.41176
 C1104 C 0.58228 1.11069 0.43136
 C1105 C 0.60889 1.11345 0.43625
 C1106 C 0.62542 1.12661 0.42141
 C1107 C 0.56607 1.09420 0.44509
 C1108 C 0.55321 1.07884 0.45567
 H1109 H 0.69342 1.14120 0.36072
 H1110 H 0.66469 1.12155 0.38892
 H1111 H 0.60680 1.18067 0.37608
 H1112 H 0.63550 1.19982 0.34763
 H1113 H 0.58050 1.14248 0.38153
 H1114 H 0.55171 1.11940 0.40761
 H1115 H 0.61701 1.10483 0.45126
 H1116 H 0.64595 1.12831 0.42551
 C1117 C 0.80423 0.69602 0.18046
 C1118 C 0.81736 0.68615 0.16595
 C1119 C 0.83364 0.67491 0.14875
 C1120 C 0.82522 0.65312 0.13681
 C1121 C 0.84128 0.64207 0.12040
 C1122 C 0.86607 0.65264 0.11569
 C1123 C 0.87426 0.67468 0.12767
 C1124 C 0.85815 0.68570 0.14405
 C1125 C 0.88357 0.64026 0.09885
 C1126 C 0.91053 0.63775 0.10300
 C1127 C 0.92668 0.62449 0.08793
 C1128 C 0.91619 0.61367 0.06841
 C1129 C 0.88954 0.61670 0.06382
 C1130 C 0.87335 0.62992 0.07888
 C1131 C 0.93199 0.59698 0.05453
 C1132 C 0.94448 0.58140 0.04387
 H1133 H 0.80633 0.64454 0.14031
 H1134 H 0.83453 0.62490 0.11175
 H1135 H 0.89306 0.68348 0.12430
 H1136 H 0.86487 0.70262 0.15311
 H1137 H 0.91899 0.64516 0.11832
 H1138 H 0.94718 0.62197 0.09186
 H1139 H 0.88111 0.60822 0.04888
 H1140 H 0.85278 0.63180 0.07501
 C1141 C 0.30575 1.19724 0.68163
 C1142 C 0.31880 1.18716 0.66721
 C1143 C 0.33482 1.17554 0.65005
 C1144 C 0.32599 1.15374 0.63836
 C1145 C 0.34174 1.14232 0.62192
 C1146 C 0.36660 1.15255 0.61695
 C1147 C 0.37520 1.17459 0.62870
 C1148 C 0.35941 1.18599 0.64511
 C1149 C 0.38372 1.13979 0.60007
 C1150 C 0.41067 1.13688 0.60407
 C1151 C 0.42644 1.12325 0.58898
 C1152 C 0.41558 1.11243 0.56962
 C1153 C 0.38895 1.11585 0.56516
 C1154 C 0.37313 1.12946 0.58024
 C1155 C 0.43101 1.09548 0.55570
 C1156 C 0.44327 1.07979 0.54500
 H1157 H 0.30703 1.14543 0.64206
 H1158 H 0.33468 1.12515 0.61345
 H1159 H 0.39408 1.18311 0.62511
 H1160 H 0.36643 1.20291 0.65399
 H1161 H 0.41939 1.14429 0.61929
 H1162 H 0.44694 1.12043 0.59279
 H1163 H 0.38025 1.10739 0.55034
 H1164 H 0.35256 1.13165 0.57650
 C1165 C 0.80709 0.30524 -0.18410
 C1166 C 0.82032 0.31555 -0.16992
 C1167 C 0.83680 0.32749 -0.15323
 C1168 C 0.83367 0.32142 -0.13052
 C1169 C 0.85010 0.33259 -0.11444
 C1170 C 0.86998 0.34995 -0.12086
 C1171 C 0.87293 0.35590 -0.14374
 C1172 C 0.85649 0.34475 -0.15977
 C1173 C 0.88725 0.36226 -0.10382
 C1174 C 0.91397 0.36631 -0.10827
 C1175 C 0.92977 0.37952 -0.09292
 C1176 C 0.91917 0.38879 -0.07285
 C1177 C 0.89280 0.38421 -0.06798
 C1178 C 0.87697 0.37099 -0.08329
 C1179 C 0.93447 0.40540 -0.05849
 C1180 C 0.94643 0.42087 -0.04729
 H1181 H 0.81863 0.30795 -0.12525
 H1182 H 0.84746 0.32738 -0.09703
 H1183 H 0.88772 0.36950 -0.14924
 H1184 H 0.85914 0.34959 -0.17728
 H1185 H 0.92261 0.35951 -0.12374
 H1186 H 0.95008 0.38311 -0.09700
 H1187 H 0.88425 0.39158 -0.05265
 H1188 H 0.85645 0.36849 -0.07943
 C1189 C 0.30637 0.80380 0.31669
 C1190 C 0.31938 0.81380 0.33116
 C1191 C 0.33559 0.82523 0.34826
 C1192 C 0.32621 0.84569 0.36138
 C1193 C 0.34222 0.85697 0.37768
 C1194 C 0.36789 0.84796 0.38109
 C1195 C 0.37704 0.82723 0.36794
 C1196 C 0.36100 0.81597 0.35167
 C1197 C 0.38524 0.86065 0.39782
 C1198 C 0.41172 0.86536 0.39283
 C1199 C 0.42760 0.87886 0.40791
 C1200 C 0.41734 0.88773 0.42824
 C1201 C 0.39123 0.88252 0.43363
 C1202 C 0.37530 0.86905 0.41857
 C1203 C 0.43268 0.90448 0.44240
 C1204 C 0.44472 0.92000 0.45346
 H1205 H 0.30662 0.85307 0.35888
 H1206 H 0.33469 0.87314 0.38728
 H1207 H 0.39656 0.81964 0.37030
 H1208 H 0.36846 0.80009 0.34167
 H1209 H 0.41991 0.85947 0.37691
 H1210 H 0.44767 0.88307 0.40339
 H1211 H 0.38298 0.88947 0.44923
 H1212 H 0.35513 0.86543 0.42306
 C1213 C 1.18895 1.19483 0.31749
 C1214 C 1.17608 1.18133 0.32961
 C1215 C 1.16025 1.16378 0.34230
 C1216 C 1.16090 1.13737 0.33707
 C1217 C 1.14425 1.12015 0.34802
 C1218 C 1.12672 1.12918 0.36436
 C1219 C 1.12633 1.15576 0.36965
 C1220 C 1.14301 1.17299 0.35862
 C1221 C 1.10915 1.11086 0.37602
 C1222 C 1.08312 1.11772 0.38070
 C1223 C 1.06706 1.10095 0.39286
 C1224 C 1.07684 1.07717 0.40033
 C1225 C 1.10245 1.06986 0.39521
 C1226 C 1.11853 1.08658 0.38309
 C1227 C 1.06188 1.06174 0.41559
 C1228 C 1.05054 1.04957 0.42971
 H1229 H 1.17399 1.13015 0.32423
 H1230 H 1.14476 1.09986 0.34343
 H1231 H 1.11328 1.16317 0.38240
 H1232 H 1.14228 1.19345 0.36264
 H1233 H 1.07529 1.13614 0.37517
 H1234 H 1.04732 1.10685 0.39697
 H1235 H 1.11028 1.05165 0.40126
 H1236 H 1.13857 1.08093 0.37996
 C1237 C 0.69058 0.69379 -0.18247
 C1238 C 0.67828 0.68006 -0.17012
 C1239 C 0.66318 0.66231 -0.15700
 C1240 C 0.66765 0.63570 -0.15924
 C1241 C 0.65157 0.61801 -0.14821
 C1242 C 0.63078 0.62678 -0.13483
 C1243 C 0.62665 0.65361 -0.13243
 C1244 C 0.64277 0.67129 -0.14352
 C1245 C 0.61357 0.60802 -0.12331
 C1246 C 0.58646 0.61226 -0.12224
 C1247 C 0.57046 0.59532 -0.11022
 C1248 C 0.58139 0.57394 -0.09931
 C1249 C 0.60821 0.56913 -0.10084
 C1250 C 0.62424 0.58605 -0.11282
 C1251 C 0.56583 0.55885 -0.08425
 C1252 C 0.55371 0.54724 -0.07026
 H1253 H 0.68323 0.62862 -0.16990
 H1254 H 0.65502 0.59748 -0.15054
 H1255 H 0.61103 0.66089 -0.12194
 H1256 H 0.63908 0.69187 -0.14186
 H1257 H 0.57770 0.62883 -0.13046
 H1258 H 0.54973 0.59930 -0.10890
 H1259 H 0.61686 0.55283 -0.09213
 H1260 H 0.64508 0.58247 -0.11317
 C1261 C 0.80958 1.19496 0.68022
 C1262 C 0.82311 1.18252 0.66779
 C1263 C 0.84015 1.16667 0.65461
 C1264 C 0.82983 1.14852 0.63968
 C1265 C 0.84643 1.13122 0.62869
 C1266 C 0.87352 1.13188 0.63264
 C1267 C 0.88372 1.15050 0.64741
 C1268 C 0.86709 1.16777 0.65835
 C1269 C 0.89108 1.11320 0.62142
 C1270 C 0.91519 1.12145 0.61267
 C1271 C 0.93115 1.10414 0.60106
 C1272 C 0.92323 1.07842 0.59814
 C1273 C 0.89962 1.06983 0.60729
 C1274 C 0.88363 1.08711 0.61894
 C1275 C 0.93782 1.06191 0.58350
 C1276 C 0.94939 1.04926 0.56984
 H1277 H 0.80895 1.14741 0.63685
 H1278 H 0.83811 1.11734 0.61712
 H1279 H 0.90445 1.15127 0.65095
 H1280 H 0.87518 1.18155 0.67015
 H1281 H 0.92129 1.14147 0.61411
 H1282 H 0.94923 1.11102 0.59372
 H1283 H 0.89325 1.04999 0.60491
 H1284 H 0.86534 1.08015 0.62581
 C1285 C 0.31173 0.69626 0.17971
 C1286 C 0.32564 0.68433 0.16723
 C1287 C 0.34307 0.66897 0.15400
 C1288 C 0.33322 0.64931 0.14032
 C1289 C 0.35033 0.63231 0.12960
 C1290 C 0.37749 0.63476 0.13258
 C1291 C 0.38720 0.65495 0.14598
 C1292 C 0.37005 0.67193 0.15667
 C1293 C 0.39555 0.61622 0.12180
 C1294 C 0.41865 0.62505 0.11158
 C1295 C 0.43481 0.60777 0.10013
 C1296 C 0.42811 0.58153 0.09888
 C1297 C 0.40565 0.57241 0.10963
 C1298 C 0.38947 0.58965 0.12110
 C1299 C 0.44229 0.56484 0.08411
 C1300 C 0.45310 0.55181 0.07027
 H1301 H 0.31233 0.64676 0.13834
 H1302 H 0.34235 0.61719 0.11906
 H1303 H 0.40800 0.65713 0.14871
 H1304 H 0.37780 0.68690 0.16752
 H1305 H 0.42368 0.64544 0.11169
 H1306 H 0.45197 0.61504 0.09154
 H1307 H 0.40020 0.55215 0.10853
 H1308 H 0.37201 0.58229 0.12915
 C1309 C 1.19538 0.80504 0.68544
 C1310 C 1.18333 0.81836 0.67258
 C1311 C 1.16844 0.83553 0.65874
 C1312 C 1.17436 0.86199 0.65867
 C1313 C 1.15845 0.87933 0.64706
 C1314 C 1.13637 0.87036 0.63543
 C1315 C 1.13081 0.84364 0.63530
 C1316 C 1.14676 0.82633 0.64695
 C1317 C 1.11921 0.88879 0.62347
 C1318 C 1.09190 0.88582 0.62415
 C1319 C 1.07581 0.90245 0.61191
 C1320 C 1.08685 0.92224 0.59900
 C1321 C 1.11393 0.92577 0.59870
 C1322 C 1.13005 0.90918 0.61090
 C1323 C 1.07082 0.93697 0.58404
 C1324 C 1.05812 0.94822 0.57022
 H1325 H 1.19094 0.86929 0.66801
 H1326 H 1.16304 0.89981 0.64764
 H1327 H 1.11416 0.83616 0.62619
 H1328 H 1.14194 0.80587 0.64708
 H1329 H 1.08302 0.87052 0.63397
 H1330 H 1.05486 0.89944 0.61205
 H1331 H 1.12264 0.94083 0.58846
 H1332 H 1.15102 0.91174 0.60988
 C1333 C 0.69368 0.30286 0.18423
 C1334 C 0.68094 0.31584 0.17161
 C1335 C 0.66521 0.33260 0.15810
 C1336 C 0.64777 0.32234 0.14243
 C1337 C 0.63113 0.33884 0.13061
 C1338 C 0.63175 0.36575 0.13444
 C1339 C 0.64953 0.37584 0.15009
 C1340 C 0.66614 0.35933 0.16185
 C1341 C 0.61403 0.38328 0.12209
 C1342 C 0.62333 0.40702 0.11370
 C1343 C 0.60695 0.42312 0.10128
 C1344 C 0.58112 0.41571 0.09717
 C1345 C 0.57150 0.39241 0.10583
 C1346 C 0.58786 0.37626 0.11829
 C1347 C 0.56550 0.43075 0.08214
 C1348 C 0.55344 0.44277 0.06838
 H1349 H 0.64684 0.30162 0.13956
 H1350 H 0.61787 0.33061 0.11841
 H1351 H 0.65020 0.39642 0.15357
 H1352 H 0.67939 0.36737 0.17417
 H1353 H 0.64347 0.41277 0.11615
 H1354 H 0.61463 0.44098 0.09435
 H1355 H 0.55157 0.38645 0.10254
 H1356 H 0.58011 0.35825 0.12483
 C1357 C 0.80665 0.80399 0.31775
 C1358 C 0.81996 0.81655 0.33022
 C1359 C 0.83664 0.83282 0.34330
 C1360 C 0.84771 0.82381 0.36323
 C1361 C 0.86509 0.83954 0.37507
 C1362 C 0.87155 0.86437 0.36700
 C1363 C 0.86022 0.87321 0.34699
 C1364 C 0.84288 0.85750 0.33523
 C1365 C 0.88986 0.88113 0.37946
 C1366 C 0.88455 0.90770 0.38202
 C1367 C 0.90127 0.92337 0.39452
 C1368 C 0.92346 0.91266 0.40451
 C1369 C 0.92923 0.88637 0.40168
 C1370 C 0.91254 0.87066 0.38917
 C1371 C 0.93876 0.92801 0.41952
 C1372 C 0.95053 0.94042 0.43318
 H1373 H 0.84306 0.80465 0.36950
 H1374 H 0.87330 0.83241 0.39060
 H1375 H 0.86511 0.89209 0.34026
 H1376 H 0.83458 0.86448 0.31966
 H1377 H 0.86707 0.91620 0.37493
 H1378 H 0.89650 0.94364 0.39691
 H1379 H 0.94629 0.87792 0.40955
 H1380 H 0.91726 0.85033 0.38720
 C1381 C 0.30272 0.30548 -0.18012
 C1382 C 0.31471 0.31856 -0.16708
 C1383 C 0.32972 0.33546 -0.15314
 C1384 C 0.32419 0.36200 -0.15312
 C1385 C 0.34055 0.37915 -0.14179
 C1386 C 0.36269 0.36990 -0.13042
 C1387 C 0.36778 0.34310 -0.13014
 C1388 C 0.35139 0.32597 -0.14151
 C1389 C 0.38052 0.38814 -0.11905
 C1390 C 0.40774 0.38469 -0.12033
 C1391 C 0.42450 0.40121 -0.10870
 C1392 C 0.41421 0.42139 -0.09581
 C1393 C 0.38722 0.42542 -0.09493
 C1394 C 0.37043 0.40891 -0.10652
 C1395 C 0.43092 0.43603 -0.08139
 C1396 C 0.44409 0.44729 -0.06793
 H1397 H 0.30763 0.36951 -0.16238
 H1398 H 0.33632 0.39970 -0.14247
 H1399 H 0.38448 0.33543 -0.12120
 H1400 H 0.35592 0.30546 -0.14163
 H1401 H 0.41603 0.36908 -0.13015
 H1402 H 0.44538 0.39784 -0.10927
 H1403 H 0.37911 0.44079 -0.08470
 H1404 H 0.34955 0.41186 -0.10506
 C1405 C 1.18609 0.30029 -0.18257
 C1406 C 1.17207 0.30977 -0.16852
 C1407 C 1.15506 0.32122 -0.15201
 C1408 C 1.13495 0.33784 -0.15874
 C1409 C 1.11860 0.34931 -0.14280
 C1410 C 1.12212 0.34431 -0.11982
 C1411 C 1.14227 0.32738 -0.11322
 C1412 C 1.15860 0.31592 -0.12921
 C1413 C 1.10542 0.35748 -0.10288
 C1414 C 1.11644 0.36736 -0.08305
 C1415 C 1.10121 0.38161 -0.06799
 C1416 C 1.07474 0.38611 -0.07243
 C1417 C 1.06340 0.37568 -0.09175
 C1418 C 1.07860 0.36143 -0.10685
 C1419 C 1.06008 0.40364 -0.05846
 C1420 C 1.04865 0.41970 -0.04751
 H1421 H 1.13203 0.34214 -0.17633
 H1422 H 1.10358 0.36256 -0.14845
 H1423 H 1.14533 0.32292 -0.09570
 H1424 H 1.17404 0.30300 -0.12379
 H1425 H 1.13706 0.36498 -0.07962
 H1426 H 1.11030 0.38985 -0.05324
 H1427 H 1.04299 0.37917 -0.09546
 H1428 H 1.06944 0.35378 -0.12179
 C1429 C 0.68876 0.80145 0.31778
 C1430 C 0.67510 0.81147 0.33183
 C1431 C 0.65840 0.82380 0.34815
 C1432 C 0.64642 0.80924 0.36510
 C1433 C 0.62962 0.82124 0.38047
 C1434 C 0.62446 0.84799 0.37899
 C1435 C 0.63680 0.86245 0.36201
 C1436 C 0.65361 0.85045 0.34674
 C1437 C 0.60628 0.86090 0.39495
 C1438 C 0.58879 0.87998 0.38730
 C1439 C 0.57279 0.89334 0.40234
 C1440 C 0.57388 0.88787 0.42527
 C1441 C 0.59072 0.86845 0.43305
 C1442 C 0.60674 0.85495 0.41797
 C1443 C 0.55941 0.90397 0.44066
 C1444 C 0.54801 0.91928 0.45244
 H1445 H 0.64989 0.78857 0.36633
 H1446 H 0.62027 0.80954 0.39322
 H1447 H 0.63363 0.88314 0.36064
 H1448 H 0.66278 0.86196 0.33375
 H1449 H 0.58764 0.88474 0.36966
 H1450 H 0.55997 0.90841 0.39610
 H1451 H 0.59196 0.86420 0.45078
 H1452 H 0.62012 0.84052 0.42441
 C1453 C 0.80719 0.69906 -0.18126
 C1454 C 0.82050 0.68943 -0.16679
 C1455 C 0.83656 0.67799 -0.14959
 C1456 C 0.86180 0.68743 -0.14570
 C1457 C 0.87762 0.67599 -0.12934
 C1458 C 0.86838 0.65493 -0.11660
 C1459 C 0.84287 0.64576 -0.12049
 C1460 C 0.82711 0.65721 -0.13687
 C1461 C 0.88552 0.64194 -0.09987
 C1462 C 0.87524 0.63287 -0.07944
 C1463 C 0.89092 0.61891 -0.06451
 C1464 C 0.91711 0.61389 -0.06972
 C1465 C 0.92771 0.62347 -0.08969
 C1466 C 0.91208 0.63745 -0.10464
 C1467 C 0.93223 0.59665 -0.05584
 C1468 C 0.94429 0.58082 -0.04513
 H1469 H 0.86932 0.70355 -0.15539
 H1470 H 0.89703 0.68369 -0.12659
 H1471 H 0.83530 0.62934 -0.11125
 H1472 H 0.80764 0.64968 -0.13976
 H1473 H 0.85498 0.63630 -0.07512
 H1474 H 0.88242 0.61144 -0.04919
 H1475 H 0.94785 0.61943 -0.09406
 H1476 H 0.92052 0.64385 -0.12032
 C1477 C 0.30615 1.19802 0.31911
 C1478 C 0.31936 1.18824 0.33359
 C1479 C 0.33536 1.17667 0.35081
 C1480 C 0.36044 1.18633 0.35506
 C1481 C 0.37619 1.17482 0.37145
 C1482 C 0.36706 1.15345 0.38387
 C1483 C 0.34171 1.14405 0.37960
 C1484 C 0.32601 1.15557 0.36319
 C1485 C 0.38412 1.14048 0.40070
 C1486 C 0.37364 1.13096 0.42090
 C1487 C 0.38931 1.11712 0.43595
 C1488 C 0.41570 1.11267 0.43110
 C1489 C 0.42647 1.12267 0.41134
 C1490 C 0.41085 1.13652 0.39628
 C1491 C 0.43091 1.09557 0.44510
 C1492 C 0.44304 1.07983 0.45587
 H1493 H 0.36788 1.20270 0.34564
 H1494 H 0.39546 1.18272 0.37447
 H1495 H 0.33421 1.12740 0.38858
 H1496 H 0.30667 1.14786 0.36003
 H1497 H 0.35325 1.13396 0.42497
 H1498 H 0.38066 1.10933 0.45108
 H1499 H 0.44677 1.11906 0.40722
 H1500 H 0.41948 1.14327 0.38078
 C1501 C 1.19320 0.69790 0.17858
 C1502 C 1.17986 0.68843 0.16406
 C1503 C 1.16367 0.67719 0.14685
 C1504 C 1.13872 0.68721 0.14269
 C1505 C 1.12273 0.67594 0.12638
 C1506 C 1.13149 0.65444 0.11396
 C1507 C 1.15672 0.64469 0.11812
 C1508 C 1.17267 0.65598 0.13445
 C1509 C 1.11412 0.64161 0.09733
 C1510 C 1.12429 0.63193 0.07708
 C1511 C 1.10836 0.61808 0.06228
 C1512 C 1.08202 0.61379 0.06744
 C1513 C 1.07154 0.62399 0.08721
 C1514 C 1.08743 0.63786 0.10203
 C1515 C 1.06658 0.59661 0.05375
 C1516 C 1.05423 0.58082 0.04325
 H1517 H 1.13156 0.70366 0.15215
 H1518 H 1.10354 0.68408 0.12344
 H1519 H 1.16392 0.62793 0.10913
 H1520 H 1.19190 0.64799 0.13755
 H1521 H 1.14466 0.63479 0.07282
 H1522 H 1.11677 0.61012 0.04712
 H1523 H 1.05128 0.62051 0.09154
 H1524 H 1.07905 0.64474 0.11757
 C1525 C 0.69154 1.19799 0.67981
 C1526 C 0.67814 1.18821 0.66547
 C1527 C 0.66194 1.17657 0.64843
 C1528 C 0.67133 1.15576 0.63574
 C1529 C 0.65543 1.14412 0.61955
 C1530 C 0.62983 1.15313 0.61579
 C1531 C 0.62065 1.17423 0.62850
 C1532 C 0.63660 1.18585 0.64468
 C1533 C 0.61257 1.14001 0.59920
 C1534 C 0.58602 1.13560 0.60407
 C1535 C 0.57024 1.12166 0.58921
 C1536 C 0.58068 1.11202 0.56920
 C1537 C 0.60688 1.11690 0.56391
 C1538 C 0.62270 1.13083 0.57876
 C1539 C 0.56533 1.09492 0.55533
 C1540 C 0.55303 1.07923 0.54464
 H1541 H 0.69086 1.14834 0.63851
 H1542 H 0.66299 1.12768 0.61033
 H1543 H 0.60118 1.18184 0.62587
 H1544 H 0.62911 1.20199 0.65434
 H1545 H 0.57766 1.14207 0.61976
 H1546 H 0.55010 1.11773 0.59366
 H1547 H 0.61526 1.10939 0.54857
 H1548 H 0.64294 1.13419 0.57435
 C1549 C 0.81076 0.30016 0.18373
 C1550 C 0.82406 0.31013 0.16940
 C1551 C 0.84017 0.32207 0.15243
 C1552 C 0.86638 0.31476 0.15004
 C1553 C 0.88221 0.32676 0.13396
 C1554 C 0.87204 0.34629 0.11998
 C1555 C 0.84559 0.35331 0.12237
 C1556 C 0.82981 0.34130 0.13847
 C1557 C 0.88907 0.35987 0.10347
 C1558 C 0.87940 0.36694 0.08226
 C1559 C 0.89487 0.38122 0.06735
 C1560 C 0.92025 0.38856 0.07334
 C1561 C 0.93028 0.38107 0.09417
 C1562 C 0.91486 0.36678 0.10910
 C1563 C 0.93502 0.40581 0.05911
 C1564 C 0.94666 0.42154 0.04791
 H1565 H 0.87462 0.29986 0.16070
 H1566 H 0.90237 0.32069 0.13240
 H1567 H 0.83724 0.36853 0.11214
 H1568 H 0.80960 0.34720 0.14019
 H1569 H 0.85979 0.36164 0.07727
 H1570 H 0.88680 0.38704 0.05135
 H1571 H 0.94977 0.38690 0.09913
 H1572 H 0.92280 0.36197 0.12537
 C1573 C 0.30920 0.80017 0.68532
 C1574 C 0.32261 0.81009 0.67100
 C1575 C 0.33879 0.82195 0.65399
 C1576 C 0.36495 0.81450 0.65156
 C1577 C 0.38079 0.82633 0.63537
 C1578 C 0.37069 0.84583 0.62131
 C1579 C 0.34429 0.85301 0.62378
 C1580 C 0.32850 0.84117 0.63999
 C1581 C 0.38771 0.85915 0.60459
 C1582 C 0.37792 0.86622 0.58342
 C1583 C 0.39341 0.88021 0.56831
 C1584 C 0.41895 0.88729 0.57404
 C1585 C 0.42910 0.87980 0.59484
 C1586 C 0.41365 0.86579 0.60997
 C1587 C 0.43377 0.90432 0.55961
 C1588 C 0.44546 0.91994 0.54830
 H1589 H 0.37316 0.79961 0.66224
 H1590 H 0.40091 0.82012 0.63377
 H1591 H 0.33597 0.86821 0.61352
 H1592 H 0.30832 0.84719 0.64173
 H1593 H 0.35819 0.86112 0.57861
 H1594 H 0.38523 0.88603 0.55235
 H1595 H 0.44871 0.88542 0.59962
 H1596 H 0.42172 0.86098 0.62620
 C1597 C 0.30282 1.19517 -0.18169
 C1598 C 0.31315 1.18210 -0.16743
 C1599 C 0.32523 1.16583 -0.15071
 C1600 C 0.34421 1.14774 -0.15705
 C1601 C 0.35550 1.13141 -0.14106
 C1602 C 0.34796 1.13288 -0.11842
 C1603 C 0.32892 1.15120 -0.11217
 C1604 C 0.31761 1.16751 -0.12823
 C1605 C 0.36029 1.11562 -0.10144
 C1606 C 0.36747 1.12525 -0.08027
 C1607 C 0.38084 1.10951 -0.06499
 C1608 C 0.38706 1.08387 -0.07056
 C1609 C 0.37927 1.07389 -0.09130
 C1610 C 0.36595 1.08960 -0.10660
 C1611 C 0.40390 1.06878 -0.05623
 C1612 C 0.41955 1.05669 -0.04528
 H1613 H 0.35028 1.14623 -0.17439
 H1614 H 0.37041 1.11786 -0.14638
 H1615 H 0.32251 1.15267 -0.09494
 H1616 H 0.30281 1.18132 -0.12312
 H1617 H 0.36367 1.14525 -0.07585
 H1618 H 0.38706 1.11758 -0.04912
 H1619 H 0.38413 1.05416 -0.09591
 H1620 H 0.36035 1.08146 -0.12260
 C1621 C 0.80380 0.69440 0.31721
 C1622 C 0.81413 0.68134 0.33147
 C1623 C 0.82610 0.66515 0.34830
 C1624 C 0.84481 0.64672 0.34209
 C1625 C 0.85597 0.63049 0.35823
 C1626 C 0.84856 0.63240 0.38088
 C1627 C 0.82979 0.65106 0.38699
 C1628 C 0.81862 0.66727 0.37079
 C1629 C 0.86074 0.61525 0.39802
 C1630 C 0.86811 0.62512 0.41906
 C1631 C 0.88132 0.60944 0.43450
 C1632 C 0.88719 0.58365 0.42921
 C1633 C 0.87921 0.57344 0.40861
 C1634 C 0.86604 0.58908 0.39315
 C1635 C 0.90391 0.56860 0.44367
 C1636 C 0.91951 0.55655 0.45470
 H1637 H 0.85077 0.64488 0.32475
 H1638 H 0.87067 0.61666 0.35301
 H1639 H 0.82349 0.65287 0.40422
 H1640 H 0.80403 0.68134 0.37580
 H1641 H 0.86459 0.64524 0.42325
 H1642 H 0.88770 0.61769 0.45025
 H1643 H 0.88381 0.55359 0.40423
 H1644 H 0.86030 0.58077 0.37726
 C1645 C 0.69666 1.19222 0.18403
 C1646 C 0.68662 1.17902 0.16972
 C1647 C 0.67512 1.16266 0.15278
 C1648 C 0.65544 1.17220 0.13875
 C1649 C 0.64417 1.15614 0.12252
 C1650 C 0.65240 1.13023 0.12008
 C1651 C 0.67233 1.12089 0.13417
 C1652 C 0.68358 1.13699 0.15037
 C1653 C 0.63975 1.11289 0.10335
 C1654 C 0.63388 1.08696 0.10878
 C1655 C 0.62043 1.07115 0.09363
 C1656 C 0.61275 1.08092 0.07278
 C1657 C 0.61910 1.10646 0.06698
 C1658 C 0.63253 1.12232 0.08211
 C1659 C 0.59597 1.06579 0.05843
 C1660 C 0.58038 1.05397 0.04720
 H1661 H 0.64867 1.19199 0.14046
 H1662 H 0.62862 1.16384 0.11220
 H1663 H 0.67934 1.10118 0.13258
 H1664 H 0.69886 1.12939 0.16106
 H1665 H 0.63883 1.07917 0.12507
 H1666 H 0.61532 1.05155 0.09847
 H1667 H 0.61309 1.11435 0.05097
 H1668 H 0.63706 1.14204 0.07727
 C1669 C 1.19506 0.69482 0.68326
 C1670 C 1.18511 0.68155 0.66894
 C1671 C 1.17381 0.66497 0.65206
 C1672 C 1.18265 0.63942 0.64971
 C1673 C 1.17156 0.62306 0.63364
 C1674 C 1.15140 0.63201 0.61960
 C1675 C 1.14279 0.65781 0.62195
 C1676 C 1.15391 0.67414 0.63807
 C1677 C 1.13890 0.61435 0.60302
 C1678 C 1.13142 0.62351 0.58176
 C1679 C 1.11817 0.60733 0.56677
 C1680 C 1.11225 0.58174 0.57273
 C1681 C 1.12019 0.57225 0.59361
 C1682 C 1.13347 0.58838 0.60862
 C1683 C 1.09562 0.56625 0.55854
 C1684 C 1.08012 0.55420 0.54740
 H1685 H 1.19810 0.63211 0.66038
 H1686 H 1.17886 0.60345 0.63210
 H1687 H 1.12707 0.66521 0.61167
 H1688 H 1.14684 0.69383 0.63973
 H1689 H 1.13560 0.64327 0.57679
 H1690 H 1.11194 0.61500 0.55075
 H1691 H 1.11541 0.55261 0.59858
 H1692 H 1.13862 0.58079 0.62493
 C1693 C 0.69196 0.80556 -0.18145
 C1694 C 0.68190 0.81900 -0.16731
 C1695 C 0.67037 0.83589 -0.15077
 C1696 C 0.65285 0.85523 -0.15743
 C1697 C 0.64235 0.87231 -0.14163
 C1698 C 0.64924 0.87036 -0.11887
 C1699 C 0.66680 0.85076 -0.11231
 C1700 C 0.67732 0.83370 -0.12817
 C1701 C 0.63771 0.88839 -0.10209
 C1702 C 0.62948 0.87923 -0.08103
 C1703 C 0.61680 0.89577 -0.06596
 C1704 C 0.61230 0.92174 -0.07163
 C1705 C 0.62117 0.93124 -0.09223
 C1706 C 0.63383 0.91473 -0.10733
 C1707 C 0.59591 0.93763 -0.05757
 C1708 C 0.58048 0.95002 -0.04664
 H1709 H 0.64736 0.85717 -0.17486
 H1710 H 0.62855 0.88685 -0.14720
 H1711 H 0.67269 0.84887 -0.09498
 H1712 H 0.69101 0.81894 -0.12283
 H1713 H 0.63188 0.85903 -0.07655
 H1714 H 0.60970 0.88808 -0.05020
 H1715 H 0.61761 0.95122 -0.09692
 H1716 H 0.64029 0.92250 -0.12325
 C1717 C 1.19274 0.30641 0.31865
 C1718 C 1.18307 0.31995 0.33291
 C1719 C 1.17218 0.33689 0.34973
 C1720 C 1.15168 0.32846 0.36345
 C1721 C 1.14099 0.34515 0.37952
 C1722 C 1.15065 0.37055 0.38208
 C1723 C 1.17140 0.37874 0.36831
 C1724 C 1.18206 0.36202 0.35228
 C1725 C 1.13862 0.38860 0.39859
 C1726 C 1.13426 0.41477 0.39299
 C1727 C 1.12129 0.43131 0.40788
 C1728 C 1.11260 0.42202 0.42862
 C1729 C 1.11750 0.39622 0.43460
 C1730 C 1.13044 0.37964 0.41973
 C1731 C 1.09607 0.43792 0.44256
 C1732 C 1.08057 0.45028 0.45344
 H1733 H 1.14381 0.30909 0.36162
 H1734 H 1.12479 0.33835 0.38960
 H1735 H 1.17949 0.39803 0.37002
 H1736 H 1.19799 0.36875 0.34182
 H1737 H 1.13999 0.42222 0.37676
 H1738 H 1.11728 0.45111 0.40290
 H1739 H 1.11066 0.38871 0.45050
 H1740 H 1.13380 0.35973 0.42468
 C1741 C 0.30715 0.80560 0.18006
 C1742 C 0.31717 0.81897 0.16585
 C1743 C 0.32863 0.83559 0.14909
 C1744 C 0.34433 0.85648 0.15557
 C1745 C 0.35491 0.87311 0.13944
 C1746 C 0.34991 0.86912 0.11652
 C1747 C 0.33412 0.84803 0.11015
 C1748 C 0.32353 0.83142 0.12634
 C1749 C 0.36164 0.88659 0.09941
 C1750 C 0.37212 0.87644 0.07946
 C1751 C 0.38504 0.89260 0.06422
 C1752 C 0.38753 0.91914 0.06860
 C1753 C 0.37643 0.92956 0.08804
 C1754 C 0.36352 0.91344 0.10330
 C1755 C 0.40412 0.93497 0.05466
 C1756 C 0.41965 0.94756 0.04402
 H1757 H 0.34840 0.85993 0.17312
 H1758 H 0.36733 0.88887 0.14489
 H1759 H 0.32970 0.84457 0.09268
 H1760 H 0.31126 0.81543 0.12112
 H1761 H 0.37129 0.85584 0.07606
 H1762 H 0.39388 0.88423 0.04940
 H1763 H 0.37842 0.95003 0.09173
 H1764 H 0.35533 0.92193 0.11833
 C1765 C 0.80641 0.30497 0.67934
 C1766 C 0.81645 0.31829 0.66510
 C1767 C 0.82799 0.33498 0.64842
 C1768 C 0.84338 0.35603 0.65506
 C1769 C 0.85400 0.37277 0.63904
 C1770 C 0.84937 0.36875 0.61607
 C1771 C 0.83391 0.34749 0.60954
 C1772 C 0.82326 0.33076 0.62561
 C1773 C 0.86118 0.38636 0.59909
 C1774 C 0.87206 0.37633 0.57925
 C1775 C 0.88507 0.39263 0.56418
 C1776 C 0.88728 0.41918 0.56863
 C1777 C 0.87578 0.42948 0.58794
 C1778 C 0.86277 0.41322 0.60304
 C1779 C 0.90391 0.43517 0.55486
 C1780 C 0.91948 0.44784 0.54431
 H1781 H 0.84715 0.35953 0.67265
 H1782 H 0.86618 0.38866 0.64464
 H1783 H 0.82977 0.34399 0.59202
 H1784 H 0.81122 0.31464 0.62027
 H1785 H 0.87145 0.35574 0.57582
 H1786 H 0.89420 0.38436 0.54945
 H1787 H 0.87754 0.44995 0.59168
 H1788 H 0.85427 0.42161 0.61798
 C1789 C 1.19535 1.19552 0.67958
 C1790 C 1.18267 1.18300 0.66661
 C1791 C 1.16618 1.16730 0.65286
 C1792 C 1.17692 1.14812 0.63913
 C1793 C 1.16051 1.13104 0.62770
 C1794 C 1.13322 1.13294 0.63004
 C1795 C 1.12266 1.15257 0.64360
 C1796 C 1.13908 1.16963 0.65495
 C1797 C 1.11579 1.11447 0.61848
 C1798 C 1.09268 1.12326 0.60830
 C1799 C 1.07662 1.10602 0.59678
 C1800 C 1.08344 1.07984 0.59534
 C1801 C 1.10610 1.07076 0.60577
 C1802 C 1.12219 1.08798 0.61736
 C1803 C 1.06862 1.06311 0.58110
 C1804 C 1.05673 1.05029 0.56781
 H1805 H 1.19792 1.14607 0.63760
 H1806 H 1.16914 1.11632 0.61709
 H1807 H 1.10175 1.15429 0.64592
 H1808 H 1.13064 1.18421 0.66583
 H1809 H 1.08743 1.14359 0.60867
 H1810 H 1.05929 1.11324 0.58843
 H1811 H 1.11162 1.05054 0.60453
 H1812 H 1.13968 1.08064 0.62534
 C1813 C 0.69284 0.69506 0.18059
 C1814 C 0.67975 0.68259 0.16788
 C1815 C 0.66296 0.66695 0.15432
 C1816 C 0.63589 0.66965 0.15643
 C1817 C 0.61922 0.65277 0.14514
 C1818 C 0.62950 0.63293 0.13164
 C1819 C 0.65676 0.63065 0.12930
 C1820 C 0.67341 0.64756 0.14065
 C1821 C 0.61183 0.61468 0.12006
 C1822 C 0.61791 0.58812 0.11897
 C1823 C 0.60181 0.57114 0.10714
 C1824 C 0.57945 0.58051 0.09643
 C1825 C 0.57289 0.60676 0.09791
 C1826 C 0.58896 0.62377 0.10969
 C1827 C 0.56487 0.56399 0.08182
 C1828 C 0.55341 0.55115 0.06826
 H1829 H 0.62767 0.68442 0.16725
 H1830 H 0.59833 0.65479 0.14744
 H1831 H 0.66517 0.61579 0.11873
 H1832 H 0.69437 0.64523 0.13909
 H1833 H 0.63521 0.58056 0.12710
 H1834 H 0.60714 0.55086 0.10588
 H1835 H 0.55579 0.61421 0.08936
 H1836 H 0.58395 0.64416 0.11006
 C1837 C 1.19570 0.80505 0.31569
 C1838 C 1.18309 0.81811 0.32833
 C1839 C 1.16714 0.83461 0.34189
 C1840 C 1.16542 0.86096 0.33662
 C1841 C 1.14828 0.87692 0.34840
 C1842 C 1.13262 0.86664 0.36558
 C1843 C 1.13471 0.84016 0.37095
 C1844 C 1.15188 0.82421 0.35911
 C1845 C 1.11425 0.88352 0.37790
 C1846 C 1.08914 0.87457 0.38357
 C1847 C 1.07229 0.89014 0.39609
 C1848 C 1.08034 0.91477 0.40296
 C1849 C 1.10502 0.92407 0.39694
 C1850 C 1.12190 0.90856 0.38445
 C1851 C 1.06458 0.92941 0.41817
 C1852 C 1.05259 0.94126 0.43208
 H1853 H 1.17696 0.86907 0.32310
 H1854 H 1.14686 0.89716 0.34375
 H1855 H 1.12315 0.83183 0.38434
 H1856 H 1.15298 0.80377 0.36316
 H1857 H 1.08263 0.85551 0.37845
 H1858 H 1.05327 0.88273 0.40087
 H1859 H 1.11152 0.94300 0.40248
 H1860 H 1.14122 0.91582 0.38053
 C1861 C 0.69664 0.30797 -0.18438
 C1862 C 0.68444 0.32150 -0.17180
 C1863 C 0.66892 0.33848 -0.15829
 C1864 C 0.64997 0.32833 -0.14388
 C1865 C 0.63309 0.34500 -0.13250
 C1866 C 0.63496 0.37198 -0.13551
 C1867 C 0.65438 0.38199 -0.14975
 C1868 C 0.67123 0.36530 -0.16111
 C1869 C 0.61673 0.38960 -0.12381
 C1870 C 0.62594 0.41262 -0.11401
 C1871 C 0.60903 0.42846 -0.10183
 C1872 C 0.58276 0.42153 -0.09942
 C1873 C 0.57323 0.39908 -0.10965
 C1874 C 0.59011 0.38321 -0.12185
 C1875 C 0.56653 0.43574 -0.08425
 C1876 C 0.55394 0.44678 -0.07022
 H1877 H 0.64794 0.30757 -0.14176
 H1878 H 0.61859 0.33680 -0.12134
 H1879 H 0.65609 0.40266 -0.15254
 H1880 H 0.68565 0.37327 -0.17248
 H1881 H 0.64638 0.41788 -0.11506
 H1882 H 0.61662 0.44562 -0.09367
 H1883 H 0.55296 0.39346 -0.10766
 H1884 H 0.58243 0.36580 -0.12953
 C1885 C 0.80810 1.19211 0.32014
 C1886 C 0.82144 1.17955 0.33262
 C1887 C 0.83857 1.16388 0.34587
 C1888 C 0.86558 1.16652 0.34319
 C1889 C 0.88253 1.14970 0.35425
 C1890 C 0.87261 1.12998 0.36810
 C1891 C 0.84541 1.12773 0.37097
 C1892 C 0.82847 1.14458 0.35984
 C1893 C 0.89057 1.11187 0.37954
 C1894 C 0.88449 1.08533 0.38109
 C1895 C 0.90082 1.06853 0.39290
 C1896 C 0.92341 1.07805 0.40315
 C1897 C 0.92999 1.10426 0.40118
 C1898 C 0.91369 1.12109 0.38941
 C1899 C 0.93815 1.06181 0.41790
 C1900 C 0.94969 1.04926 0.43164
 H1901 H 0.87352 1.18122 0.33214
 H1902 H 0.90336 1.15170 0.35155
 H1903 H 0.83726 1.11296 0.38181
 H1904 H 0.80755 1.14229 0.36185
 H1905 H 0.86701 1.07765 0.37335
 H1906 H 0.89547 1.04829 0.39455
 H1907 H 0.94725 1.11184 0.40938
 H1908 H 0.91871 1.14147 0.38870
 C1909 C 0.30547 0.69203 -0.18037
 C1910 C 0.31852 0.67909 -0.16795
 C1911 C 0.33536 0.66299 -0.15480
 C1912 C 0.36215 0.66288 -0.15938
 C1913 C 0.37862 0.64578 -0.14810
 C1914 C 0.36843 0.62855 -0.13209
 C1915 C 0.34148 0.62900 -0.12739
 C1916 C 0.32501 0.64613 -0.13875
 C1917 C 0.38591 0.61027 -0.12029
 C1918 C 0.37794 0.58462 -0.11612
 C1919 C 0.39406 0.56776 -0.10415
 C1920 C 0.41832 0.57634 -0.09635
 C1921 C 0.42666 0.60161 -0.10086
 C1922 C 0.41058 0.61850 -0.11279
 C1923 C 0.43341 0.56035 -0.08164
 C1924 C 0.44554 0.54815 -0.06804
 H1925 H 0.37025 0.67567 -0.17201
 H1926 H 0.39921 0.64565 -0.15225
 H1927 H 0.33318 0.61619 -0.11490
 H1928 H 0.30424 0.64598 -0.13523
 H1929 H 0.35919 0.57768 -0.12199
 H1930 H 0.38736 0.54828 -0.10053
 H1931 H 0.44526 0.60851 -0.09457
 H1932 H 0.41710 0.63822 -0.11552
 C1933 C 0.80430 0.80799 0.68320
 C1934 C 0.81790 0.82072 0.67105
 C1935 C 0.83551 0.83647 0.65835
 C1936 C 0.86215 0.83585 0.66348
 C1937 C 0.87939 0.85258 0.65264
 C1938 C 0.87014 0.87016 0.63652
 C1939 C 0.84333 0.87047 0.63129
 C1940 C 0.82608 0.85372 0.64221
 C1941 C 0.88845 0.88790 0.62505
 C1942 C 0.88135 0.91375 0.62074
 C1943 C 0.89808 0.92999 0.60872
 C1944 C 0.92207 0.92056 0.60102
 C1945 C 0.92963 0.89513 0.60580
 C1946 C 0.91295 0.87887 0.61779
 C1947 C 0.93738 0.93570 0.58583
 C1948 C 0.94941 0.94722 0.57172
 H1949 H 0.86952 0.82276 0.67619
 H1950 H 0.89987 0.85212 0.65717
 H1951 H 0.83576 0.88356 0.61869
 H1952 H 0.80543 0.85443 0.63828
 H1953 H 0.86275 0.92130 0.62643
 H1954 H 0.89198 0.94960 0.60486
 H1955 H 0.94801 0.88758 0.59957
 H1956 H 0.91879 0.85897 0.62064
 C1957 C 0.30567 0.30649 0.18337
 C1958 C 0.31950 0.31863 0.17096
 C1959 C 0.33724 0.33361 0.15769
 C1960 C 0.36402 0.32841 0.15888
 C1961 C 0.38177 0.34437 0.14773
 C1962 C 0.37290 0.36576 0.13532
 C1963 C 0.34589 0.37062 0.13395
 C1964 C 0.32816 0.35463 0.14514
 C1965 C 0.39171 0.38288 0.12372
 C1966 C 0.38806 0.40990 0.12364
 C1967 C 0.40494 0.42588 0.11152
 C1968 C 0.42567 0.41502 0.09950
 C1969 C 0.42993 0.38826 0.10004
 C1970 C 0.41308 0.37225 0.11212
 C1971 C 0.44053 0.43074 0.08439
 C1972 C 0.45187 0.44309 0.07039
 H1973 H 0.37121 0.31235 0.16882
 H1974 H 0.40246 0.34033 0.14925
 H1975 H 0.33850 0.38673 0.12421
 H1976 H 0.30745 0.35889 0.14430
 H1977 H 0.37199 0.41861 0.13272
 H1978 H 0.40137 0.44657 0.11099
 H1979 H 0.44572 0.37968 0.09047
 H1980 H 0.41619 0.35150 0.11170
   
