data_POSCAR
  _audit_creation_date              2014-09-24
  _audit_creation_method            'ToBaCCo'
  _symmetry_space_group_name_H-M    'P1'
  _symmetry_Int_Tables_number       1
  _symmetry_cell_setting            triclinic
  loop_
  _symmetry_equiv_pos_as_xyz
 x,y,z
_cell_length_a 50.4019
_cell_length_b 51.2246
_cell_length_c 51.3230
_cell_angle_alpha 90.862100
_cell_angle_beta 90.508600
_cell_angle_gamma 90.817900
loop_
  _atom_site_label
  _atom_site_type_symbol
  _atom_site_fract_x
  _atom_site_fract_y
  _atom_site_fract_z
C1 C 0.72459 0.65511 0.96767
 H2 H 0.74401 0.65250 0.95929
 C3 C 0.70473 0.66752 0.95341
 H4 H 0.70908 0.67446 0.93407
 C5 C 0.69463 0.64705 1.00203
 H6 H 0.69035 0.63840 1.02057
 C7 C 0.67438 0.65947 0.98863
 H8 H 0.65498 0.66068 0.99743
 N9 N 0.71902 0.64457 0.99122
 C10 C 0.78853 0.62478 1.03752
 H11 H 0.78287 0.60473 1.04118
 C12 C 0.81203 0.63499 1.04812
 H13 H 0.82416 0.62277 1.06030
 C14 C 0.77951 0.66486 1.01693
 H15 H 0.76686 0.67619 1.00443
 C16 C 0.80300 0.67595 1.02724
 H17 H 0.80837 0.69585 1.02253
 Zn18 Zn 0.74366 0.62168 1.00663
 N19 N 0.77310 0.63953 1.02186
 C20 C 0.78248 0.59710 0.97588
 N21 N 0.75594 0.59887 0.98005
 C22 C 0.73809 0.58582 0.96445
 C23 C 0.74678 0.57005 0.94383
 C24 C 0.79200 0.58153 0.95563
 C25 C 0.72136 0.61608 1.05569
 C26 C 0.70805 0.60392 1.07598
 C27 C 0.70696 0.56399 1.05042
 C28 C 0.72029 0.57706 1.03061
 N29 N 0.72674 0.60276 1.03338
 H30 H 0.79641 0.60811 0.98792
 H31 H 0.71707 0.58792 0.96787
 H32 H 0.73232 0.55973 0.93164
 H33 H 0.81318 0.58081 0.95242
 H34 H 0.72734 0.63639 1.05765
 H35 H 0.70538 0.61548 1.09350
 H36 H 0.70107 0.54400 1.04629
 H37 H 0.72498 0.56669 1.01280
 C38 C 0.81984 0.66071 1.04261
 C39 C 0.67898 0.66904 0.96357
 C40 C 0.70002 0.57732 1.07379
 C41 C 0.77409 0.56778 0.93924
 C42 C 0.73113 0.34643 0.51662
 H43 H 0.75089 0.34577 0.52495
 C44 C 0.71012 0.33325 0.52864
 H45 H 0.71394 0.32243 0.54621
 C46 C 0.70173 0.36330 0.48500
 H47 H 0.69818 0.37567 0.46856
 C48 C 0.68032 0.35033 0.49620
 H49 H 0.66073 0.35244 0.48773
 N50 N 0.72647 0.36161 0.49558
 C51 C 0.79986 0.38279 0.45604
 H52 H 0.79751 0.40375 0.45672
 C53 C 0.82176 0.37207 0.44373
 H54 H 0.83608 0.38495 0.43472
 C55 C 0.78360 0.34067 0.46672
 H56 H 0.76863 0.32862 0.47580
 C57 C 0.80527 0.32905 0.45445
 H58 H 0.80699 0.30801 0.45436
 Zn59 Zn 0.75356 0.38473 0.48420
 N60 N 0.78156 0.36713 0.46755
 C61 C 0.79302 0.40213 0.52039
 N62 N 0.76677 0.40295 0.51411
 C63 C 0.74924 0.41530 0.52990
 C64 C 0.75799 0.42781 0.55285
 C65 C 0.80260 0.41434 0.54313
 C66 C 0.73222 0.39777 0.43606
 C67 C 0.71933 0.41294 0.41767
 C68 C 0.72195 0.44958 0.44784
 C69 C 0.73480 0.43364 0.46572
 N70 N 0.73902 0.40807 0.45979
 H71 H 0.80660 0.39174 0.50800
 H72 H 0.72837 0.41512 0.52479
 H73 H 0.74369 0.43724 0.56534
 H74 H 0.82362 0.41368 0.54760
 H75 H 0.73616 0.37747 0.43173
 H76 H 0.71372 0.40425 0.39902
 H77 H 0.71786 0.46963 0.45321
 H78 H 0.74077 0.44161 0.48450
 C79 C 0.82487 0.34489 0.44305
 C80 C 0.68417 0.33582 0.51887
 C81 C 0.71354 0.43907 0.42365
 C82 C 0.78501 0.42733 0.55976
 C83 C 0.23744 -0.15275 0.02048
 H84 H 0.25766 -0.15196 0.02772
 C85 C 0.21825 -0.16755 0.03343
 H86 H 0.22391 -0.17846 0.05046
 C87 C 0.20517 -0.13846 -0.00976
 H88 H 0.19978 -0.12639 -0.02596
 C89 C 0.18549 -0.15309 0.00242
 H90 H 0.16524 -0.15204 -0.00470
 N91 N 0.23054 -0.13833 -0.00051
 C92 C 0.30140 -0.11679 -0.04387
 H93 H 0.29834 -0.09595 -0.04451
 C94 C 0.32334 -0.12763 -0.05602
 H95 H 0.33700 -0.11498 -0.06624
 C96 C 0.28689 -0.15852 -0.03002
 H97 H 0.27259 -0.17040 -0.01983
 C98 C 0.30862 -0.17024 -0.04205
 H99 H 0.31104 -0.19116 -0.04079
 Zn100 Zn 0.25570 -0.11467 -0.01448
 N101 N 0.28397 -0.13217 -0.03084
 C102 C 0.29546 -0.09307 0.01914
 N103 N 0.26901 -0.09371 0.01362
 C104 C 0.25146 -0.08102 0.02911
 C105 C 0.26036 -0.06680 0.05102
 C106 C 0.30521 -0.07907 0.04079
 C107 C 0.23165 -0.10664 -0.06254
 C108 C 0.21763 -0.09363 -0.08181
 C109 C 0.22000 -0.05451 -0.05507
 C110 C 0.23399 -0.06842 -0.03630
 N111 N 0.23896 -0.09415 -0.04008
 H112 H 0.30908 -0.10389 0.00715
 H113 H 0.23046 -0.08225 0.02459
 H114 H 0.24610 -0.05672 0.06303
 H115 H 0.32627 -0.07928 0.04509
 H116 H 0.23645 -0.12701 -0.06533
 H117 H 0.21330 -0.10458 -0.09951
 H118 H 0.21533 -0.03457 -0.05007
 H119 H 0.24026 -0.05870 -0.01842
 C120 C 0.32737 -0.15465 -0.05497
 C121 C 0.19179 -0.16752 0.02459
 C122 C 0.21079 -0.06704 -0.07839
 C123 C 0.28759 -0.06577 0.05714
 C124 C 0.21885 0.15463 0.46808
 H125 H 0.23850 0.15259 0.46007
 C126 C 0.19911 0.16712 0.45374
 H127 H 0.20380 0.17469 0.43472
 C128 C 0.18824 0.14505 0.50148
 H129 H 0.18368 0.13576 0.51965
 C130 C 0.16807 0.15750 0.48797
 H131 H 0.14843 0.15811 0.49633
 N132 N 0.21293 0.14333 0.49118
 C133 C 0.28188 0.12379 0.53835
 H134 H 0.27594 0.10389 0.54236
 C135 C 0.30548 0.13389 0.54885
 H136 H 0.31735 0.12176 0.56136
 C137 C 0.27367 0.16346 0.51669
 H138 H 0.26137 0.17464 0.50373
 C139 C 0.29728 0.17442 0.52685
 H140 H 0.30307 0.19406 0.52157
 Zn141 Zn 0.23769 0.12045 0.50639
 N142 N 0.26680 0.13837 0.52220
 C143 C 0.27721 0.09710 0.47558
 N144 N 0.25059 0.09851 0.47938
 C145 C 0.23310 0.08598 0.46298
 C146 C 0.24226 0.07131 0.44176
 C147 C 0.28719 0.08260 0.45478
 C148 C 0.21468 0.11337 0.55505
 C149 C 0.20147 0.10035 0.57489
 C150 C 0.20169 0.06097 0.54838
 C151 C 0.21491 0.07479 0.52899
 N152 N 0.22074 0.10062 0.53250
 H153 H 0.29085 0.10764 0.48835
 H154 H 0.21200 0.08776 0.46615
 H155 H 0.22809 0.06147 0.42888
 H156 H 0.30844 0.08223 0.45186
 H157 H 0.21990 0.13383 0.55747
 H158 H 0.19686 0.11088 0.59268
 H159 H 0.19663 0.04058 0.54501
 H160 H 0.22020 0.06493 0.51108
 C161 C 0.31380 0.15929 0.54267
 C162 C 0.17309 0.16791 0.46333
 C163 C 0.19456 0.07384 0.57161
 C164 C 0.26967 0.06956 0.43745
 C165 C 0.16756 0.47128 0.22894
 H166 H 0.16562 0.46170 0.24748
 C167 C 0.17979 0.45839 0.20812
 H168 H 0.18724 0.43889 0.21087
 C169 C 0.15786 0.50723 0.20215
 H170 H 0.14860 0.52584 0.19947
 C171 C 0.17009 0.49522 0.18100
 H172 H 0.17056 0.50515 0.16252
 N173 N 0.15622 0.49492 0.22538
 C174 C 0.13555 0.53705 0.29650
 H175 H 0.11467 0.53913 0.29210
 C176 C 0.14604 0.54750 0.31960
 H177 H 0.13314 0.55798 0.33275
 C178 C 0.17754 0.52053 0.28464
 H179 H 0.18952 0.50964 0.27102
 C180 C 0.18896 0.53084 0.30765
 H181 H 0.20979 0.52777 0.31172
 Zn182 Zn 0.13297 0.50798 0.25113
 N183 N 0.15116 0.52342 0.27986
 C184 C 0.11233 0.47387 0.28885
 N185 N 0.11215 0.47947 0.26302
 C186 C 0.09859 0.46407 0.24548
 C187 C 0.08413 0.44228 0.25382
 C188 C 0.09824 0.45233 0.29798
 C189 C 0.12315 0.55746 0.23177
 C190 C 0.10898 0.57724 0.21985
 C191 C 0.07030 0.54882 0.21869
 C192 C 0.08524 0.52955 0.23070
 N193 N 0.11132 0.53399 0.23646
 H194 H 0.12365 0.48587 0.30249
 H195 H 0.09928 0.46856 0.22497
 H196 H 0.07369 0.43007 0.23958
 H197 H 0.09844 0.44844 0.31866
 H198 H 0.14386 0.56055 0.23679
 H199 H 0.11905 0.59545 0.21551
 H200 H 0.04961 0.54492 0.21405
 H201 H 0.07601 0.51101 0.23510
 C202 C 0.17292 0.54402 0.32570
 C203 C 0.18032 0.47003 0.18350
 C204 C 0.08227 0.57295 0.21285
 C205 C 0.08397 0.43614 0.28040
 C206 C -0.15395 0.02327 0.22433
 H207 H -0.15400 0.03086 0.24411
 C208 C -0.16787 0.03618 0.20475
 H209 H -0.17932 0.05302 0.21031
 C210 C -0.13864 -0.00785 0.19371
 H211 H -0.12637 -0.02433 0.18910
 C212 C -0.15244 0.00414 0.17366
 H213 H -0.14980 -0.00361 0.15417
 N214 N -0.13931 0.00197 0.21842
 C215 C -0.11858 -0.04304 0.28676
 H216 H -0.09747 -0.04396 0.28334
 C217 C -0.12958 -0.05619 0.30769
 H218 H -0.11670 -0.06701 0.32047
 C219 C -0.16073 -0.02700 0.27454
 H220 H -0.17268 -0.01558 0.26150
 C221 C -0.17259 -0.03977 0.29549
 H222 H -0.19376 -0.03819 0.29840
 Zn223 Zn -0.11594 -0.01147 0.24387
 N224 N -0.13411 -0.02866 0.27084
 C225 C -0.09627 0.02168 0.28429
 N226 N -0.09604 0.01699 0.25814
 C227 C -0.08322 0.03344 0.24175
 C228 C -0.06983 0.05561 0.25158
 C229 C -0.08317 0.04356 0.29492
 C230 C -0.10522 -0.05941 0.22068
 C231 C -0.09062 -0.07850 0.20786
 C232 C -0.05190 -0.05024 0.21128
 C233 C -0.06731 -0.03161 0.22405
 N234 N -0.09358 -0.03633 0.22802
 H235 H -0.10693 0.00870 0.29699
 H236 H -0.08381 0.02956 0.22097
 H237 H -0.06015 0.06874 0.23821
 H238 H -0.08346 0.04680 0.31581
 H239 H -0.12607 -0.06278 0.22445
 H240 H -0.10032 -0.09671 0.20211
 H241 H -0.03118 -0.04594 0.20765
 H242 H -0.05834 -0.01331 0.23041
 C243 C -0.15689 -0.05457 0.31238
 C244 C -0.16688 0.02708 0.17863
 C245 C -0.06367 -0.07391 0.20271
 C246 C -0.06988 0.06098 0.27851
 C247 C 0.34989 0.52034 0.73549
 H248 H 0.34988 0.52731 0.75549
 C249 C 0.33640 0.53416 0.71628
 H250 H 0.32561 0.55150 0.72171
 C251 C 0.36526 0.49015 0.70382
 H252 H 0.37737 0.47368 0.69874
 C253 C 0.35195 0.50321 0.68411
 H254 H 0.35399 0.49643 0.66415
 N255 N 0.36432 0.49903 0.72891
 C256 C 0.38452 0.45395 0.79750
 H257 H 0.40567 0.45303 0.79424
 C258 C 0.37337 0.44092 0.81845
 H259 H 0.38618 0.43024 0.83142
 C260 C 0.34243 0.46968 0.78473
 H261 H 0.33053 0.48086 0.77142
 C262 C 0.33041 0.45701 0.80566
 H263 H 0.30919 0.45846 0.80830
 Zn264 Zn 0.38747 0.48476 0.75407
 N265 N 0.36910 0.46811 0.78128
 C266 C 0.40797 0.51815 0.79401
 N267 N 0.40826 0.51279 0.76798
 C268 C 0.42141 0.52862 0.75125
 C269 C 0.43493 0.55093 0.76055
 C270 C 0.42120 0.54021 0.80413
 C271 C 0.39627 0.43664 0.73041
 C272 C 0.41020 0.41688 0.71783
 C273 C 0.45004 0.44352 0.72167
 C274 C 0.43532 0.46280 0.73428
 N275 N 0.40884 0.45919 0.73800
 H276 H 0.39701 0.50569 0.80698
 H277 H 0.42083 0.52423 0.73056
 H278 H 0.44475 0.56362 0.74687
 H279 H 0.42074 0.54409 0.82492
 H280 H 0.37523 0.43423 0.73380
 H281 H 0.39962 0.39939 0.71134
 H282 H 0.47109 0.44669 0.71879
 H283 H 0.44503 0.48066 0.74090
 C284 C 0.34599 0.44240 0.82283
 C285 C 0.33778 0.52587 0.69010
 C286 C 0.43742 0.42024 0.71314
 C287 C 0.43467 0.55711 0.78731
 C288 C 0.65851 0.96330 0.72034
 H289 H 0.64770 0.95127 0.73381
 C290 C 0.67257 0.95138 0.70021
 H291 H 0.67183 0.93031 0.69825
 C292 C 0.67138 1.00519 0.70578
 H293 H 0.67061 1.02615 0.70770
 C294 C 0.68576 0.99408 0.68538
 H295 H 0.69607 1.00672 0.67198
 N296 N 0.65712 0.98979 0.72205
 C297 C 0.63082 1.03990 0.78572
 H298 H 0.61058 1.04214 0.77901
 C299 C 0.63954 1.05298 0.80822
 H300 H 0.62579 1.06603 0.81759
 C301 C 0.67287 1.02080 0.78011
 H302 H 0.68551 1.00775 0.76926
 C303 C 0.68253 1.03350 0.80271
 H304 H 0.70256 1.02937 0.80889
 Zn305 Zn 0.63141 1.00500 0.74440
 N306 N 0.64727 1.02388 0.77244
 C307 C 0.60930 0.97473 0.78450
 N308 N 0.60958 0.97800 0.75824
 C309 C 0.59593 0.96134 0.74194
 C310 C 0.58151 0.94029 0.75191
 C311 C 0.59517 0.95399 0.79527
 C312 C 0.62288 1.05206 0.71924
 C313 C 0.60934 1.07083 0.70517
 C314 C 0.57085 1.04223 0.70399
 C315 C 0.58517 1.02394 0.71811
 N316 N 0.61088 1.02896 0.72509
 H317 H 0.62047 0.98786 0.79722
 H318 H 0.59690 0.96394 0.72109
 H319 H 0.57136 0.92686 0.73858
 H320 H 0.59524 0.95180 0.81622
 H321 H 0.64290 1.05617 0.72597
 H322 H 0.61923 1.08919 0.70104
 H323 H 0.55056 1.03772 0.69823
 H324 H 0.57563 1.00585 0.72346
 C325 C 0.66562 1.04951 0.81775
 C326 C 0.68556 0.96683 0.68176
 C327 C 0.58301 1.06599 0.69720
 C328 C 0.58128 0.93626 0.77891
 C329 C 0.03618 0.22510 -0.13586
 H330 H 0.04935 0.23705 -0.12387
 C331 C 0.04631 0.20349 -0.14905
 H332 H 0.06720 0.19924 -0.14700
 C333 C -0.00724 0.21478 -0.15120
 H334 H -0.02822 0.21897 -0.15132
 C335 C 0.00206 0.19283 -0.16463
 H336 H -0.01184 0.18046 -0.17547
 N337 N 0.00979 0.23021 -0.13693
 C338 C -0.02644 0.30500 -0.11895
 H339 H -0.02210 0.30540 -0.09826
 C340 C -0.03872 0.32619 -0.13038
 H341 H -0.04401 0.34277 -0.11826
 C342 C -0.02533 0.28242 -0.15957
 H343 H -0.01995 0.26533 -0.17081
 C344 C -0.03786 0.30322 -0.17184
 H345 H -0.04198 0.30205 -0.19256
 Zn346 Zn -0.00416 0.25645 -0.11478
 N347 N -0.02018 0.28362 -0.13351
 C348 C 0.04160 0.28672 -0.10727
 N349 N 0.02351 0.27190 -0.09443
 C350 C 0.02503 0.26894 -0.06817
 C351 C 0.04587 0.28062 -0.05388
 C352 C 0.06269 0.29875 -0.09378
 C353 C -0.05505 0.24897 -0.09322
 C354 C -0.07450 0.23627 -0.07877
 C355 C -0.04168 0.20537 -0.06511
 C356 C -0.02286 0.21883 -0.07981
 N357 N -0.02978 0.24022 -0.09342
 H358 H 0.03973 0.28894 -0.12813
 H359 H 0.01014 0.25755 -0.05824
 H360 H 0.04677 0.27813 -0.03298
 H361 H 0.07721 0.30996 -0.10450
 H362 H -0.06046 0.26549 -0.10484
 H363 H -0.09442 0.24352 -0.08071
 H364 H -0.03457 0.18921 -0.05389
 H365 H -0.00261 0.21213 -0.08044
 C366 C -0.04469 0.32547 -0.15713
 C367 C 0.02913 0.18672 -0.16328
 C368 C -0.06838 0.21375 -0.06425
 C369 C 0.06511 0.29568 -0.06673
 C370 C 0.46399 0.22643 0.16934
 H371 H 0.45638 0.24602 0.16840
 C372 C 0.44895 0.20684 0.18121
 H373 H 0.43014 0.21170 0.18993
 C374 C 0.49682 0.19590 0.15766
 H375 H 0.51492 0.19130 0.14769
 C376 C 0.48255 0.17582 0.16942
 H377 H 0.49005 0.15613 0.16829
 N378 N 0.48738 0.22065 0.15765
 C379 C 0.54444 0.28336 0.15009
 H380 H 0.55421 0.27486 0.13342
 C381 C 0.55546 0.30567 0.16199
 H382 H 0.57371 0.31381 0.15439
 C383 C 0.50757 0.28469 0.17834
 H384 H 0.48857 0.27686 0.18418
 C385 C 0.51785 0.30719 0.19076
 H386 H 0.50682 0.31620 0.20642
 Zn387 Zn 0.50454 0.24657 0.13731
 N388 N 0.52079 0.27342 0.15818
 C389 C 0.47745 0.28843 0.11471
 N390 N 0.47850 0.26196 0.11596
 C391 C 0.46069 0.24641 0.10280
 C392 C 0.44063 0.25747 0.08777
 C393 C 0.45775 0.30027 0.09997
 C394 C 0.55270 0.22120 0.12832
 C395 C 0.57269 0.20951 0.11383
 C396 C 0.54761 0.21797 0.07460
 C397 C 0.52808 0.22958 0.08987
 N398 N 0.53085 0.23081 0.11626
 H399 H 0.49189 0.30045 0.12517
 H400 H 0.46190 0.22542 0.10426
 H401 H 0.42631 0.24481 0.07782
 H402 H 0.45739 0.32137 0.09909
 H403 H 0.55452 0.22261 0.14932
 H404 H 0.58970 0.20163 0.12388
 H405 H 0.54517 0.21735 0.05361
 H406 H 0.51077 0.23764 0.08060
 C407 C 0.54191 0.31821 0.18229
 C408 C 0.45805 0.18104 0.18102
 C409 C 0.57028 0.20774 0.08658
 C410 C 0.43888 0.28477 0.08638
 C411 C 0.97467 0.71312 0.67161
 H412 H 0.98022 0.73058 0.68256
 C413 C 0.96191 0.69233 0.68406
 H414 H 0.95772 0.69383 0.70468
 C415 C 0.97354 0.68961 0.63145
 H416 H 0.97807 0.68879 0.61089
 C417 C 0.96108 0.66843 0.64308
 H418 H 0.95582 0.65143 0.63124
 N419 N 0.98005 0.71136 0.64571
 C420 C 1.03887 0.76844 0.64908
 H421 H 1.05177 0.75485 0.63938
 C422 C 1.04987 0.79085 0.66080
 H423 H 1.07119 0.79376 0.66050
 C424 C 0.99557 0.78176 0.66027
 H425 H 0.97434 0.77846 0.65914
 C426 C 1.00576 0.80465 0.67204
 H427 H 0.99217 0.81882 0.67998
 Zn428 Zn 0.99737 0.73780 0.62677
 N429 N 1.01212 0.76454 0.64855
 C430 C 0.98076 0.77468 0.59019
 N431 N 0.97271 0.75371 0.60419
 C432 C 0.94695 0.74542 0.60379
 C433 C 0.92812 0.75840 0.58895
 C434 C 0.96254 0.78825 0.57503
 C435 C 1.04146 0.70625 0.62165
 C436 C 1.06241 0.69374 0.60937
 C437 C 1.04808 0.71196 0.56853
 C438 C 1.02734 0.72416 0.58162
 N439 N 1.02471 0.72144 0.60780
 H440 H 1.00126 0.78120 0.59129
 H441 H 0.94079 0.72904 0.61538
 H442 H 0.90773 0.75145 0.58888
 H443 H 0.96918 0.80525 0.56449
 H444 H 1.03860 0.70407 0.64237
 H445 H 1.07551 0.68173 0.62078
 H446 H 1.05028 0.71484 0.54780
 H447 H 1.01353 0.73593 0.57089
 C448 C 1.03323 0.80977 0.67168
 C449 C 0.95515 0.66956 0.66971
 C450 C 1.06611 0.69671 0.58250
 C451 C 0.93575 0.78030 0.57453
 C452 C 0.52433 0.74179 0.34896
 H453 H 0.53170 0.76165 0.34752
 C454 C 0.53658 0.72167 0.33500
 H455 H 0.55315 0.72623 0.32249
 C456 C 0.49460 0.71148 0.36796
 H457 H 0.47893 0.70728 0.38151
 C458 C 0.50607 0.69090 0.35427
 H459 H 0.49892 0.67120 0.35751
 N460 N 0.50394 0.73633 0.36530
 C461 C 0.46058 0.80696 0.38490
 H462 H 0.46102 0.80482 0.40584
 C463 C 0.44728 0.82779 0.37395
 H464 H 0.43692 0.84073 0.38706
 C465 C 0.47245 0.79100 0.34319
 H466 H 0.48245 0.77660 0.33137
 C467 C 0.45920 0.81159 0.33127
 H468 H 0.46003 0.81278 0.31029
 Zn469 Zn 0.49107 0.76291 0.38781
 N470 N 0.47321 0.78935 0.36959
 C471 C 0.52573 0.80384 0.40481
 N472 N 0.52059 0.77775 0.40615
 C473 C 0.53697 0.76177 0.41953
 C474 C 0.55921 0.77202 0.43280
 C475 C 0.54768 0.81489 0.41778
 C476 C 0.44262 0.74015 0.40063
 C477 C 0.42360 0.72797 0.41602
 C478 C 0.45323 0.73313 0.45307
 C479 C 0.47169 0.74534 0.43694
 N480 N 0.46629 0.74813 0.41112
 H481 H 0.51304 0.81617 0.39345
 H482 H 0.53272 0.74101 0.41989
 H483 H 0.57179 0.75905 0.44367
 H484 H 0.55155 0.83565 0.41621
 H485 H 0.43879 0.74278 0.38007
 H486 H 0.40523 0.72106 0.40707
 H487 H 0.45788 0.73085 0.47354
 H488 H 0.49037 0.75228 0.44506
 C489 C 0.44660 0.83086 0.34664
 C490 C 0.52764 0.69576 0.33786
 C491 C 0.42890 0.72406 0.44257
 C492 C 0.56473 0.79897 0.43210
 C493 C 0.34662 -0.00367 0.21609
 C494 C 0.35660 0.00881 0.23873
 C495 C 0.36846 0.03372 0.23705
 C496 C 0.37059 0.04588 0.21287
 C497 C 0.36031 0.03344 0.19041
 C498 C 0.34820 0.00875 0.19201
 C499 C 0.35463 -0.00413 0.26415
 C500 C 0.36688 -0.02826 0.26817
 C501 C 0.36565 -0.04002 0.29262
 C502 C 0.35166 -0.02802 0.31285
 C503 C 0.33922 -0.00415 0.30891
 C504 C 0.34091 0.00791 0.28468
 H505 H 0.33733 -0.02284 0.21729
 H506 H 0.37648 0.04333 0.25443
 H507 H 0.37792 -0.03742 0.25256
 H508 H 0.33152 0.02657 0.28173
 H509 H 0.36189 0.04287 0.17170
 H510 H 0.35085 -0.03704 0.33183
 C511 C 0.11547 1.00900 0.71680
 C512 C 0.10491 0.99571 0.73816
 C513 C 0.09436 0.97036 0.73456
 C514 C 0.09419 0.95854 0.70976
 C515 C 0.10506 0.97182 0.68861
 C516 C 0.11585 0.99696 0.69215
 C517 C 0.10586 1.00799 0.76434
 C518 C 0.09429 1.03241 0.76880
 C519 C 0.09578 1.04424 0.79356
 C520 C 0.10936 1.03195 0.81382
 C521 C 0.12119 1.00774 0.80939
 C522 C 0.11915 0.99565 0.78479
 H523 H 0.12407 1.02839 0.71955
 H524 H 0.08622 0.95995 0.75097
 H525 H 0.08398 1.04204 0.75308
 H526 H 0.12847 0.97698 0.78136
 H527 H 0.10535 0.96249 0.66950
 H528 H 0.11083 1.04126 0.83291
 C529 C 0.62123 0.51933 0.21942
 C530 C 0.61118 0.50720 0.24167
 C531 C 0.60095 0.48157 0.23965
 C532 C 0.60067 0.46830 0.21557
 C533 C 0.61103 0.48045 0.19352
 C534 C 0.62146 0.50588 0.19549
 C535 C 0.61283 0.52080 0.26722
 C536 C 0.60219 0.54581 0.27066
 C537 C 0.60429 0.55868 0.29491
 C538 C 0.61754 0.54681 0.31564
 C539 C 0.62843 0.52202 0.31218
 C540 C 0.62583 0.50898 0.28813
 H541 H 0.62968 0.53889 0.22095
 H542 H 0.59324 0.47201 0.25676
 H543 H 0.59197 0.55502 0.25463
 H544 H 0.63439 0.48982 0.28551
 H545 H 0.61129 0.47002 0.17498
 H546 H 0.61929 0.55677 0.33438
 C547 C 0.84435 0.48892 0.71950
 C548 C 0.85544 0.50162 0.74153
 C549 C 0.86786 0.52616 0.73895
 C550 C 0.86945 0.53773 0.71445
 C551 C 0.85806 0.52510 0.69261
 C552 C 0.84543 0.50077 0.69512
 C553 C 0.85466 0.48896 0.76710
 C554 C 0.86761 0.46518 0.77084
 C555 C 0.86774 0.45368 0.79542
 C556 C 0.85437 0.46557 0.81615
 C557 C 0.84119 0.48912 0.81244
 C558 C 0.84157 0.50094 0.78802
 H559 H 0.83483 0.46993 0.72139
 H560 H 0.87690 0.53582 0.75582
 H561 H 0.87817 0.45611 0.75486
 H562 H 0.83166 0.51936 0.78525
 H563 H 0.85940 0.53400 0.67361
 H564 H 0.85461 0.45676 0.83523
 C565 C 0.22189 0.36059 -0.00051
 C566 C 0.24449 0.37090 0.01236
 C567 C 0.24186 0.38297 0.03697
 C568 C 0.21682 0.38491 0.04841
 C569 C 0.19443 0.37435 0.03555
 C570 C 0.19696 0.36210 0.01117
 C571 C 0.27082 0.36892 0.00015
 C572 C 0.27492 0.37807 -0.02520
 C573 C 0.29998 0.37624 -0.03663
 C574 C 0.32087 0.36476 -0.02298
 C575 C 0.31682 0.35538 0.00217
 C576 C 0.29193 0.35769 0.01380
 H577 H 0.22379 0.35108 -0.01941
 H578 H 0.25915 0.39128 0.04689
 H579 H 0.25879 0.38700 -0.03578
 H580 H 0.28886 0.35039 0.03328
 H581 H 0.17504 0.37585 0.04441
 H582 H 0.34024 0.36322 -0.03186
 C583 C 0.71600 0.13483 1.01272
 C584 C 0.73723 0.12405 0.99893
 C585 C 0.73304 0.11453 0.97338
 C586 C 0.70776 0.11555 0.96189
 C587 C 0.68673 0.12658 0.97570
 C588 C 0.69088 0.13633 1.00105
 C589 C 0.76376 0.12299 1.01122
 C590 C 0.76713 0.11093 1.03540
 C591 C 0.79228 0.11020 1.04716
 C592 C 0.81408 0.12196 1.03504
 C593 C 0.81079 0.13423 1.01105
 C594 C 0.78574 0.13449 0.99904
 H595 H 0.71916 0.14246 1.03234
 H596 H 0.74929 0.10596 0.96268
 H597 H 0.75028 0.10181 1.04482
 H598 H 0.78322 0.14412 0.98053
 H599 H 0.66719 0.12751 0.96677
 H600 H 0.83353 0.12157 1.04422
 C601 C 0.22076 0.62903 0.52122
 C602 C 0.24323 0.61949 0.50847
 C603 C 0.24069 0.60900 0.48309
 C604 C 0.21579 0.60787 0.47075
 C605 C 0.19352 0.61770 0.48349
 C606 C 0.19601 0.62840 0.50864
 C607 C 0.26939 0.62104 0.52155
 C608 C 0.27334 0.60923 0.54575
 C609 C 0.29814 0.61101 0.55824
 C610 C 0.31893 0.62512 0.54682
 C611 C 0.31496 0.63718 0.52281
 C612 C 0.29034 0.63487 0.51009
 H613 H 0.22267 0.63744 0.54068
 H614 H 0.25794 0.60146 0.47318
 H615 H 0.25725 0.59836 0.55462
 H616 H 0.28730 0.64427 0.49152
 H617 H 0.17427 0.61703 0.47385
 H618 H 0.33810 0.62664 0.55653
 C619 C 0.72337 0.86541 0.49276
 C620 C 0.74624 0.87606 0.50486
 C621 C 0.74426 0.88829 0.52945
 C622 C 0.71960 0.89005 0.54167
 C623 C 0.69691 0.87914 0.52958
 C624 C 0.69882 0.86670 0.50521
 C625 C 0.77223 0.87399 0.49202
 C626 C 0.77568 0.88294 0.46651
 C627 C 0.80039 0.88083 0.45441
 C628 C 0.82158 0.86930 0.46757
 C629 C 0.81817 0.86013 0.49289
 C630 C 0.79364 0.86272 0.50517
 H631 H 0.72480 0.85570 0.47391
 H632 H 0.76179 0.89673 0.53884
 H633 H 0.75931 0.89185 0.45628
 H634 H 0.79103 0.85549 0.52475
 H635 H 0.67784 0.88036 0.53911
 H636 H 0.84065 0.86746 0.45814
 C637 C -0.00475 0.21714 0.34450
 C638 C 0.00836 0.23860 0.35639
 C639 C 0.03270 0.23502 0.36933
 C640 C 0.04365 0.21008 0.37060
 C641 C 0.03061 0.18881 0.35843
 C642 C 0.00651 0.19234 0.34529
 C643 C -0.00342 0.26474 0.35541
 C644 C -0.02830 0.26935 0.36660
 C645 C -0.03904 0.29442 0.36623
 C646 C -0.02524 0.31477 0.35413
 C647 C -0.00060 0.31019 0.34270
 C648 C 0.01042 0.28529 0.34358
 H649 H -0.02352 0.21982 0.33447
 H650 H 0.04270 0.25146 0.37889
 H651 H -0.03888 0.25364 0.37613
 H652 H 0.02964 0.28183 0.33495
 H653 H 0.03903 0.16948 0.35948
 H654 H -0.03348 0.33421 0.35393
 C655 C 1.01752 0.71399 0.12829
 C656 C 1.00485 0.73462 0.11580
 C657 C 0.97939 0.73061 0.10493
 C658 C 0.96689 0.70607 0.10638
 C659 C 0.97955 0.68566 0.11915
 C660 C 1.00477 0.68966 0.13024
 C661 C 1.01788 0.76055 0.11500
 C662 C 1.04315 0.76355 0.10401
 C663 C 1.05555 0.78821 0.10375
 C664 C 1.04299 0.80979 0.11497
 C665 C 1.01795 0.80680 0.12619
 C666 C 1.00531 0.78231 0.12594
 H667 H 1.03699 0.71709 0.13706
 H668 H 0.96951 0.74645 0.09520
 H669 H 1.05292 0.74684 0.09538
 H670 H 0.98594 0.78003 0.13474
 H671 H 0.96977 0.66674 0.12052
 H672 H 1.05264 0.82885 0.11493
 C673 C 0.51506 0.21033 0.62115
 C674 C 0.50130 0.23175 0.61138
 C675 C 0.47536 0.22814 0.60152
 C676 C 0.46348 0.20324 0.60126
 C677 C 0.47725 0.18203 0.61133
 C678 C 0.50294 0.18559 0.62142
 C679 C 0.51376 0.25798 0.61231
 C680 C 0.53817 0.26262 0.60006
 C681 C 0.55003 0.28751 0.60131
 C682 C 0.53783 0.30767 0.61527
 C683 C 0.51367 0.30307 0.62774
 C684 C 0.50152 0.27836 0.62602
 H685 H 0.53490 0.21308 0.62917
 H686 H 0.46463 0.24459 0.59389
 H687 H 0.54764 0.24701 0.58926
 H688 H 0.48282 0.27482 0.63575
 H689 H 0.46792 0.16282 0.61145
 H690 H 0.54706 0.32693 0.61634
 C691 C 0.49821 0.71619 0.84844
 C692 C 0.51147 0.73800 0.85955
 C693 C 0.53624 0.73485 0.87182
 C694 C 0.54748 0.71006 0.87318
 C695 C 0.53430 0.68847 0.86178
 C696 C 0.50975 0.69151 0.84933
 C697 C 0.49939 0.76403 0.85852
 C698 C 0.47456 0.76846 0.86991
 C699 C 0.46358 0.79344 0.86953
 C700 C 0.47708 0.81384 0.85725
 C701 C 0.50166 0.80947 0.84565
 C702 C 0.51293 0.78468 0.84651
 H703 H 0.47910 0.71851 0.83894
 H704 H 0.54637 0.75153 0.88082
 H705 H 0.46420 0.75270 0.87959
 H706 H 0.53210 0.78138 0.83771
 H707 H 0.54295 0.66924 0.86293
 H708 H 0.46863 0.83319 0.85702
 C709 C 0.40675 -0.10434 0.31406
 C710 C 0.41713 -0.10284 0.33933
 C711 C 0.43045 -0.12395 0.34985
 C712 C 0.43373 -0.14739 0.33535
 C713 C 0.42362 -0.14832 0.30950
 C714 C 0.41016 -0.12704 0.29907
 C715 C 0.39219 -0.08252 0.30427
 C716 C 0.38002 -0.06348 0.29794
 H717 H 0.41490 -0.08523 0.35103
 H718 H 0.43886 -0.12124 0.36917
 H719 H 0.42484 -0.16579 0.29752
 H720 H 0.40207 -0.12847 0.27946
 C721 C 0.91223 0.39010 0.81232
 C722 C 0.93418 0.39450 0.82876
 C723 C 0.94872 0.37351 0.83795
 C724 C 0.94150 0.34773 0.83084
 C725 C 0.91998 0.34348 0.81357
 C726 C 0.90536 0.36457 0.80444
 C727 C 0.89612 0.41181 0.80497
 C728 C 0.88295 0.43060 0.80003
 H729 H 0.93970 0.41417 0.83496
 H730 H 0.96541 0.37739 0.85093
 H731 H 0.91385 0.32383 0.80796
 H732 H 0.88835 0.36094 0.79179
 C733 C 0.06102 1.11427 0.80890
 C734 C 0.07521 1.13763 0.80550
 C735 C 0.06441 1.16137 0.81359
 C736 C 0.03926 1.16204 0.82526
 C737 C 0.02478 1.13854 0.82779
 C738 C 0.03563 1.11482 0.81970
 C739 C 0.07310 1.08967 0.80276
 C740 C 0.08340 1.06900 0.79829
 H741 H 0.09487 1.13744 0.79714
 H742 H 0.07591 1.17916 0.81112
 H743 H 0.00555 1.13834 0.83703
 H744 H 0.02452 1.09684 0.82254
 C745 C 0.56828 0.62842 0.30872
 C746 C 0.58281 0.65028 0.31776
 C747 C 0.56964 0.67275 0.32608
 C748 C 0.54174 0.67353 0.32560
 C749 C 0.52739 0.65183 0.31550
 C750 C 0.54059 0.62944 0.30715
 C751 C 0.58150 0.60430 0.30291
 C752 C 0.59212 0.58369 0.29889
 H753 H 0.60425 0.64966 0.31919
 H754 H 0.58121 0.68900 0.33405
 H755 H 0.50592 0.65196 0.31462
 H756 H 0.52913 0.61264 0.30019
 C757 C 0.57137 0.39391 0.20658
 C758 C 0.58894 0.37324 0.20327
 C759 C 0.57930 0.34831 0.19649
 C760 C 0.55191 0.34372 0.19284
 C761 C 0.53433 0.36441 0.19718
 C762 C 0.54403 0.38934 0.20395
 C763 C 0.58152 0.42008 0.21079
 C764 C 0.59017 0.44205 0.21338
 H765 H 0.61015 0.37654 0.20525
 H766 H 0.59331 0.33272 0.19356
 H767 H 0.51318 0.36163 0.19418
 H768 H 0.53025 0.40522 0.20633
 C769 C 0.06449 0.88523 0.69500
 C770 C 0.07453 0.87219 0.67319
 C771 C 0.06455 0.84759 0.66591
 C772 C 0.04435 0.83551 0.68041
 C773 C 0.03443 0.84869 0.70245
 C774 C 0.04448 0.87342 0.70971
 C775 C 0.07445 0.91100 0.70153
 C776 C 0.08327 0.93265 0.70583
 H777 H 0.08987 0.88122 0.66155
 H778 H 0.07223 0.83831 0.64851
 H779 H 0.01900 0.83986 0.71408
 H780 H 0.03654 0.88338 0.72663
 C781 C 0.91307 0.60355 0.70023
 C782 C 0.90544 0.62885 0.70731
 C783 C 0.91979 0.65050 0.69832
 C784 C 0.94175 0.64697 0.68197
 C785 C 0.94977 0.62146 0.67579
 C786 C 0.93552 0.59993 0.68484
 C787 C 0.89713 0.58115 0.70696
 C788 C 0.88422 0.56169 0.71111
 H789 H 0.88801 0.63186 0.71913
 H790 H 0.91309 0.66995 0.70322
 H791 H 0.96680 0.61817 0.66351
 H792 H 0.94162 0.58045 0.67924
 C793 C 0.41094 0.11489 0.20412
 C794 C 0.39892 0.13592 0.19181
 C795 C 0.41401 0.15798 0.18530
 C796 C 0.44139 0.15922 0.19091
 C797 C 0.45307 0.13836 0.20414
 C798 C 0.43794 0.11635 0.21065
 C799 C 0.39616 0.09104 0.20821
 C800 C 0.38425 0.07066 0.21077
 H801 H 0.37808 0.13494 0.18650
 H802 H 0.40450 0.17353 0.17483
 H803 H 0.47403 0.13886 0.20898
 H804 H 0.44748 0.10018 0.22015
 C805 C 0.31629 0.40631 -0.10807
 C806 C 0.33395 0.39297 -0.12419
 C807 C 0.34284 0.40432 -0.14715
 C808 C 0.33424 0.42925 -0.15431
 C809 C 0.31573 0.44213 -0.13849
 C810 C 0.30689 0.43074 -0.11544
 C811 C 0.30937 0.39560 -0.08321
 C812 C 0.30461 0.38670 -0.06211
 H813 H 0.34135 0.37406 -0.11869
 H814 H 0.35679 0.39378 -0.15913
 H815 H 0.30896 0.46143 -0.14337
 H816 H 0.29331 0.44129 -0.10304
 C817 C 0.81467 0.90994 0.38221
 C818 C 0.83164 0.89626 0.36566
 C819 C 0.84004 0.90739 0.34241
 C820 C 0.83161 0.93242 0.33541
 C821 C 0.81372 0.94562 0.35166
 C822 C 0.80538 0.93446 0.37498
 C823 C 0.80846 0.89956 0.40736
 C824 C 0.80432 0.89094 0.42870
 H825 H 0.83895 0.87729 0.37105
 H826 H 0.85354 0.89663 0.33011
 H827 H 0.80712 0.96501 0.34690
 H828 H 0.79234 0.94527 0.38773
 C829 C 0.80506 0.07009 1.11412
 C830 C 0.80689 0.04297 1.11227
 C831 C 0.81497 0.02866 1.13379
 C832 C 0.82167 0.04120 1.15778
 C833 C 0.81823 0.06855 1.15963
 C834 C 0.81020 0.08280 1.13795
 C835 C 0.79964 0.08483 1.09107
 C836 C 0.79596 0.09665 1.07126
 H837 H 0.80261 0.03288 1.09398
 H838 H 0.81569 0.00767 1.13142
 H839 H 0.82345 0.07951 1.17714
 H840 H 0.80891 0.10386 1.13956
 C841 C 0.31165 0.57130 0.62537
 C842 C 0.32280 0.58372 0.64743
 C843 C 0.33020 0.56907 0.66903
 C844 C 0.32664 0.54176 0.66877
 C845 C 0.31454 0.52960 0.64687
 C846 C 0.30712 0.54428 0.62532
 C847 C 0.30637 0.58590 0.60219
 C848 C 0.30247 0.59762 0.58235
 H849 H 0.32650 0.60461 0.64763
 H850 H 0.33980 0.57896 0.68544
 H851 H 0.31131 0.50865 0.64620
 H852 H 0.29848 0.53446 0.60836
 C853 C 0.20093 0.57407 0.39962
 C854 C 0.21645 0.57752 0.37738
 C855 C 0.20784 0.56711 0.35328
 C856 C 0.18350 0.55340 0.35126
 C857 C 0.16851 0.54947 0.37387
 C858 C 0.17715 0.55974 0.39783
 C859 C 0.20824 0.58612 0.42420
 C860 C 0.21256 0.59612 0.44525
 H861 H 0.23486 0.58865 0.37856
 H862 H 0.21970 0.57049 0.33614
 H863 H 0.14992 0.53861 0.37297
 H864 H 0.16501 0.55690 0.41491
 C865 C 0.69020 0.08395 0.89023
 C866 C 0.70913 0.07732 0.87163
 C867 C 0.70122 0.06600 0.84772
 C868 C 0.67405 0.06117 0.84187
 C869 C 0.65535 0.06801 0.86116
 C870 C 0.66337 0.07924 0.88491
 C871 C 0.69786 0.09528 0.91506
 C872 C 0.70298 0.10463 0.93624
 H873 H 0.73003 0.08098 0.87554
 H874 H 0.71653 0.06200 0.83366
 H875 H 0.63440 0.06375 0.85873
 H876 H 0.64853 0.08398 0.89933
 C877 C 0.71015 0.92911 0.61082
 C878 C 0.69893 0.95391 0.61021
 C879 C 0.69204 0.96664 0.63338
 C880 C 0.69625 0.95473 0.65759
 C881 C 0.70845 0.93017 0.65805
 C882 C 0.71530 0.91744 0.63480
 C883 C 0.71460 0.91509 0.58677
 C884 C 0.71731 0.90355 0.56634
 H885 H 0.69471 0.96307 0.59176
 H886 H 0.68228 0.98528 0.63224
 H887 H 0.71220 0.92059 0.67636
 H888 H 0.72399 0.89824 0.63549
 C889 C 0.20330 0.42609 0.11548
 C890 C 0.18163 0.44276 0.11453
 C891 C 0.17447 0.45716 0.13656
 C892 C 0.18897 0.45524 0.16001
 C893 C 0.21084 0.43846 0.16084
 C894 C 0.21799 0.42398 0.13865
 C895 C 0.20970 0.41096 0.09259
 C896 C 0.21363 0.39881 0.07274
 H897 H 0.17001 0.44441 0.09677
 H898 H 0.15716 0.46937 0.13537
 H899 H 0.22243 0.43663 0.17856
 H900 H 0.23481 0.41109 0.13960
 C901 C -0.10632 0.31426 0.40503
 C902 C -0.10402 0.33597 0.42179
 C903 C -0.12630 0.34550 0.43453
 C904 C -0.15133 0.33349 0.43069
 C905 C -0.15342 0.31125 0.41431
 C906 C -0.13102 0.30174 0.40148
 C907 C -0.08333 0.30573 0.39098
 C908 C -0.06344 0.29991 0.37950
 H909 H -0.08501 0.34576 0.42475
 H910 H -0.12397 0.36238 0.44735
 H911 H -0.17246 0.30171 0.41085
 H912 H -0.13304 0.28494 0.38850
 C913 C 0.39633 0.81386 0.90800
 C914 C 0.39829 0.83684 0.92299
 C915 C 0.37596 0.84675 0.93537
 C916 C 0.35123 0.83382 0.93291
 C917 C 0.34950 0.81039 0.91828
 C918 C 0.37195 0.80051 0.90581
 C919 C 0.41932 0.80489 0.89424
 C920 C 0.43920 0.79886 0.88285
 H921 H 0.41706 0.84731 0.92487
 H922 H 0.37802 0.86458 0.94685
 H923 H 0.33069 0.80012 0.91590
 H924 H 0.37019 0.78274 0.89417
 C925 C 1.12576 0.80155 0.06694
 C926 C 1.12702 0.79781 0.03992
 C927 C 1.14914 0.80669 0.02624
 C928 C 1.17029 0.81952 0.03942
 C929 C 1.16939 0.82212 0.06673
 C930 C 1.14721 0.81325 0.08038
 C931 C 1.10154 0.79562 0.08040
 C932 C 1.08078 0.79173 0.09126
 H933 H 1.11051 0.78882 0.02931
 H934 H 1.14941 0.80418 0.00525
 H935 H 1.18520 0.83220 0.07738
 H936 H 1.14636 0.81641 0.10128
 C937 C 0.61671 0.30734 0.56127
 C938 C 0.61611 0.33169 0.54939
 C939 C 0.63799 0.34073 0.53556
 C940 C 0.66091 0.32551 0.53327
 C941 C 0.66144 0.30102 0.54534
 C942 C 0.63940 0.29197 0.55924
 C943 C 0.59393 0.29872 0.57569
 C944 C 0.57419 0.29293 0.58751
 H945 H 0.59875 0.34383 0.55098
 H946 H 0.63712 0.35992 0.52705
 H947 H 0.67875 0.28884 0.54385
 H948 H 0.64008 0.27308 0.56841
 C949 C 0.39011 0.18630 0.57078
 C950 C 0.38683 0.16100 0.56057
 C951 C 0.36212 0.15248 0.55113
 C952 C 0.34018 0.16914 0.55179
 C953 C 0.34370 0.19479 0.56156
 C954 C 0.36856 0.20329 0.57111
 C955 C 0.41555 0.19409 0.58151
 C956 C 0.43725 0.19904 0.59052
 H957 H 0.40337 0.14772 0.56013
 H958 H 0.36017 0.13281 0.54326
 H959 H 0.32713 0.20799 0.56240
 H960 H 0.37087 0.22292 0.57903
 C961 C 0.89503 0.68840 0.07287
 C962 C 0.89258 0.66349 0.06155
 C963 C 0.86825 0.65480 0.05130
 C964 C 0.84589 0.67090 0.05225
 C965 C 0.84861 0.69621 0.06307
 C966 C 0.87307 0.70488 0.07343
 C967 C 0.91997 0.69628 0.08462
 C968 C 0.94123 0.70143 0.09453
 H969 H 0.90944 0.65060 0.06094
 H970 H 0.86690 0.63540 0.04267
 H971 H 0.83169 0.70896 0.06417
 H972 H 0.87475 0.72420 0.08221
 C973 C 0.61343 0.69415 0.91636
 C974 C 0.63777 0.70765 0.91537
 C975 C 0.65921 0.69973 0.93082
 C976 C 0.65642 0.67827 0.94746
 C977 C 0.63185 0.66491 0.94817
 C978 C 0.61058 0.67282 0.93281
 C979 C 0.59118 0.70148 0.90043
 C980 C 0.57165 0.70614 0.88768
 H981 H 0.64019 0.72418 0.90265
 H982 H 0.67784 0.71044 0.92990
 H983 H 0.62918 0.64795 0.96026
 H984 H 0.59192 0.66211 0.93359
 C985 C 0.10843 0.19338 0.41517
 C986 C 0.13259 0.20727 0.41520
 C987 C 0.15371 0.19924 0.43100
 C988 C 0.15079 0.17729 0.44697
 C989 C 0.12640 0.16356 0.44669
 C990 C 0.10544 0.17158 0.43097
 C991 C 0.08653 0.20086 0.39884
 C992 C 0.06736 0.20575 0.38567
 H993 H 0.13512 0.22418 0.40301
 H994 H 0.17220 0.21025 0.43086
 H995 H 0.12365 0.14624 0.45825
 H996 H 0.08690 0.16059 0.43098
 C997 C 0.54119 0.12528 0.65584
 C998 C 0.56760 0.11998 0.64981
 C999 C 0.58107 0.10042 0.66297
 C1000 C 0.56829 0.08591 0.68240
 C1001 C 0.54159 0.09112 0.68803
 C1002 C 0.52816 0.11071 0.67485
 C1003 C 0.52774 0.14623 0.64317
 C1004 C 0.51649 0.16406 0.63299
 H1005 H 0.57785 0.13113 0.63511
 H1006 H 0.60149 0.09662 0.65794
 H1007 H 0.53131 0.08052 0.70309
 H1008 H 0.50774 0.11474 0.67974
 C1009 C 1.04085 0.63212 0.17101
 C1010 C 1.05753 0.63910 0.19198
 C1011 C 1.07067 0.61984 0.20588
 C1012 C 1.06729 0.59331 0.19895
 C1013 C 1.05019 0.58647 0.17805
 C1014 C 1.03707 0.60578 0.16416
 C1015 C 1.02793 0.65208 0.15637
 C1016 C 1.01732 0.66906 0.14428
 H1017 H 1.06051 0.65944 0.19750
 H1018 H 1.08343 0.62569 0.22208
 H1019 H 1.04745 0.56626 0.17204
 H1020 H 1.02423 0.60019 0.14792
 C1021 C 0.98032 0.86746 0.16169
 C1022 C 0.99209 0.88117 0.18268
 C1023 C 0.97798 0.90054 0.19586
 C1024 C 0.95185 0.90630 0.18824
 C1025 C 0.94038 0.89266 0.16687
 C1026 C 0.95452 0.87336 0.15372
 C1027 C 0.99418 0.84662 0.14892
 C1028 C 1.00526 0.82870 0.13839
 H1029 H 1.01203 0.87664 0.18907
 H1030 H 0.98723 0.91054 0.21238
 H1031 H 0.92047 0.89695 0.16028
 H1032 H 0.94523 0.86287 0.13749
 C1033 C 0.47842 0.36068 0.67032
 C1034 C 0.48385 0.38705 0.66560
 C1035 C 0.47090 0.40647 0.67986
 C1036 C 0.45228 0.39972 0.69898
 C1037 C 0.44727 0.37314 0.70382
 C1038 C 0.46025 0.35378 0.68958
 C1039 C 0.49109 0.34063 0.65518
 C1040 C 0.50145 0.32362 0.64258
 H1041 H 0.49785 0.39259 0.65070
 H1042 H 0.47494 0.42674 0.67547
 H1043 H 0.43333 0.36733 0.71865
 H1044 H 0.45598 0.33342 0.69345
 C1045 C 0.47247 0.62709 0.81766
 C1046 C 0.48481 0.61237 0.79815
 C1047 C 0.47251 0.58966 0.78814
 C1048 C 0.44773 0.58135 0.79762
 C1049 C 0.43542 0.59642 0.81711
 C1050 C 0.44773 0.61910 0.82705
 C1051 C 0.48539 0.65007 0.82847
 C1052 C 0.49635 0.66911 0.83784
 H1053 H 0.50402 0.61833 0.79081
 H1054 H 0.48258 0.57836 0.77333
 H1055 H 0.41615 0.59079 0.82450
 H1056 H 0.43799 0.63037 0.84212
 C1057 C -0.03115 0.12939 0.31120
 C1058 C -0.01916 0.11538 0.29097
 C1059 C -0.03181 0.09324 0.28013
 C1060 C -0.05661 0.08481 0.28948
 C1061 C -0.06859 0.09921 0.30966
 C1062 C -0.05592 0.12132 0.32043
 C1063 C -0.01790 0.15176 0.32288
 C1064 C -0.00682 0.17035 0.33298
 H1065 H 0.00006 0.12143 0.28373
 H1066 H -0.02198 0.08242 0.26481
 H1067 H -0.08785 0.09347 0.31699
 H1068 H -0.06541 0.13207 0.33604
 C1069 C 0.04074 0.37017 0.30988
 C1070 C 0.02956 0.38529 0.29023
 C1071 C 0.04376 0.40652 0.28025
 C1072 C 0.06928 0.41291 0.28993
 C1073 C 0.08047 0.39730 0.30937
 C1074 C 0.06628 0.37610 0.31927
 C1075 C 0.02591 0.34892 0.32094
 C1076 C 0.01373 0.33122 0.33069
 H1077 H 0.00976 0.38088 0.28287
 H1078 H 0.03455 0.41832 0.26547
 H1079 H 0.10024 0.40146 0.31692
 H1080 H 0.07515 0.36447 0.33441
 C1081 C 0.54074 0.87023 0.81168
 C1082 C 0.52908 0.88374 0.79112
 C1083 C 0.54228 0.90515 0.78030
 C1084 C 0.56728 0.91334 0.79002
 C1085 C 0.57888 0.89948 0.81056
 C1086 C 0.56568 0.87810 0.82131
 C1087 C 0.52699 0.84860 0.82328
 C1088 C 0.51550 0.83064 0.83334
 H1089 H 0.50973 0.87785 0.78359
 H1090 H 0.53275 0.91556 0.76467
 H1091 H 0.59829 0.90503 0.81817
 H1092 H 0.57491 0.86775 0.83718
 C1093 C 0.65797 0.54035 0.13398
 C1094 C 0.67084 0.52542 0.11513
 C1095 C 0.68470 0.53755 0.09505
 C1096 C 0.68621 0.56520 0.09330
 C1097 C 0.67265 0.57979 0.11271
 C1098 C 0.65884 0.56750 0.13266
 C1099 C 0.64452 0.52793 0.15517
 C1100 C 0.63369 0.51779 0.17332
 H1101 H 0.67056 0.50430 0.11617
 H1102 H 0.69525 0.52477 0.08197
 H1103 H 0.67132 0.60079 0.11228
 H1104 H 0.64871 0.57928 0.14708
 C1105 C 0.15262 1.03384 0.63212
 C1106 C 0.17274 1.02116 0.61845
 C1107 C 0.18628 1.03406 0.59863
 C1108 C 0.17989 1.05986 0.59227
 C1109 C 0.15947 1.07233 0.60600
 C1110 C 0.14596 1.05940 0.62579
 C1111 C 0.13923 1.02084 0.65301
 C1112 C 0.12833 1.00999 0.67073
 H1113 H 0.17813 1.00140 0.62327
 H1114 H 0.20209 1.02403 0.58864
 H1115 H 0.15381 1.09203 0.60131
 H1116 H 0.13040 1.06938 0.63622
 C1117 C 0.16445 0.97192 0.86583
 C1118 C 0.17947 0.98624 0.88414
 C1119 C 0.19489 0.97346 0.90268
 C1120 C 0.19581 0.94575 0.90339
 C1121 C 0.18020 0.93180 0.88446
 C1122 C 0.16486 0.94473 0.86606
 C1123 C 0.14893 0.98498 0.84643
 C1124 C 0.13610 0.99552 0.82978
 H1125 H 0.17955 1.00739 0.88393
 H1126 H 0.20692 0.98582 0.91541
 H1127 H 0.17837 0.91078 0.88422
 H1128 H 0.15308 0.93341 0.85207
 C1129 C 0.66882 0.48423 0.36921
 C1130 C 0.69024 0.49578 0.38284
 C1131 C 0.70476 0.48122 0.40073
 C1132 C 0.69808 0.45488 0.40505
 C1133 C 0.67634 0.44359 0.39143
 C1134 C 0.66186 0.45816 0.37364
 C1135 C 0.65450 0.49859 0.34990
 C1136 C 0.64251 0.50974 0.33307
 H1137 H 0.69588 0.51592 0.37943
 H1138 H 0.72151 0.49037 0.41077
 H1139 H 0.67041 0.42350 0.39467
 H1140 H 0.64532 0.44903 0.36319
 C1141 C 0.81432 0.46432 0.63026
 C1142 C 0.82387 0.43994 0.62247
 C1143 C 0.81419 0.42784 0.59966
 C1144 C 0.79482 0.43998 0.58429
 C1145 C 0.78515 0.46439 0.59243
 C1146 C 0.79488 0.47648 0.61526
 C1147 C 0.82492 0.47705 0.65334
 C1148 C 0.83413 0.48779 0.67250
 H1149 H 0.83888 0.43034 0.63397
 H1150 H 0.82174 0.40888 0.59414
 H1151 H 0.77045 0.47435 0.58088
 H1152 H 0.78743 0.49541 0.62107
 C1153 C 0.31773 -0.02654 0.12617
 C1154 C 0.33153 -0.02476 0.10271
 C1155 C 0.32156 -0.03720 0.08018
 C1156 C 0.29759 -0.05161 0.08081
 C1157 C 0.28370 -0.05302 0.10443
 C1158 C 0.29373 -0.04058 0.12695
 C1159 C 0.32837 -0.01417 0.14945
 C1160 C 0.33740 -0.00379 0.16889
 H1161 H 0.35008 -0.01385 0.10186
 H1162 H 0.33254 -0.03546 0.06224
 H1163 H 0.26539 -0.06425 0.10563
 H1164 H 0.28291 -0.04212 0.14502
 C1165 C 0.30240 0.03016 0.37085
 C1166 C 0.27924 0.04467 0.36813
 C1167 C 0.26813 0.05698 0.38991
 C1168 C 0.28017 0.05498 0.41463
 C1169 C 0.30313 0.03990 0.41720
 C1170 C 0.31415 0.02760 0.39546
 C1171 C 0.31462 0.01830 0.34845
 C1172 C 0.32553 0.00822 0.33016
 H1173 H 0.27000 0.04680 0.34916
 H1174 H 0.25062 0.06869 0.38728
 H1175 H 0.31264 0.03771 0.43603
 H1176 H 0.33201 0.01632 0.39780
 C1177 C 0.80552 0.52476 0.87429
 C1178 C 0.78241 0.53928 0.87115
 C1179 C 0.77171 0.55275 0.89244
 C1180 C 0.78410 0.55191 0.91708
 C1181 C 0.80697 0.53678 0.92012
 C1182 C 0.81759 0.52332 0.89886
 C1183 C 0.81747 0.51204 0.85223
 C1184 C 0.82805 0.50156 0.83398
 H1185 H 0.77295 0.54058 0.85219
 H1186 H 0.75426 0.56446 0.88944
 H1187 H 0.81674 0.53548 0.93892
 H1188 H 0.83543 0.51208 0.90151
 C1189 C 0.13213 0.66060 0.54454
 C1190 C 0.13537 0.67206 0.56929
 C1191 C 0.11390 0.68379 0.58160
 C1192 C 0.08885 0.68422 0.56930
 C1193 C 0.08578 0.67266 0.54439
 C1194 C 0.10731 0.66092 0.53210
 C1195 C 0.15441 0.64888 0.53184
 C1196 C 0.17329 0.63935 0.52129
 H1197 H 0.15454 0.67205 0.57902
 H1198 H 0.11701 0.69286 0.60060
 H1199 H 0.06668 0.67242 0.53456
 H1200 H 0.10460 0.65209 0.51293
 C1201 C 0.63137 0.17104 1.04171
 C1202 C 0.63813 0.18760 1.06273
 C1203 C 0.61827 0.19966 1.07721
 C1204 C 0.59135 0.19530 1.07085
 C1205 C 0.58475 0.17875 1.04956
 C1206 C 0.60466 0.16667 1.03511
 C1207 C 0.65194 0.15853 1.02706
 C1208 C 0.66951 0.14826 1.01507
 H1209 H 0.65875 0.19120 1.06793
 H1210 H 0.62400 0.21258 1.09324
 H1211 H 0.56420 0.17478 1.04438
 H1212 H 0.59922 0.15385 1.01889
 C1213 C 0.87199 0.17275 0.97609
 C1214 C 0.86833 0.19870 0.96935
 C1215 C 0.88817 0.21245 0.95633
 C1216 C 0.91249 0.20054 0.94947
 C1217 C 0.91584 0.17422 0.95714
 C1218 C 0.89582 0.16060 0.97014
 C1219 C 0.85097 0.15859 0.98869
 C1220 C 0.83289 0.14721 0.99898
 H1221 H 0.85003 0.20844 0.97421
 H1222 H 0.88436 0.23279 0.95283
 H1223 H 0.93312 0.16313 0.95197
 H1224 H 0.89878 0.14036 0.97515
 C1225 C 0.37203 0.68096 0.48733
 C1226 C 0.36354 0.70003 0.47003
 C1227 C 0.38205 0.71445 0.45590
 C1228 C 0.40937 0.70998 0.45888
 C1229 C 0.41777 0.69115 0.47675
 C1230 C 0.39919 0.67669 0.49085
 C1231 C 0.35270 0.66528 0.50068
 C1232 C 0.33586 0.65230 0.51114
 H1233 H 0.34256 0.70352 0.46721
 H1234 H 0.37499 0.72904 0.44257
 H1235 H 0.43865 0.68707 0.47924
 H1236 H 0.40597 0.66191 0.50413
 C1237 C 0.63321 0.83316 0.47063
 C1238 C 0.63506 0.80889 0.45791
 C1239 C 0.61274 0.79759 0.44561
 C1240 C 0.58827 0.81047 0.44585
 C1241 C 0.58658 0.83475 0.45890
 C1242 C 0.60890 0.84599 0.47120
 C1243 C 0.65627 0.84501 0.48288
 C1244 C 0.67563 0.85496 0.49307
 H1245 H 0.65380 0.79881 0.45731
 H1246 H 0.61477 0.77905 0.43547
 H1247 H 0.56795 0.84498 0.45974
 H1248 H 0.60722 0.86474 0.48107
 C1249 C 0.13180 0.33038 -0.02576
 C1250 C 0.12277 0.30535 -0.01934
 C1251 C 0.10087 0.29416 -0.03242
 C1252 C 0.08775 0.30789 -0.05216
 C1253 C 0.09684 0.33315 -0.05828
 C1254 C 0.11872 0.34430 -0.04516
 C1255 C 0.15469 0.34165 -0.01270
 C1256 C 0.17394 0.35103 -0.00183
 H1257 H 0.13280 0.29439 -0.00438
 H1258 H 0.09455 0.27457 -0.02749
 H1259 H 0.08695 0.34434 -0.07313
 H1260 H 0.12550 0.36372 -0.05022
 C1261 C 0.37668 0.32087 0.04250
 C1262 C 0.38447 0.33119 0.06681
 C1263 C 0.40465 0.31942 0.08108
 C1264 C 0.41734 0.29711 0.07120
 C1265 C 0.40931 0.28681 0.04677
 C1266 C 0.38911 0.29864 0.03251
 C1267 C 0.35578 0.33301 0.02799
 C1268 C 0.33813 0.34324 0.01610
 H1269 H 0.37488 0.34830 0.07479
 H1270 H 0.41010 0.32759 0.09999
 H1271 H 0.41889 0.26983 0.03854
 H1272 H 0.38323 0.29050 0.01370
 C1273 C 0.87709 0.82288 0.53197
 C1274 C 0.90205 0.81863 0.52107
 C1275 C 0.92126 0.80489 0.53491
 C1276 C 0.91564 0.79516 0.55979
 C1277 C 0.89055 0.79973 0.57060
 C1278 C 0.87143 0.81347 0.55678
 C1279 C 0.85698 0.83646 0.51771
 C1280 C 0.83956 0.84747 0.50620
 H1281 H 0.90660 0.82577 0.50183
 H1282 H 0.94031 0.80149 0.52599
 H1283 H 0.88577 0.79289 0.58989
 H1284 H 0.85220 0.81671 0.56543
   
