data_POSCAR
  _audit_creation_date              2014-09-24
  _audit_creation_method            'ToBaCCo'
  _symmetry_space_group_name_H-M    'P1'
  _symmetry_Int_Tables_number       1
  _symmetry_cell_setting            triclinic
  loop_
  _symmetry_equiv_pos_as_xyz
 x,y,z
_cell_length_a 63.5095
_cell_length_b 63.5390
_cell_length_c 63.5492
_cell_angle_alpha 89.980200
_cell_angle_beta 90.006300
_cell_angle_gamma 89.960300
loop_
  _atom_site_label
  _atom_site_type_symbol
  _atom_site_fract_x
  _atom_site_fract_y
  _atom_site_fract_z
C1 C 0.13272 -0.02768 0.25266
 C2 C 0.12414 -0.00773 0.25685
 C3 C 0.11529 -0.00362 0.27668
 C4 C 0.11484 -0.01936 0.29210
 C5 C 0.12360 -0.03913 0.28791
 C6 C 0.13265 -0.04329 0.26825
 C7 C 0.12450 0.00883 0.24054
 C8 C 0.11572 0.00505 0.22061
 C9 C 0.11589 0.02087 0.20522
 C10 C 0.12523 0.04034 0.20959
 C11 C 0.13419 0.04412 0.22934
 C12 C 0.13365 0.02849 0.24487
 H13 H 0.13979 -0.03085 0.23744
 H14 H 0.10847 0.01168 0.27997
 H15 H 0.10845 -0.01003 0.21727
 H16 H 0.14065 0.03145 0.26014
 H17 H 0.12339 -0.05123 0.29997
 H18 H 0.12554 0.05256 0.19765
 C19 C 0.36728 -0.02726 0.74737
 C20 C 0.37581 -0.00731 0.74312
 C21 C 0.38465 -0.00324 0.72326
 C22 C 0.38512 -0.01903 0.70790
 C23 C 0.37640 -0.03880 0.71217
 C24 C 0.36739 -0.04289 0.73184
 C25 C 0.37544 0.00927 0.75938
 C26 C 0.38419 0.00549 0.77933
 C27 C 0.38399 0.02132 0.79469
 C28 C 0.37467 0.04081 0.79028
 C29 C 0.36575 0.04458 0.77050
 C30 C 0.36632 0.02894 0.75500
 H31 H 0.36022 -0.03044 0.76257
 H32 H 0.39145 0.01205 0.71992
 H33 H 0.39143 -0.00960 0.78271
 H34 H 0.35934 0.03190 0.73971
 H35 H 0.37660 -0.05096 0.70020
 H36 H 0.37434 0.05303 0.80220
 C37 C 0.86687 0.47282 0.24767
 C38 C 0.87539 0.49278 0.24348
 C39 C 0.88432 0.49688 0.22366
 C40 C 0.88489 0.48110 0.20830
 C41 C 0.87619 0.46132 0.21252
 C42 C 0.86709 0.45719 0.23214
 C43 C 0.87494 0.50935 0.25975
 C44 C 0.88357 0.50553 0.27975
 C45 C 0.88331 0.52133 0.29513
 C46 C 0.87405 0.54084 0.29070
 C47 C 0.86524 0.54466 0.27088
 C48 C 0.86586 0.52903 0.25536
 H49 H 0.85975 0.46960 0.26284
 H50 H 0.89110 0.51218 0.22037
 H51 H 0.89078 0.49042 0.28315
 H52 H 0.85898 0.53203 0.24003
 H53 H 0.87648 0.44916 0.20054
 H54 H 0.87368 0.55306 0.30263
 C55 C 0.63388 0.47287 0.75262
 C56 C 0.62537 0.49284 0.75689
 C57 C 0.61642 0.49686 0.77671
 C58 C 0.61581 0.48101 0.79201
 C59 C 0.62451 0.46123 0.78773
 C60 C 0.63363 0.45717 0.76810
 C61 C 0.62579 0.50946 0.74066
 C62 C 0.61707 0.50575 0.72069
 C63 C 0.61726 0.52160 0.70538
 C64 C 0.62655 0.54106 0.70981
 C65 C 0.63546 0.54480 0.72960
 C66 C 0.63490 0.52911 0.74508
 H67 H 0.64100 0.46970 0.73745
 H68 H 0.60963 0.51216 0.78005
 H69 H 0.60981 0.49070 0.71723
 H70 H 0.64185 0.53204 0.76038
 H71 H 0.62419 0.44901 0.79965
 H72 H 0.62683 0.55328 0.69789
 C73 C 0.24611 0.13245 1.02775
 C74 C 0.24169 0.12351 1.00803
 C75 C 0.22177 0.11463 1.00431
 C76 C 0.20651 0.11451 1.02024
 C77 C 0.21098 0.12365 1.03979
 C78 C 0.23071 0.13271 1.04352
 C79 C 0.25784 0.12353 0.99130
 C80 C 0.27779 0.11471 0.99504
 C81 C 0.29307 0.11463 0.97911
 C82 C 0.28857 0.12376 0.95955
 C83 C 0.26879 0.13275 0.95581
 C84 C 0.25338 0.13245 0.97156
 H85 H 0.26137 0.13953 1.03067
 H86 H 0.21835 0.10755 0.98916
 H87 H 0.28124 0.10764 1.01020
 H88 H 0.23810 0.13949 0.96864
 H89 H 0.19913 0.12376 1.05210
 H90 H 0.30042 0.12391 0.94725
 C91 C 0.75391 0.36558 1.02867
 C92 C 0.75791 0.37445 1.00881
 C93 C 0.77771 0.38337 1.00464
 C94 C 0.79327 0.38361 1.02024
 C95 C 0.78927 0.37456 1.03992
 C96 C 0.76965 0.36544 1.04413
 C97 C 0.74143 0.37440 0.99243
 C98 C 0.72158 0.38325 0.99656
 C99 C 0.70602 0.38342 0.98091
 C100 C 0.71014 0.37436 0.96125
 C101 C 0.72981 0.36533 0.95712
 C102 C 0.74550 0.36553 0.97260
 H103 H 0.73871 0.35849 1.03188
 H104 H 0.78084 0.39043 0.98942
 H105 H 0.71843 0.39031 1.01178
 H106 H 0.76072 0.35849 0.96937
 H107 H 0.80144 0.37463 1.05191
 H108 H 0.69807 0.37432 0.94915
 C109 C 0.25491 0.86638 0.52814
 C110 C 0.25899 0.87523 0.50830
 C111 C 0.27884 0.88406 0.50417
 C112 C 0.29439 0.88422 0.51982
 C113 C 0.29028 0.87517 0.53949
 C114 C 0.27061 0.86616 0.54362
 C115 C 0.24251 0.87529 0.49192
 C116 C 0.22268 0.88417 0.49608
 C117 C 0.20714 0.88441 0.48045
 C118 C 0.21120 0.87541 0.46077
 C119 C 0.23084 0.86635 0.45659
 C120 C 0.24656 0.86647 0.47205
 H121 H 0.23970 0.85935 0.53138
 H122 H 0.28198 0.89111 0.48894
 H123 H 0.21951 0.89120 0.51130
 H124 H 0.26175 0.85940 0.46879
 H125 H 0.30234 0.87512 0.55159
 H126 H 0.19908 0.87545 0.44873
 C127 C 0.74679 0.63368 0.52810
 C128 C 0.74228 0.62483 0.50834
 C129 C 0.72232 0.61606 0.50465
 C130 C 0.70711 0.61593 0.52061
 C131 C 0.71164 0.62497 0.54018
 C132 C 0.73142 0.63394 0.54391
 C133 C 0.75838 0.62478 0.49158
 C134 C 0.77831 0.61588 0.49528
 C135 C 0.79351 0.61563 0.47929
 C136 C 0.78898 0.62467 0.45970
 C137 C 0.76923 0.63375 0.45599
 C138 C 0.75389 0.63361 0.47181
 H139 H 0.76208 0.64068 0.53101
 H140 H 0.71878 0.60902 0.48952
 H141 H 0.78177 0.60885 0.51045
 H142 H 0.73863 0.64070 0.46891
 H143 H 0.69980 0.62502 0.55248
 H144 H 0.80077 0.62466 0.44734
 C145 C -0.02617 0.25288 0.13196
 C146 C -0.00638 0.25706 0.12303
 C147 C -0.00238 0.27696 0.11425
 C148 C -0.01810 0.29246 0.11423
 C149 C -0.03771 0.28823 0.12336
 C150 C -0.04172 0.26851 0.13232
 C151 C 0.01017 0.24073 0.12305
 C152 C 0.00619 0.22079 0.11436
 C153 C 0.02197 0.20535 0.11430
 C154 C 0.04162 0.20967 0.12332
 C155 C 0.04560 0.22943 0.13219
 C156 C 0.02999 0.24499 0.13187
 H157 H -0.02929 0.23765 0.13900
 H158 H 0.01283 0.28021 0.10718
 H159 H -0.00904 0.21748 0.10736
 H160 H 0.03310 0.26026 0.13883
 H161 H -0.04986 0.30026 0.12356
 H162 H 0.05381 0.19769 0.12348
 C163 C -0.03059 0.74533 0.36696
 C164 C -0.01077 0.74098 0.37577
 C165 C -0.00682 0.72100 0.38441
 C166 C -0.02261 0.70562 0.38442
 C167 C -0.04225 0.71000 0.37543
 C168 C -0.04621 0.72979 0.36661
 C169 C 0.00578 0.75728 0.37590
 C170 C 0.00177 0.77713 0.38480
 C171 C 0.01750 0.79256 0.38497
 C172 C 0.03713 0.78838 0.37588
 C173 C 0.04116 0.76873 0.36680
 C174 C 0.02560 0.75312 0.36700
 H175 H -0.03369 0.76063 0.36006
 H176 H 0.00837 0.71759 0.39142
 H177 H -0.01342 0.78040 0.39186
 H178 H 0.02873 0.73793 0.35988
 H179 H -0.05441 0.69803 0.37529
 H180 H 0.04923 0.80042 0.37585
 C181 C 0.46983 0.24495 0.86705
 C182 C 0.48965 0.24060 0.87587
 C183 C 0.49356 0.22065 0.88459
 C184 C 0.47773 0.20528 0.88467
 C185 C 0.45809 0.20969 0.87565
 C186 C 0.45418 0.22945 0.86676
 C187 C 0.50623 0.25687 0.87594
 C188 C 0.50226 0.27676 0.88477
 C189 C 0.51803 0.29218 0.88490
 C190 C 0.53767 0.28790 0.87584
 C191 C 0.54165 0.26819 0.86684
 C192 C 0.52604 0.25263 0.86707
 H193 H 0.46677 0.26023 0.86009
 H194 H 0.50877 0.21728 0.89160
 H195 H 0.48704 0.28005 0.89179
 H196 H 0.52915 0.23741 0.86002
 H197 H 0.44586 0.19777 0.87553
 H198 H 0.54985 0.29987 0.87574
 C199 C 0.47436 0.75288 0.63412
 C200 C 0.49421 0.75709 0.62531
 C201 C 0.49819 0.77695 0.61645
 C202 C 0.48242 0.79236 0.61622
 C203 C 0.46276 0.78813 0.62521
 C204 C 0.45875 0.76845 0.63425
 C205 C 0.51078 0.74078 0.62539
 C206 C 0.50683 0.72083 0.61674
 C207 C 0.52265 0.70547 0.61659
 C208 C 0.54233 0.70983 0.62547
 C209 C 0.54631 0.72960 0.63432
 C210 C 0.53065 0.74512 0.63410
 H211 H 0.47124 0.73767 0.64119
 H212 H 0.51339 0.78026 0.60943
 H213 H 0.49161 0.71743 0.60978
 H214 H 0.53376 0.76041 0.64100
 H215 H 0.45060 0.80014 0.62518
 H216 H 0.55452 0.69787 0.62550
 C217 C 0.86801 1.02891 0.75367
 C218 C 0.87712 1.00920 0.75781
 C219 C 0.88607 1.00526 0.77762
 C220 C 0.88611 1.02097 0.79310
 C221 C 0.87679 1.04054 0.78894
 C222 C 0.86765 1.04446 0.76926
 C223 C 0.87724 0.99272 0.74145
 C224 C 0.88580 0.99691 0.72151
 C225 C 0.88606 0.98123 0.70602
 C226 C 0.87735 0.96141 0.71029
 C227 C 0.86859 0.95723 0.73009
 C228 C 0.86874 0.97278 0.74569
 H229 H 0.86087 1.03197 0.73847
 H230 H 0.89329 0.99011 0.78081
 H231 H 0.89257 1.01224 0.71825
 H232 H 0.86189 0.96952 0.76098
 H233 H 0.87661 1.05268 0.80094
 H234 H 0.87735 0.94928 0.69827
 C235 C 0.36578 0.52905 0.25311
 C236 C 0.37482 0.50933 0.25739
 C237 C 0.38379 0.50552 0.27722
 C238 C 0.38394 0.52134 0.29255
 C239 C 0.37471 0.54091 0.28827
 C240 C 0.36553 0.54473 0.26858
 C241 C 0.37496 0.49275 0.24115
 C242 C 0.38374 0.49676 0.22127
 C243 C 0.38417 0.48095 0.20594
 C244 C 0.37541 0.46118 0.21027
 C245 C 0.36644 0.45716 0.23000
 C246 C 0.36641 0.47285 0.24547
 H247 H 0.35865 0.53203 0.23789
 H248 H 0.39099 0.49040 0.28055
 H249 H 0.39058 0.51202 0.21791
 H250 H 0.35943 0.46971 0.26072
 H251 H 0.37467 0.55311 0.30020
 H252 H 0.37560 0.44898 0.19834
 C253 C 0.63282 1.02920 0.24698
 C254 C 0.62376 1.00949 0.24280
 C255 C 0.61476 1.00563 0.22299
 C256 C 0.61463 1.02139 0.20759
 C257 C 0.62388 1.04095 0.21178
 C258 C 0.63307 1.04482 0.23144
 C259 C 0.62375 0.99294 0.25908
 C260 C 0.61518 0.99698 0.27903
 C261 C 0.61500 0.98120 0.29444
 C262 C 0.62379 0.96144 0.29006
 C263 C 0.63255 0.95740 0.27024
 C264 C 0.63233 0.97304 0.25472
 H265 H 0.64000 1.03221 0.26216
 H266 H 0.60757 0.99050 0.21972
 H267 H 0.60835 1.01227 0.28238
 H268 H 0.63917 0.96990 0.23941
 H269 H 0.62395 1.05310 0.19979
 H270 H 0.62383 0.94923 0.30201
 C271 C 0.13335 0.52927 0.74648
 C272 C 0.12435 0.50954 0.74232
 C273 C 0.11535 0.50563 0.72253
 C274 C 0.11515 0.52138 0.70712
 C275 C 0.12435 0.54098 0.71128
 C276 C 0.13355 0.54489 0.73093
 C277 C 0.12432 0.49302 0.75863
 C278 C 0.11561 0.49706 0.77852
 C279 C 0.11533 0.48131 0.79392
 C280 C 0.12416 0.46156 0.78964
 C281 C 0.13308 0.45750 0.76989
 C282 C 0.13296 0.47313 0.75435
 H283 H 0.14051 0.53232 0.76167
 H284 H 0.10819 0.49049 0.71928
 H285 H 0.10871 0.51232 0.78185
 H286 H 0.13989 0.46997 0.73908
 H287 H 0.12436 0.55312 0.69928
 H288 H 0.12410 0.44940 0.80162
 C289 C 0.74704 0.86756 -0.02812
 C290 C 0.74249 0.87651 -0.00843
 C291 C 0.72256 0.88537 -0.00484
 C292 C 0.70739 0.88549 -0.02082
 C293 C 0.71194 0.87635 -0.04036
 C294 C 0.73173 0.86728 -0.04398
 C295 C 0.75853 0.87658 0.00837
 C296 C 0.77844 0.88545 0.00471
 C297 C 0.79360 0.88575 0.02073
 C298 C 0.78903 0.87676 0.04036
 C299 C 0.76926 0.86769 0.04402
 C300 C 0.75398 0.86781 0.02813
 H301 H 0.76233 0.86050 -0.03093
 H302 H 0.71901 0.89248 0.01027
 H303 H 0.78193 0.89243 -0.01048
 H304 H 0.73871 0.86074 0.03098
 H305 H 0.70013 0.87627 -0.05269
 H306 H 0.80079 0.87678 0.05275
 C307 C 0.24620 0.36651 0.47157
 C308 C 0.24169 0.37542 0.49128
 C309 C 0.22175 0.38423 0.49494
 C310 C 0.20653 0.38433 0.47900
 C311 C 0.21104 0.37521 0.45945
 C312 C 0.23084 0.36620 0.45576
 C313 C 0.25779 0.37555 0.50803
 C314 C 0.27767 0.38444 0.50429
 C315 C 0.29285 0.38483 0.52026
 C316 C 0.28836 0.37594 0.53993
 C317 C 0.26862 0.36685 0.54369
 C318 C 0.25330 0.36686 0.52784
 H319 H 0.26150 0.35949 0.46870
 H320 H 0.21823 0.39133 0.51006
 H321 H 0.28117 0.39137 0.48909
 H322 H 0.23805 0.35979 0.53077
 H323 H 0.19919 0.37512 0.44715
 H324 H 0.30018 0.37608 0.55225
 C325 C 0.25372 0.63292 -0.02778
 C326 C 0.25774 0.62399 -0.00798
 C327 C 0.27757 0.61514 -0.00382
 C328 C 0.29317 0.61504 -0.01939
 C329 C 0.28914 0.62418 -0.03905
 C330 C 0.26945 0.63322 -0.04321
 C331 C 0.24125 0.62394 0.00837
 C332 C 0.22143 0.61511 0.00417
 C333 C 0.20581 0.61493 0.01974
 C334 C 0.20984 0.62399 0.03944
 C335 C 0.22952 0.63302 0.04363
 C336 C 0.24525 0.63279 0.02820
 H337 H 0.23850 0.63998 -0.03101
 H338 H 0.28072 0.60804 0.01138
 H339 H 0.21835 0.60808 -0.01109
 H340 H 0.26045 0.63983 0.03147
 H341 H 0.30127 0.62426 -0.05106
 H342 H 0.19773 0.62406 0.05149
 C343 C 0.75483 0.13333 0.47200
 C344 C 0.75882 0.12457 0.49188
 C345 C 0.77864 0.11575 0.49614
 C346 C 0.79428 0.11550 0.48059
 C347 C 0.79026 0.12448 0.46084
 C348 C 0.77058 0.13349 0.45658
 C349 C 0.74227 0.12456 0.50818
 C350 C 0.72247 0.11574 0.50392
 C351 C 0.70685 0.11546 0.51946
 C352 C 0.71083 0.12441 0.53921
 C353 C 0.73050 0.13343 0.54348
 C354 C 0.74625 0.13331 0.52807
 H355 H 0.73962 0.14035 0.46867
 H356 H 0.78170 0.10876 0.51142
 H357 H 0.71937 0.10875 0.48866
 H358 H 0.76144 0.14033 0.53139
 H359 H 0.80238 0.12446 0.44880
 H360 H 0.69869 0.12434 0.55121
 C361 C 1.03046 0.75323 0.86854
 C362 C 1.01062 0.75742 0.87734
 C363 C 1.00659 0.77726 0.88618
 C364 C 1.02231 0.79272 0.88641
 C365 C 1.04202 0.78850 0.87739
 C366 C 1.04605 0.76880 0.86837
 C367 C 0.99409 0.74112 0.87720
 C368 C 0.99804 0.72120 0.88592
 C369 C 0.98228 0.70577 0.88596
 C370 C 0.96263 0.71010 0.87686
 C371 C 0.95869 0.72989 0.86795
 C372 C 0.97431 0.74542 0.86832
 H373 H 1.03360 0.73801 0.86147
 H374 H 0.99133 0.78050 0.89315
 H375 H 1.01325 0.71789 0.89298
 H376 H 0.97124 0.76070 0.86136
 H377 H 1.05417 0.80050 0.87735
 H378 H 0.95044 0.69815 0.87670
 C379 C 0.52985 0.25329 0.36615
 C380 C 0.51003 0.25757 0.37496
 C381 C 0.50608 0.27744 0.38376
 C382 C 0.52185 0.29282 0.38395
 C383 C 0.54152 0.28854 0.37495
 C384 C 0.54549 0.26881 0.36595
 C385 C 0.49347 0.24129 0.37497
 C386 C 0.49744 0.22140 0.38375
 C387 C 0.48164 0.20605 0.38401
 C388 C 0.46193 0.21037 0.37509
 C389 C 0.45795 0.23012 0.36612
 C390 C 0.47362 0.24561 0.36626
 H391 H 0.53294 0.23805 0.35913
 H392 H 0.49087 0.28078 0.39078
 H393 H 0.51267 0.21804 0.39071
 H394 H 0.47051 0.26087 0.35927
 H395 H 0.55368 0.30052 0.37493
 H396 H 0.44974 0.19842 0.37515
 C397 C 1.02626 0.24560 0.63276
 C398 C 1.00644 0.24132 0.62400
 C399 C 1.00249 0.22145 0.61519
 C400 C 1.01831 0.20606 0.61495
 C401 C 1.03801 0.21037 0.62393
 C402 C 1.04194 0.23010 0.63293
 C403 C 0.98986 0.25759 0.62406
 C404 C 0.99373 0.27745 0.61519
 C405 C 0.97794 0.29286 0.61509
 C406 C 0.95833 0.28858 0.62427
 C407 C 0.95446 0.26885 0.63332
 C408 C 0.97011 0.25333 0.63302
 H409 H 1.02933 0.26085 0.63979
 H410 H 0.98725 0.21816 0.60822
 H411 H 1.00891 0.28073 0.60808
 H412 H 0.96710 0.23809 0.64009
 H413 H 1.05024 0.19844 0.62394
 H414 H 0.94611 0.30053 0.62440
 C415 C 0.52579 0.74511 0.13288
 C416 C 0.50595 0.74083 0.12413
 C417 C 0.50197 0.72091 0.11545
 C418 C 0.51774 0.70549 0.11532
 C419 C 0.53743 0.70979 0.12427
 C420 C 0.54143 0.72957 0.13314
 C421 C 0.48942 0.75715 0.12404
 C422 C 0.49343 0.77699 0.11518
 C423 C 0.47771 0.79244 0.11495
 C424 C 0.45802 0.78826 0.12397
 C425 C 0.45400 0.76857 0.13302
 C426 C 0.46959 0.75298 0.13286
 H427 H 0.52891 0.76040 0.13980
 H428 H 0.48675 0.71756 0.10847
 H429 H 0.50865 0.78025 0.10817
 H430 H 0.46646 0.73777 0.13993
 H431 H 0.54960 0.69781 0.12431
 H432 H 0.44590 0.80030 0.12396
 O433 O -0.00813 0.93991 0.98394
 O434 O 0.00619 0.93717 1.01714
 O435 O -0.05925 0.98412 0.99220
 O436 O -0.06341 1.01725 1.00253
 O437 O -0.01531 0.99150 0.93996
 O438 O 0.01953 1.00461 0.93745
 O439 O -0.00282 1.04075 1.04541
 O440 O -0.03402 1.02246 1.04929
 O441 O 0.04570 0.99658 1.04117
 O442 O 0.05187 0.96483 1.01997
 O443 O 0.04207 1.04473 0.99663
 O444 O 0.02079 1.05115 0.96521
 O445 O 0.00942 1.05772 1.01627
 O446 O -0.00545 1.06098 0.97977
 O447 O 0.05912 1.01557 1.00855
 O448 O 0.06176 0.97916 0.99360
 O449 O 0.01674 1.00922 1.05807
 O450 O -0.01740 0.99002 1.05967
 O451 O 0.00456 0.95684 0.95494
 O452 O 0.03518 0.97828 0.94895
 O453 O -0.04449 1.00357 0.95691
 O454 O -0.04862 1.03547 0.97882
 O455 O -0.04221 0.95464 1.00345
 O456 O -0.02077 0.95154 1.03580
 Zr457 Zr -0.01055 0.96399 1.00652
 O458 O 0.00901 0.98199 1.02633
 Zr459 Zr -0.03517 1.00657 0.98856
 O460 O -0.01707 1.02625 1.00813
 Zr461 Zr 0.00734 0.98865 0.96397
 O462 O 0.02733 1.00800 0.98204
 Zr463 Zr -0.00682 1.00971 1.03483
 O464 O -0.02733 0.99078 1.01665
 Zr465 Zr 0.03574 0.99220 1.00986
 O466 O 0.01749 0.97202 0.99071
 Zr467 Zr 0.01076 1.03472 0.99240
 O468 O -0.00840 1.01671 0.97188
 O469 O -0.02008 0.97917 0.97906
 O470 O 0.02060 1.01954 1.01970
 C471 C -0.00136 0.94026 0.96490
 C472 C -0.05887 0.96486 0.99830
 C473 C -0.03445 0.99797 0.94031
 C474 C 0.00380 1.05717 1.03568
 C475 C 0.03608 1.00347 1.05754
 C476 C 0.05855 1.03499 1.00308
 H477 H 0.01277 0.97362 1.03890
 H478 H 0.03979 1.01183 0.97356
 H479 H -0.02912 0.97019 0.97010
 H480 H -0.02553 1.03866 1.01222
 H481 H -0.04567 1.01250 1.04644
 H482 H -0.05944 1.02433 1.01579
 H483 H 0.06480 0.98828 0.98136
 H484 H 0.04198 0.96817 0.95866
 H485 H -0.01627 0.99805 1.07300
 H486 H -0.02782 0.93783 1.03332
 H487 H 0.03212 1.04280 0.95856
 H488 H 0.01313 1.01882 0.93754
 H489 H 0.02050 0.93808 1.01106
 H490 H 0.04374 0.95858 1.03168
 H491 H -0.03978 1.04089 0.96718
 H492 H -0.01765 1.06397 0.98897
 O493 O 0.49194 0.44035 0.48315
 O494 O 0.50645 0.43736 0.51625
 O495 O 0.44071 0.48430 0.49205
 O496 O 0.43647 0.51732 0.50272
 O497 O 0.48433 0.49228 0.43968
 O498 O 0.51910 0.50558 0.43709
 O499 O 0.49722 0.54063 0.54550
 O500 O 0.46608 0.52219 0.54936
 O501 O 0.54589 0.49678 0.54057
 O502 O 0.55204 0.46519 0.51909
 O503 O 0.54181 0.54526 0.49651
 O504 O 0.52034 0.55188 0.46526
 O505 O 0.50926 0.55792 0.51645
 O506 O 0.49412 0.56145 0.48005
 O507 O 0.55904 0.51605 0.50807
 O508 O 0.56173 0.47977 0.49278
 O509 O 0.51696 0.50914 0.55774
 O510 O 0.48291 0.48973 0.55937
 O511 O 0.50441 0.45760 0.45423
 O512 O 0.53492 0.47920 0.44826
 O513 O 0.45519 0.50408 0.45689
 O514 O 0.45108 0.53581 0.47908
 O515 O 0.45791 0.45478 0.50295
 O516 O 0.47954 0.45147 0.53518
 Zr517 Zr 0.48956 0.46422 0.50595
 O518 O 0.50916 0.48212 0.52582
 Zr519 Zr 0.46468 0.50687 0.48850
 O520 O 0.48281 0.52644 0.50816
 Zr521 Zr 0.50713 0.48933 0.46353
 O522 O 0.52714 0.50859 0.48166
 Zr523 Zr 0.49326 0.50969 0.53465
 O524 O 0.47272 0.49085 0.51641
 Zr525 Zr 0.53576 0.49258 0.50929
 O526 O 0.51748 0.47249 0.49007
 Zr527 Zr 0.51052 0.53516 0.49235
 O528 O 0.49132 0.51726 0.47177
 O529 O 0.47983 0.47961 0.47869
 O530 O 0.52056 0.51976 0.51945
 C531 C 0.49860 0.44091 0.46407
 C532 C 0.44120 0.46498 0.49796
 C533 C 0.46516 0.49865 0.44019
 C534 C 0.50376 0.55716 0.53590
 C535 C 0.53633 0.50351 0.55705
 C536 C 0.55835 0.53552 0.50279
 H537 H 0.51302 0.47365 0.53830
 H538 H 0.53954 0.51255 0.47315
 H539 H 0.47077 0.47068 0.46970
 H540 H 0.47433 0.53878 0.51241
 H541 H 0.45447 0.51220 0.54649
 H542 H 0.44050 0.52430 0.51602
 H543 H 0.56468 0.48902 0.48061
 H544 H 0.54182 0.46903 0.45785
 H545 H 0.48408 0.49765 0.57276
 H546 H 0.47252 0.43777 0.53261
 H547 H 0.53165 0.54362 0.45846
 H548 H 0.51263 0.51975 0.43733
 H549 H 0.52074 0.43840 0.51012
 H550 H 0.54403 0.45883 0.53082
 H551 H 0.45983 0.54135 0.46745
 H552 H 0.48200 0.56434 0.48938
 O553 O 0.45869 -0.04610 0.49679
 O554 O 0.47820 -0.05074 0.46609
 O555 O 0.50508 -0.04222 0.54563
 O556 O 0.53324 -0.02256 0.55319
 O557 O 0.45502 0.00378 0.54229
 O558 O 0.44934 0.03422 0.52106
 O559 O 0.55980 0.01503 0.49109
 O560 O 0.56273 -0.01729 0.50677
 O561 O 0.51652 0.00836 0.44132
 O562 O 0.48089 -0.00533 0.43806
 O563 O 0.50928 0.05856 0.48401
 O564 O 0.49614 0.06218 0.51936
 O565 O 0.54268 0.04425 0.50298
 O566 O 0.52056 0.05041 0.53518
 O567 O 0.49707 0.04150 0.45501
 O568 O 0.46515 0.01935 0.44944
 O569 O 0.54586 -0.00308 0.45845
 O570 O 0.54758 -0.03672 0.47819
 O571 O 0.44148 -0.01670 0.50819
 O572 O 0.43870 0.01858 0.49408
 O573 O 0.48417 -0.00817 0.55941
 O574 O 0.51985 0.00751 0.56092
 O575 O 0.49238 -0.05933 0.51681
 O576 O 0.50909 -0.06065 0.48162
 Zr577 Zr 0.49003 -0.03589 0.49349
 O578 O 0.50893 -0.01767 0.47331
 Zr579 Zr 0.50740 -0.01063 0.53591
 O580 O 0.52747 0.00815 0.51745
 Zr581 Zr 0.46491 0.00665 0.51079
 O582 O 0.48309 0.02667 0.49163
 Zr583 Zr 0.53580 -0.00761 0.48965
 O584 O 0.51795 -0.02763 0.50945
 Zr585 Zr 0.49324 0.01014 0.46485
 O586 O 0.47318 -0.00929 0.48301
 Zr587 Zr 0.51107 0.03499 0.50722
 O588 O 0.49146 0.01722 0.52759
 O589 O 0.48027 -0.02044 0.52064
 O590 O 0.52078 0.01992 0.47976
 C591 C 0.44205 -0.03610 0.50249
 C592 C 0.49881 -0.05881 0.53594
 C593 C 0.46489 -0.00213 0.55889
 C594 C 0.55926 0.03436 0.49693
 C595 C 0.53593 0.00276 0.44187
 C596 C 0.50323 0.05805 0.46476
 H597 H 0.51280 -0.02621 0.46089
 H598 H 0.47457 0.03914 0.48791
 H599 H 0.47133 -0.02943 0.52969
 H600 H 0.54011 0.01179 0.52577
 H601 H 0.55871 -0.03025 0.51443
 H602 H 0.54612 -0.01833 0.54557
 H603 H 0.45937 0.03167 0.45700
 H604 H 0.43823 0.01093 0.48052
 H605 H 0.56193 -0.03428 0.47253
 H606 H 0.50175 -0.07423 0.48397
 H607 H 0.48216 0.06329 0.51259
 H608 H 0.45902 0.04129 0.53100
 H609 H 0.46867 -0.04053 0.45917
 H610 H 0.48846 -0.01885 0.43650
 H611 H 0.51081 0.02013 0.56230
 H612 H 0.53316 0.04306 0.54066
 O613 O -0.04533 0.50342 1.04272
 O614 O -0.05002 0.53414 1.02327
 O615 O -0.04174 0.45462 0.99625
 O616 O -0.02221 0.44711 0.96797
 O617 O 0.00445 0.45768 1.04606
 O618 O 0.03499 0.47880 1.05164
 O619 O 0.01544 0.50917 0.94142
 O620 O -0.01693 0.49359 0.93859
 O621 O 0.00902 0.55885 0.98480
 O622 O -0.00454 0.56203 1.02050
 O623 O 0.05919 0.51596 0.99174
 O624 O 0.06278 0.48056 1.00477
 O625 O 0.04471 0.49713 0.95838
 O626 O 0.05089 0.46485 0.98037
 O627 O 0.04223 0.54499 1.00407
 O628 O 0.02021 0.55055 1.03607
 O629 O -0.00257 0.54183 0.95550
 O630 O -0.03627 0.52219 0.95388
 O631 O -0.01588 0.49186 1.05976
 O632 O 0.01945 0.50579 1.06242
 O633 O -0.00762 0.44069 1.01693
 O634 O 0.00791 0.43923 0.98120
 O635 O -0.05875 0.48346 1.00910
 O636 O -0.06007 0.51869 0.99243
 Zr637 Zr -0.03525 0.50672 1.01135
 O638 O -0.01705 0.52691 0.99244
 Zr639 Zr -0.01013 0.46427 0.99378
 O640 O 0.00862 0.48273 0.97369
 Zr641 Zr 0.00737 0.48920 1.03623
 O642 O 0.02736 0.50837 1.01803
 Zr643 Zr -0.00713 0.51061 0.96550
 O644 O -0.02713 0.49081 0.98338
 Zr645 Zr 0.01084 0.53523 1.00801
 O646 O -0.00855 0.51707 1.02810
 Zr647 Zr 0.03555 0.49283 0.98999
 O648 O 0.01781 0.47246 1.00962
 O649 O -0.01981 0.47949 1.02098
 O650 O 0.02050 0.52037 0.98041
 C651 C -0.03527 0.49766 1.05930
 C652 C -0.05828 0.46433 1.00262
 C653 C -0.00151 0.44111 1.03617
 C654 C 0.03477 0.50326 0.94186
 C655 C 0.00335 0.55837 0.96542
 C656 C 0.05874 0.53520 0.99783
 H657 H -0.02559 0.53936 0.98863
 H658 H 0.03988 0.51203 1.02649
 H659 H -0.02878 0.47044 1.02994
 H660 H 0.01220 0.47444 0.96103
 H661 H -0.02991 0.48596 0.94264
 H662 H -0.01799 0.45475 0.95510
 H663 H 0.03254 0.54294 1.04178
 H664 H 0.01188 0.51940 1.06294
 H665 H -0.03387 0.52787 0.93954
 H666 H -0.07364 0.51636 0.99982
 H667 H 0.06395 0.48728 1.01876
 H668 H 0.04199 0.46884 1.04192
 H669 H -0.03975 0.54104 1.03274
 H670 H -0.01806 0.56370 1.01295
 H671 H 0.02058 0.43778 0.99017
 H672 H 0.04347 0.45942 0.96781
 O673 O 0.00722 0.43957 0.51654
 O674 O -0.00731 0.43672 0.48343
 O675 O 0.05846 0.48343 0.50774
 O676 O 0.06273 0.51648 0.49719
 O677 O 0.01482 0.49137 0.56015
 O678 O -0.01995 0.50467 0.56276
 O679 O 0.00204 0.54009 0.45447
 O680 O 0.03315 0.52158 0.45055
 O681 O -0.04667 0.49626 0.45922
 O682 O -0.05287 0.46465 0.48064
 O683 O -0.04257 0.54463 0.50341
 O684 O -0.02114 0.55107 0.53472
 O685 O -0.00998 0.55730 0.48357
 O686 O 0.00509 0.56065 0.51999
 O687 O -0.05982 0.51551 0.49176
 O688 O -0.06256 0.47918 0.50698
 O689 O -0.01773 0.50865 0.44212
 O690 O 0.01630 0.48920 0.44045
 O691 O -0.00524 0.45673 0.54550
 O692 O -0.03576 0.47836 0.55149
 O693 O 0.04398 0.50315 0.54297
 O694 O 0.04814 0.53491 0.52086
 O695 O 0.04125 0.45399 0.49675
 O696 O 0.01961 0.45082 0.46453
 Zr697 Zr 0.00961 0.46350 0.49379
 O698 O -0.00996 0.48152 0.47397
 Zr699 Zr 0.03451 0.50604 0.51136
 O700 O 0.01641 0.52572 0.49176
 Zr701 Zr -0.00796 0.48850 0.53627
 O702 O -0.02795 0.50787 0.51819
 Zr703 Zr 0.00595 0.50909 0.46522
 O704 O 0.02646 0.49014 0.48341
 Zr705 Zr -0.03657 0.49198 0.49051
 O706 O -0.01831 0.47178 0.50969
 Zr707 Zr -0.01130 0.53444 0.50759
 O708 O 0.00788 0.51642 0.52812
 O709 O 0.01934 0.47878 0.52110
 O710 O -0.02134 0.51917 0.48043
 C711 C 0.00057 0.44007 0.53562
 C712 C 0.05797 0.46414 0.50176
 C713 C 0.03399 0.49772 0.55966
 C714 C -0.00447 0.55660 0.46413
 C715 C -0.03710 0.50303 0.44278
 C716 C -0.05912 0.53495 0.49708
 H717 H -0.01383 0.47310 0.46146
 H718 H -0.04035 0.51183 0.52670
 H719 H 0.02840 0.46981 0.53008
 H720 H 0.02490 0.53806 0.48756
 H721 H 0.04475 0.51156 0.45340
 H722 H 0.05872 0.52351 0.48391
 H723 H -0.06551 0.48840 0.51917
 H724 H -0.04265 0.46823 0.54187
 H725 H 0.01514 0.49717 0.42707
 H726 H 0.02661 0.43709 0.46707
 H727 H -0.03250 0.54284 0.54146
 H728 H -0.01351 0.51885 0.56253
 H729 H -0.02158 0.43775 0.48960
 H730 H -0.04483 0.45828 0.46893
 H731 H 0.03939 0.54045 0.53251
 H732 H 0.01725 0.56354 0.51069
 O733 O 0.50800 0.94030 0.01616
 O734 O 0.49364 0.93747 -0.01701
 O735 O 0.55907 0.98447 0.00768
 O736 O 0.56320 1.01757 -0.00276
 O737 O 0.51518 0.99200 0.05994
 O738 O 0.48034 1.00516 0.06244
 O739 O 0.50255 1.04095 -0.04568
 O740 O 0.53376 1.02263 -0.04951
 O741 O 0.45406 0.99684 -0.04122
 O742 O 0.44794 0.96516 -0.01990
 O743 O 0.45770 1.04512 0.00313
 O744 O 0.47900 1.05161 0.03452
 O745 O 0.49031 1.05803 -0.01659
 O746 O 0.50522 1.06138 0.01989
 O747 O 0.44066 1.01593 -0.00867
 O748 O 0.43807 0.97956 0.00643
 O749 O 0.48300 1.00942 -0.05818
 O750 O 0.51715 0.99018 -0.05976
 O751 O 0.49532 0.95733 0.04512
 O752 O 0.46468 0.97880 0.05105
 O753 O 0.54434 1.00399 0.04292
 O754 O 0.54841 1.03585 0.02091
 O755 O 0.54205 0.95496 -0.00345
 O756 O 0.52056 0.95176 -0.03576
 Zr757 Zr 0.51037 0.96431 -0.00651
 O758 O 0.49078 0.98227 -0.02636
 Zr759 Zr 0.53497 1.00693 0.01127
 O760 O 0.51684 1.02657 -0.00835
 Zr761 Zr 0.49250 0.98911 0.03596
 O762 O 0.47248 1.00842 0.01785
 Zr763 Zr 0.50658 1.00995 -0.03498
 O764 O 0.52712 0.99107 -0.01675
 Zr765 Zr 0.46406 0.99254 -0.00990
 O766 O 0.48234 0.97240 0.00930
 Zr767 Zr 0.48902 1.03510 0.00738
 O768 O 0.50822 1.01714 0.02794
 O769 O 0.51991 0.97957 0.02088
 O770 O 0.47917 1.01984 -0.01986
 C771 C 0.50125 0.94072 0.03521
 C772 C 0.55870 0.96519 0.00165
 C773 C 0.53432 0.99844 0.05954
 C774 C 0.49591 1.05741 -0.03600
 C775 C 0.46366 1.00369 -0.05761
 C776 C 0.44122 1.03536 -0.00327
 H777 H 0.48701 0.97386 -0.03890
 H778 H 0.46003 1.01229 0.02633
 H779 H 0.52898 0.97061 0.02986
 H780 H 0.52529 1.03896 -0.01250
 H781 H 0.54542 1.01267 -0.04663
 H782 H 0.55920 1.02461 -0.01604
 H783 H 0.43502 0.98873 0.01863
 H784 H 0.45788 0.96866 0.04138
 H785 H 0.51600 0.99817 -0.07312
 H786 H 0.52763 0.93806 -0.03323
 H787 H 0.46768 1.04329 0.04121
 H788 H 0.48673 1.01936 0.06229
 H789 H 0.47933 0.93840 -0.01091
 H790 H 0.45606 0.95886 -0.03160
 H791 H 0.53958 1.04130 0.03253
 H792 H 0.51741 1.06434 0.01066
 O793 O 0.54550 0.50266 -0.04254
 O794 O 0.55015 0.53330 -0.02300
 O795 O 0.54178 0.45371 0.00380
 O796 O 0.52215 0.44608 0.03195
 O797 O 0.49570 0.45704 -0.04616
 O798 O 0.46519 0.47824 -0.05174
 O799 O 0.48448 0.50815 0.05863
 O800 O 0.51684 0.49248 0.06148
 O801 O 0.49100 0.55796 0.01543
 O802 O 0.50466 0.56127 -0.02022
 O803 O 0.44086 0.51519 0.00824
 O804 O 0.43728 0.47985 -0.00491
 O805 O 0.45525 0.49622 0.04157
 O806 O 0.44913 0.46400 0.01946
 O807 O 0.45785 0.54424 -0.00396
 O808 O 0.47995 0.54989 -0.03589
 O809 O 0.50253 0.54081 0.04470
 O810 O 0.53623 0.52110 0.04633
 O811 O 0.51609 0.49124 -0.05970
 O812 O 0.48076 0.50525 -0.06239
 O813 O 0.50771 0.43991 -0.01706
 O814 O 0.49207 0.43834 0.01863
 O815 O 0.55883 0.48257 -0.00892
 O816 O 0.56011 0.51775 0.00783
 Zr817 Zr 0.53534 0.50587 -0.01119
 O818 O 0.51710 0.52601 0.00775
 Zr819 Zr 0.51017 0.46339 0.00618
 O820 O 0.49137 0.48180 0.02629
 Zr821 Zr 0.49277 0.48853 -0.03623
 O822 O 0.47274 0.50765 -0.01801
 Zr823 Zr 0.50711 0.50962 0.03461
 O824 O 0.52714 0.48986 0.01671
 Zr825 Zr 0.48924 0.53445 -0.00786
 O826 O 0.50868 0.51634 -0.02797
 Zr827 Zr 0.46449 0.49201 0.00996
 O828 O 0.48226 0.47169 -0.00970
 O829 O 0.51992 0.47870 -0.02094
 O830 O 0.47952 0.51949 0.01967
 C831 C 0.53548 0.49699 -0.05916
 C832 C 0.55835 0.46343 -0.00249
 C833 C 0.50164 0.44043 -0.03631
 C834 C 0.46515 0.50229 0.05812
 C835 C 0.49663 0.55739 0.03482
 C836 C 0.44132 0.53445 0.00222
 H837 H 0.52563 0.53844 0.01162
 H838 H 0.46024 0.51136 -0.02649
 H839 H 0.52891 0.46968 -0.02991
 H840 H 0.48776 0.47347 0.03892
 H841 H 0.52983 0.48484 0.05745
 H842 H 0.51796 0.45370 0.04484
 H843 H 0.46762 0.54232 -0.04165
 H844 H 0.48835 0.51884 -0.06285
 H845 H 0.53380 0.52673 0.06068
 H846 H 0.57370 0.51541 0.00047
 H847 H 0.43615 0.48661 -0.01888
 H848 H 0.45815 0.46826 -0.04207
 H849 H 0.53990 0.54026 -0.03246
 H850 H 0.51817 0.56288 -0.01265
 H851 H 0.47944 0.43694 0.00961
 H852 H 0.45650 0.45854 0.03204
 O853 O 0.04169 -0.04532 0.50349
 O854 O 0.02227 -0.04983 0.53425
 O855 O -0.00488 -0.04166 0.45476
 O856 O -0.03305 -0.02201 0.44716
 O857 O 0.04517 0.00433 0.45772
 O858 O 0.05084 0.03489 0.47877
 O859 O -0.05950 0.01583 0.50917
 O860 O -0.06243 -0.01654 0.49366
 O861 O -0.01606 0.00932 0.55886
 O862 O 0.01962 -0.00431 0.56205
 O863 O -0.00902 0.05938 0.51589
 O864 O 0.00402 0.06286 0.48050
 O865 O -0.04245 0.04499 0.49706
 O866 O -0.02042 0.05101 0.46478
 O867 O 0.00328 0.04245 0.54495
 O868 O 0.03525 0.02035 0.55054
 O869 O -0.04543 -0.00219 0.54187
 O870 O -0.04717 -0.03588 0.52226
 O871 O 0.05883 -0.01596 0.49190
 O872 O 0.06159 0.01938 0.50579
 O873 O 0.01599 -0.00769 0.44075
 O874 O -0.01972 0.00802 0.43925
 O875 O 0.00795 -0.05865 0.48362
 O876 O -0.00865 -0.05981 0.51887
 Zr877 Zr 0.01034 -0.03511 0.50681
 O878 O -0.00852 -0.01680 0.52696
 Zr879 Zr -0.00718 -0.01003 0.46432
 O880 O -0.02723 0.00883 0.48275
 Zr881 Zr 0.03535 0.00737 0.48923
 O882 O 0.01720 0.02746 0.50835
 Zr883 Zr -0.03546 -0.00681 0.51065
 O884 O -0.01763 -0.02691 0.49089
 Zr885 Zr 0.00714 0.01104 0.53524
 O886 O 0.02719 -0.00846 0.51712
 Zr887 Zr -0.01084 0.03571 0.49280
 O888 O 0.00874 0.01787 0.47246
 O889 O 0.02000 -0.01977 0.47956
 O890 O -0.02046 0.02077 0.52037
 C891 C 0.05830 -0.03534 0.49771
 C892 C 0.00143 -0.05821 0.46451
 C893 C 0.03526 -0.00165 0.44117
 C894 C -0.05901 0.03513 0.50321
 C895 C -0.03546 0.00369 0.55840
 C896 C -0.00293 0.05895 0.53513
 H897 H -0.01235 -0.02529 0.53943
 H898 H 0.02571 0.03995 0.51199
 H899 H 0.02893 -0.02880 0.47053
 H900 H -0.03989 0.01244 0.47445
 H901 H -0.05842 -0.02952 0.48603
 H902 H -0.04592 -0.01776 0.45480
 H903 H 0.04100 0.03263 0.54289
 H904 H 0.06210 0.01182 0.51941
 H905 H -0.06150 -0.03342 0.52795
 H906 H -0.00129 -0.07340 0.51657
 H907 H 0.01803 0.06397 0.48720
 H908 H 0.04113 0.04190 0.46879
 H909 H 0.03181 -0.03960 0.54110
 H910 H 0.01208 -0.01783 0.56371
 H911 H -0.01068 0.02062 0.43777
 H912 H -0.03301 0.04363 0.45936
 O913 O 0.79358 0.24583 0.20415
 O914 O 0.77385 0.21527 0.19952
 O915 O 0.74755 0.29501 0.20833
 O916 O 0.71952 0.30274 0.22810
 O917 O 0.79772 0.29117 0.25418
 O918 O 0.80337 0.26977 0.28449
 O919 O 0.69261 0.24074 0.26561
 O920 O 0.68971 0.25654 0.23334
 O921 O 0.73549 0.19065 0.25872
 O922 O 0.77104 0.18712 0.24488
 O923 O 0.74320 0.23318 0.30895
 O924 O 0.75660 0.26842 0.31261
 O925 O 0.70989 0.25242 0.29480
 O926 O 0.73226 0.28446 0.30095
 O927 O 0.75517 0.20412 0.29181
 O928 O 0.78697 0.19835 0.26950
 O929 O 0.70626 0.20806 0.24742
 O930 O 0.70460 0.22786 0.21381
 O931 O 0.81096 0.25704 0.23350
 O932 O 0.81374 0.24276 0.26872
 O933 O 0.76865 0.30853 0.24237
 O934 O 0.73302 0.31029 0.25813
 O935 O 0.75998 0.26612 0.19110
 O936 O 0.74304 0.23104 0.18976
 Zr937 Zr 0.76225 0.24273 0.21447
 O938 O 0.74326 0.22264 0.23272
 Zr939 Zr 0.74525 0.28522 0.23989
 O940 O 0.72510 0.26688 0.25870
 Zr941 Zr 0.78762 0.25973 0.25696
 O942 O 0.76935 0.24066 0.27699
 Zr943 Zr 0.71654 0.23918 0.24289
 O944 O 0.73447 0.25889 0.22286
 Zr945 Zr 0.75896 0.21400 0.26045
 O946 O 0.77910 0.23204 0.24099
 Zr947 Zr 0.74151 0.25645 0.28544
 O948 O 0.76122 0.27670 0.26766
 O949 O 0.77225 0.26977 0.22995
 O950 O 0.73155 0.22911 0.27035
 C951 C 0.81029 0.25139 0.21409
 C952 C 0.75368 0.28531 0.19169
 C953 C 0.78793 0.30787 0.24837
 C954 C 0.69324 0.24651 0.28496
 C955 C 0.71606 0.19139 0.25321
 C956 C 0.74912 0.21389 0.30839
 H957 H 0.73926 0.21027 0.22416
 H958 H 0.77788 0.23685 0.28943
 H959 H 0.78122 0.27879 0.22096
 H960 H 0.71253 0.27528 0.26239
 H961 H 0.69374 0.26418 0.22037
 H962 H 0.70659 0.29519 0.23231
 H963 H 0.79286 0.20584 0.28181
 H964 H 0.81411 0.22923 0.26101
 H965 H 0.69021 0.22232 0.21629
 H966 H 0.75035 0.23337 0.17616
 H967 H 0.77053 0.26154 0.31366
 H968 H 0.79378 0.27975 0.29165
 H969 H 0.78335 0.20824 0.20969
 H970 H 0.76344 0.18567 0.23138
 H971 H 0.74209 0.31156 0.27073
 H972 H 0.71966 0.29004 0.29368
 O973 O 0.75691 0.70473 0.70874
 O974 O 0.78756 0.70009 0.72847
 O975 O 0.70778 0.70895 0.75472
 O976 O 0.70010 0.72869 0.78279
 O977 O 0.71161 0.75473 0.70461
 O978 O 0.73296 0.78513 0.69904
 O979 O 0.76207 0.76616 0.80972
 O980 O 0.74631 0.73390 0.81258
 O981 O 0.81222 0.75914 0.76684
 O982 O 0.81570 0.74539 0.73131
 O983 O 0.76965 0.80952 0.75911
 O984 O 0.73445 0.81326 0.74578
 O985 O 0.75037 0.79536 0.79243
 O986 O 0.71833 0.80154 0.77001
 O987 O 0.79872 0.79233 0.74717
 O988 O 0.80448 0.77004 0.71541
 O989 O 0.79482 0.74787 0.79605
 O990 O 0.77496 0.71432 0.79771
 O991 O 0.74571 0.73412 0.69139
 O992 O 0.76001 0.76934 0.68863
 O993 O 0.69425 0.74293 0.73366
 O994 O 0.69250 0.75877 0.76925
 O995 O 0.73666 0.69169 0.74229
 O996 O 0.77176 0.69028 0.75925
 Zr997 Zr 0.76008 0.71503 0.74006
 O998 O 0.78018 0.73325 0.75907
 Zr999 Zr 0.71758 0.74050 0.75706
 O1000 O 0.73595 0.75928 0.77721
 Zr1001 Zr 0.74305 0.75757 0.71473
 O1002 O 0.76215 0.77756 0.73300
 Zr1003 Zr 0.76366 0.74344 0.78578
 O1004 O 0.74393 0.72344 0.76783
 Zr1005 Zr 0.78883 0.76098 0.74339
 O1006 O 0.77077 0.74155 0.72324
 Zr1007 Zr 0.74637 0.78602 0.76083
 O1008 O 0.72609 0.76828 0.74111
 O1009 O 0.73303 0.73056 0.73009
 O1010 O 0.77375 0.77090 0.77079
 C1011 C 0.75130 0.71469 0.69205
 C1012 C 0.71746 0.69231 0.74855
 C1013 C 0.69491 0.74888 0.71437
 C1014 C 0.75625 0.78550 0.80909
 C1015 C 0.81151 0.75359 0.78625
 C1016 C 0.78895 0.80894 0.75318
 H1017 H 0.79255 0.72467 0.76306
 H1018 H 0.76596 0.79000 0.72448
 H1019 H 0.72401 0.72158 0.72112
 H1020 H 0.72754 0.76298 0.78976
 H1021 H 0.73863 0.72096 0.80854
 H1022 H 0.70760 0.73300 0.79571
 H1023 H 0.79696 0.78233 0.70951
 H1024 H 0.77354 0.76161 0.68826
 H1025 H 0.78052 0.71678 0.81209
 H1026 H 0.76944 0.67669 0.75191
 H1027 H 0.74119 0.81420 0.73179
 H1028 H 0.72290 0.79222 0.70859
 H1029 H 0.79452 0.71021 0.71890
 H1030 H 0.81711 0.73184 0.73884
 H1031 H 0.69120 0.77135 0.76014
 H1032 H 0.71275 0.79428 0.78260
 O1033 O 0.29371 0.20888 0.74614
 O1034 O 0.29844 0.22861 0.71558
 O1035 O 0.28945 0.25485 0.79528
 O1036 O 0.26968 0.28295 0.80291
 O1037 O 0.24368 0.20477 0.79137
 O1038 O 0.21326 0.19926 0.77001
 O1039 O 0.23232 0.30990 0.74082
 O1040 O 0.26455 0.31276 0.75664
 O1041 O 0.23935 0.26699 0.69078
 O1042 O 0.25313 0.23141 0.68737
 O1043 O 0.18891 0.25935 0.73322
 O1044 O 0.18511 0.24607 0.76839
 O1045 O 0.20308 0.29268 0.75249
 O1046 O 0.19686 0.27028 0.78453
 O1047 O 0.20615 0.24738 0.70422
 O1048 O 0.22843 0.21558 0.69852
 O1049 O 0.25065 0.29620 0.70815
 O1050 O 0.28419 0.29782 0.72810
 O1051 O 0.26429 0.19155 0.75728
 O1052 O 0.22905 0.18883 0.74300
 O1053 O 0.25545 0.23381 0.80874
 O1054 O 0.23958 0.26945 0.81042
 O1055 O 0.30674 0.24238 0.76645
 O1056 O 0.30820 0.25939 0.73138
 Zr1057 Zr 0.28342 0.24021 0.74299
 O1058 O 0.26523 0.25921 0.72284
 Zr1059 Zr 0.25790 0.25723 0.78541
 O1060 O 0.23915 0.27740 0.76699
 Zr1061 Zr 0.24084 0.21492 0.75994
 O1062 O 0.22087 0.23320 0.74081
 Zr1063 Zr 0.25503 0.28594 0.73931
 O1064 O 0.27500 0.26799 0.75911
 Zr1065 Zr 0.23750 0.24356 0.71417
 O1066 O 0.25690 0.22340 0.73228
 Zr1067 Zr 0.21239 0.26106 0.75654
 O1068 O 0.23011 0.24132 0.77686
 O1069 O 0.26786 0.23024 0.77000
 O1070 O 0.22756 0.27098 0.72920
 C1071 C 0.28373 0.19220 0.75170
 C1072 C 0.30610 0.24865 0.78563
 C1073 C 0.24952 0.21452 0.80807
 C1074 C 0.21296 0.30931 0.74659
 C1075 C 0.24492 0.28639 0.69147
 C1076 C 0.18952 0.25342 0.71394
 H1077 H 0.27383 0.26318 0.71049
 H1078 H 0.20843 0.22470 0.73698
 H1079 H 0.27683 0.22126 0.77902
 H1080 H 0.23544 0.28997 0.77538
 H1081 H 0.27747 0.30871 0.76437
 H1082 H 0.26544 0.29587 0.79536
 H1083 H 0.21610 0.20971 0.70601
 H1084 H 0.23678 0.18845 0.72948
 H1085 H 0.28174 0.31219 0.72250
 H1086 H 0.32179 0.25204 0.73374
 H1087 H 0.18422 0.23204 0.76173
 H1088 H 0.20617 0.20882 0.78007
 H1089 H 0.28830 0.21910 0.70856
 H1090 H 0.26665 0.23899 0.68592
 H1091 H 0.22701 0.26034 0.81173
 H1092 H 0.20411 0.28287 0.79010
 O1093 O 0.20619 0.74664 0.29542
 O1094 O 0.22587 0.71605 0.30006
 O1095 O 0.25237 0.79568 0.29114
 O1096 O 0.28031 0.80338 0.27127
 O1097 O 0.20203 0.79200 0.24544
 O1098 O 0.19635 0.77067 0.21508
 O1099 O 0.30706 0.74121 0.23382
 O1100 O 0.31005 0.75702 0.26606
 O1101 O 0.26409 0.69128 0.24086
 O1102 O 0.22851 0.68792 0.25474
 O1103 O 0.25642 0.73382 0.19058
 O1104 O 0.24307 0.76907 0.18687
 O1105 O 0.28976 0.75297 0.20465
 O1106 O 0.26741 0.78510 0.19853
 O1107 O 0.24445 0.70480 0.20778
 O1108 O 0.21264 0.69914 0.23007
 O1109 O 0.29337 0.70859 0.25209
 O1110 O 0.29513 0.72843 0.28567
 O1111 O 0.18878 0.75787 0.26607
 O1112 O 0.18593 0.74368 0.23085
 O1113 O 0.23115 0.80928 0.25718
 O1114 O 0.26676 0.81091 0.24127
 O1115 O 0.23987 0.76685 0.30841
 O1116 O 0.25673 0.73171 0.30976
 Zr1117 Zr 0.23750 0.74346 0.28507
 O1118 O 0.25643 0.72331 0.26682
 Zr1119 Zr 0.25453 0.78590 0.25958
 O1120 O 0.27463 0.76748 0.24077
 Zr1121 Zr 0.21210 0.76054 0.24260
 O1122 O 0.23030 0.74141 0.22256
 Zr1123 Zr 0.28316 0.73975 0.25658
 O1124 O 0.26529 0.75953 0.27661
 Zr1125 Zr 0.24067 0.71471 0.23912
 O1126 O 0.22059 0.73283 0.25858
 Zr1127 Zr 0.25816 0.75710 0.21405
 O1128 O 0.23851 0.77743 0.23184
 O1129 O 0.22753 0.77053 0.26958
 O1130 O 0.26809 0.72973 0.22916
 C1131 C 0.18947 0.75221 0.28548
 C1132 C 0.24624 0.78600 0.30779
 C1133 C 0.21184 0.80867 0.25125
 C1134 C 0.30641 0.74700 0.21447
 C1135 C 0.28352 0.69194 0.24635
 C1136 C 0.25050 0.71453 0.19118
 H1137 H 0.26041 0.71093 0.27538
 H1138 H 0.22175 0.73761 0.21014
 H1139 H 0.21859 0.77957 0.27859
 H1140 H 0.28720 0.77584 0.23704
 H1141 H 0.30605 0.76470 0.27902
 H1142 H 0.29321 0.79575 0.26711
 H1143 H 0.20676 0.70664 0.21775
 H1144 H 0.18558 0.73012 0.23852
 H1145 H 0.30950 0.72283 0.28317
 H1146 H 0.24944 0.73408 0.32337
 H1147 H 0.22909 0.76229 0.18590
 H1148 H 0.20595 0.78066 0.20794
 H1149 H 0.21636 0.70904 0.28992
 H1150 H 0.23617 0.68639 0.26821
 H1151 H 0.25762 0.81225 0.22872
 H1152 H 0.28005 0.79062 0.20575
 O1153 O 0.24813 0.79587 0.70905
 O1154 O 0.21756 0.80064 0.72874
 O1155 O 0.29726 0.79153 0.75513
 O1156 O 0.30489 0.77171 0.78317
 O1157 O 0.29338 0.74573 0.70500
 O1158 O 0.27194 0.71543 0.69940
 O1159 O 0.24267 0.73444 0.80999
 O1160 O 0.25860 0.76665 0.81289
 O1161 O 0.19269 0.74155 0.76708
 O1162 O 0.18929 0.75544 0.73151
 O1163 O 0.23508 0.69113 0.75942
 O1164 O 0.27038 0.68735 0.74609
 O1165 O 0.25429 0.70520 0.79274
 O1166 O 0.28637 0.69890 0.77048
 O1167 O 0.20609 0.70843 0.74744
 O1168 O 0.20043 0.73073 0.71566
 O1169 O 0.21007 0.75279 0.79631
 O1170 O 0.23001 0.78632 0.79798
 O1171 O 0.25928 0.76645 0.69172
 O1172 O 0.24498 0.73127 0.68895
 O1173 O 0.31074 0.75747 0.73406
 O1174 O 0.31239 0.74164 0.76966
 O1175 O 0.26844 0.80886 0.74264
 O1176 O 0.23333 0.81036 0.75954
 Zr1177 Zr 0.24497 0.78558 0.74037
 O1178 O 0.22478 0.76743 0.75934
 Zr1179 Zr 0.28738 0.76000 0.75742
 O1180 O 0.26892 0.74126 0.77755
 Zr1181 Zr 0.26191 0.74301 0.71507
 O1182 O 0.24272 0.72307 0.73330
 Zr1183 Zr 0.24124 0.75718 0.78607
 O1184 O 0.26106 0.77713 0.76815
 Zr1185 Zr 0.21608 0.73974 0.74365
 O1186 O 0.23424 0.75910 0.72353
 Zr1187 Zr 0.25844 0.71455 0.76116
 O1188 O 0.27881 0.73225 0.74148
 O1189 O 0.27199 0.76999 0.73042
 O1190 O 0.23111 0.72976 0.77106
 C1191 C 0.25367 0.78588 0.69236
 C1192 C 0.28761 0.80820 0.74897
 C1193 C 0.31008 0.75151 0.71478
 C1194 C 0.24838 0.71507 0.80937
 C1195 C 0.19339 0.74706 0.78649
 C1196 C 0.21579 0.69179 0.75349
 H1197 H 0.21243 0.77604 0.76331
 H1198 H 0.23888 0.71065 0.72478
 H1199 H 0.28104 0.77895 0.72146
 H1200 H 0.27730 0.73752 0.79012
 H1201 H 0.26630 0.77958 0.80887
 H1202 H 0.29732 0.76748 0.79608
 H1203 H 0.20790 0.71839 0.70978
 H1204 H 0.23144 0.73899 0.68857
 H1205 H 0.22442 0.78387 0.81235
 H1206 H 0.23571 0.82395 0.75221
 H1207 H 0.26351 0.68632 0.73216
 H1208 H 0.28194 0.70828 0.70899
 H1209 H 0.21051 0.79050 0.71925
 H1210 H 0.18781 0.76891 0.73916
 H1211 H 0.31363 0.72904 0.76060
 H1212 H 0.29197 0.70619 0.78305
 O1213 O 0.25564 0.20426 0.20802
 O1214 O 0.28628 0.19969 0.22774
 O1215 O 0.20648 0.20829 0.25398
 O1216 O 0.19868 0.22801 0.28203
 O1217 O 0.21021 0.25416 0.20390
 O1218 O 0.23147 0.28459 0.19836
 O1219 O 0.26061 0.26558 0.30905
 O1220 O 0.24493 0.23328 0.31188
 O1221 O 0.31076 0.25880 0.26617
 O1222 O 0.31432 0.24513 0.23065
 O1223 O 0.26802 0.30904 0.25854
 O1224 O 0.23285 0.31271 0.24522
 O1225 O 0.24880 0.29477 0.29182
 O1226 O 0.21670 0.30084 0.26937
 O1227 O 0.29715 0.29197 0.24657
 O1228 O 0.30297 0.26973 0.21475
 O1229 O 0.29340 0.24742 0.29537
 O1230 O 0.27363 0.21380 0.29698
 O1231 O 0.24436 0.23364 0.19069
 O1232 O 0.25859 0.26891 0.18799
 O1233 O 0.19286 0.24227 0.23291
 O1234 O 0.19106 0.25806 0.26855
 O1235 O 0.23542 0.19113 0.24155
 O1236 O 0.27052 0.18981 0.25851
 Zr1237 Zr 0.25877 0.21455 0.23934
 O1238 O 0.27881 0.23280 0.25836
 Zr1239 Zr 0.21618 0.23987 0.25634
 O1240 O 0.23449 0.25866 0.27654
 Zr1241 Zr 0.24163 0.25706 0.21405
 O1242 O 0.26064 0.27710 0.23236
 Zr1243 Zr 0.26225 0.24290 0.28509
 O1244 O 0.24258 0.22287 0.26711
 Zr1245 Zr 0.28737 0.26059 0.24273
 O1246 O 0.26938 0.24112 0.22255
 Zr1247 Zr 0.24482 0.28547 0.26019
 O1248 O 0.22462 0.26769 0.24043
 O1249 O 0.23168 0.23001 0.22937
 O1250 O 0.27224 0.27042 0.27013
 C1251 C 0.25001 0.21422 0.19133
 C1252 C 0.21622 0.19169 0.24781
 C1253 C 0.19352 0.24824 0.21363
 C1254 C 0.25473 0.28491 0.30845
 C1255 C 0.31007 0.25322 0.28557
 C1256 C 0.28732 0.30853 0.25262
 H1257 H 0.29121 0.22426 0.26234
 H1258 H 0.26441 0.28956 0.22386
 H1259 H 0.22268 0.22101 0.22039
 H1260 H 0.22606 0.26232 0.28909
 H1261 H 0.23729 0.22032 0.30782
 H1262 H 0.20623 0.23220 0.29496
 H1263 H 0.29545 0.28205 0.20890
 H1264 H 0.27213 0.26119 0.18759
 H1265 H 0.27919 0.21626 0.31136
 H1266 H 0.26824 0.17623 0.25116
 H1267 H 0.23953 0.31366 0.23120
 H1268 H 0.22140 0.29167 0.20792
 H1269 H 0.29323 0.20985 0.21819
 H1270 H 0.31574 0.23154 0.23812
 H1271 H 0.18969 0.27063 0.25944
 H1272 H 0.21119 0.29360 0.28200
 O1273 O 0.79340 0.70904 0.24598
 O1274 O 0.79811 0.72875 0.21540
 O1275 O 0.78907 0.75503 0.29508
 O1276 O 0.76926 0.78311 0.30269
 O1277 O 0.74338 0.70489 0.29119
 O1278 O 0.71295 0.69934 0.26982
 O1279 O 0.73189 0.80998 0.24059
 O1280 O 0.76411 0.81288 0.25643
 O1281 O 0.73903 0.76707 0.19055
 O1282 O 0.75283 0.73149 0.18718
 O1283 O 0.68855 0.75936 0.23299
 O1284 O 0.68475 0.74611 0.26815
 O1285 O 0.70267 0.79273 0.25225
 O1286 O 0.69646 0.77032 0.28430
 O1287 O 0.70581 0.74741 0.20399
 O1288 O 0.72813 0.71566 0.19830
 O1289 O 0.75028 0.79630 0.20793
 O1290 O 0.78379 0.79797 0.22790
 O1291 O 0.76400 0.69168 0.25712
 O1292 O 0.72877 0.68890 0.24283
 O1293 O 0.75510 0.73396 0.30855
 O1294 O 0.73917 0.76957 0.31021
 O1295 O 0.80639 0.74257 0.26626
 O1296 O 0.80785 0.75954 0.23119
 Zr1297 Zr 0.78308 0.74035 0.24280
 O1298 O 0.76488 0.75933 0.22264
 Zr1299 Zr 0.75752 0.75736 0.28521
 O1300 O 0.73875 0.77750 0.26677
 Zr1301 Zr 0.74052 0.71502 0.25975
 O1302 O 0.72055 0.73327 0.24059
 Zr1303 Zr 0.75464 0.78605 0.23910
 O1304 O 0.77462 0.76812 0.25890
 Zr1305 Zr 0.73717 0.74365 0.21395
 O1306 O 0.75658 0.72351 0.23209
 Zr1307 Zr 0.71202 0.76112 0.25631
 O1308 O 0.72975 0.74141 0.27665
 O1309 O 0.76751 0.73038 0.26981
 O1310 O 0.72719 0.77106 0.22897
 C1311 C 0.78345 0.69234 0.25155
 C1312 C 0.80573 0.74884 0.28544
 C1313 C 0.74921 0.71466 0.30788
 C1314 C 0.71254 0.80937 0.24636
 C1315 C 0.74460 0.78648 0.19125
 C1316 C 0.68917 0.75341 0.21371
 H1317 H 0.77349 0.76330 0.21030
 H1318 H 0.70811 0.72475 0.23677
 H1319 H 0.77650 0.72141 0.27884
 H1320 H 0.73502 0.79007 0.27515
 H1321 H 0.77703 0.80885 0.26417
 H1322 H 0.76497 0.79603 0.29515
 H1323 H 0.71584 0.70975 0.20581
 H1324 H 0.73650 0.68853 0.22930
 H1325 H 0.78134 0.81234 0.22231
 H1326 H 0.82144 0.75220 0.23356
 H1327 H 0.68390 0.73206 0.26153
 H1328 H 0.70587 0.70889 0.27989
 H1329 H 0.78799 0.71920 0.20840
 H1330 H 0.76635 0.73908 0.18573
 H1331 H 0.72661 0.76044 0.31151
 H1332 H 0.70369 0.78293 0.28986
 O1333 O 0.70681 0.24547 0.79589
 O1334 O 0.72657 0.21491 0.80056
 O1335 O 0.75279 0.29465 0.79185
 O1336 O 0.78088 0.30238 0.77216
 O1337 O 0.70274 0.29089 0.74589
 O1338 O 0.69719 0.26952 0.71555
 O1339 O 0.80792 0.24042 0.73464
 O1340 O 0.81074 0.25620 0.76692
 O1341 O 0.76509 0.19034 0.74147
 O1342 O 0.72948 0.18684 0.75522
 O1343 O 0.75742 0.23293 0.69121
 O1344 O 0.74397 0.26820 0.68756
 O1345 O 0.79067 0.25215 0.70543
 O1346 O 0.76831 0.28419 0.69923
 O1347 O 0.74547 0.20385 0.70832
 O1348 O 0.71364 0.19805 0.73052
 O1349 O 0.79427 0.20773 0.75283
 O1350 O 0.79585 0.22752 0.78643
 O1351 O 0.68948 0.25673 0.76651
 O1352 O 0.68678 0.24252 0.73129
 O1353 O 0.73177 0.30823 0.75777
 O1354 O 0.76742 0.30999 0.74210
 O1355 O 0.74035 0.26575 0.80904
 O1356 O 0.75734 0.23067 0.81040
 Zr1357 Zr 0.73816 0.24238 0.78565
 O1358 O 0.75722 0.22231 0.76744
 Zr1359 Zr 0.75518 0.28490 0.76029
 O1360 O 0.77538 0.26657 0.74151
 Zr1361 Zr 0.71287 0.25945 0.74311
 O1362 O 0.73120 0.24039 0.72312
 Zr1363 Zr 0.78395 0.23885 0.75732
 O1364 O 0.76595 0.25854 0.77732
 Zr1365 Zr 0.74160 0.21370 0.73968
 O1366 O 0.72139 0.23173 0.75909
 Zr1367 Zr 0.75904 0.25618 0.71473
 O1368 O 0.73928 0.27642 0.73248
 O1369 O 0.72818 0.26945 0.77016
 O1370 O 0.76900 0.22881 0.72983
 C1371 C 0.69011 0.25105 0.78592
 C1372 C 0.74663 0.28493 0.80847
 C1373 C 0.71250 0.30758 0.75173
 C1374 C 0.80731 0.24622 0.71529
 C1375 C 0.78450 0.19106 0.74704
 C1376 C 0.75154 0.21364 0.69175
 H1377 H 0.76121 0.20994 0.77600
 H1378 H 0.72270 0.23659 0.71066
 H1379 H 0.71917 0.27846 0.77913
 H1380 H 0.78795 0.27498 0.73784
 H1381 H 0.80668 0.26383 0.77988
 H1382 H 0.79382 0.29486 0.76792
 H1383 H 0.70775 0.20558 0.71823
 H1384 H 0.68644 0.22896 0.73896
 H1385 H 0.81025 0.22198 0.78398
 H1386 H 0.74998 0.23298 0.82398
 H1387 H 0.73008 0.26128 0.68645
 H1388 H 0.70678 0.27953 0.70843
 H1389 H 0.71709 0.20790 0.79037
 H1390 H 0.73708 0.18534 0.76873
 H1391 H 0.75839 0.31127 0.72946
 H1392 H 0.78087 0.28977 0.70656
 C1393 C 0.08738 1.01265 1.14911
 C1394 C 0.09661 1.02649 1.13159
 C1395 C 0.08655 1.02436 1.11276
 C1396 C 0.06824 1.00861 1.11332
 C1397 C 0.05388 1.01631 1.13115
 C1398 C 0.06393 1.01843 1.14995
 C1399 C 0.08800 0.99015 1.14034
 C1400 C 0.07793 0.98802 1.12150
 C1401 C 0.09805 1.01512 1.16943
 C1402 C 0.10655 1.01759 1.18621
 C1403 C 0.05723 1.00646 1.09315
 C1404 C 0.04779 1.00495 1.07677
 H1405 H 0.10990 1.03701 1.13376
 H1406 H 0.09121 1.03306 1.09882
 H1407 H 0.03725 1.01979 1.12917
 H1408 H 0.05591 1.02372 1.16408
 H1409 H 0.09567 0.97706 1.14821
 H1410 H 0.07698 0.97311 1.11323
 C1411 C 0.58813 0.51313 0.64827
 C1412 C 0.57284 0.49444 0.64773
 C1413 C 0.56269 0.49221 0.62897
 C1414 C 0.56882 0.50888 0.61259
 C1415 C 0.59288 0.50736 0.61081
 C1416 C 0.60305 0.50960 0.62958
 C1417 C 0.57479 0.53232 0.64211
 C1418 C 0.56465 0.53009 0.62337
 C1419 C 0.59889 0.51570 0.66852
 C1420 C 0.60742 0.51817 0.68528
 C1421 C 0.55771 0.50660 0.59250
 C1422 C 0.54816 0.50503 0.57619
 H1423 H 0.57023 0.48388 0.66091
 H1424 H 0.55138 0.47973 0.62608
 H1425 H 0.60120 0.50476 0.59611
 H1426 H 0.62007 0.50891 0.63097
 H1427 H 0.57344 0.54644 0.65163
 H1428 H 0.55462 0.54230 0.61684
 C1429 C 0.41410 -0.01002 0.65082
 C1430 C 0.43081 -0.02699 0.64674
 C1431 C 0.44081 -0.02485 0.62792
 C1432 C 0.43315 -0.00593 0.61499
 C1433 C 0.43582 0.01314 0.62958
 C1434 C 0.42580 0.01099 0.64843
 C1435 C 0.39924 -0.01112 0.63179
 C1436 C 0.40926 -0.00898 0.61294
 C1437 C 0.40346 -0.01258 0.67113
 C1438 C 0.39497 -0.01523 0.68788
 C1439 C 0.44409 -0.00388 0.59477
 C1440 C 0.45341 -0.00277 0.57830
 H1441 H 0.43446 -0.03961 0.65768
 H1442 H 0.45303 -0.03563 0.62275
 H1443 H 0.44476 0.02710 0.62545
 H1444 H 0.42615 0.02311 0.66046
 H1445 H 0.38234 -0.01337 0.63302
 H1446 H 0.40095 -0.00939 0.59802
 C1447 C -0.08596 0.48999 1.15129
 C1448 C -0.06770 0.47444 1.14829
 C1449 C -0.05768 0.47650 1.12947
 C1450 C -0.06688 0.49390 1.11546
 C1451 C -0.06618 0.51389 1.12901
 C1452 C -0.07622 0.51183 1.14787
 C1453 C -0.10039 0.48649 1.13223
 C1454 C -0.09035 0.48855 1.11338
 C1455 C -0.09663 0.48751 1.17160
 C1456 C -0.10517 0.48490 1.18832
 C1457 C -0.05594 0.49587 1.09524
 C1458 C -0.04666 0.49696 1.07875
 H1459 H -0.06305 0.46283 1.15994
 H1460 H -0.04445 0.46664 1.12500
 H1461 H -0.05851 0.52838 1.12421
 H1462 H -0.07715 0.52456 1.15923
 H1463 H -0.11702 0.48275 1.13343
 H1464 H -0.09839 0.48657 1.09843
 C1465 C -0.08844 0.51281 0.35132
 C1466 C -0.07004 0.49714 0.35065
 C1467 C -0.06001 0.49486 0.36947
 C1468 C -0.06936 0.50847 0.38711
 C1469 C -0.09279 0.50257 0.38787
 C1470 C -0.10283 0.50485 0.36903
 C1471 C -0.07889 0.53333 0.35973
 C1472 C -0.06886 0.53105 0.37854
 C1473 C -0.09906 0.51543 0.33100
 C1474 C -0.10748 0.51800 0.31419
 C1475 C -0.05836 0.50617 0.40726
 C1476 C -0.04889 0.50457 0.42361
 H1477 H -0.06533 0.48857 0.33664
 H1478 H -0.04670 0.48434 0.37158
 H1479 H -0.10077 0.49709 0.40194
 H1480 H -0.11942 0.50132 0.36696
 H1481 H -0.07993 0.54834 0.35164
 H1482 H -0.06132 0.54412 0.38655
 C1483 C 0.41240 1.01301 -0.14917
 C1484 C 0.39864 1.01881 -0.13016
 C1485 C 0.40868 1.01664 -0.11133
 C1486 C 0.43149 1.00888 -0.11337
 C1487 C 0.44215 1.02462 -0.12826
 C1488 C 0.43212 1.02679 -0.14707
 C1489 C 0.41999 0.99049 -0.14480
 C1490 C 0.43004 0.98832 -0.12596
 C1491 C 0.40175 1.01553 -0.16948
 C1492 C 0.39328 1.01803 -0.18628
 C1493 C 0.44249 1.00669 -0.09320
 C1494 C 0.45193 1.00517 -0.07682
 H1495 H 0.38244 1.02413 -0.13139
 H1496 H 0.40110 1.02010 -0.09642
 H1497 H 0.45634 1.03332 -0.12437
 H1498 H 0.43772 1.03734 -0.15929
 H1499 H 0.41767 0.97741 -0.15554
 H1500 H 0.43633 0.97337 -0.12056
 C1501 C 0.58647 0.48966 -0.15103
 C1502 C 0.60061 0.49805 -0.13332
 C1503 C 0.59050 0.50003 -0.11450
 C1504 C 0.56726 0.49343 -0.11526
 C1505 C 0.56746 0.47084 -0.12381
 C1506 C 0.57755 0.46887 -0.14260
 C1507 C 0.56761 0.50476 -0.15173
 C1508 C 0.55750 0.50674 -0.13291
 C1509 C 0.59722 0.48727 -0.17131
 C1510 C 0.60582 0.48473 -0.18802
 C1511 C 0.55625 0.49531 -0.09506
 C1512 C 0.54692 0.49635 -0.07859
 H1513 H 0.61709 0.50209 -0.13539
 H1514 H 0.59831 0.50577 -0.10043
 H1515 H 0.56030 0.45756 -0.11579
 H1516 H 0.57903 0.45388 -0.15068
 H1517 H 0.56264 0.51318 -0.16575
 H1518 H 0.54388 0.51686 -0.13081
 C1519 C 0.08589 -0.01009 0.34918
 C1520 C 0.07621 0.01182 0.35243
 C1521 C 0.06622 0.01408 0.37129
 C1522 C 0.06689 -0.00580 0.38502
 C1523 C 0.09036 -0.01122 0.38710
 C1524 C 0.10035 -0.01348 0.36825
 C1525 C 0.06760 -0.02554 0.35237
 C1526 C 0.05763 -0.02328 0.37119
 C1527 C 0.09651 -0.01276 0.32886
 C1528 C 0.10499 -0.01549 0.31212
 C1529 C 0.05599 -0.00363 0.40525
 C1530 C 0.04670 -0.00241 0.42174
 H1531 H 0.07715 0.02445 0.34095
 H1532 H 0.05859 0.02864 0.37597
 H1533 H 0.09842 -0.01311 0.40205
 H1534 H 0.11697 -0.01730 0.36705
 H1535 H 0.06290 -0.03724 0.34084
 H1536 H 0.04438 -0.03306 0.37578
 C1537 C 0.15035 1.08601 1.01203
 C1538 C 0.15203 1.06447 1.00124
 C1539 C 0.13319 1.05445 0.99912
 C1540 C 0.11450 1.06695 1.00799
 C1541 C 0.11537 1.08835 0.99678
 C1542 C 0.13424 1.09838 0.99891
 C1543 C 0.13927 1.08164 1.03305
 C1544 C 0.12043 1.07163 1.03092
 C1545 C 0.17070 1.09666 1.01450
 C1546 C 0.18749 1.10515 1.01697
 C1547 C 0.09428 1.05599 1.00585
 C1548 C 0.07785 1.04661 1.00441
 H1549 H 0.16672 1.05768 0.99573
 H1550 H 0.13174 1.03908 0.99179
 H1551 H 0.10234 1.09503 0.98796
 H1552 H 0.13737 1.11364 0.99191
 H1553 H 0.14565 1.08605 1.04827
 H1554 H 0.11069 1.06747 1.04433
 C1555 C 0.64991 0.58688 0.51214
 C1556 C 0.64885 0.57259 0.49270
 C1557 C 0.63004 0.56250 0.49048
 C1558 C 0.61415 0.56770 0.50793
 C1559 C 0.61225 0.59179 0.50773
 C1560 C 0.63107 0.60189 0.50994
 C1561 C 0.64436 0.57255 0.53077
 C1562 C 0.62558 0.56247 0.52856
 C1563 C 0.67022 0.59759 0.51469
 C1564 C 0.68700 0.60609 0.51717
 C1565 C 0.59398 0.55667 0.50569
 C1566 C 0.57760 0.54722 0.50419
 H1567 H 0.66172 0.57059 0.48163
 H1568 H 0.62681 0.55186 0.47752
 H1569 H 0.59746 0.60018 0.50599
 H1570 H 0.63239 0.61892 0.51010
 H1571 H 0.65431 0.57050 0.54451
 H1572 H 0.61944 0.55180 0.54041
 C1573 C 0.65012 0.41219 -0.01024
 C1574 C 0.65223 0.43499 -0.00256
 C1575 C 0.63344 0.44512 -0.00043
 C1576 C 0.61437 0.43145 -0.00618
 C1577 C 0.61636 0.41175 0.00768
 C1578 C 0.63519 0.40161 0.00554
 C1579 C 0.63751 0.41366 -0.03079
 C1580 C 0.61873 0.42378 -0.02866
 C1581 C 0.67039 0.40143 -0.01281
 C1582 C 0.68711 0.39285 -0.01549
 C1583 C 0.59419 0.44250 -0.00415
 C1584 C 0.57774 0.45190 -0.00307
 H1585 H 0.66718 0.44252 0.00093
 H1586 H 0.63228 0.46132 0.00489
 H1587 H 0.60410 0.40625 0.01823
 H1588 H 0.63905 0.38743 0.01426
 H1589 H 0.64285 0.40728 -0.04571
 H1590 H 0.60798 0.42607 -0.04175
 C1591 C 0.15016 -0.08635 0.48957
 C1592 C 0.14305 -0.08402 0.51255
 C1593 C 0.12421 -0.07392 0.51472
 C1594 C 0.11438 -0.06716 0.49370
 C1595 C 0.11304 -0.08741 0.48061
 C1596 C 0.13185 -0.09750 0.47844
 C1597 C 0.15013 -0.06389 0.48069
 C1598 C 0.13133 -0.05381 0.48285
 C1599 C 0.17044 -0.09707 0.48698
 C1600 C 0.18716 -0.10564 0.48430
 C1601 C 0.09419 -0.05616 0.49578
 C1602 C 0.07772 -0.04681 0.49696
 H1603 H 0.15200 -0.08979 0.52591
 H1604 H 0.11702 -0.07104 0.52995
 H1605 H 0.09858 -0.09332 0.47368
 H1606 H 0.13351 -0.11205 0.46965
 H1607 H 0.16369 -0.05653 0.47334
 H1608 H 0.12880 -0.03782 0.47736
 C1609 C 0.35028 -0.08712 0.51084
 C1610 C 0.36812 -0.09688 0.52391
 C1611 C 0.38691 -0.08680 0.52169
 C1612 C 0.38603 -0.06793 0.50662
 C1613 C 0.36841 -0.05382 0.51524
 C1614 C 0.34963 -0.06390 0.51746
 C1615 C 0.35853 -0.08694 0.48813
 C1616 C 0.37734 -0.07684 0.48591
 C1617 C 0.33002 -0.09784 0.51348
 C1618 C 0.31330 -0.10638 0.51620
 C1619 C 0.40620 -0.05693 0.50448
 C1620 C 0.42265 -0.04758 0.50327
 H1621 H 0.36616 -0.11053 0.53400
 H1622 H 0.40106 -0.09181 0.52988
 H1623 H 0.37050 -0.03734 0.51925
 H1624 H 0.33563 -0.05605 0.52336
 H1625 H 0.35032 -0.09411 0.47497
 H1626 H 0.38527 -0.07536 0.47084
 C1627 C -0.14989 0.41302 1.01093
 C1628 C -0.14425 0.42719 1.02964
 C1629 C -0.12552 0.43734 1.02738
 C1630 C -0.11423 0.43233 1.00663
 C1631 C -0.13026 0.43766 0.98934
 C1632 C -0.14902 0.42750 0.99160
 C1633 C -0.13103 0.39809 1.00846
 C1634 C -0.11227 0.40825 1.00620
 C1635 C -0.17011 0.40222 1.01361
 C1636 C -0.18679 0.39360 1.01636
 C1637 C -0.09409 0.44341 1.00447
 C1638 C -0.07766 0.45281 1.00329
 H1639 H -0.15411 0.42909 1.04347
 H1640 H -0.11933 0.44792 1.03928
 H1641 H -0.12714 0.44844 0.97645
 H1642 H -0.16198 0.42957 0.98065
 H1643 H -0.13231 0.38105 1.00847
 H1644 H -0.09746 0.39992 1.00428
 C1645 C -0.15050 0.58676 0.48764
 C1646 C -0.14478 0.58196 0.51062
 C1647 C -0.12601 0.57177 0.51286
 C1648 C -0.11482 0.56739 0.49190
 C1649 C -0.11289 0.58896 0.48118
 C1650 C -0.13166 0.59915 0.47894
 C1651 C -0.14967 0.56541 0.47639
 C1652 C -0.13093 0.55523 0.47863
 C1653 C -0.17076 0.59758 0.48506
 C1654 C -0.18750 0.60618 0.48255
 C1655 C -0.09470 0.55625 0.49415
 C1656 C -0.07835 0.54672 0.49568
 H1657 H -0.15460 0.58620 0.52395
 H1658 H -0.11974 0.56728 0.52811
 H1659 H -0.09810 0.59565 0.47584
 H1660 H -0.13294 0.61457 0.47168
 H1661 H -0.16267 0.55885 0.46744
 H1662 H -0.12788 0.53996 0.47159
 C1663 C 0.34932 1.08629 -0.01255
 C1664 C 0.35370 1.07871 0.00998
 C1665 C 0.37258 1.06872 0.01218
 C1666 C 0.38523 1.06730 -0.00837
 C1667 C 0.38719 1.09010 -0.01612
 C1668 C 0.36831 1.10009 -0.01832
 C1669 C 0.35152 1.06657 -0.02632
 C1670 C 0.37038 1.05660 -0.02412
 C1671 C 0.32895 1.09689 -0.01509
 C1672 C 0.31212 1.10534 -0.01760
 C1673 C 0.40547 1.05637 -0.00616
 C1674 C 0.42191 1.04700 -0.00466
 H1675 H 0.34293 1.08100 0.02305
 H1676 H 0.37799 1.06246 0.02713
 H1677 H 0.40209 1.09773 -0.01957
 H1678 H 0.36703 1.11627 -0.02365
 H1679 H 0.33933 1.06093 -0.03688
 H1680 H 0.37433 1.04243 -0.03281
 C1681 C 0.01321 1.14909 1.08627
 C1682 C 0.00620 1.13125 1.10098
 C1683 C 0.00395 1.11234 1.09109
 C1684 C 0.00894 1.11316 1.06746
 C1685 C 0.03130 1.12219 1.06608
 C1686 C 0.03354 1.14107 1.07596
 C1687 C -0.00316 1.14939 1.06850
 C1688 C -0.00540 1.13049 1.05861
 C1689 C 0.01584 1.16948 1.09676
 C1690 C 0.01847 1.18631 1.10511
 C1691 C 0.00669 1.09290 1.05662
 C1692 C 0.00519 1.07646 1.04729
 H1693 H 0.00325 1.13329 1.11769
 H1694 H -0.00093 1.09818 1.09931
 H1695 H 0.04425 1.11443 1.05806
 H1696 H 0.04842 1.14947 1.07640
 H1697 H -0.01220 1.16320 1.06409
 H1698 H -0.01638 1.12813 1.04573
 C1699 C 0.51364 0.64839 0.58758
 C1700 C 0.52291 0.62963 0.59969
 C1701 C 0.52056 0.61087 0.58956
 C1702 C 0.50918 0.61272 0.56833
 C1703 C 0.52191 0.62896 0.55579
 C1704 C 0.52425 0.64770 0.56590
 C1705 C 0.49057 0.64246 0.58348
 C1706 C 0.48822 0.62369 0.57335
 C1707 C 0.51634 0.66864 0.59831
 C1708 C 0.51898 0.68539 0.60680
 C1709 C 0.50682 0.59262 0.55724
 C1710 C 0.50523 0.57631 0.54771
 H1711 H 0.53061 0.63096 0.61488
 H1712 H 0.52626 0.59613 0.59607
 H1713 H 0.52852 0.62601 0.54031
 H1714 H 0.53286 0.66079 0.55909
 H1715 H 0.47726 0.65213 0.58813
 H1716 H 0.47290 0.61728 0.56932
 C1717 C -0.01380 0.64831 0.41309
 C1718 C -0.00809 0.63013 0.39823
 C1719 C -0.00587 0.61125 0.40821
 C1720 C -0.00957 0.61244 0.43206
 C1721 C -0.03155 0.62217 0.43451
 C1722 C -0.03377 0.64101 0.42455
 C1723 C 0.00349 0.64826 0.42997
 C1724 C 0.00572 0.62940 0.43994
 C1725 C -0.01638 0.66867 0.40252
 C1726 C -0.01896 0.68549 0.39413
 C1727 C -0.00734 0.59223 0.44299
 C1728 C -0.00584 0.57583 0.45240
 H1729 H -0.00598 0.63192 0.38137
 H1730 H -0.00186 0.59686 0.39991
 H1731 H -0.04428 0.61488 0.44329
 H1732 H -0.04840 0.64987 0.42480
 H1733 H 0.01316 0.66184 0.43373
 H1734 H 0.01729 0.62682 0.45225
 C1735 C 0.48639 1.14910 -0.08705
 C1736 C 0.49138 1.13077 -0.10199
 C1737 C 0.49363 1.11191 -0.09199
 C1738 C 0.49069 1.11326 -0.06805
 C1739 C 0.46893 1.12332 -0.06497
 C1740 C 0.46668 1.14215 -0.07495
 C1741 C 0.50419 1.14888 -0.07071
 C1742 C 0.50645 1.13003 -0.06072
 C1743 C 0.48377 1.16945 -0.09765
 C1744 C 0.48117 1.18625 -0.10607
 C1745 C 0.49296 1.09305 -0.05710
 C1746 C 0.49449 1.07665 -0.04770
 H1747 H 0.49299 1.13246 -0.11891
 H1748 H 0.49718 1.09743 -0.10034
 H1749 H 0.45638 1.11626 -0.05577
 H1750 H 0.45219 1.15122 -0.07429
 H1751 H 0.51416 1.16233 -0.06731
 H1752 H 0.51836 1.12733 -0.04876
 C1753 C 0.50939 0.34833 -0.08683
 C1754 C 0.49124 0.36182 -0.09542
 C1755 C 0.48913 0.38073 -0.08547
 C1756 C 0.50538 0.38426 -0.06793
 C1757 C 0.52687 0.38125 -0.07856
 C1758 C 0.52897 0.36237 -0.08849
 C1759 C 0.50508 0.34637 -0.06314
 C1760 C 0.50298 0.36525 -0.05321
 C1761 C 0.51191 0.32797 -0.09738
 C1762 C 0.51453 0.31117 -0.10581
 C1763 C 0.50337 0.40452 -0.05707
 C1764 C 0.50227 0.42102 -0.04778
 H1765 H 0.48097 0.35695 -0.10817
 H1766 H 0.47705 0.39206 -0.08970
 H1767 H 0.53934 0.39293 -0.07834
 H1768 H 0.54324 0.35789 -0.09677
 H1769 H 0.50377 0.33146 -0.05490
 H1770 H 0.49986 0.36651 -0.03646
 C1771 C 0.00874 -0.15030 0.41394
 C1772 C -0.00515 -0.13450 0.40201
 C1773 C -0.00719 -0.11560 0.41199
 C1774 C 0.00486 -0.11440 0.43291
 C1775 C 0.02770 -0.12001 0.42734
 C1776 C 0.02973 -0.13886 0.41738
 C1777 C -0.00116 -0.15199 0.43591
 C1778 C -0.00319 -0.13312 0.44589
 C1779 C 0.01119 -0.17064 0.40334
 C1780 C 0.01377 -0.18741 0.39485
 C1781 C 0.00293 -0.09415 0.44380
 C1782 C 0.00192 -0.07764 0.45308
 H1783 H -0.01271 -0.13786 0.38707
 H1784 H -0.01650 -0.10277 0.40560
 H1785 H 0.04110 -0.11003 0.43090
 H1786 H 0.04488 -0.14503 0.41241
 H1787 H -0.00615 -0.16672 0.44300
 H1788 H -0.00993 -0.13168 0.46152
 C1789 C 0.49122 -0.15060 0.58706
 C1790 C 0.50017 -0.15255 0.56471
 C1791 C 0.50227 -0.13374 0.55463
 C1792 C 0.49521 -0.11482 0.56788
 C1793 C 0.50807 -0.11633 0.58829
 C1794 C 0.50597 -0.13516 0.59839
 C1795 C 0.47039 -0.13862 0.58445
 C1796 C 0.47249 -0.11982 0.57438
 C1797 C 0.48871 -0.17088 0.59777
 C1798 C 0.48612 -0.18762 0.60631
 C1799 C 0.49721 -0.09463 0.55687
 C1800 C 0.49827 -0.07818 0.54749
 H1801 H 0.50451 -0.16740 0.55745
 H1802 H 0.50840 -0.13248 0.53873
 H1803 H 0.51794 -0.10374 0.59428
 H1804 H 0.51404 -0.13871 0.61302
 H1805 H 0.45531 -0.14439 0.59005
 H1806 H 0.45920 -0.10949 0.57135
 C1807 C -0.00936 0.34875 1.08622
 C1808 C -0.02566 0.35252 1.06880
 C1809 C -0.02352 0.37144 1.05898
 C1810 C -0.00529 0.38478 1.06753
 C1811 C 0.01424 0.37065 1.06567
 C1812 C 0.01210 0.35169 1.07551
 C1813 C -0.01161 0.36767 1.10108
 C1814 C -0.00947 0.38662 1.09125
 C1815 C -0.01192 0.32832 1.09667
 C1816 C -0.01456 0.31149 1.10502
 C1817 C -0.00325 0.40510 1.05678
 C1818 C -0.00214 0.42165 1.04757
 H1819 H -0.03782 0.34130 1.06454
 H1820 H -0.03386 0.37643 1.04631
 H1821 H 0.02850 0.37514 1.05739
 H1822 H 0.02452 0.33994 1.07565
 H1823 H -0.01460 0.36630 1.11785
 H1824 H -0.01062 0.40148 1.09959
 C1825 C 0.76111 0.33665 0.10003
 C1826 C 0.77316 0.31574 0.10113
 C1827 C 0.77110 0.30562 0.11990
 C1828 C 0.75719 0.31738 0.13576
 C1829 C 0.73618 0.32089 0.12432
 C1830 C 0.73824 0.33104 0.10551
 C1831 C 0.76911 0.34949 0.11886
 C1832 C 0.76705 0.33935 0.13765
 C1833 C 0.76358 0.34742 0.07977
 C1834 C 0.76617 0.35601 0.06305
 C1835 C 0.75524 0.30632 0.15592
 C1836 C 0.75421 0.29689 0.17235
 H1837 H 0.78249 0.30943 0.08828
 H1838 H 0.77868 0.29064 0.12312
 H1839 H 0.72104 0.31588 0.13045
 H1840 H 0.72487 0.33471 0.09552
 H1841 H 0.77578 0.36516 0.11756
 H1842 H 0.77196 0.34634 0.15245
 C1843 C 0.26163 0.83697 0.60060
 C1844 C 0.25491 0.85154 0.61867
 C1845 C 0.25277 0.84144 0.63749
 C1846 C 0.25757 0.81778 0.63636
 C1847 C 0.27983 0.81632 0.62707
 C1848 C 0.28196 0.82640 0.60829
 C1849 C 0.24513 0.81933 0.60029
 C1850 C 0.24299 0.80924 0.61910
 C1851 C 0.26418 0.84769 0.58033
 C1852 C 0.26682 0.85624 0.56361
 C1853 C 0.25553 0.80677 0.65654
 C1854 C 0.25438 0.79740 0.67299
 H1855 H 0.25206 0.86829 0.61684
 H1856 H 0.24809 0.84954 0.65179
 H1857 H 0.29279 0.80810 0.63460
 H1858 H 0.29675 0.82681 0.59973
 H1859 H 0.23591 0.81516 0.58652
 H1860 H 0.23194 0.79642 0.62144
 C1861 C 0.74166 0.66329 0.60062
 C1862 C 0.72684 0.68216 0.60350
 C1863 C 0.72939 0.69229 0.62219
 C1864 C 0.74652 0.68260 0.63622
 C1865 C 0.76645 0.68237 0.62254
 C1866 C 0.76389 0.67221 0.60381
 C1867 C 0.73772 0.64923 0.61987
 C1868 C 0.74027 0.65938 0.63859
 C1869 C 0.73865 0.65249 0.58044
 C1870 C 0.73563 0.64389 0.56380
 C1871 C 0.74899 0.69368 0.65631
 C1872 C 0.75040 0.70311 0.67271
 H1873 H 0.71534 0.68712 0.59187
 H1874 H 0.72008 0.70594 0.62656
 H1875 H 0.78126 0.68953 0.62717
 H1876 H 0.77651 0.67066 0.59239
 H1877 H 0.73333 0.63274 0.61889
 H1878 H 0.73807 0.65160 0.65364
 C1879 C 0.24068 0.16244 0.10008
 C1880 C 0.22735 0.18250 0.10193
 C1881 C 0.22982 0.19276 0.12058
 C1882 C 0.24539 0.18196 0.13558
 C1883 C 0.26588 0.17985 0.12292
 C1884 C 0.26340 0.16957 0.10425
 C1885 C 0.23466 0.14912 0.11932
 C1886 C 0.23714 0.15939 0.13799
 C1887 C 0.23776 0.15151 0.07996
 C1888 C 0.23483 0.14280 0.06337
 C1889 C 0.24778 0.19315 0.15563
 C1890 C 0.24914 0.20263 0.17200
 H1891 H 0.21688 0.18817 0.08967
 H1892 H 0.22146 0.20720 0.12427
 H1893 H 0.28098 0.18586 0.12818
 H1894 H 0.27639 0.16678 0.09349
 H1895 H 0.22898 0.13304 0.11837
 H1896 H 0.23357 0.15210 0.15303
 C1897 C 0.25876 0.16249 0.89923
 C1898 C 0.25870 0.14782 0.88003
 C1899 C 0.25622 0.15812 0.86137
 C1900 C 0.25405 0.18207 0.86374
 C1901 C 0.27367 0.18892 0.87607
 C1902 C 0.27614 0.17864 0.89470
 C1903 C 0.23808 0.17493 0.89771
 C1904 C 0.23560 0.18523 0.87904
 C1905 C 0.26169 0.15155 0.91935
 C1906 C 0.26464 0.14284 0.93595
 C1907 C 0.25166 0.19330 0.84371
 C1908 C 0.25033 0.20283 0.82736
 H1909 H 0.26042 0.13085 0.88102
 H1910 H 0.25582 0.14997 0.84636
 H1911 H 0.28467 0.20081 0.87063
 H1912 H 0.28926 0.18173 0.90521
 H1913 H 0.22641 0.17557 0.91017
 H1914 H 0.22181 0.19469 0.87551
 C1915 C 0.75893 0.66308 0.39924
 C1916 C 0.74906 0.68503 0.40143
 C1917 C 0.74646 0.69519 0.38272
 C1918 C 0.75399 0.68241 0.36365
 C1919 C 0.74202 0.66147 0.36501
 C1920 C 0.74461 0.65129 0.38374
 C1921 C 0.77958 0.66665 0.38723
 C1922 C 0.77699 0.67681 0.36854
 C1923 C 0.76198 0.65228 0.41943
 C1924 C 0.76502 0.64369 0.43607
 C1925 C 0.75149 0.69352 0.34356
 C1926 C 0.75008 0.70299 0.32718
 H1927 H 0.74448 0.69196 0.41636
 H1928 H 0.73966 0.71083 0.38163
 H1929 H 0.73236 0.65520 0.35239
 H1930 H 0.73718 0.63630 0.38718
 H1931 H 0.79491 0.66162 0.39291
 H1932 H 0.79010 0.68047 0.35821
 C1933 C 0.23942 0.83717 0.39956
 C1934 C 0.23250 0.81405 0.40023
 C1935 C 0.23443 0.80396 0.38143
 C1936 C 0.24310 0.81798 0.36377
 C1937 C 0.26402 0.82659 0.37229
 C1938 C 0.26208 0.83670 0.39114
 C1939 C 0.22633 0.84713 0.38186
 C1940 C 0.22826 0.83704 0.36304
 C1941 C 0.23707 0.84789 0.41985
 C1942 C 0.23454 0.85644 0.43659
 C1943 C 0.24491 0.80696 0.34358
 C1944 C 0.24583 0.79757 0.32714
 H1945 H 0.22661 0.80626 0.41425
 H1946 H 0.23020 0.78754 0.37935
 H1947 H 0.27900 0.82492 0.36425
 H1948 H 0.27540 0.84368 0.39924
 H1949 H 0.21643 0.86092 0.38391
 H1950 H 0.22002 0.84219 0.34898
 C1951 C 0.73881 0.33612 0.90016
 C1952 C 0.73268 0.31277 0.90096
 C1953 C 0.73482 0.30269 0.88219
 C1954 C 0.74288 0.31692 0.86441
 C1955 C 0.76355 0.32626 0.87275
 C1956 C 0.76141 0.33637 0.89157
 C1957 C 0.72527 0.34556 0.88251
 C1958 C 0.72741 0.33547 0.86372
 C1959 C 0.73625 0.34685 0.92042
 C1960 C 0.73360 0.35540 0.93714
 C1961 C 0.74492 0.30589 0.84425
 C1962 C 0.74602 0.29650 0.82782
 H1963 H 0.72715 0.30485 0.91506
 H1964 H 0.73112 0.28612 0.88020
 H1965 H 0.77853 0.32506 0.86461
 H1966 H 0.77455 0.34383 0.89955
 H1967 H 0.71492 0.35901 0.88458
 H1968 H 0.71890 0.34027 0.84970
 C1969 C 0.83857 0.39988 0.24105
 C1970 C 0.82606 0.39770 0.26161
 C1971 C 0.81613 0.37879 0.26364
 C1972 C 0.81969 0.36395 0.24491
 C1973 C 0.84370 0.36207 0.24283
 C1974 C 0.85363 0.38098 0.24080
 C1975 C 0.82259 0.39541 0.22350
 C1976 C 0.81268 0.37654 0.22552
 C1977 C 0.84909 0.42027 0.23859
 C1978 C 0.85744 0.43709 0.23598
 C1979 C 0.80882 0.34369 0.24682
 C1980 C 0.79949 0.32721 0.24784
 H1981 H 0.82512 0.40990 0.27352
 H1982 H 0.80668 0.37479 0.27729
 H1983 H 0.85215 0.34721 0.24297
 H1984 H 0.87060 0.38232 0.23920
 H1985 H 0.81935 0.40614 0.21059
 H1986 H 0.80095 0.37110 0.21435
 C1987 C 0.33865 0.89995 0.74109
 C1988 C 0.32873 0.89675 0.76289
 C1989 C 0.31870 0.87790 0.76508
 C1990 C 0.31960 0.86413 0.74525
 C1991 C 0.34313 0.86202 0.74011
 C1992 C 0.35315 0.88086 0.73793
 C1993 C 0.32054 0.89675 0.72544
 C1994 C 0.31054 0.87794 0.72762
 C1995 C 0.34927 0.92026 0.73847
 C1996 C 0.35769 0.93704 0.73575
 C1997 C 0.30864 0.84394 0.74732
 C1998 C 0.29924 0.82751 0.74841
 H1999 H 0.32953 0.90825 0.77549
 H2000 H 0.31091 0.87326 0.77955
 H2001 H 0.35121 0.84706 0.73837
 H2002 H 0.36982 0.88205 0.73431
 H2003 H 0.31597 0.90826 0.71365
 H2004 H 0.29740 0.87334 0.71770
 C2005 C 0.16092 0.90058 0.25928
 C2006 C 0.16570 0.89478 0.23631
 C2007 C 0.17571 0.87591 0.23413
 C2008 C 0.17995 0.86472 0.25513
 C2009 C 0.15834 0.86303 0.26580
 C2010 C 0.14833 0.88188 0.26799
 C2011 C 0.18226 0.89955 0.27056
 C2012 C 0.19225 0.88072 0.26838
 C2013 C 0.15031 0.92091 0.26190
 C2014 C 0.14188 0.93770 0.26461
 C2015 C 0.19090 0.84450 0.25304
 C2016 C 0.20027 0.82803 0.25190
 H2017 H 0.16156 0.90462 0.22296
 H2018 H 0.18016 0.86957 0.21890
 H2019 H 0.15149 0.84832 0.27115
 H2020 H 0.13290 0.88333 0.27521
 H2021 H 0.18894 0.91249 0.27949
 H2022 H 0.20750 0.87754 0.27544
 C2023 C 0.66203 0.39977 0.75906
 C2024 C 0.66623 0.38871 0.78012
 C2025 C 0.67609 0.36979 0.77808
 C2026 C 0.68080 0.36376 0.75518
 C2027 C 0.69350 0.38229 0.74630
 C2028 C 0.68363 0.40122 0.74834
 C2029 C 0.64956 0.38376 0.74594
 C2030 C 0.65945 0.36480 0.74390
 C2031 C 0.65156 0.42020 0.76154
 C2032 C 0.64325 0.43705 0.76420
 C2033 C 0.69162 0.34345 0.75326
 C2034 C 0.70093 0.32695 0.75225
 H2035 H 0.66181 0.39516 0.79531
 H2036 H 0.68012 0.36004 0.79153
 H2037 H 0.70888 0.38068 0.73902
 H2038 H 0.69055 0.41583 0.74281
 H2039 H 0.63434 0.38703 0.73888
 H2040 H 0.65270 0.35182 0.73509
 C2041 C 0.66538 0.60124 0.73955
 C2042 C 0.68504 0.60330 0.72567
 C2043 C 0.69535 0.62192 0.72811
 C2044 C 0.68501 0.63668 0.74419
 C2045 C 0.68353 0.62372 0.76454
 C2046 C 0.67320 0.60507 0.76209
 C2047 C 0.65186 0.62055 0.73421
 C2048 C 0.66218 0.63919 0.73665
 C2049 C 0.65440 0.58115 0.73666
 C2050 C 0.64563 0.56459 0.73373
 C2051 C 0.69626 0.65669 0.74653
 C2052 C 0.70580 0.67303 0.74781
 H2053 H 0.69040 0.59120 0.71487
 H2054 H 0.70954 0.62575 0.71939
 H2055 H 0.69000 0.62875 0.77952
 H2056 H 0.67081 0.59411 0.77499
 H2057 H 0.63560 0.61967 0.72900
 H2058 H 0.65478 0.65428 0.73353
 C2059 C 0.16421 0.10055 0.23907
 C2060 C 0.15089 0.11768 0.24972
 C2061 C 0.16123 0.13634 0.25209
 C2062 C 0.18386 0.13599 0.24358
 C2063 C 0.18179 0.12893 0.22058
 C2064 C 0.17147 0.11031 0.21821
 C2065 C 0.18422 0.09886 0.25251
 C2066 C 0.19456 0.11750 0.25488
 C2067 C 0.15321 0.08046 0.23626
 C2068 C 0.14441 0.06391 0.23339
 C2069 C 0.19511 0.15601 0.24585
 C2070 C 0.20461 0.17237 0.24709
 H2071 H 0.13478 0.11537 0.25494
 H2072 H 0.15399 0.15001 0.25934
 H2073 H 0.18789 0.13779 0.20730
 H2074 H 0.16873 0.10323 0.20291
 H2075 H 0.18977 0.08431 0.25957
 H2076 H 0.20896 0.11892 0.26397
 C2077 C 0.33574 0.10102 0.76069
 C2078 C 0.32758 0.10474 0.73825
 C2079 C 0.31723 0.12340 0.73585
 C2080 C 0.31607 0.13648 0.75613
 C2081 C 0.33902 0.13898 0.76330
 C2082 C 0.34936 0.12033 0.76569
 C2083 C 0.31630 0.10321 0.77486
 C2084 C 0.30597 0.12184 0.77247
 C2085 C 0.34674 0.08093 0.76353
 C2086 C 0.35554 0.06437 0.76642
 C2087 C 0.30482 0.15650 0.75382
 C2088 C 0.29532 0.17286 0.75252
 H2089 H 0.32975 0.09371 0.72538
 H2090 H 0.31053 0.12836 0.72093
 H2091 H 0.34649 0.15406 0.76621
 H2092 H 0.36570 0.11943 0.77066
 H2093 H 0.31110 0.09118 0.78582
 H2094 H 0.29192 0.12576 0.78138
 C2095 C 0.83537 0.60115 0.26089
 C2096 C 0.82214 0.60229 0.24070
 C2097 C 0.81183 0.62096 0.23822
 C2098 C 0.81577 0.63663 0.25618
 C2099 C 0.83981 0.63892 0.25735
 C2100 C 0.85012 0.62026 0.25982
 C2101 C 0.81993 0.60614 0.27878
 C2102 C 0.80963 0.62477 0.27630
 C2103 C 0.84633 0.58105 0.26381
 C2104 C 0.85508 0.56447 0.26675
 C2105 C 0.80455 0.65665 0.25379
 C2106 C 0.79505 0.67302 0.25243
 H2107 H 0.82099 0.58958 0.22934
 H2108 H 0.80184 0.62425 0.22474
 H2109 H 0.84800 0.65388 0.25630
 H2110 H 0.86715 0.61922 0.26090
 H2111 H 0.81731 0.59592 0.29222
 H2112 H 0.79820 0.63051 0.28764
 C2113 C 0.90162 0.25942 0.16216
 C2114 C 0.89555 0.27872 0.17535
 C2115 C 0.87688 0.27657 0.18565
 C2116 C 0.86609 0.25532 0.18178
 C2117 C 0.88253 0.23871 0.18797
 C2118 C 0.90123 0.24087 0.17765
 C2119 C 0.88281 0.25573 0.14745
 C2120 C 0.86411 0.25357 0.15777
 C2121 C 0.92177 0.26199 0.15119
 C2122 C 0.93839 0.26466 0.14244
 C2123 C 0.84602 0.25326 0.19302
 C2124 C 0.82964 0.25211 0.20251
 H2125 H 0.90507 0.29286 0.17648
 H2126 H 0.87043 0.28886 0.19561
 H2127 H 0.87974 0.22634 0.19942
 H2128 H 0.91445 0.23034 0.18025
 H2129 H 0.88407 0.25487 0.13043
 H2130 H 0.84935 0.25087 0.14960
 C2131 C 0.40178 0.75931 0.66348
 C2132 C 0.39611 0.77814 0.67749
 C2133 C 0.37734 0.77600 0.68760
 C2134 C 0.36603 0.75523 0.68272
 C2135 C 0.38202 0.73795 0.68822
 C2136 C 0.40082 0.74009 0.67810
 C2137 C 0.38296 0.75678 0.64852
 C2138 C 0.36415 0.75463 0.65864
 C2139 C 0.42204 0.76189 0.65273
 C2140 C 0.43876 0.76457 0.64417
 C2141 C 0.34586 0.75320 0.69377
 C2142 C 0.32943 0.75210 0.70318
 H2143 H 0.40598 0.79197 0.67932
 H2144 H 0.37114 0.78800 0.69807
 H2145 H 0.37884 0.72514 0.69908
 H2146 H 0.41376 0.72913 0.68028
 H2147 H 0.38430 0.75666 0.63149
 H2148 H 0.34937 0.75268 0.65028
 C2149 C 0.39742 0.23941 0.83736
 C2150 C 0.39670 0.22870 0.81574
 C2151 C 0.37801 0.23119 0.80555
 C2152 C 0.36184 0.24416 0.81795
 C2153 C 0.37299 0.26501 0.82289
 C2154 C 0.39172 0.26252 0.83310
 C2155 C 0.37853 0.23042 0.84945
 C2156 C 0.35982 0.23292 0.83924
 C2157 C 0.41759 0.23648 0.84820
 C2158 C 0.43424 0.23354 0.85681
 C2159 C 0.34176 0.24655 0.80681
 C2160 C 0.32539 0.24788 0.79731
 H2161 H 0.40974 0.21992 0.80902
 H2162 H 0.37504 0.22454 0.79009
 H2163 H 0.36673 0.28037 0.81875
 H2164 H 0.40151 0.27573 0.83772
 H2165 H 0.37973 0.22280 0.86469
 H2166 H 0.34499 0.22743 0.84574
 C2167 C 0.89702 0.73971 0.33721
 C2168 C 0.89728 0.73161 0.31447
 C2169 C 0.87860 0.73409 0.30427
 C2170 C 0.86145 0.74443 0.31779
 C2171 C 0.87113 0.76523 0.32536
 C2172 C 0.88986 0.76274 0.33559
 C2173 C 0.87863 0.72815 0.34778
 C2174 C 0.85992 0.73063 0.33757
 C2175 C 0.91719 0.73679 0.34805
 C2176 C 0.93385 0.73387 0.35667
 C2177 C 0.84138 0.74680 0.30664
 C2178 C 0.82502 0.74811 0.29713
 H2179 H 0.91096 0.72456 0.30702
 H2180 H 0.87627 0.72915 0.28808
 H2181 H 0.86392 0.78053 0.32293
 H2182 H 0.89870 0.77592 0.34192
 H2183 H 0.88015 0.71886 0.36204
 H2184 H 0.84542 0.72347 0.34308
 C2185 C 0.09795 0.75985 0.33715
 C2186 C 0.11639 0.75419 0.35173
 C2187 C 0.13514 0.75213 0.34148
 C2188 C 0.13359 0.75594 0.31767
 C2189 C 0.12368 0.77786 0.31545
 C2190 C 0.10496 0.77991 0.32568
 C2191 C 0.09786 0.74265 0.32020
 C2192 C 0.11661 0.74059 0.30995
 C2193 C 0.07775 0.76232 0.34804
 C2194 C 0.06108 0.76493 0.35674
 C2195 C 0.15370 0.75398 0.30651
 C2196 C 0.17011 0.75289 0.29705
 H2197 H 0.11485 0.75197 0.36860
 H2198 H 0.14967 0.74816 0.34957
 H2199 H 0.13075 0.79067 0.30662
 H2200 H 0.09601 0.79448 0.32561
 H2201 H 0.08429 0.73292 0.31658
 H2202 H 0.11909 0.72910 0.29755
 C2203 C 0.59848 0.25900 0.83734
 C2204 C 0.61599 0.24966 0.85115
 C2205 C 0.63476 0.24751 0.84095
 C2206 C 0.63415 0.25491 0.81796
 C2207 C 0.62619 0.27770 0.81891
 C2208 C 0.60745 0.27985 0.82909
 C2209 C 0.59737 0.24457 0.81800
 C2210 C 0.61613 0.24242 0.80781
 C2211 C 0.57826 0.26158 0.84817
 C2212 C 0.56158 0.26428 0.85682
 C2213 C 0.65429 0.25286 0.80685
 C2214 C 0.67072 0.25173 0.79744
 H2215 H 0.61383 0.24512 0.86748
 H2216 H 0.64869 0.24113 0.84854
 H2217 H 0.63455 0.29100 0.81219
 H2218 H 0.59977 0.29498 0.83108
 H2219 H 0.58312 0.23670 0.81280
 H2220 H 0.61795 0.23271 0.79387
 C2221 C 0.60331 0.73956 0.66321
 C2222 C 0.60316 0.75722 0.67969
 C2223 C 0.62195 0.75972 0.68974
 C2224 C 0.63904 0.74432 0.68232
 C2225 C 0.64039 0.74749 0.65841
 C2226 C 0.62158 0.74498 0.64835
 C2227 C 0.61061 0.71988 0.67517
 C2228 C 0.62937 0.72238 0.68521
 C2229 C 0.58305 0.73661 0.65255
 C2230 C 0.56632 0.73368 0.64409
 C2231 C 0.65919 0.74673 0.69331
 C2232 C 0.67560 0.74808 0.70273
 H2233 H 0.58951 0.76692 0.68313
 H2234 H 0.62440 0.77157 0.70180
 H2235 H 0.65482 0.75137 0.65011
 H2236 H 0.61990 0.74671 0.63143
 H2237 H 0.60181 0.70524 0.67569
 H2238 H 0.63664 0.70988 0.69433
 C2239 C 0.10231 0.23915 0.16172
 C2240 C 0.12131 0.23068 0.14940
 C2241 C 0.13999 0.23312 0.15966
 C2242 C 0.13784 0.24377 0.18123
 C2243 C 0.12184 0.23031 0.19331
 C2244 C 0.10318 0.22788 0.18306
 C2245 C 0.10773 0.26219 0.16656
 C2246 C 0.12642 0.26463 0.17683
 C2247 C 0.08216 0.23628 0.15083
 C2248 C 0.06552 0.23342 0.14217
 C2249 C 0.15789 0.24612 0.19243
 C2250 C 0.17424 0.24743 0.20196
 H2251 H 0.12018 0.22344 0.13397
 H2252 H 0.15487 0.22796 0.15303
 H2253 H 0.12489 0.22329 0.20859
 H2254 H 0.09025 0.21878 0.18956
 H2255 H 0.09777 0.27542 0.16229
 H2256 H 0.13250 0.27994 0.18136
 C2257 C -0.08497 1.01057 0.84868
 C2258 C -0.06425 0.99831 0.84644
 C2259 C -0.05408 0.99510 0.86505
 C2260 C -0.06562 1.00447 0.88409
 C2261 C -0.08778 0.99483 0.88338
 C2262 C -0.09795 0.99804 0.86475
 C2263 C -0.07895 1.03100 0.86004
 C2264 C -0.06879 1.02780 0.87864
 C2265 C -0.09580 1.01417 0.82861
 C2266 C -0.10444 1.01732 0.81200
 C2267 C -0.05460 1.00129 0.90414
 C2268 C -0.04543 0.99936 0.92064
 H2269 H -0.05811 0.99262 0.83154
 H2270 H -0.03924 0.98667 0.86610
 H2271 H -0.09483 0.98623 0.89635
 H2272 H -0.11373 0.99219 0.86176
 H2273 H -0.08238 1.04662 0.85402
 H2274 H -0.06352 1.04068 0.88854
 C2275 C 0.41383 0.51106 0.34900
 C2276 C 0.40144 0.51850 0.36835
 C2277 C 0.41178 0.51536 0.38688
 C2278 C 0.43352 0.50509 0.38424
 C2279 C 0.44538 0.51942 0.36883
 C2280 C 0.43504 0.52256 0.35032
 C2281 C 0.41903 0.48786 0.35340
 C2282 C 0.42938 0.48472 0.37194
 C2283 C 0.40281 0.51457 0.32902
 C2284 C 0.39404 0.51762 0.31247
 C2285 C 0.44472 0.50198 0.40419
 C2286 C 0.45403 0.50007 0.42061
 H2287 H 0.38589 0.52558 0.36757
 H2288 H 0.40510 0.51976 0.40197
 H2289 H 0.46058 0.52648 0.37216
 H2290 H 0.44138 0.53230 0.33780
 H2291 H 0.41492 0.47503 0.34289
 H2292 H 0.43415 0.46921 0.37732
 C2293 C 0.58667 -0.00832 0.35028
 C2294 C 0.60080 0.00117 0.36743
 C2295 C 0.59070 0.00428 0.38611
 C2296 C 0.56747 -0.00240 0.38578
 C2297 C 0.56772 -0.02547 0.37861
 C2298 C 0.57780 -0.02857 0.35996
 C2299 C 0.56777 0.00668 0.34870
 C2300 C 0.55767 0.00980 0.36737
 C2301 C 0.59737 -0.01187 0.33014
 C2302 C 0.60582 -0.01506 0.31345
 C2303 C 0.55647 0.00058 0.40586
 C2304 C 0.54720 0.00213 0.42233
 H2305 H 0.61727 0.00511 0.36510
 H2306 H 0.59851 0.01090 0.39979
 H2307 H 0.56059 -0.03826 0.38742
 H2308 H 0.57931 -0.04402 0.35281
 H2309 H 0.56278 0.01423 0.33420
 H2310 H 0.54404 0.02001 0.36887
 C2311 C 0.08594 0.49203 0.85053
 C2312 C 0.09994 0.50147 0.86781
 C2313 C 0.08967 0.50461 0.88640
 C2314 C 0.06643 0.49799 0.88585
 C2315 C 0.06667 0.47493 0.87867
 C2316 C 0.07692 0.47180 0.86012
 C2317 C 0.06709 0.50709 0.84878
 C2318 C 0.05683 0.51022 0.86735
 C2319 C 0.09683 0.48846 0.83049
 C2320 C 0.10545 0.48526 0.81390
 C2321 C 0.05528 0.50100 0.90584
 C2322 C 0.04597 0.50258 0.92229
 H2323 H 0.11643 0.50537 0.86564
 H2324 H 0.09737 0.51120 0.90015
 H2325 H 0.05943 0.46215 0.88741
 H2326 H 0.07846 0.45635 0.85298
 H2327 H 0.06225 0.51465 0.83423
 H2328 H 0.04321 0.52047 0.86873
 C2329 C 0.08527 0.51068 0.65076
 C2330 C 0.06724 0.49468 0.65246
 C2331 C 0.05689 0.49139 0.63396
 C2332 C 0.06559 0.50442 0.61558
 C2333 C 0.08913 0.49898 0.61461
 C2334 C 0.09948 0.50228 0.63311
 C2335 C 0.07510 0.53062 0.64167
 C2336 C 0.06476 0.52733 0.62320
 C2337 C 0.09629 0.51436 0.67070
 C2338 C 0.10506 0.51754 0.68722
 C2339 C 0.05438 0.50116 0.59566
 C2340 C 0.04509 0.49916 0.57925
 H2341 H 0.06300 0.48662 0.66692
 H2342 H 0.04379 0.48051 0.63257
 H2343 H 0.09696 0.49305 0.60063
 H2344 H 0.11619 0.49917 0.63499
 H2345 H 0.07594 0.54598 0.64910
 H2346 H 0.05674 0.53989 0.61480
 C2347 C 0.58502 1.01093 0.15104
 C2348 C 0.58037 0.98767 0.14641
 C2349 C 0.57015 0.98449 0.12780
 C2350 C 0.56559 1.00489 0.11568
 C2351 C 0.58709 1.01564 0.11321
 C2352 C 0.59731 1.01882 0.13180
 C2353 C 0.56357 1.02199 0.14975
 C2354 C 0.55336 1.01881 0.13118
 C2355 C 0.59591 1.01448 0.17108
 C2356 C 0.60460 1.01759 0.18765
 C2357 C 0.55453 1.00175 0.09567
 C2358 C 0.54533 0.99983 0.07919
 H2359 H 0.58474 0.97483 0.15681
 H2360 H 0.56575 0.96894 0.12227
 H2361 H 0.59373 1.02033 0.09818
 H2362 H 0.61268 1.02622 0.13269
 H2363 H 0.55697 1.03147 0.16234
 H2364 H 0.53801 1.02558 0.12786
 C2365 C 0.41375 0.49143 0.14938
 C2366 C 0.42944 0.47386 0.14405
 C2367 C 0.43973 0.47689 0.12551
 C2368 C 0.43334 0.49720 0.11407
 C2369 C 0.43702 0.51486 0.13013
 C2370 C 0.42671 0.51182 0.14871
 C2371 C 0.39902 0.49274 0.13027
 C2372 C 0.40933 0.49577 0.11170
 C2373 C 0.40280 0.48797 0.16941
 C2374 C 0.39412 0.48485 0.18598
 C2375 C 0.44453 0.50010 0.09409
 C2376 C 0.45389 0.50162 0.07766
 H2377 H 0.43223 0.46023 0.15397
 H2378 H 0.45134 0.46584 0.11955
 H2379 H 0.44682 0.52853 0.12717
 H2380 H 0.42767 0.52291 0.16167
 H2381 H 0.38200 0.49142 0.13124
 H2382 H 0.40114 0.49706 0.09675
 C2383 C -0.08578 -0.00787 0.65017
 C2384 C -0.06952 -0.02490 0.64481
 C2385 C -0.05952 -0.02166 0.62615
 C2386 C -0.06674 -0.00169 0.61461
 C2387 C -0.06355 0.01622 0.63050
 C2388 C -0.07357 0.01297 0.64920
 C2389 C -0.10073 -0.00725 0.63119
 C2390 C -0.09072 -0.00400 0.61249
 C2391 C -0.09640 -0.01156 0.67033
 C2392 C -0.10480 -0.01488 0.68702
 C2393 C -0.05584 0.00142 0.59450
 C2394 C -0.04664 0.00303 0.57799
 H2395 H -0.06614 -0.03835 0.65482
 H2396 H -0.04758 -0.03234 0.62017
 H2397 H -0.05428 0.03021 0.62733
 H2398 H -0.07287 0.02419 0.66206
 H2399 H -0.11768 -0.00915 0.63234
 H2400 H -0.09909 -0.00312 0.59762
 C2401 C -0.15066 0.91456 1.01084
 C2402 C -0.14245 0.92601 1.03045
 C2403 C -0.12383 0.93613 1.02732
 C2404 C -0.11519 0.93385 1.00487
 C2405 C -0.13298 0.94166 0.99050
 C2406 C -0.15163 0.93152 0.99364
 C2407 C -0.13265 0.89988 1.00416
 C2408 C -0.11400 0.91002 1.00103
 C2409 C -0.17077 0.90376 1.01433
 C2410 C -0.18743 0.89516 1.01732
 C2411 C -0.09511 0.94483 1.00175
 C2412 C -0.07858 0.95396 0.99979
 H2413 H -0.15057 0.92613 1.04549
 H2414 H -0.11599 0.94494 1.03968
 H2415 H -0.13109 0.95404 0.97888
 H2416 H -0.16572 0.93522 0.98469
 H2417 H -0.13440 0.88301 1.00207
 H2418 H -0.09977 0.90184 0.99624
 C2419 C 0.34957 0.41434 0.51018
 C2420 C 0.35791 0.42538 0.52996
 C2421 C 0.37651 0.43558 0.52690
 C2422 C 0.38499 0.43374 0.50435
 C2423 C 0.36710 0.44184 0.49027
 C2424 C 0.34847 0.43164 0.49333
 C2425 C 0.36752 0.39979 0.50308
 C2426 C 0.38616 0.41000 0.50002
 C2427 C 0.32948 0.40347 0.51360
 C2428 C 0.31286 0.39481 0.51660
 C2429 C 0.40504 0.44480 0.50131
 C2430 C 0.42154 0.45398 0.49941
 H2431 H 0.34990 0.42521 0.54505
 H2432 H 0.38444 0.44413 0.53938
 H2433 H 0.36890 0.45445 0.47888
 H2434 H 0.33432 0.43551 0.48456
 H2435 H 0.36576 0.38297 0.50066
 H2436 H 0.40035 0.40192 0.49497
 C2437 C 0.34982 0.58559 -0.00870
 C2438 C 0.35400 0.57972 0.01438
 C2439 C 0.37264 0.56949 0.01743
 C2440 C 0.38524 0.56614 -0.00291
 C2441 C 0.38774 0.58820 -0.01246
 C2442 C 0.36912 0.59842 -0.01550
 C2443 C 0.35154 0.56479 -0.02083
 C2444 C 0.37014 0.55457 -0.01780
 C2445 C 0.32973 0.59646 -0.01218
 C2446 C 0.31313 0.60510 -0.01536
 C2447 C 0.40529 0.55502 -0.00000
 C2448 C 0.42176 0.54570 0.00153
 H2449 H 0.34328 0.58331 0.02720
 H2450 H 0.37790 0.56430 0.03284
 H2451 H 0.40282 0.59519 -0.01644
 H2452 H 0.36824 0.61417 -0.02208
 H2453 H 0.33921 0.55860 -0.03092
 H2454 H 0.37374 0.53964 -0.02529
 C2455 C -0.15029 0.08646 0.49155
 C2456 C -0.14139 0.08934 0.51384
 C2457 C -0.12281 0.07905 0.51708
 C2458 C -0.11499 0.06691 0.49771
 C2459 C -0.11403 0.08332 0.48000
 C2460 C -0.13257 0.09359 0.47676
 C2461 C -0.15179 0.06256 0.48845
 C2462 C -0.13324 0.05228 0.49169
 C2463 C -0.17030 0.09739 0.48785
 C2464 C -0.18686 0.10606 0.48451
 C2465 C -0.09501 0.05573 0.50083
 C2466 C -0.07857 0.04638 0.50247
 H2467 H -0.14900 0.09864 0.52599
 H2468 H -0.11450 0.07951 0.53201
 H2469 H -0.09999 0.08661 0.47083
 H2470 H -0.13443 0.10568 0.46482
 H2471 H -0.16617 0.05440 0.48413
 H2472 H -0.13174 0.03533 0.49015
 C2473 C 0.65043 0.08582 0.50837
 C2474 C 0.65004 0.07267 0.48809
 C2475 C 0.63149 0.06235 0.48490
 C2476 C 0.61518 0.06620 0.50230
 C2477 C 0.61278 0.09022 0.50348
 C2478 C 0.63132 0.10054 0.50667
 C2479 C 0.64485 0.07030 0.52600
 C2480 C 0.62634 0.06000 0.52282
 C2481 C 0.67042 0.09679 0.51201
 C2482 C 0.68695 0.10548 0.51532
 C2483 C 0.59522 0.05499 0.49925
 C2484 C 0.57880 0.04562 0.49764
 H2485 H 0.66316 0.07159 0.47719
 H2486 H 0.62872 0.05243 0.47128
 H2487 H 0.59785 0.09840 0.50191
 H2488 H 0.63228 0.11756 0.50783
 H2489 H 0.65458 0.06763 0.53979
 H2490 H 0.62023 0.04850 0.53388
 C2491 C 0.15024 0.58613 1.00906
 C2492 C 0.15106 0.56965 0.99140
 C2493 C 0.13243 0.55947 0.98828
 C2494 C 0.11482 0.56676 1.00313
 C2495 C 0.11340 0.59068 0.99994
 C2496 C 0.13204 0.60086 1.00306
 C2497 C 0.14243 0.57410 1.02848
 C2498 C 0.12383 0.56393 1.02537
 C2499 C 0.17032 0.59695 1.01263
 C2500 C 0.18693 0.60554 1.01588
 C2501 C 0.09478 0.55569 1.00014
 C2502 C 0.07831 0.54641 0.99856
 H2503 H 0.16504 0.56631 0.98214
 H2504 H 0.13044 0.54740 0.97635
 H2505 H 0.09904 0.59887 0.99559
 H2506 H 0.13364 0.61779 1.00138
 H2507 H 0.15078 0.57361 1.04339
 H2508 H 0.11626 0.55473 1.03762
 C2509 C 0.14968 0.41362 0.48913
 C2510 C 0.15219 0.43608 0.49768
 C2511 C 0.13355 0.44623 0.50083
 C2512 C 0.11421 0.43294 0.49512
 C2513 C 0.11649 0.41267 0.50808
 C2514 C 0.13515 0.40250 0.50493
 C2515 C 0.13645 0.41602 0.46907
 C2516 C 0.11782 0.42617 0.47221
 C2517 C 0.16980 0.40281 0.48563
 C2518 C 0.18646 0.39422 0.48262
 C2519 C 0.09414 0.44396 0.49826
 C2520 C 0.07763 0.45313 0.50023
 H2521 H 0.16729 0.44336 0.50100
 H2522 H 0.13268 0.46220 0.50684
 H2523 H 0.10452 0.40682 0.51878
 H2524 H 0.13917 0.38795 0.51293
 H2525 H 0.14129 0.41024 0.45374
 H2526 H 0.10669 0.42907 0.45956
 C2527 C 0.65053 0.91484 -0.01082
 C2528 C 0.65303 0.93738 -0.00250
 C2529 C 0.63438 0.94753 0.00062
 C2530 C 0.61504 0.93414 -0.00489
 C2531 C 0.61742 0.91400 0.00825
 C2532 C 0.63609 0.90384 0.00513
 C2533 C 0.63723 0.91702 -0.03086
 C2534 C 0.61858 0.92716 -0.02775
 C2535 C 0.67066 0.90403 -0.01429
 C2536 C 0.68732 0.89542 -0.01727
 C2537 C 0.59495 0.94514 -0.00178
 C2538 C 0.57842 0.95427 0.00017
 H2539 H 0.66813 0.94472 0.00069
 H2540 H 0.63350 0.96355 0.00648
 H2541 H 0.60550 0.90823 0.01905
 H2542 H 0.64016 0.88937 0.01326
 H2543 H 0.64202 0.91110 -0.04616
 H2544 H 0.60741 0.92992 -0.04038
 C2545 C 0.01160 0.84844 0.91490
 C2546 C -0.00568 0.86198 0.90473
 C2547 C -0.00898 0.88067 0.91476
 C2548 C 0.00532 0.88396 0.93397
 C2549 C 0.02783 0.88129 0.92557
 C2550 C 0.03112 0.86263 0.91555
 C2551 C 0.00485 0.84599 0.93796
 C2552 C 0.00155 0.86465 0.94799
 C2553 C 0.01530 0.82831 0.90422
 C2554 C 0.01855 0.81166 0.89572
 C2555 C 0.00205 0.90406 0.94485
 C2556 C 0.00007 0.92059 0.95394
 H2557 H -0.01453 0.85730 0.89089
 H2558 H -0.02066 0.89200 0.90952
 H2559 H 0.04010 0.89304 0.92732
 H2560 H 0.04622 0.85840 0.90873
 H2561 H 0.00282 0.83090 0.94574
 H2562 H -0.00331 0.86556 0.96434
 C2563 C 0.51120 0.34950 0.41326
 C2564 C 0.49408 0.36326 0.40313
 C2565 C 0.49087 0.38188 0.41332
 C2566 C 0.50509 0.38488 0.43262
 C2567 C 0.52763 0.38211 0.42432
 C2568 C 0.53083 0.36352 0.41415
 C2569 C 0.50431 0.34688 0.43627
 C2570 C 0.50110 0.36548 0.44645
 C2571 C 0.51480 0.32943 0.40244
 C2572 C 0.51796 0.31282 0.39384
 C2573 C 0.50192 0.40489 0.44368
 C2574 C 0.49999 0.42134 0.45293
 H2575 H 0.48527 0.35877 0.38920
 H2576 H 0.47931 0.39334 0.40812
 H2577 H 0.53998 0.39375 0.42624
 H2578 H 0.54593 0.35924 0.40736
 H2579 H 0.50212 0.33174 0.44390
 H2580 H 0.49616 0.36627 0.46279
 C2581 C -0.01183 0.34852 0.58629
 C2582 C -0.00538 0.34596 0.56315
 C2583 C -0.00223 0.36458 0.55300
 C2584 C -0.00583 0.38395 0.56697
 C2585 C 0.00871 0.38073 0.58601
 C2586 C 0.00556 0.36209 0.59617
 C2587 C -0.03138 0.36271 0.58582
 C2588 C -0.02823 0.38133 0.57567
 C2589 C -0.01537 0.32843 0.59710
 C2590 C -0.01848 0.31179 0.60570
 C2591 C -0.00271 0.40399 0.55594
 C2592 C -0.00081 0.42047 0.54672
 H2593 H -0.00344 0.33085 0.55543
 H2594 H 0.00242 0.36542 0.53658
 H2595 H 0.02045 0.39208 0.59104
 H2596 H 0.01459 0.35746 0.60992
 H2597 H -0.04638 0.35852 0.59286
 H2598 H -0.04054 0.39308 0.57402
 C2599 C 0.48854 0.84912 0.08569
 C2600 C 0.49499 0.84656 0.06255
 C2601 C 0.49824 0.86518 0.05242
 C2602 C 0.49473 0.88455 0.06642
 C2603 C 0.50925 0.88123 0.08546
 C2604 C 0.50599 0.86259 0.09560
 C2605 C 0.46906 0.86341 0.08523
 C2606 C 0.47231 0.88202 0.07511
 C2607 C 0.48488 0.82903 0.09647
 C2608 C 0.48166 0.81242 0.10505
 C2609 C 0.49794 0.90460 0.05543
 C2610 C 0.49988 0.92109 0.04625
 H2611 H 0.49686 0.83145 0.05480
 H2612 H 0.50290 0.86602 0.03601
 H2613 H 0.52104 0.89251 0.09052
 H2614 H 0.51499 0.85789 0.10934
 H2615 H 0.45404 0.85929 0.09225
 H2616 H 0.46006 0.89384 0.07347
 C2617 C 0.50730 0.64876 0.08605
 C2618 C 0.49879 0.63118 0.10028
 C2619 C 0.49577 0.61256 0.09005
 C2620 C 0.50156 0.61337 0.06660
 C2621 C 0.52444 0.62113 0.06607
 C2622 C 0.52745 0.63972 0.07628
 C2623 C 0.49155 0.65021 0.06777
 C2624 C 0.48853 0.63159 0.05754
 C2625 C 0.51074 0.66884 0.09690
 C2626 C 0.51386 0.68547 0.10549
 C2627 C 0.49868 0.59335 0.05547
 C2628 C 0.49720 0.57691 0.04612
 H2629 H 0.49541 0.63318 0.11690
 H2630 H 0.48980 0.59861 0.09790
 H2631 H 0.53718 0.61275 0.05834
 H2632 H 0.54276 0.64725 0.07730
 H2633 H 0.48345 0.66458 0.06327
 H2634 H 0.47785 0.63002 0.04429
 C2635 C 0.00811 0.15043 0.58611
 C2636 C -0.00091 0.13302 0.60024
 C2637 C -0.00395 0.11439 0.59003
 C2638 C 0.00232 0.11503 0.56670
 C2639 C 0.02530 0.12250 0.56660
 C2640 C 0.02834 0.14109 0.57679
 C2641 C -0.00725 0.15199 0.56751
 C2642 C -0.01029 0.13338 0.55730
 C2643 C 0.01157 0.17051 0.59696
 C2644 C 0.01467 0.18714 0.60556
 C2645 C -0.00061 0.09499 0.55561
 C2646 C -0.00218 0.07853 0.54632
 H2647 H -0.00459 0.13514 0.61678
 H2648 H -0.01025 0.10056 0.59782
 H2649 H 0.03809 0.11393 0.55916
 H2650 H 0.04371 0.14844 0.57809
 H2651 H -0.01508 0.16644 0.56279
 H2652 H -0.02072 0.13187 0.54384
 C2653 C 0.49212 0.14939 0.41347
 C2654 C 0.48633 0.15019 0.43691
 C2655 C 0.48939 0.13162 0.44715
 C2656 C 0.49794 0.11402 0.43298
 C2657 C 0.51811 0.12307 0.42321
 C2658 C 0.51504 0.14168 0.41294
 C2659 C 0.47915 0.13113 0.40444
 C2660 C 0.48221 0.11255 0.41469
 C2661 C 0.48864 0.16945 0.40257
 C2662 C 0.48552 0.18605 0.39393
 C2663 C 0.50089 0.09402 0.44413
 C2664 C 0.50247 0.07758 0.45348
 H2665 H 0.48037 0.16415 0.44477
 H2666 H 0.48605 0.12966 0.46380
 H2667 H 0.53342 0.11553 0.42426
 H2668 H 0.52774 0.15009 0.40519
 H2669 H 0.46853 0.13266 0.39114
 H2670 H 0.47420 0.09815 0.41017
 C2671 C -0.00749 0.64999 0.91458
 C2672 C -0.01363 0.65056 0.93793
 C2673 C -0.01058 0.63191 0.94806
 C2674 C -0.00170 0.61450 0.93387
 C2675 C 0.01854 0.62377 0.92447
 C2676 C 0.01549 0.64245 0.91432
 C2677 C -0.02019 0.63172 0.90520
 C2678 C -0.01715 0.61307 0.91534
 C2679 C -0.01097 0.67013 0.90380
 C2680 C -0.01408 0.68679 0.89526
 C2681 C 0.00122 0.59442 0.94491
 C2682 C 0.00274 0.57794 0.95419
 H2683 H -0.01980 0.66440 0.94582
 H2684 H -0.01415 0.62980 0.96464
 H2685 H 0.03389 0.61633 0.92568
 H2686 H 0.02823 0.65102 0.90682
 H2687 H -0.03064 0.63329 0.89177
 H2688 H -0.02498 0.59866 0.91058
 C2689 C 0.25903 0.66317 0.90039
 C2690 C 0.26074 0.64895 0.88094
 C2691 C 0.25776 0.65936 0.86242
 C2692 C 0.25336 0.68297 0.86517
 C2693 C 0.27197 0.69131 0.87811
 C2694 C 0.27495 0.68092 0.89660
 C2695 C 0.23733 0.67371 0.89858
 C2696 C 0.23435 0.68413 0.88005
 C2697 C 0.26244 0.65210 0.92037
 C2698 C 0.26554 0.64331 0.93690
 C2699 C 0.25050 0.69427 0.84524
 C2700 C 0.24902 0.70371 0.82886
 H2701 H 0.26398 0.63218 0.88166
 H2702 H 0.25844 0.65151 0.84726
 H2703 H 0.28195 0.70428 0.87317
 H2704 H 0.28747 0.68497 0.90750
 H2705 H 0.22536 0.67303 0.91076
 H2706 H 0.21983 0.69237 0.87634
 C2707 C 0.76010 0.16277 0.39984
 C2708 C 0.76196 0.14837 0.38054
 C2709 C 0.75892 0.15856 0.36190
 C2710 C 0.75433 0.18216 0.36440
 C2711 C 0.77286 0.19078 0.37728
 C2712 C 0.77589 0.18060 0.39588
 C2713 C 0.73833 0.17313 0.39788
 C2714 C 0.73529 0.18333 0.37923
 C2715 C 0.76356 0.15194 0.41994
 C2716 C 0.76668 0.14335 0.43657
 C2717 C 0.75142 0.19325 0.34436
 C2718 C 0.74986 0.20258 0.32791
 H2719 H 0.76532 0.13164 0.38143
 H2720 H 0.75969 0.15056 0.34683
 H2721 H 0.78275 0.20377 0.37222
 H2722 H 0.78837 0.18487 0.40676
 H2723 H 0.72635 0.17248 0.41004
 H2724 H 0.72072 0.19142 0.37542
 C2725 C 0.24251 0.33642 0.39950
 C2726 C 0.24025 0.31244 0.40125
 C2727 C 0.24358 0.30212 0.38276
 C2728 C 0.24887 0.31678 0.36431
 C2729 C 0.26793 0.32962 0.37176
 C2730 C 0.26459 0.33996 0.39028
 C2731 C 0.22726 0.34291 0.38193
 C2732 C 0.23059 0.33259 0.36345
 C2733 C 0.23869 0.34741 0.41945
 C2734 C 0.23522 0.35615 0.43594
 C2735 C 0.25209 0.30557 0.34438
 C2736 C 0.25384 0.29619 0.32798
 H2737 H 0.23638 0.30427 0.41575
 H2738 H 0.24259 0.28511 0.38144
 H2739 H 0.28273 0.33052 0.36326
 H2740 H 0.27653 0.34971 0.39765
 H2741 H 0.21493 0.35460 0.38383
 H2742 H 0.22112 0.33546 0.34951
 C2743 C 0.74363 0.83730 0.89992
 C2744 C 0.74134 0.81333 0.90174
 C2745 C 0.74478 0.80293 0.88332
 C2746 C 0.75019 0.81752 0.86484
 C2747 C 0.76921 0.83038 0.87236
 C2748 C 0.76576 0.84079 0.89082
 C2749 C 0.72848 0.84373 0.88223
 C2750 C 0.73193 0.83334 0.86381
 C2751 C 0.73970 0.84837 0.91980
 C2752 C 0.73616 0.85717 0.93624
 C2753 C 0.75352 0.80623 0.84497
 C2754 C 0.75533 0.79681 0.82860
 H2755 H 0.73739 0.80521 0.91625
 H2756 H 0.74379 0.78592 0.88205
 H2757 H 0.78406 0.83124 0.86394
 H2758 H 0.77766 0.85057 0.89821
 H2759 H 0.71615 0.85543 0.88401
 H2760 H 0.72254 0.83615 0.84980
 C2761 C 0.75726 0.83810 0.10032
 C2762 C 0.76653 0.81580 0.10087
 C2763 C 0.76304 0.80550 0.11934
 C2764 C 0.75061 0.81849 0.13548
 C2765 C 0.73032 0.82497 0.12406
 C2766 C 0.73381 0.83529 0.10555
 C2767 C 0.76668 0.84927 0.11954
 C2768 C 0.76319 0.83896 0.13802
 C2769 C 0.76124 0.84906 0.08037
 C2770 C 0.76481 0.85774 0.06388
 C2771 C 0.74725 0.80727 0.15539
 C2772 C 0.74545 0.79785 0.17177
 H2773 H 0.77507 0.80870 0.08789
 H2774 H 0.76859 0.78958 0.12215
 H2775 H 0.71461 0.82176 0.12998
 H2776 H 0.72109 0.84092 0.09562
 H2777 H 0.77531 0.86399 0.11872
 H2778 H 0.76883 0.84487 0.15303
 C2779 C 0.25697 0.33762 0.60024
 C2780 C 0.26616 0.31529 0.60083
 C2781 C 0.26283 0.30511 0.61939
 C2782 C 0.25061 0.31823 0.63558
 C2783 C 0.23022 0.32472 0.62433
 C2784 C 0.23357 0.33492 0.60573
 C2785 C 0.26662 0.34886 0.61930
 C2786 C 0.26328 0.33867 0.63788
 C2787 C 0.26079 0.34844 0.58020
 C2788 C 0.26426 0.35702 0.56363
 C2789 C 0.24740 0.30713 0.65557
 C2790 C 0.24570 0.29776 0.67199
 H2791 H 0.27455 0.30809 0.58780
 H2792 H 0.26835 0.28918 0.62224
 H2793 H 0.21457 0.32159 0.63042
 H2794 H 0.22077 0.34054 0.59589
 H2795 H 0.27529 0.36355 0.61831
 H2796 H 0.26909 0.34464 0.65279
 C2797 C 0.74084 0.16265 0.60025
 C2798 C 0.72839 0.18326 0.60213
 C2799 C 0.73136 0.19341 0.62075
 C2800 C 0.74650 0.18198 0.63572
 C2801 C 0.76684 0.17899 0.62301
 C2802 C 0.76386 0.16882 0.60435
 C2803 C 0.73434 0.14960 0.61952
 C2804 C 0.73731 0.15977 0.63816
 C2805 C 0.73744 0.15184 0.58014
 C2806 C 0.73436 0.14328 0.56350
 C2807 C 0.74936 0.19304 0.65578
 C2808 C 0.75086 0.20235 0.67223
 H2809 H 0.71813 0.18936 0.58989
 H2810 H 0.72365 0.20821 0.62446
 H2811 H 0.78221 0.18437 0.62821
 H2812 H 0.77669 0.16548 0.59355
 H2813 H 0.72798 0.13377 0.61860
 H2814 H 0.73351 0.15264 0.65322
 C2815 C 0.23986 0.66278 0.10011
 C2816 C 0.25755 0.65343 0.11370
 C2817 C 0.26050 0.66380 0.13226
 C2818 C 0.24548 0.68249 0.13537
 C2819 C 0.22331 0.67320 0.13287
 C2820 C 0.22036 0.66285 0.11435
 C2821 C 0.24570 0.68606 0.09736
 C2822 C 0.24865 0.69642 0.11590
 C2823 C 0.23647 0.65177 0.08011
 C2824 C 0.23340 0.64304 0.06355
 C2825 C 0.24831 0.69374 0.15532
 C2826 C 0.24981 0.70317 0.17171
 H2827 H 0.26692 0.63988 0.10914
 H2828 H 0.27241 0.65915 0.14360
 H2829 H 0.21100 0.67462 0.14465
 H2830 H 0.20553 0.65540 0.11026
 H2831 H 0.24740 0.69373 0.08219
 H2832 H 0.25288 0.71296 0.11660
 C2833 C 0.16364 0.60107 0.74189
 C2834 C 0.17812 0.60728 0.72359
 C2835 C 0.18857 0.62570 0.72679
 C2836 C 0.18354 0.63615 0.74797
 C2837 C 0.18841 0.61930 0.76458
 C2838 C 0.17794 0.60084 0.76139
 C2839 C 0.14901 0.62006 0.74504
 C2840 C 0.15948 0.63851 0.74824
 C2841 C 0.15252 0.58118 0.73825
 C2842 C 0.14369 0.56472 0.73499
 C2843 C 0.19490 0.65601 0.75105
 C2844 C 0.20439 0.67235 0.75270
 H2845 H 0.18001 0.59801 0.70937
 H2846 H 0.19941 0.63220 0.71529
 H2847 H 0.19909 0.62165 0.77771
 H2848 H 0.17966 0.58738 0.77178
 H2849 H 0.13195 0.61909 0.74481
 H2850 H 0.15138 0.65335 0.75075
 C2851 C 0.66346 0.10086 0.24227
 C2852 C 0.68295 0.10332 0.22823
 C2853 C 0.69351 0.12170 0.23133
 C2854 C 0.68356 0.13586 0.24818
 C2855 C 0.68221 0.12206 0.26796
 C2856 C 0.67163 0.10364 0.26486
 C2857 C 0.65009 0.12052 0.23796
 C2858 C 0.66065 0.13893 0.24107
 C2859 C 0.65223 0.08102 0.23872
 C2860 C 0.64331 0.06460 0.23549
 C2861 C 0.69502 0.15567 0.25113
 C2862 C 0.70458 0.17198 0.25264
 H2863 H 0.68804 0.09163 0.21685
 H2864 H 0.70763 0.12574 0.22260
 H2865 H 0.68894 0.12638 0.28306
 H2866 H 0.66930 0.09217 0.27730
 H2867 H 0.63375 0.12004 0.23295
 H2868 H 0.65336 0.15421 0.23872
 C2869 C 0.83717 0.10052 0.75834
 C2870 C 0.82444 0.10097 0.73779
 C2871 C 0.81385 0.11938 0.73461
 C2872 C 0.81704 0.13551 0.75230
 C2873 C 0.84100 0.13827 0.75403
 C2874 C 0.85158 0.11987 0.75720
 C2875 C 0.82118 0.10561 0.77570
 C2876 C 0.81061 0.12398 0.77253
 C2877 C 0.84843 0.08067 0.76196
 C2878 C 0.85737 0.06425 0.76521
 C2879 C 0.80556 0.15532 0.74926
 C2880 C 0.79598 0.17163 0.74768
 H2881 H 0.82382 0.08799 0.72670
 H2882 H 0.80416 0.12217 0.72081
 H2883 H 0.84894 0.15335 0.75283
 H2884 H 0.86860 0.11918 0.75873
 H2885 H 0.81839 0.09564 0.78930
 H2886 H 0.79877 0.12974 0.78342
 C2887 C 0.33551 0.60099 0.25751
 C2888 C 0.33102 0.60575 0.23423
 C2889 C 0.32060 0.62427 0.23108
 C2890 C 0.31570 0.63618 0.25152
 C2891 C 0.33708 0.63881 0.26251
 C2892 C 0.34749 0.62032 0.26565
 C2893 C 0.31395 0.60195 0.26836
 C2894 C 0.30354 0.62042 0.26521
 C2895 C 0.34659 0.58105 0.26112
 C2896 C 0.35539 0.56456 0.26442
 C2897 C 0.30439 0.65609 0.24852
 C2898 C 0.29493 0.67247 0.24697
 H2899 H 0.33563 0.59549 0.22138
 H2900 H 0.31627 0.62988 0.21553
 H2901 H 0.34349 0.65389 0.26735
 H2902 H 0.36281 0.61955 0.27320
 H2903 H 0.30740 0.58921 0.27768
 H2904 H 0.28809 0.62350 0.27184
 C2905 C 0.33773 0.40027 0.24115
 C2906 C 0.32489 0.39950 0.26162
 C2907 C 0.31487 0.38079 0.26479
 C2908 C 0.31868 0.36470 0.24718
 C2909 C 0.34272 0.36265 0.24561
 C2910 C 0.35274 0.38136 0.24244
 C2911 C 0.32201 0.39464 0.22371
 C2912 C 0.31201 0.37597 0.22687
 C2913 C 0.34836 0.42044 0.23752
 C2914 C 0.35678 0.43711 0.23420
 C2915 C 0.30776 0.34459 0.25023
 C2916 C 0.29854 0.32809 0.25185
 H2917 H 0.32380 0.41250 0.27266
 H2918 H 0.30520 0.37775 0.27854
 H2919 H 0.35112 0.34783 0.24692
 H2920 H 0.36973 0.38256 0.24102
 H2921 H 0.31900 0.40447 0.21005
 H2922 H 0.30042 0.36981 0.21593
 C2923 C 0.83973 0.90042 0.74127
 C2924 C 0.82694 0.89978 0.76178
 C2925 C 0.81684 0.88113 0.76504
 C2926 C 0.82052 0.86497 0.74748
 C2927 C 0.84455 0.86279 0.74586
 C2928 C 0.85465 0.88144 0.74259
 C2929 C 0.82395 0.89480 0.72389
 C2930 C 0.81386 0.87619 0.72714
 C2931 C 0.85045 0.92053 0.73756
 C2932 C 0.85891 0.93718 0.73423
 C2933 C 0.80951 0.84491 0.75063
 C2934 C 0.80023 0.82846 0.75233
 H2935 H 0.82594 0.91282 0.77277
 H2936 H 0.80718 0.87819 0.77882
 H2937 H 0.85289 0.84793 0.74719
 H2938 H 0.87165 0.88255 0.74113
 H2939 H 0.82095 0.90460 0.71020
 H2940 H 0.80222 0.87005 0.71625
 C2941 C 0.66157 0.90073 0.25868
 C2942 C 0.67273 0.89953 0.23727
 C2943 C 0.68289 0.88092 0.23389
 C2944 C 0.68088 0.86536 0.25225
 C2945 C 0.65710 0.86291 0.25584
 C2946 C 0.64694 0.88151 0.25922
 C2947 C 0.67877 0.89597 0.27496
 C2948 C 0.68891 0.87740 0.27159
 C2949 C 0.65080 0.92079 0.26252
 C2950 C 0.64229 0.93740 0.26596
 C2951 C 0.69194 0.84534 0.24899
 C2952 C 0.70125 0.82890 0.24723
 H2953 H 0.67263 0.91218 0.22577
 H2954 H 0.69149 0.87762 0.21950
 H2955 H 0.64895 0.84789 0.25570
 H2956 H 0.63010 0.88244 0.26198
 H2957 H 0.68265 0.90630 0.28801
 H2958 H 0.70148 0.87183 0.28175
 C2959 C 0.16210 0.40077 0.75859
 C2960 C 0.15130 0.38191 0.76912
 C2961 C 0.16143 0.36329 0.76583
 C2962 C 0.18137 0.36535 0.75232
 C2963 C 0.19490 0.38186 0.76362
 C2964 C 0.18478 0.40046 0.76691
 C2965 C 0.16391 0.39475 0.73525
 C2966 C 0.17406 0.37610 0.73195
 C2967 C 0.15134 0.42086 0.76234
 C2968 C 0.14283 0.43749 0.76570
 C2969 C 0.19240 0.34531 0.74915
 C2970 C 0.20170 0.32885 0.74743
 H2971 H 0.13695 0.38307 0.77833
 H2972 H 0.15575 0.34850 0.77221
 H2973 H 0.21104 0.37917 0.76858
 H2974 H 0.19225 0.41371 0.77470
 H2975 H 0.15777 0.40427 0.72246
 H2976 H 0.17660 0.36965 0.71634
 C2977 C 0.10245 0.75800 0.83853
 C2978 C 0.11925 0.74669 0.85175
 C2979 C 0.13777 0.74361 0.84133
 C2980 C 0.13765 0.75215 0.81872
 C2981 C 0.13144 0.77541 0.82084
 C2982 C 0.11295 0.77847 0.83124
 C2983 C 0.10020 0.74464 0.81852
 C2984 C 0.11871 0.74157 0.80811
 C2985 C 0.08249 0.76152 0.84959
 C2986 C 0.06596 0.76474 0.85834
 C2987 C 0.15757 0.74921 0.80740
 C2988 C 0.17394 0.74769 0.79792
 H2989 H 0.11680 0.74154 0.86786
 H2990 H 0.15119 0.73582 0.84850
 H2991 H 0.14076 0.78835 0.81470
 H2992 H 0.10645 0.79403 0.83401
 H2993 H 0.08538 0.73814 0.81304
 H2994 H 0.11975 0.73243 0.79371
 C2995 C 0.60201 0.25782 0.33640
 C2996 C 0.61956 0.24906 0.35054
 C2997 C 0.63814 0.24593 0.34025
 C2998 C 0.63733 0.25187 0.31684
 C2999 C 0.62974 0.27481 0.31645
 C3000 C 0.61120 0.27794 0.32672
 C3001 C 0.60039 0.24220 0.31803
 C3002 C 0.61897 0.23908 0.30774
 C3003 C 0.58198 0.26140 0.34733
 C3004 C 0.56541 0.26467 0.35599
 C3005 C 0.65731 0.24887 0.30566
 C3006 C 0.67373 0.24727 0.29628
 H3007 H 0.61756 0.24560 0.36715
 H3008 H 0.65206 0.23979 0.34804
 H3009 H 0.63822 0.28752 0.30878
 H3010 H 0.60379 0.29330 0.32785
 H3011 H 0.58594 0.23428 0.31353
 H3012 H 0.62043 0.22847 0.29443
 C3013 C 0.59798 0.74104 0.16246
 C3014 C 0.61377 0.75420 0.14975
 C3015 C 0.63235 0.75757 0.15998
 C3016 C 0.63328 0.74746 0.18191
 C3017 C 0.62834 0.72410 0.17824
 C3018 C 0.60980 0.72072 0.16803
 C3019 C 0.59547 0.75278 0.18343
 C3020 C 0.61403 0.75616 0.19365
 C3021 C 0.57796 0.73720 0.15160
 C3022 C 0.56138 0.73379 0.14301
 C3023 C 0.65325 0.75072 0.19304
 C3024 C 0.66967 0.75251 0.20239
 H3025 H 0.61063 0.76033 0.13411
 H3026 H 0.64512 0.76660 0.15312
 H3027 H 0.63853 0.71131 0.18323
 H3028 H 0.60412 0.70506 0.16427
 H3029 H 0.58045 0.75802 0.18967
 H3030 H 0.61491 0.76429 0.20865
 C3031 C 0.09841 0.24142 0.66244
 C3032 C 0.09606 0.25438 0.68270
 C3033 C 0.11460 0.25768 0.69299
 C3034 C 0.13367 0.24769 0.68202
 C3035 C 0.13337 0.25661 0.65956
 C3036 C 0.11482 0.25331 0.64926
 C3037 C 0.10945 0.22105 0.66928
 C3038 C 0.12796 0.22435 0.67956
 C3039 C 0.07842 0.23767 0.65151
 C3040 C 0.06187 0.23430 0.64285
 C3041 C 0.15362 0.25087 0.69321
 C3042 C 0.17002 0.25258 0.70260
 H3043 H 0.08115 0.26047 0.68843
 H3044 H 0.11557 0.26658 0.70753
 H3045 H 0.14654 0.26481 0.65240
 H3046 H 0.11209 0.25868 0.63327
 H3047 H 0.10328 0.20541 0.66630
 H3048 H 0.13764 0.21151 0.68538
 C3049 C 0.89823 0.25776 0.66337
 C3050 C 0.88919 0.27779 0.67338
 C3051 C 0.87074 0.27460 0.68380
 C3052 C 0.86310 0.25170 0.68322
 C3053 C 0.88152 0.23871 0.69197
 C3054 C 0.89999 0.24190 0.68153
 C3055 C 0.88052 0.24925 0.64931
 C3056 C 0.86204 0.24606 0.65975
 C3057 C 0.91815 0.26140 0.65227
 C3058 C 0.93463 0.26470 0.64346
 C3059 C 0.84321 0.24863 0.69454
 C3060 C 0.82683 0.24700 0.70398
 H3061 H 0.89662 0.29314 0.67237
 H3062 H 0.86238 0.28724 0.69172
 H3063 H 0.88016 0.22795 0.70517
 H3064 H 0.91447 0.23386 0.68579
 H3065 H 0.88234 0.24600 0.63264
 H3066 H 0.84802 0.24007 0.65202
 C3067 C 0.39752 0.75788 0.16274
 C3068 C 0.38346 0.77751 0.16336
 C3069 C 0.36493 0.77448 0.17370
 C3070 C 0.36225 0.75210 0.18243
 C3071 C 0.38175 0.74836 0.19620
 C3072 C 0.40029 0.75139 0.18585
 C3073 C 0.38372 0.74059 0.15299
 C3074 C 0.36515 0.73756 0.16336
 C3075 C 0.41752 0.76136 0.15174
 C3076 C 0.43408 0.76454 0.14302
 C3077 C 0.34229 0.74920 0.19368
 C3078 C 0.32590 0.74767 0.20311
 H3079 H 0.38767 0.79248 0.15628
 H3080 H 0.35328 0.78686 0.17548
 H3081 H 0.38106 0.74370 0.21262
 H3082 H 0.41548 0.74933 0.19341
 H3083 H 0.38814 0.73155 0.13919
 H3084 H 0.35367 0.72591 0.15844
 C3085 C 0.40133 0.24146 0.33687
 C3086 C 0.40218 0.23624 0.31331
 C3087 C 0.38360 0.23952 0.30311
 C3088 C 0.36597 0.24771 0.31745
 C3089 C 0.37498 0.26764 0.32770
 C3090 C 0.39359 0.26435 0.33792
 C3091 C 0.38306 0.22828 0.34557
 C3092 C 0.36448 0.23156 0.33536
 C3093 C 0.42138 0.23772 0.34771
 C3094 C 0.43798 0.23434 0.35628
 C3095 C 0.34597 0.25086 0.30633
 C3096 C 0.32955 0.25250 0.29695
 H3097 H 0.41615 0.23048 0.30532
 H3098 H 0.38168 0.23658 0.28639
 H3099 H 0.36742 0.28295 0.32700
 H3100 H 0.40198 0.27686 0.34599
 H3101 H 0.38458 0.21735 0.35862
 H3102 H 0.35008 0.22344 0.33968
 C3103 C 0.90239 0.74139 0.83814
 C3104 C 0.90341 0.73614 0.81459
 C3105 C 0.88495 0.73952 0.80422
 C3106 C 0.86724 0.74783 0.81840
 C3107 C 0.87627 0.76771 0.82872
 C3108 C 0.89477 0.76433 0.83911
 C3109 C 0.88397 0.72832 0.84668
 C3110 C 0.86550 0.73170 0.83631
 C3111 C 0.92232 0.73755 0.84917
 C3112 C 0.93882 0.73412 0.85792
 C3113 C 0.84734 0.75108 0.80711
 C3114 C 0.83098 0.75281 0.79765
 H3115 H 0.91743 0.73030 0.80674
 H3116 H 0.88316 0.73658 0.78749
 H3117 H 0.86881 0.78307 0.82794
 H3118 H 0.90316 0.77679 0.84723
 H3119 H 0.88530 0.71739 0.85975
 H3120 H 0.85101 0.72366 0.84050
   
