data_POSCAR
  _audit_creation_date              2014-09-24
  _audit_creation_method            'ToBaCCo'
  _symmetry_space_group_name_H-M    'P1'
  _symmetry_Int_Tables_number       1
  _symmetry_cell_setting            triclinic
  loop_
  _symmetry_equiv_pos_as_xyz
 x,y,z
_cell_length_a 59.8602
_cell_length_b 59.8467
_cell_length_c 43.1586
_cell_angle_alpha 90.038700
_cell_angle_beta 90.016800
_cell_angle_gamma 89.998200
loop_
  _atom_site_label
  _atom_site_type_symbol
  _atom_site_fract_x
  _atom_site_fract_y
  _atom_site_fract_z
Zr1 Zr -0.03937 0.00207 -0.00262
 O2 O -0.06457 -0.01539 -0.02718
 O3 O -0.05843 0.02217 0.02715
 O4 O -0.05772 -0.01928 0.02669
 O5 O -0.03114 0.04207 -0.05933
 O6 O -0.03105 -0.03933 0.05210
 O7 O -0.05776 0.02331 -0.03194
 O8 O -0.03222 0.04008 0.05629
 O9 O -0.02082 0.00084 0.03844
 O10 O -0.02045 0.03139 -0.00148
 O11 O -0.02033 -0.02736 -0.00575
 O12 O -0.02060 0.00202 -0.04404
 Zr13 Zr 0.03841 0.00111 -0.00406
 Zr14 Zr -0.00052 -0.02750 0.03424
 Zr15 Zr -0.00051 0.03069 -0.04102
 Zr16 Zr -0.00110 0.02956 0.03837
 O17 O 0.00050 0.02910 -0.08998
 O18 O -0.00084 0.02269 0.08656
 O19 O 0.01954 0.03084 -0.00106
 O20 O 0.01937 0.00122 0.03691
 O21 O 0.01971 -0.02841 -0.00528
 O22 O 0.01957 0.00235 -0.04480
 C23 C -0.05261 0.03577 0.04879
 C24 C -0.05164 0.03758 -0.05260
 C25 C -0.05155 -0.03434 0.04621
 O26 O 0.00119 -0.02595 0.08316
 O27 O 0.02999 -0.04141 0.04896
 O28 O 0.05673 -0.02180 0.02302
 C29 C 0.05049 -0.03710 0.04215
 O30 O -0.02962 -0.03794 -0.06674
 Zr31 Zr 0.00011 -0.02638 -0.04508
 O32 O 0.05746 -0.01928 -0.03344
 O33 O -0.00220 -0.06259 0.02868
 O34 O -0.00080 -0.06156 -0.03938
 O35 O 0.00209 -0.02105 -0.09358
 O36 O 0.03120 -0.03921 -0.05985
 C37 C 0.05160 -0.03443 -0.05296
 O38 O 0.06357 0.01746 0.02196
 O39 O -0.00153 0.06583 -0.03570
 O40 O 0.05680 0.02392 -0.03121
 O41 O 0.03005 0.04483 -0.05517
 O42 O -0.00241 0.06486 0.03451
 O43 O 0.02861 0.04399 0.05648
 C44 C 0.05057 0.03992 -0.04925
 H45 H -0.02965 0.04512 -0.00123
 H46 H 0.02912 0.00096 0.05545
 H47 H 0.02890 0.00307 -0.06370
 H48 H -0.03006 -0.04071 -0.00682
 H49 H -0.00499 0.03667 0.09745
 H50 H 0.00046 -0.04155 0.09077
 H51 H -0.00149 -0.06918 0.04971
 H52 H 0.00327 -0.06838 -0.05954
 H53 H -0.00613 0.07091 0.05526
 H54 H -0.00203 0.07229 -0.05683
 H55 H 0.00100 0.04472 -0.09753
 H56 H 0.00586 -0.03557 -0.10332
 H57 H 0.02490 0.05330 0.07474
 H58 H 0.07820 0.01216 0.01402
 H59 H -0.07921 -0.00999 -0.01936
 H60 H -0.02593 -0.05010 -0.08143
 Zr61 Zr 0.53840 0.50111 0.49596
 O62 O 0.56355 0.51754 0.52192
 O63 O 0.55748 0.48063 0.46673
 O64 O 0.55669 0.47829 0.52322
 O65 O 0.53012 0.54466 0.44454
 O66 O 0.52993 0.45878 0.54925
 O67 O 0.55683 0.52381 0.46869
 O68 O 0.53124 0.46063 0.44039
 O69 O 0.51970 0.47159 0.49490
 O70 O 0.51960 0.50222 0.45517
 O71 O 0.51933 0.50136 0.53689
 O72 O 0.51954 0.53086 0.49872
 Zr73 Zr 0.46063 0.50209 0.49725
 Zr74 Zr 0.49943 0.47264 0.53437
 Zr75 Zr 0.49953 0.53059 0.45873
 Zr76 Zr 0.50013 0.47350 0.45504
 O77 O 0.49851 0.56574 0.46383
 O78 O 0.49923 0.43834 0.46097
 O79 O 0.47944 0.50191 0.45586
 O80 O 0.47966 0.47265 0.49434
 O81 O 0.47914 0.50100 0.53834
 O82 O 0.47956 0.53142 0.49824
 C83 C 0.55163 0.46543 0.44727
 C84 C 0.55063 0.53975 0.45053
 C85 C 0.55044 0.46306 0.54244
 O86 O 0.49775 0.43753 0.52903
 O87 O 0.46888 0.46088 0.55225
 O88 O 0.44224 0.48085 0.52666
 C89 C 0.44839 0.46585 0.54629
 O90 O 0.52857 0.54421 0.55617
 Zr91 Zr 0.49887 0.52972 0.53813
 O92 O 0.44154 0.52229 0.52686
 O93 O 0.50109 0.47436 0.58328
 O94 O 0.49910 0.52302 0.58636
 O95 O 0.49755 0.56501 0.53404
 O96 O 0.46773 0.54028 0.55595
 C97 C 0.44735 0.53595 0.54844
 O98 O 0.43544 0.48456 0.47276
 O99 O 0.50059 0.52884 0.40978
 O100 O 0.44227 0.52323 0.46774
 O101 O 0.46891 0.54190 0.44028
 O102 O 0.50215 0.47867 0.40651
 O103 O 0.47042 0.46187 0.43342
 C104 C 0.44841 0.53742 0.44699
 H105 H 0.52895 0.50288 0.43628
 H106 H 0.46993 0.45930 0.49334
 H107 H 0.47035 0.54515 0.49837
 H108 H 0.52906 0.50116 0.55545
 H109 H 0.50331 0.43145 0.44087
 H110 H 0.49845 0.43101 0.55011
 H111 H 0.50036 0.45878 0.59100
 H112 H 0.49495 0.53703 0.59716
 H113 H 0.50592 0.46411 0.39687
 H114 H 0.50109 0.54444 0.40213
 H115 H 0.49804 0.57213 0.44266
 H116 H 0.49381 0.57112 0.55475
 H117 H 0.47412 0.44964 0.41883
 H118 H 0.42080 0.48998 0.48052
 H119 H 0.57818 0.51222 0.51403
 H120 H 0.52484 0.55359 0.57436
 Zr121 Zr 0.53934 -0.00221 0.49830
 O122 O 0.56468 0.01512 0.47392
 O123 O 0.55824 -0.02243 0.52812
 O124 O 0.55771 0.01913 0.52770
 O125 O 0.53104 -0.04216 0.44142
 O126 O 0.53103 0.03927 0.55300
 O127 O 0.55769 -0.02353 0.46899
 O128 O 0.53187 -0.04027 0.55703
 O129 O 0.52069 -0.00090 0.53926
 O130 O 0.52027 -0.03144 0.49927
 O131 O 0.52040 0.02729 0.49511
 O132 O 0.52064 -0.00207 0.45679
 Zr133 Zr 0.46152 -0.00091 0.49644
 Zr134 Zr 0.50050 0.02751 0.53501
 Zr135 Zr 0.50041 -0.03065 0.45963
 Zr136 Zr 0.50084 -0.02954 0.53902
 O137 O 0.49950 -0.02903 0.41067
 O138 O 0.50056 -0.02265 0.58722
 O139 O 0.48028 -0.03071 0.49948
 O140 O 0.48047 -0.00111 0.53751
 O141 O 0.48036 0.02852 0.49539
 O142 O 0.48045 -0.00223 0.45580
 C143 C 0.55230 -0.03606 0.54964
 C144 C 0.55155 -0.03776 0.44825
 C145 C 0.55153 0.03425 0.54718
 O146 O 0.49869 0.02596 0.58391
 O147 O 0.47002 0.04156 0.54962
 O148 O 0.44324 0.02209 0.52350
 C149 C 0.44951 0.03736 0.54271
 O150 O 0.52986 0.03784 0.43418
 Zr151 Zr 0.50004 0.02641 0.45568
 O152 O 0.44262 0.01959 0.46701
 O153 O 0.50232 0.06260 0.52951
 O154 O 0.50112 0.06158 0.46145
 O155 O 0.49812 0.02106 0.40716
 O156 O 0.46904 0.03942 0.44081
 C157 C 0.44860 0.03474 0.44758
 O158 O 0.43621 -0.01714 0.52229
 O159 O 0.50128 -0.06580 0.46487
 O160 O 0.44310 -0.02367 0.46916
 O161 O 0.46983 -0.04469 0.44532
 O162 O 0.50194 -0.06484 0.53505
 O163 O 0.47104 -0.04382 0.55702
 C164 C 0.44931 -0.03972 0.45115
 H165 H 0.52941 -0.04522 0.49952
 H166 H 0.47070 -0.00081 0.55600
 H167 H 0.47115 -0.00291 0.43685
 H168 H 0.53018 0.04061 0.49411
 H169 H 0.50462 -0.03664 0.59811
 H170 H 0.49947 0.04156 0.59156
 H171 H 0.50158 0.06920 0.55056
 H172 H 0.49713 0.06843 0.44129
 H173 H 0.50560 -0.07093 0.55580
 H174 H 0.50181 -0.07225 0.44373
 H175 H 0.49896 -0.04465 0.40307
 H176 H 0.49443 0.03560 0.39743
 H177 H 0.47468 -0.05313 0.57529
 H178 H 0.42163 -0.01177 0.51427
 H179 H 0.57927 0.00965 0.48180
 H180 H 0.52625 0.04999 0.41945
 Zr181 Zr -0.03852 0.49920 -0.00625
 O182 O -0.06392 0.48302 0.01949
 O183 O -0.05734 0.51982 -0.03562
 O184 O -0.05674 0.52218 0.02091
 O185 O -0.03035 0.45547 -0.05738
 O186 O -0.02992 0.54156 0.04706
 O187 O -0.05697 0.47650 -0.03359
 O188 O -0.03092 0.53959 -0.06166
 O189 O -0.01962 0.52859 -0.00722
 O190 O -0.01962 0.49788 -0.04690
 O191 O -0.01958 0.49890 0.03482
 O192 O -0.01986 0.46935 -0.00325
 Zr193 Zr 0.03927 0.49767 -0.00438
 Zr194 Zr 0.00053 0.52747 0.03239
 Zr195 Zr 0.00028 0.46941 -0.04310
 Zr196 Zr 0.00006 0.52645 -0.04693
 O197 O 0.00105 0.43424 -0.03800
 O198 O 0.00128 0.56162 -0.04111
 O199 O 0.02058 0.49792 -0.04590
 O200 O 0.02042 0.52723 -0.00751
 O201 O 0.02063 0.49899 0.03659
 O202 O 0.02012 0.46850 -0.00346
 C203 C -0.05145 0.53509 -0.05501
 C204 C -0.05094 0.46039 -0.05167
 C205 C -0.05044 0.53740 0.04016
 O206 O 0.00243 0.56256 0.02697
 O207 O 0.03109 0.53912 0.05039
 O208 O 0.05771 0.51894 0.02504
 C209 C 0.05158 0.53405 0.04456
 O210 O -0.02915 0.45620 0.05425
 Zr211 Zr 0.00070 0.47041 0.03629
 O212 O 0.05812 0.47738 0.02542
 O213 O -0.00127 0.52587 0.08130
 O214 O 0.00042 0.47725 0.08450
 O215 O 0.00170 0.43511 0.03224
 O216 O 0.03170 0.45958 0.05429
 C217 C 0.05214 0.46375 0.04693
 O218 O 0.06467 0.51492 -0.02875
 O219 O -0.00063 0.47108 -0.09205
 O220 O 0.05753 0.47627 -0.03369
 O221 O 0.03089 0.45783 -0.06128
 O222 O -0.00193 0.52119 -0.09546
 O223 O 0.02990 0.53781 -0.06845
 C224 C 0.05148 0.46201 -0.05450
 H225 H -0.02893 0.49724 -0.06584
 H226 H 0.03024 0.54052 -0.00848
 H227 H 0.02922 0.45469 -0.00324
 H228 H -0.02936 0.49920 0.05331
 H229 H -0.00272 0.56849 -0.06125
 H230 H 0.00171 0.56913 0.04803
 H231 H -0.00045 0.54146 0.08898
 H232 H 0.00444 0.46323 0.09536
 H233 H -0.00562 0.53574 -0.10513
 H234 H -0.00123 0.45547 -0.09967
 H235 H 0.00156 0.42783 -0.05916
 H236 H 0.00535 0.42899 0.05297
 H237 H 0.02631 0.54997 -0.08318
 H238 H 0.07924 0.50939 -0.02088
 H239 H -0.07847 0.48845 0.01144
 H240 H -0.02553 0.44684 0.07248
 Zr241 Zr 0.03954 0.50204 0.50257
 O242 O 0.06477 0.48450 0.52690
 O243 O 0.05857 0.52229 0.47299
 O244 O 0.05788 0.48084 0.47303
 O245 O 0.03132 0.54176 0.55974
 O246 O 0.03121 0.46089 0.44743
 O247 O 0.05793 0.52315 0.53210
 O248 O 0.03232 0.54032 0.44407
 O249 O 0.02096 0.50099 0.46152
 O250 O 0.02059 0.53136 0.50176
 O251 O 0.02052 0.47259 0.50542
 O252 O 0.02079 0.50179 0.54401
 Zr253 Zr -0.03822 0.50102 0.50410
 Zr254 Zr 0.00069 0.47262 0.46544
 Zr255 Zr 0.00068 0.53046 0.54133
 Zr256 Zr 0.00122 0.52970 0.46192
 O257 O -0.00031 0.52865 0.59027
 O258 O 0.00093 0.52305 0.41366
 O259 O -0.01939 0.53078 0.50140
 O260 O -0.01923 0.50133 0.46310
 O261 O -0.01951 0.47151 0.50498
 O262 O -0.01937 0.50209 0.54483
 C263 C 0.05272 0.53599 0.45149
 C264 C 0.05182 0.53730 0.55293
 C265 C 0.05171 0.46585 0.45337
 O266 O -0.00106 0.47439 0.41655
 O267 O -0.02982 0.45875 0.45063
 O268 O -0.05654 0.47822 0.47683
 C269 C -0.05032 0.46301 0.45753
 O270 O 0.02987 0.46173 0.56627
 Zr271 Zr 0.00011 0.47338 0.54478
 O272 O -0.05725 0.48050 0.53330
 O273 O 0.00240 0.43751 0.47063
 O274 O 0.00104 0.43822 0.53871
 O275 O -0.00183 0.47849 0.59334
 O276 O -0.03096 0.46047 0.55947
 C277 C -0.05137 0.46527 0.55267
 O278 O -0.06342 0.51746 0.47827
 O279 O 0.00168 0.56563 0.53638
 O280 O -0.05662 0.52369 0.53149
 O281 O -0.02988 0.54452 0.55564
 O282 O 0.00251 0.56498 0.46616
 O283 O -0.02851 0.54419 0.44402
 C284 C -0.05040 0.53962 0.54968
 H285 H 0.02979 0.54510 0.50166
 H286 H -0.02899 0.50115 0.44458
 H287 H -0.02869 0.50273 0.56375
 H288 H 0.03026 0.45924 0.50633
 H289 H 0.00505 0.53708 0.40291
 H290 H -0.00033 0.45883 0.40877
 H291 H 0.00167 0.43101 0.44952
 H292 H -0.00301 0.43131 0.55879
 H293 H 0.00621 0.57112 0.44546
 H294 H 0.00219 0.57199 0.55758
 H295 H -0.00081 0.54424 0.59799
 H296 H -0.00558 0.46392 0.60293
 H297 H -0.02482 0.55359 0.42585
 H298 H -0.07804 0.51212 0.48618
 H299 H 0.07940 0.48994 0.51913
 H300 H 0.02619 0.44950 0.58083
 Zr301 Zr 0.46182 0.00096 0.00407
 O302 O 0.43665 0.01740 -0.02180
 O303 O 0.44276 -0.01961 0.03317
 O304 O 0.44355 -0.02183 -0.02328
 O305 O 0.47006 0.04442 0.05571
 O306 O 0.47032 -0.04126 -0.04946
 O307 O 0.44337 0.02359 0.03144
 O308 O 0.46903 -0.03965 0.05937
 O309 O 0.48055 -0.02854 0.00495
 O310 O 0.48061 0.00200 0.04486
 O311 O 0.48087 0.00132 -0.03687
 O312 O 0.48064 0.03073 0.00147
 Zr313 Zr 0.53958 0.00203 0.00274
 Zr314 Zr 0.50081 -0.02738 -0.03453
 Zr315 Zr 0.50065 0.03039 0.04146
 Zr316 Zr 0.50012 -0.02669 0.04481
 O317 O 0.50164 0.06557 0.03658
 O318 O 0.50109 -0.06184 0.03868
 O319 O 0.52078 0.00174 0.04414
 O320 O 0.52057 -0.02743 0.00550
 O321 O 0.52107 0.00101 -0.03836
 O322 O 0.52061 0.03133 0.00194
 C323 C 0.44863 -0.03486 0.05252
 C324 C 0.44955 0.03951 0.04967
 C325 C 0.44982 -0.03702 -0.04259
 O326 O 0.50252 -0.06250 -0.02941
 O327 O 0.53136 -0.03910 -0.05245
 O328 O 0.55798 -0.01914 -0.02677
 C329 C 0.55185 -0.03413 -0.04644
 O330 O 0.47158 0.04417 -0.05595
 Zr331 Zr 0.50130 0.02970 -0.03795
 O332 O 0.55864 0.02235 -0.02672
 O333 O 0.49914 -0.02557 -0.08343
 O334 O 0.50111 0.02308 -0.08623
 O335 O 0.50252 0.06498 -0.03366
 O336 O 0.53242 0.04040 -0.05566
 C337 C 0.55281 0.03608 -0.04817
 O338 O 0.56479 -0.01551 0.02711
 O339 O 0.49959 0.02853 0.09039
 O340 O 0.55791 0.02312 0.03237
 O341 O 0.53126 0.04170 0.05996
 O342 O 0.49809 -0.02163 0.09337
 O343 O 0.52985 -0.03833 0.06636
 C344 C 0.55176 0.03725 0.05321
 H345 H 0.47126 0.00261 0.06375
 H346 H 0.53033 -0.04078 0.00642
 H347 H 0.52980 0.04509 0.00190
 H348 H 0.47114 0.00114 -0.05543
 H349 H 0.49701 -0.06878 0.05875
 H350 H 0.50182 -0.06898 -0.05053
 H351 H 0.49989 -0.04113 -0.09124
 H352 H 0.50525 0.03713 -0.09694
 H353 H 0.49434 -0.03621 0.10292
 H354 H 0.49907 0.04411 0.09814
 H355 H 0.50211 0.07190 0.05780
 H356 H 0.50625 0.07115 -0.05433
 H357 H 0.52617 -0.05057 0.08090
 H358 H 0.57943 -0.01006 0.01939
 H359 H 0.42202 0.01204 -0.01394
 H360 H 0.47529 0.05357 -0.07410
 Zr361 Zr 0.46056 0.49790 0.00283
 O362 O 0.43542 0.51535 0.02749
 O363 O 0.44143 0.47787 -0.02695
 O364 O 0.44219 0.51929 -0.02639
 O365 O 0.46881 0.45778 0.05940
 O366 O 0.46885 0.53934 -0.05181
 O367 O 0.44218 0.47663 0.03211
 O368 O 0.46758 0.45996 -0.05619
 O369 O 0.47906 0.49916 -0.03826
 O370 O 0.47945 0.46856 0.00157
 O371 O 0.47964 0.52731 0.00600
 O372 O 0.47938 0.49787 0.04423
 Zr373 Zr 0.53833 0.49878 0.00413
 Zr374 Zr 0.49939 0.52748 -0.03403
 Zr375 Zr 0.49944 0.46918 0.04109
 Zr376 Zr 0.49875 0.47042 -0.03830
 O377 O 0.50050 0.47071 0.09005
 O378 O 0.49894 0.47737 -0.08647
 O379 O 0.51943 0.46908 0.00110
 O380 O 0.51925 0.49875 -0.03681
 O381 O 0.51966 0.52832 0.00546
 O382 O 0.51954 0.49751 0.04491
 C383 C 0.44721 0.46429 -0.04864
 C384 C 0.44831 0.46231 0.05271
 C385 C 0.44836 0.53437 -0.04589
 O386 O 0.50106 0.52600 -0.08295
 O387 O 0.52990 0.54140 -0.04874
 O388 O 0.55664 0.52171 -0.02290
 C389 C 0.55041 0.53706 -0.04196
 O390 O 0.47042 0.53779 0.06704
 Zr391 Zr 0.50011 0.52625 0.04530
 O392 O 0.55744 0.51912 0.03351
 O393 O 0.49773 0.56256 -0.02837
 O394 O 0.49920 0.56144 0.03970
 O395 O 0.50218 0.52086 0.09378
 O396 O 0.53124 0.53905 0.06001
 C397 C 0.55162 0.53427 0.05307
 O398 O 0.56344 0.48243 -0.02197
 O399 O 0.49840 0.43405 0.03568
 O400 O 0.55674 0.47595 0.03121
 O401 O 0.53001 0.45502 0.05517
 O402 O 0.49741 0.43512 -0.03454
 O403 O 0.52842 0.45599 -0.05650
 C404 C 0.55053 0.45993 0.04922
 H405 H 0.47023 0.45483 0.00131
 H406 H 0.52897 0.49902 -0.05536
 H407 H 0.52890 0.49675 0.06379
 H408 H 0.46991 0.54067 0.00711
 H409 H 0.49476 0.46341 -0.09739
 H410 H 0.50033 0.54161 -0.09052
 H411 H 0.49843 0.56918 -0.04940
 H412 H 0.50331 0.56823 0.05987
 H413 H 0.49365 0.42911 -0.05531
 H414 H 0.49793 0.42756 0.05680
 H415 H 0.50099 0.45508 0.09757
 H416 H 0.50597 0.53537 0.10354
 H417 H 0.52467 0.44672 -0.07480
 H418 H 0.57808 0.48771 -0.01405
 H419 H 0.42077 0.50999 0.01969
 H420 H 0.47414 0.54993 0.08177
 Zr421 Zr 0.03834 -0.00107 0.50422
 O422 O 0.06349 -0.01739 0.47816
 O423 O 0.05740 0.01936 0.53355
 O424 O 0.05659 0.02186 0.47711
 O425 O 0.03012 -0.04479 0.55536
 O426 O 0.02979 0.04143 0.45120
 O427 O 0.05680 -0.02383 0.53135
 O428 O 0.03114 0.03926 0.55999
 O429 O 0.01960 0.02842 0.50546
 O430 O 0.01955 -0.00233 0.54500
 O431 O 0.01926 -0.00122 0.46328
 O432 O 0.01951 -0.03083 0.50128
 Zr433 Zr -0.03944 -0.00216 0.50292
 Zr434 Zr -0.00068 0.02746 0.46597
 Zr435 Zr -0.00048 -0.03071 0.54127
 Zr436 Zr 0.00005 0.02636 0.54530
 O437 O -0.00144 -0.06585 0.53598
 O438 O -0.00094 0.06154 0.53959
 O439 O -0.02061 -0.00207 0.54431
 O440 O -0.02043 0.02730 0.50600
 O441 O -0.02094 -0.00091 0.46183
 O442 O -0.02047 -0.03145 0.50175
 C443 C 0.05154 0.03452 0.55306
 C444 C 0.05062 -0.03984 0.54940
 C445 C 0.05031 0.03716 0.45798
 O446 O -0.00241 0.06255 0.47152
 O447 O -0.03124 0.03923 0.44817
 O448 O -0.05786 0.01916 0.47364
 C449 C -0.05173 0.03423 0.45411
 O450 O 0.02854 -0.04399 0.44372
 Zr451 Zr -0.00117 -0.02960 0.46187
 O452 O -0.05851 -0.02229 0.47319
 O453 O 0.00098 0.02590 0.41705
 O454 O -0.00100 -0.02273 0.41368
 O455 O -0.00241 -0.06490 0.46575
 O456 O -0.03230 -0.04018 0.44402
 C457 C -0.05269 -0.03590 0.45155
 O458 O -0.06463 0.01526 0.52751
 O459 O 0.00059 -0.02909 0.59023
 O460 O -0.05776 -0.02343 0.53227
 O461 O -0.03108 -0.04214 0.55963
 O462 O 0.00212 0.02105 0.59380
 O463 O -0.02967 0.03788 0.56700
 C464 C -0.05160 -0.03768 0.55293
 H465 H 0.02892 -0.00303 0.56388
 H466 H -0.03019 0.04064 0.50707
 H467 H -0.02965 -0.04520 0.50154
 H468 H 0.02898 -0.00095 0.44473
 H469 H 0.00314 0.06837 0.55974
 H470 H -0.00174 0.06914 0.45048
 H471 H 0.00021 0.04150 0.40943
 H472 H -0.00513 -0.03672 0.40280
 H473 H 0.00587 0.03558 0.60352
 H474 H 0.00112 -0.04471 0.59779
 H475 H -0.00190 -0.07230 0.55711
 H476 H -0.00615 -0.07096 0.44501
 H477 H -0.02598 0.05004 0.58170
 H478 H -0.07927 0.00985 0.51972
 H479 H 0.07813 -0.01206 0.48608
 H480 H 0.02482 -0.05329 0.42546
 Zr481 Zr 0.75212 0.21057 0.25297
 O482 O 0.73466 0.18540 0.27750
 O483 O 0.77231 0.19146 0.22337
 O484 O 0.73088 0.19212 0.22361
 O485 O 0.79198 0.21898 0.30989
 O486 O 0.71085 0.21871 0.19801
 O487 O 0.77331 0.19228 0.28247
 O488 O 0.79023 0.21764 0.19423
 O489 O 0.75096 0.22903 0.21185
 O490 O 0.78142 0.22954 0.25192
 O491 O 0.72267 0.22958 0.25589
 O492 O 0.75197 0.22944 0.29433
 Zr493 Zr 0.75105 0.28835 0.25416
 Zr494 Zr 0.72259 0.24930 0.21583
 Zr495 Zr 0.78061 0.24956 0.29140
 Zr496 Zr 0.77964 0.24880 0.21200
 O497 O 0.77892 0.25070 0.34035
 O498 O 0.77287 0.24894 0.16378
 O499 O 0.78080 0.26952 0.25138
 O500 O 0.75127 0.26923 0.21325
 O501 O 0.72156 0.26962 0.25529
 O502 O 0.75223 0.26961 0.29497
 C503 C 0.78593 0.19725 0.20177
 C504 C 0.78751 0.19846 0.30320
 C505 C 0.71585 0.19823 0.20400
 O506 O 0.72423 0.25091 0.16692
 O507 O 0.70865 0.27976 0.20096
 O508 O 0.72816 0.30658 0.22693
 C509 C 0.71290 0.30028 0.20775
 O510 O 0.71198 0.22040 0.31684
 Zr511 Zr 0.72354 0.25011 0.29517
 O512 O 0.73060 0.30746 0.28339
 O513 O 0.68749 0.24757 0.22121
 O514 O 0.68838 0.24915 0.28928
 O515 O 0.72878 0.25220 0.34369
 O516 O 0.71066 0.28122 0.30979
 C517 C 0.71543 0.30161 0.30288
 O518 O 0.76740 0.31349 0.22813
 O519 O 0.81576 0.24857 0.28627
 O520 O 0.77376 0.30685 0.28135
 O521 O 0.79467 0.28019 0.30550
 O522 O 0.81493 0.24754 0.21605
 O523 O 0.79406 0.27849 0.19389
 C524 C 0.78974 0.30069 0.29947
 H525 H 0.79516 0.22034 0.25178
 H526 H 0.75103 0.27894 0.19468
 H527 H 0.75291 0.27899 0.31384
 H528 H 0.70933 0.21983 0.25692
 H529 H 0.78687 0.24479 0.15297
 H530 H 0.70864 0.25014 0.15923
 H531 H 0.68095 0.24823 0.20014
 H532 H 0.68152 0.25326 0.30939
 H533 H 0.82102 0.24378 0.19534
 H534 H 0.82217 0.24813 0.30743
 H535 H 0.79453 0.25124 0.34797
 H536 H 0.71423 0.25596 0.35334
 H537 H 0.80341 0.27475 0.17568
 H538 H 0.76206 0.32813 0.23600
 H539 H 0.74008 0.17075 0.26976
 H540 H 0.69978 0.22411 0.33145
 Zr541 Zr 0.74826 0.78919 0.75336
 O542 O 0.76580 0.81450 0.77759
 O543 O 0.72787 0.80815 0.72383
 O544 O 0.76939 0.80755 0.72374
 O545 O 0.70869 0.78096 0.81067
 O546 O 0.78933 0.78087 0.69815
 O547 O 0.72718 0.80757 0.78291
 O548 O 0.70980 0.78182 0.69507
 O549 O 0.74925 0.77057 0.71234
 O550 O 0.71900 0.77017 0.75270
 O551 O 0.77775 0.77022 0.75617
 O552 O 0.74866 0.77049 0.79484
 Zr553 Zr 0.74945 0.71139 0.75504
 Zr554 Zr 0.77767 0.75034 0.71622
 Zr555 Zr 0.72003 0.75031 0.79230
 Zr556 Zr 0.72060 0.75076 0.71288
 O557 O 0.72199 0.74938 0.84123
 O558 O 0.72715 0.75047 0.66461
 O559 O 0.71966 0.73019 0.75240
 O560 O 0.74900 0.73035 0.71402
 O561 O 0.77891 0.73018 0.75579
 O562 O 0.74844 0.73029 0.79576
 C563 C 0.71409 0.80225 0.70245
 C564 C 0.71307 0.80146 0.80379
 C565 C 0.78436 0.80137 0.70407
 O566 O 0.77578 0.74854 0.66733
 O567 O 0.79156 0.71984 0.70141
 O568 O 0.77222 0.69309 0.72772
 C569 C 0.78737 0.69933 0.70837
 O570 O 0.78870 0.77965 0.81701
 Zr571 Zr 0.77710 0.74984 0.79557
 O572 O 0.77011 0.69243 0.78417
 O573 O 0.81278 0.75211 0.72130
 O574 O 0.81223 0.75089 0.78940
 O575 O 0.77210 0.74788 0.84414
 O576 O 0.79019 0.71880 0.81018
 C577 C 0.78543 0.69837 0.80341
 O578 O 0.73301 0.68612 0.72932
 O579 O 0.68485 0.75124 0.78751
 O580 O 0.72685 0.69299 0.78251
 O581 O 0.70604 0.71974 0.80668
 O582 O 0.68533 0.75192 0.71725
 O583 O 0.70615 0.72097 0.69502
 C584 C 0.71093 0.69921 0.80071
 H585 H 0.70524 0.77933 0.75263
 H586 H 0.74916 0.72058 0.69551
 H587 H 0.74787 0.72098 0.81468
 H588 H 0.79108 0.77999 0.75702
 H589 H 0.71309 0.75456 0.65389
 H590 H 0.79132 0.74930 0.65951
 H591 H 0.81923 0.75137 0.70017
 H592 H 0.81920 0.74688 0.80947
 H593 H 0.67912 0.75558 0.69658
 H594 H 0.67856 0.75176 0.80873
 H595 H 0.70643 0.74885 0.84902
 H596 H 0.78670 0.74416 0.85368
 H597 H 0.69673 0.72463 0.67686
 H598 H 0.73840 0.67152 0.73724
 H599 H 0.76031 0.82911 0.76981
 H600 H 0.80095 0.77601 0.83159
 Zr601 Zr 0.25140 0.29000 0.74721
 O602 O 0.23398 0.31514 0.72254
 O603 O 0.27142 0.30914 0.77700
 O604 O 0.22992 0.30837 0.77638
 O605 O 0.29154 0.28171 0.69066
 O606 O 0.20986 0.28169 0.80175
 O607 O 0.27269 0.30836 0.71792
 O608 O 0.28932 0.28299 0.80623
 O609 O 0.25012 0.27151 0.78831
 O610 O 0.28074 0.27110 0.74850
 O611 O 0.22202 0.27088 0.74400
 O612 O 0.25148 0.27113 0.70583
 Zr613 Zr 0.25058 0.21218 0.74593
 Zr614 Zr 0.22183 0.25115 0.78404
 Zr615 Zr 0.28017 0.25108 0.70899
 Zr616 Zr 0.27886 0.25182 0.78837
 O617 O 0.27867 0.24999 0.66003
 O618 O 0.27187 0.25166 0.83654
 O619 O 0.28026 0.23111 0.74899
 O620 O 0.25056 0.23129 0.78685
 O621 O 0.22104 0.23083 0.74456
 O622 O 0.25187 0.23095 0.70515
 C623 C 0.28502 0.30337 0.79867
 C624 C 0.28701 0.30222 0.69733
 C625 C 0.21480 0.30220 0.79583
 O626 O 0.22327 0.24955 0.83297
 O627 O 0.20796 0.22063 0.79880
 O628 O 0.22766 0.19387 0.77299
 C629 C 0.21232 0.20011 0.79206
 O630 O 0.21158 0.28005 0.68295
 Zr631 Zr 0.22313 0.25037 0.70472
 O632 O 0.23028 0.19304 0.71653
 O633 O 0.18675 0.25273 0.77833
 O634 O 0.18794 0.25125 0.71028
 O635 O 0.22857 0.24830 0.65625
 O636 O 0.21036 0.21923 0.69000
 C637 C 0.21515 0.19884 0.69695
 O638 O 0.26692 0.18708 0.77205
 O639 O 0.31529 0.25216 0.71444
 O640 O 0.27347 0.19376 0.71887
 O641 O 0.29439 0.22051 0.69494
 O642 O 0.31416 0.25315 0.78464
 O643 O 0.29328 0.22216 0.80663
 C644 C 0.28950 0.19998 0.70087
 H645 H 0.29446 0.28033 0.74876
 H646 H 0.25028 0.22158 0.80541
 H647 H 0.25265 0.22158 0.68627
 H648 H 0.20866 0.28059 0.74286
 H649 H 0.28582 0.25586 0.84747
 H650 H 0.20766 0.25025 0.84052
 H651 H 0.18012 0.25204 0.79934
 H652 H 0.18117 0.24713 0.69011
 H653 H 0.32016 0.25692 0.80540
 H654 H 0.32179 0.25264 0.69333
 H655 H 0.29431 0.24951 0.65253
 H656 H 0.21408 0.24448 0.64647
 H657 H 0.30253 0.22593 0.82493
 H658 H 0.26166 0.17242 0.76411
 H659 H 0.23933 0.32980 0.73034
 H660 H 0.19946 0.27631 0.66821
 Zr661 Zr 0.24789 0.71039 0.24673
 O662 O 0.26524 0.68513 0.22216
 O663 O 0.22773 0.69139 0.27647
 O664 O 0.26919 0.69195 0.27603
 O665 O 0.20790 0.71879 0.18998
 O666 O 0.28932 0.71856 0.30150
 O667 O 0.22657 0.69208 0.21736
 O668 O 0.20993 0.71767 0.30563
 O669 O 0.24920 0.72894 0.28781
 O670 O 0.21865 0.72943 0.24788
 O671 O 0.27738 0.72934 0.24366
 O672 O 0.24800 0.72919 0.20534
 Zr673 Zr 0.24915 0.78820 0.24541
 Zr674 Zr 0.27760 0.74914 0.28368
 Zr675 Zr 0.21941 0.74939 0.20835
 Zr676 Zr 0.22056 0.74877 0.28775
 O677 O 0.22101 0.75041 0.15940
 O678 O 0.22744 0.74898 0.33594
 O679 O 0.21936 0.76943 0.24834
 O680 O 0.24897 0.76914 0.28635
 O681 O 0.27859 0.76939 0.24419
 O682 O 0.24783 0.76937 0.20464
 C683 C 0.21416 0.69726 0.29811
 C684 C 0.21233 0.69826 0.19668
 C685 C 0.28428 0.69808 0.29557
 O686 O 0.27607 0.75083 0.33260
 O687 O 0.29163 0.77960 0.29848
 O688 O 0.27212 0.80643 0.27256
 C689 C 0.28740 0.80013 0.29171
 O690 O 0.28792 0.72003 0.18268
 Zr691 Zr 0.27647 0.74980 0.20436
 O692 O 0.26960 0.80719 0.21607
 O693 O 0.31268 0.74733 0.27814
 O694 O 0.31164 0.74875 0.21009
 O695 O 0.27113 0.75182 0.15586
 O696 O 0.28941 0.78085 0.18963
 C697 C 0.28471 0.80127 0.19654
 O698 O 0.23290 0.81342 0.27144
 O699 O 0.18428 0.74850 0.21364
 O700 O 0.22641 0.80668 0.21826
 O701 O 0.20539 0.78001 0.19424
 O702 O 0.18526 0.74760 0.28385
 O703 O 0.20624 0.77853 0.30587
 C704 C 0.21038 0.80052 0.20020
 H705 H 0.20488 0.72027 0.24809
 H706 H 0.24927 0.77888 0.30490
 H707 H 0.24713 0.77872 0.18575
 H708 H 0.29069 0.71956 0.24259
 H709 H 0.21345 0.74489 0.34682
 H710 H 0.29167 0.75004 0.34023
 H711 H 0.31928 0.74801 0.29918
 H712 H 0.31847 0.75281 0.18995
 H713 H 0.17920 0.74389 0.30459
 H714 H 0.17782 0.74804 0.19250
 H715 H 0.20539 0.75097 0.15183
 H716 H 0.28566 0.75554 0.14613
 H717 H 0.19693 0.77485 0.32413
 H718 H 0.23825 0.82804 0.26351
 H719 H 0.25980 0.67051 0.22996
 H720 H 0.30009 0.72369 0.16799
 Zr721 Zr 0.25105 0.78841 0.75410
 O722 O 0.26740 0.81355 0.72809
 O723 O 0.23060 0.80751 0.78334
 O724 O 0.22817 0.80665 0.72689
 O725 O 0.29468 0.78021 0.80542
 O726 O 0.20865 0.77984 0.70090
 O727 O 0.27378 0.80688 0.78129
 O728 O 0.21065 0.78127 0.80972
 O729 O 0.22155 0.76968 0.75522
 O730 O 0.25223 0.76965 0.79490
 O731 O 0.25126 0.76930 0.71318
 O732 O 0.28080 0.76957 0.75131
 Zr733 Zr 0.25210 0.71062 0.75287
 Zr734 Zr 0.22257 0.74937 0.71576
 Zr735 Zr 0.28060 0.74960 0.79132
 Zr736 Zr 0.22354 0.75016 0.79509
 O737 O 0.31575 0.74859 0.78619
 O738 O 0.18837 0.74919 0.78922
 O739 O 0.25195 0.72948 0.79424
 O740 O 0.22265 0.72964 0.75580
 O741 O 0.25094 0.72910 0.71176
 O742 O 0.28140 0.72958 0.75182
 C743 C 0.21542 0.80166 0.80281
 C744 C 0.28976 0.80071 0.79941
 C745 C 0.21292 0.80036 0.70770
 O746 O 0.18748 0.74765 0.72114
 O747 O 0.21083 0.71879 0.69791
 O748 O 0.23085 0.69219 0.72350
 C749 C 0.21583 0.69831 0.70388
 O750 O 0.29406 0.77855 0.69384
 Zr751 Zr 0.27962 0.74885 0.71192
 O752 O 0.27228 0.69152 0.72325
 O753 O 0.22421 0.75100 0.66684
 O754 O 0.27285 0.74902 0.66370
 O755 O 0.31491 0.74758 0.71596
 O756 O 0.29019 0.71770 0.69411
 C757 C 0.28589 0.69732 0.70164
 O758 O 0.23463 0.68545 0.77739
 O759 O 0.27891 0.75073 0.84027
 O760 O 0.27329 0.69231 0.78235
 O761 O 0.29196 0.71900 0.80978
 O762 O 0.22877 0.75224 0.84361
 O763 O 0.21197 0.72045 0.81675
 C764 C 0.28750 0.69849 0.80309
 H765 H 0.25291 0.77903 0.81378
 H766 H 0.20931 0.71989 0.75682
 H767 H 0.29514 0.72038 0.75168
 H768 H 0.25102 0.77901 0.69462
 H769 H 0.18151 0.75330 0.80932
 H770 H 0.18093 0.74832 0.70007
 H771 H 0.20862 0.75023 0.65915
 H772 H 0.28686 0.74488 0.65288
 H773 H 0.21423 0.75601 0.85326
 H774 H 0.29452 0.75125 0.84789
 H775 H 0.32216 0.74815 0.80735
 H776 H 0.32100 0.74382 0.69524
 H777 H 0.19977 0.72416 0.83138
 H778 H 0.24005 0.67080 0.76964
 H779 H 0.26208 0.82819 0.73598
 H780 H 0.30341 0.77482 0.67563
 Zr781 Zr 0.24886 0.21142 0.25388
 O782 O 0.23250 0.18607 0.22818
 O783 O 0.26948 0.19254 0.28318
 O784 O 0.27171 0.19309 0.22671
 O785 O 0.20534 0.21979 0.30532
 O786 O 0.29106 0.21982 0.20037
 O787 O 0.22623 0.19303 0.28134
 O788 O 0.28944 0.21899 0.30918
 O789 O 0.27829 0.23024 0.25467
 O790 O 0.24775 0.23040 0.29451
 O791 O 0.24846 0.23030 0.21279
 O792 O 0.21905 0.23017 0.25105
 Zr793 Zr 0.24757 0.28921 0.25191
 Zr794 Zr 0.27710 0.25033 0.21502
 Zr795 Zr 0.21931 0.25036 0.29088
 Zr796 Zr 0.27638 0.24998 0.29437
 O797 O 0.18415 0.25125 0.28593
 O798 O 0.31152 0.25104 0.28831
 O799 O 0.24790 0.27058 0.29346
 O800 O 0.27708 0.27028 0.25490
 O801 O 0.24866 0.27051 0.21096
 O802 O 0.21833 0.27015 0.25121
 C803 C 0.28472 0.19854 0.30249
 C804 C 0.21028 0.19927 0.29946
 C805 C 0.28689 0.19932 0.20739
 O806 O 0.31220 0.25215 0.22022
 O807 O 0.28877 0.28084 0.19690
 O808 O 0.26874 0.30754 0.22232
 C809 C 0.28376 0.30135 0.20274
 O810 O 0.20566 0.22083 0.19366
 Zr811 Zr 0.22004 0.25066 0.21147
 O812 O 0.22722 0.30809 0.22223
 O813 O 0.27530 0.24844 0.16614
 O814 O 0.22668 0.25029 0.16322
 O815 O 0.18476 0.25180 0.21571
 O816 O 0.20924 0.28168 0.19349
 C817 C 0.21350 0.30213 0.20081
 O818 O 0.26503 0.31460 0.27610
 O819 O 0.22116 0.24951 0.33983
 O820 O 0.22643 0.30762 0.28136
 O821 O 0.20793 0.28103 0.30914
 O822 O 0.27128 0.24814 0.34293
 O823 O 0.28791 0.27985 0.31573
 C824 C 0.21232 0.30152 0.30223
 H825 H 0.24714 0.22112 0.31348
 H826 H 0.29039 0.28007 0.25577
 H827 H 0.20456 0.27931 0.25106
 H828 H 0.24867 0.22049 0.19431
 H829 H 0.31846 0.24708 0.30843
 H830 H 0.31869 0.25137 0.19912
 H831 H 0.29086 0.24920 0.15836
 H832 H 0.21263 0.25434 0.15244
 H833 H 0.28586 0.24446 0.35255
 H834 H 0.20558 0.24898 0.34754
 H835 H 0.17780 0.25180 0.30713
 H836 H 0.17858 0.25542 0.19500
 H837 H 0.30015 0.27625 0.33035
 H838 H 0.25953 0.32918 0.26825
 H839 H 0.23790 0.17149 0.23618
 H840 H 0.19625 0.22444 0.17547
 Zr841 Zr 0.75118 0.71147 0.24570
 O842 O 0.76759 0.68632 0.27164
 O843 O 0.73079 0.69239 0.21635
 O844 O 0.72832 0.69312 0.27280
 O845 O 0.79483 0.71989 0.19448
 O846 O 0.70871 0.71985 0.29882
 O847 O 0.77398 0.69310 0.21844
 O848 O 0.71080 0.71864 0.19004
 O849 O 0.72165 0.73015 0.24458
 O850 O 0.75235 0.73032 0.20498
 O851 O 0.75130 0.73051 0.28669
 O852 O 0.78088 0.73038 0.24865
 Zr853 Zr 0.75204 0.78929 0.24726
 Zr854 Zr 0.72257 0.75039 0.28412
 Zr855 Zr 0.78067 0.75044 0.20873
 Zr856 Zr 0.72362 0.74976 0.20480
 O857 O 0.81581 0.75149 0.21397
 O858 O 0.68845 0.75064 0.21058
 O859 O 0.75198 0.77050 0.20581
 O860 O 0.72264 0.77020 0.24416
 O861 O 0.75088 0.77072 0.28829
 O862 O 0.78138 0.77038 0.24830
 C863 C 0.71560 0.69825 0.19688
 C864 C 0.78995 0.69935 0.20036
 C865 C 0.71302 0.69935 0.29197
 O866 O 0.68748 0.75202 0.27864
 O867 O 0.71070 0.78090 0.30205
 O868 O 0.73067 0.80762 0.27664
 C869 C 0.71563 0.80141 0.29618
 O870 O 0.79409 0.72133 0.30617
 Zr871 Zr 0.77961 0.75102 0.28812
 O872 O 0.77215 0.80837 0.27701
 O873 O 0.72417 0.74867 0.33304
 O874 O 0.77278 0.75077 0.33632
 O875 O 0.81490 0.75236 0.28417
 O876 O 0.79013 0.78216 0.30605
 C877 C 0.78579 0.80256 0.29859
 O878 O 0.73455 0.81448 0.22278
 O879 O 0.77903 0.74944 0.15977
 O880 O 0.77324 0.80770 0.21791
 O881 O 0.79200 0.78110 0.19044
 O882 O 0.72891 0.74777 0.15629
 O883 O 0.71201 0.77948 0.18320
 C884 C 0.78749 0.80160 0.19720
 H885 H 0.75307 0.72099 0.18606
 H886 H 0.70928 0.77991 0.24314
 H887 H 0.79510 0.77961 0.24852
 H888 H 0.75107 0.72077 0.30522
 H889 H 0.68161 0.74656 0.19044
 H890 H 0.68091 0.75129 0.29969
 H891 H 0.70858 0.74937 0.34069
 H892 H 0.78676 0.75493 0.34719
 H893 H 0.71438 0.74398 0.14658
 H894 H 0.79464 0.74896 0.15218
 H895 H 0.82224 0.75201 0.19283
 H896 H 0.82097 0.75609 0.30491
 H897 H 0.69984 0.77577 0.16853
 H898 H 0.73993 0.82912 0.23061
 H899 H 0.76230 0.67168 0.26369
 H900 H 0.80341 0.72506 0.32442
 Zr901 Zr 0.74915 0.28896 0.74671
 O902 O 0.73294 0.31422 0.77272
 O903 O 0.76954 0.30791 0.71724
 O904 O 0.77218 0.30724 0.77370
 O905 O 0.70531 0.28070 0.69570
 O906 O 0.79174 0.28046 0.79964
 O907 O 0.72636 0.30740 0.71957
 O908 O 0.78932 0.28153 0.69083
 O909 O 0.77859 0.27015 0.74545
 O910 O 0.74776 0.27007 0.70600
 O911 O 0.74904 0.26997 0.78771
 O912 O 0.71936 0.27019 0.74979
 Zr913 Zr 0.74790 0.21116 0.74826
 Zr914 Zr 0.77767 0.24996 0.78501
 Zr915 Zr 0.71935 0.25009 0.70986
 Zr916 Zr 0.77640 0.25050 0.70568
 O917 O 0.68422 0.24922 0.71526
 O918 O 0.81158 0.24946 0.71130
 O919 O 0.74794 0.22989 0.70681
 O920 O 0.77738 0.23011 0.74504
 O921 O 0.74927 0.22976 0.78929
 O922 O 0.71866 0.23020 0.74945
 C923 C 0.78464 0.30196 0.69769
 C924 C 0.71031 0.30121 0.70158
 C925 C 0.78750 0.30097 0.79280
 O926 O 0.81274 0.24814 0.77937
 O927 O 0.78942 0.21941 0.80288
 O928 O 0.76923 0.19277 0.77755
 C929 C 0.78435 0.19891 0.79703
 O930 O 0.70635 0.27937 0.80737
 Zr931 Zr 0.72063 0.24959 0.78926
 O932 O 0.72779 0.19220 0.77810
 O933 O 0.77622 0.25175 0.83393
 O934 O 0.72760 0.24985 0.83743
 O935 O 0.68532 0.24843 0.78548
 O936 O 0.71001 0.21851 0.80723
 C937 C 0.71423 0.19809 0.79974
 O938 O 0.76522 0.18587 0.72371
 O939 O 0.72087 0.25104 0.66090
 O940 O 0.72654 0.19281 0.71901
 O941 O 0.70781 0.21946 0.69162
 O942 O 0.77099 0.25245 0.65719
 O943 O 0.78781 0.22069 0.68406
 C944 C 0.71225 0.19895 0.69836
 H945 H 0.74703 0.27939 0.68708
 H946 H 0.79069 0.22032 0.74397
 H947 H 0.70489 0.22104 0.74973
 H948 H 0.74937 0.27974 0.80623
 H949 H 0.81838 0.25348 0.69112
 H950 H 0.81937 0.24885 0.80039
 H951 H 0.79183 0.25096 0.84150
 H952 H 0.71363 0.24576 0.84836
 H953 H 0.78551 0.25615 0.64742
 H954 H 0.70523 0.25159 0.65338
 H955 H 0.67773 0.24872 0.69415
 H956 H 0.67930 0.24475 0.80625
 H957 H 0.79995 0.22433 0.66932
 H958 H 0.75979 0.17126 0.73156
 H959 H 0.73827 0.32882 0.76474
 H960 H 0.69709 0.27571 0.82568
 C961 C 0.10703 0.44066 0.92319
 C962 C 0.10115 0.42439 0.90141
 C963 C 0.07870 0.42132 0.89360
 C964 C 0.06210 0.43414 0.90785
 C965 C 0.06764 0.45036 0.93046
 C966 C 0.09052 0.45357 0.93754
 C967 C 0.11799 0.41023 0.88788
 C968 C 0.13173 0.39786 0.87676
 C969 C 0.14735 0.38280 0.86388
 C970 C 0.16020 0.36943 0.85295
 C971 C 0.17488 0.35284 0.83988
 C972 C 0.19172 0.35897 0.81905
 C973 C 0.20511 0.34258 0.80521
 C974 C 0.20175 0.31979 0.81198
 C975 C 0.18505 0.31390 0.83345
 C976 C 0.17174 0.33030 0.84724
 H977 H 0.12438 0.44316 0.92943
 H978 H 0.07396 0.40875 0.87675
 H979 H 0.04490 0.43098 0.90134
 H980 H 0.09581 0.46578 0.95457
 H981 H 0.19429 0.37637 0.81316
 H982 H 0.21779 0.34773 0.78882
 H983 H 0.18198 0.29657 0.83928
 H984 H 0.15875 0.32535 0.86331
 C985 C 0.39148 0.56000 0.42404
 C986 C 0.39728 0.57570 0.40143
 C987 C 0.41967 0.57830 0.39288
 C988 C 0.43627 0.56554 0.40722
 C989 C 0.43069 0.54996 0.43040
 C990 C 0.40804 0.54719 0.43842
 C991 C 0.38045 0.58983 0.38788
 C992 C 0.36672 0.60219 0.37674
 C993 C 0.35114 0.61726 0.36387
 C994 C 0.33833 0.63065 0.35294
 C995 C 0.32375 0.64729 0.33987
 C996 C 0.30694 0.64122 0.31893
 C997 C 0.29369 0.65767 0.30502
 C998 C 0.29715 0.68043 0.31182
 C999 C 0.31381 0.68626 0.33342
 C1000 C 0.32698 0.66981 0.34728
 H1001 H 0.37419 0.55790 0.43091
 H1002 H 0.42435 0.59045 0.37545
 H1003 H 0.45349 0.56813 0.40044
 H1004 H 0.40312 0.53541 0.45619
 H1005 H 0.30432 0.62382 0.31300
 H1006 H 0.28104 0.65257 0.28853
 H1007 H 0.31695 0.70358 0.33928
 H1008 H 0.33996 0.67469 0.36344
 C1009 C 0.91974 0.92114 0.60668
 C1010 C 0.89734 0.92372 0.59812
 C1011 C 0.89152 0.93950 0.57562
 C1012 C 0.90805 0.95242 0.56138
 C1013 C 0.93071 0.94967 0.56940
 C1014 C 0.93632 0.93401 0.59246
 C1015 C 0.88054 0.90952 0.61158
 C1016 C 0.86682 0.89713 0.62265
 C1017 C 0.85124 0.88204 0.63547
 C1018 C 0.83842 0.86865 0.64640
 C1019 C 0.82381 0.85204 0.65949
 C1020 C 0.82695 0.82951 0.65206
 C1021 C 0.81376 0.81310 0.66599
 C1022 C 0.79720 0.81897 0.68768
 C1023 C 0.79382 0.84175 0.69449
 C1024 C 0.80708 0.85816 0.68051
 H1025 H 0.92445 0.90893 0.62402
 H1026 H 0.87423 0.94160 0.56876
 H1027 H 0.90311 0.96426 0.54369
 H1028 H 0.95354 0.93143 0.59925
 H1029 H 0.83986 0.82459 0.63584
 H1030 H 0.81684 0.79577 0.66013
 H1031 H 0.78124 0.84689 0.71105
 H1032 H 0.80452 0.87556 0.68646
 C1033 C 0.60868 0.05987 0.07609
 C1034 C 0.60288 0.07557 0.09873
 C1035 C 0.58050 0.07813 0.10736
 C1036 C 0.56390 0.06534 0.09305
 C1037 C 0.56948 0.04978 0.06982
 C1038 C 0.59212 0.04703 0.06174
 C1039 C 0.61970 0.08975 0.11220
 C1040 C 0.63342 0.10215 0.12323
 C1041 C 0.64901 0.11727 0.13598
 C1042 C 0.66182 0.13071 0.14682
 C1043 C 0.67641 0.14737 0.15980
 C1044 C 0.67315 0.16987 0.15234
 C1045 C 0.68633 0.18636 0.16616
 C1046 C 0.70299 0.18057 0.18775
 C1047 C 0.70648 0.15782 0.19458
 C1048 C 0.69323 0.14134 0.18071
 H1049 H 0.62595 0.05780 0.06917
 H1050 H 0.57582 0.09028 0.12482
 H1051 H 0.54668 0.06791 0.09987
 H1052 H 0.59704 0.03527 0.04393
 H1053 H 0.66016 0.17472 0.13620
 H1054 H 0.68317 0.20366 0.16029
 H1055 H 0.71914 0.15275 0.21107
 H1056 H 0.69587 0.12396 0.18667
 C1057 C 0.89144 0.05697 0.43083
 C1058 C 0.89751 0.07379 0.40994
 C1059 C 0.92002 0.07701 0.40252
 C1060 C 0.93647 0.06380 0.41633
 C1061 C 0.93064 0.04713 0.43789
 C1062 C 0.90788 0.04368 0.44469
 C1063 C 0.88088 0.08841 0.39695
 C1064 C 0.86748 0.10123 0.38608
 C1065 C 0.85240 0.11683 0.37329
 C1066 C 0.84003 0.13057 0.36221
 C1067 C 0.82587 0.14738 0.34871
 C1068 C 0.81011 0.14155 0.32617
 C1069 C 0.79727 0.15810 0.31182
 C1070 C 0.80008 0.18076 0.31979
 C1071 C 0.81571 0.18638 0.34290
 C1072 C 0.82851 0.16979 0.35721
 H1073 H 0.87405 0.05435 0.43676
 H1074 H 0.92490 0.09000 0.38641
 H1075 H 0.95378 0.06693 0.41048
 H1076 H 0.90279 0.03102 0.46114
 H1077 H 0.80798 0.12425 0.31935
 H1078 H 0.78544 0.15315 0.29411
 H1079 H 0.81833 0.20361 0.34963
 H1080 H 0.84071 0.17449 0.37458
 C1081 C 0.42014 0.42320 0.59810
 C1082 C 0.39761 0.42650 0.59081
 C1083 C 0.39155 0.44332 0.56991
 C1084 C 0.40800 0.45652 0.55592
 C1085 C 0.43076 0.45300 0.56260
 C1086 C 0.43660 0.43633 0.58416
 C1087 C 0.38095 0.41198 0.60395
 C1088 C 0.36750 0.39924 0.61490
 C1089 C 0.35234 0.38374 0.62775
 C1090 C 0.33990 0.37006 0.63882
 C1091 C 0.32565 0.35328 0.65224
 C1092 C 0.32817 0.33089 0.64360
 C1093 C 0.31529 0.31432 0.65778
 C1094 C 0.29966 0.31993 0.68089
 C1095 C 0.29696 0.34258 0.68900
 C1096 C 0.30990 0.35912 0.67479
 H1097 H 0.42502 0.41021 0.61422
 H1098 H 0.37415 0.44600 0.56407
 H1099 H 0.40289 0.46919 0.53947
 H1100 H 0.45391 0.43314 0.58992
 H1101 H 0.34035 0.32618 0.62621
 H1102 H 0.31782 0.29710 0.65092
 H1103 H 0.28515 0.34752 0.70673
 H1104 H 0.30786 0.37640 0.68172
 C1105 C 0.58014 0.92312 0.90189
 C1106 C 0.60264 0.92632 0.90941
 C1107 C 0.60869 0.94314 0.93033
 C1108 C 0.59224 0.95644 0.94416
 C1109 C 0.56949 0.95300 0.93729
 C1110 C 0.56368 0.93634 0.91568
 C1111 C 0.61929 0.91167 0.89650
 C1112 C 0.63273 0.89883 0.88575
 C1113 C 0.64787 0.88321 0.87312
 C1114 C 0.66031 0.86947 0.86220
 C1115 C 0.67456 0.85264 0.84888
 C1116 C 0.69025 0.85840 0.82624
 C1117 C 0.70316 0.84183 0.81205
 C1118 C 0.70049 0.81921 0.82028
 C1119 C 0.68494 0.81367 0.84351
 C1120 C 0.67207 0.83028 0.85766
 H1121 H 0.57527 0.91013 0.88574
 H1122 H 0.62607 0.94575 0.93634
 H1123 H 0.59733 0.96909 0.96067
 H1124 H 0.54638 0.93322 0.90977
 H1125 H 0.69227 0.87566 0.81921
 H1126 H 0.71492 0.84672 0.79424
 H1127 H 0.68242 0.79646 0.85044
 H1128 H 0.65993 0.82563 0.87512
 C1129 C 0.10838 0.55688 0.06807
 C1130 C 0.10227 0.57363 0.08909
 C1131 C 0.07974 0.57677 0.09650
 C1132 C 0.06333 0.56355 0.08257
 C1133 C 0.06920 0.54695 0.06090
 C1134 C 0.09197 0.54359 0.05409
 C1135 C 0.11886 0.58826 0.10227
 C1136 C 0.13221 0.60109 0.11331
 C1137 C 0.14725 0.61668 0.12632
 C1138 C 0.15959 0.63041 0.13754
 C1139 C 0.17375 0.64722 0.15119
 C1140 C 0.17117 0.66964 0.14272
 C1141 C 0.18402 0.68620 0.15705
 C1142 C 0.19965 0.68057 0.18015
 C1143 C 0.20238 0.65790 0.18811
 C1144 C 0.18949 0.64137 0.17374
 H1145 H 0.12577 0.55433 0.06214
 H1146 H 0.07481 0.58969 0.11271
 H1147 H 0.04601 0.56662 0.08843
 H1148 H 0.09710 0.53099 0.03754
 H1149 H 0.15900 0.67436 0.12533
 H1150 H 0.18145 0.70344 0.15031
 H1151 H 0.21420 0.65293 0.20582
 H1152 H 0.19158 0.62407 0.18055
 C1153 C 0.41939 0.92298 0.10392
 C1154 C 0.39714 0.92556 0.09470
 C1155 C 0.39157 0.94154 0.07236
 C1156 C 0.40825 0.95473 0.05898
 C1157 C 0.43076 0.95203 0.06776
 C1158 C 0.43609 0.93610 0.09058
 C1159 C 0.38027 0.91115 0.10743
 C1160 C 0.36661 0.89854 0.11806
 C1161 C 0.35122 0.88316 0.13050
 C1162 C 0.33860 0.86952 0.14116
 C1163 C 0.32420 0.85268 0.15397
 C1164 C 0.32669 0.83041 0.14474
 C1165 C 0.31359 0.81374 0.15819
 C1166 C 0.29778 0.81912 0.18115
 C1167 C 0.29515 0.84164 0.18993
 C1168 C 0.30831 0.85829 0.17643
 H1169 H 0.42387 0.91061 0.12116
 H1170 H 0.37439 0.94360 0.06498
 H1171 H 0.40355 0.96677 0.04142
 H1172 H 0.45321 0.93358 0.09794
 H1173 H 0.33899 0.82590 0.12741
 H1174 H 0.31606 0.79661 0.15084
 H1175 H 0.28320 0.84638 0.20759
 H1176 H 0.30631 0.87549 0.18382
 C1177 C 0.60873 0.44200 0.42722
 C1178 C 0.60318 0.42607 0.40477
 C1179 C 0.58093 0.42348 0.39554
 C1180 C 0.56421 0.43653 0.40899
 C1181 C 0.56952 0.45240 0.43192
 C1182 C 0.59202 0.45513 0.44071
 C1183 C 0.62006 0.41172 0.39197
 C1184 C 0.63372 0.39912 0.38129
 C1185 C 0.64911 0.38373 0.36881
 C1186 C 0.66171 0.37007 0.35814
 C1187 C 0.67607 0.35319 0.34534
 C1188 C 0.69195 0.35873 0.32285
 C1189 C 0.70507 0.34202 0.30938
 C1190 C 0.70240 0.31952 0.31821
 C1191 C 0.68658 0.31422 0.34119
 C1192 C 0.67353 0.33095 0.35463
 H1193 H 0.62591 0.44407 0.43460
 H1194 H 0.57647 0.41114 0.37822
 H1195 H 0.54710 0.43400 0.40163
 H1196 H 0.59671 0.46712 0.45835
 H1197 H 0.69398 0.37590 0.31543
 H1198 H 0.71703 0.34669 0.29170
 H1199 H 0.68409 0.29711 0.34859
 H1200 H 0.66123 0.32649 0.37198
 C1201 C 0.89287 0.55691 0.92445
 C1202 C 0.89866 0.57397 0.90388
 C1203 C 0.92108 0.57752 0.89635
 C1204 C 0.93775 0.56433 0.90967
 C1205 C 0.93231 0.54723 0.93100
 C1206 C 0.90947 0.54360 0.93786
 C1207 C 0.88179 0.58843 0.89121
 C1208 C 0.86811 0.60109 0.88067
 C1209 C 0.85267 0.61651 0.86838
 C1210 C 0.83997 0.63017 0.85787
 C1211 C 0.82545 0.64700 0.84526
 C1212 C 0.80933 0.64137 0.82312
 C1213 C 0.79599 0.65800 0.80987
 C1214 C 0.79867 0.68054 0.81858
 C1215 C 0.81474 0.68594 0.84121
 C1216 C 0.82800 0.66928 0.85442
 H1217 H 0.87553 0.55405 0.93045
 H1218 H 0.92573 0.59072 0.88043
 H1219 H 0.95492 0.56785 0.90340
 H1220 H 0.90428 0.53073 0.95396
 H1221 H 0.80727 0.62417 0.81579
 H1222 H 0.78386 0.65325 0.79245
 H1223 H 0.81726 0.70307 0.84850
 H1224 H 0.84047 0.67382 0.87151
 C1225 C 0.10859 0.05815 0.57294
 C1226 C 0.10304 0.07405 0.59543
 C1227 C 0.08081 0.07653 0.60477
 C1228 C 0.06410 0.06341 0.59139
 C1229 C 0.06942 0.04758 0.56840
 C1230 C 0.09191 0.04496 0.55952
 C1231 C 0.11989 0.08848 0.60814
 C1232 C 0.13354 0.10114 0.61875
 C1233 C 0.14891 0.11658 0.63113
 C1234 C 0.16151 0.13027 0.64174
 C1235 C 0.17588 0.14719 0.65448
 C1236 C 0.17334 0.16941 0.64513
 C1237 C 0.18638 0.18617 0.65854
 C1238 C 0.20218 0.18091 0.68158
 C1239 C 0.20486 0.15842 0.69047
 C1240 C 0.19175 0.14169 0.67702
 H1241 H 0.12576 0.05616 0.56547
 H1242 H 0.07633 0.08884 0.62212
 H1243 H 0.04700 0.06587 0.59882
 H1244 H 0.09660 0.03300 0.54183
 H1245 H 0.16105 0.17383 0.62774
 H1246 H 0.18388 0.20326 0.65110
 H1247 H 0.21680 0.15378 0.70820
 H1248 H 0.19378 0.12453 0.68450
 C1249 C 0.07986 0.42320 0.40141
 C1250 C 0.10238 0.42639 0.40881
 C1251 C 0.10849 0.44316 0.42979
 C1252 C 0.09207 0.45642 0.44377
 C1253 C 0.06930 0.45300 0.43699
 C1254 C 0.06344 0.43639 0.41534
 C1255 C 0.11898 0.41177 0.39574
 C1256 C 0.13237 0.39894 0.38483
 C1257 C 0.14744 0.38334 0.37202
 C1258 C 0.15980 0.36958 0.36096
 C1259 C 0.17396 0.35274 0.34750
 C1260 C 0.18960 0.35849 0.32479
 C1261 C 0.20244 0.34190 0.31051
 C1262 C 0.19975 0.31928 0.31872
 C1263 C 0.18424 0.31375 0.34201
 C1264 C 0.17144 0.33037 0.35625
 H1265 H 0.07494 0.41025 0.38522
 H1266 H 0.12588 0.44574 0.43572
 H1267 H 0.09720 0.46903 0.46030
 H1268 H 0.04612 0.43328 0.40950
 H1269 H 0.19164 0.37575 0.31777
 H1270 H 0.21417 0.34678 0.29265
 H1271 H 0.18171 0.29655 0.34893
 H1272 H 0.15934 0.32573 0.37376
 C1273 C 0.39155 0.55709 0.93068
 C1274 C 0.39764 0.57396 0.90989
 C1275 C 0.42016 0.57724 0.90260
 C1276 C 0.43660 0.56404 0.91644
 C1277 C 0.43075 0.54731 0.93789
 C1278 C 0.40798 0.54381 0.94457
 C1279 C 0.38101 0.58856 0.89684
 C1280 C 0.36759 0.60136 0.88594
 C1281 C 0.35249 0.61692 0.87313
 C1282 C 0.34010 0.63063 0.86204
 C1283 C 0.32591 0.64743 0.84854
 C1284 C 0.31018 0.64159 0.82597
 C1285 C 0.29732 0.65813 0.81163
 C1286 C 0.30008 0.68079 0.81965
 C1287 C 0.31568 0.68641 0.84280
 C1288 C 0.32850 0.66984 0.85710
 H1289 H 0.37415 0.55442 0.93651
 H1290 H 0.42506 0.59027 0.88656
 H1291 H 0.45392 0.56721 0.91069
 H1292 H 0.40286 0.53109 0.96094
 H1293 H 0.30810 0.62430 0.81910
 H1294 H 0.28552 0.65318 0.79389
 H1295 H 0.31826 0.70364 0.84958
 H1296 H 0.34067 0.67454 0.87451
 C1297 C 0.60828 0.05723 0.57064
 C1298 C 0.60213 0.07402 0.59156
 C1299 C 0.57959 0.07714 0.59894
 C1300 C 0.56321 0.06386 0.58506
 C1301 C 0.56912 0.04721 0.56348
 C1302 C 0.59190 0.04387 0.55671
 C1303 C 0.61870 0.08871 0.60467
 C1304 C 0.63204 0.10158 0.61563
 C1305 C 0.64708 0.11722 0.62853
 C1306 C 0.65943 0.13098 0.63967
 C1307 C 0.67360 0.14782 0.65320
 C1308 C 0.67099 0.17022 0.64468
 C1309 C 0.68386 0.18681 0.65890
 C1310 C 0.69955 0.18122 0.68194
 C1311 C 0.70231 0.15857 0.68995
 C1312 C 0.68940 0.14201 0.67570
 H1313 H 0.62568 0.05468 0.56473
 H1314 H 0.57464 0.09010 0.61508
 H1315 H 0.54588 0.06691 0.59090
 H1316 H 0.59706 0.03124 0.54023
 H1317 H 0.65877 0.17492 0.62733
 H1318 H 0.68126 0.20404 0.65212
 H1319 H 0.71417 0.15364 0.70762
 H1320 H 0.69152 0.12473 0.68254
 C1321 C 0.92028 0.92285 0.09786
 C1322 C 0.89775 0.92615 0.09062
 C1323 C 0.89165 0.94301 0.06981
 C1324 C 0.90807 0.95626 0.05585
 C1325 C 0.93085 0.95275 0.06249
 C1326 C 0.93672 0.93603 0.08395
 C1327 C 0.88112 0.91159 0.10374
 C1328 C 0.86770 0.89881 0.11468
 C1329 C 0.85258 0.88327 0.12753
 C1330 C 0.84017 0.86956 0.13860
 C1331 C 0.82597 0.85275 0.15205
 C1332 C 0.82850 0.83037 0.14334
 C1333 C 0.81566 0.81377 0.15754
 C1334 C 0.80009 0.81934 0.18074
 C1335 C 0.79739 0.84197 0.18892
 C1336 C 0.81027 0.85854 0.17468
 H1337 H 0.92520 0.90983 0.11392
 H1338 H 0.87424 0.94569 0.06401
 H1339 H 0.90294 0.96896 0.03947
 H1340 H 0.95404 0.93284 0.08968
 H1341 H 0.84064 0.82569 0.12589
 H1342 H 0.81820 0.79656 0.15064
 H1343 H 0.78561 0.84688 0.20672
 H1344 H 0.80823 0.87581 0.18166
 C1345 C 0.89144 0.06041 0.92488
 C1346 C 0.89723 0.07616 0.90234
 C1347 C 0.91961 0.07871 0.89368
 C1348 C 0.93620 0.06584 0.90784
 C1349 C 0.93063 0.05021 0.93096
 C1350 C 0.90799 0.04749 0.93908
 C1351 C 0.88042 0.09040 0.88896
 C1352 C 0.86671 0.10284 0.87795
 C1353 C 0.85116 0.11799 0.86519
 C1354 C 0.83838 0.13144 0.85433
 C1355 C 0.82381 0.14811 0.84130
 C1356 C 0.80689 0.14205 0.82055
 C1357 C 0.79365 0.15850 0.80665
 C1358 C 0.79724 0.18128 0.81328
 C1359 C 0.81401 0.18710 0.83470
 C1360 C 0.82718 0.17064 0.84855
 H1361 H 0.87417 0.05835 0.93182
 H1362 H 0.92428 0.09090 0.87630
 H1363 H 0.95341 0.06839 0.90099
 H1364 H 0.90308 0.03567 0.95681
 H1365 H 0.80416 0.12464 0.81475
 H1366 H 0.78090 0.15340 0.79030
 H1367 H 0.81725 0.20443 0.84041
 H1368 H 0.84025 0.17552 0.86456
 C1369 C 0.10876 0.55996 0.57566
 C1370 C 0.10298 0.57564 0.59834
 C1371 C 0.08061 0.57818 0.60704
 C1372 C 0.06400 0.56538 0.59276
 C1373 C 0.06955 0.54984 0.56950
 C1374 C 0.09218 0.54712 0.56134
 C1375 C 0.11980 0.58982 0.61180
 C1376 C 0.13352 0.60222 0.62285
 C1377 C 0.14909 0.61735 0.63563
 C1378 C 0.16188 0.63079 0.64651
 C1379 C 0.17644 0.64746 0.65954
 C1380 C 0.17316 0.66997 0.65215
 C1381 C 0.18631 0.68645 0.66602
 C1382 C 0.20298 0.68065 0.68761
 C1383 C 0.20649 0.65789 0.69438
 C1384 C 0.19326 0.64142 0.68046
 H1385 H 0.12602 0.55791 0.56868
 H1386 H 0.07595 0.59031 0.62453
 H1387 H 0.04679 0.56793 0.59964
 H1388 H 0.09708 0.53536 0.54351
 H1389 H 0.16017 0.67482 0.63601
 H1390 H 0.18314 0.70376 0.66020
 H1391 H 0.21915 0.65282 0.71085
 H1392 H 0.19592 0.62403 0.68637
 C1393 C 0.60842 0.93926 0.42565
 C1394 C 0.60260 0.92360 0.40296
 C1395 C 0.58020 0.92113 0.39430
 C1396 C 0.56365 0.93400 0.40856
 C1397 C 0.56925 0.94955 0.43179
 C1398 C 0.59190 0.95218 0.43996
 C1399 C 0.61939 0.90941 0.38937
 C1400 C 0.63308 0.89703 0.37816
 C1401 C 0.64863 0.88196 0.36515
 C1402 C 0.66141 0.86859 0.35407
 C1403 C 0.67601 0.85200 0.34082
 C1404 C 0.69278 0.85816 0.31990
 C1405 C 0.70607 0.84178 0.30587
 C1406 C 0.70268 0.81899 0.31252
 C1407 C 0.68604 0.81306 0.33407
 C1408 C 0.67283 0.82945 0.34806
 H1409 H 0.62570 0.94126 0.43261
 H1410 H 0.57549 0.90902 0.37680
 H1411 H 0.54643 0.93152 0.40166
 H1412 H 0.59684 0.96393 0.45778
 H1413 H 0.69537 0.87558 0.31410
 H1414 H 0.71870 0.84696 0.28941
 H1415 H 0.68295 0.79573 0.33981
 H1416 H 0.65988 0.82449 0.36419
 C1417 C 0.41952 0.42102 0.10616
 C1418 C 0.39713 0.42369 0.09760
 C1419 C 0.39135 0.43957 0.07521
 C1420 C 0.40793 0.45249 0.06107
 C1421 C 0.43057 0.44966 0.06910
 C1422 C 0.43613 0.43390 0.09206
 C1423 C 0.38028 0.40947 0.11092
 C1424 C 0.36652 0.39707 0.12187
 C1425 C 0.35088 0.38198 0.13456
 C1426 C 0.33802 0.36859 0.14537
 C1427 C 0.32335 0.35199 0.15835
 C1428 C 0.32651 0.32946 0.15096
 C1429 C 0.31328 0.31305 0.16481
 C1430 C 0.29663 0.31894 0.18638
 C1431 C 0.29322 0.34172 0.19314
 C1432 C 0.30654 0.35812 0.17923
 H1433 H 0.42419 0.40874 0.12342
 H1434 H 0.37408 0.44173 0.06834
 H1435 H 0.40302 0.46441 0.04346
 H1436 H 0.45335 0.43125 0.09883
 H1437 H 0.33949 0.32452 0.13484
 H1438 H 0.31638 0.29572 0.15899
 H1439 H 0.28059 0.34687 0.20961
 H1440 H 0.30396 0.37552 0.18515
 C1441 C 0.60873 0.55778 0.07291
 C1442 C 0.60321 0.57365 0.09545
 C1443 C 0.58100 0.57615 0.10485
 C1444 C 0.56426 0.56307 0.09146
 C1445 C 0.56954 0.54727 0.06842
 C1446 C 0.59202 0.54463 0.05949
 C1447 C 0.62010 0.58806 0.10816
 C1448 C 0.63377 0.60070 0.11875
 C1449 C 0.64917 0.61611 0.13112
 C1450 C 0.66180 0.62979 0.14172
 C1451 C 0.67620 0.64668 0.15445
 C1452 C 0.67363 0.66892 0.14519
 C1453 C 0.68671 0.68565 0.15860
 C1454 C 0.70258 0.68034 0.18152
 C1455 C 0.70529 0.65784 0.19032
 C1456 C 0.69214 0.64113 0.17687
 H1457 H 0.62588 0.55578 0.06541
 H1458 H 0.57656 0.58845 0.12223
 H1459 H 0.54717 0.56555 0.09893
 H1460 H 0.59667 0.53269 0.04176
 H1461 H 0.66129 0.67338 0.12789
 H1462 H 0.68419 0.70276 0.15123
 H1463 H 0.71728 0.65316 0.20795
 H1464 H 0.69419 0.62396 0.18427
 C1465 C 0.10867 0.94209 0.92696
 C1466 C 0.10311 0.92621 0.90446
 C1467 C 0.08087 0.92367 0.89518
 C1468 C 0.06415 0.93674 0.90864
 C1469 C 0.06948 0.95256 0.93164
 C1470 C 0.09198 0.95523 0.94046
 C1471 C 0.11997 0.91182 0.89166
 C1472 C 0.13363 0.89920 0.88101
 C1473 C 0.14901 0.88380 0.86856
 C1474 C 0.16162 0.87013 0.85792
 C1475 C 0.17600 0.85324 0.84517
 C1476 C 0.19191 0.85878 0.82271
 C1477 C 0.20505 0.84206 0.80928
 C1478 C 0.20237 0.81957 0.81812
 C1479 C 0.18653 0.81427 0.84106
 C1480 C 0.17345 0.83100 0.85446
 H1481 H 0.12585 0.94411 0.93438
 H1482 H 0.07639 0.91137 0.87782
 H1483 H 0.04704 0.93425 0.90125
 H1484 H 0.09667 0.96718 0.95815
 H1485 H 0.19394 0.87595 0.81529
 H1486 H 0.21703 0.84674 0.79163
 H1487 H 0.18403 0.79717 0.84846
 H1488 H 0.16114 0.82655 0.87178
 C1489 C 0.39168 0.05855 0.42726
 C1490 C 0.39738 0.07446 0.40488
 C1491 C 0.41967 0.07691 0.39578
 C1492 C 0.43628 0.06374 0.40928
 C1493 C 0.43082 0.04789 0.43214
 C1494 C 0.40827 0.04531 0.44079
 C1495 C 0.38059 0.08891 0.39198
 C1496 C 0.36699 0.10154 0.38122
 C1497 C 0.35162 0.11692 0.36866
 C1498 C 0.33899 0.13053 0.35791
 C1499 C 0.32454 0.14733 0.34503
 C1500 C 0.30853 0.14161 0.32277
 C1501 C 0.29526 0.15820 0.30928
 C1502 C 0.29791 0.18076 0.31786
 C1503 C 0.31387 0.18625 0.34059
 C1504 C 0.32707 0.16964 0.35405
 H1505 H 0.37448 0.05658 0.43453
 H1506 H 0.42425 0.08922 0.37852
 H1507 H 0.45342 0.06617 0.40202
 H1508 H 0.40347 0.03334 0.45838
 H1509 H 0.30649 0.12439 0.31556
 H1510 H 0.28321 0.15338 0.29179
 H1511 H 0.31636 0.20341 0.34779
 H1512 H 0.33945 0.17424 0.37122
 C1513 C 0.91941 0.42323 0.60428
 C1514 C 0.89714 0.42587 0.59517
 C1515 C 0.89156 0.44185 0.57283
 C1516 C 0.90824 0.45497 0.55934
 C1517 C 0.93076 0.45221 0.56801
 C1518 C 0.93612 0.43629 0.59083
 C1519 C 0.88026 0.41154 0.60802
 C1520 C 0.86659 0.39898 0.61875
 C1521 C 0.85117 0.38366 0.63128
 C1522 C 0.83853 0.37006 0.64202
 C1523 C 0.82412 0.35327 0.65490
 C1524 C 0.82653 0.33100 0.64566
 C1525 C 0.81343 0.31435 0.65919
 C1526 C 0.79769 0.31978 0.68222
 C1527 C 0.79513 0.34230 0.69101
 C1528 C 0.80831 0.35893 0.67745
 H1529 H 0.92390 0.41086 0.62152
 H1530 H 0.87436 0.44395 0.56555
 H1531 H 0.90353 0.46701 0.54179
 H1532 H 0.95324 0.43372 0.59809
 H1533 H 0.83877 0.32645 0.62827
 H1534 H 0.81583 0.29722 0.65182
 H1535 H 0.78324 0.34707 0.70873
 H1536 H 0.80637 0.37612 0.68484
 C1537 C 0.89315 0.56206 0.06219
 C1538 C 0.89939 0.57768 0.08477
 C1539 C 0.92190 0.58001 0.09280
 C1540 C 0.93814 0.56689 0.07836
 C1541 C 0.93213 0.55114 0.05556
 C1542 C 0.90940 0.54885 0.04768
 C1543 C 0.88294 0.59170 0.09949
 C1544 C 0.86979 0.60397 0.11213
 C1545 C 0.85508 0.61896 0.12711
 C1546 C 0.84309 0.63230 0.13988
 C1547 C 0.82944 0.64891 0.15494
 C1548 C 0.83390 0.67157 0.15002
 C1549 C 0.82108 0.68791 0.16480
 C1550 C 0.80353 0.68185 0.18483
 C1551 C 0.79913 0.65898 0.18962
 C1552 C 0.81203 0.64263 0.17477
 H1553 H 0.87577 0.56016 0.05571
 H1554 H 0.92694 0.59207 0.11019
 H1555 H 0.95543 0.56913 0.08508
 H1556 H 0.90418 0.53696 0.03019
 H1557 H 0.84736 0.67663 0.13478
 H1558 H 0.82498 0.70530 0.16049
 H1559 H 0.78576 0.65370 0.20483
 H1560 H 0.80845 0.62513 0.17880
 C1561 C 0.60693 0.43865 0.56442
 C1562 C 0.60077 0.42308 0.58706
 C1563 C 0.57828 0.42071 0.59519
 C1564 C 0.56198 0.43376 0.58076
 C1565 C 0.56792 0.44945 0.55789
 C1566 C 0.59062 0.45179 0.54993
 C1567 C 0.61727 0.40909 0.60168
 C1568 C 0.63047 0.39684 0.61421
 C1569 C 0.64522 0.38184 0.62903
 C1570 C 0.65723 0.36847 0.64167
 C1571 C 0.67088 0.35181 0.65655
 C1572 C 0.66632 0.32918 0.65156
 C1573 C 0.67913 0.31278 0.66619
 C1574 C 0.69676 0.31877 0.68617
 C1575 C 0.70126 0.34161 0.69102
 C1576 C 0.68838 0.35801 0.67630
 H1577 H 0.62429 0.44057 0.55787
 H1578 H 0.57331 0.40868 0.61262
 H1579 H 0.54471 0.43149 0.58754
 H1580 H 0.59578 0.46363 0.53238
 H1581 H 0.65279 0.32417 0.63637
 H1582 H 0.67516 0.29541 0.66185
 H1583 H 0.71470 0.34683 0.70618
 H1584 H 0.69202 0.37550 0.68039
 C1585 C 0.10677 0.06173 0.43625
 C1586 C 0.10060 0.07740 0.41374
 C1587 C 0.07811 0.07977 0.40560
 C1588 C 0.06182 0.06664 0.41991
 C1589 C 0.06777 0.05086 0.44266
 C1590 C 0.09048 0.04852 0.45063
 C1591 C 0.11710 0.09144 0.39922
 C1592 C 0.13031 0.10374 0.38679
 C1593 C 0.14509 0.11875 0.37207
 C1594 C 0.15714 0.13212 0.35950
 C1595 C 0.17084 0.14876 0.34466
 C1596 C 0.16645 0.17140 0.34984
 C1597 C 0.17928 0.18777 0.33518
 C1598 C 0.19677 0.18174 0.31501
 C1599 C 0.20113 0.15888 0.31001
 C1600 C 0.18822 0.14251 0.32474
 H1601 H 0.12414 0.05981 0.44281
 H1602 H 0.07313 0.09187 0.38826
 H1603 H 0.04455 0.06891 0.41313
 H1604 H 0.09566 0.03660 0.46809
 H1605 H 0.15302 0.17643 0.36516
 H1606 H 0.17542 0.20515 0.33964
 H1607 H 0.21445 0.15363 0.29468
 H1608 H 0.19174 0.12502 0.32051
 C1609 C 0.42194 0.92065 0.90461
 C1610 C 0.39948 0.92291 0.91295
 C1611 C 0.39335 0.93843 0.93570
 C1612 C 0.40966 0.95160 0.95012
 C1613 C 0.43234 0.94936 0.94198
 C1614 C 0.43825 0.93374 0.91898
 C1615 C 0.38298 0.90886 0.89845
 C1616 C 0.36976 0.89655 0.88605
 C1617 C 0.35498 0.88150 0.87139
 C1618 C 0.34294 0.86810 0.85889
 C1619 C 0.32925 0.85140 0.84416
 C1620 C 0.33369 0.82878 0.84943
 C1621 C 0.32085 0.81235 0.83490
 C1622 C 0.30331 0.81829 0.81477
 C1623 C 0.29891 0.84113 0.80966
 C1624 C 0.31183 0.85756 0.82427
 H1625 H 0.42688 0.90866 0.88708
 H1626 H 0.37601 0.94026 0.94241
 H1627 H 0.40452 0.96339 0.96778
 H1628 H 0.45550 0.93155 0.91206
 H1629 H 0.34716 0.82382 0.86473
 H1630 H 0.32473 0.79499 0.83944
 H1631 H 0.28555 0.84631 0.79436
 H1632 H 0.30828 0.87503 0.81997
 C1633 C 0.10745 0.93818 0.57442
 C1634 C 0.10128 0.92072 0.59424
 C1635 C 0.07866 0.91622 0.59938
 C1636 C 0.06225 0.92903 0.58481
 C1637 C 0.06820 0.94662 0.56476
 C1638 C 0.09103 0.95106 0.55977
 C1639 C 0.11797 0.90707 0.60904
 C1640 C 0.13138 0.89506 0.62159
 C1641 C 0.14642 0.88031 0.63631
 C1642 C 0.15873 0.86712 0.64875
 C1643 C 0.17277 0.85064 0.66328
 C1644 C 0.17045 0.82815 0.65508
 C1645 C 0.18355 0.81186 0.66944
 C1646 C 0.19926 0.81782 0.69230
 C1647 C 0.20156 0.84053 0.70032
 C1648 C 0.18837 0.85682 0.68590
 H1649 H 0.12492 0.94178 0.57023
 H1650 H 0.07370 0.90272 0.61462
 H1651 H 0.04488 0.92510 0.58926
 H1652 H 0.09622 0.96447 0.54455
 H1653 H 0.15840 0.82317 0.63766
 H1654 H 0.18131 0.79459 0.66262
 H1655 H 0.21342 0.84571 0.71787
 H1656 H 0.19026 0.87419 0.69250
 C1657 C 0.60743 0.56167 0.42530
 C1658 C 0.60125 0.57906 0.40536
 C1659 C 0.57863 0.58354 0.40022
 C1660 C 0.56222 0.57077 0.41490
 C1661 C 0.56819 0.55326 0.43506
 C1662 C 0.59103 0.54883 0.44005
 C1663 C 0.61794 0.59267 0.39046
 C1664 C 0.63135 0.60464 0.37785
 C1665 C 0.64642 0.61934 0.36309
 C1666 C 0.65875 0.63251 0.35065
 C1667 C 0.67282 0.64900 0.33616
 C1668 C 0.67051 0.67148 0.34442
 C1669 C 0.68363 0.68778 0.33013
 C1670 C 0.69936 0.68185 0.30729
 C1671 C 0.70165 0.65916 0.29920
 C1672 C 0.68844 0.64285 0.31355
 H1673 H 0.62491 0.55808 0.42950
 H1674 H 0.57364 0.59698 0.38489
 H1675 H 0.54485 0.57468 0.41044
 H1676 H 0.59624 0.53549 0.45536
 H1677 H 0.65845 0.67645 0.36183
 H1678 H 0.68140 0.70504 0.33701
 H1679 H 0.71352 0.65400 0.28166
 H1680 H 0.69032 0.62549 0.30690
 C1681 C 0.39272 0.06149 0.07467
 C1682 C 0.39888 0.07885 0.09470
 C1683 C 0.42149 0.08327 0.10002
 C1684 C 0.43792 0.07047 0.08541
 C1685 C 0.43198 0.05300 0.06514
 C1686 C 0.40915 0.04862 0.05998
 C1687 C 0.38217 0.09250 0.10948
 C1688 C 0.36874 0.10451 0.12198
 C1689 C 0.35364 0.11926 0.13662
 C1690 C 0.34129 0.13245 0.14896
 C1691 C 0.32717 0.14896 0.16335
 C1692 C 0.32934 0.17140 0.15487
 C1693 C 0.31618 0.18771 0.16909
 C1694 C 0.30058 0.18182 0.19210
 C1695 C 0.29843 0.15916 0.20041
 C1696 C 0.31168 0.14285 0.18612
 H1697 H 0.37525 0.05795 0.07033
 H1698 H 0.42645 0.09669 0.11542
 H1699 H 0.45528 0.07434 0.08999
 H1700 H 0.40396 0.03531 0.04458
 H1701 H 0.34130 0.17632 0.13732
 H1702 H 0.31829 0.20494 0.16205
 H1703 H 0.28666 0.15404 0.21808
 H1704 H 0.30992 0.12552 0.19294
 C1705 C 0.92225 0.41734 0.89979
 C1706 C 0.89967 0.42184 0.90501
 C1707 C 0.89357 0.43938 0.92471
 C1708 C 0.91000 0.45236 0.93922
 C1709 C 0.93298 0.44799 0.93430
 C1710 C 0.93873 0.43020 0.91418
 C1711 C 0.88294 0.40807 0.89039
 C1712 C 0.86952 0.39596 0.87800
 C1713 C 0.85444 0.38111 0.86344
 C1714 C 0.84209 0.36786 0.85113
 C1715 C 0.82797 0.35133 0.83673
 C1716 C 0.83033 0.32885 0.84490
 C1717 C 0.81713 0.31254 0.83070
 C1718 C 0.80128 0.31846 0.80802
 C1719 C 0.79895 0.34116 0.80002
 C1720 C 0.81224 0.35747 0.81428
 H1721 H 0.92717 0.40378 0.88461
 H1722 H 0.87610 0.44298 0.92896
 H1723 H 0.90457 0.46576 0.95434
 H1724 H 0.95601 0.42603 0.90943
 H1725 H 0.84248 0.32388 0.86220
 H1726 H 0.81940 0.29528 0.83751
 H1727 H 0.78699 0.34632 0.78261
 H1728 H 0.81031 0.37483 0.80769
 C1729 C 0.60991 0.05871 0.93003
 C1730 C 0.60432 0.07398 0.90676
 C1731 C 0.58209 0.07613 0.89726
 C1732 C 0.56539 0.06341 0.91138
 C1733 C 0.57072 0.04834 0.93530
 C1734 C 0.59324 0.04593 0.94420
 C1735 C 0.62112 0.08826 0.89357
 C1736 C 0.63471 0.10083 0.88263
 C1737 C 0.65000 0.11620 0.86986
 C1738 C 0.66250 0.12982 0.85885
 C1739 C 0.67669 0.14663 0.84549
 C1740 C 0.67448 0.16891 0.85482
 C1741 C 0.68708 0.18560 0.84048
 C1742 C 0.70210 0.18022 0.81651
 C1743 C 0.70458 0.15766 0.80779
 C1744 C 0.69191 0.14100 0.82217
 H1745 H 0.62708 0.05697 0.93762
 H1746 H 0.57758 0.08794 0.87930
 H1747 H 0.54827 0.06569 0.90390
 H1748 H 0.59795 0.03452 0.96254
 H1749 H 0.66269 0.17345 0.87281
 H1750 H 0.68475 0.20274 0.84782
 H1751 H 0.71595 0.15290 0.78942
 H1752 H 0.69370 0.12380 0.81472
 C1753 C 0.39018 0.55815 0.57072
 C1754 C 0.39574 0.57335 0.59413
 C1755 C 0.41798 0.57560 0.60354
 C1756 C 0.43472 0.56305 0.58920
 C1757 C 0.42941 0.54805 0.56514
 C1758 C 0.40689 0.54554 0.55634
 C1759 C 0.37889 0.58749 0.60753
 C1760 C 0.36528 0.59996 0.61861
 C1761 C 0.34997 0.61525 0.63152
 C1762 C 0.33748 0.62886 0.64260
 C1763 C 0.32332 0.64570 0.65599
 C1764 C 0.32549 0.66794 0.64652
 C1765 C 0.31293 0.68467 0.66085
 C1766 C 0.29800 0.67937 0.68495
 C1767 C 0.29556 0.65685 0.69381
 C1768 C 0.30818 0.64014 0.67944
 H1769 H 0.37300 0.55634 0.56321
 H1770 H 0.42246 0.58736 0.62160
 H1771 H 0.45184 0.56540 0.59661
 H1772 H 0.40219 0.53418 0.53791
 H1773 H 0.33721 0.67241 0.62843
 H1774 H 0.31523 0.70179 0.65339
 H1775 H 0.28425 0.65217 0.71228
 H1776 H 0.30643 0.62297 0.68700
 C1777 C 0.10907 0.44098 0.06943
 C1778 C 0.10332 0.42580 0.09275
 C1779 C 0.08102 0.42374 0.10201
 C1780 C 0.06444 0.43647 0.08763
 C1781 C 0.06993 0.45146 0.06368
 C1782 C 0.09251 0.45377 0.05501
 C1783 C 0.12003 0.41153 0.10625
 C1784 C 0.13357 0.39900 0.11742
 C1785 C 0.14884 0.38369 0.13044
 C1786 C 0.16134 0.37013 0.14161
 C1787 C 0.17557 0.35338 0.15509
 C1788 C 0.17340 0.33107 0.14589
 C1789 C 0.18611 0.31446 0.16024
 C1790 C 0.20120 0.31994 0.18409
 C1791 C 0.20362 0.34252 0.19271
 C1792 C 0.19085 0.35911 0.17831
 H1793 H 0.12628 0.44265 0.06203
 H1794 H 0.07639 0.41200 0.11999
 H1795 H 0.04728 0.43427 0.09494
 H1796 H 0.09735 0.46511 0.03666
 H1797 H 0.16158 0.32645 0.12797
 H1798 H 0.18382 0.29729 0.15297
 H1799 H 0.21504 0.34736 0.21099
 H1800 H 0.19261 0.37633 0.18567
 C1801 C 0.91797 0.92442 0.39645
 C1802 C 0.89573 0.92660 0.40592
 C1803 C 0.89017 0.94177 0.42935
 C1804 C 0.90686 0.95442 0.44370
 C1805 C 0.92938 0.95198 0.43485
 C1806 C 0.93469 0.93701 0.41077
 C1807 C 0.87890 0.91241 0.39256
 C1808 C 0.86528 0.89991 0.38152
 C1809 C 0.84997 0.88460 0.36865
 C1810 C 0.83746 0.87098 0.35761
 C1811 C 0.82327 0.85415 0.34426
 C1812 C 0.82546 0.83191 0.35369
 C1813 C 0.81287 0.81518 0.33937
 C1814 C 0.79790 0.82049 0.31532
 C1815 C 0.79543 0.84302 0.30649
 C1816 C 0.80808 0.85972 0.32086
 H1817 H 0.92245 0.91267 0.37838
 H1818 H 0.87300 0.94353 0.43690
 H1819 H 0.90216 0.96575 0.46216
 H1820 H 0.95181 0.93471 0.40332
 H1821 H 0.83721 0.82742 0.37175
 H1822 H 0.81518 0.79806 0.34680
 H1823 H 0.78410 0.84772 0.28806
 H1824 H 0.80632 0.87689 0.31332
 C1825 C 0.89282 0.56158 0.57492
 C1826 C 0.89902 0.57895 0.59489
 C1827 C 0.92165 0.58339 0.60010
 C1828 C 0.93804 0.57061 0.58541
 C1829 C 0.93206 0.55311 0.56520
 C1830 C 0.90922 0.54872 0.56016
 C1831 C 0.88235 0.59259 0.60976
 C1832 C 0.86894 0.60459 0.62234
 C1833 C 0.85389 0.61932 0.63708
 C1834 C 0.84156 0.63251 0.64951
 C1835 C 0.82750 0.64900 0.66400
 C1836 C 0.82966 0.67145 0.65557
 C1837 C 0.81655 0.68775 0.66990
 C1838 C 0.80101 0.68185 0.69297
 C1839 C 0.79886 0.65918 0.70122
 C1840 C 0.81205 0.64287 0.68683
 H1841 H 0.87534 0.55802 0.57067
 H1842 H 0.92664 0.59683 0.61546
 H1843 H 0.95541 0.57449 0.58990
 H1844 H 0.90400 0.53539 0.54480
 H1845 H 0.84160 0.67639 0.63799
 H1846 H 0.81867 0.70499 0.66290
 H1847 H 0.78713 0.65404 0.71894
 H1848 H 0.81030 0.62553 0.69361
 C1849 C 0.60732 0.43792 0.07436
 C1850 C 0.60113 0.42045 0.09413
 C1851 C 0.57850 0.41592 0.09918
 C1852 C 0.56210 0.42874 0.08457
 C1853 C 0.56808 0.44635 0.06459
 C1854 C 0.59091 0.45082 0.05968
 C1855 C 0.61781 0.40681 0.10898
 C1856 C 0.63122 0.39482 0.12157
 C1857 C 0.64628 0.38011 0.13632
 C1858 C 0.65861 0.36695 0.14878
 C1859 C 0.67268 0.35049 0.16332
 C1860 C 0.67039 0.32800 0.15513
 C1861 C 0.68352 0.31174 0.16949
 C1862 C 0.69922 0.31772 0.19234
 C1863 C 0.70149 0.34044 0.20036
 C1864 C 0.68827 0.35670 0.18593
 H1865 H 0.62480 0.44155 0.07024
 H1866 H 0.57352 0.40241 0.11438
 H1867 H 0.54473 0.42480 0.08896
 H1868 H 0.59613 0.46424 0.04450
 H1869 H 0.65835 0.32300 0.13771
 H1870 H 0.68131 0.29446 0.16267
 H1871 H 0.71334 0.34564 0.21790
 H1872 H 0.69013 0.37407 0.19253
 C1873 C 0.42147 0.91623 0.40098
 C1874 C 0.39882 0.92067 0.40599
 C1875 C 0.39257 0.93815 0.42576
 C1876 C 0.40892 0.95110 0.44051
 C1877 C 0.43178 0.94670 0.43566
 C1878 C 0.43782 0.92910 0.41565
 C1879 C 0.38220 0.90695 0.39106
 C1880 C 0.36887 0.89488 0.37840
 C1881 C 0.35390 0.88009 0.36353
 C1882 C 0.34164 0.86688 0.35096
 C1883 C 0.32763 0.85039 0.33629
 C1884 C 0.33004 0.82787 0.34425
 C1885 C 0.31693 0.81160 0.32982
 C1886 C 0.30112 0.81759 0.30712
 C1887 C 0.29875 0.84032 0.29931
 C1888 C 0.31195 0.85660 0.31380
 H1889 H 0.42652 0.90272 0.38578
 H1890 H 0.37507 0.94172 0.42986
 H1891 H 0.40366 0.96451 0.45570
 H1892 H 0.45520 0.92520 0.41130
 H1893 H 0.34215 0.82285 0.36157
 H1894 H 0.31923 0.79431 0.33649
 H1895 H 0.28681 0.84553 0.28189
 H1896 H 0.30998 0.87398 0.30737
 C1897 C 0.10731 0.06203 0.92555
 C1898 C 0.10107 0.07948 0.90576
 C1899 C 0.07843 0.08393 0.90069
 C1900 C 0.06207 0.07108 0.91532
 C1901 C 0.06810 0.05351 0.93534
 C1902 C 0.09095 0.04910 0.94026
 C1903 C 0.11771 0.09317 0.89089
 C1904 C 0.13105 0.10521 0.87828
 C1905 C 0.14603 0.11999 0.86349
 C1906 C 0.15828 0.13321 0.85100
 C1907 C 0.17226 0.14973 0.83642
 C1908 C 0.16978 0.17224 0.84445
 C1909 C 0.18284 0.18855 0.83010
 C1910 C 0.19867 0.18262 0.80740
 C1911 C 0.20112 0.15990 0.79953
 C1912 C 0.18797 0.14358 0.81395
 H1913 H 0.12480 0.05846 0.92969
 H1914 H 0.07340 0.09742 0.88547
 H1915 H 0.04469 0.07498 0.91093
 H1916 H 0.09620 0.03571 0.95546
 H1917 H 0.15764 0.17721 0.86176
 H1918 H 0.18048 0.20583 0.83681
 H1919 H 0.21308 0.15474 0.78212
 H1920 H 0.18999 0.12620 0.80748
 C1921 C 0.10700 0.93838 0.06381
 C1922 C 0.10086 0.92273 0.08636
 C1923 C 0.07838 0.92036 0.09454
 C1924 C 0.06207 0.93346 0.08025
 C1925 C 0.06799 0.94923 0.05746
 C1926 C 0.09068 0.95157 0.04945
 C1927 C 0.11737 0.90868 0.10085
 C1928 C 0.13058 0.89638 0.11327
 C1929 C 0.14533 0.88132 0.12798
 C1930 C 0.15734 0.86792 0.14053
 C1931 C 0.17099 0.85121 0.15533
 C1932 C 0.16646 0.82859 0.15018
 C1933 C 0.17926 0.81217 0.16477
 C1934 C 0.19686 0.81811 0.18482
 C1935 C 0.20133 0.84094 0.18981
 C1936 C 0.18846 0.85737 0.17515
 H1937 H 0.12435 0.94030 0.05722
 H1938 H 0.07343 0.90827 0.11191
 H1939 H 0.04481 0.93119 0.08706
 H1940 H 0.09583 0.96347 0.03196
 H1941 H 0.15296 0.82363 0.13494
 H1942 H 0.17531 0.79480 0.16031
 H1943 H 0.21474 0.84613 0.20505
 H1944 H 0.19208 0.87485 0.17936
 C1945 C 0.92175 0.42067 0.40482
 C1946 C 0.89930 0.42295 0.41317
 C1947 C 0.89319 0.43848 0.43592
 C1948 C 0.90951 0.45165 0.45031
 C1949 C 0.93218 0.44939 0.44214
 C1950 C 0.93807 0.43375 0.41915
 C1951 C 0.88278 0.40891 0.39869
 C1952 C 0.86957 0.39659 0.38629
 C1953 C 0.85481 0.38154 0.37161
 C1954 C 0.84279 0.36812 0.35909
 C1955 C 0.82913 0.35141 0.34432
 C1956 C 0.83361 0.32879 0.34956
 C1957 C 0.82080 0.31235 0.33499
 C1958 C 0.80326 0.31828 0.31485
 C1959 C 0.79884 0.34111 0.30977
 C1960 C 0.81172 0.35755 0.32441
 H1961 H 0.92667 0.40867 0.38730
 H1962 H 0.87585 0.44033 0.44264
 H1963 H 0.90439 0.46346 0.46797
 H1964 H 0.95531 0.43155 0.41222
 H1965 H 0.84707 0.32384 0.36488
 H1966 H 0.82471 0.29499 0.33952
 H1967 H 0.78547 0.34628 0.29446
 H1968 H 0.80814 0.37502 0.32013
 C1969 C 0.39308 0.06218 0.56427
 C1970 C 0.39927 0.07782 0.58684
 C1971 C 0.42176 0.08009 0.59506
 C1972 C 0.43802 0.06689 0.58079
 C1973 C 0.43205 0.05113 0.55799
 C1974 C 0.40935 0.04889 0.54993
 C1975 C 0.38280 0.09194 0.60135
 C1976 C 0.36963 0.10429 0.61380
 C1977 C 0.35489 0.11936 0.62855
 C1978 C 0.34287 0.13276 0.64115
 C1979 C 0.32917 0.14942 0.65600
 C1980 C 0.33364 0.17207 0.65098
 C1981 C 0.32076 0.18845 0.66557
 C1982 C 0.30313 0.18244 0.68552
 C1983 C 0.29873 0.15959 0.69041
 C1984 C 0.31168 0.14320 0.67574
 H1985 H 0.37572 0.06033 0.55764
 H1986 H 0.42676 0.09216 0.61245
 H1987 H 0.45528 0.06909 0.58765
 H1988 H 0.40416 0.03700 0.53243
 H1989 H 0.34715 0.17709 0.63581
 H1990 H 0.32466 0.20583 0.66120
 H1991 H 0.28530 0.15434 0.70556
 H1992 H 0.30809 0.12571 0.67986
 C1993 C 0.60694 0.56157 0.93653
 C1994 C 0.60083 0.57729 0.91407
 C1995 C 0.57835 0.57972 0.90588
 C1996 C 0.56202 0.56659 0.92010
 C1997 C 0.56791 0.55075 0.94279
 C1998 C 0.59060 0.54835 0.95080
 C1999 C 0.61737 0.59135 0.89967
 C2000 C 0.63063 0.60364 0.88735
 C2001 C 0.64548 0.61866 0.87276
 C2002 C 0.65759 0.63203 0.86032
 C2003 C 0.67137 0.64867 0.84562
 C2004 C 0.66709 0.67131 0.85102
 C2005 C 0.67997 0.68769 0.83647
 C2006 C 0.69740 0.68168 0.81619
 C2007 C 0.70165 0.65882 0.81098
 C2008 C 0.68869 0.64244 0.82561
 H2009 H 0.62429 0.55959 0.94312
 H2010 H 0.57341 0.59187 0.88858
 H2011 H 0.54476 0.56891 0.91329
 H2012 H 0.59574 0.53639 0.96823
 H2013 H 0.65370 0.67634 0.86641
 H2014 H 0.67619 0.70507 0.84109
 H2015 H 0.71492 0.65358 0.79557
 H2016 H 0.69212 0.62495 0.82121
 C2017 C 0.41770 0.42476 0.89621
 C2018 C 0.39546 0.42709 0.90561
 C2019 C 0.38996 0.44230 0.92901
 C2020 C 0.40671 0.45485 0.94341
 C2021 C 0.42923 0.45226 0.93461
 C2022 C 0.43448 0.43726 0.91056
 C2023 C 0.37855 0.41300 0.89224
 C2024 C 0.36486 0.40057 0.88121
 C2025 C 0.34945 0.38534 0.86839
 C2026 C 0.33686 0.37178 0.85740
 C2027 C 0.32259 0.35498 0.84414
 C2028 C 0.32459 0.33277 0.85383
 C2029 C 0.31195 0.31605 0.83959
 C2030 C 0.29712 0.32133 0.81535
 C2031 C 0.29483 0.34382 0.80628
 C2032 C 0.30753 0.36052 0.82057
 H2033 H 0.42213 0.41298 0.87815
 H2034 H 0.37279 0.44417 0.93653
 H2035 H 0.40206 0.46622 0.96184
 H2036 H 0.45159 0.43484 0.90316
 H2037 H 0.33624 0.32831 0.87202
 H2038 H 0.31413 0.29895 0.84721
 H2039 H 0.28361 0.34849 0.78770
 H2040 H 0.30591 0.37766 0.81284
 C2041 C 0.89025 0.05801 0.07112
 C2042 C 0.89582 0.07317 0.09456
 C2043 C 0.91806 0.07536 0.10400
 C2044 C 0.93478 0.06280 0.08965
 C2045 C 0.92947 0.04785 0.06554
 C2046 C 0.90694 0.04539 0.05672
 C2047 C 0.87899 0.08733 0.10795
 C2048 C 0.86538 0.09983 0.11901
 C2049 C 0.85008 0.11515 0.13188
 C2050 C 0.83759 0.12877 0.14292
 C2051 C 0.82342 0.14562 0.15625
 C2052 C 0.82561 0.16785 0.14678
 C2053 C 0.81303 0.18459 0.16106
 C2054 C 0.79806 0.17931 0.18512
 C2055 C 0.79560 0.15679 0.19399
 C2056 C 0.80825 0.14007 0.17966
 H2057 H 0.87307 0.05624 0.06358
 H2058 H 0.92255 0.08710 0.12209
 H2059 H 0.95191 0.06511 0.09708
 H2060 H 0.90223 0.03407 0.03824
 H2061 H 0.83736 0.17232 0.12871
 H2062 H 0.81534 0.20171 0.15360
 H2063 H 0.78427 0.15211 0.21243
 H2064 H 0.80648 0.12291 0.18723
 C2065 C 0.60929 0.94128 0.57207
 C2066 C 0.60359 0.92607 0.59537
 C2067 C 0.58131 0.92397 0.60466
 C2068 C 0.56469 0.93668 0.59033
 C2069 C 0.57013 0.95169 0.56639
 C2070 C 0.59269 0.95405 0.55770
 C2071 C 0.62034 0.91180 0.60879
 C2072 C 0.63391 0.89927 0.61988
 C2073 C 0.64922 0.88396 0.63278
 C2074 C 0.66177 0.87038 0.64383
 C2075 C 0.67605 0.85361 0.65716
 C2076 C 0.67389 0.83132 0.64783
 C2077 C 0.68664 0.81468 0.66203
 C2078 C 0.70176 0.82010 0.68587
 C2079 C 0.70418 0.84266 0.69461
 C2080 C 0.69136 0.85928 0.68037
 H2081 H 0.62649 0.94299 0.56464
 H2082 H 0.57671 0.91220 0.62263
 H2083 H 0.54753 0.93443 0.59765
 H2084 H 0.59750 0.96541 0.53935
 H2085 H 0.66204 0.82675 0.62992
 H2086 H 0.68435 0.79753 0.65467
 H2087 H 0.71562 0.84745 0.71289
 H2088 H 0.69312 0.87648 0.68782
 C2089 C 0.10984 0.55830 0.42919
 C2090 C 0.10424 0.57353 0.40587
 C2091 C 0.08197 0.57577 0.39653
 C2092 C 0.06527 0.56317 0.41085
 C2093 C 0.07062 0.54814 0.43482
 C2094 C 0.09316 0.54565 0.44356
 C2095 C 0.12106 0.58769 0.39247
 C2096 C 0.13466 0.60017 0.38138
 C2097 C 0.14996 0.61544 0.36844
 C2098 C 0.16246 0.62902 0.35733
 C2099 C 0.17664 0.64581 0.34390
 C2100 C 0.17452 0.66807 0.35332
 C2101 C 0.18711 0.68475 0.33895
 C2102 C 0.20202 0.67938 0.31485
 C2103 C 0.20441 0.65683 0.30603
 C2104 C 0.19176 0.64018 0.32045
 H2105 H 0.12703 0.55649 0.43665
 H2106 H 0.07746 0.58755 0.37854
 H2107 H 0.04814 0.56552 0.40349
 H2108 H 0.09789 0.53426 0.46192
 H2109 H 0.16281 0.67261 0.37141
 H2110 H 0.18485 0.70189 0.34638
 H2111 H 0.21571 0.65209 0.28757
 H2112 H 0.19348 0.62299 0.31292
   
