data_POSCAR
  _audit_creation_date              2014-09-24
  _audit_creation_method            'ToBaCCo'
  _symmetry_space_group_name_H-M    'P1'
  _symmetry_Int_Tables_number       1
  _symmetry_cell_setting            triclinic
  loop_
  _symmetry_equiv_pos_as_xyz
 x,y,z
_cell_length_a 51.3280
_cell_length_b 51.3216
_cell_length_c 44.5428
_cell_angle_alpha 89.184700
_cell_angle_beta 89.908600
_cell_angle_gamma 91.045800
loop_
  _atom_site_label
  _atom_site_type_symbol
  _atom_site_fract_x
  _atom_site_fract_y
  _atom_site_fract_z
C1 C 0.35177 0.00511 0.25033
 C2 C 0.14677 -0.00335 0.74910
 C3 C 0.65104 0.49572 0.24851
 C4 C 0.84834 0.50200 0.75036
 C5 C 0.24887 0.39925 0.99347
 C6 C 0.75011 0.09848 0.99967
 C7 C 0.25118 0.59756 0.50340
 C8 C 0.74893 0.89861 0.49446
 C9 C -0.00077 0.25210 0.37430
 C10 C 0.00481 0.74498 0.12554
 C11 C 0.49884 0.25189 0.62412
 C12 C 0.50003 0.75258 0.87507
 C13 C -0.24801 0.59845 1.00056
 C14 C -0.25240 0.40045 0.49616
 C15 C 0.24668 -0.10192 0.00135
 C16 C 0.25335 1.10051 0.50059
 C17 C 0.14904 0.50107 0.25082
 C18 C -0.14871 0.99910 0.25090
 C19 C 0.34974 0.50046 -0.24816
 C20 C 0.64895 -0.00126 -0.24725
 C21 C -0.00206 0.24932 0.87389
 C22 C 0.50041 0.25041 0.12483
 C23 C 0.00067 0.74847 0.62524
 C24 C 0.50568 0.75437 0.37477
 B25 B -0.01744 0.01259 1.02437
 B26 B -0.03155 0.00355 0.99216
 B27 B -0.00817 0.02683 0.99201
 B28 B 0.01442 0.01914 1.01797
 B29 B 0.00455 -0.00973 1.03428
 B30 B -0.02426 -0.01923 1.01831
 B31 B 0.01299 -0.01809 0.97465
 B32 B 0.02708 -0.00906 1.00688
 B33 B 0.00370 -0.03234 1.00704
 B34 B -0.01889 -0.02466 0.98105
 B35 B -0.00903 0.00424 0.96475
 B36 B 0.01979 0.01373 0.98073
 B37 B 0.48595 0.51916 0.52752
 B38 B 0.47231 0.51072 0.49483
 B39 B 0.49536 0.53430 0.49569
 B40 B 0.51781 0.52632 0.52175
 B41 B 0.50819 0.49693 0.53700
 B42 B 0.47969 0.48745 0.52034
 B43 B 0.51735 0.49016 0.47723
 B44 B 0.53101 0.49859 0.50993
 B45 B 0.50794 0.47503 0.50901
 B46 B 0.48551 0.48302 0.48299
 B47 B 0.49513 0.51238 0.46773
 B48 B 0.52364 0.52187 0.48439
 B49 B 0.51865 0.98846 0.52336
 B50 B 0.53252 0.99769 0.49070
 B51 B 0.50930 0.97425 0.49150
 B52 B 0.48679 0.98167 0.51749
 B53 B 0.49653 1.01057 0.53285
 B54 B 0.52519 1.02034 0.51629
 B55 B 0.48769 1.01905 0.47309
 B56 B 0.47383 1.00980 0.50573
 B57 B 0.49704 1.03326 0.50497
 B58 B 0.51956 1.02585 0.47895
 B59 B 0.50981 0.99694 0.46360
 B60 B 0.48117 0.98717 0.48015
 B61 B 0.01558 0.48239 1.02491
 B62 B 0.02935 0.49147 0.99215
 B63 B 0.00627 0.46788 0.99318
 B64 B -0.01626 0.47538 1.01915
 B65 B -0.00668 0.50445 1.03420
 B66 B 0.02189 0.51426 1.01751
 B67 B -0.01560 0.51243 0.97437
 B68 B -0.02939 0.50334 1.00711
 B69 B -0.00632 0.52693 1.00609
 B70 B 0.01622 0.51944 0.98013
 B71 B 0.00663 0.49037 0.96507
 B72 B -0.02195 0.48057 0.98174
 B73 B 0.01666 0.51363 0.47857
 B74 B 0.02971 0.50463 0.51149
 B75 B 0.00727 0.52800 0.51020
 B76 B -0.01507 0.52034 0.48385
 B77 B -0.00606 0.49139 0.46886
 B78 B 0.02200 0.48181 0.48597
 B79 B -0.01608 0.48319 0.52852
 B80 B -0.02914 0.49222 0.49559
 B81 B -0.00671 0.46884 0.49690
 B82 B 0.01564 0.47650 0.52325
 B83 B 0.00664 0.50545 0.53824
 B84 B -0.02144 0.51501 0.52114
 B85 B 0.51264 0.01743 -0.02595
 B86 B 0.52611 0.00857 0.00680
 B87 B 0.50305 0.03136 0.00585
 B88 B 0.48076 0.02327 -0.02040
 B89 B 0.49044 -0.00534 -0.03567
 B90 B 0.51885 -0.01427 -0.01884
 B91 B 0.48096 -0.01411 0.02400
 B92 B 0.46748 -0.00527 -0.00874
 B93 B 0.49054 -0.02804 -0.00780
 B94 B 0.51282 -0.01995 0.01845
 B95 B 0.50315 0.00867 0.03372
 B96 B 0.47474 0.01759 0.01690
 B97 B 0.48250 0.48736 -0.02285
 B98 B 0.46893 0.49603 0.00969
 B99 B 0.49134 0.47264 0.00917
 B100 B 0.51411 0.48057 -0.01693
 B101 B 0.50537 0.50970 -0.03262
 B102 B 0.47704 0.51910 -0.01615
 B103 B 0.51447 0.51719 0.02709
 B104 B 0.52801 0.50855 -0.00546
 B105 B 0.50559 0.53193 -0.00496
 B106 B 0.48284 0.52400 0.02117
 B107 B 0.49157 0.49485 0.03684
 B108 B 0.51990 0.48545 0.02037
 B109 B -0.01350 0.98375 0.47276
 B110 B -0.02784 0.99196 0.50501
 B111 B -0.00445 0.96955 0.50502
 B112 B 0.01831 0.97829 0.47922
 B113 B 0.00859 1.00698 0.46323
 B114 B -0.02034 1.01524 0.47918
 B115 B 0.01659 1.01506 0.52301
 B116 B 0.03093 1.00686 0.49075
 B117 B 0.00752 1.02928 0.49074
 B118 B -0.01523 1.02052 0.51654
 B119 B -0.00549 0.99185 0.53253
 B120 B 0.02342 0.98356 0.51658
 B121 B 0.76415 0.23085 0.22591
 B122 B 0.75528 0.21659 0.25854
 B123 B 0.77892 0.23961 0.25776
 B124 B 0.77130 0.26258 0.23190
 B125 B 0.74209 0.25330 0.21666
 B126 B 0.73233 0.22448 0.23312
 B127 B 0.73458 0.26131 0.27651
 B128 B 0.74345 0.27559 0.24388
 B129 B 0.71983 0.25255 0.24468
 B130 B 0.72743 0.22960 0.27053
 B131 B 0.75664 0.23887 0.28577
 B132 B 0.76639 0.26769 0.26931
 B133 B 0.73531 0.76745 0.72555
 B134 B 0.74441 0.78082 0.75809
 B135 B 0.72090 0.75769 0.75758
 B136 B 0.72838 0.73551 0.73149
 B137 B 0.75738 0.74538 0.71580
 B138 B 0.76717 0.77377 0.73225
 B139 B 0.76553 0.73569 0.77547
 B140 B 0.75640 0.72232 0.74293
 B141 B 0.77992 0.74544 0.74343
 B142 B 0.77246 0.76762 0.76953
 B143 B 0.74344 0.75775 0.78522
 B144 B 0.73367 0.72936 0.76878
 B145 B 0.26210 0.26430 0.77131
 B146 B 0.25372 0.27873 0.73884
 B147 B 0.27643 0.25561 0.73931
 B148 B 0.26797 0.23260 0.76514
 B149 B 0.23917 0.24189 0.78064
 B150 B 0.23052 0.27079 0.76437
 B151 B 0.23118 0.23411 0.72080
 B152 B 0.23958 0.21972 0.75330
 B153 B 0.21686 0.24281 0.75280
 B154 B 0.22532 0.26583 0.72696
 B155 B 0.25412 0.25655 0.71147
 B156 B 0.26276 0.22764 0.72774
 B157 B 0.23795 0.73614 0.27919
 B158 B 0.24487 0.72309 0.24583
 B159 B 0.22326 0.74714 0.24813
 B160 B 0.23341 0.76838 0.27439
 B161 B 0.26209 0.75705 0.28842
 B162 B 0.26901 0.72866 0.27077
 B163 B 0.26901 0.76759 0.22865
 B164 B 0.26206 0.78066 0.26193
 B165 B 0.28364 0.75660 0.25974
 B166 B 0.27351 0.73536 0.23340
 B167 B 0.24478 0.74675 0.21940
 B168 B 0.23807 0.77514 0.23709
 B169 B 0.26497 0.73428 0.72536
 B170 B 0.25600 0.71987 0.75787
 B171 B 0.27948 0.74307 0.75736
 B172 B 0.27185 0.76604 0.73150
 B173 B 0.24280 0.75658 0.71601
 B174 B 0.23315 0.72767 0.73231
 B175 B 0.23487 0.76440 0.77584
 B176 B 0.24382 0.77880 0.74331
 B177 B 0.22036 0.75561 0.74385
 B178 B 0.22799 0.73265 0.76969
 B179 B 0.25704 0.74209 0.78518
 B180 B 0.26668 0.77103 0.76888
 B181 B 0.23393 0.26823 0.22356
 B182 B 0.24279 0.28204 0.25594
 B183 B 0.21962 0.25855 0.25567
 B184 B 0.22747 0.23626 0.22985
 B185 B 0.25635 0.24641 0.21409
 B186 B 0.26569 0.27509 0.23022
 B187 B 0.26456 0.23738 0.27388
 B188 B 0.25569 0.22358 0.24149
 B189 B 0.27887 0.24705 0.24174
 B190 B 0.27102 0.26935 0.26758
 B191 B 0.24212 0.25920 0.28334
 B192 B 0.23280 0.23052 0.26721
 B193 B 0.76958 0.76153 0.27482
 B194 B 0.76124 0.77546 0.24204
 B195 B 0.78423 0.75263 0.24305
 B196 B 0.77585 0.72981 0.26917
 B197 B 0.74683 0.73894 0.28427
 B198 B 0.73798 0.76755 0.26749
 B199 B 0.73932 0.73043 0.22450
 B200 B 0.74766 0.71646 0.25725
 B201 B 0.72470 0.73932 0.25623
 B202 B 0.73309 0.76212 0.23014
 B203 B 0.76207 0.75299 0.21501
 B204 B 0.77093 0.72437 0.23179
 B205 B 0.73202 0.23482 0.77587
 B206 B 0.74054 0.22176 0.74309
 B207 B 0.71741 0.24441 0.74418
 B208 B 0.72556 0.26662 0.77027
 B209 B 0.75459 0.25729 0.78535
 B210 B 0.76369 0.22918 0.76853
 B211 B 0.76217 0.26743 0.72556
 B212 B 0.75367 0.28046 0.75836
 B213 B 0.77681 0.25780 0.75728
 B214 B 0.76864 0.23561 0.73116
 B215 B 0.73960 0.24492 0.71610
 B216 B 0.73049 0.27304 0.73293
 N217 N 0.37274 1.02911 0.32526
 C218 C 0.39903 1.03011 0.32265
 N219 N 0.41020 1.02269 0.29661
 N220 N 0.39550 1.01470 0.27377
 C221 C 0.36909 1.01349 0.27630
 N222 N 0.35804 1.02111 0.30246
 C223 C 0.41482 1.03650 0.34811
 C224 C 0.42792 1.04011 0.37012
 C225 C 0.44332 1.04158 0.39686
 N226 N 0.46964 1.04056 0.39506
 N227 N 0.48377 1.03604 0.41958
 C228 C 0.47209 1.03233 0.44674
 N229 N 0.44580 1.03423 0.44854
 N230 N 0.43166 1.03877 0.42405
 N231 N -0.13117 0.52448 0.82615
 C232 C -0.10483 0.52480 0.82402
 N233 N -0.09352 0.51736 0.79807
 N234 N -0.10811 0.51001 0.77486
 C235 C -0.13456 0.50950 0.77689
 N236 N -0.14576 0.51713 0.80296
 C237 C -0.08915 0.53066 0.84973
 C238 C -0.07596 0.53389 0.87175
 C239 C -0.06029 0.53503 0.89831
 N240 N -0.03404 0.53329 0.89619
 N241 N -0.01978 0.52866 0.92057
 C242 C -0.03125 0.52555 0.94793
 N243 N -0.05745 0.52816 0.95004
 N244 N -0.07173 0.53280 0.92568
 N245 N 0.12692 -0.02702 0.82543
 C246 C 0.10060 -0.02820 0.82338
 N247 N 0.08906 -0.02091 0.79731
 N248 N 0.10343 -0.01290 0.77389
 C249 C 0.12987 -0.01153 0.77584
 N250 N 0.14129 -0.01901 0.80205
 C251 C 0.08513 -0.03476 0.84931
 C252 C 0.07220 -0.03855 0.87160
 C253 C 0.05693 -0.04024 0.89853
 N254 N 0.03060 -0.03918 0.89698
 N255 N 0.01659 -0.03483 0.92154
 C256 C 0.02840 -0.03134 0.94850
 N257 N 0.05470 -0.03330 0.95007
 N258 N 0.06872 -0.03767 0.92554
 N259 N 0.60100 0.50012 0.30929
 C260 C 0.60351 0.47708 0.32415
 N261 N 0.62127 0.45992 0.31447
 N262 N 0.63599 0.46561 0.29053
 C263 C 0.63355 0.48867 0.27534
 N264 N 0.61573 0.50581 0.28536
 C265 C 0.58852 0.47178 0.35079
 C266 C 0.57600 0.46893 0.37352
 C267 C 0.56117 0.46813 0.40080
 N268 N 0.57328 0.47225 0.42736
 N269 N 0.55946 0.47686 0.45196
 C270 C 0.53306 0.47752 0.45092
 N271 N 0.52097 0.47262 0.42443
 N272 N 0.53478 0.46803 0.39979
 N273 N 0.60455 0.53396 0.20163
 C274 C 0.60597 0.52202 0.17477
 N275 N 0.62168 0.50127 0.17185
 N276 N 0.63565 0.49275 0.19502
 C277 C 0.63424 0.50447 0.22215
 N278 N 0.61855 0.52543 0.22482
 C279 C 0.59014 0.53013 0.14999
 C280 C 0.57674 0.53501 0.12854
 C281 C 0.56073 0.53776 0.10241
 N282 N 0.57170 0.53674 0.07477
 N283 N 0.55693 0.53295 0.05062
 C284 C 0.53068 0.53002 0.05322
 N285 N 0.51970 0.53200 0.08084
 N286 N 0.53446 0.53577 0.10501
 N287 N 0.10009 1.03369 0.70129
 C288 C 0.10277 1.02223 0.67427
 N289 N 0.11927 1.00209 0.67161
 N290 N 0.13285 0.99372 0.69515
 C291 C 0.13024 1.00501 0.72239
 N292 N 0.11370 1.02532 0.72488
 C293 C 0.08759 1.03024 0.64892
 C294 C 0.07494 1.03493 0.62681
 C295 C 0.06006 1.03732 0.59977
 N296 N 0.07211 1.03508 0.57288
 N297 N 0.05828 1.03078 0.54813
 C298 C 0.03191 1.02856 0.54935
 N299 N 0.01985 1.03175 0.57619
 N300 N 0.03368 1.03602 0.60097
 N301 N -0.12345 0.49655 0.67325
 C302 C -0.10753 0.47594 0.67652
 N303 N -0.10562 0.46404 0.70376
 N304 N -0.11937 0.47247 0.72698
 C305 C -0.13528 0.49328 0.72390
 N306 N -0.13717 0.50498 0.69643
 C307 C -0.09186 0.46806 0.65171
 C308 C -0.07857 0.46349 0.63018
 C309 C -0.06265 0.46119 0.60395
 N310 N -0.03635 0.46263 0.60641
 N311 N -0.02156 0.46690 0.58219
 C312 C -0.03253 0.46995 0.55466
 N313 N -0.05881 0.46757 0.55220
 N314 N -0.07362 0.46329 0.57640
 N315 N 0.37768 -0.00110 0.17228
 C316 C 0.39437 -0.02110 0.17539
 N317 N 0.39770 -0.03220 0.20287
 N318 N 0.38454 -0.02364 0.22647
 C319 C 0.36784 -0.00345 0.22354
 N320 N 0.36456 0.00747 0.19585
 C321 C 0.40918 -0.02924 0.15000
 C322 C 0.42160 -0.03400 0.12785
 C323 C 0.43637 -0.03644 0.10075
 N324 N 0.46275 -0.03650 0.10188
 N325 N 0.47681 -0.03224 0.07706
 C326 C 0.46498 -0.02770 0.05028
 N327 N 0.43855 -0.02859 0.04913
 N328 N 0.42450 -0.03288 0.07390
 N329 N 0.29481 0.44784 0.02827
 C330 C 0.31686 0.44438 0.01210
 N331 N 0.31671 0.42688 -0.01029
 N332 N 0.29525 0.41311 -0.01635
 C333 C 0.27300 0.41627 -0.00032
 N334 N 0.27324 0.43402 0.02215
 C335 C 0.34067 0.45802 0.01874
 C336 C 0.36194 0.46774 0.02214
 C337 C 0.38827 0.47725 0.02356
 N338 N 0.40688 0.46202 0.03576
 N339 N 0.43199 0.46844 0.03258
 C340 C 0.43935 0.49017 0.01684
 N341 N 0.42063 0.50566 0.00512
 N342 N 0.39551 0.49923 0.00828
 N343 N -0.19332 0.92721 0.53417
 C344 C -0.18220 0.94214 0.51214
 N345 N -0.19409 0.94390 0.48509
 N346 N -0.21629 0.93089 0.48006
 C347 C -0.22738 0.91553 0.50187
 N348 N -0.21556 0.91420 0.52917
 C349 C -0.15672 0.95344 0.51602
 C350 C -0.13476 0.96193 0.51774
 C351 C -0.10817 0.97088 0.51792
 N352 N -0.10137 0.99402 0.50483
 N353 N -0.07636 1.00096 0.50184
 C354 C -0.05731 0.98494 0.51168
 N355 N -0.06423 0.96193 0.52509
 N356 N -0.08923 0.95498 0.52810
 N357 N -0.20460 0.04252 0.99134
 C358 C -0.18285 0.05479 0.98054
 N359 N -0.18324 0.08077 0.97500
 N360 N -0.20468 0.09416 0.98014
 C361 C -0.22662 0.08209 0.99099
 N362 N -0.22614 0.05593 0.99645
 C363 C -0.15873 0.04142 0.97816
 C364 C -0.13748 0.03194 0.97728
 C365 C -0.11134 0.02272 0.97768
 N366 N -0.09200 0.03730 0.96475
 N367 N -0.06721 0.03080 0.96835
 C368 C -0.06089 0.00960 0.98515
 N369 N -0.08034 -0.00524 0.99765
 N370 N -0.10516 0.00128 0.99409
 N371 N 0.30433 0.54934 0.50903
 C372 C 0.31818 0.55423 0.48359
 N373 N 0.30947 0.57215 0.46355
 N374 N 0.28772 0.58506 0.46899
 C375 C 0.27402 0.58066 0.49480
 N376 N 0.28262 0.56225 0.51449
 C377 C 0.34351 0.54342 0.48022
 C378 C 0.36545 0.53562 0.47907
 C379 C 0.39207 0.52778 0.47965
 N380 N 0.41105 0.54429 0.46935
 N381 N 0.43604 0.53860 0.47318
 C382 C 0.44290 0.51631 0.48761
 N383 N 0.42381 0.49965 0.49756
 N384 N 0.39880 0.50533 0.49375
 N385 N 0.19816 0.54735 0.49828
 C386 C 0.18428 0.55130 0.52364
 N387 N 0.19293 0.56924 0.54348
 N388 N 0.21466 0.58307 0.53793
 C389 C 0.22841 0.57961 0.51219
 N390 N 0.21987 0.56118 0.49271
 C391 C 0.15889 0.53961 0.52701
 C392 C 0.13688 0.53116 0.52813
 C393 C 0.11015 0.52273 0.52748
 N394 N 0.09138 0.53863 0.53761
 N395 N 0.06632 0.53256 0.53356
 C396 C 0.05917 0.51049 0.51908
 N397 N 0.07804 0.49441 0.50933
 N398 N 0.10312 0.50048 0.51335
 N399 N 0.69189 0.06978 0.03945
 C400 C 0.68130 0.05458 0.01785
 N401 N 0.69387 0.05245 -0.00872
 N402 N 0.71617 0.06542 -0.01377
 C403 C 0.72670 0.08111 0.00754
 N404 N 0.71424 0.08275 0.03442
 C405 C 0.65553 0.04376 0.02131
 C406 C 0.63332 0.03584 0.02252
 C407 C 0.60649 0.02772 0.02198
 N408 N 0.59946 0.00430 0.01053
 N409 N 0.57438 -0.00196 0.00679
 C410 C 0.55551 0.01503 0.01420
 N411 N 0.56265 0.03834 0.02592
 N412 N 0.58771 0.04461 0.02969
 N413 N 0.70484 0.95563 0.48602
 C414 C 0.68275 0.94405 0.47563
 N415 N 0.68260 0.91818 0.47008
 N416 N 0.70382 0.90424 0.47491
 C417 C 0.72606 0.91562 0.48541
 N418 N 0.72613 0.94167 0.49080
 C419 C 0.65886 0.95798 0.47389
 C420 C 0.63784 0.96801 0.47363
 C421 C 0.61193 0.97785 0.47470
 N422 N 0.59228 0.96458 0.46116
 N423 N 0.56765 0.97138 0.46529
 C424 C 0.56178 0.99156 0.48328
 N425 N 0.58157 1.00519 0.49635
 N426 N 0.60624 0.99836 0.49225
 N427 N 0.20285 0.45477 0.98690
 C428 C 0.18128 0.44271 0.97581
 N429 N 0.18213 0.41707 0.96928
 N430 N 0.20379 0.40378 0.97391
 C431 C 0.22545 0.41559 0.98531
 N432 N 0.22459 0.44146 0.99148
 C433 C 0.15689 0.45574 0.97439
 C434 C 0.13548 0.46491 0.97440
 C435 C 0.10921 0.47370 0.97580
 N436 N 0.08986 0.45935 0.96312
 N437 N 0.06505 0.46538 0.96746
 C438 C 0.05871 0.48582 0.98481
 N439 N 0.07817 0.50046 0.99707
 N440 N 0.10302 0.49441 0.99277
 N441 N -0.00524 0.29571 0.44139
 C442 C -0.00880 0.31934 0.42809
 N443 N -0.00966 0.32103 0.39775
 N444 N -0.00716 0.29986 0.38116
 C445 C -0.00369 0.27604 0.39421
 N446 N -0.00274 0.27445 0.42476
 C447 C -0.01107 0.34269 0.44541
 C448 C -0.01276 0.36343 0.45771
 C449 C -0.01427 0.38937 0.46944
 N450 N -0.02098 0.40919 0.45079
 N451 N -0.01992 0.43371 0.46006
 C452 C -0.01234 0.43942 0.48844
 N453 N -0.00579 0.41949 0.50725
 N454 N -0.00677 0.39487 0.49792
 N455 N 0.49695 -0.20105 -0.06051
 C456 C 0.48981 -0.17867 -0.07458
 N457 N 0.48588 -0.17877 -0.10465
 N458 N 0.48891 -0.20048 -0.12020
 C459 C 0.49601 -0.22302 -0.10631
 N460 N 0.49998 -0.22283 -0.07608
 C461 C 0.48744 -0.15470 -0.05843
 C462 C 0.48572 -0.13369 -0.04672
 C463 C 0.48417 -0.10763 -0.03534
 N464 N 0.49067 -0.10206 -0.00655
 N465 N 0.49140 -0.07740 0.00270
 C466 C 0.48559 -0.05752 -0.01650
 N467 N 0.47901 -0.06329 -0.04520
 N468 N 0.47821 -0.08784 -0.05441
 N469 N 0.02931 -0.19169 1.09201
 C470 C 0.00969 -0.18515 1.07320
 N471 N -0.01127 -0.20149 1.07092
 N472 N -0.01250 -0.22367 1.08689
 C473 C 0.00714 -0.23039 1.10583
 N474 N 0.02806 -0.21383 1.10797
 C475 C 0.01026 -0.16020 1.05792
 C476 C 0.01073 -0.13861 1.04667
 C477 C 0.01104 -0.11211 1.03552
 N478 N 0.00595 -0.10633 1.00627
 N479 N 0.00468 -0.08154 0.99689
 C480 C 0.00855 -0.06172 1.01642
 N481 N 0.01372 -0.06769 1.04558
 N482 N 0.01503 -0.09238 1.05493
 N483 N 0.50855 0.29930 0.55982
 C484 C 0.50666 0.32249 0.57385
 N485 N 0.50189 0.32263 0.60377
 N486 N 0.49918 0.30037 0.61925
 C487 C 0.50104 0.27702 0.60543
 N488 N 0.50583 0.27696 0.57534
 C489 C 0.50976 0.34686 0.55773
 C490 C 0.51199 0.36825 0.54624
 C491 C 0.51399 0.39472 0.53525
 N492 N 0.50762 0.40115 0.50654
 N493 N 0.50705 0.42611 0.49770
 C494 C 0.51289 0.44546 0.51726
 N495 N 0.51937 0.43884 0.54588
 N496 N 0.52001 0.41397 0.55466
 N497 N 0.51514 1.18843 0.58840
 C498 C 0.49465 1.18444 0.56977
 N499 N 0.47586 1.20264 0.56810
 N500 N 0.47745 1.22404 0.58472
 C501 C 0.49776 1.22797 0.60388
 N502 N 0.51671 1.20977 0.60501
 C503 C 0.49210 1.16020 0.55406
 C504 C 0.49054 1.13898 0.54270
 C505 C 0.48945 1.11272 0.53172
 N506 N 0.48439 1.09279 0.55122
 N507 N 0.48568 1.06821 0.54233
 C508 C 0.49193 1.06255 0.51354
 N509 N 0.49686 1.08256 0.49390
 N510 N 0.49562 1.10725 0.50284
 N511 N -0.01979 0.69796 1.06786
 C512 C -0.00393 0.67737 1.07205
 N513 N 0.01502 0.67887 1.09311
 N514 N 0.01808 0.70022 1.10947
 C515 C 0.00234 0.72104 1.10545
 N516 N -0.01670 0.71938 1.08423
 C517 C -0.00792 0.65349 1.05597
 C518 C -0.01053 0.63250 1.04427
 C519 C -0.01271 0.60644 1.03287
 N520 N -0.00562 0.60090 1.00430
 N521 N -0.00496 0.57623 0.99522
 C522 C -0.01139 0.55628 1.01441
 N523 N -0.01857 0.56202 1.04288
 N524 N -0.01930 0.58660 1.05190
 N525 N 0.48782 0.69863 -0.06871
 C526 C 0.50993 0.68467 -0.07052
 N527 N 0.52920 0.69312 -0.08928
 N528 N 0.52639 0.71471 -0.10586
 C529 C 0.50410 0.72864 -0.10457
 N530 N 0.48501 0.72024 -0.08528
 C531 C 0.51193 0.65991 -0.05511
 C532 C 0.51324 0.63843 -0.04379
 C533 C 0.51416 0.61201 -0.03254
 N534 N 0.51943 0.59254 -0.05171
 N535 N 0.51798 0.56777 -0.04252
 C536 C 0.51140 0.56145 -0.01375
 N537 N 0.50632 0.58101 0.00556
 N538 N 0.50771 0.60588 -0.00367
 N539 N -0.01507 1.19566 0.42636
 C540 C 0.00770 1.18263 0.42618
 N541 N 0.02793 1.19245 0.40975
 N542 N 0.02548 1.21448 0.39390
 C543 C 0.00262 1.22753 0.39366
 N544 N -0.01753 1.21774 0.41051
 C545 C 0.00976 1.15764 0.44109
 C546 C 0.01142 1.13606 0.45212
 C547 C 0.01302 1.10963 0.46323
 N548 N 0.01925 1.09042 0.44410
 N549 N 0.01873 1.06561 0.45325
 C550 C 0.01216 1.05901 0.48195
 N551 N 0.00611 1.07832 0.50121
 N552 N 0.00659 1.10321 0.49203
 N553 N 0.77492 0.61926 0.92429
 C554 C 0.77613 0.64556 0.92641
 N555 N 0.76910 0.65677 0.95249
 N556 N 0.76131 0.64211 0.97586
 C557 C 0.75991 0.61570 0.97385
 N558 N 0.76713 0.60460 0.94763
 C559 C 0.78247 0.66136 0.90054
 C560 C 0.78609 0.67460 0.87833
 C561 C 0.78763 0.69030 0.85151
 N562 N 0.78674 0.71661 0.85324
 N563 N 0.78234 0.73105 0.82875
 C564 C 0.77863 0.71970 0.80168
 N565 N 0.78039 0.69342 0.79994
 N566 N 0.78481 0.67896 0.82439
 N567 N 0.25099 0.15132 0.43957
 C568 C 0.27445 0.14886 0.42599
 N569 N 0.29112 0.13076 0.43646
 N570 N 0.28457 0.11570 0.45997
 C571 C 0.26111 0.11811 0.47392
 N572 N 0.24444 0.13625 0.46308
 C573 C 0.28082 0.16439 0.39992
 C574 C 0.28459 0.17742 0.37759
 C575 C 0.28639 0.19287 0.35060
 N576 N 0.28389 0.18126 0.32361
 N577 N 0.27965 0.19547 0.29892
 C578 C 0.27776 0.22177 0.30031
 N579 N 0.28119 0.23339 0.32727
 N580 N 0.28541 0.21919 0.35199
 N581 N 0.72750 0.34170 0.45236
 C582 C 0.72551 0.35180 0.42420
 N583 N 0.73151 0.37731 0.41928
 N584 N 0.73896 0.39239 0.44189
 C585 C 0.74104 0.38241 0.47023
 N586 N 0.73493 0.35677 0.47502
 C587 C 0.71898 0.33540 0.39947
 C588 C 0.71510 0.32178 0.37811
 C589 C 0.71319 0.30574 0.35214
 N590 N 0.71632 0.27967 0.35491
 N591 N 0.72048 0.26534 0.33074
 C592 C 0.72171 0.27658 0.30297
 N593 N 0.71763 0.30255 0.30023
 N594 N 0.71347 0.31690 0.32439
 N595 N 0.20954 0.86841 0.93754
 C596 C 0.22626 0.85033 0.92764
 N597 N 0.24956 0.84767 0.94155
 N598 N 0.25590 0.86252 0.96481
 C599 C 0.23917 0.88063 0.97507
 N600 N 0.21588 0.88324 0.96079
 C601 C 0.22008 0.83512 0.90178
 C602 C 0.21627 0.82247 0.87959
 C603 C 0.21423 0.80752 0.85274
 N604 N 0.21515 0.78117 0.85428
 N605 N 0.21896 0.76743 0.82956
 C606 C 0.22200 0.77955 0.80243
 N607 N 0.22014 0.80588 0.80090
 N608 N 0.21632 0.81963 0.82559
 N609 N 0.28489 0.85164 0.04852
 C610 C 0.27362 0.85398 0.07585
 N611 N 0.25322 0.87010 0.07892
 N612 N 0.24441 0.88362 0.05547
 C613 C 0.25546 0.88134 0.02789
 N614 N 0.27607 0.86520 0.02503
 C615 C 0.28218 0.83896 0.10122
 C616 C 0.28727 0.82653 0.12351
 C617 C 0.29006 0.81198 0.15096
 N618 N 0.28617 0.82398 0.17744
 N619 N 0.28226 0.81004 0.20251
 C620 C 0.28216 0.78360 0.20207
 N621 N 0.28696 0.77165 0.17566
 N622 N 0.29081 0.78560 0.15052
 N623 N 0.78252 0.35492 0.54769
 C624 C 0.76882 0.35680 0.57355
 N625 N 0.74784 0.37244 0.57427
 N626 N 0.74091 0.38605 0.54998
 C627 C 0.75469 0.38447 0.52398
 N628 N 0.77560 0.36853 0.52339
 C629 C 0.77567 0.34172 0.59960
 C630 C 0.77991 0.32893 0.62190
 C631 C 0.78231 0.31358 0.64885
 N632 N 0.77938 0.32493 0.67588
 N633 N 0.77575 0.31038 0.70057
 C634 C 0.77495 0.28398 0.69915
 N635 N 0.77881 0.27268 0.67214
 N636 N 0.78242 0.28722 0.64742
 N637 N 0.24625 0.12893 0.57704
 C638 C 0.22593 0.14511 0.57312
 N639 N 0.21484 0.14721 0.54564
 N640 N 0.22375 0.13339 0.52283
 C641 C 0.24430 0.11724 0.52651
 N642 N 0.25516 0.11515 0.55424
 C643 C 0.21746 0.16074 0.59754
 C644 C 0.21238 0.17393 0.61884
 C645 C 0.20955 0.18962 0.64493
 N646 N 0.21227 0.21588 0.64250
 N647 N 0.21630 0.23017 0.66683
 C648 C 0.21782 0.21872 0.69444
 N649 N 0.21411 0.19252 0.69684
 N650 N 0.21006 0.17821 0.67253
 N651 N 0.71616 0.64517 0.04841
 C652 C 0.72816 0.64232 0.07530
 N653 N 0.74809 0.62552 0.07793
 N654 N 0.75579 0.61187 0.05445
 C655 C 0.74402 0.61470 0.02731
 N656 N 0.72385 0.63148 0.02488
 C657 C 0.72114 0.65785 0.10043
 C658 C 0.71737 0.67083 0.12227
 C659 C 0.71602 0.68615 0.14883
 N660 N 0.71831 0.67441 0.17611
 N661 N 0.72320 0.68849 0.20040
 C662 C 0.72602 0.71480 0.19828
 N663 N 0.72287 0.72656 0.17105
 N664 N 0.71800 0.71248 0.14673
 N665 N 0.17328 0.56187 0.21173
 C666 C 0.19184 0.57045 0.23101
 N667 N 0.19741 0.55584 0.25564
 N668 N 0.18460 0.53349 0.26108
 C669 C 0.16562 0.52492 0.24217
 N670 N 0.16047 0.53948 0.21716
 C671 C 0.20319 0.59603 0.22762
 C672 C 0.21209 0.61790 0.22683
 C673 C 0.22200 0.64412 0.22836
 N674 N 0.24320 0.64952 0.24540
 N675 N 0.25068 0.67410 0.25003
 C676 C 0.23707 0.69415 0.23803
 N677 N 0.21616 0.68867 0.22044
 N678 N 0.20864 0.66406 0.21583
 N679 N 0.67855 0.05644 0.71233
 C680 C 0.69366 0.06704 0.73406
 N681 N 0.69527 0.05475 0.76108
 N682 N 0.68193 0.03268 0.76638
 C683 C 0.66637 0.02213 0.74489
 N684 N 0.66522 0.03432 0.71761
 C685 C 0.70498 0.09256 0.73014
 C686 C 0.71328 0.11462 0.72853
 C687 C 0.72174 0.14135 0.72862
 N688 N 0.74443 0.14834 0.74206
 N689 N 0.75070 0.17341 0.74555
 C690 C 0.73440 0.19233 0.73590
 N691 N 0.71188 0.18523 0.72211
 N692 N 0.70561 0.16017 0.71860
 N693 N 0.83357 0.06602 0.27322
 C694 C 0.80737 0.06580 0.26980
 N695 N 0.79506 0.04361 0.26100
 N696 N 0.80863 0.02223 0.25582
 C697 C 0.83499 0.02236 0.25920
 N698 N 0.84712 0.04472 0.26801
 C699 C 0.79358 0.08962 0.27247
 C700 C 0.78371 0.11066 0.27353
 C701 C 0.77413 0.13664 0.27330
 N702 N 0.75328 0.14301 0.25624
 N703 N 0.74676 0.16786 0.25262
 C704 C 0.76104 0.18715 0.26566
 N705 N 0.78155 0.18061 0.28318
 N706 N 0.78806 0.15579 0.28685
 N707 N 0.33299 0.56813 0.77226
 C708 C 0.30684 0.56833 0.76857
 N709 N 0.29420 0.54621 0.76007
 N710 N 0.30743 0.52449 0.75547
 C711 C 0.33374 0.52420 0.75916
 N712 N 0.34619 0.54651 0.76763
 C713 C 0.29344 0.59241 0.77098
 C714 C 0.28392 0.61362 0.77199
 C715 C 0.27468 0.63976 0.77184
 N716 N 0.25356 0.64631 0.75535
 N717 N 0.24715 0.67121 0.75199
 C718 C 0.26178 0.69038 0.76477
 N719 N 0.28262 0.68367 0.78168
 N720 N 0.28902 0.65879 0.78508
 N721 N 0.30156 0.44559 0.75916
 C722 C 0.30509 0.43257 0.73327
 N723 N 0.32235 0.44215 0.71270
 N724 N 0.33577 0.46407 0.71793
 C725 C 0.33245 0.47719 0.74396
 N726 N 0.31498 0.46750 0.76441
 C727 C 0.29309 0.40743 0.72941
 C728 C 0.28414 0.38568 0.72744
 C729 C 0.27484 0.35922 0.72675
 N730 N 0.29029 0.34043 0.71582
 N731 N 0.28322 0.31541 0.71846
 C732 C 0.26052 0.30831 0.73220
 N733 N 0.24489 0.32723 0.74272
 N734 N 0.25196 0.35226 0.74011
 N735 N 0.82461 0.94055 0.21172
 C736 C 0.80788 0.93046 0.23256
 N737 N 0.80437 0.94328 0.25858
 N738 N 0.81730 0.96548 0.26371
 C739 C 0.83426 0.97567 0.24300
 N740 N 0.83755 0.96277 0.21683
 C741 C 0.79676 0.90493 0.22901
 C742 C 0.78859 0.88287 0.22753
 C743 C 0.78024 0.85614 0.22765
 N744 N 0.75722 0.84884 0.24042
 N745 N 0.75093 0.82369 0.24387
 C746 C 0.76751 0.80501 0.23484
 N747 N 0.79039 0.81243 0.22173
 N748 N 0.79669 0.83756 0.21826
 N749 N 0.66698 0.93194 0.77789
 C750 C 0.69290 0.93164 0.77236
 N751 N 0.70502 0.95353 0.76159
 N752 N 0.69152 0.97509 0.75647
 C753 C 0.66542 0.97547 0.76188
 N754 N 0.65349 0.95341 0.77273
 C755 C 0.70634 0.90750 0.77444
 C756 C 0.71596 0.88629 0.77493
 C757 C 0.72533 0.86022 0.77402
 N758 N 0.74640 0.85450 0.75712
 N759 N 0.75293 0.82979 0.75306
 C760 C 0.73844 0.81001 0.76550
 N761 N 0.71765 0.81588 0.78281
 N762 N 0.71114 0.84055 0.78691
 N763 N 0.17370 0.44024 0.28676
 C764 C 0.19408 0.43458 0.26877
 N765 N 0.20075 0.45131 0.24612
 N766 N 0.18735 0.47297 0.24147
 C767 C 0.16679 0.47872 0.25934
 N768 N 0.16028 0.46189 0.28212
 C769 C 0.20596 0.40959 0.27098
 C770 C 0.21464 0.38795 0.27151
 C771 C 0.22342 0.36163 0.27063
 N772 N 0.24532 0.35573 0.25530
 N773 N 0.25181 0.33096 0.25160
 C774 C 0.23651 0.31128 0.26291
 N775 N 0.21481 0.31732 0.27858
 N776 N 0.20832 0.34206 0.28231
 N777 N 0.06376 0.26279 0.83964
 C778 C 0.06563 0.24352 0.81930
 N779 N 0.04530 0.22655 0.81602
 N780 N 0.02382 0.22879 0.83263
 C781 C 0.02185 0.24805 0.85321
 N782 N 0.04234 0.26501 0.85624
 C783 C 0.08970 0.24021 0.80327
 C784 C 0.11078 0.23797 0.79157
 C785 C 0.13690 0.23609 0.78009
 N786 N 0.15632 0.22926 0.79899
 N787 N 0.18101 0.23011 0.78982
 C788 C 0.18727 0.23763 0.76132
 N789 N 0.16774 0.24429 0.74226
 N790 N 0.14296 0.24351 0.75149
 N791 N 0.57261 0.76376 0.34200
 C792 C 0.57363 0.74435 0.32176
 N793 N 0.55240 0.72861 0.31807
 N794 N 0.53086 0.73220 0.33418
 C795 C 0.52969 0.75166 0.35461
 N796 N 0.55112 0.76732 0.35810
 C797 C 0.59761 0.73973 0.30605
 C798 C 0.61861 0.73652 0.29451
 C799 C 0.64462 0.73368 0.28304
 N800 N 0.66382 0.72619 0.30193
 N801 N 0.68854 0.72651 0.29284
 C802 C 0.69505 0.73415 0.26445
 N803 N 0.67573 0.74142 0.24541
 N804 N 0.65093 0.74116 0.25454
 N805 N 0.57008 0.25889 0.14756
 C806 C 0.56896 0.25717 0.17790
 N807 N 0.54547 0.25330 0.19143
 N808 N 0.52379 0.25131 0.17503
 C809 C 0.52481 0.25311 0.14449
 N810 N 0.54849 0.25689 0.13121
 C811 C 0.59274 0.25871 0.19492
 C812 C 0.61383 0.25979 0.20690
 C813 C 0.64012 0.26065 0.21809
 N814 N 0.65984 0.26665 0.19886
 N815 N 0.68450 0.26523 0.20776
 C816 C 0.69046 0.25795 0.23632
 N817 N 0.67064 0.25208 0.25571
 N818 N 0.64587 0.25343 0.24675
 N819 N 0.06088 0.77786 0.65983
 C820 C 0.06832 0.75877 0.67914
 N821 N 0.05351 0.73669 0.68155
 N822 N 0.03202 0.73377 0.66506
 C823 C 0.02460 0.75268 0.64527
 N824 N 0.03941 0.77493 0.64334
 C825 C 0.09293 0.76084 0.69451
 C826 C 0.11431 0.76217 0.70576
 C827 C 0.14067 0.76315 0.71677
 N828 N 0.14639 0.75700 0.74576
 N829 N 0.17116 0.75579 0.75480
 C830 C 0.19100 0.76076 0.73516
 N831 N 0.18508 0.76699 0.70627
 N832 N 0.16043 0.76825 0.69727
 N833 N 0.93161 0.73384 0.64692
 C834 C 0.93128 0.73929 0.67659
 N835 N 0.95368 0.74732 0.69000
 N836 N 0.97571 0.74978 0.67416
 C837 C 0.97614 0.74432 0.64433
 N838 N 0.95357 0.73632 0.63110
 C839 C 0.90699 0.73802 0.69282
 C840 C 0.88571 0.73733 0.70449
 C841 C 0.85936 0.73705 0.71564
 N842 N 0.85385 0.74214 0.74480
 N843 N 0.82915 0.74376 0.75401
 C844 C 0.80918 0.74030 0.73436
 N845 N 0.81489 0.73515 0.70529
 N846 N 0.83947 0.73348 0.69613
 N847 N 0.44611 0.26531 0.17770
 C848 C 0.43154 0.24300 0.17754
 N849 N 0.43961 0.22280 0.16083
 N850 N 0.46147 0.22485 0.14471
 C851 C 0.47607 0.24726 0.14449
 N852 N 0.46800 0.26737 0.16159
 C853 C 0.40665 0.24159 0.19257
 C854 C 0.38511 0.24067 0.20361
 C855 C 0.35864 0.24005 0.21445
 N856 N 0.33891 0.23610 0.19481
 N857 N 0.31424 0.23731 0.20380
 C858 C 0.30827 0.24236 0.23284
 N859 N 0.32808 0.24618 0.25261
 N860 N 0.35286 0.24501 0.24358
 N861 N 0.44376 0.77835 0.34039
 C862 C 0.43661 0.75836 0.32248
 N863 N 0.45204 0.73722 0.32113
 N864 N 0.47397 0.73619 0.33713
 C865 C 0.48130 0.75623 0.35517
 N866 N 0.46563 0.77731 0.35638
 C867 C 0.41192 0.75889 0.30720
 C868 C 0.39049 0.75973 0.29608
 C869 C 0.36411 0.76093 0.28527
 N870 N 0.35743 0.75230 0.25759
 N871 N 0.33253 0.75195 0.24889
 C872 C 0.31352 0.76033 0.26753
 N873 N 0.32041 0.76903 0.29511
 N874 N 0.34520 0.76942 0.30377
 N875 N 0.92762 0.25669 0.85462
 C876 C 0.92787 0.25731 0.82421
 N877 N 0.95091 0.25504 0.80961
 N878 N 0.97299 0.25227 0.82503
 C879 C 0.97286 0.25150 0.85562
 N880 N 0.94965 0.25392 0.87000
 C881 C 0.90378 0.26011 0.80803
 C882 C 0.88272 0.26219 0.79623
 C883 C 0.85663 0.26412 0.78468
 N884 N 0.85073 0.25730 0.75610
 N885 N 0.82600 0.25672 0.74679
 C886 C 0.80636 0.26304 0.76573
 N887 N 0.81248 0.26997 0.79421
 N888 N 0.83711 0.27061 0.80346
 N889 N 0.59933 1.00099 0.69132
 C890 C 0.60278 0.97794 0.67750
 N891 N 0.62107 0.96152 0.68806
 N892 N 0.63537 0.96792 0.71185
 C893 C 0.63198 0.99099 0.72601
 N894 N 0.61364 1.00739 0.71511
 C895 C 0.58826 0.97184 0.65098
 C896 C 0.57613 0.96825 0.62823
 C897 C 0.56174 0.96663 0.60077
 N898 N 0.57413 0.97087 0.57422
 N899 N 0.56055 0.97513 0.54925
 C900 C 0.53412 0.97529 0.54989
 N901 N 0.52177 0.97014 0.57637
 N902 N 0.53534 0.96590 0.60138
 N903 N 0.09915 0.50141 1.18953
 C904 C 0.10152 0.47735 1.17776
 N905 N 0.11909 0.46084 1.18972
 N906 N 0.13385 0.46821 1.21277
 C907 C 0.13175 0.49240 1.22465
 N908 N 0.11392 0.50878 1.21258
 C909 C 0.08660 0.47014 1.15188
 C910 C 0.07419 0.46561 1.12956
 C911 C 0.05949 0.46285 1.10242
 N912 N 0.07156 0.46611 1.07552
 N913 N 0.05770 0.46949 1.05058
 C914 C 0.03127 0.46970 1.05159
 N915 N 0.01924 0.46547 1.07845
 N916 N 0.03309 0.46211 1.10343
 N917 N -0.09154 0.01743 1.20219
 C918 C -0.10337 0.02507 1.17643
 N919 N -0.12971 0.02405 1.17481
 N920 N -0.14382 0.01581 1.19831
 C921 C -0.13210 0.00793 1.22418
 N922 N -0.10564 0.00918 1.22571
 C923 C -0.08822 0.03146 1.15023
 C924 C -0.07558 0.03492 1.12769
 C925 C -0.06068 0.03608 1.10049
 N926 N -0.07280 0.03259 1.07382
 N927 N -0.05906 0.02766 1.04924
 C928 C -0.03272 0.02603 1.05045
 N929 N -0.02059 0.03040 1.07703
 N930 N -0.03432 0.03531 1.10164
 N931 N 0.37062 0.52451 0.67601
 C932 C 0.39692 0.52551 0.67845
 N933 N 0.40813 0.51791 0.70461
 N934 N 0.39346 0.50979 0.72774
 C935 C 0.36704 0.50863 0.72540
 N936 N 0.35596 0.51639 0.69911
 C937 C 0.41266 0.53238 0.65284
 C938 C 0.42571 0.53654 0.63072
 C939 C 0.44105 0.53883 0.60387
 N940 N 0.46741 0.53866 0.60550
 N941 N 0.48165 0.53508 0.58092
 C942 C 0.47003 0.53150 0.55386
 N943 N 0.44366 0.53252 0.55224
 N944 N 0.42942 0.53613 0.57679
 N945 N 0.39636 0.46418 -0.19937
 C946 C 0.39344 0.47596 -0.17257
 N947 N 0.37657 0.49581 -0.17029
 N948 N 0.36294 0.50366 -0.19402
 C949 C 0.36587 0.49214 -0.22109
 N950 N 0.38269 0.47202 -0.22316
 C951 C 0.40906 0.46893 -0.14717
 C952 C 0.42210 0.46525 -0.12512
 C953 C 0.43752 0.46406 -0.09836
 N954 N 0.42593 0.46683 -0.07127
 N955 N 0.44018 0.47180 -0.04699
 C956 C 0.46650 0.47421 -0.04893
 N957 N 0.47809 0.47060 -0.07596
 N958 N 0.46385 0.46566 -0.10026
 N959 N -0.12007 0.99316 0.32779
 C960 C -0.10319 0.97343 0.32445
 N961 N -0.10079 0.96225 0.29723
 N962 N -0.11500 0.97053 0.27409
 C963 C -0.13187 0.99050 0.27723
 N964 N -0.13424 1.00145 0.30468
 C965 C -0.08709 0.96583 0.34918
 C966 C -0.07363 0.96164 0.37076
 C967 C -0.05780 0.95993 0.39713
 N968 N -0.03162 0.96326 0.39487
 N969 N -0.01736 0.96817 0.41916
 C970 C -0.02880 0.97001 0.44656
 N971 N -0.05490 0.96577 0.44883
 N972 N -0.06916 0.96083 0.42456
 N973 N 0.09215 0.51489 0.30070
 C974 C 0.10416 0.52313 0.32602
 N975 N 0.13053 0.52369 0.32713
 N976 N 0.14447 0.51660 0.30347
 C977 C 0.13261 0.50853 0.27784
 N978 N 0.10610 0.50780 0.27702
 C979 C 0.08923 0.52922 0.35216
 C980 C 0.07678 0.53285 0.37462
 C981 C 0.06200 0.53461 0.40183
 N982 N 0.07375 0.53028 0.42860
 N983 N 0.05957 0.52630 0.45335
 C984 C 0.03315 0.52657 0.45227
 N985 N 0.02148 0.53178 0.42554
 N986 N 0.03565 0.53573 0.40075
 N987 N 0.60101 0.03560 -0.20192
 C988 C 0.60313 0.02419 -0.17445
 N989 N 0.61964 0.00412 -0.17066
 N990 N 0.63375 -0.00423 -0.19357
 C991 C 0.63168 0.00697 -0.22130
 N992 N 0.61515 0.02724 -0.22486
 C993 C 0.58735 0.03221 -0.14978
 C994 C 0.57414 0.03695 -0.12824
 C995 C 0.55850 0.03947 -0.10181
 N996 N 0.56973 0.03716 -0.07443
 N997 N 0.55515 0.03298 -0.05004
 C998 C 0.52881 0.03097 -0.05212
 N999 N 0.51758 0.03426 -0.07948
 N1000 N 0.53216 0.03840 -0.10390
 N1001 N 0.69677 0.55093 0.00916
 C1002 C 0.68310 0.55485 -0.01644
 N1003 N 0.69244 0.57203 -0.03736
 N1004 N 0.71474 0.58502 -0.03271
 C1005 C 0.72848 0.58134 -0.00695
 N1006 N 0.71905 0.56391 0.01383
 C1007 C 0.65752 0.54361 -0.01944
 C1008 C 0.63544 0.53537 -0.02053
 C1009 C 0.60870 0.52696 -0.02009
 N1010 N 0.59010 0.54280 -0.03121
 N1011 N 0.56497 0.53661 -0.02762
 C1012 C 0.55759 0.51447 -0.01267
 N1013 N 0.57630 0.49846 -0.00193
 N1014 N 0.60144 0.50464 -0.00549
 N1015 N 0.19792 1.05327 0.50906
 C1016 C 0.18566 1.05545 0.48227
 N1017 N 0.19627 1.07107 0.46053
 N1018 N 0.21831 1.08440 0.46562
 C1019 C 0.23043 1.08272 0.49271
 N1020 N 0.21991 1.06660 0.51417
 C1021 C 0.16012 1.04423 0.47864
 C1022 C 0.13805 1.03599 0.47717
 C1023 C 0.11133 1.02745 0.47729
 N1024 N 0.09245 1.04407 0.46865
 N1025 N 0.06741 1.03737 0.47191
 C1026 C 0.06039 1.01387 0.48403
 N1027 N 0.07937 0.99715 0.49237
 N1028 N 0.10442 1.00385 0.48913
 N1029 N 0.20021 -0.04689 1.00903
 C1030 C 0.17870 -0.05949 1.01996
 N1031 N 0.17962 -0.08540 1.02584
 N1032 N 0.20135 -0.09839 1.02089
 C1033 C 0.22305 -0.08598 1.00990
 N1034 N 0.22202 -0.05990 1.00411
 C1035 C 0.15433 -0.04655 1.02207
 C1036 C 0.13297 -0.03729 1.02267
 C1037 C 0.10679 -0.02819 1.02193
 N1038 N 0.08740 -0.04281 1.03467
 N1039 N 0.06262 -0.03634 1.03085
 C1040 C 0.05638 -0.01514 1.01401
 N1041 N 0.07589 -0.00027 1.00167
 N1042 N 0.10070 -0.00675 1.00546
 N1043 N 0.70302 0.44933 0.52998
 C1044 C 0.68103 0.44580 0.51356
 N1045 N 0.68077 0.42804 0.49144
 N1046 N 0.70175 0.41414 0.48584
 C1047 C 0.72396 0.41741 0.50208
 N1048 N 0.72413 0.43537 0.52432
 C1049 C 0.65771 0.45970 0.51964
 C1050 C 0.63684 0.46965 0.52267
 C1051 C 0.61090 0.47940 0.52385
 N1052 N 0.59161 0.46454 0.53645
 N1053 N 0.56680 0.47114 0.53323
 C1054 C 0.56039 0.49269 0.51709
 N1055 N 0.57980 0.50785 0.50501
 N1056 N 0.60464 0.50124 0.50819
 N1057 N -0.20357 0.45538 0.49154
 C1058 C -0.18300 0.44365 0.47864
 N1059 N -0.18547 0.41850 0.47021
 N1060 N -0.20775 0.40537 0.47470
 C1061 C -0.22847 0.41688 0.48777
 N1062 N -0.22592 0.44223 0.49599
 C1063 C -0.15793 0.45632 0.47731
 C1064 C -0.13610 0.46530 0.47738
 C1065 C -0.10949 0.47405 0.47887
 N1066 N -0.09054 0.45954 0.46661
 N1067 N -0.06554 0.46569 0.47100
 C1068 C -0.05862 0.48644 0.48794
 N1069 N -0.07768 0.50120 0.49980
 N1070 N -0.10271 0.49504 0.49545
 N1071 N 0.30148 -0.05402 0.00882
 C1072 C 0.31376 -0.05565 -0.01800
 N1073 N 0.30353 -0.07134 -0.03936
 N1074 N 0.28177 -0.08519 -0.03391
 C1075 C 0.26960 -0.08399 -0.00682
 N1076 N 0.27978 -0.06788 0.01429
 C1077 C 0.33898 -0.04368 -0.02198
 C1078 C 0.36081 -0.03480 -0.02359
 C1079 C 0.38734 -0.02567 -0.02349
 N1080 N 0.40645 -0.04121 -0.03355
 N1081 N 0.43139 -0.03440 -0.02997
 C1082 C 0.43810 -0.01192 -0.01607
 N1083 N 0.41889 0.00379 -0.00639
 N1084 N 0.39393 -0.00301 -0.00994
 N1085 N 0.30015 1.04571 0.50893
 C1086 C 0.32151 1.05826 0.51987
 N1087 N 0.32027 1.08400 0.52579
 N1088 N 0.29842 1.09689 0.52079
 C1089 C 0.27691 1.08453 0.50974
 N1090 N 0.27822 1.05861 0.50396
 C1091 C 0.34608 1.04558 0.52181
 C1092 C 0.36758 1.03660 0.52221
 C1093 C 0.39389 1.02786 0.52121
 N1094 N 0.41319 1.04250 0.53361
 N1095 N 0.43803 1.03637 0.52963
 C1096 C 0.44445 1.01553 0.51296
 N1097 N 0.42505 1.00065 0.50096
 N1098 N 0.40018 1.00678 0.50491
 N1099 N -0.20266 0.54254 1.00961
 C1100 C -0.18035 0.55498 1.01795
 N1101 N -0.18028 0.58115 1.02127
 N1102 N -0.20183 0.59455 1.01644
 C1103 C -0.22432 0.58228 1.00813
 N1104 N -0.22430 0.55596 1.00481
 C1105 C -0.15638 0.54135 1.02052
 C1106 C -0.13525 0.53161 1.02161
 C1107 C -0.10922 0.52212 1.02148
 N1108 N -0.08996 0.53604 1.03493
 N1109 N -0.06517 0.52955 1.03144
 C1110 C -0.05877 0.50904 1.01422
 N1111 N -0.07816 0.49479 1.00127
 N1112 N -0.10298 0.50129 1.00472
 N1113 N 0.00748 0.70203 0.56124
 C1114 C 0.01020 0.67893 0.57600
 N1115 N 0.00997 0.67853 0.60641
 N1116 N 0.00720 0.70045 0.62164
 C1117 C 0.00460 0.72375 0.60711
 N1118 N 0.00471 0.72402 0.57651
 C1119 C 0.01251 0.65486 0.56002
 C1120 C 0.01406 0.63376 0.54846
 C1121 C 0.01526 0.60762 0.53722
 N1122 N 0.02085 0.58781 0.55640
 N1123 N 0.01960 0.56322 0.54735
 C1124 C 0.01291 0.55743 0.51869
 N1125 N 0.00748 0.57734 0.49936
 N1126 N 0.00867 0.60203 0.50846
 N1127 N 0.52481 0.18834 0.09233
 C1128 C 0.50666 0.18281 0.07122
 N1129 N 0.48671 0.19945 0.06698
 N1130 N 0.48505 0.22097 0.08333
 C1131 C 0.50324 0.22665 0.10461
 N1132 N 0.52314 0.20978 0.10866
 C1133 C 0.50757 0.15846 0.05555
 C1134 C 0.50852 0.13724 0.04419
 C1135 C 0.50953 0.11104 0.03309
 N1136 N 0.50308 0.10538 0.00431
 N1137 N 0.50227 0.08070 -0.00481
 C1138 C 0.50798 0.06086 0.01450
 N1139 N 0.51453 0.06671 0.04318
 N1140 N 0.51540 0.09130 0.05227
 N1141 N -0.02659 0.19811 0.92847
 C1142 C -0.00814 0.17961 0.92651
 N1143 N 0.01262 0.18400 0.90820
 N1144 N 0.01478 0.20603 0.89214
 C1145 C -0.00380 0.22456 0.89355
 N1146 N -0.02440 0.22019 0.91240
 C1147 C -0.01124 0.15482 0.94183
 C1148 C -0.01322 0.13328 0.95304
 C1149 C -0.01473 0.10680 0.96418
 N1150 N -0.00915 0.10078 0.99323
 N1151 N -0.00827 0.07593 1.00244
 C1152 C -0.01298 0.05628 0.98292
 N1153 N -0.01867 0.06247 0.95395
 N1154 N -0.01961 0.08723 0.94478
 N1155 N 0.47741 0.70425 0.42809
 C1156 C 0.49661 0.68647 0.42973
 N1157 N 0.51897 0.69100 0.41415
 N1158 N 0.52201 0.71250 0.39731
 C1159 C 0.50275 0.73029 0.39520
 N1160 N 0.48047 0.72581 0.41125
 C1161 C 0.49279 0.66207 0.44564
 C1162 C 0.49037 0.64074 0.45725
 C1163 C 0.48848 0.61437 0.46863
 N1164 N 0.49534 0.60824 0.49728
 N1165 N 0.49622 0.58337 0.50641
 C1166 C 0.49024 0.56381 0.48719
 N1167 N 0.48329 0.57013 0.45864
 N1168 N 0.48235 0.59490 0.44956
 N1169 N 0.51062 0.80001 0.44007
 C1170 C 0.51350 0.82346 0.42587
 N1171 N 0.51401 0.82436 0.39548
 N1172 N 0.51168 0.80262 0.37971
 C1173 C 0.50868 0.77900 0.39367
 N1174 N 0.50830 0.77817 0.42426
 C1175 C 0.51522 0.84737 0.44232
 C1176 C 0.51630 0.86850 0.45395
 C1177 C 0.51704 0.89478 0.46484
 N1178 N 0.52143 0.91470 0.44514
 N1179 N 0.52003 0.93928 0.45397
 C1180 C 0.51436 0.94497 0.48290
 N1181 N 0.51009 0.92496 0.50275
 N1182 N 0.51143 0.90026 0.49387
 N1183 N 0.00162 0.31917 0.89588
 C1184 C 0.00553 0.31773 0.92592
 N1185 N 0.00675 0.29393 0.93947
 N1186 N 0.00419 0.27228 0.92338
 C1187 C 0.00023 0.27365 0.89316
 N1188 N -0.00094 0.29760 0.87982
 C1189 C 0.00836 0.34140 0.94270
 C1190 C 0.01044 0.36231 0.95470
 C1191 C 0.01237 0.38837 0.96619
 N1192 N 0.00512 0.39387 0.99472
 N1193 N 0.00455 0.41853 1.00388
 C1194 C 0.01127 0.43850 0.98484
 N1195 N 0.01859 0.43279 0.95641
 N1196 N 0.01923 0.40823 0.94731
 N1197 N 0.47327 0.29967 0.07084
 C1198 C 0.49033 0.32001 0.07355
 N1199 N 0.51086 0.31759 0.09236
 N1200 N 0.51429 0.29561 0.10797
 C1201 C 0.49737 0.27503 0.10541
 N1202 N 0.47673 0.27761 0.08647
 C1203 C 0.48624 0.34451 0.05824
 C1204 C 0.48391 0.36594 0.04705
 C1205 C 0.48241 0.39238 0.03596
 N1206 N 0.48886 0.39873 0.00715
 N1207 N 0.49034 0.42366 -0.00181
 C1208 C 0.48541 0.44308 0.01774
 N1209 N 0.47883 0.43656 0.04646
 N1210 N 0.47730 0.41171 0.05537
 N1211 N 0.01354 0.80129 0.56768
 C1212 C -0.00753 0.81661 0.57075
 N1213 N -0.02630 0.80947 0.59081
 N1214 N -0.02406 0.78779 0.60734
 C1215 C -0.00295 0.77233 0.60455
 N1216 N 0.01577 0.77955 0.58420
 C1217 C -0.00892 0.84135 0.55519
 C1218 C -0.01003 0.86284 0.54384
 C1219 C -0.01103 0.88929 0.53267
 N1220 N -0.01672 0.90863 0.55184
 N1221 N -0.01576 0.93342 0.54266
 C1222 C -0.00925 0.93987 0.51391
 N1223 N -0.00370 0.92043 0.49461
 N1224 N -0.00462 0.89555 0.50383
 N1225 N 0.21283 0.35278 0.04459
 C1226 C 0.22634 0.35496 0.07055
 N1227 N 0.24758 0.37099 0.07142
 N1228 N 0.25493 0.38474 0.04719
 C1229 C 0.24134 0.38292 0.02111
 N1230 N 0.22018 0.36654 0.02034
 C1231 C 0.21905 0.33986 0.09663
 C1232 C 0.21470 0.32723 0.11913
 C1233 C 0.21244 0.31227 0.14642
 N1234 N 0.21578 0.32421 0.17311
 N1235 N 0.21987 0.31023 0.19800
 C1236 C 0.22076 0.28384 0.19713
 N1237 N 0.21647 0.27192 0.17051
 N1238 N 0.21241 0.28589 0.14558
 N1239 N 0.71083 0.87116 0.55992
 C1240 C 0.72686 0.85257 0.57061
 N1241 N 0.74992 0.84875 0.55660
 N1242 N 0.75671 0.86302 0.53253
 C1243 C 0.74070 0.88168 0.52152
 N1244 N 0.71762 0.88542 0.53585
 C1245 C 0.72036 0.83807 0.59742
 C1246 C 0.71646 0.82593 0.62039
 C1247 C 0.71447 0.81147 0.64808
 N1248 N 0.71293 0.78508 0.64784
 N1249 N 0.71683 0.77128 0.67294
 C1250 C 0.72243 0.78338 0.69915
 N1251 N 0.72308 0.80982 0.69943
 N1252 N 0.71916 0.82363 0.67437
 N1253 N 0.29003 0.62897 0.56470
 C1254 C 0.27309 0.64650 0.57537
 N1255 N 0.24915 0.64822 0.56275
 N1256 N 0.24232 0.63286 0.54011
 C1257 C 0.25913 0.61504 0.52940
 N1258 N 0.28321 0.61361 0.54207
 C1259 C 0.27974 0.66216 0.60071
 C1260 C 0.28378 0.67520 0.62254
 C1261 C 0.28593 0.69059 0.64903
 N1262 N 0.28421 0.71687 0.64697
 N1263 N 0.28029 0.73087 0.67147
 C1264 C 0.27792 0.71909 0.69887
 N1265 N 0.28059 0.69286 0.70090
 N1266 N 0.28452 0.67885 0.67643
 N1267 N 0.74837 0.14862 0.05984
 C1268 C 0.77153 0.14528 0.07382
 N1269 N 0.78779 0.12680 0.06389
 N1270 N 0.78113 0.11224 0.04051
 C1271 C 0.75798 0.11555 0.02616
 N1272 N 0.74171 0.13405 0.03646
 C1273 C 0.77803 0.16024 0.09978
 C1274 C 0.78204 0.17275 0.12203
 C1275 C 0.78428 0.18759 0.14894
 N1276 N 0.78189 0.17544 0.17603
 N1277 N 0.77821 0.18919 0.20075
 C1278 C 0.77679 0.21556 0.19930
 N1279 N 0.78012 0.22770 0.17222
 N1280 N 0.78379 0.21396 0.14748
 N1281 N 0.71337 0.14648 0.95300
 C1282 C 0.72461 0.14408 0.92566
 N1283 N 0.74449 0.12736 0.92240
 N1284 N 0.75282 0.11331 0.94569
 C1285 C 0.74182 0.11566 0.97329
 N1286 N 0.72171 0.13239 0.97632
 C1287 C 0.71674 0.15986 0.90061
 C1288 C 0.71223 0.17306 0.87874
 C1289 C 0.71004 0.18868 0.85201
 N1290 N 0.71282 0.17744 0.82487
 N1291 N 0.71717 0.19205 0.80039
 C1292 C 0.71892 0.21841 0.80213
 N1293 N 0.71523 0.22963 0.82921
 N1294 N 0.71091 0.21502 0.85374
 N1295 N 0.21225 0.62837 0.44169
 C1296 C 0.22914 0.64675 0.43081
 N1297 N 0.25305 0.64924 0.44343
 N1298 N 0.25992 0.63381 0.46627
 C1299 C 0.24317 0.61514 0.47720
 N1300 N 0.21910 0.61295 0.46453
 C1301 C 0.22249 0.66244 0.40517
 C1302 C 0.21848 0.67552 0.38305
 C1303 C 0.21642 0.69099 0.35617
 N1304 N 0.21769 0.71734 0.35760
 N1305 N 0.22174 0.73169 0.33283
 C1306 C 0.22470 0.72021 0.30577
 N1307 N 0.22250 0.69387 0.30435
 N1308 N 0.21842 0.67950 0.32909
 N1309 N 0.75404 0.86912 0.41831
 C1310 C 0.77381 0.85228 0.42215
 N1311 N 0.78510 0.85002 0.44950
 N1312 N 0.77693 0.86435 0.47227
 C1313 C 0.75696 0.88122 0.46867
 N1314 N 0.74586 0.88342 0.44106
 C1315 C 0.78174 0.83634 0.39769
 C1316 C 0.78662 0.82298 0.37646
 C1317 C 0.78955 0.80713 0.35047
 N1318 N 0.78755 0.78083 0.35313
 N1319 N 0.78406 0.76625 0.32890
 C1320 C 0.78242 0.77745 0.30116
 N1321 N 0.78538 0.80373 0.29855
 N1322 N 0.78888 0.81831 0.32275
 N1323 N 0.26470 0.37739 0.91625
 C1324 C 0.27071 0.35207 0.92084
 N1325 N 0.26860 0.34159 0.94886
 N1326 N 0.26107 0.35616 0.97171
 C1327 C 0.25499 0.38162 0.96726
 N1328 N 0.25717 0.39196 0.93906
 C1329 C 0.27755 0.33625 0.89591
 C1330 C 0.28172 0.32322 0.87423
 C1331 C 0.28390 0.30797 0.84773
 N1332 N 0.28176 0.28165 0.84965
 N1333 N 0.27763 0.26768 0.82508
 C1334 C 0.27544 0.27954 0.79777
 N1335 N 0.27854 0.30583 0.79587
 N1336 N 0.28270 0.31980 0.82040
 N1337 N 0.81953 0.44338 0.78951
 C1338 C 0.80234 0.43455 0.76878
 N1339 N 0.79919 0.44831 0.74292
 N1340 N 0.81293 0.47018 0.73782
 C1341 C 0.83036 0.47909 0.75839
 N1342 N 0.83327 0.46527 0.78443
 C1343 C 0.79045 0.40923 0.77214
 C1344 C 0.78174 0.38732 0.77344
 C1345 C 0.77295 0.36070 0.77315
 N1346 N 0.75048 0.35395 0.75910
 N1347 N 0.74401 0.32894 0.75550
 C1348 C 0.75991 0.30985 0.76562
 N1349 N 0.78219 0.31673 0.78004
 N1350 N 0.78865 0.34172 0.78368
 N1351 N 0.30471 0.94939 0.24497
 C1352 C 0.30947 0.93571 0.27056
 N1353 N 0.32681 0.94540 0.29059
 N1354 N 0.33922 0.96798 0.28506
 C1355 C 0.33476 0.98170 0.25926
 N1356 N 0.31712 0.97196 0.23942
 C1357 C 0.29916 0.90975 0.27420
 C1358 C 0.29171 0.88739 0.27571
 C1359 C 0.28411 0.86041 0.27559
 N1360 N 0.30254 0.84198 0.27330
 N1361 N 0.29570 0.81703 0.27013
 C1362 C 0.27020 0.80964 0.26914
 N1363 N 0.25178 0.82817 0.27166
 N1364 N 0.25861 0.85315 0.27480
 N1365 N 0.16408 0.92916 0.72839
 C1366 C 0.19028 0.92927 0.73190
 N1367 N 0.20270 0.95152 0.74030
 N1368 N 0.18924 0.97306 0.74500
 C1369 C 0.16290 0.97307 0.74151
 N1370 N 0.15064 0.95063 0.73311
 C1371 C 0.20402 0.90539 0.72948
 C1372 C 0.21401 0.88440 0.72855
 C1373 C 0.22388 0.85851 0.72883
 N1374 N 0.24482 0.85239 0.74585
 N1375 N 0.25171 0.82763 0.74937
 C1376 C 0.23773 0.80819 0.73622
 N1377 N 0.21711 0.81449 0.71873
 N1378 N 0.21024 0.83921 0.71518
 N1379 N 0.66716 0.42826 0.22588
 C1380 C 0.69316 0.42744 0.23073
 N1381 N 0.70591 0.44912 0.24036
 N1382 N 0.69296 0.47098 0.24504
 C1383 C 0.66679 0.47190 0.24031
 N1384 N 0.65423 0.45005 0.23060
 C1385 C 0.70618 0.40309 0.22872
 C1386 C 0.71557 0.38179 0.22819
 C1387 C 0.72484 0.35565 0.22896
 N1388 N 0.74532 0.34920 0.24655
 N1389 N 0.75174 0.32432 0.25030
 C1390 C 0.73773 0.30508 0.23680
 N1391 N 0.71754 0.31170 0.21880
 N1392 N 0.71114 0.33654 0.21502
 N1393 N 0.69893 0.55057 0.23904
 C1394 C 0.69785 0.56241 0.26598
 N1395 N 0.68256 0.55186 0.28797
 N1396 N 0.66853 0.53026 0.28304
 C1397 C 0.66914 0.51854 0.25584
 N1398 N 0.68490 0.52899 0.23408
 C1399 C 0.70992 0.58752 0.26962
 C1400 C 0.71877 0.60934 0.27121
 C1401 C 0.72777 0.63590 0.27128
 N1402 N 0.75028 0.64295 0.25718
 N1403 N 0.75694 0.66803 0.25387
 C1404 C 0.74124 0.68690 0.26436
 N1405 N 0.71891 0.67971 0.27883
 N1406 N 0.71224 0.65465 0.28216
 N1407 N 0.19444 0.05169 0.74020
 C1408 C 0.19084 0.06524 0.76569
 N1409 N 0.17381 0.05588 0.78666
 N1410 N 0.16065 0.03367 0.78216
 C1411 C 0.16403 0.02005 0.75650
 N1412 N 0.18129 0.02951 0.73569
 C1413 C 0.20231 0.09071 0.76848
 C1414 C 0.21084 0.11268 0.76925
 C1415 C 0.21966 0.13928 0.76835
 N1416 N 0.20445 0.15814 0.77956
 N1417 N 0.21105 0.18316 0.77569
 C1418 C 0.23297 0.19019 0.76033
 N1419 N 0.24835 0.17122 0.74947
 N1420 N 0.24176 0.14618 0.75332
 N1421 N 0.33452 0.07254 0.22730
 C1422 C 0.30845 0.07276 0.23185
 N1423 N 0.29603 0.05068 0.24163
 N1424 N 0.30936 0.02900 0.24667
 C1425 C 0.33559 0.02869 0.24217
 N1426 N 0.34784 0.05094 0.23238
 C1427 C 0.29498 0.09686 0.22917
 C1428 C 0.28531 0.11804 0.22798
 C1429 C 0.27577 0.14408 0.22795
 N1430 N 0.25412 0.14992 0.24377
 N1431 N 0.24728 0.17465 0.24695
 C1432 C 0.26197 0.19434 0.23463
 N1433 N 0.28336 0.18834 0.21840
 N1434 N 0.29019 0.16364 0.21518
 N1435 N 0.83331 0.57023 0.72816
 C1436 C 0.80714 0.57096 0.73173
 N1437 N 0.79399 0.54903 0.74059
 N1438 N 0.80670 0.52699 0.74570
 C1439 C 0.83301 0.52615 0.74217
 N1440 N 0.84601 0.54826 0.73329
 C1441 C 0.79422 0.59535 0.72905
 C1442 C 0.78482 0.61665 0.72800
 C1443 C 0.77549 0.64274 0.72827
 N1444 N 0.75418 0.64868 0.74463
 N1445 N 0.74761 0.67344 0.74817
 C1446 C 0.76227 0.69307 0.73569
 N1447 N 0.78330 0.68698 0.71889
 N1448 N 0.78986 0.66225 0.71532
 N1449 N 0.95468 0.77155 0.17749
 C1450 C 0.93617 0.75234 0.17799
 N1451 N 0.94017 0.73048 0.16203
 N1452 N 0.96187 0.72793 0.14596
 C1453 C 0.98042 0.74721 0.14505
 N1454 N 0.97643 0.76899 0.16142
 C1455 C 0.91175 0.75567 0.19335
 C1456 C 0.89050 0.75786 0.20470
 C1457 C 0.86429 0.75965 0.21603
 N1458 N 0.85816 0.75229 0.24463
 N1459 N 0.83336 0.75144 0.25377
 C1460 C 0.81385 0.75798 0.23463
 N1461 N 0.82017 0.76546 0.20612
 N1462 N 0.84489 0.76637 0.19703
 N1463 N 0.42819 0.25757 0.64265
 C1464 C 0.42808 0.25711 0.67306
 N1465 N 0.45097 0.25458 0.68789
 N1466 N 0.47327 0.25262 0.67270
 C1467 C 0.47351 0.25296 0.64211
 N1468 N 0.45044 0.25561 0.62749
 C1469 C 0.40379 0.25919 0.68900
 C1470 C 0.38259 0.26077 0.70061
 C1471 C 0.35639 0.26225 0.71197
 N1472 N 0.35035 0.25495 0.74062
 N1473 N 0.32557 0.25415 0.74984
 C1474 C 0.30603 0.26071 0.73075
 N1475 N 0.31227 0.26811 0.70220
 N1476 N 0.33696 0.26896 0.69303
 N1477 N 0.43003 0.74160 0.85523
 C1478 C 0.43043 0.74195 0.82481
 N1479 N 0.45355 0.74553 0.81040
 N1480 N 0.47556 0.74858 0.82600
 C1481 C 0.47530 0.74811 0.85660
 N1482 N 0.45198 0.74465 0.87078
 C1483 C 0.40634 0.73946 0.80847
 C1484 C 0.38523 0.73773 0.79660
 C1485 C 0.35907 0.73623 0.78503
 N1486 N 0.35348 0.74362 0.75638
 N1487 N 0.32878 0.74450 0.74704
 C1488 C 0.30886 0.73797 0.76603
 N1489 N 0.31466 0.73050 0.79458
 N1490 N 0.33925 0.72955 0.80386
 N1491 N 0.93258 0.26105 0.34186
 C1492 C 0.93035 0.24083 0.32277
 N1493 N 0.95056 0.22433 0.32010
 N1494 N 0.97233 0.22807 0.33597
 C1495 C 0.97472 0.24844 0.35512
 N1496 N 0.95426 0.26475 0.35770
 C1497 C 0.90619 0.23651 0.30704
 C1498 C 0.88499 0.23394 0.29557
 C1499 C 0.85872 0.23207 0.28435
 N1500 N 0.83905 0.22604 0.30366
 N1501 N 0.81436 0.22719 0.29474
 C1502 C 0.80832 0.23426 0.26613
 N1503 N 0.82809 0.24013 0.24668
 N1504 N 0.85287 0.23906 0.25565
 N1505 N 0.06167 0.27893 0.34141
 C1506 C 0.06720 0.26123 0.32016
 N1507 N 0.05036 0.24096 0.31584
 N1508 N 0.02867 0.23851 0.33227
 C1509 C 0.02299 0.25619 0.35373
 N1510 N 0.04003 0.27646 0.35784
 C1511 C 0.09185 0.26270 0.30467
 C1512 C 0.11331 0.26383 0.29348
 C1513 C 0.13976 0.26482 0.28266
 N1514 N 0.14566 0.25967 0.25362
 N1515 N 0.17048 0.25879 0.24466
 C1516 C 0.19020 0.26313 0.26442
 N1517 N 0.18411 0.26838 0.29336
 N1518 N 0.15940 0.26930 0.30228
 N1519 N 0.56171 0.78062 0.84137
 C1520 C 0.56831 0.76212 0.82148
 N1521 N 0.55241 0.74096 0.81827
 N1522 N 0.53062 0.73837 0.83449
 C1523 C 0.52391 0.75681 0.85464
 N1524 N 0.53995 0.77804 0.85760
 C1525 C 0.59314 0.76371 0.80637
 C1526 C 0.61469 0.76471 0.79537
 C1527 C 0.64118 0.76531 0.78464
 N1528 N 0.64700 0.76074 0.75544
 N1529 N 0.67180 0.75942 0.74650
 C1530 C 0.69157 0.76269 0.76645
 N1531 N 0.68555 0.76736 0.79556
 N1532 N 0.66087 0.76872 0.80447
 N1533 N 0.54600 0.22744 0.68185
 C1534 C 0.56607 0.24488 0.67915
 N1535 N 0.56405 0.26499 0.65931
 N1536 N 0.54274 0.26758 0.64260
 C1537 C 0.52251 0.25016 0.64503
 N1538 N 0.52462 0.23005 0.66515
 C1539 C 0.59011 0.24122 0.69510
 C1540 C 0.61123 0.23886 0.70663
 C1541 C 0.63742 0.23701 0.71781
 N1542 N 0.64352 0.24363 0.74640
 N1543 N 0.66834 0.24461 0.75532
 C1544 C 0.68788 0.23898 0.73594
 N1545 N 0.68159 0.23224 0.70746
 N1546 N 0.65686 0.23119 0.69859
 N1547 N 0.04905 0.73954 0.19264
 C1548 C 0.07277 0.73771 0.17940
 N1549 N 0.07433 0.73828 0.14904
 N1550 N 0.05295 0.74052 0.13239
 C1551 C 0.02907 0.74244 0.14540
 N1552 N 0.02760 0.74175 0.17595
 C1553 C 0.09634 0.73694 0.19689
 C1554 C 0.11711 0.73751 0.20964
 C1555 C 0.14286 0.74016 0.22214
 N1556 N 0.15746 0.76149 0.21473
 N1557 N 0.18208 0.76361 0.22371
 C1558 C 0.19318 0.74450 0.24045
 N1559 N 0.17841 0.72321 0.24834
 N1560 N 0.15366 0.72103 0.23922
   
