data_POSCAR
  _audit_creation_date              2014-09-24
  _audit_creation_method            'ToBaCCo'
  _symmetry_space_group_name_H-M    'P1'
  _symmetry_Int_Tables_number       1
  _symmetry_cell_setting            triclinic
  loop_
  _symmetry_equiv_pos_as_xyz
 x,y,z
_cell_length_a 46.0398
_cell_length_b 45.8517
_cell_length_c 39.8220
_cell_angle_alpha 90.041200
_cell_angle_beta 90.175000
_cell_angle_gamma 90.588200
loop_
  _atom_site_label
  _atom_site_type_symbol
  _atom_site_fract_x
  _atom_site_fract_y
  _atom_site_fract_z
C1 C 0.34776 -0.00560 0.24396
 C2 C 0.14481 -0.00869 0.75292
 C3 C 0.65198 0.50505 0.25331
 C4 C 0.85245 0.48940 0.74901
 C5 C 0.24834 0.40772 0.98994
 C6 C 0.75102 0.10301 1.00940
 C7 C 0.26135 0.60489 0.49593
 C8 C 0.74505 0.91004 0.51454
 C9 C 0.00857 0.25697 0.37375
 C10 C -0.00897 0.75010 0.13254
 C11 C 0.49582 0.24963 0.62682
 C12 C 0.50609 0.75170 0.87488
 C13 C -0.24897 0.60231 1.01040
 C14 C -0.24204 0.40958 0.51357
 C15 C 0.24863 -0.08619 -0.01009
 C16 C 0.24692 1.10109 0.49158
 C17 C 0.14952 0.49063 0.24733
 C18 C -0.15624 1.00734 0.25311
 C19 C 0.34916 0.49377 -0.25411
 C20 C 0.64821 -0.01322 -0.25331
 C21 C -0.00408 0.24936 0.87342
 C22 C 0.50737 0.25306 0.12659
 C23 C 0.00471 0.75566 0.62715
 C24 C 0.48672 0.75014 0.36843
 B25 B -0.02179 0.01780 1.03240
 B26 B -0.03482 0.01011 0.99391
 B27 B -0.00784 0.03479 0.99830
 B28 B 0.01446 0.02386 1.02956
 B29 B 0.00109 -0.00852 1.04415
 B30 B -0.02969 -0.01707 1.02195
 B31 B 0.01566 -0.01576 0.97807
 B32 B 0.02878 -0.00792 1.01650
 B33 B 0.00181 -0.03272 1.01211
 B34 B -0.02062 -0.02172 0.98089
 B35 B -0.00715 0.01056 0.96630
 B36 B 0.02358 0.01915 0.98844
 B37 B 0.48802 0.51964 0.53047
 B38 B 0.47519 0.51071 0.49188
 B39 B 0.50193 0.53598 0.49604
 B40 B 0.52423 0.52568 0.52764
 B41 B 0.51106 0.49337 0.54282
 B42 B 0.48039 0.48443 0.52097
 B43 B 0.52594 0.48505 0.47719
 B44 B 0.53876 0.49355 0.51557
 B45 B 0.51192 0.46864 0.51144
 B46 B 0.48972 0.47898 0.47994
 B47 B 0.50305 0.51110 0.46465
 B48 B 0.53370 0.52005 0.48695
 B49 B 0.51175 0.98311 0.52610
 B50 B 0.52466 0.99025 0.48754
 B51 B 0.49749 0.96576 0.49237
 B52 B 0.47541 0.97740 0.52346
 B53 B 0.48923 1.00980 0.53746
 B54 B 0.51986 1.01782 0.51510
 B55 B 0.47421 1.01620 0.47123
 B56 B 0.46136 1.00917 0.50989
 B57 B 0.48849 1.03360 0.50501
 B58 B 0.51054 1.02198 0.47394
 B59 B 0.49680 0.98951 0.45996
 B60 B 0.46608 0.98156 0.48234
 B61 B 0.01595 0.48360 1.02684
 B62 B 0.02804 0.49191 0.98824
 B63 B 0.00103 0.46726 0.99293
 B64 B -0.02041 0.47788 1.02503
 B65 B -0.00633 0.50986 1.03989
 B66 B 0.02384 0.51864 1.01702
 B67 B -0.02280 0.51819 0.97445
 B68 B -0.03479 0.50997 1.01317
 B69 B -0.00782 0.53460 1.00846
 B70 B 0.01358 0.52399 0.97634
 B71 B -0.00041 0.49191 0.96150
 B72 B -0.03065 0.48320 0.98440
 B73 B 0.02884 0.52187 0.47413
 B74 B 0.04240 0.51565 0.51271
 B75 B 0.01573 0.54005 0.50761
 B76 B -0.00729 0.52778 0.47741
 B77 B 0.00544 0.49501 0.46415
 B78 B 0.03643 0.48747 0.48611
 B79 B -0.00828 0.49020 0.53075
 B80 B -0.02182 0.49646 0.49227
 B81 B 0.00486 0.47203 0.49726
 B82 B 0.02784 0.48426 0.52755
 B83 B 0.01511 0.51706 0.54084
 B84 B -0.01581 0.52465 0.51883
 B85 B 0.52295 0.01953 -0.02898
 B86 B 0.53476 0.01234 0.01011
 B87 B 0.50874 0.03727 0.00429
 B88 B 0.48683 0.02603 -0.02744
 B89 B 0.49953 -0.00676 -0.04087
 B90 B 0.52950 -0.01522 -0.01751
 B91 B 0.48311 -0.01266 0.02472
 B92 B 0.47120 -0.00536 -0.01424
 B93 B 0.49727 -0.03032 -0.00841
 B94 B 0.51921 -0.01904 0.02328
 B95 B 0.50640 0.01361 0.03675
 B96 B 0.47652 0.02216 0.01340
 B97 B 0.48245 0.48679 -0.02883
 B98 B 0.46894 0.49294 0.00967
 B99 B 0.49530 0.46819 0.00456
 B100 B 0.51850 0.48039 -0.02535
 B101 B 0.50619 0.51341 -0.03832
 B102 B 0.47533 0.52125 -0.01652
 B103 B 0.51991 0.51753 0.02854
 B104 B 0.53340 0.51144 -0.00996
 B105 B 0.50706 0.53614 -0.00488
 B106 B 0.48389 0.52399 0.02504
 B107 B 0.49615 0.49090 0.03802
 B108 B 0.52704 0.48312 0.01620
 B109 B -0.02370 0.99002 0.47463
 B110 B -0.03524 0.99740 0.51367
 B111 B -0.00937 0.97225 0.50774
 B112 B 0.01238 0.98337 0.47599
 B113 B -0.00028 1.01611 0.46260
 B114 B -0.02994 1.02491 0.48604
 B115 B 0.01680 1.02198 0.52829
 B116 B 0.02827 1.01465 0.48917
 B117 B 0.00249 1.03982 0.49502
 B118 B -0.01931 1.02875 0.52684
 B119 B -0.00672 0.99587 0.54021
 B120 B 0.02299 0.98716 0.51677
 B121 B 0.76918 0.23947 0.23063
 B122 B 0.76310 0.22718 0.26975
 B123 B 0.78802 0.25367 0.26334
 B124 B 0.77598 0.27583 0.23243
 B125 B 0.74288 0.26275 0.22010
 B126 B 0.73486 0.23243 0.24331
 B127 B 0.73923 0.27866 0.28633
 B128 B 0.74529 0.29099 0.24721
 B129 B 0.72037 0.26451 0.25348
 B130 B 0.73239 0.24235 0.28443
 B131 B 0.76555 0.25539 0.29678
 B132 B 0.77356 0.28575 0.27358
 B133 B 0.73945 0.75771 0.72236
 B134 B 0.74831 0.77292 0.75963
 B135 B 0.72264 0.74646 0.75761
 B136 B 0.73259 0.72180 0.72822
 B137 B 0.76519 0.73326 0.71255
 B138 B 0.77461 0.76521 0.73169
 B139 B 0.77250 0.72248 0.77950
 B140 B 0.76412 0.70736 0.74219
 B141 B 0.78949 0.73395 0.74441
 B142 B 0.77945 0.75854 0.77355
 B143 B 0.74718 0.74685 0.78937
 B144 B 0.73748 0.71492 0.76983
 B145 B 0.26180 0.26047 0.77827
 B146 B 0.25306 0.27560 0.74099
 B147 B 0.27862 0.24957 0.74300
 B148 B 0.26849 0.22468 0.77227
 B149 B 0.23590 0.23561 0.78789
 B150 B 0.22669 0.26744 0.76885
 B151 B 0.22868 0.22480 0.72090
 B152 B 0.23690 0.20977 0.75818
 B153 B 0.21168 0.23597 0.75600
 B154 B 0.22188 0.26072 0.72696
 B155 B 0.25413 0.24958 0.71118
 B156 B 0.26365 0.21779 0.73065
 B157 B 0.23483 0.72514 0.26238
 B158 B 0.23787 0.70980 0.22429
 B159 B 0.21293 0.73570 0.23070
 B160 B 0.22685 0.76076 0.25745
 B161 B 0.26133 0.75018 0.26721
 B162 B 0.26795 0.71840 0.24653
 B163 B 0.25901 0.76060 0.19953
 B164 B 0.25527 0.77603 0.23784
 B165 B 0.28081 0.75021 0.23127
 B166 B 0.26679 0.72495 0.20445
 B167 B 0.23239 0.73534 0.19486
 B168 B 0.22553 0.76726 0.21519
 B169 B 0.27142 0.72831 0.72530
 B170 B 0.26280 0.71297 0.76229
 B171 B 0.28799 0.73979 0.76073
 B172 B 0.27806 0.76437 0.73153
 B173 B 0.24602 0.75246 0.71500
 B174 B 0.23636 0.72045 0.73419
 B175 B 0.23760 0.76311 0.78193
 B176 B 0.24670 0.77847 0.74486
 B177 B 0.22120 0.75184 0.74630
 B178 B 0.23104 0.72716 0.77575
 B179 B 0.26343 0.73879 0.79211
 B180 B 0.27278 0.77091 0.77331
 B181 B 0.23524 0.26271 0.20630
 B182 B 0.24155 0.27570 0.24559
 B183 B 0.21721 0.24829 0.23923
 B184 B 0.23000 0.22616 0.20877
 B185 B 0.26264 0.24020 0.19625
 B186 B 0.26950 0.27113 0.21870
 B187 B 0.26727 0.22539 0.26256
 B188 B 0.26151 0.21236 0.22363
 B189 B 0.28533 0.23986 0.22964
 B190 B 0.27261 0.26180 0.26014
 B191 B 0.23996 0.24763 0.27272
 B192 B 0.23339 0.21679 0.24987
 B193 B 0.75836 0.77764 0.28807
 B194 B 0.75265 0.78969 0.24878
 B195 B 0.77732 0.76354 0.25567
 B196 B 0.76486 0.74139 0.28656
 B197 B 0.73175 0.75412 0.29827
 B198 B 0.72416 0.78425 0.27472
 B199 B 0.72847 0.73777 0.23214
 B200 B 0.73413 0.72579 0.27147
 B201 B 0.70948 0.75193 0.26446
 B202 B 0.72194 0.77405 0.23360
 B203 B 0.75505 0.76134 0.22193
 B204 B 0.76261 0.73122 0.24549
 B205 B 0.72917 0.22150 0.77767
 B206 B 0.73738 0.20626 0.74053
 B207 B 0.71211 0.23243 0.74245
 B208 B 0.72232 0.25740 0.77137
 B209 B 0.75459 0.24638 0.78740
 B210 B 0.76414 0.21448 0.76820
 B211 B 0.76217 0.25687 0.72033
 B212 B 0.75345 0.27223 0.75739
 B213 B 0.77903 0.24620 0.75573
 B214 B 0.76891 0.22115 0.72654
 B215 B 0.73630 0.23193 0.71065
 B216 B 0.72705 0.26386 0.72946
 C217 C 0.40979 1.02259 0.40902
 C218 C 0.42322 1.03432 0.38077
 C219 C 0.45166 1.04541 0.38319
 C220 C 0.46715 1.04297 0.41351
 C221 C 0.36483 1.00471 0.27282
 C222 C 0.42527 1.01945 0.43871
 C223 C 0.40886 1.03003 0.34901
 C224 C 0.39551 1.02346 0.32401
 C225 C 0.37907 1.01366 0.29619
 C226 C 0.45451 1.02882 0.44139
 H227 H 0.38798 1.01356 0.40737
 H228 H 0.46240 1.05429 0.36125
 H229 H 0.48967 1.04998 0.41421
 H230 H 0.41474 1.00718 0.45841
 C231 C -0.08794 0.52501 0.91372
 C232 C -0.07447 0.53564 0.88492
 C233 C -0.04604 0.54675 0.88681
 C234 C -0.03044 0.54505 0.91710
 C235 C -0.13078 0.50043 0.77772
 C236 C -0.07233 0.52253 0.94341
 C237 C -0.08847 0.52967 0.85332
 C238 C -0.10128 0.52169 0.82850
 C239 C -0.11702 0.51039 0.80092
 C240 C -0.04294 0.53149 0.94544
 H241 H -0.10978 0.51599 0.91248
 H242 H -0.03529 0.55483 0.86446
 H243 H -0.00784 0.55182 0.91731
 H244 H -0.08279 0.51068 0.96349
 C245 C 0.07921 -0.02465 0.91550
 C246 C 0.06586 -0.03923 0.88884
 C247 C 0.03771 -0.05068 0.89263
 C248 C 0.02245 -0.04600 0.92263
 C249 C 0.12585 -0.01806 0.78043
 C250 C 0.06395 -0.01938 0.94481
 C251 C 0.08010 -0.03786 0.85682
 C252 C 0.09360 -0.03345 0.83146
 C253 C 0.11064 -0.02571 0.80344
 C254 C 0.03506 -0.02934 0.94874
 H255 H 0.10082 -0.01535 0.91272
 H256 H 0.02704 -0.06177 0.87191
 H257 H 0.00017 -0.05361 0.92434
 H258 H 0.07440 -0.00548 0.96323
 C259 C 0.54800 0.45237 0.39085
 C260 C 0.57640 0.46336 0.38787
 C261 C 0.59002 0.47617 0.41552
 C262 C 0.57473 0.48051 0.44504
 C263 C 0.63403 0.49288 0.28031
 C264 C 0.53272 0.45602 0.42101
 C265 C 0.59032 0.46680 0.35585
 C266 C 0.60333 0.47307 0.33064
 C267 C 0.61960 0.48312 0.30295
 C268 C 0.54552 0.47130 0.44811
 H269 H 0.53710 0.44268 0.36937
 H270 H 0.61181 0.48516 0.41338
 H271 H 0.58534 0.49351 0.46416
 H272 H 0.51021 0.44904 0.42204
 C273 C 0.58359 0.52303 0.09230
 C274 C 0.57098 0.53731 0.11934
 C275 C 0.54314 0.54914 0.11597
 C276 C 0.52753 0.54538 0.08583
 C277 C 0.63305 0.51505 0.22608
 C278 C 0.56801 0.51870 0.06285
 C279 C 0.58582 0.53563 0.15109
 C280 C 0.59991 0.53101 0.17603
 C281 C 0.61755 0.52302 0.20348
 C282 C 0.53951 0.52933 0.05911
 H283 H 0.60493 0.51345 0.09471
 H284 H 0.53302 0.55999 0.13700
 H285 H 0.50555 0.55342 0.08426
 H286 H 0.57798 0.50529 0.04387
 C287 C 0.08224 1.02510 0.58934
 C288 C 0.06950 1.03592 0.61840
 C289 C 0.04169 1.04802 0.61681
 C290 C 0.02593 1.04727 0.58654
 C291 C 0.12703 1.00180 0.72489
 C292 C 0.06647 1.02367 0.55962
 C293 C 0.08368 1.02988 0.64985
 C294 C 0.09667 1.02212 0.67455
 C295 C 0.11276 1.01128 0.70198
 C296 C 0.03763 1.03378 0.55783
 H297 H 0.10360 1.01539 0.59030
 H298 H 0.03150 1.05631 0.63932
 H299 H 0.00375 1.05489 0.58651
 H300 H 0.07624 1.01189 0.53915
 C301 C -0.03280 0.45394 0.61522
 C302 C -0.06063 0.46571 0.61876
 C303 C -0.07255 0.48210 0.59287
 C304 C -0.05639 0.48833 0.56447
 C305 C -0.12734 0.48085 0.72254
 C306 C -0.01659 0.45965 0.58602
 C307 C -0.07644 0.46493 0.64977
 C308 C -0.09162 0.46782 0.67407
 C309 C -0.11066 0.47413 0.70067
 C310 C -0.02801 0.47755 0.56053
 H311 H -0.02323 0.44145 0.63542
 H312 H -0.09389 0.49162 0.59547
 H313 H -0.06600 0.50294 0.54638
 H314 H 0.00529 0.45139 0.58423
 C315 C 0.41786 -0.02106 0.08507
 C316 C 0.43002 -0.03624 0.11182
 C317 C 0.45788 -0.04796 0.10886
 C318 C 0.47409 -0.04303 0.07958
 C319 C 0.36755 -0.01516 0.21762
 C320 C 0.43407 -0.01556 0.05645
 C321 C 0.41503 -0.03514 0.14328
 C322 C 0.40098 -0.03081 0.16815
 C323 C 0.38334 -0.02298 0.19541
 C324 C 0.46269 -0.02587 0.05341
 H325 H 0.39649 -0.01155 0.08727
 H326 H 0.46761 -0.05949 0.12971
 H327 H 0.49613 -0.05094 0.07848
 H328 H 0.42456 -0.00143 0.03779
 C329 C 0.38672 0.49579 0.03523
 C330 C 0.37639 0.46905 0.02270
 C331 C 0.39581 0.44925 0.00897
 C332 C 0.42510 0.45634 0.00640
 C333 C 0.27285 0.42619 0.00077
 C334 C 0.41643 0.50289 0.03302
 C335 C 0.34593 0.46180 0.02082
 C336 C 0.32149 0.45288 0.01643
 C337 C 0.29448 0.43959 0.00877
 C338 C 0.43602 0.48339 0.01796
 H339 H 0.37179 0.51143 0.04574
 H340 H 0.38807 0.42865 -0.00123
 H341 H 0.43865 0.44108 -0.00676
 H342 H 0.42378 0.52405 0.04184
 C343 C -0.10814 0.95372 0.52072
 C344 C -0.12656 0.97366 0.53593
 C345 C -0.11552 1.00074 0.54661
 C346 C -0.08613 1.00792 0.54121
 C347 C -0.23041 0.92897 0.52418
 C348 C -0.07922 0.96089 0.51501
 C349 C -0.15696 0.96610 0.53742
 C350 C -0.18149 0.95675 0.53562
 C351 C -0.20867 0.94285 0.53053
 C352 C -0.06762 0.98819 0.52480
 H353 H -0.11647 0.93287 0.51188
 H354 H -0.12970 1.01651 0.55820
 H355 H -0.07826 1.02927 0.54878
 H356 H -0.06662 0.94541 0.50095
 C357 C -0.11655 0.00874 0.96505
 C358 C -0.12560 0.03639 0.97558
 C359 C -0.10547 0.05601 0.98904
 C360 C -0.07681 0.04796 0.99346
 C361 C -0.22534 0.08455 0.99748
 C362 C -0.08731 0.00071 0.96894
 C363 C -0.15556 0.04486 0.97655
 C364 C -0.17918 0.05527 0.98079
 C365 C -0.20484 0.07025 0.98883
 C366 C -0.06707 0.02012 0.98381
 H367 H -0.13212 -0.00680 0.95490
 H368 H -0.11227 0.07724 0.99789
 H369 H -0.06303 0.06320 1.00679
 H370 H -0.08090 -0.02103 0.96163
 C371 C 0.40848 0.55037 0.45293
 C372 C 0.38536 0.53498 0.46754
 C373 C 0.39077 0.50936 0.48536
 C374 C 0.41928 0.50039 0.49082
 C375 C 0.28589 0.58702 0.48533
 C376 C 0.43706 0.54136 0.45823
 C377 C 0.35686 0.54751 0.46845
 C378 C 0.33359 0.55895 0.47174
 C379 C 0.30732 0.57350 0.47811
 C380 C 0.44291 0.51738 0.47915
 H381 H 0.40454 0.57011 0.43876
 H382 H 0.37304 0.49718 0.49668
 H383 H 0.42265 0.48123 0.50613
 H384 H 0.45443 0.55394 0.44701
 C385 C 0.12441 0.51456 0.54035
 C386 C 0.13430 0.54160 0.52829
 C387 C 0.11464 0.56094 0.51408
 C388 C 0.08557 0.55314 0.51060
 C389 C 0.23710 0.58649 0.50752
 C390 C 0.09489 0.50676 0.53726
 C391 C 0.16463 0.54958 0.52716
 C392 C 0.18890 0.55908 0.52318
 C393 C 0.21568 0.57288 0.51570
 C394 C 0.07507 0.52582 0.52175
 H395 H 0.13954 0.49924 0.55118
 H396 H 0.12205 0.58172 0.50414
 H397 H 0.07195 0.56806 0.49696
 H398 H 0.08789 0.48541 0.54577
 C399 C 0.60680 0.05712 0.01839
 C400 C 0.62500 0.03803 0.03538
 C401 C 0.61418 0.01103 0.04646
 C402 C 0.58514 0.00311 0.03982
 C403 C 0.72708 0.08473 0.02176
 C404 C 0.57830 0.04919 0.01139
 C405 C 0.65513 0.04623 0.03775
 C406 C 0.67934 0.05623 0.03587
 C407 C 0.70592 0.07072 0.02974
 C408 C 0.56687 0.02201 0.02170
 H409 H 0.61503 0.07785 0.00917
 H410 H 0.62826 -0.00409 0.05935
 H411 H 0.57735 -0.01809 0.04790
 H412 H 0.56588 0.06403 -0.00384
 C413 C 0.59661 0.94613 0.48601
 C414 C 0.61687 0.96701 0.47564
 C415 C 0.60738 0.99442 0.46490
 C416 C 0.57768 1.00117 0.46597
 C417 C 0.72005 0.92727 0.50361
 C418 C 0.56730 0.95289 0.48758
 C419 C 0.64716 0.96030 0.47978
 C420 C 0.67142 0.95204 0.48580
 C421 C 0.69831 0.93971 0.49490
 C422 C 0.55723 0.98069 0.47825
 H423 H 0.60368 0.92500 0.49489
 H424 H 0.62294 1.01089 0.45702
 H425 H 0.57104 1.02292 0.45901
 H426 H 0.55320 0.93685 0.49898
 C427 C 0.09956 0.44739 0.98020
 C428 C 0.11900 0.46784 0.96704
 C429 C 0.10902 0.49544 0.95760
 C430 C 0.07971 0.50267 0.96236
 C431 C 0.22313 0.42541 0.98075
 C432 C 0.07067 0.45461 0.98531
 C433 C 0.14933 0.46038 0.96665
 C434 C 0.17380 0.45145 0.96906
 C435 C 0.20109 0.43839 0.97446
 C436 C 0.06017 0.48248 0.97695
 H437 H 0.10705 0.42613 0.98810
 H438 H 0.12398 0.51159 0.94761
 H439 H 0.07274 0.52444 0.95594
 H440 H 0.05733 0.43871 0.99812
 C441 C 0.01588 0.38739 0.49506
 C442 C 0.00267 0.38018 0.46433
 C443 C -0.01203 0.40150 0.44627
 C444 C -0.01253 0.43009 0.45782
 C445 C 0.00855 0.28271 0.39568
 C446 C 0.01515 0.41623 0.50701
 C447 C 0.00542 0.35179 0.44924
 C448 C 0.00700 0.32922 0.43383
 C449 C 0.00811 0.30388 0.41369
 C450 C 0.00137 0.43812 0.48815
 H451 H 0.02745 0.37101 0.50923
 H452 H -0.02229 0.39625 0.42245
 H453 H -0.02325 0.44606 0.44224
 H454 H 0.02632 0.42156 0.53021
 C455 C 0.50587 -0.11514 -0.00904
 C456 C 0.49470 -0.12218 -0.04085
 C457 C 0.48200 -0.10059 -0.06048
 C458 C 0.48153 -0.07187 -0.04926
 C459 C 0.50440 -0.22169 -0.10482
 C460 C 0.50520 -0.08622 0.00250
 C461 C 0.49781 -0.15081 -0.05511
 C462 C 0.50019 -0.17380 -0.06947
 C463 C 0.50264 -0.19982 -0.08815
 C464 C 0.49353 -0.06408 -0.01783
 H465 H 0.51586 -0.13175 0.00635
 H466 H 0.47332 -0.10575 -0.08513
 H467 H 0.47237 -0.05566 -0.06583
 H468 H 0.51481 -0.08110 0.02665
 C469 C -0.00879 -0.11762 1.01488
 C470 C 0.00277 -0.12418 1.04658
 C471 C 0.01613 -0.10221 1.06552
 C472 C 0.01698 -0.07367 1.05369
 C473 C -0.00688 -0.22343 1.11190
 C474 C -0.00775 -0.08887 1.00273
 C475 C -0.00034 -0.15273 1.06136
 C476 C -0.00264 -0.17565 1.07604
 C477 C -0.00503 -0.20162 1.09500
 C478 C 0.00469 -0.06637 1.02232
 H479 H -0.01927 -0.13450 0.99999
 H480 H 0.02515 -0.10696 1.09006
 H481 H 0.02681 -0.05720 1.06968
 H482 H -0.01757 -0.08414 0.97864
 C483 C 0.50268 0.38366 0.51281
 C484 C 0.51251 0.37702 0.54524
 C485 C 0.52445 0.39904 0.56536
 C486 C 0.52551 0.42771 0.55387
 C487 C 0.49921 0.27640 0.60694
 C488 C 0.50391 0.41250 0.50107
 C489 C 0.50885 0.34826 0.55931
 C490 C 0.50575 0.32503 0.57312
 C491 C 0.50216 0.29858 0.59093
 C492 C 0.51478 0.43504 0.52179
 H493 H 0.49335 0.36675 0.49699
 H494 H 0.53217 0.39420 0.59046
 H495 H 0.53421 0.44423 0.57065
 H496 H 0.49542 0.41723 0.47631
 C497 C 0.47390 1.10364 0.55754
 C498 C 0.48551 1.12578 0.53755
 C499 C 0.49655 1.11901 0.50569
 C500 C 0.49653 1.08994 0.49436
 C501 C 0.49253 1.22452 0.60409
 C502 C 0.47409 1.07487 0.54655
 C503 C 0.48744 1.15474 0.55161
 C504 C 0.48885 1.17773 0.56635
 C505 C 0.49060 1.20339 0.58604
 C506 C 0.48567 1.06739 0.51494
 H507 H 0.46533 1.10852 0.58221
 H508 H 0.50573 1.13602 0.48999
 H509 H 0.50568 1.08508 0.47000
 H510 H 0.46533 1.05844 0.56330
 C511 C -0.02228 0.60302 1.06378
 C512 C -0.01341 0.62602 1.04326
 C513 C -0.00377 0.62027 1.01052
 C514 C -0.00263 0.59137 0.99872
 C515 C -0.01143 0.72463 1.11027
 C516 C -0.02097 0.57446 1.05230
 C517 C -0.01308 0.65494 1.05749
 C518 C -0.01290 0.67785 1.07241
 C519 C -0.01244 0.70344 1.09226
 C520 C -0.01093 0.56803 1.01968
 H521 H -0.02976 0.60713 1.08911
 H522 H 0.00327 0.63797 0.99440
 H523 H 0.00519 0.58730 0.97355
 H524 H -0.02789 0.55742 1.06937
 C525 C 0.49982 0.62132 -0.00439
 C526 C 0.51287 0.62859 -0.03511
 C527 C 0.52590 0.60695 -0.05427
 C528 C 0.52500 0.57809 -0.04377
 C529 C 0.50819 0.72652 -0.10257
 C530 C 0.49917 0.59216 0.00652
 C531 C 0.51131 0.65740 -0.04928
 C532 C 0.51035 0.68019 -0.06430
 C533 C 0.50933 0.70555 -0.08435
 C534 C 0.51134 0.57006 -0.01341
 H535 H 0.48948 0.63796 0.01059
 H536 H 0.53597 0.61223 -0.07810
 H537 H 0.53462 0.56199 -0.06008
 H538 H 0.48831 0.58685 0.02983
 C539 C -0.00138 1.12546 0.49322
 C540 C 0.00978 1.13152 0.46115
 C541 C 0.02015 1.10881 0.44142
 C542 C 0.01864 1.08021 0.45286
 C543 C 0.00950 1.23067 0.39485
 C544 C -0.00270 1.09654 0.50501
 C545 C 0.00948 1.16037 0.44671
 C546 C 0.00955 1.18330 0.43179
 C547 C 0.00967 1.20909 0.41226
 C548 C 0.00697 1.07343 0.48471
 H549 H -0.00959 1.14292 0.50874
 H550 H 0.02881 1.11311 0.41661
 H551 H 0.02645 1.06337 0.43623
 H552 H -0.01194 1.09222 0.52950
 C553 C 0.80229 0.70440 0.86876
 C554 C 0.79095 0.67617 0.87327
 C555 C 0.77865 0.66135 0.84613
 C556 C 0.77533 0.67527 0.81545
 C557 C 0.76225 0.62047 0.98292
 C558 C 0.79964 0.71829 0.83744
 C559 C 0.78725 0.66334 0.90597
 C560 C 0.78105 0.65087 0.93165
 C561 C 0.77142 0.63489 0.95986
 C562 C 0.78506 0.70426 0.81063
 H563 H 0.81163 0.71623 0.88979
 H564 H 0.76942 0.63969 0.84938
 H565 H 0.76272 0.66382 0.79663
 H566 H 0.80691 0.74072 0.83510
 C567 C 0.29635 0.20433 0.35118
 C568 C 0.28542 0.17580 0.35416
 C569 C 0.27360 0.16181 0.32614
 C570 C 0.27041 0.17681 0.29607
 C571 C 0.25792 0.11879 0.46360
 C572 C 0.29371 0.21935 0.32061
 C573 C 0.28178 0.16190 0.38629
 C574 C 0.27589 0.14903 0.41180
 C575 C 0.26673 0.13300 0.44019
 C576 C 0.27962 0.20613 0.29293
 H577 H 0.30532 0.21551 0.37288
 H578 H 0.26474 0.13989 0.32819
 H579 H 0.25844 0.16585 0.27631
 H580 H 0.30066 0.24196 0.31954
 C581 C 0.73629 0.34344 0.34894
 C582 C 0.72341 0.33068 0.37700
 C583 C 0.71109 0.30265 0.37444
 C584 C 0.71320 0.28691 0.34425
 C585 C 0.74841 0.39099 0.48548
 C586 C 0.73892 0.32773 0.31928
 C587 C 0.72674 0.34546 0.40875
 C588 C 0.73217 0.35908 0.43398
 C589 C 0.74053 0.37602 0.46213
 C590 C 0.72809 0.29889 0.31652
 H591 H 0.74615 0.36497 0.35063
 H592 H 0.70121 0.29243 0.39616
 H593 H 0.70500 0.26471 0.34344
 H594 H 0.75145 0.33774 0.29940
 C595 C 0.22737 0.79367 0.87182
 C596 C 0.21521 0.82085 0.86535
 C597 C 0.20392 0.82675 0.83340
 C598 C 0.20735 0.80651 0.80731
 C599 C 0.23895 0.89607 0.96116
 C600 C 0.23121 0.77376 0.84581
 C601 C 0.21815 0.84331 0.89050
 C602 C 0.22322 0.86104 0.91221
 C603 C 0.23122 0.88050 0.93828
 C604 C 0.22331 0.78083 0.81254
 H605 H 0.23574 0.78858 0.89658
 H606 H 0.19392 0.84755 0.82817
 H607 H 0.19915 0.81197 0.78268
 H608 H 0.24237 0.75375 0.85170
 C609 C 0.29302 0.81995 0.14035
 C610 C 0.27549 0.81676 0.11174
 C611 C 0.25640 0.79304 0.10930
 C612 C 0.25305 0.77392 0.13618
 C613 C 0.25735 0.89407 0.01708
 C614 C 0.28997 0.80045 0.16729
 C615 C 0.27422 0.83898 0.08624
 C616 C 0.27053 0.85700 0.06462
 C617 C 0.26402 0.87732 0.03910
 C618 C 0.26869 0.77816 0.16638
 H619 H 0.30801 0.83822 0.14251
 H620 H 0.24287 0.79017 0.08719
 H621 H 0.23688 0.75680 0.13356
 H622 H 0.30276 0.80426 0.18958
 C623 C 0.79818 0.31997 0.66883
 C624 C 0.78626 0.31462 0.63697
 C625 C 0.77222 0.28808 0.63056
 C626 C 0.76742 0.26827 0.65649
 C627 C 0.76689 0.39092 0.54164
 C628 C 0.79379 0.29979 0.69485
 C629 C 0.78470 0.33716 0.61185
 C630 C 0.78071 0.35505 0.59017
 C631 C 0.77383 0.37486 0.56424
 C632 C 0.77634 0.27475 0.68963
 H633 H 0.80950 0.34031 0.67403
 H634 H 0.76326 0.28347 0.60590
 H635 H 0.75494 0.24880 0.65063
 H636 H 0.80243 0.30487 0.71946
 C637 C 0.19878 0.20596 0.63162
 C638 C 0.21003 0.17791 0.62715
 C639 C 0.22244 0.16345 0.65426
 C640 C 0.22591 0.17754 0.68487
 C641 C 0.23665 0.12027 0.51846
 C642 C 0.20158 0.22002 0.66289
 C643 C 0.21329 0.16481 0.59454
 C644 C 0.21907 0.15196 0.56903
 C645 C 0.22811 0.13537 0.54114
 C646 C 0.21618 0.20634 0.68969
 H647 H 0.18933 0.21752 0.61061
 H648 H 0.23158 0.14193 0.65105
 H649 H 0.23853 0.16637 0.70367
 H650 H 0.19433 0.24231 0.66522
 C651 C 0.72504 0.67175 0.17121
 C652 C 0.71293 0.68393 0.14245
 C653 C 0.70125 0.71204 0.14385
 C654 C 0.70322 0.72842 0.17367
 C655 C 0.74049 0.62119 0.03746
 C656 C 0.72761 0.68809 0.20045
 C657 C 0.71672 0.66849 0.11128
 C658 C 0.72270 0.65424 0.08683
 C659 C 0.73185 0.63661 0.05981
 C660 C 0.71737 0.71698 0.20215
 H661 H 0.73449 0.65020 0.17040
 H662 H 0.69203 0.72184 0.12154
 H663 H 0.69556 0.75066 0.17362
 H664 H 0.73978 0.67849 0.22078
 C665 C 0.19592 0.63579 0.23165
 C666 C 0.21355 0.61665 0.21397
 C667 C 0.23853 0.62723 0.19786
 C668 C 0.24595 0.65699 0.20003
 C669 C 0.16854 0.51400 0.23481
 C670 C 0.20331 0.66513 0.23404
 C671 C 0.20574 0.58621 0.21468
 C672 C 0.19634 0.56183 0.21851
 C673 C 0.18245 0.53510 0.22615
 C674 C 0.22850 0.67635 0.21849
 H675 H 0.17669 0.62784 0.24452
 H676 H 0.25247 0.61251 0.18422
 H677 H 0.26564 0.66462 0.18797
 H678 H 0.18965 0.67864 0.24945
 C679 C 0.74012 0.12443 0.71141
 C680 C 0.71293 0.11404 0.72202
 C681 C 0.69341 0.13311 0.73691
 C682 C 0.70100 0.16217 0.74199
 C683 C 0.66694 0.01077 0.73512
 C684 C 0.74776 0.15389 0.71625
 C685 C 0.70480 0.08369 0.72056
 C686 C 0.69508 0.05924 0.72242
 C687 C 0.68091 0.03225 0.72790
 C688 C 0.72834 0.17314 0.73199
 H689 H 0.75555 0.10974 0.70009
 H690 H 0.67248 0.12527 0.74570
 H691 H 0.68570 0.17550 0.75536
 H692 H 0.76906 0.16134 0.70841
 C693 C 0.80596 0.15443 0.27322
 C694 C 0.78599 0.13525 0.28770
 C695 C 0.75943 0.14572 0.29953
 C696 C 0.75269 0.17537 0.29582
 C697 C 0.82652 0.03180 0.26531
 C698 C 0.79918 0.18361 0.26906
 C699 C 0.79264 0.10472 0.28657
 C700 C 0.80111 0.08024 0.28227
 C701 C 0.81380 0.05333 0.27413
 C702 C 0.77232 0.19466 0.27985
 H703 H 0.82637 0.14651 0.26344
 H704 H 0.74363 0.13092 0.31051
 H705 H 0.73165 0.18281 0.30407
 H706 H 0.81446 0.19679 0.25511
 C707 C 0.30662 0.64057 0.76444
 C708 C 0.28631 0.62045 0.77649
 C709 C 0.25881 0.62995 0.78647
 C710 C 0.25161 0.65958 0.78359
 C711 C 0.33080 0.51788 0.75700
 C712 C 0.29944 0.66976 0.76119
 C713 C 0.29399 0.59011 0.77539
 C714 C 0.30338 0.56587 0.77170
 C715 C 0.31717 0.53919 0.76473
 C716 C 0.27176 0.67989 0.77037
 H717 H 0.32779 0.63346 0.75610
 H718 H 0.24277 0.61446 0.79558
 H719 H 0.22999 0.66631 0.79057
 H720 H 0.31528 0.68380 0.74933
 C721 C 0.25665 0.36041 0.74761
 C722 C 0.27810 0.36742 0.72413
 C723 C 0.28923 0.34563 0.70336
 C724 C 0.28000 0.31669 0.70723
 C725 C 0.33133 0.46834 0.73669
 C726 C 0.24743 0.33153 0.75155
 C727 C 0.29093 0.39614 0.72418
 C728 C 0.30270 0.41966 0.72623
 C729 C 0.31761 0.44637 0.73089
 C730 C 0.25999 0.30903 0.73246
 H731 H 0.24794 0.37709 0.76392
 H732 H 0.30579 0.35084 0.68497
 H733 H 0.28924 0.30035 0.69109
 H734 H 0.23165 0.32678 0.77092
 C735 C 0.79673 0.86259 0.24499
 C736 C 0.77823 0.88094 0.22732
 C737 C 0.75193 0.86999 0.21447
 C738 C 0.74409 0.84067 0.21997
 C739 C 0.82485 0.98359 0.24121
 C740 C 0.78891 0.83375 0.25076
 C741 C 0.78640 0.91123 0.22543
 C742 C 0.79627 0.93559 0.22746
 C743 C 0.81068 0.96236 0.23349
 C744 C 0.76240 0.82221 0.23861
 H745 H 0.81696 0.87088 0.25546
 H746 H 0.73729 0.88415 0.20096
 H747 H 0.72340 0.83278 0.21049
 H748 H 0.80334 0.82100 0.26616
 C749 C 0.71123 0.84218 0.79614
 C750 C 0.72155 0.86391 0.77449
 C751 C 0.74322 0.85738 0.75125
 C752 C 0.75325 0.82888 0.74820
 C753 C 0.66578 0.96188 0.75711
 C754 C 0.72129 0.81362 0.79318
 C755 C 0.70767 0.89186 0.77320
 C756 C 0.69517 0.91466 0.77001
 C757 C 0.67967 0.94054 0.76401
 C758 C 0.74128 0.80626 0.76796
 H759 H 0.69457 0.84703 0.81442
 H760 H 0.75138 0.87403 0.73433
 H761 H 0.76902 0.82439 0.72883
 H762 H 0.71258 0.79724 0.80988
 C763 C 0.20290 0.34136 0.28851
 C764 C 0.21710 0.36511 0.27352
 C765 C 0.24139 0.36045 0.25337
 C766 C 0.25018 0.33213 0.24617
 C767 C 0.16650 0.46574 0.25895
 C768 C 0.21185 0.31292 0.28155
 C769 C 0.20457 0.39367 0.27452
 C770 C 0.19339 0.41722 0.27227
 C771 C 0.17940 0.44393 0.26640
 C772 C 0.23425 0.30790 0.25834
 H773 H 0.18418 0.34472 0.30441
 H774 H 0.25263 0.37868 0.24173
 H775 H 0.26831 0.32942 0.22927
 H776 H 0.20035 0.29491 0.29320
 C777 C 0.12737 0.24448 0.75724
 C778 C 0.12053 0.23273 0.78873
 C779 C 0.14201 0.21903 0.80763
 C780 C 0.17052 0.21842 0.79611
 C781 C 0.02217 0.24659 0.85295
 C782 C 0.15602 0.24371 0.74545
 C783 C 0.09233 0.23663 0.80346
 C784 C 0.06961 0.23998 0.81786
 C785 C 0.04383 0.24374 0.83637
 C786 C 0.17815 0.23144 0.76525
 H787 H 0.11085 0.25515 0.74239
 H788 H 0.13697 0.20981 0.83200
 H789 H 0.18675 0.20861 0.81212
 H790 H 0.16098 0.25389 0.72160
 C791 C 0.62447 0.75750 0.25977
 C792 C 0.61642 0.74662 0.29138
 C793 C 0.63766 0.73572 0.31287
 C794 C 0.66676 0.73647 0.30361
 C795 C 0.51379 0.74944 0.34890
 C796 C 0.65385 0.75808 0.25020
 C797 C 0.58691 0.74776 0.30342
 C798 C 0.56316 0.74842 0.31618
 C799 C 0.53625 0.74898 0.33328
 C800 C 0.67548 0.74796 0.27229
 H801 H 0.60818 0.76609 0.24288
 H802 H 0.63179 0.72723 0.33736
 H803 H 0.68246 0.72832 0.32147
 H804 H 0.65966 0.76718 0.22604
 C805 C 0.65031 0.28031 0.20192
 C806 C 0.62889 0.26533 0.21980
 C807 C 0.63586 0.25251 0.25076
 C808 C 0.66454 0.25388 0.26305
 C809 C 0.53260 0.25500 0.14926
 C810 C 0.67872 0.28141 0.21380
 C811 C 0.60075 0.26165 0.20420
 C812 C 0.57844 0.25915 0.18837
 C813 C 0.55343 0.25676 0.16773
 C814 C 0.68654 0.26788 0.24433
 H815 H 0.64531 0.29023 0.17792
 H816 H 0.61944 0.24070 0.26481
 H817 H 0.66967 0.24292 0.28636
 H818 H 0.69478 0.29210 0.19815
 C819 C 0.13629 0.76205 0.74805
 C820 C 0.12953 0.76000 0.71372
 C821 C 0.15165 0.75573 0.69055
 C822 C 0.18026 0.75343 0.70118
 C823 C 0.03017 0.75827 0.64932
 C824 C 0.16533 0.75988 0.75890
 C825 C 0.10023 0.76095 0.70096
 C826 C 0.07707 0.76085 0.68669
 C827 C 0.05137 0.75982 0.66719
 C828 C 0.18783 0.75593 0.73547
 H829 H 0.11920 0.76493 0.76635
 H830 H 0.14674 0.75373 0.66399
 H831 H 0.19634 0.74948 0.68202
 H832 H 0.16999 0.76073 0.78551
 C833 C 0.87376 0.74414 0.74334
 C834 C 0.88062 0.73279 0.71171
 C835 C 0.85917 0.71870 0.69269
 C836 C 0.83065 0.71736 0.70421
 C837 C 0.97866 0.75121 0.64768
 C838 C 0.84513 0.74263 0.75513
 C839 C 0.90875 0.73769 0.69697
 C840 C 0.93141 0.74203 0.68264
 C841 C 0.95711 0.74711 0.66423
 C842 C 0.82300 0.73002 0.73518
 H843 H 0.89025 0.75512 0.75829
 H844 H 0.86422 0.70981 0.66819
 H845 H 0.81442 0.70730 0.68810
 H846 H 0.84016 0.75255 0.77908
 C847 C 0.36982 0.25018 0.23489
 C848 C 0.37839 0.23984 0.20333
 C849 C 0.35775 0.22755 0.18170
 C850 C 0.32860 0.22652 0.19078
 C851 C 0.48069 0.25066 0.14654
 C852 C 0.34046 0.24898 0.24424
 C853 C 0.40778 0.24316 0.19150
 C854 C 0.43150 0.24574 0.17902
 C855 C 0.45835 0.24851 0.16218
 C856 C 0.31936 0.23761 0.22199
 H857 H 0.38566 0.25981 0.25186
 H858 H 0.36408 0.21945 0.15724
 H859 H 0.31325 0.21743 0.17288
 H860 H 0.33423 0.25777 0.26837
 C861 C 0.35620 0.78128 0.26001
 C862 C 0.37212 0.75560 0.26281
 C863 C 0.36119 0.72992 0.24843
 C864 C 0.33336 0.72932 0.23422
 C865 C 0.46197 0.75142 0.34504
 C866 C 0.32835 0.78068 0.24583
 C867 C 0.39783 0.75487 0.28364
 C868 C 0.41843 0.75392 0.30246
 C869 C 0.44196 0.75258 0.32538
 C870 C 0.31559 0.75429 0.23483
 H871 H 0.36463 0.80151 0.27042
 H872 H 0.37342 0.70990 0.25000
 H873 H 0.32498 0.70856 0.22531
 H874 H 0.31674 0.80078 0.24508
 C875 C 0.86424 0.25400 0.75250
 C876 C 0.87119 0.25387 0.78686
 C877 C 0.84904 0.25252 0.81052
 C878 C 0.82024 0.25082 0.80036
 C879 C 0.97049 0.25064 0.85113
 C880 C 0.83499 0.25249 0.74211
 C881 C 0.90060 0.25371 0.79932
 C882 C 0.92376 0.25300 0.81355
 C883 C 0.94937 0.25178 0.83314
 C884 C 0.81250 0.25102 0.76601
 H885 H 0.88132 0.25469 0.73387
 H886 H 0.85407 0.25209 0.83713
 H887 H 0.80417 0.24877 0.81998
 H888 H 0.83010 0.25169 0.71553
 C889 C 0.53562 0.94727 0.61073
 C890 C 0.56389 0.95863 0.61405
 C891 C 0.57644 0.97398 0.58760
 C892 C 0.56042 0.97989 0.55895
 C893 C 0.62850 0.97740 0.71974
 C894 C 0.51956 0.95258 0.58130
 C895 C 0.57929 0.95898 0.64547
 C896 C 0.59396 0.96274 0.67020
 C897 C 0.61235 0.96997 0.69739
 C898 C 0.53153 0.96976 0.55535
 H899 H 0.52555 0.93560 0.63135
 H900 H 0.59812 0.98324 0.59003
 H901 H 0.57043 0.99414 0.54065
 H902 H 0.49730 0.94485 0.57983
 C903 C 0.08111 0.47278 1.08696
 C904 C 0.06825 0.45815 1.11378
 C905 C 0.03983 0.44721 1.11072
 C906 C 0.02381 0.45251 1.08134
 C907 C 0.13015 0.48054 1.22049
 C908 C 0.06510 0.47872 1.05829
 C909 C 0.08312 0.45945 1.14545
 C910 C 0.09708 0.46407 1.17049
 C911 C 0.11458 0.47232 1.19799
 C912 C 0.03595 0.46933 1.05518
 H913 H 0.10292 0.48174 1.08925
 H914 H 0.02955 0.43614 1.13163
 H915 H 0.00136 0.44533 1.08026
 H916 H 0.07522 0.49269 1.03978
 C917 C -0.04546 0.05162 1.11807
 C918 C -0.07387 0.04049 1.12069
 C919 C -0.08662 0.02630 1.09341
 C920 C -0.07065 0.02116 1.06462
 C921 C -0.13734 0.01769 1.22597
 C922 C -0.02946 0.04713 1.08850
 C923 C -0.08914 0.03894 1.15207
 C924 C -0.10363 0.03422 1.17665
 C925 C -0.12165 0.02595 1.20366
 C926 C -0.04160 0.03098 1.06168
 H927 H -0.03522 0.06235 1.13932
 H928 H -0.10838 0.01718 1.09529
 H929 H -0.08079 0.00752 1.04573
 H930 H -0.00707 0.05452 1.08761
 C931 C 0.42167 0.54162 0.58485
 C932 C 0.43296 0.53693 0.61698
 C933 C 0.46294 0.53451 0.62137
 C934 C 0.48117 0.53339 0.59345
 C935 C 0.36636 0.50379 0.71712
 C936 C 0.43994 0.54058 0.55689
 C937 C 0.41384 0.53031 0.64452
 C938 C 0.39837 0.52277 0.66735
 C939 C 0.38087 0.51264 0.69403
 C940 C 0.46957 0.53387 0.56057
 H941 H 0.39853 0.54432 0.58116
 H942 H 0.47205 0.53133 0.64621
 H943 H 0.50401 0.52941 0.59780
 H944 H 0.43029 0.54379 0.53263
 C945 C 0.41901 0.48114 -0.09291
 C946 C 0.43160 0.46643 -0.11966
 C947 C 0.45933 0.45441 -0.11592
 C948 C 0.47484 0.45841 -0.08576
 C949 C 0.36887 0.48530 -0.22690
 C950 C 0.43448 0.48565 -0.06340
 C951 C 0.41676 0.46750 -0.15145
 C952 C 0.40261 0.47143 -0.17653
 C953 C 0.38476 0.47840 -0.20418
 C954 C 0.46288 0.47485 -0.05936
 H955 H 0.39774 0.49083 -0.09558
 H956 H 0.46942 0.44315 -0.13669
 H957 H 0.49674 0.45018 -0.08393
 H958 H 0.42453 0.49930 -0.04463
 C959 C -0.04973 0.95752 0.38909
 C960 C -0.07759 0.96940 0.38677
 C961 C -0.08961 0.98336 0.41442
 C962 C -0.07322 0.98768 0.44330
 C963 C -0.13809 0.99613 0.28035
 C964 C -0.03334 0.96121 0.41863
 C965 C -0.09258 0.97215 0.35527
 C966 C -0.10634 0.97779 0.33041
 C967 C -0.12327 0.98707 0.30297
 C968 C -0.04453 0.97734 0.44574
 H969 H -0.04008 0.94694 0.36758
 H970 H -0.11097 0.99301 0.41276
 H971 H -0.08259 1.00117 0.46262
 H972 H -0.01127 0.95332 0.41923
 C973 C 0.04923 0.54897 0.38468
 C974 C 0.07729 0.53771 0.38167
 C975 C 0.09144 0.52683 0.40987
 C976 C 0.07687 0.52451 0.44018
 C977 C 0.13215 0.50251 0.27476
 C978 C 0.03471 0.54743 0.41561
 C979 C 0.09030 0.53206 0.34963
 C980 C 0.10265 0.52421 0.32466
 C981 C 0.11823 0.51282 0.29733
 C982 C 0.04793 0.53393 0.44347
 H983 H 0.03795 0.55719 0.36280
 H984 H 0.11298 0.51767 0.40775
 H985 H 0.08774 0.51273 0.45994
 H986 H 0.01238 0.55451 0.41683
 C987 C 0.54695 0.04552 -0.11751
 C988 C 0.57490 0.03374 -0.11904
 C989 C 0.58799 0.02330 -0.08995
 C990 C 0.57242 0.02180 -0.06022
 C991 C 0.63102 -0.00227 -0.22518
 C992 C 0.53141 0.04477 -0.08722
 C993 C 0.58874 0.02731 -0.15045
 C994 C 0.60143 0.01911 -0.17506
 C995 C 0.61714 0.00770 -0.20233
 C996 C 0.54346 0.03153 -0.05848
 H997 H 0.53650 0.05349 -0.14006
 H998 H 0.60944 0.01380 -0.09090
 H999 H 0.58245 0.01022 -0.03972
 H1000 H 0.50914 0.05210 -0.08721
 C1001 C 0.61538 0.51070 -0.03739
 C1002 C 0.62528 0.53752 -0.02456
 C1003 C 0.60572 0.55646 -0.00964
 C1004 C 0.57675 0.54854 -0.00630
 C1005 C 0.72686 0.58409 -0.00183
 C1006 C 0.58589 0.50278 -0.03446
 C1007 C 0.65549 0.54577 -0.02329
 C1008 C 0.67951 0.55577 -0.01888
 C1009 C 0.70580 0.57018 -0.01067
 C1010 C 0.56617 0.52150 -0.01835
 H1011 H 0.63047 0.49568 -0.04875
 H1012 H 0.61314 0.57706 0.00087
 H1013 H 0.56324 0.56321 0.00773
 H1014 H 0.57881 0.48165 -0.04366
 C1015 C 0.10798 1.01170 0.45460
 C1016 C 0.11914 1.03860 0.46564
 C1017 C 0.10101 1.05830 0.48168
 C1018 C 0.07224 1.05101 0.48792
 C1019 C 0.22247 1.08290 0.48022
 C1020 C 0.07869 1.00443 0.46045
 C1021 C 0.14949 1.04607 0.46414
 C1022 C 0.17395 1.05542 0.46644
 C1023 C 0.20091 1.06926 0.47263
 C1024 C 0.06049 1.02389 0.47775
 H1025 H 0.12199 0.99611 0.44242
 H1026 H 0.10949 1.07897 0.49085
 H1027 H 0.05990 1.06623 0.50267
 H1028 H 0.07068 0.98323 0.45255
 C1029 C 0.10136 -0.05085 1.01931
 C1030 C 0.12126 -0.02949 1.02951
 C1031 C 0.11133 -0.00212 1.03972
 C1032 C 0.08155 0.00412 1.03826
 C1033 C 0.22435 -0.06833 1.00139
 C1034 C 0.07194 -0.04461 1.01735
 C1035 C 0.15165 -0.03565 1.02555
 C1036 C 0.17598 -0.04356 1.01957
 C1037 C 0.20285 -0.05572 1.01037
 C1038 C 0.06145 -0.01684 1.02611
 H1039 H 0.10879 -0.07198 1.01085
 H1040 H 0.12662 0.01472 1.04745
 H1041 H 0.07457 0.02585 1.04482
 H1042 H 0.05808 -0.06101 1.00612
 C1043 C 0.61052 0.44961 0.52400
 C1044 C 0.62978 0.47022 0.53738
 C1045 C 0.61966 0.49779 0.54659
 C1046 C 0.59036 0.50484 0.54145
 C1047 C 0.73345 0.42773 0.52367
 C1048 C 0.58162 0.45664 0.51851
 C1049 C 0.66011 0.46297 0.53816
 C1050 C 0.68458 0.45412 0.53590
 C1051 C 0.71172 0.44096 0.53038
 C1052 C 0.57099 0.48447 0.52670
 H1053 H 0.61817 0.42837 0.51626
 H1054 H 0.63449 0.51406 0.55673
 H1055 H 0.58323 0.52658 0.54779
 H1056 H 0.56832 0.44064 0.50568
 C1057 C -0.10447 0.49851 0.46764
 C1058 C -0.11425 0.47143 0.47969
 C1059 C -0.09434 0.45166 0.49256
 C1060 C -0.06511 0.45909 0.49485
 C1061 C -0.21723 0.42767 0.50298
 C1062 C -0.07479 0.50595 0.46952
 C1063 C -0.14458 0.46379 0.48213
 C1064 C -0.16883 0.45455 0.48694
 C1065 C -0.19564 0.44103 0.49492
 C1066 C -0.05469 0.48648 0.48381
 H1067 H -0.11978 0.51415 0.45783
 H1068 H -0.10164 0.43082 0.50244
 H1069 H -0.05125 0.44384 0.50761
 H1070 H -0.06786 0.52738 0.46120
 C1071 C 0.39772 -0.04823 -0.02039
 C1072 C 0.37913 -0.02766 -0.03430
 C1073 C 0.39029 -0.00066 -0.04485
 C1074 C 0.41993 0.00593 -0.04044
 C1075 C 0.27381 -0.06817 -0.01955
 C1076 C 0.42696 -0.04165 -0.01564
 C1077 C 0.34851 -0.03434 -0.03447
 C1078 C 0.32370 -0.04268 -0.03183
 C1079 C 0.29605 -0.05528 -0.02611
 C1080 C 0.43864 -0.01433 -0.02511
 H1081 H 0.38930 -0.06905 -0.01166
 H1082 H 0.37602 0.01557 -0.05546
 H1083 H 0.42785 0.02731 -0.04773
 H1084 H 0.43975 -0.05752 -0.00236
 C1085 C 0.37976 1.00827 0.53854
 C1086 C 0.37067 1.03577 0.52759
 C1087 C 0.39079 1.05527 0.51401
 C1088 C 0.41948 1.04719 0.50986
 C1089 C 0.27042 1.08271 0.50421
 C1090 C 0.40900 1.00021 0.53493
 C1091 C 0.34065 1.04408 0.52627
 C1092 C 0.31689 1.05415 0.52174
 C1093 C 0.29102 1.06868 0.51330
 C1094 C 0.42922 1.01945 0.51989
 H1095 H 0.36422 0.99281 0.54877
 H1096 H 0.38395 1.07638 0.50482
 H1097 H 0.43326 1.06226 0.49638
 H1098 H 0.41540 0.97854 0.54250
 C1099 C -0.10512 0.55590 1.02279
 C1100 C -0.12440 0.53634 1.03781
 C1101 C -0.11478 0.50867 1.04748
 C1102 C -0.08590 0.50056 1.04131
 C1103 C -0.22536 0.58386 1.02260
 C1104 C -0.07678 0.54779 1.01619
 C1105 C -0.15436 0.54481 1.03932
 C1106 C -0.17829 0.55502 1.03696
 C1107 C -0.20450 0.56971 1.03057
 C1108 C -0.06656 0.51993 1.02501
 H1109 H -0.11241 0.57715 1.01457
 H1110 H -0.12970 0.49316 1.05881
 H1111 H -0.07910 0.47882 1.04813
 H1112 H -0.06369 0.56302 1.00203
 C1113 C 0.03222 0.61128 0.55748
 C1114 C 0.01862 0.63250 0.53812
 C1115 C 0.00628 0.62488 0.50705
 C1116 C 0.00675 0.59577 0.49602
 C1117 C 0.00810 0.73051 0.60473
 C1118 C 0.03244 0.58242 0.54683
 C1119 C 0.01559 0.66119 0.55234
 C1120 C 0.01324 0.68400 0.56713
 C1121 C 0.01055 0.70946 0.58679
 C1122 C 0.01933 0.57403 0.51618
 H1123 H 0.04177 0.61686 0.58159
 H1124 H -0.00446 0.64117 0.49190
 H1125 H -0.00367 0.59018 0.47245
 H1126 H 0.04236 0.56657 0.56326
 C1127 C 0.52562 0.10677 0.05731
 C1128 C 0.51446 0.12908 0.03752
 C1129 C 0.50325 0.12265 0.00552
 C1130 C 0.50258 0.09369 -0.00614
 C1131 C 0.50964 0.22734 0.10483
 C1132 C 0.52471 0.07811 0.04603
 C1133 C 0.51305 0.15781 0.05202
 C1134 C 0.51209 0.18060 0.06711
 C1135 C 0.51094 0.20610 0.08698
 C1136 C 0.51290 0.07094 0.01428
 H1137 H 0.53430 0.11140 0.08211
 H1138 H 0.49441 0.13981 -0.01000
 H1139 H 0.49322 0.08904 -0.03056
 H1140 H 0.53296 0.06151 0.06273
 C1141 C -0.02334 0.10381 0.94454
 C1142 C -0.01160 0.12630 0.96401
 C1143 C -0.00017 0.12013 0.99591
 C1144 C 0.00005 0.09127 1.00782
 C1145 C -0.00641 0.22406 0.89585
 C1146 C -0.02290 0.07524 0.95608
 C1147 C -0.00998 0.15497 0.94936
 C1148 C -0.00893 0.17769 0.93414
 C1149 C -0.00773 0.20304 0.91403
 C1150 C -0.01096 0.06836 0.98776
 H1151 H -0.03221 0.10825 0.91984
 H1152 H 0.00911 0.13744 1.01118
 H1153 H 0.00950 0.08685 1.03218
 H1154 H -0.03176 0.05851 0.93972
 C1155 C 0.51071 0.60706 0.44322
 C1156 C 0.49101 0.62604 0.45789
 C1157 C 0.47575 0.61726 0.48667
 C1158 C 0.47983 0.58922 0.50013
 C1159 C 0.48470 0.72384 0.38950
 C1160 C 0.51468 0.57928 0.45634
 C1161 C 0.48662 0.65400 0.44210
 C1162 C 0.48467 0.67657 0.42664
 C1163 C 0.48405 0.70224 0.40690
 C1164 C 0.49899 0.56954 0.48473
 H1165 H 0.52272 0.61352 0.42101
 H1166 H 0.46044 0.63184 0.49839
 H1167 H 0.46748 0.58292 0.52192
 H1168 H 0.52963 0.56519 0.44332
 C1169 C 0.51069 0.89582 0.43932
 C1170 C 0.49641 0.87423 0.45780
 C1171 C 0.48467 0.88109 0.48926
 C1172 C 0.48643 0.90980 0.50157
 C1173 C 0.48716 0.77603 0.39022
 C1174 C 0.51226 0.92430 0.45129
 C1175 C 0.49273 0.84580 0.44273
 C1176 C 0.49031 0.82307 0.42760
 C1177 C 0.48824 0.79744 0.40790
 C1178 C 0.49982 0.93195 0.48239
 H1179 H 0.51988 0.89084 0.41497
 H1180 H 0.47348 0.86451 0.50381
 H1181 H 0.47640 0.91481 0.52540
 H1182 H 0.52272 0.94049 0.43553
 C1183 C -0.00658 0.38201 0.99055
 C1184 C 0.00368 0.37585 0.95821
 C1185 C 0.01467 0.39835 0.93828
 C1186 C 0.01466 0.42694 0.94991
 C1187 C -0.00233 0.27596 0.89386
 C1188 C -0.00643 0.41085 1.00249
 C1189 C 0.00178 0.34705 0.94392
 C1190 C 0.00041 0.32395 0.92946
 C1191 C -0.00105 0.29786 0.91065
 C1192 C 0.00384 0.43378 0.98206
 H1193 H -0.01524 0.36470 1.00620
 H1194 H 0.02267 0.39389 0.91324
 H1195 H 0.02291 0.44373 0.93329
 H1196 H -0.01503 0.41524 1.02722
 C1197 C 0.47880 0.39731 0.05476
 C1198 C 0.49442 0.37641 0.03713
 C1199 C 0.50758 0.38388 0.00657
 C1200 C 0.50609 0.41262 -0.00549
 C1201 C 0.50593 0.27915 0.10532
 C1202 C 0.47755 0.42584 0.04308
 C1203 C 0.49847 0.34832 0.05253
 C1204 C 0.50137 0.32587 0.06790
 C1205 C 0.50414 0.30050 0.08773
 C1206 C 0.49163 0.43419 0.01310
 H1207 H 0.46856 0.39185 0.07845
 H1208 H 0.51984 0.36784 -0.00727
 H1209 H 0.51742 0.41817 -0.02843
 H1210 H 0.46639 0.44161 0.05847
 C1211 C -0.02403 0.90234 0.56055
 C1212 C -0.01107 0.88067 0.54131
 C1213 C -0.00016 0.88747 0.50940
 C1214 C -0.00126 0.91624 0.49741
 C1215 C 0.00168 0.78211 0.60675
 C1216 C -0.02491 0.93091 0.54889
 C1217 C -0.00734 0.85229 0.55613
 C1218 C -0.00433 0.82955 0.57088
 C1219 C -0.00100 0.80379 0.58990
 C1220 C -0.01308 0.93851 0.51740
 H1221 H -0.03253 0.89739 0.58528
 H1222 H 0.01001 0.87082 0.49428
 H1223 H 0.00821 0.92120 0.47320
 H1224 H -0.03415 0.94720 0.56525
 C1225 C 0.21175 0.32820 0.14985
 C1226 C 0.21691 0.31686 0.11787
 C1227 C 0.22166 0.28699 0.11411
 C1228 C 0.22385 0.26908 0.14241
 C1229 C 0.23999 0.38804 0.01748
 C1230 C 0.21396 0.31031 0.17816
 C1231 C 0.22092 0.33627 0.08973
 C1232 C 0.22598 0.35262 0.06666
 C1233 C 0.23323 0.37176 0.04006
 C1234 C 0.22200 0.28086 0.17515
 H1235 H 0.20754 0.35123 0.15311
 H1236 H 0.22541 0.27780 0.08944
 H1237 H 0.22923 0.24641 0.13851
 H1238 H 0.21060 0.32031 0.20215
 C1239 C 0.72950 0.78871 0.63247
 C1240 C 0.71645 0.81547 0.63884
 C1241 C 0.70498 0.82105 0.67072
 C1242 C 0.70889 0.80089 0.69680
 C1243 C 0.73640 0.89151 0.54296
 C1244 C 0.73380 0.76889 0.65845
 C1245 C 0.71843 0.83791 0.61360
 C1246 C 0.72262 0.85575 0.59183
 C1247 C 0.72956 0.87551 0.56574
 C1248 C 0.72544 0.77559 0.69163
 H1249 H 0.73807 0.78389 0.60778
 H1250 H 0.69434 0.84153 0.67588
 H1251 H 0.70051 0.80612 0.72136
 H1252 H 0.74551 0.74921 0.65261
 C1253 C 0.28019 0.66732 0.65891
 C1254 C 0.29414 0.68197 0.63286
 C1255 C 0.30520 0.71022 0.63809
 C1256 C 0.30079 0.72424 0.66902
 C1257 C 0.27124 0.62403 0.52321
 C1258 C 0.27513 0.68136 0.68912
 C1259 C 0.29242 0.66887 0.60014
 C1260 C 0.28761 0.65593 0.57438
 C1261 C 0.27935 0.63921 0.54617
 C1262 C 0.28479 0.71028 0.69465
 H1263 H 0.27113 0.64565 0.65501
 H1264 H 0.31575 0.72192 0.61783
 H1265 H 0.30802 0.74664 0.67189
 H1266 H 0.26154 0.66999 0.70697
 C1267 C 0.77351 0.17367 0.16958
 C1268 C 0.78702 0.18589 0.14162
 C1269 C 0.79897 0.21411 0.14366
 C1270 C 0.79599 0.23050 0.17329
 C1271 C 0.76191 0.12216 0.03627
 C1272 C 0.76996 0.19003 0.19858
 C1273 C 0.78438 0.17030 0.11035
 C1274 C 0.77911 0.15581 0.08575
 C1275 C 0.77046 0.13786 0.05861
 C1276 C 0.78060 0.21895 0.20089
 H1277 H 0.76384 0.15204 0.16823
 H1278 H 0.80924 0.22393 0.12194
 H1279 H 0.80401 0.25277 0.17373
 H1280 H 0.75696 0.18034 0.21824
 C1281 C 0.69968 0.20348 0.86699
 C1282 C 0.71089 0.17545 0.87169
 C1283 C 0.72294 0.16065 0.84466
 C1284 C 0.72620 0.17444 0.81390
 C1285 C 0.74003 0.12087 0.98169
 C1286 C 0.70226 0.21723 0.83557
 C1287 C 0.71479 0.16291 0.90447
 C1288 C 0.72114 0.15070 0.93022
 C1289 C 0.73088 0.13504 0.95851
 C1290 C 0.71663 0.20327 0.80888
 H1291 H 0.69055 0.21530 0.88794
 H1292 H 0.73207 0.13914 0.84808
 H1293 H 0.73867 0.16307 0.79519
 H1294 H 0.69512 0.23955 0.83308
 C1295 C 0.23657 0.66487 0.33060
 C1296 C 0.22376 0.67856 0.35795
 C1297 C 0.21072 0.70584 0.35379
 C1298 C 0.21180 0.71989 0.32246
 C1299 C 0.25117 0.62272 0.46782
 C1300 C 0.23814 0.67891 0.29981
 C1301 C 0.22765 0.66545 0.39040
 C1302 C 0.23363 0.65291 0.41604
 C1303 C 0.24269 0.63699 0.44441
 C1304 C 0.22629 0.70690 0.29524
 H1305 H 0.24697 0.64391 0.33356
 H1306 H 0.20093 0.71676 0.37499
 H1307 H 0.20284 0.74153 0.32017
 H1308 H 0.25029 0.66826 0.28020
 C1309 C 0.76240 0.84273 0.35037
 C1310 C 0.77599 0.83043 0.37820
 C1311 C 0.78815 0.80260 0.37559
 C1312 C 0.78525 0.78659 0.34562
 C1313 C 0.75433 0.89131 0.48668
 C1314 C 0.75904 0.82677 0.32091
 C1315 C 0.77370 0.84545 0.40987
 C1316 C 0.76914 0.85921 0.43513
 C1317 C 0.76167 0.87625 0.46336
 C1318 C 0.76977 0.79813 0.31816
 H1319 H 0.75267 0.86411 0.35210
 H1320 H 0.79858 0.79273 0.39713
 H1321 H 0.79346 0.76457 0.34478
 H1322 H 0.74620 0.83644 0.30114
 C1323 C 0.29350 0.32479 0.83165
 C1324 C 0.28250 0.31758 0.86339
 C1325 C 0.27139 0.28960 0.86903
 C1326 C 0.26823 0.27005 0.84245
 C1327 C 0.25757 0.39013 0.96108
 C1328 C 0.29076 0.30491 0.80497
 C1329 C 0.27890 0.33930 0.88921
 C1330 C 0.27345 0.35632 0.91141
 C1331 C 0.26524 0.37501 0.93794
 C1332 C 0.27571 0.27828 0.80940
 H1333 H 0.30278 0.34621 0.82708
 H1334 H 0.26330 0.28350 0.89360
 H1335 H 0.25788 0.24927 0.84774
 H1336 H 0.29881 0.31128 0.78058
 C1337 C 0.78943 0.34261 0.79489
 C1338 C 0.77992 0.36395 0.77244
 C1339 C 0.75931 0.35672 0.74790
 C1340 C 0.74948 0.32796 0.74456
 C1341 C 0.83488 0.46390 0.75850
 C1342 C 0.77957 0.31380 0.79162
 C1343 C 0.79351 0.39235 0.77199
 C1344 C 0.80578 0.41559 0.76959
 C1345 C 0.82108 0.44205 0.76458
 C1346 C 0.76059 0.30578 0.76535
 H1347 H 0.80526 0.34801 0.81417
 H1348 H 0.75179 0.37305 0.73034
 H1349 H 0.73450 0.32296 0.72432
 H1350 H 0.78755 0.29778 0.80908
 C1351 C 0.28066 0.84780 0.28277
 C1352 C 0.27557 0.86868 0.25791
 C1353 C 0.26133 0.86057 0.22824
 C1354 C 0.25374 0.83145 0.22255
 C1355 C 0.32918 0.96955 0.25304
 C1356 C 0.27298 0.81861 0.27715
 C1357 C 0.28789 0.89751 0.26073
 C1358 C 0.29965 0.92110 0.26075
 C1359 C 0.31493 0.94778 0.25794
 C1360 C 0.26113 0.80977 0.24600
 H1361 H 0.29157 0.85386 0.30592
 H1362 H 0.25702 0.87661 0.20892
 H1363 H 0.24293 0.82590 0.19921
 H1364 H 0.27795 0.80280 0.29644
 C1365 C 0.24082 0.86296 0.75215
 C1366 C 0.21956 0.86908 0.72810
 C1367 C 0.20977 0.84704 0.70645
 C1368 C 0.21992 0.81860 0.71015
 C1369 C 0.16251 0.96651 0.74262
 C1370 C 0.25097 0.83456 0.75592
 C1371 C 0.20542 0.89689 0.72852
 C1372 C 0.19259 0.91956 0.73095
 C1373 C 0.17668 0.94528 0.73616
 C1374 C 0.23948 0.81166 0.73611
 H1375 H 0.24856 0.87986 0.76909
 H1376 H 0.19344 0.85157 0.68757
 H1377 H 0.21162 0.80200 0.69339
 H1378 H 0.26642 0.83035 0.77582
 C1379 C 0.70124 0.36295 0.24343
 C1380 C 0.71969 0.38177 0.22599
 C1381 C 0.74604 0.37148 0.21331
 C1382 C 0.75395 0.34231 0.21874
 C1383 C 0.67131 0.48221 0.24116
 C1384 C 0.70914 0.33432 0.24916
 C1385 C 0.71132 0.41183 0.22426
 C1386 C 0.70102 0.43576 0.22660
 C1387 C 0.68598 0.46176 0.23309
 C1388 C 0.73565 0.32338 0.23715
 H1389 H 0.68099 0.37074 0.25379
 H1390 H 0.76066 0.38603 0.19998
 H1391 H 0.77466 0.33490 0.20940
 H1392 H 0.69473 0.32126 0.26447
 C1393 C 0.69038 0.65271 0.27478
 C1394 C 0.71002 0.63378 0.28971
 C1395 C 0.73662 0.64454 0.30193
 C1396 C 0.74373 0.67423 0.29816
 C1397 C 0.66893 0.52991 0.26604
 C1398 C 0.69754 0.68191 0.27052
 C1399 C 0.70308 0.60318 0.28844
 C1400 C 0.69441 0.57864 0.28387
 C1401 C 0.68159 0.55161 0.27529
 C1402 C 0.72446 0.69326 0.28170
 H1403 H 0.66996 0.64455 0.26467
 H1404 H 0.75216 0.62992 0.31324
 H1405 H 0.76480 0.68191 0.30672
 H1406 H 0.68257 0.69483 0.25612
 C1407 C 0.23874 0.12807 0.78789
 C1408 C 0.21154 0.11789 0.77682
 C1409 C 0.19237 0.13704 0.76140
 C1410 C 0.20029 0.16595 0.75625
 C1411 C 0.16365 0.01544 0.76400
 C1412 C 0.24671 0.15744 0.78300
 C1413 C 0.20295 0.08769 0.77839
 C1414 C 0.19272 0.06345 0.77653
 C1415 C 0.17796 0.03676 0.77106
 C1416 C 0.22763 0.17675 0.76673
 H1417 H 0.25390 0.11329 0.79964
 H1418 H 0.17143 0.12936 0.75229
 H1419 H 0.18521 0.17934 0.74253
 H1420 H 0.26799 0.16476 0.79124
 C1421 C 0.30696 0.14117 0.22132
 C1422 C 0.28751 0.12106 0.20737
 C1423 C 0.26051 0.13042 0.19543
 C1424 C 0.25279 0.15986 0.19855
 C1425 C 0.33022 0.01859 0.23146
 C1426 C 0.29923 0.17018 0.22487
 C1427 C 0.29508 0.09076 0.20918
 C1428 C 0.30409 0.06654 0.21390
 C1429 C 0.31723 0.03989 0.22240
 C1430 C 0.27187 0.18008 0.21403
 H1431 H 0.32771 0.13412 0.23117
 H1432 H 0.24513 0.11490 0.18485
 H1433 H 0.23143 0.16641 0.19024
 H1434 H 0.31415 0.18411 0.23848
 C1435 C 0.80785 0.63498 0.73850
 C1436 C 0.78819 0.61556 0.72361
 C1437 C 0.76101 0.62549 0.71293
 C1438 C 0.75350 0.65484 0.71771
 C1439 C 0.83381 0.51307 0.73727
 C1440 C 0.80038 0.66390 0.74356
 C1441 C 0.79620 0.58533 0.72228
 C1442 C 0.80583 0.56105 0.72427
 C1443 C 0.81991 0.53430 0.72991
 C1444 C 0.77304 0.67442 0.73350
 H1445 H 0.82878 0.62750 0.74734
 H1446 H 0.74547 0.61053 0.70161
 H1447 H 0.73219 0.66193 0.70984
 H1448 H 0.81578 0.67750 0.75696
 C1449 C 0.84809 0.77913 0.20525
 C1450 C 0.86895 0.76382 0.22333
 C1451 C 0.86146 0.75116 0.25424
 C1452 C 0.83281 0.75288 0.26619
 C1453 C 0.96558 0.75183 0.15469
 C1454 C 0.81965 0.78059 0.21682
 C1455 C 0.89702 0.75963 0.20808
 C1456 C 0.91938 0.75665 0.19270
 C1457 C 0.94456 0.75378 0.17266
 C1458 C 0.81129 0.76709 0.24720
 H1459 H 0.85349 0.78895 0.18128
 H1460 H 0.87744 0.73912 0.26846
 H1461 H 0.82725 0.74192 0.28940
 H1462 H 0.80396 0.79140 0.20097
 C1463 C 0.34862 0.25343 0.68836
 C1464 C 0.37075 0.25695 0.71193
 C1465 C 0.36379 0.25933 0.74614
 C1466 C 0.33456 0.25788 0.75649
 C1467 C 0.47028 0.25194 0.64871
 C1468 C 0.31985 0.25181 0.69849
 C1469 C 0.40019 0.25672 0.69964
 C1470 C 0.42338 0.25568 0.68563
 C1471 C 0.44908 0.25381 0.66638
 C1472 C 0.31210 0.25418 0.73268
 H1473 H 0.35364 0.25130 0.66189
 H1474 H 0.38085 0.26178 0.76474
 H1475 H 0.32968 0.25891 0.78301
 H1476 H 0.30381 0.24821 0.67901
 C1477 C 0.35776 0.72387 0.81258
 C1478 C 0.37949 0.73640 0.79276
 C1479 C 0.37257 0.74757 0.76104
 C1480 C 0.34370 0.74721 0.74979
 C1481 C 0.47974 0.74865 0.85441
 C1482 C 0.32902 0.72365 0.80158
 C1483 C 0.40822 0.73961 0.80661
 C1484 C 0.43144 0.74248 0.82030
 C1485 C 0.45776 0.74587 0.83815
 C1486 C 0.32144 0.73589 0.77034
 H1487 H 0.36287 0.71514 0.83716
 H1488 H 0.38929 0.75736 0.74550
 H1489 H 0.33877 0.75677 0.72563
 H1490 H 0.31269 0.71449 0.81810
 C1491 C 0.87291 0.26185 0.26084
 C1492 C 0.88062 0.25064 0.29237
 C1493 C 0.85928 0.23839 0.31291
 C1494 C 0.83033 0.23827 0.30285
 C1495 C 0.98189 0.25635 0.35339
 C1496 C 0.84369 0.26154 0.25047
 C1497 C 0.90982 0.25287 0.30539
 C1498 C 0.93327 0.25432 0.31897
 C1499 C 0.95976 0.25558 0.33700
 C1500 C 0.82191 0.25017 0.27167
 H1501 H 0.88930 0.27147 0.24470
 H1502 H 0.86491 0.22964 0.33733
 H1503 H 0.81447 0.22924 0.32006
 H1504 H 0.83810 0.27103 0.22645
 C1505 C 0.13863 0.27800 0.25558
 C1506 C 0.12635 0.25496 0.27401
 C1507 C 0.14121 0.22873 0.27660
 C1508 C 0.16894 0.22609 0.26318
 C1509 C 0.03380 0.25816 0.35119
 C1510 C 0.16649 0.27525 0.24162
 C1511 C 0.09987 0.25821 0.29291
 C1512 C 0.07857 0.25920 0.31052
 C1513 C 0.05432 0.25897 0.33232
 C1514 C 0.18282 0.24983 0.24692
 H1515 H 0.12722 0.29844 0.25311
 H1516 H 0.13188 0.21057 0.29042
 H1517 H 0.17979 0.20560 0.26727
 H1518 H 0.17578 0.29372 0.22872
 C1519 C 0.63766 0.75596 0.75455
 C1520 C 0.63075 0.75423 0.78882
 C1521 C 0.65281 0.75060 0.81236
 C1522 C 0.68149 0.74855 0.80217
 C1523 C 0.53151 0.75314 0.85272
 C1524 C 0.66679 0.75402 0.74413
 C1525 C 0.60140 0.75498 0.80123
 C1526 C 0.57826 0.75489 0.81538
 C1527 C 0.55264 0.75413 0.83484
 C1528 C 0.68922 0.75064 0.76794
 H1529 H 0.62063 0.75838 0.73598
 H1530 H 0.64780 0.74889 0.83888
 H1531 H 0.69750 0.74505 0.82163
 H1532 H 0.67159 0.75458 0.71758
 C1533 C 0.62776 0.24022 0.74238
 C1534 C 0.62056 0.22898 0.71069
 C1535 C 0.64188 0.21577 0.69119
 C1536 C 0.67058 0.21520 0.70235
 C1537 C 0.52177 0.24543 0.64763
 C1538 C 0.65657 0.23949 0.75378
 C1539 C 0.59217 0.23317 0.69636
 C1540 C 0.56930 0.23701 0.68234
 C1541 C 0.54340 0.24163 0.66416
 C1542 C 0.67853 0.22779 0.73339
 H1543 H 0.61138 0.25052 0.75769
 H1544 H 0.63656 0.20696 0.66665
 H1545 H 0.68667 0.20577 0.68594
 H1546 H 0.66178 0.24929 0.77782
 C1547 C 0.12926 0.74647 0.23987
 C1548 C 0.11891 0.73253 0.21082
 C1549 C 0.13792 0.71641 0.19107
 C1550 C 0.16739 0.71562 0.19898
 C1551 C 0.01745 0.74726 0.15300
 C1552 C 0.15890 0.74548 0.24810
 C1553 C 0.08973 0.73689 0.19876
 C1554 C 0.06620 0.74046 0.18607
 C1555 C 0.03958 0.74435 0.16894
 C1556 C 0.17854 0.73079 0.22710
 H1557 H 0.11472 0.75911 0.25533
 H1558 H 0.13022 0.70557 0.16850
 H1559 H 0.18160 0.70418 0.18196
 H1560 H 0.16656 0.75754 0.26981
   
