data_POSCAR
  _audit_creation_date              2014-09-24
  _audit_creation_method            'ToBaCCo'
  _symmetry_space_group_name_H-M    'P1'
  _symmetry_Int_Tables_number       1
  _symmetry_cell_setting            triclinic
  loop_
  _symmetry_equiv_pos_as_xyz
 x,y,z
_cell_length_a 39.7606
_cell_length_b 37.1409
_cell_length_c 50.4921
_cell_angle_alpha 89.868300
_cell_angle_beta 89.915500
_cell_angle_gamma 89.936000
loop_
  _atom_site_label
  _atom_site_type_symbol
  _atom_site_fract_x
  _atom_site_fract_y
  _atom_site_fract_z
Zr1 Zr 0.24814 0.25783 0.29379
 O2 O 0.27420 0.28961 0.32181
 O3 O 0.21384 0.23002 0.31782
 O4 O 0.21531 0.29490 0.31188
 O5 O 0.30805 0.19026 0.29054
 O6 O 0.18940 0.32340 0.27730
 O7 O 0.27828 0.22588 0.31905
 O8 O 0.18220 0.19848 0.28814
 O9 O 0.20475 0.25812 0.27036
 O10 O 0.24648 0.20778 0.27502
 O11 O 0.25344 0.30202 0.26794
 O12 O 0.29391 0.25364 0.27281
 Zr13 Zr 0.25341 0.24677 0.20219
 Zr14 Zr 0.21115 0.30032 0.24321
 Zr15 Zr 0.29042 0.20442 0.25256
 Zr16 Zr 0.20432 0.20887 0.25077
 O17 O 0.34364 0.20496 0.25328
 O18 O 0.15243 0.22139 0.24771
 O19 O 0.24809 0.20212 0.22776
 O20 O 0.20802 0.25102 0.22329
 O21 O 0.25511 0.29724 0.22048
 O22 O 0.29652 0.24674 0.22584
 C23 C 0.18962 0.20878 0.31174
 C24 C 0.30020 0.20131 0.31388
 C25 C 0.19423 0.31762 0.30213
 O26 O 0.15820 0.29941 0.23918
 O27 O 0.19777 0.31839 0.20493
 O28 O 0.22618 0.28112 0.17675
 C29 C 0.20601 0.30739 0.18164
 O30 O 0.31912 0.31940 0.27934
 Zr31 Zr 0.29713 0.29601 0.24513
 O32 O 0.28730 0.27470 0.17811
 O33 O 0.21881 0.35665 0.24190
 O34 O 0.29201 0.35259 0.24105
 O35 O 0.34966 0.28599 0.24562
 O36 O 0.31614 0.30997 0.20730
 C37 C 0.30934 0.29860 0.18384
 O38 O 0.22575 0.21680 0.17402
 O39 O 0.28233 0.14846 0.25711
 O40 O 0.28355 0.20737 0.18399
 O41 O 0.30815 0.17745 0.21852
 O42 O 0.20641 0.15248 0.25726
 O43 O 0.18630 0.18108 0.21690
 C44 C 0.30300 0.18305 0.19369
 H45 H 0.24504 0.18733 0.28758
 H46 H 0.18849 0.25039 0.21116
 H47 H 0.31764 0.24363 0.21570
 H48 H 0.25446 0.32492 0.27791
 H49 H 0.13971 0.20000 0.25383
 H50 H 0.15074 0.32482 0.23783
 H51 H 0.19639 0.36779 0.23934
 H52 H 0.31429 0.36225 0.23586
 H53 H 0.18326 0.14431 0.26134
 H54 H 0.30478 0.13730 0.25942
 H55 H 0.35109 0.17957 0.25487
 H56 H 0.36105 0.30837 0.23977
 H57 H 0.16554 0.16781 0.22159
 H58 H 0.23528 0.22243 0.15631
 H59 H 0.26466 0.28386 0.33948
 H60 H 0.33517 0.33840 0.27390
 Zr61 Zr 0.75474 0.74914 0.29676
 O62 O 0.72894 0.71882 0.32596
 O63 O 0.78886 0.77849 0.31982
 O64 O 0.78747 0.71322 0.31610
 O65 O 0.69369 0.81534 0.29125
 O66 O 0.81376 0.68298 0.28254
 O67 O 0.72404 0.78197 0.32086
 O68 O 0.82015 0.80860 0.28896
 O69 O 0.79823 0.74821 0.27336
 O70 O 0.75577 0.79812 0.27633
 O71 O 0.75015 0.70347 0.27243
 O72 O 0.70899 0.75137 0.27570
 Zr73 Zr 0.74964 0.75470 0.20481
 Zr74 Zr 0.79255 0.70442 0.24769
 Zr75 Zr 0.71189 0.79943 0.25378
 Zr76 Zr 0.79798 0.79629 0.25206
 O77 O 0.65868 0.79799 0.25430
 O78 O 0.85013 0.78493 0.24913
 O79 O 0.75424 0.80088 0.22885
 O80 O 0.79500 0.75254 0.22606
 O81 O 0.74862 0.70538 0.22491
 O82 O 0.70648 0.75550 0.22849
 C83 C 0.81304 0.79939 0.31290
 C84 C 0.70162 0.80567 0.31492
 C85 C 0.80851 0.68992 0.30714
 O86 O 0.84554 0.70669 0.24419
 O87 O 0.80676 0.68458 0.21012
 O88 O 0.77773 0.71947 0.18066
 C89 C 0.79844 0.69402 0.18647
 O90 O 0.68452 0.68619 0.28461
 Zr91 Zr 0.70648 0.70744 0.24951
 O92 O 0.71631 0.72453 0.18174
 O93 O 0.78613 0.64787 0.24789
 O94 O 0.71213 0.65071 0.24781
 O95 O 0.65384 0.71675 0.24928
 O96 O 0.68814 0.69053 0.21229
 C97 C 0.69477 0.70046 0.18842
 O98 O 0.77687 0.78353 0.17559
 O99 O 0.71905 0.85572 0.25654
 O100 O 0.71903 0.79259 0.18533
 O101 O 0.69421 0.82428 0.21887
 O102 O 0.79477 0.85289 0.25687
 O103 O 0.81570 0.82261 0.21732
 C104 C 0.69940 0.81728 0.19425
 H105 H 0.75690 0.81924 0.28823
 H106 H 0.81459 0.75284 0.21394
 H107 H 0.68539 0.75764 0.21822
 H108 H 0.74931 0.68113 0.28314
 H109 H 0.86242 0.80692 0.25451
 H110 H 0.85367 0.68147 0.24372
 H111 H 0.80883 0.63715 0.24587
 H112 H 0.68995 0.64046 0.24304
 H113 H 0.81770 0.86172 0.26094
 H114 H 0.69641 0.86659 0.25848
 H115 H 0.65085 0.82331 0.25501
 H116 H 0.64281 0.69380 0.24436
 H117 H 0.83576 0.83720 0.22170
 H118 H 0.76761 0.77656 0.15810
 H119 H 0.73829 0.72580 0.34342
 H120 H 0.66847 0.66688 0.27992
 Zr121 Zr 0.75069 0.25134 -0.29483
 O122 O 0.72416 0.28157 -0.32365
 O123 O 0.78471 0.22214 -0.31823
 O124 O 0.78300 0.28727 -0.31460
 O125 O 0.69048 0.18455 -0.28866
 O126 O 0.80925 0.31794 -0.28134
 O127 O 0.72005 0.21824 -0.31859
 O128 O 0.81687 0.19265 -0.28763
 O129 O 0.79445 0.25293 -0.27187
 O130 O 0.75266 0.20243 -0.27435
 O131 O 0.74572 0.29699 -0.27052
 O132 O 0.70527 0.24853 -0.27328
 Zr133 Zr 0.74685 0.24597 -0.20279
 Zr134 Zr 0.78842 0.29672 -0.24623
 Zr135 Zr 0.70910 0.20057 -0.25135
 Zr136 Zr 0.79515 0.20492 -0.25051
 O137 O 0.65588 0.20146 -0.25109
 O138 O 0.84715 0.21719 -0.24817
 O139 O 0.75180 0.19984 -0.22686
 O140 O 0.79187 0.24870 -0.22455
 O141 O 0.74484 0.29520 -0.22294
 O142 O 0.70337 0.24442 -0.22599
 C143 C 0.80920 0.20149 -0.31152
 C144 C 0.69796 0.19433 -0.31242
 C145 C 0.80401 0.31067 -0.30588
 O146 O 0.84148 0.29577 -0.24302
 O147 O 0.80282 0.31687 -0.20888
 O148 O 0.77468 0.28176 -0.17900
 C149 C 0.79496 0.30744 -0.18512
 O150 O 0.67972 0.31376 -0.28183
 Zr151 Zr 0.70242 0.29245 -0.24708
 O152 O 0.71319 0.27562 -0.17943
 O153 O 0.78073 0.35309 -0.24663
 O154 O 0.70758 0.34920 -0.24528
 O155 O 0.64995 0.28224 -0.24656
 O156 O 0.68403 0.30904 -0.20971
 C157 C 0.69108 0.29924 -0.18589
 O158 O 0.77497 0.21799 -0.17368
 O159 O 0.71683 0.14435 -0.25441
 O160 O 0.71752 0.20725 -0.18302
 O161 O 0.69275 0.17511 -0.21625
 O162 O 0.79269 0.14825 -0.25515
 O163 O 0.81372 0.17888 -0.21597
 C164 C 0.69842 0.18202 -0.19171
 H165 H 0.75387 0.18130 -0.28623
 H166 H 0.81163 0.24874 -0.21264
 H167 H 0.68249 0.24186 -0.21546
 H168 H 0.74448 0.31927 -0.28128
 H169 H 0.85974 0.19542 -0.25371
 H170 H 0.84909 0.32118 -0.24297
 H171 H 0.80321 0.36434 -0.24491
 H172 H 0.68536 0.35927 -0.24032
 H173 H 0.81567 0.13971 -0.25950
 H174 H 0.69428 0.13323 -0.25602
 H175 H 0.64834 0.17605 -0.25160
 H176 H 0.63854 0.30490 -0.24139
 H177 H 0.83403 0.16473 -0.22055
 H178 H 0.76562 0.22475 -0.15615
 H179 H 0.73321 0.27464 -0.34124
 H180 H 0.66348 0.33283 -0.27686
 Zr181 Zr 0.24458 0.74553 -0.29567
 O182 O 0.27193 0.71462 -0.32356
 O183 O 0.21081 0.77361 -0.31998
 O184 O 0.21286 0.70837 -0.31475
 O185 O 0.30355 0.81375 -0.29073
 O186 O 0.18637 0.67885 -0.28087
 O187 O 0.27512 0.77835 -0.32006
 O188 O 0.17809 0.80434 -0.29049
 O189 O 0.20048 0.74437 -0.27299
 O190 O 0.24186 0.79516 -0.27638
 O191 O 0.24957 0.70090 -0.27019
 O192 O 0.28965 0.74966 -0.27387
 Zr193 Zr 0.24700 0.75459 -0.20375
 Zr194 Zr 0.20652 0.70170 -0.24618
 Zr195 Zr 0.28503 0.79845 -0.25317
 Zr196 Zr 0.19901 0.79320 -0.25283
 O197 O 0.33826 0.79814 -0.25314
 O198 O 0.14710 0.78040 -0.25091
 O199 O 0.24198 0.79974 -0.22898
 O200 O 0.20232 0.75051 -0.22574
 O201 O 0.24975 0.70455 -0.22260
 O202 O 0.29070 0.75564 -0.22682
 C203 C 0.18629 0.79468 -0.31412
 C204 C 0.29655 0.80312 -0.31435
 C205 C 0.19192 0.68507 -0.30556
 O206 O 0.15342 0.70247 -0.24328
 O207 O 0.19185 0.68273 -0.20843
 O208 O 0.21926 0.71924 -0.17927
 C209 C 0.19931 0.69305 -0.18483
 O210 O 0.31551 0.68372 -0.28055
 Zr211 Zr 0.29246 0.70678 -0.24656
 O212 O 0.28103 0.72694 -0.17941
 O213 O 0.21448 0.64538 -0.24520
 O214 O 0.28750 0.65018 -0.24261
 O215 O 0.34487 0.71732 -0.24658
 O216 O 0.31133 0.69302 -0.20866
 C217 C 0.30410 0.70404 -0.18516
 O218 O 0.21810 0.78359 -0.17571
 O219 O 0.27661 0.85446 -0.25708
 O220 O 0.27612 0.79405 -0.18471
 O221 O 0.30161 0.82472 -0.21854
 O222 O 0.20100 0.84974 -0.25855
 O223 O 0.17948 0.82005 -0.21901
 C224 C 0.29582 0.81856 -0.19385
 H225 H 0.24062 0.81588 -0.28871
 H226 H 0.18238 0.75071 -0.21397
 H227 H 0.31154 0.75884 -0.21641
 H228 H 0.25115 0.67819 -0.28036
 H229 H 0.13445 0.80183 -0.25710
 H230 H 0.14596 0.67703 -0.24255
 H231 H 0.19205 0.63406 -0.24325
 H232 H 0.30971 0.64058 -0.23717
 H233 H 0.17797 0.85790 -0.26308
 H234 H 0.29902 0.86584 -0.25893
 H235 H 0.34558 0.82360 -0.25419
 H236 H 0.35643 0.69493 -0.24093
 H237 H 0.15898 0.83358 -0.22402
 H238 H 0.22716 0.77764 -0.15793
 H239 H 0.26301 0.72073 -0.34136
 H240 H 0.33128 0.66451 -0.27496
 Zr241 Zr 1.25498 1.24984 0.79536
 O242 O 1.22874 1.21960 0.82437
 O243 O 1.28887 1.27908 0.81861
 O244 O 1.28734 1.21359 0.81486
 O245 O 1.19461 1.31671 0.78972
 O246 O 1.31380 1.18339 0.78139
 O247 O 1.22445 1.28281 0.81936
 O248 O 1.32039 1.30952 0.78806
 O249 O 1.29867 1.24873 0.77223
 O250 O 1.25638 1.29887 0.77498
 O251 O 1.25019 1.20427 0.77103
 O252 O 1.20936 1.25254 0.77414
 Zr253 Zr 1.25046 1.25587 0.70354
 Zr254 Zr 1.29276 1.20503 0.74652
 Zr255 Zr 1.21262 1.30064 0.75227
 Zr256 Zr 1.29879 1.29688 0.75096
 O257 O 1.15942 1.29931 0.75293
 O258 O 1.35090 1.28512 0.74853
 O259 O 1.25520 1.30197 0.72758
 O260 O 1.29569 1.25317 0.72492
 O261 O 1.24900 1.20652 0.72357
 O262 O 1.20711 1.25679 0.72699
 C263 C 1.31291 1.30030 0.81194
 C264 C 1.20238 1.30683 0.81337
 C265 C 1.30833 1.19017 0.80599
 O266 O 1.34575 1.20664 0.74279
 O267 O 1.30635 1.18469 0.70903
 O268 O 1.27788 1.22003 0.67950
 C269 C 1.29793 1.19405 0.68540
 O270 O 1.18440 1.18747 0.78291
 Zr271 Zr 1.20670 1.20866 0.74792
 O272 O 1.21709 1.22616 0.68030
 O273 O 1.28580 1.14856 0.74688
 O274 O 1.21231 1.15195 0.74599
 O275 O 1.15408 1.21805 0.74759
 O276 O 1.18851 1.19205 0.71055
 C277 C 1.19542 1.20215 0.68676
 O278 O 1.27829 1.28446 0.67457
 O279 O 1.21999 1.35691 0.75488
 O280 O 1.22007 1.29380 0.68386
 O281 O 1.19478 1.32531 0.71726
 O282 O 1.29589 1.35355 0.75551
 O283 O 1.31712 1.32274 0.71624
 C284 C 1.20011 1.31829 0.69265
 H285 H 1.25755 1.32000 0.78686
 H286 H 1.31533 1.25326 0.71284
 H287 H 1.18608 1.25903 0.71667
 H288 H 1.24915 1.18193 0.78173
 H289 H 1.36324 1.30706 0.75394
 H290 H 1.35361 1.18131 0.74252
 H291 H 1.30839 1.13755 0.74496
 H292 H 1.19011 1.14177 0.74123
 H293 H 1.31882 1.36226 0.75972
 H294 H 1.19738 1.36788 0.75668
 H295 H 1.15163 1.32465 0.75363
 H296 H 1.14305 1.19514 0.74259
 H297 H 1.33716 1.33730 0.72072
 H298 H 1.26913 1.27764 0.65702
 H299 H 1.23803 1.22638 0.84189
 H300 H 1.16870 1.16785 0.77815
 Zr301 Zr 0.74812 0.75652 0.79466
 O302 O 0.77376 0.78775 0.82326
 O303 O 0.71452 0.72725 0.81826
 O304 O 0.71480 0.79228 0.81353
 O305 O 0.80888 0.69011 0.79019
 O306 O 0.68839 0.82161 0.77958
 O307 O 0.77852 0.72425 0.81930
 O308 O 0.68344 0.69595 0.78808
 O309 O 0.70465 0.75676 0.77135
 O310 O 0.74720 0.70708 0.77498
 O311 O 0.75277 0.80164 0.76971
 O312 O 0.79394 0.75374 0.77364
 Zr313 Zr 0.75364 0.74876 0.70285
 Zr314 Zr 0.71046 0.79999 0.74505
 Zr315 Zr 0.79112 0.70519 0.75246
 Zr316 Zr 0.70503 0.70822 0.75079
 O317 O 0.84431 0.70676 0.75301
 O318 O 0.65289 0.71974 0.74818
 O319 O 0.74884 0.70315 0.72760
 O320 O 0.70819 0.75139 0.72413
 O321 O 0.75448 0.79855 0.72218
 O322 O 0.79668 0.74850 0.72655
 C323 C 0.69078 0.70560 0.81185
 C324 C 0.80071 0.70022 0.81369
 C325 C 0.69337 0.81500 0.80429
 O326 O 0.65752 0.79794 0.74111
 O327 O 0.69656 0.81903 0.70725
 O328 O 0.72585 0.78370 0.67827
 C329 C 0.70506 0.80916 0.68378
 O330 O 0.81788 0.81989 0.78146
 Zr331 Zr 0.79652 0.79709 0.74678
 O332 O 0.78772 0.77777 0.67934
 O333 O 0.71707 0.85650 0.74474
 O334 O 0.79043 0.85363 0.74330
 O335 O 0.84918 0.78798 0.74755
 O336 O 0.81601 0.81218 0.70938
 C337 C 0.80979 0.80142 0.68568
 O338 O 0.72625 0.71980 0.67396
 O339 O 0.78410 0.64894 0.75618
 O340 O 0.78388 0.70998 0.68398
 O341 O 0.80880 0.67926 0.71798
 O342 O 0.70839 0.65166 0.75602
 O343 O 0.68697 0.68142 0.71650
 C344 C 0.80347 0.68545 0.69326
 H345 H 0.74611 0.68616 0.78713
 H346 H 0.68864 0.75082 0.71202
 H347 H 0.81784 0.74589 0.71640
 H348 H 0.75343 0.82420 0.78011
 H349 H 0.64060 0.69793 0.75405
 H350 H 0.64946 0.82318 0.74047
 H351 H 0.69443 0.86727 0.74251
 H352 H 0.81261 0.86385 0.73843
 H353 H 0.68551 0.64278 0.76027
 H354 H 0.80675 0.63813 0.75820
 H355 H 0.85217 0.68146 0.75400
 H356 H 0.86031 0.81077 0.74227
 H357 H 0.66677 0.66717 0.72117
 H358 H 0.73578 0.72623 0.65640
 H359 H 0.76439 0.78120 0.84085
 H360 H 0.83326 0.83969 0.77639
 Zr361 Zr 1.25069 0.75151 0.20591
 O362 O 1.22274 0.78127 0.17767
 O363 O 1.28555 0.72471 0.18184
 O364 O 1.28153 0.78914 0.18641
 O365 O 1.19315 0.68196 0.21155
 O366 O 1.30759 0.81964 0.21984
 O367 O 1.22113 0.71766 0.18191
 O368 O 1.31915 0.69565 0.21169
 O369 O 1.29464 0.75406 0.22855
 O370 O 1.25455 0.70212 0.22561
 O371 O 1.24461 0.79637 0.23082
 O372 O 1.20564 0.74632 0.22768
 Zr373 Zr 1.24807 0.74346 0.29776
 Zr374 Zr 1.28760 0.79693 0.25481
 Zr375 Zr 1.21135 0.69794 0.24890
 Zr376 Zr 1.29719 0.70554 0.24918
 O377 O 1.15813 0.69652 0.24908
 O378 O 1.34886 0.71923 0.25156
 O379 O 1.25430 0.69810 0.27309
 O380 O 1.29277 0.74850 0.27579
 O381 O 1.24431 0.79314 0.27832
 O382 O 1.20447 0.74099 0.27475
 C383 C 1.31099 0.70516 0.18801
 C384 C 1.20009 0.69262 0.18791
 C385 C 1.30216 0.81284 0.19524
 O386 O 1.34068 0.79723 0.25783
 O387 O 1.30133 0.81680 0.29236
 O388 O 1.27468 0.77981 0.32188
 C389 C 1.29388 0.80652 0.31600
 O390 O 1.17814 0.81052 0.21995
 Zr391 Zr 1.20174 0.78952 0.25443
 O392 O 1.21363 0.77089 0.32182
 O393 O 1.27879 0.85312 0.25507
 O394 O 1.20501 0.84635 0.25726
 O395 O 1.14951 0.77800 0.25509
 O396 O 1.18306 0.80394 0.29217
 C397 C 1.19053 0.79362 0.31578
 O398 O 1.27755 0.71557 0.32606
 O399 O 1.22123 0.64217 0.24538
 O400 O 1.21973 0.70359 0.31727
 O401 O 1.19538 0.67157 0.28379
 O402 O 1.29648 0.64899 0.24349
 O403 O 1.31686 0.67937 0.28328
 C404 C 1.20082 0.67830 0.30840
 H405 H 1.25643 0.68141 0.21339
 H406 H 1.31261 0.74896 0.28761
 H407 H 1.18370 0.73747 0.28525
 H408 H 1.24258 0.81888 0.22040
 H409 H 1.36194 0.69798 0.24566
 H410 H 1.34770 0.82280 0.25837
 H411 H 1.30105 0.86485 0.25685
 H412 H 1.18246 0.85534 0.26240
 H413 H 1.31965 0.64152 0.23876
 H414 H 1.19912 0.63011 0.24371
 H415 H 1.15151 0.67082 0.24833
 H416 H 1.13764 0.80037 0.26033
 H417 H 1.33720 0.66551 0.27834
 H418 H 1.26836 0.72152 0.34380
 H419 H 1.23191 0.77521 0.15994
 H420 H 1.16200 0.82960 0.22509
 Zr421 Zr 0.74467 1.24636 0.20404
 O422 O 0.77050 1.21740 0.17418
 O423 O 0.71018 1.27662 0.18182
 O424 O 0.71182 1.21108 0.18426
 O425 O 0.80461 1.31332 0.21034
 O426 O 0.68661 1.17907 0.21749
 O427 O 0.77462 1.28048 0.18032
 O428 O 0.67873 1.30508 0.21336
 O429 O 0.70153 1.24364 0.22773
 O430 O 0.74301 1.29447 0.22540
 O431 O 0.75060 1.19986 0.22746
 O432 O 0.79062 1.24873 0.22483
 Zr433 Zr 0.75101 1.24848 0.29606
 Zr434 Zr 0.70854 1.19898 0.25253
 Zr435 Zr 0.78711 1.29585 0.24763
 Zr436 Zr 0.70111 1.29085 0.24991
 O437 O 0.84034 1.29529 0.24682
 O438 O 0.64927 1.27789 0.25251
 O439 O 0.74505 1.29544 0.27287
 O440 O 0.70544 1.24616 0.27507
 O441 O 0.75273 1.19997 0.27509
 O442 O 0.79380 1.25116 0.27206
 C443 C 0.68601 1.29727 0.18920
 C444 C 0.79664 1.30434 0.18657
 C445 C 0.69106 1.18729 0.19297
 O446 O 0.65562 1.19964 0.25699
 O447 O 0.69537 1.17716 0.28973
 O448 O 0.72415 1.21136 0.31963
 C449 C 0.70383 1.18579 0.31346
 O450 O 0.81606 1.18354 0.21472
 Zr451 Zr 0.79447 1.20386 0.25021
 O452 O 0.78591 1.21882 0.31822
 O453 O 0.71639 1.14267 0.25085
 O454 O 0.78942 1.14707 0.25184
 O455 O 0.84688 1.21434 0.24933
 O456 O 0.81474 1.18689 0.28692
 C457 C 0.80845 1.19610 0.31098
 O458 O 0.72338 1.27487 0.32621
 O459 O 0.77905 1.35211 0.24560
 O460 O 0.78050 1.28689 0.31599
 O461 O 0.80440 1.32015 0.28281
 O462 O 0.70319 1.34773 0.24660
 O463 O 0.68287 1.31492 0.28528
 C464 C 0.79935 1.31249 0.30736
 H465 H 0.74144 1.31607 0.21395
 H466 H 0.68601 1.24552 0.28735
 H467 H 0.81499 1.25365 0.28216
 H468 H 0.75164 1.17801 0.21630
 H469 H 0.63641 1.29980 0.24767
 H470 H 0.64804 1.17423 0.25667
 H471 H 0.69401 1.13125 0.25280
 H472 H 0.81178 1.13695 0.25628
 H473 H 0.68002 1.35635 0.24307
 H474 H 0.80150 1.36343 0.24384
 H475 H 0.84776 1.32076 0.24662
 H476 H 0.85859 1.19152 0.25368
 H477 H 0.66226 1.32890 0.28133
 H478 H 0.73326 1.26748 0.34343
 H479 H 0.76094 1.22496 0.15690
 H480 H 0.83186 1.16378 0.21907
 O481 O 0.45948 1.06485 0.01853
 O482 O 0.53563 0.92770 0.01973
 O483 O 0.43312 0.95469 0.01705
 O484 O 0.56216 1.03794 0.01814
 O485 O 0.47882 0.93505 0.03292
 O486 O 0.51580 1.05808 0.03263
 O487 O 0.55473 0.97774 0.03364
 O488 O 0.43995 1.01491 0.03248
 C489 C 0.44436 1.04734 0.03599
 C490 C 0.55066 0.94525 0.03713
 C491 C 0.44836 0.93957 0.03545
 C492 C 0.54619 1.05387 0.03581
 O493 O 0.53708 1.06420 -0.01891
 O494 O 0.45925 0.92820 -0.01917
 O495 O 0.43418 1.03880 -0.01809
 O496 O 0.56209 0.95359 -0.01679
 O497 O 0.51607 0.93436 -0.03230
 O498 O 0.48054 1.05784 -0.03322
 O499 O 0.55627 1.01392 -0.03241
 O500 O 0.44085 0.97848 -0.03343
 Co501 Co 0.49817 1.05501 -0.00025
 Co502 Co 0.49747 0.93756 0.00028
 Co503 Co 0.44296 0.99667 -0.00045
 Co504 Co 0.55283 0.99584 0.00059
 O505 O 0.49787 0.99628 0.00006
 C506 C 0.55279 1.04649 -0.03589
 C507 C 0.44450 0.94589 -0.03672
 C508 C 0.45011 1.05371 -0.03624
 C509 C 0.54653 0.93857 -0.03504
 O510 O 0.98133 0.55682 0.53415
 O511 O 1.01698 0.43299 0.53070
 O512 O 0.94131 0.47877 0.53298
 O513 O 1.05719 0.51151 0.53355
 O514 O 0.96013 0.42878 0.51825
 O515 O 1.03804 0.56269 0.52143
 O516 O 1.06290 0.45200 0.51512
 O517 O 0.93512 0.53977 0.51796
 C518 C 0.95073 0.55370 0.53656
 C519 C 1.04748 0.43675 0.53332
 C520 C 0.94552 0.44615 0.53606
 C521 C 1.05293 0.54378 0.53824
 O522 O 1.01881 0.55941 0.46888
 O523 O 0.97877 0.43734 0.46576
 O524 O 0.94155 0.51697 0.46748
 O525 O 1.05648 0.47993 0.46615
 O526 O 1.03566 0.42935 0.47791
 O527 O 0.96219 0.56611 0.48199
 O528 O 1.06427 0.53894 0.48433
 O529 O 0.93353 0.45630 0.48264
 Co530 Co 0.99999 0.55518 0.50145
 Co531 Co 0.99801 0.43817 0.49831
 Co532 Co 0.94396 0.49784 0.50023
 Co533 Co 1.05422 0.49570 0.49983
 O534 O 0.99905 0.49672 0.49995
 C535 C 1.04924 0.55480 0.46623
 C536 C 0.94825 0.44191 0.46374
 C537 C 0.94680 0.54938 0.46435
 C538 C 1.05113 0.44797 0.46121
 O539 O 1.02180 0.45685 0.04981
 O540 O 1.02058 0.54319 -0.05093
 O541 O 1.02291 0.43238 -0.03127
 O542 O 1.02458 0.56776 0.03016
 O543 O 1.04060 0.48265 -0.04620
 O544 O 1.04206 0.51722 0.04479
 O545 O 1.04112 0.56195 -0.01490
 O546 O 1.04072 0.43786 0.01326
 C547 C 1.04447 0.44130 0.03731
 C548 C 1.04386 0.55847 -0.03908
 C549 C 1.04458 0.44991 -0.04372
 C550 C 1.04615 0.54995 0.04249
 O551 O 0.97836 0.54151 0.05101
 O552 O 0.97654 0.45914 -0.05117
 O553 O 0.97482 0.43146 0.02956
 O554 O 0.97472 0.56923 -0.02963
 O555 O 0.95670 0.51947 -0.04503
 O556 O 0.95788 0.48145 0.04533
 O557 O 0.95822 0.56204 0.01526
 O558 O 0.95695 0.43909 -0.01507
 Co559 Co 0.99995 0.49934 0.04294
 Co560 Co 0.99867 0.50102 -0.04353
 Co561 Co 0.99886 0.44150 -0.00082
 Co562 Co 0.99963 0.55894 0.00017
 O563 O 0.99928 0.50020 -0.00030
 C564 C 0.95532 0.55762 0.03934
 C565 C 0.95366 0.44329 -0.03914
 C566 C 0.95362 0.44884 0.04260
 C567 C 0.95292 0.55216 -0.04218
 O568 O 0.53952 0.98173 0.54596
 O569 O 0.53996 1.01346 0.45466
 O570 O 0.53674 0.93618 0.48455
 O571 O 0.53881 1.05898 0.51663
 O572 O 0.51494 0.95428 0.44909
 O573 O 0.51629 1.04168 0.55208
 O574 O 0.52582 1.06439 0.47146
 O575 O 0.52350 0.93131 0.52955
 C576 C 0.54472 0.94932 0.54224
 C577 C 0.54608 1.04573 0.45818
 C578 C 0.53842 0.93870 0.46033
 C579 C 0.54003 1.05693 0.54089
 O580 O 0.45457 1.01519 0.54604
 O581 O 0.45400 0.98311 0.45505
 O582 O 0.45516 0.93795 0.51697
 O583 O 0.45739 1.06071 0.48415
 O584 O 0.47908 1.04222 0.44875
 O585 O 0.47767 0.95519 0.55231
 O586 O 0.47049 1.06552 0.52916
 O587 O 0.46831 0.93223 0.47194
 Co588 Co 0.49702 0.99842 0.54404
 Co589 Co 0.49699 0.99826 0.45692
 Co590 Co 0.49602 0.94025 0.50073
 Co591 Co 0.49804 1.05653 0.50037
 O592 O 0.49702 0.99836 0.50051
 C593 C 0.44937 1.04759 0.54213
 C594 C 0.44786 0.95089 0.45887
 C595 C 0.45381 0.94014 0.54122
 C596 C 0.45594 1.05849 0.45992
 O597 O 1.06736 1.02913 0.46965
 O598 O 0.94040 1.02912 0.52918
 O599 O 0.96445 1.02347 0.44857
 O600 O 1.04354 1.02550 0.55035
 O601 O 0.94622 1.04577 0.48424
 O602 O 1.06122 1.04674 0.51408
 O603 O 0.98720 1.04773 0.54473
 O604 O 1.02029 1.04685 0.45404
 C605 C 1.05067 1.05197 0.45704
 C606 C 0.95662 1.05196 0.54208
 C607 C 0.94957 1.04822 0.46011
 C608 C 1.05863 1.04963 0.53820
 O609 O 1.06756 0.97572 0.52974
 O610 O 0.94098 0.97408 0.47004
 O611 O 1.04418 0.97926 0.44920
 O612 O 0.96445 0.97997 0.55066
 O613 O 0.94659 0.95758 0.51494
 O614 O 1.06167 0.95773 0.48530
 O615 O 1.02072 0.95754 0.54549
 O616 O 0.98822 0.95619 0.45472
 Co617 Co 1.05870 1.00229 0.49966
 Co618 Co 0.94933 1.00170 0.49960
 Co619 Co 1.00429 1.00151 0.45642
 Co620 Co 1.00402 1.00263 0.54297
 O621 O 1.00408 1.00205 0.49967
 C622 C 1.05117 0.95278 0.54245
 C623 C 0.95777 0.95125 0.45754
 C624 C 1.05817 0.95437 0.46129
 C625 C 0.95007 0.95499 0.53905
 O626 O 0.56251 0.53110 -0.02890
 O627 O 0.43548 0.53269 0.02979
 O628 O 0.45969 0.52984 -0.05076
 O629 O 0.53799 0.52398 0.05159
 O630 O 0.44236 0.55112 -0.01453
 O631 O 0.55696 0.54650 0.01613
 O632 O 0.48270 0.54874 0.04596
 O633 O 0.51621 0.55108 -0.04457
 C634 C 0.54676 0.55478 -0.04140
 C635 C 0.45254 0.55488 0.04258
 C636 C 0.44560 0.55459 -0.03859
 C637 C 0.55402 0.54818 0.04032
 O638 O 0.56063 0.47451 0.02950
 O639 O 0.43500 0.48027 -0.03058
 O640 O 0.53826 0.48309 -0.05132
 O641 O 0.45742 0.48169 0.05021
 O642 O 0.43988 0.46158 0.01373
 O643 O 0.55501 0.45935 -0.01566
 O644 O 0.51318 0.45735 0.04495
 O645 O 0.48183 0.46152 -0.04606
 Co646 Co 0.55300 0.50302 0.00023
 Co647 Co 0.44387 0.50626 -0.00036
 Co648 Co 0.49891 0.50621 -0.04330
 Co649 Co 0.49783 0.50312 0.04333
 O650 O 0.49841 0.50465 -0.00002
 C651 C 0.54366 0.45214 0.04234
 C652 C 0.45135 0.45715 -0.04312
 C653 C 0.55267 0.45784 -0.03989
 C654 C 0.44272 0.45769 0.03777
 C655 C 0.39611 1.09524 0.09799
 C656 C 0.40541 1.12975 0.10724
 C657 C 0.38650 1.14637 0.12775
 C658 C 0.35853 1.12824 0.13896
 C659 C 0.34962 1.09346 0.13002
 C660 C 0.36840 1.07695 0.10939
 C661 C 0.35871 1.04236 0.10049
 C662 C 0.33130 1.02459 0.11169
 C663 C 0.31310 1.04064 0.13201
 C664 C 0.32201 1.07470 0.14113
 C665 C 0.39600 1.18112 0.13645
 C666 C 0.42344 1.19887 0.12525
 C667 C 0.44200 1.18254 0.10525
 C668 C 0.43321 1.14837 0.09627
 C669 C 0.33835 1.14600 0.15900
 C670 C 0.32185 1.16200 0.17517
 C671 C 0.41431 1.07892 0.07622
 C672 C 0.42858 1.06490 0.05790
 H673 H 0.37225 1.02861 0.08489
 H674 H 0.32434 0.99809 0.10471
 H675 H 0.29195 1.02663 0.14075
 H676 H 0.30707 1.08612 0.15695
 H677 H 0.38240 1.19495 0.15198
 H678 H 0.43035 1.22541 0.13215
 H679 H 0.46331 1.19641 0.09663
 H680 H 0.44840 1.13675 0.08067
 C681 C 0.89849 0.59977 0.59745
 C682 C 0.89213 0.58098 0.62137
 C683 C 0.87207 0.59717 0.64143
 C684 C 0.85871 0.63211 0.63749
 C685 C 0.86554 0.65113 0.61373
 C686 C 0.88547 0.63491 0.59365
 C687 C 0.89198 0.65447 0.57009
 C688 C 0.87925 0.68911 0.56650
 C689 C 0.85979 0.70500 0.58614
 C690 C 0.85289 0.68636 0.60950
 C691 C 0.86594 0.57785 0.66513
 C692 C 0.87948 0.54361 0.66901
 C693 C 0.89930 0.52790 0.64949
 C694 C 0.90549 0.54617 0.62584
 C695 C 0.83854 0.64908 0.65795
 C696 C 0.82215 0.66473 0.67440
 C697 C 0.91780 0.58286 0.57648
 C698 C 0.93323 0.56932 0.55852
 H699 H 0.90706 0.64332 0.55424
 H700 H 0.88453 0.70369 0.54838
 H701 H 0.84998 0.73192 0.58328
 H702 H 0.83760 0.69991 0.62416
 H703 H 0.85072 0.58902 0.68089
 H704 H 0.87457 0.52920 0.68727
 H705 H 0.90971 0.50128 0.65259
 H706 H 0.92089 0.53276 0.61117
 C707 C 0.60189 0.89881 0.09827
 C708 C 0.62653 0.92001 0.11114
 C709 C 0.64656 0.90463 0.13152
 C710 C 0.64197 0.86814 0.13873
 C711 C 0.61710 0.84705 0.12605
 C712 C 0.59699 0.86246 0.10574
 C713 C 0.57245 0.84084 0.09320
 C714 C 0.56784 0.80500 0.10059
 C715 C 0.58745 0.78994 0.12051
 C716 C 0.61189 0.81055 0.13311
 C717 C 0.67099 0.92628 0.14415
 C718 C 0.67570 0.96207 0.13669
 C719 C 0.65636 0.97702 0.11657
 C720 C 0.63190 0.95643 0.10396
 C721 C 0.66317 0.85189 0.15879
 C722 C 0.68024 0.83703 0.17518
 C723 C 0.58239 0.91422 0.07682
 C724 C 0.56716 0.92778 0.05878
 H725 H 0.55660 0.85136 0.07759
 H726 H 0.54898 0.78884 0.09079
 H727 H 0.58380 0.76208 0.12617
 H728 H 0.62659 0.79754 0.14841
 H729 H 0.68669 0.91579 0.15987
 H730 H 0.69448 0.97827 0.14657
 H731 H 0.66011 1.00483 0.11085
 H732 H 0.61729 0.96939 0.08859
 C733 C 1.10037 0.39389 0.59520
 C734 C 1.11264 0.35818 0.59344
 C735 C 1.13359 0.34415 0.61378
 C736 C 1.14197 0.36585 0.63585
 C737 C 1.12916 0.40132 0.63786
 C738 C 1.10824 0.41537 0.61748
 C739 C 1.09564 0.45086 0.61996
 C740 C 1.10337 0.47180 0.64199
 C741 C 1.12404 0.45816 0.66180
 C742 C 1.13684 0.42332 0.65987
 C743 C 1.14583 0.30846 0.61143
 C744 C 1.13763 0.28730 0.58963
 C745 C 1.11693 0.30093 0.56986
 C746 C 1.10451 0.33595 0.57163
 C747 C 1.16331 0.35123 0.65658
 C748 C 1.18058 0.33739 0.67336
 C749 C 1.08071 0.40890 0.57363
 C750 C 1.06510 0.42145 0.55537
 H751 H 1.07962 0.46274 0.60499
 H752 H 1.09348 0.49888 0.64359
 H753 H 1.13019 0.47467 0.67875
 H754 H 1.15275 0.41383 0.67580
 H755 H 1.16189 0.29652 0.62635
 H756 H 1.14732 0.26013 0.58811
 H757 H 1.11047 0.28431 0.55303
 H758 H 1.08846 0.34533 0.55575
 C759 C 0.60649 1.09518 -0.09476
 C760 C 0.60339 1.13264 -0.09937
 C761 C 0.62288 1.14928 -0.11954
 C762 C 0.64529 1.12832 -0.13498
 C763 C 0.64877 1.09098 -0.13010
 C764 C 0.62944 1.07437 -0.10980
 C765 C 0.63385 1.03711 -0.10487
 C766 C 0.65674 1.01690 -0.11958
 C767 C 0.67528 1.03306 -0.13970
 C768 C 0.67144 1.06967 -0.14499
 C769 C 0.61958 1.18687 -0.12367
 C770 C 0.59778 1.20739 -0.10821
 C771 C 0.57872 1.19109 -0.08847
 C772 C 0.58134 1.15414 -0.08404
 C773 C 0.66496 1.14553 -0.15557
 C774 C 0.68069 1.16129 -0.17234
 C775 C 0.58660 1.07821 -0.07419
 C776 C 0.57062 1.06396 -0.05686
 H777 H 0.61982 1.02324 -0.08957
 H778 H 0.65991 0.98847 -0.11548
 H779 H 0.69282 1.01716 -0.15121
 H780 H 0.68652 1.08111 -0.16076
 H781 H 0.63388 1.20085 -0.13875
 H782 H 0.59574 1.23610 -0.11152
 H783 H 0.56185 1.20716 -0.07648
 H784 H 0.56606 1.14270 -0.06840
 C785 C 1.10382 0.59803 0.40540
 C786 C 1.11826 0.63256 0.40869
 C787 C 1.13914 0.64719 0.38851
 C788 C 1.14551 0.62714 0.36519
 C789 C 1.13086 0.59274 0.36181
 C790 C 1.10981 0.57820 0.38194
 C791 C 1.09507 0.54396 0.37799
 C792 C 1.10095 0.52466 0.35480
 C793 C 1.12180 0.53873 0.33523
 C794 C 1.13665 0.57239 0.33859
 C795 C 1.15315 0.68188 0.39219
 C796 C 1.14667 0.70154 0.41512
 C797 C 1.12630 0.68719 0.43486
 C798 C 1.11222 0.65311 0.43181
 C799 C 1.16610 0.64280 0.34441
 C800 C 1.18254 0.65777 0.32764
 C801 C 1.08351 0.58268 0.42646
 C802 C 1.06735 0.57003 0.44440
 H803 H 1.07881 0.53182 0.39271
 H804 H 1.08945 0.49852 0.35209
 H805 H 1.12647 0.52351 0.31734
 H806 H 1.15262 0.58229 0.32281
 H807 H 1.16920 0.69423 0.37743
 H808 H 1.15753 0.72803 0.41757
 H809 H 1.12132 0.70257 0.45263
 H810 H 1.09647 0.64316 0.44771
 C811 C 0.39324 0.89895 -0.09754
 C812 C 0.38368 0.86230 -0.09615
 C813 C 0.36318 0.84730 -0.11633
 C814 C 0.35237 0.86908 -0.13778
 C815 C 0.36225 0.90561 -0.13933
 C816 C 0.38275 0.92062 -0.11914
 C817 C 0.39218 0.95729 -0.12103
 C818 C 0.38168 0.97849 -0.14228
 C819 C 0.36167 0.96378 -0.16204
 C820 C 0.35202 0.92775 -0.16070
 C821 C 0.35387 0.81057 -0.11448
 C822 C 0.36450 0.78931 -0.09331
 C823 C 0.38446 0.80403 -0.07354
 C824 C 0.39405 0.84007 -0.07485
 C825 C 0.33144 0.85348 -0.15827
 C826 C 0.31461 0.83875 -0.17484
 C827 C 0.41267 0.91476 -0.07625
 C828 C 0.42787 0.92850 -0.05831
 H829 H 0.40776 0.96993 -0.10617
 H830 H 0.38909 1.00648 -0.14341
 H831 H 0.35357 0.98038 -0.17849
 H832 H 0.33646 0.91748 -0.17654
 H833 H 0.33831 0.79788 -0.12931
 H834 H 0.35718 0.76127 -0.09224
 H835 H 0.39258 0.78743 -0.05709
 H836 H 0.40972 0.85025 -0.05904
 C837 C 0.89190 0.40013 0.40352
 C838 C 0.90075 0.40451 0.37655
 C839 C 0.88077 0.38836 0.35649
 C840 C 0.85205 0.36795 0.36353
 C841 C 0.84271 0.36435 0.39048
 C842 C 0.86266 0.38051 0.41052
 C843 C 0.85280 0.37647 0.43733
 C844 C 0.82409 0.35702 0.44412
 C845 C 0.80465 0.34115 0.42451
 C846 C 0.81371 0.34470 0.39797
 C847 C 0.89022 0.39295 0.32966
 C848 C 0.91859 0.41295 0.32284
 C849 C 0.93809 0.42878 0.34245
 C850 C 0.92940 0.42469 0.36903
 C851 C 0.83283 0.34948 0.34324
 C852 C 0.81722 0.33318 0.32670
 C853 C 0.91289 0.41537 0.42417
 C854 C 0.92962 0.42760 0.44190
 H855 H 0.86707 0.38835 0.45330
 H856 H 0.81690 0.35427 0.46471
 H857 H 0.78238 0.32605 0.42988
 H858 H 0.79769 0.33199 0.38344
 H859 H 0.87577 0.38125 0.31371
 H860 H 0.92547 0.41617 0.30222
 H861 H 0.96008 0.44431 0.33704
 H862 H 0.94531 0.43752 0.38358
 C863 C 1.11807 0.39121 0.08061
 C864 C 1.11635 0.35341 0.08413
 C865 C 1.13706 0.33622 0.10333
 C866 C 1.15951 0.35688 0.11886
 C867 C 1.16312 0.39422 0.11386
 C868 C 1.14225 0.41146 0.09475
 C869 C 1.14605 0.44887 0.09035
 C870 C 1.17019 0.46858 0.10406
 C871 C 1.19055 0.45176 0.12273
 C872 C 1.18710 0.41502 0.12772
 C873 C 1.13452 0.29847 0.10670
 C874 C 1.11239 0.27825 0.09140
 C875 C 1.09224 0.29504 0.07258
 C876 C 1.09401 0.33219 0.06897
 C877 C 1.17734 0.33998 0.14081
 C878 C 1.19093 0.32539 0.15936
 C879 C 1.09340 0.40934 0.06395
 C880 C 1.07168 0.42404 0.05115
 H881 H 1.13072 0.46314 0.07606
 H882 H 1.17308 0.49708 0.10020
 H883 H 1.20917 0.46725 0.13337
 H884 H 1.20364 0.40304 0.14229
 H885 H 1.14978 0.28416 0.12100
 H886 H 1.11091 0.24938 0.09414
 H887 H 1.07517 0.27919 0.06069
 H888 H 1.07793 0.34403 0.05402
 C889 C 0.61693 0.89750 0.58534
 C890 C 0.64033 0.91711 0.60070
 C891 C 0.66067 0.89890 0.61961
 C892 C 0.65758 0.86118 0.62293
 C893 C 0.63546 0.84135 0.60657
 C894 C 0.61506 0.85957 0.58773
 C895 C 0.59274 0.83924 0.57187
 C896 C 0.59067 0.80196 0.57455
 C897 C 0.61064 0.78413 0.59297
 C898 C 0.63281 0.80346 0.60885
 C899 C 0.68348 0.91913 0.63506
 C900 C 0.68630 0.95628 0.63178
 C901 C 0.66656 0.97405 0.61317
 C902 C 0.64366 0.95485 0.59785
 C903 C 0.67562 0.84301 0.64408
 C904 C 0.68956 0.82767 0.66205
 C905 C 0.59289 0.91642 0.56875
 C906 C 0.57158 0.93165 0.55599
 H907 H 0.57681 0.85190 0.55719
 H908 H 0.57349 0.78681 0.56226
 H909 H 0.60897 0.75517 0.59496
 H910 H 0.64789 0.78838 0.62284
 H911 H 0.69945 0.90644 0.64970
 H912 H 0.70395 0.97135 0.64370
 H913 H 0.66897 1.00287 0.61061
 H914 H 0.62881 0.96984 0.58364
 C915 C 1.11509 0.60525 -0.08663
 C916 C 1.12820 0.64004 -0.08177
 C917 C 1.14790 0.65769 -0.10147
 C918 C 1.15437 0.64048 -0.12598
 C919 C 1.14271 0.60493 -0.13027
 C920 C 1.12306 0.58729 -0.11056
 C921 C 1.11144 0.55191 -0.11548
 C922 C 1.11902 0.53443 -0.13914
 C923 C 1.13832 0.55160 -0.15834
 C924 C 1.15002 0.58647 -0.15410
 C925 C 1.16048 0.69254 -0.09616
 C926 C 1.15393 0.70944 -0.07207
 C927 C 1.13463 0.69223 -0.05287
 C928 C 1.12180 0.65794 -0.05758
 C929 C 1.17169 0.65980 -0.14716
 C930 C 1.18527 0.67581 -0.16513
 C931 C 1.09150 0.58892 -0.06804
 C932 C 1.07055 0.57520 -0.05390
 H933 H 1.09659 0.53729 -0.10105
 H934 H 1.11001 0.50733 -0.14252
 H935 H 1.14427 0.53781 -0.17662
 H936 H 1.16494 0.59870 -0.16962
 H937 H 1.17564 0.70699 -0.11047
 H938 H 1.16390 0.73604 -0.06827
 H939 H 1.12958 0.70549 -0.03421
 H940 H 1.10704 0.64554 -0.04202
 C941 C 0.61662 1.09620 0.41235
 C942 C 0.61347 1.13388 0.40879
 C943 C 0.63341 1.15181 0.38946
 C944 C 0.65644 1.13200 0.37377
 C945 C 0.66058 1.09455 0.37810
 C946 C 0.64063 1.07660 0.39746
 C947 C 0.64505 1.03914 0.40129
 C948 C 0.66867 1.01997 0.38654
 C949 C 0.68806 1.03748 0.36755
 C950 C 0.68414 1.07434 0.36326
 C951 C 0.62947 1.18944 0.38608
 C952 C 0.60653 1.20878 0.40136
 C953 C 0.58704 1.19124 0.42024
 C954 C 0.59035 1.15423 0.42400
 C955 C 0.67464 1.15006 0.35255
 C956 C 0.68857 1.16594 0.33477
 C957 C 0.59340 1.07749 0.42987
 C958 C 0.57262 1.06267 0.44347
 H959 H 0.63049 1.02437 0.41581
 H960 H 0.67190 0.99136 0.38983
 H961 H 0.70631 1.02243 0.35610
 H962 H 0.69987 1.08682 0.34835
 H963 H 0.64412 1.20434 0.37169
 H964 H 0.60390 1.23754 0.39852
 H965 H 0.56927 1.20638 0.43208
 H966 H 0.57472 1.14185 0.43902
 C967 C 0.88389 0.60460 0.08650
 C968 C 0.87362 0.58568 0.10952
 C969 C 0.85395 0.60337 0.12915
 C970 C 0.84458 0.63988 0.12566
 C971 C 0.85320 0.65812 0.10193
 C972 C 0.87290 0.64044 0.08231
 C973 C 0.88142 0.65932 0.05888
 C974 C 0.87070 0.69465 0.05487
 C975 C 0.85144 0.71194 0.07403
 C976 C 0.84278 0.69404 0.09735
 C977 C 0.84432 0.58396 0.15210
 C978 C 0.85371 0.54808 0.15551
 C979 C 0.87289 0.53081 0.13632
 C980 C 0.88286 0.54927 0.11358
 C981 C 0.82738 0.65900 0.14692
 C982 C 0.81386 0.67492 0.16487
 C983 C 0.90769 0.58805 0.06824
 C984 C 0.92872 0.57426 0.05426
 H985 H 0.89621 0.64690 0.04337
 H986 H 0.87734 0.70867 0.03678
 H987 H 0.84313 0.73936 0.07078
 H988 H 0.82767 0.70856 0.11164
 H989 H 0.82929 0.59621 0.16753
 H990 H 0.84601 0.53359 0.17313
 H991 H 0.88003 0.50294 0.13905
 H992 H 0.89763 0.53460 0.09916
 C993 C 0.37787 1.09876 0.58623
 C994 C 0.37253 1.13622 0.58326
 C995 C 0.35360 1.15531 0.60257
 C996 C 0.34010 1.13678 0.62469
 C997 C 0.34355 1.09891 0.62670
 C998 C 0.36252 1.07984 0.60740
 C999 C 0.36607 1.04207 0.60998
 C1000 C 0.35111 1.02362 0.63097
 C1001 C 0.33255 1.04225 0.64984
 C1002 C 0.32876 1.07949 0.64786
 C1003 C 0.34901 1.19287 0.59938
 C1004 C 0.36266 1.21100 0.57770
 C1005 C 0.38117 1.19230 0.55882
 C1006 C 0.38617 1.15533 0.56149
 C1007 C 0.32436 1.15691 0.64601
 C1008 C 0.31208 1.17386 0.66392
 C1009 C 0.40158 1.08036 0.56908
 C1010 C 0.42269 1.06531 0.55603
 H1011 H 0.38019 1.02640 0.59573
 H1012 H 0.35388 0.99470 0.63255
 H1013 H 0.32100 1.02777 0.66610
 H1014 H 0.31399 1.09282 0.66296
 H1015 H 0.33470 1.20855 0.61350
 H1016 H 0.35885 1.23972 0.57553
 H1017 H 0.39171 1.20650 0.54200
 H1018 H 0.40062 1.14189 0.54624
 C1019 C 0.88340 0.39753 -0.08749
 C1020 C 0.85933 0.37152 -0.07967
 C1021 C 0.83914 0.35417 -0.09910
 C1022 C 0.84317 0.36289 -0.12625
 C1023 C 0.86636 0.38990 -0.13396
 C1024 C 0.88652 0.40722 -0.11456
 C1025 C 0.90987 0.43374 -0.12287
 C1026 C 0.91325 0.44281 -0.14952
 C1027 C 0.89334 0.42613 -0.16844
 C1028 C 0.87020 0.39989 -0.16088
 C1029 C 0.81545 0.32809 -0.09079
 C1030 C 0.81179 0.31936 -0.06408
 C1031 C 0.83155 0.33627 -0.04512
 C1032 C 0.85511 0.36208 -0.05272
 C1033 C 0.82475 0.34315 -0.14645
 C1034 C 0.81060 0.32682 -0.16383
 C1035 C 0.90628 0.41319 -0.06821
 C1036 C 0.92696 0.42663 -0.05381
 H1037 H 0.92576 0.44776 -0.10892
 H1038 H 0.93150 0.46282 -0.15552
 H1039 H 0.89591 0.43348 -0.18910
 H1040 H 0.85539 0.38758 -0.17637
 H1041 H 0.79949 0.31428 -0.10482
 H1042 H 0.79354 0.29934 -0.05805
 H1043 H 0.82862 0.32934 -0.02442
 H1044 H 0.86989 0.37457 -0.03728
 C1045 C 0.37604 0.90210 0.41380
 C1046 C 0.36621 0.91935 0.39000
 C1047 C 0.34706 0.90022 0.37090
 C1048 C 0.33774 0.86400 0.37577
 C1049 C 0.34593 0.84747 0.40024
 C1050 C 0.36512 0.86662 0.41932
 C1051 C 0.37336 0.84945 0.44350
 C1052 C 0.36286 0.81436 0.44875
 C1053 C 0.34410 0.79562 0.43009
 C1054 C 0.33572 0.81183 0.40606
 C1055 C 0.33804 0.91785 0.34706
 C1056 C 0.34750 0.95341 0.34229
 C1057 C 0.36618 0.97212 0.36098
 C1058 C 0.37555 0.95540 0.38458
 C1059 C 0.32128 0.84334 0.35511
 C1060 C 0.30842 0.82638 0.33747
 C1061 C 0.39981 0.91969 0.43131
 C1062 C 0.42100 0.93405 0.44466
 H1063 H 0.38778 0.86305 0.45864
 H1064 H 0.36928 0.80166 0.46739
 H1065 H 0.33597 0.76838 0.43427
 H1066 H 0.32107 0.79620 0.39218
 H1067 H 0.32347 0.90442 0.33193
 H1068 H 0.34025 0.96654 0.32400
 H1069 H 0.37341 0.99974 0.35721
 H1070 H 0.38996 0.97112 0.39856
 C1071 C 1.10019 1.12642 0.41208
 C1072 C 1.08256 1.14925 0.39441
 C1073 C 1.10050 1.16894 0.37479
 C1074 C 1.13591 1.16573 0.37309
 C1075 C 1.15370 1.14488 0.39195
 C1076 C 1.13577 1.12512 0.41150
 C1077 C 1.15404 1.10400 0.42991
 C1078 C 1.18905 1.10250 0.42905
 C1079 C 1.20661 1.12190 0.40995
 C1080 C 1.18927 1.14287 0.39155
 C1081 C 1.08236 1.19120 0.35706
 C1082 C 1.04748 1.19425 0.35888
 C1083 C 1.02996 1.17519 0.37819
 C1084 C 1.04715 1.15267 0.39568
 C1085 C 1.15403 1.18219 0.35126
 C1086 C 1.16987 1.19473 0.33311
 C1087 C 1.08186 1.10194 0.42923
 C1088 C 1.06728 1.07995 0.44252
 H1089 H 1.14149 1.08866 0.44525
 H1090 H 1.20263 1.08626 0.44330
 H1091 H 1.23381 1.12073 0.40939
 H1092 H 1.20406 1.15758 0.37715
 H1093 H 1.09494 1.20669 0.34182
 H1094 H 1.03398 1.21160 0.34530
 H1095 H 1.00292 1.17790 0.37965
 H1096 H 1.03246 1.13832 0.41035
 C1097 C 0.60176 0.62214 -0.08793
 C1098 C 0.59170 0.65708 -0.09585
 C1099 C 0.61026 0.67568 -0.11568
 C1100 C 0.63870 0.65913 -0.12739
 C1101 C 0.64959 0.62482 -0.11863
 C1102 C 0.63103 0.60622 -0.09887
 C1103 C 0.64210 0.57166 -0.09069
 C1104 C 0.67075 0.55603 -0.10167
 C1105 C 0.68902 0.57433 -0.12092
 C1106 C 0.67868 0.60831 -0.12939
 C1107 C 0.59964 0.71050 -0.12347
 C1108 C 0.57152 0.72652 -0.11191
 C1109 C 0.55334 0.70829 -0.09254
 C1110 C 0.56317 0.67390 -0.08456
 C1111 C 0.65634 0.67671 -0.14895
 C1112 C 0.67163 0.69028 -0.16697
 C1113 C 0.58108 0.60122 -0.06998
 C1114 C 0.56476 0.58137 -0.05618
 H1115 H 0.62888 0.55640 -0.07567
 H1116 H 0.67883 0.52961 -0.09516
 H1117 H 0.71135 0.56214 -0.12933
 H1118 H 0.69380 0.62148 -0.14438
 H1119 H 0.61306 0.72576 -0.13839
 H1120 H 0.56387 0.75328 -0.11796
 H1121 H 0.53153 0.72086 -0.08362
 H1122 H 0.54834 0.66074 -0.06938
 C1123 C 0.90576 1.11714 0.59308
 C1124 C 0.89867 1.10070 0.61782
 C1125 C 0.87930 1.11939 0.63702
 C1126 C 0.86714 1.15442 0.63141
 C1127 C 0.87476 1.17114 0.60690
 C1128 C 0.89417 1.15242 0.58766
 C1129 C 0.90145 1.16957 0.56328
 C1130 C 0.88989 1.20431 0.55805
 C1131 C 0.87086 1.22260 0.57684
 C1132 C 0.86329 1.20632 0.60103
 C1133 C 0.87239 1.10231 0.66156
 C1134 C 0.88432 1.06779 0.66696
 C1135 C 0.90330 1.04951 0.64818
 C1136 C 0.91046 1.06562 0.62388
 C1137 C 0.84647 1.17271 0.65088
 C1138 C 0.82935 1.18648 0.66775
 C1139 C 0.92426 1.09696 0.57325
 C1140 C 0.93929 1.07779 0.55809
 H1141 H 0.91616 1.15635 0.54809
 H1142 H 0.89573 1.21710 0.53932
 H1143 H 0.86198 1.24959 0.57269
 H1144 H 0.84851 1.22162 0.61507
 H1145 H 0.85775 1.11540 0.67685
 H1146 H 0.87880 1.05517 0.68581
 H1147 H 0.91253 1.02269 0.65246
 H1148 H 0.92537 1.05025 0.60998
 C1149 C 0.40749 0.63049 0.08896
 C1150 C 0.37699 0.64776 0.08210
 C1151 C 0.35847 0.66666 0.10175
 C1152 C 0.37064 0.66803 0.12807
 C1153 C 0.40255 0.65343 0.13432
 C1154 C 0.42107 0.63461 0.11467
 C1155 C 0.45274 0.61976 0.12141
 C1156 C 0.46582 0.62359 0.14683
 C1157 C 0.44768 0.64202 0.16608
 C1158 C 0.41635 0.65674 0.16003
 C1159 C 0.32782 0.68340 0.09459
 C1160 C 0.31595 0.68177 0.06865
 C1161 C 0.33407 0.66324 0.04943
 C1162 C 0.36422 0.64624 0.05600
 C1163 C 0.34952 0.68217 0.14904
 C1164 C 0.33191 0.69286 0.16679
 C1165 C 0.42336 0.60569 0.07068
 C1166 C 0.43662 0.58329 0.05700
 H1167 H 0.46785 0.60534 0.10708
 H1168 H 0.49015 0.61222 0.15161
 H1169 H 0.45796 0.64494 0.18580
 H1170 H 0.40322 0.67095 0.17562
 H1171 H 0.31296 0.69822 0.10887
 H1172 H 0.29257 0.69495 0.06345
 H1173 H 0.32474 0.66206 0.02932
 H1174 H 0.37758 0.63226 0.04040
 C1175 C 1.10072 0.87845 0.58756
 C1176 C 1.13631 0.87899 0.58808
 C1177 C 1.15391 0.85873 0.60754
 C1178 C 1.13579 0.83807 0.62635
 C1179 C 1.10031 0.83574 0.62476
 C1180 C 1.08270 0.85610 0.60534
 C1181 C 1.04718 0.85394 0.60444
 C1182 C 1.02958 0.83206 0.62211
 C1183 C 1.04683 0.81198 0.64099
 C1184 C 1.08180 0.81376 0.64244
 C1185 C 1.18949 0.86005 0.60791
 C1186 C 1.20718 0.88079 0.58956
 C1187 C 1.18995 0.90065 0.57055
 C1188 C 1.15492 0.89987 0.56973
 C1189 C 1.15357 0.82105 0.64812
 C1190 C 1.16899 0.80802 0.66633
 C1191 C 1.08271 0.90310 0.57031
 C1192 C 1.06810 0.92502 0.55698
 H1193 H 1.03271 0.86893 0.59000
 H1194 H 1.00241 0.83067 0.62111
 H1195 H 1.03305 0.79493 0.65462
 H1196 H 1.09415 0.79762 0.65742
 H1197 H 1.20402 0.84497 0.62227
 H1198 H 1.23439 0.88142 0.59010
 H1199 H 1.20378 0.91673 0.55634
 H1200 H 1.14263 0.91561 0.55449
 C1201 C 0.59570 0.38528 0.09152
 C1202 C 0.62361 0.40172 0.10402
 C1203 C 0.64198 0.38259 0.12365
 C1204 C 0.63212 0.34728 0.13087
 C1205 C 0.60468 0.33056 0.11797
 C1206 C 0.58662 0.34951 0.09802
 C1207 C 0.55975 0.33205 0.08501
 C1208 C 0.55090 0.29683 0.09155
 C1209 C 0.56806 0.27858 0.11145
 C1210 C 0.59470 0.29510 0.12455
 C1211 C 0.66995 0.39949 0.13571
 C1212 C 0.67951 0.43426 0.12858
 C1213 C 0.66147 0.45303 0.10946
 C1214 C 0.63378 0.43715 0.09733
 C1215 C 0.65037 0.32841 0.15156
 C1216 C 0.66625 0.31374 0.16880
 C1217 C 0.57587 0.40601 0.07279
 C1218 C 0.56039 0.42562 0.05819
 H1219 H 0.54545 0.34535 0.06960
 H1220 H 0.53038 0.28377 0.08131
 H1221 H 0.56081 0.25138 0.11665
 H1222 H 0.60746 0.27974 0.13976
 H1223 H 0.68483 0.38600 0.15068
 H1224 H 0.70104 0.44669 0.13792
 H1225 H 0.66897 0.48005 0.10399
 H1226 H 0.62064 0.45290 0.08255
 C1227 C 0.91082 0.88042 0.40860
 C1228 C 0.88584 0.85566 0.41675
 C1229 C 0.86679 0.83679 0.39745
 C1230 C 0.87280 0.84300 0.37017
 C1231 C 0.89889 0.86650 0.36206
 C1232 C 0.91806 0.88515 0.38134
 C1233 C 0.94391 0.90871 0.37277
 C1234 C 0.95048 0.91379 0.34592
 C1235 C 0.93165 0.89563 0.32705
 C1236 C 0.90612 0.87223 0.33490
 C1237 C 0.84177 0.81233 0.40603
 C1238 C 0.83579 0.80662 0.43292
 C1239 C 0.85437 0.82516 0.45179
 C1240 C 0.87912 0.84950 0.44391
 C1241 C 0.85139 0.82654 0.35039
 C1242 C 0.83372 0.81383 0.33347
 C1243 C 0.92748 0.90313 0.42782
 C1244 C 0.94131 0.92405 0.44234
 H1245 H 0.95938 0.92334 0.38668
 H1246 H 0.97024 0.93199 0.33973
 H1247 H 0.93685 0.89969 0.30620
 H1248 H 0.89220 0.85869 0.31946
 H1249 H 0.82673 0.79727 0.39206
 H1250 H 0.81662 0.78773 0.43915
 H1251 H 0.84960 0.82067 0.47265
 H1252 H 0.89302 0.86325 0.45927
 C1253 C 0.40364 0.38360 -0.08932
 C1254 C 0.36963 0.37426 -0.08487
 C1255 C 0.35170 0.35469 -0.10442
 C1256 C 0.36796 0.34473 -0.12828
 C1257 C 0.40250 0.35243 -0.13208
 C1258 C 0.42043 0.37187 -0.11248
 C1259 C 0.45486 0.37970 -0.11679
 C1260 C 0.47107 0.36872 -0.13988
 C1261 C 0.45351 0.34973 -0.15909
 C1262 C 0.41961 0.34160 -0.15534
 C1263 C 0.31755 0.34602 -0.09971
 C1264 C 0.30163 0.35632 -0.07629
 C1265 C 0.31920 0.37552 -0.05719
 C1266 C 0.35281 0.38452 -0.06135
 C1267 C 0.34879 0.32827 -0.14943
 C1268 C 0.33258 0.31531 -0.16712
 C1269 C 0.42048 0.40799 -0.07142
 C1270 C 0.43451 0.42973 -0.05774
 H1271 H 0.46962 0.39423 -0.10235
 H1272 H 0.49739 0.37495 -0.14287
 H1273 H 0.46621 0.34127 -0.17700
 H1274 H 0.40702 0.32672 -0.17082
 H1275 H 0.30285 0.33111 -0.11398
 H1276 H 0.27553 0.34937 -0.07296
 H1277 H 0.30675 0.38349 -0.03904
 H1278 H 0.36550 0.39940 -0.04590
 C1279 C 1.11287 0.39587 -0.08919
 C1280 C 1.13874 0.41410 -0.10304
 C1281 C 1.15857 0.39526 -0.12195
 C1282 C 1.15235 0.35834 -0.12688
 C1283 C 1.12729 0.33982 -0.11233
 C1284 C 1.10752 0.35863 -0.09340
 C1285 C 1.08237 0.33961 -0.07927
 C1286 C 1.07687 0.30309 -0.08375
 C1287 C 1.09619 0.28471 -0.10229
 C1288 C 1.12115 0.30272 -0.11646
 C1289 C 1.18409 0.41412 -0.13575
 C1290 C 1.18989 0.45053 -0.13098
 C1291 C 1.17054 0.46892 -0.11246
 C1292 C 1.14515 0.45108 -0.09865
 C1293 C 1.17069 0.33978 -0.14766
 C1294 C 1.18536 0.32453 -0.16528
 C1295 C 1.09024 0.41573 -0.07201
 C1296 C 1.07013 0.43170 -0.05856
 H1297 H 1.06677 0.35270 -0.06457
 H1298 H 1.05752 0.28897 -0.07279
 H1299 H 1.09183 0.25633 -0.10571
 H1300 H 1.13558 0.28724 -0.13062
 H1301 H 1.19986 0.40092 -0.15027
 H1302 H 1.20954 0.46454 -0.14169
 H1303 H 1.17519 0.49719 -0.10880
 H1304 H 1.13073 0.46651 -0.08445
 C1305 C 0.60914 0.89160 0.41270
 C1306 C 0.61709 0.90950 0.38869
 C1307 C 0.63774 0.89226 0.36949
 C1308 C 0.65030 0.85714 0.37435
 C1309 C 0.64348 0.83987 0.39882
 C1310 C 0.62285 0.85715 0.41804
 C1311 C 0.61616 0.83924 0.44224
 C1312 C 0.62958 0.80526 0.44739
 C1313 C 0.64979 0.78839 0.42864
 C1314 C 0.65667 0.80533 0.40458
 C1315 C 0.64512 0.91067 0.34560
 C1316 C 0.63247 0.94508 0.34079
 C1317 C 0.61214 0.96183 0.35949
 C1318 C 0.60452 0.94442 0.38322
 C1319 C 0.66918 0.83843 0.35382
 C1320 C 0.68425 0.82320 0.33631
 C1321 C 0.58535 0.90784 0.43105
 C1322 C 0.56452 0.92165 0.44519
 H1323 H 0.60068 0.85137 0.45744
 H1324 H 0.62428 0.79198 0.46604
 H1325 H 0.66020 0.76203 0.43278
 H1326 H 0.67253 0.79114 0.39062
 H1327 H 0.66081 0.89875 0.33043
 H1328 H 0.63849 0.95884 0.32247
 H1329 H 0.60241 0.98859 0.35569
 H1330 H 0.58885 0.95873 0.39723
 C1331 C 0.88625 0.60498 -0.08979
 C1332 C 0.88446 0.59283 -0.11632
 C1333 C 0.86568 0.61271 -0.13528
 C1334 C 0.84874 0.64460 -0.12760
 C1335 C 0.84953 0.65603 -0.10089
 C1336 C 0.86839 0.63616 -0.08191
 C1337 C 0.86910 0.64824 -0.05537
 C1338 C 0.85155 0.67905 -0.04775
 C1339 C 0.83308 0.69846 -0.06630
 C1340 C 0.83201 0.68722 -0.09260
 C1341 C 0.86451 0.60020 -0.16175
 C1342 C 0.88135 0.56891 -0.16922
 C1343 C 0.89982 0.54955 -0.15069
 C1344 C 0.90142 0.56120 -0.12452
 C1345 C 0.83115 0.66573 -0.14744
 C1346 C 0.81708 0.68222 -0.16477
 C1347 C 0.90814 0.58644 -0.07126
 C1348 C 0.92778 0.57082 -0.05716
 H1349 H 0.88306 0.63395 -0.04026
 H1350 H 0.85228 0.68789 -0.02734
 H1351 H 0.81949 0.72237 -0.06028
 H1352 H 0.81727 0.70314 -0.10633
 H1353 H 0.85057 0.61437 -0.17693
 H1354 H 0.88009 0.55965 -0.18951
 H1355 H 0.91302 0.52541 -0.15664
 H1356 H 0.91601 0.54507 -0.11085
 C1357 C 0.38959 1.11024 0.41105
 C1358 C 0.36694 1.13748 0.41925
 C1359 C 0.34735 1.15635 0.40013
 C1360 C 0.35062 1.14800 0.37289
 C1361 C 0.37268 1.12011 0.36477
 C1362 C 0.39211 1.10113 0.38388
 C1363 C 0.41395 1.07338 0.37522
 C1364 C 0.41667 1.06474 0.34847
 C1365 C 0.39774 1.08331 0.32979
 C1366 C 0.37597 1.11068 0.33772
 C1367 C 0.32490 1.18343 0.40884
 C1368 C 0.32190 1.19170 0.43565
 C1369 C 0.34109 1.17333 0.45431
 C1370 C 0.36341 1.14650 0.44631
 C1371 C 0.33181 1.16817 0.35304
 C1372 C 0.31698 1.18400 0.33568
 C1373 C 0.41141 1.09240 0.43014
 C1374 C 0.43094 1.07716 0.44463
 H1375 H 0.42909 1.05798 0.38897
 H1376 H 0.43351 1.04346 0.34223
 H1377 H 0.39993 1.07648 0.30903
 H1378 H 0.36176 1.12426 0.32241
 H1379 H 0.30942 1.19840 0.39505
 H1380 H 0.30459 1.21250 0.44198
 H1381 H 0.33866 1.17987 0.47511
 H1382 H 0.37775 1.13285 0.46153
 C1383 C 1.11382 0.60100 0.09009
 C1384 C 1.12272 0.63742 0.08567
 C1385 C 1.14165 0.65635 0.10502
 C1386 C 1.15149 0.63876 0.12868
 C1387 C 1.14337 0.60203 0.13276
 C1388 C 1.12456 0.58308 0.11337
 C1389 C 1.11654 0.54645 0.11798
 C1390 C 1.12669 0.52910 0.14112
 C1391 C 1.14511 0.54762 0.16007
 C1392 C 1.15339 0.58367 0.15606
 C1393 C 1.15002 0.69283 0.10027
 C1394 C 1.13989 0.71014 0.07709
 C1395 C 1.12130 0.69166 0.05821
 C1396 C 1.11278 0.65569 0.06233
 C1397 C 1.16912 0.65857 0.14917
 C1398 C 1.18340 0.67451 0.16662
 C1399 C 1.09143 0.58279 0.07183
 C1400 C 1.07151 0.56773 0.05773
 H1401 H 1.10256 0.53078 0.10370
 H1402 H 1.12043 0.50105 0.14428
 H1403 H 1.15305 0.53395 0.17796
 H1404 H 1.16773 0.59693 0.17139
 H1405 H 1.16447 0.70831 0.11437
 H1406 H 1.14653 0.73805 0.07377
 H1407 H 1.11348 0.70525 0.04025
 H1408 H 1.09844 0.64236 0.04703
 C1409 C 0.60835 1.10643 0.58921
 C1410 C 0.62044 1.14168 0.58430
 C1411 C 0.63995 1.15969 0.60382
 C1412 C 0.64735 1.14234 0.62815
 C1413 C 0.63613 1.10665 0.63271
 C1414 C 0.61659 1.08868 0.61321
 C1415 C 0.60538 1.05318 0.61841
 C1416 C 0.61315 1.03596 0.64217
 C1417 C 0.63235 1.05346 0.66117
 C1418 C 0.64375 1.08840 0.65661
 C1419 C 0.65143 1.19503 0.59852
 C1420 C 0.64392 1.21209 0.57463
 C1421 C 0.62486 1.19449 0.55557
 C1422 C 0.61319 1.15968 0.56025
 C1423 C 0.66570 1.16135 0.64878
 C1424 C 0.68056 1.17668 0.66630
 C1425 C 0.58565 1.08923 0.57051
 C1426 C 0.56557 1.07468 0.55616
 H1427 H 0.59062 1.03829 0.60417
 H1428 H 0.60438 1.00881 0.64580
 H1429 H 0.63844 1.03990 0.67955
 H1430 H 0.65859 1.10088 0.67200
 H1431 H 0.66635 1.20980 0.61272
 H1432 H 0.65293 1.23912 0.57088
 H1433 H 0.61909 1.20788 0.53706
 H1434 H 0.59856 1.14702 0.54481
 C1435 C 0.88682 0.39806 0.09152
 C1436 C 0.89062 0.40521 0.11890
 C1437 C 0.87086 0.38614 0.13774
 C1438 C 0.84734 0.36007 0.12910
 C1439 C 0.84279 0.35375 0.10169
 C1440 C 0.86261 0.37282 0.08284
 C1441 C 0.85774 0.36597 0.05557
 C1442 C 0.83391 0.34103 0.04713
 C1443 C 0.81452 0.32240 0.06554
 C1444 C 0.81884 0.32854 0.09255
 C1445 C 0.87533 0.39358 0.16501
 C1446 C 0.89858 0.41915 0.17341
 C1447 C 0.91791 0.43777 0.15499
 C1448 C 0.91406 0.43103 0.12804
 C1449 C 0.82842 0.33951 0.14857
 C1450 C 0.81351 0.32301 0.16551
 C1451 C 0.90891 0.41576 0.07261
 C1452 C 0.92859 0.43070 0.05811
 H1453 H 0.87216 0.37992 0.04052
 H1454 H 0.83045 0.33616 0.02619
 H1455 H 0.79602 0.30310 0.05887
 H1456 H 0.80317 0.31343 0.10614
 H1457 H 0.86089 0.37983 0.18012
 H1458 H 0.90159 0.42456 0.19433
 H1459 H 0.93590 0.45766 0.16161
 H1460 H 0.92955 0.44642 0.11450
 C1461 C 0.38497 0.89185 0.59014
 C1462 C 0.38543 0.90319 0.61692
 C1463 C 0.36569 0.88479 0.63619
 C1464 C 0.34543 0.85518 0.62862
 C1465 C 0.34390 0.84481 0.60166
 C1466 C 0.36374 0.86316 0.58238
 C1467 C 0.36191 0.85214 0.55563
 C1468 C 0.34097 0.82391 0.54806
 C1469 C 0.32158 0.80602 0.56686
 C1470 C 0.32297 0.81620 0.59340
 C1471 C 0.36689 0.89650 0.66285
 C1472 C 0.38690 0.92555 0.67026
 C1473 C 0.40614 0.94354 0.65144
 C1474 C 0.40551 0.93262 0.62507
 C1475 C 0.32680 0.83520 0.64874
 C1476 C 0.31203 0.81933 0.66616
 C1477 C 0.40768 0.90865 0.57110
 C1478 C 0.42794 0.92284 0.55660
 H1479 H 0.37647 0.86533 0.54030
 H1480 H 0.33977 0.81590 0.52747
 H1481 H 0.30536 0.78413 0.56087
 H1482 H 0.30739 0.80154 0.60731
 H1483 H 0.35233 0.88345 0.67823
 H1484 H 0.38745 0.93417 0.69072
 H1485 H 0.42156 0.96617 0.65728
 H1486 H 0.42078 0.94764 0.61116
 C1487 C 0.39791 1.09971 -0.09717
 C1488 C 0.40672 1.09428 -0.12403
 C1489 C 0.38820 1.11188 -0.14436
 C1490 C 0.36094 1.13468 -0.13766
 C1491 C 0.35167 1.13947 -0.11082
 C1492 C 0.37019 1.12191 -0.09051
 C1493 C 0.36042 1.12707 -0.06380
 C1494 C 0.33315 1.14897 -0.05736
 C1495 C 0.31511 1.16625 -0.07722
 C1496 C 0.32412 1.16164 -0.10367
 C1497 C 0.39753 1.10619 -0.17108
 C1498 C 0.42435 1.08364 -0.17753
 C1499 C 0.44248 1.06646 -0.15765
 C1500 C 0.43385 1.07159 -0.13117
 C1501 C 0.34262 1.15368 -0.15824
 C1502 C 0.32711 1.17007 -0.17483
 C1503 C 0.41738 1.08285 -0.07626
 C1504 C 0.43284 1.06935 -0.05830
 H1505 H 0.37363 1.11418 -0.04763
 H1506 H 0.32597 1.15251 -0.03684
 H1507 H 0.29398 1.18329 -0.07211
 H1508 H 0.30920 1.17554 -0.11840
 H1509 H 0.38421 1.11903 -0.18722
 H1510 H 0.43109 1.07947 -0.19808
 H1511 H 0.46334 1.04904 -0.16277
 H1512 H 0.44855 1.05748 -0.11639
 C1513 C 0.90066 0.60159 0.40326
 C1514 C 0.89681 0.63946 0.40385
 C1515 C 0.87830 0.65709 0.38358
 C1516 C 0.86378 0.63671 0.36288
 C1517 C 0.86794 0.59887 0.36214
 C1518 C 0.88650 0.58124 0.38239
 C1519 C 0.89026 0.54336 0.38133
 C1520 C 0.87601 0.52347 0.36086
 C1521 C 0.85778 0.54072 0.34107
 C1522 C 0.85372 0.57800 0.34159
 C1523 C 0.87457 0.69498 0.38465
 C1524 C 0.88870 0.71484 0.40518
 C1525 C 0.90682 0.69758 0.42501
 C1526 C 0.91093 0.66032 0.42446
 C1527 C 0.84419 0.65474 0.34265
 C1528 C 0.82786 0.67042 0.32621
 C1529 C 0.91800 0.58340 0.42464
 C1530 C 0.93164 0.56804 0.44267
 H1531 H 0.90420 0.52873 0.39627
 H1532 H 0.87912 0.49452 0.36037
 H1533 H 0.84670 0.52515 0.32524
 H1534 H 0.83931 0.59022 0.32577
 H1535 H 0.86071 0.70964 0.36967
 H1536 H 0.88557 0.74378 0.40568
 H1537 H 0.91776 0.71312 0.44092
 H1538 H 0.92527 0.64810 0.44031
 C1539 C 0.59515 1.10326 0.09696
 C1540 C 0.60445 1.13989 0.09423
 C1541 C 0.62336 1.15696 0.11450
 C1542 C 0.63296 1.13727 0.13733
 C1543 C 0.62259 1.10105 0.14049
 C1544 C 0.60348 1.08405 0.12030
 C1545 C 0.59305 1.04797 0.12404
 C1546 C 0.60115 1.02926 0.14712
 C1547 C 0.62015 1.04574 0.16673
 C1548 C 0.63087 1.08120 0.16355
 C1549 C 0.63230 1.19362 0.11135
 C1550 C 0.62284 1.21285 0.08883
 C1551 C 0.60429 1.19618 0.06904
 C1552 C 0.59520 1.16011 0.07157
 C1553 C 0.65362 1.15430 0.15740
 C1554 C 0.67083 1.16897 0.17378
 C1555 C 0.57753 1.08527 0.07558
 C1556 C 0.56316 1.07066 0.05755
 H1557 H 0.57838 1.03394 0.10928
 H1558 H 0.59289 1.00172 0.14969
 H1559 H 0.62655 1.03100 0.18454
 H1560 H 0.64548 1.09293 0.17940
 H1561 H 0.64653 1.20786 0.12626
 H1562 H 0.62982 1.24088 0.08677
 H1563 H 0.59689 1.21130 0.05164
 H1564 H 0.58072 1.14835 0.05566
 C1565 C 1.09999 0.59211 0.60061
 C1566 C 1.08995 0.62701 0.60866
 C1567 C 1.10848 0.64539 0.62851
 C1568 C 1.13682 0.62868 0.64028
 C1569 C 1.14629 0.59339 0.63273
 C1570 C 1.12791 0.57512 0.61273
 C1571 C 1.13820 0.54011 0.60518
 C1572 C 1.16565 0.52348 0.61723
 C1573 C 1.18342 0.54121 0.63696
 C1574 C 1.17403 0.57581 0.64465
 C1575 C 1.09819 0.68043 0.63604
 C1576 C 1.07035 0.69679 0.62434
 C1577 C 1.05220 0.67877 0.60497
 C1578 C 1.06179 0.64430 0.59712
 C1579 C 1.15659 0.64813 0.65969
 C1580 C 1.17290 0.66474 0.67562
 C1581 C 1.08254 0.57438 0.57907
 C1582 C 1.06866 0.56011 0.56068
 H1583 H 1.12503 0.52511 0.59006
 H1584 H 1.17300 0.49658 0.61135
 H1585 H 1.20463 0.52809 0.64634
 H1586 H 1.18867 0.58855 0.66004
 H1587 H 1.11147 0.69551 0.65105
 H1588 H 1.06283 0.72358 0.63036
 H1589 H 1.03057 0.69157 0.59596
 H1590 H 1.04686 0.63137 0.58197
 C1591 C 0.59696 0.89396 -0.09754
 C1592 C 0.60310 0.91409 -0.12091
 C1593 C 0.62245 0.89881 -0.14177
 C1594 C 0.63533 0.86342 -0.13919
 C1595 C 0.62841 0.84295 -0.11611
 C1596 C 0.60914 0.85824 -0.09525
 C1597 C 0.60250 0.83722 -0.07240
 C1598 C 0.61463 0.80212 -0.07020
 C1599 C 0.63365 0.78724 -0.09053
 C1600 C 0.64048 0.80724 -0.11328
 C1601 C 0.62848 0.91952 -0.16484
 C1602 C 0.61547 0.95422 -0.16736
 C1603 C 0.59628 0.96902 -0.14709
 C1604 C 0.59025 0.94940 -0.12401
 C1605 C 0.65579 0.84786 -0.16008
 C1606 C 0.67295 0.83365 -0.17676
 C1607 C 0.57874 0.91012 -0.07564
 C1608 C 0.56394 0.92326 -0.05718
 H1609 H 0.58780 0.84760 -0.05606
 H1610 H 0.60924 0.78640 -0.05263
 H1611 H 0.64308 0.75999 -0.08871
 H1612 H 0.65525 0.79436 -0.12858
 H1613 H 0.64318 0.90908 -0.18117
 H1614 H 0.62031 0.96971 -0.18515
 H1615 H 0.58628 0.99601 -0.14913
 H1616 H 0.57540 0.96216 -0.10869
 C1617 C 1.09796 0.40323 0.39714
 C1618 C 1.12536 0.42198 0.38566
 C1619 C 1.14424 0.40583 0.36492
 C1620 C 1.13584 0.37087 0.35601
 C1621 C 1.10787 0.35254 0.36699
 C1622 C 1.08880 0.36883 0.38757
 C1623 C 1.06103 0.34995 0.39831
 C1624 C 1.05239 0.31588 0.38903
 C1625 C 1.07110 0.29990 0.36896
 C1626 C 1.09855 0.31788 0.35800
 C1627 C 1.17145 0.42509 0.35368
 C1628 C 1.17993 0.45928 0.36280
 C1629 C 1.16171 0.47493 0.38328
 C1630 C 1.13467 0.45666 0.39462
 C1631 C 1.15669 0.35309 0.33637
 C1632 C 1.17399 0.33743 0.32051
 C1633 C 1.08017 0.41874 0.41950
 C1634 C 1.06632 0.43181 0.43841
 H1635 H 1.04569 0.36132 0.41392
 H1636 H 1.03108 0.30179 0.39745
 H1637 H 1.06432 0.27345 0.36181
 H1638 H 1.11227 0.30435 0.34240
 H1639 H 1.18637 0.41399 0.33772
 H1640 H 1.20077 0.47368 0.35394
 H1641 H 1.16838 0.50151 0.39028
 H1642 H 1.12109 0.47010 0.41034
 C1643 C 0.39575 0.89508 0.09684
 C1644 C 0.38660 0.91590 0.11919
 C1645 C 0.36716 0.90017 0.13982
 C1646 C 0.35718 0.86368 0.13803
 C1647 C 0.36651 0.84279 0.11575
 C1648 C 0.38581 0.85856 0.09508
 C1649 C 0.39475 0.83719 0.07296
 C1650 C 0.38492 0.80126 0.07134
 C1651 C 0.36612 0.78579 0.09160
 C1652 C 0.35692 0.80619 0.11358
 C1653 C 0.35813 0.92152 0.16190
 C1654 C 0.36824 0.95736 0.16362
 C1655 C 0.38746 0.97267 0.14354
 C1656 C 0.39648 0.95236 0.12146
 C1657 C 0.33748 0.84733 0.15904
 C1658 C 0.32122 0.83241 0.17595
 C1659 C 0.41492 0.91125 0.07546
 C1660 C 0.43046 0.92433 0.05736
 H1661 H 0.40941 0.84796 0.05671
 H1662 H 0.39194 0.78533 0.05428
 H1663 H 0.35860 0.75785 0.09028
 H1664 H 0.34224 0.79292 0.12879
 H1665 H 0.34324 0.91075 0.17803
 H1666 H 0.36113 0.97333 0.18064
 H1667 H 0.39524 1.00051 0.14498
 H1668 H 0.41126 0.96553 0.10627
 C1669 C 0.89779 0.39651 0.59763
 C1670 C 0.87385 0.41659 0.61224
 C1671 C 0.85512 0.39964 0.63273
 C1672 C 0.86031 0.36270 0.63832
 C1673 C 0.88453 0.34271 0.62392
 C1674 C 0.90334 0.35969 0.60349
 C1675 C 0.92724 0.33917 0.58920
 C1676 C 0.93248 0.30288 0.59501
 C1677 C 0.91420 0.28631 0.61509
 C1678 C 0.89039 0.30582 0.62939
 C1679 C 0.83134 0.42022 0.64710
 C1680 C 0.82600 0.45646 0.64122
 C1681 C 0.84405 0.47294 0.62098
 C1682 C 0.86789 0.45345 0.60670
 C1683 C 0.84022 0.34498 0.65844
 C1684 C 0.82355 0.32970 0.67488
 C1685 C 0.91583 0.41352 0.57604
 C1686 C 0.92994 0.42814 0.55789
 H1687 H 0.94213 0.35090 0.57344
 H1688 H 0.95084 0.28755 0.58388
 H1689 H 0.91841 0.25814 0.61957
 H1690 H 0.87671 0.29168 0.64476
 H1691 H 0.81662 0.40855 0.66298
 H1692 H 0.80771 0.47180 0.65240
 H1693 H 0.83973 0.50107 0.61643
 H1694 H 0.88151 0.46759 0.59131
 C1695 C 1.11353 1.11700 0.58427
 C1696 C 1.10268 1.15172 0.59191
 C1697 C 1.11961 1.17008 0.61260
 C1698 C 1.14738 1.15359 0.62529
 C1699 C 1.15926 1.11961 0.61674
 C1700 C 1.14227 1.10125 0.59612
 C1701 C 1.15433 1.06708 0.58804
 C1702 C 1.18241 1.05158 0.60000
 C1703 C 1.19906 1.06958 0.62019
 C1704 C 1.18771 1.10319 0.62857
 C1705 C 1.10801 1.20455 0.62029
 C1706 C 1.08059 1.22052 0.60771
 C1707 C 1.06414 1.20262 0.58735
 C1708 C 1.07491 1.16854 0.57950
 C1709 C 1.16360 1.17122 0.64733
 C1710 C 1.17769 1.18538 0.66558
 C1711 C 1.09358 1.09586 0.56613
 C1712 C 1.07726 1.07601 0.55248
 H1713 H 1.14235 1.05209 0.57232
 H1714 H 1.19129 1.02545 0.59356
 H1715 H 1.22088 1.05745 0.62943
 H1716 H 1.20149 1.11611 0.64437
 H1717 H 1.12008 1.21956 0.63596
 H1718 H 1.07215 1.24699 0.61373
 H1719 H 1.04293 1.21518 0.57758
 H1720 H 1.06143 1.15563 0.56352
 C1721 C 0.60807 0.61138 0.09006
 C1722 C 0.61392 0.64872 0.08710
 C1723 C 0.63193 0.66768 0.10694
 C1724 C 0.64381 0.64910 0.12959
 C1725 C 0.63827 0.61166 0.13240
 C1726 C 0.62037 0.59270 0.11256
 C1727 C 0.61509 0.55521 0.11581
 C1728 C 0.62707 0.53709 0.13806
 C1729 C 0.64459 0.55565 0.15749
 C1730 C 0.65020 0.59250 0.15480
 C1731 C 0.63759 0.70503 0.10358
 C1732 C 0.62580 0.72308 0.08120
 C1733 C 0.60807 0.70454 0.06185
 C1734 C 0.60210 0.66775 0.06466
 C1735 C 0.66169 0.66827 0.15013
 C1736 C 0.67668 0.68329 0.16756
 C1737 C 0.58884 0.59185 0.07049
 C1738 C 0.57283 0.57328 0.05568
 H1739 H 0.60171 0.53948 0.10124
 H1740 H 0.62269 0.50848 0.14026
 H1741 H 0.65385 0.54144 0.17474
 H1742 H 0.66397 0.60573 0.17047
 H1743 H 0.65118 0.72060 0.11814
 H1744 H 0.63041 0.75163 0.07890
 H1745 H 0.59894 0.71871 0.04453
 H1746 H 0.58825 0.65440 0.04908
 C1747 C 1.09975 0.87807 0.41390
 C1748 C 1.08959 0.88034 0.38708
 C1749 C 1.10706 0.86033 0.36750
 C1750 C 1.13439 0.83808 0.37491
 C1751 C 1.14307 0.83396 0.40193
 C1752 C 1.12571 0.85416 0.42152
 C1753 C 1.13511 0.85021 0.44838
 C1754 C 1.16085 0.82670 0.45569
 C1755 C 1.17777 0.80682 0.43653
 C1756 C 1.16912 0.81035 0.40990
 C1757 C 1.09695 0.86352 0.34071
 C1758 C 1.07031 0.88588 0.33350
 C1759 C 1.05318 0.90546 0.35268
 C1760 C 1.06255 0.90279 0.37919
 C1761 C 1.15457 0.82120 0.35454
 C1762 C 1.17117 0.80831 0.33703
 C1763 C 1.08526 0.90273 0.43291
 C1764 C 1.07306 0.92533 0.44697
 H1765 H 1.12251 0.86503 0.46394
 H1766 H 1.16766 0.82386 0.47634
 H1767 H 1.19769 0.78854 0.44232
 H1768 H 1.18287 0.79423 0.39569
 H1769 H 1.10940 0.84871 0.32507
 H1770 H 1.06292 0.88801 0.31293
 H1771 H 1.03255 0.92284 0.34700
 H1772 H 1.04827 0.91838 0.39338
 C1773 C 0.60460 0.38764 -0.08659
 C1774 C 0.63892 0.39531 -0.09153
 C1775 C 0.65676 0.37558 -0.11109
 C1776 C 0.64014 0.34839 -0.12565
 C1777 C 0.60623 0.33970 -0.11997
 C1778 C 0.58838 0.35942 -0.10035
 C1779 C 0.55441 0.35050 -0.09514
 C1780 C 0.53860 0.32270 -0.10878
 C1781 C 0.55604 0.30345 -0.12799
 C1782 C 0.58946 0.31180 -0.13365
 C1783 C 0.69101 0.38384 -0.11581
 C1784 C 0.70717 0.41085 -0.10159
 C1785 C 0.68969 0.43027 -0.08251
 C1786 C 0.65595 0.42273 -0.07747
 C1787 C 0.65773 0.33028 -0.14699
 C1788 C 0.67275 0.31593 -0.16481
 C1789 C 0.58557 0.41049 -0.06877
 C1790 C 0.57024 0.43115 -0.05491
 H1791 H 0.53982 0.36476 -0.08039
 H1792 H 0.51265 0.31612 -0.10448
 H1793 H 0.54364 0.28191 -0.13856
 H1794 H 0.60203 0.29605 -0.14872
 H1795 H 0.70569 0.36949 -0.13045
 H1796 H 0.73340 0.41672 -0.10541
 H1797 H 0.70232 0.45128 -0.07155
 H1798 H 0.64346 0.43849 -0.06236
 C1799 C 0.90232 1.11915 0.41125
 C1800 C 0.86967 1.13248 0.41650
 C1801 C 0.85110 1.14959 0.39601
 C1802 C 0.86544 1.15333 0.37046
 C1803 C 0.89883 1.14182 0.36565
 C1804 C 0.91736 1.12468 0.38614
 C1805 C 0.95058 1.11291 0.38082
 C1806 C 0.96505 1.11796 0.35594
 C1807 C 0.94695 1.13483 0.33591
 C1808 C 0.91418 1.14662 0.34057
 C1809 C 0.81825 1.16223 0.40159
 C1810 C 0.80424 1.15822 0.42674
 C1811 C 0.82247 1.14155 0.44680
 C1812 C 0.85481 1.12869 0.44183
 C1813 C 0.84553 1.16821 0.34905
 C1814 C 0.82868 1.18060 0.33145
 C1815 C 0.91908 1.09647 0.43051
 C1816 C 0.93297 1.07553 0.44505
 H1817 H 0.96577 1.09993 0.39584
 H1818 H 0.99052 1.10890 0.35224
 H1819 H 0.95836 1.13880 0.31664
 H1820 H 0.90109 1.15958 0.32437
 H1821 H 0.80310 1.17541 0.38664
 H1822 H 0.77912 1.16813 0.43069
 H1823 H 0.81152 1.13856 0.46632
 H1824 H 0.86810 1.11600 0.45805
 C1825 C 0.40019 0.62979 -0.08527
 C1826 C 0.41347 0.63328 -0.11117
 C1827 C 0.39451 0.65114 -0.13108
 C1828 C 0.36250 0.66557 -0.12486
 C1829 C 0.35058 0.66482 -0.09843
 C1830 C 0.36950 0.64678 -0.07855
 C1831 C 0.35693 0.64581 -0.05234
 C1832 C 0.32659 0.66248 -0.04590
 C1833 C 0.30809 0.68019 -0.06534
 C1834 C 0.31979 0.68134 -0.09137
 C1835 C 0.40798 0.65370 -0.15698
 C1836 C 0.43941 0.63919 -0.16299
 C1837 C 0.45801 0.62180 -0.14349
 C1838 C 0.44529 0.61873 -0.11786
 C1839 C 0.34135 0.67955 -0.14590
 C1840 C 0.32408 0.69060 -0.16374
 C1841 C 0.41638 0.60554 -0.06668
 C1842 C 0.42974 0.58328 -0.05285
 H1843 H 0.37059 0.63250 -0.03658
 H1844 H 0.31741 0.66171 -0.02571
 H1845 H 0.28455 0.69312 -0.06023
 H1846 H 0.30463 0.69553 -0.10581
 H1847 H 0.39451 0.66713 -0.17279
 H1848 H 0.44939 0.64149 -0.18288
 H1849 H 0.48245 0.61065 -0.14824
 H1850 H 0.46076 0.60513 -0.10332
 C1851 C 0.90528 0.88251 0.58815
 C1852 C 0.91316 0.88729 0.61525
 C1853 C 0.89442 0.86870 0.63493
 C1854 C 0.86808 0.84529 0.62734
 C1855 C 0.86169 0.83874 0.60019
 C1856 C 0.88035 0.85751 0.58050
 C1857 C 0.87331 0.85098 0.55349
 C1858 C 0.84862 0.82636 0.54611
 C1859 C 0.83041 0.80792 0.56535
 C1860 C 0.83672 0.81398 0.59213
 C1861 C 0.90233 0.87437 0.66194
 C1862 C 0.92811 0.89769 0.66927
 C1863 C 0.94652 0.91581 0.65001
 C1864 C 0.93924 0.91079 0.62329
 C1865 C 0.84697 0.82909 0.64752
 C1866 C 0.82972 0.81637 0.66477
 C1867 C 0.92110 0.90561 0.56862
 C1868 C 0.93425 0.92704 0.55403
 H1869 H 0.88698 0.86460 0.53785
 H1870 H 0.84363 0.82155 0.52535
 H1871 H 0.81130 0.78879 0.55951
 H1872 H 0.82202 0.79892 0.60640
 H1873 H 0.88881 0.86079 0.67766
 H1874 H 0.93385 0.90170 0.69000
 H1875 H 0.96655 0.93387 0.65579
 H1876 H 0.95440 0.92537 0.60906
 C1877 C 0.39316 0.38232 0.08158
 C1878 C 0.41104 0.35742 0.09749
 C1879 C 0.39373 0.33714 0.11710
 C1880 C 0.35891 0.34263 0.12103
 C1881 C 0.34068 0.36586 0.10407
 C1882 C 0.35786 0.38566 0.08417
 C1883 C 0.33924 0.40910 0.06761
 C1884 C 0.30459 0.41293 0.07073
 C1885 C 0.28778 0.39363 0.09030
 C1886 C 0.30549 0.37029 0.10682
 C1887 C 0.41195 0.31222 0.13273
 C1888 C 0.44651 0.30796 0.12938
 C1889 C 0.46355 0.32839 0.11058
 C1890 C 0.44615 0.35276 0.09466
 C1891 C 0.34218 0.32634 0.14349
 C1892 C 0.32765 0.31362 0.16217
 C1893 C 0.41124 0.40706 0.06455
 C1894 C 0.42581 0.42936 0.05159
 H1895 H 0.35123 0.42456 0.05206
 H1896 H 0.29074 0.43098 0.05791
 H1897 H 0.26088 0.39673 0.09272
 H1898 H 0.29133 0.35571 0.12168
 H1899 H 0.39969 0.29578 0.14760
 H1900 H 0.46014 0.28885 0.14152
 H1901 H 0.49040 0.32541 0.10834
 H1902 H 0.46043 0.36780 0.08013
   
