data_POSCAR
  _audit_creation_date              2014-09-24
  _audit_creation_method            'ToBaCCo'
  _symmetry_space_group_name_H-M    'P1'
  _symmetry_Int_Tables_number       1
  _symmetry_cell_setting            triclinic
  loop_
  _symmetry_equiv_pos_as_xyz
 x,y,z
_cell_length_a 66.9890
_cell_length_b 66.9999
_cell_length_c 66.9517
_cell_angle_alpha 89.993700
_cell_angle_beta 89.984700
_cell_angle_gamma 89.999500
loop_
  _atom_site_label
  _atom_site_type_symbol
  _atom_site_fract_x
  _atom_site_fract_y
  _atom_site_fract_z
C1 C 0.35830 1.35908 0.33342
 N2 N 0.34169 1.36726 0.34174
 C3 C 0.33337 1.35907 0.35836
 N4 N 0.34179 1.34256 0.36663
 C5 C 0.35839 1.33429 0.35843
 N6 N 0.36657 1.34258 0.34183
 C7 C 0.35818 0.85903 0.83423
 N8 N 0.36639 0.84247 0.84254
 C9 C 0.35813 0.83411 0.85907
 N10 N 0.34153 0.84239 0.86727
 C11 C 0.33319 0.85897 0.85905
 N12 N 0.34158 0.86722 0.84251
 C13 C 0.85745 1.35836 0.83270
 N14 N 0.84084 1.36655 0.84102
 C15 C 0.83250 1.35835 0.85762
 N16 N 0.84090 1.34184 0.86590
 C17 C 0.85750 1.33357 0.85771
 N18 N 0.86571 1.34185 0.84112
 C19 C 0.85913 0.85901 0.33358
 N20 N 0.84257 0.86724 0.34196
 C21 C 0.83427 0.85903 0.35854
 N22 N 0.84257 0.84246 0.36676
 C23 C 0.85912 0.83413 0.35851
 N24 N 0.86734 0.84244 0.34193
 C25 C 0.64032 0.64038 0.33483
 N26 N 0.65690 0.63216 0.34313
 C27 C 0.66525 0.64041 0.35967
 N28 N 0.65697 0.65700 0.36788
 C29 C 0.64039 0.66531 0.35967
 N30 N 0.63214 0.65697 0.34313
 C31 C 0.64224 0.14146 0.83289
 N32 N 0.63397 0.15796 0.84130
 C33 C 0.64215 0.16625 0.85790
 N34 N 0.65874 0.15798 0.86609
 C35 C 0.66716 0.14147 0.85782
 N36 N 0.65884 0.13328 0.84122
 C37 C 1.13978 0.63996 0.83527
 N38 N 1.15633 0.63173 0.84360
 C39 C 1.16465 0.63996 0.86016
 N40 N 1.15636 0.65655 0.86836
 C41 C 1.13981 0.66487 0.86012
 N42 N 1.13158 0.65655 0.84356
 C43 C 1.14206 0.14116 0.33316
 N44 N 1.15867 0.13299 0.34147
 C45 C 1.16700 0.14119 0.35807
 N46 N 1.15859 0.15770 0.36633
 C47 C 1.14199 0.16597 0.35815
 N48 N 1.13379 0.15768 0.34156
 C49 C 0.64149 1.35938 0.66546
 N50 N 0.65812 1.36754 0.65721
 C51 C 0.66650 1.35930 0.64065
 N52 N 0.65811 1.34277 0.63240
 C53 C 0.64148 1.33452 0.64056
 N54 N 0.63323 1.34286 0.65711
 C55 C 0.64084 0.85897 1.16649
 N56 N 0.63262 0.84240 1.15814
 C57 C 0.64083 0.83410 1.14155
 N58 N 0.65738 0.84242 1.13331
 C59 C 0.66570 0.85898 1.14153
 N60 N 0.65739 0.86719 1.15812
 C61 C 1.14152 1.35911 1.16637
 N62 N 1.15812 1.36729 1.15803
 C63 C 1.16645 1.35909 1.14143
 N64 N 1.15805 1.34257 1.13317
 C65 C 1.14146 1.33429 1.14138
 N66 N 1.13326 1.34259 1.15797
 C67 C 1.14189 0.85879 0.66594
 N68 N 1.13369 0.84223 0.65762
 C69 C 1.14195 0.83389 0.64108
 N70 N 1.15855 0.84219 0.63289
 C71 C 1.16688 0.85876 0.64111
 N72 N 1.15849 0.86700 0.65766
 C73 C 0.35822 0.64109 0.66572
 N74 N 0.36643 0.65766 0.65742
 C75 C 0.35818 0.66601 0.64088
 N76 N 0.34159 0.65772 0.63268
 C77 C 0.33325 0.64115 0.64089
 N78 N 0.34163 0.63290 0.65744
 C79 C 0.35813 0.14092 1.16659
 N80 N 0.36639 0.15743 1.15816
 C81 C 0.35819 0.16571 1.14157
 N82 N 0.34159 0.15743 1.13340
 C83 C 0.33319 0.14092 1.14168
 N84 N 0.34153 0.13273 1.15828
 C85 C 0.85959 0.64026 1.16502
 N86 N 0.84300 0.63206 1.15673
 C87 C 0.83466 0.64032 1.14019
 N88 N 0.84295 0.65691 1.13198
 C89 C 0.85954 0.66520 1.14019
 N90 N 0.86779 0.65685 1.15673
 C91 C 0.85771 0.14144 0.66717
 N92 N 0.84110 0.13326 0.65885
 C93 C 0.83279 0.14145 0.64224
 N94 N 0.84121 0.15796 0.63396
 C95 C 0.85780 0.16623 0.64215
 N96 N 0.86598 0.15794 0.65875
 C97 C 1.35878 0.35795 0.66686
 N98 N 1.36699 0.34137 0.65852
 C99 C 1.35881 0.33305 0.64191
 N100 N 1.34228 0.34144 0.63365
 C101 C 1.33398 0.35801 0.64186
 N102 N 1.34225 0.36620 0.65846
 C103 C 1.35927 0.85849 1.16552
 N104 N 1.36741 0.84184 1.15728
 C105 C 1.35915 0.83346 1.14074
 N106 N 1.34261 0.84185 1.13249
 C107 C 1.33439 0.85849 1.14064
 N108 N 1.34274 0.86674 1.15717
 C109 C 0.85925 0.35940 1.16620
 N110 N 0.84267 0.36761 1.15785
 C111 C 0.83439 0.35942 1.14125
 N112 N 0.84274 0.34289 1.13299
 C113 C 0.85930 0.33459 1.14121
 N114 N 0.86749 0.34287 1.15781
 C115 C 0.85966 0.85962 0.66516
 N116 N 0.86787 0.84304 0.65687
 C117 C 0.85964 0.83471 0.64030
 N118 N 0.84308 0.84302 0.63207
 C119 C 0.83479 0.85961 0.64027
 N120 N 0.84310 0.86784 0.65684
 C121 C 0.64055 0.64065 0.66533
 N122 N 0.65712 0.63243 0.65702
 C123 C 0.66546 0.64067 0.64046
 N124 N 0.65718 0.65725 0.63225
 C125 C 0.64061 0.66557 0.64048
 N126 N 0.63236 0.65724 0.65703
 C127 C 0.64107 1.14196 1.16661
 N128 N 0.63287 1.15855 1.15827
 C129 C 0.64109 1.16689 1.14168
 N130 N 0.65763 1.15852 1.13344
 C131 C 0.66593 1.14194 1.14165
 N132 N 0.65762 1.13373 1.15823
 C133 C 0.14132 0.64233 1.16700
 N134 N 0.15782 0.63407 1.15858
 C135 C 0.16613 0.64228 1.14200
 N136 N 0.15787 0.65890 1.13384
 C137 C 0.14136 0.66731 1.14212
 N138 N 0.13315 0.65895 1.15871
 C139 C 0.14032 1.14113 0.66520
 N140 N 0.13213 1.15774 0.65693
 C141 C 0.14037 1.16611 0.64037
 N142 N 0.15692 1.15774 0.63212
 C143 C 0.16519 1.14113 0.64031
 N144 N 0.15686 1.13290 0.65686
 C145 C 1.35925 0.64100 0.33358
 N146 N 1.36745 0.65759 0.34191
 C147 C 1.35926 0.66588 0.35851
 N148 N 1.34274 0.65753 0.36679
 C149 C 1.33445 0.64095 0.35860
 N150 N 1.34272 0.63275 0.34200
 C151 C 1.35876 1.14194 0.83310
 N152 N 1.36696 1.15853 0.84144
 C153 C 1.35876 1.16684 0.85805
 N154 N 1.34223 1.15845 0.86630
 C155 C 1.33394 1.14187 0.85809
 N156 N 1.34223 1.13369 0.84149
 C157 C 0.85932 0.64068 0.83460
 N158 N 0.84276 0.63245 0.84292
 C159 C 0.83443 0.64068 0.85948
 N160 N 0.84271 0.65727 0.86768
 C161 C 0.85928 0.66559 0.85946
 N162 N 0.86752 0.65726 0.84289
 C163 C 0.85904 1.14185 0.33340
 N164 N 0.86725 1.15843 0.34174
 C165 C 0.85904 1.16677 0.35833
 N166 N 0.84249 1.15840 0.36657
 C167 C 0.83419 1.14183 0.35836
 N168 N 0.84250 1.13362 0.34178
 C169 C 0.64052 0.35882 0.33467
 N170 N 0.65708 0.36704 0.34298
 C171 C 0.66543 0.35879 0.35951
 N172 N 0.65716 0.34219 0.36771
 C173 C 0.64059 0.33384 0.35950
 N174 N 0.63234 0.34222 0.34296
 C175 C 0.64024 0.85968 0.83490
 N176 N 0.63203 0.84310 0.84319
 C177 C 0.64025 0.83477 0.85976
 N178 N 0.65681 0.84307 0.86799
 C179 C 0.66512 0.85965 0.85979
 N180 N 0.65681 0.86789 0.84322
 C181 C 0.14109 0.35792 0.83311
 N182 N 0.15761 0.36617 0.84150
 C183 C 0.16589 0.35798 0.85810
 N184 N 0.15760 0.34140 0.86631
 C185 C 0.14107 0.33301 0.85805
 N186 N 0.13289 0.34134 0.84144
 C187 C 0.14092 0.85909 0.33356
 N188 N 0.15745 0.86734 0.34195
 C189 C 0.16575 0.85915 0.35854
 N190 N 0.15745 0.84258 0.36676
 C191 C 0.14092 0.83423 0.35851
 N192 N 0.13272 0.84251 0.34191
 O193 O 1.07217 1.01964 1.09954
 O194 O 1.09541 1.01964 1.12287
 C195 C 1.07917 1.02644 1.11581
 C196 C 1.06852 1.04274 1.12631
 C197 C 1.07505 1.04944 1.14508
 H198 H 1.08764 1.04217 1.15215
 O199 O 0.92798 0.98080 1.09968
 O200 O 0.90478 0.98078 1.12306
 C201 C 0.92102 0.97398 1.11596
 C202 C 0.93170 0.95769 1.12644
 C203 C 0.92523 0.95100 1.14525
 H204 H 0.91267 0.95828 1.15237
 O205 O 1.01956 1.09952 1.07222
 O206 O 1.01959 1.12289 1.09541
 C207 C 1.02637 1.11580 1.07917
 C208 C 1.04262 1.12630 1.06844
 C209 C 1.04927 1.14512 1.07488
 H210 H 1.04200 1.15222 1.08746
 O211 O 0.98060 0.90083 1.07226
 O212 O 0.98055 0.87749 1.09549
 C213 C 0.97378 0.88457 1.07923
 C214 C 0.95752 0.87409 1.06852
 C215 C 0.95092 0.85523 1.07490
 H216 H 0.95823 0.84808 1.08743
 O217 O 1.09948 1.07226 1.01952
 O218 O 1.12282 1.09548 1.01953
 C219 C 1.11574 1.07924 1.02633
 C220 C 1.12623 1.06857 1.04264
 C221 C 1.14501 1.07506 1.04935
 H222 H 1.15211 1.08764 1.04210
 O223 O 0.90060 0.92824 1.01972
 O224 O 0.87726 0.90503 1.01976
 C225 C 0.88434 0.92127 1.02655
 C226 C 0.87386 0.93194 1.04285
 C227 C 0.85505 0.92548 1.04952
 H228 H 0.84795 0.91292 1.04223
 O229 O 0.98065 1.07222 1.09966
 O230 O 0.98064 1.09546 1.12298
 C231 C 0.97384 1.07922 1.11592
 C232 C 0.95754 1.06857 1.12644
 C233 C 0.95086 1.07509 1.14523
 H234 H 0.95815 1.08766 1.15231
 O235 O 1.01953 0.92815 1.09961
 O236 O 1.01952 0.90496 1.12298
 C237 C 1.02633 0.92119 1.11589
 C238 C 1.04263 0.93185 1.12637
 C239 C 1.04931 0.92538 1.14518
 H240 H 1.04202 0.91283 1.15229
 O241 O 1.09948 0.98070 1.07216
 O242 O 1.12285 0.98066 1.09535
 C243 C 1.11576 0.97388 1.07911
 C244 C 1.12623 0.95760 1.06840
 C245 C 1.14506 0.95095 1.07481
 H246 H 1.15220 0.95822 1.08736
 O247 O 0.90063 1.01974 1.07235
 O248 O 0.87730 1.01976 1.09559
 C249 C 0.88437 1.02655 1.07933
 C250 C 0.87387 1.04282 1.06863
 C251 C 0.85507 1.04951 1.07512
 H252 H 0.84799 1.04226 1.08772
 O253 O 0.92793 1.09952 1.01956
 O254 O 0.90476 1.12289 1.01964
 C255 C 0.92100 1.11579 1.02640
 C256 C 0.93173 1.12626 1.04267
 C257 C 0.92533 1.14509 1.04931
 H258 H 0.91278 1.15222 1.04202
 O259 O 1.07208 0.90068 1.01965
 O260 O 1.09529 0.87735 1.01965
 C261 C 1.07907 0.88443 1.02648
 C262 C 1.06843 0.87397 1.04282
 C263 C 1.07497 0.85522 1.04959
 H264 H 1.08756 0.84813 1.04234
 O265 O 0.92797 1.01973 1.09971
 O266 O 0.90477 1.01976 1.12308
 C267 C 0.92101 1.02654 1.11599
 C268 C 0.93170 1.04282 1.12647
 C269 C 0.92522 1.04954 1.14527
 H270 H 0.91263 1.04230 1.15237
 O271 O 1.07216 0.98070 1.09955
 O272 O 1.09540 0.98067 1.12288
 C273 C 1.07915 0.97389 1.11582
 C274 C 1.06846 0.95762 1.12634
 C275 C 1.07494 0.95094 1.14514
 H276 H 1.08752 0.95820 1.15224
 O277 O 1.01954 0.90077 1.07231
 O278 O 1.01953 0.87745 1.09556
 C279 C 1.02634 0.88451 1.07931
 C280 C 1.04264 0.87401 1.06865
 C281 C 1.04938 0.85527 1.07522
 H282 H 1.04214 0.84821 1.08784
 O283 O 0.98063 1.09947 1.07222
 O284 O 0.98062 1.12285 1.09540
 C285 C 0.97382 1.11574 1.07917
 C286 C 0.95754 1.12623 1.06847
 C287 C 0.95094 1.14507 1.07489
 H288 H 0.95825 1.15218 1.08744
 O289 O 0.90055 1.07223 1.01959
 O290 O 0.87723 1.09547 1.01967
 C291 C 0.88431 1.07922 1.02644
 C292 C 0.87384 1.06856 1.04277
 C293 C 0.85505 1.07504 1.04946
 H294 H 0.84794 1.08759 1.04216
 O295 O 1.09935 0.92808 1.01957
 O296 O 1.12270 0.90487 1.01955
 C297 C 1.11563 0.92112 1.02635
 C298 C 1.12616 0.93181 1.04260
 C299 C 1.14499 0.92536 1.04920
 H300 H 1.15207 0.91280 1.04189
 O301 O 0.98059 0.92816 1.09963
 O302 O 0.98054 0.90495 1.12299
 C303 C 0.97377 0.92119 1.11590
 C304 C 0.95749 0.93188 1.12641
 C305 C 0.95082 0.92540 1.14522
 H306 H 0.95809 0.91283 1.15231
 O307 O 1.01959 1.07222 1.09961
 O308 O 1.01963 1.09545 1.12294
 C309 C 1.02642 1.07921 1.11587
 C310 C 1.04273 1.06855 1.12635
 C311 C 1.04947 1.07506 1.14512
 H312 H 1.04223 1.08765 1.15223
 O313 O 0.90062 0.98081 1.07237
 O314 O 0.87728 0.98079 1.09560
 C315 C 0.88435 0.97400 1.07935
 C316 C 0.87386 0.95772 1.06867
 C317 C 0.85505 0.95106 1.07513
 H318 H 0.84795 0.95834 1.08771
 O319 O 1.09947 1.01964 1.07215
 O320 O 1.12284 1.01964 1.09534
 C321 C 1.11574 1.02645 1.07911
 C322 C 1.12622 1.04274 1.06843
 C323 C 1.14500 1.04943 1.07493
 H324 H 1.15209 1.04215 1.08751
 O325 O 0.92796 0.90092 1.01967
 O326 O 0.90475 0.87758 1.01970
 C327 C 0.92100 0.88465 1.02647
 C328 C 0.93171 0.87413 1.04272
 C329 C 0.92532 0.85527 1.04930
 H330 H 0.91278 0.84816 1.04198
 O331 O 1.07211 1.09956 1.01950
 O332 O 1.09531 1.12292 1.01950
 C333 C 1.07908 1.11583 1.02630
 C334 C 1.06839 1.12632 1.04259
 C335 C 1.07484 1.14513 1.04924
 H336 H 1.08738 1.15225 1.04193
 Cu337 Cu 1.08349 1.00017 1.08353
 Cu338 Cu 1.11147 1.00015 1.11145
 Cu339 Cu 0.91663 1.00027 1.08370
 Cu340 Cu 0.88870 1.00027 1.11168
 Cu341 Cu 1.00011 1.08352 1.08361
 Cu342 Cu 1.00012 1.11150 1.11152
 Cu343 Cu 1.00007 0.91680 1.08363
 Cu344 Cu 1.00003 0.88888 1.11160
 C345 C 1.05223 1.05227 1.11717
 H346 H 1.04729 1.04735 1.10258
 C347 C 1.06563 1.06559 1.15465
 C348 C 0.94795 0.94814 1.11724
 H349 H 0.95284 0.95305 1.10262
 C350 C 0.93470 0.93487 1.15480
 C351 C 1.05216 1.11713 1.05217
 H352 H 1.04728 1.10250 1.04730
 C353 C 1.06537 1.15469 1.06537
 C354 C 0.94794 0.88331 1.05231
 H355 H 0.95278 0.89796 1.04748
 C356 C 0.93483 0.84566 1.06537
 C357 C 1.11706 1.05229 1.05216
 H358 H 1.10246 1.04738 1.04724
 C359 C 1.15456 1.06558 1.06549
 C360 C 0.88304 0.94818 1.05240
 H361 H 0.89765 0.95307 1.04750
 C362 C 0.84549 0.93495 1.06565
 C363 C 0.94798 1.05232 1.11729
 H364 H 0.95289 1.04739 1.10268
 C365 C 0.93471 1.06567 1.15480
 C366 C 1.05219 0.94809 1.11718
 H367 H 1.04729 0.95299 1.10256
 C368 C 1.06545 0.93483 1.15472
 C369 C 1.11701 0.94806 1.05217
 H370 H 1.10237 0.95294 1.04732
 C371 C 1.15459 0.93483 1.06530
 C372 C 0.88302 1.05233 1.05233
 H373 H 0.89763 1.04742 1.04742
 C374 C 0.84550 1.06561 1.06563
 C375 C 0.94796 1.11705 1.05223
 H376 H 0.95281 1.10241 1.04737
 C377 C 0.93484 1.15466 1.06540
 C378 C 1.05215 0.88313 1.05234
 H379 H 1.04720 0.89770 1.04737
 C380 C 1.06554 0.84571 1.06579
 O381 O 1.07208 0.98070 0.90066
 O382 O 1.09528 0.98068 0.87728
 C383 C 1.07904 0.97389 0.88437
 C384 C 1.06836 0.95761 0.87389
 C385 C 1.07485 0.95093 0.85508
 H386 H 1.08742 0.95820 0.84798
 O387 O 0.92783 1.01977 0.90067
 O388 O 0.90461 1.01974 0.87733
 C389 C 0.92084 1.02656 0.88440
 C390 C 0.93149 1.04285 0.87389
 C391 C 0.92494 1.04958 0.85513
 H392 H 0.91234 1.04232 0.84807
 O393 O 0.98045 1.09961 0.92799
 O394 O 0.98046 1.12294 0.90476
 C395 C 0.97365 1.11587 0.92101
 C396 C 0.95735 1.12636 0.93168
 C397 C 0.95061 1.14511 0.92514
 H398 H 0.95786 1.15219 0.91254
 O399 O 1.01941 0.90083 0.92804
 O400 O 1.01939 0.87748 0.90483
 C401 C 1.02618 0.88454 0.92108
 C402 C 1.04241 0.87400 0.93180
 C403 C 1.04896 0.85513 0.92542
 H404 H 1.04164 0.84802 0.91288
 O405 O 1.09934 0.92802 0.98061
 O406 O 1.12267 0.90480 0.98056
 C407 C 1.11559 0.92104 0.97377
 C408 C 1.12608 0.93172 0.95747
 C409 C 1.14487 0.92523 0.95077
 H410 H 1.15195 0.91264 0.95804
 O411 O 0.90046 1.07230 0.98062
 O412 O 0.87714 1.09554 0.98065
 C413 C 0.88420 1.07930 0.97383
 C414 C 0.87370 1.06866 0.95750
 C415 C 0.85496 1.07521 0.95074
 H416 H 0.84787 1.08781 0.95797
 O417 O 1.01936 1.07219 0.90067
 O418 O 1.01940 1.09539 0.87729
 C419 C 1.02618 1.07915 0.88439
 C420 C 1.04245 1.06845 0.87389
 C421 C 1.04905 1.07486 0.85503
 H422 H 1.04173 1.08738 0.84791
 O423 O 0.98053 0.92824 0.90071
 O424 O 0.98048 0.90504 0.87734
 C425 C 0.97371 0.92128 0.88443
 C426 C 0.95745 0.93199 0.87393
 C427 C 0.95086 0.92559 0.85507
 H428 H 0.95818 0.91307 0.84794
 O429 O 1.09945 1.01963 0.92798
 O430 O 1.12278 1.01964 0.90473
 C431 C 1.11572 1.02643 0.92098
 C432 C 1.12622 1.04272 0.93165
 C433 C 1.14500 1.04940 0.92514
 H434 H 1.15209 1.04213 0.91255
 O435 O 0.90053 0.98084 0.92808
 O436 O 0.87718 0.98077 0.90487
 C437 C 0.88427 0.97401 0.92113
 C438 C 0.87378 0.95776 0.93186
 C439 C 0.85493 0.95114 0.92547
 H440 H 0.84780 0.95843 0.91292
 O441 O 1.07213 1.09956 0.98053
 O442 O 1.09533 1.12291 0.98049
 C443 C 1.07909 1.11582 0.97370
 C444 C 1.06840 1.12630 0.95740
 C445 C 1.07491 1.14507 0.95065
 H446 H 1.08750 1.15216 0.95788
 O447 O 0.92790 0.90092 0.98071
 O448 O 0.90469 0.87758 0.98071
 C449 C 0.92092 0.88466 0.97390
 C450 C 0.93159 0.87416 0.95761
 C451 C 0.92515 0.85534 0.95098
 H452 H 0.91261 0.84823 0.95830
 O453 O 0.92787 0.98084 0.90071
 O454 O 0.90467 0.98077 0.87736
 C455 C 0.92092 0.97401 0.88444
 C456 C 0.93163 0.95776 0.87394
 C457 C 0.92525 0.95116 0.85507
 H458 H 0.91271 0.95846 0.84795
 O459 O 1.07205 1.01963 0.90069
 O460 O 1.09524 1.01965 0.87730
 C461 C 1.07900 1.02643 0.88440
 C462 C 1.06828 1.04269 0.87389
 C463 C 1.07468 1.04930 0.85503
 H464 H 1.08723 1.04202 0.84791
 O465 O 0.98048 0.90089 0.92804
 O466 O 0.98042 0.87755 0.90482
 C467 C 0.97365 0.88463 0.92107
 C468 C 0.95737 0.87415 0.93177
 C469 C 0.95073 0.85533 0.92535
 H470 H 0.95802 0.84821 0.91279
 O471 O 1.01940 1.09957 0.92797
 O472 O 1.01945 1.12290 0.90473
 C473 C 1.02624 1.11582 0.92098
 C474 C 1.04256 1.12629 0.93163
 C475 C 1.04926 1.14506 0.92510
 H476 H 1.04198 1.15214 0.91252
 O477 O 0.90058 0.92827 0.98076
 O478 O 0.87723 0.90507 0.98076
 C479 C 0.88430 0.92130 0.97396
 C480 C 0.87379 0.93199 0.95770
 C481 C 0.85495 0.92558 0.95110
 H482 H 0.84783 0.91305 0.95843
 O483 O 1.09947 1.07224 0.98055
 O484 O 1.12281 1.09545 0.98052
 C485 C 1.11574 1.07921 0.97373
 C486 C 1.12623 1.06853 0.95744
 C487 C 1.14501 1.07501 0.95073
 H488 H 1.15211 1.08759 0.95799
 O489 O 1.01946 0.92814 0.90066
 O490 O 1.01946 0.90493 0.87731
 C491 C 1.02627 0.92116 0.88439
 C492 C 1.04257 0.93182 0.87389
 C493 C 1.04926 0.92534 0.85509
 H494 H 1.04199 0.91276 0.84799
 O495 O 0.98041 1.07232 0.90059
 O496 O 0.98042 1.09552 0.87723
 C497 C 0.97361 1.07930 0.88432
 C498 C 0.95729 1.06865 0.87384
 C499 C 0.95052 1.07518 0.85508
 H500 H 0.95776 1.08777 0.84798
 O501 O 0.90049 1.01977 0.92803
 O502 O 0.87715 1.01974 0.90481
 C503 C 0.88422 1.02656 0.92104
 C504 C 0.87373 1.04286 0.93170
 C505 C 0.85499 1.04960 0.92514
 H506 H 0.84792 1.04235 0.91253
 O507 O 1.09940 0.98069 0.92801
 O508 O 1.12273 0.98066 0.90477
 C509 C 1.11565 0.97386 0.92102
 C510 C 1.12612 0.95755 0.93169
 C511 C 1.14491 0.95085 0.92519
 H512 H 1.15202 0.95813 0.91262
 O513 O 1.07196 0.90072 0.98069
 O514 O 1.09515 0.87736 0.98064
 C515 C 1.07890 0.88445 0.97388
 C516 C 1.06818 0.87396 0.95762
 C517 C 1.07453 0.85509 0.95105
 H518 H 1.08704 0.84794 0.95838
 O519 O 0.92785 1.09958 0.98060
 O520 O 0.90467 1.12295 0.98064
 C521 C 0.92089 1.11586 0.97381
 C522 C 0.93155 1.12635 0.95749
 C523 C 0.92501 1.14510 0.95076
 H524 H 0.91242 1.15218 0.95801
 Cu525 Cu 1.08342 1.00017 0.91666
 Cu526 Cu 1.11135 1.00016 0.88868
 Cu527 Cu 0.91651 1.00030 0.91670
 Cu528 Cu 0.88856 1.00025 0.88875
 Cu529 Cu 1.08348 1.08358 1.00003
 Cu530 Cu 1.11140 1.11153 1.00001
 Cu531 Cu 1.08335 0.91670 1.00013
 Cu532 Cu 1.11129 0.88876 1.00009
 Cu533 Cu 0.91652 1.08358 1.00008
 Cu534 Cu 0.88861 1.11155 1.00016
 Cu535 Cu 0.91659 0.91691 1.00021
 Cu536 Cu 0.88864 0.88897 1.00024
 Cu537 Cu 0.99990 1.08360 0.91663
 Cu538 Cu 0.99994 1.11153 0.88866
 Cu539 Cu 0.99998 0.91685 0.91669
 Cu540 Cu 0.99993 0.88891 0.88873
 C541 C 1.05210 0.94808 0.88306
 H542 H 1.04719 0.95299 0.89768
 C543 C 1.06539 0.93480 0.84553
 C544 C 0.94779 1.05237 0.88302
 H545 H 0.95275 1.04743 0.89760
 C546 C 0.93435 1.06573 0.84557
 C547 C 0.94784 1.11720 0.94798
 H548 H 0.95278 1.10262 0.95292
 C549 C 0.93445 1.15464 0.93459
 C550 C 1.05200 0.88319 0.94802
 H551 H 1.04719 0.89786 0.95285
 C552 C 1.06500 0.84551 0.93496
 C553 C 1.11693 0.94800 0.94795
 H554 H 1.10233 0.95292 0.95286
 C555 C 1.15444 0.93470 0.93465
 C556 C 0.88286 1.05237 0.94800
 H557 H 0.89743 1.04742 0.95296
 C558 C 0.84544 1.06577 0.93456
 C559 C 1.05204 1.05224 0.88309
 H560 H 1.04719 1.04739 0.89775
 C561 C 1.06515 1.06538 0.84544
 C562 C 0.94786 0.94820 0.88314
 H563 H 0.95270 0.95304 0.89780
 C564 C 0.93477 0.93509 0.84548
 C565 C 1.11706 1.05226 0.94792
 H566 H 1.10245 1.04735 0.95284
 C567 C 1.15456 1.06554 0.93459
 C568 C 0.88298 0.94821 0.94809
 H569 H 0.89763 0.95306 0.95293
 C570 C 0.84535 0.93507 0.93500
 C571 C 1.05211 1.11714 0.94790
 H572 H 1.04718 1.10255 0.95285
 C573 C 1.06543 1.15460 0.93451
 C574 C 0.94782 0.88334 0.94802
 H575 H 0.95270 0.89797 0.95289
 C576 C 0.93464 0.84576 0.93487
 O577 O 0.98069 0.42771 0.40038
 O578 O 0.98068 0.40451 0.37702
 C579 C 0.97388 0.42074 0.38411
 C580 C 0.95759 0.43142 0.37363
 C581 C 0.95092 0.42498 0.35480
 H582 H 0.95821 0.41243 0.34767
 O583 O 1.01967 0.57186 0.40042
 O584 O 1.01966 0.59507 0.37707
 C585 C 1.02647 0.57884 0.38414
 C586 C 1.04277 0.56820 0.37363
 C587 C 1.04949 0.57476 0.35487
 H588 H 1.04222 0.58736 0.34782
 O589 O 0.90075 0.48025 0.42786
 O590 O 0.87740 0.48024 0.40465
 C591 C 0.88448 0.47344 0.42089
 C592 C 0.87399 0.45717 0.43159
 C593 C 0.85515 0.45054 0.42518
 H594 H 0.84802 0.45784 0.41264
 O595 O 1.09952 0.51923 0.42772
 O596 O 1.12288 0.51926 0.40451
 C597 C 1.11580 0.52603 0.42076
 C598 C 1.12630 0.54228 0.43148
 C599 C 1.14513 0.54892 0.42504
 H600 H 1.15224 0.54164 0.41247
 O601 O 0.92814 0.40028 0.48043
 O602 O 0.90493 0.37694 0.48040
 C603 C 0.92116 0.38402 0.47360
 C604 C 0.93183 0.37356 0.45728
 C605 C 0.92534 0.35478 0.45056
 H606 H 0.91277 0.34767 0.45784
 O607 O 1.07224 0.59915 0.48042
 O608 O 1.09547 0.62248 0.48038
 C609 C 1.07923 0.61541 0.47359
 C610 C 1.06854 0.62591 0.45731
 C611 C 1.07499 0.64472 0.45064
 H612 H 1.08756 0.65183 0.45791
 O613 O 0.92811 0.51918 0.40053
 O614 O 0.90490 0.51921 0.37717
 C615 C 0.92114 0.52599 0.38425
 C616 C 0.93185 0.54224 0.37374
 C617 C 0.92546 0.54883 0.35488
 H618 H 0.91292 0.54152 0.34775
 O619 O 1.07218 0.48034 0.40033
 O620 O 1.09541 0.48033 0.37698
 C621 C 1.07916 0.47353 0.38405
 C622 C 1.06849 0.45725 0.37355
 C623 C 1.07498 0.45059 0.35475
 H624 H 1.08755 0.45788 0.34765
 O625 O 1.01964 0.40041 0.42773
 O626 O 1.01968 0.37706 0.40451
 C627 C 1.02646 0.38415 0.42076
 C628 C 1.04275 0.37367 0.43145
 C629 C 1.04943 0.35488 0.42498
 H630 H 1.04217 0.34778 0.41240
 O631 O 0.98071 0.59918 0.42778
 O632 O 0.98067 0.62252 0.40454
 C633 C 0.97389 0.61544 0.42080
 C634 C 0.95761 0.62593 0.43148
 C635 C 0.95094 0.64474 0.42501
 H636 H 0.95823 0.65184 0.41244
 O637 O 0.90080 0.57183 0.48043
 O638 O 0.87743 0.59502 0.48042
 C639 C 0.88452 0.57878 0.47363
 C640 C 0.87401 0.56807 0.45738
 C641 C 0.85516 0.57448 0.45078
 H642 H 0.84805 0.58702 0.45809
 O643 O 1.09957 0.42776 0.48038
 O644 O 1.12290 0.40454 0.48036
 C645 C 1.11583 0.42077 0.47355
 C646 C 1.12631 0.43144 0.45723
 C647 C 1.14510 0.42496 0.45053
 H648 H 1.15221 0.41239 0.45780
 O649 O 0.98073 0.57178 0.40049
 O650 O 0.98069 0.59498 0.37712
 C651 C 0.97392 0.57874 0.38421
 C652 C 0.95765 0.56803 0.37372
 C653 C 0.95106 0.57442 0.35486
 H654 H 0.95837 0.58695 0.34772
 O655 O 1.01963 0.42770 0.40033
 O656 O 1.01966 0.40450 0.37698
 C657 C 1.02645 0.42074 0.38405
 C658 C 1.04273 0.43143 0.37355
 C659 C 1.04942 0.42496 0.35474
 H660 H 1.04216 0.41239 0.34764
 O661 O 1.09952 0.48031 0.42768
 O662 O 1.12288 0.48029 0.40446
 C663 C 1.11579 0.47350 0.42071
 C664 C 1.12628 0.45721 0.43140
 C665 C 1.14506 0.45053 0.42490
 H666 H 1.15215 0.45780 0.41231
 O667 O 0.90074 0.51918 0.42785
 O668 O 0.87739 0.51921 0.40464
 C669 C 0.88447 0.52599 0.42089
 C670 C 0.87398 0.54226 0.43159
 C671 C 0.85513 0.54887 0.42519
 H672 H 0.84799 0.54156 0.41266
 O673 O 0.92811 0.59919 0.48039
 O674 O 0.90488 0.62252 0.48038
 C675 C 0.92112 0.61545 0.47358
 C676 C 0.93180 0.62594 0.45728
 C677 C 0.92534 0.64474 0.45061
 H678 H 0.91277 0.65184 0.45789
 O679 O 1.07223 0.40042 0.48039
 O680 O 1.09543 0.37707 0.48038
 C681 C 1.07920 0.38416 0.47358
 C682 C 1.06852 0.37367 0.45728
 C683 C 1.07501 0.35488 0.45060
 H684 H 1.08757 0.34778 0.45789
 O685 O 1.07225 0.51928 0.40030
 O686 O 1.09548 0.51931 0.37696
 C687 C 1.07924 0.52611 0.38404
 C688 C 1.06858 0.54242 0.37357
 C689 C 1.07510 0.54920 0.35481
 H690 H 1.08770 0.54197 0.34770
 O691 O 0.92807 0.48025 0.40048
 O692 O 0.90485 0.48025 0.37713
 C693 C 0.92109 0.47346 0.38420
 C694 C 0.93178 0.45719 0.37368
 C695 C 0.92532 0.45056 0.35486
 H696 H 0.91275 0.45785 0.34777
 O697 O 1.01965 0.59915 0.42782
 O698 O 1.01965 0.62249 0.40459
 C699 C 1.02645 0.61541 0.42084
 C700 C 1.04273 0.62591 0.43152
 C701 C 1.04938 0.64471 0.42505
 H702 H 1.04208 0.65182 0.41249
 O703 O 0.98070 0.40036 0.42772
 O704 O 0.98069 0.37702 0.40450
 C705 C 0.97390 0.38410 0.42075
 C706 C 0.95762 0.37360 0.43144
 C707 C 0.95092 0.35482 0.42493
 H708 H 0.95818 0.34774 0.41233
 O709 O 1.09955 0.57178 0.48042
 O710 O 1.12291 0.59497 0.48039
 C711 C 1.11582 0.57874 0.47360
 C712 C 1.12631 0.56805 0.45732
 C713 C 1.14514 0.57448 0.45068
 H714 H 1.15226 0.58702 0.45798
 O715 O 0.90080 0.42762 0.48045
 O716 O 0.87746 0.40441 0.48044
 C717 C 0.88453 0.42066 0.47365
 C718 C 0.87402 0.43136 0.45739
 C719 C 0.85519 0.42494 0.45078
 H720 H 0.84808 0.41239 0.45809
 Cu721 Cu 1.00017 0.41637 0.41637
 Cu722 Cu 1.00018 0.38843 0.38841
 Cu723 Cu 1.00019 0.58317 0.41646
 Cu724 Cu 1.00016 0.61110 0.38849
 Cu725 Cu 0.91674 0.49971 0.41651
 Cu726 Cu 0.88879 0.49973 0.38856
 Cu727 Cu 1.08353 0.49979 0.41633
 Cu728 Cu 1.11150 0.49980 0.38839
 C729 C 0.94803 0.44764 0.38284
 H730 H 0.95292 0.45251 0.39747
 C731 C 0.93480 0.43446 0.34526
 C732 C 1.05229 0.55191 0.38276
 H733 H 1.04736 0.54694 0.39734
 C734 C 1.06565 0.56536 0.34530
 C735 C 0.88320 0.44760 0.44782
 H736 H 0.89784 0.45246 0.45267
 C737 C 0.84559 0.43444 0.43469
 C738 C 1.11712 0.55183 0.44774
 H739 H 1.10248 0.54696 0.45261
 C740 C 1.15470 0.56501 0.43455
 C741 C 0.94809 0.38274 0.44773
 H742 H 0.95300 0.39734 0.45266
 C743 C 0.93480 0.34525 0.43440
 C744 C 1.05229 0.61673 0.44777
 H745 H 1.04740 0.60211 0.45266
 C746 C 1.06550 0.65428 0.43452
 C747 C 0.94807 0.55182 0.38294
 H748 H 0.95291 0.54698 0.39760
 C749 C 0.93497 0.56491 0.34528
 C750 C 1.05224 0.44770 0.38273
 H751 H 1.04733 0.45259 0.39735
 C752 C 1.06554 0.43445 0.34518
 C753 C 1.05227 0.38284 0.44773
 H754 H 1.04736 0.39745 0.45263
 C755 C 1.06556 0.34533 0.43446
 C756 C 0.94806 0.61676 0.44774
 H757 H 0.95295 0.60215 0.45264
 C758 C 0.93482 0.65430 0.43448
 C759 C 0.88319 0.55184 0.44780
 H760 H 0.89784 0.54699 0.45264
 C761 C 0.84556 0.56496 0.43471
 C762 C 1.11712 0.44769 0.44768
 H763 H 1.10252 0.45259 0.45260
 C764 C 1.15464 0.43441 0.43437
 O765 O 1.01955 0.42771 0.59946
 O766 O 1.01959 0.40448 0.62279
 C767 C 1.02638 0.42072 0.61572
 C768 C 1.04268 0.43137 0.62620
 C769 C 1.04939 0.42485 0.64498
 H770 H 1.04210 0.41228 0.65207
 O771 O 0.98066 0.57185 0.59925
 O772 O 0.98063 0.59503 0.62263
 C773 C 0.97384 0.57880 0.61553
 C774 C 0.95757 0.56810 0.62604
 C775 C 0.95094 0.57453 0.64487
 H776 H 0.95823 0.58708 0.65198
 O777 O 0.90075 0.51916 0.57199
 O778 O 0.87738 0.51921 0.59520
 C779 C 0.88448 0.52599 0.57895
 C780 C 0.87400 0.54226 0.56825
 C781 C 0.85516 0.54889 0.57466
 H782 H 0.84803 0.54159 0.58720
 O783 O 1.09955 0.48025 0.57202
 O784 O 1.12289 0.48025 0.59525
 C785 C 1.11582 0.47346 0.57900
 C786 C 1.12632 0.45718 0.56831
 C787 C 1.14510 0.45049 0.57481
 H788 H 1.15218 0.45774 0.58740
 O789 O 1.07220 0.40045 0.51936
 O790 O 1.09539 0.37710 0.51938
 C791 C 1.07916 0.38418 0.52617
 C792 C 1.06846 0.37369 0.54246
 C793 C 1.07488 0.35486 0.54909
 H794 H 1.08743 0.34774 0.54178
 O795 O 0.92812 0.59920 0.51935
 O796 O 0.90490 0.62253 0.51937
 C797 C 0.92115 0.61547 0.52615
 C798 C 0.93184 0.62598 0.54241
 C799 C 0.92543 0.64482 0.54902
 H800 H 0.91289 0.65193 0.54172
 O801 O 0.92804 0.48023 0.59940
 O802 O 0.90480 0.48024 0.62273
 C803 C 0.92104 0.47343 0.61567
 C804 C 0.93167 0.45712 0.62618
 C805 C 0.92508 0.45038 0.64492
 H806 H 0.91247 0.45764 0.65197
 O807 O 1.07216 0.51915 0.59936
 O808 O 1.09535 0.51919 0.62274
 C809 C 1.07910 0.52596 0.61564
 C810 C 1.06838 0.54221 0.62614
 C811 C 1.07471 0.54877 0.64503
 H812 H 1.08722 0.54144 0.65219
 O813 O 0.98062 0.40035 0.57211
 O814 O 0.98063 0.37699 0.59532
 C815 C 0.97383 0.38407 0.57908
 C816 C 0.95756 0.37357 0.56839
 C817 C 0.95084 0.35480 0.57491
 H818 H 0.95807 0.34772 0.58752
 O819 O 1.01964 0.59921 0.57198
 O820 O 1.01966 0.62252 0.59522
 C821 C 1.02646 0.61546 0.57897
 C822 C 1.04277 0.62594 0.56830
 C823 C 1.04947 0.64472 0.57479
 H824 H 1.04221 0.65183 0.58737
 O825 O 0.90079 0.42759 0.51941
 O826 O 0.87745 0.40439 0.51943
 C827 C 0.88452 0.42063 0.52622
 C828 C 0.87402 0.43131 0.54250
 C829 C 0.85521 0.42486 0.54917
 H830 H 0.84810 0.41230 0.54189
 O831 O 1.09954 0.57179 0.51939
 O832 O 1.12290 0.59498 0.51939
 C833 C 1.11581 0.57876 0.52620
 C834 C 1.12629 0.56809 0.54251
 C835 C 1.14507 0.57459 0.54920
 H836 H 1.15216 0.58716 0.54192
 O837 O 1.01959 0.57181 0.59927
 O838 O 1.01959 0.59499 0.62266
 C839 C 1.02637 0.57875 0.61557
 C840 C 1.04260 0.56802 0.62609
 C841 C 1.04913 0.57437 0.64499
 H842 H 1.04180 0.58690 0.65211
 O843 O 0.98060 0.42766 0.59949
 O844 O 0.98059 0.40443 0.62283
 C845 C 0.97378 0.42067 0.61576
 C846 C 0.95745 0.43131 0.62623
 C847 C 0.95066 0.42477 0.64498
 H848 H 0.95787 0.41216 0.65208
 O849 O 1.09955 0.51919 0.57205
 O850 O 1.12288 0.51923 0.59529
 C851 C 1.11581 0.52602 0.57904
 C852 C 1.12629 0.54231 0.56835
 C853 C 1.14507 0.54902 0.57484
 H854 H 1.15217 0.54177 0.58743
 O855 O 0.90076 0.48022 0.57199
 O856 O 0.87739 0.48024 0.59520
 C857 C 0.88448 0.47343 0.57896
 C858 C 0.87400 0.45714 0.56828
 C859 C 0.85519 0.45049 0.57475
 H860 H 0.84807 0.45778 0.58730
 O861 O 1.07224 0.59916 0.51938
 O862 O 1.09547 0.62248 0.51938
 C863 C 1.07922 0.61542 0.52618
 C864 C 1.06856 0.62591 0.54248
 C865 C 1.07506 0.64469 0.54916
 H866 H 1.08764 0.65178 0.54187
 O867 O 0.92814 0.40027 0.51940
 O868 O 0.90492 0.37693 0.51942
 C869 C 0.92116 0.38401 0.52622
 C870 C 0.93181 0.37353 0.54254
 C871 C 0.92530 0.35477 0.54926
 H872 H 0.91272 0.34767 0.54198
 O873 O 1.07224 0.48022 0.59941
 O874 O 1.09544 0.48022 0.62278
 C875 C 1.07921 0.47341 0.61569
 C876 C 1.06853 0.45712 0.62619
 C877 C 1.07503 0.45040 0.64497
 H878 H 1.08763 0.45763 0.65207
 O879 O 0.92810 0.51917 0.59932
 O880 O 0.90487 0.51922 0.62267
 C881 C 0.92112 0.52599 0.61558
 C882 C 0.93180 0.54228 0.62607
 C883 C 0.92537 0.54891 0.64491
 H884 H 0.91283 0.54161 0.65204
 O885 O 0.98071 0.59922 0.57193
 O886 O 0.98068 0.62254 0.59517
 C887 C 0.97390 0.61548 0.57891
 C888 C 0.95764 0.62599 0.56821
 C889 C 0.95103 0.64483 0.57462
 H890 H 0.95834 0.65195 0.58717
 O891 O 1.01956 0.40042 0.57206
 O892 O 1.01960 0.37706 0.59526
 C893 C 1.02638 0.38416 0.57901
 C894 C 1.04266 0.37368 0.56829
 C895 C 1.04929 0.35485 0.57471
 H896 H 1.04199 0.34773 0.58726
 O897 O 1.09959 0.42774 0.51935
 O898 O 1.12292 0.40452 0.51937
 C899 C 1.11585 0.42075 0.52617
 C900 C 1.12634 0.43141 0.54247
 C901 C 1.14512 0.42492 0.54918
 H902 H 1.15222 0.41235 0.54190
 O903 O 0.90082 0.57183 0.51938
 O904 O 0.87746 0.59502 0.51940
 C905 C 0.88455 0.57879 0.52619
 C906 C 0.87404 0.56808 0.54246
 C907 C 0.85520 0.57450 0.54907
 H908 H 0.84810 0.58706 0.54177
 Cu909 Cu 1.00008 0.41636 0.58346
 Cu910 Cu 1.00011 0.38840 0.61139
 Cu911 Cu 1.00015 0.58320 0.58327
 Cu912 Cu 1.00014 0.61111 0.61126
 Cu913 Cu 0.91680 0.41626 0.49992
 Cu914 Cu 0.88885 0.38832 0.49992
 Cu915 Cu 1.08357 0.41642 0.49987
 Cu916 Cu 1.11150 0.38847 0.49987
 Cu917 Cu 0.91679 0.58319 0.49989
 Cu918 Cu 0.88883 0.61111 0.49989
 Cu919 Cu 1.08356 0.58315 0.49990
 Cu920 Cu 1.11153 0.61106 0.49988
 Cu921 Cu 0.91674 0.49969 0.58335
 Cu922 Cu 0.88877 0.49973 0.61129
 Cu923 Cu 1.08355 0.49970 0.58339
 Cu924 Cu 1.11148 0.49973 0.61135
 C925 C 1.05223 0.44763 0.61703
 H926 H 1.04731 0.45256 0.60243
 C927 C 1.06555 0.43427 0.65453
 C928 C 0.94802 0.55185 0.61686
 H929 H 0.95289 0.54699 0.60222
 C930 C 0.93485 0.56503 0.65447
 C931 C 0.88322 0.55184 0.55202
 H932 H 0.89786 0.54698 0.54716
 C933 C 0.84560 0.56500 0.56516
 C934 C 1.11716 0.44767 0.55202
 H935 H 1.10256 0.45258 0.54710
 C936 C 1.15466 0.43436 0.56533
 C937 C 1.05222 0.38288 0.55204
 H938 H 1.04736 0.39751 0.54718
 C939 C 1.06539 0.34528 0.56520
 C940 C 0.94807 0.61679 0.55199
 H941 H 0.95292 0.60215 0.54713
 C942 C 0.93494 0.65440 0.56511
 C943 C 0.94798 0.44761 0.61706
 H944 H 0.95296 0.45256 0.60249
 C945 C 0.93447 0.43421 0.65448
 C946 C 1.05220 0.55181 0.61689
 H947 H 1.04740 0.54700 0.60221
 C948 C 1.06517 0.56484 0.65462
 C949 C 0.94806 0.38271 0.55208
 H950 H 0.95299 0.39730 0.54715
 C951 C 0.93471 0.34524 0.56544
 C952 C 1.05229 0.61676 0.55203
 H953 H 1.04737 0.60217 0.54712
 C954 C 1.06561 0.65426 0.56530
 C955 C 0.88319 0.44757 0.55204
 H956 H 0.89781 0.45246 0.54715
 C957 C 0.84563 0.43436 0.56528
 C958 C 1.11712 0.55183 0.55206
 H959 H 1.10252 0.54691 0.54715
 C960 C 1.15462 0.56515 0.56536
 O961 O 0.48055 0.92828 0.40046
 O962 O 0.48053 0.90507 0.37712
 C963 C 0.47375 0.92131 0.38419
 C964 C 0.45748 0.93199 0.37368
 C965 C 0.45084 0.92552 0.35486
 H966 H 0.45815 0.91296 0.34777
 O967 O 0.51948 1.07234 0.40034
 O968 O 0.51952 1.09559 0.37702
 C969 C 0.52630 1.07934 0.38408
 C970 C 0.54259 1.06867 0.37357
 C971 C 0.54928 1.07518 0.35478
 H972 H 0.54201 1.08776 0.34770
 O973 O 0.40062 0.98089 0.42778
 O974 O 0.37727 0.98087 0.40456
 C975 C 0.38434 0.97409 0.42081
 C976 C 0.37383 0.95783 0.43152
 C977 C 0.35502 0.95119 0.42506
 H978 H 0.34792 0.95847 0.41249
 O979 O 0.59943 1.01977 0.42767
 O980 O 0.62278 1.01978 0.40445
 C981 C 0.61571 1.02657 0.42070
 C982 C 0.62622 1.04282 0.43141
 C983 C 0.64501 1.04950 0.42493
 H984 H 0.65210 1.04226 0.41233
 O985 O 0.42786 0.90093 0.48043
 O986 O 0.40463 0.87760 0.48038
 C987 C 0.42088 0.88467 0.47360
 C988 C 0.43157 0.87419 0.45731
 C989 C 0.42513 0.85538 0.45064
 H990 H 0.41256 0.84827 0.45791
 O991 O 0.57216 1.09953 0.48042
 O992 O 0.59534 1.12289 0.48039
 C993 C 0.57911 1.11580 0.47360
 C994 C 0.56842 1.12630 0.45732
 C995 C 0.57485 1.14513 0.45070
 H996 H 0.58740 1.15223 0.45800
 O997 O 0.42797 1.01980 0.40040
 O998 O 0.40476 1.01981 0.37705
 C999 C 0.42100 1.02661 0.38413
 C1000 C 0.43166 1.04290 0.37362
 C1001 C 0.42515 1.04958 0.35483
 H1002 H 0.41257 1.04230 0.34776
 O1003 O 0.57207 0.98086 0.40033
 O1004 O 0.59528 0.98081 0.37697
 C1005 C 0.57904 0.97403 0.38407
 C1006 C 0.56836 0.95774 0.37360
 C1007 C 0.57482 0.95104 0.35479
 H1008 H 0.58739 0.95831 0.34766
 O1009 O 0.51945 0.90092 0.42782
 O1010 O 0.51946 0.87756 0.40461
 C1011 C 0.52625 0.88464 0.42086
 C1012 C 0.54250 0.87414 0.43157
 C1013 C 0.54910 0.85529 0.42518
 H1014 H 0.54179 0.84816 0.41264
 O1015 O 0.48057 1.09968 0.42774
 O1016 O 0.48057 1.12305 0.40455
 C1017 C 0.47378 1.11596 0.42079
 C1018 C 0.45751 1.12646 0.43150
 C1019 C 0.45086 1.14527 0.42505
 H1020 H 0.45813 1.15237 0.41247
 O1021 O 0.40061 1.07243 0.48038
 O1022 O 0.37729 1.09565 0.48036
 C1023 C 0.38436 1.07942 0.47356
 C1024 C 0.37388 1.06876 0.45724
 C1025 C 0.35511 1.07526 0.45051
 H1026 H 0.34801 1.08785 0.45776
 O1027 O 0.59935 0.92829 0.48038
 O1028 O 0.62269 0.90507 0.48037
 C1029 C 0.61562 0.92131 0.47357
 C1030 C 0.62611 0.93197 0.45726
 C1031 C 0.64492 0.92550 0.45060
 H1032 H 0.65202 0.91295 0.45790
 O1033 O 0.48054 1.07238 0.40034
 O1034 O 0.48053 1.09562 0.37701
 C1035 C 0.47373 1.07938 0.38408
 C1036 C 0.45743 1.06872 0.37359
 C1037 C 0.45071 1.07521 0.35480
 H1038 H 0.45795 1.08779 0.34769
 O1039 O 0.51949 0.92825 0.40045
 O1040 O 0.51950 0.90502 0.37711
 C1041 C 0.52629 0.92126 0.38418
 C1042 C 0.54257 0.93193 0.37366
 C1043 C 0.54924 0.92544 0.35485
 H1044 H 0.54196 0.91286 0.34777
 O1045 O 0.59938 0.98085 0.42769
 O1046 O 0.62274 0.98080 0.40447
 C1047 C 0.61565 0.97403 0.42073
 C1048 C 0.62613 0.95775 0.43143
 C1049 C 0.64493 0.95108 0.42497
 H1050 H 0.65205 0.95835 0.41240
 O1051 O 0.40064 1.01982 0.42776
 O1052 O 0.37730 1.01984 0.40454
 C1053 C 0.38438 1.02664 0.42078
 C1054 C 0.37390 1.04294 0.43145
 C1055 C 0.35513 1.04965 0.42493
 H1056 H 0.34805 1.04237 0.41234
 O1057 O 0.42801 1.09971 0.48044
 O1058 O 0.40481 1.12307 0.48043
 C1059 C 0.42105 1.11598 0.47363
 C1060 C 0.43174 1.12647 0.45735
 C1061 C 0.42529 1.14528 0.45069
 H1062 H 0.41274 1.15239 0.45799
 O1063 O 0.57202 0.90094 0.48042
 O1064 O 0.59523 0.87759 0.48042
 C1065 C 0.57899 0.88467 0.47363
 C1066 C 0.56829 0.87415 0.45737
 C1067 C 0.57469 0.85530 0.45079
 H1068 H 0.58722 0.84819 0.45811
 O1069 O 0.57210 1.01979 0.40031
 O1070 O 0.59531 1.01980 0.37695
 C1071 C 0.57908 1.02660 0.38404
 C1072 C 0.56841 1.04289 0.37355
 C1073 C 0.57490 1.04961 0.35475
 H1074 H 0.58748 1.04236 0.34765
 O1075 O 0.42795 0.98087 0.40040
 O1076 O 0.40474 0.98084 0.37705
 C1077 C 0.42098 0.97405 0.38413
 C1078 C 0.43167 0.95777 0.37364
 C1079 C 0.42523 0.95110 0.35482
 H1080 H 0.41267 0.95836 0.34769
 O1081 O 0.51950 1.09961 0.42776
 O1082 O 0.51955 1.12299 0.40457
 C1083 C 0.52633 1.11588 0.42081
 C1084 C 0.54262 1.12634 0.43152
 C1085 C 0.54926 1.14517 0.42510
 H1086 H 0.54197 1.15230 0.41255
 O1087 O 0.48051 0.90095 0.42782
 O1088 O 0.48049 0.87760 0.40460
 C1089 C 0.47370 0.88468 0.42084
 C1090 C 0.45740 0.87420 0.43152
 C1091 C 0.45076 0.85539 0.42506
 H1092 H 0.45806 0.84829 0.41250
 O1093 O 0.59951 1.07221 0.48043
 O1094 O 0.62283 1.09544 0.48040
 C1095 C 0.61576 1.07920 0.47360
 C1096 C 0.62625 1.06855 0.45729
 C1097 C 0.64504 1.07503 0.45060
 H1098 H 0.65215 1.08757 0.45791
 O1099 O 0.40055 0.92830 0.48044
 O1100 O 0.37719 0.90511 0.48040
 C1101 C 0.38428 0.92134 0.47362
 C1102 C 0.37380 0.93204 0.45734
 C1103 C 0.35499 0.92560 0.45068
 H1104 H 0.34787 0.91305 0.45797
 Cu1105 Cu 0.50000 0.91692 0.41647
 Cu1106 Cu 0.50000 0.88897 0.38852
 Cu1107 Cu 0.50002 1.08367 0.41637
 Cu1108 Cu 0.50005 1.11165 0.38845
 Cu1109 Cu 0.41662 1.00034 0.41641
 Cu1110 Cu 0.38868 1.00034 0.38846
 Cu1111 Cu 0.58342 1.00032 0.41633
 Cu1112 Cu 0.61137 1.00030 0.38837
 C1113 C 0.44791 0.94824 0.38285
 H1114 H 0.45279 0.95313 0.39747
 C1115 C 0.43473 0.93498 0.34527
 C1116 C 0.55213 1.05241 0.38273
 H1117 H 0.54722 1.04748 0.39734
 C1118 C 0.56543 1.06575 0.34521
 C1119 C 0.38300 0.94827 0.44778
 H1120 H 0.39762 0.95314 0.45266
 C1121 C 0.34544 0.93509 0.43455
 C1122 C 0.61706 1.05232 0.44771
 H1123 H 0.60245 1.04742 0.45261
 C1124 C 0.65459 1.06560 0.43444
 C1125 C 0.44784 0.88337 0.44777
 H1126 H 0.45272 0.89799 0.45267
 C1127 C 0.43463 0.84582 0.43452
 C1128 C 0.55217 1.11713 0.44775
 H1129 H 0.54730 1.10250 0.45261
 C1130 C 0.56537 1.15472 0.43460
 C1131 C 0.44792 1.05244 0.38277
 H1132 H 0.45285 1.04753 0.39737
 C1133 C 0.43457 1.06572 0.34526
 C1134 C 0.55211 0.94820 0.38280
 H1135 H 0.54722 0.95312 0.39742
 C1136 C 0.56535 0.93490 0.34526
 C1137 C 0.55207 0.88334 0.44779
 H1138 H 0.54723 0.89799 0.45263
 C1139 C 0.56518 0.84571 0.43470
 C1140 C 0.44798 1.11729 0.44778
 H1141 H 0.45286 1.10267 0.45266
 C1142 C 0.43475 1.15484 0.43456
 C1143 C 0.38305 1.05248 0.44772
 H1144 H 0.39764 1.04755 0.45266
 C1145 C 0.34558 1.06580 0.43436
 C1146 C 0.61694 0.94822 0.44770
 H1147 H 0.60232 0.95311 0.45258
 C1148 C 0.65449 0.93496 0.43447
 O1149 O 0.51931 0.92824 0.59932
 O1150 O 0.51935 0.90504 0.62269
 C1151 C 0.52612 0.92128 0.61560
 C1152 C 0.54239 0.93198 0.62610
 C1153 C 0.54897 0.92557 0.64496
 H1154 H 0.54165 0.91304 0.65209
 O1155 O 0.48052 1.07229 0.59945
 O1156 O 0.48051 1.09552 0.62278
 C1157 C 0.47371 1.07928 0.61571
 C1158 C 0.45738 1.06864 0.62619
 C1159 C 0.45067 1.07516 0.64497
 H1160 H 0.45795 1.08773 0.65206
 O1161 O 0.40055 1.01977 0.57201
 O1162 O 0.37718 1.01980 0.59521
 C1163 C 0.38427 1.02658 0.57896
 C1164 C 0.37378 1.04283 0.56823
 C1165 C 0.35493 1.04944 0.57462
 H1166 H 0.34779 1.04215 0.58716
 O1167 O 0.59937 0.98086 0.57203
 O1168 O 0.62270 0.98078 0.59526
 C1169 C 0.61563 0.97403 0.57899
 C1170 C 0.62613 0.95778 0.56827
 C1171 C 0.64497 0.95117 0.57466
 H1172 H 0.65210 0.95846 0.58721
 O1173 O 0.57201 0.90098 0.51938
 O1174 O 0.59522 0.87764 0.51941
 C1175 C 0.57897 0.88472 0.52619
 C1176 C 0.56827 0.87421 0.54247
 C1177 C 0.57470 0.85538 0.54909
 H1178 H 0.58726 0.84828 0.54179
 O1179 O 0.42794 1.09970 0.51941
 O1180 O 0.40474 1.12304 0.51944
 C1181 C 0.42097 1.11595 0.52624
 C1182 C 0.43163 1.12641 0.54257
 C1183 C 0.42513 1.14518 0.54931
 H1184 H 0.41254 1.15228 0.54205
 O1185 O 0.42786 0.98085 0.59939
 O1186 O 0.40464 0.98085 0.62275
 C1187 C 0.42088 0.97405 0.61567
 C1188 C 0.43154 0.95776 0.62616
 C1189 C 0.42507 0.95109 0.64497
 H1190 H 0.41251 0.95839 0.65208
 O1191 O 0.57206 1.01979 0.59943
 O1192 O 0.59526 1.01974 0.62279
 C1193 C 0.57904 1.02657 0.61571
 C1194 C 0.56839 1.04287 0.62622
 C1195 C 0.57495 1.04959 0.64497
 H1196 H 0.58754 1.04233 0.65203
 O1197 O 0.48039 0.90086 0.57201
 O1198 O 0.48038 0.87751 0.59523
 C1199 C 0.47358 0.88459 0.57899
 C1200 C 0.45730 0.87411 0.56830
 C1201 C 0.45060 0.85531 0.57477
 H1202 H 0.45786 0.84820 0.58735
 O1203 O 0.51948 1.09958 0.57205
 O1204 O 0.51950 1.12295 0.59524
 C1205 C 0.52629 1.11585 0.57900
 C1206 C 0.54256 1.12633 0.56828
 C1207 C 0.54921 1.14516 0.57468
 H1208 H 0.54193 1.15229 0.58724
 O1209 O 0.40053 0.92826 0.51941
 O1210 O 0.37717 0.90507 0.51941
 C1211 C 0.38426 0.92129 0.52622
 C1212 C 0.37377 0.93195 0.54254
 C1213 C 0.35500 0.92544 0.54924
 H1214 H 0.34791 0.91286 0.54197
 O1215 O 0.59955 1.07227 0.51940
 O1216 O 0.62287 1.09550 0.51942
 C1217 C 0.61580 1.07927 0.52623
 C1218 C 0.62626 1.06863 0.54257
 C1219 C 0.64500 1.07517 0.54935
 H1220 H 0.65211 1.08775 0.54211
 O1221 O 0.51948 1.07234 0.59951
 O1222 O 0.51951 1.09558 0.62283
 C1223 C 0.52630 1.07933 0.61577
 C1224 C 0.54261 1.06868 0.62625
 C1225 C 0.54937 1.07520 0.64502
 H1226 H 0.54215 1.08780 0.65211
 O1227 O 0.48038 0.92821 0.59935
 O1228 O 0.48037 0.90500 0.62271
 C1229 C 0.47358 0.92124 0.61564
 C1230 C 0.45730 0.93193 0.62614
 C1231 C 0.45062 0.92546 0.64496
 H1232 H 0.45788 0.91288 0.65206
 O1233 O 0.59940 1.01979 0.57207
 O1234 O 0.62273 1.01974 0.59531
 C1235 C 0.61567 1.02657 0.57907
 C1236 C 0.62618 1.04286 0.56841
 C1237 C 0.64493 1.04959 0.57498
 H1238 H 0.65197 1.04234 0.58761
 O1239 O 0.40051 0.98084 0.57207
 O1240 O 0.37715 0.98083 0.59528
 C1241 C 0.38424 0.97403 0.57904
 C1242 C 0.37376 0.95773 0.56836
 C1243 C 0.35498 0.95101 0.57487
 H1244 H 0.34789 0.95826 0.58746
 O1245 O 0.57211 1.09951 0.51938
 O1246 O 0.59530 1.12287 0.51938
 C1247 C 0.57906 1.11578 0.52618
 C1248 C 0.56836 1.12628 0.54245
 C1249 C 0.57479 1.14511 0.54906
 H1250 H 0.58734 1.15221 0.54174
 O1251 O 0.42785 0.90091 0.51939
 O1252 O 0.40462 0.87758 0.51938
 C1253 C 0.42086 0.88464 0.52619
 C1254 C 0.43152 0.87414 0.54248
 C1255 C 0.42504 0.85534 0.54914
 H1256 H 0.41247 0.84826 0.54185
 O1257 O 0.57198 0.98085 0.59935
 O1258 O 0.59517 0.98077 0.62272
 C1259 C 0.57892 0.97402 0.61562
 C1260 C 0.56820 0.95776 0.62611
 C1261 C 0.57458 0.95115 0.64497
 H1262 H 0.58711 0.95845 0.65211
 O1263 O 0.42783 1.01979 0.59942
 O1264 O 0.40460 1.01983 0.62276
 C1265 C 0.42085 1.02661 0.61569
 C1266 C 0.43153 1.04290 0.62618
 C1267 C 0.42502 1.04963 0.64496
 H1268 H 0.41241 1.04240 0.65205
 O1269 O 0.48053 1.09962 0.57209
 O1270 O 0.48052 1.12298 0.59529
 C1271 C 0.47372 1.11589 0.57906
 C1272 C 0.45743 1.12638 0.56838
 C1273 C 0.45072 1.14514 0.57491
 H1274 H 0.45798 1.15221 0.58750
 O1275 O 0.51933 0.90090 0.57198
 O1276 O 0.51937 0.87756 0.59520
 C1277 C 0.52615 0.88465 0.57895
 C1278 C 0.54244 0.87417 0.56826
 C1279 C 0.54908 0.85534 0.57468
 H1280 H 0.54177 0.84821 0.58722
 O1281 O 0.59936 0.92831 0.51935
 O1282 O 0.62270 0.90510 0.51937
 C1283 C 0.61563 0.92134 0.52616
 C1284 C 0.62613 0.93203 0.54243
 C1285 C 0.64497 0.92562 0.54902
 H1286 H 0.65209 0.91309 0.54169
 O1287 O 0.40062 1.07234 0.51934
 O1288 O 0.37728 1.09556 0.51936
 C1289 C 0.38434 1.07931 0.52614
 C1290 C 0.37382 1.06861 0.54240
 C1291 C 0.35497 1.07502 0.54899
 H1292 H 0.34786 1.08755 0.54166
 Cu1293 Cu 0.49985 0.91688 0.58334
 Cu1294 Cu 0.49987 0.88894 0.61130
 Cu1295 Cu 0.50001 1.08362 0.58346
 Cu1296 Cu 0.50001 1.11160 0.61137
 Cu1297 Cu 0.41652 0.91692 0.49992
 Cu1298 Cu 0.38856 0.88900 0.49989
 Cu1299 Cu 0.58336 0.91696 0.49988
 Cu1300 Cu 0.61130 0.88901 0.49990
 Cu1301 Cu 0.41662 1.08372 0.49989
 Cu1302 Cu 0.38869 1.11167 0.49990
 Cu1303 Cu 0.58351 1.08354 0.49991
 Cu1304 Cu 0.61142 1.11152 0.49990
 Cu1305 Cu 0.41652 1.00031 0.58340
 Cu1306 Cu 0.38855 1.00033 0.61134
 Cu1307 Cu 0.58338 1.00033 0.58339
 Cu1308 Cu 0.61130 1.00025 0.61136
 C1309 C 0.55198 0.94819 0.61690
 H1310 H 0.54714 0.95304 0.60224
 C1311 C 0.56506 0.93507 0.65456
 C1312 C 0.44783 1.05239 0.61703
 H1313 H 0.45276 1.04745 0.60243
 C1314 C 0.43450 1.06575 0.65451
 C1315 C 0.38300 1.05239 0.55200
 H1316 H 0.39765 1.04754 0.54717
 C1317 C 0.34536 1.06552 0.56508
 C1318 C 0.61693 0.94823 0.55203
 H1319 H 0.60228 0.95308 0.54719
 C1320 C 0.65456 0.93510 0.56512
 C1321 C 0.55202 0.88338 0.55203
 H1322 H 0.54715 0.89802 0.54717
 C1323 C 0.56519 0.84579 0.56518
 C1324 C 0.44790 1.11724 0.55209
 H1325 H 0.45283 1.10265 0.54715
 C1326 C 0.43458 1.15470 0.56547
 C1327 C 0.44778 0.94820 0.61697
 H1328 H 0.45268 0.95309 0.60235
 C1329 C 0.43451 0.93495 0.65453
 C1330 C 0.55210 1.05239 0.61709
 H1331 H 0.54714 1.04745 0.60250
 C1332 C 0.56554 1.06575 0.65453
 C1333 C 0.44778 0.88329 0.55203
 H1334 H 0.45269 0.89790 0.54714
 C1335 C 0.43448 0.84577 0.56528
 C1336 C 0.55212 1.11711 0.55203
 H1337 H 0.54725 1.10248 0.54718
 C1338 C 0.56531 1.15471 0.56516
 C1339 C 0.38293 0.94822 0.55208
 H1340 H 0.39752 0.95314 0.54715
 C1341 C 0.34544 0.93487 0.56540
 C1342 C 0.61708 1.05236 0.55209
 H1343 H 0.60251 1.04741 0.54711
 C1344 C 0.65450 1.06574 0.56555
 O1345 O 0.48033 0.42764 0.90055
 O1346 O 0.48036 0.40444 0.87718
 C1347 C 0.47354 0.42066 0.88427
 C1348 C 0.45724 0.43132 0.87377
 C1349 C 0.45054 0.42479 0.85499
 H1350 H 0.45781 0.41221 0.84791
 O1351 O 0.51916 0.57185 0.90066
 O1352 O 0.51920 0.59504 0.87728
 C1353 C 0.52598 0.57881 0.88438
 C1354 C 0.54227 0.56812 0.87390
 C1355 C 0.54889 0.57453 0.85505
 H1356 H 0.54159 0.58707 0.84792
 O1357 O 0.40038 0.48018 0.92785
 O1358 O 0.37703 0.48019 0.90463
 C1359 C 0.38411 0.47339 0.92087
 C1360 C 0.37361 0.45711 0.93155
 C1361 C 0.35482 0.45042 0.92506
 H1362 H 0.34774 0.45769 0.91247
 O1363 O 0.59916 0.51925 0.92806
 O1364 O 0.62250 0.51931 0.90483
 C1365 C 0.61542 0.52608 0.92108
 C1366 C 0.62589 0.54236 0.93178
 C1367 C 0.64473 0.54899 0.92536
 H1368 H 0.65187 0.54168 0.91283
 O1369 O 0.42766 0.40028 0.98048
 O1370 O 0.40445 0.37694 0.98046
 C1371 C 0.42069 0.38402 0.97366
 C1372 C 0.43138 0.37354 0.95735
 C1373 C 0.42488 0.35478 0.95061
 H1374 H 0.41228 0.34768 0.95785
 O1375 O 0.57167 0.59925 0.98060
 O1376 O 0.59488 0.62260 0.98057
 C1377 C 0.57864 0.61552 0.97379
 C1378 C 0.56794 0.62601 0.95751
 C1379 C 0.57435 0.64486 0.95091
 H1380 H 0.58688 0.65198 0.95823
 O1381 O 0.42773 0.51914 0.90052
 O1382 O 0.40452 0.51918 0.87718
 C1383 C 0.42075 0.52597 0.88426
 C1384 C 0.43142 0.54226 0.87377
 C1385 C 0.42496 0.54893 0.85496
 H1386 H 0.41241 0.54163 0.84784
 O1387 O 0.57184 0.48033 0.90069
 O1388 O 0.59504 0.48037 0.87731
 C1389 C 0.57881 0.47355 0.88440
 C1390 C 0.56814 0.45729 0.87388
 C1391 C 0.57460 0.45068 0.85504
 H1392 H 0.58715 0.45801 0.84795
 O1393 O 0.51929 0.40033 0.92792
 O1394 O 0.51935 0.37700 0.90468
 C1395 C 0.52612 0.38407 0.92094
 C1396 C 0.54242 0.37360 0.93161
 C1397 C 0.54915 0.35484 0.92510
 H1398 H 0.54190 0.34774 0.91251
 O1399 O 0.48018 0.59921 0.92792
 O1400 O 0.48017 0.62254 0.90468
 C1401 C 0.47337 0.61547 0.92093
 C1402 C 0.45708 0.62596 0.93161
 C1403 C 0.45039 0.64475 0.92514
 H1404 H 0.45766 0.65186 0.91256
 O1405 O 0.40040 0.57176 0.98059
 O1406 O 0.37700 0.59492 0.98054
 C1407 C 0.38412 0.57869 0.97377
 C1408 C 0.37363 0.56795 0.95752
 C1409 C 0.35476 0.57430 0.95096
 H1410 H 0.34761 0.58681 0.95830
 O1411 O 0.59928 0.42766 0.98051
 O1412 O 0.62263 0.40446 0.98051
 C1413 C 0.61555 0.42068 0.97369
 C1414 C 0.62602 0.43135 0.95737
 C1415 C 0.64476 0.42481 0.95057
 H1416 H 0.65184 0.41219 0.95778
 O1417 O 0.48022 0.57185 0.90059
 O1418 O 0.48022 0.59504 0.87721
 C1419 C 0.47343 0.57881 0.88430
 C1420 C 0.45717 0.56810 0.87379
 C1421 C 0.45051 0.57456 0.85498
 H1422 H 0.45777 0.58715 0.84788
 O1423 O 0.51927 0.42769 0.90058
 O1424 O 0.51934 0.40450 0.87721
 C1425 C 0.52610 0.42074 0.88431
 C1426 C 0.54238 0.43146 0.87382
 C1427 C 0.54905 0.42505 0.85499
 H1428 H 0.54178 0.41250 0.84785
 O1429 O 0.59923 0.48030 0.92798
 O1430 O 0.62256 0.48033 0.90473
 C1431 C 0.61550 0.47351 0.92097
 C1432 C 0.62599 0.45718 0.93160
 C1433 C 0.64473 0.45044 0.92501
 H1434 H 0.65179 0.45771 0.91240
 O1435 O 0.40042 0.51911 0.92791
 O1436 O 0.37707 0.51916 0.90471
 C1437 C 0.38415 0.52592 0.92096
 C1438 C 0.37364 0.54217 0.93169
 C1439 C 0.35476 0.54873 0.92534
 H1440 H 0.34763 0.54141 0.91281
 O1441 O 0.42763 0.59920 0.98057
 O1442 O 0.40437 0.62249 0.98051
 C1443 C 0.42063 0.61544 0.97374
 C1444 C 0.43130 0.62594 0.95744
 C1445 C 0.42481 0.64473 0.95077
 H1446 H 0.41225 0.65182 0.95807
 O1447 O 0.57190 0.40037 0.98053
 O1448 O 0.59512 0.37703 0.98054
 C1449 C 0.57888 0.38410 0.97373
 C1450 C 0.56822 0.37361 0.95743
 C1451 C 0.57474 0.35485 0.95071
 H1452 H 0.58733 0.34777 0.95797
 O1453 O 0.57184 0.51926 0.90070
 O1454 O 0.59504 0.51932 0.87733
 C1455 C 0.57879 0.52609 0.88442
 C1456 C 0.56809 0.54235 0.87392
 C1457 C 0.57451 0.54896 0.85507
 H1458 H 0.58706 0.54167 0.84795
 O1459 O 0.42773 0.48020 0.90050
 O1460 O 0.40452 0.48020 0.87715
 C1461 C 0.42075 0.47339 0.88423
 C1462 C 0.43143 0.45710 0.87374
 C1463 C 0.42493 0.45036 0.85496
 H1464 H 0.41234 0.45760 0.84786
 O1465 O 0.51911 0.59923 0.92796
 O1466 O 0.51915 0.62256 0.90472
 C1467 C 0.52592 0.61550 0.92098
 C1468 C 0.54217 0.62601 0.93169
 C1469 C 0.54877 0.64485 0.92528
 H1470 H 0.54148 0.65198 0.91273
 O1471 O 0.48033 0.40032 0.92791
 O1472 O 0.48036 0.37699 0.90468
 C1473 C 0.47354 0.38405 0.92092
 C1474 C 0.45723 0.37356 0.93158
 C1475 C 0.45053 0.35480 0.92505
 H1476 H 0.45781 0.34772 0.91246
 O1477 O 0.59903 0.57194 0.98060
 O1478 O 0.62238 0.59515 0.98057
 C1479 C 0.61531 0.57890 0.97380
 C1480 C 0.62583 0.56820 0.95754
 C1481 C 0.64467 0.57462 0.95093
 H1482 H 0.65176 0.58718 0.95822
 O1483 O 0.40033 0.42762 0.98049
 O1484 O 0.37698 0.40441 0.98048
 C1485 C 0.38406 0.42065 0.97368
 C1486 C 0.37358 0.43132 0.95737
 C1487 C 0.35480 0.42484 0.95068
 H1488 H 0.34769 0.41227 0.95795
 Cu1489 Cu 0.49980 0.41631 0.91657
 Cu1490 Cu 0.49986 0.38839 0.88860
 Cu1491 Cu 0.49966 0.58322 0.91661
 Cu1492 Cu 0.49969 0.61113 0.88863
 Cu1493 Cu 0.41639 0.49966 0.91652
 Cu1494 Cu 0.38845 0.49969 0.88857
 Cu1495 Cu 0.58320 0.49978 0.91669
 Cu1496 Cu 0.61113 0.49984 0.88871
 C1497 C 0.44771 0.44759 0.88291
 H1498 H 0.45263 0.45253 0.89751
 C1499 C 0.43439 0.43422 0.84543
 C1500 C 0.55184 0.55190 0.88311
 H1501 H 0.54698 0.54704 0.89776
 C1502 C 0.56500 0.56505 0.84548
 C1503 C 0.38276 0.44758 0.94783
 H1504 H 0.39737 0.45248 0.95275
 C1505 C 0.34526 0.43430 0.93453
 C1506 C 0.61667 0.55194 0.94799
 H1507 H 0.60203 0.54708 0.95284
 C1508 C 0.65428 0.56511 0.93485
 C1509 C 0.44767 0.38271 0.94785
 H1510 H 0.45259 0.39730 0.95280
 C1511 C 0.43437 0.34525 0.93447
 C1512 C 0.55173 0.61681 0.94793
 H1513 H 0.54689 0.60217 0.95277
 C1514 C 0.56485 0.65444 0.93481
 C1515 C 0.44765 0.55183 0.88296
 H1516 H 0.45254 0.54694 0.89759
 C1517 C 0.43441 0.56507 0.84540
 C1518 C 0.55190 0.44770 0.88304
 H1519 H 0.54701 0.45254 0.89768
 C1520 C 0.56515 0.43458 0.84544
 C1521 C 0.55194 0.38276 0.94790
 H1522 H 0.54700 0.39735 0.95283
 C1523 C 0.56530 0.34530 0.93455
 C1524 C 0.44755 0.61677 0.94788
 H1525 H 0.45245 0.60217 0.95278
 C1526 C 0.43427 0.65430 0.93464
 C1527 C 0.38286 0.55176 0.94791
 H1528 H 0.39753 0.54695 0.95272
 C1529 C 0.34516 0.56478 0.93489
 C1530 C 0.61687 0.44766 0.94790
 H1531 H 0.60230 0.45261 0.95288
 C1532 C 0.65427 0.43426 0.93439
 O1533 O 0.51914 0.42770 1.09942
 O1534 O 0.51916 0.40450 1.12279
 C1535 C 0.52594 0.42074 1.11571
 C1536 C 0.54219 0.43145 1.12622
 C1537 C 0.54881 0.42503 1.14506
 H1538 H 0.54151 0.41248 1.15218
 O1539 O 0.48014 0.57187 1.09942
 O1540 O 0.48011 0.59505 1.12281
 C1541 C 0.47333 0.57882 1.11571
 C1542 C 0.45706 0.56812 1.12621
 C1543 C 0.45040 0.57457 1.14502
 H1544 H 0.45768 0.58714 1.15212
 O1545 O 0.40024 0.51922 1.07212
 O1546 O 0.37689 0.51922 1.09535
 C1547 C 0.38397 0.52603 1.07911
 C1548 C 0.37349 0.54233 1.06844
 C1549 C 0.35472 0.54906 1.07496
 H1550 H 0.34762 0.54181 1.08755
 O1551 O 0.59908 0.48033 1.07209
 O1552 O 0.62240 0.48033 1.09533
 C1553 C 0.61535 0.47354 1.07907
 C1554 C 0.62588 0.45728 1.06839
 C1555 C 0.64470 0.45068 1.07484
 H1556 H 0.65179 0.45799 1.08740
 O1557 O 0.57191 0.40036 1.01950
 O1558 O 0.59513 0.37703 1.01955
 C1559 C 0.57889 0.38411 1.02633
 C1560 C 0.56820 0.37363 1.04264
 C1561 C 0.57471 0.35486 1.04937
 H1562 H 0.58730 0.34778 1.04213
 O1563 O 0.42761 0.59922 1.01953
 O1564 O 0.40436 0.62253 1.01951
 C1565 C 0.42061 0.61548 1.02633
 C1566 C 0.43126 0.62599 1.04262
 C1567 C 0.42478 0.64479 1.04929
 H1568 H 0.41222 0.65189 1.04200
 O1569 O 0.42762 0.48028 1.09942
 O1570 O 0.40440 0.48024 1.12278
 C1571 C 0.42064 0.47346 1.11569
 C1572 C 0.43131 0.45716 1.12618
 C1573 C 0.42483 0.45049 1.14498
 H1574 H 0.41226 0.45778 1.15209
 O1575 O 0.57168 0.51925 1.09942
 O1576 O 0.59487 0.51928 1.12279
 C1577 C 0.57863 0.52605 1.11570
 C1578 C 0.56792 0.54231 1.12620
 C1579 C 0.57432 0.54890 1.14506
 H1580 H 0.58685 0.54159 1.15219
 O1581 O 0.48027 0.40031 1.07205
 O1582 O 0.48025 0.37698 1.09529
 C1583 C 0.47346 0.38405 1.07903
 C1584 C 0.45720 0.37354 1.06834
 C1585 C 0.45054 0.35474 1.07480
 H1586 H 0.45782 0.34764 1.08738
 O1587 O 0.51909 0.59927 1.07213
 O1588 O 0.51909 0.62257 1.09539
 C1589 C 0.52589 0.61552 1.07913
 C1590 C 0.54218 0.62602 1.06846
 C1591 C 0.54885 0.64482 1.07495
 H1592 H 0.54156 0.65191 1.08753
 O1593 O 0.40032 0.42762 1.01945
 O1594 O 0.37698 0.40441 1.01948
 C1595 C 0.38406 0.42065 1.02627
 C1596 C 0.37356 0.43134 1.04257
 C1597 C 0.35476 0.42487 1.04926
 H1598 H 0.34766 0.41229 1.04201
 O1599 O 0.59900 0.57192 1.01955
 O1600 O 0.62235 0.59512 1.01956
 C1601 C 0.61528 0.57888 1.02635
 C1602 C 0.62579 0.56818 1.04261
 C1603 C 0.64463 0.57458 1.04920
 H1604 H 0.65175 0.58712 1.04189
 O1605 O 0.51907 0.57187 1.09942
 O1606 O 0.51908 0.59504 1.12282
 C1607 C 0.52587 0.57881 1.11571
 C1608 C 0.54213 0.56810 1.12621
 C1609 C 0.54873 0.57450 1.14507
 H1610 H 0.54142 0.58703 1.15220
 O1611 O 0.48021 0.42764 1.09942
 O1612 O 0.48018 0.40444 1.12278
 C1613 C 0.47339 0.42067 1.11569
 C1614 C 0.45709 0.43135 1.12618
 C1615 C 0.45040 0.42488 1.14499
 H1616 H 0.45766 0.41230 1.15210
 O1617 O 0.59907 0.51926 1.07210
 O1618 O 0.62239 0.51930 1.09534
 C1619 C 0.61532 0.52608 1.07909
 C1620 C 0.62581 0.54236 1.06839
 C1621 C 0.64466 0.54896 1.07479
 H1622 H 0.65180 0.54165 1.08732
 O1623 O 0.40030 0.48028 1.07206
 O1624 O 0.37695 0.48024 1.09528
 C1625 C 0.38404 0.47346 1.07904
 C1626 C 0.37356 0.45716 1.06835
 C1627 C 0.35476 0.45049 1.07484
 H1628 H 0.34766 0.45778 1.08741
 O1629 O 0.57170 0.59929 1.01956
 O1630 O 0.59492 0.62263 1.01957
 C1631 C 0.57868 0.61555 1.02637
 C1632 C 0.56799 0.62604 1.04266
 C1633 C 0.57446 0.64483 1.04935
 H1634 H 0.58704 0.65194 1.04208
 O1635 O 0.42768 0.40030 1.01944
 O1636 O 0.40447 0.37695 1.01946
 C1637 C 0.42071 0.38403 1.02625
 C1638 C 0.43140 0.37354 1.04253
 C1639 C 0.42495 0.35474 1.04920
 H1640 H 0.41238 0.34763 1.04192
 O1641 O 0.57172 0.48032 1.09943
 O1642 O 0.59491 0.48031 1.12281
 C1643 C 0.57868 0.47352 1.11572
 C1644 C 0.56798 0.45725 1.12622
 C1645 C 0.57440 0.45063 1.14507
 H1646 H 0.58694 0.45793 1.15219
 O1647 O 0.42758 0.51922 1.09946
 O1648 O 0.40437 0.51921 1.12282
 C1649 C 0.42061 0.52602 1.11574
 C1650 C 0.43127 0.54231 1.12624
 C1651 C 0.42482 0.54897 1.14506
 H1652 H 0.41226 0.54169 1.15218
 O1653 O 0.48015 0.59926 1.07212
 O1654 O 0.48011 0.62257 1.09537
 C1655 C 0.47333 0.61551 1.07911
 C1656 C 0.45705 0.62601 1.06843
 C1657 C 0.45037 0.64480 1.07490
 H1658 H 0.45765 0.65190 1.08747
 O1659 O 0.51921 0.40035 1.07209
 O1660 O 0.51923 0.37702 1.09533
 C1661 C 0.52604 0.38410 1.07908
 C1662 C 0.54236 0.37363 1.06843
 C1663 C 0.54907 0.35486 1.07495
 H1664 H 0.54180 0.34777 1.08754
 O1665 O 0.59922 0.42773 1.01947
 O1666 O 0.62258 0.40454 1.01952
 C1667 C 0.61548 0.42078 1.02630
 C1668 C 0.62595 0.43149 1.04258
 C1669 C 0.64478 0.42508 1.04924
 H1670 H 0.65192 0.41254 1.04196
 O1671 O 0.40031 0.57185 1.01955
 O1672 O 0.37693 0.59503 1.01953
 C1673 C 0.38403 0.57881 1.02635
 C1674 C 0.37353 0.56814 1.04264
 C1675 C 0.35476 0.57466 1.04936
 H1676 H 0.34769 0.58725 1.04209
 Cu1677 Cu 0.49970 0.41632 1.08342
 Cu1678 Cu 0.49971 0.38839 1.11139
 Cu1679 Cu 0.49961 0.58325 1.08344
 Cu1680 Cu 0.49960 0.61114 1.11144
 Cu1681 Cu 0.41632 0.41628 0.99996
 Cu1682 Cu 0.38838 0.38834 0.99997
 Cu1683 Cu 0.58325 0.41635 1.00000
 Cu1684 Cu 0.61120 0.38842 1.00003
 Cu1685 Cu 0.41632 0.58319 1.00007
 Cu1686 Cu 0.38832 0.61108 1.00002
 Cu1687 Cu 0.58302 0.58328 1.00008
 Cu1688 Cu 0.61097 0.61122 1.00007
 Cu1689 Cu 0.41626 0.49976 1.08344
 Cu1690 Cu 0.38831 0.49972 1.11140
 Cu1691 Cu 0.58306 0.49979 1.08343
 Cu1692 Cu 0.61098 0.49981 1.11141
 C1693 C 0.55176 0.44768 1.11702
 H1694 H 0.54690 0.45254 1.10237
 C1695 C 0.56490 0.43453 1.15465
 C1696 C 0.44752 0.55186 1.11704
 H1697 H 0.45241 0.54698 1.10241
 C1698 C 0.43429 0.56510 1.15461
 C1699 C 0.38267 0.55185 1.05216
 H1700 H 0.39726 0.54692 1.04723
 C1701 C 0.34520 0.56522 1.06551
 C1702 C 0.61673 0.44771 1.05213
 H1703 H 0.60209 0.45256 1.04725
 C1704 C 0.65432 0.43459 1.06536
 C1705 C 0.55191 0.38279 1.05215
 H1706 H 0.54698 0.39737 1.04721
 C1707 C 0.56524 0.34532 1.06552
 C1708 C 0.44752 0.61683 1.05217
 H1709 H 0.45242 0.60222 1.04728
 C1710 C 0.43425 0.65436 1.06542
 C1711 C 0.44757 0.44762 1.11700
 H1712 H 0.45248 0.45252 1.10239
 C1713 C 0.43427 0.43436 1.15455
 C1714 C 0.55170 0.55189 1.11700
 H1715 H 0.54686 0.54705 1.10235
 C1716 C 0.56481 0.56499 1.15466
 C1717 C 0.44765 0.38272 1.05208
 H1718 H 0.45253 0.39734 1.04719
 C1719 C 0.43442 0.34518 1.06533
 C1720 C 0.55173 0.61686 1.05220
 H1721 H 0.54684 0.60226 1.04729
 C1722 C 0.56498 0.65438 1.06549
 C1723 C 0.38274 0.44761 1.05210
 H1724 H 0.39735 0.45251 1.04719
 C1725 C 0.34521 0.43436 1.06539
 C1726 C 0.61660 0.55195 1.05218
 H1727 H 0.60195 0.54710 1.04734
 C1728 C 0.65423 0.56506 1.06527
 C1729 C 1.11795 1.11723 1.28207
 N1730 N 1.10959 1.13350 1.29078
 N1731 N 1.11734 1.14119 1.30741
 C1732 C 1.13376 1.13290 1.31596
 N1733 N 1.14207 1.11657 1.30726
 N1734 N 1.13432 1.10889 1.29063
 C1735 C 1.10964 1.10902 1.26350
 N1736 N 1.11817 1.09293 1.25461
 N1737 N 1.11085 1.08572 1.23757
 C1738 C 1.09473 1.09433 1.22881
 N1739 N 1.08616 1.11038 1.23773
 N1740 N 1.09348 1.11760 1.25477
 C1741 C 1.08692 1.08663 1.20981
 N1742 N 1.07103 1.09545 1.20086
 N1743 N 1.06420 1.08870 1.18344
 C1744 C 1.07297 1.07287 1.17426
 N1745 N 1.08884 1.06403 1.18333
 N1746 N 1.09568 1.07078 1.20074
 C1747 C 1.11564 0.61571 0.78304
 N1748 N 1.10723 0.63200 0.79168
 N1749 N 1.11482 0.63964 0.80841
 C1750 C 1.13111 0.63127 0.81710
 N1751 N 1.13948 0.61494 0.80849
 N1752 N 1.13188 0.60730 0.79177
 C1753 C 1.10756 0.60756 0.76436
 N1754 N 1.11621 0.59151 0.75552
 N1755 N 1.10913 0.58437 0.73835
 C1756 C 1.09315 0.59304 0.72939
 N1757 N 1.08446 0.60906 0.73826
 N1758 N 1.09153 0.61619 0.75543
 C1759 C 1.08564 0.58546 0.71023
 N1760 N 1.06988 0.59434 0.70111
 N1761 N 1.06332 0.58771 0.68354
 C1762 C 1.07224 0.57196 0.67438
 N1763 N 1.08797 0.56306 0.68361
 N1764 N 1.09454 0.56968 0.70118
 C1765 C 0.61811 1.11753 0.78181
 N1766 N 0.63448 1.10918 0.79036
 N1767 N 0.64225 1.11687 0.80698
 C1768 C 0.63394 1.13320 0.81569
 N1769 N 0.61751 1.14149 0.80715
 N1770 N 0.60975 1.13380 0.79052
 C1771 C 0.60977 1.10931 0.76326
 N1772 N 0.59360 1.11788 0.75454
 N1773 N 0.58625 1.11065 0.73752
 C1774 C 0.59480 1.09459 0.72860
 N1775 N 0.61093 1.08598 0.73735
 N1776 N 0.61828 1.09321 0.75436
 C1777 C 0.58695 1.08686 0.70963
 N1778 N 0.59568 1.07099 0.70056
 N1779 N 0.58880 1.06423 0.68317
 C1780 C 0.57292 1.07305 0.67413
 N1781 N 0.56417 1.08890 0.68329
 N1782 N 0.57104 1.09568 0.70069
 C1783 C 0.61597 0.61608 1.28273
 N1784 N 0.63226 0.60768 1.29139
 N1785 N 0.63993 0.61533 1.30807
 C1786 C 0.63160 0.63167 1.31670
 N1787 N 0.61527 0.64003 1.30807
 N1788 N 0.60760 0.63237 1.29139
 C1789 C 0.60779 0.60791 1.26409
 N1790 N 0.59173 0.61653 1.25524
 N1791 N 0.58456 0.60937 1.23812
 C1792 C 0.59319 0.59333 1.22923
 N1793 N 0.60922 0.58467 1.23811
 N1794 N 0.61639 0.59183 1.25524
 C1795 C 0.58557 0.58572 1.21013
 N1796 N 0.59442 0.56991 1.20106
 N1797 N 0.58775 0.56326 1.18354
 C1798 C 0.57197 0.57214 1.17438
 N1799 N 0.56311 0.58792 1.18354
 N1800 N 0.56977 0.59458 1.20106
 C1801 C 0.88309 0.88304 1.28245
 N1802 N 0.89145 0.86672 1.29107
 N1803 N 0.88376 0.85900 1.30772
 C1804 C 0.86740 0.86730 1.31637
 N1805 N 0.85909 0.88368 1.30777
 N1806 N 0.86679 0.89140 1.29112
 C1807 C 0.89131 0.89130 1.26387
 N1808 N 0.88274 0.90741 1.25507
 N1809 N 0.88996 0.91467 1.23800
 C1810 C 0.90602 0.90607 1.22911
 N1811 N 0.91463 0.88999 1.23795
 N1812 N 0.90741 0.88274 1.25501
 C1813 C 0.91371 0.91380 1.21008
 N1814 N 0.92956 0.90500 1.20103
 N1815 N 0.93629 0.91177 1.18357
 C1816 C 0.92745 0.92760 1.17445
 N1817 N 0.91163 0.93642 1.18361
 N1818 N 0.90489 0.92966 1.20107
 C1819 C 0.88167 0.38231 0.78165
 N1820 N 0.89000 0.36603 0.79037
 N1821 N 0.88221 0.35834 0.80698
 C1822 C 0.86577 0.36662 0.81551
 N1823 N 0.85749 0.38296 0.80680
 N1824 N 0.86528 0.39065 0.79018
 C1825 C 0.89004 0.39054 0.76311
 N1826 N 0.88154 0.40665 0.75422
 N1827 N 0.88893 0.41390 0.73722
 C1828 C 0.90508 0.40530 0.72849
 N1829 N 0.91360 0.38922 0.73741
 N1830 N 0.90622 0.38198 0.75441
 C1831 C 0.91296 0.41304 0.70953
 N1832 N 0.92888 0.40424 0.70061
 N1833 N 0.93578 0.41103 0.68322
 C1834 C 0.92705 0.42689 0.67406
 N1835 N 0.91116 0.43571 0.68309
 N1836 N 0.90425 0.42892 0.70047
 C1837 C 0.38268 0.88343 0.78221
 N1838 N 0.36636 0.89180 0.79083
 N1839 N 0.35863 0.88411 0.80748
 C1840 C 0.36695 0.86777 0.81611
 N1841 N 0.38331 0.85944 0.80753
 N1842 N 0.39104 0.86713 0.79088
 C1843 C 0.39095 0.89165 0.76362
 N1844 N 0.40706 0.88306 0.75482
 N1845 N 0.41431 0.89027 0.73775
 C1846 C 0.40573 0.90633 0.72886
 N1847 N 0.38965 0.91496 0.73770
 N1848 N 0.38240 0.90775 0.75477
 C1849 C 0.41346 0.91401 0.70983
 N1850 N 0.40467 0.92986 0.70078
 N1851 N 0.41143 0.93658 0.68332
 C1852 C 0.42725 0.92772 0.67419
 N1853 N 0.43605 0.91190 0.68334
 N1854 N 0.42930 0.90517 0.70080
 C1855 C 0.38232 0.38295 1.28224
 N1856 N 0.36597 0.39131 1.29083
 N1857 N 0.35824 0.38364 1.30749
 C1858 C 0.36657 0.36733 1.31619
 N1859 N 0.38298 0.35903 1.30762
 N1860 N 0.39071 0.36670 1.29096
 C1861 C 0.39059 0.39114 1.26364
 N1862 N 0.40672 0.38255 1.25488
 N1863 N 0.41400 0.38974 1.23780
 C1864 C 0.40540 0.40577 1.22887
 N1865 N 0.38930 0.41439 1.23767
 N1866 N 0.38203 0.40721 1.25475
 C1867 C 0.41315 0.41343 1.20984
 N1868 N 0.40436 0.42927 1.20076
 N1869 N 0.41115 0.43597 1.18330
 C1870 C 0.42699 0.42713 1.17421
 N1871 N 0.43579 0.41132 1.18338
 N1872 N 0.42901 0.40460 1.20084
 C1873 C 0.88182 1.11752 0.71827
 N1874 N 0.86545 1.10918 0.70972
 N1875 N 0.85769 1.11686 0.69309
 C1876 C 0.86600 1.13318 0.68438
 N1877 N 0.88243 1.14147 0.69292
 N1878 N 0.89019 1.13378 0.70954
 C1879 C 0.89016 1.10930 0.73682
 N1880 N 0.90633 1.11786 0.74554
 N1881 N 0.91367 1.11063 0.76256
 C1882 C 0.90512 1.09457 0.77149
 N1883 N 0.88898 1.08597 0.76274
 N1884 N 0.88164 1.09320 0.74572
 C1885 C 0.91296 1.08685 0.79046
 N1886 N 0.90422 1.07099 0.79953
 N1887 N 0.91109 1.06422 0.81693
 C1888 C 0.92697 1.07303 0.82597
 N1889 N 0.93573 1.08888 0.81680
 N1890 N 0.92887 1.09566 0.79940
 C1891 C 0.88391 0.61594 0.21714
 N1892 N 0.86762 0.60755 0.20848
 N1893 N 0.85996 0.61521 0.19179
 C1894 C 0.86831 0.63154 0.18316
 N1895 N 0.88464 0.63988 0.19178
 N1896 N 0.89230 0.63222 0.20847
 C1897 C 0.89208 0.60777 0.23578
 N1898 N 0.90815 0.61638 0.24463
 N1899 N 0.91530 0.60923 0.26176
 C1900 C 0.90665 0.59321 0.27066
 N1901 N 0.89062 0.58456 0.26178
 N1902 N 0.88347 0.59171 0.24465
 C1903 C 0.91426 0.58561 0.28977
 N1904 N 0.90539 0.56981 0.29885
 N1905 N 0.91205 0.56317 0.31638
 C1906 C 0.92782 0.57205 0.32555
 N1907 N 0.93670 0.58782 0.31637
 N1908 N 0.93006 0.59447 0.29883
 C1909 C 0.38227 1.11709 0.21772
 N1910 N 0.36591 1.10871 0.20917
 N1911 N 0.35814 1.11636 0.19253
 C1912 C 0.36644 1.13269 0.18380
 N1913 N 0.38286 1.14100 0.19233
 N1914 N 0.39062 1.13335 0.20897
 C1915 C 0.39059 1.10892 0.23630
 N1916 N 0.40673 1.11753 0.24502
 N1917 N 0.41405 1.11036 0.26207
 C1918 C 0.40550 1.09431 0.27103
 N1919 N 0.38940 1.08566 0.26227
 N1920 N 0.38207 1.09284 0.24522
 C1921 C 0.41331 1.08666 0.29004
 N1922 N 0.40457 1.07080 0.29913
 N1923 N 0.41140 1.06410 0.31657
 C1924 C 0.42724 1.07296 0.32563
 N1925 N 0.43600 1.08880 0.31644
 N1926 N 0.42918 1.09551 0.29900
 C1927 C 0.38268 0.61667 0.71774
 N1928 N 0.39104 0.63298 0.70908
 N1929 N 0.38333 0.64067 0.69243
 C1930 C 0.36697 0.63235 0.68384
 N1931 N 0.35865 0.61600 0.69246
 N1932 N 0.36636 0.60830 0.70911
 C1933 C 0.39093 0.60844 0.73632
 N1934 N 0.38237 0.59233 0.74516
 N1935 N 0.38961 0.58511 0.76223
 C1936 C 0.40568 0.59373 0.77107
 N1937 N 0.41428 0.60980 0.76220
 N1938 N 0.40703 0.61702 0.74514
 C1939 C 0.41340 0.58604 0.79011
 N1940 N 0.42923 0.59487 0.79914
 N1941 N 0.43597 0.58814 0.81660
 C1942 C 0.42716 0.57231 0.82574
 N1943 N 0.41135 0.56346 0.81661
 N1944 N 0.40460 0.57019 0.79915
 C1945 C 1.11736 0.88318 0.71795
 N1946 N 1.10901 0.86687 0.70927
 N1947 N 1.11675 0.85919 0.69263
 C1948 C 1.13312 0.86752 0.68405
 N1949 N 1.14143 0.88387 0.69269
 N1950 N 1.13369 0.89156 0.70933
 C1951 C 1.10908 0.89140 0.73652
 N1952 N 1.11761 0.90751 0.74537
 N1953 N 1.11034 0.91473 0.76242
 C1954 C 1.09426 0.90610 0.77125
 N1955 N 1.08568 0.89003 0.76237
 N1956 N 1.09296 0.88281 0.74532
 C1957 C 1.08650 0.91380 0.79028
 N1958 N 1.07065 0.90497 0.79929
 N1959 N 1.06388 0.91171 0.81674
 C1960 C 1.07267 0.92755 0.82588
 N1961 N 1.08850 0.93639 0.81676
 N1962 N 1.09529 0.92965 0.79931
 C1963 C 1.11749 0.38301 0.21751
 N1964 N 1.10911 0.36674 0.20881
 N1965 N 1.11684 0.35907 0.19216
 C1966 C 1.13324 0.36736 0.18358
 N1967 N 1.14156 0.38369 0.19226
 N1968 N 1.13383 0.39137 0.20892
 C1969 C 1.10922 0.39121 0.23611
 N1970 N 1.11778 0.40728 0.24499
 N1971 N 1.11051 0.41448 0.26206
 C1972 C 1.09441 0.40586 0.27087
 N1973 N 1.08582 0.38981 0.26195
 N1974 N 1.09309 0.38262 0.24488
 C1975 C 1.08666 0.41352 0.28990
 N1976 N 1.07080 0.40469 0.29890
 N1977 N 1.06402 0.41141 0.31636
 C1978 C 1.07283 0.42722 0.32553
 N1979 N 1.08866 0.43607 0.31643
 N1980 N 1.09545 0.42936 0.29897
 C1981 C 0.61689 0.88300 0.21762
 N1982 N 0.63320 0.89135 0.20894
 N1983 N 0.64089 0.88363 0.19230
 C1984 C 0.63257 0.86725 0.18370
 N1985 N 0.61621 0.85896 0.19236
 N1986 N 0.60852 0.86668 0.20900
 C1987 C 0.60868 0.89126 0.23620
 N1988 N 0.59258 0.88271 0.24507
 N1989 N 0.58537 0.88998 0.26213
 C1990 C 0.59399 0.90606 0.27095
 N1991 N 0.61005 0.91464 0.26206
 N1992 N 0.61727 0.90738 0.24499
 C1993 C 0.58631 0.91380 0.28999
 N1994 N 0.59514 0.92965 0.29898
 N1995 N 0.58841 0.93642 0.31644
 C1996 C 0.57259 0.92762 0.32561
 N1997 N 0.56375 0.91178 0.31651
 N1998 N 0.57047 0.90500 0.29905
 C1999 C 0.61699 0.38363 0.71754
 N2000 N 0.60861 0.36739 0.70880
 N2001 N 0.61633 0.35975 0.69213
 C2002 C 0.63273 0.36808 0.68359
 N2003 N 0.64107 0.38437 0.69230
 N2004 N 0.63334 0.39200 0.70898
 C2005 C 0.60872 0.39177 0.73616
 N2006 N 0.61728 0.40781 0.74510
 N2007 N 0.61002 0.41494 0.76219
 C2008 C 0.59393 0.40629 0.77098
 N2009 N 0.58533 0.39028 0.76201
 N2010 N 0.59259 0.38315 0.74491
 C2011 C 0.58620 0.41388 0.79005
 N2012 N 0.57035 0.40500 0.79903
 N2013 N 0.56360 0.41165 0.81653
 C2014 C 0.57241 0.42743 0.82575
 N2015 N 0.58823 0.43632 0.81666
 N2016 N 0.59499 0.42968 0.79917
 C2017 C 1.28206 1.11705 1.11763
 N2018 N 1.29063 1.10869 1.13399
 N2019 N 1.30728 1.11635 1.14173
 C2020 C 1.31598 1.13267 1.13340
 N2021 N 1.30742 1.14098 1.11699
 N2022 N 1.29078 1.13332 1.10926
 C2023 C 1.26348 1.10887 1.10935
 N2024 N 1.25474 1.11746 1.09320
 N2025 N 1.23769 1.11027 1.08591
 C2026 C 1.22876 1.09422 1.09449
 N2027 N 1.23754 1.08559 1.11060
 N2028 N 1.25459 1.09278 1.11789
 C2029 C 1.20975 1.08655 1.08670
 N2030 N 1.20069 1.07070 1.09548
 N2031 N 1.18326 1.06398 1.08866
 C2032 C 1.17418 1.07283 1.07281
 N2033 N 1.18335 1.08866 1.06402
 N2034 N 1.20078 1.09539 1.07083
 C2035 C 1.28213 0.61713 0.61698
 N2036 N 1.29081 0.60876 0.63327
 N2037 N 1.30745 0.61648 0.64095
 C2038 C 1.31604 0.63287 0.63264
 N2039 N 1.30737 0.64118 0.61628
 N2040 N 1.29073 0.63346 0.60860
 C2041 C 1.26356 0.60886 0.60876
 N2042 N 1.25470 0.61741 0.59266
 N2043 N 1.23765 0.61013 0.58544
 C2044 C 1.22883 0.59405 0.59407
 N2045 N 1.23773 0.58546 0.61014
 N2046 N 1.25477 0.59273 0.61735
 C2047 C 1.20982 0.58629 0.58637
 N2048 N 1.20083 0.57043 0.59521
 N2049 N 1.18340 0.56365 0.58846
 C2050 C 1.17425 0.57245 0.57262
 N2051 N 1.18335 0.58828 0.56377
 N2052 N 1.20078 0.59507 0.57051
 C2053 C 0.78171 1.11755 0.61811
 N2054 N 0.79043 1.13382 0.60974
 N2055 N 0.80705 1.14150 0.61750
 C2056 C 0.81558 1.13321 0.63394
 N2057 N 0.80688 1.11688 0.64225
 N2058 N 0.79025 1.10920 0.63449
 C2059 C 0.76316 1.10933 0.60978
 N2060 N 0.75427 1.09324 0.61831
 N2061 N 0.73726 1.08600 0.61096
 C2062 C 0.72852 1.09460 0.59481
 N2063 N 0.73744 1.11066 0.58625
 N2064 N 0.75445 1.11789 0.59359
 C2065 C 0.70955 1.08687 0.58697
 N2066 N 0.70063 1.09567 0.57104
 N2067 N 0.68324 1.08888 0.56417
 C2068 C 0.67408 1.07304 0.57294
 N2069 N 0.68311 1.06424 0.58884
 N2070 N 0.70049 1.07101 0.59572
 C2071 C 0.78243 0.61611 1.11605
 N2072 N 0.79107 0.63240 1.10764
 N2073 N 0.80779 0.64003 1.11524
 C2074 C 0.81648 0.63165 1.13153
 N2075 N 0.80787 0.61531 1.13989
 N2076 N 0.79115 0.60768 1.13229
 C2077 C 0.76376 0.60796 1.10794
 N2078 N 0.75493 0.59189 1.11658
 N2079 N 0.73779 0.58474 1.10947
 C2080 C 0.72884 0.59340 1.09348
 N2081 N 0.73770 0.60944 1.08480
 N2082 N 0.75485 0.61659 1.09191
 C2083 C 0.70973 0.58580 1.08591
 N2084 N 0.70063 0.59466 1.07013
 N2085 N 0.68310 0.58800 1.06352
 C2086 C 0.67396 0.57222 1.07241
 N2087 N 0.68316 0.56334 1.08817
 N2088 N 0.70069 0.56999 1.09479
 C2089 C 1.28204 0.88292 0.88298
 N2090 N 1.29065 0.86660 0.89135
 N2091 N 1.30731 0.85890 0.88366
 C2092 C 1.31597 0.86723 0.86731
 N2093 N 1.30737 0.88361 0.85900
 N2094 N 1.29072 0.89131 0.86669
 C2095 C 1.26345 0.89116 0.89120
 N2096 N 1.25465 0.90728 0.88263
 N2097 N 1.23759 0.91452 0.88985
 C2098 C 1.22870 0.90591 0.90591
 N2099 N 1.23753 0.88982 0.91452
 N2100 N 1.25459 0.88258 0.90730
 C2101 C 1.20968 0.91363 0.91361
 N2102 N 1.20062 0.90481 0.92946
 N2103 N 1.18318 0.91158 0.93620
 C2104 C 1.17408 0.92742 0.92738
 N2105 N 1.18323 0.93625 0.91156
 N2106 N 1.20068 0.92950 0.90481
 C2107 C 1.28223 0.38293 0.38239
 N2108 N 1.29081 0.39129 0.36603
 N2109 N 1.30746 0.38362 0.35830
 C2110 C 1.31616 0.36731 0.36664
 N2111 N 1.30759 0.35901 0.38306
 N2112 N 1.29094 0.36668 0.39078
 C2113 C 1.26364 0.39112 0.39066
 N2114 N 1.25488 0.38255 0.40681
 N2115 N 1.23781 0.38974 0.41408
 C2116 C 1.22889 0.40578 0.40547
 N2117 N 1.23769 0.41439 0.38936
 N2118 N 1.25475 0.40719 0.38209
 C2119 C 1.20987 0.41345 0.41323
 N2120 N 1.20080 0.42928 0.40442
 N2121 N 1.18336 0.43600 0.41121
 C2122 C 1.17427 0.42717 0.42707
 N2123 N 1.18344 0.41136 0.43590
 N2124 N 1.20089 0.40463 0.42911
 C2125 C 0.78221 0.88340 0.38293
 N2126 N 0.79086 0.86710 0.39131
 N2127 N 0.80752 0.85941 0.38362
 C2128 C 0.81614 0.86775 0.36727
 N2129 N 0.80753 0.88409 0.35893
 N2130 N 0.79087 0.89177 0.36662
 C2131 C 0.76361 0.89161 0.39115
 N2132 N 0.75479 0.90771 0.38256
 N2133 N 0.73771 0.91492 0.38977
 C2134 C 0.72884 0.90631 0.40584
 N2135 N 0.73770 0.89025 0.41447
 N2136 N 0.75477 0.88303 0.40725
 C2137 C 0.70979 0.91399 0.41352
 N2138 N 0.70075 0.90518 0.42937
 N2139 N 0.68328 0.91191 0.43609
 C2140 C 0.67415 0.92772 0.42724
 N2141 N 0.68330 0.93655 0.41141
 N2142 N 0.70077 0.92983 0.40469
 C2143 C 0.78142 0.38230 0.88174
 N2144 N 0.78999 0.39064 0.86536
 N2145 N 0.80661 0.38295 0.85760
 C2146 C 0.81529 0.36661 0.86591
 N2147 N 0.80673 0.35833 0.88234
 N2148 N 0.79011 0.36602 0.89010
 C2149 C 0.76288 0.39054 0.89007
 N2150 N 0.75415 0.38199 0.90625
 N2151 N 0.73715 0.38924 0.91361
 C2152 C 0.72825 0.40532 0.90506
 N2153 N 0.73701 0.41391 0.88891
 N2154 N 0.75401 0.40666 0.88156
 C2155 C 0.70930 0.41307 0.91292
 N2156 N 0.70026 0.42895 0.90419
 N2157 N 0.68288 0.43574 0.91108
 C2158 C 0.67384 0.42694 0.92698
 N2159 N 0.68298 0.41107 0.93573
 N2160 N 0.70036 0.40427 0.92884
 C2161 C 0.71776 0.88336 1.11716
 N2162 N 0.70910 0.89172 1.13348
 N2163 N 0.69244 0.88404 1.14116
 C2164 C 0.68383 0.86770 1.13280
 N2165 N 0.69245 0.85938 1.11645
 N2166 N 0.70912 0.86707 1.10877
 C2167 C 0.73636 0.89158 1.10896
 N2168 N 0.74521 0.88301 1.09285
 N2169 N 0.76228 0.89023 1.08564
 C2170 C 0.77114 0.90628 1.09428
 N2171 N 0.76227 0.91489 1.11035
 N2172 N 0.74519 0.90767 1.11756
 C2173 C 0.79019 0.91398 1.08660
 N2174 N 0.79922 0.92980 1.09545
 N2175 N 0.81669 0.93653 1.08872
 C2176 C 0.82583 0.92771 1.07289
 N2177 N 0.81669 0.91191 1.06403
 N2178 N 0.79923 0.90517 1.07075
 C2179 C 0.71777 0.38308 0.61679
 N2180 N 0.70911 0.39148 0.63309
 N2181 N 0.69242 0.38384 0.64076
 C2182 C 0.68375 0.36751 0.63242
 N2183 N 0.69239 0.35917 0.61607
 N2184 N 0.70908 0.36681 0.60840
 C2185 C 0.73640 0.39124 0.60859
 N2186 N 0.74523 0.38263 0.59250
 N2187 N 0.76233 0.38980 0.58530
 C2188 C 0.77123 0.40584 0.59392
 N2189 N 0.76236 0.41449 0.60997
 N2190 N 0.74526 0.40732 0.61718
 C2191 C 0.79029 0.41348 0.58624
 N2192 N 0.79934 0.42932 0.59506
 N2193 N 0.81681 0.43601 0.58833
 C2194 C 0.82596 0.42714 0.57252
 N2195 N 0.81681 0.41134 0.56369
 N2196 N 0.79933 0.40463 0.57041
 C2197 C 0.21800 0.88280 0.61718
 N2198 N 0.20932 0.89116 0.63348
 N2199 N 0.19268 0.88343 0.64117
 C2200 C 0.18409 0.86704 0.63286
 N2201 N 0.19276 0.85874 0.61649
 N2202 N 0.20940 0.86648 0.60881
 C2203 C 0.23657 0.89108 0.60895
 N2204 N 0.24542 0.88254 0.59283
 N2205 N 0.26246 0.88982 0.58560
 C2206 C 0.27127 0.90591 0.59421
 N2207 N 0.26239 0.91449 0.61030
 N2208 N 0.24535 0.90721 0.61753
 C2209 C 0.29027 0.91368 0.58649
 N2210 N 0.29926 0.92955 0.59531
 N2211 N 0.31669 0.93635 0.58854
 C2212 C 0.32583 0.92756 0.57269
 N2213 N 0.31673 0.91172 0.56386
 N2214 N 0.29931 0.90491 0.57062
 C2215 C 0.21758 0.38296 1.11737
 N2216 N 0.20899 0.39133 1.13371
 N2217 N 0.19234 0.38367 1.14145
 C2218 C 0.18366 0.36733 1.13313
 N2219 N 0.19223 0.35903 1.11673
 N2220 N 0.20888 0.36669 1.10900
 C2221 C 0.23617 0.39114 1.10909
 N2222 N 0.24494 0.38255 1.09296
 N2223 N 0.26201 0.38973 1.08568
 C2224 C 0.27092 0.40578 1.09427
 N2225 N 0.26211 0.41441 1.11036
 N2226 N 0.24505 0.40722 1.11764
 C2227 C 0.28995 0.41344 1.08652
 N2228 N 0.29901 0.42928 1.09530
 N2229 N 0.31646 0.43598 1.08851
 C2230 C 0.32556 0.42713 1.07268
 N2231 N 0.31640 0.41131 1.06388
 N2232 N 0.29894 0.40459 1.07066
 C2233 C 0.71823 1.11758 0.88198
 N2234 N 0.70969 1.10922 0.86560
 N2235 N 0.69306 1.11690 0.85783
 C2236 C 0.68436 1.13323 0.86613
 N2237 N 0.69290 1.14153 0.88256
 N2238 N 0.70952 1.13385 0.89033
 C2239 C 0.73678 1.10936 0.89032
 N2240 N 0.74549 1.11794 0.90649
 N2241 N 0.76250 1.11071 0.91384
 C2242 C 0.77142 1.09464 0.90530
 N2243 N 0.76267 1.08602 0.88916
 N2244 N 0.74566 1.09325 0.88181
 C2245 C 0.79038 1.08691 0.91315
 N2246 N 0.79943 1.07103 0.90441
 N2247 N 0.81681 1.06426 0.91129
 C2248 C 0.82586 1.07308 0.92718
 N2249 N 0.81671 1.08894 0.93593
 N2250 N 0.79932 1.09572 0.92905
 C2251 C 0.71744 0.61613 0.38384
 N2252 N 0.70872 0.60772 0.36759
 N2253 N 0.69201 0.61537 0.35997
 C2254 C 0.68342 0.63171 0.36834
 N2255 N 0.69210 0.64008 0.38463
 N2256 N 0.70881 0.63242 0.39225
 C2257 C 0.73609 0.60796 0.39196
 N2258 N 0.74500 0.61657 0.40801
 N2259 N 0.76213 0.60940 0.41512
 C2260 C 0.77099 0.59336 0.40646
 N2261 N 0.76205 0.58471 0.39045
 N2262 N 0.74492 0.59188 0.38333
 C2263 C 0.79009 0.58574 0.41403
 N2264 N 0.79913 0.56993 0.40516
 N2265 N 0.81665 0.56326 0.41180
 C2266 C 0.82584 0.57214 0.42756
 N2267 N 0.81670 0.58792 0.43645
 N2268 N 0.79918 0.59459 0.42982
 C2269 C 0.21812 1.11734 0.38214
 N2270 N 0.20955 1.10897 0.36579
 N2271 N 0.19291 1.11663 0.35805
 C2272 C 0.18421 1.13296 0.36636
 N2273 N 0.19277 1.14127 0.38276
 N2274 N 0.20941 1.13361 0.39050
 C2275 C 0.23670 1.10915 0.39044
 N2276 N 0.24545 1.11774 0.40658
 N2277 N 0.26249 1.11055 0.41389
 C2278 C 0.27141 1.09449 0.40532
 N2279 N 0.26263 1.08586 0.38921
 N2280 N 0.24558 1.09306 0.38190
 C2281 C 0.29041 1.08681 0.41311
 N2282 N 0.29947 1.07095 0.40435
 N2283 N 0.31689 1.06422 0.41117
 C2284 C 0.32596 1.07306 0.42703
 N2285 N 0.31680 1.08890 0.43580
 N2286 N 0.29938 1.09564 0.42899
 C2287 C 0.21683 0.61568 0.88432
 N2288 N 0.20812 0.60728 0.86806
 N2289 N 0.19141 0.61493 0.86046
 C2290 C 0.18280 0.63125 0.86884
 N2291 N 0.19148 0.63961 0.88514
 N2292 N 0.20819 0.63196 0.89275
 C2293 C 0.23550 0.60753 0.89242
 N2294 N 0.24441 0.61614 0.90846
 N2295 N 0.26157 0.60900 0.91554
 C2296 C 0.27045 0.59299 0.90684
 N2297 N 0.26150 0.58434 0.89083
 N2298 N 0.24435 0.59148 0.88375
 C2299 C 0.28959 0.58540 0.91437
 N2300 N 0.29865 0.56964 0.90545
 N2301 N 0.31621 0.56302 0.91203
 C2302 C 0.32541 0.57189 0.92779
 N2303 N 0.31624 0.58764 0.93673
 N2304 N 0.29868 0.59426 0.93015
 C2305 C 1.11698 1.28233 1.11693
 N2306 N 1.13330 1.29097 1.10856
 N2307 N 1.14101 1.30760 1.11626
 C2308 C 1.13270 1.31620 1.13263
 N2309 N 1.11634 1.30761 1.14096
 N2310 N 1.10863 1.29097 1.13326
 C2311 C 1.10874 1.26376 1.10870
 N2312 N 1.09264 1.25494 1.11730
 N2313 N 1.08541 1.23788 1.11008
 C2314 C 1.09402 1.22902 1.09400
 N2315 N 1.11008 1.23787 1.08536
 N2316 N 1.11731 1.25493 1.09259
 C2317 C 1.08632 1.20999 1.08631
 N2318 N 1.09514 1.20095 1.07045
 N2319 N 1.08840 1.18349 1.06374
 C2320 C 1.07260 1.17435 1.07260
 N2321 N 1.06377 1.18349 1.08843
 N2322 N 1.07049 1.20095 1.09515
 C2323 C 1.11754 0.78183 0.61677
 N2324 N 1.13388 0.79043 0.60840
 N2325 N 1.14158 0.80709 0.61606
 C2326 C 1.13323 0.81576 0.63238
 N2327 N 1.11686 0.80719 0.64071
 N2328 N 1.10916 0.79053 0.63305
 C2329 C 1.10929 0.76324 0.60859
 N2330 N 1.09316 0.75447 0.61718
 N2331 N 1.08590 0.73741 0.60999
 C2332 C 1.09450 0.72850 0.59394
 N2333 N 1.11059 0.73730 0.58531
 N2334 N 1.11785 0.75436 0.59250
 C2335 C 1.08675 0.70948 0.58627
 N2336 N 1.09554 0.70042 0.57042
 N2337 N 1.08875 0.68298 0.56370
 C2338 C 1.07291 0.67389 0.57255
 N2339 N 1.06410 0.68305 0.58838
 N2340 N 1.07088 0.70050 0.59511
 C2341 C 0.61699 1.28251 0.61625
 N2342 N 0.63334 1.29108 0.60788
 N2343 N 0.64107 1.30773 0.61553
 C2344 C 0.63272 1.31642 0.63184
 N2345 N 0.61633 1.30788 0.64017
 N2346 N 0.60861 1.29123 0.63252
 C2347 C 0.60874 1.26391 0.60809
 N2348 N 0.59262 1.25515 0.61670
 N2349 N 0.58537 1.23806 0.60954
 C2350 C 0.59399 1.22912 0.59352
 N2351 N 0.61007 1.23792 0.58487
 N2352 N 0.61732 1.25500 0.59202
 C2353 C 0.58628 1.21006 0.58591
 N2354 N 0.59510 1.20097 0.57009
 N2355 N 0.58836 1.18349 0.56344
 C2356 C 0.57255 1.17439 0.57233
 N2357 N 0.56371 1.18359 0.58812
 N2358 N 0.57044 1.20107 0.59478
 C2359 C 0.61650 0.78203 1.11718
 N2360 N 0.60812 0.79066 1.13351
 N2361 N 0.61579 0.80732 1.14119
 C2362 C 0.63212 0.81596 1.13284
 N2363 N 0.64046 0.80736 1.11648
 N2364 N 0.63279 0.79070 1.10879
 C2365 C 0.60830 0.76343 1.10896
 N2366 N 0.61688 0.75462 1.09284
 N2367 N 0.60967 0.73755 1.08562
 C2368 C 0.59362 0.72867 1.09424
 N2369 N 0.58500 0.73751 1.11032
 N2370 N 0.59221 0.75458 1.11755
 C2371 C 0.58594 0.70964 1.08653
 N2372 N 0.57010 0.70059 1.09535
 N2373 N 0.56338 0.68314 1.08859
 C2374 C 0.57222 0.67403 1.07276
 N2375 N 0.58804 0.68317 1.06392
 N2376 N 0.59477 0.70063 1.07067
 C2377 C 0.88211 1.28173 0.88233
 N2378 N 0.86575 1.29033 0.89066
 N2379 N 0.85799 1.30691 0.88290
 C2380 C 0.86629 1.31551 0.86651
 N2381 N 0.88269 1.30694 0.85822
 N2382 N 0.89045 1.29036 0.86598
 C2383 C 0.89043 1.26323 0.89064
 N2384 N 0.90659 1.25446 0.88210
 N2385 N 0.91391 1.23747 0.88941
 C2386 C 0.90535 1.22864 0.90553
 N2387 N 0.88922 1.23744 0.91410
 N2388 N 0.88190 1.25442 0.90679
 C2389 C 0.91316 1.20969 0.91333
 N2390 N 0.90439 1.20069 0.92922
 N2391 N 0.91123 1.18330 0.93604
 C2392 C 0.92710 1.17422 0.92725
 N2393 N 0.93589 1.18333 0.91138
 N2394 N 0.92905 1.20071 0.90455
 C2395 C 0.88341 0.78203 0.38287
 N2396 N 0.89180 0.79067 0.36655
 N2397 N 0.88414 0.80734 0.35887
 C2398 C 0.86782 0.81599 0.36723
 N2399 N 0.85948 0.80738 0.38358
 N2400 N 0.86713 0.79071 0.39126
 C2401 C 0.89160 0.76342 0.39108
 N2402 N 0.88300 0.75461 0.40719
 N2403 N 0.89019 0.73752 0.41441
 C2404 C 0.90624 0.72864 0.40579
 N2405 N 0.91487 0.73749 0.38971
 N2406 N 0.90768 0.75457 0.38249
 C2407 C 0.91390 0.70959 0.41348
 N2408 N 0.92974 0.70054 0.40466
 N2409 N 0.93644 0.68308 0.41140
 C2410 C 0.92759 0.67396 0.42723
 N2411 N 0.91178 0.68311 0.43607
 N2412 N 0.90507 0.70057 0.42933
 C2413 C 0.38294 1.28238 0.38292
 N2414 N 0.36662 1.29100 0.39130
 N2415 N 0.35887 1.30761 0.38358
 C2416 C 0.36717 1.31622 0.36720
 N2417 N 0.38354 1.30764 0.35887
 N2418 N 0.39128 1.29103 0.36659
 C2419 C 0.39122 1.26383 0.39116
 N2420 N 0.40733 1.25503 0.38257
 N2421 N 0.41459 1.23798 0.38980
 C2422 C 0.40600 1.22912 0.40589
 N2423 N 0.38993 1.23796 0.41452
 N2424 N 0.38267 1.25500 0.40729
 C2425 C 0.41373 1.21010 0.41359
 N2426 N 0.40494 1.20107 0.42946
 N2427 N 0.41169 1.18362 0.43618
 C2428 C 0.42750 1.17449 0.42732
 N2429 N 0.43632 1.18363 0.41148
 N2430 N 0.42957 1.20108 0.40474
 C2431 C 0.38252 0.78202 0.88333
 N2432 N 0.39091 0.79073 0.86706
 N2433 N 0.38322 0.80740 0.85942
 C2434 C 0.36685 0.81597 0.86777
 N2435 N 0.35850 0.80729 0.88407
 N2436 N 0.36619 0.79062 0.89172
 C2437 C 0.39076 0.76341 0.89150
 N2438 N 0.38218 0.75452 0.90758
 N2439 N 0.38943 0.73744 0.91475
 C2440 C 0.40550 0.72863 0.90610
 N2441 N 0.41411 0.73755 0.89006
 N2442 N 0.40687 0.75463 0.88289
 C2443 C 0.41322 0.70958 0.91375
 N2444 N 0.42907 0.70059 0.90490
 N2445 N 0.43582 0.68313 0.91160
 C2446 C 0.42700 0.67395 0.92742
 N2447 N 0.41118 0.68305 0.93628
 N2448 N 0.40442 0.70051 0.92959
 C2449 C 1.11567 0.71714 0.88425
 N2450 N 1.10726 0.70845 0.86798
 N2451 N 1.11486 0.69172 0.86038
 C2452 C 1.13115 0.68306 0.86878
 N2453 N 1.13952 0.69171 0.88509
 N2454 N 1.13192 0.70845 0.89269
 C2455 C 1.10757 0.73583 0.89235
 N2456 N 1.11620 0.74470 0.90841
 N2457 N 1.10910 0.76187 0.91551
 C2458 C 1.09311 0.77080 0.90681
 N2459 N 1.08445 0.76189 0.89079
 N2460 N 1.09154 0.74472 0.88370
 C2461 C 1.08556 0.78994 0.91436
 N2462 N 1.06981 0.79904 0.90546
 N2463 N 1.06321 0.81659 0.91207
 C2464 C 1.07210 0.82576 0.92784
 N2465 N 1.08784 0.81656 0.93676
 N2466 N 1.09444 0.79901 0.93016
 C2467 C 1.11745 0.21788 0.38266
 N2468 N 1.13379 0.20927 0.39101
 N2469 N 1.14153 0.19266 0.38328
 C2470 C 1.13321 0.18405 0.36692
 N2471 N 1.11684 0.19263 0.35860
 N2472 N 1.10910 0.20924 0.36633
 C2473 C 1.10918 0.23643 0.39092
 N2474 N 1.09306 0.24523 0.38235
 N2475 N 1.08579 0.26226 0.38961
 C2476 C 1.09438 0.27112 0.40569
 N2477 N 1.11047 0.26229 0.41429
 N2478 N 1.11773 0.24525 0.40704
 C2479 C 1.08664 0.29012 0.41341
 N2480 N 1.09544 0.29915 0.42927
 N2481 N 1.08867 0.31658 0.43603
 C2482 C 1.07283 0.32569 0.42720
 N2483 N 1.06402 0.31656 0.41136
 N2484 N 1.07079 0.29913 0.40460
 C2485 C 0.61620 0.71753 0.38385
 N2486 N 0.63249 0.70888 0.39225
 N2487 N 0.64011 0.69216 0.38463
 C2488 C 0.63173 0.68349 0.36834
 N2489 N 0.61540 0.69211 0.35998
 N2490 N 0.60778 0.70883 0.36760
 C2491 C 0.60806 0.73620 0.39197
 N2492 N 0.59199 0.74504 0.38334
 N2493 N 0.58485 0.76218 0.39046
 C2494 C 0.59352 0.77111 0.40646
 N2495 N 0.60955 0.76224 0.41513
 N2496 N 0.61669 0.74510 0.40801
 C2497 C 0.58591 0.79022 0.41404
 N2498 N 0.59478 0.79931 0.42983
 N2499 N 0.58812 0.81684 0.43645
 C2500 C 0.57234 0.82599 0.42756
 N2501 N 0.56346 0.81680 0.41180
 N2502 N 0.57011 0.79927 0.40516
 C2503 C 0.61753 0.21810 0.88246
 N2504 N 0.63387 0.20950 0.89081
 N2505 N 0.64164 0.19291 0.88306
 C2506 C 0.63335 0.18431 0.86668
 N2507 N 0.61697 0.19288 0.85837
 N2508 N 0.60920 0.20947 0.86612
 C2509 C 0.60922 0.23662 0.89076
 N2510 N 0.59308 0.24540 0.88220
 N2511 N 0.58577 0.26240 0.88949
 C2512 C 0.59433 0.27124 0.90560
 N2513 N 0.61043 0.26243 0.91419
 N2514 N 0.61774 0.24543 0.90690
 C2515 C 0.58654 0.29020 0.91337
 N2516 N 0.59531 0.29921 0.92926
 N2517 N 0.58848 0.31661 0.93605
 C2518 C 0.57263 0.32571 0.92724
 N2519 N 0.56384 0.31659 0.91138
 N2520 N 0.57066 0.29919 0.90458
 C2521 C 0.88377 0.71743 1.11606
 N2522 N 0.89219 0.70870 1.13231
 N2523 N 0.88455 0.69198 1.13990
 C2524 C 0.86822 0.68338 1.13153
 N2525 N 0.85984 0.69208 1.11525
 N2526 N 0.86748 0.70880 1.10765
 C2527 C 0.89192 0.73610 1.10797
 N2528 N 0.88330 0.74503 1.09194
 N2529 N 0.89045 0.76218 1.08484
 C2530 C 0.90648 0.77103 1.09352
 N2531 N 0.91514 0.76208 1.10952
 N2532 N 0.90799 0.74493 1.11661
 C2533 C 0.91409 0.79015 1.08597
 N2534 N 0.92990 0.79919 1.09486
 N2535 N 0.93655 0.81672 1.08825
 C2536 C 0.92767 0.82593 1.07249
 N2537 N 0.91189 0.81680 1.06359
 N2538 N 0.90523 0.79926 1.07019
 C2539 C 0.88245 0.21806 0.61756
 N2540 N 0.86611 0.20946 0.60921
 N2541 N 0.85833 0.19287 0.61696
 C2542 C 0.86661 0.18428 0.63336
 N2543 N 0.88299 0.19285 0.64167
 N2544 N 0.89077 0.20943 0.63392
 C2545 C 0.89077 0.23657 0.60927
 N2546 N 0.90691 0.24535 0.61783
 N2547 N 0.91422 0.26235 0.61053
 C2548 C 0.90568 0.27118 0.59441
 N2549 N 0.88958 0.26237 0.58581
 N2550 N 0.88226 0.24537 0.59311
 C2551 C 0.91348 0.29014 0.58664
 N2552 N 0.90472 0.29914 0.57073
 N2553 N 0.91155 0.31654 0.56393
 C2554 C 0.92739 0.32564 0.57276
 N2555 N 0.93616 0.31654 0.58864
 N2556 N 0.92934 0.29914 0.59545
 C2557 C 0.38260 0.71810 0.61661
 N2558 N 0.36627 0.70951 0.60823
 N2559 N 0.35856 0.69284 0.61587
 C2560 C 0.36691 0.68416 0.63219
 N2561 N 0.38327 0.69272 0.64053
 N2562 N 0.39097 0.70939 0.63289
 C2563 C 0.39085 0.73670 0.60845
 N2564 N 0.40696 0.74547 0.61705
 N2565 N 0.41422 0.76255 0.60988
 C2566 C 0.40563 0.77147 0.59383
 N2567 N 0.38955 0.76267 0.58519
 N2568 N 0.38229 0.74560 0.59236
 C2569 C 0.41337 0.79051 0.58618
 N2570 N 0.40459 0.79958 0.57034
 N2571 N 0.41137 0.81703 0.56364
 C2572 C 0.42720 0.82612 0.57250
 N2573 N 0.43600 0.81695 0.58832
 N2574 N 0.42922 0.79949 0.59503
 C2575 C 0.38270 0.21763 1.11704
 N2576 N 0.39106 0.20899 1.13337
 N2577 N 0.38333 0.19237 1.14110
 C2578 C 0.36696 0.18378 1.13279
 N2579 N 0.35864 0.19239 1.11642
 N2580 N 0.36637 0.20900 1.10869
 C2581 C 0.39095 0.23618 1.10879
 N2582 N 0.38239 0.24501 1.09267
 N2583 N 0.38963 0.26206 1.08543
 C2584 C 0.40571 0.27090 1.09404
 N2585 N 0.41432 0.26204 1.11011
 N2586 N 0.40707 0.24499 1.11736
 C2587 C 0.41342 0.28992 1.08633
 N2588 N 0.42927 0.29894 1.09515
 N2589 N 0.43601 0.31639 1.08840
 C2590 C 0.42718 0.32552 1.07257
 N2591 N 0.41136 0.31640 1.06374
 N2592 N 0.40461 0.29895 1.07047
 C2593 C 1.11608 1.11675 0.71735
 N2594 N 1.10769 1.13306 0.70873
 N2595 N 1.11532 1.14075 0.69204
 C2596 C 1.13162 1.13240 0.68335
 N2597 N 1.13997 1.11605 0.69193
 N2598 N 1.13234 1.10836 0.70862
 C2599 C 1.10794 1.10854 0.73599
 N2600 N 1.11657 1.09246 0.74480
 N2601 N 1.10945 1.08526 0.76193
 C2602 C 1.09343 1.09388 0.77087
 N2603 N 1.08476 1.10992 0.76203
 N2604 N 1.09189 1.11712 0.74490
 C2605 C 1.08584 1.08622 0.78997
 N2606 N 1.07004 1.09504 0.79907
 N2607 N 1.06340 1.08835 0.81659
 C2608 C 1.07230 1.07257 0.82573
 N2609 N 1.08808 1.06373 0.81653
 N2610 N 1.09473 1.07042 0.79901
 C2611 C 1.11737 0.61809 0.21804
 N2612 N 1.10903 0.63448 0.20953
 N2613 N 1.11672 0.64228 0.19291
 C2614 C 1.13305 0.63399 0.18419
 N2615 N 1.14133 0.61755 0.19269
 N2616 N 1.13364 0.60975 0.20930
 C2617 C 1.10915 0.60972 0.23658
 N2618 N 1.11772 0.59353 0.24527
 N2619 N 1.11050 0.58616 0.26228
 C2620 C 1.09444 0.59469 0.27123
 N2621 N 1.08583 0.61083 0.26251
 N2622 N 1.09305 0.61821 0.24550
 C2623 C 1.08673 0.58682 0.29020
 N2624 N 1.07086 0.59554 0.29928
 N2625 N 1.06410 0.58864 0.31668
 C2626 C 1.07293 0.57276 0.32570
 N2627 N 1.08878 0.56402 0.31652
 N2628 N 1.09555 0.57091 0.29912
 C2629 C 0.61710 1.11787 0.21770
 N2630 N 0.60874 1.13421 0.20910
 N2631 N 0.61644 1.14196 0.19247
 C2632 C 0.63280 1.13366 0.18380
 N2633 N 0.64110 1.11727 0.19239
 N2634 N 0.63340 1.10952 0.20902
 C2635 C 0.60887 1.10958 0.23627
 N2636 N 0.61745 1.09345 0.24504
 N2637 N 0.61023 1.08615 0.26209
 C2638 C 0.59416 1.09472 0.27098
 N2639 N 0.58554 1.11081 0.26218
 N2640 N 0.59276 1.11811 0.24513
 C2641 C 0.58645 1.08694 0.28999
 N2642 N 0.57059 1.09571 0.29905
 N2643 N 0.56385 1.08890 0.31649
 C2644 C 0.57269 1.07306 0.32558
 N2645 N 0.58853 1.06428 0.31642
 N2646 N 0.59528 1.07108 0.29898
 C2647 C 0.61622 0.61631 0.71746
 N2648 N 0.60784 0.63261 0.70880
 N2649 N 0.61551 0.64028 0.69212
 C2650 C 0.63183 0.63193 0.68348
 N2651 N 0.64017 0.61559 0.69210
 N2652 N 0.63251 0.60793 0.70878
 C2653 C 0.60804 0.60813 0.73609
 N2654 N 0.61665 0.59205 0.74493
 N2655 N 0.60948 0.58487 0.76205
 C2656 C 0.59344 0.59350 0.77095
 N2657 N 0.58480 0.60954 0.76207
 N2658 N 0.59197 0.61672 0.74495
 C2659 C 0.58581 0.58586 0.79004
 N2660 N 0.56999 0.59470 0.79910
 N2661 N 0.56332 0.58801 0.81661
 C2662 C 0.57219 0.57223 0.82577
 N2663 N 0.58798 0.56338 0.81661
 N2664 N 0.59466 0.57005 0.79909
 C2665 C 0.88388 0.88393 0.71733
 N2666 N 0.89228 0.86764 0.70868
 N2667 N 0.88466 0.85998 0.69198
 C2668 C 0.86835 0.86833 0.68332
 N2669 N 0.85998 0.88466 0.69193
 N2670 N 0.86761 0.89232 0.70863
 C2671 C 0.89201 0.89210 0.73598
 N2672 N 0.88338 0.90817 0.74482
 N2673 N 0.89050 0.91534 0.76196
 C2674 C 0.90652 0.90670 0.77088
 N2675 N 0.91519 0.89068 0.76200
 N2676 N 0.90807 0.88351 0.74487
 C2677 C 0.91410 0.91433 0.78999
 N2678 N 0.92990 0.90549 0.79907
 N2679 N 0.93653 0.91216 0.81660
 C2680 C 0.92763 0.92792 0.82576
 N2681 N 0.91186 0.93678 0.81657
 N2682 N 0.90522 0.93012 0.79904
 C2683 C 0.88319 0.38324 0.21740
 N2684 N 0.86688 0.39162 0.20878
 N2685 N 0.85918 0.38397 0.19211
 C2686 C 0.86751 0.36763 0.18343
 N2687 N 0.88388 0.35932 0.19203
 N2688 N 0.89158 0.36697 0.20870
 C2689 C 0.89142 0.39141 0.23602
 N2690 N 0.90752 0.38281 0.24482
 N2691 N 0.91475 0.38998 0.26191
 C2692 C 0.90613 0.40601 0.27083
 N2693 N 0.89006 0.41464 0.26200
 N2694 N 0.88284 0.40748 0.24490
 C2695 C 0.91382 0.41364 0.28990
 N2696 N 0.90500 0.42945 0.29898
 N2697 N 0.91174 0.43613 0.31647
 C2698 C 0.92756 0.42727 0.32558
 N2699 N 0.93639 0.41148 0.31639
 N2700 N 0.92966 0.40480 0.29891
 C2701 C 0.38358 0.88303 0.21753
 N2702 N 0.39194 0.86666 0.20898
 N2703 N 0.38429 0.85892 0.19233
 C2704 C 0.36799 0.86726 0.18362
 N2705 N 0.35968 0.88366 0.19214
 N2706 N 0.36733 0.89141 0.20879
 C2707 C 0.39175 0.89132 0.23612
 N2708 N 0.38314 0.90745 0.24486
 N2709 N 0.39030 0.91473 0.26194
 C2710 C 0.40632 0.90614 0.27090
 N2711 N 0.41496 0.89004 0.26213
 N2712 N 0.40781 0.88276 0.24505
 C2713 C 0.41394 0.91389 0.28995
 N2714 N 0.42976 0.90510 0.29905
 N2715 N 0.43642 0.91188 0.31652
 C2716 C 0.42755 0.92771 0.32560
 N2717 N 0.41175 0.93651 0.31640
 N2718 N 0.40508 0.92975 0.29892
 C2719 C 0.38269 0.38201 0.71798
 N2720 N 0.39105 0.36567 0.70939
 N2721 N 0.38337 0.35793 0.69275
 C2722 C 0.36703 0.36623 0.68407
 N2723 N 0.35872 0.38263 0.69265
 N2724 N 0.36641 0.39036 0.70929
 C2725 C 0.39091 0.39030 0.73655
 N2726 N 0.38233 0.40644 0.74532
 N2727 N 0.38955 0.41374 0.76236
 C2728 C 0.40562 0.40517 0.77126
 N2729 N 0.41423 0.38907 0.76246
 N2730 N 0.40701 0.38177 0.74542
 C2731 C 0.41333 0.41296 0.79025
 N2732 N 0.42919 0.40420 0.79931
 N2733 N 0.43594 0.41103 0.81673
 C2734 C 0.42711 0.42688 0.82581
 N2735 N 0.41127 0.43566 0.81665
 N2736 N 0.40451 0.42884 0.79923
 C2737 C 1.11699 0.88308 1.28241
 N2738 N 1.10863 0.86675 1.29103
 N2739 N 1.11631 0.85904 1.30769
 C2740 C 1.13266 0.86736 1.31635
 N2741 N 1.14096 0.88375 1.30774
 N2742 N 1.13327 0.89145 1.29109
 C2743 C 1.10878 0.89132 1.26382
 N2744 N 1.11736 0.90743 1.25501
 N2745 N 1.11015 0.91468 1.23794
 C2746 C 1.09410 0.90607 1.22905
 N2747 N 1.08548 0.89000 1.23789
 N2748 N 1.09269 0.88275 1.25496
 C2749 C 1.08642 0.91379 1.21001
 N2750 N 1.07057 0.90499 1.20097
 N2751 N 1.06385 0.91175 1.18351
 C2752 C 1.07269 0.92757 1.17438
 N2753 N 1.08851 0.93639 1.18353
 N2754 N 1.09525 0.92964 1.20099
 C2755 C 1.11719 0.38202 0.78199
 N2756 N 1.10882 0.36567 0.79057
 N2757 N 1.11650 0.35792 0.80721
 C2758 C 1.13284 0.36622 0.81590
 N2759 N 1.14115 0.38262 0.80733
 N2760 N 1.13347 0.39037 0.79069
 C2761 C 1.10898 0.39032 0.76342
 N2762 N 1.11757 0.40645 0.75466
 N2763 N 1.11036 0.41377 0.73762
 C2764 C 1.09429 0.40521 0.72871
 N2765 N 1.08566 0.38911 0.73750
 N2766 N 1.09287 0.38180 0.75454
 C2767 C 1.08659 0.41301 0.70971
 N2768 N 1.07072 0.40426 0.70066
 N2769 N 1.06397 0.41109 0.68324
 C2770 C 1.07282 0.42693 0.67415
 N2771 N 1.08867 0.43570 0.68330
 N2772 N 1.09542 0.42887 0.70073
 C2773 C 0.61601 0.88398 0.78273
 N2774 N 0.60761 0.86769 0.79139
 N2775 N 0.61524 0.86004 0.80809
 C2776 C 0.63156 0.86839 0.81674
 N2777 N 0.63992 0.88471 0.80811
 N2778 N 0.63228 0.89237 0.79141
 C2779 C 0.60787 0.89214 0.76407
 N2780 N 0.61649 0.90821 0.75522
 N2781 N 0.60935 0.91536 0.73808
 C2782 C 0.59333 0.90671 0.72917
 N2783 N 0.58467 0.89069 0.73806
 N2784 N 0.59181 0.88353 0.75520
 C2785 C 0.58574 0.91433 0.71006
 N2786 N 0.56994 0.90547 0.70098
 N2787 N 0.56331 0.91214 0.68345
 C2788 C 0.57220 0.92791 0.67429
 N2789 N 0.58797 0.93678 0.68347
 N2790 N 0.59461 0.93013 0.70100
 C2791 C 0.61614 0.38320 1.28260
 N2792 N 0.60778 0.36688 1.29125
 N2793 N 0.61546 0.35920 1.30791
 C2794 C 0.63178 0.36755 1.31655
 N2795 N 0.64010 0.38391 1.30794
 N2796 N 0.63242 0.39159 1.29127
 C2797 C 0.60795 0.39140 1.26399
 N2798 N 0.61654 0.40749 1.25515
 N2799 N 0.60936 0.41468 1.23805
 C2800 C 0.59333 0.40604 1.22915
 N2801 N 0.58471 0.38999 1.23802
 N2802 N 0.59188 0.38280 1.25512
 C2803 C 0.58570 0.41369 1.21007
 N2804 N 0.56989 0.40485 1.20100
 N2805 N 0.56322 0.41154 1.18350
 C2806 C 0.57208 0.42734 1.17435
 N2807 N 0.58786 0.43620 1.18352
 N2808 N 0.59454 0.42952 1.20102
 C2809 C 0.88303 1.11777 1.28231
 N2810 N 0.89138 1.13411 1.29091
 N2811 N 0.88368 1.14185 1.30754
 C2812 C 0.86732 1.13355 1.31620
 N2813 N 0.85902 1.11716 1.30762
 N2814 N 0.86673 1.10942 1.29099
 C2815 C 0.89126 1.10948 1.26374
 N2816 N 0.88268 1.09335 1.25497
 N2817 N 0.88991 1.08606 1.23792
 C2818 C 0.90598 1.09464 1.22903
 N2819 N 0.91460 1.11073 1.23783
 N2820 N 0.90737 1.11802 1.25488
 C2821 C 0.91369 1.08686 1.21002
 N2822 N 0.92955 1.09563 1.20096
 N2823 N 0.93629 1.08882 1.18353
 C2824 C 0.92745 1.07298 1.17444
 N2825 N 0.91162 1.06420 1.18360
 N2826 N 0.90487 1.07100 1.20104
 C2827 C 0.88363 0.61635 0.78246
 N2828 N 0.89201 0.63265 0.79111
 N2829 N 0.88435 0.64032 0.80779
 C2830 C 0.86803 0.63197 0.81645
 N2831 N 0.85969 0.61563 0.80784
 N2832 N 0.86735 0.60796 0.79115
 C2833 C 0.89180 0.60816 0.76383
 N2834 N 0.88321 0.59208 0.75500
 N2835 N 0.89038 0.58489 0.73788
 C2836 C 0.90640 0.59353 0.72897
 N2837 N 0.91504 0.60958 0.73784
 N2838 N 0.90787 0.61677 0.75495
 C2839 C 0.91404 0.58588 0.70989
 N2840 N 0.92984 0.59472 0.70081
 N2841 N 0.93652 0.58803 0.68331
 C2842 C 0.92766 0.57223 0.67417
 N2843 N 0.91188 0.56336 0.68335
 N2844 N 0.90519 0.57005 0.70085
 C2845 C 0.38272 1.11790 0.78198
 N2846 N 0.39107 1.13424 0.79057
 N2847 N 0.38338 1.14197 0.80722
 C2848 C 0.36703 1.13366 0.81589
 N2849 N 0.35873 1.11726 0.80731
 N2850 N 0.36643 1.10953 0.79067
 C2851 C 0.39095 1.10961 0.76341
 N2852 N 0.38238 1.09348 0.75463
 N2853 N 0.38961 1.08619 0.73759
 C2854 C 0.40569 1.09476 0.72870
 N2855 N 0.41429 1.11086 0.73750
 N2856 N 0.40706 1.11815 0.75454
 C2857 C 0.41341 1.08698 0.70970
 N2858 N 0.42928 1.09574 0.70065
 N2859 N 0.43604 1.08892 0.68323
 C2860 C 0.42721 1.07308 0.67414
 N2861 N 0.41136 1.06430 0.68328
 N2862 N 0.40459 1.07111 0.70071
 C2863 C 0.38306 0.61696 1.28239
 N2864 N 0.39144 0.63330 1.29097
 N2865 N 0.38380 0.64102 1.30764
 C2866 C 0.36747 0.63272 1.31636
 N2867 N 0.35915 0.61633 1.30779
 N2868 N 0.36679 0.60860 1.29112
 C2869 C 0.39122 0.60870 1.26379
 N2870 N 0.38260 0.59258 1.25502
 N2871 N 0.38976 0.58532 1.23794
 C2872 C 0.40580 0.59390 1.22899
 N2873 N 0.41445 0.60998 1.23779
 N2874 N 0.40729 0.61724 1.25487
 C2875 C 0.41343 0.58616 1.20994
 N2876 N 0.42927 0.59495 1.20085
 N2877 N 0.43595 0.58818 1.18338
 C2878 C 0.42708 0.57236 1.17428
 N2879 N 0.41127 0.56356 1.18347
 N2880 N 0.40458 0.57032 1.20095
 C2881 C 1.11713 1.28195 0.88217
 N2882 N 1.10878 1.29052 0.86581
 N2883 N 1.11647 1.30714 0.85805
 C2884 C 1.13281 1.31582 0.86635
 N2885 N 1.14110 1.30726 0.88277
 N2886 N 1.13341 1.29064 0.89053
 C2887 C 1.10891 1.26340 0.89049
 N2888 N 1.11748 1.25465 0.90664
 N2889 N 1.11026 1.23762 0.91396
 C2890 C 1.09419 1.22872 0.90540
 N2891 N 1.08558 1.23750 0.88928
 N2892 N 1.09280 1.25453 0.88196
 C2893 C 1.08648 1.20974 0.91321
 N2894 N 1.07062 1.20069 0.90446
 N2895 N 1.06387 1.18328 0.91130
 C2896 C 1.07270 1.17421 0.92716
 N2897 N 1.08855 1.18336 0.93593
 N2898 N 1.09531 1.20077 0.92910
 C2899 C 1.11671 0.78209 0.38288
 N2900 N 1.10832 0.79071 0.36656
 N2901 N 1.11595 0.80739 0.35887
 C2902 C 1.13225 0.81607 0.36723
 N2903 N 1.14060 0.80748 0.38358
 N2904 N 1.13297 0.79080 0.39127
 C2905 C 1.10856 0.76347 0.39110
 N2906 N 1.11717 0.75467 0.40721
 N2907 N 1.11001 0.73758 0.41443
 C2908 C 1.09398 0.72866 0.40582
 N2909 N 1.08533 0.73749 0.38975
 N2910 N 1.09249 0.75459 0.38253
 C2911 C 1.08635 0.70960 0.41352
 N2912 N 1.07052 0.70054 0.40471
 N2913 N 1.06384 0.68307 0.41145
 C2914 C 1.07270 0.67395 0.42727
 N2915 N 1.08851 0.68311 0.43610
 N2916 N 1.09520 0.70059 0.42936
 C2917 C 0.61672 1.28263 0.38337
 N2918 N 0.60832 1.29131 0.36710
 N2919 N 0.61599 1.30799 0.35943
 C2920 C 0.63236 1.31661 0.36775
 N2921 N 0.64070 1.30794 0.38408
 N2922 N 0.63303 1.29127 0.39175
 C2923 C 0.60854 1.26401 0.39155
 N2924 N 0.61715 1.25513 0.40762
 N2925 N 0.60996 1.23803 0.41479
 C2926 C 0.59390 1.22918 0.40616
 N2927 N 0.58525 1.23808 0.39013
 N2928 N 0.59244 1.25519 0.38296
 C2929 C 0.58624 1.21010 0.41379
 N2930 N 0.57041 1.20108 0.40495
 N2931 N 0.56371 1.18359 0.41163
 C2932 C 0.57257 1.17441 0.42742
 N2933 N 0.58838 1.18354 0.43627
 N2934 N 0.59509 1.20103 0.42960
 C2935 C 0.61598 0.78257 0.88392
 N2936 N 0.60759 0.79127 0.86764
 N2937 N 0.61524 0.80798 0.86003
 C2938 C 0.63155 0.81660 0.86842
 N2939 N 0.63990 0.80793 0.88474
 N2940 N 0.63225 0.79122 0.89235
 C2941 C 0.60781 0.76391 0.89204
 N2942 N 0.61641 0.75503 0.90811
 N2943 N 0.60925 0.73789 0.91523
 C2944 C 0.59323 0.72901 0.90654
 N2945 N 0.58460 0.73793 0.89051
 N2946 N 0.59176 0.75507 0.88339
 C2947 C 0.58561 0.70991 0.91412
 N2948 N 0.56982 0.70085 0.90522
 N2949 N 0.56316 0.68333 0.91186
 C2950 C 0.57202 0.67415 0.92765
 N2951 N 0.58778 0.68331 0.93656
 N2952 N 0.59445 0.70083 0.92993
 C2953 C 0.88365 1.28254 1.11680
 N2954 N 0.86737 1.29121 1.10842
 N2955 N 0.85970 1.30787 1.11611
 C2956 C 0.86803 1.31647 1.13246
 N2957 N 0.88436 1.30783 1.14081
 N2958 N 0.89203 1.29117 1.13312
 C2959 C 0.89183 1.26393 1.10859
 N2960 N 0.90790 1.25507 1.11719
 N2961 N 0.91508 1.23797 1.10999
 C2962 C 0.90644 1.22912 1.09393
 N2963 N 0.89041 1.23802 1.08529
 N2964 N 0.88324 1.25511 1.09249
 C2965 C 0.91407 1.21005 1.08627
 N2966 N 0.90522 1.20102 1.07044
 N2967 N 0.91189 1.18352 1.06375
 C2968 C 0.92767 1.17435 1.07261
 N2969 N 0.93654 1.18349 1.08841
 N2970 N 0.92988 1.20098 1.09511
 C2971 C 0.88387 0.78251 0.61611
 N2972 N 0.89227 0.79119 0.63239
 N2973 N 0.88464 0.80790 0.64001
 C2974 C 0.86832 0.81654 0.63163
 N2975 N 0.85996 0.80788 0.61532
 N2976 N 0.86760 0.79118 0.60769
 C2977 C 0.89202 0.76385 0.60798
 N2978 N 0.88341 0.75498 0.59191
 N2979 N 0.89055 0.73784 0.58478
 C2980 C 0.90658 0.72896 0.59344
 N2981 N 0.91523 0.73786 0.60947
 N2982 N 0.90808 0.75499 0.61660
 C2983 C 0.91419 0.70986 0.58584
 N2984 N 0.92999 0.70080 0.59472
 N2985 N 0.93664 0.68328 0.58806
 C2986 C 0.92777 0.67411 0.57228
 N2987 N 0.91200 0.68327 0.56339
 N2988 N 0.90533 0.70079 0.57004
 C2989 C 0.38279 1.28201 0.61778
 N2990 N 0.39113 1.29057 0.63415
 N2991 N 0.38343 1.30719 0.64191
 C2992 C 0.36708 1.31586 0.63360
 N2993 N 0.35880 1.30731 0.61718
 N2994 N 0.36651 1.29069 0.60942
 C2995 C 0.39103 1.26346 0.60947
 N2996 N 0.38247 1.25472 0.59331
 N2997 N 0.38971 1.23770 0.58599
 C2998 C 0.40577 1.22880 0.59456
 N2999 N 0.41437 1.23758 0.61069
 N3000 N 0.40713 1.25460 0.61801
 C3001 C 0.41349 1.20982 0.58675
 N3002 N 0.42935 1.20077 0.59552
 N3003 N 0.43611 1.18337 0.58869
 C3004 C 0.42729 1.17430 0.57281
 N3005 N 0.41146 1.18346 0.56403
 N3006 N 0.40469 1.20086 0.57086
 C3007 C 0.38290 0.78217 1.11691
 N3008 N 0.39131 0.79083 1.13319
 N3009 N 0.38368 0.80753 1.14085
 C3010 C 0.36735 0.81619 1.13252
 N3011 N 0.35899 0.80755 1.11618
 N3012 N 0.36662 0.79085 1.10852
 C3013 C 0.39106 0.76354 1.10872
 N3014 N 0.38245 0.75470 1.09264
 N3015 N 0.38962 0.73760 1.08544
 C3016 C 0.40567 0.72872 1.09406
 N3017 N 0.41432 0.73759 1.11010
 N3018 N 0.40715 0.75469 1.11730
 C3019 C 0.41332 0.70966 1.08638
 N3020 N 0.42916 0.70062 1.09520
 N3021 N 0.43587 0.68316 1.08847
 C3022 C 0.42702 0.67402 1.07266
 N3023 N 0.41120 0.68316 1.06383
 N3024 N 0.40448 0.70062 1.07055
 C3025 C 0.88349 0.71777 0.88370
 N3026 N 0.89190 0.70909 0.86742
 N3027 N 0.88427 0.69239 0.85978
 C3028 C 0.86795 0.68375 0.86814
 N3029 N 0.85957 0.69239 0.88446
 N3030 N 0.86720 0.70910 0.89210
 C3031 C 0.89163 0.73641 0.89186
 N3032 N 0.88301 0.74527 0.90793
 N3033 N 0.89016 0.76239 0.91509
 C3034 C 0.90620 0.77128 0.90644
 N3035 N 0.91486 0.76238 0.89041
 N3036 N 0.90771 0.74527 0.88325
 C3037 C 0.91382 0.79036 0.91407
 N3038 N 0.92964 0.79941 0.90521
 N3039 N 0.93631 0.81691 0.91189
 C3040 C 0.92744 0.82607 0.92768
 N3041 N 0.91165 0.81692 0.93655
 N3042 N 0.90497 0.79942 0.92988
 C3043 C 0.88302 0.21784 0.38238
 N3044 N 0.86672 0.20918 0.39075
 N3045 N 0.85901 0.19256 0.38302
 C3046 C 0.86731 0.18396 0.36662
 N3047 N 0.88367 0.19261 0.35830
 N3048 N 0.89138 0.20923 0.36604
 C3049 C 0.89126 0.23639 0.39065
 N3050 N 0.90737 0.24524 0.38209
 N3051 N 0.91461 0.26227 0.38937
 C3052 C 0.90601 0.27108 0.40547
 N3053 N 0.88994 0.26221 0.41407
 N3054 N 0.88270 0.24518 0.40680
 C3055 C 0.91373 0.29008 0.41323
 N3056 N 0.90493 0.29907 0.42912
 N3057 N 0.91169 0.31649 0.43591
 C3058 C 0.92752 0.32563 0.42709
 N3059 N 0.93634 0.31654 0.41123
 N3060 N 0.92958 0.29912 0.40443
 C3061 C 0.38347 0.71802 0.38285
 N3062 N 0.36722 0.70930 0.39126
 N3063 N 0.35960 0.69261 0.38358
 C3064 C 0.36794 0.68404 0.36722
 N3065 N 0.38423 0.69273 0.35884
 N3066 N 0.39185 0.70941 0.36652
 C3067 C 0.39161 0.73664 0.39107
 N3068 N 0.40767 0.74554 0.38248
 N3069 N 0.41482 0.76264 0.38971
 C3070 C 0.40618 0.77145 0.40579
 N3071 N 0.39015 0.76252 0.41442
 N3072 N 0.38300 0.74543 0.40719
 C3073 C 0.41380 0.79051 0.41350
 N3074 N 0.40494 0.79951 0.42935
 N3075 N 0.41163 0.81698 0.43609
 C3076 C 0.42743 0.82616 0.42726
 N3077 N 0.43630 0.81706 0.41144
 N3078 N 0.42962 0.79959 0.40468
 C3079 C 0.38269 0.21790 0.88217
 N3080 N 0.39105 0.20933 0.86581
 N3081 N 0.38336 0.19271 0.85805
 C3082 C 0.36702 0.18403 0.86635
 N3083 N 0.35872 0.19259 0.88277
 N3084 N 0.36640 0.20921 0.89053
 C3085 C 0.39091 0.23645 0.89048
 N3086 N 0.38233 0.24520 0.90663
 N3087 N 0.38955 0.26222 0.91395
 C3088 C 0.40562 0.27113 0.90538
 N3089 N 0.41424 0.26235 0.88926
 N3090 N 0.40701 0.24532 0.88195
 C3091 C 0.41332 0.29011 0.91318
 N3092 N 0.42919 0.29916 0.90442
 N3093 N 0.43594 0.31657 0.91126
 C3094 C 0.42709 0.32564 0.92712
 N3095 N 0.41125 0.31649 0.93590
 N3096 N 0.40449 0.29908 0.92907
 C3097 C 1.11745 0.71844 1.11811
 N3098 N 1.10910 0.70985 1.13447
 N3099 N 1.11679 0.69320 1.14219
 C3100 C 1.13312 0.68453 1.13386
 N3101 N 1.14141 0.69311 1.11745
 N3102 N 1.13373 0.70975 1.10973
 C3103 C 1.10922 0.73700 1.10982
 N3104 N 1.11777 0.74576 1.09366
 N3105 N 1.11053 0.76278 1.08635
 C3106 C 1.09446 0.77167 1.09494
 N3107 N 1.08587 0.76288 1.11107
 N3108 N 1.09312 0.74586 1.11838
 C3109 C 1.08672 0.79064 1.08713
 N3110 N 1.07085 0.79968 1.09591
 N3111 N 1.06406 0.81707 1.08905
 C3112 C 1.07286 0.82613 1.07316
 N3113 N 1.08870 0.81699 1.06437
 N3114 N 1.09550 0.79960 1.07121
 C3115 C 1.11655 0.21733 0.61649
 N3116 N 1.10815 0.20868 0.63279
 N3117 N 1.11580 0.19199 0.64046
 C3118 C 1.13214 0.18334 0.63213
 N3119 N 1.14048 0.19198 0.61577
 N3120 N 1.13283 0.20866 0.60810
 C3121 C 1.10839 0.23596 0.60831
 N3122 N 1.11701 0.24481 0.59223
 N3123 N 1.10985 0.26191 0.58504
 C3124 C 1.09381 0.27081 0.59368
 N3125 N 1.08516 0.26193 0.60973
 N3126 N 1.09232 0.24482 0.61691
 C3127 C 1.08619 0.28988 0.58604
 N3128 N 1.07037 0.29894 0.59488
 N3129 N 1.06370 0.31643 0.58819
 C3130 C 1.07257 0.32559 0.57239
 N3131 N 1.08837 0.31643 0.56353
 N3132 N 1.09505 0.29894 0.57022
 C3133 C 0.61639 0.71776 0.61627
 N3134 N 0.60797 0.70907 0.63254
 N3135 N 0.61560 0.69236 0.64016
 C3136 C 0.63193 0.68374 0.63180
 N3137 N 0.64031 0.69240 0.61549
 N3138 N 0.63268 0.70911 0.60787
 C3139 C 0.60823 0.73641 0.60812
 N3140 N 0.61685 0.74530 0.59206
 N3141 N 0.60969 0.76242 0.58492
 C3142 C 0.59364 0.77129 0.59357
 N3143 N 0.58499 0.76237 0.60959
 N3144 N 0.59215 0.74525 0.61674
 C3145 C 0.58601 0.79037 0.58595
 N3146 N 0.57019 0.79941 0.59481
 N3147 N 0.56351 0.81691 0.58814
 C3148 C 0.57239 0.82609 0.57236
 N3149 N 0.58819 0.81696 0.56349
 N3150 N 0.59487 0.79945 0.57015
 C3151 C 0.61709 0.21795 1.11762
 N3152 N 0.60874 0.20934 1.13396
 N3153 N 0.61644 0.19272 1.14169
 C3154 C 0.63281 0.18408 1.13339
 N3155 N 0.64111 0.19268 1.11698
 N3156 N 0.63340 0.20930 1.10925
 C3157 C 0.60884 0.23651 1.10933
 N3158 N 0.61741 0.24530 1.09319
 N3159 N 0.61016 0.26232 1.08591
 C3160 C 0.59408 0.27119 1.09450
 N3161 N 0.58548 0.26237 1.11060
 N3162 N 0.59273 0.24534 1.11789
 C3163 C 0.58635 0.29018 1.08673
 N3164 N 0.57048 0.29920 1.09551
 N3165 N 0.56371 0.31661 1.08870
 C3166 C 0.57253 0.32571 1.07284
 N3167 N 0.58838 0.31659 1.06404
 N3168 N 0.59515 0.29917 1.07085
 C3169 C 1.28200 1.11738 0.88261
 N3170 N 1.29062 1.10903 0.86627
 N3171 N 1.30724 1.11676 0.85854
 C3172 C 1.31585 1.13311 0.86686
 N3173 N 1.30725 1.14142 0.88324
 N3174 N 1.29063 1.13369 0.89097
 C3175 C 1.26344 1.10912 0.89088
 N3176 N 1.25464 1.11767 0.90702
 N3177 N 1.23761 1.11041 0.91429
 C3178 C 1.22875 1.09434 0.90570
 N3179 N 1.23759 1.08575 0.88960
 N3180 N 1.25462 1.09300 0.88232
 C3181 C 1.20975 1.08661 0.91345
 N3182 N 1.20073 1.07075 0.90465
 N3183 N 1.18330 1.06400 0.91144
 C3184 C 1.17419 1.07281 0.92729
 N3185 N 1.18332 1.08864 0.93610
 N3186 N 1.20075 1.09541 0.92932
 C3187 C 1.28246 0.61651 0.38306
 N3188 N 1.29110 0.60815 0.36674
 N3189 N 1.30774 0.61585 0.35903
 C3190 C 1.31635 0.63220 0.36736
 N3191 N 1.30774 0.64052 0.38373
 N3192 N 1.29110 0.63282 0.39143
 C3193 C 1.26387 0.60828 0.39129
 N3194 N 1.25503 0.61685 0.40740
 N3195 N 1.23796 0.60964 0.41461
 C3196 C 1.22910 0.59359 0.40598
 N3197 N 1.23796 0.58498 0.38991
 N3198 N 1.25504 0.59220 0.38269
 C3199 C 1.21005 0.58591 0.41365
 N3200 N 1.20101 0.57009 0.40480
 N3201 N 1.18353 0.56338 0.41152
 C3202 C 1.17438 0.57222 0.42734
 N3203 N 1.18353 0.58801 0.43620
 N3204 N 1.20101 0.59473 0.42950
 C3205 C 0.78218 1.11738 0.38278
 N3206 N 0.79081 1.13369 0.39116
 N3207 N 0.80745 1.14140 0.38346
 C3208 C 0.81608 1.13308 0.36710
 N3209 N 0.80748 1.11674 0.35876
 N3210 N 0.79083 1.10903 0.36645
 C3211 C 0.76360 1.10914 0.39100
 N3212 N 0.75478 1.09304 0.38241
 N3213 N 0.73772 1.08579 0.38963
 C3214 C 0.72886 1.09438 0.40572
 N3215 N 0.73770 1.11044 0.41435
 N3216 N 0.75476 1.11769 0.40713
 C3217 C 0.70983 1.08666 0.41342
 N3218 N 0.70081 1.09544 0.42930
 N3219 N 0.68336 1.08867 0.43604
 C3220 C 0.67423 1.07287 0.42718
 N3221 N 0.68336 1.06407 0.41133
 N3222 N 0.70081 1.07082 0.40458
 C3223 C 0.78228 0.61638 0.88374
 N3224 N 0.79098 0.60798 0.86747
 N3225 N 0.80767 0.61564 0.85983
 C3226 C 0.81627 0.63198 0.86817
 N3227 N 0.80761 0.64034 0.88449
 N3228 N 0.79092 0.63268 0.89213
 C3229 C 0.76365 0.60820 0.89190
 N3230 N 0.75476 0.61681 0.90796
 N3231 N 0.73764 0.60963 0.91512
 C3232 C 0.72879 0.59358 0.90647
 N3233 N 0.73771 0.58493 0.89045
 N3234 N 0.75483 0.59211 0.88330
 C3235 C 0.70970 0.58594 0.91409
 N3236 N 0.70068 0.57011 0.90524
 N3237 N 0.68317 0.56343 0.91191
 C3238 C 0.67398 0.57230 0.92768
 N3239 N 0.68311 0.58810 0.93655
 N3240 N 0.70061 0.59479 0.92989
 C3241 C 1.28237 0.88301 1.11635
 N3242 N 1.29092 0.86665 1.10798
 N3243 N 1.30757 0.85891 1.11563
 C3244 C 1.31628 0.86726 1.13193
 N3245 N 1.30776 0.88366 1.14025
 N3246 N 1.29111 0.89139 1.13260
 C3247 C 1.26378 0.89128 1.10819
 N3248 N 1.25504 0.90742 1.11680
 N3249 N 1.23796 0.91468 1.10965
 C3250 C 1.22899 0.90607 1.09364
 N3251 N 1.23776 0.88998 1.08499
 N3252 N 1.25485 0.88271 1.09214
 C3253 C 1.20994 0.91380 1.08603
 N3254 N 1.20083 0.90499 1.07023
 N3255 N 1.18335 0.91175 1.06358
 C3256 C 1.17427 0.92758 1.07246
 N3257 N 1.18349 0.93641 1.08824
 N3258 N 1.20097 0.92965 1.09490
 C3259 C 1.28205 0.38249 0.61732
 N3260 N 1.29066 0.39084 0.63366
 N3261 N 1.30728 0.38312 0.64140
 C3262 C 1.31589 0.36677 0.63308
 N3263 N 1.30732 0.35846 0.61670
 N3264 N 1.29070 0.36618 0.60896
 C3265 C 1.26351 0.39075 0.60904
 N3266 N 1.25471 0.38219 0.59290
 N3267 N 1.23768 0.38945 0.58562
 C3268 C 1.22882 0.40553 0.59422
 N3269 N 1.23765 0.41412 0.61032
 N3270 N 1.25468 0.40686 0.61760
 C3271 C 1.20983 0.41326 0.58647
 N3272 N 1.20081 0.42912 0.59527
 N3273 N 1.18338 0.43588 0.58848
 C3274 C 1.17428 0.42708 0.57263
 N3275 N 1.18341 0.41125 0.56381
 N3276 N 1.20083 0.40447 0.57059
 C3277 C 0.78264 0.88390 0.61604
 N3278 N 0.79133 0.89230 0.63231
 N3279 N 0.80803 0.88464 0.63994
 C3280 C 0.81663 0.86831 0.63158
 N3281 N 0.80797 0.85995 0.61527
 N3282 N 0.79128 0.86761 0.60764
 C3283 C 0.76399 0.89208 0.60790
 N3284 N 0.75511 0.88348 0.59184
 N3285 N 0.73798 0.89065 0.58471
 C3286 C 0.72912 0.90668 0.59339
 N3287 N 0.73803 0.91532 0.60941
 N3288 N 0.75516 0.90815 0.61654
 C3289 C 0.71002 0.91431 0.58580
 N3290 N 0.70097 0.93011 0.59469
 N3291 N 0.68345 0.93678 0.58805
 C3292 C 0.67427 0.92793 0.57226
 N3293 N 0.68342 0.91215 0.56336
 N3294 N 0.70094 0.90548 0.56999
 C3295 C 0.78225 0.38363 1.11689
 N3296 N 0.79098 0.36738 1.10849
 N3297 N 0.80767 0.35976 1.11617
 C3298 C 0.81624 0.36810 1.13253
 N3299 N 0.80755 0.38439 1.14090
 N3300 N 0.79086 0.39201 1.13322
 C3301 C 0.76362 0.39176 1.10868
 N3302 N 0.75471 0.40781 1.11728
 N3303 N 0.73760 0.41494 1.11007
 C3304 C 0.72878 0.40629 1.09400
 N3305 N 0.73773 0.39029 1.08536
 N3306 N 0.75484 0.38315 1.09257
 C3307 C 0.70970 0.41388 1.08631
 N3308 N 0.70071 0.40502 1.07047
 N3309 N 0.68321 0.41167 1.06375
 C3310 C 0.67400 0.42744 1.07259
 N3311 N 0.68310 0.43631 1.08841
 N3312 N 0.70060 0.42967 1.09514
 C3313 C 0.71794 1.11747 1.11726
 N3314 N 0.70932 1.13378 1.10887
 N3315 N 0.69267 1.14150 1.11656
 C3316 C 0.68404 1.13319 1.13292
 N3317 N 0.69263 1.11684 1.14127
 N3318 N 0.70928 1.10913 1.13358
 C3319 C 0.73652 1.10921 1.10904
 N3320 N 0.74532 1.09311 1.11764
 N3321 N 0.76238 1.08585 1.11042
 C3322 C 0.77125 1.09443 1.09433
 N3323 N 0.76241 1.11049 1.08569
 N3324 N 0.74536 1.11775 1.09291
 C3325 C 0.79027 1.08669 1.08664
 N3326 N 0.79930 1.09547 1.07076
 N3327 N 0.81674 1.08869 1.06402
 C3328 C 0.82586 1.07288 1.07289
 N3329 N 0.81673 1.06409 1.08874
 N3330 N 0.79929 1.07086 1.09549
 C3331 C 0.71761 0.61634 0.61623
 N3332 N 0.70890 0.60795 0.63250
 N3333 N 0.69221 0.61561 0.64013
 C3334 C 0.68362 0.63196 0.63178
 N3335 N 0.69229 0.64032 0.61547
 N3336 N 0.70899 0.63265 0.60783
 C3337 C 0.73625 0.60815 0.60808
 N3338 N 0.74514 0.61675 0.59202
 N3339 N 0.76226 0.60956 0.58487
 C3340 C 0.77110 0.59351 0.59353
 N3341 N 0.76217 0.58487 0.60955
 N3342 N 0.74506 0.59206 0.61670
 C3343 C 0.79019 0.58585 0.58592
 N3344 N 0.79921 0.57003 0.59478
 N3345 N 0.81671 0.56334 0.58812
 C3346 C 0.82591 0.57220 0.57233
 N3347 N 0.81678 0.58800 0.56346
 N3348 N 0.79928 0.59470 0.57011
 C3349 C 0.21730 1.11678 0.61602
 N3350 N 0.20859 1.10838 0.63229
 N3351 N 0.19191 1.11605 0.63994
 C3352 C 0.18333 1.13241 0.63160
 N3353 N 0.19200 1.14077 0.61529
 N3354 N 0.20868 1.13310 0.60764
 C3355 C 0.23593 1.10859 0.60788
 N3356 N 0.24484 1.11720 0.59182
 N3357 N 0.26196 1.11001 0.58468
 C3358 C 0.27080 1.09396 0.59334
 N3359 N 0.26186 1.08532 0.60936
 N3360 N 0.24474 1.09250 0.61649
 C3361 C 0.28990 1.08632 0.58575
 N3362 N 0.29892 1.07051 0.59463
 N3363 N 0.31644 1.06384 0.58799
 C3364 C 0.32565 1.07270 0.57222
 N3365 N 0.31652 1.08849 0.56333
 N3366 N 0.29900 1.09517 0.56996
 C3367 C 0.21798 0.61762 1.11746
 N3368 N 0.20942 0.63399 1.10912
 N3369 N 0.19283 0.64178 1.11685
 C3370 C 0.18419 0.63347 1.13321
 N3371 N 0.19272 0.61707 1.14152
 N3372 N 0.20931 0.60929 1.13378
 C3373 C 0.23650 0.60928 1.10919
 N3374 N 0.24524 0.59312 1.11775
 N3375 N 0.26224 0.58578 1.11048
 C3376 C 0.27113 0.59433 1.09439
 N3377 N 0.26236 0.61046 1.08579
 N3378 N 0.24535 0.61780 1.09306
 C3379 C 0.29009 0.58651 1.08664
 N3380 N 0.29913 0.59527 1.07076
 N3381 N 0.31653 0.58842 1.06398
 C3382 C 0.32560 0.57256 1.07281
 N3383 N 0.31645 0.56379 1.08866
 N3384 N 0.29905 0.57062 1.09545
 C3385 C 0.71728 0.88391 0.88404
 N3386 N 0.70859 0.89232 0.86776
 N3387 N 0.69189 0.88467 0.86013
 C3388 C 0.68328 0.86834 0.86848
 N3389 N 0.69193 0.85997 0.88480
 N3390 N 0.70863 0.86762 0.89243
 C3391 C 0.73592 0.89207 0.89218
 N3392 N 0.74481 0.88346 0.90824
 N3393 N 0.76193 0.89062 0.91538
 C3394 C 0.77080 0.90665 0.90672
 N3395 N 0.76189 0.91531 0.89070
 N3396 N 0.74476 0.90815 0.88356
 C3397 C 0.78990 0.91428 0.91431
 N3398 N 0.79894 0.93009 0.90543
 N3399 N 0.81646 0.93675 0.91208
 C3400 C 0.82564 0.92789 0.92786
 N3401 N 0.81650 0.91210 0.93675
 N3402 N 0.79898 0.90543 0.93011
 C3403 C 0.71758 0.38312 0.38372
 N3404 N 0.70897 0.36680 0.39211
 N3405 N 0.69227 0.35913 0.38449
 C3406 C 0.68359 0.36750 0.36819
 N3407 N 0.69217 0.38386 0.35984
 N3408 N 0.70886 0.39152 0.36746
 C3409 C 0.73622 0.39131 0.39185
 N3410 N 0.74503 0.40740 0.38323
 N3411 N 0.76214 0.41459 0.39037
 C3412 C 0.77108 0.40594 0.40638
 N3413 N 0.76224 0.38989 0.41504
 N3414 N 0.74512 0.38270 0.40790
 C3415 C 0.79017 0.41359 0.41397
 N3416 N 0.79926 0.40475 0.42977
 N3417 N 0.81676 0.41144 0.43641
 C3418 C 0.82589 0.42724 0.42753
 N3419 N 0.81670 0.43611 0.41176
 N3420 N 0.79919 0.42942 0.40510
 C3421 C 0.21775 0.88357 0.38296
 N3422 N 0.20911 0.89193 0.36663
 N3423 N 0.19247 0.88424 0.35894
 C3424 C 0.18385 0.86790 0.36728
 N3425 N 0.19246 0.85958 0.38365
 N3426 N 0.20910 0.86727 0.39134
 C3427 C 0.23633 0.89180 0.39119
 N3428 N 0.24515 0.88323 0.40730
 N3429 N 0.26222 0.89044 0.41453
 C3430 C 0.27109 0.90649 0.40590
 N3431 N 0.26224 0.91510 0.38982
 N3432 N 0.24517 0.90788 0.38259
 C3433 C 0.29013 0.91417 0.41359
 N3434 N 0.29918 0.92999 0.40475
 N3435 N 0.31665 0.93670 0.41148
 C3436 C 0.32577 0.92787 0.42731
 N3437 N 0.31662 0.91207 0.43617
 N3438 N 0.29915 0.90535 0.42944
 C3439 C 0.21782 0.38247 0.88262
 N3440 N 0.20920 0.39082 0.86628
 N3441 N 0.19259 0.38310 0.85855
 C3442 C 0.18398 0.36674 0.86687
 N3443 N 0.19257 0.35843 0.88325
 N3444 N 0.20919 0.36615 0.89098
 C3445 C 0.23638 0.39072 0.89089
 N3446 N 0.24518 0.38217 0.90702
 N3447 N 0.26221 0.38942 0.91429
 C3448 C 0.27107 0.40550 0.90568
 N3449 N 0.26223 0.41409 0.88958
 N3450 N 0.24520 0.40684 0.88232
 C3451 C 0.29006 0.41323 0.91342
 N3452 N 0.29909 0.42908 0.90461
 N3453 N 0.31652 0.43584 0.91139
 C3454 C 0.32563 0.42702 0.92724
 N3455 N 0.31650 0.41120 0.93607
 N3456 N 0.29907 0.40443 0.92930
   
