data_POSCAR
  _audit_creation_date              2014-09-24
  _audit_creation_method            'ToBaCCo'
  _symmetry_space_group_name_H-M    'P1'
  _symmetry_Int_Tables_number       1
  _symmetry_cell_setting            triclinic
  loop_
  _symmetry_equiv_pos_as_xyz
 x,y,z
_cell_length_a 69.1468
_cell_length_b 69.1468
_cell_length_c 69.1468
_cell_angle_alpha 90.000000
_cell_angle_beta 90.000000
_cell_angle_gamma 90.000000
loop_
  _atom_site_label
  _atom_site_type_symbol
  _atom_site_fract_x
  _atom_site_fract_y
  _atom_site_fract_z
N1 N 0.16391 0.21528 0.21715
 N2 N 0.16773 0.20015 0.22824
 C3 C 0.15361 0.19972 0.24281
 C4 C 0.13959 0.21530 0.24146
 C5 C 0.14762 0.22438 0.22448
 H6 H 0.15328 0.18873 0.25393
 H7 H 0.14168 0.23719 0.21779
 Cu8 Cu 0.19252 0.18287 0.22035
 Cu9 Cu 0.18164 0.22182 0.19286
 Cu10 Cu 0.22205 0.19233 0.18194
 N11 N 0.21664 0.16400 0.21468
 N12 N 0.22820 0.16750 0.19977
 C13 C 0.24254 0.15317 0.19966
 C14 C 0.24067 0.13919 0.21515
 C15 C 0.22356 0.14751 0.22391
 H16 H 0.25389 0.15270 0.18890
 H17 H 0.21660 0.14163 0.23660
 N18 N 0.21485 0.21708 0.16370
 N19 N 0.19980 0.22814 0.16837
 C20 C 0.19881 0.24311 0.15501
 C21 C 0.21353 0.24255 0.14027
 C22 C 0.22320 0.22520 0.14707
 H23 H 0.18780 0.25419 0.15572
 H24 H 0.23594 0.21922 0.14025
 H25 H 0.19264 0.19483 0.18594
 H26 H 0.20775 0.21000 0.20133
 N27 N 0.66365 0.71561 0.71636
 N28 N 0.66740 0.70054 0.72760
 C29 C 0.65317 0.70015 0.74206
 C30 C 0.63909 0.71563 0.74052
 C31 C 0.64722 0.72467 0.72352
 H32 H 0.65278 0.68919 0.75321
 H33 H 0.64128 0.73744 0.71676
 Cu34 Cu 0.69223 0.68309 0.72023
 Cu35 Cu 0.68198 0.72211 0.69231
 Cu36 Cu 0.72210 0.69187 0.68208
 N37 N 0.71638 0.66402 0.71509
 N38 N 0.72807 0.66747 0.70029
 C39 C 0.74240 0.65316 0.70023
 C40 C 0.74044 0.63920 0.71567
 C41 C 0.72325 0.64751 0.72435
 H42 H 0.75376 0.65266 0.68950
 H43 H 0.71620 0.64158 0.73698
 N44 N 0.71546 0.71673 0.66409
 N45 N 0.70040 0.72815 0.66773
 C46 C 0.70022 0.74267 0.65359
 C47 C 0.71577 0.74116 0.63968
 C48 C 0.72466 0.72403 0.64776
 H49 H 0.68941 0.75397 0.65322
 H50 H 0.73742 0.71729 0.64178
 H51 H 0.69260 0.69493 0.68575
 H52 H 0.70789 0.70993 0.70112
 N53 N 0.33629 0.78695 0.71661
 N54 N 0.33113 0.80202 0.72728
 C55 C 0.34427 0.80331 0.74249
 C56 C 0.35926 0.78868 0.74222
 C57 C 0.35286 0.77884 0.72493
 H58 H 0.34325 0.81441 0.75345
 H59 H 0.35994 0.76620 0.71903
 Cu60 Cu 0.30625 0.81883 0.71885
 Cu61 Cu 0.31907 0.77983 0.69184
 Cu62 Cu 0.27781 0.80791 0.68032
 N63 N 0.28188 0.83732 0.71264
 N64 N 0.27092 0.83268 0.69761
 C65 C 0.25600 0.84610 0.69654
 C66 C 0.25660 0.86085 0.71133
 C67 C 0.27388 0.85396 0.72102
 H68 H 0.24499 0.84535 0.68547
 H69 H 0.27994 0.86076 0.73373
 N70 N 0.28556 0.78319 0.66265
 N71 N 0.30090 0.77254 0.66733
 C72 C 0.30206 0.75754 0.65396
 C73 C 0.28713 0.75776 0.63933
 C74 C 0.27721 0.77487 0.64615
 H75 H 0.31332 0.74672 0.65459
 H76 H 0.26433 0.78062 0.63940
 H77 H 0.30726 0.80639 0.68459
 H78 H 0.29257 0.79081 0.69997
 N79 N 0.83621 0.28482 0.21697
 N80 N 0.83240 0.30011 0.22787
 C81 C 0.84651 0.30058 0.24249
 C82 C 0.86046 0.28487 0.24132
 C83 C 0.85241 0.27569 0.22440
 H84 H 0.84685 0.31165 0.25354
 H85 H 0.85818 0.26278 0.21779
 Cu86 Cu 0.80751 0.31738 0.21969
 Cu87 Cu 0.81866 0.27772 0.19277
 Cu88 Cu 0.77915 0.30727 0.18035
 N89 N 0.78312 0.33600 0.21336
 N90 N 0.77217 0.33151 0.19826
 C91 C 0.75727 0.34494 0.19722
 C92 C 0.75785 0.35960 0.21206
 C93 C 0.77509 0.35263 0.22179
 H94 H 0.74632 0.34433 0.18608
 H95 H 0.78110 0.35933 0.23458
 N96 N 0.78614 0.28210 0.16296
 N97 N 0.80100 0.27100 0.16802
 C98 C 0.80206 0.25587 0.15483
 C99 C 0.78756 0.25645 0.13985
 C100 C 0.77797 0.27393 0.14629
 H101 H 0.81296 0.24472 0.15583
 H102 H 0.76546 0.28003 0.13915
 H103 H 0.80849 0.30481 0.18547
 H104 H 0.79256 0.29013 0.20065
 N105 N 0.83706 0.71545 0.28202
 N106 N 0.83226 0.70025 0.27140
 C107 C 0.84564 0.69888 0.25644
 C108 C 0.86045 0.71365 0.25676
 C109 C 0.85368 0.72366 0.27385
 H110 H 0.84488 0.68763 0.24562
 H111 H 0.86050 0.73647 0.27967
 Cu112 Cu 0.80743 0.68340 0.27937
 Cu113 Cu 0.81886 0.72260 0.30618
 Cu114 Cu 0.77830 0.69283 0.31763
 N115 N 0.78331 0.66464 0.28477
 N116 N 0.77180 0.66821 0.29967
 C117 C 0.75740 0.65395 0.29982
 C118 C 0.75921 0.63994 0.28434
 C119 C 0.77633 0.64818 0.27556
 H120 H 0.74611 0.65350 0.31062
 H121 H 0.78328 0.64224 0.26289
 N122 N 0.78559 0.71788 0.33522
 N123 N 0.80064 0.72911 0.33087
 C124 C 0.80145 0.74376 0.34477
 C125 C 0.78627 0.74281 0.35907
 C126 C 0.77713 0.72544 0.35193
 H127 H 0.81279 0.75452 0.34502
 H128 H 0.76498 0.71862 0.35903
 H129 H 0.80780 0.69579 0.31364
 H130 H 0.79246 0.71070 0.29835
 N131 N 0.33496 0.21487 -0.21746
 N132 N 0.33127 0.19943 -0.22821
 C133 C 0.34542 0.19880 -0.24275
 C134 C 0.35932 0.21453 -0.24179
 C135 C 0.35119 0.22394 -0.22502
 H136 H 0.34584 0.18758 -0.25363
 H137 H 0.35699 0.23697 -0.21865
 Cu138 Cu 0.30652 0.18198 -0.22022
 Cu139 Cu 0.31708 0.22212 -0.19337
 Cu140 Cu 0.27813 0.19159 -0.18109
 N141 N 0.28227 0.16306 -0.21418
 N142 N 0.27137 0.16737 -0.19901
 C143 C 0.25658 0.15383 -0.19795
 C144 C 0.25713 0.13928 -0.21290
 C145 C 0.27429 0.14644 -0.22268
 H146 H 0.24572 0.15433 -0.18672
 H147 H 0.28028 0.13984 -0.23553
 N148 N 0.28485 0.21669 -0.16367
 N149 N 0.29918 0.22856 -0.16851
 C150 C 0.29963 0.24342 -0.15477
 C151 C 0.28511 0.24162 -0.13985
 C152 C 0.27663 0.22381 -0.14670
 H153 H 0.31038 0.25479 -0.15498
 H154 H 0.26499 0.21647 -0.13927
 H155 H 0.30748 0.19486 -0.18609
 H156 H 0.29125 0.20917 -0.20127
 N157 N 0.66415 0.28341 -0.21845
 N158 N 0.66838 0.29896 -0.22887
 C159 C 0.65444 0.30035 -0.24343
 C160 C 0.64036 0.28486 -0.24328
 C161 C 0.64765 0.27497 -0.22640
 H162 H 0.65405 0.31222 -0.25361
 H163 H 0.64072 0.26246 -0.22007
 Cu164 Cu 0.69306 0.31625 -0.22066
 Cu165 Cu 0.68155 0.27655 -0.19370
 Cu166 Cu 0.72167 0.30591 -0.18218
 N167 N 0.71725 0.33511 -0.21450
 N168 N 0.72830 0.33056 -0.19951
 C169 C 0.74318 0.34400 -0.19849
 C170 C 0.74246 0.35874 -0.21324
 C171 C 0.72517 0.35180 -0.22290
 H172 H 0.75425 0.34328 -0.18748
 H173 H 0.71908 0.35853 -0.23563
 N174 N 0.71454 0.28112 -0.16453
 N175 N 0.69984 0.26955 -0.16911
 C176 C 0.69929 0.25480 -0.15524
 C177 C 0.71415 0.25636 -0.14058
 C178 C 0.72289 0.27391 -0.14768
 H179 H 0.68826 0.24372 -0.15516
 H180 H 0.73482 0.28103 -0.14049
 H181 H 0.69226 0.30351 -0.18652
 H182 H 0.70752 0.28851 -0.20198
 N183 N 0.16105 0.78616 0.28392
 N184 N 0.16620 0.80138 0.27346
 C185 C 0.15304 0.80291 0.25830
 C186 C 0.13806 0.78827 0.25832
 C187 C 0.14449 0.77815 0.27546
 H188 H 0.15409 0.81418 0.24751
 H189 H 0.13747 0.76537 0.28112
 Cu190 Cu 0.19120 0.81795 0.28193
 Cu191 Cu 0.17864 0.77850 0.30833
 Cu192 Cu 0.21896 0.80743 0.32106
 N193 N 0.21569 0.83622 0.28814
 N194 N 0.22652 0.83161 0.30327
 C195 C 0.24156 0.84490 0.30429
 C196 C 0.24114 0.85952 0.28938
 C197 C 0.22386 0.85272 0.27966
 H198 H 0.25249 0.84420 0.31545
 H199 H 0.21793 0.85946 0.26686
 N200 N 0.21138 0.78240 0.33836
 N201 N 0.19626 0.77156 0.33339
 C202 C 0.19507 0.75653 0.34674
 C203 C 0.20973 0.75696 0.36166
 C204 C 0.21953 0.77420 0.35501
 H205 H 0.18400 0.74554 0.34589
 H206 H 0.23218 0.78015 0.36203
 H207 H 0.18954 0.80515 0.31603
 H208 H 0.20520 0.79021 0.30100
 N209 N 0.46491 0.41362 0.46761
 N210 N 0.44958 0.41747 0.47844
 C211 C 0.44898 0.40338 0.49306
 C212 C 0.46463 0.38938 0.49203
 C213 C 0.47394 0.39739 0.47515
 H214 H 0.43785 0.40309 0.50403
 H215 H 0.48688 0.39147 0.46869
 Cu216 Cu 0.43235 0.44235 0.47030
 Cu217 Cu 0.47198 0.43131 0.44340
 Cu218 Cu 0.44266 0.47124 0.43135
 N219 N 0.41368 0.46668 0.46412
 N220 N 0.41819 0.47775 0.44912
 C221 C 0.40473 0.49262 0.44817
 C222 C 0.39004 0.49189 0.46297
 C223 C 0.39702 0.47459 0.47257
 H224 H 0.40538 0.50369 0.43714
 H225 H 0.39030 0.46847 0.48530
 N226 N 0.46763 0.46405 0.41378
 N227 N 0.47870 0.44911 0.41868
 C228 C 0.49378 0.44815 0.40541
 C229 C 0.49318 0.46280 0.39055
 C230 C 0.47576 0.47235 0.39716
 H231 H 0.50494 0.43724 0.40627
 H232 H 0.46968 0.48497 0.39020
 H233 H 0.45974 0.45743 0.45150
 H234 H 0.44495 0.44187 0.43607
 N235 N -0.03570 -0.08601 0.96532
 N236 N -0.05075 -0.08232 0.97660
 C237 C -0.05103 -0.09655 0.99107
 C238 C -0.03550 -0.11056 0.98950
 C239 C -0.02655 -0.10240 0.97246
 H240 H -0.06195 -0.09698 1.00226
 H241 H -0.01377 -0.10828 0.96567
 Cu242 Cu -0.06834 -0.05755 0.96931
 Cu243 Cu -0.02932 -0.06763 0.94124
 Cu244 Cu -0.06018 -0.02806 0.93087
 N245 N -0.08751 -0.03344 0.96424
 N246 N -0.08428 -0.02177 0.94938
 C247 C -0.09863 -0.00746 0.94945
 C248 C -0.11241 -0.00948 0.96507
 C249 C -0.10392 -0.02663 0.97369
 H250 H -0.09930 0.00387 0.93870
 H251 H -0.10960 -0.03374 0.98639
 N252 N -0.03528 -0.03434 0.91282
 N253 N -0.02361 -0.04919 0.91654
 C254 C -0.00916 -0.04929 0.90232
 C255 C -0.01100 -0.03393 0.88824
 C256 C -0.02822 -0.02521 0.89633
 H257 H 0.00225 -0.05998 0.90195
 H258 H -0.03520 -0.01264 0.89023
 H259 H -0.04179 -0.04182 0.94989
 H260 H -0.05662 -0.05753 0.93479
 N261 N 1.03675 0.58655 0.96580
 N262 N 1.05162 0.58136 0.97670
 C263 C 1.05279 0.59451 0.99189
 C264 C 1.03827 0.60958 0.99139
 C265 C 1.02862 0.60319 0.97397
 H266 H 1.06376 0.59345 1.00298
 H267 H 1.01611 0.61034 0.96787
 Cu268 Cu 1.06833 0.55645 0.96849
 Cu269 Cu 1.03012 0.56913 0.94098
 Cu270 Cu 1.05862 0.52760 0.93007
 N271 N 1.08690 0.53220 0.96285
 N272 N 1.08340 0.52082 0.94783
 C273 C 1.09761 0.50632 0.94773
 C274 C 1.11145 0.50795 0.96342
 C275 C 1.10319 0.52507 0.97222
 H276 H 1.09804 0.49501 0.93693
 H277 H 1.10893 0.53196 0.98500
 N278 N 1.03402 0.53547 0.91192
 N279 N 1.02333 0.55085 0.91646
 C280 C 1.00846 0.55207 0.90297
 C281 C 1.00875 0.53719 0.88834
 C282 C 1.02580 0.52719 0.89532
 H283 H 0.99766 0.56336 0.90352
 H284 H 1.03154 0.51428 0.88861
 H285 H 1.04085 0.54247 0.94907
 H286 H 1.05667 0.55708 0.93398
 N287 N 0.53510 0.08484 0.46780
 N288 N 0.55002 0.08017 0.47886
 C289 C 0.55104 0.09390 0.49367
 C290 C 0.53598 0.10842 0.49285
 C291 C 0.52678 0.10154 0.47543
 H292 H 0.56244 0.09390 0.50438
 H293 H 0.51471 0.10878 0.46861
 Cu294 Cu 0.56699 0.05540 0.47062
 Cu295 Cu 0.52846 0.06740 0.44310
 Cu296 Cu 0.55768 0.02661 0.43185
 N297 N 0.58574 0.03129 0.46484
 N298 N 0.58238 0.01997 0.44972
 C299 C 0.59667 0.00557 0.44957
 C300 C 0.61043 0.00719 0.46530
 C301 C 0.60204 0.02420 0.47420
 H302 H 0.59721 -0.00565 0.43869
 H303 H 0.60771 0.03103 0.48705
 N304 N 0.53309 0.03425 0.41361
 N305 N 0.52219 0.04943 0.41826
 C306 C 0.50736 0.05063 0.40474
 C307 C 0.50787 0.03591 0.38995
 C308 C 0.52502 0.02604 0.39689
 H309 H 0.49643 0.06178 0.40539
 H310 H 0.53094 0.01327 0.39007
 H311 H 0.53979 0.04094 0.45110
 H312 H 0.55527 0.05606 0.43612
 N313 N -0.03744 0.08724 0.53176
 N314 N -0.05244 0.08220 0.52097
 C315 C -0.05377 0.09554 0.50597
 C316 C -0.03917 0.11055 0.50644
 C317 C -0.02933 0.10393 0.52366
 H318 H -0.06488 0.09464 0.49501
 H319 H -0.01672 0.11096 0.52968
 Cu320 Cu -0.06904 0.05718 0.52902
 Cu321 Cu -0.03039 0.06955 0.55622
 Cu322 Cu -0.05923 0.02824 0.56728
 N323 N -0.08750 0.03281 0.53456
 N324 N -0.08394 0.02139 0.54954
 C325 C -0.09806 0.00683 0.54963
 C326 C -0.11192 0.00844 0.53397
 C327 C -0.10377 0.02562 0.52520
 H328 H -0.09842 -0.00450 0.56040
 H329 H -0.10957 0.03252 0.51244
 N330 N -0.03463 0.03599 0.58536
 N331 N -0.02383 0.05127 0.58077
 C332 C -0.00890 0.05237 0.59419
 C333 C -0.00931 0.03752 0.60882
 C334 C -0.02645 0.02765 0.60194
 H335 H 0.00203 0.06353 0.59358
 H336 H -0.03225 0.01478 0.60866
 H337 H -0.04147 0.04299 0.54816
 H338 H -0.05699 0.05779 0.56338
 N339 N 0.46556 0.58694 0.03333
 N340 N 0.45054 0.58204 0.02248
 C341 C 0.44927 0.59541 0.00751
 C342 C 0.46390 0.61034 0.00800
 C343 C 0.47374 0.60363 0.02524
 H344 H 0.43816 0.59455 -0.00346
 H345 H 0.48642 0.61055 0.03122
 Cu346 Cu 0.43370 0.55710 0.03008
 Cu347 Cu 0.47251 0.56867 0.05763
 Cu348 Cu 0.44263 0.52800 0.06830
 N349 N 0.41496 0.53286 0.03509
 N350 N 0.41834 0.52139 0.05005
 C351 C 0.40416 0.50692 0.05003
 C352 C 0.39042 0.50858 0.03432
 C353 C 0.39870 0.52574 0.02561
 H354 H 0.40363 0.49563 0.06084
 H355 H 0.39292 0.53262 0.01284
 N356 N 0.46730 0.53527 0.08628
 N357 N 0.47864 0.55039 0.08254
 C358 C 0.49308 0.55074 0.09679
 C359 C 0.49154 0.53530 0.11088
 C360 C 0.47453 0.52627 0.10276
 H361 H 0.50429 0.56164 0.09718
 H362 H 0.46783 0.51352 0.10880
 H363 H 0.46084 0.54231 0.04943
 H364 H 0.44562 0.55755 0.06451
 N365 N 0.53618 -0.08829 0.03387
 N366 N 0.55139 -0.08322 0.02335
 C367 C 0.55288 -0.09647 0.00826
 C368 C 0.53823 -0.11143 0.00842
 C369 C 0.52815 -0.10490 0.02553
 H370 H 0.56413 -0.09550 -0.00255
 H371 H 0.51538 -0.11188 0.03126
 Cu372 Cu 0.56799 -0.05820 0.03162
 Cu373 Cu 0.52858 -0.07056 0.05818
 Cu374 Cu 0.55757 -0.03021 0.07061
 N375 N 0.58629 -0.03369 0.03764
 N376 N 0.58173 -0.02276 0.05271
 C377 C 0.59503 -0.00772 0.05360
 C378 C 0.60961 -0.00826 0.03865
 C379 C 0.60277 -0.02559 0.02906
 H380 H 0.59437 0.00328 0.06469
 H381 H 0.60946 -0.03161 0.01627
 N382 N 0.53257 -0.03767 0.08800
 N383 N 0.52171 -0.05280 0.08314
 C384 C 0.50670 -0.05392 0.09651
 C385 C 0.50716 -0.03918 0.11134
 C386 C 0.52440 -0.02942 0.10463
 H387 H 0.49570 -0.06499 0.09573
 H388 H 0.53037 -0.01675 0.11157
 H389 H 0.54030 -0.04407 0.05067
 H390 H 0.55526 -0.05966 0.06576
 N391 N 1.03607 0.41222 0.53317
 N392 N 1.05124 0.41707 0.52253
 C393 C 1.05254 0.40376 0.50750
 C394 C 1.03775 0.38894 0.50779
 C395 C 1.02782 0.39565 0.52494
 H396 H 1.06375 0.40457 0.49663
 H397 H 1.01503 0.38881 0.53078
 Cu398 Cu 1.06802 0.44193 0.53065
 Cu399 Cu 1.02901 0.43027 0.55742
 Cu400 Cu 1.05899 0.47043 0.56951
 N401 N 1.08667 0.46611 0.53620
 N402 N 1.08323 0.47755 0.55119
 C403 C 1.09749 0.49199 0.55125
 C404 C 1.11134 0.49022 0.53560
 C405 C 1.10301 0.47311 0.52684
 H406 H 1.09807 0.50322 0.56211
 H407 H 1.10874 0.46616 0.51408
 N408 N 1.03374 0.46335 0.58704
 N409 N 1.02266 0.44832 0.58225
 C410 C 1.00767 0.44737 0.59563
 C411 C 1.00828 0.46209 0.61043
 C412 C 1.02565 0.47168 0.60368
 H413 H 0.99657 0.43640 0.59489
 H414 H 1.03175 0.48429 0.61062
 H415 H 1.04101 0.45677 0.55006
 H416 H 1.05583 0.44099 0.56498
 C417 C 0.35061 -0.01794 0.25539
 C418 C 0.36168 -0.00033 0.25056
 C419 C 0.34912 0.01664 0.24620
 C420 C 0.32759 0.01670 0.24652
 C421 C 0.31886 -0.00208 0.25133
 C422 C 0.32923 -0.01982 0.25605
 C423 C 0.38602 0.00001 0.25042
 C424 C 0.39780 -0.00513 0.23339
 C425 C 0.41930 -0.00567 0.23234
 C426 C 0.42914 -0.00051 0.25047
 C427 C 0.41940 0.00483 0.26861
 C428 C 0.39788 0.00476 0.26752
 H429 H 0.35908 -0.03067 0.25862
 H430 H 0.35626 0.03017 0.24291
 H431 H 0.38982 -0.00869 0.22043
 H432 H 0.38996 0.00827 0.28051
 H433 H 0.30325 -0.00289 0.25172
 H434 H 0.44478 -0.00070 0.25048
 C435 C 0.14717 -0.01703 0.74489
 C436 C 0.13537 0.00000 0.74997
 C437 C 0.14722 0.01707 0.75486
 C438 C 0.16874 0.01814 0.75508
 C439 C 0.17850 0.00001 0.74976
 C440 C 0.16868 -0.01810 0.74450
 C441 C 0.11104 0.00014 0.74949
 C442 C 0.09840 -0.00403 0.76642
 C443 C 0.07687 -0.00372 0.76634
 C444 C 0.06823 0.00087 0.74748
 C445 C 0.07868 0.00541 0.72977
 C446 C 0.10006 0.00478 0.73176
 H447 H 0.13921 -0.02997 0.74126
 H448 H 0.13929 0.03007 0.75835
 H449 H 0.10546 -0.00717 0.78003
 H450 H 0.10859 0.00788 0.71904
 H451 H 0.19414 0.00001 0.74968
 H452 H 0.05262 0.00125 0.74660
 C453 C 0.64877 0.48312 0.24461
 C454 C 0.63778 0.50085 0.24929
 C455 C 0.65043 0.51774 0.25364
 C456 C 0.67196 0.51766 0.25334
 C457 C 0.68060 0.49880 0.24866
 C458 C 0.67015 0.48109 0.24404
 C459 C 0.61345 0.50125 0.24992
 C460 C 0.60246 0.49645 0.26761
 C461 C 0.58108 0.49580 0.26960
 C462 C 0.57063 0.50044 0.25190
 C463 C 0.57927 0.50514 0.23306
 C464 C 0.60080 0.50548 0.23299
 H465 H 0.64023 0.47041 0.24152
 H466 H 0.64337 0.53130 0.25694
 H467 H 0.61100 0.49320 0.28028
 H468 H 0.60786 0.50859 0.21939
 H469 H 0.69621 0.49790 0.24833
 H470 H 0.55502 0.50004 0.25278
 C471 C 0.85128 0.48229 0.75406
 C472 C 0.86225 0.50004 0.74946
 C473 C 0.84958 0.51699 0.74535
 C474 C 0.82805 0.51691 0.74568
 C475 C 0.81943 0.49802 0.75026
 C476 C 0.82990 0.48028 0.75473
 C477 C 0.88659 0.50053 0.74931
 C478 C 0.89840 0.49547 0.73227
 C479 C 0.91991 0.49508 0.73120
 C480 C 0.92973 0.50030 0.74932
 C481 C 0.91997 0.50559 0.76745
 C482 C 0.89845 0.50540 0.76639
 H483 H 0.85983 0.46958 0.75710
 H484 H 0.85664 0.53060 0.74224
 H485 H 0.89044 0.49186 0.71933
 H486 H 0.89053 0.50888 0.77939
 H487 H 0.80382 0.49712 0.75066
 H488 H 0.94537 0.50023 0.74932
 C489 C 0.25516 0.35009 -0.01747
 C490 C 0.25037 0.36306 -0.00085
 C491 C 0.24544 0.35237 0.01699
 C492 C 0.24484 0.33104 0.01932
 C493 C 0.24951 0.32036 0.00185
 C494 C 0.25513 0.32851 -0.01701
 C495 C 0.25048 0.38744 -0.00163
 C496 C 0.23290 0.39925 -0.00579
 C497 C 0.23200 0.42074 -0.00597
 C498 C 0.25040 0.43013 -0.00177
 C499 C 0.26882 0.42081 0.00253
 C500 C 0.26799 0.39933 0.00254
 H501 H 0.25912 0.35694 -0.03096
 H502 H 0.24211 0.36109 0.02952
 H503 H 0.21956 0.39153 -0.00846
 H504 H 0.28130 0.39167 0.00553
 H505 H 0.24793 0.30493 0.00315
 H506 H 0.25037 0.44578 -0.00180
 C507 C 0.74547 0.14896 -0.01768
 C508 C 0.75044 0.13612 -0.00103
 C509 C 0.75542 0.14689 0.01673
 C510 C 0.75599 0.16820 0.01894
 C511 C 0.75117 0.17881 0.00145
 C512 C 0.74545 0.17053 -0.01733
 C513 C 0.74982 0.11178 -0.00147
 C514 C 0.76678 0.09915 -0.00565
 C515 C 0.76678 0.07762 -0.00517
 C516 C 0.74800 0.06895 -0.00029
 C517 C 0.73028 0.07940 0.00432
 C518 C 0.73219 0.10078 0.00348
 H519 H 0.74135 0.14202 -0.03107
 H520 H 0.75875 0.13822 0.02930
 H521 H 0.78036 0.10623 -0.00882
 H522 H 0.71951 0.10930 0.00675
 H523 H 0.75266 0.19426 0.00266
 H524 H 0.74721 0.05335 0.00032
 C525 C 0.24303 0.64750 0.48392
 C526 C 0.24813 0.63575 0.50100
 C527 C 0.25330 0.64764 0.51794
 C528 C 0.25358 0.66914 0.51893
 C529 C 0.24812 0.67886 0.50082
 C530 C 0.24271 0.66900 0.48277
 C531 C 0.24870 0.61142 0.50095
 C532 C 0.26643 0.60046 0.49624
 C533 C 0.26846 0.57908 0.49563
 C534 C 0.25076 0.56861 0.50026
 C535 C 0.23193 0.57725 0.50503
 C536 C 0.23183 0.59877 0.50528
 H537 H 0.23946 0.63950 0.47099
 H538 H 0.25708 0.63974 0.53088
 H539 H 0.27911 0.60902 0.49307
 H540 H 0.21823 0.60581 0.50848
 H541 H 0.24812 0.69450 0.50076
 H542 H 0.25161 0.55300 0.49982
 C543 C 0.75471 0.85075 0.48220
 C544 C 0.74990 0.86269 0.49955
 C545 C 0.74559 0.85093 0.51711
 C546 C 0.74584 0.82948 0.51815
 C547 C 0.75057 0.82004 0.49994
 C548 C 0.75541 0.82926 0.48160
 C549 C 0.74982 0.88708 0.49949
 C550 C 0.73220 0.89885 0.49542
 C551 C 0.73124 0.92033 0.49536
 C552 C 0.74962 0.92978 0.49954
 C553 C 0.76808 0.92050 0.50369
 C554 C 0.76732 0.89901 0.50359
 H555 H 0.75839 0.85838 0.46905
 H556 H 0.74246 0.85868 0.53033
 H557 H 0.71889 0.89111 0.49266
 H558 H 0.78069 0.89138 0.50637
 H559 H 0.75046 0.80441 0.50014
 H560 H 0.74954 0.94542 0.49956
 C561 C -0.01838 0.25450 0.34996
 C562 C -0.00083 0.25038 0.36176
 C563 C 0.01672 0.24631 0.34997
 C564 C 0.01758 0.24625 0.32853
 C565 C -0.00082 0.25045 0.31915
 C566 C -0.01922 0.25464 0.32852
 C567 C -0.00083 0.25031 0.38606
 C568 C -0.00597 0.23326 0.39778
 C569 C -0.00625 0.23209 0.41926
 C570 C -0.00082 0.25012 0.42914
 C571 C 0.00462 0.26824 0.41943
 C572 C 0.00433 0.26726 0.39793
 H573 H -0.03172 0.25726 0.35766
 H574 H 0.03005 0.24350 0.35767
 H575 H -0.00966 0.22036 0.38977
 H576 H 0.00802 0.28022 0.39003
 H577 H -0.00083 0.25043 0.30350
 H578 H -0.00081 0.25005 0.44479
 C579 C -0.01736 0.74626 0.14729
 C580 C -0.00029 0.75126 0.13552
 C581 C 0.01675 0.75621 0.14740
 C582 C 0.01774 0.75652 0.16892
 C583 C -0.00042 0.75127 0.17863
 C584 C -0.01849 0.74599 0.16878
 C585 C -0.00011 0.75068 0.11119
 C586 C -0.00448 0.76753 0.09851
 C587 C -0.00417 0.76740 0.07699
 C588 C 0.00062 0.74855 0.06839
 C589 C 0.00535 0.73089 0.07889
 C590 C 0.00472 0.73296 0.10026
 H591 H -0.03028 0.74260 0.13930
 H592 H 0.02977 0.75969 0.13951
 H593 H -0.00777 0.78111 0.10553
 H594 H 0.00795 0.72030 0.10884
 H595 H -0.00048 0.75127 0.19428
 H596 H 0.00098 0.74762 0.05279
 C597 C 0.48220 0.24440 0.64896
 C598 C 0.49972 0.24867 0.63713
 C599 C 0.51712 0.25337 0.64897
 C600 C 0.51781 0.25414 0.67044
 C601 C 0.49947 0.24962 0.67979
 C602 C 0.48124 0.24473 0.67042
 C603 C 0.49968 0.24878 0.61277
 C604 C 0.49523 0.26636 0.60111
 C605 C 0.49533 0.26746 0.57967
 C606 C 0.50008 0.24930 0.57015
 C607 C 0.50506 0.23094 0.57928
 C608 C 0.50447 0.23148 0.60077
 H609 H 0.46895 0.24127 0.64127
 H610 H 0.53025 0.25700 0.64128
 H611 H 0.49210 0.27955 0.60892
 H612 H 0.50823 0.21832 0.60835
 H613 H 0.49936 0.25001 0.69543
 H614 H 0.49985 0.24956 0.55452
 C615 C 0.48245 0.75488 0.85124
 C616 C 0.50018 0.75002 0.86215
 C617 C 0.51704 0.74575 0.84946
 C618 C 0.51691 0.74616 0.82795
 C619 C 0.49806 0.75094 0.81936
 C620 C 0.48039 0.75560 0.82987
 C621 C 0.50081 0.74978 0.88647
 C622 C 0.49590 0.73268 0.89827
 C623 C 0.49572 0.73154 0.91977
 C624 C 0.50101 0.74964 0.92959
 C625 C 0.50618 0.76780 0.91983
 C626 C 0.50578 0.76682 0.89832
 H627 H 0.46979 0.75807 0.85983
 H628 H 0.53063 0.74247 0.85648
 H629 H 0.49225 0.71976 0.89029
 H630 H 0.50919 0.77985 0.89041
 H631 H 0.49713 0.75136 0.80376
 H632 H 0.50108 0.74960 0.94523
 C633 C 0.09374 0.22188 0.28114
 C634 C 0.08497 0.23787 0.27334
 C635 C 0.09273 0.24638 0.25653
 C636 C 0.10975 0.23867 0.24733
 C637 C 0.12031 0.22205 0.25397
 C638 C 0.11146 0.21362 0.27175
 O639 O 0.08369 0.21609 0.29736
 C640 C 0.06839 0.22864 0.29976
 C641 C 0.06869 0.24220 0.28527
 C642 C 0.05425 0.25656 0.28466
 C643 C 0.03903 0.25724 0.29885
 C644 C 0.03697 0.24393 0.31466
 C645 C 0.05273 0.22920 0.31476
 H646 H 0.08576 0.25899 0.25041
 H647 H 0.11468 0.24611 0.23451
 H648 H 0.11813 0.20100 0.27815
 H649 H 0.05456 0.26725 0.27323
 H650 H 0.02849 0.26871 0.29735
 H651 H 0.05263 0.21821 0.32589
 C652 C 0.59334 0.72237 0.78037
 C653 C 0.58356 0.73726 0.77164
 C654 C 0.59064 0.74500 0.75416
 C655 C 0.60799 0.73765 0.74522
 C656 C 0.61954 0.72214 0.75280
 C657 C 0.61137 0.71446 0.77125
 O658 O 0.58387 0.71720 0.79715
 C659 C 0.56790 0.72901 0.79897
 C660 C 0.56721 0.74149 0.78354
 C661 C 0.55197 0.75496 0.78225
 C662 C 0.53697 0.75583 0.79669
 C663 C 0.53588 0.74358 0.81345
 C664 C 0.55250 0.72981 0.81424
 H665 H 0.58289 0.75674 0.74730
 H666 H 0.61234 0.74441 0.73183
 H667 H 0.61882 0.70271 0.77839
 H668 H 0.55150 0.76484 0.77012
 H669 H 0.52592 0.76671 0.79465
 H670 H 0.55328 0.71974 0.82618
 C671 C 0.40967 0.77156 0.77180
 C672 C 0.40672 0.78068 0.78919
 C673 C 0.38982 0.79186 0.79181
 C674 C 0.37562 0.79391 0.77663
 C675 C 0.37691 0.78491 0.75796
 C676 C 0.39494 0.77326 0.75600
 O677 O 0.42703 0.76183 0.77228
 C678 C 0.43509 0.76479 0.79025
 C679 C 0.42304 0.77620 0.80114
 C680 C 0.42842 0.78091 0.82028
 C681 C 0.44628 0.77401 0.82867
 C682 C 0.46016 0.76215 0.81873
 C683 C 0.45378 0.75775 0.79859
 H684 H 0.38751 0.79912 0.80548
 H685 H 0.36309 0.80273 0.77978
 H686 H 0.39760 0.76585 0.74249
 H687 H 0.41892 0.78992 0.82887
 H688 H 0.44938 0.77851 0.84331
 H689 H 0.46302 0.74890 0.78960
 C690 C -0.09505 0.27899 0.28047
 C691 C -0.08645 0.26270 0.27309
 C692 C -0.09425 0.25388 0.25649
 C693 C -0.11113 0.26155 0.24703
 C694 C -0.12157 0.27848 0.25317
 C695 C -0.11266 0.28724 0.27080
 O696 O -0.08495 0.28502 0.29657
 C697 C -0.06981 0.27232 0.29931
 C698 C -0.07026 0.25844 0.28514
 C699 C -0.05601 0.24387 0.28488
 C700 C -0.04081 0.24330 0.29910
 C701 C -0.03860 0.25692 0.31462
 C702 C -0.05417 0.27188 0.31435
 H703 H -0.08740 0.24104 0.25072
 H704 H -0.11596 0.25372 0.23442
 H705 H -0.11918 0.30010 0.27687
 H706 H -0.05643 0.23295 0.27367
 H707 H -0.03039 0.23169 0.29785
 H708 H -0.05392 0.28312 0.32523
 C709 C -0.08917 0.73086 0.22716
 C710 C -0.09155 0.72070 0.21027
 C711 C -0.10803 0.70889 0.20796
 C712 C -0.12244 0.70724 0.22297
 C713 C -0.12173 0.71722 0.24117
 C714 C -0.10409 0.72951 0.24281
 O715 O -0.07212 0.74112 0.22636
 C716 C -0.06369 0.73742 0.20870
 C717 C -0.07520 0.72503 0.19834
 C718 C -0.06943 0.71935 0.17960
 C719 C -0.05170 0.72633 0.17105
 C720 C -0.03839 0.73927 0.18039
 C721 C -0.04513 0.74462 0.20017
 H722 H -0.10988 0.70086 0.19466
 H723 H -0.13464 0.69791 0.22004
 H724 H -0.10190 0.73771 0.25595
 H725 H -0.07849 0.70953 0.17146
 H726 H -0.04826 0.72103 0.15676
 H727 H -0.03630 0.75432 0.20870
 C728 C 0.40524 0.22058 0.71841
 C729 C 0.41369 0.23700 0.72567
 C730 C 0.40570 0.24593 0.74215
 C731 C 0.38878 0.23823 0.75158
 C732 C 0.37854 0.22120 0.74550
 C733 C 0.38762 0.21233 0.72804
 O734 O 0.41547 0.21442 0.70243
 C735 C 0.43056 0.22716 0.69963
 C736 C 0.42994 0.24121 0.71364
 C737 C 0.44412 0.25585 0.71378
 C738 C 0.45939 0.25632 0.69962
 C739 C 0.46179 0.24250 0.68429
 C740 C 0.44628 0.22748 0.68467
 H741 H 0.41241 0.25887 0.74786
 H742 H 0.38367 0.24602 0.76411
 H743 H 0.38121 0.19938 0.72206
 H744 H 0.44358 0.26692 0.72483
 H745 H 0.46971 0.26803 0.70076
 H746 H 0.44664 0.21611 0.67394
 C747 C 0.59630 0.26923 0.71799
 C748 C 0.58116 0.27957 0.72558
 C749 C 0.58427 0.29114 0.74217
 C750 C 0.60304 0.29236 0.75131
 C751 C 0.61987 0.28222 0.74476
 C752 C 0.61580 0.27025 0.72731
 O753 O 0.59013 0.25906 0.70201
 C754 C 0.57078 0.26302 0.69945
 C755 C 0.56471 0.27553 0.71365
 C756 C 0.54521 0.28148 0.71398
 C757 C 0.53149 0.27461 0.69984
 C758 C 0.53595 0.26150 0.68433
 C759 C 0.55676 0.25585 0.68452
 H760 H 0.57231 0.29928 0.74814
 H761 H 0.60439 0.30149 0.76395
 H762 H 0.62748 0.26193 0.72108
 H763 H 0.54041 0.29133 0.72515
 H764 H 0.51680 0.27985 0.70115
 H765 H 0.56188 0.24583 0.67366
 C766 C 0.08790 0.77137 0.22809
 C767 C 0.09055 0.78147 0.21120
 C768 C 0.10715 0.79317 0.20909
 C769 C 0.12139 0.79477 0.22429
 C770 C 0.12040 0.78483 0.24250
 C771 C 0.10266 0.77266 0.24392
 O772 O 0.07079 0.76122 0.22712
 C773 C 0.06259 0.76492 0.20934
 C774 C 0.07431 0.77721 0.19908
 C775 C 0.06878 0.78284 0.18024
 C776 C 0.05111 0.77593 0.17150
 C777 C 0.03758 0.76313 0.18073
 C778 C 0.04407 0.75782 0.20062
 H779 H 0.10922 0.80116 0.19580
 H780 H 0.13368 0.80404 0.22151
 H781 H 0.10025 0.76450 0.25705
 H782 H 0.07801 0.79257 0.17217
 H783 H 0.04789 0.78117 0.15713
 H784 H 0.03508 0.74822 0.20908
 C785 C 0.28030 0.09325 0.22226
 C786 C 0.27157 0.08365 0.23727
 C787 C 0.25415 0.09093 0.24500
 C788 C 0.24528 0.10826 0.23751
 C789 C 0.25285 0.11963 0.22187
 C790 C 0.27124 0.11127 0.21422
 O791 O 0.29701 0.08364 0.21712
 C792 C 0.29879 0.06777 0.22907
 C793 C 0.28341 0.06726 0.24160
 C794 C 0.28209 0.05212 0.25519
 C795 C 0.29646 0.03705 0.25614
 C796 C 0.31319 0.03577 0.24385
 C797 C 0.31400 0.05227 0.22994
 H798 H 0.24728 0.08333 0.25684
 H799 H 0.23194 0.11278 0.24428
 H800 H 0.27839 0.11856 0.20237
 H801 H 0.26999 0.05179 0.26512
 H802 H 0.29440 0.02608 0.26710
 H803 H 0.32590 0.05291 0.21981
 C804 C 0.78025 0.59340 0.72233
 C805 C 0.77162 0.58364 0.73730
 C806 C 0.75420 0.59078 0.74517
 C807 C 0.74522 0.60814 0.73785
 C808 C 0.75268 0.61964 0.72225
 C809 C 0.77108 0.61143 0.71447
 O810 O 0.79698 0.58392 0.71704
 C811 C 0.79890 0.56796 0.72884
 C812 C 0.78358 0.56727 0.74144
 C813 C 0.78240 0.55201 0.75491
 C814 C 0.79686 0.53700 0.75564
 C815 C 0.81354 0.53592 0.74327
 C816 C 0.81419 0.55255 0.72950
 H817 H 0.74742 0.58307 0.75698
 H818 H 0.73189 0.61258 0.74470
 H819 H 0.77814 0.61885 0.70265
 H820 H 0.77035 0.55152 0.76488
 H821 H 0.79490 0.52592 0.76651
 H822 H 0.82604 0.55334 0.71932
 C823 C 0.77181 0.40943 0.76992
 C824 C 0.78929 0.40631 0.77884
 C825 C 0.79203 0.38925 0.78968
 C826 C 0.77689 0.37502 0.79164
 C827 C 0.75810 0.37646 0.78289
 C828 C 0.75601 0.39468 0.77155
 O829 O 0.77224 0.42695 0.76049
 C830 C 0.79024 0.43494 0.76344
 C831 C 0.80120 0.42269 0.77454
 C832 C 0.82038 0.42795 0.77923
 C833 C 0.82874 0.44591 0.77259
 C834 C 0.81874 0.45999 0.76102
 C835 C 0.79856 0.45373 0.75665
 H836 H 0.80578 0.38682 0.79675
 H837 H 0.78018 0.36235 0.80020
 H838 H 0.74241 0.39747 0.76435
 H839 H 0.82901 0.41829 0.78802
 H840 H 0.84341 0.44891 0.77706
 H841 H 0.78953 0.46313 0.74802
 C842 C 0.27082 -0.09020 0.27202
 C843 C 0.28820 -0.09321 0.28114
 C844 C 0.29078 -0.11009 0.29233
 C845 C 0.27557 -0.12424 0.29439
 C846 C 0.25689 -0.12289 0.28543
 C847 C 0.25496 -0.10487 0.27375
 O848 O 0.27137 -0.07285 0.26227
 C849 C 0.28937 -0.06487 0.26524
 C850 C 0.30020 -0.07695 0.27666
 C851 C 0.31936 -0.07167 0.28141
 C852 C 0.32783 -0.05385 0.27452
 C853 C 0.31796 -0.03996 0.26262
 C854 C 0.29780 -0.04623 0.25819
 H855 H 0.30446 -0.11243 0.29957
 H856 H 0.27873 -0.13677 0.30320
 H857 H 0.24145 -0.10217 0.26636
 H858 H 0.32789 -0.08120 0.29043
 H859 H 0.34247 -0.05081 0.27905
 H860 H 0.28887 -0.03695 0.24932
 C861 C 0.22712 -0.08872 0.72887
 C862 C 0.21012 -0.09115 0.71891
 C863 C 0.20771 -0.10767 0.70718
 C864 C 0.22271 -0.12206 0.70538
 C865 C 0.24104 -0.12132 0.71513
 C866 C 0.24279 -0.10364 0.72736
 O867 O 0.22640 -0.07164 0.73911
 C868 C 0.20868 -0.06325 0.73559
 C869 C 0.19820 -0.07481 0.72334
 C870 C 0.17939 -0.06908 0.71785
 C871 C 0.17088 -0.05136 0.72488
 C872 C 0.18031 -0.03798 0.73770
 C873 C 0.20017 -0.04468 0.74285
 H874 H 0.19431 -0.10956 0.69930
 H875 H 0.21967 -0.13428 0.69611
 H876 H 0.25603 -0.10140 0.73539
 H877 H 0.17117 -0.07818 0.70813
 H878 H 0.15653 -0.04797 0.71971
 H879 H 0.20878 -0.03582 0.75244
 C880 C 0.72837 0.41026 0.22890
 C881 C 0.71094 0.40717 0.21988
 C882 C 0.70828 0.39014 0.20895
 C883 C 0.72344 0.37591 0.20704
 C884 C 0.74217 0.37732 0.21590
 C885 C 0.74418 0.39551 0.22732
 O886 O 0.72788 0.42775 0.23840
 C887 C 0.70989 0.43575 0.23537
 C888 C 0.69899 0.42353 0.22417
 C889 C 0.67983 0.42881 0.21941
 C890 C 0.67143 0.44676 0.22606
 C891 C 0.68136 0.46080 0.23773
 C892 C 0.70152 0.45452 0.24218
 H893 H 0.69457 0.38773 0.20179
 H894 H 0.72021 0.36327 0.19842
 H895 H 0.75774 0.39828 0.23461
 H896 H 0.67125 0.41918 0.21054
 H897 H 0.65678 0.44976 0.22153
 H898 H 0.71051 0.46390 0.25089
 C899 C 0.71944 0.59413 0.27734
 C900 C 0.72822 0.58439 0.26245
 C901 C 0.74571 0.59154 0.25476
 C902 C 0.75461 0.60889 0.26217
 C903 C 0.74699 0.62039 0.27770
 C904 C 0.72853 0.61216 0.28531
 O905 O 0.70266 0.58463 0.28245
 C906 C 0.70088 0.56869 0.27061
 C907 C 0.71633 0.56803 0.25816
 C908 C 0.71766 0.55280 0.24468
 C909 C 0.70324 0.53778 0.24376
 C910 C 0.68644 0.53666 0.25597
 C911 C 0.68561 0.55326 0.26976
 H912 H 0.75261 0.58382 0.24301
 H913 H 0.76800 0.61331 0.25544
 H914 H 0.72135 0.61957 0.29707
 H915 H 0.72981 0.55235 0.23483
 H916 H 0.70532 0.52673 0.23288
 H917 H 0.67366 0.55402 0.27981
 C918 C 0.22747 0.08876 0.76993
 C919 C 0.21049 0.09132 0.77990
 C920 C 0.20816 0.10794 0.79150
 C921 C 0.22321 0.12230 0.79315
 C922 C 0.24153 0.12144 0.78338
 C923 C 0.24320 0.10365 0.77127
 O924 O 0.22667 0.07159 0.75984
 C925 C 0.20892 0.06327 0.76347
 C926 C 0.19851 0.07498 0.77565
 C927 C 0.17970 0.06935 0.78123
 C928 C 0.17111 0.05158 0.77439
 C929 C 0.18046 0.03806 0.76166
 C930 C 0.20033 0.04467 0.75640
 H931 H 0.19479 0.10993 0.79939
 H932 H 0.22021 0.13460 0.80231
 H933 H 0.25641 0.10130 0.76324
 H934 H 0.17153 0.07856 0.79089
 H935 H 0.15676 0.04828 0.77963
 H936 H 0.20888 0.03569 0.74686
 C937 C 0.23000 0.27246 0.08979
 C938 C 0.22121 0.28995 0.09319
 C939 C 0.21056 0.29253 0.11041
 C940 C 0.20869 0.27722 0.12448
 C941 C 0.21733 0.25840 0.12272
 C942 C 0.22846 0.25649 0.10436
 O943 O 0.23924 0.27304 0.07217
 C944 C 0.23630 0.29115 0.06443
 C945 C 0.22538 0.30204 0.07691
 C946 C 0.22076 0.32132 0.07188
 C947 C 0.22726 0.32983 0.05392
 C948 C 0.23860 0.31988 0.03963
 C949 C 0.24294 0.29962 0.04567
 H950 H 0.20358 0.30628 0.11309
 H951 H 0.20030 0.28040 0.13728
 H952 H 0.23556 0.24289 0.10132
 H953 H 0.21214 0.32991 0.08172
 H954 H 0.22290 0.34457 0.05111
 H955 H 0.25143 0.29063 0.03611
 C956 C 0.72191 0.78112 0.59398
 C957 C 0.73831 0.77389 0.58547
 C958 C 0.74724 0.75734 0.59337
 C959 C 0.73954 0.74781 0.61024
 C960 C 0.72254 0.75388 0.62052
 C961 C 0.71369 0.77141 0.61155
 O962 O 0.71573 0.79714 0.58385
 C963 C 0.72843 0.80003 0.56876
 C964 C 0.74249 0.78602 0.56927
 C965 C 0.75711 0.78599 0.55507
 C966 C 0.75753 0.80024 0.53989
 C967 C 0.74369 0.81557 0.53759
 C968 C 0.72870 0.81508 0.55311
 H969 H 0.76016 0.75166 0.58660
 H970 H 0.74730 0.73524 0.61533
 H971 H 0.70076 0.77737 0.61801
 H972 H 0.76819 0.77495 0.55552
 H973 H 0.76922 0.79917 0.52953
 H974 H 0.71730 0.82579 0.55283
 C975 C 0.77167 0.78232 0.40281
 C976 C 0.77936 0.77301 0.41856
 C977 C 0.78875 0.75502 0.41597
 C978 C 0.79047 0.74618 0.39710
 C979 C 0.78323 0.75458 0.37961
 C980 C 0.77349 0.77348 0.38315
 O981 O 0.76305 0.79932 0.40864
 C982 C 0.76537 0.80081 0.42837
 C983 C 0.77537 0.78495 0.43497
 C984 C 0.77960 0.78344 0.45483
 C985 C 0.77346 0.79802 0.46840
 C986 C 0.76253 0.81506 0.46352
 C987 C 0.75878 0.81612 0.44229
 H988 H 0.79473 0.74766 0.42842
 H989 H 0.79777 0.73237 0.39618
 H990 H 0.76736 0.78111 0.37095
 H991 H 0.78767 0.77107 0.46001
 H992 H 0.77762 0.79579 0.48331
 H993 H 0.75065 0.82827 0.43675
 C994 C 0.27355 0.28224 -0.09605
 C995 C 0.27431 0.27032 -0.08023
 C996 C 0.27810 0.25040 -0.08279
 C997 C 0.28119 0.24224 -0.10175
 C998 C 0.28132 0.25321 -0.11932
 C999 C 0.27730 0.27412 -0.11579
 O1000 O 0.26909 0.30079 -0.09020
 C1001 C 0.26714 0.30057 -0.07035
 C1002 C 0.27045 0.28215 -0.06375
 C1003 C 0.26994 0.27852 -0.04377
 C1004 C 0.26577 0.29363 -0.03008
 C1005 C 0.26102 0.31337 -0.03494
 C1006 C 0.26225 0.31647 -0.05631
 H1007 H 0.27848 0.24101 -0.07027
 H1008 H 0.28382 0.22683 -0.10265
 H1009 H 0.27677 0.28379 -0.12806
 H1010 H 0.27310 0.26411 -0.03855
 H1011 H 0.26681 0.28935 -0.01514
 H1012 H 0.25935 0.33076 -0.06195
 C1013 C 0.72626 0.21614 -0.09656
 C1014 C 0.72532 0.22813 -0.08079
 C1015 C 0.72120 0.24797 -0.08347
 C1016 C 0.71796 0.25598 -0.10247
 C1017 C 0.71802 0.24491 -0.11998
 C1018 C 0.72239 0.22409 -0.11634
 O1019 O 0.73100 0.19769 -0.09061
 C1020 C 0.73295 0.19804 -0.07077
 C1021 C 0.72939 0.21644 -0.06425
 C1022 C 0.72990 0.22019 -0.04429
 C1023 C 0.73434 0.20522 -0.03053
 C1024 C 0.73932 0.18551 -0.03531
 C1025 C 0.73808 0.18229 -0.05666
 H1026 H 0.72068 0.25742 -0.07100
 H1027 H 0.71509 0.27134 -0.10346
 H1028 H 0.72310 0.21437 -0.12857
 H1029 H 0.72657 0.23459 -0.03913
 H1030 H 0.73335 0.20955 -0.01560
 H1031 H 0.74117 0.16800 -0.06223
 C1032 C 0.22713 0.72741 0.41208
 C1033 C 0.21713 0.71042 0.40966
 C1034 C 0.20537 0.70805 0.39314
 C1035 C 0.20360 0.72307 0.37875
 C1036 C 0.21341 0.74137 0.37949
 C1037 C 0.22566 0.74307 0.39716
 O1038 O 0.23737 0.72667 0.42915
 C1039 C 0.23383 0.70896 0.43756
 C1040 C 0.22154 0.69850 0.42601
 C1041 C 0.21603 0.67970 0.43177
 C1042 C 0.22307 0.67119 0.44950
 C1043 C 0.23591 0.68061 0.46286
 C1044 C 0.24108 0.70046 0.45613
 H1045 H 0.19745 0.69468 0.39126
 H1046 H 0.19430 0.72008 0.36654
 H1047 H 0.23373 0.75628 0.39939
 H1048 H 0.20630 0.67148 0.42267
 H1049 H 0.21788 0.65684 0.45290
 H1050 H 0.25069 0.70906 0.46498
 C1051 C 0.26941 0.72791 0.58921
 C1052 C 0.27960 0.71103 0.59157
 C1053 C 0.29158 0.70882 0.60795
 C1054 C 0.29337 0.72390 0.62228
 C1055 C 0.28337 0.74209 0.62160
 C1056 C 0.27090 0.74363 0.60407
 O1057 O 0.25897 0.72703 0.57227
 C1058 C 0.26259 0.70933 0.56387
 C1059 C 0.27511 0.69902 0.57531
 C1060 C 0.28073 0.68026 0.56956
 C1061 C 0.27358 0.67162 0.55194
 C1062 C 0.26050 0.68089 0.53870
 C1063 C 0.25521 0.70070 0.54542
 H1064 H 0.29965 0.69554 0.60977
 H1065 H 0.30282 0.72102 0.63439
 H1066 H 0.26268 0.75676 0.60190
 H1067 H 0.29065 0.67216 0.57856
 H1068 H 0.27886 0.65732 0.54851
 H1069 H 0.24541 0.70918 0.53665
 C1070 C 0.77103 0.22664 0.08940
 C1071 C 0.77998 0.20921 0.09267
 C1072 C 0.79079 0.20663 0.10979
 C1073 C 0.79265 0.22189 0.12390
 C1074 C 0.78385 0.24064 0.12227
 C1075 C 0.77257 0.24255 0.10402
 O1076 O 0.76163 0.22606 0.07188
 C1077 C 0.76465 0.20801 0.06404
 C1078 C 0.77576 0.19716 0.07638
 C1079 C 0.78049 0.17795 0.07125
 C1080 C 0.77390 0.16946 0.05332
 C1081 C 0.76234 0.17937 0.03918
 C1082 C 0.75790 0.19956 0.04532
 H1083 H 0.79790 0.19292 0.11235
 H1084 H 0.80117 0.21873 0.13663
 H1085 H 0.76532 0.25610 0.10110
 H1086 H 0.78927 0.16939 0.08099
 H1087 H 0.77836 0.15477 0.05042
 H1088 H 0.74924 0.20852 0.03587
 C1089 C 0.47086 0.34347 0.53184
 C1090 C 0.48728 0.33507 0.52455
 C1091 C 0.49617 0.34309 0.50806
 C1092 C 0.48841 0.35998 0.49864
 C1093 C 0.47136 0.37018 0.50475
 C1094 C 0.46255 0.36108 0.52223
 O1095 O 0.46475 0.33321 0.54782
 C1096 C 0.47754 0.31816 0.55059
 C1097 C 0.49156 0.31882 0.53656
 C1098 C 0.50625 0.30470 0.53638
 C1099 C 0.50679 0.28942 0.55053
 C1100 C 0.49301 0.28696 0.56588
 C1101 C 0.47793 0.30241 0.56554
 H1102 H 0.50912 0.33641 0.50233
 H1103 H 0.49618 0.36511 0.48611
 H1104 H 0.44959 0.36745 0.52823
 H1105 H 0.51730 0.30528 0.52531
 H1106 H 0.51853 0.27913 0.54935
 H1107 H 0.46657 0.30201 0.57628
 C1108 C -0.02844 0.84372 0.02939
 C1109 C -0.01351 0.83401 0.02064
 C1110 C -0.00584 0.84113 0.00314
 C1111 C -0.01330 0.85844 -0.00579
 C1112 C -0.02886 0.86992 0.00180
 C1113 C -0.03646 0.86171 0.02027
 O1114 O -0.03352 0.83423 0.04619
 C1115 C -0.02162 0.81832 0.04799
 C1116 C -0.00917 0.81768 0.03255
 C1117 C 0.00436 0.80249 0.03123
 C1118 C 0.00533 0.78750 0.04568
 C1119 C -0.00687 0.78637 0.06248
 C1120 C -0.02071 0.80292 0.06328
 H1121 H 0.00593 0.83344 -0.00374
 H1122 H -0.00658 0.86283 -0.01920
 H1123 H -0.04823 0.86910 0.02743
 H1124 H 0.01422 0.80206 0.01908
 H1125 H 0.01626 0.77649 0.04362
 H1126 H -0.03077 0.80366 0.07524
 C1127 C 0.02119 0.66010 0.02086
 C1128 C 0.03029 0.65714 0.03827
 C1129 C 0.04140 0.64022 0.04094
 C1130 C 0.04343 0.62598 0.02579
 C1131 C 0.03448 0.62727 0.00709
 C1132 C 0.02289 0.64534 0.00508
 O1133 O 0.01151 0.67749 0.02132
 C1134 C 0.01448 0.68555 0.03928
 C1135 C 0.02583 0.67348 0.05019
 C1136 C 0.03056 0.67886 0.06934
 C1137 C 0.02370 0.69675 0.07770
 C1138 C 0.01187 0.71065 0.06774
 C1139 C 0.00747 0.70426 0.04761
 H1140 H 0.04862 0.63790 0.05463
 H1141 H 0.05219 0.61343 0.02899
 H1142 H 0.01551 0.64800 -0.00845
 H1143 H 0.03954 0.66936 0.07793
 H1144 H 0.02821 0.69985 0.09234
 H1145 H -0.00135 0.71352 0.03860
 C1146 C 0.52163 0.15212 0.53249
 C1147 C 0.52891 0.16792 0.52295
 C1148 C 0.53800 0.16538 0.50480
 C1149 C 0.53982 0.14649 0.49604
 C1150 C 0.53303 0.12893 0.50467
 C1151 C 0.52359 0.13243 0.52373
 O1152 O 0.51322 0.15793 0.54961
 C1153 C 0.51527 0.17770 0.55093
 C1154 C 0.52488 0.18435 0.53487
 C1155 C 0.52878 0.20426 0.53316
 C1156 C 0.52271 0.21782 0.54776
 C1157 C 0.51215 0.21290 0.56503
 C1158 C 0.50874 0.19162 0.56628
 H1159 H 0.54363 0.17788 0.49726
 H1160 H 0.54684 0.14561 0.48207
 H1161 H 0.51776 0.12019 0.53152
 H1162 H 0.53656 0.20948 0.52062
 H1163 H 0.52666 0.23277 0.54538
 H1164 H 0.50092 0.18603 0.57861
 C1165 C -0.02179 0.16109 0.47720
 C1166 C -0.03198 0.15889 0.46030
 C1167 C -0.04387 0.14248 0.45789
 C1168 C -0.04558 0.12796 0.47278
 C1169 C -0.03558 0.12848 0.49098
 C1170 C -0.02320 0.14605 0.49273
 O1171 O -0.01142 0.17808 0.47652
 C1172 C -0.01508 0.18667 0.45892
 C1173 C -0.02757 0.17531 0.44849
 C1174 C -0.03323 0.18127 0.42981
 C1175 C -0.02615 0.19901 0.42138
 C1176 C -0.01310 0.21218 0.43079
 C1177 C -0.00777 0.20525 0.45052
 H1178 H -0.05193 0.14078 0.44458
 H1179 H -0.05498 0.11583 0.46978
 H1180 H -0.01497 0.14809 0.50588
 H1181 H -0.04313 0.17233 0.42161
 H1182 H -0.03145 0.20259 0.40712
 H1183 H 0.00201 0.21395 0.45909
 C1184 C 0.48089 0.66085 0.97835
 C1185 C 0.47085 0.65834 0.96140
 C1186 C 0.45921 0.64174 0.95908
 C1187 C 0.45760 0.62735 0.97412
 C1188 C 0.46745 0.62818 0.99239
 C1189 C 0.47958 0.64594 0.99404
 O1190 O 0.49101 0.67799 0.97755
 C1191 C 0.48734 0.68635 0.95983
 C1192 C 0.47510 0.67469 0.94944
 C1193 C 0.46946 0.68038 0.93066
 C1194 C 0.47633 0.69814 0.92209
 C1195 C 0.48912 0.71161 0.93144
 C1196 C 0.49443 0.70495 0.95127
 H1197 H 0.45127 0.63978 0.94574
 H1198 H 0.44839 0.61507 0.97116
 H1199 H 0.48768 0.64825 1.00722
 H1200 H 0.45975 0.67121 0.92250
 H1201 H 0.47106 0.70149 0.90776
 H1202 H 0.50401 0.71388 0.95982
 C1203 C 0.52121 0.83827 0.97855
 C1204 C 0.53131 0.84078 0.96164
 C1205 C 0.54305 0.85733 0.95942
 C1206 C 0.54468 0.87167 0.97450
 C1207 C 0.53474 0.87082 0.99272
 C1208 C 0.52252 0.85312 0.99428
 O1209 O 0.51101 0.82118 0.97769
 C1210 C 0.51469 0.81285 0.95997
 C1211 C 0.52701 0.82448 0.94963
 C1212 C 0.53264 0.81881 0.93084
 C1213 C 0.52570 0.80110 0.92222
 C1214 C 0.51285 0.78767 0.93153
 C1215 C 0.50754 0.79430 0.95137
 H1216 H 0.55105 0.85928 0.94611
 H1217 H 0.55396 0.88393 0.97164
 H1218 H 0.51436 0.85082 1.00742
 H1219 H 0.54240 0.82796 0.92271
 H1220 H 0.53096 0.79776 0.90789
 H1221 H 0.49791 0.78539 0.95988
 C1222 C 0.02023 0.33870 0.47805
 C1223 C 0.03043 0.34104 0.46117
 C1224 C 0.04237 0.35744 0.45893
 C1225 C 0.04411 0.37182 0.47397
 C1226 C 0.03409 0.37116 0.49215
 C1227 C 0.02166 0.35360 0.49373
 O1228 O 0.00984 0.32173 0.47720
 C1229 C 0.01350 0.31329 0.45952
 C1230 C 0.02600 0.32474 0.44920
 C1231 C 0.03166 0.31895 0.43046
 C1232 C 0.02455 0.30129 0.42186
 C1233 C 0.01149 0.28805 0.43114
 C1234 C 0.00616 0.29480 0.45094
 H1235 H 0.05044 0.35926 0.44564
 H1236 H 0.05354 0.38395 0.47108
 H1237 H 0.01343 0.35145 0.50685
 H1238 H 0.04156 0.32795 0.42235
 H1239 H 0.02984 0.29785 0.40757
 H1240 H -0.00362 0.28604 0.45943
 C1241 C 0.33937 0.52113 0.48006
 C1242 C 0.34236 0.53859 0.47107
 C1243 C 0.35934 0.54135 0.46009
 C1244 C 0.37361 0.52625 0.45808
 C1245 C 0.37229 0.50749 0.46690
 C1246 C 0.35416 0.50538 0.47837
 O1247 O 0.32191 0.52153 0.48962
 C1248 C 0.31385 0.53951 0.48668
 C1249 C 0.32598 0.55047 0.47545
 C1250 C 0.32063 0.56962 0.47074
 C1251 C 0.30269 0.57794 0.47749
 C1252 C 0.28873 0.56795 0.48920
 C1253 C 0.29509 0.54780 0.49359
 H1254 H 0.36168 0.55509 0.45296
 H1255 H 0.38620 0.52955 0.44942
 H1256 H 0.35147 0.49179 0.48564
 H1257 H 0.33019 0.57824 0.46184
 H1258 H 0.29962 0.59259 0.47299
 H1259 H 0.28577 0.53877 0.50232
 C1260 C 0.84294 0.02942 -0.02885
 C1261 C 0.83370 0.02141 -0.01322
 C1262 C 0.84121 0.00442 -0.00481
 C1263 C 0.85841 -0.00477 -0.01222
 C1264 C 0.86939 0.00203 -0.02853
 C1265 C 0.86078 0.02001 -0.03687
 O1266 O 0.83316 0.04586 -0.03455
 C1267 C 0.81756 0.04818 -0.02234
 C1268 C 0.81737 0.03341 -0.00909
 C1269 C 0.80251 0.03268 0.00486
 C1270 C 0.78739 0.04702 0.00543
 C1271 C 0.78585 0.06318 -0.00755
 C1272 C 0.80205 0.06338 -0.02184
 H1273 H 0.83390 -0.00186 0.00753
 H1274 H 0.86305 -0.01772 -0.00482
 H1275 H 0.86776 0.02659 -0.04923
 H1276 H 0.80241 0.02104 0.01532
 H1277 H 0.77660 0.04542 0.01664
 H1278 H 0.80243 0.07480 -0.03252
 C1279 C 0.65986 0.02122 0.02093
 C1280 C 0.65690 0.03867 0.02993
 C1281 C 0.64005 0.04137 0.04113
 C1282 C 0.62589 0.02620 0.04336
 C1283 C 0.62720 0.00744 0.03453
 C1284 C 0.64518 0.00540 0.02283
 O1285 O 0.67719 0.02168 0.01114
 C1286 C 0.68520 0.03969 0.01395
 C1287 C 0.67316 0.05062 0.02531
 C1288 C 0.67848 0.06981 0.02989
 C1289 C 0.69629 0.07820 0.02288
 C1290 C 0.71014 0.06822 0.01103
 C1291 C 0.70383 0.04804 0.00678
 H1292 H 0.63774 0.05510 0.04827
 H1293 H 0.61339 0.02943 0.05217
 H1294 H 0.64785 -0.00818 0.01554
 H1295 H 0.66899 0.07842 0.03887
 H1296 H 0.69936 0.09287 0.02730
 H1297 H 0.71307 0.03902 -0.00204
 C1298 C 0.15593 0.52919 0.52927
 C1299 C 0.16513 0.52109 0.51367
 C1300 C 0.15764 0.50406 0.50536
 C1301 C 0.14048 0.49491 0.51286
 C1302 C 0.12950 0.50177 0.52916
 C1303 C 0.13811 0.51980 0.53740
 O1304 O 0.16570 0.54567 0.53483
 C1305 C 0.18127 0.54791 0.52257
 C1306 C 0.18144 0.53305 0.50941
 C1307 C 0.19626 0.53221 0.49544
 C1308 C 0.21137 0.54655 0.49472
 C1309 C 0.21292 0.56281 0.50758
 C1310 C 0.19676 0.56312 0.52190
 H1311 H 0.16492 0.49772 0.49304
 H1312 H 0.13588 0.48192 0.50552
 H1313 H 0.13116 0.52644 0.54974
 H1314 H 0.19634 0.52049 0.48507
 H1315 H 0.22215 0.54487 0.48351
 H1316 H 0.19640 0.57462 0.53249
 C1317 C 0.15600 0.46884 -0.03038
 C1318 C 0.16469 0.47636 -0.01420
 C1319 C 0.15691 0.49309 -0.00554
 C1320 C 0.13998 0.50251 -0.01323
 C1321 C 0.12947 0.49620 -0.03005
 C1322 C 0.13836 0.47846 -0.03865
 O1323 O 0.16606 0.45265 -0.03630
 C1324 C 0.18127 0.44998 -0.02366
 C1325 C 0.18091 0.46429 -0.00990
 C1326 C 0.19526 0.46462 0.00458
 C1327 C 0.21044 0.45035 0.00519
 C1328 C 0.21258 0.43469 -0.00829
 C1329 C 0.19690 0.43489 -0.02317
 H1330 H 0.16382 0.49899 0.00721
 H1331 H 0.13514 0.51522 -0.00556
 H1332 H 0.13179 0.47225 -0.05142
 H1333 H 0.19493 0.47591 0.01541
 H1334 H 0.22090 0.45168 0.01675
 H1335 H 0.19706 0.42393 -0.03432
 C1336 C 0.65512 0.96827 0.47127
 C1337 C 0.66375 0.97570 0.48752
 C1338 C 0.65588 0.99231 0.49632
 C1339 C 0.63893 1.00172 0.48867
 C1340 C 0.62849 0.99549 0.47178
 C1341 C 0.63746 0.97787 0.46305
 O1342 O 0.66526 0.95218 0.46523
 C1343 C 0.68045 0.94948 0.47787
 C1344 C 0.68001 0.96367 0.49175
 C1345 C 0.69433 0.96395 0.50625
 C1346 C 0.70956 0.94974 0.50677
 C1347 C 0.71178 0.93420 0.49315
 C1348 C 0.69614 0.93446 0.47826
 H1349 H 0.66273 0.99813 0.50913
 H1350 H 0.63401 1.01435 0.49643
 H1351 H 0.63093 0.97174 0.45022
 H1352 H 0.69393 0.97515 0.51717
 H1353 H 0.72001 0.95100 0.51836
 H1354 H 0.69636 0.92359 0.46702
 C1355 C 0.84379 0.96907 0.52788
 C1356 C 0.83503 0.97653 0.51171
 C1357 C 0.84268 0.99329 0.50301
 C1358 C 0.85956 1.00283 0.51067
 C1359 C 0.87013 0.99658 0.52748
 C1360 C 0.86139 0.97880 0.53610
 O1361 O 0.83385 0.95283 0.53384
 C1362 C 0.81864 0.95006 0.52122
 C1363 C 0.81888 0.96435 0.50745
 C1364 C 0.80452 0.96458 0.49300
 C1365 C 0.78943 0.95021 0.49243
 C1366 C 0.78742 0.93456 0.50594
 C1367 C 0.80311 0.93488 0.52079
 H1368 H 0.83572 0.99914 0.49027
 H1369 H 0.86431 1.01556 0.50299
 H1370 H 0.86802 0.97265 0.54886
 H1371 H 0.80476 0.97585 0.48214
 H1372 H 0.77894 0.95145 0.48088
 H1373 H 0.80304 0.92392 0.53195
 C1374 C 0.34471 0.46873 0.02731
 C1375 C 0.33600 0.47648 0.01125
 C1376 C 0.34379 0.49334 0.00280
 C1377 C 0.36074 0.50264 0.01064
 C1378 C 0.37120 0.49605 0.02733
 C1379 C 0.36234 0.47822 0.03569
 O1380 O 0.33469 0.45247 0.03305
 C1381 C 0.31947 0.44996 0.02041
 C1382 C 0.31979 0.46444 0.00684
 C1383 C 0.30541 0.46492 -0.00761
 C1384 C 0.29026 0.45062 -0.00835
 C1385 C 0.28818 0.43480 0.00496
 C1386 C 0.30388 0.43485 0.01979
 H1387 H 0.33688 0.49943 -0.00986
 H1388 H 0.36572 0.51548 0.00325
 H1389 H 0.36893 0.47185 0.04835
 H1390 H 0.30571 0.47632 -0.01832
 H1391 H 0.27978 0.45205 -0.01989
 H1392 H 0.30378 0.42374 0.03080
 C1393 C 0.52276 0.47996 0.34012
 C1394 C 0.54022 0.47103 0.34323
 C1395 C 0.54289 0.46004 0.36023
 C1396 C 0.52769 0.45797 0.37438
 C1397 C 0.50891 0.46674 0.37293
 C1398 C 0.50690 0.47821 0.35479
 O1399 O 0.52324 0.48954 0.32268
 C1400 C 0.54128 0.48667 0.31474
 C1401 C 0.55220 0.47547 0.32694
 C1402 C 0.57141 0.47085 0.32171
 C1403 C 0.57983 0.47764 0.30383
 C1404 C 0.56987 0.48932 0.28981
 C1405 C 0.54966 0.49362 0.29604
 H1406 H 0.55664 0.45295 0.36266
 H1407 H 0.53092 0.44932 0.38700
 H1408 H 0.49332 0.48544 0.35200
 H1409 H 0.58001 0.46198 0.33132
 H1410 H 0.59451 0.47321 0.30085
 H1411 H 0.54066 0.50232 0.28668
 C1412 C 0.02896 -0.02726 0.84262
 C1413 C 0.02039 -0.01224 0.83289
 C1414 C 0.00297 -0.00435 0.83999
 C1415 C -0.00608 -0.01171 0.85729
 C1416 C 0.00133 -0.02735 0.86877
 C1417 C 0.01973 -0.03516 0.86059
 O1418 O 0.04570 -0.03256 0.83316
 C1419 C 0.04767 -0.02070 0.81726
 C1420 C 0.03237 -0.00806 0.81658
 C1421 C 0.03125 0.00548 0.80139
 C1422 C 0.04573 0.00626 0.78642
 C1423 C 0.06236 -0.00616 0.78532
 C1424 C 0.06298 -0.02001 0.80188
 H1425 H -0.00376 0.00749 0.83229
 H1426 H -0.01940 -0.00484 0.86169
 H1427 H 0.02674 -0.04702 0.86800
 H1428 H 0.01922 0.01548 0.80093
 H1429 H 0.04382 0.01718 0.77538
 H1430 H 0.07480 -0.03022 0.80263
 C1431 C 0.02035 0.02065 0.65923
 C1432 C 0.03775 0.02969 0.65610
 C1433 C 0.04037 0.04065 0.63909
 C1434 C 0.02516 0.04259 0.62494
 C1435 C 0.00644 0.03370 0.62642
 C1436 C 0.00449 0.02225 0.64456
 O1437 O 0.02088 0.01112 0.67670
 C1438 C 0.03889 0.01413 0.68463
 C1439 C 0.04976 0.02537 0.67240
 C1440 C 0.06893 0.03012 0.67761
 C1441 C 0.07738 0.02343 0.69551
 C1442 C 0.06747 0.01174 0.70955
 C1443 C 0.04730 0.00729 0.70334
 H1444 H 0.05406 0.04783 0.63665
 H1445 H 0.02833 0.05123 0.61230
 H1446 H -0.00905 0.01494 0.64736
 H1447 H 0.07748 0.03900 0.66797
 H1448 H 0.09204 0.02795 0.69849
 H1449 H 0.03835 -0.00144 0.71273
 C1450 C 0.53149 0.52873 0.15663
 C1451 C 0.52290 0.51371 0.16635
 C1452 C 0.50549 0.50584 0.15923
 C1453 C 0.49648 0.51317 0.14191
 C1454 C 0.50390 0.52880 0.13041
 C1455 C 0.52228 0.53661 0.13862
 O1456 O 0.54822 0.53401 0.16612
 C1457 C 0.55015 0.52216 0.18205
 C1458 C 0.53485 0.50953 0.18269
 C1459 C 0.53369 0.49600 0.19790
 C1460 C 0.54813 0.49523 0.21291
 C1461 C 0.56478 0.50762 0.21404
 C1462 C 0.56544 0.52146 0.19747
 H1463 H 0.49874 0.49401 0.16694
 H1464 H 0.48316 0.50629 0.13752
 H1465 H 0.52931 0.54847 0.13122
 H1466 H 0.52166 0.48600 0.19833
 H1467 H 0.54618 0.48431 0.22394
 H1468 H 0.57727 0.53166 0.19673
 C1469 C 0.47767 -0.02158 0.16172
 C1470 C 0.46066 -0.03153 0.15932
 C1471 C 0.45825 -0.04332 0.14283
 C1472 C 0.47326 -0.04516 0.12844
 C1473 C 0.49158 -0.03541 0.12916
 C1474 C 0.49333 -0.02312 0.14680
 O1475 O 0.47697 -0.01129 0.17877
 C1476 C 0.45924 -0.01476 0.18718
 C1477 C 0.44875 -0.02704 0.17565
 C1478 C 0.42993 -0.03248 0.18142
 C1479 C 0.42144 -0.02538 0.19913
 C1480 C 0.43090 -0.01254 0.21246
 C1481 C 0.45076 -0.00744 0.20573
 H1482 H 0.44485 -0.05120 0.14097
 H1483 H 0.47023 -0.05446 0.11624
 H1484 H 0.50656 -0.01509 0.14901
 H1485 H 0.42168 -0.04220 0.17234
 H1486 H 0.40707 -0.03051 0.20254
 H1487 H 0.45939 0.00216 0.21456
 C1488 C 0.97863 0.47952 0.66080
 C1489 C 0.96157 0.46970 0.65820
 C1490 C 0.95917 0.45809 0.64159
 C1491 C 0.97425 0.45628 0.62728
 C1492 C 0.99265 0.46589 0.62819
 C1493 C 0.99438 0.47800 0.64596
 O1494 O 0.97788 0.48965 0.67794
 C1495 C 0.96008 0.48620 0.68620
 C1496 C 0.94959 0.47410 0.67450
 C1497 C 0.93071 0.46870 0.68009
 C1498 C 0.92214 0.47567 0.69782
 C1499 C 0.93159 0.48834 0.71132
 C1500 C 0.95152 0.49340 0.70476
 H1501 H 0.94573 0.45032 0.63958
 H1502 H 0.97121 0.44713 0.61498
 H1503 H 1.00766 0.48592 0.64833
 H1504 H 0.92247 0.45911 0.67087
 H1505 H 0.90774 0.47056 0.70109
 H1506 H 0.96014 0.50287 0.71374
 C1507 C 0.97886 0.52022 0.83793
 C1508 C 0.96193 0.53027 0.84054
 C1509 C 0.95969 0.54188 0.85717
 C1510 C 0.97480 0.54346 0.87149
 C1511 C 0.99306 0.53360 0.87057
 C1512 C 0.99462 0.52150 0.85278
 O1513 O 0.97798 0.51014 0.82077
 C1514 C 0.96023 0.51384 0.81250
 C1515 C 0.94989 0.52606 0.82423
 C1516 C 0.93108 0.53170 0.81864
 C1517 C 0.92243 0.52488 0.80090
 C1518 C 0.93172 0.51213 0.78736
 C1519 C 0.95158 0.50680 0.79391
 H1520 H 0.94636 0.54982 0.85920
 H1521 H 0.97189 0.55265 0.88380
 H1522 H 1.00779 0.51340 0.85040
 H1523 H 0.92296 0.54139 0.82788
 H1524 H 0.90808 0.53015 0.79764
 H1525 H 0.96009 0.49725 0.78492
 C1526 C 0.47815 0.01914 0.33933
 C1527 C 0.46122 0.02919 0.34191
 C1528 C 0.45893 0.04074 0.35858
 C1529 C 0.47398 0.04224 0.37297
 C1530 C 0.49225 0.03239 0.37208
 C1531 C 0.49387 0.02035 0.35424
 O1532 O 0.47731 0.00912 0.32212
 C1533 C 0.45958 0.01287 0.31380
 C1534 C 0.44923 0.02506 0.32555
 C1535 C 0.43045 0.03076 0.31992
 C1536 C 0.42184 0.02402 0.30212
 C1537 C 0.43114 0.01129 0.28856
 C1538 C 0.45098 0.00590 0.29517
 H1539 H 0.44560 0.04869 0.36059
 H1540 H 0.47101 0.05137 0.38530
 H1541 H 0.50704 0.01226 0.35187
 H1542 H 0.42232 0.04042 0.32916
 H1543 H 0.40752 0.02935 0.29883
 H1544 H 0.45949 -0.00364 0.28617
   
