data_POSCAR
  _audit_creation_date              2014-09-24
  _audit_creation_method            'ToBaCCo'
  _symmetry_space_group_name_H-M    'P1'
  _symmetry_Int_Tables_number       1
  _symmetry_cell_setting            triclinic
  loop_
  _symmetry_equiv_pos_as_xyz
 x,y,z
_cell_length_a 34.2719
_cell_length_b 34.9270
_cell_length_c 35.5485
_cell_angle_alpha 91.124500
_cell_angle_beta 88.776500
_cell_angle_gamma 92.415100
loop_
  _atom_site_label
  _atom_site_type_symbol
  _atom_site_fract_x
  _atom_site_fract_y
  _atom_site_fract_z
Si1 Si 0.74275 0.63147 1.00815
 Si2 Si 0.74926 0.39878 0.49464
 Si3 Si 0.26602 -0.09875 -0.00353
 Si4 Si 0.24274 0.12133 0.49361
 Si5 Si 0.11791 0.49038 0.25159
 Si6 Si -0.11327 -0.02705 0.25018
 Si7 Si 0.37341 0.50926 0.74868
 Si8 Si 0.63101 1.01951 0.74597
 Si9 Si -0.00579 0.22721 -0.12441
 Si10 Si 0.49875 0.25729 0.10655
 Si11 Si 0.97649 0.72785 0.64000
 Si12 Si 0.48682 0.75138 0.37565
 C13 C 0.46402 -0.03438 0.27125
 H14 H 0.48175 -0.00943 0.26323
 C15 C 0.48167 -0.06645 0.28543
 H16 H 0.51303 -0.06615 0.28865
 C17 C 0.40126 -0.06483 0.27949
 H18 H 0.36987 -0.06367 0.27758
 C19 C 0.41755 -0.09724 0.29344
 H20 H 0.39868 -0.12101 0.30279
 N21 N 0.42442 -0.03429 0.26871
 C22 C 0.41368 0.08597 0.25323
 H23 H 0.39049 0.08729 0.27421
 C24 C 0.42720 0.11967 0.23597
 H25 H 0.41470 0.14664 0.24414
 C26 C 0.45450 0.04898 0.21339
 H27 H 0.46317 0.02117 0.20316
 C28 C 0.46936 0.08210 0.19587
 H29 H 0.49010 0.07971 0.17260
 Zn30 Zn 0.39565 0.00706 0.25285
 N31 N 0.42634 0.05142 0.24075
 C32 C 0.37868 0.02773 0.32620
 N33 N 0.36117 0.01890 0.29300
 C34 C 0.32174 0.01970 0.28953
 C35 C 0.29851 0.03191 0.31992
 C36 C 0.35664 0.03989 0.35718
 C37 C 0.37484 -0.04223 0.19213
 C38 C 0.35743 -0.05231 0.15814
 C39 C 0.32828 0.00954 0.15810
 C40 C 0.34621 0.01846 0.19231
 N41 N 0.36869 -0.00749 0.20871
 H42 H 0.41006 0.02653 0.32810
 H43 H 0.30843 0.01202 0.26300
 H44 H 0.26736 0.03428 0.31666
 H45 H 0.37106 0.04851 0.38300
 H46 H 0.39395 -0.06192 0.20468
 H47 H 0.36251 -0.08001 0.14511
 H48 H 0.31046 0.03024 0.14508
 H49 H 0.34268 0.04627 0.20559
 C50 C 0.45384 0.11758 0.20571
 C51 C 0.45804 -0.09805 0.29685
 C52 C 0.33407 -0.02621 0.14087
 C53 C 0.31631 0.04282 0.35383
 C54 C 0.08985 1.02878 0.79632
 H55 H 0.10000 1.00768 0.81525
 C56 C 0.07256 1.06141 0.81102
 H57 H 0.06943 1.06521 0.84124
 C58 C 0.08254 1.05019 0.73409
 H59 H 0.08723 1.04596 0.70415
 C60 C 0.06458 1.08314 0.74766
 H61 H 0.05489 1.10396 0.72809
 N62 N 0.09523 1.02410 0.75852
 C63 C 0.11258 0.91074 0.70973
 H64 H 0.14228 0.91573 0.69952
 C65 C 0.09298 0.87584 0.70200
 H66 H 0.10734 0.85450 0.68476
 C67 C 0.05759 0.93301 0.74390
 H68 H 0.04423 0.95539 0.76052
 C69 C 0.03715 0.89798 0.73752
 H70 H 0.00776 0.89367 0.74889
 Zn71 Zn 0.12601 0.98309 0.74163
 N72 N 0.09470 0.93855 0.73013
 C73 C 0.14955 0.93767 0.79998
 N74 N 0.15853 0.97107 0.78207
 C75 C 0.18542 0.99697 0.79628
 C76 C 0.20525 0.98908 0.82902
 C77 C 0.16687 0.92980 0.83385
 C78 C 0.13520 0.99162 0.66419
 C79 C 0.15202 1.00383 0.63020
 C80 C 0.20799 1.02905 0.66410
 C81 C 0.19053 1.01540 0.69740
 N82 N 0.15437 0.99769 0.69704
 H83 H 0.12733 0.91783 0.78925
 H84 H 0.19041 1.02447 0.78335
 H85 H 0.22738 1.00946 0.83933
 H86 H 0.15785 0.90385 0.84840
 H87 H 0.10623 0.97811 0.66447
 H88 H 0.13594 0.99936 0.60447
 H89 H 0.23574 1.04500 0.66520
 H90 H 0.20561 1.02013 0.72339
 C91 C 0.05513 0.86868 0.71672
 C92 C 0.06059 1.08948 0.78664
 C93 C 0.18863 1.02335 0.62994
 C94 C 0.19478 0.95586 0.84914
 C95 C 0.55008 0.53889 0.29120
 H96 H 0.54676 0.51143 0.30472
 C97 C 0.52763 0.56922 0.30370
 H98 H 0.50717 0.56518 0.32707
 C99 C 0.58307 0.57864 0.24640
 H100 H 0.60499 0.58245 0.22441
 C101 C 0.56097 0.60968 0.25781
 H102 H 0.56662 0.63737 0.24514
 N103 N 0.57868 0.54469 0.26454
 C104 C 0.59211 0.42495 0.25695
 H105 H 0.61251 0.42265 0.27943
 C106 C 0.57517 0.39165 0.24062
 H107 H 0.58308 0.36382 0.25020
 C108 C 0.55913 0.46348 0.21469
 H109 H 0.55412 0.49156 0.20390
 C110 C 0.54158 0.43103 0.19764
 H111 H 0.52325 0.43412 0.17354
 Zn112 Zn 0.61445 0.50504 0.25647
 N113 N 0.58512 0.45985 0.24268
 C114 C 0.67185 0.47305 0.30141
 N115 N 0.64297 0.49864 0.30136
 C116 C 0.63420 0.51966 0.33292
 C117 C 0.65274 0.51342 0.36672
 C118 C 0.69153 0.46629 0.33457
 C119 C 0.64874 0.49737 0.18338
 C120 C 0.66870 0.51099 0.15135
 C121 C 0.69443 0.56447 0.18862
 C122 C 0.67397 0.54983 0.21997
 N123 N 0.64996 0.51800 0.21630
 H124 H 0.67895 0.45725 0.27587
 H125 H 0.61239 0.54096 0.33234
 H126 H 0.64439 0.52922 0.39194
 H127 H 0.71349 0.44487 0.33468
 H128 H 0.63047 0.47153 0.18115
 H129 H 0.66485 0.49612 0.12457
 H130 H 0.71067 0.59166 0.19099
 H131 H 0.67486 0.56543 0.24655
 C132 C 0.55076 0.39467 0.20976
 C133 C 0.53403 0.60536 0.28776
 C134 C 0.69040 0.54576 0.15355
 C135 C 0.68139 0.48618 0.36778
 C136 C 0.87478 0.41164 0.81599
 H137 H 0.85397 0.42334 0.83575
 C138 C 0.89419 0.37916 0.82582
 H139 H 0.88884 0.36678 0.85325
 C140 C 0.90555 0.41140 0.75570
 H141 H 0.90864 0.42286 0.72781
 C142 C 0.92562 0.37871 0.76443
 H143 H 0.94490 0.36591 0.74366
 N144 N 0.88126 0.42779 0.78171
 C145 C 0.87506 0.55040 0.76880
 H146 H 0.85165 0.55288 0.78939
 C147 C 0.89132 0.58373 0.75279
 H148 H 0.88080 0.61134 0.76172
 C149 C 0.91415 0.51188 0.72893
 H150 H 0.92179 0.48409 0.71826
 C151 C 0.93157 0.54456 0.71252
 H152 H 0.95295 0.54149 0.68989
 Zn153 Zn 0.85280 0.47218 0.77029
 N154 N 0.88586 0.51520 0.75613
 C155 C 0.84702 0.49755 0.84399
 N156 N 0.82430 0.48765 0.81411
 C157 C 0.78508 0.49250 0.81536
 C158 C 0.76770 0.50969 0.84720
 C159 C 0.83087 0.51415 0.87629
 C160 C 0.80875 0.49128 0.70822
 C161 C 0.79545 0.48565 0.67149
 C162 C 0.80407 0.41778 0.67754
 C163 C 0.81736 0.42468 0.71405
 N164 N 0.82077 0.46115 0.72813
 H165 H 0.87822 0.49408 0.84195
 H166 H 0.76774 0.48501 0.79103
 H167 H 0.73701 0.51591 0.84717
 H168 H 0.84974 0.52378 0.89895
 H169 H 0.81222 0.52006 0.71977
 H170 H 0.78833 0.51009 0.65505
 H171 H 0.80349 0.38889 0.66585
 H172 H 0.82723 0.40116 0.73018
 C173 C 0.91878 0.58085 0.72332
 C174 C 0.92002 0.36259 0.79997
 C175 C 0.79463 0.44872 0.65535
 C176 C 0.79106 0.52137 0.87766
 C177 C 0.26492 0.45258 -0.04248
 H178 H 0.26102 0.46712 -0.01568
 C179 C 0.27944 0.47320 -0.07346
 H180 H 0.28758 0.50336 -0.07025
 C181 C 0.26106 0.39531 -0.07945
 H182 H 0.25385 0.36492 -0.08154
 C183 C 0.27531 0.41477 -0.11103
 H184 H 0.28011 0.39916 -0.13725
 N185 N 0.25720 0.41410 -0.04578
 C186 C 0.18561 0.41198 0.04814
 H187 H 0.16505 0.39378 0.03275
 C188 C 0.17332 0.43003 0.08132
 H189 H 0.14332 0.42573 0.09108
 C190 C 0.25004 0.43799 0.05581
 H191 H 0.28022 0.43991 0.04621
 C192 C 0.23908 0.45607 0.08964
 H193 H 0.26081 0.47187 0.10609
 Zn194 Zn 0.24079 0.38393 -0.00427
 N195 N 0.22360 0.41549 0.03644
 C196 C 0.28937 0.35335 0.04981
 N197 N 0.28339 0.35539 0.01217
 C198 C 0.30905 0.34025 -0.01324
 C199 C 0.34317 0.32406 -0.00111
 C200 C 0.32327 0.33791 0.06307
 C201 C 0.17094 0.36780 -0.04045
 C202 C 0.13819 0.34641 -0.05251
 C203 C 0.16308 0.29075 -0.02330
 C204 C 0.19571 0.31327 -0.01193
 N205 N 0.19870 0.35117 -0.02030
 H206 H 0.26826 0.36448 0.06971
 H207 H 0.30374 0.34161 -0.04298
 H208 H 0.36362 0.31260 -0.02161
 H209 H 0.32812 0.33762 0.09308
 H210 H 0.17418 0.39793 -0.04687
 H211 H 0.11639 0.36008 -0.06864
 H212 H 0.16059 0.26074 -0.01617
 H213 H 0.21830 0.30070 0.00399
 C214 C 0.20042 0.45148 0.10295
 C215 C 0.28541 0.45390 -0.10787
 C216 C 0.13356 0.30762 -0.04328
 C217 C 0.35117 0.32404 0.03744
 C218 C 0.76953 0.02362 1.05084
 H219 H 0.76707 0.01012 1.02333
 C220 C 0.78602 0.00403 1.08017
 H221 H 0.79665 -0.02441 1.07512
 C222 C 0.76179 0.07830 1.09052
 H223 H 0.75334 0.10767 1.09400
 C224 C 0.77792 0.05978 1.12051
 H225 H 0.78219 0.07502 1.14704
 N226 N 0.75872 0.06042 1.05631
 C227 C 0.68511 0.06106 0.96750
 H228 H 0.66525 0.07452 0.98708
 C229 C 0.67132 0.04810 0.93280
 H230 H 0.64094 0.05134 0.92619
 C231 C 0.74917 0.04291 0.95077
 H232 H 0.77982 0.04264 0.95738
 C233 C 0.73667 0.03015 0.91531
 H234 H 0.75770 0.01973 0.89480
 Zn235 Zn 0.74324 0.09032 1.01582
 N236 N 0.72370 0.05959 0.97533
 C237 C 0.78811 0.12889 0.96032
 N238 N 0.78693 0.12018 0.99747
 C239 C 0.81724 0.13040 1.02023
 C240 C 0.85095 0.14895 1.00539
 C241 C 0.82158 0.14634 0.94419
 C242 C 0.67461 0.10782 1.05528
 C243 C 0.64189 0.12885 1.06418
 C244 C 0.66923 0.18048 1.02625
 C245 C 0.70146 0.15839 1.01793
 N246 N 0.70334 0.12267 1.03223
 H247 H 0.76338 0.12136 0.94290
 H248 H 0.81561 0.12365 1.04975
 H249 H 0.87489 0.15697 1.02373
 H250 H 0.82253 0.15181 0.91429
 H251 H 0.67660 0.07912 1.06575
 H252 H 0.61893 0.11660 1.08221
 H253 H 0.66782 0.20886 1.01474
 H254 H 0.72447 0.16935 0.99932
 C255 C 0.69751 0.03382 0.90578
 C256 C 0.79105 0.02263 1.11512
 C257 C 0.63872 0.16530 1.04904
 C258 C 0.85392 0.15570 0.96661
 C259 C 0.27216 0.55650 0.54272
 H260 H 0.28365 0.55140 0.51464
 C261 C 0.28844 0.53860 0.57308
 H262 H 0.31271 0.52011 0.56822
 C263 C 0.22847 0.58855 0.58380
 H264 H 0.20545 0.60836 0.58812
 C265 C 0.24450 0.57190 0.61505
 H266 H 0.23420 0.57961 0.64309
 N267 N 0.24406 0.58244 0.54872
 C268 C 0.21623 0.60953 0.43343
 H269 H 0.22400 0.63985 0.43499
 C270 C 0.20308 0.59311 0.39978
 H271 H 0.20044 0.61083 0.37536
 C272 C 0.20845 0.54979 0.46399
 H273 H 0.20998 0.53336 0.48934
 C274 C 0.19507 0.53214 0.43074
 H275 H 0.18614 0.50203 0.43045
 Zn276 Zn 0.23256 0.61557 0.50889
 N277 N 0.21798 0.58800 0.46479
 C278 C 0.28498 0.68243 0.50397
 N279 N 0.27890 0.64444 0.49571
 C280 C 0.30536 0.62492 0.47461
 C281 C 0.33856 0.64377 0.45957
 C282 C 0.31841 0.70229 0.49010
 C283 C 0.15585 0.64036 0.50596
 C284 C 0.12229 0.65825 0.51858
 C285 C 0.16034 0.69130 0.56653
 C286 C 0.19332 0.67265 0.55303
 N287 N 0.19041 0.64713 0.52363
 H288 H 0.26359 0.69773 0.52028
 H289 H 0.29968 0.59497 0.46776
 H290 H 0.35832 0.62816 0.44135
 H291 H 0.32261 0.73270 0.49603
 H292 H 0.15356 0.61953 0.48321
 H293 H 0.09465 0.65118 0.50536
 H294 H 0.16247 0.71000 0.59113
 H295 H 0.22064 0.67684 0.56750
 C296 C 0.19153 0.55425 0.39852
 C297 C 0.27625 0.54833 0.60983
 C298 C 0.12425 0.68348 0.54957
 C299 C 0.34479 0.68310 0.46643
 C300 C 0.79283 0.91940 0.46405
 H301 H 0.80396 0.92790 0.49134
 C302 C 0.81071 0.93410 0.43144
 H303 H 0.83555 0.95418 0.43366
 C304 C 0.74819 0.88141 0.42761
 H305 H 0.72452 0.86005 0.42617
 C306 C 0.76562 0.89493 0.39430
 H307 H 0.75518 0.88404 0.36744
 N308 N 0.76233 0.89336 0.46159
 C309 C 0.71215 0.88943 0.57494
 H310 H 0.71009 0.85854 0.57697
 C311 C 0.70037 0.91223 0.60522
 H312 H 0.68910 0.89899 0.63076
 C313 C 0.72960 0.94444 0.53912
 H314 H 0.74073 0.95670 0.51316
 C315 C 0.71782 0.96846 0.56886
 H316 H 0.72013 0.99928 0.56599
 Zn317 Zn 0.74269 0.86982 0.50601
 N318 N 0.72705 0.90570 0.54301
 C319 C 0.80008 0.85466 0.55775
 N320 N 0.78282 0.84075 0.52589
 C321 C 0.79514 0.80824 0.50838
 C322 C 0.82395 0.78689 0.52457
 C323 C 0.82915 0.83465 0.57446
 C324 C 0.66729 0.86109 0.48316
 C325 C 0.63311 0.84309 0.47012
 C326 C 0.65970 0.78180 0.48319
 C327 C 0.69349 0.80110 0.49636
 N328 N 0.69713 0.84001 0.49466
 H329 H 0.79152 0.88152 0.57026
 H330 H 0.78224 0.79860 0.48217
 H331 H 0.83278 0.76046 0.51112
 H332 H 0.84233 0.84602 0.59999
 H333 H 0.67092 0.89199 0.48252
 H334 H 0.61052 0.86009 0.45884
 H335 H 0.65781 0.75078 0.48220
 H336 H 0.71713 0.78493 0.50651
 C337 C 0.70346 0.95207 0.60233
 C338 C 0.79790 0.92077 0.39610
 C339 C 0.62968 0.80307 0.46904
 C340 C 0.84045 0.79970 0.55858
 C341 C -0.05330 0.27464 0.44261
 H342 H -0.02578 0.27612 0.45701
 C343 C -0.08500 0.29454 0.45735
 H344 H -0.08197 0.31098 0.48334
 C345 C -0.08979 0.25514 0.38909
 H346 H -0.09081 0.24149 0.36154
 C347 C -0.12232 0.27354 0.40325
 H348 H -0.14867 0.27320 0.38691
 N349 N -0.05606 0.25625 0.40859
 C350 C 0.06737 0.24334 0.39841
 H351 H 0.07049 0.26063 0.37356
 C352 C 0.10063 0.22967 0.41455
 H353 H 0.12917 0.23681 0.40230
 C354 C 0.02641 0.20912 0.44193
 H355 H -0.00269 0.19987 0.45121
 C356 C 0.05898 0.19509 0.45920
 H357 H 0.05499 0.17519 0.48209
 Zn358 Zn -0.01169 0.24034 0.38107
 N359 N 0.03120 0.23206 0.41160
 C360 C 0.01068 0.31452 0.36866
 N361 N 0.00193 0.28154 0.34912
 C362 C 0.00444 0.27995 0.31083
 C363 C 0.01933 0.31182 0.29103
 C364 C 0.02514 0.34691 0.35011
 C365 C -0.05318 0.17080 0.36925
 C366 C -0.06370 0.13613 0.35154
 C367 C -0.01042 0.14651 0.30680
 C368 C -0.00057 0.18100 0.32578
 N369 N -0.02316 0.19329 0.35527
 H370 H 0.00808 0.31507 0.39902
 H371 H -0.00386 0.25387 0.29570
 H372 H 0.02350 0.30993 0.26078
 H373 H 0.03395 0.37237 0.36620
 H374 H -0.06922 0.17984 0.39413
 H375 H -0.08857 0.11917 0.36220
 H376 H 0.00643 0.13778 0.28223
 H377 H 0.02470 0.19820 0.31661
 C378 C 0.09642 0.20401 0.44421
 C379 C -0.11942 0.29521 0.43672
 C380 C -0.04310 0.12441 0.31916
 C381 C 0.03080 0.34524 0.31108
 C382 C 1.06072 0.76759 0.04486
 H383 H 1.03221 0.76748 0.03257
 C384 C 1.09218 0.78666 0.02653
 H385 H 1.08780 0.80025 -0.00009
 C386 C 1.10029 0.75584 0.09695
 H387 H 1.10272 0.74559 0.12528
 C388 C 1.13236 0.77470 0.07971
 H389 H 1.15945 0.77867 0.09471
 N390 N 1.06525 0.75277 0.07959
 C391 C 0.94269 0.72714 0.10885
 H392 H 0.94563 0.73575 0.13805
 C393 C 0.90585 0.71695 0.09526
 H394 H 0.88088 0.71695 0.11445
 C395 C 0.97215 0.71356 0.04948
 H396 H 0.99819 0.71023 0.03229
 C397 C 0.93548 0.70436 0.03430
 H398 H 0.93358 0.69508 0.00513
 Zn399 Zn 1.02240 0.73701 0.11123
 N400 N 0.97497 0.72544 0.08605
 C401 C 1.00154 0.81082 0.12359
 N402 N 1.01300 0.78004 0.14274
 C403 C 1.01413 0.78059 0.18100
 C404 C 1.00031 0.81207 0.20151
 C405 C 0.98779 0.84278 0.14285
 C406 C 1.06314 0.67027 0.12555
 C407 C 1.07009 0.63580 0.14293
 C408 C 1.01588 0.64686 0.18574
 C409 C 1.00988 0.68113 0.16747
 N410 N 1.03373 0.69247 0.13826
 H411 H 1.00104 0.80959 0.09318
 H412 H 1.02397 0.75609 0.19566
 H413 H 0.99874 0.81143 0.23194
 H414 H 0.97638 0.86604 0.12727
 H415 H 1.08078 0.67882 0.10136
 H416 H 1.09391 0.61866 0.13285
 H417 H 0.99698 0.63831 0.20917
 H418 H 0.98596 0.69852 0.17649
 C419 C 0.90167 0.70618 0.05732
 C420 C 1.12806 0.79126 0.04464
 C421 C 1.04607 0.62367 0.17318
 C422 C 0.98586 0.84296 0.18216
 C423 C 0.53636 0.30396 0.56803
 H424 H 0.50863 0.31744 0.56634
 C425 C 0.56911 0.31931 0.54864
 H426 H 0.56652 0.34445 0.53165
 C427 C 0.57461 0.25671 0.59453
 H428 H 0.57721 0.23322 0.61341
 C429 C 0.60798 0.27117 0.57577
 H430 H 0.63577 0.25837 0.57994
 N431 N 0.53969 0.27329 0.59057
 C432 C 0.42735 0.21538 0.61495
 H433 H 0.43318 0.20922 0.64394
 C434 C 0.39267 0.20152 0.59900
 H435 H 0.37240 0.18371 0.61548
 C436 C 0.44704 0.24567 0.55812
 H437 H 0.46824 0.26303 0.54242
 C438 C 0.41220 0.23291 0.54122
 H439 H 0.40693 0.24023 0.51236
 Zn440 Zn 0.49698 0.25728 0.62186
 N441 N 0.45366 0.23708 0.59454
 C442 C 0.44429 0.31228 0.64371
 N443 N 0.48090 0.30063 0.64994
 C444 C 0.50547 0.32096 0.67327
 C445 C 0.49257 0.35342 0.69292
 C446 C 0.43060 0.34461 0.66209
 C447 C 0.51909 0.18391 0.63424
 C448 C 0.53549 0.15389 0.65262
 C449 C 0.53784 0.19318 0.70939
 C450 C 0.52116 0.22258 0.68987
 N451 N 0.51325 0.21774 0.65267
 H452 H 0.42555 0.29678 0.62416
 H453 H 0.53497 0.31193 0.67669
 H454 H 0.51184 0.36898 0.71213
 H455 H 0.40131 0.35342 0.65675
 H456 H 0.51244 0.18090 0.60469
 H457 H 0.54141 0.12759 0.63728
 H458 H 0.54554 0.19752 0.73859
 H459 H 0.51583 0.24951 0.70409
 C460 C 0.38427 0.21107 0.56202
 C461 C 0.60542 0.30298 0.55283
 C462 C 0.54591 0.15883 0.69026
 C463 C 0.45436 0.36493 0.68783
 C464 C 0.47850 0.81787 0.91748
 H465 H 0.50659 0.83296 0.91453
 C466 C 0.44821 0.83476 0.93783
 H467 H 0.45293 0.86289 0.95069
 C468 C 0.43696 0.76409 0.90197
 H469 H 0.43218 0.73725 0.88685
 C470 C 0.40603 0.77974 0.92237
 H471 H 0.37769 0.76480 0.92305
 N472 N 0.47223 0.78344 0.89959
 C473 C 0.58416 0.73483 0.87174
 H474 H 0.58134 0.73230 0.84153
 C475 C 0.61580 0.71934 0.88900
 H476 H 0.63738 0.70452 0.87218
 C477 C 0.55790 0.75484 0.93092
 H478 H 0.53467 0.76779 0.94705
 C479 C 0.58908 0.73953 0.94940
 H480 H 0.58981 0.74045 0.97985
 Zn481 Zn 0.51203 0.76613 0.86650
 N482 N 0.55589 0.75176 0.89281
 C483 C 0.56354 0.82159 0.83428
 N484 N 0.52614 0.80692 0.83427
 C485 C 0.49780 0.82388 0.81504
 C486 C 0.50656 0.85758 0.79541
 C487 C 0.57353 0.85497 0.81501
 C488 C 0.48797 0.68985 0.86039
 C489 C 0.47277 0.65618 0.84373
 C490 C 0.47237 0.68859 0.78423
 C491 C 0.48764 0.72177 0.80208
 N492 N 0.49403 0.72201 0.83973
 H493 H 0.58541 0.80848 0.85054
 H494 H 0.46812 0.81208 0.81625
 H495 H 0.48372 0.87179 0.78123
 H496 H 0.60310 0.86714 0.81621
 H497 H 0.49392 0.69080 0.89017
 H498 H 0.46638 0.63122 0.86076
 H499 H 0.46566 0.68891 0.75461
 H500 H 0.49342 0.74747 0.78612
 C501 C 0.61791 0.72106 0.92821
 C502 C 0.41146 0.81571 0.93995
 C503 C 0.46400 0.65574 0.80549
 C504 C 0.54470 0.87357 0.79600
 C505 C 0.47551 -0.16659 0.37530
 C506 C 0.48450 -0.20003 0.35362
 C507 C 0.49045 -0.19697 0.31462
 C508 C 0.48468 -0.16268 0.29656
 C509 C 0.47390 -0.13016 0.31711
 C510 C 0.47087 -0.13136 0.35677
 C511 C 0.46904 -0.16741 0.41472
 C512 C 0.46003 -0.13444 0.43526
 C513 C 0.45666 -0.09993 0.41711
 C514 C 0.46173 -0.09830 0.37822
 H515 H 0.47004 -0.19334 0.43031
 H516 H 0.45539 -0.13576 0.46543
 H517 H 0.44966 -0.07439 0.43317
 H518 H 0.45850 -0.07094 0.36512
 H519 H 0.49800 -0.22161 0.29756
 H520 H 0.48677 -0.16201 0.26613
 C521 C 0.94146 0.25886 0.82126
 C522 C 0.97397 0.26538 0.84521
 C523 C 0.99095 0.30254 0.84824
 C524 C 0.97421 0.33342 0.83165
 C525 C 0.94040 0.32814 0.81069
 C526 C 0.92441 0.29066 0.80419
 C527 C 0.92451 0.22183 0.81473
 C528 C 0.89188 0.21627 0.79220
 C529 C 0.87527 0.24736 0.77580
 C530 C 0.89120 0.28429 0.78175
 H531 H 0.93582 0.19682 0.82709
 H532 H 0.87928 0.18766 0.78760
 H533 H 0.84986 0.24286 0.75844
 H534 H 0.87744 0.30773 0.76850
 H535 H 1.01682 0.30837 0.86453
 H536 H 0.98695 0.36198 0.83642
 C537 C 0.04543 1.19426 0.81714
 C538 C 0.01334 1.18848 0.84278
 C539 C -0.00465 1.15178 0.84507
 C540 C 0.01032 1.12066 0.82560
 C541 C 0.04375 1.12490 0.80264
 C542 C 0.06140 1.16204 0.79773
 C543 C 0.06287 1.23104 0.81108
 C544 C 0.09572 1.23594 0.78763
 C545 C 0.11209 1.20443 0.76992
 C546 C 0.09536 1.16779 0.77498
 H547 H 0.05179 1.25635 0.82462
 H548 H 0.10883 1.26433 0.78353
 H549 H 0.13797 1.20838 0.75219
 H550 H 0.10951 1.14420 0.76105
 H551 H -0.03046 1.14655 0.86243
 H552 H -0.00392 1.09263 0.82917
 C553 C 0.47773 0.69575 0.31210
 C554 C 0.49659 0.70705 0.34607
 C555 C 0.52383 0.68280 0.36080
 C556 C 0.53475 0.64994 0.34164
 C557 C 0.51864 0.63959 0.30703
 C558 C 0.48958 0.66213 0.29202
 C559 C 0.44719 0.71643 0.29768
 C560 C 0.42962 0.70528 0.26395
 C561 C 0.44185 0.67307 0.24405
 C562 C 0.47147 0.65149 0.25793
 H563 H 0.43650 0.74122 0.31221
 H564 H 0.40631 0.72169 0.25323
 H565 H 0.42805 0.66456 0.21790
 H566 H 0.47975 0.62624 0.24205
 H567 H 0.53725 0.68901 0.38761
 H568 H 0.55660 0.63259 0.35376
 C569 C 0.55658 0.31845 0.13145
 C570 C 0.51910 0.29916 0.13616
 C571 C 0.49342 0.31259 0.16427
 C572 C 0.50425 0.34285 0.18848
 C573 C 0.54129 0.36081 0.18552
 C574 C 0.56787 0.34872 0.15712
 C575 C 0.58286 0.31003 0.10148
 C576 C 0.61947 0.32868 0.09821
 C577 C 0.63078 0.35693 0.12414
 C578 C 0.60522 0.36724 0.15310
 H579 H 0.57573 0.29033 0.07913
 H580 H 0.63900 0.32148 0.07503
 H581 H 0.65920 0.37146 0.12138
 H582 H 0.61500 0.39011 0.17204
 H583 H 0.46439 0.29943 0.16766
 H584 H 0.48343 0.35253 0.20958
 C585 C 0.03292 0.76256 0.69249
 C586 C -0.00284 0.76586 0.67347
 C587 C -0.02096 0.80116 0.67487
 C588 C -0.00294 0.83352 0.69126
 C589 C 0.03369 0.83181 0.70751
 C590 C 0.05075 0.79563 0.71041
 C591 C 0.05193 0.72750 0.69365
 C592 C 0.08661 0.72470 0.71300
 C593 C 0.10302 0.75657 0.73174
 C594 C 0.08530 0.79169 0.73066
 H595 H 0.04010 0.70170 0.68028
 H596 H 0.10058 0.69752 0.71382
 H597 H 0.12962 0.75406 0.74722
 H598 H 0.09864 0.81558 0.74618
 H599 H -0.04799 0.80504 0.66070
 H600 H -0.01669 0.86072 0.68893
 C601 C 0.93817 0.65163 0.64323
 C602 C 0.95820 0.68202 0.66319
 C603 C 0.96336 0.67874 0.70198
 C604 C 0.95061 0.64584 0.72087
 C605 C 0.93140 0.61536 0.70183
 C606 C 0.92376 0.61861 0.66297
 C607 C 0.93193 0.65311 0.60408
 C608 C 0.91057 0.62403 0.58538
 C609 C 0.89489 0.59286 0.60507
 C610 C 0.90127 0.59007 0.64345
 H611 H 0.94374 0.67627 0.58720
 H612 H 0.90599 0.62582 0.55544
 H613 H 0.87781 0.57064 0.59051
 H614 H 0.88794 0.56556 0.65758
 H615 H 0.97727 0.70187 0.71808
 H616 H 0.95580 0.64411 0.75074
 C617 C 0.46071 0.18221 0.11988
 C618 C 0.47936 0.21577 0.13604
 C619 C 0.48785 0.21627 0.17447
 C620 C 0.47900 0.18452 0.19671
 C621 C 0.46121 0.15118 0.18134
 C622 C 0.45048 0.15031 0.14302
 C623 C 0.45168 0.17944 0.08125
 C624 C 0.43197 0.14716 0.06622
 C625 C 0.42041 0.11694 0.08925
 C626 C 0.42928 0.11844 0.12728
 H627 H 0.45890 0.20223 0.06219
 H628 H 0.42510 0.14588 0.03663
 H629 H 0.40440 0.09223 0.07762
 H630 H 0.41890 0.09454 0.14413
 H631 H 0.50315 0.24067 0.18733
 H632 H 0.48700 0.18562 0.22605
 C633 C 0.36972 0.48146 -0.17453
 C634 C 0.34886 0.49768 -0.20432
 C635 C 0.30872 0.50311 -0.19921
 C636 C 0.28864 0.49026 -0.16704
 C637 C 0.30821 0.47233 -0.13865
 C638 C 0.34907 0.46876 -0.14159
 C639 C 0.41047 0.47645 -0.17678
 C640 C 0.43010 0.45985 -0.14773
 C641 C 0.40978 0.44765 -0.11568
 C642 C 0.36967 0.45192 -0.11252
 H643 H 0.42794 0.48494 -0.20077
 H644 H 0.46129 0.45636 -0.15018
 H645 H 0.42514 0.43473 -0.09318
 H646 H 0.35504 0.44199 -0.08703
 H647 H 0.29211 0.51595 -0.22068
 H648 H 0.25732 0.49317 -0.16483
 C649 C 0.88110 0.93638 0.32364
 C650 C 0.86122 0.95580 0.29516
 C651 C 0.82155 0.96292 0.30100
 C652 C 0.80146 0.95112 0.33353
 C653 C 0.82017 0.93140 0.36135
 C654 C 0.85990 0.92270 0.35600
 C655 C 0.92156 0.92997 0.32112
 C656 C 0.93986 0.90870 0.34784
 C657 C 0.91848 0.89331 0.37790
 C658 C 0.87893 0.90015 0.38207
 H659 H 0.93996 0.94132 0.29898
 H660 H 0.97080 0.90393 0.34502
 H661 H 0.93267 0.87624 0.39826
 H662 H 0.86346 0.88725 0.40575
 H663 H 0.80565 0.97828 0.28077
 H664 H 0.77103 0.95783 0.33724
 C665 C 0.87865 0.00590 1.17607
 C666 C 0.86026 -0.01623 1.20537
 C667 C 0.82098 -0.02854 1.20152
 C668 C 0.79914 -0.01696 1.17141
 C669 C 0.81606 0.00667 1.14377
 C670 C 0.85623 0.01744 1.14527
 C671 C 0.91865 0.01765 1.17670
 C672 C 0.93586 0.03989 1.14824
 C673 C 0.91383 0.05106 1.11837
 C674 C 0.87441 0.04005 1.11676
 H675 H 0.93737 0.01005 1.19888
 H676 H 0.96654 0.04850 1.14942
 H677 H 0.92733 0.06833 1.09632
 H678 H 0.85842 0.04931 1.09288
 H679 H 0.80630 -0.04620 1.22240
 H680 H 0.76844 -0.02558 1.17025
 C681 C 0.36283 0.54380 0.67548
 C682 C 0.34587 0.52062 0.70473
 C683 C 0.30724 0.50631 0.70104
 C684 C 0.28506 0.51537 0.67024
 C685 C 0.30062 0.53937 0.64218
 C686 C 0.33937 0.55475 0.64519
 C687 C 0.40252 0.55665 0.67525
 C688 C 0.41772 0.58178 0.64820
 C689 C 0.39392 0.59464 0.62046
 C690 C 0.35517 0.58134 0.61880
 H691 H 0.42270 0.54736 0.69536
 H692 H 0.44812 0.59149 0.64895
 H693 H 0.40564 0.61471 0.59987
 H694 H 0.33780 0.59243 0.59680
 H695 H 0.29380 0.48771 0.72185
 H696 H 0.25542 0.50355 0.66826
 C697 C 0.11407 0.51641 0.32983
 C698 C 0.13784 0.51129 0.29686
 C699 C 0.17801 0.52015 0.29837
 C700 C 0.19499 0.53354 0.33163
 C701 C 0.17239 0.53812 0.36452
 C702 C 0.13160 0.52987 0.36386
 C703 C 0.07312 0.50920 0.32981
 C704 C 0.05034 0.51458 0.36226
 C705 C 0.06755 0.52776 0.39534
 C706 C 0.10768 0.53565 0.39622
 H707 H 0.05787 0.50031 0.30475
 H708 H 0.01906 0.50893 0.36158
 H709 H 0.04966 0.53226 0.42037
 H710 H 0.11957 0.54658 0.42242
 H711 H 0.19666 0.51626 0.27376
 H712 H 0.22613 0.54028 0.33178
 C713 C 0.67316 -0.01019 0.80884
 C714 C 0.65730 0.02228 0.79198
 C715 C 0.65667 0.05695 0.81226
 C716 C 0.67045 0.05992 0.84864
 C717 C 0.68477 0.02817 0.86646
 C718 C 0.68621 -0.00733 0.84670
 C719 C 0.67604 -0.04560 0.78929
 C720 C 0.68965 -0.07758 0.80690
 C721 C 0.70088 -0.07506 0.84425
 C722 C 0.69928 -0.04033 0.86407
 H723 H 0.66845 -0.04898 0.76012
 H724 H 0.69142 -0.10451 0.79148
 H725 H 0.71106 -0.10011 0.85788
 H726 H 0.70804 -0.03973 0.89312
 H727 H 0.64418 0.08190 0.80061
 H728 H 0.66926 0.08732 0.86339
 C729 C 0.70075 1.00023 0.69947
 C730 C 0.66020 1.00755 0.70199
 C731 C 0.63781 1.00345 0.66945
 C732 C 0.65312 0.98770 0.63645
 C733 C 0.69147 0.97587 0.63483
 C734 C 0.71606 0.98302 0.66585
 C735 C 0.72672 1.00947 0.72885
 C736 C 0.76578 0.99987 0.72628
 C737 C 0.78008 0.98145 0.69416
 C738 C 0.75563 0.97329 0.66401
 H739 H 0.71800 1.02527 0.75351
 H740 H 0.78515 1.00709 0.74925
 H741 H 0.81044 0.97408 0.69232
 H742 H 0.76807 0.95982 0.63909
 H743 H 0.60720 1.01012 0.67016
 H744 H 0.63420 0.98262 0.61267
 C745 C 0.17155 0.51172 0.19000
 C746 C 0.15513 0.48181 0.21273
 C747 C 0.15927 0.44373 0.20072
 C748 C 0.17623 0.43496 0.16611
 C749 C 0.18894 0.46382 0.14155
 C750 C 0.18765 0.50266 0.15363
 C751 C 0.17085 0.55054 0.20169
 C752 C 0.18418 0.57968 0.17782
 C753 C 0.19861 0.57083 0.14195
 C754 C 0.20040 0.53273 0.12983
 H755 H 0.16026 0.55879 0.22937
 H756 H 0.18315 0.60931 0.18716
 H757 H 0.20858 0.59363 0.12344
 H758 H 0.21163 0.52714 0.10169
 H759 H 0.14688 0.42006 0.21656
 H760 H 0.17738 0.40508 0.15744
 C761 C -0.19862 0.36915 0.43370
 C762 C -0.21514 0.36551 0.47066
 C763 C -0.20126 0.33741 0.49410
 C764 C -0.17015 0.31518 0.48292
 C765 C -0.15126 0.32073 0.44813
 C766 C -0.16459 0.34882 0.42369
 C767 C -0.21483 0.39164 0.40601
 C768 C -0.19546 0.39846 0.37179
 C769 C -0.15983 0.38225 0.36400
 C770 C -0.14457 0.35735 0.38945
 H771 H -0.24329 0.40273 0.40931
 H772 H -0.20825 0.41638 0.35124
 H773 H -0.14444 0.38816 0.33770
 H774 H -0.11693 0.34508 0.38208
 H775 H -0.21371 0.33345 0.52209
 H776 H -0.16045 0.29369 0.50179
 C777 C 0.32711 0.84554 1.00535
 C778 C 0.31015 0.87300 0.98221
 C779 C 0.32848 0.88188 0.94759
 C780 C 0.36140 0.86335 0.93492
 C781 C 0.37758 0.83530 0.95639
 C782 C 0.36085 0.82629 0.99200
 C783 C 0.31165 0.83662 1.04141
 C784 C 0.32857 0.80947 1.06345
 C785 C 0.36125 0.79065 1.05021
 C786 C 0.37737 0.79891 1.01483
 H787 H 0.28629 0.85010 1.05301
 H788 H 0.31620 0.80296 1.09098
 H789 H 0.37424 0.76963 1.06749
 H790 H 0.40299 0.78392 1.00564
 H791 H 0.31791 0.90388 0.92997
 H792 H 0.37431 0.87084 0.90780
 C793 C 1.18655 0.88453 0.02521
 C794 C 1.22191 0.86968 0.01027
 C795 C 1.22390 0.83001 0.00422
 C796 C 1.19301 0.80497 0.01474
 C797 C 1.15865 0.81887 0.03071
 C798 C 1.15494 0.85888 0.03578
 C799 C 1.18196 0.92424 0.03083
 C800 C 1.14763 0.93833 0.04629
 C801 C 1.11708 0.91324 0.05695
 C802 C 1.12063 0.87389 0.05203
 H803 H 1.20493 0.94489 0.02423
 H804 H 1.14491 0.96891 0.05041
 H805 H 1.09059 0.92428 0.06931
 H806 H 1.09624 0.85553 0.06125
 H807 H 1.24966 0.81799 -0.00855
 H808 H 1.19604 0.77441 0.01068
 C809 C 0.68186 0.34491 0.48320
 C810 C 0.70777 0.36392 0.50905
 C811 C 0.70224 0.35694 0.54754
 C812 C 0.66945 0.33640 0.56093
 C813 C 0.64131 0.32128 0.53629
 C814 C 0.64795 0.32415 0.49704
 C815 C 0.68850 0.34607 0.44396
 C816 C 0.66230 0.32828 0.41904
 C817 C 0.62905 0.30852 0.43264
 C818 C 0.62191 0.30620 0.47127
 H819 H 0.71397 0.36037 0.43208
 H820 H 0.66794 0.32971 0.38902
 H821 H 0.60889 0.29458 0.41318
 H822 H 0.59617 0.28982 0.48071
 H823 H 0.72309 0.36759 0.56793
 H824 H 0.66548 0.33313 0.59105
 C825 C 0.27735 0.17757 0.54696
 C826 C 0.28211 0.15488 0.51365
 C827 C 0.31917 0.15430 0.49610
 C828 C 0.35122 0.17418 0.51121
 C829 C 0.34769 0.19570 0.54452
 C830 C 0.31021 0.19891 0.56188
 C831 C 0.24094 0.17950 0.56614
 C832 C 0.23658 0.20280 0.59810
 C833 C 0.26821 0.22479 0.61160
 C834 C 0.30466 0.22308 0.59369
 H835 H 0.21529 0.16364 0.55654
 H836 H 0.20836 0.20414 0.61222
 H837 H 0.26447 0.24331 0.63607
 H838 H 0.32827 0.24118 0.60474
 H839 H 0.32446 0.13672 0.47138
 H840 H 0.37955 0.17116 0.49761
 C841 C 0.79077 0.69439 0.04304
 C842 C 0.78902 0.65864 0.02321
 C843 C 0.82404 0.64058 0.01480
 C844 C 0.85996 0.65712 0.02474
 C845 C 0.86268 0.69282 0.04319
 C846 C 0.82790 0.71252 0.05119
 C847 C 0.75677 0.71262 0.05529
 C848 C 0.75886 0.74894 0.07227
 C849 C 0.79490 0.76786 0.07743
 C850 C 0.82915 0.74998 0.06695
 H851 H 0.72834 0.69925 0.05177
 H852 H 0.73233 0.76265 0.08102
 H853 H 0.79634 0.79641 0.08986
 H854 H 0.85652 0.76593 0.07103
 H855 H 0.82399 0.61257 0.00129
 H856 H 0.88588 0.64111 0.01898
 C857 C 0.66840 0.63799 0.97159
 C858 C 0.70404 0.65709 0.98281
 C859 C 0.71021 0.69619 0.97536
 C860 C 0.68198 0.71662 0.95785
 C861 C 0.64682 0.69853 0.94702
 C862 C 0.63969 0.65903 0.95356
 C863 C 0.65990 0.59875 0.97869
 C864 C 0.62474 0.58081 0.96781
 C865 C 0.59703 0.60140 0.94986
 C866 C 0.60422 0.64015 0.94285
 H867 H 0.67972 0.58137 0.99314
 H868 H 0.61889 0.55076 0.97354
 H869 H 0.56972 0.58735 0.94154
 H870 H 0.58163 0.65514 0.92915
 H871 H 0.73707 0.71135 0.98303
 H872 H 0.68765 0.74682 0.95259
 C873 C 0.16570 0.12331 0.46095
 C874 C 0.19706 0.14457 0.47836
 C875 C 0.19458 0.18428 0.48344
 C876 C 0.16168 0.20301 0.47264
 C877 C 0.13042 0.18272 0.45580
 C878 C 0.13268 0.14278 0.44873
 C879 C 0.16615 0.08310 0.45529
 C880 C 0.13609 0.06308 0.43665
 C881 C 0.10489 0.08245 0.42316
 C882 C 0.10307 0.12186 0.42902
 H883 H 0.18923 0.06637 0.46545
 H884 H 0.13714 0.03235 0.43248
 H885 H 0.08187 0.06685 0.40821
 H886 H 0.07842 0.13564 0.41756
 H887 H 0.21842 0.20125 0.49557
 H888 H 0.16063 0.23370 0.47730
 C889 C 0.62867 0.09980 0.72526
 C890 C 0.60725 0.06519 0.73389
 C891 C 0.56664 0.06329 0.72959
 C892 C 0.54710 0.09454 0.71713
 C893 C 0.56749 0.12870 0.70823
 C894 C 0.60852 0.13180 0.71238
 C895 C 0.66971 0.10329 0.72819
 C896 C 0.69027 0.13716 0.71885
 C897 C 0.67056 0.16823 0.70613
 C898 C 0.63011 0.16568 0.70274
 H899 H 0.68643 0.08017 0.73787
 H900 H 0.72171 0.13926 0.72139
 H901 H 0.68671 0.19440 0.69872
 H902 H 0.61605 0.19042 0.69237
 H903 H 0.54966 0.03707 0.73471
 H904 H 0.51583 0.09165 0.71324
 C905 C 1.06960 0.51977 0.19308
 C906 C 1.08418 0.52489 0.23009
 C907 C 1.08018 0.56039 0.24861
 C908 C 1.06527 0.59126 0.23043
 C909 C 1.05424 0.58796 0.19288
 C910 C 1.05475 0.55169 0.17431
 C911 C 1.07047 0.48411 0.17370
 C912 C 1.05725 0.48000 0.13697
 C913 C 1.04253 0.51107 0.11888
 C914 C 1.04106 0.54658 0.13731
 H915 H 1.08088 0.45892 0.18667
 H916 H 1.05820 0.45245 0.12257
 H917 H 1.03202 0.50761 0.09047
 H918 H 1.02881 0.56986 0.12246
 H919 H 1.09126 0.56568 0.27649
 H920 H 1.06488 0.61876 0.24506
 C921 C 0.89909 0.89395 0.22576
 C922 C 0.91645 0.93139 0.23214
 C923 C 0.95632 0.93776 0.22342
 C924 C 0.97881 0.90855 0.20851
 C925 C 0.96229 0.87188 0.20192
 C926 C 0.92229 0.86418 0.21054
 C927 C 0.85911 0.88508 0.23363
 C928 C 0.84258 0.84858 0.22666
 C929 C 0.86524 0.81988 0.21152
 C930 C 0.90466 0.82745 0.20342
 H931 H 0.83979 0.90578 0.24520
 H932 H 0.81190 0.84260 0.23294
 H933 H 0.85221 0.79162 0.20595
 H934 H 0.92104 0.80421 0.19145
 H935 H 0.97051 0.96560 0.22736
 H936 H 1.00926 0.91483 0.20133
 C937 C 0.38055 0.42642 0.73857
 C938 C 0.39854 0.46377 0.73381
 C939 C 0.43594 0.46678 0.71697
 C940 C 0.45507 0.43437 0.70426
 C941 C 0.43801 0.39770 0.70908
 C942 C 0.40183 0.39345 0.72871
 C943 C 0.34165 0.42043 0.75196
 C944 C 0.32615 0.38386 0.75977
 C945 C 0.34859 0.35211 0.75355
 C946 C 0.38596 0.35668 0.73782
 H947 H 0.32215 0.44335 0.75577
 H948 H 0.29651 0.38017 0.77066
 H949 H 0.33667 0.32377 0.76009
 H950 H 0.40237 0.33119 0.73285
 H951 H 0.45021 0.49430 0.71196
 H952 H 0.48270 0.43805 0.68910
 C953 C 0.38002 0.59018 0.77045
 C954 C 0.40013 0.55564 0.76338
 C955 C 0.44055 0.55586 0.76897
 C956 C 0.46095 0.58870 0.78178
 C957 C 0.44172 0.62255 0.78929
 C958 C 0.40106 0.62366 0.78374
 C959 C 0.33941 0.59254 0.76499
 C960 C 0.32020 0.62624 0.77279
 C961 C 0.34075 0.65848 0.78640
 C962 C 0.38073 0.65734 0.79197
 H963 H 0.32166 0.56883 0.75458
 H964 H 0.28911 0.62726 0.76837
 H965 H 0.32564 0.68452 0.79269
 H966 H 0.39538 0.68309 0.80291
 H967 H 0.45683 0.53048 0.76396
 H968 H 0.49204 0.58759 0.78635
 C969 C -0.11389 0.05505 0.26884
 C970 C -0.09175 0.02116 0.26723
 C971 C -0.05336 0.02341 0.28039
 C972 C -0.03706 0.05749 0.29546
 C973 C -0.05833 0.09075 0.29723
 C974 C -0.09615 0.09025 0.28209
 C975 C -0.15347 0.05523 0.25833
 C976 C -0.17361 0.08903 0.25775
 C977 C -0.15518 0.12359 0.26818
 C978 C -0.11691 0.12432 0.28048
 H979 H -0.16997 0.02967 0.25097
 H980 H -0.20374 0.08834 0.24910
 H981 H -0.17076 0.14987 0.26730
 H982 H -0.10370 0.15188 0.28853
 H983 H -0.03596 -0.00152 0.28066
 H984 H -0.00810 0.05754 0.30711
 C985 C 0.11488 0.41522 0.28563
 C986 C 0.09426 0.44316 0.26622
 C987 C 0.05433 0.43655 0.25963
 C988 C 0.03436 0.40373 0.27274
 C989 C 0.05378 0.37660 0.29285
 C990 C 0.09438 0.38167 0.29879
 C991 C 0.15541 0.41958 0.29233
 C992 C 0.17493 0.39197 0.31148
 C993 C 0.15480 0.35922 0.32418
 C994 C 0.11499 0.35389 0.31783
 H995 H 0.17289 0.44370 0.28218
 H996 H 0.20596 0.39585 0.31617
 H997 H 0.17015 0.33771 0.33880
 H998 H 0.10064 0.32769 0.32773
 H999 H 0.03797 0.45757 0.24541
 H1000 H 0.00321 0.40015 0.26841
 C1001 C 0.56885 0.98035 0.78915
 C1002 C 0.59318 0.98001 0.75616
 C1003 C 0.59444 0.94629 0.73412
 C1004 C 0.57562 0.91250 0.74595
 C1005 C 0.55467 0.91138 0.78000
 C1006 C 0.54980 0.94556 0.80128
 C1007 C 0.56416 1.01393 0.81136
 C1008 C 0.54186 1.01314 0.84461
 C1009 C 0.52378 0.97902 0.85658
 C1010 C 0.52767 0.94546 0.83526
 H1011 H 0.57725 1.04123 0.80334
 H1012 H 0.53866 1.03918 0.86121
 H1013 H 0.50662 0.97855 0.88250
 H1014 H 0.51312 0.91954 0.84559
 H1015 H 0.61281 0.94465 0.70918
 H1016 H 0.57976 0.88636 0.72970
 C1017 C 0.68806 0.61670 0.07324
 C1018 C 0.72305 0.60753 0.05275
 C1019 C 0.74643 0.57927 0.06691
 C1020 C 0.73558 0.55922 0.09931
 C1021 C 0.70081 0.56666 0.11870
 C1022 C 0.67635 0.59489 0.10544
 C1023 C 0.66457 0.64732 0.06385
 C1024 C 0.62960 0.65414 0.08302
 C1025 C 0.61727 0.63125 0.11274
 C1026 C 0.64044 0.60212 0.12416
 H1027 H 0.67265 0.66745 0.04273
 H1028 H 0.61211 0.67760 0.07489
 H1029 H 0.59001 0.63656 0.12748
 H1030 H 0.62990 0.58545 0.14790
 H1031 H 0.77369 0.57258 0.05277
 H1032 H 0.75456 0.53779 0.10940
 C1033 C 0.25556 1.06274 0.54984
 C1034 C 0.22901 1.08684 0.53249
 C1035 C 0.19058 1.08768 0.54667
 C1036 C 0.17823 1.06611 0.57726
 C1037 C 0.20360 1.04236 0.59512
 C1038 C 0.24243 1.03966 0.58083
 C1039 C 0.29484 1.06091 0.53738
 C1040 C 0.32009 1.03623 0.55393
 C1041 C 0.30681 1.01272 0.58304
 C1042 C 0.26836 1.01419 0.59634
 H1043 H 0.30646 1.07796 0.51448
 H1044 H 0.35003 1.03502 0.54379
 H1045 H 0.32642 0.99318 0.59535
 H1046 H 0.25909 0.99491 0.61854
 H1047 H 0.16972 1.10638 0.53528
 H1048 H 0.14864 1.06911 0.58794
 C1049 C 0.23629 0.96335 0.94946
 C1050 C 0.24743 0.92478 0.95326
 C1051 C 0.24090 0.89876 0.92335
 C1052 C 0.22555 0.91000 0.88986
 C1053 C 0.21308 0.94722 0.88549
 C1054 C 0.21722 0.97404 0.91597
 C1055 C 0.24204 0.99131 0.97817
 C1056 C 0.22785 1.02789 0.97524
 C1057 C 0.20703 1.03735 0.94392
 C1058 C 0.20137 1.01071 0.91471
 H1059 H 0.25663 0.98542 1.00356
 H1060 H 0.23226 1.04873 0.99786
 H1061 H 0.19502 1.06543 0.94232
 H1062 H 0.18372 1.01905 0.89170
 H1063 H 0.24824 0.86902 0.92556
 H1064 H 0.22273 0.88891 0.86722
 C1065 C 0.75300 0.46520 0.44513
 C1066 C 0.72919 0.43812 0.46549
 C1067 C 0.68886 0.43669 0.45956
 C1068 C 0.67345 0.45471 0.42901
 C1069 C 0.69783 0.47548 0.40407
 C1070 C 0.73748 0.48282 0.41310
 C1071 C 0.79232 0.47328 0.45409
 C1072 C 0.81612 0.49729 0.43166
 C1073 C 0.80118 0.51375 0.39994
 C1074 C 0.76216 0.50675 0.39068
 H1075 H 0.80476 0.46171 0.47868
 H1076 H 0.84632 0.50316 0.43894
 H1077 H 0.81983 0.53229 0.38261
 H1078 H 0.75137 0.52044 0.36613
 H1079 H 0.66913 0.41939 0.47691
 H1080 H 0.64264 0.45020 0.42335
 C1081 C 0.80912 0.42157 0.55102
 C1082 C 0.76982 0.42288 0.53891
 C1083 C 0.74228 0.43982 0.56309
 C1084 C 0.75101 0.44921 0.60038
 C1085 C 0.78788 0.44273 0.61447
 C1086 C 0.81786 0.43063 0.58939
 C1087 C 0.84031 0.41286 0.52615
 C1088 C 0.87827 0.41048 0.53893
 C1089 C 0.88637 0.41782 0.57656
 C1090 C 0.85668 0.42830 0.60154
 H1091 H 0.83652 0.40954 0.49637
 H1092 H 0.90166 0.40356 0.51933
 H1093 H 0.91598 0.41631 0.58625
 H1094 H 0.86469 0.43533 0.63020
 H1095 H 0.71263 0.44294 0.55399
 H1096 H 0.72821 0.45982 0.61889
 C1097 C 0.31743 -0.04320 0.03592
 C1098 C 0.28432 -0.06918 0.03793
 C1099 C 0.26714 -0.07717 0.07322
 C1100 C 0.28258 -0.06134 0.10604
 C1101 C 0.31588 -0.03703 0.10484
 C1102 C 0.33331 -0.02710 0.06976
 C1103 C 0.33530 -0.03283 0.00122
 C1104 C 0.36811 -0.00786 -0.00007
 C1105 C 0.38383 0.00735 0.03303
 C1106 C 0.36671 -0.00210 0.06770
 H1107 H 0.32373 -0.04308 -0.02525
 H1108 H 0.38133 -0.00015 -0.02695
 H1109 H 0.40933 0.02670 0.03182
 H1110 H 0.37972 0.01044 0.09279
 H1111 H 0.24271 -0.09750 0.07611
 H1112 H 0.26936 -0.06945 0.13285
 C1113 C 0.27297 0.12067 0.41635
 C1114 C 0.26201 0.09876 0.44862
 C1115 C 0.26594 0.05897 0.44725
 C1116 C 0.28223 0.04095 0.41574
 C1117 C 0.29428 0.06204 0.38429
 C1118 C 0.28904 0.10199 0.38395
 C1119 C 0.26962 0.16089 0.41569
 C1120 C 0.28091 0.18180 0.38400
 C1121 C 0.29623 0.16337 0.35238
 C1122 C 0.30055 0.12392 0.35228
 H1123 H 0.25905 0.17700 0.43962
 H1124 H 0.27806 0.21255 0.38413
 H1125 H 0.30513 0.17977 0.32790
 H1126 H 0.31300 0.11087 0.32718
 H1127 H 0.25690 0.04153 0.47092
 H1128 H 0.28624 0.01035 0.41618
 C1129 C 0.77502 0.61371 0.93352
 C1130 C 0.75828 0.59880 0.96767
 C1131 C 0.75174 0.55903 0.97059
 C1132 C 0.76114 0.53416 0.94080
 C1133 C 0.77685 0.54834 0.90695
 C1134 C 0.78346 0.58830 0.90287
 C1135 C 0.78443 0.65324 0.92903
 C1136 C 0.79998 0.66735 0.89527
 C1137 C 0.80700 0.64255 0.86515
 C1138 C 0.79907 0.60341 0.86881
 H1139 H 0.78084 0.67388 0.95144
 H1140 H 0.80679 0.69773 0.89257
 H1141 H 0.81904 0.65364 0.83895
 H1142 H 0.80532 0.58518 0.84466
 H1143 H 0.73912 0.54686 0.99602
 H1144 H 0.75657 0.50356 0.94433
 C1145 C 0.04230 0.74592 0.58827
 C1146 C 0.01853 0.71718 0.60664
 C1147 C 0.02947 0.67899 0.60387
 C1148 C 0.06308 0.66892 0.58439
 C1149 C 0.08773 0.69669 0.56749
 C1150 C 0.07743 0.73551 0.56895
 C1151 C 0.03249 0.78479 0.58886
 C1152 C 0.05668 0.81258 0.57151
 C1153 C 0.09092 0.80233 0.55292
 C1154 C 0.10124 0.76416 0.55141
 H1155 H 0.00587 0.79418 0.60205
 H1156 H 0.04866 0.84224 0.57230
 H1157 H 0.10947 0.82405 0.53938
 H1158 H 0.12785 0.75727 0.53629
 H1159 H 0.01295 0.65635 0.61797
 H1160 H 0.07071 0.63911 0.58362
 C1161 C 0.54432 0.22074 1.04412
 C1162 C 0.53927 0.23016 1.08298
 C1163 C 0.56670 0.21809 1.10852
 C1164 C 0.59849 0.19753 1.09677
 C1165 C 0.60434 0.18798 1.05889
 C1166 C 0.57718 0.19930 1.03208
 C1167 C 0.51771 0.23135 1.01694
 C1168 C 0.52296 0.22124 0.97910
 C1169 C 0.55463 0.20003 0.96753
 C1170 C 0.58145 0.18892 0.99368
 H1171 H 0.49232 0.24692 1.02437
 H1172 H 0.50208 0.22960 0.95869
 H1173 H 0.55831 0.19194 0.93815
 H1174 H 0.60526 0.17189 0.98354
 H1175 H 0.56390 0.22501 1.13828
 H1176 H 0.61896 0.18905 1.11758
 C1177 C 0.96029 0.17486 0.93224
 C1178 C 0.95476 0.20629 0.90829
 C1179 C 0.91779 0.22187 0.90745
 C1180 C 0.88622 0.20580 0.92750
 C1181 C 0.89005 0.17312 0.94901
 C1182 C 0.92741 0.15726 0.95160
 C1183 C 0.99739 0.15947 0.93635
 C1184 C 1.00190 0.12693 0.95762
 C1185 C 0.96963 0.10876 0.97490
 C1186 C 0.93270 0.12346 0.97179
 H1187 H 1.02326 0.17186 0.92287
 H1188 H 1.03052 0.11540 0.96019
 H1189 H 0.97320 0.08301 0.99072
 H1190 H 0.90852 0.10768 0.98497
 H1191 H 0.91278 0.24681 0.89106
 H1192 H 0.85813 0.21868 0.92561
 C1193 C 0.40226 0.74852 0.39741
 C1194 C 0.44109 0.73682 0.40389
 C1195 C 0.44637 0.70855 0.43055
 C1196 C 0.41520 0.69285 0.45154
 C1197 C 0.37711 0.70405 0.44614
 C1198 C 0.37019 0.73180 0.41873
 C1199 C 0.39363 0.77498 0.36946
 C1200 C 0.35554 0.78514 0.36302
 C1201 C 0.32466 0.76858 0.38351
 C1202 C 0.33168 0.74185 0.41073
 H1203 H 0.41524 0.78780 0.35129
 H1204 H 0.34993 0.80553 0.34142
 H1205 H 0.29502 0.77604 0.37790
 H1206 H 0.30641 0.72885 0.42482
 H1207 H 0.47504 0.69768 0.43485
 H1208 H 0.42076 0.67090 0.47164
 C1209 C 0.56988 0.76893 0.38515
 C1210 C 0.53291 0.76111 0.40336
 C1211 C 0.53033 0.76306 0.44279
 C1212 C 0.56248 0.77489 0.46407
 C1213 C 0.59833 0.78449 0.44660
 C1214 C 0.60266 0.78070 0.40709
 C1215 C 0.57531 0.76577 0.34563
 C1216 C 0.61149 0.77418 0.32844
 C1217 C 0.64324 0.78593 0.34999
 C1218 C 0.63905 0.78920 0.38892
 H1219 H 0.55219 0.75645 0.32727
 H1220 H 0.61488 0.77149 0.29816
 H1221 H 0.67129 0.79245 0.33651
 H1222 H 0.66465 0.79827 0.40458
 H1223 H 0.50288 0.75731 0.45749
 H1224 H 0.55897 0.77801 0.49433
 C1225 C 0.02754 0.27940 -0.06670
 C1226 C 0.03387 0.24904 -0.09321
 C1227 C 0.07155 0.23509 -0.09729
 C1228 C 0.10326 0.25309 -0.07937
 C1229 C 0.09827 0.28506 -0.05576
 C1230 C 0.05995 0.29703 -0.04748
 C1231 C -0.01000 0.29335 -0.05918
 C1232 C -0.01567 0.32269 -0.03275
 C1233 C 0.01578 0.33885 -0.01316
 C1234 C 0.05326 0.32623 -0.02033
 H1235 H -0.03538 0.28222 -0.07363
 H1236 H -0.04471 0.33285 -0.02735
 H1237 H 0.01113 0.36133 0.00764
 H1238 H 0.07683 0.33921 -0.00408
 H1239 H 0.07712 0.21067 -0.11539
 H1240 H 0.13224 0.24295 -0.08531
 C1241 C 0.45992 0.30846 0.05515
 C1242 C 0.45622 0.27801 0.08122
 C1243 C 0.41854 0.26503 0.09254
 C1244 C 0.38535 0.27971 0.07747
 C1245 C 0.38815 0.30912 0.05135
 C1246 C 0.42569 0.32443 0.04055
 C1247 C 0.49677 0.32379 0.04341
 C1248 C 0.50017 0.35449 0.01896
 C1249 C 0.46691 0.37081 0.00580
 C1250 C 0.42999 0.35613 0.01650
 H1251 H 0.52326 0.31192 0.05245
 H1252 H 0.52880 0.36579 0.01032
 H1253 H 0.46972 0.39499 -0.01280
 H1254 H 0.40504 0.37028 0.00612
 H1255 H 0.41412 0.24357 0.11381
 H1256 H 0.35696 0.26822 0.08674
 C1257 C 0.89666 0.75308 0.63600
 C1258 C 0.93255 0.74673 0.61638
 C1259 C 0.93544 0.75401 0.57776
 C1260 C 0.90474 0.76957 0.55896
 C1261 C 0.86970 0.77736 0.57794
 C1262 C 0.86468 0.76719 0.61622
 C1263 C 0.89168 0.74633 0.67495
 C1264 C 0.85577 0.75099 0.69322
 C1265 C 0.82406 0.76266 0.67332
 C1266 C 0.82833 0.77077 0.63523
 H1267 H 0.91532 0.73799 0.69204
 H1268 H 0.85252 0.74540 0.72300
 H1269 H 0.79609 0.76574 0.68753
 H1270 H 0.80280 0.77947 0.62077
 H1271 H 0.96196 0.74842 0.56195
 H1272 H 0.90884 0.77675 0.52959
   
