data_POSCAR
  _audit_creation_date              2014-09-24
  _audit_creation_method            'ToBaCCo'
  _symmetry_space_group_name_H-M    'P1'
  _symmetry_Int_Tables_number       1
  _symmetry_cell_setting            triclinic
  loop_
  _symmetry_equiv_pos_as_xyz
 x,y,z
_cell_length_a 41.9395
_cell_length_b 42.1472
_cell_length_c 48.8127
_cell_angle_alpha 89.961800
_cell_angle_beta 89.942500
_cell_angle_gamma 90.015900
loop_
  _atom_site_label
  _atom_site_type_symbol
  _atom_site_fract_x
  _atom_site_fract_y
  _atom_site_fract_z
Zr1 Zr 0.24658 0.24920 0.29793
 O2 O 0.26982 0.27327 0.33038
 O3 O 0.21528 0.21937 0.31968
 O4 O 0.21608 0.27953 0.32028
 O5 O 0.30864 0.19584 0.28787
 O6 O 0.19110 0.30927 0.28755
 O7 O 0.27817 0.22027 0.32048
 O8 O 0.18726 0.19462 0.28577
 O9 O 0.20513 0.25063 0.27404
 O10 O 0.24741 0.20812 0.27390
 O11 O 0.24952 0.29158 0.27526
 O12 O 0.28978 0.25077 0.27569
 Zr13 Zr 0.25107 0.25341 0.20230
 Zr14 Zr 0.20909 0.29174 0.25005
 Zr15 Zr 0.28875 0.21066 0.25018
 Zr16 Zr 0.20730 0.21053 0.24894
 O17 O 0.33907 0.21384 0.24840
 O18 O 0.15739 0.21833 0.24694
 O19 O 0.24850 0.21050 0.22459
 O20 O 0.20838 0.25145 0.22491
 O21 O 0.25053 0.29474 0.22610
 O22 O 0.29225 0.25169 0.22642
 C23 C 0.19364 0.20030 0.31096
 C24 C 0.30123 0.20211 0.31291
 C25 C 0.19704 0.30178 0.31261
 O26 O 0.15880 0.28793 0.24928
 O27 O 0.19185 0.30990 0.21250
 O28 O 0.22126 0.28435 0.17985
 C29 C 0.19926 0.30375 0.18746
 O30 O 0.31108 0.30758 0.28871
 Zr31 Zr 0.29071 0.29171 0.25128
 O32 O 0.28192 0.28370 0.18054
 O33 O 0.21403 0.34168 0.25078
 O34 O 0.28391 0.34154 0.25302
 O35 O 0.34081 0.28494 0.25038
 O36 O 0.30748 0.31098 0.21444
 C37 C 0.30172 0.30467 0.18926
 O38 O 0.22647 0.23075 0.16983
 O39 O 0.28436 0.16068 0.25201
 O40 O 0.27950 0.22132 0.17985
 O41 O 0.30332 0.19054 0.21252
 O42 O 0.21297 0.16054 0.25011
 O43 O 0.19115 0.19043 0.21151
 C44 C 0.29725 0.19803 0.18747
 H45 H 0.24743 0.18848 0.28503
 H46 H 0.18951 0.25114 0.21276
 H47 H 0.31203 0.25117 0.21534
 H48 H 0.25020 0.31039 0.28739
 H49 H 0.14670 0.19785 0.25085
 H50 H 0.15030 0.30986 0.24981
 H51 H 0.19218 0.35062 0.25022
 H52 H 0.30472 0.35172 0.24909
 H53 H 0.19171 0.15113 0.25372
 H54 H 0.30631 0.15203 0.25261
 H55 H 0.34725 0.19180 0.24784
 H56 H 0.35078 0.30585 0.24676
 H57 H 0.17309 0.17590 0.21519
 H58 H 0.23527 0.23902 0.15233
 H59 H 0.26128 0.26474 0.34788
 H60 H 0.32600 0.32529 0.28500
 Zr61 Zr 0.75045 0.75205 0.29777
 O62 O 0.72690 0.72690 0.32950
 O63 O 0.78087 0.78181 0.32039
 O64 O 0.78108 0.72195 0.32015
 O65 O 0.68787 0.80471 0.28755
 O66 O 0.80725 0.69320 0.28743
 O67 O 0.71794 0.78007 0.32028
 O68 O 0.80940 0.80745 0.28722
 O69 O 0.79240 0.75158 0.27443
 O70 O 0.74964 0.79358 0.27431
 O71 O 0.74859 0.71006 0.27453
 O72 O 0.70775 0.75037 0.27493
 Zr73 Zr 0.74801 0.74971 0.20208
 Zr74 Zr 0.78953 0.71089 0.24985
 Zr75 Zr 0.70883 0.79098 0.25000
 Zr76 Zr 0.79029 0.79214 0.24987
 O77 O 0.65860 0.78722 0.24736
 O78 O 0.84033 0.78498 0.24841
 O79 O 0.74959 0.79217 0.22499
 O80 O 0.79023 0.75168 0.22525
 O81 O 0.74861 0.70793 0.22534
 O82 O 0.70631 0.75040 0.22563
 C83 C 0.80256 0.80119 0.31223
 C84 C 0.69477 0.79803 0.31260
 C85 C 0.80076 0.70027 0.31250
 O86 O 0.83977 0.71531 0.24946
 O87 O 0.80736 0.69337 0.21222
 O88 O 0.77833 0.71935 0.17959
 C89 C 0.80022 0.69983 0.18717
 O90 O 0.68689 0.69312 0.28690
 Zr91 Zr 0.70788 0.70991 0.24997
 O92 O 0.71805 0.71949 0.17946
 O93 O 0.78523 0.66089 0.25019
 O94 O 0.71525 0.66014 0.25126
 O95 O 0.65772 0.71602 0.24832
 O96 O 0.69235 0.69104 0.21262
 C97 C 0.69855 0.69792 0.18761
 O98 O 0.77316 0.77326 0.17033
 O99 O 0.71250 0.84096 0.25269
 O100 O 0.71974 0.78202 0.17969
 O101 O 0.69493 0.81182 0.21250
 O102 O 0.78403 0.84203 0.25170
 O103 O 0.80694 0.81320 0.21295
 C104 C 0.70163 0.80499 0.18743
 H105 H 0.74913 0.81299 0.28572
 H106 H 0.80932 0.75238 0.21333
 H107 H 0.68678 0.75089 0.21426
 H108 H 0.74796 0.69104 0.28642
 H109 H 0.85068 0.80550 0.25277
 H110 H 0.84851 0.69347 0.24989
 H111 H 0.80720 0.65225 0.24973
 H112 H 0.69466 0.64978 0.24689
 H113 H 0.80510 0.85159 0.25575
 H114 H 0.69043 0.84933 0.25308
 H115 H 0.65015 0.80917 0.24701
 H116 H 0.64815 0.69505 0.24426
 H117 H 0.82474 0.82788 0.21708
 H118 H 0.76481 0.76531 0.15259
 H119 H 0.73490 0.73519 0.34725
 H120 H 0.67220 0.67537 0.28275
 Zr121 Zr 0.75347 0.24590 -0.29983
 O122 O 0.73075 0.26989 -0.33262
 O123 O 0.78436 0.21528 -0.32121
 O124 O 0.78442 0.27557 -0.32239
 O125 O 0.69049 0.19369 -0.28938
 O126 O 0.80965 0.30543 -0.28992
 O127 O 0.72143 0.21724 -0.32217
 O128 O 0.81192 0.19058 -0.28698
 O129 O 0.79487 0.24712 -0.27586
 O130 O 0.75202 0.20513 -0.27540
 O131 O 0.75098 0.28857 -0.27756
 O132 O 0.71022 0.24829 -0.27770
 Zr133 Zr 0.74873 0.25126 -0.20424
 Zr134 Zr 0.79136 0.28855 -0.25227
 Zr135 Zr 0.71064 0.20848 -0.25182
 Zr136 Zr 0.79210 0.20735 -0.25038
 O137 O 0.66038 0.21233 -0.24995
 O138 O 0.84210 0.21461 -0.24845
 O139 O 0.75082 0.20811 -0.22616
 O140 O 0.79147 0.24856 -0.22672
 O141 O 0.74988 0.29229 -0.22846
 O142 O 0.70757 0.24978 -0.22839
 C143 C 0.80567 0.19598 -0.31223
 C144 C 0.69801 0.19960 -0.31447
 C145 C 0.80366 0.29771 -0.31491
 O146 O 0.84158 0.28414 -0.25125
 O147 O 0.80853 0.30710 -0.21484
 O148 O 0.77872 0.28222 -0.18203
 C149 C 0.80088 0.30140 -0.18975
 O150 O 0.68957 0.30508 -0.29128
 Zr151 Zr 0.70972 0.28949 -0.25366
 O152 O 0.71829 0.28226 -0.18285
 O153 O 0.78707 0.33853 -0.25358
 O154 O 0.71711 0.33921 -0.25606
 O155 O 0.65954 0.28329 -0.25261
 O156 O 0.69335 0.30963 -0.21704
 C157 C 0.69901 0.30357 -0.19179
 O158 O 0.77301 0.22879 -0.17148
 O159 O 0.71426 0.15843 -0.25340
 O160 O 0.72002 0.21953 -0.18159
 O161 O 0.69602 0.18868 -0.21408
 O162 O 0.78576 0.15742 -0.25093
 O163 O 0.80796 0.18756 -0.21270
 C164 C 0.70218 0.19625 -0.18909
 H165 H 0.75173 0.18536 -0.28634
 H166 H 0.81030 0.24821 -0.21452
 H167 H 0.68779 0.24963 -0.21730
 H168 H 0.75056 0.30723 -0.28987
 H169 H 0.85254 0.19396 -0.25212
 H170 H 0.85035 0.30596 -0.25200
 H171 H 0.80902 0.34721 -0.25303
 H172 H 0.69641 0.34969 -0.25229
 H173 H 0.80690 0.14768 -0.25438
 H174 H 0.69219 0.15008 -0.25394
 H175 H 0.65189 0.19040 -0.24923
 H176 H 0.64984 0.30436 -0.24918
 H177 H 0.82589 0.17284 -0.21620
 H178 H 0.76421 0.23735 -0.15409
 H179 H 0.73921 0.26100 -0.35000
 H180 H 0.67469 0.32286 -0.28776
 Zr181 Zr 0.24930 0.75219 -0.29605
 O182 O 0.27276 0.72756 -0.32810
 O183 O 0.21910 0.78255 -0.31831
 O184 O 0.21863 0.72234 -0.31871
 O185 O 0.31196 0.80467 -0.28530
 O186 O 0.19241 0.69322 -0.28623
 O187 O 0.28185 0.78058 -0.31825
 O188 O 0.19085 0.80796 -0.28492
 O189 O 0.20733 0.75151 -0.27272
 O190 O 0.25032 0.79332 -0.27210
 O191 O 0.25102 0.70986 -0.27321
 O192 O 0.29202 0.75000 -0.27324
 Zr193 Zr 0.25175 0.74830 -0.20034
 Zr194 Zr 0.21007 0.71045 -0.24853
 Zr195 Zr 0.29113 0.79020 -0.24785
 Zr196 Zr 0.20964 0.79167 -0.24773
 O197 O 0.34133 0.78611 -0.24537
 O198 O 0.15959 0.78455 -0.24657
 O199 O 0.25035 0.79112 -0.22283
 O200 O 0.20954 0.75084 -0.22350
 O201 O 0.25098 0.70692 -0.22407
 O202 O 0.29346 0.74923 -0.22388
 C203 C 0.19768 0.80213 -0.31002
 C204 C 0.30501 0.79851 -0.31045
 C205 C 0.19896 0.70052 -0.31123
 O206 O 0.15986 0.71505 -0.24818
 O207 O 0.19208 0.69245 -0.21110
 O208 O 0.22118 0.71776 -0.17818
 C209 C 0.19916 0.69846 -0.18595
 O210 O 0.31269 0.69299 -0.28581
 Zr211 Zr 0.29172 0.70916 -0.24869
 O212 O 0.28148 0.71745 -0.17808
 O213 O 0.21418 0.66044 -0.24927
 O214 O 0.28422 0.65944 -0.25065
 O215 O 0.34190 0.71509 -0.24685
 O216 O 0.30704 0.68946 -0.21157
 C217 C 0.30081 0.69589 -0.18648
 O218 O 0.22678 0.77147 -0.16832
 O219 O 0.28771 0.84025 -0.24987
 O220 O 0.28019 0.78013 -0.17761
 O221 O 0.30515 0.81035 -0.21009
 O222 O 0.21615 0.84157 -0.24878
 O223 O 0.19289 0.81213 -0.21061
 C224 C 0.29841 0.80315 -0.18510
 H225 H 0.25093 0.81294 -0.28326
 H226 H 0.19044 0.75143 -0.21159
 H227 H 0.31299 0.74944 -0.21250
 H228 H 0.25160 0.69102 -0.28529
 H229 H 0.14930 0.80516 -0.25075
 H230 H 0.15101 0.69326 -0.24880
 H231 H 0.19218 0.65186 -0.24891
 H232 H 0.30478 0.64895 -0.24643
 H233 H 0.19514 0.85131 -0.25274
 H234 H 0.30983 0.84852 -0.25019
 H235 H 0.34991 0.80801 -0.24475
 H236 H 0.35138 0.69402 -0.24302
 H237 H 0.17503 0.82677 -0.21460
 H238 H 0.23508 0.76315 -0.15067
 H239 H 0.26475 0.73619 -0.34573
 H240 H 0.32743 0.67522 -0.28186
 Zr241 Zr 1.25009 1.25229 0.79774
 O242 O 1.22662 1.22707 0.82948
 O243 O 1.27984 1.28268 0.82036
 O244 O 1.28092 1.22268 0.82041
 O245 O 1.18709 1.30428 0.78699
 O246 O 1.30753 1.19397 0.78794
 O247 O 1.21722 1.28012 0.81995
 O248 O 1.30823 1.30851 0.78721
 O249 O 1.29220 1.25213 0.77462
 O250 O 1.24896 1.29364 0.77404
 O251 O 1.24877 1.21014 0.77471
 O252 O 1.20752 1.25004 0.77475
 Zr253 Zr 1.24819 1.24938 0.70209
 Zr254 Zr 1.28985 1.21126 0.75022
 Zr255 Zr 1.20831 1.29048 0.74960
 Zr256 Zr 1.28979 1.29250 0.74983
 O257 O 1.15815 1.28612 0.74676
 O258 O 1.33989 1.28574 0.74884
 O259 O 1.24923 1.29198 0.72479
 O260 O 1.29028 1.25188 0.72541
 O261 O 1.24910 1.20777 0.72557
 O262 O 1.20633 1.24974 0.72541
 C263 C 1.30121 1.30240 0.81221
 C264 C 1.19397 1.29784 0.81209
 C265 C 1.30083 1.20112 0.81294
 O266 O 1.34004 1.21617 0.74993
 O267 O 1.30790 1.19358 0.71275
 O268 O 1.27881 1.21912 0.67989
 C269 C 1.30076 1.19979 0.68765
 O270 O 1.18705 1.19285 0.78692
 Zr271 Zr 1.20820 1.20943 0.74999
 O272 O 1.21885 1.21858 0.67947
 O273 O 1.28607 1.16122 0.75083
 O274 O 1.21598 1.15975 0.75176
 O275 O 1.15800 1.21499 0.74787
 O276 O 1.19342 1.18993 0.71266
 C277 C 1.19976 1.19668 0.68765
 O278 O 1.27334 1.27298 0.67037
 O279 O 1.21135 1.34052 0.75208
 O280 O 1.21975 1.28127 0.67940
 O281 O 1.19448 1.31102 0.71197
 O282 O 1.28301 1.34234 0.75119
 O283 O 1.30663 1.31338 0.71290
 C284 C 1.20142 1.30414 0.68697
 H285 H 1.24814 1.31314 0.78532
 H286 H 1.30942 1.25267 0.71356
 H287 H 1.18689 1.24992 0.71392
 H288 H 1.24827 1.19120 0.78670
 H289 H 1.35002 1.30637 0.75321
 H290 H 1.34899 1.19442 0.75050
 H291 H 1.30813 1.15280 0.75049
 H292 H 1.19551 1.14916 0.74737
 H293 H 1.30395 1.35216 0.75528
 H294 H 1.18918 1.34863 0.75232
 H295 H 1.14945 1.30796 0.74628
 H296 H 1.14872 1.19387 0.74384
 H297 H 1.32435 1.32814 0.71705
 H298 H 1.26519 1.26484 0.65262
 H299 H 1.23440 1.23558 0.84722
 H300 H 1.17246 1.17501 0.78281
 Zr301 Zr 0.74689 0.74928 0.79793
 O302 O 0.77001 0.77373 0.83023
 O303 O 0.71629 0.71896 0.81989
 O304 O 0.71613 0.77924 0.82040
 O305 O 0.80956 0.69673 0.78764
 O306 O 0.69059 0.80862 0.78775
 O307 O 0.77897 0.72083 0.82035
 O308 O 0.68844 0.69370 0.78616
 O309 O 0.70526 0.75010 0.77427
 O310 O 0.74813 0.70818 0.77394
 O311 O 0.74914 0.79164 0.77521
 O312 O 0.78993 0.75134 0.77549
 Zr313 Zr 0.75074 0.75330 0.70230
 Zr314 Zr 0.70855 0.79120 0.75020
 Zr315 Zr 0.78928 0.71119 0.75003
 Zr316 Zr 0.70782 0.70998 0.74920
 O317 O 0.83954 0.71507 0.74797
 O318 O 0.65780 0.71718 0.74758
 O319 O 0.74887 0.71042 0.72466
 O320 O 0.70822 0.75086 0.72511
 O321 O 0.74979 0.79466 0.72607
 O322 O 0.79211 0.75220 0.72619
 C323 C 0.69497 0.69945 0.81130
 C324 C 0.80220 0.70296 0.81270
 C325 C 0.69680 0.80126 0.81279
 O326 O 0.65832 0.78675 0.74964
 O327 O 0.69094 0.80910 0.71272
 O328 O 0.72047 0.78384 0.67997
 C329 C 0.69831 0.80299 0.68766
 O330 O 0.81066 0.80833 0.78835
 Zr331 Zr 0.79018 0.79224 0.75103
 O332 O 0.78095 0.78402 0.68034
 O333 O 0.71283 0.84120 0.75084
 O334 O 0.78279 0.84198 0.75287
 O335 O 0.84036 0.78615 0.74975
 O336 O 0.80623 0.81180 0.71408
 C337 C 0.80037 0.80538 0.68895
 O338 O 0.72619 0.73027 0.67000
 O339 O 0.78564 0.66116 0.75201
 O340 O 0.77939 0.72150 0.67975
 O341 O 0.80378 0.69109 0.71236
 O342 O 0.71415 0.66007 0.75026
 O343 O 0.69155 0.68968 0.71188
 C344 C 0.79743 0.69842 0.68733
 H345 H 0.74851 0.68854 0.78507
 H346 H 0.68927 0.75030 0.71305
 H347 H 0.81181 0.75194 0.71500
 H348 H 0.74967 0.81047 0.78730
 H349 H 0.64740 0.69658 0.75162
 H350 H 0.64954 0.80857 0.75017
 H351 H 0.69087 0.84985 0.75036
 H352 H 0.80345 0.85242 0.74884
 H353 H 0.69305 0.65037 0.75399
 H354 H 0.80772 0.65282 0.75251
 H355 H 0.84802 0.69314 0.74742
 H356 H 0.84999 0.80720 0.74604
 H357 H 0.67365 0.67500 0.71569
 H358 H 0.73476 0.73861 0.65245
 H359 H 0.76171 0.76512 0.84779
 H360 H 0.82538 0.82617 0.78456
 Zr361 Zr 1.25368 0.74675 0.20021
 O362 O 1.23070 0.77090 0.16764
 O363 O 1.28531 0.71716 0.17860
 O364 O 1.28430 0.77716 0.17812
 O365 O 1.19162 0.69329 0.20974
 O366 O 1.30877 0.80704 0.21100
 O367 O 1.22233 0.71792 0.17739
 O368 O 1.31325 0.69257 0.21266
 O369 O 1.29488 0.74836 0.22438
 O370 O 1.25287 0.70555 0.22412
 O371 O 1.25025 0.78904 0.22290
 O372 O 1.21027 0.74796 0.22215
 Zr373 Zr 1.24824 0.75051 0.29575
 Zr374 Zr 1.29044 0.78936 0.24838
 Zr375 Zr 1.21130 0.70775 0.24756
 Zr376 Zr 1.29273 0.70814 0.24937
 O377 O 1.16094 0.71051 0.24921
 O378 O 1.34257 0.71623 0.25178
 O379 O 1.25130 0.70772 0.27341
 O380 O 1.29116 0.74897 0.27346
 O381 O 1.24876 0.79195 0.27205
 O382 O 1.20728 0.74864 0.27138
 C383 C 1.30705 0.69827 0.18745
 C384 C 1.19917 0.69980 0.18478
 C385 C 1.30315 0.79948 0.18591
 O386 O 1.34074 0.78591 0.24965
 O387 O 1.30701 0.80760 0.28610
 O388 O 1.27744 0.78167 0.31847
 C389 C 1.29931 0.80132 0.31107
 O390 O 1.18870 0.80469 0.20908
 Zr391 Zr 1.20883 0.78879 0.24661
 O392 O 1.21698 0.78044 0.31738
 O393 O 1.28523 0.83927 0.24757
 O394 O 1.21536 0.83867 0.24501
 O395 O 1.15876 0.78168 0.24716
 O396 O 1.19163 0.80780 0.28340
 C397 C 1.19721 0.80138 0.30860
 O398 O 1.27277 0.72796 0.32834
 O399 O 1.21597 0.65782 0.24542
 O400 O 1.21992 0.71803 0.31793
 O401 O 1.19669 0.68720 0.28501
 O402 O 1.28739 0.65812 0.24803
 O403 O 1.30862 0.68801 0.28689
 C404 C 1.20250 0.69458 0.31012
 H405 H 1.25305 0.68598 0.21292
 H406 H 1.30991 0.74878 0.28576
 H407 H 1.18742 0.74792 0.28234
 H408 H 1.24959 0.80787 0.21079
 H409 H 1.35342 0.69583 0.24792
 H410 H 1.34909 0.80790 0.24918
 H411 H 1.30702 0.84833 0.24833
 H412 H 1.19445 0.84870 0.24884
 H413 H 1.30874 0.64888 0.24455
 H414 H 1.19407 0.64904 0.24465
 H415 H 1.15291 0.68840 0.24960
 H416 H 1.14864 0.80251 0.25078
 H417 H 1.32676 0.67355 0.28331
 H418 H 1.26372 0.73604 0.34579
 H419 H 1.23942 0.76247 0.15017
 H420 H 1.17364 0.82228 0.21273
 Zr421 Zr 0.75003 1.25081 0.20420
 O422 O 0.77385 1.22626 0.17230
 O423 O 0.71918 1.28034 0.18180
 O424 O 0.71971 1.22042 0.18178
 O425 O 0.81176 1.30449 0.21447
 O426 O 0.69411 1.19109 0.21448
 O427 O 0.78197 1.27956 0.18173
 O428 O 0.69045 1.30540 0.21513
 O429 O 0.70819 1.24958 0.22765
 O430 O 0.75037 1.29218 0.22787
 O431 O 0.75261 1.20869 0.22724
 O432 O 0.79286 1.24963 0.22690
 Zr433 Zr 0.75292 1.24781 0.29986
 Zr434 Zr 0.71177 1.20877 0.25204
 Zr435 Zr 0.79131 1.29003 0.25204
 Zr436 Zr 0.70983 1.28999 0.25238
 O437 O 0.84160 1.28696 0.25438
 O438 O 0.65991 1.28203 0.25387
 O439 O 0.75063 1.29043 0.27717
 O440 O 0.71059 1.24935 0.27682
 O441 O 0.75282 1.20620 0.27641
 O442 O 0.79451 1.24929 0.27619
 C443 C 0.69732 1.29943 0.19008
 C444 C 0.80481 1.29791 0.18941
 C445 C 0.70036 1.19841 0.18942
 O446 O 0.66147 1.21243 0.25260
 O447 O 0.69431 1.19075 0.28961
 O448 O 0.72308 1.21689 0.32229
 C449 C 0.70142 1.19716 0.31467
 O450 O 0.81448 1.19279 0.21458
 Zr451 Zr 0.79342 1.20897 0.25166
 O452 O 0.78338 1.21782 0.32225
 O453 O 0.71679 1.15884 0.25148
 O454 O 0.78675 1.15911 0.25018
 O455 O 0.84349 1.21579 0.25317
 O456 O 0.80939 1.19005 0.28887
 C457 C 0.80318 1.19664 0.31393
 O458 O 0.72760 1.27081 0.33177
 O459 O 0.78689 1.33997 0.24972
 O460 O 0.78091 1.28023 0.32235
 O461 O 0.80519 1.31066 0.28964
 O462 O 0.71538 1.33998 0.25083
 O463 O 0.69293 1.31050 0.28943
 C464 C 0.79872 1.30348 0.31470
 H465 H 0.75055 1.31169 0.21656
 H466 H 0.69153 1.24969 0.28880
 H467 H 0.81409 1.24996 0.28749
 H468 H 0.75345 1.18977 0.21526
 H469 H 0.64924 1.30242 0.24960
 H470 H 0.65303 1.19047 0.25211
 H471 H 0.69496 1.14987 0.25197
 H472 H 0.80751 1.14902 0.25443
 H473 H 0.69417 1.34927 0.24687
 H474 H 0.80883 1.34867 0.24930
 H475 H 0.84975 1.30903 0.25484
 H476 H 0.85338 1.19491 0.25709
 H477 H 0.67489 1.32490 0.28540
 H478 H 0.73610 1.26283 0.34946
 H479 H 0.76564 1.23456 0.15461
 H480 H 0.82941 1.17519 0.21859
 O481 O 0.54386 1.05817 0.05008
 O482 O 0.58000 1.02977 0.02446
 C483 C 0.57266 1.05037 0.04331
 O484 O 0.45590 0.94320 0.04724
 O485 O 0.41978 0.97340 0.02323
 C486 C 0.42711 0.95116 0.04063
 O487 O 0.54396 0.94634 0.05021
 O488 O 0.58005 0.97456 0.02437
 C489 C 0.57275 0.95407 0.04331
 O490 O 0.45573 1.06090 0.04735
 O491 O 0.41970 1.03068 0.02327
 C492 C 0.42695 1.05279 0.04078
 Zr493 Zr 0.49987 1.04171 0.03494
 O494 O 0.49901 1.03581 0.07793
 O495 O 0.50008 1.09169 0.03890
 Zr496 Zr 0.49989 0.96272 0.03506
 O497 O 0.49887 0.96884 0.07802
 O498 O 0.50068 0.91281 0.03941
 O499 O 0.52888 1.00222 0.04022
 O500 O 0.47141 1.00220 0.03992
 O501 O 0.45600 1.06029 -0.04747
 O502 O 0.41985 1.03072 -0.02286
 C503 C 0.42721 1.05254 -0.04066
 O504 O 0.54394 0.94638 -0.04960
 O505 O 0.58008 0.97461 -0.02394
 C506 C 0.57272 0.95406 -0.04279
 O507 O 0.45570 0.94417 -0.04740
 O508 O 0.41970 0.97388 -0.02282
 C509 C 0.42693 0.95204 -0.04059
 O510 O 0.54425 1.05752 -0.04985
 O511 O 0.58021 1.02936 -0.02394
 C512 C 0.57300 1.04970 -0.04299
 Zr513 Zr 0.50007 1.04189 -0.03419
 O514 O 0.49659 1.04122 -0.07747
 O515 O 0.50308 1.09204 -0.03410
 Zr516 Zr 0.49990 0.96236 -0.03410
 O517 O 0.49649 0.96314 -0.07739
 O518 O 0.50274 0.91220 -0.03403
 Zr519 Zr 0.54824 1.00211 0.00027
 Zr520 Zr 0.45179 1.00218 0.00030
 O521 O 0.47196 1.00216 -0.03918
 O522 O 0.52876 1.00208 -0.03958
 O523 O 0.47156 1.04821 0.00033
 O524 O 0.52771 0.95654 0.00046
 O525 O 0.52784 1.04772 0.00034
 O526 O 0.47151 0.95613 0.00047
 H527 H 0.45672 1.00215 0.05584
 H528 H 0.54184 0.93772 0.00042
 H529 H 0.45765 1.00219 -0.05531
 H530 H 0.54212 1.06644 0.00019
 H531 H 0.50549 0.90388 0.02118
 H532 H 0.48531 0.90413 -0.02225
 H533 H 0.51507 0.97500 -0.08455
 H534 H 0.51489 1.02897 -0.08463
 H535 H 0.48611 1.10007 -0.02182
 H536 H 0.50793 1.10053 0.02141
 H537 H 0.49788 1.05745 0.08578
 H538 H 0.49782 0.94723 0.08597
 O539 O 1.04377 0.55776 0.55051
 O540 O 1.07994 0.52986 0.52453
 C541 C 1.07258 0.55024 0.54355
 O542 O 0.95604 0.44317 0.54747
 O543 O 0.91987 0.47330 0.52347
 C544 C 0.92724 0.45106 0.54086
 O545 O 1.04408 0.44665 0.55058
 O546 O 1.08011 0.47471 0.52457
 C547 C 1.07286 0.45433 0.54359
 O548 O 0.95552 0.56016 0.54803
 O549 O 0.91962 0.53041 0.52339
 C550 C 0.92678 0.55223 0.54119
 Zr551 Zr 0.99980 0.54204 0.53474
 O552 O 0.99665 0.54161 0.57804
 O553 O 1.00316 0.59218 0.53432
 Zr554 Zr 0.99999 0.46280 0.53530
 O555 O 0.99863 0.46870 0.57828
 O556 O 1.00123 0.41291 0.53971
 O557 O 1.02879 0.50244 0.54029
 O558 O 0.97163 0.50231 0.54000
 O559 O 0.95591 0.55989 0.45241
 O560 O 0.91982 0.53039 0.47716
 C561 C 0.92713 0.55211 0.45925
 O562 O 1.04399 0.44610 0.45070
 O563 O 1.08009 0.47436 0.47638
 C564 C 1.07277 0.45380 0.45753
 O565 O 0.95569 0.44392 0.45288
 O566 O 0.91969 0.47367 0.47744
 C567 C 0.92692 0.45182 0.45969
 O568 O 1.04422 0.55702 0.44994
 O569 O 1.08019 0.52920 0.47611
 C570 C 1.07297 0.54930 0.45689
 Zr571 Zr 1.00002 0.54162 0.46574
 O572 O 0.99641 0.54071 0.42246
 O573 O 1.00362 0.59173 0.46546
 Zr574 Zr 0.99994 0.46208 0.46616
 O575 O 0.99653 0.46258 0.42286
 O576 O 1.00289 0.41191 0.46639
 Zr577 Zr 1.04823 0.50207 0.50040
 Zr578 Zr 0.95182 0.50203 0.50043
 O579 O 0.97198 0.50182 0.46093
 O580 O 1.02876 0.50179 0.46053
 O581 O 0.97134 0.54816 0.50019
 O582 O 1.02776 0.45646 0.50074
 O583 O 1.02780 0.54771 0.50021
 O584 O 0.97157 0.45599 0.50076
 H585 H 0.95708 0.50220 0.55601
 H586 H 1.04189 0.43763 0.50081
 H587 H 0.95766 0.50177 0.44480
 H588 H 1.04197 0.56652 0.50010
 H589 H 1.00406 0.40396 0.52119
 H590 H 0.98501 0.40380 0.47764
 H591 H 1.01506 0.47448 0.41566
 H592 H 1.01469 0.52841 0.41533
 H593 H 0.98606 0.60017 0.47686
 H594 H 0.98517 0.60041 0.52333
 H595 H 1.01339 0.52712 0.58494
 H596 H 0.99793 0.44704 0.58616
 O597 O 0.94191 0.45733 -0.05013
 O598 O 0.97023 0.42128 -0.02446
 C599 C 0.94954 0.42865 -0.04330
 O600 O 1.05725 0.54400 -0.04923
 O601 O 1.02817 0.58027 -0.02443
 C602 C 1.04986 0.57275 -0.04241
 O603 O 1.05351 0.45620 -0.05125
 O604 O 1.02562 0.42074 -0.02459
 C605 C 1.04576 0.42768 -0.04396
 O606 O 0.93987 0.54505 -0.04763
 O607 O 0.97081 0.58079 -0.02400
 C608 C 0.94837 0.57366 -0.04129
 Zr609 Zr 0.95882 0.50102 -0.03514
 O610 O 0.96400 0.50177 -0.07820
 O611 O 0.90853 0.50121 -0.03863
 Zr612 Zr 1.03847 0.50036 -0.03561
 O613 O 1.03713 0.50324 -0.07891
 O614 O 1.08881 0.49648 -0.03613
 O615 O 0.99831 0.47190 -0.04049
 O616 O 0.99878 0.52876 -0.04048
 O617 O 0.94116 0.54538 0.04716
 O618 O 0.97091 0.58096 0.02214
 C619 C 0.94909 0.57393 0.04016
 O620 O 1.05476 0.45698 0.04917
 O621 O 1.02603 0.42107 0.02375
 C622 C 1.04681 0.42835 0.04252
 O623 O 1.05782 0.54476 0.04635
 O624 O 1.02803 0.58064 0.02178
 C625 C 1.05003 0.57339 0.03946
 O626 O 0.94317 0.45757 0.04994
 O627 O 0.97084 0.42139 0.02393
 C628 C 0.95068 0.42884 0.04313
 Zr629 Zr 0.95916 0.50130 0.03396
 O630 O 0.96021 0.50505 0.07722
 O631 O 0.90873 0.49874 0.03416
 Zr632 Zr 1.03908 0.50081 0.03343
 O633 O 1.03871 0.50465 0.07669
 O634 O 1.08943 0.49701 0.03313
 Zr635 Zr 0.99846 0.45280 -0.00051
 Zr636 Zr 0.99924 0.54876 -0.00102
 O637 O 0.99935 0.52897 0.03857
 O638 O 0.99895 0.47244 0.03925
 O639 O 0.95280 0.52950 -0.00066
 O640 O 1.04447 0.47282 -0.00099
 O641 O 0.95279 0.47347 -0.00040
 O642 O 1.04541 0.52894 -0.00127
 H643 H 0.99873 0.54310 -0.05658
 H644 H 1.06329 0.45862 -0.00107
 H645 H 0.99955 0.54333 0.05463
 H646 H 0.93389 0.45939 -0.00010
 H647 H 1.09746 0.51375 -0.02462
 H648 H 1.09787 0.51454 0.02177
 H649 H 1.02655 0.48642 0.08405
 H650 H 0.97236 0.48673 0.08439
 H651 H 0.90073 0.51564 0.02188
 H652 H 0.89976 0.49331 -0.02113
 H653 H 0.94213 0.50285 -0.08579
 H654 H 1.02260 0.48640 -0.08552
 O655 O 0.44052 0.95575 0.45078
 O656 O 0.46883 0.91968 0.47645
 C657 C 0.44811 0.92707 0.45766
 O658 O 0.55696 1.04218 0.45262
 O659 O 0.52711 1.07857 0.47660
 C660 C 0.54931 1.07096 0.45915
 O661 O 0.55290 0.95461 0.45008
 O662 O 0.52437 0.91911 0.47621
 C663 C 0.54493 0.92607 0.45713
 O664 O 0.43860 1.04346 0.45305
 O665 O 0.46943 1.07920 0.47681
 C666 C 0.44703 1.07208 0.45943
 Zr667 Zr 0.45756 0.99947 0.46561
 O668 O 0.46324 0.99996 0.42259
 O669 O 0.40730 0.99972 0.46189
 Zr670 Zr 0.53692 0.99868 0.46512
 O671 O 0.53051 0.99948 0.42218
 O672 O 0.58705 0.99733 0.46056
 O673 O 0.49693 0.97018 0.46030
 O674 O 0.49751 1.02738 0.46030
 O675 O 0.43988 1.04391 0.54789
 O676 O 0.46983 1.07941 0.52296
 C677 C 0.44797 1.07244 0.54091
 O678 O 0.55338 0.95523 0.54989
 O679 O 0.52449 0.91937 0.52455
 C680 C 0.54532 0.92662 0.54326
 O681 O 0.55641 1.04303 0.54736
 O682 O 0.52684 1.07899 0.52269
 C683 C 0.54873 1.07169 0.54047
 O684 O 0.44173 0.95612 0.55084
 O685 O 0.46944 0.91984 0.52497
 C686 C 0.44924 0.92736 0.54416
 Zr687 Zr 0.45776 0.99976 0.53472
 O688 O 0.45856 1.00355 0.57798
 O689 O 0.40733 0.99725 0.53473
 Zr690 Zr 0.53770 0.99913 0.53427
 O691 O 0.53728 1.00280 0.57755
 O692 O 0.58808 0.99581 0.53395
 Zr693 Zr 0.49707 0.95116 0.50034
 Zr694 Zr 0.49797 1.04717 0.49982
 O695 O 0.49800 1.02734 0.53939
 O696 O 0.49753 0.97085 0.54008
 O697 O 0.45151 1.02796 0.50010
 O698 O 0.54306 0.97117 0.49983
 O699 O 0.45144 0.97192 0.50037
 O700 O 0.54404 1.02710 0.49954
 H701 H 0.49761 1.04190 0.44432
 H702 H 0.56184 0.95693 0.49984
 H703 H 0.49821 1.04167 0.55547
 H704 H 0.43250 0.95788 0.50071
 H705 H 0.59607 0.99292 0.47884
 H706 H 0.59629 1.01315 0.52221
 H707 H 0.52523 0.98448 0.58486
 H708 H 0.47108 0.98550 0.58519
 H709 H 0.39940 1.01430 0.52256
 H710 H 0.39845 0.99208 0.47945
 H711 H 0.44146 1.00120 0.41483
 H712 H 0.55218 1.00028 0.41413
 O713 O 1.06128 0.94164 0.53684
 O714 O 1.03239 0.97038 0.56825
 C715 C 1.05392 0.94970 0.56161
 O716 O 1.05673 1.05572 0.46133
 O717 O 1.02731 1.02587 0.43115
 C718 C 1.04782 1.04786 0.43692
 O719 O 1.06234 1.05182 0.53707
 O720 O 1.03266 1.02365 0.56837
 C721 C 1.05471 1.04382 0.56180
 O722 O 1.05558 0.93871 0.46108
 O723 O 1.02718 0.96970 0.43099
 C724 C 1.04722 0.94726 0.43668
 Zr725 Zr 1.04277 0.95774 0.49931
 O726 O 1.09284 0.96291 0.49720
 O727 O 1.04736 0.90775 0.49953
 Zr728 Zr 1.04284 1.03720 0.49950
 O729 O 1.09312 1.03658 0.49552
 O730 O 1.04330 1.08729 0.50288
 O731 O 1.04969 0.99730 0.52389
 O732 O 1.04799 0.99751 0.47513
 O733 O 0.94627 0.93970 0.46340
 O734 O 0.97388 0.96989 0.43216
 C735 C 0.95367 0.94790 0.43868
 O736 O 0.94567 1.05239 0.53970
 O737 O 0.97661 1.02380 0.56970
 C738 C 0.95450 1.04426 0.56408
 O739 O 0.94644 1.05575 0.46372
 O740 O 0.97392 1.02573 0.43230
 C741 C 0.95374 1.04769 0.43895
 O742 O 0.94516 0.94258 0.53929
 O743 O 0.97626 0.97071 0.56944
 C744 C 0.95390 0.95058 0.56370
 Zr745 Zr 0.96248 0.95767 0.50104
 O746 O 0.91205 0.95769 0.49895
 O747 O 0.96281 0.90752 0.50366
 Zr748 Zr 0.96264 1.03747 0.50128
 O749 O 0.91220 1.03750 0.49921
 O750 O 0.96300 1.08756 0.50461
 Zr751 Zr 1.00371 0.99727 0.54138
 Zr752 Zr 1.00143 0.99768 0.45916
 O753 O 0.95594 0.99768 0.47737
 O754 O 0.95685 0.99747 0.52578
 O755 O 1.00191 0.95147 0.47579
 O756 O 1.00344 1.04313 0.52432
 O757 O 1.00323 0.95162 0.52407
 O758 O 1.00204 1.04379 0.47593
 H759 H 1.06627 0.99749 0.46225
 H760 H 1.00389 1.06177 0.53667
 H761 H 0.93679 0.99774 0.46550
 H762 H 1.00334 0.93296 0.53643
 H763 H 1.02936 1.09585 0.48832
 H764 H 0.97530 1.09603 0.48893
 H765 H 0.90414 1.02478 0.51478
 H766 H 0.90404 0.97095 0.51418
 H767 H 0.97620 0.89949 0.48846
 H768 H 1.02697 0.89893 0.50622
 H769 H 1.10165 0.94112 0.49631
 H770 H 1.10149 1.02153 0.50933
 O771 O 0.44162 0.44446 -0.03701
 O772 O 0.47181 0.47193 -0.06839
 C773 C 0.44945 0.45213 -0.06177
 O774 O 0.44786 0.55630 0.03875
 O775 O 0.47705 0.52616 0.06888
 C776 C 0.45661 0.54821 0.06315
 O777 O 0.44267 0.55327 -0.03699
 O778 O 0.47202 0.52497 -0.06835
 C779 C 0.45013 0.54527 -0.06174
 O780 O 0.44693 0.44080 0.03872
 O781 O 0.47669 0.47038 0.06888
 C782 C 0.45572 0.44880 0.06314
 Zr783 Zr 0.46193 0.45819 0.00047
 O784 O 0.41173 0.45360 0.00198
 O785 O 0.46704 0.40833 -0.00072
 Zr786 Zr 0.46190 0.53811 0.00053
 O787 O 0.41160 0.53792 0.00432
 O788 O 0.46194 0.58823 -0.00260
 O789 O 0.45489 0.49824 -0.02374
 O790 O 0.45652 0.49817 0.02452
 O791 O 0.55755 0.43960 0.03644
 O792 O 0.53019 0.46996 0.06773
 C793 C 0.55017 0.44777 0.06118
 O794 O 0.55916 0.55313 -0.03938
 O795 O 0.52804 0.52497 -0.06952
 C796 C 0.55024 0.54528 -0.06379
 O797 O 0.55817 0.55593 0.03663
 O798 O 0.53038 0.52588 0.06789
 C799 C 0.55069 0.54779 0.06136
 O800 O 0.55911 0.44321 -0.03949
 O801 O 0.52822 0.47176 -0.06955
 C802 C 0.55044 0.45144 -0.06389
 Zr803 Zr 0.54179 0.45813 -0.00117
 O804 O 0.59221 0.45802 0.00106
 O805 O 0.54123 0.40801 -0.00408
 Zr806 Zr 0.54209 0.53792 -0.00106
 O807 O 0.59252 0.53738 0.00111
 O808 O 0.54235 0.58804 -0.00417
 Zr809 Zr 0.50080 0.49826 -0.04143
 Zr810 Zr 0.50292 0.49813 0.04079
 O811 O 0.54848 0.49795 0.02271
 O812 O 0.54765 0.49809 -0.02575
 O813 O 0.50242 0.45195 0.02424
 O814 O 0.50137 0.54399 -0.02416
 O815 O 0.50115 0.45237 -0.02450
 O816 O 0.50265 0.54434 0.02421
 H817 H 0.43814 0.49838 0.03728
 H818 H 0.50104 0.56275 -0.03641
 H819 H 0.56755 0.49782 0.03468
 H820 H 0.50070 0.43383 -0.03697
 H821 H 0.47553 0.59660 0.01228
 H822 H 0.52958 0.59648 0.01123
 H823 H 0.60051 0.52510 -0.01473
 H824 H 0.60033 0.47120 -0.01420
 H825 H 0.52627 0.40003 0.01002
 H826 H 0.44513 0.39955 -0.00090
 H827 H 0.40306 0.47415 0.00820
 H828 H 0.40304 0.52423 -0.01041
 C829 C 0.31102 1.17862 0.16627
 C830 C 0.32217 1.16208 0.14844
 C831 C 0.33555 1.14214 0.12728
 C832 C 0.34777 1.15566 0.10321
 C833 C 0.36237 1.13648 0.08340
 C834 C 0.36474 1.10362 0.08746
 C835 C 0.35186 1.09002 0.11125
 C836 C 0.33726 1.10920 0.13105
 C837 C 0.38378 1.08460 0.06906
 C838 C 0.40202 1.06942 0.05506
 H839 H 0.34666 1.18107 0.10003
 H840 H 0.37264 1.14738 0.06533
 H841 H 0.35394 1.06474 0.11487
 H842 H 0.32796 1.09843 0.14957
 C843 C 0.81114 0.67897 0.66612
 C844 C 0.82222 0.66230 0.64836
 C845 C 0.83550 0.64212 0.62731
 C846 C 0.83742 0.60925 0.63143
 C847 C 0.85193 0.58985 0.61174
 C848 C 0.86453 0.60316 0.58772
 C849 C 0.86194 0.63595 0.58332
 C850 C 0.84743 0.65535 0.60301
 C851 C 0.88354 0.58399 0.56943
 C852 C 0.90179 0.56876 0.55548
 H853 H 0.82834 0.59871 0.65013
 H854 H 0.85418 0.56464 0.61563
 H855 H 0.87200 0.64664 0.56506
 H856 H 0.84616 0.68071 0.59957
 C857 C 0.68823 0.82496 0.16646
 C858 C 0.67730 0.84220 0.14905
 C859 C 0.66409 0.86314 0.12855
 C860 C 0.65415 0.85110 0.10319
 C861 C 0.63959 0.87112 0.08400
 C862 C 0.63496 0.90333 0.08998
 C863 C 0.64558 0.91551 0.11509
 C864 C 0.66015 0.89550 0.13428
 C865 C 0.61590 0.92278 0.07197
 C866 C 0.59766 0.93797 0.05802
 H867 H 0.65699 0.82614 0.09851
 H868 H 0.63107 0.86127 0.06486
 H869 H 0.64175 0.94024 0.12017
 H870 H 0.66767 0.90511 0.15381
 C871 C 1.18811 0.32403 0.66590
 C872 C 1.17724 0.34135 0.64851
 C873 C 1.16411 0.36249 0.62814
 C874 C 1.15389 0.35067 0.60279
 C875 C 1.13937 0.37091 0.58375
 C876 C 1.13507 0.40314 0.58988
 C877 C 1.14598 0.41510 0.61497
 C878 C 1.16051 0.39486 0.63400
 C879 C 1.11603 0.42283 0.57205
 C880 C 1.09778 0.43816 0.55822
 H881 H 1.15647 0.32571 0.59800
 H882 H 1.13063 0.36124 0.56462
 H883 H 1.14239 0.43983 0.62017
 H884 H 1.16824 0.40430 0.65354
 C885 C 0.68857 1.17672 -0.16789
 C886 C 0.67755 1.15979 -0.15027
 C887 C 0.66431 1.13917 -0.12952
 C888 C 0.65456 1.15156 -0.10422
 C889 C 0.64003 1.13184 -0.08476
 C890 C 0.63526 1.09956 -0.09041
 C891 C 0.64569 1.08703 -0.11546
 C892 C 0.66023 1.10675 -0.13492
 C893 C 0.61621 1.08041 -0.07212
 C894 C 0.59795 1.06548 -0.05794
 H895 H 0.65753 1.17657 -0.09979
 H896 H 0.63166 1.14195 -0.06566
 H897 H 0.64174 1.06225 -0.12028
 H898 H 0.66761 1.09687 -0.15440
 C899 C 1.18886 0.67478 0.33110
 C900 C 1.17781 0.65783 0.34869
 C901 C 1.16452 0.63739 0.36952
 C902 C 1.15570 0.64984 0.39505
 C903 C 1.14111 0.63037 0.41466
 C904 C 1.13535 0.59828 0.40892
 C905 C 1.14486 0.58566 0.38363
 C906 C 1.15944 0.60513 0.36402
 C907 C 1.11624 0.57949 0.42743
 C908 C 1.09793 0.56484 0.44177
 H909 H 1.15944 0.67473 0.39956
 H910 H 1.13347 0.64055 0.43395
 H911 H 1.14012 0.56103 0.37876
 H912 H 1.16610 0.59521 0.34436
 C913 C 0.31187 0.82275 -0.16388
 C914 C 0.32281 0.83968 -0.14624
 C915 C 0.33597 0.86029 -0.12546
 C916 C 0.33762 0.89311 -0.12997
 C917 C 0.35209 0.91294 -0.11060
 C918 C 0.36489 0.90013 -0.08648
 C919 C 0.36257 0.86739 -0.08168
 C920 C 0.34811 0.84756 -0.10106
 C921 C 0.38383 0.91975 -0.06849
 C922 C 0.40201 0.93528 -0.05474
 H923 H 0.32840 0.90328 -0.14875
 H924 H 0.35413 0.93811 -0.11480
 H925 H 0.37278 0.85708 -0.06334
 H926 H 0.34705 0.82224 -0.09731
 C927 C 0.81208 0.32328 0.33581
 C928 C 0.82293 0.34024 0.35346
 C929 C 0.83602 0.36075 0.37433
 C930 C 0.83812 0.39354 0.36977
 C931 C 0.85253 0.41324 0.38927
 C932 C 0.86484 0.40033 0.41353
 C933 C 0.86205 0.36764 0.41838
 C934 C 0.84764 0.34793 0.39888
 C935 C 0.88379 0.41976 0.43165
 C936 C 0.90199 0.43515 0.44549
 H937 H 0.82929 0.40377 0.35088
 H938 H 0.85495 0.43837 0.38504
 H939 H 0.87189 0.35725 0.43684
 H940 H 0.84623 0.32264 0.40266
 C941 C 1.18010 0.31818 0.16636
 C942 C 1.16286 0.32922 0.14893
 C943 C 1.14136 0.34187 0.12850
 C944 C 1.10869 0.34443 0.13427
 C945 C 1.08789 0.35774 0.11497
 C946 C 1.09955 0.36844 0.08968
 C947 C 1.13212 0.36528 0.08369
 C948 C 1.15294 0.35197 0.10299
 C949 C 1.07910 0.38626 0.07146
 C950 C 1.06323 0.40376 0.05734
 H951 H 1.09939 0.33669 0.15388
 H952 H 1.06290 0.36048 0.12009
 H953 H 1.14158 0.37390 0.06441
 H954 H 1.17810 0.35012 0.09822
 C955 C 0.67896 0.81718 0.66664
 C956 C 0.66159 0.82798 0.64924
 C957 C 0.63997 0.84033 0.62884
 C958 C 0.65139 0.85009 0.60319
 C959 C 0.63047 0.86323 0.58391
 C960 C 0.59797 0.86655 0.59010
 C961 C 0.58645 0.85614 0.61553
 C962 C 0.60736 0.84300 0.63480
 C963 C 0.57752 0.88441 0.57200
 C964 C 0.56169 0.90199 0.55798
 H965 H 0.67651 0.84814 0.59830
 H966 H 0.63979 0.87166 0.56452
 H967 H 0.56152 0.85904 0.62078
 H968 H 0.59821 0.83551 0.65453
 C969 C 1.18178 0.68507 -0.16689
 C970 C 1.16494 0.67355 -0.14933
 C971 C 1.14411 0.66028 -0.12858
 C972 C 1.15676 0.64740 -0.10443
 C973 C 1.13655 0.63359 -0.08486
 C974 C 1.10348 0.63266 -0.08920
 C975 C 1.09080 0.64609 -0.11311
 C976 C 1.11100 0.65990 -0.13268
 C977 C 1.08321 0.61467 -0.07085
 C978 C 1.06714 0.59719 -0.05681
 H979 H 1.18227 0.64753 -0.10095
 H980 H 1.14678 0.62290 -0.06670
 H981 H 1.06538 0.64514 -0.11698
 H982 H 1.10085 0.66977 -0.15121
 C983 C 0.68249 1.18246 0.33580
 C984 C 0.66564 1.17116 0.35340
 C985 C 0.64471 1.15818 0.37413
 C986 C 0.65729 1.14426 0.39787
 C987 C 0.63690 1.13059 0.41735
 C988 C 0.60379 1.13084 0.41331
 C989 C 0.59120 1.14534 0.38983
 C990 C 0.61157 1.15902 0.37037
 C991 C 0.58326 1.11285 0.43135
 C992 C 0.56693 1.09535 0.44510
 H993 H 0.68283 1.14345 0.40107
 H994 H 0.64701 1.11904 0.43517
 H995 H 0.56572 1.14529 0.38621
 H996 H 0.60151 1.16970 0.35213
 C997 C 0.81924 0.68538 0.16594
 C998 C 0.83598 0.67426 0.14816
 C999 C 0.85659 0.66145 0.12711
 C1000 C 0.84370 0.64941 0.10274
 C1001 C 0.86367 0.63589 0.08288
 C1002 C 0.89672 0.63442 0.08714
 C1003 C 0.90966 0.64705 0.11127
 C1004 C 0.88970 0.66058 0.13112
 C1005 C 0.91663 0.61638 0.06861
 C1006 C 0.93234 0.59872 0.05449
 H1007 H 0.81819 0.64993 0.09933
 H1008 H 0.85325 0.62577 0.06456
 H1009 H 0.93507 0.64564 0.11508
 H1010 H 0.90002 0.66980 0.14983
 C1011 C 0.31977 1.18521 0.66657
 C1012 C 0.33639 1.17397 0.64881
 C1013 C 0.35677 1.16101 0.62772
 C1014 C 0.34362 1.14910 0.60342
 C1015 C 0.36334 1.13536 0.58352
 C1016 C 0.39638 1.13355 0.58772
 C1017 C 0.40958 1.14610 0.61176
 C1018 C 0.38986 1.15985 0.63165
 C1019 C 0.41595 1.11521 0.56924
 C1020 C 0.43141 1.09731 0.55519
 H1021 H 0.31809 1.14987 0.60010
 H1022 H 0.35274 1.12530 0.56526
 H1023 H 0.43499 1.14441 0.61549
 H1024 H 0.40035 1.16899 0.65032
 C1025 C 0.81973 0.31627 -0.16867
 C1026 C 0.83647 0.32773 -0.15109
 C1027 C 0.85722 0.34091 -0.13034
 C1028 C 0.89016 0.34290 -0.13505
 C1029 C 0.91024 0.35667 -0.11544
 C1030 C 0.89758 0.36842 -0.09086
 C1031 C 0.86471 0.36587 -0.08592
 C1032 C 0.84462 0.35210 -0.10554
 C1033 C 0.91747 0.38649 -0.07238
 C1034 C 0.93307 0.40409 -0.05812
 H1035 H 0.90025 0.33433 -0.15410
 H1036 H 0.93548 0.35890 -0.11976
 H1037 H 0.85449 0.37528 -0.06722
 H1038 H 0.81924 0.35071 -0.10158
 C1039 C 0.31788 0.81598 0.33237
 C1040 C 0.33454 0.82717 0.35010
 C1041 C 0.35531 0.83999 0.37095
 C1042 C 0.38834 0.84108 0.36651
 C1043 C 0.40850 0.85458 0.38617
 C1044 C 0.39581 0.86695 0.41049
 C1045 C 0.36284 0.86525 0.41519
 C1046 C 0.34267 0.85175 0.39552
 C1047 C 0.41583 0.88494 0.42886
 C1048 C 0.43154 0.90253 0.44299
 H1049 H 0.39843 0.83204 0.34763
 H1050 H 0.43384 0.85618 0.38206
 H1051 H 0.35264 0.87518 0.43369
 H1052 H 0.31721 0.85104 0.39924
 C1053 C 1.17515 1.18292 0.33024
 C1054 C 1.15842 1.16638 0.34414
 C1055 C 1.13783 1.14508 0.35849
 C1056 C 1.10748 1.15507 0.36673
 C1057 C 1.08677 1.13360 0.37928
 C1058 C 1.09633 1.10212 0.38332
 C1059 C 1.12654 1.09208 0.37480
 C1060 C 1.14725 1.11354 0.36228
 C1061 C 1.07706 1.08137 0.39948
 C1062 C 1.06253 1.06508 0.41528
 H1063 H 1.09991 1.17937 0.36349
 H1064 H 1.06362 1.14164 0.38628
 H1065 H 1.13429 1.06790 0.37832
 H1066 H 1.17056 1.10558 0.35559
 C1067 C 0.67715 0.68156 -0.16933
 C1068 C 0.66095 0.66451 -0.15545
 C1069 C 0.64087 0.64267 -0.14122
 C1070 C 0.65281 0.61294 -0.13364
 C1071 C 0.63268 0.59071 -0.12145
 C1072 C 0.60056 0.59814 -0.11708
 C1073 C 0.58853 0.62776 -0.12490
 C1074 C 0.60868 0.64999 -0.13711
 C1075 C 0.58119 0.57726 -0.10115
 C1076 C 0.56612 0.56137 -0.08543
 H1077 H 0.67762 0.60699 -0.13717
 H1078 H 0.64224 0.56804 -0.11496
 H1079 H 0.56382 0.63384 -0.12110
 H1080 H 0.59921 0.67280 -0.14332
 C1081 C 0.82396 1.17803 0.66873
 C1082 C 0.84065 1.16112 0.65515
 C1083 C 0.86143 1.13962 0.64124
 C1084 C 0.85054 1.10928 0.63432
 C1085 C 0.87134 1.08756 0.62227
 C1086 C 0.90309 1.09609 0.61737
 C1087 C 0.91407 1.12632 0.62457
 C1088 C 0.89327 1.14805 0.63663
 C1089 C 0.92300 1.07564 0.60150
 C1090 C 0.93842 1.06006 0.58579
 H1091 H 0.82603 1.10247 0.63820
 H1092 H 0.86255 1.06440 0.61627
 H1093 H 0.93847 1.13328 0.62036
 H1094 H 0.90194 1.17135 0.64231
 C1095 C 0.32595 0.68119 0.16829
 C1096 C 0.34312 0.66490 0.15460
 C1097 C 0.36431 0.64393 0.14059
 C1098 C 0.39441 0.65459 0.13227
 C1099 C 0.41573 0.63347 0.12008
 C1100 C 0.40703 0.60167 0.11648
 C1101 C 0.37708 0.59096 0.12510
 C1102 C 0.35577 0.61207 0.13726
 C1103 C 0.42682 0.58122 0.10052
 C1104 C 0.44167 0.56517 0.08480
 H1105 H 0.40131 0.67914 0.13515
 H1106 H 0.43867 0.64201 0.11297
 H1107 H 0.36998 0.56652 0.12190
 H1108 H 0.33266 0.60361 0.14402
 C1109 C 1.18172 0.81810 0.67198
 C1110 C 1.16589 0.83436 0.65711
 C1111 C 1.14605 0.85509 0.64145
 C1112 C 1.15790 0.88446 0.63274
 C1113 C 1.13786 0.90572 0.61920
 C1114 C 1.10593 0.89767 0.61459
 C1115 C 1.09406 0.86835 0.62340
 C1116 C 1.11409 0.84710 0.63693
 C1117 C 1.08635 0.91794 0.59826
 C1118 C 1.07079 0.93354 0.58267
 H1119 H 1.18250 0.89095 0.63651
 H1120 H 1.14730 0.92818 0.61205
 H1121 H 1.06949 0.86180 0.61951
 H1122 H 1.10469 0.82457 0.64396
 C1123 C 0.67916 0.31638 0.17033
 C1124 C 0.66267 0.33238 0.15581
 C1125 C 0.64223 0.35291 0.14056
 C1126 C 0.61165 0.34274 0.13319
 C1127 C 0.59098 0.36360 0.11990
 C1128 C 0.60084 0.39465 0.11422
 C1129 C 0.63134 0.40486 0.12175
 C1130 C 0.65200 0.38401 0.13502
 C1131 C 0.58116 0.41484 0.09793
 C1132 C 0.56601 0.43075 0.08231
 H1133 H 0.60383 0.31882 0.13776
 H1134 H 0.56757 0.35544 0.11372
 H1135 H 0.63927 0.42871 0.11702
 H1136 H 0.67550 0.39212 0.14101
 C1137 C 0.82077 0.81799 0.33203
 C1138 C 0.83757 0.83386 0.34639
 C1139 C 0.85860 0.85417 0.36125
 C1140 C 0.84961 0.88556 0.36648
 C1141 C 0.87098 0.90621 0.37913
 C1142 C 0.90141 0.89551 0.38636
 C1143 C 0.91048 0.86417 0.38100
 C1144 C 0.88910 0.84351 0.36833
 C1145 C 0.92178 0.91550 0.40219
 C1146 C 0.93743 0.93121 0.41760
 H1147 H 0.82618 0.89406 0.36068
 H1148 H 0.86365 0.93030 0.38365
 H1149 H 0.93383 0.85562 0.38697
 H1150 H 0.89634 0.81936 0.36396
 C1151 C 0.31865 0.31997 -0.16800
 C1152 C 0.33475 0.33654 -0.15366
 C1153 C 0.35506 0.35760 -0.13886
 C1154 C 0.34327 0.38681 -0.12977
 C1155 C 0.36374 0.40841 -0.11718
 C1156 C 0.39601 0.40087 -0.11395
 C1157 C 0.40783 0.37174 -0.12320
 C1158 C 0.38736 0.35014 -0.13577
 C1159 C 0.41607 0.42118 -0.09816
 C1160 C 0.43207 0.43656 -0.08279
 H1161 H 0.31836 0.39288 -0.13249
 H1162 H 0.35437 0.43071 -0.10963
 H1163 H 0.43268 0.36556 -0.12032
 H1164 H 0.39670 0.32775 -0.14315
 C1165 C 1.17380 0.31117 -0.16703
 C1166 C 1.15646 0.32209 -0.14966
 C1167 C 1.13550 0.33536 -0.12919
 C1168 C 1.10321 0.34036 -0.13521
 C1169 C 1.08328 0.35511 -0.11603
 C1170 C 1.09547 0.36485 -0.09066
 C1171 C 1.12758 0.35913 -0.08439
 C1172 C 1.14752 0.34438 -0.10356
 C1173 C 1.07630 0.38418 -0.07266
 C1174 C 1.06142 0.40263 -0.05871
 H1175 H 1.09363 0.33356 -0.15495
 H1176 H 1.05864 0.35981 -0.12132
 H1177 H 1.13744 0.36696 -0.06503
 H1178 H 1.17244 0.34071 -0.09867
 C1179 C 0.67466 0.81129 0.33364
 C1180 C 0.65729 0.82212 0.35108
 C1181 C 0.63618 0.83520 0.37161
 C1182 C 0.60371 0.83939 0.36580
 C1183 C 0.58356 0.85379 0.38504
 C1184 C 0.59569 0.86401 0.41030
 C1185 C 0.62801 0.85915 0.41636
 C1186 C 0.64816 0.84475 0.39712
 C1187 C 0.57613 0.88293 0.42841
 C1188 C 0.56092 0.90111 0.44243
 H1189 H 0.59412 0.83218 0.34617
 H1190 H 0.55877 0.85782 0.37989
 H1191 H 0.63784 0.86735 0.43561
 H1192 H 0.67320 0.84172 0.40188
 C1193 C 0.82173 0.68926 -0.16615
 C1194 C 0.83842 0.67819 -0.14839
 C1195 C 0.85855 0.66490 -0.12732
 C1196 C 0.89160 0.66296 -0.13134
 C1197 C 0.91096 0.64840 -0.11163
 C1198 C 0.89742 0.63579 -0.08771
 C1199 C 0.86446 0.63841 -0.08340
 C1200 C 0.84510 0.65296 -0.10311
 C1201 C 0.91654 0.61674 -0.06944
 C1202 C 0.93176 0.59851 -0.05553
 H1203 H 0.90230 0.67204 -0.14997
 H1204 H 0.93631 0.64612 -0.11543
 H1205 H 0.85361 0.62834 -0.06522
 H1206 H 0.81960 0.65426 -0.09976
 C1207 C 0.32055 1.18813 0.33414
 C1208 C 0.33711 1.17683 0.35193
 C1209 C 0.35718 1.16329 0.37300
 C1210 C 0.39027 1.16152 0.36916
 C1211 C 0.40958 1.14688 0.38888
 C1212 C 0.39597 1.13401 0.41268
 C1213 C 0.36295 1.13641 0.41679
 C1214 C 0.34364 1.15104 0.39706
 C1215 C 0.41514 1.11506 0.43107
 C1216 C 0.43040 1.09692 0.44509
 H1217 H 0.40107 1.17084 0.35065
 H1218 H 0.43497 1.14480 0.38521
 H1219 H 0.35202 1.12616 0.43487
 H1220 H 0.31811 1.15220 0.40031
 C1221 C 1.17972 0.68636 0.16346
 C1222 C 1.16287 0.67563 0.14567
 C1223 C 1.14232 0.66286 0.12467
 C1224 C 1.10922 0.66210 0.12869
 C1225 C 1.08935 0.64806 0.10910
 C1226 C 1.10244 0.63480 0.08528
 C1227 C 1.13547 0.63625 0.08095
 C1228 C 1.15534 0.65030 0.10055
 C1229 C 1.08269 0.61615 0.06721
 C1230 C 1.06702 0.59814 0.05348
 H1231 H 1.09884 0.67170 0.14726
 H1232 H 1.06394 0.64666 0.11292
 H1233 H 1.14596 0.62566 0.06285
 H1234 H 1.18087 0.65069 0.09719
 C1235 C 0.67834 1.18589 0.66443
 C1236 C 0.66141 1.17486 0.64679
 C1237 C 0.64084 1.16168 0.62593
 C1238 C 0.60779 1.16023 0.63020
 C1239 C 0.58798 1.14593 0.61068
 C1240 C 0.60103 1.13307 0.58667
 C1241 C 0.63399 1.13515 0.58213
 C1242 C 0.65381 1.14945 0.60165
 C1243 C 0.58135 1.11437 0.56850
 C1244 C 0.56571 1.09640 0.55465
 H1245 H 0.59742 1.16954 0.64887
 H1246 H 0.56263 1.14407 0.61468
 H1247 H 0.64449 1.12490 0.56388
 H1248 H 0.67929 1.15036 0.59808
 C1249 C 0.82441 0.31185 0.16835
 C1250 C 0.84128 0.32325 0.15081
 C1251 C 0.86171 0.33702 0.13010
 C1252 C 0.89426 0.34154 0.13539
 C1253 C 0.91376 0.35647 0.11595
 C1254 C 0.90090 0.36689 0.09101
 C1255 C 0.86850 0.36175 0.08548
 C1256 C 0.84899 0.34682 0.10493
 C1257 C 0.91990 0.38602 0.07262
 C1258 C 0.93478 0.40418 0.05831
 H1259 H 0.90441 0.33413 0.15477
 H1260 H 0.93864 0.36067 0.12068
 H1261 H 0.85812 0.37008 0.06648
 H1262 H 0.82388 0.34354 0.10057
 C1263 C 0.32298 0.81115 0.67051
 C1264 C 0.33990 0.82260 0.65297
 C1265 C 0.36032 0.83637 0.63218
 C1266 C 0.39279 0.84139 0.63753
 C1267 C 0.41226 0.85617 0.61795
 C1268 C 0.39947 0.86597 0.59279
 C1269 C 0.36714 0.86039 0.58723
 C1270 C 0.34767 0.84561 0.60682
 C1271 C 0.41847 0.88484 0.57410
 C1272 C 0.43336 0.90280 0.55956
 H1273 H 0.40291 0.83443 0.65704
 H1274 H 0.43707 0.86070 0.62272
 H1275 H 0.35679 0.86821 0.56806
 H1276 H 0.32263 0.84195 0.60238
 C1277 C 0.31541 1.18241 -0.16577
 C1278 C 0.32660 1.16584 -0.14798
 C1279 C 0.33946 1.14531 -0.12698
 C1280 C 0.33950 1.11233 -0.13076
 C1281 C 0.35312 1.09239 -0.11100
 C1282 C 0.36667 1.10526 -0.08723
 C1283 C 0.36601 1.13821 -0.08318
 C1284 C 0.35240 1.15816 -0.10295
 C1285 C 0.38479 1.08530 -0.06888
 C1286 C 0.40249 1.06949 -0.05490
 H1287 H 0.32958 1.10206 -0.14922
 H1288 H 0.35390 1.06705 -0.11462
 H1289 H 0.37684 1.14855 -0.06513
 H1290 H 0.35252 1.18359 -0.09974
 C1291 C 0.81534 0.68139 0.33366
 C1292 C 0.82654 0.66477 0.35142
 C1293 C 0.83941 0.64429 0.37245
 C1294 C 0.84003 0.61133 0.36852
 C1295 C 0.85361 0.59148 0.38836
 C1296 C 0.86655 0.60440 0.41236
 C1297 C 0.86532 0.63730 0.41655
 C1298 C 0.85173 0.65717 0.39671
 C1299 C 0.88467 0.58459 0.43083
 C1300 C 0.90238 0.56891 0.44491
 H1301 H 0.83057 0.60104 0.34989
 H1302 H 0.85485 0.56617 0.38462
 H1303 H 0.87568 0.64769 0.43479
 H1304 H 0.85139 0.68258 0.40004
 C1305 C 0.68581 1.17944 0.16831
 C1306 C 0.67450 1.16265 0.15074
 C1307 C 0.66136 1.14192 0.13003
 C1308 C 0.65883 1.10924 0.13504
 C1309 C 0.64493 1.08922 0.11550
 C1310 C 0.63358 1.10169 0.09073
 C1311 C 0.63671 1.13427 0.08548
 C1312 C 0.65061 1.15430 0.10502
 C1313 C 0.61524 1.08197 0.07235
 C1314 C 0.59742 1.06657 0.05815
 H1315 H 0.66705 1.09933 0.15426
 H1316 H 0.64223 1.06420 0.12004
 H1317 H 0.62760 1.14434 0.06662
 H1318 H 0.65242 1.17949 0.10086
 C1319 C 1.18452 0.68158 0.66757
 C1320 C 1.17336 0.66461 0.65005
 C1321 C 1.16045 0.64350 0.62952
 C1322 C 1.15826 0.61086 0.63484
 C1323 C 1.14459 0.59043 0.61550
 C1324 C 1.13313 0.60244 0.59060
 C1325 C 1.13592 0.63499 0.58503
 C1326 C 1.14959 0.65543 0.60439
 C1327 C 1.11499 0.58230 0.57240
 C1328 C 1.09729 0.56661 0.55832
 H1329 H 1.16657 0.60129 0.65416
 H1330 H 1.14215 0.56544 0.62028
 H1331 H 1.12672 0.64471 0.56607
 H1332 H 1.15113 0.68058 0.59997
 C1333 C 0.68253 0.82048 -0.16613
 C1334 C 0.67166 0.83775 -0.14870
 C1335 C 0.65921 0.85928 -0.12829
 C1336 C 0.64888 0.84788 -0.10281
 C1337 C 0.63568 0.86874 -0.08354
 C1338 C 0.63285 0.90117 -0.08956
 C1339 C 0.64382 0.91266 -0.11483
 C1340 C 0.65703 0.89181 -0.13408
 C1341 C 0.61499 0.92166 -0.07147
 C1342 C 0.59741 0.93756 -0.05747
 H1343 H 0.65045 0.82282 -0.09804
 H1344 H 0.62683 0.85943 -0.06429
 H1345 H 0.64133 0.93755 -0.11996
 H1346 H 0.66495 0.90096 -0.15369
 C1347 C 1.18278 0.32102 0.33368
 C1348 C 1.17189 0.33824 0.35114
 C1349 C 1.15942 0.35963 0.37164
 C1350 C 1.15711 0.39218 0.36599
 C1351 C 1.14387 0.41288 0.38534
 C1352 C 1.13299 0.40122 0.41058
 C1353 C 1.13593 0.36877 0.41647
 C1354 C 1.14917 0.34806 0.39710
 C1355 C 1.11509 0.42156 0.42877
 C1356 C 1.09748 0.43736 0.44283
 H1357 H 1.16497 0.40146 0.34641
 H1358 H 1.14128 0.43779 0.38031
 H1359 H 1.12715 0.35933 0.43570
 H1360 H 1.15083 0.32298 0.40176
 C1361 C 0.31757 0.81863 0.16485
 C1362 C 0.32846 0.83557 0.14718
 C1363 C 0.34084 0.85650 0.12627
 C1364 C 0.35354 0.84413 0.10196
 C1365 C 0.36665 0.86449 0.08224
 C1366 C 0.36700 0.89737 0.08663
 C1367 C 0.35364 0.90978 0.11067
 C1368 C 0.34053 0.88943 0.13039
 C1369 C 0.38482 0.91774 0.06841
 C1370 C 0.40241 0.93387 0.05459
 H1371 H 0.35390 0.81874 0.09849
 H1372 H 0.37737 0.85452 0.06396
 H1373 H 0.35422 0.93508 0.11456
 H1374 H 0.33075 0.89932 0.14907
 C1375 C 0.81803 0.31663 0.66384
 C1376 C 0.82887 0.33362 0.64617
 C1377 C 0.84118 0.35482 0.62542
 C1378 C 0.85469 0.34276 0.60131
 C1379 C 0.86777 0.36344 0.58182
 C1380 C 0.86731 0.39633 0.58624
 C1381 C 0.85316 0.40840 0.61008
 C1382 C 0.84007 0.38773 0.62955
 C1383 C 0.88506 0.41711 0.56830
 C1384 C 0.90259 0.43353 0.55468
 H1385 H 0.85568 0.31739 0.59783
 H1386 H 0.87910 0.35374 0.56371
 H1387 H 0.85309 0.43369 0.61400
 H1388 H 0.82967 0.39737 0.64809
 C1389 C 1.18342 1.17806 0.66789
 C1390 C 1.16793 1.16086 0.65360
 C1391 C 1.14798 1.13937 0.63890
 C1392 C 1.16016 1.11027 0.62991
 C1393 C 1.13997 1.08837 0.61736
 C1394 C 1.10760 1.09550 0.61408
 C1395 C 1.09541 1.12450 0.62326
 C1396 C 1.11558 1.14639 0.63577
 C1397 C 1.08780 1.07497 0.59827
 C1398 C 1.07194 1.05948 0.58287
 H1399 H 1.18514 1.10454 0.63265
 H1400 H 1.14963 1.06617 0.60985
 H1401 H 1.07048 1.13036 0.62034
 H1402 H 1.10595 1.16869 0.64307
 C1403 C 0.68146 0.68000 0.16781
 C1404 C 0.66532 0.66346 0.15346
 C1405 C 0.64471 0.64270 0.13862
 C1406 C 0.65433 0.61153 0.13325
 C1407 C 0.63329 0.59050 0.12063
 C1408 C 0.60258 0.60060 0.11362
 C1409 C 0.59290 0.63172 0.11913
 C1410 C 0.61394 0.65275 0.13175
 C1411 C 0.58246 0.58032 0.09783
 C1412 C 0.56690 0.56450 0.08244
 H1413 H 0.67797 0.60350 0.13890
 H1414 H 0.64108 0.56658 0.11599
 H1415 H 0.56934 0.63981 0.11332
 H1416 H 0.60622 0.67672 0.13622
 C1417 C 1.17899 0.81902 0.32787
 C1418 C 1.16202 0.83513 0.34189
 C1419 C 1.14063 0.85528 0.35656
 C1420 C 1.11152 0.84328 0.36602
 C1421 C 1.08991 0.86341 0.37903
 C1422 C 1.09733 0.89556 0.38233
 C1423 C 1.12629 0.90762 0.37259
 C1424 C 1.14790 0.88749 0.35959
 C1425 C 1.07731 0.91513 0.39889
 C1426 C 1.06228 0.93061 0.41492
 H1427 H 1.10561 0.81844 0.36339
 H1428 H 1.06776 0.85384 0.38697
 H1429 H 1.13239 0.93237 0.37553
 H1430 H 1.17023 0.89698 0.35198
 C1431 C 0.68154 0.32214 -0.17264
 C1432 C 0.66519 0.33898 -0.15869
 C1433 C 0.64440 0.35982 -0.14407
 C1434 C 0.65509 0.38989 -0.13614
 C1435 C 0.63422 0.41078 -0.12310
 C1436 C 0.60262 0.40166 -0.11823
 C1437 C 0.59185 0.37173 -0.12644
 C1438 C 0.61271 0.35084 -0.13946
 C1439 C 0.58255 0.42122 -0.10167
 C1440 C 0.56690 0.43612 -0.08565
 H1441 H 0.67950 0.39711 -0.13997
 H1442 H 0.64284 0.43372 -0.11636
 H1443 H 0.56757 0.36433 -0.12230
 H1444 H 0.60420 0.32774 -0.14587
 C1445 C 0.82064 1.17883 0.33359
 C1446 C 0.83712 1.16245 0.34780
 C1447 C 0.85814 1.14190 0.36245
 C1448 C 0.84926 1.11038 0.36729
 C1449 C 0.87072 1.08961 0.37972
 C1450 C 0.90111 1.10032 0.38707
 C1451 C 0.91005 1.13179 0.38209
 C1452 C 0.88859 1.15256 0.36967
 C1453 C 0.92158 1.08021 0.40270
 C1454 C 0.93737 1.06445 0.41797
 H1455 H 0.82587 1.10189 0.36137
 H1456 H 0.86349 1.06541 0.38395
 H1457 H 0.93336 1.14035 0.38817
 H1458 H 0.89574 1.17682 0.36560
 C1459 C 0.31769 0.67738 -0.16690
 C1460 C 0.33372 0.66043 -0.15279
 C1461 C 0.35434 0.63935 -0.13824
 C1462 C 0.34347 0.60925 -0.13050
 C1463 C 0.36438 0.58789 -0.11808
 C1464 C 0.39618 0.59656 -0.11367
 C1465 C 0.40708 0.62658 -0.12159
 C1466 C 0.38618 0.64793 -0.13398
 C1467 C 0.41656 0.57634 -0.09802
 C1468 C 0.43274 0.56097 -0.08274
 H1469 H 0.31895 0.60232 -0.13412
 H1470 H 0.35568 0.56488 -0.11156
 H1471 H 0.43153 0.63363 -0.11781
 H1472 H 0.39484 0.67104 -0.14029
 C1473 C 0.81799 0.82346 0.66957
 C1474 C 0.83479 0.83991 0.65567
 C1475 C 0.85636 0.86026 0.64140
 C1476 C 0.88735 0.84974 0.63586
 C1477 C 0.90923 0.87022 0.62359
 C1478 C 0.90017 0.90126 0.61708
 C1479 C 0.86927 0.91189 0.62286
 C1480 C 0.84738 0.89140 0.63515
 C1481 C 0.92103 0.92060 0.60110
 C1482 C 0.93717 0.93537 0.58535
 H1483 H 0.89455 0.82579 0.64103
 H1484 H 0.93293 0.86169 0.61870
 H1485 H 0.86196 0.93572 0.61740
 H1486 H 0.82356 0.89979 0.63977
 C1487 C 0.31990 0.32235 0.16996
 C1488 C 0.33709 0.33840 0.15604
 C1489 C 0.35897 0.35833 0.14164
 C1490 C 0.38839 0.34614 0.13313
 C1491 C 0.41060 0.36606 0.12059
 C1492 C 0.40347 0.39820 0.11680
 C1493 C 0.37417 0.41045 0.12556
 C1494 C 0.35196 0.39053 0.13810
 C1495 C 0.42422 0.41749 0.10063
 C1496 C 0.43992 0.43264 0.08481
 H1497 H 0.39410 0.32132 0.13618
 H1498 H 0.43300 0.35633 0.11340
 H1499 H 0.36829 0.43519 0.12222
 H1500 H 0.32940 0.40018 0.14500
   
