data_POSCAR
  _audit_creation_date              2014-09-24
  _audit_creation_method            'ToBaCCo'
  _symmetry_space_group_name_H-M    'P1'
  _symmetry_Int_Tables_number       1
  _symmetry_cell_setting            triclinic
  loop_
  _symmetry_equiv_pos_as_xyz
 x,y,z
_cell_length_a 92.8773
_cell_length_b 92.9520
_cell_length_c 93.0385
_cell_angle_alpha 89.981700
_cell_angle_beta 89.981900
_cell_angle_gamma 89.945200
loop_
  _atom_site_label
  _atom_site_type_symbol
  _atom_site_fract_x
  _atom_site_fract_y
  _atom_site_fract_z
N1 N 0.36191 0.32194 0.33215
 N2 N 0.36175 0.33200 0.32220
 C3 C 0.37293 0.32990 0.31320
 C4 C 0.38037 0.31794 0.31781
 C5 C 0.37317 0.31310 0.32982
 H6 H 0.37552 0.33657 0.30403
 H7 H 0.37596 0.30391 0.33638
 Cu8 Cu 0.34705 0.34692 0.32220
 Cu9 Cu 0.34759 0.32106 0.34742
 Cu10 Cu 0.32114 0.34746 0.34740
 N11 N 0.33210 0.36160 0.32217
 N12 N 0.32202 0.36176 0.33211
 C13 C 0.31317 0.37301 0.32976
 C14 C 0.31801 0.38019 0.31774
 C15 C 0.33000 0.37276 0.31315
 H16 H 0.30396 0.37579 0.33631
 H17 H 0.33667 0.37535 0.30398
 N18 N 0.32209 0.33206 0.36195
 N19 N 0.33216 0.32200 0.36196
 C20 C 0.32992 0.31312 0.37319
 C21 C 0.31793 0.31785 0.38049
 C22 C 0.31319 0.32983 0.37318
 H23 H 0.33650 0.30390 0.37589
 H24 H 0.30396 0.33639 0.37587
 H25 H 0.33135 0.33123 0.33615
 H26 H 0.34292 0.34281 0.34777
 N27 N 0.36225 0.82206 -0.16814
 N28 N 0.36211 0.83214 -0.17808
 C29 C 0.37330 0.83003 -0.18709
 C30 C 0.38071 0.81804 -0.18246
 C31 C 0.37350 0.81321 -0.17046
 H32 H 0.37591 0.83670 -0.19625
 H33 H 0.37625 0.80400 -0.16389
 Cu34 Cu 0.34739 0.84709 -0.17809
 Cu35 Cu 0.34791 0.82119 -0.15288
 Cu36 Cu 0.32145 0.84757 -0.15291
 N37 N 0.33240 0.86177 -0.17813
 N38 N 0.32229 0.86190 -0.16821
 C39 C 0.31341 0.87312 -0.17057
 C40 C 0.31825 0.88032 -0.18258
 C41 C 0.33028 0.87293 -0.18717
 H42 H 0.30417 0.87586 -0.16402
 H43 H 0.33697 0.87553 -0.19632
 N44 N 0.32240 0.83216 -0.13835
 N45 N 0.33248 0.82211 -0.13834
 C46 C 0.33027 0.81323 -0.12710
 C47 C 0.31828 0.81795 -0.11978
 C48 C 0.31351 0.82991 -0.12711
 H49 H 0.33687 0.80403 -0.12440
 H50 H 0.30428 0.83647 -0.12441
 H51 H 0.33168 0.83134 -0.16417
 H52 H 0.34322 0.84291 -0.15254
 N53 N 0.86158 0.32239 -0.16808
 N54 N 0.86129 0.33233 -0.17816
 C55 C 0.87244 0.33021 -0.18719
 C56 C 0.88001 0.31836 -0.18245
 C57 C 0.87291 0.31363 -0.17035
 H58 H 0.87494 0.33678 -0.19645
 H59 H 0.87580 0.30454 -0.16368
 Cu60 Cu 0.84647 0.34714 -0.17815
 Cu61 Cu 0.84734 0.32159 -0.15270
 Cu62 Cu 0.82092 0.34804 -0.15268
 N63 N 0.83169 0.36198 -0.17814
 N64 N 0.82174 0.36229 -0.16805
 C65 C 0.81299 0.37363 -0.17030
 C66 C 0.81776 0.38071 -0.18241
 C67 C 0.82959 0.37313 -0.18717
 H68 H 0.80391 0.37653 -0.16362
 H69 H 0.83618 0.37561 -0.19643
 N70 N 0.82193 0.33268 -0.13808
 N71 N 0.83199 0.32261 -0.13809
 C72 C 0.82977 0.31374 -0.12685
 C73 C 0.81780 0.31849 -0.11952
 C74 C 0.81305 0.33047 -0.12683
 H75 H 0.83633 0.30450 -0.12418
 H76 H 0.80383 0.33703 -0.12414
 H77 H 0.83093 0.33164 -0.16381
 H78 H 0.84266 0.34332 -0.15250
 N79 N 0.86172 0.82237 0.33210
 N80 N 0.86158 0.83244 0.32217
 C81 C 0.87278 0.83037 0.31319
 C82 C 0.88021 0.81839 0.31780
 C83 C 0.87299 0.81354 0.32978
 H84 H 0.87537 0.83702 0.30401
 H85 H 0.87574 0.80431 0.33632
 Cu86 Cu 0.84671 0.84720 0.32202
 Cu87 Cu 0.84736 0.82145 0.34734
 Cu88 Cu 0.82092 0.84785 0.34733
 N89 N 0.83193 0.86205 0.32215
 N90 N 0.82184 0.86220 0.33208
 C91 C 0.81300 0.87346 0.32975
 C92 C 0.81787 0.88065 0.31775
 C93 C 0.82987 0.87324 0.31314
 H94 H 0.80376 0.87621 0.33628
 H95 H 0.83654 0.87582 0.30397
 N96 N 0.82183 0.83241 0.36184
 N97 N 0.83190 0.82236 0.36184
 C98 C 0.82967 0.81347 0.37308
 C99 C 0.81769 0.81821 0.38039
 C100 C 0.81294 0.83018 0.37307
 H101 H 0.83627 0.80427 0.37579
 H102 H 0.80373 0.83677 0.37578
 H103 H 0.83106 0.83156 0.33613
 H104 H 0.84268 0.84318 0.34763
 N105 N 0.63812 0.67805 0.33221
 N106 N 0.63843 0.66812 0.32213
 C107 C 0.62727 0.67023 0.31311
 C108 C 0.61969 0.68206 0.31784
 C109 C 0.62679 0.68680 0.32994
 H110 H 0.62479 0.66366 0.30384
 H111 H 0.62388 0.69588 0.33661
 Cu112 Cu 0.65327 0.65335 0.32212
 Cu113 Cu 0.65236 0.67887 0.34757
 Cu114 Cu 0.67882 0.65245 0.34756
 N115 N 0.66807 0.63853 0.32211
 N116 N 0.67801 0.63823 0.33219
 C117 C 0.68679 0.62692 0.32990
 C118 C 0.68205 0.61984 0.31780
 C119 C 0.67019 0.62740 0.31308
 H120 H 0.69588 0.62402 0.33656
 H121 H 0.66362 0.62492 0.30381
 N122 N 0.67779 0.66779 0.36216
 N123 N 0.66771 0.67785 0.36217
 C124 C 0.66992 0.68671 0.37341
 C125 C 0.68190 0.68197 0.38073
 C126 C 0.68666 0.67001 0.37341
 H127 H 0.66335 0.69594 0.37609
 H128 H 0.69590 0.66345 0.37609
 H129 H 0.66878 0.66886 0.33644
 H130 H 0.65707 0.65715 0.34776
 N131 N 0.63816 0.17763 -0.16782
 N132 N 0.63830 0.16754 -0.17774
 C133 C 0.62709 0.16963 -0.18672
 C134 C 0.61964 0.18160 -0.18209
 C135 C 0.62688 0.18644 -0.17012
 H136 H 0.62449 0.16298 -0.19589
 H137 H 0.62411 0.19566 -0.16358
 Cu138 Cu 0.65318 0.15277 -0.17787
 Cu139 Cu 0.65253 0.17856 -0.15259
 Cu140 Cu 0.67900 0.15218 -0.15261
 N141 N 0.66799 0.13793 -0.17777
 N142 N 0.67810 0.13780 -0.16786
 C143 C 0.68695 0.12655 -0.17018
 C144 C 0.68209 0.11933 -0.18217
 C145 C 0.67009 0.12675 -0.18678
 H146 H 0.69618 0.12380 -0.16365
 H147 H 0.66341 0.12417 -0.19595
 N148 N 0.67808 0.16764 -0.13810
 N149 N 0.66800 0.17768 -0.13811
 C150 C 0.67021 0.18658 -0.12689
 C151 C 0.68219 0.18187 -0.11956
 C152 C 0.68697 0.16990 -0.12687
 H153 H 0.66360 0.19577 -0.12419
 H154 H 0.69619 0.16333 -0.12416
 H155 H 0.66884 0.16847 -0.16384
 H156 H 0.65724 0.15684 -0.15231
 N157 N 0.13808 0.67794 -0.16773
 N158 N 0.13822 0.66786 -0.17767
 C159 C 0.12706 0.66999 -0.18668
 C160 C 0.11968 0.68202 -0.18211
 C161 C 0.12688 0.68683 -0.17010
 H162 H 0.12449 0.66337 -0.19587
 H163 H 0.12414 0.69608 -0.16360
 Cu164 Cu 0.15290 0.65293 -0.17765
 Cu165 Cu 0.15241 0.67882 -0.15248
 Cu166 Cu 0.17880 0.65239 -0.15247
 N167 N 0.16782 0.63823 -0.17766
 N168 N 0.17790 0.63807 -0.16773
 C169 C 0.18677 0.62686 -0.17009
 C170 C 0.18195 0.61967 -0.18210
 C171 C 0.16993 0.62707 -0.18668
 H172 H 0.19602 0.62411 -0.16358
 H173 H 0.16330 0.62451 -0.19586
 N174 N 0.17788 0.66780 -0.13795
 N175 N 0.16782 0.67787 -0.13795
 C176 C 0.17006 0.68676 -0.12673
 C177 C 0.18204 0.68201 -0.11942
 C178 C 0.18677 0.67003 -0.12672
 H179 H 0.16351 0.69599 -0.12404
 H180 H 0.19601 0.66346 -0.12403
 H181 H 0.16867 0.66866 -0.16379
 H182 H 0.15710 0.65713 -0.15213
 N183 N 0.13802 0.17793 0.33223
 N184 N 0.13818 0.16787 0.32228
 C185 C 0.12698 0.16995 0.31330
 C186 C 0.11951 0.18189 0.31795
 C187 C 0.12673 0.18673 0.32994
 H188 H 0.12439 0.16331 0.30412
 H189 H 0.12396 0.19593 0.33649
 Cu190 Cu 0.15305 0.15312 0.32212
 Cu191 Cu 0.15237 0.17884 0.34746
 Cu192 Cu 0.17881 0.15244 0.34744
 N193 N 0.16782 0.13828 0.32225
 N194 N 0.17790 0.13812 0.33218
 C195 C 0.18672 0.12684 0.32987
 C196 C 0.18187 0.11965 0.31787
 C197 C 0.16990 0.12710 0.31325
 H198 H 0.19594 0.12407 0.33641
 H199 H 0.16325 0.12452 0.30407
 N200 N 0.17789 0.16786 0.36195
 N201 N 0.16781 0.17792 0.36196
 C202 C 0.17004 0.18680 0.37319
 C203 C 0.18202 0.18206 0.38050
 C204 C 0.18678 0.17009 0.37318
 H205 H 0.16344 0.19599 0.37591
 H206 H 0.19599 0.16350 0.37588
 H207 H 0.16868 0.16875 0.33624
 H208 H 0.15706 0.15711 0.34772
 N209 N 0.63811 0.32202 0.66783
 N210 N 0.63822 0.33209 0.67779
 C211 C 0.62705 0.33000 0.68677
 C212 C 0.61961 0.31805 0.68218
 C213 C 0.62683 0.31320 0.67018
 H214 H 0.62441 0.33666 0.69598
 H215 H 0.62410 0.30401 0.66364
 Cu216 Cu 0.65300 0.34694 0.67787
 Cu217 Cu 0.65244 0.32113 0.65260
 Cu218 Cu 0.67884 0.34750 0.65259
 N219 N 0.66787 0.36171 0.67778
 N220 N 0.67795 0.36182 0.66781
 C221 C 0.68678 0.37309 0.67015
 C222 C 0.68193 0.38030 0.68216
 C223 C 0.66996 0.37287 0.68675
 H224 H 0.69598 0.37581 0.66362
 H225 H 0.66330 0.37550 0.69597
 N226 N 0.67793 0.33208 0.63806
 N227 N 0.66787 0.32203 0.63807
 C228 C 0.67011 0.31314 0.62684
 C229 C 0.68209 0.31787 0.61952
 C230 C 0.68683 0.32983 0.62683
 H231 H 0.66354 0.30394 0.62414
 H232 H 0.69604 0.33640 0.62412
 H233 H 0.66868 0.33127 0.66384
 H234 H 0.65710 0.34284 0.65231
 N235 N 0.63810 0.82216 1.16792
 N236 N 0.63825 0.83224 1.17785
 C237 C 0.62709 0.83014 1.18688
 C238 C 0.61967 0.81817 1.18229
 C239 C 0.62686 0.81333 1.17027
 H240 H 0.62451 0.83680 1.19606
 H241 H 0.62409 0.80412 1.16373
 Cu242 Cu 0.65292 0.84714 1.17784
 Cu243 Cu 0.65242 0.82128 1.15264
 Cu244 Cu 0.67884 0.84763 1.15266
 N245 N 0.66787 0.86177 1.17787
 N246 N 0.67796 0.86190 1.16794
 C247 C 0.68683 0.87310 1.17029
 C248 C 0.68199 0.88029 1.18230
 C249 C 0.66999 0.87290 1.18690
 H250 H 0.69605 0.87586 1.16376
 H251 H 0.66333 0.87550 1.19607
 N252 N 0.67790 0.83225 1.13813
 N253 N 0.66783 0.82221 1.13812
 C254 C 0.67007 0.81335 1.12688
 C255 C 0.68205 0.81809 1.11957
 C256 C 0.68679 0.83004 1.12690
 H257 H 0.66349 0.80415 1.12416
 H258 H 0.69601 0.83660 1.12421
 H259 H 0.66865 0.83142 1.16393
 H260 H 0.65709 0.84301 1.15230
 N261 N 0.13804 0.32227 1.16787
 N262 N 0.13820 0.33234 1.17781
 C263 C 0.12699 0.33031 1.18677
 C264 C 0.11955 0.31834 1.18217
 C265 C 0.12677 0.31348 1.17019
 H266 H 0.12443 0.33695 1.19596
 H267 H 0.12403 0.30424 1.16367
 Cu268 Cu 0.15305 0.34707 1.17796
 Cu269 Cu 0.15243 0.32132 1.15265
 Cu270 Cu 0.17882 0.34770 1.15263
 N271 N 0.16780 0.36191 1.17778
 N272 N 0.17786 0.36207 1.16783
 C273 C 0.18667 0.37333 1.17012
 C274 C 0.18181 0.38054 1.18211
 C275 C 0.16984 0.37312 1.18673
 H276 H 0.19591 0.37607 1.16359
 H277 H 0.16319 0.37568 1.19593
 N278 N 0.17794 0.33226 1.13816
 N279 N 0.16789 0.32221 1.13816
 C280 C 0.17015 0.31331 1.12695
 C281 C 0.18214 0.31804 1.11965
 C282 C 0.18685 0.33002 1.12695
 H283 H 0.16358 0.30410 1.12425
 H284 H 0.19606 0.33659 1.12424
 H285 H 0.16874 0.33141 1.16389
 H286 H 0.15709 0.34304 1.15238
 N287 N 0.13813 0.82221 0.66778
 N288 N 0.13829 0.83227 0.67773
 C289 C 0.12713 0.83018 0.68675
 C290 C 0.11969 0.81823 0.68213
 C291 C 0.12688 0.81339 0.67012
 H292 H 0.12455 0.83683 0.69593
 H293 H 0.12411 0.80419 0.66358
 Cu294 Cu 0.15298 0.84717 0.67772
 Cu295 Cu 0.15245 0.82133 0.65250
 Cu296 Cu 0.17887 0.84769 0.65251
 N297 N 0.16790 0.86182 0.67773
 N298 N 0.17798 0.86197 0.66779
 C299 C 0.18682 0.87320 0.67013
 C300 C 0.18198 0.88038 0.68213
 C301 C 0.17001 0.87297 0.68675
 H302 H 0.19604 0.87596 0.66358
 H303 H 0.16335 0.87556 0.69593
 N304 N 0.17792 0.83232 0.63797
 N305 N 0.16786 0.82228 0.63796
 C306 C 0.17011 0.81340 0.62673
 C307 C 0.18209 0.81814 0.61943
 C308 C 0.18682 0.83010 0.62675
 H309 H 0.16354 0.80420 0.62402
 H310 H 0.19604 0.83667 0.62406
 H311 H 0.16870 0.83147 0.66378
 H312 H 0.15712 0.84306 0.65216
 N313 N 0.36184 0.67807 0.66798
 N314 N 0.36155 0.66813 0.67805
 C315 C 0.37270 0.67023 0.68708
 C316 C 0.38028 0.68206 0.68234
 C317 C 0.37317 0.68682 0.67025
 H318 H 0.37520 0.66365 0.69634
 H319 H 0.37605 0.69590 0.66358
 Cu320 Cu 0.34672 0.65334 0.67805
 Cu321 Cu 0.34759 0.67890 0.65261
 Cu322 Cu 0.32117 0.65249 0.65260
 N323 N 0.33193 0.63852 0.67804
 N324 N 0.32200 0.63824 0.66796
 C325 C 0.31325 0.62691 0.67022
 C326 C 0.31799 0.61980 0.68232
 C327 C 0.32983 0.62736 0.68706
 H328 H 0.30416 0.62403 0.66355
 H329 H 0.33641 0.62486 0.69632
 N330 N 0.32217 0.66786 0.63801
 N331 N 0.33223 0.67791 0.63801
 C332 C 0.33000 0.68679 0.62677
 C333 C 0.31803 0.68205 0.61944
 C334 C 0.31329 0.67009 0.62676
 H335 H 0.33656 0.69601 0.62409
 H336 H 0.30407 0.66353 0.62408
 H337 H 0.33118 0.66888 0.66373
 H338 H 0.34291 0.65718 0.65240
 N339 N 0.36195 0.17783 1.16795
 N340 N 0.36166 0.16789 1.17802
 C341 C 0.37282 0.16996 1.18704
 C342 C 0.38039 0.18180 1.18231
 C343 C 0.37328 0.18657 1.17022
 H344 H 0.37532 0.16338 1.19630
 H345 H 0.37617 0.19566 1.16356
 Cu346 Cu 0.34684 0.15313 1.17803
 Cu347 Cu 0.34769 0.17869 1.15260
 Cu348 Cu 0.32125 0.15230 1.15263
 N349 N 0.33205 0.13835 1.17804
 N350 N 0.32210 0.13807 1.16798
 C351 C 0.31335 0.12676 1.17025
 C352 C 0.31811 0.11966 1.18233
 C353 C 0.32997 0.12719 1.18706
 H354 H 0.30424 0.12389 1.16361
 H355 H 0.33655 0.12468 1.19632
 N356 N 0.32224 0.16765 1.13805
 N357 N 0.33230 0.17770 1.13803
 C358 C 0.33005 0.18657 1.12680
 C359 C 0.31806 0.18183 1.11951
 C360 C 0.31334 0.16987 1.12684
 H361 H 0.33660 0.19580 1.12409
 H362 H 0.30410 0.16332 1.12417
 H363 H 0.33127 0.16868 1.16375
 H364 H 0.34298 0.15697 1.15241
 N365 N 0.86178 0.67792 1.16801
 N366 N 0.86149 0.66798 1.17808
 C367 C 0.87264 0.67006 1.18710
 C368 C 0.88021 0.68190 1.18237
 C369 C 0.87310 0.68666 1.17028
 H370 H 0.87514 0.66348 1.19637
 H371 H 0.87599 0.69576 1.16363
 Cu372 Cu 0.84667 0.65322 1.17808
 Cu373 Cu 0.84753 0.67876 1.15265
 Cu374 Cu 0.82112 0.65235 1.15265
 N375 N 0.83190 0.63842 1.17808
 N376 N 0.82197 0.63813 1.16800
 C377 C 0.81322 0.62681 1.17026
 C378 C 0.81798 0.61971 1.18235
 C379 C 0.82982 0.62726 1.18709
 H380 H 0.80412 0.62393 1.16361
 H381 H 0.83639 0.62475 1.19636
 N382 N 0.82211 0.66770 1.13807
 N383 N 0.83216 0.67776 1.13806
 C384 C 0.82992 0.68663 1.12683
 C385 C 0.81795 0.68189 1.11952
 C386 C 0.81322 0.66992 1.12684
 H387 H 0.83647 0.69586 1.12413
 H388 H 0.80400 0.66336 1.12416
 H389 H 0.83112 0.66874 1.16377
 H390 H 0.84284 0.65704 1.15245
 N391 N 0.86180 0.17783 0.66785
 N392 N 0.86167 0.16773 0.67777
 C393 C 0.87281 0.16984 0.68681
 C394 C 0.88021 0.18183 0.68222
 C395 C 0.87302 0.18668 0.67022
 H396 H 0.87541 0.16316 0.69596
 H397 H 0.87577 0.19590 0.66369
 Cu398 Cu 0.84705 0.15277 0.67774
 Cu399 Cu 0.84750 0.17868 0.65256
 Cu400 Cu 0.82112 0.15230 0.65256
 N401 N 0.83209 0.13816 0.67777
 N402 N 0.82199 0.13803 0.66784
 C403 C 0.81314 0.12681 0.67019
 C404 C 0.81799 0.11961 0.68218
 C405 C 0.82997 0.12701 0.68679
 H406 H 0.80392 0.12406 0.66366
 H407 H 0.83665 0.12439 0.69594
 N408 N 0.82206 0.16767 0.63802
 N409 N 0.83211 0.17773 0.63801
 C410 C 0.82988 0.18659 0.62676
 C411 C 0.81791 0.18183 0.61945
 C412 C 0.81318 0.16988 0.62678
 H413 H 0.83644 0.19580 0.62405
 H414 H 0.80397 0.16330 0.62409
 H415 H 0.83128 0.16849 0.66386
 H416 H 0.84286 0.15694 0.65220
 N417 N 0.32199 0.36193 0.66779
 N418 N 0.33207 0.36178 0.67773
 C419 C 0.32998 0.37296 0.68671
 C420 C 0.31801 0.38041 0.68208
 C421 C 0.31317 0.37319 0.67010
 H422 H 0.33664 0.37554 0.69589
 H423 H 0.30394 0.37595 0.66355
 Cu424 Cu 0.34693 0.34700 0.67783
 Cu425 Cu 0.32111 0.34759 0.65256
 Cu426 Cu 0.34751 0.32119 0.65258
 N427 N 0.36170 0.33214 0.67775
 N428 N 0.36185 0.32206 0.66782
 C429 C 0.37311 0.31323 0.67014
 C430 C 0.38033 0.31807 0.68212
 C431 C 0.37289 0.33005 0.68674
 H432 H 0.37587 0.30401 0.66360
 H433 H 0.37547 0.33670 0.69591
 N434 N 0.33209 0.32211 0.63806
 N435 N 0.32203 0.33217 0.63806
 C436 C 0.31313 0.32994 0.62684
 C437 C 0.31786 0.31795 0.61954
 C438 C 0.32985 0.31321 0.62685
 H439 H 0.30392 0.33651 0.62414
 H440 H 0.33643 0.30399 0.62416
 H441 H 0.33125 0.33134 0.66385
 H442 H 0.34287 0.34293 0.65227
 N443 N 0.32225 0.86218 0.16754
 N444 N 0.33240 0.86210 0.17741
 C445 C 0.33029 0.87325 0.18643
 C446 C 0.31832 0.88069 0.18182
 C447 C 0.31343 0.87345 0.16986
 H448 H 0.33696 0.87585 0.19561
 H449 H 0.30422 0.87622 0.16333
 Cu450 Cu 0.34714 0.84722 0.17762
 Cu451 Cu 0.32132 0.84781 0.15235
 Cu452 Cu 0.34772 0.82138 0.15239
 N453 N 0.36200 0.83247 0.17745
 N454 N 0.36208 0.82232 0.16760
 C455 C 0.37334 0.81349 0.16995
 C456 C 0.38056 0.81837 0.18192
 C457 C 0.37314 0.83036 0.18651
 H458 H 0.37610 0.80427 0.16345
 H459 H 0.37574 0.83702 0.19568
 N460 N 0.33227 0.82228 0.13790
 N461 N 0.32222 0.83235 0.13788
 C462 C 0.31333 0.83011 0.12666
 C463 C 0.31807 0.81813 0.11936
 C464 C 0.33005 0.81339 0.12669
 H465 H 0.30413 0.83671 0.12394
 H466 H 0.33664 0.80418 0.12399
 H467 H 0.33143 0.83154 0.16360
 H468 H 0.34305 0.84311 0.15210
 N469 N 0.82224 0.36225 0.16758
 N470 N 0.83232 0.36209 0.17752
 C471 C 0.83028 0.37330 0.18647
 C472 C 0.81830 0.38074 0.18186
 C473 C 0.81342 0.37352 0.16990
 H474 H 0.83695 0.37588 0.19564
 H475 H 0.80417 0.37626 0.16339
 Cu476 Cu 0.84707 0.34723 0.17767
 Cu477 Cu 0.82129 0.34787 0.15239
 Cu478 Cu 0.84768 0.32143 0.15242
 N479 N 0.86191 0.33244 0.17756
 N480 N 0.86205 0.32236 0.16763
 C481 C 0.87329 0.31351 0.16997
 C482 C 0.88052 0.31838 0.18194
 C483 C 0.87310 0.33038 0.18653
 H484 H 0.87602 0.30426 0.16347
 H485 H 0.87569 0.33704 0.19569
 N486 N 0.83222 0.32234 0.13792
 N487 N 0.82217 0.33241 0.13791
 C488 C 0.81327 0.33018 0.12669
 C489 C 0.81800 0.31819 0.11940
 C490 C 0.82998 0.31344 0.12671
 H491 H 0.80407 0.33676 0.12397
 H492 H 0.83656 0.30422 0.12402
 H493 H 0.83138 0.33158 0.16365
 H494 H 0.84302 0.34316 0.15211
 N495 N 0.82221 0.86223 0.66764
 N496 N 0.83230 0.86209 0.67757
 C497 C 0.83019 0.87325 0.68657
 C498 C 0.81819 0.88067 0.68199
 C499 C 0.81334 0.87346 0.67000
 H500 H 0.83685 0.87583 0.69575
 H501 H 0.80410 0.87621 0.66348
 Cu502 Cu 0.84721 0.84738 0.67756
 Cu503 Cu 0.82130 0.84789 0.65240
 Cu504 Cu 0.84770 0.82146 0.65241
 N505 N 0.86191 0.83245 0.67758
 N506 N 0.86204 0.82236 0.66766
 C507 C 0.87325 0.81348 0.67003
 C508 C 0.88046 0.81831 0.68202
 C509 C 0.87306 0.83032 0.68660
 H510 H 0.87599 0.80423 0.66352
 H511 H 0.87565 0.83697 0.69577
 N512 N 0.83228 0.82240 0.63789
 N513 N 0.82223 0.83247 0.63788
 C514 C 0.81333 0.83023 0.62666
 C515 C 0.81806 0.81824 0.61937
 C516 C 0.83004 0.81350 0.62667
 H517 H 0.80410 0.83680 0.62397
 H518 H 0.83660 0.80427 0.62399
 H519 H 0.83146 0.83163 0.66370
 H520 H 0.84303 0.84316 0.65204
 N521 N 0.67806 0.63810 0.66808
 N522 N 0.66810 0.63839 0.67815
 C523 C 0.67021 0.62724 0.68717
 C524 C 0.68206 0.61967 0.68244
 C525 C 0.68682 0.62678 0.67034
 H526 H 0.66363 0.62474 0.69644
 H527 H 0.69591 0.62388 0.66367
 Cu528 Cu 0.65332 0.65324 0.67817
 Cu529 Cu 0.67888 0.65236 0.65272
 Cu530 Cu 0.65245 0.67880 0.65274
 N531 N 0.63848 0.66802 0.67817
 N532 N 0.63819 0.67798 0.66811
 C533 C 0.62687 0.68674 0.67039
 C534 C 0.61976 0.68199 0.68249
 C535 C 0.62732 0.67014 0.68721
 H536 H 0.62398 0.69584 0.66373
 H537 H 0.62483 0.66356 0.69647
 N538 N 0.66781 0.67780 0.63814
 N539 N 0.67788 0.66773 0.63813
 C540 C 0.68676 0.66996 0.62689
 C541 C 0.68201 0.68193 0.61958
 C542 C 0.67003 0.68668 0.62691
 H543 H 0.69599 0.66340 0.62420
 H544 H 0.66347 0.69591 0.62423
 H545 H 0.66886 0.66876 0.66386
 H546 H 0.65714 0.65707 0.65253
 N547 N 0.67813 0.13779 0.16781
 N548 N 0.66817 0.13807 0.17787
 C549 C 0.67026 0.12690 0.18688
 C550 C 0.68211 0.11933 0.18214
 C551 C 0.68688 0.12645 0.17007
 H552 H 0.66367 0.12440 0.19613
 H553 H 0.69598 0.12356 0.16340
 Cu554 Cu 0.65339 0.15290 0.17788
 Cu555 Cu 0.67899 0.15206 0.15247
 Cu556 Cu 0.65255 0.17850 0.15250
 N557 N 0.63856 0.16769 0.17790
 N558 N 0.63828 0.17765 0.16785
 C559 C 0.62695 0.18641 0.17012
 C560 C 0.61983 0.18164 0.18220
 C561 C 0.62739 0.16979 0.18692
 H562 H 0.62406 0.19551 0.16347
 H563 H 0.62489 0.16320 0.19617
 N564 N 0.66793 0.17752 0.13791
 N565 N 0.67799 0.16746 0.13790
 C566 C 0.68688 0.16970 0.12667
 C567 C 0.68214 0.18169 0.11937
 C568 C 0.67016 0.18642 0.12669
 H569 H 0.69612 0.16315 0.12398
 H570 H 0.66360 0.19566 0.12403
 H571 H 0.66895 0.16844 0.16361
 H572 H 0.65724 0.15677 0.15226
 N573 N 0.17786 0.63809 0.16776
 N574 N 0.16791 0.63838 0.17783
 C575 C 0.16998 0.62720 0.18683
 C576 C 0.18182 0.61962 0.18209
 C577 C 0.18660 0.62674 0.17001
 H578 H 0.16339 0.62469 0.19608
 H579 H 0.19570 0.62385 0.16336
 Cu580 Cu 0.15313 0.65322 0.17785
 Cu581 Cu 0.17872 0.65236 0.15243
 Cu582 Cu 0.15231 0.67882 0.15246
 N583 N 0.13832 0.66802 0.17786
 N584 N 0.13804 0.67798 0.16781
 C585 C 0.12671 0.68674 0.17008
 C586 C 0.11959 0.68197 0.18216
 C587 C 0.12715 0.67011 0.18688
 H588 H 0.12383 0.69585 0.16344
 H589 H 0.12464 0.66352 0.19613
 N590 N 0.16769 0.67782 0.13787
 N591 N 0.17775 0.66775 0.13786
 C592 C 0.18664 0.66998 0.12664
 C593 C 0.18191 0.68197 0.11933
 C594 C 0.16993 0.68672 0.12665
 H595 H 0.19587 0.66341 0.12395
 H596 H 0.16338 0.69596 0.12398
 H597 H 0.16870 0.66875 0.16358
 H598 H 0.15699 0.65709 0.15222
 N599 N 0.17781 0.13780 0.66789
 N600 N 0.16771 0.13792 0.67781
 C601 C 0.16981 0.12673 0.68680
 C602 C 0.18181 0.11931 0.68220
 C603 C 0.18666 0.12655 0.67022
 H604 H 0.16311 0.12411 0.69594
 H605 H 0.19589 0.12381 0.66367
 Cu606 Cu 0.15274 0.15260 0.67781
 Cu607 Cu 0.17869 0.15215 0.65264
 Cu608 Cu 0.15229 0.17857 0.65267
 N609 N 0.13809 0.16758 0.67784
 N610 N 0.13796 0.17768 0.66793
 C611 C 0.12673 0.18655 0.67029
 C612 C 0.11950 0.18170 0.68227
 C613 C 0.12691 0.16969 0.68685
 H614 H 0.12399 0.19578 0.66375
 H615 H 0.12428 0.16299 0.69599
 N616 N 0.16771 0.17764 0.63813
 N617 N 0.17777 0.16758 0.63812
 C618 C 0.18666 0.16982 0.62688
 C619 C 0.18192 0.18180 0.61957
 C620 C 0.16994 0.18654 0.62690
 H621 H 0.19587 0.16324 0.62416
 H622 H 0.16336 0.19576 0.62420
 H623 H 0.16848 0.16835 0.66396
 H624 H 0.15692 0.15683 0.65227
 N625 N 0.32191 0.63804 0.33193
 N626 N 0.33186 0.63832 0.32187
 C627 C 0.32976 0.62718 0.31284
 C628 C 0.31792 0.61962 0.31758
 C629 C 0.31316 0.62673 0.32967
 H630 H 0.33635 0.62468 0.30358
 H631 H 0.30406 0.62384 0.33634
 Cu632 Cu 0.34664 0.65315 0.32186
 Cu633 Cu 0.32106 0.65228 0.34730
 Cu634 Cu 0.34749 0.67868 0.34729
 N635 N 0.36148 0.66791 0.32187
 N636 N 0.36175 0.67785 0.33193
 C637 C 0.37308 0.68660 0.32968
 C638 C 0.38020 0.68186 0.31758
 C639 C 0.37264 0.67002 0.31284
 H640 H 0.37596 0.69568 0.33634
 H641 H 0.37515 0.66345 0.30358
 N642 N 0.33212 0.67768 0.36188
 N643 N 0.32206 0.66764 0.36189
 C644 C 0.31317 0.66987 0.37313
 C645 C 0.31791 0.68183 0.38044
 C646 C 0.32988 0.68656 0.37312
 H647 H 0.30394 0.66332 0.37581
 H648 H 0.33644 0.69579 0.37580
 H649 H 0.33109 0.66866 0.33617
 H650 H 0.34280 0.65695 0.34750
 N651 N 0.32193 0.13779 0.83220
 N652 N 0.33201 0.13795 0.82227
 C653 C 0.32991 0.12680 0.81324
 C654 C 0.31794 0.11936 0.81786
 C655 C 0.31310 0.12655 0.82987
 H656 H 0.33658 0.12422 0.80407
 H657 H 0.30389 0.12377 0.83643
 Cu658 Cu 0.34692 0.15265 0.82228
 Cu659 Cu 0.32103 0.15210 0.84748
 Cu660 Cu 0.34742 0.17850 0.84747
 N661 N 0.36162 0.16756 0.82226
 N662 N 0.36175 0.17764 0.83219
 C663 C 0.37299 0.18647 0.82986
 C664 C 0.38021 0.18165 0.81785
 C665 C 0.37278 0.16968 0.81324
 H666 H 0.37575 0.19567 0.83642
 H667 H 0.37537 0.16303 0.80406
 N668 N 0.33201 0.17755 0.86202
 N669 N 0.32196 0.16750 0.86202
 C670 C 0.31306 0.16973 0.87325
 C671 C 0.31779 0.18170 0.88056
 C672 C 0.32976 0.18644 0.87324
 H673 H 0.30385 0.16316 0.87596
 H674 H 0.33633 0.19565 0.87594
 H675 H 0.33118 0.16833 0.83622
 H676 H 0.34277 0.15676 0.84784
 N677 N 0.82221 0.63797 0.83226
 N678 N 0.83231 0.63810 0.82237
 C679 C 0.83016 0.62697 0.81331
 C680 C 0.81822 0.61952 0.81796
 C681 C 0.81339 0.62672 0.82998
 H682 H 0.83682 0.62440 0.80414
 H683 H 0.80418 0.62395 0.83654
 Cu684 Cu 0.84720 0.65282 0.82236
 Cu685 Cu 0.82132 0.65229 0.84756
 Cu686 Cu 0.84769 0.67872 0.84752
 N687 N 0.86189 0.66774 0.82232
 N688 N 0.86199 0.67785 0.83221
 C689 C 0.87322 0.68670 0.82989
 C690 C 0.88043 0.68188 0.81788
 C691 C 0.87301 0.66992 0.81325
 H692 H 0.87597 0.69592 0.83643
 H693 H 0.87560 0.66327 0.80409
 N694 N 0.83229 0.67777 0.86208
 N695 N 0.82224 0.66770 0.86209
 C696 C 0.81335 0.66994 0.87333
 C697 C 0.81808 0.68192 0.88063
 C698 C 0.83004 0.68666 0.87330
 H699 H 0.80414 0.66337 0.87604
 H700 H 0.83660 0.69588 0.87598
 H701 H 0.83144 0.66856 0.83626
 H702 H 0.84305 0.65700 0.84790
 N703 N 0.82218 0.13773 0.33206
 N704 N 0.83227 0.13788 0.32213
 C705 C 0.83017 0.12673 0.31311
 C706 C 0.81822 0.11927 0.31776
 C707 C 0.81337 0.12647 0.32975
 H708 H 0.83683 0.12414 0.30394
 H709 H 0.80417 0.12369 0.33631
 Cu710 Cu 0.84714 0.15261 0.32212
 Cu711 Cu 0.82127 0.15204 0.34734
 Cu712 Cu 0.84762 0.17847 0.34730
 N713 N 0.86182 0.16753 0.32209
 N714 N 0.86194 0.17761 0.33201
 C715 C 0.87317 0.18645 0.32969
 C716 C 0.88039 0.18164 0.31768
 C717 C 0.87298 0.16966 0.31306
 H718 H 0.87592 0.19567 0.33623
 H719 H 0.87558 0.16302 0.30389
 N720 N 0.83221 0.17752 0.36185
 N721 N 0.82217 0.16745 0.36186
 C722 C 0.81327 0.16968 0.37309
 C723 C 0.81799 0.18166 0.38039
 C724 C 0.82995 0.18641 0.37307
 H725 H 0.80407 0.16310 0.37580
 H726 H 0.83651 0.19563 0.37575
 H727 H 0.83139 0.16828 0.33606
 H728 H 0.84300 0.15673 0.34768
 N729 N 0.67802 0.36195 0.33202
 N730 N 0.66793 0.36183 0.32210
 C731 C 0.67003 0.37300 0.31310
 C732 C 0.68203 0.38040 0.31769
 C733 C 0.68687 0.37318 0.32968
 H734 H 0.66334 0.37562 0.30395
 H735 H 0.69610 0.37592 0.33622
 Cu736 Cu 0.65297 0.34719 0.32211
 Cu737 Cu 0.67891 0.34764 0.34729
 Cu738 Cu 0.65253 0.32124 0.34727
 N739 N 0.63833 0.33222 0.32208
 N740 N 0.63821 0.32212 0.33199
 C741 C 0.62700 0.31326 0.32964
 C742 C 0.61977 0.31810 0.31764
 C743 C 0.62716 0.33011 0.31307
 H744 H 0.62426 0.30403 0.33617
 H745 H 0.62454 0.33680 0.30392
 N746 N 0.66794 0.32217 0.36181
 N747 N 0.67798 0.33223 0.36182
 C748 C 0.68687 0.32999 0.37305
 C749 C 0.68215 0.31801 0.38036
 C750 C 0.67017 0.31328 0.37304
 H751 H 0.69609 0.33656 0.37575
 H752 H 0.66361 0.30406 0.37573
 H753 H 0.66874 0.33146 0.33599
 H754 H 0.65716 0.34300 0.34766
 N755 N 0.67807 0.86204 0.83212
 N756 N 0.66811 0.86177 0.82206
 C757 C 0.67023 0.87291 0.81302
 C758 C 0.68209 0.88044 0.81774
 C759 C 0.68684 0.87334 0.82984
 H760 H 0.66365 0.87541 0.80377
 H761 H 0.69594 0.87621 0.83649
 Cu762 Cu 0.65332 0.84696 0.82208
 Cu763 Cu 0.67891 0.84780 0.84749
 Cu764 Cu 0.65246 0.82142 0.84752
 N765 N 0.63847 0.83220 0.82210
 N766 N 0.63819 0.82226 0.83217
 C767 C 0.62686 0.81352 0.82992
 C768 C 0.61974 0.81827 0.81783
 C769 C 0.62730 0.83011 0.81308
 H770 H 0.62398 0.80443 0.83659
 H771 H 0.62480 0.83668 0.80382
 N772 N 0.66784 0.82241 0.86210
 N773 N 0.67791 0.83245 0.86209
 C774 C 0.68680 0.83021 0.87332
 C775 C 0.68205 0.81825 0.88064
 C776 C 0.67007 0.81353 0.87334
 H777 H 0.69603 0.83676 0.87599
 H778 H 0.66351 0.80431 0.87603
 H779 H 0.66887 0.83143 0.83638
 H780 H 0.65717 0.84315 0.84771
 N781 N 0.17777 0.36188 0.83225
 N782 N 0.16770 0.36174 0.82230
 C783 C 0.16980 0.37293 0.81331
 C784 C 0.18178 0.38035 0.81794
 C785 C 0.18660 0.37313 0.82993
 H786 H 0.16314 0.37552 0.80414
 H787 H 0.19581 0.37588 0.83649
 Cu788 Cu 0.15284 0.34698 0.82222
 Cu789 Cu 0.17866 0.34754 0.84750
 Cu790 Cu 0.15227 0.32117 0.84751
 N791 N 0.13807 0.33213 0.82231
 N792 N 0.13793 0.32206 0.83226
 C793 C 0.12668 0.31324 0.82994
 C794 C 0.11945 0.31807 0.81795
 C795 C 0.12688 0.33004 0.81332
 H796 H 0.12391 0.30404 0.83651
 H797 H 0.12429 0.33669 0.80415
 N798 N 0.16770 0.32207 0.86203
 N799 N 0.17775 0.33212 0.86202
 C800 C 0.18664 0.32989 0.87325
 C801 C 0.18191 0.31792 0.88057
 C802 C 0.16993 0.31319 0.87326
 H803 H 0.19586 0.33645 0.87595
 H804 H 0.16336 0.30398 0.87596
 H805 H 0.16854 0.33129 0.83623
 H806 H 0.15689 0.34292 0.84780
 N807 N 0.17785 0.86208 0.33194
 N808 N 0.16776 0.86194 0.32203
 C809 C 0.16985 0.87307 0.31295
 C810 C 0.18176 0.88057 0.31765
 C811 C 0.18661 0.87338 0.32965
 H812 H 0.16310 0.87574 0.30385
 H813 H 0.19586 0.87608 0.33614
 Cu814 Cu 0.15284 0.84725 0.32233
 Cu815 Cu 0.17873 0.84780 0.34728
 Cu816 Cu 0.15229 0.82139 0.34730
 N817 N 0.13813 0.83235 0.32204
 N818 N 0.13798 0.82227 0.33197
 C819 C 0.12668 0.81352 0.32970
 C820 C 0.11947 0.81837 0.31769
 C821 C 0.12699 0.83027 0.31298
 H822 H 0.12397 0.80428 0.33619
 H823 H 0.12432 0.83700 0.30388
 N824 N 0.16771 0.82235 0.36184
 N825 N 0.17777 0.83240 0.36183
 C826 C 0.18668 0.83015 0.37304
 C827 C 0.18196 0.81817 0.38035
 C828 C 0.16997 0.81345 0.37305
 H829 H 0.19591 0.83670 0.37572
 H830 H 0.16341 0.80424 0.37576
 H831 H 0.16859 0.83153 0.33612
 H832 H 0.15699 0.84313 0.34770
 C833 C 0.24481 1.04533 0.25515
 C834 C 0.25521 1.04533 0.24471
 C835 C 0.25825 1.03103 0.24163
 N836 N 0.25000 1.02239 0.24991
 C837 C 0.24176 1.03104 0.25821
 C838 C 0.26856 1.02639 0.23137
 C839 C 0.27190 1.01186 0.22808
 C840 C 0.28227 1.00750 0.21825
 C841 C 0.28229 0.99268 0.21824
 C842 C 0.27192 0.98831 0.22807
 N843 N 0.26565 1.00008 0.23388
 C844 C 0.26861 0.97377 0.23134
 C845 C 0.25830 0.96913 0.24160
 C846 C 0.25527 0.95483 0.24466
 C847 C 0.24486 0.95483 0.25510
 C848 C 0.24180 0.96913 0.25817
 N849 N 0.25004 0.97777 0.24988
 C850 C 0.23147 0.97376 0.26842
 C851 C 0.22813 0.98830 0.27170
 C852 C 0.21774 0.99266 0.28152
 C853 C 0.21773 1.00749 0.28153
 C854 C 0.22812 1.01186 0.27172
 N855 N 0.23440 1.00009 0.26593
 C856 C 0.23144 1.02641 0.26846
 H857 H 0.24005 1.05483 0.25992
 H858 H 0.25998 1.05483 0.23995
 H859 H 0.24272 1.00009 0.25868
 H860 H 0.28914 1.01428 0.21173
 H861 H 0.28917 0.98591 0.21172
 H862 H 0.26004 0.94534 0.23990
 H863 H 0.24010 0.94533 0.25987
 H864 H 0.21084 1.01427 0.28804
 H865 H 0.25736 1.00008 0.24117
 H866 H 0.21086 0.98588 0.28802
 C867 C 0.24466 0.45473 0.75511
 C868 C 0.25523 0.45475 0.74484
 C869 C 0.25834 0.46905 0.74186
 N870 N 0.24995 0.47768 0.75004
 C871 C 0.24155 0.46902 0.75816
 C872 C 0.26872 0.47370 0.73168
 C873 C 0.27202 0.48824 0.72838
 C874 C 0.28192 0.49261 0.71809
 C875 C 0.28191 0.50744 0.71809
 C876 C 0.27200 0.51180 0.72838
 N877 N 0.26616 0.50002 0.73461
 C878 C 0.26869 0.52635 0.73168
 C879 C 0.25830 0.53097 0.74187
 C880 C 0.25516 0.54526 0.74488
 C881 C 0.24459 0.54524 0.75516
 C882 C 0.24152 0.53094 0.75817
 N883 N 0.24993 0.52231 0.75003
 C884 C 0.23116 0.52630 0.76838
 C885 C 0.22788 0.51175 0.77169
 C886 C 0.21804 0.50738 0.78204
 C887 C 0.21805 0.49255 0.78204
 C888 C 0.22789 0.48819 0.77168
 N889 N 0.23368 0.49997 0.76541
 C890 C 0.23117 0.47363 0.76836
 H891 H 0.23984 0.44522 0.75980
 H892 H 0.26005 0.44526 0.74011
 H893 H 0.24087 0.49998 0.75703
 H894 H 0.28849 0.48584 0.71126
 H895 H 0.28847 0.51422 0.71126
 H896 H 0.25996 0.55476 0.74017
 H897 H 0.23976 0.55473 0.75987
 H898 H 0.21153 0.48577 0.78890
 H899 H 0.25887 0.50001 0.74289
 H900 H 0.21152 0.51415 0.78891
 C901 C 0.74496 -0.04558 0.24486
 C902 C 0.75540 -0.04560 0.25527
 C903 C 0.75844 -0.03131 0.25835
 N904 N 0.75016 -0.02265 0.25010
 C905 C 0.74190 -0.03127 0.24183
 C906 C 0.76875 -0.02670 0.26860
 C907 C 0.77207 -0.01215 0.27190
 C908 C 0.78229 -0.00780 0.28187
 C909 C 0.78229 0.00703 0.28186
 C910 C 0.77207 0.01141 0.27188
 N911 N 0.76593 -0.00037 0.26597
 C912 C 0.76876 0.02596 0.26857
 C913 C 0.75845 0.03061 0.25830
 C914 C 0.75543 0.04491 0.25521
 C915 C 0.74500 0.04493 0.24480
 C916 C 0.74191 0.03063 0.24178
 N917 N 0.75015 0.02198 0.25007
 C918 C 0.73158 0.02602 0.23154
 C919 C 0.72824 0.01148 0.22829
 C920 C 0.71791 0.00712 0.21842
 C921 C 0.71791 -0.00771 0.21843
 C922 C 0.72823 -0.01208 0.22831
 N923 N 0.73445 -0.00030 0.23415
 C924 C 0.73157 -0.02662 0.23159
 H925 H 0.74020 -0.05507 0.24009
 H926 H 0.76017 -0.05511 0.26001
 H927 H 0.74263 -0.00032 0.24154
 H928 H 0.78907 -0.01458 0.28848
 H929 H 0.78908 0.01381 0.28846
 H930 H 0.76023 0.05440 0.25994
 H931 H 0.74025 0.05443 0.24002
 H932 H 0.71107 -0.01448 0.21189
 H933 H 0.75791 -0.00035 0.25840
 H934 H 0.71108 0.01390 0.21186
 C935 C 0.75533 0.54511 0.75534
 C936 C 0.74485 0.54511 0.74498
 C937 C 0.74179 0.53081 0.74193
 N938 N 0.75012 0.52217 0.75015
 C939 C 0.75843 0.53081 0.75838
 C940 C 0.73145 0.52619 0.73170
 C941 C 0.72815 0.51164 0.72839
 C942 C 0.71804 0.50729 0.71830
 C943 C 0.71804 0.49245 0.71830
 C944 C 0.72815 0.48807 0.72839
 N945 N 0.73417 0.49985 0.73443
 C946 C 0.73146 0.47352 0.73169
 C947 C 0.74181 0.46889 0.74192
 C948 C 0.74490 0.45459 0.74496
 C949 C 0.75538 0.45459 0.75533
 C950 C 0.75844 0.46889 0.75837
 N951 N 0.75012 0.47753 0.75014
 C952 C 0.76878 0.47351 0.76861
 C953 C 0.77209 0.48806 0.77190
 C954 C 0.78221 0.49242 0.78198
 C955 C 0.78222 0.50725 0.78198
 C956 C 0.77209 0.51163 0.77190
 N957 N 0.76606 0.49985 0.76588
 C958 C 0.76878 0.52618 0.76861
 H959 H 0.76010 0.55461 0.76008
 H960 H 0.74004 0.55461 0.74025
 H961 H 0.75828 0.49985 0.75806
 H962 H 0.71134 0.51407 0.71161
 H963 H 0.71134 0.48569 0.71161
 H964 H 0.74012 0.44509 0.74022
 H965 H 0.76018 0.44509 0.76006
 H966 H 0.78893 0.51402 0.78866
 H967 H 0.74192 0.49985 0.74227
 H968 H 0.78892 0.48563 0.78866
 C969 C 0.24472 0.45470 0.24474
 C970 C 0.25509 0.45468 0.25521
 C971 C 0.25815 0.46898 0.25826
 N972 N 0.24995 0.47764 0.24993
 C973 C 0.24171 0.46900 0.24164
 C974 C 0.26845 0.47360 0.26852
 C975 C 0.27178 0.48815 0.27177
 C976 C 0.28227 0.49251 0.28146
 C977 C 0.28225 0.50733 0.28146
 C978 C 0.27176 0.51170 0.27177
 N979 N 0.26540 0.49993 0.26607
 C980 C 0.26840 0.52625 0.26851
 C981 C 0.25810 0.53089 0.25825
 C982 C 0.25503 0.54519 0.25519
 C983 C 0.24468 0.54520 0.24471
 C984 C 0.24168 0.53091 0.24161
 N985 N 0.24991 0.52225 0.24991
 C986 C 0.23141 0.52628 0.23132
 C987 C 0.22810 0.51174 0.22804
 C988 C 0.21771 0.50738 0.21825
 C989 C 0.21772 0.49255 0.21826
 C990 C 0.22811 0.48819 0.22806
 N991 N 0.23440 0.49996 0.23382
 C992 C 0.23143 0.47365 0.23135
 H993 H 0.23995 0.44521 0.23998
 H994 H 0.25982 0.44518 0.26000
 H995 H 0.24278 0.49996 0.24101
 H996 H 0.28923 0.48573 0.28788
 H997 H 0.28921 0.51411 0.28788
 H998 H 0.25976 0.55469 0.25998
 H999 H 0.23990 0.55470 0.23994
 H1000 H 0.21082 0.48578 0.21177
 H1001 H 0.25687 0.49993 0.25906
 H1002 H 0.21081 0.51416 0.21175
 C1003 C 0.74474 1.04550 0.75533
 C1004 C 0.75510 1.04547 0.74485
 C1005 C 0.75813 1.03116 0.74179
 N1006 N 0.74990 1.02254 0.75012
 C1007 C 0.74169 1.03121 0.75843
 C1008 C 0.76842 1.02651 0.73151
 C1009 C 0.77176 1.01197 0.72823
 C1010 C 0.78219 1.00761 0.71845
 C1011 C 0.78221 0.99279 0.71844
 C1012 C 0.77180 0.98842 0.72822
 N1013 N 0.76547 1.00019 0.73398
 C1014 C 0.76849 0.97387 0.73149
 C1015 C 0.75821 0.96925 0.74178
 C1016 C 0.75517 0.95496 0.74486
 C1017 C 0.74481 0.95498 0.75535
 C1018 C 0.74177 0.96929 0.75842
 N1019 N 0.74999 0.97792 0.75009
 C1020 C 0.73148 0.97394 0.76871
 C1021 C 0.72813 0.98849 0.77198
 C1022 C 0.71771 0.99285 0.78176
 C1023 C 0.71769 1.00768 0.78177
 C1024 C 0.72810 1.01205 0.77199
 N1025 N 0.73442 1.00027 0.76623
 C1026 C 0.73140 1.02661 0.76873
 H1027 H 0.74000 1.05502 0.76010
 H1028 H 0.75987 1.05495 0.74006
 H1029 H 0.74283 1.00026 0.75907
 H1030 H 0.78909 1.01439 0.71197
 H1031 H 0.78912 0.98602 0.71196
 H1032 H 0.75991 0.94546 0.74008
 H1033 H 0.74005 0.94549 0.76013
 H1034 H 0.71077 1.01445 0.78825
 H1035 H 0.75706 1.00020 0.74114
 H1036 H 0.71081 0.98606 0.78825
 C1037 C 0.74476 0.45484 0.25509
 C1038 C 0.75532 0.45485 0.24480
 C1039 C 0.75842 0.46915 0.24181
 N1040 N 0.75004 0.47779 0.24998
 C1041 C 0.74166 0.46914 0.25813
 C1042 C 0.76879 0.47379 0.23162
 C1043 C 0.77208 0.48834 0.22833
 C1044 C 0.78201 0.49271 0.21807
 C1045 C 0.78200 0.50754 0.21808
 C1046 C 0.77204 0.51189 0.22834
 N1047 N 0.76618 0.50011 0.23452
 C1048 C 0.76872 0.52642 0.23165
 C1049 C 0.75835 0.53105 0.24185
 C1050 C 0.75524 0.54535 0.24486
 C1051 C 0.74469 0.54535 0.25516
 C1052 C 0.74161 0.53105 0.25818
 N1053 N 0.74999 0.52241 0.25002
 C1054 C 0.73126 0.52641 0.26839
 C1055 C 0.72797 0.51187 0.27169
 C1056 C 0.71808 0.50749 0.28199
 C1057 C 0.71809 0.49266 0.28197
 C1058 C 0.72799 0.48831 0.27167
 N1059 N 0.73382 0.50009 0.26545
 C1060 C 0.73129 0.47377 0.26834
 H1061 H 0.73994 0.44534 0.25979
 H1062 H 0.76013 0.44536 0.24007
 H1063 H 0.74113 0.50010 0.25718
 H1064 H 0.78862 0.48594 0.21127
 H1065 H 0.78858 0.51432 0.21128
 H1066 H 0.76003 0.55485 0.24013
 H1067 H 0.73987 0.55485 0.25987
 H1068 H 0.71153 0.48588 0.28880
 H1069 H 0.75880 0.50010 0.24272
 H1070 H 0.71151 0.51426 0.28883
 C1071 C 0.24500 -0.04562 0.74482
 C1072 C 0.25546 -0.04567 0.75520
 C1073 C 0.25854 -0.03139 0.75829
 N1074 N 0.25025 -0.02270 0.75007
 C1075 C 0.24195 -0.03130 0.74181
 C1076 C 0.26889 -0.02681 0.76853
 C1077 C 0.27219 -0.01225 0.77183
 C1078 C 0.28245 -0.00789 0.78176
 C1079 C 0.28241 0.00694 0.78179
 C1080 C 0.27214 0.01132 0.77187
 N1081 N 0.26600 -0.00046 0.76595
 C1082 C 0.26877 0.02588 0.76861
 C1083 C 0.25843 0.03055 0.75839
 C1084 C 0.25535 0.04486 0.75538
 C1085 C 0.24490 0.04490 0.74499
 C1086 C 0.24184 0.03062 0.74189
 N1087 N 0.25014 0.02194 0.75011
 C1088 C 0.23152 0.02602 0.73163
 C1089 C 0.22822 0.01148 0.72834
 C1090 C 0.21798 0.00713 0.71838
 C1091 C 0.21800 -0.00770 0.71837
 C1092 C 0.22825 -0.01208 0.72832
 N1093 N 0.23438 -0.00031 0.73424
 C1094 C 0.23160 -0.02663 0.73159
 H1095 H 0.24021 -0.05509 0.74005
 H1096 H 0.26024 -0.05520 0.75991
 H1097 H 0.24241 -0.00034 0.74180
 H1098 H 0.28927 -0.01468 0.78833
 H1099 H 0.28920 0.01372 0.78838
 H1100 H 0.26012 0.05434 0.76015
 H1101 H 0.24011 0.05441 0.74027
 H1102 H 0.21122 -0.01447 0.71176
 H1103 H 0.25794 -0.00043 0.75843
 H1104 H 0.21118 0.01391 0.71179
 C1105 C 0.25527 0.24476 1.04532
 C1106 C 0.24474 0.25510 1.04533
 C1107 C 0.24163 0.25811 1.03105
 N1108 N 0.24997 0.24991 1.02240
 C1109 C 0.25833 0.24173 1.03103
 C1110 C 0.23132 0.26838 1.02643
 C1111 C 0.22802 0.27170 1.01190
 C1112 C 0.21830 0.28218 1.00754
 C1113 C 0.21827 0.28216 0.99273
 C1114 C 0.22798 0.27167 0.98837
 N1115 N 0.23370 0.26531 1.00013
 C1116 C 0.23123 0.26834 0.97383
 C1117 C 0.24156 0.25808 0.96920
 C1118 C 0.24465 0.25506 0.95491
 C1119 C 0.25519 0.24474 0.95491
 C1120 C 0.25829 0.24172 0.96919
 N1121 N 0.24993 0.24989 0.97783
 C1122 C 0.26862 0.23146 0.97380
 C1123 C 0.27189 0.22812 0.98834
 C1124 C 0.28159 0.21762 0.99269
 C1125 C 0.28159 0.21761 1.00750
 C1126 C 0.27189 0.22811 1.01187
 N1127 N 0.26620 0.23450 1.00010
 C1128 C 0.26863 0.23144 1.02640
 H1129 H 0.26007 0.24003 1.05481
 H1130 H 0.23997 0.25985 1.05483
 H1131 H 0.25922 0.24308 1.00011
 H1132 H 0.21187 0.28914 1.01432
 H1133 H 0.21182 0.28912 0.98597
 H1134 H 0.23984 0.25979 0.94543
 H1135 H 0.25999 0.24001 0.94541
 H1136 H 0.28802 0.21064 1.01427
 H1137 H 0.24072 0.25676 1.00012
 H1138 H 0.28802 0.21065 0.98592
 C1139 C 0.25536 0.74505 0.54510
 C1140 C 0.24484 0.75540 0.54510
 C1141 C 0.24172 0.75839 0.53081
 N1142 N 0.25005 0.75016 0.52218
 C1143 C 0.25842 0.74198 0.53082
 C1144 C 0.23139 0.76864 0.52619
 C1145 C 0.22808 0.77194 0.51166
 C1146 C 0.21824 0.78233 0.50730
 C1147 C 0.21822 0.78231 0.49249
 C1148 C 0.22804 0.77192 0.48812
 N1149 N 0.23384 0.76564 0.49989
 C1150 C 0.23131 0.76859 0.47359
 C1151 C 0.24163 0.75833 0.46897
 C1152 C 0.24473 0.75531 0.45468
 C1153 C 0.25526 0.74497 0.45468
 C1154 C 0.25834 0.74194 0.46897
 N1155 N 0.24998 0.75013 0.47760
 C1156 C 0.26866 0.73166 0.47359
 C1157 C 0.27194 0.72834 0.48812
 C1158 C 0.28170 0.71788 0.49248
 C1159 C 0.28171 0.71789 0.50730
 C1160 C 0.27197 0.72835 0.51166
 N1161 N 0.26623 0.73469 0.49989
 C1162 C 0.26872 0.73170 0.52620
 H1163 H 0.26018 0.74033 0.55460
 H1164 H 0.24007 0.76016 0.55459
 H1165 H 0.25915 0.74317 0.49989
 H1166 H 0.21174 0.78922 0.51407
 H1167 H 0.21169 0.78919 0.48572
 H1168 H 0.23994 0.76005 0.44519
 H1169 H 0.26006 0.74024 0.44519
 H1170 H 0.28819 0.71096 0.51406
 H1171 H 0.24105 0.75727 0.49989
 H1172 H 0.28815 0.71094 0.48571
 C1173 C 0.24498 0.74476 -0.04529
 C1174 C 0.25552 0.75507 -0.04532
 C1175 C 0.25860 0.75813 -0.03104
 N1176 N 0.25022 0.74999 -0.02238
 C1177 C 0.24187 0.74178 -0.03099
 C1178 C 0.26894 0.76837 -0.02645
 C1179 C 0.27221 0.77172 -0.01191
 C1180 C 0.28206 0.78207 -0.00757
 C1181 C 0.28204 0.78210 0.00725
 C1182 C 0.27217 0.77178 0.01163
 N1183 N 0.26637 0.76550 -0.00013
 C1184 C 0.26887 0.76849 0.02617
 C1185 C 0.25854 0.75826 0.03082
 C1186 C 0.25545 0.75525 0.04512
 C1187 C 0.24493 0.74493 0.04514
 C1188 C 0.24184 0.74188 0.03086
 N1189 N 0.25018 0.75006 0.02221
 C1190 C 0.23150 0.73164 0.02626
 C1191 C 0.22820 0.72832 0.01173
 C1192 C 0.21830 0.71802 0.00739
 C1193 C 0.21830 0.71801 -0.00742
 C1194 C 0.22821 0.72829 -0.01180
 N1195 N 0.23406 0.73452 -0.00005
 C1196 C 0.23151 0.73158 -0.02634
 H1197 H 0.24018 0.74001 -0.05477
 H1198 H 0.26033 0.75976 -0.05482
 H1199 H 0.24140 0.74276 -0.00007
 H1200 H 0.28861 0.78890 -0.01434
 H1201 H 0.28857 0.78897 0.01401
 H1202 H 0.26025 0.76000 0.05460
 H1203 H 0.24013 0.74021 0.05464
 H1204 H 0.21173 0.71117 -0.01418
 H1205 H 0.25911 0.75720 -0.00011
 H1206 H 0.21173 0.71121 0.01417
 C1207 C 0.25514 0.25510 0.45485
 C1208 C 0.24467 0.24473 0.45486
 C1209 C 0.24160 0.24168 0.46915
 N1210 N 0.24991 0.24992 0.47777
 C1211 C 0.25822 0.25815 0.46913
 C1212 C 0.23130 0.23141 0.47379
 C1213 C 0.22800 0.22810 0.48833
 C1214 C 0.21801 0.21789 0.49269
 C1215 C 0.21801 0.21788 0.50751
 C1216 C 0.22800 0.22809 0.51187
 N1217 N 0.23394 0.23422 0.50009
 C1218 C 0.23131 0.23141 0.52640
 C1219 C 0.24161 0.24168 0.53101
 C1220 C 0.24468 0.24474 0.54529
 C1221 C 0.25514 0.25512 0.54528
 C1222 C 0.25821 0.25816 0.53099
 N1223 N 0.24991 0.24992 0.52237
 C1224 C 0.26851 0.26843 0.52635
 C1225 C 0.27182 0.27174 0.51181
 C1226 C 0.28182 0.28193 0.50744
 C1227 C 0.28183 0.28193 0.49263
 C1228 C 0.27183 0.27173 0.48827
 N1229 N 0.26588 0.26561 0.50005
 C1230 C 0.26853 0.26842 0.47374
 H1231 H 0.25991 0.25985 0.44535
 H1232 H 0.23989 0.23998 0.44538
 H1233 H 0.25830 0.25760 0.50006
 H1234 H 0.21139 0.21112 0.48593
 H1235 H 0.21139 0.21112 0.51428
 H1236 H 0.23990 0.23999 0.55479
 H1237 H 0.25991 0.25988 0.55476
 H1238 H 0.28846 0.28869 0.48585
 H1239 H 0.24149 0.24226 0.50008
 H1240 H 0.28845 0.28869 0.51421
 C1241 C 0.74493 0.75536 0.95488
 C1242 C 0.75523 0.74481 0.95488
 C1243 C 0.75823 0.74169 0.96917
 N1244 N 0.75005 0.75006 0.97781
 C1245 C 0.74189 0.75845 0.96917
 C1246 C 0.76845 0.73133 0.97380
 C1247 C 0.77174 0.72801 0.98833
 C1248 C 0.78207 0.71813 0.99269
 C1249 C 0.78205 0.71811 1.00751
 C1250 C 0.77170 0.72799 1.01186
 N1251 N 0.76546 0.73382 1.00009
 C1252 C 0.76838 0.73128 1.02639
 C1253 C 0.75817 0.74166 1.03102
 C1254 C 0.75516 0.74477 1.04530
 C1255 C 0.74488 0.75535 1.04530
 C1256 C 0.74187 0.75844 1.03101
 N1257 N 0.75002 0.75005 1.02238
 C1258 C 0.73166 0.76882 1.02638
 C1259 C 0.72834 0.77210 1.01185
 C1260 C 0.71796 0.78194 1.00749
 C1261 C 0.71796 0.78193 0.99268
 C1262 C 0.72833 0.77209 0.98832
 N1263 N 0.73462 0.76630 1.00009
 C1264 C 0.73165 0.76880 0.97379
 H1265 H 0.74021 0.76019 0.94539
 H1266 H 0.75997 0.74001 0.94540
 H1267 H 0.74301 0.75912 1.00009
 H1268 H 0.78894 0.71159 0.98593
 H1269 H 0.78889 0.71156 1.01428
 H1270 H 0.75988 0.73995 1.05479
 H1271 H 0.74017 0.76017 1.05479
 H1272 H 0.71108 0.78845 0.98591
 H1273 H 0.75713 0.74108 1.00009
 H1274 H 0.71108 0.78847 1.01426
 C1275 C 0.74470 0.25497 0.54511
 C1276 C 0.75519 0.24460 0.54511
 C1277 C 0.75828 0.24157 0.53083
 N1278 N 0.74995 0.24979 0.52219
 C1279 C 0.74162 0.25801 0.53083
 C1280 C 0.76858 0.23128 0.52620
 C1281 C 0.77189 0.22796 0.51167
 C1282 C 0.78172 0.21758 0.50732
 C1283 C 0.78175 0.21759 0.49251
 C1284 C 0.77192 0.22798 0.48814
 N1285 N 0.76611 0.23425 0.49990
 C1286 C 0.76866 0.23131 0.47360
 C1287 C 0.75835 0.24159 0.46897
 C1288 C 0.75528 0.24463 0.45469
 C1289 C 0.74477 0.25499 0.45468
 C1290 C 0.74168 0.25802 0.46897
 N1291 N 0.75001 0.24980 0.47761
 C1292 C 0.73136 0.26830 0.47359
 C1293 C 0.72807 0.27162 0.48812
 C1294 C 0.71824 0.28201 0.49248
 C1295 C 0.71822 0.28201 0.50729
 C1296 C 0.72804 0.27162 0.51166
 N1297 N 0.73384 0.26534 0.49990
 C1298 C 0.73131 0.26829 0.52620
 H1299 H 0.73991 0.25972 0.55461
 H1300 H 0.75998 0.23985 0.55460
 H1301 H 0.74106 0.25698 0.49990
 H1302 H 0.78823 0.21069 0.51410
 H1303 H 0.78827 0.21071 0.48574
 H1304 H 0.76007 0.23988 0.44520
 H1305 H 0.73999 0.25974 0.44519
 H1306 H 0.71171 0.28890 0.51406
 H1307 H 0.75888 0.24260 0.49990
 H1308 H 0.71173 0.28891 0.48570
 C1309 C 0.74495 0.24479 0.04518
 C1310 C 0.75526 0.25533 0.04517
 C1311 C 0.75823 0.25846 0.03088
 N1312 N 0.75003 0.25012 0.02225
 C1313 C 0.74189 0.24173 0.03090
 C1314 C 0.76844 0.26882 0.02625
 C1315 C 0.77171 0.27214 0.01171
 C1316 C 0.78198 0.28207 0.00733
 C1317 C 0.78196 0.28208 -0.00748
 C1318 C 0.77168 0.27216 -0.01183
 N1319 N 0.76549 0.26629 -0.00005
 C1320 C 0.76836 0.26886 -0.02636
 C1321 C 0.75815 0.25850 -0.03098
 C1322 C 0.75515 0.25538 -0.04526
 C1323 C 0.74484 0.24485 -0.04525
 C1324 C 0.74180 0.24178 -0.03097
 N1325 N 0.74995 0.25016 -0.02233
 C1326 C 0.73156 0.23144 -0.02634
 C1327 C 0.72826 0.22815 -0.01179
 C1328 C 0.71789 0.21833 -0.00741
 C1329 C 0.71792 0.21832 0.00740
 C1330 C 0.72830 0.22813 0.01175
 N1331 N 0.73456 0.23393 -0.00003
 C1332 C 0.73165 0.23140 0.02628
 H1333 H 0.74026 0.23996 0.05467
 H1334 H 0.76001 0.26011 0.05465
 H1335 H 0.74294 0.24111 -0.00004
 H1336 H 0.78881 0.28864 0.01409
 H1337 H 0.78877 0.28866 -0.01426
 H1338 H 0.75989 0.26017 -0.05475
 H1339 H 0.74013 0.24003 -0.05474
 H1340 H 0.71106 0.21180 0.01418
 H1341 H 0.75726 0.25894 -0.00005
 H1342 H 0.71101 0.21182 -0.01417
 C1343 C 0.74463 0.74493 0.45485
 C1344 C 0.75514 0.75527 0.45482
 C1345 C 0.75824 0.75830 0.46910
 N1346 N 0.74991 0.75012 0.47776
 C1347 C 0.74156 0.74192 0.46914
 C1348 C 0.76856 0.76856 0.47370
 C1349 C 0.77186 0.77189 0.48823
 C1350 C 0.78169 0.78226 0.49257
 C1351 C 0.78171 0.78226 0.50738
 C1352 C 0.77190 0.77189 0.51176
 N1353 N 0.76610 0.76561 0.50001
 C1354 C 0.76864 0.76857 0.52631
 C1355 C 0.75832 0.75832 0.53096
 C1356 C 0.75525 0.75530 0.54525
 C1357 C 0.74474 0.74497 0.54528
 C1358 C 0.74164 0.74194 0.53100
 N1359 N 0.74997 0.75012 0.52234
 C1360 C 0.73131 0.73168 0.52640
 C1361 C 0.72802 0.72836 0.51187
 C1362 C 0.71820 0.71797 0.50753
 C1363 C 0.71818 0.71797 0.49272
 C1364 C 0.72799 0.72835 0.48834
 N1365 N 0.73378 0.73464 0.50009
 C1366 C 0.73125 0.73166 0.47379
 H1367 H 0.73983 0.74019 0.44537
 H1368 H 0.75992 0.76000 0.44532
 H1369 H 0.74098 0.74301 0.50007
 H1370 H 0.78818 0.78914 0.48578
 H1371 H 0.78823 0.78915 0.51414
 H1372 H 0.76006 0.76004 0.55473
 H1373 H 0.73996 0.74024 0.55478
 H1374 H 0.71167 0.71108 0.48596
 H1375 H 0.75889 0.75724 0.50003
 H1376 H 0.71170 0.71109 0.51432
 C1377 C 1.04527 0.25546 0.24498
 C1378 C 1.04526 0.24484 0.25519
 C1379 C 1.03094 0.24171 0.25814
 N1380 N 1.02230 0.25013 0.25003
 C1381 C 1.03096 0.25857 0.24196
 C1382 C 1.02630 0.23129 0.26827
 C1383 C 1.01174 0.22798 0.27155
 C1384 C 1.00736 0.21814 0.28189
 C1385 C 0.99253 0.21813 0.28186
 C1386 C 0.98816 0.22797 0.27151
 N1387 N 0.99995 0.23377 0.26525
 C1388 C 0.97361 0.23127 0.26820
 C1389 C 0.96898 0.24168 0.25804
 C1390 C 0.95468 0.24480 0.25502
 C1391 C 0.95470 0.25541 0.24481
 C1392 C 0.96901 0.25853 0.24184
 N1393 N 0.97765 0.25010 0.24995
 C1394 C 0.97366 0.26893 0.23170
 C1395 C 0.98822 0.27223 0.22842
 C1396 C 0.99259 0.28205 0.21806
 C1397 C 1.00743 0.28207 0.21809
 C1398 C 1.01179 0.27225 0.22847
 N1399 N 1.00000 0.26647 0.23475
 C1400 C 1.02634 0.26898 0.23180
 H1401 H 1.05478 0.26031 0.24032
 H1402 H 1.05476 0.24000 0.25989
 H1403 H 0.99998 0.25937 0.24320
 H1404 H 1.01415 0.21162 0.28876
 H1405 H 0.98574 0.21160 0.28872
 H1406 H 0.94517 0.23996 0.25969
 H1407 H 0.94520 0.26025 0.24010
 H1408 H 1.01421 0.28858 0.21122
 H1409 H 0.99996 0.24091 0.25684
 H1410 H 0.98581 0.28855 0.21117
 C1411 C 0.45463 0.24472 0.75528
 C1412 C 0.45465 0.25508 0.74480
 C1413 C 0.46896 0.25810 0.74174
 N1414 N 0.47760 0.24988 0.75007
 C1415 C 0.46894 0.24168 0.75838
 C1416 C 0.47360 0.26839 0.73147
 C1417 C 0.48816 0.27171 0.72821
 C1418 C 0.49253 0.28218 0.71850
 C1419 C 0.50737 0.28217 0.71851
 C1420 C 0.51174 0.27170 0.72822
 N1421 N 0.49995 0.26535 0.73392
 C1422 C 0.52630 0.26836 0.73149
 C1423 C 0.53092 0.25808 0.74178
 C1424 C 0.54523 0.25504 0.74488
 C1425 C 0.54522 0.24469 0.75537
 C1426 C 0.53091 0.24167 0.75844
 N1427 N 0.52226 0.24988 0.75010
 C1428 C 0.52626 0.23140 0.76872
 C1429 C 0.51170 0.22806 0.77196
 C1430 C 0.50733 0.21759 0.78167
 C1431 C 0.49249 0.21759 0.78165
 C1432 C 0.48812 0.22806 0.77194
 N1433 N 0.49991 0.23441 0.76624
 C1434 C 0.47356 0.23139 0.76866
 H1435 H 0.44512 0.23998 0.76005
 H1436 H 0.44515 0.25983 0.74001
 H1437 H 0.49992 0.24291 0.75919
 H1438 H 0.48575 0.28912 0.71206
 H1439 H 0.51416 0.28911 0.71207
 H1440 H 0.55474 0.25978 0.74010
 H1441 H 0.55472 0.23994 0.76016
 H1442 H 0.48570 0.21065 0.78808
 H1443 H 0.49995 0.25685 0.74097
 H1444 H 0.51411 0.21065 0.78812
 C1445 C -0.04549 0.25525 0.75522
 C1446 C -0.04549 0.24469 0.74495
 C1447 C -0.03118 0.24158 0.74193
 N1448 N -0.02253 0.24994 0.75009
 C1449 C -0.03118 0.25833 0.75824
 C1450 C -0.02654 0.23118 0.73176
 C1451 C -0.01198 0.22787 0.72846
 C1452 C -0.00761 0.21784 0.71830
 C1453 C 0.00723 0.21784 0.71829
 C1454 C 0.01160 0.22787 0.72845
 N1455 N -0.00020 0.23382 0.73456
 C1456 C 0.02615 0.23118 0.73173
 C1457 C 0.03079 0.24155 0.74192
 C1458 C 0.04510 0.24462 0.74494
 C1459 C 0.04510 0.25516 0.75524
 C1460 C 0.03079 0.25827 0.75826
 N1461 N 0.02214 0.24992 0.75009
 C1462 C 0.02615 0.26866 0.76845
 C1463 C 0.01159 0.27198 0.77172
 C1464 C 0.00721 0.28203 0.78187
 C1465 C -0.00763 0.28205 0.78186
 C1466 C -0.01199 0.27201 0.77171
 N1467 N -0.00020 0.26604 0.76562
 C1468 C -0.02655 0.26871 0.76841
 H1469 H -0.05500 0.26008 0.75993
 H1470 H -0.05499 0.23989 0.74024
 H1471 H -0.00020 0.25847 0.75761
 H1472 H -0.01438 0.21119 0.71157
 H1473 H 0.01402 0.21119 0.71155
 H1474 H 0.05460 0.23980 0.74023
 H1475 H 0.05461 0.25996 0.75995
 H1476 H -0.01442 0.28872 0.78858
 H1477 H -0.00019 0.24137 0.74259
 H1478 H 0.01399 0.28868 0.78860
 C1479 C 0.45482 0.24449 0.24493
 C1480 C 0.45482 0.25506 0.25519
 C1481 C 0.46913 0.25818 0.25816
 N1482 N 0.47778 0.24980 0.25000
 C1483 C 0.46913 0.24140 0.24189
 C1484 C 0.47377 0.26857 0.26832
 C1485 C 0.48833 0.27189 0.27159
 C1486 C 0.49269 0.28185 0.28181
 C1487 C 0.50753 0.28185 0.28180
 C1488 C 0.51191 0.27189 0.27157
 N1489 N 0.50012 0.26599 0.26541
 C1490 C 0.52647 0.26858 0.26827
 C1491 C 0.53110 0.25819 0.25809
 C1492 C 0.54541 0.25507 0.25507
 C1493 C 0.54540 0.24450 0.24481
 C1494 C 0.53109 0.24141 0.24181
 N1495 N 0.52245 0.24981 0.24995
 C1496 C 0.52645 0.23104 0.23164
 C1497 C 0.51189 0.22774 0.22835
 C1498 C 0.50753 0.21782 0.21809
 C1499 C 0.49269 0.21781 0.21811
 C1500 C 0.48832 0.22773 0.22838
 N1501 N 0.50011 0.23359 0.23457
 C1502 C 0.47376 0.23102 0.23171
 H1503 H 0.44531 0.23966 0.24024
 H1504 H 0.44531 0.25988 0.25991
 H1505 H 0.50011 0.24091 0.24282
 H1506 H 0.48591 0.28846 0.28860
 H1507 H 0.51431 0.28846 0.28857
 H1508 H 0.55492 0.25988 0.25977
 H1509 H 0.55490 0.23967 0.24010
 H1510 H 0.48591 0.21123 0.21131
 H1511 H 0.50012 0.25859 0.25724
 H1512 H 0.51431 0.21124 0.21127
 C1513 C 1.04534 0.75545 0.74495
 C1514 C 1.04532 0.74488 0.75521
 C1515 C 1.03101 0.74179 0.75820
 N1516 N 1.02237 0.75018 0.75005
 C1517 C 1.03103 0.75857 0.74192
 C1518 C 1.02636 0.73141 0.76838
 C1519 C 1.01180 0.72811 0.77166
 C1520 C 1.00742 0.71817 0.78191
 C1521 C 0.99258 0.71818 0.78190
 C1522 C 0.98822 0.72812 0.77164
 N1523 N 1.00002 0.73399 0.76546
 C1524 C 0.97367 0.73143 0.76833
 C1525 C 0.96905 0.74182 0.75814
 C1526 C 0.95474 0.74495 0.75513
 C1527 C 0.95476 0.75551 0.74485
 C1528 C 0.96907 0.75858 0.74184
 N1529 N 0.97771 0.75019 0.75000
 C1530 C 0.97372 0.76895 0.73165
 C1531 C 0.98828 0.77224 0.72837
 C1532 C 0.99266 0.78215 0.71810
 C1533 C 1.00750 0.78216 0.71812
 C1534 C 1.01186 0.77225 0.72841
 N1535 N 1.00006 0.76640 0.73461
 C1536 C 1.02641 0.76895 0.73174
 H1537 H 1.05485 0.76026 0.74025
 H1538 H 1.05482 0.74005 0.75992
 H1539 H 1.00005 0.75908 0.74287
 H1540 H 1.01420 0.71158 0.78872
 H1541 H 0.98580 0.71159 0.78870
 H1542 H 0.94523 0.74015 0.75983
 H1543 H 0.94526 0.76034 0.74014
 H1544 H 1.01429 0.78873 0.71132
 H1545 H 1.00003 0.74135 0.75724
 H1546 H 0.98588 0.78872 0.71127
 C1547 C 0.54528 0.75543 0.24505
 C1548 C 0.54526 0.74483 0.25529
 C1549 C 0.53095 0.74172 0.25825
 N1550 N 0.52231 0.75013 0.25011
 C1551 C 0.53098 0.75854 0.24202
 C1552 C 0.52629 0.73133 0.26840
 C1553 C 0.51173 0.72802 0.27167
 C1554 C 0.50735 0.71812 0.28196
 C1555 C 0.49251 0.71812 0.28194
 C1556 C 0.48816 0.72802 0.27163
 N1557 N 0.49995 0.73385 0.26541
 C1558 C 0.47360 0.73132 0.26832
 C1559 C 0.46899 0.74172 0.25815
 C1560 C 0.45468 0.74486 0.25514
 C1561 C 0.45471 0.75546 0.24490
 C1562 C 0.46902 0.75854 0.24191
 N1563 N 0.47766 0.75012 0.25004
 C1564 C 0.47368 0.76892 0.23174
 C1565 C 0.48824 0.77221 0.22846
 C1566 C 0.49261 0.78205 0.21812
 C1567 C 0.50745 0.78206 0.21815
 C1568 C 0.51180 0.77222 0.22851
 N1569 N 0.50001 0.76643 0.23476
 C1570 C 0.52636 0.76894 0.23185
 H1571 H 0.55480 0.76026 0.24038
 H1572 H 0.55476 0.74000 0.26000
 H1573 H 0.49999 0.75927 0.24316
 H1574 H 0.51413 0.71157 0.28880
 H1575 H 0.48573 0.71156 0.28875
 H1576 H 0.44517 0.74005 0.25983
 H1577 H 0.44521 0.76030 0.24019
 H1578 H 0.51424 0.78858 0.21130
 H1579 H 0.49997 0.74110 0.25709
 H1580 H 0.48584 0.78858 0.21124
 C1581 C -0.04543 0.74481 0.24486
 C1582 C -0.04543 0.75534 0.25516
 C1583 C -0.03112 0.75842 0.25818
 N1584 N -0.02247 0.75006 0.25000
 C1585 C -0.03112 0.74171 0.24183
 C1586 C -0.02649 0.76880 0.26836
 C1587 C -0.01193 0.77211 0.27165
 C1588 C -0.00757 0.78219 0.28176
 C1589 C 0.00727 0.78218 0.28175
 C1590 C 0.01165 0.77210 0.27164
 N1591 N -0.00014 0.76611 0.26558
 C1592 C 0.02621 0.76879 0.26833
 C1593 C 0.03084 0.75843 0.25812
 C1594 C 0.04515 0.75535 0.25507
 C1595 C 0.04515 0.74484 0.24475
 C1596 C 0.03084 0.74175 0.24175
 N1597 N 0.02219 0.75008 0.24996
 C1598 C 0.02621 0.73138 0.23156
 C1599 C 0.01165 0.72804 0.22830
 C1600 C 0.00729 0.71792 0.21823
 C1601 C -0.00755 0.71791 0.21826
 C1602 C -0.01192 0.72802 0.22834
 N1603 N -0.00014 0.73405 0.23435
 C1604 C -0.02648 0.73133 0.23165
 H1605 H -0.05493 0.74001 0.24015
 H1606 H -0.05494 0.76016 0.25988
 H1607 H -0.00014 0.74178 0.24222
 H1608 H -0.01436 0.78887 0.28847
 H1609 H 0.01405 0.78886 0.28845
 H1610 H 0.05466 0.76016 0.25977
 H1611 H 0.05466 0.74004 0.24001
 H1612 H -0.01433 0.71120 0.21159
 H1613 H -0.00014 0.75846 0.25765
 H1614 H 0.01407 0.71122 0.21154
 C1615 C 0.54523 0.75536 0.75543
 C1616 C 0.54524 0.74502 0.74494
 C1617 C 0.53093 0.74198 0.74187
 N1618 N 0.52227 0.75018 0.75021
 C1619 C 0.53092 0.75838 0.75853
 C1620 C 0.52631 0.73170 0.73160
 C1621 C 0.51175 0.72837 0.72834
 C1622 C 0.50739 0.71789 0.71865
 C1623 C 0.49256 0.71789 0.71864
 C1624 C 0.48817 0.72838 0.72833
 N1625 N 0.49995 0.73475 0.73402
 C1626 C 0.47361 0.73172 0.73158
 C1627 C 0.46896 0.74200 0.74186
 C1628 C 0.45465 0.74503 0.74494
 C1629 C 0.45464 0.75537 0.75544
 C1630 C 0.46895 0.75838 0.75853
 N1631 N 0.47761 0.75018 0.75021
 C1632 C 0.47357 0.76865 0.76883
 C1633 C 0.48813 0.77197 0.77209
 C1634 C 0.49249 0.78242 0.78181
 C1635 C 0.50733 0.78243 0.78181
 C1636 C 0.51171 0.77197 0.77208
 N1637 N 0.49993 0.76563 0.76637
 C1638 C 0.52628 0.76866 0.76882
 H1639 H 0.55473 0.76011 0.76020
 H1640 H 0.55475 0.74028 0.74015
 H1641 H 0.49994 0.75714 0.75932
 H1642 H 0.51418 0.71093 0.71223
 H1643 H 0.48578 0.71094 0.71222
 H1644 H 0.44515 0.74030 0.74015
 H1645 H 0.44513 0.76011 0.76022
 H1646 H 0.51410 0.78937 0.78825
 H1647 H 0.49995 0.74329 0.74102
 H1648 H 0.48570 0.78936 0.78825
 C1649 C 0.43707 0.28977 0.30475
 C1650 C 0.43220 0.30561 0.30276
 C1651 C 0.41678 0.30034 0.29995
 C1652 C 0.42144 0.28461 0.30204
 C1653 C 0.44000 0.28885 0.28853
 C1654 C 0.42457 0.28359 0.28573
 C1655 C 0.43534 0.30457 0.28642
 C1656 C 0.41971 0.29940 0.28373
 C1657 C 0.40380 0.30668 0.30629
 C1658 C 0.39311 0.31184 0.31153
 C1659 C 0.45264 0.28218 0.28189
 C1660 C 0.46256 0.27626 0.27599
 H1661 H 0.44435 0.28574 0.31331
 H1662 H 0.43517 0.31474 0.30983
 H1663 H 0.41557 0.27647 0.30849
 H1664 H 0.42159 0.27445 0.27865
 H1665 H 0.44120 0.31269 0.27993
 H1666 H 0.41243 0.30339 0.27515
 C1667 C 0.43656 0.78973 0.80500
 C1668 C 0.43195 0.80567 0.80330
 C1669 C 0.41649 0.80069 0.80013
 C1670 C 0.42091 0.78486 0.80193
 C1671 C 0.43975 0.78914 0.78881
 C1672 C 0.42429 0.78416 0.78565
 C1673 C 0.43533 0.80496 0.78699
 C1674 C 0.41968 0.80008 0.78394
 C1675 C 0.40350 0.80707 0.80643
 C1676 C 0.39279 0.81225 0.81162
 C1677 C 0.45240 0.78240 0.78223
 C1678 C 0.46233 0.77642 0.77640
 H1679 H 0.44365 0.78541 0.81358
 H1680 H 0.43493 0.81460 0.81063
 H1681 H 0.41483 0.77664 0.80811
 H1682 H 0.42130 0.77523 0.77832
 H1683 H 0.44140 0.81316 0.78079
 H1684 H 0.41259 0.80436 0.77533
 C1685 C -0.06400 0.30525 0.78782
 C1686 C -0.07969 0.30133 0.78376
 C1687 C -0.08353 0.30074 0.79981
 C1688 C -0.06804 0.30476 0.80399
 C1689 C -0.06032 0.28915 0.78848
 C1690 C -0.06416 0.28854 0.80452
 C1691 C -0.07581 0.28514 0.78431
 C1692 C -0.07985 0.28464 0.80044
 C1693 C -0.09652 0.30711 0.80610
 C1694 C -0.10723 0.31228 0.81129
 C1695 C -0.04769 0.28241 0.78188
 C1696 C -0.03777 0.27645 0.77602
 H1697 H -0.05732 0.31364 0.78257
 H1698 H -0.08622 0.30663 0.77528
 H1699 H -0.06501 0.31291 0.81215
 H1700 H -0.05764 0.28322 0.81298
 H1701 H -0.07885 0.27699 0.77614
 H1702 H -0.08653 0.27623 0.80566
 C1703 C -0.06192 0.79290 0.30444
 C1704 C -0.06848 0.80762 0.30011
 C1705 C -0.08348 0.80068 0.29986
 C1706 C -0.07714 0.78607 0.30428
 C1707 C -0.06027 0.78916 0.28845
 C1708 C -0.07529 0.78223 0.28819
 C1709 C -0.06663 0.80377 0.28401
 C1710 C -0.08183 0.79693 0.28386
 C1711 C -0.09643 0.80705 0.30622
 C1712 C -0.10709 0.81224 0.31148
 C1713 C -0.04764 0.78246 0.28183
 C1714 C -0.03771 0.77652 0.27597
 H1715 H -0.05360 0.79117 0.31282
 H1716 H -0.06585 0.81816 0.30507
 H1717 H -0.08163 0.77884 0.31265
 H1718 H -0.07793 0.77171 0.28321
 H1719 H -0.06215 0.81097 0.27560
 H1720 H -0.09015 0.79862 0.27547
 C1721 C 0.57499 0.71120 0.28163
 C1722 C 0.58164 0.71557 0.29624
 C1723 C 0.58324 0.69957 0.30007
 C1724 C 0.57678 0.69510 0.28554
 C1725 C 0.56002 0.71107 0.28867
 C1726 C 0.56160 0.69507 0.29248
 C1727 C 0.56648 0.71555 0.30319
 C1728 C 0.56827 0.69944 0.30712
 C1729 C 0.59622 0.69325 0.30638
 C1730 C 0.60693 0.68812 0.31159
 C1731 C 0.54740 0.71774 0.28202
 C1732 C 0.53749 0.72366 0.27610
 H1733 H 0.57759 0.71612 0.27107
 H1734 H 0.59002 0.72392 0.29782
 H1735 H 0.58117 0.68665 0.27834
 H1736 H 0.55321 0.68674 0.29087
 H1737 H 0.56210 0.72403 0.31037
 H1738 H 0.56568 0.69454 0.31769
 C1739 C 0.56367 0.21116 0.80482
 C1740 C 0.56778 0.19501 0.80394
 C1741 C 0.58327 0.19934 0.80008
 C1742 C 0.57936 0.21537 0.80106
 C1743 C 0.56005 0.21090 0.78872
 C1744 C 0.57554 0.21523 0.78486
 C1745 C 0.56396 0.19488 0.78772
 C1746 C 0.57965 0.19911 0.78397
 C1747 C 0.59623 0.19294 0.80641
 C1748 C 0.60691 0.18773 0.81163
 C1749 C 0.54740 0.21764 0.78214
 C1750 C 0.53748 0.22362 0.77630
 H1751 H 0.55695 0.21618 0.81333
 H1752 H 0.56476 0.18662 0.81187
 H1753 H 0.58584 0.22375 0.80656
 H1754 H 0.57858 0.22363 0.77693
 H1755 H 0.55748 0.18653 0.78218
 H1756 H 0.58637 0.19412 0.77544
 C1757 C 1.07506 0.71120 0.78155
 C1758 C 1.08174 0.71561 0.79615
 C1759 C 1.08330 0.69962 0.80003
 C1760 C 1.07682 0.69512 0.78552
 C1761 C 1.06009 0.71113 0.78861
 C1762 C 1.06166 0.69514 0.79247
 C1763 C 1.06658 0.71565 0.80310
 C1764 C 1.06834 0.69955 0.80709
 C1765 C 1.09626 0.69328 0.80638
 C1766 C 1.10695 0.68812 0.81161
 C1767 C 1.04747 0.71780 0.78196
 C1768 C 1.03756 0.72373 0.77605
 H1769 H 1.07768 0.71608 0.77097
 H1770 H 1.09014 0.72395 0.79770
 H1771 H 1.08119 0.68663 0.77835
 H1772 H 1.05324 0.68682 0.79090
 H1773 H 1.06223 0.72416 0.81026
 H1774 H 1.06574 0.69469 0.81767
 C1775 C 1.07082 0.20155 0.28036
 C1776 C 1.08335 0.21008 0.28725
 C1777 C 1.08323 0.19957 0.29999
 C1778 C 1.07089 0.19093 0.29320
 C1779 C 1.06004 0.21106 0.28853
 C1780 C 1.05991 0.20056 0.30127
 C1781 C 1.07239 0.21970 0.29532
 C1782 C 1.07246 0.20909 0.30817
 C1783 C 1.09618 0.19323 0.30636
 C1784 C 1.10683 0.18804 0.31163
 C1785 C 1.04742 0.21773 0.28187
 C1786 C 1.03750 0.22363 0.27596
 H1787 H 1.06999 0.19853 0.26885
 H1788 H 1.09311 0.21394 0.28155
 H1789 H 1.07047 0.17902 0.29236
 H1790 H 1.05013 0.19671 0.30696
 H1791 H 1.07286 0.23160 0.29612
 H1792 H 1.07333 0.21215 0.31967
 C1793 C 0.57557 0.28482 0.71562
 C1794 C 0.57957 0.28428 0.69948
 C1795 C 0.58326 0.30038 0.70006
 C1796 C 0.57945 0.30100 0.71613
 C1797 C 0.56006 0.28885 0.71147
 C1798 C 0.56374 0.30494 0.71209
 C1799 C 0.56388 0.28821 0.69542
 C1800 C 0.56776 0.30442 0.69592
 C1801 C 0.59621 0.30673 0.69371
 C1802 C 0.60688 0.31192 0.68848
 C1803 C 0.54744 0.28211 0.71808
 C1804 C 0.53752 0.27613 0.72392
 H1805 H 0.57862 0.27667 0.72380
 H1806 H 0.58623 0.27584 0.69426
 H1807 H 0.58600 0.30629 0.72458
 H1808 H 0.55709 0.31336 0.71733
 H1809 H 0.55733 0.28289 0.68699
 H1810 H 0.56471 0.31256 0.68773
 C1811 C 0.56378 0.78871 0.19556
 C1812 C 0.56781 0.80488 0.19621
 C1813 C 0.58330 0.80066 0.20020
 C1814 C 0.57948 0.78461 0.19945
 C1815 C 0.56010 0.78920 0.21165
 C1816 C 0.57560 0.78499 0.21563
 C1817 C 0.56392 0.80526 0.21241
 C1818 C 0.57962 0.80114 0.21629
 C1819 C 0.59626 0.80696 0.19384
 C1820 C 0.60695 0.81209 0.18859
 C1821 C 0.54749 0.78253 0.21830
 C1822 C 0.53757 0.77661 0.22420
 H1823 H 0.55713 0.78354 0.18711
 H1824 H 0.56478 0.81315 0.18814
 H1825 H 0.58604 0.77618 0.19409
 H1826 H 0.57865 0.77673 0.22370
 H1827 H 0.55737 0.81367 0.21781
 H1828 H 0.58628 0.80628 0.22475
 C1829 C 1.07558 0.28519 0.21572
 C1830 C 1.07955 0.28465 0.19957
 C1831 C 1.08327 0.30074 0.20016
 C1832 C 1.07949 0.30137 0.21622
 C1833 C 1.06008 0.28926 0.21160
 C1834 C 1.06379 0.30534 0.21221
 C1835 C 1.06386 0.28861 0.19554
 C1836 C 1.06777 0.30481 0.19603
 C1837 C 1.09621 0.30708 0.19378
 C1838 C 1.10686 0.31223 0.18851
 C1839 C 1.04747 0.28257 0.21826
 C1840 C 1.03756 0.27665 0.22415
 H1841 H 1.07864 0.27704 0.22389
 H1842 H 1.08620 0.27621 0.19434
 H1843 H 1.08607 0.30665 0.22466
 H1844 H 1.05716 0.31376 0.21747
 H1845 H 1.05729 0.28329 0.18712
 H1846 H 1.06472 0.31296 0.18786
 C1847 C 1.06054 0.79669 0.69682
 C1848 C 1.06947 0.80907 0.70353
 C1849 C 1.08333 0.80072 0.70008
 C1850 C 1.07461 0.78845 0.69327
 C1851 C 1.06015 0.78925 0.71155
 C1852 C 1.07402 0.78091 0.70810
 C1853 C 1.06887 0.80151 0.71837
 C1854 C 1.08292 0.79327 0.71481
 C1855 C 1.09629 0.80701 0.69370
 C1856 C 1.10697 0.81214 0.68845
 C1857 C 1.04754 0.78256 0.71821
 C1858 C 1.03763 0.77664 0.72410
 H1859 H 1.05119 0.79802 0.68950
 H1860 H 1.06777 0.82073 0.70160
 H1861 H 1.07716 0.78312 0.68289
 H1862 H 1.07574 0.76925 0.71006
 H1863 H 1.06636 0.80681 0.72877
 H1864 H 1.09226 0.79192 0.72214
 C1865 C 0.44002 0.70090 0.69864
 C1866 C 0.42925 0.69101 0.70667
 C1867 C 0.41671 0.69962 0.70014
 C1868 C 0.42727 0.70941 0.69202
 C1869 C 0.43989 0.71119 0.71155
 C1870 C 0.42735 0.71979 0.70503
 C1871 C 0.42932 0.70141 0.71968
 C1872 C 0.41661 0.70991 0.71306
 C1873 C 0.40374 0.69327 0.69382
 C1874 C 0.39304 0.68813 0.68861
 C1875 C 0.45250 0.71794 0.71816
 C1876 C 0.46240 0.72394 0.72401
 H1877 H 0.44978 0.69727 0.69279
 H1878 H 0.42986 0.67910 0.70729
 H1879 H 0.42626 0.71265 0.68058
 H1880 H 0.42671 0.73170 0.70444
 H1881 H 0.43031 0.69819 0.73113
 H1882 H 0.40686 0.71356 0.71893
 C1883 C 0.43647 0.19458 0.21191
 C1884 C 0.42077 0.19835 0.21614
 C1885 C 0.41684 0.19923 0.20013
 C1886 C 0.43233 0.19536 0.19578
 C1887 C 0.44004 0.21070 0.21154
 C1888 C 0.43610 0.21160 0.19553
 C1889 C 0.42454 0.21456 0.21588
 C1890 C 0.42041 0.21535 0.19978
 C1891 C 0.40386 0.19294 0.19379
 C1892 C 0.39315 0.18783 0.18857
 C1893 C 0.45265 0.21739 0.21818
 C1894 C 0.46255 0.22333 0.22407
 H1895 H 0.44322 0.18612 0.21696
 H1896 H 0.41432 0.19286 0.22456
 H1897 H 0.43536 0.18737 0.18744
 H1898 H 0.44255 0.21711 0.18713
 H1899 H 0.42149 0.22255 0.22422
 H1900 H 0.41365 0.22383 0.19476
 C1901 C -0.07526 0.71772 0.21203
 C1902 C -0.07717 0.71408 0.19591
 C1903 C -0.08337 0.69937 0.20019
 C1904 C -0.08165 0.70293 0.21622
 C1905 C -0.06019 0.71089 0.21159
 C1906 C -0.06639 0.69619 0.21588
 C1907 C -0.06191 0.70735 0.19556
 C1908 C -0.06831 0.69253 0.19974
 C1909 C -0.09634 0.69306 0.19386
 C1910 C -0.10704 0.68794 0.18864
 C1911 C -0.04758 0.71762 0.21820
 C1912 C -0.03769 0.72359 0.22406
 H1913 H -0.07796 0.72816 0.21717
 H1914 H -0.08178 0.72138 0.18766
 H1915 H -0.08990 0.70107 0.22465
 H1916 H -0.06180 0.68891 0.22416
 H1917 H -0.05365 0.70924 0.18714
 H1918 H -0.06562 0.68208 0.19462
 C1919 C -0.06384 0.19471 0.71199
 C1920 C -0.07954 0.19849 0.71619
 C1921 C -0.08345 0.19936 0.70017
 C1922 C -0.06795 0.19548 0.69586
 C1923 C -0.06026 0.21083 0.71162
 C1924 C -0.06417 0.21172 0.69560
 C1925 C -0.07577 0.21470 0.71592
 C1926 C -0.07986 0.21549 0.69982
 C1927 C -0.09640 0.19306 0.69380
 C1928 C -0.10708 0.18792 0.68854
 C1929 C -0.04765 0.21753 0.71826
 C1930 C -0.03775 0.22347 0.72414
 H1931 H -0.05710 0.18625 0.71706
 H1932 H -0.08602 0.19301 0.72460
 H1933 H -0.06491 0.18749 0.68752
 H1934 H -0.05770 0.21723 0.68721
 H1935 H -0.07883 0.22269 0.72426
 H1936 H -0.08661 0.22397 0.69478
 C1937 C 0.30468 0.43520 0.28644
 C1938 C 0.30563 0.43198 0.30276
 C1939 C 0.30042 0.41657 0.29985
 C1940 C 0.29957 0.41958 0.28363
 C1941 C 0.28893 0.43980 0.28847
 C1942 C 0.28372 0.42438 0.28556
 C1943 C 0.28975 0.43679 0.30468
 C1944 C 0.28465 0.42117 0.30186
 C1945 C 0.30675 0.40360 0.30619
 C1946 C 0.31191 0.39292 0.31144
 C1947 C 0.28222 0.45245 0.28190
 C1948 C 0.27624 0.46238 0.27608
 H1949 H 0.31284 0.44111 0.28003
 H1950 H 0.31471 0.43494 0.30991
 H1951 H 0.30364 0.41236 0.27504
 H1952 H 0.27463 0.42141 0.27841
 H1953 H 0.28565 0.44401 0.31326
 H1954 H 0.27647 0.41525 0.30824
 C1955 C 0.28846 -0.06471 0.80449
 C1956 C 0.28474 -0.08037 0.80020
 C1957 C 0.30089 -0.08395 0.79985
 C1958 C 0.30472 -0.06848 0.80424
 C1959 C 0.28934 -0.06070 0.78849
 C1960 C 0.30549 -0.06428 0.78812
 C1961 C 0.28552 -0.07619 0.78411
 C1962 C 0.30176 -0.07995 0.78385
 C1963 C 0.30726 -0.09694 0.80620
 C1964 C 0.31244 -0.10762 0.81145
 C1965 C 0.28262 -0.04803 0.78191
 C1966 C 0.27666 -0.03807 0.77609
 H1967 H 0.28292 -0.05831 0.81291
 H1968 H 0.27625 -0.08714 0.80519
 H1969 H 0.31269 -0.06547 0.81259
 H1970 H 0.31396 -0.05752 0.78310
 H1971 H 0.27754 -0.07921 0.77576
 H1972 H 0.30726 -0.08637 0.77541
 C1973 C 0.79103 0.42537 0.78082
 C1974 C 0.80654 0.42431 0.78684
 C1975 C 0.80060 0.41651 0.80014
 C1976 C 0.78520 0.41738 0.79421
 C1977 C 0.78911 0.43974 0.78876
 C1978 C 0.78316 0.43194 0.80205
 C1979 C 0.80451 0.43889 0.79468
 C1980 C 0.79867 0.43088 0.80809
 C1981 C 0.80691 0.40352 0.80646
 C1982 C 0.81203 0.39280 0.81167
 C1983 C 0.78241 0.45237 0.78213
 C1984 C 0.77648 0.46230 0.77625
 H1985 H 0.78781 0.42325 0.76953
 H1986 H 0.81620 0.42101 0.78063
 H1987 H 0.77732 0.40841 0.79405
 H1988 H 0.77348 0.43522 0.80823
 H1989 H 0.81237 0.44787 0.79480
 H1990 H 0.80188 0.43297 0.81939
 C1991 C 0.78863 -0.06419 0.30476
 C1992 C 0.78448 -0.07986 0.30089
 C1993 C 0.80055 -0.08374 0.30009
 C1994 C 0.80481 -0.06827 0.30406
 C1995 C 0.78909 -0.06051 0.28867
 C1996 C 0.80514 -0.06440 0.28785
 C1997 C 0.78483 -0.07599 0.28471
 C1998 C 0.80098 -0.08007 0.28400
 C1999 C 0.80688 -0.09669 0.30647
 C2000 C 0.81206 -0.10734 0.31175
 C2001 C 0.78241 -0.04787 0.28205
 C2002 C 0.77648 -0.03793 0.27620
 H2003 H 0.78349 -0.05752 0.31322
 H2004 H 0.77605 -0.08637 0.30627
 H2005 H 0.81311 -0.06527 0.31209
 H2006 H 0.81356 -0.05790 0.28242
 H2007 H 0.77653 -0.07901 0.27667
 H2008 H 0.80608 -0.08675 0.27552
 C2009 C 0.28487 0.57560 0.71559
 C2010 C 0.30106 0.57951 0.71612
 C2011 C 0.30045 0.58333 0.70006
 C2012 C 0.28435 0.57961 0.69944
 C2013 C 0.28895 0.56011 0.71144
 C2014 C 0.28832 0.56393 0.69539
 C2015 C 0.30504 0.56383 0.71208
 C2016 C 0.30454 0.56785 0.69591
 C2017 C 0.30678 0.59632 0.69376
 C2018 C 0.31193 0.60703 0.68856
 C2019 C 0.28226 0.54749 0.71809
 C2020 C 0.27635 0.53757 0.72400
 H2021 H 0.27669 0.57864 0.72376
 H2022 H 0.30632 0.58606 0.72459
 H2023 H 0.27590 0.58625 0.69422
 H2024 H 0.28302 0.55738 0.68694
 H2025 H 0.31347 0.55720 0.71734
 H2026 H 0.31271 0.56483 0.68774
 C2027 C 0.30518 1.06364 0.21185
 C2028 C 0.30452 1.06778 0.19572
 C2029 C 0.30060 1.08325 0.20004
 C2030 C 0.30136 1.07931 0.21606
 C2031 C 0.28905 1.06006 0.21137
 C2032 C 0.28514 1.07553 0.21568
 C2033 C 0.28827 1.06399 0.19536
 C2034 C 0.28446 1.07966 0.19958
 C2035 C 0.30692 1.09621 0.19376
 C2036 C 0.31206 1.10691 0.18858
 C2037 C 0.28231 1.04747 0.21796
 C2038 C 0.27632 1.03758 0.22380
 H2039 H 0.31361 1.05689 0.21696
 H2040 H 0.31257 1.06476 0.18743
 H2041 H 0.30678 1.08577 0.22450
 H2042 H 0.27708 1.07856 0.22397
 H2043 H 0.28281 1.05754 0.18693
 H2044 H 0.27601 1.08641 0.19450
 C2045 C 0.80496 0.56415 0.21266
 C2046 C 0.80505 0.56783 0.19640
 C2047 C 0.80048 0.58329 0.20007
 C2048 C 0.80050 0.57982 0.21621
 C2049 C 0.78898 0.56010 0.21143
 C2050 C 0.78443 0.57557 0.21509
 C2051 C 0.78895 0.56357 0.19530
 C2052 C 0.78450 0.57923 0.19886
 C2053 C 0.80679 0.59626 0.19378
 C2054 C 0.81192 0.60697 0.18859
 C2055 C 0.78230 0.54750 0.21807
 C2056 C 0.77638 0.53761 0.22398
 H2057 H 0.81329 0.55779 0.21839
 H2058 H 0.81361 0.56482 0.18864
 H2059 H 0.80528 0.58665 0.22474
 H2060 H 0.77586 0.57859 0.22285
 H2061 H 0.78413 0.55674 0.18678
 H2062 H 0.77615 0.58560 0.19315
 C2063 C 0.78031 1.07224 0.70416
 C2064 C 0.78947 1.08344 0.71238
 C2065 C 0.80042 1.08329 0.70002
 C2066 C 0.79136 1.07227 0.69169
 C2067 C 0.78890 1.06013 0.71144
 C2068 C 0.79986 1.05996 0.69908
 C2069 C 0.79796 1.07116 0.71977
 C2070 C 0.80903 1.07119 0.70731
 C2071 C 0.80675 1.09623 0.69369
 C2072 C 0.81190 1.10690 0.68846
 C2073 C 0.78217 1.04756 0.71807
 C2074 C 0.77618 1.03768 0.72393
 H2075 H 0.76842 1.07251 0.70295
 H2076 H 0.78526 1.09323 0.71778
 H2077 H 0.78869 1.07290 0.68008
 H2078 H 0.80404 1.05015 0.69370
 H2079 H 0.80060 1.07054 0.73139
 H2080 H 0.82091 1.07094 0.70855
 C2081 C 0.71230 0.56436 0.30453
 C2082 C 0.71575 0.58001 0.29995
 C2083 C 0.69956 0.58341 0.29999
 C2084 C 0.69600 0.56796 0.30467
 C2085 C 0.71102 0.56017 0.28861
 C2086 C 0.69484 0.56358 0.28863
 C2087 C 0.71458 0.57563 0.28394
 C2088 C 0.69830 0.57923 0.28407
 C2089 C 0.69325 0.59639 0.30631
 C2090 C 0.68812 0.60709 0.31153
 C2091 C 0.71768 0.54754 0.28198
 C2092 C 0.72359 0.53762 0.27607
 H2093 H 0.71813 0.55810 0.31286
 H2094 H 0.72428 0.58692 0.30463
 H2095 H 0.68828 0.56497 0.31327
 H2096 H 0.68633 0.55666 0.28391
 H2097 H 0.72230 0.57863 0.27534
 H2098 H 0.69251 0.58550 0.27571
 C2099 C 0.69485 1.06416 0.78821
 C2100 C 0.69546 1.06820 0.80437
 C2101 C 0.69945 1.08368 0.80016
 C2102 C 0.69874 1.07984 0.78411
 C2103 C 0.71096 1.06046 0.78873
 C2104 C 0.71495 1.07595 0.78453
 C2105 C 0.71169 1.06431 0.80477
 C2106 C 0.71557 1.07999 0.80066
 C2107 C 0.69308 1.09664 0.80656
 C2108 C 0.68790 1.10730 0.81184
 C2109 C 0.71767 1.04780 0.78213
 C2110 C 0.72363 1.03785 0.77630
 H2111 H 0.68639 1.05751 0.78303
 H2112 H 0.68736 1.06518 0.81260
 H2113 H 0.69339 1.08637 0.77567
 H2114 H 0.72305 1.07899 0.77629
 H2115 H 0.71707 1.05779 0.81320
 H2116 H 0.72405 1.08665 0.80580
 C2117 C 0.19467 0.56281 0.78988
 C2118 C 0.19697 0.56789 0.80559
 C2119 C 0.19948 0.58326 0.80005
 C2120 C 0.19709 0.57839 0.78446
 C2121 C 0.21093 0.56004 0.78864
 C2122 C 0.21344 0.57542 0.78310
 C2123 C 0.21334 0.56492 0.80422
 C2124 C 0.21574 0.58049 0.79878
 C2125 C 0.19316 0.59623 0.80640
 C2126 C 0.18803 0.60693 0.81162
 C2127 C 0.21758 0.54740 0.78199
 C2128 C 0.22349 0.53749 0.77607
 H2129 H 0.18610 0.55538 0.78616
 H2130 H 0.19011 0.56496 0.81491
 H2131 H 0.19036 0.58408 0.77639
 H2132 H 0.22029 0.57837 0.77378
 H2133 H 0.22008 0.55924 0.81227
 H2134 H 0.22432 0.58792 0.80248
 C2135 C 0.19492 1.06389 0.28792
 C2136 C 0.19551 1.06792 0.30408
 C2137 C 0.19954 1.08339 0.29988
 C2138 C 0.19885 1.07957 0.28383
 C2139 C 0.21102 1.06018 0.28847
 C2140 C 0.21505 1.07566 0.28428
 C2141 C 0.21173 1.06401 0.30451
 C2142 C 0.21565 1.07968 0.30041
 C2143 C 0.19321 1.09634 0.30625
 C2144 C 0.18802 1.10698 0.31153
 C2145 C 0.21772 1.04755 0.28187
 C2146 C 0.22368 1.03762 0.27604
 H2147 H 0.18647 1.05726 0.28271
 H2148 H 0.18738 1.06492 0.31230
 H2149 H 0.19352 1.08613 0.27539
 H2150 H 0.22316 1.07868 0.27605
 H2151 H 0.21710 1.05747 0.31294
 H2152 H 0.22412 1.08633 0.30556
 C2153 C 0.69974 0.43997 0.69956
 C2154 C 0.70819 0.42796 0.69164
 C2155 C 0.69961 0.41661 0.70007
 C2156 C 0.69106 0.42842 0.70789
 C2157 C 0.71113 0.43977 0.71152
 C2158 C 0.70256 0.42842 0.71995
 C2159 C 0.71967 0.42796 0.70371
 C2160 C 0.71100 0.41643 0.71204
 C2161 C 0.69326 0.40368 0.69370
 C2162 C 0.68807 0.39302 0.68846
 C2163 C 0.71783 0.45239 0.71817
 C2164 C 0.72376 0.46230 0.72405
 H2165 H 0.69519 0.44979 0.69450
 H2166 H 0.71046 0.42758 0.67993
 H2167 H 0.67923 0.42844 0.70957
 H2168 H 0.70033 0.42877 0.73167
 H2169 H 0.73151 0.42792 0.70207
 H2170 H 0.71558 0.40663 0.71711
 C2171 C 0.71525 -0.07576 0.21560
 C2172 C 0.69907 -0.07969 0.21622
 C2173 C 0.69960 -0.08342 0.20014
 C2174 C 0.71569 -0.07969 0.19944
 C2175 C 0.71112 -0.06027 0.21154
 C2176 C 0.71167 -0.06400 0.19547
 C2177 C 0.69504 -0.06400 0.21226
 C2178 C 0.69547 -0.06794 0.19607
 C2179 C 0.69326 -0.09636 0.19382
 C2180 C 0.68810 -0.10702 0.18859
 C2181 C 0.71785 -0.04768 0.21815
 C2182 C 0.72382 -0.03780 0.22400
 H2183 H 0.72347 -0.07881 0.22372
 H2184 H 0.69385 -0.08629 0.22468
 H2185 H 0.72412 -0.08629 0.19414
 H2186 H 0.71692 -0.05740 0.18702
 H2187 H 0.68663 -0.05739 0.21759
 H2188 H 0.68725 -0.06490 0.18796
 C2189 C 0.19472 0.43692 0.21085
 C2190 C 0.19635 0.43223 0.19494
 C2191 C 0.19944 0.41680 0.19999
 C2192 C 0.19772 0.42127 0.21579
 C2193 C 0.21096 0.43997 0.21136
 C2194 C 0.21405 0.42453 0.21641
 C2195 C 0.21270 0.43549 0.19557
 C2196 C 0.21568 0.41986 0.20052
 C2197 C 0.19309 0.40387 0.19365
 C2198 C 0.18793 0.39322 0.18841
 C2199 C 0.21769 0.45257 0.21796
 C2200 C 0.22367 0.46246 0.22379
 H2201 H 0.18619 0.44408 0.21517
 H2202 H 0.18899 0.43523 0.18603
 H2203 H 0.19153 0.41526 0.22404
 H2204 H 0.22141 0.42152 0.22532
 H2205 H 0.21893 0.44149 0.18734
 H2206 H 0.22424 0.41269 0.19625
 C2207 C 0.21447 -0.07569 0.71620
 C2208 C 0.19816 -0.07909 0.71589
 C2209 C 0.19958 -0.08333 0.70000
 C2210 C 0.21580 -0.08012 0.70022
 C2211 C 0.21113 -0.06021 0.71144
 C2212 C 0.21256 -0.06445 0.69555
 C2213 C 0.19491 -0.06341 0.71124
 C2214 C 0.19623 -0.06786 0.69523
 C2215 C 0.19324 -0.09627 0.69366
 C2216 C 0.18808 -0.10693 0.68842
 C2217 C 0.21787 -0.04765 0.71809
 C2218 C 0.22386 -0.03779 0.72398
 H2219 H 0.22206 -0.07875 0.72490
 H2220 H 0.19221 -0.08527 0.72419
 H2221 H 0.22432 -0.08715 0.69565
 H2222 H 0.21855 -0.05828 0.68727
 H2223 H 0.18641 -0.05638 0.71584
 H2224 H 0.18864 -0.06481 0.68653
 C2225 C 0.30479 0.28791 0.43616
 C2226 C 0.30068 0.28399 0.42050
 C2227 C 0.30016 0.30009 0.41680
 C2228 C 0.30437 0.30412 0.43225
 C2229 C 0.28872 0.28866 0.43999
 C2230 C 0.28818 0.30475 0.43629
 C2231 C 0.28452 0.28464 0.42453
 C2232 C 0.28409 0.30082 0.42063
 C2233 C 0.30650 0.30643 0.40385
 C2234 C 0.31171 0.31164 0.39319
 C2235 C 0.28207 0.28200 0.45262
 C2236 C 0.27618 0.27609 0.46253
 H2237 H 0.31322 0.28253 0.44269
 H2238 H 0.30584 0.27552 0.41386
 H2239 H 0.31262 0.31221 0.43526
 H2240 H 0.28298 0.31321 0.44292
 H2241 H 0.27627 0.27654 0.42151
 H2242 H 0.27563 0.30616 0.41409
 C2243 C 0.28211 0.80063 -0.06916
 C2244 C 0.29680 0.80851 -0.06973
 C2245 C 0.30057 0.80009 -0.08344
 C2246 C 0.28598 0.79232 -0.08306
 C2247 C 0.28913 0.78862 -0.06024
 C2248 C 0.29290 0.78021 -0.07396
 C2249 C 0.30372 0.79637 -0.06060
 C2250 C 0.30760 0.78806 -0.07453
 C2251 C 0.30689 0.80647 -0.09640
 C2252 C 0.31208 0.81171 -0.10707
 C2253 C 0.28249 0.78195 -0.04760
 C2254 C 0.27660 0.77605 -0.03767
 H2255 H 0.27155 0.80573 -0.06681
 H2256 H 0.29845 0.82023 -0.06815
 H2257 H 0.27875 0.79069 -0.09241
 H2258 H 0.29122 0.76849 -0.07555
 H2259 H 0.31094 0.79796 -0.05123
 H2260 H 0.31812 0.78292 -0.07690
 C2261 C 0.78161 0.30119 -0.06894
 C2262 C 0.79633 0.30899 -0.06951
 C2263 C 0.80003 0.30061 -0.08326
 C2264 C 0.78541 0.29292 -0.08289
 C2265 C 0.78860 0.28910 -0.06009
 C2266 C 0.79229 0.28073 -0.07386
 C2267 C 0.80323 0.29678 -0.06046
 C2268 C 0.80702 0.28851 -0.07442
 C2269 C 0.80637 0.30700 -0.09619
 C2270 C 0.81158 0.31225 -0.10684
 C2271 C 0.78195 0.28242 -0.04748
 C2272 C 0.77604 0.27652 -0.03757
 H2273 H 0.77108 0.30632 -0.06654
 H2274 H 0.79805 0.32069 -0.06789
 H2275 H 0.77815 0.29137 -0.09223
 H2276 H 0.79055 0.26903 -0.07549
 H2277 H 0.81047 0.29829 -0.05110
 H2278 H 0.81752 0.28334 -0.07685
 C2279 C 0.78749 0.80495 0.43594
 C2280 C 0.80375 0.80491 0.43220
 C2281 C 0.79999 0.80045 0.41674
 C2282 C 0.78384 0.80059 0.42029
 C2283 C 0.78861 0.78895 0.43994
 C2284 C 0.78485 0.78450 0.42448
 C2285 C 0.80476 0.78879 0.43640
 C2286 C 0.80109 0.78445 0.42075
 C2287 C 0.80631 0.80681 0.40379
 C2288 C 0.81150 0.81202 0.39311
 C2289 C 0.78200 0.78225 0.45257
 C2290 C 0.77615 0.77630 0.46248
 H2291 H 0.78182 0.81330 0.44233
 H2292 H 0.81161 0.81338 0.43521
 H2293 H 0.77530 0.80547 0.41350
 H2294 H 0.77699 0.77603 0.42146
 H2295 H 0.81328 0.78388 0.44317
 H2296 H 0.80671 0.77607 0.41435
 C2297 C 0.71259 0.30457 0.56415
 C2298 C 0.69629 0.30482 0.56774
 C2299 C 0.69981 0.30010 0.58318
 C2300 C 0.71600 0.29996 0.57979
 C2301 C 0.71121 0.28865 0.55996
 C2302 C 0.71474 0.28394 0.57540
 C2303 C 0.69503 0.28878 0.56335
 C2304 C 0.69846 0.28418 0.57898
 C2305 C 0.69349 0.30645 0.59614
 C2306 C 0.68830 0.31166 0.60681
 C2307 C 0.71783 0.28197 0.54732
 C2308 C 0.72369 0.27603 0.53740
 H2309 H 0.71846 0.31288 0.55792
 H2310 H 0.68862 0.31349 0.56475
 H2311 H 0.72456 0.30458 0.58671
 H2312 H 0.72241 0.27528 0.57841
 H2313 H 0.68648 0.28412 0.55644
 H2314 H 0.69262 0.27585 0.58524
 C2315 C 0.71990 0.79697 1.07178
 C2316 C 0.70823 0.80889 1.07184
 C2317 C 0.69989 0.80039 1.08329
 C2318 C 0.71146 0.78857 1.08343
 C2319 C 0.71137 0.78898 1.06011
 C2320 C 0.70304 0.78048 1.07157
 C2321 C 0.69980 0.80079 1.05996
 C2322 C 0.69136 0.79239 1.07163
 C2323 C 0.69352 0.80670 1.09623
 C2324 C 0.68828 0.81189 1.10688
 C2325 C 0.71804 0.78235 1.04749
 C2326 C 0.72396 0.77647 1.03758
 H2327 H 0.73171 0.79877 1.07169
 H2328 H 0.71033 0.82064 1.07213
 H2329 H 0.71620 0.78361 1.09320
 H2330 H 0.70098 0.76872 1.07131
 H2331 H 0.69509 0.80573 1.05017
 H2332 H 0.67955 0.79054 1.07175
 C2333 C 0.22001 0.29424 1.07315
 C2334 C 0.21065 0.30803 1.07340
 C2335 C 0.19992 0.30033 1.08334
 C2336 C 0.20920 0.28664 1.08328
 C2337 C 0.21133 0.28885 1.06016
 C2338 C 0.20062 0.28114 1.07011
 C2339 C 0.20207 0.30254 1.06021
 C2340 C 0.19124 0.29493 1.07037
 C2341 C 0.19357 0.30667 1.09629
 C2342 C 0.18836 0.31185 1.10695
 C2343 C 0.21793 0.28214 1.04754
 C2344 C 0.22375 0.27617 1.03763
 H2345 H 0.23192 0.29387 1.07414
 H2346 H 0.21472 0.31915 1.07494
 H2347 H 0.21207 0.28017 1.09290
 H2348 H 0.19658 0.27001 1.06861
 H2349 H 0.19923 0.30899 1.05058
 H2350 H 0.17934 0.29527 1.06939
 C2351 C 0.21977 0.79271 0.57364
 C2352 C 0.21197 0.80743 0.57423
 C2353 C 0.19990 0.80047 0.58312
 C2354 C 0.20761 0.78584 0.58272
 C2355 C 0.21133 0.78903 0.55992
 C2356 C 0.19928 0.78206 0.56882
 C2357 C 0.20364 0.80365 0.56030
 C2358 C 0.19146 0.79678 0.56940
 C2359 C 0.19355 0.80678 0.59606
 C2360 C 0.18832 0.81196 0.60673
 C2361 C 0.21794 0.78235 0.54729
 C2362 C 0.22380 0.77640 0.53738
 H2363 H 0.23149 0.79095 0.57523
 H2364 H 0.21715 0.81792 0.57663
 H2365 H 0.20920 0.77859 0.59207
 H2366 H 0.19413 0.77155 0.56644
 H2367 H 0.20208 0.81089 0.55094
 H2368 H 0.17974 0.79851 0.56783
 C2369 C 0.30492 0.71175 0.56363
 C2370 C 0.30104 0.71592 0.57928
 C2371 C 0.30022 0.69987 0.58317
 C2372 C 0.30419 0.69559 0.56771
 C2373 C 0.28880 0.71133 0.55996
 C2374 C 0.28796 0.69530 0.56384
 C2375 C 0.28483 0.71561 0.57542
 C2376 C 0.28410 0.69948 0.57950
 C2377 C 0.30657 0.69352 0.59611
 C2378 C 0.31180 0.68829 0.60676
 C2379 C 0.28219 0.71801 0.54732
 C2380 C 0.27633 0.72396 0.53740
 H2381 H 0.31340 0.71686 0.55695
 H2382 H 0.30645 0.72435 0.58578
 H2383 H 0.31224 0.68728 0.56470
 H2384 H 0.28251 0.68689 0.55735
 H2385 H 0.27679 0.72392 0.57844
 H2386 H 0.27560 0.69441 0.58618
 C2387 C 0.28450 0.21507 1.07558
 C2388 C 0.28405 0.19889 1.07951
 C2389 C 0.30013 0.19957 1.08329
 C2390 C 0.30067 0.21566 1.07956
 C2391 C 0.28866 0.21101 1.06011
 C2392 C 0.30474 0.21170 1.06391
 C2393 C 0.28810 0.19492 1.06385
 C2394 C 0.30430 0.19550 1.06783
 C2395 C 0.30653 0.19324 1.09622
 C2396 C 0.31179 0.18805 1.10685
 C2397 C 0.28205 0.21770 1.04750
 C2398 C 0.27621 0.22367 1.03759
 H2399 H 0.27627 0.22320 1.07861
 H2400 H 0.27560 0.19359 1.08609
 H2401 H 0.30586 0.22413 1.08618
 H2402 H 0.31317 0.21704 1.05734
 H2403 H 0.28286 0.18648 1.05724
 H2404 H 0.31252 0.18737 1.06482
 C2405 C 0.80486 0.70935 1.06262
 C2406 C 0.80287 0.71509 1.07813
 C2407 C 0.80007 0.69965 1.08330
 C2408 C 0.80216 0.69379 1.06800
 C2409 C 0.78861 0.71107 1.06012
 C2410 C 0.78579 0.69564 1.06529
 C2411 C 0.78652 0.71692 1.07543
 C2412 C 0.78382 0.70139 1.08079
 C2413 C 0.80645 0.69331 1.09622
 C2414 C 0.81170 0.68811 1.10686
 C2415 C 0.78196 0.71772 1.04750
 C2416 C 0.77605 0.72361 1.03759
 H2417 H 0.81343 0.71269 1.05501
 H2418 H 0.80992 0.72303 1.08358
 H2419 H 0.80866 0.68419 1.06511
 H2420 H 0.77870 0.68772 1.05986
 H2421 H 0.78001 0.72652 1.07832
 H2422 H 0.77523 0.69809 1.08841
 C2423 C 0.80344 0.20356 0.56040
 C2424 C 0.80686 0.21181 0.57447
 C2425 C 0.80008 0.19948 0.58314
 C2426 C 0.79676 0.19112 0.56928
 C2427 C 0.78863 0.21089 0.55994
 C2428 C 0.78184 0.19857 0.56861
 C2429 C 0.79194 0.21924 0.57380
 C2430 C 0.78527 0.20682 0.58266
 C2431 C 0.80645 0.19318 0.59609
 C2432 C 0.81168 0.18801 0.60675
 C2433 C 0.78201 0.21757 0.54731
 C2434 C 0.77617 0.22353 0.53740
 H2435 H 0.81083 0.20229 0.55111
 H2436 H 0.81719 0.21721 0.57706
 H2437 H 0.79879 0.17947 0.56761
 H2438 H 0.77148 0.19321 0.56605
 H2439 H 0.78988 0.23088 0.57551
 H2440 H 0.77787 0.20812 0.59194
 C2441 C 0.70055 0.71907 0.43006
 C2442 C 0.70911 0.71337 0.41696
 C2443 C 0.69969 0.69980 0.41696
 C2444 C 0.69102 0.70540 0.42987
 C2445 C 0.71113 0.71130 0.44011
 C2446 C 0.70172 0.69773 0.44012
 C2447 C 0.71980 0.70571 0.42719
 C2448 C 0.71029 0.69203 0.42699
 C2449 C 0.69334 0.69343 0.40404
 C2450 C 0.68813 0.68820 0.39340
 C2451 C 0.71776 0.71799 0.45272
 C2452 C 0.72363 0.72393 0.46261
 H2453 H 0.69662 0.73026 0.43148
 H2454 H 0.71211 0.71974 0.40732
 H2455 H 0.67910 0.70523 0.43079
 H2456 H 0.69875 0.69138 0.44978
 H2457 H 0.73172 0.70592 0.42625
 H2458 H 0.71426 0.68086 0.42556
 C2459 C 0.69951 0.21846 -0.06927
 C2460 C 0.70794 0.21416 -0.08298
 C2461 C 0.69982 0.19976 -0.08324
 C2462 C 0.69129 0.20397 -0.06971
 C2463 C 0.71123 0.21129 -0.06006
 C2464 C 0.70312 0.19690 -0.06030
 C2465 C 0.71975 0.20710 -0.07359
 C2466 C 0.71155 0.19261 -0.07403
 C2467 C 0.69355 0.19336 -0.09620
 C2468 C 0.68836 0.18812 -0.10685
 C2469 C 0.71789 0.21795 -0.04744
 C2470 C 0.72383 0.22382 -0.03753
 H2471 H 0.69463 0.22916 -0.06718
 H2472 H 0.70988 0.22119 -0.09243
 H2473 H 0.67950 0.20263 -0.06830
 H2474 H 0.70120 0.18989 -0.05084
 H2475 H 0.73154 0.20847 -0.07504
 H2476 H 0.71647 0.18193 -0.07615
 C2477 C 0.21242 0.69526 -0.06403
 C2478 C 0.19614 0.69530 -0.06771
 C2479 C 0.19984 0.69979 -0.08316
 C2480 C 0.21601 0.69966 -0.07969
 C2481 C 0.21131 0.71125 -0.06000
 C2482 C 0.21500 0.71573 -0.07547
 C2483 C 0.19514 0.71140 -0.06348
 C2484 C 0.19875 0.71578 -0.07914
 C2485 C 0.19349 0.69344 -0.09609
 C2486 C 0.18829 0.68825 -0.10676
 C2487 C 0.21797 0.71793 -0.04741
 C2488 C 0.22386 0.72387 -0.03752
 H2489 H 0.21811 0.68690 -0.05767
 H2490 H 0.18831 0.68681 -0.06467
 H2491 H 0.22453 0.69479 -0.08652
 H2492 H 0.22284 0.72422 -0.07851
 H2493 H 0.18664 0.71630 -0.05666
 H2494 H 0.19309 0.72416 -0.08550
 C2495 C 0.21231 0.19520 0.43597
 C2496 C 0.19603 0.19518 0.43230
 C2497 C 0.19971 0.19974 0.41686
 C2498 C 0.21588 0.19967 0.42033
 C2499 C 0.21112 0.21116 0.44007
 C2500 C 0.21479 0.21573 0.42461
 C2501 C 0.19496 0.21126 0.43660
 C2502 C 0.19854 0.21572 0.42095
 C2503 C 0.19338 0.19341 0.40391
 C2504 C 0.18820 0.18824 0.39322
 C2505 C 0.21776 0.21782 0.45269
 C2506 C 0.22365 0.22373 0.46259
 H2507 H 0.21804 0.18685 0.44230
 H2508 H 0.18823 0.18664 0.43531
 H2509 H 0.22442 0.19487 0.41349
 H2510 H 0.22259 0.22426 0.42160
 H2511 H 0.18643 0.21609 0.44343
 H2512 H 0.19284 0.22409 0.41462
 C2513 C 0.28471 0.42448 0.71538
 C2514 C 0.28436 0.42063 0.69920
 C2515 C 0.30042 0.41675 0.69998
 C2516 C 0.30086 0.42041 0.71607
 C2517 C 0.28897 0.43996 0.71141
 C2518 C 0.30502 0.43608 0.71221
 C2519 C 0.28850 0.43630 0.69533
 C2520 C 0.30468 0.43222 0.69600
 C2521 C 0.30673 0.40379 0.69363
 C2522 C 0.31189 0.39311 0.68838
 C2523 C 0.28230 0.45259 0.71808
 C2524 C 0.27639 0.46250 0.72399
 H2525 H 0.27642 0.42146 0.72343
 H2526 H 0.27592 0.41411 0.69382
 H2527 H 0.30598 0.41372 0.72454
 H2528 H 0.31343 0.44259 0.71763
 H2529 H 0.28335 0.44298 0.68687
 H2530 H 0.31297 0.43524 0.68796
 C2531 C 0.30525 0.93645 0.21179
 C2532 C 0.30136 0.92076 0.21584
 C2533 C 0.30068 0.91697 0.19978
 C2534 C 0.30467 0.93246 0.19562
 C2535 C 0.28914 0.94012 0.21124
 C2536 C 0.28844 0.93633 0.19520
 C2537 C 0.28515 0.92462 0.21540
 C2538 C 0.28456 0.92064 0.19926
 C2539 C 0.30703 0.90405 0.19340
 C2540 C 0.31221 0.89340 0.18813
 C2541 C 0.28239 0.95270 0.21789
 C2542 C 0.27639 0.96258 0.22375
 H2543 H 0.31368 0.94310 0.21701
 H2544 H 0.30671 0.91420 0.22427
 H2545 H 0.31279 0.93551 0.18741
 H2546 H 0.28306 0.94288 0.18678
 H2547 H 0.27704 0.92156 0.22362
 H2548 H 0.27611 0.91398 0.19408
 C2549 C 0.79734 0.42857 0.21979
 C2550 C 0.78897 0.41682 0.21149
 C2551 C 0.80067 0.41702 0.19982
 C2552 C 0.80915 0.42859 0.20802
 C2553 C 0.78913 0.44016 0.21132
 C2554 C 0.80082 0.44038 0.19965
 C2555 C 0.78066 0.42858 0.20313
 C2556 C 0.79245 0.42860 0.19135
 C2557 C 0.80702 0.40410 0.19344
 C2558 C 0.81219 0.39344 0.18817
 C2559 C 0.78242 0.45273 0.21801
 C2560 C 0.77648 0.46261 0.22394
 H2561 H 0.79927 0.42872 0.23156
 H2562 H 0.78416 0.40700 0.21631
 H2563 H 0.82093 0.42842 0.21000
 H2564 H 0.80561 0.45021 0.19486
 H2565 H 0.76886 0.42873 0.20118
 H2566 H 0.79048 0.42843 0.17958
 C2567 C 0.78323 0.92486 0.71333
 C2568 C 0.78517 0.92223 0.69702
 C2569 C 0.80062 0.91706 0.69988
 C2570 C 0.79877 0.91949 0.71611
 C2571 C 0.78906 0.94021 0.71137
 C2572 C 0.80450 0.93503 0.71425
 C2573 C 0.79090 0.93777 0.69514
 C2574 C 0.80646 0.93239 0.69791
 C2575 C 0.80696 0.90410 0.69351
 C2576 C 0.81210 0.89341 0.68827
 C2577 C 0.78229 0.95278 0.71803
 C2578 C 0.77627 0.96267 0.72390
 H2579 H 0.77359 0.92190 0.71975
 H2580 H 0.77728 0.91681 0.68989
 H2581 H 0.80205 0.91184 0.72466
 H2582 H 0.81238 0.94044 0.72140
 H2583 H 0.78760 0.94543 0.68659
 H2584 H 0.81610 0.93532 0.69150
 C2585 C 0.71446 0.56557 0.69640
 C2586 C 0.69813 0.56797 0.69392
 C2587 C 0.69958 0.58319 0.70020
 C2588 C 0.71580 0.58098 0.70258
 C2589 C 0.71110 0.55996 0.71157
 C2590 C 0.71255 0.57518 0.71784
 C2591 C 0.69488 0.56216 0.70920
 C2592 C 0.69624 0.57758 0.71537
 C2593 C 0.69326 0.59618 0.69389
 C2594 C 0.68813 0.60690 0.68869
 C2595 C 0.71780 0.54733 0.71819
 C2596 C 0.72374 0.53741 0.72406
 H2597 H 0.72201 0.56049 0.68867
 H2598 H 0.69212 0.56517 0.68399
 H2599 H 0.72434 0.58887 0.69983
 H2600 H 0.71857 0.57800 0.72776
 H2601 H 0.68636 0.55427 0.71199
 H2602 H 0.68872 0.58268 0.72312
 C2603 C 0.69512 0.06376 0.21259
 C2604 C 0.69955 0.07943 0.21609
 C2605 C 0.69958 0.08287 0.19994
 C2606 C 0.69504 0.06739 0.19632
 C2607 C 0.71111 0.05969 0.21139
 C2608 C 0.71115 0.06312 0.19524
 C2609 C 0.71563 0.07517 0.21500
 C2610 C 0.71557 0.07879 0.19876
 C2611 C 0.69326 0.09585 0.19360
 C2612 C 0.68815 0.10656 0.18839
 C2613 C 0.71785 0.04710 0.21805
 C2614 C 0.72383 0.03722 0.22393
 H2615 H 0.68679 0.05742 0.21834
 H2616 H 0.69475 0.08629 0.22461
 H2617 H 0.68649 0.06436 0.18857
 H2618 H 0.71598 0.05626 0.18674
 H2619 H 0.72418 0.07822 0.22276
 H2620 H 0.72392 0.08513 0.19304
 C2621 C 0.21411 0.56548 0.19602
 C2622 C 0.19776 0.56789 0.19364
 C2623 C 0.19930 0.58314 0.19984
 C2624 C 0.21553 0.58091 0.20211
 C2625 C 0.21086 0.55995 0.21123
 C2626 C 0.21239 0.57520 0.21742
 C2627 C 0.19463 0.56216 0.20898
 C2628 C 0.19606 0.57761 0.21507
 C2629 C 0.19298 0.59612 0.19353
 C2630 C 0.18786 0.60684 0.18833
 C2631 C 0.21762 0.54736 0.21786
 C2632 C 0.22363 0.53748 0.22373
 H2633 H 0.22159 0.56034 0.18826
 H2634 H 0.19167 0.56505 0.18378
 H2635 H 0.22406 0.58877 0.19925
 H2636 H 0.21848 0.57805 0.22728
 H2637 H 0.18611 0.55430 0.21188
 H2638 H 0.18860 0.58277 0.22285
 C2639 C 0.21428 0.06528 0.69629
 C2640 C 0.19794 0.06766 0.69387
 C2641 C 0.19942 0.08291 0.70007
 C2642 C 0.21566 0.08072 0.70238
 C2643 C 0.21101 0.05974 0.71150
 C2644 C 0.21249 0.07500 0.71769
 C2645 C 0.19478 0.06192 0.70920
 C2646 C 0.19616 0.07738 0.71529
 C2647 C 0.19307 0.09587 0.69371
 C2648 C 0.18791 0.10656 0.68848
 C2649 C 0.21777 0.04714 0.71815
 C2650 C 0.22376 0.03724 0.72403
 H2651 H 0.22180 0.06015 0.68854
 H2652 H 0.19189 0.06481 0.68399
 H2653 H 0.22418 0.08859 0.69954
 H2654 H 0.21855 0.07787 0.72756
 H2655 H 0.18627 0.05405 0.71206
 H2656 H 0.18867 0.08251 0.72305
 C2657 C 0.28497 0.57546 0.28417
 C2658 C 0.28427 0.57959 0.30027
 C2659 C 0.30040 0.58319 0.29982
 C2660 C 0.30119 0.57925 0.28380
 C2661 C 0.28888 0.55998 0.28848
 C2662 C 0.30501 0.56358 0.28801
 C2663 C 0.28808 0.56391 0.30449
 C2664 C 0.30433 0.56772 0.30414
 C2665 C 0.30673 0.59617 0.30612
 C2666 C 0.31186 0.60687 0.31132
 C2667 C 0.28216 0.54736 0.28190
 C2668 C 0.27618 0.53745 0.27608
 H2669 H 0.27692 0.57849 0.27587
 H2670 H 0.27579 0.58632 0.30534
 H2671 H 0.30661 0.58572 0.27535
 H2672 H 0.31346 0.55685 0.28291
 H2673 H 0.28262 0.55746 0.31292
 H2674 H 0.31237 0.56469 0.31244
 C2675 C 0.28504 0.07516 0.78434
 C2676 C 0.28431 0.07928 0.80045
 C2677 C 0.30042 0.08296 0.80001
 C2678 C 0.30124 0.07904 0.78399
 C2679 C 0.28903 0.05969 0.78866
 C2680 C 0.30514 0.06338 0.78820
 C2681 C 0.28819 0.06362 0.80467
 C2682 C 0.30442 0.06751 0.80433
 C2683 C 0.30671 0.09595 0.80634
 C2684 C 0.31185 0.10664 0.81157
 C2685 C 0.28240 0.04702 0.78207
 C2686 C 0.27649 0.03709 0.77623
 H2687 H 0.27699 0.07815 0.77604
 H2688 H 0.27580 0.08597 0.80551
 H2689 H 0.30664 0.08553 0.77555
 H2690 H 0.31363 0.05669 0.78310
 H2691 H 0.28276 0.05714 0.81309
 H2692 H 0.31247 0.06452 0.81263
 C2693 C 0.78519 0.57541 0.78449
 C2694 C 0.78450 0.57949 0.80061
 C2695 C 0.80064 0.58312 0.80015
 C2696 C 0.80141 0.57923 0.78412
 C2697 C 0.78913 0.55992 0.78876
 C2698 C 0.80526 0.56355 0.78828
 C2699 C 0.78834 0.56381 0.80478
 C2700 C 0.80458 0.56764 0.80443
 C2701 C 0.80697 0.59610 0.80647
 C2702 C 0.81212 0.60679 0.81169
 C2703 C 0.78243 0.54730 0.78213
 C2704 C 0.77649 0.53739 0.77624
 H2705 H 0.77714 0.57847 0.77621
 H2706 H 0.77603 0.58620 0.80571
 H2707 H 0.80683 0.58572 0.77569
 H2708 H 0.81371 0.55684 0.78315
 H2709 H 0.78290 0.55733 0.81320
 H2710 H 0.81264 0.56460 0.81270
 C2711 C 0.80460 0.06054 0.29442
 C2712 C 0.80652 0.07514 0.28659
 C2713 C 0.80066 0.08289 0.29996
 C2714 C 0.79883 0.06850 0.30789
 C2715 C 0.78915 0.05969 0.28861
 C2716 C 0.78328 0.06744 0.30196
 C2717 C 0.79097 0.07408 0.28069
 C2718 C 0.78521 0.08202 0.29414
 C2719 C 0.80698 0.09587 0.30626
 C2720 C 0.81213 0.10655 0.31148
 C2721 C 0.78245 0.04706 0.28202
 C2722 C 0.77649 0.03716 0.27617
 H2723 H 0.81248 0.05156 0.29446
 H2724 H 0.81612 0.07848 0.28032
 H2725 H 0.80213 0.06638 0.31916
 H2726 H 0.77365 0.06413 0.30821
 H2727 H 0.78765 0.07622 0.26943
 H2728 H 0.77730 0.09099 0.29406
 C2729 C 0.71174 0.43617 0.30456
 C2730 C 0.69553 0.43224 0.30407
 C2731 C 0.69962 0.41678 0.29989
 C2732 C 0.71572 0.42051 0.30049
 C2733 C 0.71108 0.44000 0.28852
 C2734 C 0.71517 0.42453 0.28435
 C2735 C 0.69499 0.43627 0.28790
 C2736 C 0.69898 0.42060 0.28384
 C2737 C 0.69329 0.40381 0.30620
 C2738 C 0.68813 0.39312 0.31142
 C2739 C 0.71774 0.45264 0.28190
 C2740 C 0.72363 0.46256 0.27600
 H2741 H 0.71705 0.44272 0.31301
 H2742 H 0.68737 0.43525 0.31226
 H2743 H 0.72419 0.41387 0.30569
 H2744 H 0.72334 0.42152 0.27616
 H2745 H 0.68655 0.44291 0.28267
 H2746 H 0.69371 0.41405 0.27537
 C2747 C 0.69926 0.93108 0.78147
 C2748 C 0.70763 0.91725 0.78554
 C2749 C 0.69962 0.91688 0.79997
 C2750 C 0.69114 0.93052 0.79601
 C2751 C 0.71109 0.94013 0.78865
 C2752 C 0.70308 0.93977 0.80308
 C2753 C 0.71956 0.92648 0.79260
 C2754 C 0.71145 0.92592 0.80714
 C2755 C 0.69330 0.90389 0.80627
 C2756 C 0.68816 0.89319 0.81148
 C2757 C 0.71777 0.95279 0.78209
 C2758 C 0.72372 0.96272 0.77628
 H2759 H 0.69433 0.93336 0.77085
 H2760 H 0.70946 0.90786 0.77839
 H2761 H 0.67937 0.93202 0.79747
 H2762 H 0.70129 0.94917 0.81021
 H2763 H 0.73132 0.92496 0.79112
 H2764 H 0.71643 0.92362 0.81774
 C2765 C 0.21158 0.43608 0.80467
 C2766 C 0.19537 0.43218 0.80419
 C2767 C 0.19943 0.41669 0.80005
 C2768 C 0.21554 0.42040 0.80064
 C2769 C 0.21093 0.43988 0.78861
 C2770 C 0.21499 0.42438 0.78449
 C2771 C 0.19483 0.43616 0.78801
 C2772 C 0.19880 0.42048 0.78399
 C2773 C 0.19306 0.40375 0.80642
 C2774 C 0.18789 0.39308 0.81166
 C2775 C 0.21761 0.45250 0.78195
 C2776 C 0.22351 0.46241 0.77604
 H2777 H 0.21690 0.44264 0.81310
 H2778 H 0.18721 0.43520 0.81237
 H2779 H 0.22400 0.41376 0.80585
 H2780 H 0.22315 0.42134 0.77630
 H2781 H 0.18639 0.44279 0.78276
 H2782 H 0.19352 0.41391 0.77554
 C2783 C 0.19912 0.93104 0.28127
 C2784 C 0.20744 0.91718 0.28532
 C2785 C 0.19946 0.91686 0.29977
 C2786 C 0.19103 0.93053 0.29583
 C2787 C 0.21101 0.94003 0.28840
 C2788 C 0.20304 0.93973 0.30286
 C2789 C 0.21942 0.92635 0.29235
 C2790 C 0.21136 0.92584 0.30690
 C2791 C 0.19311 0.90391 0.30609
 C2792 C 0.18790 0.89326 0.31132
 C2793 C 0.21774 0.95264 0.28181
 C2794 C 0.22371 0.96255 0.27598
 H2795 H 0.19417 0.93332 0.27065
 H2796 H 0.20920 0.90776 0.27818
 H2797 H 0.17927 0.93209 0.29732
 H2798 H 0.20132 0.94916 0.30997
 H2799 H 0.23118 0.92478 0.29083
 H2800 H 0.21635 0.92354 0.31750
 C2801 C 0.43611 0.28835 0.69539
 C2802 C 0.42042 0.28435 0.69938
 C2803 C 0.41666 0.30044 0.70005
 C2804 C 0.43215 0.30454 0.69596
 C2805 C 0.43986 0.28891 0.71146
 C2806 C 0.43611 0.30499 0.71214
 C2807 C 0.42436 0.28482 0.71554
 C2808 C 0.42041 0.30099 0.71611
 C2809 C 0.40370 0.30678 0.69369
 C2810 C 0.39303 0.31194 0.68843
 C2811 C 0.45248 0.28217 0.71807
 C2812 C 0.46239 0.27618 0.72390
 H2813 H 0.44272 0.28308 0.68695
 H2814 H 0.41381 0.27592 0.69411
 H2815 H 0.43519 0.31274 0.68783
 H2816 H 0.44270 0.31340 0.71746
 H2817 H 0.42131 0.27662 0.72367
 H2818 H 0.41380 0.30622 0.72457
 C2819 C 0.42669 0.79406 0.21998
 C2820 C 0.42641 0.80817 0.21113
 C2821 C 0.41683 0.80070 0.19994
 C2822 C 0.41692 0.78669 0.20870
 C2823 C 0.43999 0.78918 0.21143
 C2824 C 0.43040 0.78171 0.20025
 C2825 C 0.43990 0.80319 0.20268
 C2826 C 0.43011 0.79581 0.19138
 C2827 C 0.40390 0.80705 0.19354
 C2828 C 0.39326 0.81225 0.18826
 C2829 C 0.45259 0.78250 0.21811
 C2830 C 0.46249 0.77659 0.22404
 H2831 H 0.42545 0.79325 0.23182
 H2832 H 0.42458 0.81911 0.21557
 H2833 H 0.40735 0.77998 0.21113
 H2834 H 0.43219 0.77075 0.19584
 H2835 H 0.44949 0.80989 0.20027
 H2836 H 0.43133 0.79660 0.17954
 C2837 C 0.93626 0.28863 0.19532
 C2838 C 0.92056 0.28462 0.19926
 C2839 C 0.91679 0.30070 0.19993
 C2840 C 0.93229 0.30482 0.19588
 C2841 C 0.93996 0.28919 0.21139
 C2842 C 0.93619 0.30527 0.21208
 C2843 C 0.92446 0.28508 0.21543
 C2844 C 0.92049 0.30125 0.21601
 C2845 C 0.90385 0.30706 0.19355
 C2846 C 0.89320 0.31224 0.18827
 C2847 C 0.95256 0.28251 0.21807
 C2848 C 0.96246 0.27660 0.22400
 H2849 H 0.94288 0.28337 0.18689
 H2850 H 0.91397 0.27620 0.19397
 H2851 H 0.93533 0.31303 0.18776
 H2852 H 0.94278 0.31367 0.21741
 H2853 H 0.92140 0.27687 0.22355
 H2854 H 0.91386 0.30647 0.22446
 C2855 C 0.92672 0.79406 0.71993
 C2856 C 0.92641 0.80819 0.71110
 C2857 C 0.91684 0.80072 0.69990
 C2858 C 0.91696 0.78670 0.70864
 C2859 C 0.94002 0.78922 0.71137
 C2860 C 0.93044 0.78174 0.70018
 C2861 C 0.93991 0.80324 0.70264
 C2862 C 0.93013 0.79587 0.69133
 C2863 C 0.90388 0.80706 0.69354
 C2864 C 0.89319 0.81221 0.68830
 C2865 C 0.95263 0.78254 0.71804
 C2866 C 0.96253 0.77662 0.72397
 H2867 H 0.92548 0.79324 0.73177
 H2868 H 0.92458 0.81912 0.71554
 H2869 H 0.90739 0.77997 0.71106
 H2870 H 0.93224 0.77080 0.69575
 H2871 H 0.94950 0.80995 0.70024
 H2872 H 0.93135 0.79667 0.67949
 C2873 C 0.56330 0.28958 0.30462
 C2874 C 0.57896 0.28464 0.30168
 C2875 C 0.58341 0.30044 0.29980
 C2876 C 0.56795 0.30550 0.30285
 C2877 C 0.56022 0.28890 0.28842
 C2878 C 0.56468 0.30470 0.28653
 C2879 C 0.57569 0.28385 0.28538
 C2880 C 0.58034 0.29974 0.28360
 C2881 C 0.59637 0.30681 0.30613
 C2882 C 0.60705 0.31199 0.31136
 C2883 C 0.54760 0.28220 0.28179
 C2884 C 0.53769 0.27627 0.27591
 H2885 H 0.55615 0.28533 0.31319
 H2886 H 0.58499 0.27644 0.30793
 H2887 H 0.56494 0.31448 0.31011
 H2888 H 0.55865 0.31287 0.28024
 H2889 H 0.57872 0.27487 0.27812
 H2890 H 0.58749 0.30395 0.27501
 C2891 C 0.57554 0.78500 0.78475
 C2892 C 0.57952 0.80115 0.78403
 C2893 C 0.58326 0.80073 0.80011
 C2894 C 0.57947 0.78466 0.80091
 C2895 C 0.56004 0.78918 0.78878
 C2896 C 0.56378 0.78874 0.80485
 C2897 C 0.56382 0.80524 0.78795
 C2898 C 0.56776 0.80492 0.80414
 C2899 C 0.59625 0.80707 0.80640
 C2900 C 0.60697 0.81221 0.81158
 C2901 C 0.54741 0.78243 0.78220
 C2902 C 0.53749 0.77644 0.77638
 H2903 H 0.57859 0.77673 0.77669
 H2904 H 0.58614 0.80629 0.77552
 H2905 H 0.58606 0.77626 0.80627
 H2906 H 0.55717 0.78357 0.81334
 H2907 H 0.55724 0.81363 0.78256
 H2908 H 0.56473 0.81319 0.81220
 C2909 C 0.06403 0.28772 0.80457
 C2910 C 0.07972 0.28426 0.80007
 C2911 C 0.08310 0.30044 0.80007
 C2912 C 0.06761 0.30401 0.80466
 C2913 C 0.05991 0.28894 0.78863
 C2914 C 0.06328 0.30512 0.78861
 C2915 C 0.07541 0.28538 0.78404
 C2916 C 0.07898 0.30165 0.78412
 C2917 C 0.09604 0.30680 0.80643
 C2918 C 0.10672 0.31197 0.81167
 C2919 C 0.04729 0.28226 0.78198
 C2920 C 0.03737 0.27634 0.77609
 H2921 H 0.05774 0.28194 0.81291
 H2922 H 0.08663 0.27574 0.80481
 H2923 H 0.06458 0.31175 0.81323
 H2924 H 0.05638 0.31362 0.78383
 H2925 H 0.07845 0.27763 0.77547
 H2926 H 0.08527 0.30740 0.77577
 C2927 C 0.06306 0.78979 0.30465
 C2928 C 0.07872 0.78487 0.30167
 C2929 C 0.08315 0.80068 0.29982
 C2930 C 0.06769 0.80571 0.30291
 C2931 C 0.05996 0.78914 0.28845
 C2932 C 0.06439 0.80495 0.28659
 C2933 C 0.07543 0.78412 0.28538
 C2934 C 0.08005 0.80002 0.28362
 C2935 C 0.09611 0.80702 0.30614
 C2936 C 0.10677 0.81223 0.31137
 C2937 C 0.04734 0.78243 0.28182
 C2938 C 0.03743 0.77649 0.27595
 H2939 H 0.05591 0.78550 0.31321
 H2940 H 0.08477 0.77666 0.30791
 H2941 H 0.06465 0.81467 0.31019
 H2942 H 0.05835 0.81312 0.28032
 H2943 H 0.07847 0.77516 0.27809
 H2944 H 0.08719 0.80426 0.27505
 C2945 C 0.56246 0.70900 0.69544
 C2946 C 0.57797 0.71489 0.69712
 C2947 C 0.58329 0.69956 0.70027
 C2948 C 0.56798 0.69355 0.69849
 C2949 C 0.56007 0.71113 0.71163
 C2950 C 0.56540 0.69580 0.71480
 C2951 C 0.57539 0.71712 0.71341
 C2952 C 0.58090 0.70170 0.71647
 C2953 C 0.59628 0.69321 0.69396
 C2954 C 0.60699 0.68806 0.68875
 C2955 C 0.54745 0.71789 0.71822
 C2956 C 0.53753 0.72390 0.72405
 H2957 H 0.55473 0.71207 0.68687
 H2958 H 0.58329 0.72269 0.68982
 H2959 H 0.56510 0.68377 0.69228
 H2960 H 0.56008 0.68803 0.72213
 H2961 H 0.57828 0.72690 0.71962
 H2962 H 0.58863 0.69867 0.72505
 C2963 C 0.56297 0.20953 0.19518
 C2964 C 0.57859 0.21482 0.19768
 C2965 C 0.58336 0.19916 0.19999
 C2966 C 0.56795 0.19375 0.19739
 C2967 C 0.56016 0.21069 0.21140
 C2968 C 0.56494 0.19504 0.21373
 C2969 C 0.57558 0.21609 0.21399
 C2970 C 0.58055 0.20035 0.21622
 C2971 C 0.59635 0.19283 0.19367
 C2972 C 0.60706 0.18770 0.18846
 C2973 C 0.54755 0.21740 0.21806
 C2974 C 0.53765 0.22334 0.22397
 H2975 H 0.55560 0.21337 0.18660
 H2976 H 0.58436 0.22290 0.19104
 H2977 H 0.56498 0.18448 0.19049
 H2978 H 0.55917 0.18699 0.22040
 H2979 H 0.57856 0.22536 0.22090
 H2980 H 0.58792 0.19654 0.22481
 C2981 C 0.06300 0.71035 0.19517
 C2982 C 0.07865 0.71529 0.19812
 C2983 C 0.08313 0.69948 0.19996
 C2984 C 0.06768 0.69443 0.19692
 C2985 C 0.05992 0.71100 0.21138
 C2986 C 0.06440 0.69520 0.21324
 C2987 C 0.07538 0.71604 0.21442
 C2988 C 0.08005 0.70015 0.21617
 C2989 C 0.09611 0.69316 0.19364
 C2990 C 0.10683 0.68803 0.18842
 C2991 C 0.04731 0.71771 0.21803
 C2992 C 0.03741 0.72367 0.22392
 H2993 H 0.05584 0.71461 0.18662
 H2994 H 0.08467 0.72349 0.19187
 H2995 H 0.06468 0.68545 0.18965
 H2996 H 0.05839 0.68702 0.21953
 H2997 H 0.07839 0.72501 0.22169
 H2998 H 0.08721 0.69592 0.22475
 C2999 C 0.06364 0.21136 0.69548
 C3000 C 0.07932 0.21539 0.69943
 C3001 C 0.08311 0.19931 0.70014
 C3002 C 0.06762 0.19517 0.69609
 C3003 C 0.05990 0.21083 0.71155
 C3004 C 0.06368 0.19476 0.71228
 C3005 C 0.07539 0.21496 0.71559
 C3006 C 0.07937 0.19880 0.71622
 C3007 C 0.09608 0.19297 0.69380
 C3008 C 0.10677 0.18781 0.68856
 C3009 C 0.04727 0.21753 0.71819
 C3010 C 0.03736 0.22347 0.72409
 H3011 H 0.05701 0.21659 0.68703
 H3012 H 0.08591 0.22382 0.69411
 H3013 H 0.06459 0.18695 0.68799
 H3014 H 0.05710 0.18636 0.71763
 H3015 H 0.07843 0.22319 0.72369
 H3016 H 0.08600 0.19361 0.72470
 C3017 C 0.42490 0.71810 0.28857
 C3018 C 0.41818 0.70359 0.28394
 C3019 C 0.41665 0.69944 0.29985
 C3020 C 0.42318 0.71386 0.30457
 C3021 C 0.43985 0.71100 0.28849
 C3022 C 0.43834 0.70687 0.30440
 C3023 C 0.43332 0.69658 0.28375
 C3024 C 0.43160 0.69233 0.29977
 C3025 C 0.40367 0.69308 0.30615
 C3026 C 0.39296 0.68792 0.31134
 C3027 C 0.45247 0.71771 0.28185
 C3028 C 0.46238 0.72364 0.27597
 H3029 H 0.42230 0.72878 0.28389
 H3030 H 0.40976 0.70220 0.27559
 H3031 H 0.41885 0.72092 0.31318
 H3032 H 0.44677 0.70829 0.31273
 H3033 H 0.43764 0.68956 0.27512
 H3034 H 0.43419 0.68165 0.30444
 C3035 C 0.42427 0.21485 0.78443
 C3036 C 0.42044 0.19865 0.78396
 C3037 C 0.41658 0.19931 0.80000
 C3038 C 0.42022 0.21542 0.80056
 C3039 C 0.43978 0.21087 0.78863
 C3040 C 0.43592 0.21154 0.80467
 C3041 C 0.43614 0.19476 0.78805
 C3042 C 0.43208 0.19532 0.80421
 C3043 C 0.40361 0.19294 0.80633
 C3044 C 0.39293 0.18777 0.81156
 C3045 C 0.45241 0.21761 0.78203
 C3046 C 0.46233 0.22360 0.77621
 H3047 H 0.42121 0.22296 0.77622
 H3048 H 0.41392 0.19332 0.77550
 H3049 H 0.41353 0.22385 0.80573
 H3050 H 0.44243 0.21691 0.81311
 H3051 H 0.44283 0.18635 0.78284
 H3052 H 0.43513 0.18721 0.81242
 C3053 C 0.93915 0.70507 0.80389
 C3054 C 0.92454 0.71286 0.80601
 C3055 C 0.91677 0.69957 0.80001
 C3056 C 0.93117 0.69167 0.79799
 C3057 C 0.93993 0.71112 0.78855
 C3058 C 0.93216 0.69785 0.78254
 C3059 C 0.92552 0.71901 0.79057
 C3060 C 0.91756 0.70564 0.78467
 C3061 C 0.90382 0.69320 0.80635
 C3062 C 0.89315 0.68801 0.81159
 C3063 C 0.95254 0.71782 0.78189
 C3064 C 0.96245 0.72375 0.77599
 H3065 H 0.94817 0.70491 0.81171
 H3066 H 0.92124 0.71899 0.81571
 H3067 H 0.93334 0.68034 0.80110
 H3068 H 0.93543 0.69174 0.77282
 H3069 H 0.92334 0.73034 0.78744
 H3070 H 0.90855 0.70582 0.77683
 C3071 C 0.92436 0.21490 0.28423
 C3072 C 0.92055 0.19870 0.28378
 C3073 C 0.91672 0.19935 0.29982
 C3074 C 0.92034 0.21547 0.30037
 C3075 C 0.93988 0.21094 0.28841
 C3076 C 0.93605 0.21162 0.30446
 C3077 C 0.93626 0.19483 0.28785
 C3078 C 0.93223 0.19539 0.30401
 C3079 C 0.90376 0.19297 0.30615
 C3080 C 0.89309 0.18778 0.31138
 C3081 C 0.95249 0.21766 0.28176
 C3082 C 0.96239 0.22359 0.27586
 H3083 H 0.92128 0.22301 0.27602
 H3084 H 0.91404 0.19335 0.27533
 H3085 H 0.91363 0.22389 0.30555
 H3086 H 0.94255 0.21700 0.31289
 H3087 H 0.94297 0.18643 0.28264
 H3088 H 0.93530 0.18728 0.31222
 C3089 C 0.28454 0.28466 0.57552
 C3090 C 0.30071 0.28409 0.57951
 C3091 C 0.30012 0.30018 0.58324
 C3092 C 0.28403 0.30084 0.57944
 C3093 C 0.28870 0.28872 0.56005
 C3094 C 0.28809 0.30480 0.56378
 C3095 C 0.30477 0.28805 0.56385
 C3096 C 0.30428 0.30425 0.56777
 C3097 C 0.30646 0.30653 0.59618
 C3098 C 0.31165 0.31174 0.60685
 C3099 C 0.28205 0.28205 0.54745
 C3100 C 0.27616 0.27612 0.53754
 H3101 H 0.27634 0.27652 0.57855
 H3102 H 0.30593 0.27563 0.58613
 H3103 H 0.27557 0.30612 0.58600
 H3104 H 0.28283 0.31324 0.55715
 H3105 H 0.31321 0.28272 0.55729
 H3106 H 0.31248 0.31238 0.56474
 C3107 C 0.28479 0.78482 0.07535
 C3108 C 0.30096 0.78426 0.07935
 C3109 C 0.30036 0.80035 0.08306
 C3110 C 0.28429 0.80100 0.07924
 C3111 C 0.28896 0.78886 0.05988
 C3112 C 0.28835 0.80495 0.06358
 C3113 C 0.30504 0.78819 0.06369
 C3114 C 0.30454 0.80440 0.06759
 C3115 C 0.30668 0.80671 0.09600
 C3116 C 0.31188 0.81192 0.10666
 C3117 C 0.28235 0.78217 0.04726
 C3118 C 0.27649 0.77622 0.03736
 H3119 H 0.27659 0.77668 0.07838
 H3120 H 0.30617 0.77580 0.08599
 H3121 H 0.27581 0.80630 0.08579
 H3122 H 0.28310 0.81338 0.05695
 H3123 H 0.31349 0.78286 0.05715
 H3124 H 0.31274 0.81254 0.06457
 C3125 C 0.78470 0.28488 0.07541
 C3126 C 0.80089 0.28436 0.07934
 C3127 C 0.80025 0.30044 0.08310
 C3128 C 0.78415 0.30104 0.07936
 C3129 C 0.78879 0.28899 0.05993
 C3130 C 0.78813 0.30506 0.06369
 C3131 C 0.80488 0.28836 0.06367
 C3132 C 0.80435 0.30456 0.06763
 C3133 C 0.80661 0.30678 0.09603
 C3134 C 0.81179 0.31198 0.10670
 C3135 C 0.78209 0.28234 0.04733
 C3136 C 0.77615 0.27646 0.03744
 H3137 H 0.77654 0.27670 0.07846
 H3138 H 0.80616 0.27591 0.08593
 H3139 H 0.77569 0.30629 0.08597
 H3140 H 0.78282 0.31350 0.05711
 H3141 H 0.81332 0.28308 0.05707
 H3142 H 0.81250 0.31273 0.06460
 C3143 C 0.78468 0.78487 0.57544
 C3144 C 0.80086 0.78433 0.57940
 C3145 C 0.80026 0.80042 0.58312
 C3146 C 0.78416 0.80105 0.57936
 C3147 C 0.78880 0.78894 0.55996
 C3148 C 0.78818 0.80503 0.56369
 C3149 C 0.80489 0.78829 0.56373
 C3150 C 0.80438 0.80449 0.56765
 C3151 C 0.80660 0.80678 0.59605
 C3152 C 0.81182 0.81200 0.60670
 C3153 C 0.78215 0.78225 0.54737
 C3154 C 0.77627 0.77630 0.53748
 H3155 H 0.77649 0.77673 0.57849
 H3156 H 0.80610 0.77588 0.58602
 H3157 H 0.77570 0.80633 0.58594
 H3158 H 0.78289 0.81346 0.55708
 H3159 H 0.81333 0.78298 0.55716
 H3160 H 0.81256 0.81264 0.56461
 C3161 C 0.30210 0.70155 0.43986
 C3162 C 0.29428 0.69108 0.42952
 C3163 C 0.30011 0.69971 0.41668
 C3164 C 0.30802 0.71008 0.42682
 C3165 C 0.28869 0.71123 0.43985
 C3166 C 0.29451 0.71985 0.42701
 C3167 C 0.28077 0.70088 0.42971
 C3168 C 0.28670 0.70939 0.41669
 C3169 C 0.30645 0.69332 0.40375
 C3170 C 0.31167 0.68807 0.39311
 C3171 C 0.28209 0.71794 0.45247
 C3172 C 0.27625 0.72390 0.46239
 H3173 H 0.30835 0.69841 0.44953
 H3174 H 0.29423 0.67917 0.43037
 H3175 H 0.31928 0.71382 0.42545
 H3176 H 0.29452 0.73177 0.42614
 H3177 H 0.26949 0.69717 0.43105
 H3178 H 0.28043 0.71257 0.40703
 C3179 C 0.30206 0.20133 0.94007
 C3180 C 0.29424 0.19086 0.92972
 C3181 C 0.30005 0.19950 0.91689
 C3182 C 0.30797 0.20986 0.92702
 C3183 C 0.28865 0.21100 0.94008
 C3184 C 0.29445 0.21963 0.92723
 C3185 C 0.28073 0.20065 0.92993
 C3186 C 0.28663 0.20918 0.91691
 C3187 C 0.30637 0.19313 0.90393
 C3188 C 0.31157 0.18792 0.89327
 C3189 C 0.28205 0.21772 0.95269
 C3190 C 0.27620 0.22369 0.96260
 H3191 H 0.30832 0.19818 0.94973
 H3192 H 0.29419 0.17895 0.93057
 H3193 H 0.31923 0.21362 0.92565
 H3194 H 0.29446 0.23155 0.92637
 H3195 H 0.26945 0.19693 0.93128
 H3196 H 0.28035 0.21236 0.90727
 C3197 C 0.80225 0.70154 0.94011
 C3198 C 0.79447 0.69106 0.92973
 C3199 C 0.80030 0.69973 0.91692
 C3200 C 0.80817 0.71010 0.92708
 C3201 C 0.78882 0.71118 0.94009
 C3202 C 0.79463 0.71984 0.92728
 C3203 C 0.78094 0.70082 0.92992
 C3204 C 0.78686 0.70938 0.91692
 C3205 C 0.80664 0.69337 0.90397
 C3206 C 0.81185 0.68816 0.89331
 C3207 C 0.78213 0.71782 0.95270
 C3208 C 0.77618 0.72370 0.96261
 H3209 H 0.80849 0.69839 0.94978
 H3210 H 0.79445 0.67915 0.93056
 H3211 H 0.81943 0.71387 0.92574
 H3212 H 0.79462 0.73176 0.92643
 H3213 H 0.76967 0.69708 0.93124
 H3214 H 0.78060 0.71256 0.90727
 C3215 C 0.78465 0.21501 0.42442
 C3216 C 0.80082 0.21552 0.42044
 C3217 C 0.80021 0.19944 0.41670
 C3218 C 0.78412 0.19884 0.42049
 C3219 C 0.78879 0.21092 0.43989
 C3220 C 0.78815 0.19484 0.43615
 C3221 C 0.80487 0.21154 0.43609
 C3222 C 0.80435 0.19534 0.43216
 C3223 C 0.80654 0.19309 0.40374
 C3224 C 0.81176 0.18787 0.39309
 C3225 C 0.78216 0.21762 0.45251
 C3226 C 0.77628 0.22357 0.46241
 H3227 H 0.77646 0.22319 0.42140
 H3228 H 0.80606 0.22397 0.41382
 H3229 H 0.77564 0.19359 0.41392
 H3230 H 0.78287 0.18641 0.44276
 H3231 H 0.81332 0.21682 0.44266
 H3232 H 0.81253 0.18717 0.43517
 C3233 C 0.71556 0.28473 0.42438
 C3234 C 0.69941 0.28410 0.42031
 C3235 C 0.69991 0.30021 0.41665
 C3236 C 0.71597 0.30093 0.42053
 C3237 C 0.71130 0.28871 0.43985
 C3238 C 0.71181 0.30481 0.43619
 C3239 C 0.69525 0.28796 0.43597
 C3240 C 0.69564 0.30419 0.43211
 C3241 C 0.69357 0.30657 0.40371
 C3242 C 0.68837 0.31179 0.39305
 C3243 C 0.71791 0.28200 0.45247
 C3244 C 0.72376 0.27604 0.46238
 H3245 H 0.72384 0.27665 0.42136
 H3246 H 0.69429 0.27564 0.41363
 H3247 H 0.72443 0.30629 0.41402
 H3248 H 0.71698 0.31325 0.44286
 H3249 H 0.68681 0.28256 0.44247
 H3250 H 0.68737 0.31227 0.43513
 C3251 C 0.71557 0.78498 0.92461
 C3252 C 0.69941 0.78431 0.92056
 C3253 C 0.69987 0.80042 0.91689
 C3254 C 0.71593 0.80118 0.92075
 C3255 C 0.71132 0.78896 0.94008
 C3256 C 0.71179 0.80506 0.93641
 C3257 C 0.69526 0.78818 0.93623
 C3258 C 0.69562 0.80440 0.93236
 C3259 C 0.69351 0.80678 0.90396
 C3260 C 0.68829 0.81202 0.89332
 C3261 C 0.71800 0.78231 0.95269
 C3262 C 0.72393 0.77643 0.96260
 H3263 H 0.72385 0.77691 0.92159
 H3264 H 0.69430 0.77584 0.91389
 H3265 H 0.72438 0.80655 0.91423
 H3266 H 0.71695 0.81351 0.94307
 H3267 H 0.68684 0.78277 0.94274
 H3268 H 0.68733 0.81246 0.93538
 C3269 C 0.21536 0.28473 0.92466
 C3270 C 0.19921 0.28408 0.92060
 C3271 C 0.19968 0.30018 0.91691
 C3272 C 0.21575 0.30093 0.92077
 C3273 C 0.21111 0.28873 0.94012
 C3274 C 0.21161 0.30483 0.93643
 C3275 C 0.19506 0.28797 0.93626
 C3276 C 0.19543 0.30418 0.93237
 C3277 C 0.19334 0.30651 0.90395
 C3278 C 0.18814 0.31171 0.89328
 C3279 C 0.21775 0.28204 0.95274
 C3280 C 0.22361 0.27609 0.96264
 H3281 H 0.22364 0.27666 0.92164
 H3282 H 0.19409 0.27559 0.91395
 H3283 H 0.22420 0.30628 0.91425
 H3284 H 0.21677 0.31328 0.94308
 H3285 H 0.18664 0.28257 0.94278
 H3286 H 0.18715 0.31226 0.93538
 C3287 C 0.21538 0.78495 0.42441
 C3288 C 0.19922 0.78433 0.42038
 C3289 C 0.19973 0.80043 0.41668
 C3290 C 0.21581 0.80113 0.42051
 C3291 C 0.21117 0.78897 0.43988
 C3292 C 0.21170 0.80506 0.43617
 C3293 C 0.19510 0.78825 0.43604
 C3294 C 0.19552 0.80446 0.43214
 C3295 C 0.19339 0.80677 0.40373
 C3296 C 0.18818 0.81197 0.39306
 C3297 C 0.21781 0.78228 0.45249
 C3298 C 0.22368 0.77633 0.46239
 H3299 H 0.22364 0.77684 0.42139
 H3300 H 0.19407 0.77586 0.41374
 H3301 H 0.22426 0.80646 0.41397
 H3302 H 0.21690 0.81351 0.44281
 H3303 H 0.18667 0.78288 0.44257
 H3304 H 0.18727 0.81256 0.43515
 C3305 C 0.71465 0.71604 0.57561
 C3306 C 0.69836 0.71572 0.57911
 C3307 C 0.69981 0.69980 0.58333
 C3308 C 0.71601 0.70004 0.58002
 C3309 C 0.71123 0.71131 0.56015
 C3310 C 0.71270 0.69540 0.56437
 C3311 C 0.69504 0.71110 0.56347
 C3312 C 0.69639 0.69507 0.56788
 C3313 C 0.69346 0.69342 0.59626
 C3314 C 0.68824 0.68818 0.60690
 C3315 C 0.71786 0.71801 0.54753
 C3316 C 0.72371 0.72396 0.53762
 H3317 H 0.72225 0.72475 0.57863
 H3318 H 0.69244 0.72403 0.58533
 H3319 H 0.72458 0.69546 0.58697
 H3320 H 0.71867 0.68712 0.55816
 H3321 H 0.68649 0.71571 0.55651
 H3322 H 0.68880 0.68636 0.56486
 C3323 C 0.70988 0.19494 0.06258
 C3324 C 0.71549 0.19704 0.07812
 C3325 C 0.69995 0.19964 0.08317
 C3326 C 0.69424 0.19744 0.06783
 C3327 C 0.71138 0.21119 0.06002
 C3328 C 0.69586 0.21381 0.06508
 C3329 C 0.71709 0.21339 0.07537
 C3330 C 0.70147 0.21590 0.08062
 C3331 C 0.69360 0.19323 0.09609
 C3332 C 0.68838 0.18796 0.10671
 C3333 C 0.71804 0.21786 0.04741
 C3334 C 0.72396 0.22376 0.03749
 H3335 H 0.71341 0.18640 0.05501
 H3336 H 0.72351 0.19012 0.08364
 H3337 H 0.68475 0.19081 0.06490
 H3338 H 0.68786 0.22077 0.05957
 H3339 H 0.72657 0.22004 0.07831
 H3340 H 0.69798 0.22446 0.08818
 C3341 C 0.21467 0.71607 0.07545
 C3342 C 0.19837 0.71575 0.07890
 C3343 C 0.19981 0.69983 0.08313
 C3344 C 0.21602 0.70007 0.07988
 C3345 C 0.21131 0.71133 0.05999
 C3346 C 0.21277 0.69542 0.06422
 C3347 C 0.19510 0.71111 0.06324
 C3348 C 0.19644 0.69508 0.06768
 C3349 C 0.19342 0.69346 0.09605
 C3350 C 0.18817 0.68822 0.10667
 C3351 C 0.21797 0.71802 0.04738
 C3352 C 0.22386 0.72395 0.03748
 H3353 H 0.22225 0.72478 0.07849
 H3354 H 0.19242 0.72405 0.08509
 H3355 H 0.22457 0.69550 0.08687
 H3356 H 0.21876 0.68714 0.05804
 H3357 H 0.18657 0.71571 0.05626
 H3358 H 0.18887 0.68637 0.06464
 C3359 C 0.21454 0.21585 0.57558
 C3360 C 0.19825 0.21554 0.57907
 C3361 C 0.19968 0.19963 0.58330
 C3362 C 0.21588 0.19984 0.57999
 C3363 C 0.21112 0.21111 0.56012
 C3364 C 0.21258 0.19520 0.56435
 C3365 C 0.19492 0.21091 0.56343
 C3366 C 0.19626 0.19488 0.56785
 C3367 C 0.19334 0.19326 0.59623
 C3368 C 0.18813 0.18803 0.60688
 C3369 C 0.21777 0.21779 0.54751
 C3370 C 0.22366 0.22372 0.53761
 H3371 H 0.22214 0.22455 0.57860
 H3372 H 0.19233 0.22385 0.58529
 H3373 H 0.22444 0.19526 0.58696
 H3374 H 0.21853 0.18691 0.55815
 H3375 H 0.18638 0.21553 0.55647
 H3376 H 0.18866 0.18618 0.56485
   
