data_POSCAR
  _audit_creation_date              2014-09-24
  _audit_creation_method            'ToBaCCo'
  _symmetry_space_group_name_H-M    'P1'
  _symmetry_Int_Tables_number       1
  _symmetry_cell_setting            triclinic
  loop_
  _symmetry_equiv_pos_as_xyz
 x,y,z
_cell_length_a 87.2663
_cell_length_b 84.8031
_cell_length_c 86.6874
_cell_angle_alpha 89.537600
_cell_angle_beta 90.809100
_cell_angle_gamma 89.336400
loop_
  _atom_site_label
  _atom_site_type_symbol
  _atom_site_fract_x
  _atom_site_fract_y
  _atom_site_fract_z
C1 C 0.33013 0.43125 0.90895
 N2 N 0.32225 0.41997 0.91669
 C3 C 0.32791 0.41354 0.92997
 N4 N 0.34161 0.41843 0.93545
 C5 C 0.34973 0.42974 0.92812
 N6 N 0.34386 0.43624 0.91480
 C7 C 0.44049 0.83034 0.43280
 N8 N 0.44528 0.82391 0.41934
 C9 C 0.43822 0.81121 0.41319
 N10 N 0.42616 0.80490 0.42064
 C11 C 0.42111 0.81109 0.43406
 N12 N 0.42831 0.82385 0.44010
 C13 C 0.91507 0.89339 0.84226
 N14 N 0.90143 0.89898 0.83656
 C15 C 0.89346 0.91027 0.84418
 N16 N 0.89929 0.91601 0.85754
 C17 C 0.91302 0.91087 0.86330
 N18 N 0.92089 0.89955 0.85554
 C19 C 0.43426 -0.07910 0.31671
 N20 N 0.42070 -0.07371 0.31060
 C21 C 0.41233 -0.06252 0.31793
 N22 N 0.41764 -0.05670 0.33150
 C23 C 0.43112 -0.06185 0.33780
 N24 N 0.43936 -0.07306 0.33034
 C25 C 0.81307 0.30786 0.33322
 N26 N 0.82686 0.30260 0.32819
 C27 C 0.83374 0.30967 0.31600
 N28 N 0.82670 0.32225 0.30890
 C29 C 0.81290 0.32767 0.31386
 N30 N 0.80624 0.32038 0.32599
 C31 C -0.20560 0.81185 0.80123
 N32 N -0.21266 0.80608 0.81393
 C33 C -0.20759 0.79252 0.82089
 N34 N -0.19524 0.78484 0.81502
 C35 C -0.18804 0.79047 0.80239
 N36 N -0.19328 0.80400 0.79560
 C37 C 0.93302 0.33565 0.43394
 N38 N 0.92066 0.32888 0.44035
 C39 C 0.91448 0.31559 0.43459
 N40 N 0.92080 0.30886 0.42198
 C41 C 0.93322 0.31551 0.41521
 N42 N 0.93928 0.32889 0.42130
 C43 C 0.41752 0.41967 0.86069
 N44 N 0.40554 0.42704 0.85341
 C45 C 0.40062 0.42240 0.83925
 N46 N 0.40790 0.41020 0.83223
 C47 C 0.41976 0.40249 0.83947
 N48 N 0.42450 0.40736 0.85362
 C49 C 0.82755 0.89787 0.92615
 N50 N 0.82006 0.90619 0.91479
 C51 C 0.82619 0.91962 0.90890
 N52 N 0.83981 0.92483 0.91467
 C53 C 0.84748 0.91660 0.92593
 N54 N 0.84125 0.90315 0.93144
 C55 C 0.30729 0.82211 0.30905
 N56 N 0.30276 0.81484 0.32220
 C57 C 0.31008 0.80176 0.32771
 N58 N 0.32222 0.79590 0.31995
 C59 C 0.32700 0.80290 0.30674
 N60 N 0.31950 0.81605 0.30133
 C61 C 0.81960 0.41281 0.43104
 N62 N 0.81355 0.42097 0.41882
 C63 C 0.82021 0.43434 0.41356
 N64 N 0.83318 0.43954 0.42067
 C65 C 0.83945 0.43153 0.43293
 N66 N 0.83256 0.41817 0.43804
 C67 C 0.91558 0.84997 -0.08036
 N68 N 0.90451 0.84239 -0.07242
 C69 C 0.89862 0.82859 -0.07763
 N70 N 0.90416 0.82220 -0.09083
 C71 C 0.91522 0.82966 -0.09896
 N72 N 0.92070 0.84354 -0.09364
 C73 C 0.32257 0.34154 0.81918
 N74 N 0.31567 0.33407 0.83107
 C75 C 0.32153 0.32044 0.83704
 N76 N 0.33451 0.31427 0.83103
 C77 C 0.34160 0.32151 0.81910
 N78 N 0.33556 0.33518 0.81319
 C79 C 0.17887 0.55711 0.55126
 N80 N 0.18465 0.55077 0.56460
 C81 C 0.19744 0.55677 0.57136
 N82 N 0.20436 0.56933 0.56471
 C83 C 0.19873 0.57579 0.55139
 N84 N 0.18598 0.56962 0.54477
 C85 C 0.60942 0.66178 0.09172
 N86 N 0.60404 0.64798 0.08605
 C87 C 0.59227 0.64047 0.09297
 N88 N 0.58572 0.64705 0.10554
 C89 C 0.59083 0.66094 0.11123
 N90 N 0.60263 0.66826 0.10421
 C91 C 0.69702 0.19376 0.67742
 N92 N 0.68468 0.20191 0.68267
 C93 C 0.67750 0.19728 0.69574
 N94 N 0.68274 0.18425 0.70351
 C95 C 0.69507 0.17597 0.69840
 N96 N 0.70210 0.18082 0.68535
 C97 C 1.07166 0.06047 0.19364
 N98 N 1.06329 0.05401 0.18201
 C99 C 1.05012 0.06082 0.17669
 N100 N 1.04519 0.07433 0.18329
 C101 C 1.05320 0.08107 0.19501
 N102 N 1.06656 0.07416 0.20011
 C103 C 0.05549 0.17424 1.05750
 N104 N 0.04842 0.18013 1.07017
 C105 C 0.05296 0.19393 1.07657
 N106 N 0.06473 0.20183 1.07011
 C107 C 0.07196 0.19619 1.05752
 N108 N 0.06731 0.18237 1.05130
 C109 C 0.16273 0.69995 0.68994
 N110 N 0.17021 0.68788 0.69731
 C111 C 0.18374 0.68219 0.69198
 N112 N 0.18977 0.68870 0.67906
 C113 C 0.18244 0.70078 0.67152
 N114 N 0.16892 0.70630 0.67705
 C115 C 1.18775 0.17300 0.18785
 N116 N 1.17682 0.18162 0.19493
 C117 C 1.17106 0.19509 0.18854
 N118 N 1.17636 0.19999 0.17465
 C119 C 1.18746 0.19157 0.16728
 N120 N 1.19307 0.17804 0.17402
 C121 C 0.68006 1.04505 0.55518
 N122 N 0.68783 1.03853 0.56732
 C123 C 0.70007 1.04577 0.57379
 N124 N 0.70461 1.05989 0.56798
 C125 C 0.69708 1.06660 0.55565
 N126 N 0.68481 1.05907 0.54940
 C127 C 0.58584 0.58956 0.14466
 N128 N 0.58014 0.60329 0.15032
 C129 C 0.58723 0.61065 0.16224
 N130 N 0.60003 0.60399 0.16871
 C131 C 0.60586 0.59021 0.16329
 N132 N 0.59867 0.58304 0.15128
 C133 C 0.63690 0.66341 0.15707
 N134 N 0.64322 0.65077 0.16459
 C135 C 0.65672 0.64437 0.15990
 N136 N 0.66406 0.65096 0.14773
 C137 C 0.65782 0.66358 0.14005
 N138 N 0.64427 0.66970 0.14485
 C139 C 0.16879 0.06320 1.05557
 N140 N 0.17524 0.07633 1.04937
 C141 C 0.18854 0.08207 1.05525
 N142 N 0.19535 0.07461 1.06743
 C143 C 0.18916 0.06160 1.07390
 N144 N 0.17583 0.05595 1.06790
 C145 C 0.58711 0.18878 0.56746
 N146 N 0.58142 0.17588 0.56030
 C147 C 0.56870 0.16862 0.56559
 N148 N 0.56163 0.17442 0.57828
 C149 C 0.56718 0.18735 0.58560
 N150 N 0.57993 0.19440 0.58011
 C151 C 0.08351 0.55549 0.69185
 N152 N 0.07609 0.54959 0.67926
 C153 C 0.06208 0.55540 0.67483
 N154 N 0.05561 0.56719 0.68309
 C155 C 0.06282 0.57321 0.69565
 N156 N 0.07679 0.56733 0.69992
 C157 C 0.63550 0.59354 0.09557
 N158 N 0.64150 0.60659 0.08891
 C159 C 0.65379 0.61391 0.09522
 N160 N 0.66012 0.60801 0.10846
 C161 C 0.65427 0.59502 0.11540
 N162 N 0.64210 0.58766 0.10875
 C163 C 0.06836 0.68985 0.58671
 N164 N 0.06241 0.67707 0.57947
 C165 C 0.06956 0.67071 0.56708
 N166 N 0.08276 0.67726 0.56202
 C167 C 0.08882 0.68998 0.56918
 N168 N 0.08154 0.69614 0.58148
 C169 C 0.55615 1.06173 0.67698
 N170 N 0.56962 1.05618 0.68318
 C171 C 0.57592 1.06307 0.69588
 N172 N 0.56871 1.07566 0.70224
 C173 C 0.55532 1.08134 0.69620
 N174 N 0.54916 1.07431 0.68362
 C175 C 0.41837 0.34673 0.92574
 N176 N 0.42439 0.34120 0.91238
 C177 C 0.41785 0.32896 0.90480
 N178 N 0.40516 0.32220 0.91074
 C179 C 0.39897 0.32749 0.92406
 N180 N 0.40566 0.33974 0.93148
 C181 C 0.94363 0.45730 0.32633
 N182 N 0.93076 0.46281 0.31895
 C183 C 0.92567 0.45603 0.30572
 N184 N 0.93345 0.44350 0.29998
 C185 C 0.94625 0.43776 0.30718
 N186 N 0.95128 0.44474 0.32032
 C187 C 0.31871 0.93992 0.41480
 N188 N 0.31135 0.92847 0.42284
 C189 C 0.31695 0.92345 0.43681
 N190 N 0.32995 0.92993 0.44258
 C191 C 0.33743 0.94131 0.43472
 N192 N 0.33169 0.94621 0.42085
 O193 O 0.26038 0.55503 0.72814
 O194 O 0.28735 0.54948 0.72880
 O195 O 0.24208 0.51393 0.70676
 O196 O 0.24187 0.48796 0.71120
 O197 O 0.22152 0.53260 0.74808
 O198 O 0.22854 0.53119 0.77485
 O199 O 0.28313 0.47163 0.74754
 O200 O 0.27941 0.47678 0.72079
 O201 O 0.30303 0.51009 0.76716
 O202 O 0.29780 0.53993 0.76440
 O203 O 0.26692 0.49125 0.78714
 O204 O 0.23820 0.49338 0.78316
 O205 O 0.26582 0.47141 0.76688
 O206 O 0.23743 0.47684 0.76621
 O207 O 0.28428 0.51100 0.78724
 O208 O 0.28230 0.53970 0.78201
 O209 O 0.30256 0.49150 0.74842
 O210 O 0.29699 0.49571 0.71990
 O211 O 0.24259 0.55476 0.74706
 O212 O 0.24542 0.54875 0.77429
 O213 O 0.22110 0.51431 0.72905
 O214 O 0.22743 0.48602 0.73139
 O215 O 0.26017 0.53301 0.70651
 O216 O 0.28722 0.53216 0.71175
 Zr217 Zr 0.27008 0.53220 0.72874
 O218 O 0.28563 0.51818 0.74182
 Zr219 Zr 0.24339 0.50450 0.72928
 O220 O 0.25782 0.48913 0.74223
 Zr221 Zr 0.24426 0.53184 0.75654
 O222 O 0.25856 0.51767 0.77092
 Zr223 Zr 0.28085 0.49432 0.73794
 O224 O 0.26645 0.50831 0.72346
 Zr225 Zr 0.28157 0.52159 0.76537
 O226 O 0.26732 0.53716 0.75230
 Zr227 Zr 0.25508 0.49376 0.76586
 O228 O 0.23933 0.50791 0.75290
 O229 O 0.24706 0.52829 0.73306
 O230 O 0.27795 0.49780 0.76141
 C231 C 0.24973 0.56162 0.73603
 C232 C 0.24953 0.52495 0.70001
 C233 C 0.21464 0.52497 0.73729
 C234 C 0.27667 0.46505 0.75910
 C235 C 0.30883 0.49820 0.76012
 C236 C 0.27812 0.49880 0.79332
 H237 H 0.29628 0.52080 0.73918
 H238 H 0.25654 0.51998 0.78187
 H239 H 0.24018 0.53503 0.72658
 H240 H 0.25556 0.47805 0.73966
 H241 H 0.27420 0.48172 0.71172
 H242 H 0.24872 0.47898 0.71399
 H243 H 0.27334 0.53845 0.78874
 H244 H 0.25542 0.55403 0.77327
 H245 H 0.30500 0.50333 0.72285
 H246 H 0.28703 0.52160 0.70698
 H247 H 0.24049 0.50191 0.79053
 H248 H 0.22428 0.52043 0.77497
 H249 H 0.28755 0.55399 0.73930
 H250 H 0.30568 0.53698 0.75682
 H251 H 0.22207 0.48759 0.74126
 H252 H 0.23882 0.46987 0.75724
 O253 O 0.20545 0.01795 0.24667
 O254 O 0.21274 0.01716 0.27263
 O255 O 0.24554 0.03600 0.22468
 O256 O 0.26984 0.02932 0.22205
 O257 O 0.22171 -0.00388 0.20548
 O258 O 0.22076 -0.03086 0.21165
 O259 O 0.28566 -0.00991 0.26266
 O260 O 0.28293 0.01775 0.25982
 O261 O 0.24751 -0.02594 0.28550
 O262 O 0.22045 -0.02358 0.28232
 O263 O 0.26169 -0.04824 0.24486
 O264 O 0.25960 -0.04272 0.21774
 O265 O 0.28330 -0.02927 0.24488
 O266 O 0.27580 -0.02576 0.21613
 O267 O 0.24564 -0.04700 0.26521
 O268 O 0.21693 -0.03870 0.26444
 O269 O 0.26737 -0.00894 0.28400
 O270 O 0.26561 0.01825 0.28042
 O271 O 0.20227 -0.00093 0.22849
 O272 O 0.20638 -0.02971 0.23085
 O273 O 0.24128 0.01345 0.20362
 O274 O 0.26947 0.00864 0.20835
 O275 O 0.22804 0.03788 0.24375
 O276 O 0.23157 0.03149 0.27229
 Zr277 Zr 0.22822 0.01520 0.25421
 O278 O 0.24157 -0.00008 0.26833
 Zr279 Zr 0.25261 0.01237 0.22531
 O280 O 0.26758 -0.00215 0.23853
 Zr281 Zr 0.22377 -0.01280 0.22803
 O282 O 0.23778 -0.02898 0.24049
 Zr283 Zr 0.26456 0.00187 0.26217
 O284 O 0.25146 0.01841 0.24892
 Zr285 Zr 0.23625 -0.02383 0.26404
 O286 O 0.22114 -0.00838 0.25167
 Zr287 Zr 0.26104 -0.02561 0.23531
 O288 O 0.24677 -0.01117 0.22103
 O289 O 0.22961 0.01067 0.23078
 O290 O 0.25932 -0.02173 0.25888
 C291 C 0.19733 0.01076 0.23653
 C292 C 0.23567 0.04376 0.23250
 C293 C 0.22958 0.00624 0.19799
 C294 C 0.29075 -0.02206 0.25559
 C295 C 0.25962 -0.01953 0.29107
 C296 C 0.25537 -0.05431 0.25671
 H297 H 0.24016 0.00271 0.27928
 H298 H 0.23449 -0.03984 0.23821
 H299 H 0.22305 0.01786 0.22444
 H300 H 0.27832 -0.00032 0.23558
 H301 H 0.27846 0.02782 0.25593
 H302 H 0.27791 0.02707 0.22990
 H303 H 0.21857 -0.04720 0.25687
 H304 H 0.20152 -0.02753 0.24088
 H305 H 0.26148 0.02837 0.27633
 H306 H 0.23917 0.03926 0.26880
 H307 H 0.24941 -0.04764 0.21845
 H308 H 0.23066 -0.03205 0.20633
 H309 H 0.20774 0.00679 0.27359
 H310 H 0.22098 -0.01306 0.28712
 H311 H 0.26613 -0.00044 0.20210
 H312 H 0.28459 -0.01887 0.21851
 O313 O 0.47895 0.80032 0.23931
 O314 O 0.48043 0.79400 0.21242
 O315 O 0.45774 0.76001 0.25859
 O316 O 0.46212 0.73416 0.26073
 O317 O 0.49828 0.77958 0.28020
 O318 O 0.52492 0.77813 0.27468
 O319 O 0.49949 0.71632 0.22153
 O320 O 0.47280 0.72144 0.22337
 O321 O 0.51843 0.75537 0.20003
 O322 O 0.51775 0.78384 0.20428
 O323 O 0.53829 0.73662 0.24013
 O324 O 0.53308 0.73923 0.26801
 O325 O 0.51868 0.71709 0.23952
 O326 O 0.51564 0.72305 0.26846
 O327 O 0.53787 0.75373 0.21982
 O328 O 0.53359 0.78416 0.22233
 O329 O 0.50151 0.73526 0.20149
 O330 O 0.47245 0.74017 0.20477
 O331 O 0.49749 0.80078 0.25800
 O332 O 0.52480 0.79469 0.25638
 O333 O 0.47949 0.76123 0.28081
 O334 O 0.48189 0.73241 0.27582
 O335 O 0.45775 0.77859 0.23951
 O336 O 0.46370 0.77625 0.21240
 Zr337 Zr 0.48005 0.77723 0.23058
 O338 O 0.49361 0.76274 0.21645
 Zr339 Zr 0.48011 0.75054 0.25892
 O340 O 0.49326 0.73460 0.24590
 Zr341 Zr 0.50715 0.77790 0.25787
 O342 O 0.52183 0.76307 0.24526
 Zr343 Zr 0.48974 0.73902 0.22223
 O344 O 0.47488 0.75344 0.23523
 Zr345 Zr 0.51692 0.76621 0.22164
 O346 O 0.50337 0.78234 0.23420
 Zr347 Zr 0.51657 0.73937 0.24989
 O348 O 0.50341 0.75423 0.26415
 O349 O 0.48391 0.77414 0.25412
 O350 O 0.51284 0.74267 0.22643
 C351 C 0.48645 0.80726 0.25014
 C352 C 0.45116 0.77091 0.25037
 C353 C 0.48748 0.77222 0.28704
 C354 C 0.51138 0.71039 0.22841
 C355 C 0.51250 0.74260 0.19494
 C356 C 0.54400 0.74237 0.22776
 H357 H 0.49125 0.76499 0.20546
 H358 H 0.53265 0.76539 0.24776
 H359 H 0.47730 0.78107 0.26038
 H360 H 0.49067 0.72360 0.24855
 H361 H 0.46355 0.72652 0.22770
 H362 H 0.46451 0.72544 0.25362
 H363 H 0.54217 0.78050 0.22908
 H364 H 0.52377 0.79970 0.24606
 H365 H 0.47631 0.74640 0.19598
 H366 H 0.45879 0.76582 0.21321
 H367 H 0.53984 0.74837 0.26641
 H368 H 0.52488 0.76766 0.27981
 H369 H 0.49065 0.79893 0.21287
 H370 H 0.50805 0.78337 0.19826
 H371 H 0.49132 0.73439 0.28195
 H372 H 0.50817 0.71482 0.26566
 O373 O -0.00959 0.70125 0.73083
 O374 O -0.03665 0.70698 0.73004
 O375 O 0.00916 0.74278 0.71054
 O376 O 0.00811 0.76891 0.71490
 O377 O 0.02900 0.72322 0.75193
 O378 O 0.02183 0.72430 0.77874
 O379 O -0.03393 0.78338 0.75171
 O380 O -0.02847 0.78062 0.72456
 O381 O -0.05363 0.74323 0.76685
 O382 O -0.04687 0.71456 0.76620
 O383 O -0.01652 0.76296 0.79026
 O384 O 0.01219 0.76109 0.78684
 O385 O -0.01572 0.78356 0.77067
 O386 O 0.01248 0.77857 0.77062
 O387 O -0.03495 0.74433 0.78872
 O388 O -0.03175 0.71524 0.78414
 O389 O -0.05292 0.76246 0.74848
 O390 O -0.04590 0.76180 0.72139
 O391 O 0.00797 0.70105 0.75047
 O392 O 0.00521 0.70643 0.77742
 O393 O 0.02939 0.74240 0.73346
 O394 O 0.02307 0.77037 0.73580
 O395 O -0.00871 0.72352 0.70937
 O396 O -0.03590 0.72461 0.71304
 Zr397 Zr -0.01925 0.72410 0.73100
 O398 O -0.03493 0.73761 0.74363
 Zr399 Zr 0.00708 0.75199 0.73292
 O400 O -0.00748 0.76690 0.74565
 Zr401 Zr 0.00624 0.72381 0.75986
 O402 O -0.00836 0.73736 0.77386
 Zr403 Zr -0.03041 0.76172 0.74046
 O404 O -0.01588 0.74822 0.72620
 Zr405 Zr -0.03130 0.73348 0.76732
 O406 O -0.01675 0.71845 0.75460
 Zr407 Zr -0.00489 0.76140 0.76925
 O408 O 0.01104 0.74785 0.75663
 O409 O 0.00362 0.72804 0.73636
 O410 O -0.02783 0.75745 0.76397
 C411 C 0.00088 0.69444 0.73918
 C412 C 0.00215 0.73161 0.70349
 C413 C 0.03584 0.73131 0.74151
 C414 C -0.02732 0.78968 0.76347
 C415 C -0.05986 0.75449 0.75885
 C416 C -0.02833 0.75588 0.79550
 H417 H -0.04544 0.73486 0.74032
 H418 H -0.00645 0.73475 0.78485
 H419 H 0.01059 0.72141 0.73017
 H420 H -0.00533 0.77811 0.74345
 H421 H -0.02312 0.77637 0.71547
 H422 H 0.00231 0.77836 0.71820
 H423 H -0.02371 0.71737 0.79197
 H424 H -0.00511 0.70176 0.77661
 H425 H -0.05184 0.75195 0.72178
 H426 H -0.03514 0.73505 0.70793
 H427 H 0.00992 0.75236 0.79405
 H428 H 0.02659 0.73484 0.77856
 H429 H -0.03650 0.70151 0.74018
 H430 H -0.05319 0.71598 0.75672
 H431 H 0.02803 0.76878 0.74604
 H432 H 0.01123 0.78573 0.76162
 O433 O -0.00182 0.03792 0.02641
 O434 O -0.02833 0.03282 0.02476
 O435 O 0.01598 -0.00448 0.04776
 O436 O 0.01746 -0.03003 0.04272
 O437 O 0.03837 0.01632 0.00849
 O438 O 0.03338 0.01598 -0.01852
 O439 O -0.02272 -0.04410 0.00409
 O440 O -0.02102 -0.04017 0.03082
 O441 O -0.04210 -0.00319 -0.01521
 O442 O -0.03638 0.02495 -0.01399
 O443 O -0.00254 -0.02308 -0.03444
 O444 O 0.02459 -0.02307 -0.02807
 O445 O -0.00544 -0.04331 -0.01528
 O446 O 0.02409 -0.03950 -0.01013
 O447 O -0.02244 -0.00557 -0.03401
 O448 O -0.01839 0.02463 -0.02940
 O449 O -0.04173 -0.02393 0.00157
 O450 O -0.03820 -0.02024 0.03111
 O451 O 0.01682 0.03849 0.00836
 O452 O 0.01567 0.03301 -0.01927
 O453 O 0.03819 -0.00307 0.02674
 O454 O 0.03190 -0.03170 0.02306
 O455 O -0.00199 0.01516 0.04758
 O456 O -0.02916 0.01422 0.04074
 Zr457 Zr -0.01099 0.01521 0.02490
 O458 O -0.02561 0.00222 0.01042
 Zr459 Zr 0.01605 -0.01276 0.02503
 O460 O 0.00231 -0.02746 0.01121
 Zr461 Zr 0.01629 0.01579 -0.00149
 O462 O 0.00324 0.00211 -0.01696
 Zr463 Zr -0.02099 -0.02186 0.01412
 O464 O -0.00736 -0.00892 0.02974
 Zr465 Zr -0.02010 0.00629 -0.01280
 O466 O -0.00706 0.02116 0.00165
 Zr467 Zr 0.00659 -0.02204 -0.01201
 O468 O 0.02144 -0.00835 0.00185
 O469 O 0.01227 0.01125 0.02167
 O470 O -0.01653 -0.01760 -0.00893
 C471 C 0.00889 0.04492 0.01910
 C472 C 0.00836 0.00656 0.05437
 C473 C 0.04481 0.00813 0.01937
 C474 C -0.01664 -0.04972 -0.00811
 C475 C -0.04788 -0.01578 -0.00952
 C476 C -0.01482 -0.01687 -0.04025
 H477 H -0.03642 0.00498 0.01246
 H478 H 0.00593 0.00469 -0.02772
 H479 H 0.01865 0.01772 0.02866
 H480 H 0.00439 -0.03869 0.01369
 H481 H -0.01622 -0.03587 0.04029
 H482 H 0.00952 -0.03791 0.04036
 H483 H -0.01208 0.02072 -0.03798
 H484 H 0.00563 0.03850 -0.01859
 H485 H -0.04675 -0.01365 0.02696
 H486 H -0.02835 0.00381 0.04596
 H487 H 0.02463 -0.01285 -0.03364
 H488 H 0.03812 0.00531 -0.01840
 H489 H -0.02825 0.03777 0.01438
 H490 H -0.04262 0.02434 -0.00458
 H491 H 0.03852 -0.02924 0.01420
 H492 H 0.01999 -0.04857 -0.00431
 O493 O 0.04450 0.51983 0.50579
 O494 O 0.03929 0.52260 0.47873
 O495 O 0.00366 0.54019 0.52515
 O496 O -0.02153 0.53573 0.52413
 O497 O 0.02260 0.49647 0.54288
 O498 O 0.02133 0.46982 0.53452
 O499 O -0.03553 0.50157 0.47915
 O500 O -0.03194 0.52862 0.48516
 O501 O 0.00424 0.48557 0.45911
 O502 O 0.03175 0.48570 0.46610
 O503 O -0.01555 0.46026 0.49472
 O504 O -0.01513 0.46244 0.52342
 O505 O -0.03591 0.48073 0.49575
 O506 O -0.03157 0.47943 0.52432
 O507 O 0.00317 0.46230 0.47691
 O508 O 0.03121 0.46716 0.48076
 O509 O -0.01474 0.50408 0.46006
 O510 O -0.01315 0.53202 0.46855
 O511 O 0.04425 0.49874 0.52215
 O512 O 0.03848 0.47134 0.51773
 O513 O 0.00430 0.51567 0.54438
 O514 O -0.02334 0.51354 0.53714
 O515 O 0.02283 0.54208 0.50777
 O516 O 0.02206 0.53978 0.48011
 Zr517 Zr 0.02236 0.52058 0.49582
 O518 O 0.00951 0.50854 0.47903
 Zr519 Zr -0.00509 0.51742 0.52177
 O520 O -0.01943 0.50557 0.50589
 Zr521 Zr 0.02203 0.48969 0.51967
 O522 O 0.00888 0.47638 0.50411
 Zr523 Zr -0.01399 0.51184 0.48313
 O524 O -0.00112 0.52542 0.49905
 Zr525 Zr 0.01327 0.48415 0.48158
 O526 O 0.02771 0.49632 0.49705
 Zr527 Zr -0.01453 0.48128 0.50727
 O528 O -0.00139 0.49297 0.52433
 O529 O 0.01820 0.51389 0.51843
 O530 O -0.01015 0.48763 0.48455
 C531 C 0.05095 0.51047 0.51575
 C532 C 0.01468 0.54765 0.51876
 C533 C 0.01502 0.50690 0.55037
 C534 C -0.04193 0.48931 0.48492
 C535 C -0.00673 0.49371 0.45290
 C536 C -0.00808 0.45510 0.48310
 H537 H 0.01241 0.51232 0.46867
 H538 H 0.01131 0.46505 0.50554
 H539 H 0.02465 0.51977 0.52584
 H540 H -0.03032 0.50794 0.50794
 H541 H -0.02787 0.53728 0.49156
 H542 H -0.03016 0.53341 0.51702
 H543 H 0.02910 0.45883 0.48847
 H544 H 0.04385 0.47319 0.50791
 H545 H -0.00409 0.53100 0.46190
 H546 H 0.01182 0.54484 0.48086
 H547 H -0.00607 0.45560 0.52169
 H548 H 0.01092 0.46969 0.53891
 H549 H 0.04429 0.51210 0.47801
 H550 H 0.03072 0.49584 0.46044
 H551 H -0.02144 0.50314 0.54213
 H552 H -0.03844 0.48875 0.52329
 O553 O 0.50467 0.03782 0.52531
 O554 O 0.47843 0.03170 0.52584
 O555 O 0.52624 -0.00329 0.54527
 O556 O 0.52723 -0.02900 0.54063
 O557 O 0.54391 0.01734 0.50355
 O558 O 0.53632 0.01726 0.47735
 O559 O 0.48549 -0.04541 0.50499
 O560 O 0.48981 -0.04101 0.53172
 O561 O 0.46304 -0.00591 0.48730
 O562 O 0.46686 0.02233 0.48815
 O563 O 0.50131 -0.02348 0.46492
 O564 O 0.52896 -0.02217 0.46910
 O565 O 0.50207 -0.04461 0.48505
 O566 O 0.53070 -0.03853 0.48622
 O567 O 0.48185 -0.00551 0.46592
 O568 O 0.48334 0.02392 0.47181
 O569 O 0.46477 -0.02541 0.50539
 O570 O 0.46958 -0.02232 0.53158
 O571 O 0.52205 0.03889 0.50605
 O572 O 0.51799 0.03354 0.47852
 O573 O 0.54613 -0.00180 0.52198
 O574 O 0.54062 -0.03039 0.51997
 O575 O 0.50741 0.01538 0.54644
 O576 O 0.47905 0.01365 0.54159
 Zr577 Zr 0.49629 0.01473 0.52468
 O578 O 0.48124 0.00082 0.51152
 Zr579 Zr 0.52421 -0.01208 0.52277
 O580 O 0.51014 -0.02749 0.51008
 Zr581 Zr 0.52106 0.01624 0.49604
 O582 O 0.50747 0.00184 0.48180
 Zr583 Zr 0.48697 -0.02302 0.51482
 O584 O 0.50110 -0.00925 0.52942
 Zr585 Zr 0.48445 0.00495 0.48783
 O586 O 0.49793 0.02059 0.50108
 Zr587 Zr 0.51222 -0.02214 0.48652
 O588 O 0.52743 -0.00766 0.49913
 O589 O 0.51929 0.01172 0.51951
 O590 O 0.48913 -0.01892 0.49127
 C591 C 0.51476 0.04508 0.51736
 C592 C 0.51872 0.00746 0.55240
 C593 C 0.55166 0.00938 0.51368
 C594 C 0.49181 -0.05151 0.49313
 C595 C 0.45758 -0.01777 0.49459
 C596 C 0.48947 -0.01644 0.45908
 H597 H 0.47056 0.00295 0.51463
 H598 H 0.50924 0.00455 0.47087
 H599 H 0.52611 0.01844 0.52580
 H600 H 0.51294 -0.03858 0.51248
 H601 H 0.49403 -0.03595 0.54109
 H602 H 0.51981 -0.03748 0.53860
 H603 H 0.49108 0.02195 0.46381
 H604 H 0.50813 0.03897 0.48055
 H605 H 0.47411 -0.01750 0.54089
 H606 H 0.48229 0.00562 0.54935
 H607 H 0.52755 -0.01237 0.46296
 H608 H 0.54125 0.00671 0.47674
 H609 H 0.47737 0.03642 0.51538
 H610 H 0.46190 0.02168 0.49831
 H611 H 0.54586 -0.02830 0.51012
 H612 H 0.52887 -0.04667 0.49420
 O613 O 0.51491 0.53557 0.02251
 O614 O 0.48733 0.53301 0.01854
 O615 O 0.52791 0.49317 0.04526
 O616 O 0.52502 0.46687 0.04103
 O617 O 0.55297 0.51050 0.00781
 O618 O 0.54981 0.50843 -0.02017
 O619 O 0.48736 0.45567 -0.00145
 O620 O 0.48921 0.45922 0.02652
 O621 O 0.47272 0.49731 -0.02080
 O622 O 0.48057 0.52489 -0.01918
 O623 O 0.51033 0.47296 -0.03701
 O624 O 0.53869 0.47297 -0.02956
 O625 O 0.50753 0.45347 -0.01763
 O626 O 0.53594 0.45576 -0.01275
 O627 O 0.49298 0.49313 -0.03833
 O628 O 0.49929 0.52283 -0.03382
 O629 O 0.47013 0.47751 -0.00323
 O630 O 0.47144 0.48046 0.02395
 O631 O 0.53423 0.53372 0.00519
 O632 O 0.53405 0.52786 -0.02223
 O633 O 0.54993 0.49210 0.02678
 O634 O 0.54253 0.46379 0.02250
 O635 O 0.51190 0.51451 0.04348
 O636 O 0.48420 0.51558 0.03553
 Zr637 Zr 0.50313 0.51401 0.02062
 O638 O 0.48832 0.50171 0.00572
 Zr639 Zr 0.52752 0.48357 0.02300
 O640 O 0.51366 0.46981 0.00832
 Zr641 Zr 0.53185 0.51109 -0.00426
 O642 O 0.51837 0.49860 -0.02023
 Zr643 Zr 0.49072 0.47736 0.00974
 O644 O 0.50420 0.48970 0.02617
 Zr645 Zr 0.49529 0.50496 -0.01720
 O646 O 0.50893 0.51891 -0.00245
 Zr647 Zr 0.51972 0.47446 -0.01464
 O648 O 0.53481 0.48679 0.00013
 O649 O 0.52585 0.50754 0.01851
 O650 O 0.49684 0.48093 -0.01293
 C651 C 0.52700 0.54089 0.01596
 C652 C 0.52185 0.50579 0.05076
 C653 C 0.55742 0.50328 0.02026
 C654 C 0.49473 0.44868 -0.01224
 C655 C 0.46532 0.48580 -0.01487
 C656 C 0.49914 0.48047 -0.04361
 H657 H 0.47761 0.50523 0.00729
 H658 H 0.52173 0.50074 -0.03087
 H659 H 0.53225 0.51375 0.02561
 H660 H 0.51469 0.45849 0.01097
 H661 H 0.49274 0.46377 0.03641
 H662 H 0.51854 0.45831 0.03700
 H663 H 0.50571 0.51828 -0.04202
 H664 H 0.52443 0.53417 -0.02245
 H665 H 0.47525 0.48502 0.03370
 H666 H 0.48545 0.50707 0.04334
 H667 H 0.53750 0.48136 -0.03748
 H668 H 0.55398 0.49761 -0.01869
 H669 H 0.48946 0.53833 0.00860
 H670 H 0.47395 0.52494 -0.01001
 H671 H 0.54972 0.46560 0.01394
 H672 H 0.53285 0.44884 -0.00413
 O673 O 0.75941 0.25986 0.46039
 O674 O 0.73247 0.26058 0.46408
 O675 O 0.77599 0.28474 0.50031
 O676 O 0.77562 0.28202 0.52586
 O677 O 0.79748 0.24121 0.48582
 O678 O 0.79127 0.21417 0.48917
 O679 O 0.73396 0.24682 0.54174
 O680 O 0.73716 0.27373 0.53438
 O681 O 0.71543 0.22450 0.50310
 O682 O 0.72159 0.22272 0.47636
 O683 O 0.75304 0.20427 0.52624
 O684 O 0.78014 0.20868 0.52726
 O685 O 0.75165 0.22715 0.54477
 O686 O 0.78054 0.22804 0.54072
 O687 O 0.73567 0.20289 0.50656
 O688 O 0.73907 0.20687 0.47758
 O689 O 0.71480 0.24442 0.52044
 O690 O 0.71847 0.27080 0.51499
 O691 O 0.77745 0.24046 0.46325
 O692 O 0.77447 0.21304 0.47137
 O693 O 0.79698 0.26196 0.50226
 O694 O 0.78947 0.26153 0.53025
 O695 O 0.75969 0.28369 0.47969
 O696 O 0.73141 0.27871 0.47972
 Zr697 Zr 0.74903 0.26145 0.48208
 O698 O 0.73331 0.24896 0.49565
 Zr699 Zr 0.77445 0.26253 0.51086
 O700 O 0.75958 0.25073 0.52588
 Zr701 Zr 0.77504 0.23268 0.48624
 O702 O 0.76073 0.21927 0.50043
 Zr703 Zr 0.73668 0.25453 0.51894
 O704 O 0.75141 0.26848 0.50526
 Zr705 Zr 0.73781 0.22456 0.49461
 O706 O 0.75215 0.23692 0.47927
 Zr707 Zr 0.76316 0.22636 0.52353
 O708 O 0.77917 0.23821 0.50957
 O709 O 0.77180 0.25691 0.48775
 O710 O 0.74017 0.23024 0.51784
 C711 C 0.77037 0.25119 0.45526
 C712 C 0.76980 0.29075 0.48805
 C713 C 0.80379 0.25296 0.49253
 C714 C 0.74060 0.23583 0.54971
 C715 C 0.70864 0.23278 0.51335
 C716 C 0.74254 0.19712 0.51862
 H717 H 0.72272 0.25167 0.49228
 H718 H 0.76320 0.20796 0.49913
 H719 H 0.77879 0.26287 0.48105
 H720 H 0.76136 0.25433 0.53657
 H721 H 0.74123 0.28285 0.52861
 H722 H 0.76697 0.28104 0.53302
 H723 H 0.74698 0.19907 0.48094
 H724 H 0.76507 0.21422 0.46492
 H725 H 0.72267 0.27957 0.50887
 H726 H 0.73373 0.28724 0.48709
 H727 H 0.78059 0.20224 0.51782
 H728 H 0.79570 0.21529 0.49968
 H729 H 0.73251 0.24958 0.46035
 H730 H 0.71663 0.23318 0.47496
 H731 H 0.79592 0.25193 0.52916
 H732 H 0.77797 0.23707 0.54739
 O733 O 0.76898 0.78023 -0.00656
 O734 O 0.76868 0.77662 0.02092
 O735 O 0.79165 0.73942 -0.02271
 O736 O 0.78933 0.71296 -0.01884
 O737 O 0.75028 0.75429 -0.04458
 O738 O 0.72359 0.75319 -0.03807
 O739 O 0.75159 0.69889 0.02229
 O740 O 0.77882 0.70323 0.01750
 O741 O 0.73196 0.73769 0.03814
 O742 O 0.73308 0.76683 0.03126
 O743 O 0.71249 0.71648 0.00099
 O744 O 0.71791 0.71573 -0.02727
 O745 O 0.73242 0.69731 0.00439
 O746 O 0.73528 0.69914 -0.02500
 O747 O 0.71213 0.73629 0.01849
 O748 O 0.71615 0.76545 0.01451
 O749 O 0.75159 0.71987 0.03965
 O750 O 0.77772 0.72419 0.03583
 O751 O 0.75063 0.77815 -0.02532
 O752 O 0.72381 0.77216 -0.02239
 O753 O 0.76950 0.73594 -0.04324
 O754 O 0.76949 0.70858 -0.03457
 O755 O 0.79097 0.75981 -0.00584
 O756 O 0.78616 0.75982 0.02249
 Zr757 Zr 0.76942 0.75818 0.00469
 O758 O 0.75684 0.74500 0.02076
 Zr759 Zr 0.77021 0.72851 -0.02003
 O760 O 0.75770 0.71386 -0.00506
 Zr761 Zr 0.74187 0.75532 -0.02198
 O762 O 0.72808 0.74191 -0.00723
 Zr763 Zr 0.76151 0.72090 0.01780
 O764 O 0.77576 0.73417 0.00305
 Zr765 Zr 0.73330 0.74762 0.01581
 O766 O 0.74582 0.76243 0.00094
 Zr767 Zr 0.73416 0.71794 -0.00909
 O768 O 0.74664 0.73119 -0.02525
 O769 O 0.76520 0.75237 -0.01818
 O770 O 0.73819 0.72382 0.01373
 C771 C 0.76136 0.78567 -0.01829
 C772 C 0.79749 0.75176 -0.01648
 C773 C 0.76104 0.74603 -0.05068
 C774 C 0.73957 0.69237 0.01660
 C775 C 0.73959 0.72660 0.04510
 C776 C 0.70626 0.72411 0.01205
 H777 H 0.75950 0.74824 0.03139
 H778 H 0.71715 0.74384 -0.00984
 H779 H 0.77108 0.75872 -0.02560
 H780 H 0.76058 0.70264 -0.00636
 H781 H 0.78819 0.70832 0.01364
 H782 H 0.78650 0.70402 -0.01211
 H783 H 0.70914 0.76288 0.00584
 H784 H 0.72463 0.77810 -0.01263
 H785 H 0.78685 0.72890 0.03111
 H786 H 0.79413 0.75171 0.02052
 H787 H 0.71048 0.72457 -0.02645
 H788 H 0.72438 0.74244 -0.04235
 H789 H 0.75800 0.78069 0.02079
 H790 H 0.74154 0.76519 0.03884
 H791 H 0.75923 0.70865 -0.03960
 H792 H 0.74294 0.69134 -0.02109
 O793 O 1.04689 0.24651 0.24553
 O794 O 1.04217 0.24880 0.27294
 O795 O 1.00842 0.21998 0.23006
 O796 O 0.98284 0.22231 0.23005
 O797 O 1.02208 0.26199 0.20542
 O798 O 1.01849 0.28971 0.21003
 O799 O 0.96508 0.26187 0.26808
 O800 O 0.97191 0.23443 0.26616
 O801 O 1.00240 0.28470 0.28634
 O802 O 1.03026 0.28530 0.28028
 O803 O 0.98110 0.30228 0.24669
 O804 O 0.98203 0.29514 0.21874
 O805 O 0.96277 0.27966 0.24844
 O806 O 0.96694 0.27746 0.22054
 O807 O 1.00006 0.30466 0.26469
 O808 O 1.02819 0.30132 0.26312
 O809 O 0.98581 0.26432 0.28766
 O810 O 0.99019 0.23601 0.28409
 O811 O 1.04422 0.26457 0.22613
 O812 O 1.03624 0.29169 0.22652
 O813 O 1.00605 0.24111 0.20691
 O814 O 0.97884 0.24154 0.21330
 O815 O 1.02778 0.22268 0.24765
 O816 O 1.02711 0.22960 0.27428
 Zr817 Zr 1.02506 0.24584 0.25572
 O818 O 1.01075 0.25907 0.27026
 Zr819 Zr 0.99728 0.24217 0.22942
 O820 O 0.98174 0.25531 0.24279
 Zr821 Zr 1.02134 0.27223 0.22739
 O822 O 1.00699 0.28670 0.24064
 Zr823 Zr 0.98771 0.25316 0.26624
 O824 O 1.00218 0.23841 0.25306
 Zr825 Zr 1.01194 0.28302 0.26420
 O826 O 1.02768 0.27000 0.25083
 Zr827 Zr 0.98421 0.27946 0.23779
 O828 O 0.99841 0.26615 0.22305
 O829 O 1.02008 0.24828 0.23234
 O830 O 0.98899 0.27716 0.26129
 C831 C 1.05212 0.25442 0.23404
 C832 C 1.02012 0.21462 0.23776
 C833 C 1.01546 0.24991 0.19958
 C834 C 0.95748 0.27231 0.26019
 C835 C 0.99224 0.27656 0.29334
 C836 C 0.98831 0.31000 0.25717
 H837 H 1.01390 0.25726 0.28112
 H838 H 1.00835 0.29782 0.23750
 H839 H 1.02694 0.24178 0.22591
 H840 H 0.97115 0.25171 0.24089
 H841 H 0.97728 0.22518 0.26179
 H842 H 0.97374 0.22523 0.23611
 H843 H 1.02612 0.30746 0.25355
 H844 H 1.04167 0.29197 0.23662
 H845 H 0.99952 0.23841 0.29019
 H846 H 1.01731 0.22386 0.27462
 H847 H 0.99011 0.30316 0.21976
 H848 H 1.00832 0.28797 0.20517
 H849 H 1.04619 0.25958 0.27155
 H850 H 1.02992 0.27627 0.28755
 H851 H 0.97915 0.25145 0.20720
 H852 H 0.96160 0.26739 0.22227
 O853 O 0.70839 1.01842 0.74747
 O854 O 0.71149 1.01634 0.77507
 O855 O 0.75187 1.03801 0.73447
 O856 O 0.77672 1.03136 0.73778
 O857 O 0.73316 0.99908 0.70953
 O858 O 0.73187 0.97103 0.71488
 O859 O 0.78524 0.98954 0.77717
 O860 O 0.78313 1.01821 0.77397
 O861 O 0.74483 0.97317 0.79204
 O862 O 0.71702 0.97897 0.78442
 O863 O 0.76396 0.95251 0.75504
 O864 O 0.76573 0.95949 0.72674
 O865 O 0.78567 0.97130 0.75810
 O866 O 0.78380 0.97393 0.72992
 O867 O 0.74366 0.95375 0.77112
 O868 O 0.71672 0.96240 0.76744
 O869 O 0.76392 0.99095 0.79465
 O870 O 0.76319 1.01789 0.79195
 O871 O 0.70942 1.00017 0.72845
 O872 O 0.71293 0.97247 0.72927
 O873 O 0.75238 1.01675 0.71238
 O874 O 0.77861 1.01180 0.72130
 O875 O 0.73114 1.03894 0.75003
 O876 O 0.72869 1.03239 0.77744
 Zr877 Zr 0.72969 1.01593 0.75924
 O878 O 0.74084 1.00064 0.77525
 Zr879 Zr 0.75929 1.01435 0.73561
 O880 O 0.77160 0.99872 0.75037
 Zr881 Zr 0.73077 0.98897 0.73164
 O882 O 0.74152 0.97237 0.74645
 Zr883 Zr 0.76469 1.00225 0.77314
 O884 O 0.75363 1.01930 0.75867
 Zr885 Zr 0.73597 0.97721 0.76950
 O886 O 0.72349 0.99255 0.75444
 Zr887 Zr 0.76534 0.97537 0.74545
 O888 O 0.75459 0.99091 0.72934
 O889 O 0.73560 1.01234 0.73642
 O890 O 0.75965 0.97889 0.76836
 C891 C 0.70256 1.01121 0.73579
 C892 C 0.74060 1.04537 0.74070
 C893 C 0.74214 1.00973 0.70426
 C894 C 0.79126 0.97762 0.77032
 C895 C 0.75595 0.97943 0.79966
 C896 C 0.75486 0.94634 0.76489
 H897 H 0.73773 1.00324 0.78586
 H898 H 0.73843 0.96166 0.74338
 H899 H 0.73017 1.01973 0.72927
 H900 H 0.78275 1.00033 0.74939
 H901 H 0.77903 1.02855 0.77034
 H902 H 0.78470 1.02690 0.74480
 H903 H 0.71811 0.95588 0.75814
 H904 H 0.70718 0.97273 0.73903
 H905 H 0.75855 1.02777 0.78787
 H906 H 0.73799 1.03891 0.77687
 H907 H 0.75655 0.95280 0.72742
 H908 H 0.74236 0.97122 0.71068
 H909 H 0.70627 1.00609 0.77412
 H910 H 0.71955 0.98665 0.79257
 H911 H 0.77721 1.00196 0.71541
 H912 H 0.79057 0.98298 0.73190
 O913 O 0.77425 0.46175 0.24884
 O914 O 0.77468 0.46881 0.22223
 O915 O 0.78781 0.50483 0.27074
 O916 O 0.77923 0.52958 0.27263
 O917 O 0.74951 0.47804 0.28748
 O918 O 0.72333 0.47643 0.27939
 O919 O 0.74483 0.54287 0.22927
 O920 O 0.77139 0.54095 0.23330
 O921 O 0.73218 0.50204 0.20554
 O922 O 0.73792 0.47325 0.20982
 O923 O 0.70729 0.51646 0.24181
 O924 O 0.70948 0.51397 0.27021
 O925 O 0.72399 0.53885 0.24419
 O926 O 0.72475 0.53213 0.27345
 O927 O 0.71152 0.49869 0.22281
 O928 O 0.72038 0.46999 0.22517
 O929 O 0.74581 0.52442 0.20901
 O930 O 0.77530 0.52272 0.21512
 O931 O 0.75429 0.45793 0.26500
 O932 O 0.72663 0.46059 0.26107
 O933 O 0.76529 0.49901 0.29017
 O934 O 0.75826 0.52748 0.28511
 O935 O 0.79210 0.48681 0.25194
 O936 O 0.78851 0.48874 0.22432
 Zr937 Zr 0.77087 0.48487 0.24033
 O938 O 0.75682 0.49753 0.22449
 Zr939 Zr 0.76442 0.51049 0.26847
 O940 O 0.75052 0.52467 0.25376
 Zr941 Zr 0.74193 0.47946 0.26433
 O942 O 0.72658 0.49230 0.24984
 Zr943 Zr 0.75679 0.52140 0.23068
 O944 O 0.77216 0.50904 0.24557
 Zr945 Zr 0.73400 0.49041 0.22697
 O946 O 0.74838 0.47619 0.24126
 Zr947 Zr 0.72787 0.51653 0.25477
 O948 O 0.74156 0.50334 0.27078
 O949 O 0.76456 0.48665 0.26325
 O950 O 0.73423 0.51428 0.23202
 C951 C 0.76661 0.45326 0.25832
 C952 C 0.79654 0.49525 0.26340
 C953 C 0.75884 0.48652 0.29539
 C954 C 0.73169 0.54701 0.23444
 C955 C 0.73629 0.51591 0.20136
 C956 C 0.70338 0.50940 0.22930
 H957 H 0.76043 0.49601 0.21385
 H958 H 0.71606 0.48834 0.25101
 H959 H 0.77156 0.48044 0.27009
 H960 H 0.75133 0.53587 0.25671
 H961 H 0.78061 0.53708 0.23901
 H962 H 0.77674 0.53772 0.26474
 H963 H 0.71169 0.47114 0.23229
 H964 H 0.72903 0.45595 0.25093
 H965 H 0.77226 0.51757 0.20536
 H966 H 0.79180 0.49977 0.22569
 H967 H 0.70487 0.50355 0.26836
 H968 H 0.72144 0.48682 0.28417
 H969 H 0.76502 0.46295 0.22083
 H970 H 0.74672 0.47672 0.20362
 H971 H 0.74910 0.52347 0.29041
 H972 H 0.73135 0.54137 0.27175
 O973 O 0.54840 0.24088 0.75513
 O974 O 0.54117 0.24337 0.78155
 O975 O 0.50942 0.21807 0.73503
 O976 O 0.48436 0.22294 0.73190
 O977 O 0.52964 0.25847 0.71254
 O978 O 0.52805 0.28630 0.71693
 O979 O 0.46627 0.26328 0.76821
 O980 O 0.47140 0.23521 0.76731
 O981 O 0.50322 0.28330 0.79081
 O982 O 0.53153 0.28121 0.78795
 O983 O 0.48639 0.30177 0.75052
 O984 O 0.49128 0.29589 0.72226
 O985 O 0.46736 0.28159 0.74899
 O986 O 0.47485 0.27858 0.72127
 O987 O 0.50376 0.30250 0.77027
 O988 O 0.53267 0.29730 0.77012
 O989 O 0.48411 0.26537 0.78953
 O990 O 0.48806 0.23802 0.78875
 O991 O 0.54962 0.25893 0.73566
 O992 O 0.54377 0.28692 0.73559
 O993 O 0.51176 0.23919 0.71211
 O994 O 0.48377 0.24225 0.71563
 O995 O 0.52720 0.21900 0.75440
 O996 O 0.52466 0.22642 0.78169
 Zr997 Zr 0.52561 0.24221 0.76270
 O998 O 0.51104 0.25675 0.77568
 Zr999 Zr 0.50060 0.24119 0.73346
 O1000 O 0.48483 0.25563 0.74517
 Zr1001 Zr 0.52735 0.26882 0.73440
 O1002 O 0.51278 0.28463 0.74607
 Zr1003 Zr 0.48819 0.25293 0.76908
 O1004 O 0.50259 0.23680 0.75745
 Zr1005 Zr 0.51494 0.28046 0.76993
 O1006 O 0.53088 0.26597 0.75835
 Zr1007 Zr 0.48983 0.27942 0.74066
 O1008 O 0.50450 0.26491 0.72749
 O1009 O 0.52344 0.24513 0.73895
 O1010 O 0.49212 0.27649 0.76435
 C1011 C 0.55563 0.24813 0.74442
 C1012 C 0.51984 0.21169 0.74375
 C1013 C 0.52270 0.24697 0.70595
 C1014 C 0.46045 0.27465 0.76010
 C1015 C 0.49098 0.27698 0.79598
 C1016 C 0.49235 0.30828 0.76250
 H1017 H 0.51258 0.25460 0.78683
 H1018 H 0.51527 0.29563 0.74335
 H1019 H 0.53039 0.23802 0.73327
 H1020 H 0.47423 0.25295 0.74209
 H1021 H 0.47687 0.22528 0.76485
 H1022 H 0.47573 0.22592 0.73857
 H1023 H 0.53055 0.30499 0.76170
 H1024 H 0.54797 0.28672 0.74626
 H1025 H 0.49370 0.22831 0.78597
 H1026 H 0.51643 0.21881 0.77947
 H1027 H 0.49893 0.30390 0.72517
 H1028 H 0.51793 0.28621 0.71164
 H1029 H 0.54589 0.25392 0.78106
 H1030 H 0.52969 0.27220 0.79497
 H1031 H 0.48588 0.25178 0.70937
 H1032 H 0.46783 0.26966 0.72283
 O1033 O 0.29508 0.75897 0.48512
 O1034 O 0.29285 0.73113 0.48732
 O1035 O 0.25277 0.77184 0.46170
 O1036 O 0.22782 0.77053 0.46595
 O1037 O 0.26929 0.79808 0.50097
 O1038 O 0.26803 0.79329 0.52849
 O1039 O 0.21695 0.72978 0.50507
 O1040 O 0.22156 0.73226 0.47797
 O1041 O 0.25767 0.71374 0.52532
 O1042 O 0.28462 0.72242 0.52448
 O1043 O 0.23438 0.75235 0.54360
 O1044 O 0.23247 0.78050 0.53722
 O1045 O 0.21463 0.74924 0.52277
 O1046 O 0.21705 0.77878 0.51971
 O1047 O 0.25459 0.73527 0.54494
 O1048 O 0.28246 0.73988 0.54014
 O1049 O 0.23951 0.71128 0.50649
 O1050 O 0.24170 0.71406 0.48054
 O1051 O 0.29292 0.77855 0.50273
 O1052 O 0.28707 0.77760 0.52975
 O1053 O 0.25133 0.79517 0.48199
 O1054 O 0.22448 0.78645 0.48491
 O1055 O 0.27392 0.75598 0.46306
 O1056 O 0.27656 0.72780 0.47067
 Zr1057 Zr 0.27408 0.74707 0.48585
 O1058 O 0.26221 0.73114 0.49989
 Zr1059 Zr 0.24418 0.77167 0.48413
 O1060 O 0.23095 0.75670 0.49794
 Zr1061 Zr 0.27076 0.77565 0.51163
 O1062 O 0.25865 0.76093 0.52682
 Zr1063 Zr 0.23860 0.73335 0.49554
 O1064 O 0.25053 0.74798 0.48000
 Zr1065 Zr 0.26497 0.73727 0.52320
 O1066 O 0.27845 0.75216 0.50924
 Zr1067 Zr 0.23514 0.76196 0.52125
 O1068 O 0.24707 0.77824 0.50733
 O1069 O 0.26764 0.77050 0.48843
 O1070 O 0.24147 0.73838 0.51884
 C1071 C 0.30038 0.77091 0.49244
 C1072 C 0.26455 0.76523 0.45569
 C1073 C 0.26123 0.80336 0.48945
 C1074 C 0.20965 0.73700 0.51571
 C1075 C 0.24757 0.70580 0.51786
 C1076 C 0.24265 0.74188 0.55068
 H1077 H 0.26586 0.72029 0.49779
 H1078 H 0.26067 0.76415 0.53758
 H1079 H 0.27347 0.77752 0.48153
 H1080 H 0.21999 0.75782 0.49505
 H1081 H 0.22626 0.73625 0.46839
 H1082 H 0.22036 0.76236 0.46881
 H1083 H 0.27968 0.74896 0.54666
 H1084 H 0.29301 0.76758 0.52996
 H1085 H 0.24683 0.71820 0.47130
 H1086 H 0.26826 0.72866 0.46280
 H1087 H 0.24198 0.78100 0.54352
 H1088 H 0.25741 0.79739 0.52730
 H1089 H 0.29737 0.73227 0.49779
 H1090 H 0.28438 0.71545 0.51540
 H1091 H 0.22572 0.79331 0.49402
 H1092 H 0.21019 0.77572 0.51109
 O1093 O 0.27992 0.26229 0.97932
 O1094 O 0.27510 0.23429 0.98044
 O1095 O 0.24104 0.28107 0.95571
 O1096 O 0.21546 0.28128 0.95831
 O1097 O 0.25759 0.30204 0.99740
 O1098 O 0.25429 0.29554 1.02448
 O1099 O 0.19860 0.23953 0.99385
 O1100 O 0.20450 0.24343 0.96751
 O1101 O 0.23613 0.21822 1.01488
 O1102 O 0.26439 0.22424 1.01577
 O1103 O 0.21628 0.25773 1.03513
 O1104 O 0.21680 0.28598 1.03044
 O1105 O 0.19715 0.25757 1.01301
 O1106 O 0.20237 0.28703 1.01204
 O1107 O 0.23471 0.23861 1.03606
 O1108 O 0.26248 0.23984 1.03306
 O1109 O 0.21889 0.21898 0.99501
 O1110 O 0.22267 0.22506 0.96755
 O1111 O 0.27875 0.28061 0.99830
 O1112 O 0.27176 0.27767 1.02531
 O1113 O 0.24035 0.30258 0.97746
 O1114 O 0.21269 0.29680 0.97848
 O1115 O 0.25985 0.26227 0.95688
 O1116 O 0.25886 0.23426 0.96209
 Zr1117 Zr 0.25801 0.25212 0.97894
 O1118 O 0.24396 0.23654 0.99112
 Zr1119 Zr 0.23072 0.27992 0.97749
 O1120 O 0.21538 0.26542 0.98948
 Zr1121 Zr 0.25613 0.27899 1.00648
 O1122 O 0.24182 0.26465 1.01989
 Zr1123 Zr 0.22092 0.24167 0.98564
 O1124 O 0.23502 0.25609 0.97201
 Zr1125 Zr 0.24604 0.24079 1.01487
 O1126 O 0.26171 0.25511 1.00279
 Zr1127 Zr 0.21877 0.26845 1.01333
 O1128 O 0.23299 0.28436 1.00128
 O1129 O 0.25362 0.27579 0.98291
 O1130 O 0.22299 0.24463 1.00942
 C1131 C 0.28576 0.27348 0.98734
 C1132 C 0.25242 0.27347 0.94992
 C1133 C 0.25088 0.30891 0.98582
 C1134 C 0.19146 0.24645 1.00478
 C1135 C 0.22562 0.21197 1.00643
 C1136 C 0.22336 0.24617 1.04189
 H1137 H 0.24683 0.22557 0.98860
 H1138 H 0.24359 0.26691 1.03094
 H1139 H 0.26035 0.28264 0.97678
 H1140 H 0.20471 0.26784 0.98618
 H1141 H 0.20953 0.24889 0.95883
 H1142 H 0.20629 0.27512 0.96092
 H1143 H 0.26150 0.24971 1.03898
 H1144 H 0.27726 0.26744 1.02444
 H1145 H 0.23161 0.21809 0.96971
 H1146 H 0.24911 0.23504 0.95614
 H1147 H 0.22634 0.28565 1.03673
 H1148 H 0.24431 0.30105 1.02293
 H1149 H 0.27954 0.23480 0.99100
 H1150 H 0.26343 0.21733 1.00667
 H1151 H 0.21400 0.30256 0.98830
 H1152 H 0.19553 0.28507 1.00308
 C1153 C 0.29739 0.37799 0.81526
 C1154 C 0.30299 0.38546 0.80185
 C1155 C 0.31519 0.37790 0.79404
 C1156 C 0.32163 0.36370 0.79974
 C1157 C 0.31597 0.35657 0.81310
 C1158 C 0.30377 0.36386 0.82072
 C1159 C 0.32087 0.38451 0.78054
 C1160 C 0.31460 0.39836 0.77443
 C1161 C 0.30244 0.40636 0.78172
 C1162 C 0.29680 0.40001 0.79588
 C1163 C 0.28527 0.40849 0.80367
 C1164 C 0.27918 0.42245 0.79772
 C1165 C 0.28420 0.42855 0.78375
 C1166 C 0.29585 0.42062 0.77546
 C1167 C 0.30034 0.42735 0.76124
 C1168 C 0.29385 0.44148 0.75580
 C1169 C 0.28256 0.44938 0.76421
 C1170 C 0.27771 0.44271 0.77813
 H1171 H 0.28792 0.38258 0.82174
 H1172 H 0.33098 0.35813 0.79364
 H1173 H 0.29906 0.35865 0.83105
 H1174 H 0.33023 0.37883 0.77455
 H1175 H 0.31975 0.40259 0.76400
 H1176 H 0.28080 0.40480 0.81461
 H1177 H 0.27038 0.42855 0.80416
 H1178 H 0.30884 0.42203 0.75399
 H1179 H 0.29784 0.44631 0.74499
 H1180 H 0.26906 0.44871 0.78483
 C1181 C 0.28034 -0.14351 0.30811
 C1182 C 0.28434 -0.13560 0.29437
 C1183 C 0.29579 -0.14267 0.28514
 C1184 C 0.30341 -0.15658 0.29000
 C1185 C 0.29957 -0.16409 0.30390
 C1186 C 0.28776 -0.15744 0.31271
 C1187 C 0.29963 -0.13579 0.27109
 C1188 C 0.29228 -0.12212 0.26587
 C1189 C 0.28096 -0.11449 0.27473
 C1190 C 0.27732 -0.12103 0.28946
 C1191 C 0.26715 -0.11254 0.29896
 C1192 C 0.26071 -0.09821 0.29423
 C1193 C 0.26376 -0.09193 0.27970
 C1194 C 0.27357 -0.10022 0.26957
 C1195 C 0.27560 -0.09383 0.25465
 C1196 C 0.26913 -0.07932 0.25045
 C1197 C 0.26028 -0.07063 0.26085
 C1198 C 0.25729 -0.07723 0.27535
 H1199 H 0.27132 -0.13941 0.31549
 H1200 H 0.31230 -0.16157 0.28285
 H1201 H 0.28421 -0.16290 0.32340
 H1202 H 0.30840 -0.14107 0.26398
 H1203 H 0.29616 -0.11751 0.25501
 H1204 H 0.26433 -0.11638 0.31043
 H1205 H 0.25326 -0.09196 0.30207
 H1206 H 0.28206 -0.09975 0.24588
 H1207 H 0.27135 -0.07477 0.23900
 H1208 H 0.25033 -0.07074 0.28345
 C1209 C 0.79345 0.84817 0.77552
 C1210 C 0.78205 0.85773 0.78237
 C1211 C 0.77409 0.85129 0.79507
 C1212 C 0.77783 0.83621 0.80087
 C1213 C 0.78955 0.82718 0.79430
 C1214 C 0.79712 0.83323 0.78143
 C1215 C 0.76256 0.86001 0.80210
 C1216 C 0.75883 0.87513 0.79703
 C1217 C 0.76662 0.88229 0.78468
 C1218 C 0.77841 0.87344 0.77720
 C1219 C 0.78635 0.88068 0.76500
 C1220 C 0.78303 0.89604 0.76033
 C1221 C 0.77164 0.90484 0.76751
 C1222 C 0.76316 0.89810 0.77970
 C1223 C 0.75165 0.90758 0.78647
 C1224 C 0.74893 0.92304 0.78150
 C1225 C 0.75750 0.92969 0.76961
 C1226 C 0.76881 0.92044 0.76261
 H1227 H 0.79988 0.85185 0.76564
 H1228 H 0.77179 0.83165 0.81077
 H1229 H 0.80612 0.82649 0.77596
 H1230 H 0.75638 0.85512 0.81177
 H1231 H 0.74984 0.88095 0.80325
 H1232 H 0.79541 0.87489 0.75886
 H1233 H 0.78954 0.90112 0.75099
 H1234 H 0.74453 0.90351 0.79568
 H1235 H 0.74012 0.92986 0.78719
 H1236 H 0.77551 0.92540 0.75336
 C1237 C 0.46456 0.89083 0.30865
 C1238 C 0.45931 0.88414 0.29465
 C1239 C 0.44573 0.89058 0.28786
 C1240 C 0.43763 0.90282 0.29508
 C1241 C 0.44275 0.90905 0.30920
 C1242 C 0.45644 0.90300 0.31573
 C1243 C 0.44014 0.88467 0.27395
 C1244 C 0.44747 0.87222 0.26673
 C1245 C 0.46077 0.86501 0.27320
 C1246 C 0.46689 0.87117 0.28732
 C1247 C 0.48018 0.86394 0.29379
 C1248 C 0.48693 0.85083 0.28711
 C1249 C 0.48085 0.84439 0.27365
 C1250 C 0.46791 0.85155 0.26626
 C1251 C 0.46244 0.84462 0.25245
 C1252 C 0.46895 0.83072 0.24686
 C1253 C 0.48123 0.82327 0.25467
 C1254 C 0.48741 0.83050 0.26782
 H1255 H 0.47485 0.88691 0.31457
 H1256 H 0.42719 0.90735 0.28966
 H1257 H 0.46092 0.90753 0.32652
 H1258 H 0.42982 0.88963 0.26864
 H1259 H 0.44220 0.86836 0.25614
 H1260 H 0.48558 0.86794 0.30427
 H1261 H 0.49691 0.84549 0.29272
 H1262 H 0.45295 0.84941 0.24580
 H1263 H 0.46398 0.82554 0.23658
 H1264 H 0.49697 0.82496 0.27397
 C1265 C -0.05430 0.86336 0.83165
 C1266 C -0.05940 0.85807 0.81699
 C1267 C -0.07339 0.86445 0.81107
 C1268 C -0.08161 0.87584 0.81935
 C1269 C -0.07626 0.88115 0.83371
 C1270 C -0.06258 0.87471 0.83978
 C1271 C -0.07917 0.85945 0.79688
 C1272 C -0.07149 0.84811 0.78841
 C1273 C -0.05751 0.84134 0.79371
 C1274 C -0.05120 0.84664 0.80810
 C1275 C -0.03685 0.84044 0.81304
 C1276 C -0.02917 0.82911 0.80456
 C1277 C -0.03550 0.82326 0.79095
 C1278 C -0.04965 0.82937 0.78517
 C1279 C -0.05545 0.82298 0.77122
 C1280 C -0.04781 0.81068 0.76379
 C1281 C -0.03409 0.80434 0.76988
 C1282 C -0.02784 0.81102 0.78329
 H1283 H -0.04405 0.85889 0.83728
 H1284 H -0.09222 0.88061 0.81451
 H1285 H -0.05820 0.87842 0.85091
 H1286 H -0.08985 0.86432 0.79229
 H1287 H -0.07684 0.84498 0.77762
 H1288 H -0.03111 0.84419 0.82343
 H1289 H -0.01819 0.82470 0.80885
 H1290 H -0.06608 0.82686 0.76592
 H1291 H -0.05299 0.80577 0.75350
 H1292 H -0.01725 0.80627 0.78820
 C1293 C -0.05775 -0.11631 -0.07646
 C1294 C -0.06016 -0.11146 -0.06110
 C1295 C -0.07209 -0.11883 -0.05285
 C1296 C -0.08075 -0.13090 -0.05960
 C1297 C -0.07741 -0.13641 -0.07444
 C1298 C -0.06611 -0.12859 -0.08290
 C1299 C -0.07503 -0.11447 -0.03770
 C1300 C -0.06583 -0.10365 -0.03017
 C1301 C -0.05329 -0.09661 -0.03757
 C1302 C -0.05087 -0.09997 -0.05351
 C1303 C -0.03912 -0.09191 -0.06122
 C1304 C -0.02994 -0.08110 -0.05363
 C1305 C -0.03178 -0.07814 -0.03798
 C1306 C -0.04322 -0.08613 -0.02962
 C1307 C -0.04396 -0.08343 -0.01356
 C1308 C -0.03462 -0.07233 -0.00645
 C1309 C -0.02404 -0.06369 -0.01498
 C1310 C -0.02237 -0.06702 -0.03069
 H1311 H -0.04914 -0.11127 -0.08371
 H1312 H -0.08957 -0.13654 -0.05289
 H1313 H -0.06338 -0.13217 -0.09452
 H1314 H -0.08437 -0.11975 -0.03145
 H1315 H -0.06897 -0.10090 -0.01852
 H1316 H -0.03675 -0.09355 -0.07325
 H1317 H -0.02114 -0.07514 -0.06008
 H1318 H -0.05169 -0.08964 -0.00614
 H1319 H -0.03605 -0.07018 0.00575
 H1320 H -0.01422 -0.06045 -0.03745
 C1321 C -0.06297 0.37012 0.45971
 C1322 C -0.05003 0.37784 0.45381
 C1323 C -0.04238 0.37077 0.44126
 C1324 C -0.04801 0.35688 0.43454
 C1325 C -0.06109 0.34953 0.44039
 C1326 C -0.06833 0.35634 0.45314
 C1327 C -0.02910 0.37754 0.43555
 C1328 C -0.02306 0.39102 0.44220
 C1329 C -0.03032 0.39856 0.45465
 C1330 C -0.04433 0.39214 0.46017
 C1331 C -0.05235 0.40036 0.47171
 C1332 C -0.04659 0.41396 0.47817
 C1333 C -0.03261 0.41993 0.47349
 C1334 C -0.02421 0.41241 0.46167
 C1335 C -0.01003 0.41909 0.45751
 C1336 C -0.00469 0.43276 0.46459
 C1337 C -0.01318 0.44015 0.47613
 C1338 C -0.02710 0.43357 0.48053
 H1339 H -0.06909 0.37418 0.46965
 H1340 H -0.04208 0.35176 0.42484
 H1341 H -0.07833 0.35104 0.45824
 H1342 H -0.02318 0.37224 0.42594
 H1343 H -0.01275 0.39541 0.43709
 H1344 H -0.06336 0.39680 0.47585
 H1345 H -0.05317 0.41985 0.48698
 H1346 H -0.00273 0.41403 0.44889
 H1347 H 0.00614 0.43757 0.46096
 H1348 H -0.03388 0.43921 0.48936
 C1349 C 0.46756 -0.13618 0.43654
 C1350 C 0.46317 -0.12918 0.45058
 C1351 C 0.45120 -0.13643 0.45887
 C1352 C 0.44370 -0.14974 0.45297
 C1353 C 0.44802 -0.15639 0.43887
 C1354 C 0.46016 -0.14946 0.43086
 C1355 C 0.44671 -0.13034 0.47301
 C1356 C 0.45381 -0.11721 0.47919
 C1357 C 0.46565 -0.10940 0.47134
 C1358 C 0.47022 -0.11532 0.45667
 C1359 C 0.48147 -0.10701 0.44843
 C1360 C 0.48801 -0.09340 0.45425
 C1361 C 0.48383 -0.08759 0.46859
 C1362 C 0.47280 -0.09563 0.47749
 C1363 C 0.46933 -0.08942 0.49216
 C1364 C 0.47592 -0.07549 0.49733
 C1365 C 0.48632 -0.06722 0.48821
 C1366 C 0.49045 -0.07356 0.47395
 H1367 H 0.47680 -0.13181 0.42966
 H1368 H 0.43449 -0.15492 0.45950
 H1369 H 0.46403 -0.15422 0.42001
 H1370 H 0.43758 -0.13581 0.47941
 H1371 H 0.44947 -0.11329 0.49008
 H1372 H 0.48528 -0.11047 0.43719
 H1373 H 0.49641 -0.08731 0.44737
 H1374 H 0.46153 -0.09498 0.49997
 H1375 H 0.47261 -0.07106 0.50850
 H1376 H 0.49851 -0.06735 0.46676
 C1377 C 0.42678 0.37651 -0.04393
 C1378 C 0.44038 0.38352 -0.04927
 C1379 C 0.44621 0.37821 -0.06353
 C1380 C 0.43874 0.36632 -0.07188
 C1381 C 0.42543 0.35921 -0.06626
 C1382 C 0.41950 0.36464 -0.05225
 C1383 C 0.45959 0.38465 -0.06936
 C1384 C 0.46773 0.39581 -0.06109
 C1385 C 0.46275 0.40112 -0.04658
 C1386 C 0.44854 0.39535 -0.04085
 C1387 C 0.44299 0.40158 -0.02690
 C1388 C 0.45117 0.41273 -0.01864
 C1389 C 0.46528 0.41805 -0.02377
 C1390 C 0.47141 0.41216 -0.03768
 C1391 C 0.48609 0.41745 -0.04198
 C1392 C 0.49391 0.42859 -0.03322
 C1393 C 0.48747 0.43497 -0.01989
 C1394 C 0.47321 0.42940 -0.01511
 H1395 H 0.42156 0.37968 -0.03319
 H1396 H 0.44355 0.36246 -0.08270
 H1397 H 0.40924 0.35958 -0.04747
 H1398 H 0.46395 0.38086 -0.08039
 H1399 H 0.47785 0.40020 -0.06654
 H1400 H 0.43220 0.39823 -0.02207
 H1401 H 0.44643 0.41715 -0.00800
 H1402 H 0.49191 0.41321 -0.05203
 H1403 H 0.50492 0.43256 -0.03725
 H1404 H 0.46805 0.43416 -0.00481
 C1405 C 0.79315 0.37760 0.43302
 C1406 C 0.79779 0.37000 0.44696
 C1407 C 0.80969 0.37707 0.45571
 C1408 C 0.81680 0.39088 0.45045
 C1409 C 0.81214 0.39817 0.43656
 C1410 C 0.80020 0.39140 0.42798
 C1411 C 0.81449 0.37036 0.46970
 C1412 C 0.80769 0.35683 0.47537
 C1413 C 0.79581 0.34925 0.46715
 C1414 C 0.79101 0.35573 0.45253
 C1415 C 0.77980 0.34758 0.44390
 C1416 C 0.77346 0.33366 0.44932
 C1417 C 0.77777 0.32736 0.46367
 C1418 C 0.78881 0.33521 0.47291
 C1419 C 0.79238 0.32862 0.48759
 C1420 C 0.78584 0.31456 0.49249
 C1421 C 0.77541 0.30647 0.48308
 C1422 C 0.77123 0.31313 0.46873
 H1423 H 0.78400 0.37333 0.42578
 H1424 H 0.82592 0.39602 0.45730
 H1425 H 0.79626 0.39675 0.41723
 H1426 H 0.82363 0.37566 0.47641
 H1427 H 0.81229 0.35243 0.48617
 H1428 H 0.77585 0.35148 0.43267
 H1429 H 0.76505 0.32774 0.44216
 H1430 H 0.80015 0.33402 0.49566
 H1431 H 0.78920 0.30993 0.50373
 H1432 H 0.76312 0.30709 0.46134
 C1433 C 0.82262 0.86349 -0.04758
 C1434 C 0.80757 0.85856 -0.05114
 C1435 C 0.79967 0.86636 -0.06346
 C1436 C 0.80636 0.87916 -0.07122
 C1437 C 0.82106 0.88441 -0.06700
 C1438 C 0.82913 0.87614 -0.05529
 C1439 C 0.78507 0.86141 -0.06789
 C1440 C 0.77815 0.84884 -0.06044
 C1441 C 0.78544 0.84085 -0.04794
 C1442 C 0.80023 0.84610 -0.04296
 C1443 C 0.80708 0.83893 -0.02978
 C1444 C 0.80010 0.82665 -0.02209
 C1445 C 0.78610 0.82084 -0.02725
 C1446 C 0.77847 0.82781 -0.04019
 C1447 C 0.76436 0.82117 -0.04497
 C1448 C 0.75845 0.80794 -0.03747
 C1449 C 0.76625 0.80098 -0.02486
 C1450 C 0.77991 0.80779 -0.01964
 H1451 H 0.82981 0.85775 -0.03899
 H1452 H 0.79995 0.88515 -0.08038
 H1453 H 0.84063 0.87947 -0.05185
 H1454 H 0.77894 0.86729 -0.07730
 H1455 H 0.76688 0.84584 -0.06461
 H1456 H 0.81780 0.84271 -0.02485
 H1457 H 0.80584 0.82152 -0.01204
 H1458 H 0.75783 0.82556 -0.05475
 H1459 H 0.74792 0.80290 -0.04184
 H1460 H 0.78620 0.80250 -0.01000
 C1461 C 0.78435 0.29953 0.36448
 C1462 C 0.79170 0.28755 0.37345
 C1463 C 0.80617 0.28193 0.36846
 C1464 C 0.81297 0.28832 0.35521
 C1465 C 0.80565 0.30045 0.34672
 C1466 C 0.79123 0.30582 0.35144
 C1467 C 0.81390 0.27013 0.37682
 C1468 C 0.80783 0.26397 0.39028
 C1469 C 0.79366 0.26942 0.39600
 C1470 C 0.78534 0.28122 0.38730
 C1471 C 0.77104 0.28648 0.39285
 C1472 C 0.76532 0.28095 0.40668
 C1473 C 0.77350 0.26989 0.41555
 C1474 C 0.78765 0.26371 0.41029
 C1475 C 0.79529 0.25234 0.41979
 C1476 C 0.78941 0.24788 0.43407
 C1477 C 0.77570 0.25450 0.43940
 C1478 C 0.76767 0.26526 0.42986
 H1479 H 0.77335 0.30452 0.36726
 H1480 H 0.82411 0.28399 0.35169
 H1481 H 0.78520 0.31510 0.34510
 H1482 H 0.82491 0.26569 0.37301
 H1483 H 0.81467 0.25500 0.39602
 H1484 H 0.76393 0.29505 0.38687
 H1485 H 0.75442 0.28558 0.41058
 H1486 H 0.80599 0.24684 0.41671
 H1487 H 0.79589 0.23951 0.44115
 H1488 H 0.75698 0.27041 0.43375
 C1489 C 0.76786 0.79070 -0.14434
 C1490 C 0.77388 0.77728 -0.13639
 C1491 C 0.78560 0.76850 -0.14369
 C1492 C 0.79127 0.77330 -0.15801
 C1493 C 0.78566 0.78702 -0.16545
 C1494 C 0.77365 0.79543 -0.15856
 C1495 C 0.79188 0.75511 -0.13655
 C1496 C 0.78730 0.75051 -0.12197
 C1497 C 0.77616 0.75919 -0.11385
 C1498 C 0.76898 0.77251 -0.12137
 C1499 C 0.75733 0.78075 -0.11352
 C1500 C 0.75325 0.77656 -0.09864
 C1501 C 0.76063 0.76410 -0.09091
 C1502 C 0.77210 0.75513 -0.09839
 C1503 C 0.77931 0.74272 -0.08988
 C1504 C 0.77548 0.73964 -0.07460
 C1505 C 0.76430 0.74871 -0.06721
 C1506 C 0.75676 0.76079 -0.07556
 H1507 H 0.75888 0.79804 -0.13979
 H1508 H 0.80040 0.76642 -0.16315
 H1509 H 0.76886 0.80599 -0.16395
 H1510 H 0.80068 0.74821 -0.14219
 H1511 H 0.79282 0.74004 -0.11737
 H1512 H 0.75112 0.79061 -0.11851
 H1513 H 0.74437 0.78337 -0.09302
 H1514 H 0.78822 0.73534 -0.09450
 H1515 H 0.78151 0.73020 -0.06849
 H1516 H 0.74809 0.76794 -0.07001
 C1517 C 0.30437 0.43627 0.87369
 C1518 C 0.30974 0.45024 0.86669
 C1519 C 0.32230 0.45788 0.87389
 C1520 C 0.32921 0.45156 0.88743
 C1521 C 0.32357 0.43778 0.89428
 C1522 C 0.31115 0.43025 0.88717
 C1523 C 0.32778 0.47191 0.86765
 C1524 C 0.32077 0.47885 0.85474
 C1525 C 0.30802 0.47189 0.84734
 C1526 C 0.30284 0.45702 0.85303
 C1527 C 0.29099 0.44937 0.84484
 C1528 C 0.28404 0.45622 0.83191
 C1529 C 0.28840 0.47105 0.82667
 C1530 C 0.30038 0.47919 0.83432
 C1531 C 0.30403 0.49439 0.82868
 C1532 C 0.29651 0.50086 0.81573
 C1533 C 0.28495 0.49257 0.80799
 C1534 C 0.28088 0.47770 0.81368
 H1535 H 0.29471 0.42984 0.86930
 H1536 H 0.33876 0.45757 0.89282
 H1537 H 0.30649 0.41957 0.89209
 H1538 H 0.33749 0.47773 0.87294
 H1539 H 0.32578 0.48963 0.85069
 H1540 H 0.28692 0.43786 0.84795
 H1541 H 0.27502 0.44985 0.82600
 H1542 H 0.31261 0.50164 0.83403
 H1543 H 0.29993 0.51239 0.81168
 H1544 H 0.27203 0.47106 0.80780
 C1545 C 0.31656 -0.03843 0.37645
 C1546 C 0.30237 -0.04327 0.37010
 C1547 C 0.29351 -0.05385 0.37897
 C1548 C 0.29886 -0.05943 0.39342
 C1549 C 0.31297 -0.05449 0.39948
 C1550 C 0.32169 -0.04393 0.39082
 C1551 C 0.27930 -0.05875 0.37342
 C1552 C 0.27352 -0.05327 0.35934
 C1553 C 0.28183 -0.04269 0.35006
 C1554 C 0.29664 -0.03786 0.35538
 C1555 C 0.30528 -0.02788 0.34578
 C1556 C 0.29957 -0.02251 0.33166
 C1557 C 0.28502 -0.02674 0.32648
 C1558 C 0.27590 -0.03687 0.33557
 C1559 C 0.26117 -0.04068 0.32973
 C1560 C 0.25595 -0.03490 0.31547
 C1561 C 0.26507 -0.02502 0.30650
 C1562 C 0.27961 -0.02094 0.31216
 H1563 H 0.32396 -0.03022 0.37076
 H1564 H 0.29194 -0.06752 0.40002
 H1565 H 0.33264 -0.03982 0.39514
 H1566 H 0.27249 -0.06687 0.38010
 H1567 H 0.26247 -0.05772 0.35602
 H1568 H 0.31666 -0.02408 0.34873
 H1569 H 0.30665 -0.01490 0.32470
 H1570 H 0.25332 -0.04806 0.33587
 H1571 H 0.24464 -0.03824 0.31147
 H1572 H 0.28685 -0.01338 0.30531
 C1573 C -0.08268 -0.06191 -0.10358
 C1574 C -0.06691 -0.06345 -0.09981
 C1575 C -0.05827 -0.07498 -0.10779
 C1576 C -0.06518 -0.08428 -0.11925
 C1577 C -0.08059 -0.08177 -0.12363
 C1578 C -0.08929 -0.07077 -0.11533
 C1579 C -0.04262 -0.07678 -0.10472
 C1580 C -0.03514 -0.06687 -0.09448
 C1581 C -0.04312 -0.05490 -0.08656
 C1582 C -0.05938 -0.05359 -0.08880
 C1583 C -0.06752 -0.04234 -0.08011
 C1584 C -0.06008 -0.03247 -0.06988
 C1585 C -0.04424 -0.03330 -0.06785
 C1586 C -0.03545 -0.04435 -0.07629
 C1587 C -0.01934 -0.04433 -0.07402
 C1588 C -0.01250 -0.03463 -0.06301
 C1589 C -0.02139 -0.02436 -0.05415
 C1590 C -0.03721 -0.02341 -0.05703
 H1591 H -0.09020 -0.05356 -0.09814
 H1592 H -0.05823 -0.09279 -0.12538
 H1593 H -0.10130 -0.06867 -0.11807
 H1594 H -0.03597 -0.08572 -0.11061
 H1595 H -0.02305 -0.06907 -0.09287
 H1596 H -0.07978 -0.04093 -0.08076
 H1597 H -0.06683 -0.02402 -0.06350
 H1598 H -0.01169 -0.05186 -0.08033
 H1599 H -0.00023 -0.03556 -0.06108
 H1600 H -0.04425 -0.01559 -0.05019
 C1601 C -0.05530 0.48215 0.36163
 C1602 C -0.04204 0.47632 0.36947
 C1603 C -0.03319 0.46461 0.36199
 C1604 C -0.03790 0.45854 0.34771
 C1605 C -0.05137 0.46402 0.34030
 C1606 C -0.05983 0.47612 0.34733
 C1607 C -0.01973 0.45881 0.36883
 C1608 C -0.01477 0.46428 0.38302
 C1609 C -0.02325 0.47571 0.39116
 C1610 C -0.03728 0.48161 0.38443
 C1611 C -0.04627 0.49221 0.39308
 C1612 C -0.04181 0.49680 0.40781
 C1613 C -0.02808 0.49133 0.41443
 C1614 C -0.01841 0.48103 0.40605
 C1615 C -0.00431 0.47637 0.41301
 C1616 C -0.00048 0.48091 0.42795
 C1617 C -0.01042 0.49041 0.43651
 C1618 C -0.02408 0.49589 0.42952
 H1619 H -0.06242 0.49143 0.36615
 H1620 H -0.03099 0.44939 0.34245
 H1621 H -0.07018 0.48088 0.34193
 H1622 H -0.01293 0.44984 0.36315
 H1623 H -0.00439 0.45889 0.38750
 H1624 H -0.05713 0.49686 0.38897
 H1625 H -0.04926 0.50469 0.41413
 H1626 H 0.00411 0.46923 0.40728
 H1627 H 0.01033 0.47676 0.43286
 H1628 H -0.03182 0.50337 0.43596
 C1629 C 0.43245 -0.03853 0.37495
 C1630 C 0.44709 -0.04245 0.38121
 C1631 C 0.45645 -0.05291 0.37267
 C1632 C 0.45119 -0.05926 0.35865
 C1633 C 0.43665 -0.05527 0.35267
 C1634 C 0.42739 -0.04482 0.36097
 C1635 C 0.47107 -0.05700 0.37810
 C1636 C 0.47675 -0.05088 0.39179
 C1637 C 0.46795 -0.04041 0.40078
 C1638 C 0.45277 -0.03633 0.39555
 C1639 C 0.44374 -0.02641 0.40489
 C1640 C 0.44933 -0.02056 0.41877
 C1641 C 0.46418 -0.02418 0.42389
 C1642 C 0.47376 -0.03405 0.41494
 C1643 C 0.48880 -0.03715 0.42060
 C1644 C 0.49384 -0.03113 0.43467
 C1645 C 0.48422 -0.02168 0.44363
 C1646 C 0.46942 -0.01809 0.43805
 H1647 H 0.42463 -0.03051 0.38044
 H1648 H 0.45854 -0.06725 0.35234
 H1649 H 0.41610 -0.04145 0.35667
 H1650 H 0.47826 -0.06503 0.37165
 H1651 H 0.48811 -0.05480 0.39507
 H1652 H 0.43213 -0.02305 0.40193
 H1653 H 0.44191 -0.01310 0.42558
 H1654 H 0.49704 -0.04417 0.41450
 H1655 H 0.50539 -0.03401 0.43857
 H1656 H 0.46182 -0.01085 0.44489
 C1657 C 0.42497 0.44730 -0.10712
 C1658 C 0.43942 0.44189 -0.10148
 C1659 C 0.44511 0.42738 -0.10720
 C1660 C 0.43720 0.41942 -0.11893
 C1661 C 0.42372 0.42586 -0.12559
 C1662 C 0.41735 0.43946 -0.11899
 C1663 C 0.45900 0.42118 -0.10166
 C1664 C 0.46801 0.42961 -0.09141
 C1665 C 0.46350 0.44474 -0.08637
 C1666 C 0.44866 0.45065 -0.09089
 C1667 C 0.44377 0.46536 -0.08510
 C1668 C 0.45320 0.47423 -0.07564
 C1669 C 0.46787 0.46889 -0.07158
 C1670 C 0.47334 0.45415 -0.07695
 C1671 C 0.48853 0.44961 -0.07281
 C1672 C 0.49741 0.45883 -0.06296
 C1673 C 0.49157 0.47295 -0.05700
 C1674 C 0.47695 0.47813 -0.06183
 H1675 H 0.41943 0.45784 -0.10304
 H1676 H 0.44213 0.40864 -0.12347
 H1677 H 0.40670 0.44456 -0.12340
 H1678 H 0.46318 0.40984 -0.10562
 H1679 H 0.47858 0.42396 -0.08775
 H1680 H 0.43270 0.47050 -0.08771
 H1681 H 0.44898 0.48550 -0.07158
 H1682 H 0.49387 0.43891 -0.07680
 H1683 H 0.50868 0.45452 -0.05950
 H1684 H 0.47222 0.48901 -0.05732
 C1685 C 0.44030 0.78570 0.37754
 C1686 C 0.45287 0.79209 0.36953
 C1687 C 0.46072 0.80479 0.37651
 C1688 C 0.45599 0.81085 0.39072
 C1689 C 0.44341 0.80450 0.39838
 C1690 C 0.43570 0.79182 0.39166
 C1691 C 0.47321 0.81153 0.36925
 C1692 C 0.47810 0.80609 0.35508
 C1693 C 0.47063 0.79359 0.34749
 C1694 C 0.45784 0.78642 0.35487
 C1695 C 0.45038 0.77392 0.34727
 C1696 C 0.45504 0.76874 0.33292
 C1697 C 0.46734 0.77570 0.32551
 C1698 C 0.47542 0.78814 0.33269
 C1699 C 0.48787 0.79469 0.32464
 C1700 C 0.49185 0.78931 0.31005
 C1701 C 0.48366 0.77720 0.30291
 C1702 C 0.47149 0.77035 0.31083
 H1703 H 0.43367 0.77601 0.37324
 H1704 H 0.46213 0.82062 0.39578
 H1705 H 0.42595 0.78661 0.39728
 H1706 H 0.47928 0.82122 0.37455
 H1707 H 0.48779 0.81208 0.35037
 H1708 H 0.44076 0.76786 0.35205
 H1709 H 0.44886 0.75920 0.32751
 H1710 H 0.49477 0.80406 0.32915
 H1711 H 0.50135 0.79485 0.30429
 H1712 H 0.46504 0.76094 0.30549
 C1713 C -0.05942 0.82366 0.86740
 C1714 C -0.06283 0.80809 0.86291
 C1715 C -0.07492 0.80037 0.87057
 C1716 C -0.08252 0.80769 0.88286
 C1717 C -0.07831 0.82279 0.88784
 C1718 C -0.06693 0.83077 0.87965
 C1719 C -0.07921 0.78529 0.86608
 C1720 C -0.07172 0.77757 0.85423
 C1721 C -0.05933 0.78455 0.84651
 C1722 C -0.05464 0.79996 0.85113
 C1723 C -0.04165 0.80656 0.84413
 C1724 C -0.03373 0.79862 0.83278
 C1725 C -0.03852 0.78393 0.82768
 C1726 C -0.05136 0.77661 0.83442
 C1727 C -0.05573 0.76173 0.82859
 C1728 C -0.04789 0.75473 0.81642
 C1729 C -0.03535 0.76218 0.80970
 C1730 C -0.03060 0.77668 0.81563
 H1731 H -0.05103 0.83078 0.86170
 H1732 H -0.09147 0.80137 0.88877
 H1733 H -0.06357 0.84261 0.88275
 H1734 H -0.08849 0.77933 0.87183
 H1735 H -0.07577 0.76594 0.85161
 H1736 H -0.03703 0.81778 0.84739
 H1737 H -0.02375 0.80410 0.82788
 H1738 H -0.06541 0.75534 0.83285
 H1739 H -0.05194 0.74358 0.81202
 H1740 H -0.02103 0.78272 0.81047
 C1741 C 0.36045 0.77614 0.29724
 C1742 C 0.36844 0.78489 0.28602
 C1743 C 0.36187 0.79948 0.28101
 C1744 C 0.34811 0.80511 0.28737
 C1745 C 0.34072 0.79652 0.29891
 C1746 C 0.34693 0.78190 0.30355
 C1747 C 0.36922 0.80853 0.26991
 C1748 C 0.38318 0.80371 0.26392
 C1749 C 0.39045 0.78953 0.26884
 C1750 C 0.38283 0.77984 0.27988
 C1751 C 0.38998 0.76556 0.28467
 C1752 C 0.40428 0.76112 0.27934
 C1753 C 0.41205 0.77062 0.26895
 C1754 C 0.40523 0.78483 0.26331
 C1755 C 0.41367 0.79383 0.25259
 C1756 C 0.42834 0.78910 0.24812
 C1757 C 0.43515 0.77528 0.25413
 C1758 C 0.42678 0.76600 0.26438
 H1759 H 0.36438 0.76489 0.30165
 H1760 H 0.34342 0.81642 0.28362
 H1761 H 0.34143 0.77486 0.31231
 H1762 H 0.36421 0.81963 0.26594
 H1763 H 0.38805 0.81153 0.25553
 H1764 H 0.38494 0.75748 0.29271
 H1765 H 0.40939 0.75017 0.28356
 H1766 H 0.40941 0.80469 0.24756
 H1767 H 0.43450 0.79653 0.24016
 H1768 H 0.43183 0.75520 0.26905
 C1769 C -0.15284 0.76402 0.80096
 C1770 C -0.14480 0.77030 0.78827
 C1771 C -0.15201 0.78265 0.77965
 C1772 C -0.16634 0.78870 0.78394
 C1773 C -0.17380 0.78281 0.79693
 C1774 C -0.16705 0.77021 0.80519
 C1775 C -0.14479 0.78921 0.76694
 C1776 C -0.13025 0.78422 0.76284
 C1777 C -0.12223 0.77244 0.77139
 C1778 C -0.12977 0.76506 0.78407
 C1779 C -0.12194 0.75287 0.79225
 C1780 C -0.10713 0.74836 0.78852
 C1781 C -0.09944 0.75579 0.77657
 C1782 C -0.10686 0.76790 0.76777
 C1783 C -0.09842 0.77519 0.75591
 C1784 C -0.08334 0.77067 0.75302
 C1785 C -0.07606 0.75874 0.76177
 C1786 C -0.08425 0.75128 0.77349
 H1787 H -0.14839 0.75454 0.80811
 H1788 H -0.17148 0.79835 0.77733
 H1789 H -0.17257 0.76532 0.81523
 H1790 H -0.15037 0.79849 0.76018
 H1791 H -0.12562 0.78997 0.75286
 H1792 H -0.12691 0.74655 0.80172
 H1793 H -0.10154 0.73904 0.79523
 H1794 H -0.10295 0.78461 0.74875
 H1795 H -0.07734 0.77672 0.74390
 H1796 H -0.07875 0.74208 0.78042
 C1797 C 0.88010 0.31274 0.46022
 C1798 C 0.87598 0.29672 0.45914
 C1799 C 0.88435 0.28705 0.44886
 C1800 C 0.89669 0.29321 0.44050
 C1801 C 0.90090 0.30899 0.44224
 C1802 C 0.89233 0.31866 0.45199
 C1803 C 0.88041 0.27129 0.44704
 C1804 C 0.86821 0.26491 0.45501
 C1805 C 0.85951 0.27404 0.46536
 C1806 C 0.86374 0.29010 0.46776
 C1807 C 0.85565 0.29901 0.47875
 C1808 C 0.84327 0.29283 0.48647
 C1809 C 0.83845 0.27753 0.48365
 C1810 C 0.84659 0.26777 0.47327
 C1811 C 0.84112 0.25231 0.47095
 C1812 C 0.82771 0.24721 0.47793
 C1813 C 0.81938 0.25721 0.48759
 C1814 C 0.82515 0.27218 0.49081
 H1815 H 0.87406 0.32115 0.46719
 H1816 H 0.90320 0.28564 0.43292
 H1817 H 0.89508 0.33101 0.45334
 H1818 H 0.88677 0.26380 0.43926
 H1819 H 0.86595 0.25268 0.45282
 H1820 H 0.85858 0.31089 0.48178
 H1821 H 0.83723 0.30025 0.49457
 H1822 H 0.84658 0.24400 0.46342
 H1823 H 0.82359 0.23552 0.47529
 H1824 H 0.81882 0.28007 0.49823
 C1825 C 0.86813 0.82044 -0.04793
 C1826 C 0.86368 0.80480 -0.05129
 C1827 C 0.87105 0.79716 -0.06370
 C1828 C 0.88230 0.80495 -0.07228
 C1829 C 0.88659 0.82041 -0.06872
 C1830 C 0.87937 0.82801 -0.05646
 C1831 C 0.86721 0.78175 -0.06750
 C1832 C 0.85611 0.77369 -0.05937
 C1833 C 0.84830 0.78074 -0.04700
 C1834 C 0.85218 0.79656 -0.04286
 C1835 C 0.84438 0.80362 -0.03048
 C1836 C 0.83305 0.79570 -0.02258
 C1837 C 0.82894 0.78045 -0.02663
 C1838 C 0.83656 0.77262 -0.03876
 C1839 C 0.83187 0.75707 -0.04226
 C1840 C 0.81973 0.75003 -0.03453
 C1841 C 0.81190 0.75808 -0.02294
 C1842 C 0.81689 0.77317 -0.01882
 H1843 H 0.86319 0.82723 -0.03878
 H1844 H 0.88781 0.79886 -0.08169
 H1845 H 0.88236 0.83996 -0.05343
 H1846 H 0.87283 0.77582 -0.07694
 H1847 H 0.85389 0.76187 -0.06318
 H1848 H 0.84665 0.81539 -0.02658
 H1849 H 0.82733 0.80169 -0.01324
 H1850 H 0.83710 0.75009 -0.05111
 H1851 H 0.81619 0.73836 -0.03798
 H1852 H 0.81094 0.77965 -0.00993
 C1853 C -0.11785 -0.08111 -0.04875
 C1854 C -0.11270 -0.06562 -0.05153
 C1855 C -0.12068 -0.05645 -0.06288
 C1856 C -0.13332 -0.06265 -0.07096
 C1857 C -0.13879 -0.07778 -0.06746
 C1858 C -0.13066 -0.08697 -0.05646
 C1859 C -0.11631 -0.04095 -0.06577
 C1860 C -0.10480 -0.03400 -0.05703
 C1861 C -0.09691 -0.04243 -0.04520
 C1862 C -0.10033 -0.05875 -0.04302
 C1863 C -0.09133 -0.06762 -0.03234
 C1864 C -0.07985 -0.06069 -0.02361
 C1865 C -0.07697 -0.04462 -0.02496
 C1866 C -0.08555 -0.03517 -0.03561
 C1867 C -0.08249 -0.01881 -0.03606
 C1868 C -0.07074 -0.01240 -0.02708
 C1869 C -0.06186 -0.02196 -0.01709
 C1870 C -0.06531 -0.03802 -0.01585
 H1871 H -0.11265 -0.08888 -0.04025
 H1872 H -0.13934 -0.05532 -0.07944
 H1873 H -0.13430 -0.09877 -0.05352
 H1874 H -0.12215 -0.03395 -0.07462
 H1875 H -0.10217 -0.02198 -0.06000
 H1876 H -0.09268 -0.08011 -0.03059
 H1877 H -0.07328 -0.06798 -0.01555
 H1878 H -0.08891 -0.01064 -0.04328
 H1879 H -0.06840 0.00007 -0.02819
 H1880 H -0.05850 -0.04558 -0.00822
 C1881 C -0.12546 0.43330 0.45933
 C1882 C -0.11861 0.44773 0.45502
 C1883 C -0.12611 0.45686 0.44333
 C1884 C -0.13969 0.45156 0.43621
 C1885 C -0.14625 0.43718 0.44056
 C1886 C -0.13899 0.42820 0.45224
 C1887 C -0.12005 0.47128 0.43877
 C1888 C -0.10672 0.47695 0.44554
 C1889 C -0.09870 0.46834 0.45718
 C1890 C -0.10467 0.45340 0.46189
 C1891 C -0.09643 0.44459 0.47322
 C1892 C -0.08296 0.45014 0.47982
 C1893 C -0.07710 0.46473 0.47552
 C1894 C -0.08485 0.47410 0.46417
 C1895 C -0.07831 0.48881 0.46029
 C1896 C -0.06463 0.49378 0.46720
 C1897 C -0.05696 0.48441 0.47831
 C1898 C -0.06339 0.46990 0.48244
 H1899 H -0.12076 0.42566 0.46822
 H1900 H -0.14518 0.45873 0.42727
 H1901 H -0.14373 0.41706 0.45592
 H1902 H -0.12572 0.47831 0.42984
 H1903 H -0.10293 0.48818 0.44126
 H1904 H -0.09999 0.43317 0.47721
 H1905 H -0.07703 0.44288 0.48841
 H1906 H -0.08339 0.49680 0.45192
 H1907 H -0.06000 0.50503 0.46369
 H1908 H -0.05757 0.46240 0.49092
 C1909 C 0.37259 -0.03448 0.43822
 C1910 C 0.37909 -0.03982 0.45242
 C1911 C 0.37109 -0.05153 0.46071
 C1912 C 0.35728 -0.05759 0.45490
 C1913 C 0.35107 -0.05230 0.44071
 C1914 C 0.35890 -0.04061 0.43253
 C1915 C 0.37691 -0.05724 0.47475
 C1916 C 0.39063 -0.05174 0.48077
 C1917 C 0.39917 -0.04020 0.47295
 C1918 C 0.39323 -0.03403 0.45859
 C1919 C 0.40164 -0.02233 0.45086
 C1920 C 0.41539 -0.01690 0.45680
 C1921 C 0.42140 -0.02289 0.47063
 C1922 C 0.41348 -0.03463 0.47895
 C1923 C 0.42037 -0.04039 0.49284
 C1924 C 0.43452 -0.03479 0.49804
 C1925 C 0.44221 -0.02318 0.48971
 C1926 C 0.43548 -0.01725 0.47605
 H1927 H 0.37778 -0.02563 0.43110
 H1928 H 0.35146 -0.06658 0.46150
 H1929 H 0.35453 -0.03614 0.42156
 H1930 H 0.37080 -0.06615 0.48117
 H1931 H 0.39421 -0.05682 0.49167
 H1932 H 0.39796 -0.01702 0.44010
 H1933 H 0.42145 -0.00793 0.45040
 H1934 H 0.41529 -0.04936 0.49991
 H1935 H 0.43947 -0.03965 0.50860
 H1936 H 0.44137 -0.00839 0.46935
 C1937 C 0.38318 0.43128 -0.04494
 C1938 C 0.39156 0.44421 -0.05052
 C1939 C 0.38577 0.45227 -0.06381
 C1940 C 0.37219 0.44725 -0.07128
 C1941 C 0.36384 0.43451 -0.06535
 C1942 C 0.36969 0.42662 -0.05215
 C1943 C 0.39339 0.46550 -0.06937
 C1944 C 0.40619 0.47133 -0.06162
 C1945 C 0.41215 0.46391 -0.04813
 C1946 C 0.40519 0.44965 -0.04301
 C1947 C 0.41208 0.44126 -0.03053
 C1948 C 0.42478 0.44702 -0.02276
 C1949 C 0.43115 0.46135 -0.02699
 C1950 C 0.42494 0.47010 -0.03966
 C1951 C 0.43167 0.48481 -0.04309
 C1952 C 0.44441 0.49013 -0.03474
 C1953 C 0.45076 0.48115 -0.02253
 C1954 C 0.44388 0.46684 -0.01864
 H1955 H 0.38641 0.42476 -0.03468
 H1956 H 0.36794 0.45360 -0.08140
 H1957 H 0.36377 0.41672 -0.04710
 H1958 H 0.38921 0.47164 -0.07963
 H1959 H 0.41134 0.48162 -0.06665
 H1960 H 0.40811 0.42998 -0.02658
 H1961 H 0.42957 0.44022 -0.01318
 H1962 H 0.42736 0.49251 -0.05214
 H1963 H 0.44942 0.50126 -0.03803
 H1964 H 0.44865 0.45968 -0.00929
 C1965 C 0.36909 0.45250 0.83156
 C1966 C 0.36725 0.45203 0.81531
 C1967 C 0.37581 0.44049 0.80724
 C1968 C 0.38623 0.43044 0.81513
 C1969 C 0.38845 0.43166 0.83111
 C1970 C 0.37956 0.44257 0.83923
 C1971 C 0.37412 0.43919 0.79129
 C1972 C 0.36414 0.44910 0.78308
 C1973 C 0.35550 0.46093 0.79050
 C1974 C 0.35728 0.46258 0.80686
 C1975 C 0.34922 0.47490 0.81420
 C1976 C 0.33945 0.48496 0.80598
 C1977 C 0.33711 0.48312 0.79018
 C1978 C 0.34510 0.47115 0.78213
 C1979 C 0.34200 0.46972 0.76611
 C1980 C 0.33092 0.47922 0.75871
 C1981 C 0.32276 0.49065 0.76689
 C1982 C 0.32633 0.49288 0.78252
 H1983 H 0.36267 0.46039 0.83875
 H1984 H 0.39297 0.42198 0.80870
 H1985 H 0.38080 0.44360 0.85163
 H1986 H 0.38064 0.43041 0.78505
 H1987 H 0.36365 0.44727 0.77081
 H1988 H 0.35029 0.47724 0.82634
 H1989 H 0.33348 0.49419 0.81215
 H1990 H 0.34747 0.46100 0.75903
 H1991 H 0.32836 0.47719 0.74663
 H1992 H 0.31997 0.50154 0.78906
 C1993 C 0.37522 -0.03939 0.31334
 C1994 C 0.36890 -0.04517 0.29938
 C1995 C 0.37730 -0.05699 0.29155
 C1996 C 0.39143 -0.06263 0.29754
 C1997 C 0.39748 -0.05669 0.31139
 C1998 C 0.38918 -0.04505 0.31916
 C1999 C 0.37156 -0.06313 0.27777
 C2000 C 0.35766 -0.05780 0.27151
 C2001 C 0.34886 -0.04602 0.27881
 C2002 C 0.35461 -0.03959 0.29297
 C2003 C 0.34591 -0.02774 0.30027
 C2004 C 0.33219 -0.02225 0.29401
 C2005 C 0.32645 -0.02833 0.28027
 C2006 C 0.33452 -0.04036 0.27244
 C2007 C 0.32779 -0.04619 0.25863
 C2008 C 0.31370 -0.04024 0.25300
 C2009 C 0.30595 -0.02824 0.26082
 C2010 C 0.31250 -0.02239 0.27445
 H2011 H 0.36974 -0.03048 0.32016
 H2012 H 0.39770 -0.07167 0.29140
 H2013 H 0.39347 -0.04020 0.32988
 H2014 H 0.37791 -0.07217 0.27172
 H2015 H 0.35415 -0.06315 0.26083
 H2016 H 0.34936 -0.02230 0.31091
 H2017 H 0.32597 -0.01309 0.30005
 H2018 H 0.33301 -0.05540 0.25196
 H2019 H 0.30886 -0.04509 0.24251
 H2020 H 0.30660 -0.01326 0.28083
 C2021 C 0.12137 0.53285 0.69201
 C2022 C 0.12931 0.53932 0.70483
 C2023 C 0.12155 0.55098 0.71348
 C2024 C 0.10664 0.55595 0.70931
 C2025 C 0.09904 0.54961 0.69646
 C2026 C 0.10654 0.53794 0.68795
 C2027 C 0.12870 0.55778 0.72621
 C2028 C 0.14354 0.55348 0.73054
 C2029 C 0.15193 0.54209 0.72226
 C2030 C 0.14465 0.53476 0.70928
 C2031 C 0.15298 0.52320 0.70116
 C2032 C 0.16791 0.51907 0.70536
 C2033 C 0.17524 0.52625 0.71780
 C2034 C 0.16740 0.53784 0.72648
 C2035 C 0.17549 0.54479 0.73894
 C2036 C 0.19063 0.54048 0.74247
 C2037 C 0.19834 0.52908 0.73380
 C2038 C 0.19047 0.52195 0.72151
 H2039 H 0.12628 0.52394 0.68476
 H2040 H 0.10103 0.56496 0.71608
 H2041 H 0.10099 0.53277 0.67797
 H2042 H 0.12279 0.56666 0.73290
 H2043 H 0.14808 0.55939 0.74051
 H2044 H 0.14830 0.51705 0.69138
 H2045 H 0.17384 0.51018 0.69870
 H2046 H 0.17056 0.55372 0.74616
 H2047 H 0.19635 0.54624 0.75202
 H2048 H 0.19625 0.51312 0.71465
 C2049 C 0.10423 0.03173 0.19520
 C2050 C 0.11405 0.03807 0.20661
 C2051 C 0.10902 0.05194 0.21418
 C2052 C 0.09497 0.05932 0.21004
 C2053 C 0.08554 0.05306 0.19837
 C2054 C 0.09038 0.03907 0.19120
 C2055 C 0.11810 0.05844 0.22580
 C2056 C 0.13207 0.05157 0.23008
 C2057 C 0.13770 0.03788 0.22277
 C2058 C 0.12862 0.03112 0.21070
 C2059 C 0.13451 0.01781 0.20294
 C2060 C 0.14874 0.01131 0.20677
 C2061 C 0.15769 0.01763 0.21857
 C2062 C 0.15225 0.03087 0.22689
 C2063 C 0.16169 0.03656 0.23897
 C2064 C 0.17602 0.02976 0.24220
 C2065 C 0.18155 0.01698 0.23363
 C2066 C 0.17217 0.01086 0.22193
 H2067 H 0.10681 0.02104 0.18911
 H2068 H 0.09148 0.07001 0.21588
 H2069 H 0.08348 0.03362 0.18228
 H2070 H 0.11437 0.06903 0.23167
 H2071 H 0.13831 0.05751 0.23907
 H2072 H 0.12855 0.01220 0.19357
 H2073 H 0.15282 0.00122 0.20035
 H2074 H 0.15842 0.04627 0.24618
 H2075 H 0.18288 0.03475 0.25142
 H2076 H 0.17623 0.00096 0.21522
 C2077 C 0.60433 0.69274 0.16082
 C2078 C 0.60167 0.69255 0.17691
 C2079 C 0.60955 0.68094 0.18594
 C2080 C 0.62016 0.67061 0.17917
 C2081 C 0.62351 0.67185 0.16345
 C2082 C 0.61515 0.68267 0.15429
 C2083 C 0.60725 0.68004 0.20179
 C2084 C 0.59751 0.69058 0.20904
 C2085 C 0.58965 0.70263 0.20070
 C2086 C 0.59173 0.70359 0.18436
 C2087 C 0.58407 0.71579 0.17607
 C2088 C 0.57421 0.72624 0.18327
 C2089 C 0.57168 0.72516 0.19906
 C2090 C 0.57965 0.71365 0.20813
 C2091 C 0.57713 0.71363 0.22424
 C2092 C 0.56624 0.72366 0.23074
 C2093 C 0.55773 0.73432 0.22155
 C2094 C 0.56094 0.73538 0.20578
 H2095 H 0.59857 0.70077 0.15296
 H2096 H 0.62650 0.66222 0.18638
 H2097 H 0.61731 0.68367 0.14204
 H2098 H 0.61315 0.67110 0.20873
 H2099 H 0.59635 0.68888 0.22128
 H2100 H 0.58551 0.71770 0.16390
 H2101 H 0.56851 0.73531 0.17637
 H2102 H 0.58307 0.70575 0.23214
 H2103 H 0.56411 0.72266 0.24299
 H2104 H 0.55444 0.74357 0.19849
 C2105 C 0.12579 0.72361 0.69311
 C2106 C 0.11863 0.71660 0.70598
 C2107 C 0.12654 0.70405 0.71365
 C2108 C 0.14093 0.69883 0.70852
 C2109 C 0.14777 0.70582 0.69565
 C2110 C 0.14006 0.71829 0.68808
 C2111 C 0.12004 0.69664 0.72635
 C2112 C 0.10570 0.70121 0.73155
 C2113 C 0.09720 0.71349 0.72424
 C2114 C 0.10387 0.72146 0.71138
 C2115 C 0.09553 0.73398 0.70428
 C2116 C 0.08108 0.73835 0.70927
 C2117 C 0.07429 0.73050 0.72153
 C2118 C 0.08220 0.71800 0.72929
 C2119 C 0.07460 0.71046 0.74163
 C2120 C 0.05977 0.71498 0.74579
 C2121 C 0.05198 0.72720 0.73790
 C2122 C 0.05946 0.73500 0.72588
 H2123 H 0.12069 0.73315 0.68650
 H2124 H 0.14673 0.68916 0.71452
 H2125 H 0.14500 0.72396 0.67811
 H2126 H 0.12607 0.68709 0.73230
 H2127 H 0.10160 0.69479 0.74140
 H2128 H 0.09980 0.74073 0.69473
 H2129 H 0.07509 0.74796 0.70335
 H2130 H 0.07964 0.70085 0.74820
 H2131 H 0.05431 0.70869 0.75510
 H2132 H 0.05362 0.74447 0.71961
 C2133 C 0.62181 0.21524 0.56508
 C2134 C 0.62892 0.21017 0.55135
 C2135 C 0.62154 0.19819 0.54278
 C2136 C 0.60793 0.19143 0.54801
 C2137 C 0.60123 0.19637 0.56177
 C2138 C 0.60824 0.20845 0.57014
 C2139 C 0.62781 0.19288 0.52906
 C2140 C 0.64139 0.19901 0.52364
 C2141 C 0.64941 0.21074 0.53181
 C2142 C 0.64308 0.21643 0.54591
 C2143 C 0.65125 0.22799 0.55418
 C2144 C 0.66519 0.23363 0.54907
 C2145 C 0.67157 0.22811 0.53546
 C2146 C 0.66371 0.21675 0.52650
 C2147 C 0.67065 0.21173 0.51269
 C2148 C 0.68494 0.21727 0.50835
 C2149 C 0.69287 0.22814 0.51747
 C2150 C 0.68595 0.23372 0.53090
 H2151 H 0.62641 0.22441 0.57224
 H2152 H 0.60259 0.18219 0.54131
 H2153 H 0.60332 0.21260 0.58079
 H2154 H 0.62218 0.18377 0.52244
 H2155 H 0.64536 0.19406 0.51301
 H2156 H 0.64730 0.23285 0.56487
 H2157 H 0.67111 0.24234 0.55595
 H2158 H 0.66547 0.20341 0.50496
 H2159 H 0.68988 0.21284 0.49782
 H2160 H 0.69195 0.24212 0.53809
 C2161 C 0.63821 0.69315 0.08161
 C2162 C 0.64242 0.68908 0.06642
 C2163 C 0.63601 0.67525 0.06006
 C2164 C 0.62572 0.66613 0.06854
 C2165 C 0.62138 0.67058 0.08341
 C2166 C 0.62788 0.68406 0.08989
 C2167 C 0.63969 0.67067 0.04516
 C2168 C 0.64996 0.67923 0.03648
 C2169 C 0.65688 0.69296 0.04230
 C2170 C 0.65277 0.69819 0.05738
 C2171 C 0.65906 0.71239 0.06285
 C2172 C 0.66959 0.72075 0.05430
 C2173 C 0.67450 0.71527 0.04009
 C2174 C 0.66794 0.70155 0.03364
 C2175 C 0.67301 0.69687 0.01890
 C2176 C 0.68486 0.70473 0.01157
 C2177 C 0.69192 0.71771 0.01846
 C2178 C 0.68626 0.72324 0.03249
 H2179 H 0.64256 0.70334 0.08745
 H2180 H 0.62079 0.65572 0.06335
 H2181 H 0.62485 0.68776 0.10140
 H2182 H 0.63468 0.66020 0.04018
 H2183 H 0.65223 0.67467 0.02519
 H2184 H 0.65608 0.71746 0.07376
 H2185 H 0.67410 0.73158 0.05897
 H2186 H 0.66842 0.68690 0.01287
 H2187 H 0.68885 0.70023 0.00066
 H2188 H 0.69154 0.73332 0.03796
 C2189 C 0.13343 0.05977 0.03125
 C2190 C 0.12618 0.04646 0.03773
 C2191 C 0.13378 0.03864 0.05021
 C2192 C 0.14789 0.04410 0.05596
 C2193 C 0.15484 0.05747 0.04954
 C2194 C 0.14742 0.06512 0.03705
 C2195 C 0.12724 0.02542 0.05702
 C2196 C 0.11320 0.01984 0.05188
 C2197 C 0.10500 0.02729 0.03964
 C2198 C 0.11166 0.04076 0.03236
 C2199 C 0.10353 0.04815 0.02004
 C2200 C 0.08933 0.04281 0.01514
 C2201 C 0.08258 0.02989 0.02223
 C2202 C 0.09030 0.02182 0.03450
 C2203 C 0.08284 0.00873 0.04119
 C2204 C 0.06829 0.00416 0.03610
 C2205 C 0.06065 0.01236 0.02414
 C2206 C 0.06801 0.02514 0.01716
 H2207 H 0.12862 0.06645 0.02171
 H2208 H 0.15337 0.03790 0.06558
 H2209 H 0.15234 0.07543 0.03167
 H2210 H 0.13303 0.01934 0.06653
 H2211 H 0.10905 0.00962 0.05788
 H2212 H 0.10775 0.05824 0.01389
 H2213 H 0.08349 0.04899 0.00571
 H2214 H 0.08779 0.00181 0.05050
 H2215 H 0.06296 -0.00577 0.04173
 H2216 H 0.06228 0.03164 0.00788
 C2217 C 0.14400 0.55360 0.52509
 C2218 C 0.13539 0.54174 0.53247
 C2219 C 0.14202 0.53428 0.54570
 C2220 C 0.15634 0.53900 0.55152
 C2221 C 0.16440 0.55121 0.54441
 C2222 C 0.15818 0.55823 0.53100
 C2223 C 0.13425 0.52229 0.55325
 C2224 C 0.11985 0.51766 0.54819
 C2225 C 0.11250 0.52498 0.53534
 C2226 C 0.12043 0.53720 0.52732
 C2227 C 0.11299 0.54470 0.51463
 C2228 C 0.09829 0.54062 0.51003
 C2229 C 0.09039 0.52886 0.51776
 C2230 C 0.09738 0.52070 0.53040
 C2231 C 0.08883 0.50869 0.53764
 C2232 C 0.07394 0.50529 0.53274
 C2233 C 0.06699 0.51367 0.52047
 C2234 C 0.07539 0.52535 0.51295
 H2235 H 0.14013 0.55968 0.51478
 H2236 H 0.16106 0.53333 0.56182
 H2237 H 0.16418 0.56757 0.52511
 H2238 H 0.13930 0.51648 0.56331
 H2239 H 0.11469 0.50841 0.55483
 H2240 H 0.11810 0.55402 0.50805
 H2241 H 0.09301 0.54685 0.50032
 H2242 H 0.09322 0.50169 0.54716
 H2243 H 0.06778 0.49615 0.53876
 H2244 H 0.07023 0.53186 0.50335
 C2245 C 0.64741 0.01745 0.55151
 C2246 C 0.63795 0.02505 0.54026
 C2247 C 0.64364 0.03886 0.53313
 C2248 C 0.65784 0.04507 0.53763
 C2249 C 0.66668 0.03791 0.54945
 C2250 C 0.66143 0.02379 0.55601
 C2251 C 0.63498 0.04668 0.52176
 C2252 C 0.62049 0.04150 0.51767
 C2253 C 0.61396 0.02824 0.52490
 C2254 C 0.62296 0.01966 0.53614
 C2255 C 0.61654 0.00620 0.54313
 C2256 C 0.60170 0.00157 0.53969
 C2257 C 0.59261 0.01008 0.52916
 C2258 C 0.59862 0.02342 0.52145
 C2259 C 0.58887 0.03158 0.51085
 C2260 C 0.57383 0.02685 0.50829
 C2261 C 0.56787 0.01382 0.51613
 C2262 C 0.57742 0.00539 0.52646
 H2263 H 0.64426 0.00674 0.55733
 H2264 H 0.66172 0.05585 0.53219
 H2265 H 0.66799 0.01768 0.56497
 H2266 H 0.63936 0.05711 0.51610
 H2267 H 0.61465 0.04836 0.50886
 H2268 H 0.62261 -0.00100 0.55152
 H2269 H 0.59721 -0.00872 0.54552
 H2270 H 0.59235 0.04181 0.50443
 H2271 H 0.56678 0.03363 0.50020
 H2272 H 0.57300 -0.00476 0.53257
 C2273 C 0.60861 0.58157 0.06345
 C2274 C 0.60590 0.56552 0.06683
 C2275 C 0.61123 0.55954 0.08128
 C2276 C 0.62005 0.56901 0.09121
 C2277 C 0.62370 0.58453 0.08699
 C2278 C 0.61730 0.59085 0.07335
 C2279 C 0.60825 0.54397 0.08547
 C2280 C 0.60032 0.53406 0.07553
 C2281 C 0.59536 0.53923 0.06073
 C2282 C 0.59834 0.55519 0.05627
 C2283 C 0.59418 0.56018 0.04119
 C2284 C 0.58706 0.55012 0.03092
 C2285 C 0.58356 0.53475 0.03524
 C2286 C 0.58761 0.52898 0.05016
 C2287 C 0.58344 0.51330 0.05386
 C2288 C 0.57486 0.50424 0.04352
 C2289 C 0.57032 0.51035 0.02906
 C2290 C 0.57539 0.52538 0.02481
 H2291 H 0.60448 0.58732 0.05309
 H2292 H 0.62468 0.56401 0.10187
 H2293 H 0.61950 0.60292 0.06993
 H2294 H 0.61221 0.53933 0.09652
 H2295 H 0.59861 0.52222 0.07968
 H2296 H 0.59651 0.57177 0.03675
 H2297 H 0.58408 0.55452 0.01948
 H2298 H 0.58599 0.50791 0.06491
 H2299 H 0.57103 0.49274 0.04725
 H2300 H 0.57191 0.53042 0.01375
 C2301 C 0.02211 0.05638 0.14423
 C2302 C 0.02774 0.04276 0.13673
 C2303 C 0.04031 0.03461 0.14376
 C2304 C 0.04734 0.04038 0.15718
 C2305 C 0.04216 0.05438 0.16403
 C2306 C 0.02919 0.06204 0.15759
 C2307 C 0.04608 0.02087 0.13722
 C2308 C 0.04003 0.01523 0.12351
 C2309 C 0.02799 0.02326 0.11560
 C2310 C 0.02160 0.03716 0.12240
 C2311 C 0.00964 0.04524 0.11441
 C2312 C 0.00444 0.04030 0.10006
 C2313 C 0.01081 0.02705 0.09311
 C2314 C 0.02243 0.01811 0.10088
 C2315 C 0.02826 0.00460 0.09337
 C2316 C 0.02333 0.00069 0.07855
 C2317 C 0.01233 0.00996 0.07067
 C2318 C 0.00584 0.02293 0.07820
 H2319 H 0.01234 0.06309 0.14004
 H2320 H 0.05713 0.03403 0.16208
 H2321 H 0.02462 0.07272 0.16265
 H2322 H 0.05557 0.01449 0.14266
 H2323 H 0.04538 0.00465 0.11927
 H2324 H 0.00421 0.05573 0.11875
 H2325 H -0.00454 0.04711 0.09423
 H2326 H 0.03681 -0.00315 0.09845
 H2327 H 0.02843 -0.00955 0.07315
 H2328 H -0.00277 0.03016 0.07230
 C2329 C 0.03348 0.55256 0.64171
 C2330 C 0.03927 0.53983 0.63299
 C2331 C 0.05244 0.53172 0.63888
 C2332 C 0.05977 0.53668 0.65254
 C2333 C 0.05411 0.54962 0.66075
 C2334 C 0.04078 0.55731 0.65527
 C2335 C 0.05834 0.51878 0.63104
 C2336 C 0.05160 0.51373 0.61737
 C2337 C 0.03870 0.52161 0.61078
 C2338 C 0.03253 0.53499 0.61864
 C2339 C 0.02010 0.54333 0.61167
 C2340 C 0.01407 0.53898 0.59745
 C2341 C 0.01994 0.52600 0.58965
 C2342 C 0.03208 0.51688 0.59633
 C2343 C 0.03721 0.50351 0.58812
 C2344 C 0.03121 0.50002 0.57356
 C2345 C 0.01978 0.50957 0.56664
 C2346 C 0.01393 0.52234 0.57498
 H2347 H 0.02329 0.55912 0.63845
 H2348 H 0.06996 0.53048 0.65672
 H2349 H 0.03597 0.56725 0.66139
 H2350 H 0.06837 0.51249 0.63548
 H2351 H 0.05708 0.50377 0.61205
 H2352 H 0.01496 0.55364 0.61671
 H2353 H 0.00476 0.54598 0.59244
 H2354 H 0.04593 0.49553 0.59252
 H2355 H 0.03585 0.48992 0.56757
 H2356 H 0.00501 0.52979 0.56986
 C2357 C 0.52969 0.05544 0.64362
 C2358 C 0.53717 0.04337 0.63533
 C2359 C 0.55095 0.03697 0.64174
 C2360 C 0.55705 0.04276 0.65569
 C2361 C 0.54972 0.05513 0.66352
 C2362 C 0.53586 0.06117 0.65734
 C2363 C 0.55873 0.02497 0.63411
 C2364 C 0.55336 0.01935 0.62005
 C2365 C 0.53990 0.02557 0.61296
 C2366 C 0.53155 0.03764 0.62083
 C2367 C 0.51799 0.04375 0.61384
 C2368 C 0.51294 0.03862 0.59953
 C2369 C 0.52109 0.02716 0.59156
 C2370 C 0.53458 0.02030 0.59816
 C2371 C 0.54228 0.00862 0.58949
 C2372 C 0.53696 0.00430 0.57487
 C2373 C 0.52379 0.01139 0.56831
 C2374 C 0.51583 0.02269 0.57687
 H2375 H 0.51912 0.06094 0.63981
 H2376 H 0.56771 0.03779 0.66024
 H2377 H 0.52968 0.07059 0.66300
 H2378 H 0.56922 0.01995 0.63898
 H2379 H 0.56018 0.01015 0.61498
 H2380 H 0.51096 0.05269 0.61903
 H2381 H 0.50257 0.04383 0.59458
 H2382 H 0.55255 0.00267 0.59354
 H2383 H 0.54338 -0.00450 0.56858
 H2384 H 0.50558 0.02825 0.57201
 C2385 C 0.55368 0.57776 0.11753
 C2386 C 0.55836 0.56256 0.11271
 C2387 C 0.57307 0.55708 0.11759
 C2388 C 0.58222 0.56615 0.12750
 C2389 C 0.57705 0.58084 0.13276
 C2390 C 0.56286 0.58668 0.12735
 C2391 C 0.57852 0.54245 0.11274
 C2392 C 0.56974 0.53308 0.10310
 C2393 C 0.55489 0.53782 0.09811
 C2394 C 0.54902 0.55270 0.10320
 C2395 C 0.53392 0.55713 0.09880
 C2396 C 0.52521 0.54789 0.08898
 C2397 C 0.53111 0.53387 0.08313
 C2398 C 0.54580 0.52831 0.08800
 C2399 C 0.55086 0.51360 0.08224
 C2400 C 0.54228 0.50556 0.07119
 C2401 C 0.52840 0.51184 0.06541
 C2402 C 0.52258 0.52569 0.07196
 H2403 H 0.54300 0.58319 0.11391
 H2404 H 0.59327 0.56155 0.13139
 H2405 H 0.55862 0.59810 0.13096
 H2406 H 0.58976 0.53820 0.11641
 H2407 H 0.57498 0.52209 0.09979
 H2408 H 0.52842 0.56776 0.10271
 H2409 H 0.51382 0.55198 0.08562
 H2410 H 0.56161 0.50817 0.08561
 H2411 H 0.54710 0.49484 0.06647
 H2412 H 0.51179 0.53064 0.06774
 C2413 C 0.20049 0.53283 0.60843
 C2414 C 0.21357 0.53926 0.61581
 C2415 C 0.22158 0.55117 0.60779
 C2416 C 0.21648 0.55651 0.59322
 C2417 C 0.20329 0.55031 0.58628
 C2418 C 0.19548 0.53830 0.59396
 C2419 C 0.23458 0.55788 0.61437
 C2420 C 0.23970 0.55336 0.62897
 C2421 C 0.23196 0.54187 0.63768
 C2422 C 0.21882 0.53450 0.63090
 C2423 C 0.21130 0.52275 0.63949
 C2424 C 0.21618 0.51856 0.65429
 C2425 C 0.22870 0.52589 0.66119
 C2426 C 0.23685 0.53759 0.65301
 C2427 C 0.24942 0.54467 0.66066
 C2428 C 0.25354 0.54042 0.67574
 C2429 C 0.24537 0.52895 0.68379
 C2430 C 0.23301 0.52164 0.67635
 H2431 H 0.19371 0.52371 0.61354
 H2432 H 0.22272 0.56574 0.58740
 H2433 H 0.18528 0.53321 0.58888
 H2434 H 0.24083 0.56688 0.60821
 H2435 H 0.24981 0.55923 0.63308
 H2436 H 0.20149 0.51652 0.63516
 H2437 H 0.20996 0.50955 0.66046
 H2438 H 0.25628 0.55368 0.65546
 H2439 H 0.26317 0.54628 0.68112
 H2440 H 0.22653 0.51276 0.68243
 C2441 C 0.21659 0.05480 0.10654
 C2442 C 0.20975 0.04237 0.11484
 C2443 C 0.19612 0.03588 0.10859
 C2444 C 0.18956 0.04190 0.09481
 C2445 C 0.19621 0.05465 0.08704
 C2446 C 0.20994 0.06078 0.09300
 C2447 C 0.18890 0.02360 0.11627
 C2448 C 0.19460 0.01788 0.13029
 C2449 C 0.20786 0.02425 0.13726
 C2450 C 0.21577 0.03645 0.12923
 C2451 C 0.22930 0.04248 0.13596
 C2452 C 0.23464 0.03727 0.15027
 C2453 C 0.22678 0.02585 0.15850
 C2454 C 0.21338 0.01900 0.15210
 C2455 C 0.20592 0.00741 0.16102
 C2456 C 0.21137 0.00315 0.17569
 C2457 C 0.22444 0.01020 0.18205
 C2458 C 0.23219 0.02141 0.17325
 H2459 H 0.22697 0.06044 0.11027
 H2460 H 0.17902 0.03685 0.09041
 H2461 H 0.21561 0.07049 0.08734
 H2462 H 0.17857 0.01846 0.11150
 H2463 H 0.18820 0.00846 0.13540
 H2464 H 0.23611 0.05139 0.13054
 H2465 H 0.24497 0.04243 0.15503
 H2466 H 0.19571 0.00154 0.15718
 H2467 H 0.20512 -0.00560 0.18216
 H2468 H 0.24235 0.02694 0.17797
 C2469 C 0.72390 0.19390 0.64344
 C2470 C 0.71791 0.20630 0.63402
 C2471 C 0.70511 0.21489 0.63958
 C2472 C 0.69857 0.21098 0.65381
 C2473 C 0.70445 0.19845 0.66281
 C2474 C 0.71725 0.19008 0.65751
 C2475 C 0.69875 0.22724 0.63087
 C2476 C 0.70459 0.23119 0.61657
 C2477 C 0.71715 0.22288 0.61031
 C2478 C 0.72405 0.21035 0.61927
 C2479 C 0.73676 0.20221 0.61312
 C2480 C 0.74240 0.20594 0.59867
 C2481 C 0.73566 0.21790 0.58969
 C2482 C 0.72298 0.22661 0.59536
 C2483 C 0.71658 0.23858 0.58569
 C2484 C 0.72244 0.24160 0.57109
 C2485 C 0.73490 0.23288 0.56552
 C2486 C 0.74150 0.22108 0.57497
 H2487 H 0.73361 0.18676 0.64027
 H2488 H 0.68869 0.21761 0.65775
 H2489 H 0.72214 0.18037 0.66421
 H2490 H 0.68902 0.23391 0.63510
 H2491 H 0.69890 0.24087 0.61070
 H2492 H 0.74268 0.19277 0.61915
 H2493 H 0.75213 0.19928 0.59443
 H2494 H 0.70693 0.24579 0.58891
 H2495 H 0.71702 0.25077 0.56408
 H2496 H 0.75112 0.21419 0.57083
 C2497 C 0.66885 0.69463 0.11079
 C2498 C 0.68410 0.69036 0.10722
 C2499 C 0.69005 0.67608 0.11362
 C2500 C 0.68128 0.66702 0.12383
 C2501 C 0.66645 0.67190 0.12785
 C2502 C 0.66024 0.68556 0.12087
 C2503 C 0.70482 0.67104 0.11002
 C2504 C 0.71379 0.67969 0.09999
 C2505 C 0.70848 0.69407 0.09340
 C2506 C 0.69357 0.69972 0.09748
 C2507 C 0.68875 0.71472 0.09197
 C2508 C 0.69768 0.72342 0.08199
 C2509 C 0.71164 0.71750 0.07688
 C2510 C 0.71749 0.70296 0.08280
 C2511 C 0.73199 0.69784 0.07754
 C2512 C 0.73972 0.70625 0.06619
 C2513 C 0.73332 0.72003 0.05960
 C2514 C 0.71953 0.72589 0.06550
 H2515 H 0.66320 0.70494 0.10602
 H2516 H 0.68618 0.65637 0.12895
 H2517 H 0.64873 0.68955 0.12347
 H2518 H 0.70948 0.66018 0.11494
 H2519 H 0.72498 0.67482 0.09779
 H2520 H 0.67813 0.72022 0.09528
 H2521 H 0.69348 0.73484 0.07802
 H2522 H 0.73747 0.68709 0.08151
 H2523 H 0.75041 0.70143 0.06202
 H2524 H 0.71446 0.73659 0.06064
 C2525 C 0.56232 0.66858 0.14279
 C2526 C 0.56120 0.68527 0.14271
 C2527 C 0.57155 0.69369 0.13336
 C2528 C 0.58190 0.68564 0.12391
 C2529 C 0.58201 0.66913 0.12327
 C2530 C 0.57243 0.66070 0.13307
 C2531 C 0.57127 0.71012 0.13313
 C2532 C 0.56091 0.71851 0.14197
 C2533 C 0.55019 0.71075 0.15134
 C2534 C 0.55013 0.69386 0.15145
 C2535 C 0.53874 0.68611 0.15993
 C2536 C 0.52833 0.69446 0.16873
 C2537 C 0.52888 0.71083 0.16958
 C2538 C 0.53957 0.71930 0.16067
 C2539 C 0.53939 0.73596 0.16183
 C2540 C 0.52984 0.74365 0.17223
 C2541 C 0.51988 0.73509 0.18155
 C2542 C 0.51905 0.71872 0.17969
 H2543 H 0.55546 0.66123 0.15007
 H2544 H 0.58934 0.69230 0.11643
 H2545 H 0.57252 0.64792 0.13303
 H2546 H 0.57919 0.71661 0.12602
 H2547 H 0.56156 0.73114 0.14109
 H2548 H 0.53736 0.67353 0.15981
 H2549 H 0.51980 0.68798 0.17504
 H2550 H 0.54693 0.74342 0.15540
 H2551 H 0.53069 0.75632 0.17340
 H2552 H 0.51146 0.71192 0.18690
 C2553 C 0.06124 0.71591 0.62117
 C2554 C 0.04729 0.71018 0.62702
 C2555 C 0.04015 0.69768 0.61897
 C2556 C 0.04694 0.69111 0.60583
 C2557 C 0.06088 0.69682 0.60037
 C2558 C 0.06785 0.70934 0.60815
 C2559 C 0.02631 0.69169 0.62411
 C2560 C 0.01940 0.69768 0.63719
 C2561 C 0.02613 0.70995 0.64579
 C2562 C 0.04029 0.71634 0.64059
 C2563 C 0.04710 0.72851 0.64927
 C2564 C 0.04054 0.73405 0.66267
 C2565 C 0.02688 0.72783 0.66801
 C2566 C 0.01932 0.71586 0.65958
 C2567 C 0.00537 0.71016 0.66550
 C2568 C -0.00037 0.71566 0.67943
 C2569 C 0.00745 0.72710 0.68794
 C2570 C 0.02093 0.73335 0.68196
 H2571 H 0.06745 0.72545 0.62634
 H2572 H 0.04137 0.68150 0.59990
 H2573 H 0.07859 0.71410 0.60424
 H2574 H 0.02076 0.68218 0.61799
 H2575 H 0.00881 0.69223 0.64032
 H2576 H 0.05769 0.73397 0.64615
 H2577 H 0.04633 0.74324 0.66904
 H2578 H -0.00135 0.70132 0.65981
 H2579 H -0.01090 0.71068 0.68366
 H2580 H 0.02712 0.74222 0.68839
 C2581 C 0.58105 0.64542 0.18850
 C2582 C 0.56493 0.64766 0.18767
 C2583 C 0.55664 0.63864 0.17676
 C2584 C 0.56414 0.62730 0.16778
 C2585 C 0.57991 0.62443 0.16964
 C2586 C 0.58833 0.63389 0.17975
 C2587 C 0.54083 0.64065 0.17512
 C2588 C 0.53292 0.65131 0.18421
 C2589 C 0.54053 0.66036 0.19550
 C2590 C 0.55679 0.65840 0.19734
 C2591 C 0.56432 0.66694 0.20905
 C2592 C 0.55648 0.67769 0.21805
 C2593 C 0.54082 0.68032 0.21591
 C2594 C 0.53248 0.67144 0.20491
 C2595 C 0.51647 0.67429 0.20367
 C2596 C 0.50942 0.68633 0.21199
 C2597 C 0.51794 0.69564 0.22215
 C2598 C 0.53354 0.69212 0.22448
 H2599 H 0.58838 0.65219 0.19593
 H2600 H 0.55751 0.62015 0.15987
 H2601 H 0.60059 0.63216 0.18115
 H2602 H 0.53445 0.63386 0.16671
 H2603 H 0.52077 0.65214 0.18205
 H2604 H 0.57632 0.66548 0.21171
 H2605 H 0.56280 0.68407 0.22679
 H2606 H 0.50911 0.66785 0.19597
 H2607 H 0.49732 0.68871 0.21003
 H2608 H 0.54030 0.69923 0.23231
 C2609 C 0.05774 0.60769 0.72278
 C2610 C 0.04307 0.61372 0.71844
 C2611 C 0.03478 0.60550 0.70691
 C2612 C 0.04110 0.59211 0.69992
 C2613 C 0.05582 0.58660 0.70402
 C2614 C 0.06395 0.59439 0.71567
 C2615 C 0.02029 0.61079 0.70217
 C2616 C 0.01397 0.62446 0.70814
 C2617 C 0.02193 0.63349 0.71920
 C2618 C 0.03651 0.62777 0.72481
 C2619 C 0.04411 0.63641 0.73642
 C2620 C 0.03807 0.65048 0.74189
 C2621 C 0.02428 0.65659 0.73601
 C2622 C 0.01591 0.64816 0.72468
 C2623 C 0.00206 0.65505 0.71899
 C2624 C -0.00294 0.66979 0.72403
 C2625 C 0.00554 0.67819 0.73499
 C2626 C 0.01901 0.67133 0.74115
 H2627 H 0.06489 0.61312 0.73141
 H2628 H 0.03459 0.58615 0.69101
 H2629 H 0.07534 0.59041 0.71913
 H2630 H 0.01381 0.60440 0.69352
 H2631 H 0.00274 0.62763 0.70376
 H2632 H 0.05487 0.63267 0.74155
 H2633 H 0.04445 0.65679 0.75066
 H2634 H -0.00504 0.64962 0.71034
 H2635 H -0.01342 0.67473 0.71908
 H2636 H 0.02575 0.67771 0.74960
 C2637 C 0.05433 0.13863 0.03253
 C2638 C 0.04221 0.12990 0.03895
 C2639 C 0.03427 0.13672 0.05145
 C2640 C 0.03865 0.15135 0.05744
 C2641 C 0.05091 0.15975 0.05117
 C2642 C 0.05855 0.15322 0.03852
 C2643 C 0.02202 0.12889 0.05804
 C2644 C 0.01737 0.11437 0.05256
 C2645 C 0.02494 0.10692 0.04025
 C2646 C 0.03770 0.11471 0.03345
 C2647 C 0.04565 0.10693 0.02157
 C2648 C 0.04135 0.09210 0.01652
 C2649 C 0.02888 0.08443 0.02290
 C2650 C 0.02035 0.09179 0.03472
 C2651 C 0.00758 0.08362 0.04053
 C2652 C 0.00384 0.06867 0.03522
 C2653 C 0.01256 0.06124 0.02387
 C2654 C 0.02499 0.06932 0.01762
 H2655 H 0.06080 0.13460 0.02281
 H2656 H 0.03242 0.15615 0.06711
 H2657 H 0.06798 0.15932 0.03320
 H2658 H 0.01591 0.13404 0.06761
 H2659 H 0.00790 0.10920 0.05849
 H2660 H 0.05549 0.11187 0.01606
 H2661 H 0.04793 0.08655 0.00749
 H2662 H 0.00016 0.08840 0.04918
 H2663 H -0.00593 0.06286 0.04021
 H2664 H 0.03182 0.06378 0.00878
 C2665 C 0.06512 0.63691 0.53909
 C2666 C 0.05216 0.62889 0.54468
 C2667 C 0.04480 0.63522 0.55778
 C2668 C 0.05034 0.64892 0.56490
 C2669 C 0.06332 0.65657 0.55930
 C2670 C 0.07055 0.65043 0.54629
 C2671 C 0.03202 0.62779 0.56382
 C2672 C 0.02644 0.61403 0.55734
 C2673 C 0.03344 0.60707 0.54443
 C2674 C 0.04639 0.61475 0.53786
 C2675 C 0.05321 0.60799 0.52475
 C2676 C 0.04788 0.59406 0.51850
 C2677 C 0.03555 0.58624 0.52495
 C2678 C 0.02803 0.59262 0.53793
 C2679 C 0.01555 0.58408 0.54394
 C2680 C 0.01106 0.56975 0.53753
 C2681 C 0.01873 0.56341 0.52487
 C2682 C 0.03087 0.57189 0.51855
 H2683 H 0.07151 0.63302 0.52927
 H2684 H 0.04460 0.65349 0.57496
 H2685 H 0.08058 0.65605 0.54161
 H2686 H 0.02630 0.63260 0.57379
 H2687 H 0.01657 0.60912 0.56282
 H2688 H 0.06279 0.61312 0.51898
 H2689 H 0.05362 0.58927 0.50853
 H2690 H 0.00911 0.58797 0.55373
 H2691 H 0.00164 0.56351 0.54271
 H2692 H 0.03694 0.56718 0.50875
 C2693 C 0.56606 0.13387 0.53838
 C2694 C 0.55241 0.12637 0.54296
 C2695 C 0.54397 0.13346 0.55499
 C2696 C 0.54923 0.14720 0.56225
 C2697 C 0.56290 0.15431 0.55772
 C2698 C 0.57114 0.14753 0.54563
 C2699 C 0.53033 0.12677 0.55982
 C2700 C 0.52486 0.11309 0.55313
 C2701 C 0.53292 0.10536 0.54129
 C2702 C 0.54694 0.11210 0.53613
 C2703 C 0.55514 0.10419 0.52449
 C2704 C 0.55003 0.09011 0.51830
 C2705 C 0.53649 0.08331 0.52330
 C2706 C 0.52759 0.09093 0.53468
 C2707 C 0.51381 0.08362 0.53911
 C2708 C 0.50952 0.06911 0.53306
 C2709 C 0.51865 0.06132 0.52227
 C2710 C 0.53198 0.06871 0.51718
 H2711 H 0.57313 0.12954 0.52923
 H2712 H 0.54265 0.15234 0.57150
 H2713 H 0.58171 0.15273 0.54176
 H2714 H 0.52379 0.13215 0.56897
 H2715 H 0.51431 0.10876 0.55773
 H2716 H 0.56577 0.10844 0.52001
 H2717 H 0.55686 0.08438 0.50958
 H2718 H 0.50610 0.08865 0.54735
 H2719 H 0.49905 0.06384 0.53710
 H2720 H 0.53917 0.06285 0.50882
 C2721 C 0.56579 0.60622 0.08612
 C2722 C 0.56752 0.60339 0.07016
 C2723 C 0.57909 0.61177 0.06236
 C2724 C 0.58781 0.62315 0.07010
 C2725 C 0.58510 0.62662 0.08563
 C2726 C 0.57435 0.61771 0.09364
 C2727 C 0.58161 0.60910 0.04675
 C2728 C 0.57298 0.59818 0.03865
 C2729 C 0.56111 0.58975 0.04576
 C2730 C 0.55809 0.59271 0.06169
 C2731 C 0.54538 0.58535 0.06846
 C2732 C 0.53622 0.57512 0.06015
 C2733 C 0.53954 0.57137 0.04496
 C2734 C 0.55199 0.57861 0.03746
 C2735 C 0.55490 0.57416 0.02205
 C2736 C 0.54620 0.56259 0.01475
 C2737 C 0.53414 0.55522 0.02240
 C2738 C 0.53064 0.56004 0.03738
 H2739 H 0.55781 0.59990 0.09313
 H2740 H 0.59623 0.62982 0.06379
 H2741 H 0.57225 0.61987 0.10573
 H2742 H 0.59043 0.61548 0.04072
 H2743 H 0.57572 0.59691 0.02665
 H2744 H 0.54191 0.58755 0.08012
 H2745 H 0.52644 0.56997 0.06575
 H2746 H 0.56420 0.57888 0.01549
 H2747 H 0.54929 0.55902 0.00323
 H2748 H 0.52152 0.55427 0.04357
 C2749 C 0.69761 0.10306 0.53135
 C2750 C 0.70974 0.11170 0.53807
 C2751 C 0.71773 0.10469 0.55078
 C2752 C 0.71368 0.08973 0.55641
 C2753 C 0.70150 0.08138 0.54972
 C2754 C 0.69361 0.08827 0.53708
 C2755 C 0.72972 0.11266 0.55793
 C2756 C 0.73392 0.12754 0.55291
 C2757 C 0.72629 0.13515 0.54039
 C2758 C 0.71412 0.12702 0.53270
 C2759 C 0.70678 0.13446 0.51991
 C2760 C 0.71105 0.14933 0.51485
 C2761 C 0.72271 0.15750 0.52232
 C2762 C 0.73046 0.15061 0.53525
 C2763 C 0.74204 0.15955 0.54253
 C2764 C 0.74581 0.17450 0.53710
 C2765 C 0.73824 0.18121 0.52422
 C2766 C 0.72664 0.17260 0.51691
 H2767 H 0.69082 0.10740 0.52173
 H2768 H 0.71999 0.08473 0.56618
 H2769 H 0.68416 0.08228 0.53151
 H2770 H 0.73593 0.10734 0.56761
 H2771 H 0.74333 0.13271 0.55913
 H2772 H 0.69767 0.12909 0.51341
 H2773 H 0.70508 0.15452 0.50496
 H2774 H 0.74841 0.15547 0.55253
 H2775 H 0.75477 0.18083 0.54310
 H2776 H 0.72060 0.17764 0.50699
 C2777 C 0.66399 0.64068 0.06204
 C2778 C 0.67964 0.64384 0.06507
 C2779 C 0.68585 0.63890 0.07954
 C2780 C 0.67697 0.63024 0.08995
 C2781 C 0.66188 0.62607 0.08613
 C2782 C 0.65533 0.63195 0.07238
 C2783 C 0.70108 0.64205 0.08331
 C2784 C 0.71045 0.64979 0.07296
 C2785 C 0.70502 0.65450 0.05818
 C2786 C 0.68936 0.65141 0.05416
 C2787 C 0.68406 0.65555 0.03919
 C2788 C 0.69348 0.66293 0.02870
 C2789 C 0.70855 0.66655 0.03260
 C2790 C 0.71470 0.66219 0.04727
 C2791 C 0.73023 0.66591 0.05038
 C2792 C 0.73879 0.67455 0.03981
 C2793 C 0.73229 0.67968 0.02574
 C2794 C 0.71734 0.67500 0.02200
 H2795 H 0.65814 0.64438 0.05162
 H2796 H 0.68216 0.62597 0.10066
 H2797 H 0.64360 0.62924 0.06923
 H2798 H 0.70589 0.63833 0.09436
 H2799 H 0.72203 0.65172 0.07687
 H2800 H 0.67267 0.65309 0.03507
 H2801 H 0.68885 0.66594 0.01737
 H2802 H 0.73600 0.66281 0.06105
 H2803 H 0.75033 0.67790 0.04305
 H2804 H 0.71209 0.67881 0.01117
 C2805 C 0.19166 0.64817 0.71971
 C2806 C 0.20558 0.64170 0.71424
 C2807 C 0.21248 0.64936 0.70154
 C2808 C 0.20550 0.66266 0.69454
 C2809 C 0.19152 0.66865 0.69988
 C2810 C 0.18481 0.66136 0.71263
 C2811 C 0.22623 0.64361 0.69572
 C2812 C 0.23318 0.63015 0.70191
 C2813 C 0.22662 0.62177 0.71427
 C2814 C 0.21272 0.62780 0.72072
 C2815 C 0.20629 0.61957 0.73326
 C2816 C 0.21283 0.60568 0.73895
 C2817 C 0.22605 0.59938 0.73248
 C2818 C 0.23331 0.60741 0.72022
 C2819 C 0.24679 0.60046 0.71422
 C2820 C 0.25234 0.58594 0.71972
 C2821 C 0.24479 0.57782 0.73147
 C2822 C 0.23182 0.58484 0.73802
 H2823 H 0.18560 0.64327 0.72932
 H2824 H 0.21090 0.66822 0.68475
 H2825 H 0.17405 0.66572 0.71711
 H2826 H 0.23163 0.64950 0.68610
 H2827 H 0.24370 0.62655 0.69657
 H2828 H 0.19604 0.62345 0.73892
 H2829 H 0.20732 0.59968 0.74843
 H2830 H 0.25322 0.60573 0.70505
 H2831 H 0.26245 0.58092 0.71447
 H2832 H 0.22585 0.57874 0.74715
 C2833 C 0.19052 0.13800 0.21514
 C2834 C 0.20254 0.12881 0.20896
 C2835 C 0.21013 0.13489 0.19585
 C2836 C 0.20538 0.14927 0.18899
 C2837 C 0.19321 0.15801 0.19510
 C2838 C 0.18599 0.15226 0.20833
 C2839 C 0.22238 0.12657 0.18959
 C2840 C 0.22732 0.11231 0.19600
 C2841 C 0.22002 0.10559 0.20890
 C2842 C 0.20725 0.11384 0.21532
 C2843 C 0.19938 0.10670 0.22764
 C2844 C 0.20377 0.09202 0.23348
 C2845 C 0.21628 0.08391 0.22750
 C2846 C 0.22479 0.09068 0.21534
 C2847 C 0.23769 0.08213 0.21007
 C2848 C 0.24138 0.06724 0.21603
 C2849 C 0.23251 0.06028 0.22755
 C2850 C 0.22014 0.06888 0.23346
 H2851 H 0.18440 0.13463 0.22532
 H2852 H 0.21119 0.15364 0.17887
 H2853 H 0.17663 0.15875 0.21348
 H2854 H 0.22824 0.13113 0.17958
 H2855 H 0.23674 0.10666 0.19028
 H2856 H 0.18946 0.11195 0.23285
 H2857 H 0.19720 0.08692 0.24276
 H2858 H 0.24519 0.08656 0.20132
 H2859 H 0.25118 0.06105 0.21136
 H2860 H 0.21322 0.06372 0.24244
 C2861 C 0.69627 1.14039 0.72523
 C2862 C 0.70937 1.13195 0.72018
 C2863 C 0.71814 1.13894 0.70835
 C2864 C 0.71363 1.15341 0.70165
 C2865 C 0.70034 1.16132 0.70641
 C2866 C 0.69188 1.15477 0.71844
 C2867 C 0.73127 1.13136 0.70304
 C2868 C 0.73576 1.11673 0.70888
 C2869 C 0.72722 1.10895 0.72031
 C2870 C 0.71391 1.11678 0.72621
 C2871 C 0.70543 1.10903 0.73772
 C2872 C 0.70949 1.09404 0.74297
 C2873 C 0.72216 1.08611 0.73707
 C2874 C 0.73137 1.09348 0.72582
 C2875 C 0.74418 1.08486 0.72037
 C2876 C 0.74732 1.06950 0.72549
 C2877 C 0.73792 1.06213 0.73628
 C2878 C 0.72548 1.07067 0.74220
 H2879 H 0.68902 1.13617 0.73428
 H2880 H 0.72042 1.15839 0.69247
 H2881 H 0.68161 1.16063 0.72246
 H2882 H 0.73809 1.13673 0.69410
 H2883 H 0.74598 1.11177 0.70398
 H2884 H 0.69539 1.11415 0.74283
 H2885 H 0.70248 1.08850 0.75166
 H2886 H 0.75194 1.08949 0.71198
 H2887 H 0.75706 1.06329 0.72073
 H2888 H 0.71812 1.06518 0.75061
 C2889 C 0.66238 0.61089 0.18865
 C2890 C 0.67853 0.60904 0.18929
 C2891 C 0.68724 0.61840 0.17908
 C2892 C 0.68002 0.62933 0.16903
 C2893 C 0.66408 0.63150 0.16909
 C2894 C 0.65535 0.62202 0.17882
 C2895 C 0.70316 0.61702 0.17909
 C2896 C 0.71076 0.60657 0.18903
 C2897 C 0.70270 0.59699 0.19948
 C2898 C 0.68632 0.59833 0.19970
 C2899 C 0.67831 0.58906 0.21046
 C2900 C 0.68591 0.57838 0.22015
 C2901 C 0.70173 0.57630 0.21951
 C2902 C 0.71045 0.58590 0.20954
 C2903 C 0.72656 0.58375 0.20990
 C2904 C 0.73346 0.57175 0.21873
 C2905 C 0.72466 0.56160 0.22776
 C2906 C 0.70882 0.56435 0.22853
 H2907 H 0.65479 0.60410 0.19569
 H2908 H 0.68691 0.63660 0.16155
 H2909 H 0.64298 0.62329 0.17895
 H2910 H 0.70987 0.62411 0.17128
 H2911 H 0.72303 0.60622 0.18808
 H2912 H 0.66608 0.58978 0.21175
 H2913 H 0.67932 0.57160 0.22826
 H2914 H 0.73420 0.59080 0.20315
 H2915 H 0.74575 0.57007 0.21802
 H2916 H 0.70184 0.55663 0.23548
 C2917 C 0.52860 0.11642 0.70065
 C2918 C 0.53557 0.12487 0.71285
 C2919 C 0.54869 0.11798 0.72017
 C2920 C 0.55474 0.10356 0.71506
 C2921 C 0.54806 0.09572 0.70254
 C2922 C 0.53478 0.10216 0.69561
 C2923 C 0.55593 0.12564 0.73236
 C2924 C 0.55080 0.14029 0.73720
 C2925 C 0.53816 0.14800 0.72995
 C2926 C 0.53022 0.14002 0.71778
 C2927 C 0.51741 0.14759 0.71072
 C2928 C 0.51282 0.16262 0.71495
 C2929 C 0.52072 0.17076 0.72639
 C2930 C 0.53336 0.16354 0.73425
 C2931 C 0.54086 0.17239 0.74585
 C2932 C 0.53625 0.18780 0.74910
 C2933 C 0.52400 0.19498 0.74099
 C2934 C 0.51615 0.18624 0.72981
 H2935 H 0.51851 0.12055 0.69452
 H2936 H 0.56495 0.09867 0.72064
 H2937 H 0.52925 0.09634 0.68599
 H2938 H 0.56586 0.12034 0.73810
 H2939 H 0.55719 0.14534 0.74661
 H2940 H 0.51068 0.14231 0.70169
 H2941 H 0.50306 0.16804 0.70902
 H2942 H 0.55048 0.16792 0.75252
 H2943 H 0.54253 0.19421 0.75786
 H2944 H 0.50658 0.19158 0.72349
 C2945 C 1.02666 0.11549 0.20286
 C2946 C 1.03612 0.12613 0.21095
 C2947 C 1.05120 0.12097 0.21498
 C2948 C 1.05670 0.10608 0.21027
 C2949 C 1.04736 0.09610 0.20150
 C2950 C 1.03223 0.10087 0.19820
 C2951 C 1.06078 0.13080 0.22348
 C2952 C 1.05584 0.14572 0.22793
 C2953 C 1.04110 0.15160 0.22383
 C2954 C 1.03114 0.14167 0.21505
 C2955 C 1.01669 0.14777 0.21027
 C2956 C 1.01204 0.16294 0.21394
 C2957 C 1.02147 0.17269 0.22264
 C2958 C 1.03605 0.16717 0.22791
 C2959 C 1.04495 0.17756 0.23699
 C2960 C 1.03968 0.19278 0.24030
 C2961 C 1.02541 0.19825 0.23472
 C2962 C 1.01634 0.18803 0.22596
 H2963 H 1.01487 0.11801 0.19989
 H2964 H 1.06838 0.10248 0.21305
 H2965 H 1.02456 0.09330 0.19179
 H2966 H 1.07229 0.12695 0.22667
 H2967 H 1.06405 0.15252 0.23435
 H2968 H 1.00871 0.14126 0.20330
 H2969 H 1.00091 0.16712 0.20984
 H2970 H 1.05601 0.17432 0.24176
 H2971 H 1.04696 0.20036 0.24714
 H2972 H 1.00522 0.19202 0.22167
 C2973 C 0.20630 0.61004 0.52445
 C2974 C 0.21721 0.61894 0.53281
 C2975 C 0.22249 0.61280 0.54722
 C2976 C 0.21689 0.59846 0.55294
 C2977 C 0.20573 0.59009 0.54470
 C2978 C 0.20068 0.59594 0.53035
 C2979 C 0.23307 0.62115 0.55604
 C2980 C 0.23816 0.63580 0.55120
 C2981 C 0.23294 0.64269 0.53717
 C2982 C 0.22269 0.63387 0.52758
 C2983 C 0.21813 0.64034 0.51316
 C2984 C 0.22273 0.65521 0.50856
 C2985 C 0.23204 0.66427 0.51809
 C2986 C 0.23747 0.65817 0.53245
 C2987 C 0.24690 0.66803 0.54159
 C2988 C 0.25045 0.68331 0.53673
 C2989 C 0.24475 0.68930 0.52266
 C2990 C 0.23573 0.67956 0.51332
 H2991 H 0.20151 0.61377 0.51350
 H2992 H 0.22090 0.59410 0.56409
 H2993 H 0.19211 0.58973 0.52366
 H2994 H 0.23727 0.61644 0.56699
 H2995 H 0.24622 0.64145 0.55880
 H2996 H 0.21096 0.63423 0.50504
 H2997 H 0.21875 0.65976 0.49747
 H2998 H 0.25148 0.66448 0.55269
 H2999 H 0.25741 0.69057 0.54422
 H3000 H 0.23133 0.68397 0.50233
 C3001 C 0.21499 0.11677 1.05068
 C3002 C 0.20731 0.12623 1.03943
 C3003 C 0.19371 0.12022 1.03266
 C3004 C 0.18779 0.10569 1.03754
 C3005 C 0.19525 0.09681 1.04916
 C3006 C 0.20902 0.10240 1.05545
 C3007 C 0.18593 0.12882 1.02118
 C3008 C 0.19124 0.14335 1.01629
 C3009 C 0.20455 0.15006 1.02286
 C3010 C 0.21262 0.14143 1.03476
 C3011 C 0.22550 0.14845 1.04184
 C3012 C 0.23037 0.16332 1.03750
 C3013 C 0.22277 0.17179 1.02583
 C3014 C 0.20988 0.16525 1.01817
 C3015 C 0.20284 0.17426 1.00617
 C3016 C 0.20812 0.18921 1.00232
 C3017 C 0.22063 0.19577 1.01019
 C3018 C 0.22797 0.18689 1.02188
 H3019 H 0.22565 0.12005 1.05608
 H3020 H 0.17720 0.10145 1.03246
 H3021 H 0.21522 0.09573 1.06428
 H3022 H 0.17554 0.12428 1.01594
 H3023 H 0.18440 0.14918 1.00749
 H3024 H 0.23198 0.14290 1.05108
 H3025 H 0.24021 0.16827 1.04341
 H3026 H 0.19324 0.17017 0.99945
 H3027 H 0.20221 0.19572 0.99317
 H3028 H 0.23771 0.19176 1.02802
 C3029 C 0.18641 0.72549 0.63517
 C3030 C 0.20045 0.72001 0.62905
 C3031 C 0.20870 0.70829 0.63758
 C3032 C 0.20289 0.70217 0.65142
 C3033 C 0.18883 0.70756 0.65716
 C3034 C 0.18077 0.71936 0.64893
 C3035 C 0.22270 0.70263 0.63225
 C3036 C 0.22875 0.70825 0.61857
 C3037 C 0.22095 0.71978 0.60949
 C3038 C 0.20652 0.72571 0.61479
 C3039 C 0.19856 0.73701 0.60557
 C3040 C 0.20440 0.74234 0.59171
 C3041 C 0.21842 0.73674 0.58641
 C3042 C 0.22699 0.72544 0.59519
 C3043 C 0.24118 0.72024 0.58915
 C3044 C 0.24636 0.72578 0.57494
 C3045 C 0.23770 0.73677 0.56625
 C3046 C 0.22379 0.74228 0.57220
 H3047 H 0.17944 0.73453 0.62969
 H3048 H 0.20933 0.69312 0.65768
 H3049 H 0.16992 0.72386 0.65306
 H3050 H 0.22908 0.69368 0.63874
 H3051 H 0.23959 0.70315 0.61537
 H3052 H 0.18761 0.74193 0.60863
 H3053 H 0.19779 0.75094 0.58501
 H3054 H 0.24857 0.71183 0.59503
 H3055 H 0.25716 0.72129 0.57068
 H3056 H 0.21689 0.75074 0.56562
 C3057 C 0.20965 0.19284 1.13078
 C3058 C 0.20381 0.20662 1.12334
 C3059 C 0.19228 0.21531 1.13105
 C3060 C 0.18699 0.21035 1.14555
 C3061 C 0.19289 0.19663 1.15280
 C3062 C 0.20430 0.18800 1.14516
 C3063 C 0.18602 0.22893 1.12428
 C3064 C 0.19085 0.23417 1.10995
 C3065 C 0.20228 0.22600 1.10172
 C3066 C 0.20894 0.21204 1.10857
 C3067 C 0.22051 0.20399 1.10043
 C3068 C 0.22540 0.20929 1.08615
 C3069 C 0.21899 0.22278 1.07928
 C3070 C 0.20730 0.23134 1.08688
 C3071 C 0.20111 0.24486 1.07923
 C3072 C 0.20637 0.24960 1.06478
 C3073 C 0.21799 0.24115 1.05737
 C3074 C 0.22423 0.22771 1.06476
 H3075 H 0.21836 0.18543 1.12584
 H3076 H 0.17816 0.21727 1.15113
 H3077 H 0.20920 0.17734 1.15025
 H3078 H 0.17722 0.23563 1.13011
 H3079 H 0.18538 0.24481 1.10569
 H3080 H 0.22615 0.19349 1.10480
 H3081 H 0.23433 0.20268 1.08038
 H3082 H 0.19214 0.25205 1.08399
 H3083 H 0.20123 0.25999 1.05939
 H3084 H 0.23315 0.22094 1.05916
 C3085 C 0.68369 0.58886 0.14723
 C3086 C 0.68387 0.57225 0.14911
 C3087 C 0.67237 0.56363 0.14125
 C3088 C 0.66188 0.57130 0.13120
 C3089 C 0.66283 0.58756 0.12844
 C3090 C 0.67345 0.59631 0.13697
 C3091 C 0.67175 0.54730 0.14294
 C3092 C 0.68256 0.53917 0.15191
 C3093 C 0.69466 0.54706 0.15943
 C3094 C 0.69521 0.56390 0.15818
 C3095 C 0.70733 0.57179 0.16567
 C3096 C 0.71825 0.56367 0.17448
 C3097 C 0.71774 0.54733 0.17604
 C3098 C 0.70621 0.53871 0.16825
 C3099 C 0.70676 0.52206 0.16967
 C3100 C 0.71746 0.51453 0.17941
 C3101 C 0.72806 0.52325 0.18801
 C3102 C 0.72852 0.53963 0.18572
 H3103 H 0.69157 0.59646 0.15314
 H3104 H 0.65361 0.56441 0.12478
 H3105 H 0.67420 0.60896 0.13532
 H3106 H 0.66286 0.54067 0.13712
 H3107 H 0.68108 0.52661 0.15266
 H3108 H 0.70884 0.58433 0.16488
 H3109 H 0.72726 0.57028 0.18009
 H3110 H 0.69888 0.51447 0.16371
 H3111 H 0.71690 0.50185 0.18079
 H3112 H 0.73669 0.54658 0.19221
 C3113 C 0.70915 1.01692 0.60610
 C3114 C 0.71776 1.02607 0.61661
 C3115 C 0.72196 1.04145 0.61183
 C3116 C 0.71683 1.04763 0.59752
 C3117 C 0.70740 1.03874 0.58779
 C3118 C 0.70401 1.02321 0.59206
 C3119 C 0.73087 1.05076 0.62152
 C3120 C 0.73540 1.04538 0.63607
 C3121 C 0.73096 1.03044 0.64168
 C3122 C 0.72202 1.02061 0.63176
 C3123 C 0.71717 1.00587 0.63750
 C3124 C 0.72058 1.00103 0.65247
 C3125 C 0.72908 1.01052 0.66234
 C3126 C 0.73473 1.02519 0.65705
 C3127 C 0.74370 1.03407 0.66751
 C3128 C 0.74633 1.02886 0.68264
 C3129 C 0.74017 1.01466 0.68792
 C3130 C 0.73173 1.00545 0.67760
 H3131 H 0.70598 1.00491 0.60839
 H3132 H 0.71969 1.05961 0.59428
 H3133 H 0.69707 1.01589 0.58461
 H3134 H 0.73423 1.06248 0.61790
 H3135 H 0.74208 1.05347 0.64282
 H3136 H 0.71031 0.99787 0.63086
 H3137 H 0.71634 0.98975 0.65643
 H3138 H 0.74881 1.04514 0.66445
 H3139 H 0.75299 1.03621 0.69033
 H3140 H 0.72708 0.99432 0.68148
 C3141 C 0.54075 0.19140 0.61988
 C3142 C 0.54614 0.20524 0.62715
 C3143 C 0.55841 0.21323 0.62008
 C3144 C 0.56503 0.20742 0.60655
 C3145 C 0.55971 0.19359 0.59964
 C3146 C 0.54743 0.18573 0.60640
 C3147 C 0.56415 0.22697 0.62655
 C3148 C 0.55815 0.23299 0.64003
 C3149 C 0.54608 0.22544 0.64774
 C3150 C 0.53991 0.21137 0.64116
 C3151 C 0.52784 0.20383 0.64889
 C3152 C 0.52212 0.20965 0.66262
 C3153 C 0.52809 0.22322 0.66925
 C3154 C 0.54008 0.23141 0.66189
 C3155 C 0.54565 0.24516 0.66916
 C3156 C 0.53980 0.25026 0.68319
 C3157 C 0.52815 0.24197 0.69055
 C3158 C 0.52224 0.22852 0.68336
 H3159 H 0.53143 0.18458 0.62431
 H3160 H 0.57446 0.21373 0.60145
 H3161 H 0.54301 0.17504 0.60134
 H3162 H 0.57350 0.23316 0.62114
 H3163 H 0.56338 0.24361 0.64415
 H3164 H 0.52257 0.19325 0.64469
 H3165 H 0.51293 0.20335 0.66816
 H3166 H 0.55462 0.25224 0.66444
 H3167 H 0.54461 0.26071 0.68837
 H3168 H 0.51322 0.22194 0.68889
 C3169 C 1.02844 0.19666 0.11138
 C3170 C 1.03359 0.21077 0.11830
 C3171 C 1.04480 0.21951 0.11036
 C3172 C 1.05088 0.21402 0.09649
 C3173 C 1.04607 0.19973 0.09002
 C3174 C 1.03457 0.19129 0.09754
 C3175 C 1.05013 0.23363 0.11636
 C3176 C 1.04484 0.23925 0.13029
 C3177 C 1.03398 0.23086 0.13894
 C3178 C 1.02819 0.21641 0.13282
 C3179 C 1.01744 0.20796 0.14157
 C3180 C 1.01273 0.21321 0.15589
 C3181 C 1.01842 0.22712 0.16210
 C3182 C 1.02895 0.23628 0.15366
 C3183 C 1.03417 0.25041 0.16045
 C3184 C 1.02953 0.25488 0.17512
 C3185 C 1.01945 0.24555 0.18358
 C3186 C 1.01376 0.23177 0.17685
 H3187 H 1.01975 0.18939 0.11638
 H3188 H 1.05959 0.22093 0.09085
 H3189 H 1.03039 0.18030 0.09289
 H3190 H 1.05864 0.24041 0.11027
 H3191 H 1.04974 0.25018 0.13403
 H3192 H 1.01256 0.19703 0.13779
 H3193 H 1.00462 0.20619 0.16226
 H3194 H 1.04196 0.25830 0.15487
 H3195 H 1.03405 0.26566 0.17990
 H3196 H 1.00590 0.22445 0.18322
 C3197 C 0.64393 0.22607 0.69685
 C3198 C 0.63642 0.22171 0.71060
 C3199 C 0.64321 0.20946 0.71970
 C3200 C 0.65666 0.20175 0.71494
 C3201 C 0.66372 0.20597 0.70110
 C3202 C 0.65730 0.21833 0.69224
 C3203 C 0.63648 0.20478 0.73344
 C3204 C 0.62293 0.21172 0.73830
 C3205 C 0.61542 0.22368 0.72952
 C3206 C 0.62236 0.22888 0.71551
 C3207 C 0.61487 0.24087 0.70675
 C3208 C 0.60091 0.24725 0.71122
 C3209 C 0.59383 0.24206 0.72461
 C3210 C 0.60105 0.23039 0.73411
 C3211 C 0.59337 0.22572 0.74766
 C3212 C 0.57895 0.23188 0.75118
 C3213 C 0.57164 0.24300 0.74146
 C3214 C 0.57935 0.24828 0.72834
 H3215 H 0.63978 0.23533 0.68927
 H3216 H 0.66153 0.19230 0.72201
 H3217 H 0.66250 0.22195 0.68153
 H3218 H 0.64168 0.19549 0.74050
 H3219 H 0.61856 0.20723 0.74899
 H3220 H 0.61937 0.24552 0.69618
 H3221 H 0.59550 0.25624 0.70396
 H3222 H 0.59801 0.21716 0.75573
 H3223 H 0.57338 0.22763 0.76148
 H3224 H 0.57388 0.25689 0.72070
 C3225 C 1.14233 0.20594 0.21898
 C3226 C 1.13296 0.21743 0.21147
 C3227 C 1.13734 0.22257 0.19656
 C3228 C 1.15006 0.21570 0.18924
 C3229 C 1.15863 0.20366 0.19656
 C3230 C 1.15483 0.19919 0.21162
 C3231 C 1.12882 0.23429 0.18889
 C3232 C 1.11581 0.24081 0.19548
 C3233 C 1.11059 0.23565 0.21002
 C3234 C 1.11929 0.22374 0.21813
 C3235 C 1.11375 0.21809 0.23236
 C3236 C 1.10005 0.22357 0.23832
 C3237 C 1.09136 0.23505 0.23052
 C3238 C 1.09666 0.24159 0.21647
 C3239 C 1.08758 0.25361 0.20937
 C3240 C 1.07349 0.25813 0.21544
 C3241 C 1.06793 0.25097 0.22886
 C3242 C 1.07717 0.23971 0.23654
 H3243 H 1.14036 0.20180 0.23054
 H3244 H 1.15298 0.21943 0.17767
 H3245 H 1.16143 0.19020 0.21778
 H3246 H 1.13215 0.23836 0.17754
 H3247 H 1.10984 0.24959 0.18860
 H3248 H 1.11949 0.20901 0.23907
 H3249 H 1.09611 0.21859 0.24909
 H3250 H 1.09091 0.25968 0.19901
 H3251 H 1.06676 0.26704 0.20931
 H3252 H 1.07313 0.23419 0.24703
 C3253 C 0.12367 0.71609 0.56727
 C3254 C 0.13139 0.71043 0.55413
 C3255 C 0.12456 0.69791 0.54586
 C3256 C 0.11074 0.69129 0.55077
 C3257 C 0.10334 0.69699 0.56387
 C3258 C 0.10994 0.70947 0.57200
 C3259 C 0.13151 0.69201 0.53271
 C3260 C 0.14512 0.69827 0.52746
 C3261 C 0.15246 0.71072 0.53525
 C3262 C 0.14556 0.71679 0.54891
 C3263 C 0.15313 0.72893 0.55696
 C3264 C 0.16681 0.73507 0.55182
 C3265 C 0.17355 0.72946 0.53844
 C3266 C 0.16652 0.71723 0.52992
 C3267 C 0.17394 0.71205 0.51641
 C3268 C 0.18776 0.71859 0.51179
 C3269 C 0.19467 0.73058 0.52034
 C3270 C 0.18742 0.73600 0.53364
 H3271 H 0.12780 0.72568 0.57417
 H3272 H 0.10574 0.68169 0.54431
 H3273 H 0.10451 0.71420 0.58215
 H3274 H 0.12636 0.68242 0.52635
 H3275 H 0.14962 0.69293 0.51723
 H3276 H 0.14886 0.73394 0.56745
 H3277 H 0.17220 0.74434 0.55844
 H3278 H 0.16945 0.70296 0.50909
 H3279 H 0.19305 0.71415 0.50143
 H3280 H 0.19267 0.74521 0.54044
 C3281 C 0.10359 0.22604 1.05318
 C3282 C 0.11184 0.22029 1.04042
 C3283 C 0.10608 0.20678 1.03284
 C3284 C 0.09296 0.19915 1.03825
 C3285 C 0.08525 0.20474 1.05121
 C3286 C 0.09059 0.21838 1.05844
 C3287 C 0.11352 0.20078 1.02002
 C3288 C 0.12675 0.20769 1.01461
 C3289 C 0.13324 0.22091 1.02193
 C3290 C 0.12565 0.22733 1.03505
 C3291 C 0.13229 0.24036 1.04256
 C3292 C 0.14599 0.24672 1.03767
 C3293 C 0.15361 0.24051 1.02505
 C3294 C 0.14726 0.22770 1.01681
 C3295 C 0.15540 0.22208 1.00391
 C3296 C 0.16943 0.22848 0.99985
 C3297 C 0.17589 0.24078 1.00837
 C3298 C 0.16774 0.24691 1.02082
 H3299 H 0.10684 0.23640 1.05947
 H3300 H 0.08889 0.18869 1.03243
 H3301 H 0.08483 0.22311 1.06840
 H3302 H 0.10912 0.19051 1.01413
 H3303 H 0.13175 0.20213 1.00473
 H3304 H 0.12736 0.24584 1.05251
 H3305 H 0.15075 0.25656 1.04398
 H3306 H 0.15137 0.21266 0.99673
 H3307 H 0.17536 0.22353 0.99009
 H3308 H 0.17254 0.25647 1.02749
 C3309 C 0.63286 0.57813 0.19586
 C3310 C 0.63909 0.56370 0.19059
 C3311 C 0.63567 0.55926 0.17521
 C3312 C 0.62533 0.56826 0.16607
 C3313 C 0.61844 0.58197 0.17190
 C3314 C 0.62276 0.58706 0.18665
 C3315 C 0.64233 0.54567 0.16915
 C3316 C 0.65248 0.53646 0.17794
 C3317 C 0.65601 0.54021 0.19343
 C3318 C 0.64864 0.55366 0.20003
 C3319 C 0.65063 0.55634 0.21597
 C3320 C 0.66042 0.54695 0.22494
 C3321 C 0.66890 0.53481 0.21836
 C3322 C 0.66662 0.53098 0.20260
 C3323 C 0.67541 0.51835 0.19663
 C3324 C 0.68650 0.51054 0.20572
 C3325 C 0.68932 0.51504 0.22103
 C3326 C 0.68004 0.52683 0.22740
 H3327 H 0.63566 0.58290 0.20702
 H3328 H 0.62241 0.56439 0.15452
 H3329 H 0.61794 0.59777 0.19139
 H3330 H 0.63974 0.54217 0.15741
 H3331 H 0.65709 0.52620 0.17235
 H3332 H 0.64457 0.56552 0.22196
 H3333 H 0.66175 0.54961 0.23710
 H3334 H 0.67449 0.51463 0.18481
 H3335 H 0.69344 0.50148 0.20042
 H3336 H 0.68202 0.53042 0.23924
 C3337 C 0.61131 1.05998 0.72162
 C3338 C 0.61996 1.04777 0.71472
 C3339 C 0.61346 1.04031 0.70161
 C3340 C 0.59908 1.04516 0.69563
 C3341 C 0.59083 1.05746 0.70247
 C3342 C 0.59708 1.06470 0.71557
 C3343 C 0.62135 1.02811 0.69444
 C3344 C 0.63562 1.02309 0.69989
 C3345 C 0.64272 1.03015 0.71282
 C3346 C 0.63478 1.04275 0.72033
 C3347 C 0.64198 1.04997 0.73311
 C3348 C 0.65637 1.04510 0.73842
 C3349 C 0.66423 1.03284 0.73129
 C3350 C 0.65753 1.02512 0.71843
 C3351 C 0.66600 1.01268 0.71172
 C3352 C 0.68044 1.00827 0.71744
 C3353 C 0.68706 1.01600 0.73007
 C3354 C 0.67882 1.02829 0.73697
 H3355 H 0.61516 1.06619 0.73171
 H3356 H 0.59439 1.03940 0.68552
 H3357 H 0.59099 1.07418 0.72123
 H3358 H 0.61644 1.02235 0.68444
 H3359 H 0.64083 1.01363 0.69355
 H3360 H 0.63687 1.05959 0.73930
 H3361 H 0.66142 1.05105 0.74824
 H3362 H 0.66187 1.00602 0.70203
 H3363 H 0.68644 0.99870 0.71183
 H3364 H 0.68377 1.03439 0.74675
 C3365 C 0.89259 0.45916 0.27717
 C3366 C 0.88267 0.47025 0.28415
 C3367 C 0.88768 0.47717 0.29816
 C3368 C 0.90188 0.47290 0.30489
 C3369 C 0.91130 0.46154 0.29803
 C3370 C 0.90658 0.45490 0.28403
 C3371 C 0.87838 0.48812 0.30558
 C3372 C 0.86395 0.49202 0.29972
 C3373 C 0.85819 0.48512 0.28608
 C3374 C 0.86788 0.47440 0.27793
 C3375 C 0.86238 0.46802 0.26393
 C3376 C 0.84773 0.47143 0.25839
 C3377 C 0.83793 0.48131 0.26651
 C3378 C 0.84299 0.48844 0.28039
 C3379 C 0.83247 0.49832 0.28814
 C3380 C 0.81759 0.50073 0.28245
 C3381 C 0.81262 0.49343 0.26886
 C3382 C 0.82296 0.48387 0.26086
 H3383 H 0.88982 0.45325 0.26657
 H3384 H 0.90538 0.47815 0.31572
 H3385 H 0.91363 0.44615 0.27837
 H3386 H 0.88222 0.49358 0.31620
 H3387 H 0.85757 0.50053 0.30627
 H3388 H 0.86909 0.46026 0.25688
 H3389 H 0.84396 0.46608 0.24769
 H3390 H 0.83519 0.50416 0.29879
 H3391 H 0.80986 0.50815 0.28894
 H3392 H 0.81931 0.47817 0.25030
 C3393 C 0.85796 0.93596 0.83933
 C3394 C 0.85465 0.93483 0.82334
 C3395 C 0.86371 0.92423 0.81464
 C3396 C 0.87583 0.91563 0.82164
 C3397 C 0.87941 0.91754 0.83731
 C3398 C 0.87017 0.92754 0.84611
 C3399 C 0.86092 0.92249 0.79890
 C3400 C 0.84954 0.93131 0.79140
 C3401 C 0.84044 0.94236 0.79938
 C3402 C 0.84289 0.94400 0.81567
 C3403 C 0.83364 0.95490 0.82368
 C3404 C 0.82246 0.96391 0.81611
 C3405 C 0.81994 0.96248 0.80029
 C3406 C 0.82892 0.95177 0.79164
 C3407 C 0.82590 0.95092 0.77556
 C3408 C 0.81411 0.95980 0.76863
 C3409 C 0.80502 0.97000 0.77734
 C3410 C 0.80822 0.97152 0.79314
 H3411 H 0.85158 0.94345 0.84695
 H3412 H 0.88287 0.90792 0.81469
 H3413 H 0.87253 0.92911 0.85829
 H3414 H 0.86773 0.91432 0.79221
 H3415 H 0.84825 0.92916 0.77924
 H3416 H 0.83472 0.95682 0.83590
 H3417 H 0.81569 0.97213 0.82275
 H3418 H 0.83226 0.94339 0.76797
 H3419 H 0.81194 0.95845 0.75638
 H3420 H 0.80116 0.97927 0.80003
 C3421 C 0.37582 0.29431 0.81426
 C3422 C 0.38316 0.30064 0.80118
 C3423 C 0.37640 0.31417 0.79401
 C3424 C 0.36292 0.32098 0.79985
 C3425 C 0.35584 0.31451 0.81283
 C3426 C 0.36246 0.30112 0.81991
 C3427 C 0.38308 0.32082 0.78102
 C3428 C 0.39634 0.31437 0.77488
 C3429 C 0.40357 0.30092 0.78156
 C3430 C 0.39690 0.29400 0.79499
 C3431 C 0.40423 0.28070 0.80184
 C3432 C 0.41751 0.27432 0.79582
 C3433 C 0.42412 0.28087 0.78278
 C3434 C 0.41730 0.29421 0.77537
 C3435 C 0.42465 0.30030 0.76214
 C3436 C 0.43832 0.29363 0.75687
 C3437 C 0.44510 0.28062 0.76448
 C3438 C 0.43775 0.27421 0.77731
 H3439 H 0.37999 0.28405 0.82045
 H3440 H 0.35791 0.33132 0.79422
 H3441 H 0.35733 0.29580 0.82996
 H3442 H 0.37798 0.33116 0.77549
 H3443 H 0.40067 0.32031 0.76486
 H3444 H 0.40008 0.27488 0.81200
 H3445 H 0.42272 0.26413 0.80154
 H3446 H 0.42030 0.31031 0.75567
 H3447 H 0.44375 0.29893 0.74697
 H3448 H 0.44286 0.26419 0.78341
 C3449 C 0.87150 0.28709 0.31458
 C3450 C 0.87795 0.29251 0.30064
 C3451 C 0.86926 0.30359 0.29169
 C3452 C 0.85499 0.30920 0.29678
 C3453 C 0.84886 0.30379 0.31068
 C3454 C 0.85724 0.29263 0.31945
 C3455 C 0.87482 0.30904 0.27767
 C3456 C 0.88877 0.30369 0.27216
 C3457 C 0.89793 0.29270 0.28058
 C3458 C 0.89260 0.28727 0.29522
 C3459 C 0.90219 0.27701 0.30404
 C3460 C 0.91641 0.27209 0.29874
 C3461 C 0.92161 0.27697 0.28437
 C3462 C 0.91239 0.28718 0.27498
 C3463 C 0.91808 0.29145 0.26033
 C3464 C 0.93246 0.28631 0.25555
 C3465 C 0.94174 0.27661 0.26505
 C3466 C 0.93612 0.27181 0.27940
 H3467 H 0.87705 0.27842 0.32196
 H3468 H 0.84859 0.31771 0.28977
 H3469 H 0.85280 0.28815 0.33021
 H3470 H 0.86826 0.31755 0.27081
 H3471 H 0.89215 0.30868 0.26129
 H3472 H 0.89919 0.27274 0.31532
 H3473 H 0.92342 0.26435 0.30602
 H3474 H 0.91173 0.29872 0.25220
 H3475 H 0.93636 0.29009 0.24432
 H3476 H 0.94315 0.26431 0.28689
 C3477 C 0.38886 0.78312 0.44283
 C3478 C 0.38076 0.79089 0.45464
 C3479 C 0.38659 0.80546 0.45995
 C3480 C 0.39996 0.81184 0.45358
 C3481 C 0.40761 0.80407 0.44165
 C3482 C 0.40195 0.78962 0.43649
 C3483 C 0.37894 0.81371 0.47142
 C3484 C 0.36538 0.80808 0.47752
 C3485 C 0.35892 0.79379 0.47245
 C3486 C 0.36695 0.78487 0.46109
 C3487 C 0.36086 0.77026 0.45646
 C3488 C 0.34715 0.76481 0.46221
 C3489 C 0.33889 0.77361 0.47280
 C3490 C 0.34464 0.78815 0.47825
 C3491 C 0.33565 0.79650 0.48904
 C3492 C 0.32153 0.79076 0.49389
 C3493 C 0.31584 0.77651 0.48821
 C3494 C 0.32475 0.76794 0.47781
 H3495 H 0.38529 0.77211 0.43793
 H3496 H 0.40416 0.82306 0.45766
 H3497 H 0.40760 0.78326 0.42736
 H3498 H 0.38337 0.82480 0.47561
 H3499 H 0.36022 0.81529 0.48625
 H3500 H 0.36640 0.76262 0.44835
 H3501 H 0.34288 0.75361 0.45815
 H3502 H 0.33903 0.80765 0.49379
 H3503 H 0.31491 0.79770 0.50191
 H3504 H 0.32057 0.75686 0.47333
 C3505 C 0.36558 0.29966 0.92869
 C3506 C 0.35945 0.30400 0.94312
 C3507 C 0.36660 0.31654 0.95110
 C3508 C 0.37934 0.32421 0.94483
 C3509 C 0.38530 0.31965 0.93057
 C3510 C 0.37823 0.30734 0.92261
 C3511 C 0.36104 0.32137 0.96532
 C3512 C 0.34849 0.31410 0.97188
 C3513 C 0.34090 0.30157 0.96446
 C3514 C 0.34652 0.29639 0.94986
 C3515 C 0.33902 0.28380 0.94247
 C3516 C 0.32640 0.27663 0.94893
 C3517 C 0.32067 0.28163 0.96301
 C3518 C 0.32781 0.29412 0.97106
 C3519 C 0.32133 0.29873 0.98527
 C3520 C 0.30812 0.29158 0.99087
 C3521 C 0.30096 0.27948 0.98265
 C3522 C 0.30755 0.27440 0.96886
 H3523 H 0.36092 0.29037 0.92173
 H3524 H 0.38466 0.33372 0.95116
 H3525 H 0.38249 0.30352 0.91155
 H3526 H 0.36645 0.33093 0.97148
 H3527 H 0.34503 0.31864 0.98287
 H3528 H 0.34255 0.27914 0.93156
 H3529 H 0.32097 0.26710 0.94272
 H3530 H 0.32594 0.30804 0.99224
 H3531 H 0.30330 0.29585 1.00152
 H3532 H 0.30211 0.26516 0.96225
 C3533 C 0.81460 0.46392 0.38072
 C3534 C 0.80072 0.45899 0.37366
 C3535 C 0.79328 0.44587 0.38032
 C3536 C 0.79960 0.43807 0.39333
 C3537 C 0.81344 0.44299 0.40006
 C3538 C 0.82079 0.45605 0.39366
 C3539 C 0.77959 0.44046 0.37394
 C3540 C 0.77319 0.44753 0.36084
 C3541 C 0.78024 0.46042 0.35349
 C3542 C 0.79410 0.46643 0.36016
 C3543 C 0.80093 0.47958 0.35303
 C3544 C 0.79477 0.48633 0.33964
 C3545 C 0.78157 0.48032 0.33274
 C3546 C 0.77400 0.46739 0.33959
 C3547 C 0.76067 0.46176 0.33200
 C3548 C 0.75550 0.46835 0.31802
 C3549 C 0.76327 0.48087 0.31112
 C3550 C 0.77614 0.48700 0.31877
 H3551 H 0.82110 0.47373 0.37650
 H3552 H 0.79370 0.42802 0.39815
 H3553 H 0.83148 0.46017 0.39856
 H3554 H 0.77379 0.43051 0.37907
 H3555 H 0.76264 0.44250 0.35675
 H3556 H 0.81118 0.48496 0.35746
 H3557 H 0.80056 0.49628 0.33451
 H3558 H 0.75410 0.45206 0.33631
 H3559 H 0.74551 0.46336 0.31245
 H3560 H 0.78236 0.49662 0.31355
 C3561 C 0.81649 0.95159 0.87939
 C3562 C 0.80261 0.94629 0.87265
 C3563 C 0.79679 0.93171 0.87795
 C3564 C 0.80440 0.92314 0.88979
 C3565 C 0.81805 0.92868 0.89646
 C3566 C 0.82399 0.94294 0.89105
 C3567 C 0.78343 0.92569 0.87136
 C3568 C 0.77583 0.93363 0.85937
 C3569 C 0.78115 0.94816 0.85361
 C3570 C 0.79450 0.95483 0.86070
 C3571 C 0.79922 0.96986 0.85569
 C3572 C 0.79169 0.97780 0.84373
 C3573 C 0.77928 0.97106 0.83608
 C3574 C 0.77366 0.95624 0.84094
 C3575 C 0.76103 0.95001 0.83260
 C3576 C 0.75476 0.95790 0.81970
 C3577 C 0.76073 0.97231 0.81471
 C3578 C 0.77275 0.97897 0.82328
 H3579 H 0.82205 0.96223 0.87578
 H3580 H 0.79971 0.91205 0.89372
 H3581 H 0.83457 0.94751 0.89582
 H3582 H 0.77887 0.91459 0.87541
 H3583 H 0.76566 0.92808 0.85496
 H3584 H 0.80870 0.97598 0.86087
 H3585 H 0.79588 0.98924 0.84019
 H3586 H 0.75603 0.93881 0.83539
 H3587 H 0.74556 0.95237 0.81329
 H3588 H 0.77753 0.99011 0.81961
 C3589 C 0.31032 0.77702 0.36429
 C3590 C 0.29681 0.78224 0.37167
 C3591 C 0.28733 0.79335 0.36365
 C3592 C 0.29158 0.79934 0.34925
 C3593 C 0.30525 0.79448 0.34239
 C3594 C 0.31443 0.78307 0.34992
 C3595 C 0.27372 0.79867 0.37009
 C3596 C 0.26934 0.79349 0.38454
 C3597 C 0.27854 0.78281 0.39329
 C3598 C 0.29248 0.77703 0.38673
 C3599 C 0.30176 0.76651 0.39559
 C3600 C 0.29777 0.76202 0.41041
 C3601 C 0.28436 0.76769 0.41702
 C3602 C 0.27442 0.77799 0.40851
 C3603 C 0.26085 0.78320 0.41575
 C3604 C 0.25763 0.77880 0.43085
 C3605 C 0.26770 0.76898 0.43934
 C3606 C 0.28096 0.76327 0.43223
 H3607 H 0.31806 0.76837 0.36930
 H3608 H 0.28424 0.80800 0.34345
 H3609 H 0.32501 0.77899 0.34484
 H3610 H 0.26639 0.80708 0.36393
 H3611 H 0.25871 0.79837 0.38858
 H3612 H 0.31241 0.76168 0.39152
 H3613 H 0.30538 0.75410 0.41683
 H3614 H 0.25245 0.79078 0.41018
 H3615 H 0.24720 0.78330 0.43594
 H3616 H 0.28883 0.75559 0.43862
 C3617 C 0.31425 0.29272 0.87053
 C3618 C 0.29985 0.29805 0.87592
 C3619 C 0.29252 0.31065 0.86776
 C3620 C 0.29959 0.31778 0.85510
 C3621 C 0.31397 0.31255 0.85014
 C3622 C 0.32113 0.29987 0.85789
 C3623 C 0.27821 0.31619 0.87230
 C3624 C 0.27096 0.30965 0.88491
 C3625 C 0.27784 0.29731 0.89368
 C3626 C 0.29254 0.29141 0.88912
 C3627 C 0.29957 0.27928 0.89806
 C3628 C 0.29264 0.27322 0.91107
 C3629 C 0.27841 0.27889 0.91571
 C3630 C 0.27067 0.29087 0.90705
 C3631 C 0.25617 0.29605 0.91234
 C3632 C 0.25004 0.29005 0.92593
 C3633 C 0.25801 0.27856 0.93465
 C3634 C 0.27206 0.27283 0.92925
 H3635 H 0.32057 0.28306 0.87577
 H3636 H 0.29382 0.32749 0.84912
 H3637 H 0.33222 0.29549 0.85428
 H3638 H 0.27254 0.32578 0.86605
 H3639 H 0.25998 0.31476 0.88759
 H3640 H 0.31062 0.27429 0.89549
 H3641 H 0.29860 0.26407 0.91769
 H3642 H 0.24930 0.30487 0.90641
 H3643 H 0.23912 0.29465 0.92976
 H3644 H 0.27840 0.26396 0.93588
 C3645 C 0.42427 0.30363 0.86955
 C3646 C 0.43846 0.30902 0.86395
 C3647 C 0.44556 0.32159 0.87193
 C3648 C 0.43865 0.32831 0.88494
 C3649 C 0.42473 0.32259 0.89050
 C3650 C 0.41760 0.31028 0.88255
 C3651 C 0.45963 0.32726 0.86701
 C3652 C 0.46717 0.32036 0.85473
 C3653 C 0.46086 0.30748 0.84670
 C3654 C 0.44599 0.30214 0.85099
 C3655 C 0.43914 0.29010 0.84218
 C3656 C 0.44675 0.28308 0.83003
 C3657 C 0.46153 0.28758 0.82621
 C3658 C 0.46886 0.29981 0.83446
 C3659 C 0.48399 0.30365 0.83021
 C3660 C 0.49125 0.29598 0.81806
 C3661 C 0.48383 0.28409 0.80978
 C3662 C 0.46896 0.27992 0.81405
 H3663 H 0.41812 0.29402 0.86442
 H3664 H 0.44434 0.33782 0.89094
 H3665 H 0.40684 0.30557 0.88648
 H3666 H 0.46501 0.33703 0.87289
 H3667 H 0.47795 0.32552 0.85172
 H3668 H 0.42777 0.28588 0.84425
 H3669 H 0.44101 0.27387 0.82365
 H3670 H 0.49062 0.31248 0.83606
 H3671 H 0.50273 0.29952 0.81505
 H3672 H 0.46296 0.27084 0.80771
 C3673 C 0.93881 0.28944 0.38031
 C3674 C 0.95157 0.29632 0.37300
 C3675 C 0.95847 0.30939 0.38031
 C3676 C 0.95260 0.31538 0.39412
 C3677 C 0.93978 0.30862 0.40102
 C3678 C 0.93307 0.29551 0.39403
 C3679 C 0.97115 0.31656 0.37380
 C3680 C 0.97715 0.31119 0.36004
 C3681 C 0.97063 0.29837 0.35211
 C3682 C 0.95763 0.29078 0.35871
 C3683 C 0.95105 0.27802 0.35072
 C3684 C 0.95685 0.27286 0.33680
 C3685 C 0.96944 0.28013 0.33021
 C3686 C 0.97658 0.29295 0.33772
 C3687 C 0.98930 0.29988 0.33038
 C3688 C 0.99447 0.29441 0.31619
 C3689 C 0.98727 0.28182 0.30880
 C3690 C 0.97480 0.27468 0.31600
 H3691 H 0.93291 0.27938 0.37576
 H3692 H 0.95800 0.32549 0.39940
 H3693 H 0.92320 0.28995 0.39908
 H3694 H 0.97650 0.32652 0.37938
 H3695 H 0.98692 0.31749 0.35590
 H3696 H 0.94126 0.27175 0.35485
 H3697 H 0.95133 0.26307 0.33108
 H3698 H 0.99550 0.30962 0.33518
 H3699 H 1.00412 0.30020 0.31094
 H3700 H 0.96902 0.26497 0.31041
 C3701 C 0.44869 0.36991 0.83243
 C3702 C 0.44772 0.36790 0.81625
 C3703 C 0.43615 0.37652 0.80804
 C3704 C 0.42668 0.38736 0.81570
 C3705 C 0.42846 0.38986 0.83159
 C3706 C 0.43931 0.38077 0.83988
 C3707 C 0.43427 0.37448 0.79219
 C3708 C 0.44365 0.36413 0.78420
 C3709 C 0.45557 0.35554 0.79173
 C3710 C 0.45781 0.35770 0.80798
 C3711 C 0.47031 0.34991 0.81538
 C3712 C 0.48006 0.34007 0.80733
 C3713 C 0.47766 0.33731 0.79168
 C3714 C 0.46539 0.34492 0.78358
 C3715 C 0.46333 0.34125 0.76776
 C3716 C 0.47268 0.33006 0.76059
 C3717 C 0.48456 0.32238 0.76881
 C3718 C 0.48723 0.32649 0.78424
 H3719 H 0.45655 0.36329 0.83973
 H3720 H 0.41821 0.39419 0.80917
 H3721 H 0.44073 0.38214 0.85223
 H3722 H 0.42543 0.38100 0.78586
 H3723 H 0.44143 0.36340 0.77198
 H3724 H 0.47311 0.35137 0.82741
 H3725 H 0.48951 0.33437 0.81352
 H3726 H 0.45425 0.34630 0.76072
 H3727 H 0.47022 0.32702 0.74871
 H3728 H 0.49622 0.32051 0.79086
 C3729 C 0.97336 0.40272 0.30411
 C3730 C 0.96724 0.39447 0.29130
 C3731 C 0.95443 0.40132 0.28343
 C3732 C 0.94802 0.41562 0.28837
 C3733 C 0.95395 0.42339 0.30132
 C3734 C 0.96678 0.41687 0.30900
 C3735 C 0.94787 0.39377 0.27080
 C3736 C 0.95343 0.37928 0.26596
 C3737 C 0.96591 0.37170 0.27357
 C3738 C 0.97318 0.37959 0.28623
 C3739 C 0.98604 0.37230 0.29345
 C3740 C 0.99142 0.35767 0.28879
 C3741 C 0.98421 0.34964 0.27682
 C3742 C 0.97137 0.35647 0.26899
 C3743 C 0.96440 0.34761 0.25706
 C3744 C 0.96997 0.33268 0.25318
 C3745 C 0.98267 0.32603 0.26098
 C3746 C 0.98975 0.33466 0.27276
 H3747 H 0.98304 0.39846 0.31083
 H3748 H 0.93811 0.42051 0.28225
 H3749 H 0.97166 0.42259 0.31903
 H3750 H 0.93815 0.39904 0.26466
 H3751 H 0.94762 0.37435 0.25611
 H3752 H 0.99233 0.37758 0.30280
 H3753 H 1.00130 0.35252 0.29475
 H3754 H 0.95449 0.35170 0.25060
 H3755 H 0.96420 0.32629 0.24407
 H3756 H 0.99955 0.32967 0.27898
 C3757 C 0.30916 0.89358 0.46830
 C3758 C 0.29695 0.88470 0.46208
 C3759 C 0.29074 0.88957 0.44756
 C3760 C 0.29698 0.90240 0.43949
 C3761 C 0.30948 0.91063 0.44561
 C3762 C 0.31527 0.90621 0.46019
 C3763 C 0.27850 0.88144 0.44104
 C3764 C 0.27247 0.86832 0.44837
 C3765 C 0.27855 0.86266 0.46260
 C3766 C 0.29093 0.87106 0.46962
 C3767 C 0.29715 0.86529 0.48373
 C3768 C 0.29189 0.85156 0.49051
 C3769 C 0.28011 0.84305 0.48367
 C3770 C 0.27299 0.84861 0.46982
 C3771 C 0.26082 0.83962 0.46364
 C3772 C 0.25662 0.82535 0.47041
 C3773 C 0.26427 0.81952 0.48364
 C3774 C 0.27573 0.82871 0.49044
 H3775 H 0.31440 0.89107 0.47937
 H3776 H 0.29227 0.90576 0.42828
 H3777 H 0.32477 0.91243 0.46540
 H3778 H 0.27363 0.88514 0.43000
 H3779 H 0.26319 0.86269 0.44236
 H3780 H 0.30641 0.87091 0.48979
 H3781 H 0.29729 0.84744 0.50117
 H3782 H 0.25442 0.84310 0.45343
 H3783 H 0.24759 0.81865 0.46495
 H3784 H 0.28168 0.82446 0.50075
 C3785 C 0.31826 0.38234 0.95965
 C3786 C 0.30296 0.37844 0.95576
 C3787 C 0.29601 0.38642 0.94297
 C3788 C 0.30414 0.39776 0.93455
 C3789 C 0.31928 0.40145 0.93862
 C3790 C 0.32618 0.39362 0.95125
 C3791 C 0.28099 0.38303 0.93859
 C3792 C 0.27272 0.37165 0.94639
 C3793 C 0.27917 0.36312 0.95901
 C3794 C 0.29445 0.36677 0.96394
 C3795 C 0.30078 0.35851 0.97678
 C3796 C 0.29282 0.34664 0.98412
 C3797 C 0.27820 0.34250 0.97908
 C3798 C 0.27099 0.35082 0.96666
 C3799 C 0.25608 0.34608 0.96215
 C3800 C 0.24917 0.33306 0.96902
 C3801 C 0.25672 0.32444 0.98076
 C3802 C 0.27102 0.32962 0.98610
 H3803 H 0.32456 0.37686 0.96905
 H3804 H 0.29862 0.40376 0.92484
 H3805 H 0.33788 0.39613 0.95469
 H3806 H 0.27557 0.38916 0.92890
 H3807 H 0.26126 0.36977 0.94212
 H3808 H 0.31202 0.36080 0.98145
 H3809 H 0.29832 0.34041 0.99371
 H3810 H 0.24958 0.35182 0.95303
 H3811 H 0.23806 0.32941 0.96470
 H3812 H 0.27704 0.32306 0.99515
 C3813 C 0.78347 0.35987 0.30540
 C3814 C 0.79076 0.36947 0.29434
 C3815 C 0.80544 0.36454 0.28928
 C3816 C 0.81251 0.35078 0.29536
 C3817 C 0.80525 0.34168 0.30663
 C3818 C 0.79060 0.34633 0.31139
 C3819 C 0.81310 0.37348 0.27831
 C3820 C 0.80671 0.38739 0.27243
 C3821 C 0.79229 0.39304 0.27732
 C3822 C 0.78411 0.38384 0.28835
 C3823 C 0.76965 0.38942 0.29319
 C3824 C 0.76354 0.40363 0.28782
 C3825 C 0.77147 0.41289 0.27735
 C3826 C 0.78586 0.40771 0.27176
 C3827 C 0.79326 0.41760 0.26099
 C3828 C 0.78684 0.43210 0.25642
 C3829 C 0.77280 0.43732 0.26232
 C3830 C 0.76510 0.42748 0.27264
 H3831 H 0.77228 0.36249 0.30984
 H3832 H 0.82382 0.34733 0.29151
 H3833 H 0.78457 0.33953 0.31997
 H3834 H 0.82427 0.36974 0.27431
 H3835 H 0.81352 0.39354 0.26411
 H3836 H 0.76271 0.38317 0.30131
 H3837 H 0.75249 0.40748 0.29205
 H3838 H 0.80411 0.41462 0.25597
 H3839 H 0.79308 0.43936 0.24839
 H3840 H 0.75420 0.43128 0.27727
   
