data_POSCAR
  _audit_creation_date              2014-09-24
  _audit_creation_method            'ToBaCCo'
  _symmetry_space_group_name_H-M    'P1'
  _symmetry_Int_Tables_number       1
  _symmetry_cell_setting            triclinic
  loop_
  _symmetry_equiv_pos_as_xyz
 x,y,z
_cell_length_a 74.7918
_cell_length_b 74.7183
_cell_length_c 74.6866
_cell_angle_alpha 90.038300
_cell_angle_beta 90.064100
_cell_angle_gamma 90.058500
loop_
  _atom_site_label
  _atom_site_type_symbol
  _atom_site_fract_x
  _atom_site_fract_y
  _atom_site_fract_z
C1 C 0.30620 0.44396 0.92263
 N2 N 0.32141 0.45101 0.92968
 C3 C 0.32914 0.44349 0.94434
 N4 N 0.32154 0.42880 0.95191
 C5 C 0.30633 0.42167 0.94495
 N6 N 0.29874 0.42925 0.93027
 C7 C 0.44345 0.83036 0.44301
 N8 N 0.42887 0.82258 0.45059
 C9 C 0.42158 0.80759 0.44330
 N10 N 0.42888 0.80042 0.42828
 C11 C 0.44347 0.80807 0.42063
 N12 N 0.45069 0.82305 0.42801
 C13 C 0.94305 0.92117 0.80683
 N14 N 0.95066 0.92871 0.82154
 C15 C 0.94342 0.94359 0.82908
 N16 N 0.92843 0.95087 0.82181
 C17 C 0.92074 0.94342 0.80710
 N18 N 0.92807 0.92854 0.79969
 C19 C 0.44209 -0.08044 0.30729
 N20 N 0.44943 -0.07299 0.32220
 C21 C 0.44209 -0.05814 0.32967
 N22 N 0.42727 -0.05075 0.32220
 C23 C 0.41986 -0.05806 0.30728
 N24 N 0.42727 -0.07292 0.29990
 C25 C 0.80622 0.30547 0.32772
 N26 N 0.82128 0.29823 0.32060
 C27 C 0.82894 0.30561 0.30587
 N28 N 0.82151 0.32037 0.29830
 C29 C 0.80645 0.32769 0.30533
 N30 N 0.79889 0.32023 0.32008
 C31 C -0.19247 0.83069 0.80706
 N32 N -0.17753 0.82327 0.79986
 C33 C -0.17027 0.80828 0.80713
 N34 N -0.17799 0.80074 0.82175
 C35 C -0.19293 0.80803 0.82907
 N36 N -0.20010 0.82302 0.82168
 C37 C 0.94347 0.32869 0.44321
 N38 N 0.92885 0.32099 0.45076
 C39 C 0.92152 0.30603 0.44345
 N40 N 0.92882 0.29884 0.42844
 C41 C 0.94344 0.30646 0.42081
 N42 N 0.95070 0.32140 0.42821
 C43 C 0.44353 0.44313 0.82965
 N44 N 0.45071 0.42819 0.82217
 C45 C 0.44342 0.42097 0.80714
 N46 N 0.42883 0.42873 0.79961
 C47 C 0.42159 0.44368 0.80695
 N48 N 0.42894 0.45081 0.82198
 C49 C 0.80626 0.92170 0.94416
 N50 N 0.82108 0.92926 0.95155
 C51 C 0.82860 0.94406 0.94411
 N52 N 0.82120 0.95128 0.92913
 C53 C 0.80638 0.94385 0.92166
 N54 N 0.79899 0.92905 0.92919
 C55 C 0.30774 0.83035 0.30699
 N56 N 0.32265 0.82289 0.29976
 C57 C 0.32987 0.80787 0.30702
 N58 N 0.32214 0.80032 0.32163
 C59 C 0.30721 0.80764 0.32892
 N60 N 0.30009 0.82267 0.32160
 C61 C 0.80586 0.42241 0.44446
 N62 N 0.82096 0.42969 0.45153
 C63 C 0.82844 0.44445 0.44400
 N64 N 0.82080 0.45186 0.42927
 C65 C 0.80571 0.44468 0.42212
 N66 N 0.79832 0.42991 0.42972
 C67 C 0.94459 0.82827 -0.05657
 N68 N 0.92989 0.82056 -0.04916
 C69 C 0.92244 0.80578 -0.05668
 N70 N 0.92970 0.79873 -0.07178
 C71 C 0.94439 0.80633 -0.07933
 N72 N 0.95178 0.82110 -0.07167
 C73 C 0.30569 0.32762 0.80593
 N74 N 0.29814 0.32007 0.82063
 C75 C 0.30556 0.30533 0.82824
 N76 N 0.32068 0.29822 0.82113
 C77 C 0.32832 0.30570 0.80643
 N78 N 0.32080 0.32043 0.79890
 C79 C 0.17171 0.55683 0.55665
 N80 N 0.17900 0.54950 0.57161
 C81 C 0.19359 0.55706 0.57939
 N82 N 0.20083 0.57210 0.57219
 C83 C 0.19362 0.57952 0.55724
 N84 N 0.17903 0.57187 0.54955
 C85 C 0.57886 0.69399 0.05553
 N86 N 0.57137 0.70157 0.07025
 C87 C 0.55627 0.69453 0.07751
 N88 N 0.54874 0.67976 0.07002
 C89 C 0.55614 0.67211 0.05530
 N90 N 0.57124 0.67923 0.04812
 C91 C 0.69399 0.19455 0.67192
 N92 N 0.67929 0.20198 0.67954
 C93 C 0.67219 0.19484 0.69467
 N94 N 0.67981 0.18012 0.70211
 C95 C 0.69452 0.17261 0.69457
 N96 N 0.70153 0.17983 0.67944
 C97 C 1.07872 0.05520 0.19342
 N98 N 1.07104 0.06987 0.20093
 C99 C 1.05625 0.07733 0.19346
 N100 N 1.04920 0.07011 0.17833
 C101 C 1.05677 0.05546 0.17068
 N102 N 1.07153 0.04806 0.17829
 C103 C 0.05697 0.16926 1.05747
 N104 N 0.04952 0.17705 1.07211
 C105 C 0.05683 0.19206 1.07936
 N106 N 0.07174 0.19926 1.07186
 C107 C 0.07927 0.19160 1.05721
 N108 N 0.07188 0.17659 1.05008
 C109 C 0.17170 0.69377 0.69386
 N110 N 0.17898 0.67875 0.70101
 C111 C 0.19359 0.67112 0.69341
 N112 N 0.20086 0.67854 0.67850
 C113 C 0.19366 0.69357 0.67125
 N114 N 0.17904 0.70111 0.67894
 C115 C 1.19430 0.17094 0.19342
 N116 N 1.17962 0.17850 0.20100
 C117 C 1.17208 0.19332 0.19368
 N118 N 1.17923 0.20055 0.17862
 C119 C 1.19390 0.19311 0.17091
 N120 N 1.20138 0.17830 0.17837
 C121 C 0.67221 1.05674 0.55563
 N122 N 0.67974 1.04916 0.57034
 C123 C 0.69447 1.05658 0.57799
 N124 N 0.70159 1.07174 0.57094
 C125 C 0.69413 1.07946 0.55625
 N126 N 0.67942 1.07190 0.54866
 C127 C 0.55612 0.55566 0.17226
 N128 N 0.54865 0.57043 0.17975
 C129 C 0.55612 0.57809 0.19447
 N130 N 0.57123 0.57097 0.20162
 C131 C 0.57880 0.55620 0.19420
 N132 N 0.57123 0.54862 0.17949
 C133 C 0.67134 0.69332 0.19269
 N134 N 0.67860 0.70065 0.17773
 C135 C 0.69318 0.69311 0.16996
 N136 N 0.70043 0.67809 0.17717
 C137 C 0.69324 0.67067 0.19213
 N138 N 0.67866 0.67829 0.19981
 C139 C 0.16979 0.05634 1.05683
 N140 N 0.17746 0.04868 1.07144
 C141 C 0.19245 0.05585 1.07885
 N142 N 0.19975 0.07082 1.07155
 C143 C 0.19220 0.07857 1.05694
 N144 N 0.17721 0.07131 1.04965
 C145 C 0.57786 0.19508 0.55550
 N146 N 0.57037 0.20258 0.57027
 C147 C 0.55529 0.19548 0.57750
 N148 N 0.54778 0.18073 0.56995
 C149 C 0.55517 0.17317 0.55518
 N150 N 0.57025 0.18035 0.54803
 C151 C 0.07849 0.55605 0.69454
 N152 N 0.07086 0.57080 0.70193
 C153 C 0.05582 0.57794 0.69466
 N154 N 0.04848 0.57032 0.67986
 C155 C 0.05602 0.55557 0.67240
 N156 N 0.07106 0.54851 0.67974
 C157 C 0.67172 0.55663 0.05577
 N158 N 0.67906 0.57160 0.04853
 C159 C 0.69373 0.57923 0.05610
 N160 N 0.70100 0.57187 0.07105
 C161 C 0.69374 0.55690 0.07837
 N162 N 0.67907 0.54936 0.07072
 C163 C 0.05620 0.69469 0.57771
 N164 N 0.07129 0.70178 0.57048
 C165 C 0.07881 0.69425 0.55575
 N166 N 0.07121 0.67950 0.54829
 C167 C 0.05612 0.67233 0.55543
 N168 N 0.04869 0.67993 0.57017
 C169 C 0.55501 1.05502 0.67216
 N170 N 0.56982 1.04768 0.67975
 C171 C 0.57712 1.05501 0.69472
 N172 N 0.56959 1.06981 0.70208
 C173 C 0.55477 1.07722 0.69464
 N174 N 0.54755 1.06982 0.67966
 C175 C 0.44283 0.32958 0.94352
 N176 N 0.45018 0.32221 0.92860
 C177 C 0.44306 0.30716 0.92126
 N178 N 0.42846 0.29951 0.92887
 C179 C 0.42104 0.30673 0.94380
 N180 N 0.42824 0.32179 0.95105
 C181 C 0.94320 0.44207 0.32994
 N182 N 0.92864 0.44973 0.32221
 C183 C 0.92138 0.44262 0.30712
 N184 N 0.92870 0.42770 0.29978
 C185 C 0.94327 0.41995 0.30738
 N186 N 0.95046 0.42716 0.32247
 C187 C 0.30775 0.94366 0.42031
 N188 N 0.30020 0.92912 0.42816
 C189 C 0.30753 0.92192 0.44315
 N190 N 0.32258 0.92927 0.45022
 C191 C 0.33027 0.94381 0.44246
 N192 N 0.32279 0.95095 0.42748
 O193 O 0.29756 0.49903 0.77385
 O194 O 0.29180 0.52960 0.77145
 O195 O 0.25069 0.47737 0.79838
 O196 O 0.22120 0.47687 0.79305
 O197 O 0.27283 0.45229 0.75147
 O198 O 0.27152 0.45890 0.72027
 O199 O 0.20323 0.52352 0.74970
 O200 O 0.20826 0.52007 0.78014
 O201 O 0.24863 0.54680 0.72750
 O202 O 0.28084 0.54062 0.72877
 O203 O 0.22689 0.50137 0.70376
 O204 O 0.22777 0.46933 0.70992
 O205 O 0.20318 0.50197 0.72810
 O206 O 0.20966 0.46883 0.72980
 O207 O 0.24852 0.52278 0.70365
 O208 O 0.28142 0.52082 0.71046
 O209 O 0.22682 0.54674 0.74871
 O210 O 0.23274 0.54097 0.78112
 O211 O 0.29769 0.47776 0.75192
 O212 O 0.29100 0.47915 0.72015
 O213 O 0.25129 0.45217 0.77298
 O214 O 0.21901 0.45947 0.77014
 O215 O 0.27259 0.49856 0.79833
 O216 O 0.26858 0.53081 0.79128
 Zr217 Zr 0.27160 0.50974 0.77245
 O218 O 0.25606 0.52690 0.75641
 Zr219 Zr 0.24026 0.47810 0.77220
 O220 O 0.22318 0.49423 0.75665
 Zr221 Zr 0.27174 0.47834 0.74084
 O222 O 0.25583 0.49400 0.72363
 Zr223 Zr 0.22892 0.52142 0.76083
 O224 O 0.24437 0.50535 0.77831
 Zr225 Zr 0.26021 0.52121 0.72922
 O226 O 0.27753 0.50553 0.74518
 Zr227 Zr 0.22863 0.48989 0.72941
 O228 O 0.24455 0.47230 0.74495
 O229 O 0.26727 0.48262 0.76790
 O230 O 0.23306 0.51705 0.73358
 C231 C 0.30522 0.48668 0.76462
 C232 C 0.26335 0.48623 0.80597
 C233 C 0.26378 0.44462 0.76391
 C234 C 0.19577 0.51480 0.73687
 C235 C 0.23566 0.55419 0.73599
 C236 C 0.23566 0.51411 0.69625
 H237 H 0.25891 0.53949 0.75935
 H238 H 0.25869 0.49100 0.71106
 H239 H 0.27488 0.47497 0.77556
 H240 H 0.21059 0.49156 0.75968
 H241 H 0.21392 0.51623 0.79149
 H242 H 0.21197 0.48592 0.79031
 H243 H 0.27935 0.51068 0.70219
 H244 H 0.29709 0.49088 0.72113
 H245 H 0.22256 0.54944 0.78058
 H246 H 0.27808 0.52973 0.80050
 H247 H 0.23902 0.46992 0.70299
 H248 H 0.25952 0.45331 0.72051
 H249 H 0.29684 0.52929 0.75921
 H250 H 0.27981 0.54790 0.73978
 H251 H 0.22109 0.45243 0.75911
 H252 H 0.20134 0.47106 0.73985
 O253 O 0.22634 0.00038 0.20173
 O254 O 0.22887 -0.03018 0.20766
 O255 O 0.20200 0.02221 0.24862
 O256 O 0.20742 0.02281 0.27813
 O257 O 0.24871 0.04729 0.22617
 O258 O 0.27989 0.04075 0.22738
 O259 O 0.25096 -0.02359 0.29622
 O260 O 0.22049 -0.02023 0.29131
 O261 O 0.27298 -0.04703 0.25084
 O262 O 0.27152 -0.04103 0.21852
 O263 O 0.29661 -0.00147 0.27227
 O264 O 0.29037 0.03063 0.27113
 O265 O 0.27247 -0.00198 0.29605
 O266 O 0.27065 0.03110 0.28944
 O267 O 0.29670 -0.02299 0.25072
 O268 O 0.28978 -0.02118 0.21777
 O269 O 0.25189 -0.04691 0.27276
 O270 O 0.21947 -0.04128 0.26692
 O271 O 0.24818 0.02172 0.20141
 O272 O 0.27994 0.02041 0.20796
 O273 O 0.22731 0.04745 0.24782
 O274 O 0.23026 0.04032 0.28016
 O275 O 0.20201 0.00090 0.22680
 O276 O 0.20913 -0.03131 0.23099
 Zr277 Zr 0.22788 -0.01021 0.22777
 O278 O 0.24401 -0.02725 0.24337
 Zr279 Zr 0.22817 0.02158 0.25899
 O280 O 0.24382 0.00559 0.27613
 Zr281 Zr 0.25938 0.02127 0.22734
 O282 O 0.27667 0.00573 0.24328
 Zr283 Zr 0.23969 -0.02164 0.27055
 O284 O 0.22213 -0.00571 0.25504
 Zr285 Zr 0.27113 -0.02151 0.23908
 O286 O 0.25508 -0.00597 0.22171
 Zr287 Zr 0.27099 0.00998 0.27053
 O288 O 0.25535 0.02744 0.25455
 O289 O 0.23238 0.01693 0.23196
 O290 O 0.26686 -0.01721 0.26626
 C291 C 0.23548 0.01274 0.19397
 C292 C 0.19440 0.01328 0.23600
 C293 C 0.23630 0.05498 0.23524
 C294 C 0.26381 -0.01481 0.30357
 C295 C 0.26458 -0.05436 0.26392
 C296 C 0.30409 -0.01426 0.26357
 H297 H 0.24109 -0.03987 0.24061
 H298 H 0.28920 0.00874 0.24037
 H299 H 0.22469 0.02454 0.22432
 H300 H 0.24085 0.00832 0.28873
 H301 H 0.20912 -0.01646 0.28566
 H302 H 0.21025 0.01387 0.28746
 H303 H 0.29804 -0.01103 0.21977
 H304 H 0.27898 0.00864 0.20194
 H305 H 0.22008 -0.04969 0.27717
 H306 H 0.19990 -0.03030 0.22149
 H307 H 0.29738 0.02986 0.25993
 H308 H 0.27970 0.04638 0.23938
 H309 H 0.24107 -0.02984 0.20254
 H310 H 0.26057 -0.04836 0.21968
 H311 H 0.24127 0.04736 0.27802
 H312 H 0.26063 0.02891 0.29779
 O313 O 0.54789 0.72728 0.24880
 O314 O 0.54212 0.72987 0.27940
 O315 O 0.50105 0.70261 0.22720
 O316 O 0.47158 0.70787 0.22661
 O317 O 0.52321 0.74948 0.20200
 O318 O 0.52193 0.78069 0.20856
 O319 O 0.45356 0.75140 0.27321
 O320 O 0.45854 0.72094 0.26977
 O321 O 0.49890 0.77372 0.29647
 O322 O 0.53111 0.77254 0.29032
 O323 O 0.47716 0.79721 0.25093
 O324 O 0.47816 0.79093 0.21886
 O325 O 0.45353 0.77290 0.25158
 O326 O 0.46002 0.77100 0.21841
 O327 O 0.49873 0.79746 0.27241
 O328 O 0.53168 0.79078 0.27045
 O329 O 0.47710 0.75246 0.29643
 O330 O 0.48302 0.72006 0.29072
 O331 O 0.54805 0.74911 0.22747
 O332 O 0.54138 0.78089 0.22887
 O333 O 0.50169 0.72791 0.20192
 O334 O 0.46939 0.73071 0.20917
 O335 O 0.52292 0.70279 0.24844
 O336 O 0.51891 0.70998 0.28067
 Zr337 Zr 0.52193 0.72871 0.25953
 O338 O 0.50636 0.74478 0.27663
 Zr339 Zr 0.49062 0.72876 0.22784
 O340 O 0.47351 0.74432 0.24390
 Zr341 Zr 0.52211 0.76019 0.22804
 O342 O 0.50617 0.77742 0.24363
 Zr343 Zr 0.47922 0.74027 0.27112
 O344 O 0.49471 0.72277 0.25511
 Zr345 Zr 0.51050 0.77195 0.27088
 O346 O 0.52785 0.75597 0.25527
 Zr347 Zr 0.47897 0.77154 0.23949
 O348 O 0.49492 0.75598 0.22197
 O349 O 0.51762 0.73314 0.23239
 O350 O 0.48337 0.76749 0.26668
 C351 C 0.55555 0.73644 0.23641
 C352 C 0.51369 0.69508 0.23611
 C353 C 0.51419 0.73698 0.19435
 C354 C 0.44612 0.76421 0.26447
 C355 C 0.48592 0.76522 0.30386
 C356 C 0.48585 0.80476 0.26371
 H357 H 0.50919 0.74189 0.28924
 H358 H 0.50901 0.78998 0.24061
 H359 H 0.52523 0.72546 0.22475
 H360 H 0.46092 0.74126 0.24123
 H361 H 0.46421 0.70958 0.26598
 H362 H 0.46233 0.71061 0.23565
 H363 H 0.52958 0.79903 0.26031
 H364 H 0.54746 0.77995 0.24061
 H365 H 0.47282 0.72060 0.29918
 H366 H 0.52842 0.70079 0.27963
 H367 H 0.48936 0.79795 0.21951
 H368 H 0.50992 0.78042 0.20296
 H369 H 0.54720 0.74210 0.27901
 H370 H 0.53011 0.76153 0.29759
 H371 H 0.47149 0.74171 0.20209
 H372 H 0.45166 0.76099 0.22070
 O373 O 0.00104 0.70267 0.72676
 O374 O -0.02948 0.70849 0.72910
 O375 O 0.02277 0.74957 0.70219
 O376 O 0.02333 0.77907 0.70748
 O377 O 0.04775 0.72738 0.74913
 O378 O 0.04113 0.72874 0.78035
 O379 O -0.02329 0.79716 0.75073
 O380 O -0.01979 0.79209 0.72028
 O381 O -0.04665 0.75187 0.77299
 O382 O -0.04057 0.71960 0.77178
 O383 O -0.00119 0.77350 0.79674
 O384 O 0.03078 0.77258 0.79062
 O385 O -0.00180 0.79720 0.77238
 O386 O 0.03133 0.79066 0.77066
 O387 O -0.02263 0.75190 0.79688
 O388 O -0.02078 0.71895 0.79008
 O389 O -0.04650 0.77365 0.75172
 O390 O -0.04075 0.76763 0.71934
 O391 O 0.02227 0.70254 0.74871
 O392 O 0.02086 0.70927 0.78047
 O393 O 0.04791 0.74892 0.72760
 O394 O 0.04068 0.78125 0.73041
 O395 O 0.00157 0.72767 0.70221
 O396 O -0.03066 0.73172 0.70924
 Zr397 Zr -0.00961 0.72868 0.72809
 O398 O -0.02675 0.74429 0.74410
 Zr399 Zr 0.02203 0.76001 0.72835
 O400 O 0.00595 0.77716 0.74385
 Zr401 Zr 0.02172 0.72853 0.75975
 O402 O 0.00609 0.74450 0.77692
 Zr403 Zr -0.02121 0.77145 0.73963
 O404 O -0.00518 0.75592 0.72220
 Zr405 Zr -0.02110 0.74018 0.77131
 O406 O -0.00546 0.72279 0.75539
 Zr407 Zr 0.01026 0.77172 0.77109
 O408 O 0.02781 0.75573 0.75560
 O409 O 0.01747 0.73299 0.73268
 O410 O -0.01688 0.76734 0.76689
 C411 C 0.01336 0.69499 0.73602
 C412 C 0.01391 0.73691 0.69459
 C413 C 0.05543 0.73640 0.73668
 C414 C -0.01460 0.80462 0.76358
 C415 C -0.05397 0.76487 0.76446
 C416 C -0.01392 0.76476 0.80426
 H417 H -0.03933 0.74147 0.74114
 H418 H 0.00907 0.74165 0.78949
 H419 H 0.02511 0.72534 0.72504
 H420 H 0.00864 0.78975 0.74080
 H421 H -0.01598 0.78639 0.70894
 H422 H 0.01430 0.78833 0.71019
 H423 H -0.01064 0.72100 0.79835
 H424 H 0.00913 0.70320 0.77949
 H425 H -0.04918 0.77786 0.71984
 H426 H -0.02957 0.72221 0.70003
 H427 H 0.03022 0.76130 0.79751
 H428 H 0.04677 0.74073 0.78006
 H429 H -0.02924 0.70350 0.74137
 H430 H -0.04782 0.72063 0.76075
 H431 H 0.04773 0.77916 0.74144
 H432 H 0.02908 0.79903 0.76065
 O433 O -0.02332 -0.04824 -0.00109
 O434 O -0.02086 -0.04256 0.02953
 O435 O -0.04794 -0.00125 -0.02248
 O436 O -0.04267 0.02827 -0.02283
 O437 O -0.00116 -0.02328 -0.04772
 O438 O 0.03004 -0.02193 -0.04113
 O439 O 0.00078 0.04615 0.02391
 O440 O -0.02965 0.04112 0.02041
 O441 O 0.02304 0.00070 0.04693
 O442 O 0.02180 -0.03152 0.04061
 O443 O 0.04656 0.02261 0.00152
 O444 O 0.04030 0.02180 -0.03053
 O445 O 0.02228 0.04627 0.00232
 O446 O 0.02042 0.03994 -0.03088
 O447 O 0.04679 0.00091 0.02285
 O448 O 0.04001 -0.03204 0.02075
 O449 O 0.00181 0.02248 0.04699
 O450 O -0.03056 0.01654 0.04121
 O451 O -0.00148 -0.04824 -0.02239
 O452 O 0.03023 -0.04151 -0.02098
 O453 O -0.02267 -0.00176 -0.04770
 O454 O -0.01983 0.03055 -0.04025
 O455 O -0.04783 -0.02325 -0.00140
 O456 O -0.04069 -0.01935 0.03088
 Zr457 Zr -0.02195 -0.02227 0.00976
 O458 O -0.00589 -0.00674 0.02700
 Zr459 Zr -0.02182 0.00922 -0.02171
 O460 O -0.00627 0.02629 -0.00552
 Zr461 Zr 0.00955 -0.02226 -0.02167
 O462 O 0.02675 -0.00637 -0.00594
 Zr463 Zr -0.01035 0.02045 0.02166
 O464 O -0.02784 0.00499 0.00553
 Zr465 Zr 0.02126 -0.01083 0.02127
 O466 O 0.00529 -0.02814 0.00551
 Zr467 Zr 0.02092 0.02087 -0.00993
 O468 O 0.00537 0.00497 -0.02758
 O469 O -0.01747 -0.01783 -0.01734
 O470 O 0.01684 0.01635 0.01723
 C471 C -0.01412 -0.05584 -0.01350
 C472 C -0.05549 -0.01396 -0.01369
 C473 C -0.01364 -0.01424 -0.05533
 C474 C 0.01359 0.05364 0.01522
 C475 C 0.01455 0.01364 0.05439
 C476 C 0.05411 0.01383 0.01422
 H477 H -0.00879 -0.00964 0.03958
 H478 H 0.03930 -0.00919 -0.00897
 H479 H -0.02513 -0.02544 -0.02502
 H480 H -0.00931 0.03890 -0.00812
 H481 H -0.04100 0.03545 0.01656
 H482 H -0.03990 0.03750 -0.01376
 H483 H 0.04825 -0.02992 0.01062
 H484 H 0.02930 -0.04764 -0.00927
 H485 H -0.03002 0.02671 0.04973
 H486 H -0.04989 -0.02886 0.02975
 H487 H 0.04726 0.01057 -0.02998
 H488 H 0.02973 -0.00991 -0.04670
 H489 H -0.00862 -0.04757 0.02920
 H490 H 0.01081 -0.03055 0.04788
 H491 H -0.00884 0.02849 -0.04734
 H492 H 0.01041 0.04827 -0.02857
 O493 O 0.04793 0.52316 0.50074
 O494 O 0.04213 0.52063 0.47015
 O495 O 0.00111 0.54777 0.52231
 O496 O -0.02836 0.54246 0.52288
 O497 O 0.02329 0.50094 0.54752
 O498 O 0.02196 0.46974 0.54097
 O499 O -0.04647 0.49904 0.47629
 O500 O -0.04138 0.52946 0.47963
 O501 O -0.00118 0.47664 0.45304
 O502 O 0.03105 0.47793 0.45917
 O503 O -0.02281 0.45314 0.49853
 O504 O -0.02187 0.45938 0.53055
 O505 O -0.04650 0.47750 0.49788
 O506 O -0.03991 0.47933 0.53105
 O507 O -0.00121 0.45291 0.47713
 O508 O 0.03170 0.45973 0.47906
 O509 O -0.02297 0.49786 0.45305
 O510 O -0.01695 0.53029 0.45871
 O511 O 0.04809 0.50132 0.52206
 O512 O 0.04139 0.46955 0.52069
 O513 O 0.00177 0.52246 0.54759
 O514 O -0.03054 0.51963 0.54029
 O515 O 0.02297 0.54765 0.50112
 O516 O 0.01891 0.54047 0.46887
 Zr517 Zr 0.02196 0.52173 0.49001
 O518 O 0.00637 0.50564 0.47287
 Zr519 Zr -0.00932 0.52161 0.52165
 O520 O -0.02645 0.50604 0.50556
 Zr521 Zr 0.02214 0.49024 0.52148
 O522 O 0.00618 0.47299 0.50586
 Zr523 Zr -0.02076 0.51011 0.47834
 O524 O -0.00526 0.52762 0.49438
 Zr525 Zr 0.01050 0.47848 0.47862
 O526 O 0.02786 0.49448 0.49426
 Zr527 Zr -0.02102 0.47882 0.50996
 O528 O -0.00504 0.49439 0.52752
 O529 O 0.01767 0.51728 0.51714
 O530 O -0.01665 0.48289 0.48277
 C531 C 0.05560 0.51399 0.51313
 C532 C 0.01375 0.55533 0.51343
 C533 C 0.01427 0.51341 0.55518
 C534 C -0.05393 0.48626 0.48505
 C535 C -0.01418 0.48510 0.44564
 C536 C -0.01407 0.44558 0.48582
 H537 H 0.00919 0.50853 0.46026
 H538 H 0.00902 0.46044 0.50888
 H539 H 0.02530 0.52496 0.52479
 H540 H -0.03903 0.50909 0.50822
 H541 H -0.03567 0.54082 0.48344
 H542 H -0.03757 0.53975 0.51377
 H543 H 0.02965 0.45150 0.48922
 H544 H 0.04748 0.47051 0.50896
 H545 H -0.02715 0.52972 0.45023
 H546 H 0.02842 0.54968 0.46994
 H547 H -0.01060 0.45249 0.53001
 H548 H 0.00997 0.47000 0.54656
 H549 H 0.04714 0.50838 0.47048
 H550 H 0.03002 0.48892 0.45188
 H551 H -0.02844 0.50865 0.54739
 H552 H -0.04825 0.48934 0.52878
 O553 O 0.54765 0.02377 0.50094
 O554 O 0.54188 0.02128 0.47038
 O555 O 0.50073 0.04826 0.52251
 O556 O 0.47129 0.04286 0.52315
 O557 O 0.52303 0.00143 0.54770
 O558 O 0.52178 -0.02976 0.54110
 O559 O 0.45335 -0.00052 0.47633
 O560 O 0.45834 0.02993 0.47983
 O561 O 0.49865 -0.02275 0.45315
 O562 O 0.53090 -0.02142 0.45933
 O563 O 0.47704 -0.04638 0.49860
 O564 O 0.47789 -0.04020 0.53059
 O565 O 0.45332 -0.02209 0.49788
 O566 O 0.45985 -0.02021 0.53113
 O567 O 0.49863 -0.04652 0.47719
 O568 O 0.53152 -0.03969 0.47917
 O569 O 0.47685 -0.00154 0.45319
 O570 O 0.48280 0.03088 0.45894
 O571 O 0.54787 0.00189 0.52222
 O572 O 0.54118 -0.02991 0.52081
 O573 O 0.50149 0.02292 0.54779
 O574 O 0.46916 0.01999 0.54046
 O575 O 0.52261 0.04821 0.50134
 O576 O 0.51863 0.04105 0.46909
 Zr577 Zr 0.52169 0.02230 0.49021
 O578 O 0.50614 0.00622 0.47303
 Zr579 Zr 0.49039 0.02207 0.52185
 O580 O 0.47329 0.00651 0.50570
 Zr581 Zr 0.52192 -0.00924 0.52163
 O582 O 0.50598 -0.02648 0.50598
 Zr583 Zr 0.47901 0.01064 0.47850
 O584 O 0.49446 0.02814 0.49459
 Zr585 Zr 0.51031 -0.02095 0.47875
 O586 O 0.52764 -0.00494 0.49443
 Zr587 Zr 0.47876 -0.02071 0.51006
 O588 O 0.49472 -0.00515 0.52766
 O589 O 0.51740 0.01780 0.51734
 O590 O 0.48316 -0.01658 0.48289
 C591 C 0.55536 0.01458 0.51329
 C592 C 0.51335 0.05586 0.51363
 C593 C 0.51399 0.01387 0.55537
 C594 C 0.44591 -0.01336 0.48501
 C595 C 0.48565 -0.01429 0.44577
 C596 C 0.48577 -0.05390 0.48586
 H597 H 0.50897 0.00913 0.46043
 H598 H 0.50884 -0.03903 0.50898
 H599 H 0.52501 0.02549 0.52499
 H600 H 0.46070 0.00953 0.50835
 H601 H 0.46401 0.04130 0.48365
 H602 H 0.46214 0.04021 0.51398
 H603 H 0.52948 -0.04793 0.48932
 H604 H 0.54728 -0.02892 0.50909
 H605 H 0.47261 0.03032 0.45045
 H606 H 0.52811 0.05029 0.47017
 H607 H 0.48921 -0.04700 0.53012
 H608 H 0.50978 -0.02954 0.54668
 H609 H 0.54689 0.00903 0.47066
 H610 H 0.52982 -0.01045 0.45202
 H611 H 0.47131 0.00901 0.54756
 H612 H 0.45142 -0.01030 0.52878
 O613 O 0.50095 0.54741 0.02318
 O614 O 0.47039 0.54159 0.02081
 O615 O 0.52259 0.50054 0.04781
 O616 O 0.52314 0.47104 0.04255
 O617 O 0.54754 0.52268 0.00083
 O618 O 0.54085 0.52127 -0.03038
 O619 O 0.47632 0.45288 -0.00072
 O620 O 0.47993 0.45796 0.02973
 O621 O 0.45304 0.49818 -0.02298
 O622 O 0.45920 0.53043 -0.02185
 O623 O 0.49843 0.47649 -0.04671
 O624 O 0.53041 0.47740 -0.04056
 O625 O 0.49779 0.45283 -0.02235
 O626 O 0.53095 0.45934 -0.02058
 O627 O 0.47703 0.49808 -0.04688
 O628 O 0.47896 0.53103 -0.04014
 O629 O 0.45316 0.47644 -0.00167
 O630 O 0.45906 0.48245 0.03070
 O631 O 0.52213 0.54751 0.00122
 O632 O 0.52061 0.54073 -0.03053
 O633 O 0.54771 0.50119 0.02241
 O634 O 0.54041 0.46883 0.01962
 O635 O 0.50143 0.52243 0.04775
 O636 O 0.46920 0.51840 0.04071
 Zr637 Zr 0.49022 0.52140 0.02186
 O638 O 0.47303 0.50576 0.00588
 Zr639 Zr 0.52181 0.49007 0.02166
 O640 O 0.50566 0.47289 0.00619
 Zr641 Zr 0.52149 0.52151 -0.00979
 O642 O 0.50580 0.50551 -0.02693
 Zr643 Zr 0.47850 0.47861 0.01038
 O644 O 0.49461 0.49416 0.02779
 Zr645 Zr 0.47863 0.50984 -0.02133
 O646 O 0.49433 0.52725 -0.00543
 Zr647 Zr 0.50992 0.47829 -0.02106
 O648 O 0.52754 0.49431 -0.00559
 O649 O 0.51729 0.51709 0.01730
 O650 O 0.48279 0.48268 -0.01688
 C651 C 0.51327 0.55507 0.01391
 C652 C 0.51376 0.51320 0.05539
 C653 C 0.55523 0.51370 0.01331
 C654 C 0.48497 0.44542 -0.01357
 C655 C 0.44568 0.48522 -0.01441
 C656 C 0.48570 0.48521 -0.05424
 H657 H 0.46045 0.50860 0.00883
 H658 H 0.50876 0.50833 -0.03950
 H659 H 0.52495 0.52474 0.02493
 H660 H 0.50832 0.46030 0.00925
 H661 H 0.48379 0.46366 0.04107
 H662 H 0.51407 0.46179 0.03988
 H663 H 0.48908 0.52898 -0.04840
 H664 H 0.50890 0.54682 -0.02954
 H665 H 0.45059 0.47223 0.03022
 H666 H 0.47031 0.52793 0.04990
 H667 H 0.52986 0.48868 -0.04747
 H668 H 0.54648 0.50928 -0.03007
 H669 H 0.47067 0.54660 0.00854
 H670 H 0.45201 0.52945 -0.01079
 H671 H 0.54745 0.47093 0.00860
 H672 H 0.52868 0.45098 -0.01058
 O673 O 0.77324 0.29766 0.49892
 O674 O 0.77081 0.29195 0.52950
 O675 O 0.79760 0.25060 0.47738
 O676 O 0.79219 0.22111 0.47693
 O677 O 0.75090 0.27290 0.45218
 O678 O 0.71970 0.27167 0.45874
 O679 O 0.74885 0.20336 0.52362
 O680 O 0.77925 0.20827 0.52015
 O681 O 0.72680 0.24889 0.54678
 O682 O 0.72815 0.28112 0.54051
 O683 O 0.70302 0.22716 0.50129
 O684 O 0.70918 0.22786 0.46933
 O685 O 0.72727 0.20332 0.50206
 O686 O 0.72907 0.20976 0.46884
 O687 O 0.70296 0.24883 0.52268
 O688 O 0.70986 0.28170 0.52071
 O689 O 0.74796 0.22703 0.54678
 O690 O 0.78032 0.23283 0.54098
 O691 O 0.75135 0.29783 0.47763
 O692 O 0.71960 0.29120 0.47896
 O693 O 0.77230 0.25126 0.45215
 O694 O 0.76931 0.21896 0.45950
 O695 O 0.79762 0.27257 0.49853
 O696 O 0.79054 0.26865 0.53079
 Zr697 Zr 0.77176 0.27169 0.50968
 O698 O 0.75568 0.25622 0.52686
 Zr699 Zr 0.77143 0.24026 0.47810
 O700 O 0.75585 0.22323 0.49425
 Zr701 Zr 0.74022 0.27187 0.47823
 O702 O 0.72298 0.25602 0.49391
 Zr703 Zr 0.76003 0.22902 0.52144
 O704 O 0.77754 0.24441 0.50535
 Zr705 Zr 0.72854 0.26043 0.52114
 O706 O 0.74455 0.27769 0.50543
 Zr707 Zr 0.72867 0.22876 0.48988
 O708 O 0.74424 0.24462 0.47226
 O709 O 0.76722 0.26732 0.48256
 O710 O 0.73284 0.23322 0.51705
 C711 C 0.76404 0.30534 0.48656
 C712 C 0.80521 0.26327 0.48622
 C713 C 0.76332 0.26380 0.44455
 C714 C 0.73601 0.19591 0.51492
 C715 C 0.73530 0.23592 0.55422
 C716 C 0.69553 0.23599 0.51399
 H717 H 0.75863 0.25909 0.53946
 H718 H 0.71045 0.25891 0.49089
 H719 H 0.77490 0.27491 0.47490
 H720 H 0.75884 0.21062 0.49162
 H721 H 0.79060 0.21390 0.51629
 H722 H 0.78941 0.21188 0.48597
 H723 H 0.70166 0.27968 0.51051
 H724 H 0.72057 0.29731 0.49069
 H725 H 0.77977 0.22266 0.54949
 H726 H 0.79978 0.27813 0.52969
 H727 H 0.70245 0.23923 0.46973
 H728 H 0.71996 0.25966 0.45313
 H729 H 0.75859 0.29702 0.52918
 H730 H 0.73913 0.28006 0.54782
 H731 H 0.75832 0.22109 0.45241
 H732 H 0.73901 0.20134 0.47116
 O733 O 0.75121 0.77379 -0.04840
 O734 O 0.72066 0.77132 -0.04263
 O735 O 0.77295 0.79814 -0.00140
 O736 O 0.77353 0.79276 0.02808
 O737 O 0.79786 0.75126 -0.02381
 O738 O 0.79116 0.72008 -0.02267
 O739 O 0.72679 0.74939 0.04597
 O740 O 0.73033 0.77984 0.04108
 O741 O 0.70343 0.72731 0.00051
 O742 O 0.70953 0.72857 -0.03172
 O743 O 0.74887 0.70355 0.02213
 O744 O 0.78084 0.70969 0.02123
 O745 O 0.74827 0.72779 0.04592
 O746 O 0.78143 0.72961 0.03938
 O747 O 0.72741 0.70344 0.00054
 O748 O 0.72933 0.71032 -0.03243
 O749 O 0.70357 0.74850 0.02240
 O750 O 0.70943 0.78090 0.01658
 O751 O 0.77243 0.75188 -0.04866
 O752 O 0.77085 0.72006 -0.04212
 O753 O 0.79806 0.77273 -0.00217
 O754 O 0.79080 0.76983 0.03018
 O755 O 0.75172 0.79817 -0.02328
 O756 O 0.71949 0.79108 -0.01928
 Zr757 Zr 0.74052 0.77229 -0.02241
 O758 O 0.72337 0.75621 -0.00688
 Zr759 Zr 0.77218 0.77195 0.00893
 O760 O 0.75607 0.75640 0.02601
 Zr761 Zr 0.77181 0.74067 -0.02274
 O762 O 0.75618 0.72345 -0.00682
 Zr763 Zr 0.72890 0.76059 0.02031
 O764 O 0.74497 0.77809 0.00487
 Zr765 Zr 0.72899 0.72903 -0.01112
 O766 O 0.74463 0.74503 -0.02845
 Zr767 Zr 0.76035 0.72919 0.02044
 O768 O 0.77791 0.74473 0.00450
 O769 O 0.76760 0.76772 -0.01813
 O770 O 0.73321 0.73337 0.01607
 C771 C 0.76356 0.76463 -0.05612
 C772 C 0.76408 0.80577 -0.01402
 C773 C 0.80558 0.76368 -0.01472
 C774 C 0.73547 0.73653 0.05337
 C775 C 0.69608 0.73581 0.01353
 C776 C 0.73611 0.69605 0.01338
 H777 H 0.71079 0.75916 -0.00970
 H778 H 0.75915 0.71089 -0.00971
 H779 H 0.77526 0.77539 -0.02572
 H780 H 0.75876 0.75941 0.03862
 H781 H 0.73418 0.79120 0.03545
 H782 H 0.76446 0.79006 0.03730
 H783 H 0.73944 0.70203 -0.03038
 H784 H 0.75915 0.72112 -0.04823
 H785 H 0.70097 0.78036 0.02679
 H786 H 0.72058 0.80033 -0.02876
 H787 H 0.78027 0.70283 0.00992
 H788 H 0.79677 0.72027 -0.01066
 H789 H 0.72096 0.75910 -0.04774
 H790 H 0.70237 0.73965 -0.03072
 H791 H 0.79785 0.75883 0.02802
 H792 H 0.77915 0.73954 0.04784
 O793 O 1.04779 0.22602 0.24882
 O794 O 1.04200 0.22849 0.27941
 O795 O 1.00089 0.20144 0.22713
 O796 O 0.97141 0.20675 0.22660
 O797 O 1.02317 0.24824 0.20204
 O798 O 1.02183 0.27948 0.20862
 O799 O 0.95346 0.25017 0.27323
 O800 O 0.95843 0.21972 0.26974
 O801 O 0.99885 0.27237 0.29657
 O802 O 1.03109 0.27112 0.29040
 O803 O 0.97719 0.29604 0.25110
 O804 O 0.97812 0.28986 0.21904
 O805 O 0.95347 0.27172 0.25166
 O806 O 0.95999 0.26994 0.21850
 O807 O 0.99878 0.29618 0.27256
 O808 O 1.03167 0.28944 0.27062
 O809 O 0.97701 0.25115 0.29647
 O810 O 0.98288 0.21877 0.29069
 O811 O 1.04797 0.24791 0.22754
 O812 O 1.04131 0.27966 0.22891
 O813 O 1.00159 0.22673 0.20193
 O814 O 0.96930 0.22962 0.20915
 O815 O 1.02277 0.20152 0.24835
 O816 O 1.01876 0.20863 0.28060
 Zr817 Zr 1.02182 0.22742 0.25951
 O818 O 1.00627 0.24347 0.27666
 Zr819 Zr 0.99050 0.22760 0.22784
 O820 O 0.97342 0.24316 0.24393
 Zr821 Zr 1.02203 0.25897 0.22809
 O822 O 1.00613 0.27619 0.24374
 Zr823 Zr 0.97912 0.23902 0.27114
 O824 O 0.99458 0.22154 0.25510
 Zr825 Zr 1.01046 0.27064 0.27097
 O826 O 1.02778 0.25468 0.25531
 Zr827 Zr 0.97892 0.27039 0.23960
 O828 O 0.99484 0.25483 0.22202
 O829 O 1.01751 0.23192 0.23239
 O830 O 0.98331 0.26625 0.26678
 C831 C 1.05548 0.23523 0.23647
 C832 C 1.01353 0.19387 0.23600
 C833 C 1.01413 0.23575 0.19438
 C834 C 0.94603 0.26298 0.26450
 C835 C 0.98586 0.26387 0.30394
 C836 C 0.98593 0.30355 0.26388
 H837 H 1.00910 0.24054 0.28926
 H838 H 1.00901 0.28874 0.24075
 H839 H 1.02513 0.22425 0.22476
 H840 H 0.96083 0.24013 0.24124
 H841 H 0.96408 0.20836 0.26591
 H842 H 0.96212 0.20954 0.23558
 H843 H 1.02963 0.29768 0.26047
 H844 H 1.04736 0.27874 0.24066
 H845 H 0.97268 0.21930 0.29915
 H846 H 1.02826 0.19943 0.27954
 H847 H 0.98940 0.29676 0.21963
 H848 H 1.00984 0.27918 0.20299
 H849 H 1.04707 0.24072 0.27908
 H850 H 1.03001 0.26014 0.29771
 H851 H 0.97142 0.24063 0.20209
 H852 H 0.95164 0.25991 0.22072
 O853 O 0.74882 1.04790 0.72712
 O854 O 0.77934 1.04216 0.72961
 O855 O 0.72727 1.00098 0.70237
 O856 O 0.72680 0.97146 0.70763
 O857 O 0.70207 1.02306 0.74923
 O858 O 0.70863 1.02174 0.78047
 O859 O 0.77338 0.95353 0.75115
 O860 O 0.76987 0.95850 0.72069
 O861 O 0.79651 0.99891 0.77348
 O862 O 0.79027 1.03120 0.77226
 O863 O 0.75109 0.97713 0.79705
 O864 O 0.71907 0.97797 0.79073
 O865 O 0.75183 0.95342 0.77269
 O866 O 0.71869 0.95981 0.77083
 O867 O 0.77247 0.99879 0.79727
 O868 O 0.77052 1.03168 0.79056
 O869 O 0.79649 0.97714 0.75217
 O870 O 0.79072 0.98306 0.71977
 O871 O 0.72752 1.04801 0.74896
 O872 O 0.72882 1.04128 0.78071
 O873 O 0.70204 1.00152 0.72767
 O874 O 0.70935 0.96923 0.73047
 O875 O 0.74842 1.02292 0.70257
 O876 O 0.78061 1.01894 0.70972
 Zr877 Zr 0.75952 1.02193 0.72848
 O878 O 0.77665 1.00637 0.74454
 Zr879 Zr 0.72795 0.99052 0.72853
 O880 O 0.74404 0.97342 0.74410
 Zr881 Zr 0.72809 1.02201 0.75997
 O882 O 0.74373 1.00609 0.77720
 Zr883 Zr 0.77120 0.97920 0.74002
 O884 O 0.75517 0.99468 0.72252
 Zr885 Zr 0.77092 1.01050 0.77172
 O886 O 0.75526 1.02782 0.75575
 Zr887 Zr 0.73967 0.97885 0.77134
 O888 O 0.72211 0.99478 0.75577
 O889 O 0.73243 1.01756 0.73291
 O890 O 0.76680 0.98332 0.76726
 C891 C 0.73647 1.05556 0.73632
 C892 C 0.73613 1.01367 0.69485
 C893 C 0.69444 1.01400 0.73674
 C894 C 0.76470 0.94605 0.76397
 C895 C 0.80391 0.98596 0.76493
 C896 C 0.76380 0.98590 0.80461
 H897 H 0.78923 1.00924 0.74164
 H898 H 0.74071 1.00894 0.78976
 H899 H 0.72479 1.02518 0.72525
 H900 H 0.74140 0.96081 0.74104
 H901 H 0.76605 0.96417 0.70933
 H902 H 0.73578 0.96217 0.71042
 H903 H 0.76033 1.02964 0.79874
 H904 H 0.74055 1.04735 0.77982
 H905 H 0.79919 0.97286 0.72029
 H906 H 0.77955 1.02847 0.70053
 H907 H 0.71965 0.98922 0.79771
 H908 H 0.70305 1.00972 0.78017
 H909 H 0.77902 1.04719 0.74187
 H910 H 0.79762 1.03012 0.76131
 H911 H 0.70233 0.97127 0.74151
 H912 H 0.72097 0.95148 0.76079
 O913 O 0.79805 0.49883 0.27281
 O914 O 0.79237 0.52942 0.27033
 O915 O 0.75111 0.47729 0.29727
 O916 O 0.72167 0.47663 0.29187
 O917 O 0.77337 0.45217 0.25036
 O918 O 0.77205 0.45879 0.21915
 O919 O 0.70376 0.52341 0.24865
 O920 O 0.70880 0.51995 0.27907
 O921 O 0.74911 0.54669 0.22639
 O922 O 0.78135 0.54052 0.22768
 O923 O 0.72740 0.50128 0.20265
 O924 O 0.72821 0.46931 0.20873
 O925 O 0.70368 0.50190 0.22701
 O926 O 0.71022 0.46869 0.22874
 O927 O 0.74904 0.52268 0.20254
 O928 O 0.78192 0.52073 0.20936
 O929 O 0.72731 0.54661 0.24761
 O930 O 0.73329 0.54084 0.28003
 O931 O 0.79820 0.47758 0.25087
 O932 O 0.79154 0.47909 0.21905
 O933 O 0.75184 0.45205 0.27188
 O934 O 0.71952 0.45934 0.26895
 O935 O 0.77302 0.49848 0.29725
 O936 O 0.76914 0.53071 0.29015
 Zr937 Zr 0.77212 0.50960 0.27135
 O938 O 0.75658 0.52678 0.25531
 Zr939 Zr 0.74077 0.47796 0.27107
 O940 O 0.72368 0.49411 0.25554
 Zr941 Zr 0.77227 0.47822 0.23973
 O942 O 0.75635 0.49389 0.22253
 Zr943 Zr 0.72944 0.52130 0.25974
 O944 O 0.74489 0.50521 0.27720
 Zr945 Zr 0.76072 0.52110 0.22812
 O946 O 0.77804 0.50542 0.24408
 Zr947 Zr 0.72913 0.48979 0.22830
 O948 O 0.74507 0.47218 0.24382
 O949 O 0.76777 0.48249 0.26679
 O950 O 0.73357 0.51695 0.23249
 C951 C 0.80571 0.48646 0.26362
 C952 C 0.76374 0.48617 0.30488
 C953 C 0.76435 0.44449 0.26282
 C954 C 0.69628 0.51471 0.23581
 C955 C 0.73612 0.55406 0.23488
 C956 C 0.73616 0.51402 0.19515
 H957 H 0.75943 0.53937 0.25825
 H958 H 0.75919 0.49090 0.20996
 H959 H 0.77537 0.47484 0.27447
 H960 H 0.71110 0.49144 0.25857
 H961 H 0.71448 0.51610 0.29042
 H962 H 0.71252 0.48579 0.28923
 H963 H 0.77989 0.51056 0.20112
 H964 H 0.79766 0.49079 0.22009
 H965 H 0.72311 0.54932 0.27949
 H966 H 0.77864 0.52962 0.29937
 H967 H 0.73955 0.46976 0.20195
 H968 H 0.76006 0.45318 0.21940
 H969 H 0.79740 0.52910 0.25808
 H970 H 0.78031 0.54779 0.23870
 H971 H 0.72167 0.45224 0.25797
 H972 H 0.70182 0.47098 0.23871
 O973 O 0.50083 0.20229 0.72695
 O974 O 0.47032 0.20802 0.72937
 O975 O 0.52241 0.24935 0.70254
 O976 O 0.52300 0.27880 0.70795
 O977 O 0.54756 0.22701 0.74937
 O978 O 0.54097 0.22818 0.78058
 O979 O 0.47638 0.29663 0.75133
 O980 O 0.47981 0.29169 0.72088
 O981 O 0.45313 0.25115 0.77343
 O982 O 0.45933 0.21892 0.77216
 O983 O 0.49858 0.27290 0.79718
 O984 O 0.53053 0.27202 0.79107
 O985 O 0.49794 0.29664 0.77291
 O986 O 0.53110 0.29011 0.77111
 O987 O 0.47717 0.25127 0.79730
 O988 O 0.47914 0.21832 0.79044
 O989 O 0.45319 0.27302 0.75225
 O990 O 0.45894 0.26718 0.71985
 O991 O 0.52210 0.20208 0.74886
 O992 O 0.52073 0.20870 0.78065
 O993 O 0.54762 0.24862 0.72790
 O994 O 0.54033 0.28093 0.73086
 O995 O 0.50125 0.22741 0.70250
 O996 O 0.46904 0.23133 0.70964
 Zr997 Zr 0.49014 0.22827 0.72842
 O998 O 0.47301 0.24378 0.74452
 Zr999 Zr 0.52173 0.25965 0.72874
 O1000 O 0.50564 0.27671 0.74432
 Zr1001 Zr 0.52153 0.22803 0.76001
 O1002 O 0.50592 0.24393 0.77727
 Zr1003 Zr 0.47848 0.27096 0.74014
 O1004 O 0.49451 0.25554 0.72262
 Zr1005 Zr 0.47872 0.23958 0.77171
 O1006 O 0.49436 0.22228 0.75568
 Zr1007 Zr 0.51002 0.27118 0.77153
 O1008 O 0.52757 0.25527 0.75596
 O1009 O 0.51723 0.23260 0.73296
 O1010 O 0.48287 0.26676 0.76738
 C1011 C 0.51316 0.19458 0.73616
 C1012 C 0.51355 0.23672 0.69489
 C1013 C 0.55520 0.23610 0.73694
 C1014 C 0.48511 0.30407 0.76417
 C1015 C 0.44574 0.26414 0.76494
 C1016 C 0.48585 0.26415 0.80469
 H1017 H 0.46043 0.24093 0.74158
 H1018 H 0.50892 0.24105 0.78983
 H1019 H 0.52487 0.22500 0.72527
 H1020 H 0.50831 0.28932 0.74131
 H1021 H 0.48362 0.28605 0.70951
 H1022 H 0.51390 0.28799 0.71065
 H1023 H 0.48926 0.22040 0.79873
 H1024 H 0.50900 0.20263 0.77969
 H1025 H 0.45047 0.27737 0.72040
 H1026 H 0.47013 0.22188 0.70037
 H1027 H 0.53001 0.26070 0.79790
 H1028 H 0.54655 0.24020 0.78038
 H1029 H 0.47061 0.20298 0.74162
 H1030 H 0.45208 0.21994 0.76113
 H1031 H 0.54743 0.27878 0.74184
 H1032 H 0.52879 0.29854 0.76117
 O1033 O 0.29795 0.75169 0.47707
 O1034 O 0.29216 0.72110 0.47949
 O1035 O 0.25110 0.77331 0.45251
 O1036 O 0.22161 0.77377 0.45779
 O1037 O 0.27334 0.79838 0.49940
 O1038 O 0.27202 0.79180 0.53062
 O1039 O 0.20362 0.72711 0.50110
 O1040 O 0.20862 0.73057 0.47067
 O1041 O 0.24898 0.70387 0.52338
 O1042 O 0.28121 0.71007 0.52216
 O1043 O 0.22733 0.74930 0.54708
 O1044 O 0.22822 0.78129 0.54095
 O1045 O 0.20360 0.74865 0.52271
 O1046 O 0.21016 0.78184 0.52096
 O1047 O 0.24893 0.72789 0.54723
 O1048 O 0.28182 0.72988 0.54047
 O1049 O 0.22717 0.70391 0.50213
 O1050 O 0.23307 0.70969 0.46973
 O1051 O 0.29814 0.77296 0.49899
 O1052 O 0.29147 0.77153 0.53078
 O1053 O 0.25177 0.79848 0.47787
 O1054 O 0.21946 0.79118 0.48070
 O1055 O 0.27296 0.75212 0.45257
 O1056 O 0.26892 0.71987 0.45962
 Zr1057 Zr 0.27198 0.74094 0.47845
 O1058 O 0.25643 0.72377 0.49448
 Zr1059 Zr 0.24068 0.77256 0.47866
 O1060 O 0.22358 0.75642 0.49418
 Zr1061 Zr 0.27220 0.77235 0.51006
 O1062 O 0.25627 0.75668 0.52725
 Zr1063 Zr 0.22929 0.72924 0.49001
 O1064 O 0.24476 0.74532 0.47255
 Zr1065 Zr 0.26061 0.72947 0.52167
 O1066 O 0.27794 0.74515 0.50573
 Zr1067 Zr 0.22906 0.76077 0.52143
 O1068 O 0.24501 0.77837 0.50591
 O1069 O 0.26768 0.76805 0.48300
 O1070 O 0.23345 0.73361 0.51726
 C1071 C 0.30563 0.76406 0.48628
 C1072 C 0.26375 0.76447 0.44494
 C1073 C 0.26432 0.80604 0.48691
 C1074 C 0.19617 0.73582 0.51392
 C1075 C 0.23600 0.69647 0.51486
 C1076 C 0.23608 0.73656 0.55460
 H1077 H 0.25926 0.71118 0.49154
 H1078 H 0.25914 0.75968 0.53982
 H1079 H 0.27530 0.77570 0.47534
 H1080 H 0.21100 0.75908 0.49113
 H1081 H 0.21428 0.73442 0.45933
 H1082 H 0.21235 0.76473 0.46052
 H1083 H 0.27978 0.74002 0.54873
 H1084 H 0.29756 0.75981 0.52978
 H1085 H 0.22288 0.70121 0.47025
 H1086 H 0.27842 0.72096 0.45041
 H1087 H 0.23953 0.78080 0.54780
 H1088 H 0.26003 0.79741 0.53033
 H1089 H 0.29722 0.72143 0.49174
 H1090 H 0.28016 0.70280 0.51114
 H1091 H 0.22159 0.79826 0.49171
 H1092 H 0.20178 0.77956 0.51096
 O1093 O 0.29738 0.25064 0.97728
 O1094 O 0.29161 0.22005 0.97967
 O1095 O 0.25053 0.27226 0.95270
 O1096 O 0.22107 0.27284 0.95798
 O1097 O 0.27275 0.29727 0.99973
 O1098 O 0.27139 0.29058 1.03093
 O1099 O 0.20304 0.22597 1.00116
 O1100 O 0.20805 0.22960 0.97072
 O1101 O 0.24830 0.20268 1.02340
 O1102 O 0.28054 0.20886 1.02226
 O1103 O 0.22669 0.24810 1.04722
 O1104 O 0.22757 0.28011 1.04113
 O1105 O 0.20299 0.24745 1.02283
 O1106 O 0.20951 0.28066 1.02113
 O1107 O 0.24826 0.22668 1.04734
 O1108 O 0.28114 0.22861 1.04062
 O1109 O 0.22653 0.20282 1.00209
 O1110 O 0.23250 0.20870 0.96973
 O1111 O 0.29754 0.27185 0.99926
 O1112 O 0.29085 0.27031 1.03103
 O1113 O 0.25123 0.29743 0.97815
 O1114 O 0.21891 0.29014 0.98094
 O1115 O 0.27240 0.25107 0.95276
 O1116 O 0.26841 0.21882 0.95976
 Zr1117 Zr 0.27142 0.23988 0.97862
 O1118 O 0.25583 0.22267 0.99457
 Zr1119 Zr 0.24012 0.27151 0.97886
 O1120 O 0.22299 0.25534 0.99431
 Zr1121 Zr 0.27159 0.27119 1.01031
 O1122 O 0.25564 0.25549 1.02743
 Zr1123 Zr 0.22870 0.22817 0.99007
 O1124 O 0.24421 0.24428 0.97269
 Zr1125 Zr 0.25996 0.22829 1.02179
 O1126 O 0.27732 0.24401 1.00592
 Zr1127 Zr 0.22843 0.25961 1.02158
 O1128 O 0.24441 0.27724 1.00613
 O1129 O 0.26712 0.26698 0.98322
 O1130 O 0.23282 0.23246 1.01734
 C1131 C 0.30505 0.26299 0.98653
 C1132 C 0.26316 0.26340 0.94512
 C1133 C 0.26374 0.30497 0.98726
 C1134 C 0.19559 0.23461 1.01402
 C1135 C 0.23532 0.19533 1.01482
 C1136 C 0.23542 0.23535 1.05472
 H1137 H 0.25865 0.21009 0.99160
 H1138 H 0.25848 0.25846 1.04001
 H1139 H 0.27474 0.27465 0.97559
 H1140 H 0.21041 0.25801 0.99126
 H1141 H 0.21373 0.23345 0.95939
 H1142 H 0.21183 0.26376 0.96065
 H1143 H 0.27913 0.23878 1.04886
 H1144 H 0.29694 0.25860 1.03001
 H1145 H 0.22230 0.20023 0.97019
 H1146 H 0.27792 0.21993 0.95058
 H1147 H 0.23886 0.27959 1.04801
 H1148 H 0.25942 0.29621 1.03063
 H1149 H 0.29665 0.22035 0.99193
 H1150 H 0.27951 0.20163 1.01121
 H1151 H 0.22103 0.29717 0.99198
 H1152 H 0.20113 0.27838 1.01113
 C1153 C 0.28527 0.37545 0.78533
 N1154 N 0.27727 0.36730 0.79946
 N1155 N 0.28358 0.35189 0.80582
 C1156 C 0.29813 0.34408 0.79829
 N1157 N 0.30604 0.35215 0.78407
 N1158 N 0.29973 0.36756 0.77771
 C1159 C 0.27896 0.39295 0.77901
 N1160 N 0.28743 0.40146 0.76538
 N1161 N 0.28235 0.41777 0.76031
 C1162 C 0.26860 0.42617 0.76867
 N1163 N 0.26003 0.41759 0.78220
 N1164 N 0.26511 0.40128 0.78727
 C1165 C 0.28786 -0.12247 0.28700
 N1166 N 0.30227 -0.13038 0.27932
 N1167 N 0.30860 -0.14580 0.28566
 C1168 C 0.30074 -0.15388 0.29993
 N1169 N 0.28623 -0.14602 0.30750
 N1170 N 0.27992 -0.13060 0.30117
 C1171 C 0.28134 -0.10511 0.28051
 N1172 N 0.26743 -0.09684 0.28873
 N1173 N 0.26193 -0.08078 0.28328
 C1174 C 0.27014 -0.07240 0.26940
 N1175 N 0.28399 -0.08072 0.26112
 N1176 N 0.28949 -0.09678 0.26657
 C1177 C 0.78762 0.87778 0.78690
 N1178 N 0.77963 0.86966 0.80105
 N1179 N 0.78595 0.85427 0.80744
 C1180 C 0.80051 0.84642 0.79994
 N1181 N 0.80839 0.85449 0.78568
 N1182 N 0.80207 0.86988 0.77929
 C1183 C 0.78114 0.89515 0.78038
 N1184 N 0.78946 0.90356 0.76659
 N1185 N 0.78405 0.91965 0.76117
 C1186 C 0.77010 0.92793 0.76933
 N1187 N 0.76172 0.91948 0.78305
 N1188 N 0.76713 0.90338 0.78847
 C1189 C 0.46252 0.87283 0.28681
 N1190 N 0.47024 0.88079 0.30121
 N1191 N 0.46376 0.89607 0.30771
 C1192 C 0.44929 0.90396 0.30006
 N1193 N 0.44167 0.89606 0.28554
 N1194 N 0.44815 0.88077 0.27905
 C1195 C 0.46915 0.85555 0.28019
 N1196 N 0.46097 0.84719 0.26627
 N1197 N 0.46648 0.83114 0.26081
 C1198 C 0.48040 0.82288 0.26905
 N1199 N 0.48866 0.83131 0.28289
 N1200 N 0.48314 0.84735 0.28836
 C1201 C -0.03693 0.87314 0.78629
 N1202 N -0.02890 0.88122 0.80046
 N1203 N -0.03510 0.89667 0.80683
 C1204 C -0.04957 0.90460 0.79926
 N1205 N -0.05753 0.89659 0.78501
 N1206 N -0.05133 0.88114 0.77864
 C1207 C -0.03061 0.85570 0.77982
 N1208 N -0.03900 0.84732 0.76603
 N1209 N -0.03373 0.83116 0.76066
 C1210 C -0.01987 0.82279 0.76889
 N1211 N -0.01142 0.83122 0.78261
 N1212 N -0.01668 0.84738 0.78797
 C1213 C -0.03544 -0.12485 -0.03583
 N1214 N -0.04961 -0.13310 -0.02804
 N1215 N -0.05590 -0.14846 -0.03459
 C1216 C -0.04829 -0.15613 -0.04921
 N1217 N -0.03399 -0.14794 -0.05689
 N1218 N -0.02770 -0.13259 -0.05032
 C1219 C -0.02918 -0.10740 -0.02927
 N1220 N -0.01540 -0.09888 -0.03746
 N1221 N -0.01036 -0.08261 -0.03217
 C1222 C -0.01890 -0.07426 -0.01848
 N1223 N -0.03258 -0.08285 -0.01018
 N1224 N -0.03762 -0.09912 -0.01547
 C1225 C -0.03650 0.37690 0.46345
 N1226 N -0.05067 0.36875 0.47135
 N1227 N -0.05689 0.35325 0.46507
 C1228 C -0.04915 0.34533 0.45067
 N1229 N -0.03490 0.35342 0.44284
 N1230 N -0.02869 0.36892 0.44912
 C1231 C -0.03016 0.39439 0.46982
 N1232 N -0.01631 0.40273 0.46157
 N1233 N -0.01101 0.41893 0.46686
 C1234 C -0.01937 0.42737 0.48059
 N1235 N -0.03316 0.41898 0.48892
 N1236 N -0.03845 0.40278 0.48364
 C1237 C 0.46326 -0.12242 0.46313
 N1238 N 0.47096 -0.13028 0.44868
 N1239 N 0.46469 -0.14572 0.44230
 C1240 C 0.45046 -0.15388 0.45013
 N1241 N 0.44287 -0.14608 0.46469
 N1242 N 0.44914 -0.13064 0.47106
 C1243 C 0.46964 -0.10499 0.46962
 N1244 N 0.46141 -0.09669 0.48352
 N1245 N 0.46672 -0.08052 0.48889
 C1246 C 0.48048 -0.07208 0.48056
 N1247 N 0.48878 -0.08044 0.46674
 N1248 N 0.48346 -0.09659 0.46136
 C1249 C 0.46244 0.37691 -0.03641
 N1250 N 0.44830 0.36869 -0.02853
 N1251 N 0.44209 0.35322 -0.03489
 C1252 C 0.44977 0.34539 -0.04939
 N1253 N 0.46401 0.35357 -0.05718
 N1254 N 0.47022 0.36903 -0.05081
 C1255 C 0.46879 0.39436 -0.02992
 N1256 N 0.48261 0.40277 -0.03816
 N1257 N 0.48794 0.41892 -0.03275
 C1258 C 0.47964 0.42726 -0.01891
 N1259 N 0.46587 0.41880 -0.01060
 N1260 N 0.46056 0.40264 -0.01600
 C1261 C 0.78555 0.37451 0.46503
 N1262 N 0.80003 0.38243 0.47265
 N1263 N 0.80631 0.39786 0.46630
 C1264 C 0.79835 0.40593 0.45209
 N1265 N 0.78379 0.39807 0.44456
 N1266 N 0.77751 0.38264 0.45092
 C1267 C 0.77927 0.35699 0.47136
 N1268 N 0.76533 0.34867 0.46317
 N1269 N 0.76025 0.33236 0.46827
 C1270 C 0.76890 0.32377 0.48174
 N1271 N 0.78273 0.33216 0.49003
 N1272 N 0.78782 0.34847 0.48494
 C1273 C 0.78594 0.87483 -0.03553
 N1274 N 0.80023 0.88288 -0.02767
 N1275 N 0.80665 0.89823 -0.03408
 C1276 C 0.79904 0.90610 -0.04861
 N1277 N 0.78464 0.89813 -0.05633
 N1278 N 0.77822 0.88278 -0.04992
 C1279 C 0.77952 0.85738 -0.02915
 N1280 N 0.76578 0.84898 -0.03759
 N1281 N 0.76060 0.83270 -0.03249
 C1282 C 0.76896 0.82422 -0.01876
 N1283 N 0.78259 0.83269 -0.01021
 N1284 N 0.78777 0.84898 -0.01531
 C1285 C 0.78529 0.28519 0.37548
 N1286 N 0.77756 0.29945 0.36732
 N1287 N 0.78404 0.30572 0.35194
 C1288 C 0.79849 0.29797 0.34416
 N1289 N 0.80613 0.28361 0.35226
 N1290 N 0.79965 0.27734 0.36763
 C1291 C 0.77881 0.27892 0.39295
 N1292 N 0.78703 0.26511 0.40141
 N1293 N 0.78182 0.26004 0.41769
 C1294 C 0.76819 0.26859 0.42611
 N1295 N 0.75987 0.28230 0.41758
 N1296 N 0.76507 0.28736 0.40129
 C1297 C 0.78602 0.78716 -0.12464
 N1298 N 0.77844 0.80166 -0.13253
 N1299 N 0.78510 0.80826 -0.14769
 C1300 C 0.79961 0.80064 -0.15552
 N1301 N 0.80706 0.78603 -0.14771
 N1302 N 0.80041 0.77942 -0.13255
 C1303 C 0.77938 0.78054 -0.10737
 N1304 N 0.78746 0.76652 -0.09912
 N1305 N 0.78213 0.76118 -0.08297
 C1306 C 0.76851 0.76964 -0.07447
 N1307 N 0.76031 0.78355 -0.08279
 N1308 N 0.76564 0.78890 -0.09895
 C1309 C 0.28522 0.46458 0.87501
 N1310 N 0.29974 0.47225 0.88282
 N1311 N 0.30623 0.46587 0.89816
 C1312 C 0.29844 0.45159 0.90625
 N1313 N 0.28384 0.44402 0.89852
 N1314 N 0.27735 0.45039 0.88318
 C1315 C 0.27875 0.47095 0.85757
 N1316 N 0.26485 0.46270 0.84925
 N1317 N 0.25966 0.46782 0.83297
 C1318 C 0.26818 0.48140 0.82441
 N1319 N 0.28197 0.48976 0.83281
 N1320 N 0.28716 0.48463 0.84908
 C1321 C 0.28709 -0.03673 0.37211
 N1322 N 0.27924 -0.05082 0.38047
 N1323 N 0.28567 -0.05689 0.39596
 C1324 C 0.30018 -0.04911 0.40366
 N1325 N 0.30796 -0.03495 0.39536
 N1326 N 0.30153 -0.02887 0.37987
 C1327 C 0.28050 -0.03054 0.35465
 N1328 N 0.28865 -0.01675 0.34610
 N1329 N 0.28315 -0.01157 0.32994
 C1330 C 0.26927 -0.01999 0.32174
 N1331 N 0.26105 -0.03372 0.33034
 N1332 N 0.26656 -0.03889 0.34650
 C1333 C -0.03574 -0.03599 -0.12428
 N1334 N -0.05015 -0.02823 -0.13214
 N1335 N -0.05673 -0.03468 -0.14742
 C1336 C -0.04917 -0.04915 -0.15541
 N1337 N -0.03463 -0.05678 -0.14762
 N1338 N -0.02805 -0.05033 -0.13234
 C1339 C -0.02920 -0.02957 -0.10688
 N1340 N -0.01540 -0.03792 -0.09853
 N1341 N -0.01016 -0.03276 -0.08227
 C1342 C -0.01852 -0.01906 -0.07376
 N1343 N -0.03220 -0.01060 -0.08219
 N1344 N -0.03744 -0.01576 -0.09845
 C1345 C -0.03701 0.46189 0.37732
 N1346 N -0.05113 0.46985 0.36914
 N1347 N -0.05740 0.46356 0.35366
 C1348 C -0.04980 0.44904 0.34578
 N1349 N -0.03559 0.44117 0.35392
 N1350 N -0.02932 0.44747 0.36940
 C1351 C -0.03059 0.46838 0.39475
 N1352 N -0.01672 0.46019 0.40314
 N1353 N -0.01133 0.46568 0.41925
 C1354 C -0.01961 0.47955 0.42756
 N1355 N -0.03341 0.48780 0.41912
 N1356 N -0.03880 0.48232 0.40301
 C1357 C 0.46257 -0.03762 0.37760
 N1358 N 0.44824 -0.02986 0.36958
 N1359 N 0.44188 -0.03624 0.35418
 C1360 C 0.44960 -0.05063 0.34623
 N1361 N 0.46399 -0.05833 0.35419
 N1362 N 0.47036 -0.05194 0.36959
 C1363 C 0.46908 -0.03106 0.39496
 N1364 N 0.48306 -0.03916 0.40326
 N1365 N 0.48851 -0.03365 0.41934
 C1366 C 0.48019 -0.01983 0.42770
 N1367 N 0.46628 -0.01167 0.41934
 N1368 N 0.46083 -0.01718 0.40327
 C1369 C 0.46338 0.46276 -0.12294
 N1370 N 0.47103 0.44834 -0.13090
 N1371 N 0.46475 0.44212 -0.14641
 C1372 C 0.45058 0.45008 -0.15453
 N1373 N 0.44305 0.46461 -0.14663
 N1374 N 0.44932 0.47083 -0.13113
 C1375 C 0.46973 0.46910 -0.10544
 N1376 N 0.46159 0.48307 -0.09718
 N1377 N 0.46686 0.48837 -0.08097
 C1378 C 0.48047 0.47990 -0.07244
 N1379 N 0.48868 0.46599 -0.08075
 N1380 N 0.48341 0.46069 -0.09696
 C1381 C 0.46343 0.78806 0.37233
 N1382 N 0.44931 0.78007 0.38049
 N1383 N 0.44312 0.78629 0.39601
 C1384 C 0.45082 0.80073 0.40395
 N1385 N 0.46501 0.80865 0.39584
 N1386 N 0.47120 0.80243 0.38032
 C1387 C 0.46976 0.78166 0.35486
 N1388 N 0.48360 0.78991 0.34648
 N1389 N 0.48891 0.78452 0.33033
 C1390 C 0.48057 0.77068 0.32197
 N1391 N 0.46679 0.76238 0.33040
 N1392 N 0.46149 0.76777 0.34654
 C1393 C -0.03603 0.78698 0.87308
 N1394 N -0.05017 0.77897 0.88117
 N1395 N -0.05636 0.78509 0.89673
 C1396 C -0.04865 0.79947 0.90479
 N1397 N -0.03439 0.80737 0.89675
 N1398 N -0.02821 0.80125 0.88119
 C1399 C -0.02975 0.78072 0.85553
 N1400 N -0.01603 0.78911 0.84710
 N1401 N -0.01081 0.78387 0.83087
 C1402 C -0.01912 0.77004 0.82248
 N1403 N -0.03278 0.76158 0.83096
 N1404 N -0.03799 0.76683 0.84718
 C1405 C 0.37784 0.78729 0.28698
 N1406 N 0.37000 0.80170 0.27918
 N1407 N 0.35459 0.80810 0.28540
 C1408 C 0.34644 0.80032 0.29965
 N1409 N 0.35422 0.78584 0.30738
 N1410 N 0.36964 0.77944 0.30117
 C1411 C 0.39522 0.78073 0.28062
 N1412 N 0.40346 0.76682 0.28891
 N1413 N 0.41956 0.76136 0.28359
 C1414 C 0.42800 0.76961 0.26978
 N1415 N 0.41971 0.78344 0.26143
 N1416 N 0.40362 0.78891 0.26675
 C1417 C -0.12221 0.78791 0.78714
 N1418 N -0.13043 0.77998 0.80126
 N1419 N -0.14587 0.78631 0.80747
 C1420 C -0.15367 0.80081 0.79978
 N1421 N -0.14551 0.80866 0.78558
 N1422 N -0.13006 0.80233 0.77937
 C1423 C -0.10481 0.78142 0.78077
 N1424 N -0.09636 0.78973 0.76700
 N1425 N -0.08028 0.78429 0.76165
 C1426 C -0.07204 0.77034 0.76987
 N1427 N -0.08053 0.76197 0.78358
 N1428 N -0.09662 0.76741 0.78893
 C1429 C 0.87410 0.28502 0.46433
 N1430 N 0.88204 0.27730 0.44992
 N1431 N 0.89732 0.28380 0.44346
 C1432 C 0.90521 0.29826 0.45116
 N1433 N 0.89735 0.30589 0.46565
 N1434 N 0.88207 0.29939 0.47211
 C1435 C 0.85671 0.27856 0.47078
 N1436 N 0.84835 0.28693 0.48456
 N1437 N 0.83211 0.28177 0.48975
 C1438 C 0.82363 0.26804 0.48136
 N1439 N 0.83207 0.25955 0.46769
 N1440 N 0.84832 0.26471 0.46250
 C1441 C 0.87469 0.78508 -0.03624
 N1442 N 0.88283 0.79922 -0.02822
 N1443 N 0.89822 0.80561 -0.03454
 C1444 C 0.90603 0.79809 -0.04912
 N1445 N 0.89797 0.78385 -0.05705
 N1446 N 0.88258 0.77746 -0.05073
 C1447 C 0.85721 0.77875 -0.02993
 N1448 N 0.84867 0.76513 -0.03844
 N1449 N 0.83237 0.76007 -0.03334
 C1450 C 0.82401 0.76842 -0.01954
 N1451 N 0.83262 0.78193 -0.01093
 N1452 N 0.84892 0.78699 -0.01603
 C1453 C -0.12450 -0.03563 -0.03559
 N1454 N -0.13244 -0.02791 -0.04999
 N1455 N -0.14780 -0.03432 -0.05641
 C1456 C -0.15578 -0.04872 -0.04869
 N1457 N -0.14790 -0.05631 -0.03416
 N1458 N -0.13255 -0.04990 -0.02775
 C1459 C -0.10705 -0.02924 -0.02916
 N1460 N -0.09865 -0.03763 -0.01540
 N1461 N -0.08239 -0.03250 -0.01022
 C1462 C -0.07392 -0.01877 -0.01858
 N1463 N -0.08239 -0.01027 -0.03223
 N1464 N -0.09865 -0.01541 -0.03742
 C1465 C -0.12290 0.46420 0.46333
 N1466 N -0.13098 0.45006 0.47138
 N1467 N -0.14662 0.44394 0.46540
 C1468 C -0.15476 0.45174 0.45115
 N1469 N -0.14674 0.46596 0.44318
 N1470 N -0.13109 0.47208 0.44916
 C1471 C -0.10529 0.47044 0.46944
 N1472 N -0.09690 0.48417 0.46100
 N1473 N -0.08063 0.48937 0.46612
 C1474 C -0.07216 0.48104 0.47987
 N1475 N -0.08059 0.46737 0.48836
 N1476 N -0.09685 0.46217 0.48324
 C1477 C 0.37754 -0.03617 0.46218
 N1478 N 0.36963 -0.02859 0.44768
 N1479 N 0.35418 -0.03493 0.44141
 C1480 C 0.34607 -0.04910 0.44940
 N1481 N 0.35393 -0.05658 0.46400
 N1482 N 0.36938 -0.05023 0.47026
 C1483 C 0.39496 -0.02970 0.46861
 N1484 N 0.40320 -0.03779 0.48264
 N1485 N 0.41932 -0.03241 0.48803
 C1486 C 0.42778 -0.01871 0.47961
 N1487 N 0.41949 -0.01055 0.46565
 N1488 N 0.40337 -0.01594 0.46025
 C1489 C 0.37695 0.46283 -0.03659
 N1490 N 0.36876 0.47076 -0.05073
 N1491 N 0.35313 0.46464 -0.05677
 C1492 C 0.34512 0.45034 -0.04891
 N1493 N 0.35327 0.44251 -0.03466
 N1494 N 0.36889 0.44864 -0.02862
 C1495 C 0.39452 0.46911 -0.03039
 N1496 N 0.40297 0.46077 -0.01663
 N1497 N 0.41917 0.46605 -0.01140
 C1498 C 0.42753 0.47987 -0.01974
 N1499 N 0.41904 0.48826 -0.03344
 N1500 N 0.40283 0.48298 -0.03867
 C1501 C 0.37413 0.46478 0.78626
 N1502 N 0.38208 0.45051 0.77833
 N1503 N 0.39738 0.44398 0.78473
 C1504 C 0.40528 0.45150 0.79928
 N1505 N 0.39741 0.46587 0.80711
 N1506 N 0.38211 0.47240 0.80072
 C1507 C 0.35673 0.47127 0.77989
 N1508 N 0.34831 0.48492 0.78841
 N1509 N 0.33205 0.49010 0.78329
 C1510 C 0.32362 0.48183 0.76946
 N1511 N 0.33212 0.46829 0.76083
 N1512 N 0.34837 0.46311 0.76595
 C1513 C 0.37223 -0.03728 0.28661
 N1514 N 0.38018 -0.05161 0.27879
 N1515 N 0.39550 -0.05808 0.28521
 C1516 C 0.40341 -0.05045 0.29970
 N1517 N 0.39552 -0.03604 0.30745
 N1518 N 0.38021 -0.02958 0.30102
 C1519 C 0.35493 -0.03070 0.28005
 N1520 N 0.34662 -0.01681 0.28831
 N1521 N 0.33055 -0.01136 0.28286
 C1522 C 0.32221 -0.01959 0.26895
 N1523 N 0.33058 -0.03339 0.26062
 N1524 N 0.34664 -0.03884 0.26606
 C1525 C 0.12699 0.53666 0.71455
 N1526 N 0.11893 0.52861 0.70037
 N1527 N 0.10335 0.53462 0.69417
 C1528 C 0.09524 0.54890 0.70192
 N1529 N 0.10323 0.55688 0.71618
 N1530 N 0.11882 0.55087 0.72239
 C1531 C 0.14454 0.53052 0.72087
 N1532 N 0.15292 0.53894 0.73464
 N1533 N 0.16914 0.53379 0.73991
 C1534 C 0.17758 0.52002 0.73160
 N1535 N 0.16916 0.51153 0.71789
 N1536 N 0.15294 0.51669 0.71263
 C1537 C 0.12548 0.03496 0.21401
 N1538 N 0.11731 0.04913 0.22192
 N1539 N 0.10200 0.05551 0.21541
 C1540 C 0.09429 0.04801 0.20073
 N1541 N 0.10240 0.03372 0.19294
 N1542 N 0.11770 0.02733 0.19945
 C1543 C 0.14289 0.02858 0.22052
 N1544 N 0.15136 0.01488 0.21212
 N1545 N 0.16760 0.00974 0.21734
 C1546 C 0.17597 0.01810 0.23116
 N1547 N 0.16744 0.03169 0.23966
 N1548 N 0.15119 0.03683 0.23445
 C1549 C 0.62413 0.71429 0.21404
 N1550 N 0.63203 0.69979 0.22160
 N1551 N 0.64724 0.69329 0.21499
 C1552 C 0.65509 0.70104 0.20056
 N1553 N 0.64727 0.71563 0.19309
 N1554 N 0.63206 0.72213 0.19971
 C1555 C 0.60683 0.72080 0.22065
 N1556 N 0.59855 0.73478 0.21255
 N1557 N 0.58238 0.74004 0.21786
 C1558 C 0.57391 0.73151 0.23147
 N1559 N 0.58227 0.71763 0.23969
 N1560 N 0.59843 0.71238 0.23439
 C1561 C 0.12427 0.71456 0.71487
 N1562 N 0.13219 0.70012 0.72252
 N1563 N 0.14747 0.69369 0.71602
 C1564 C 0.15539 0.70146 0.70163
 N1565 N 0.14754 0.71599 0.69408
 N1566 N 0.13226 0.72242 0.70058
 C1567 C 0.10689 0.72099 0.72133
 N1568 N 0.09857 0.73487 0.71310
 N1569 N 0.08233 0.74004 0.71827
 C1570 C 0.07382 0.73152 0.73187
 N1571 N 0.08221 0.71775 0.74022
 N1572 N 0.09845 0.71258 0.73505
 C1573 C 0.62651 0.21442 0.53585
 N1574 N 0.61844 0.22247 0.55000
 N1575 N 0.60280 0.21649 0.55608
 C1576 C 0.59465 0.20224 0.54824
 N1577 N 0.60267 0.19428 0.53402
 N1578 N 0.61831 0.20026 0.52793
 C1579 C 0.64413 0.22051 0.52966
 N1580 N 0.65252 0.21203 0.51596
 N1581 N 0.66880 0.21711 0.51080
 C1582 C 0.67729 0.23086 0.51915
 N1583 N 0.66885 0.23939 0.53279
 N1584 N 0.65257 0.23431 0.53795
 C1585 C 0.62743 0.71350 0.03581
 N1586 N 0.61926 0.69931 0.02788
 N1587 N 0.60366 0.69325 0.03400
 C1588 C 0.59565 0.70116 0.04826
 N1589 N 0.60376 0.71542 0.05611
 N1590 N 0.61936 0.72147 0.05000
 C1591 C 0.64498 0.71973 0.02956
 N1592 N 0.65341 0.73349 0.03793
 N1593 N 0.66960 0.73875 0.03268
 C1594 C 0.67795 0.73045 0.01885
 N1595 N 0.66948 0.71674 0.01041
 N1596 N 0.65329 0.71148 0.01567
 C1597 C 0.12258 0.03650 0.03680
 N1598 N 0.13075 0.02846 0.05090
 N1599 N 0.14618 0.03475 0.05724
 C1600 C 0.15403 0.04933 0.04973
 N1601 N 0.14592 0.05726 0.03552
 N1602 N 0.13049 0.05097 0.02918
 C1603 C 0.10516 0.03008 0.03036
 N1604 N 0.09669 0.03849 0.01666
 N1605 N 0.08055 0.03314 0.01132
 C1606 C 0.07227 0.01917 0.01949
 N1607 N 0.08080 0.01069 0.03312
 N1608 N 0.09694 0.01605 0.03845
 C1609 C 0.12438 0.53594 0.53534
 N1610 N 0.13231 0.55042 0.52777
 N1611 N 0.14756 0.55689 0.53436
 C1612 C 0.15544 0.54911 0.54878
 N1613 N 0.14759 0.53453 0.55625
 N1614 N 0.13233 0.52807 0.54965
 C1615 C 0.10702 0.52948 0.52876
 N1616 N 0.09871 0.51552 0.53689
 N1617 N 0.08249 0.51032 0.53162
 C1618 C 0.07399 0.51888 0.51803
 N1619 N 0.08238 0.53274 0.50979
 N1620 N 0.09860 0.53793 0.51506
 C1621 C 0.62443 0.03626 0.53491
 N1622 N 0.63260 0.02821 0.54900
 N1623 N 0.64799 0.03454 0.55540
 C1624 C 0.65577 0.04917 0.54795
 N1625 N 0.64768 0.05714 0.53376
 N1626 N 0.63228 0.05080 0.52736
 C1627 C 0.60695 0.02991 0.52854
 N1628 N 0.59840 0.03846 0.51498
 N1629 N 0.58211 0.03333 0.50986
 C1630 C 0.57377 0.01946 0.51812
 N1631 N 0.58239 0.01081 0.53158
 N1632 N 0.59868 0.01594 0.53670
 C1633 C 0.62416 0.53574 0.03495
 N1634 N 0.63208 0.55015 0.02722
 N1635 N 0.64740 0.55662 0.03366
 C1636 C 0.65536 0.54892 0.04807
 N1637 N 0.64752 0.53442 0.05570
 N1638 N 0.63220 0.52795 0.04927
 C1639 C 0.60675 0.52926 0.02855
 N1640 N 0.59844 0.51541 0.03686
 N1641 N 0.58219 0.51019 0.03173
 C1642 C 0.57364 0.51862 0.01809
 N1643 N 0.58202 0.53237 0.00967
 N1644 N 0.59827 0.53759 0.01480
 C1645 C 0.03727 0.03596 0.12305
 N1646 N 0.05153 0.02811 0.13110
 N1647 N 0.05771 0.03428 0.14667
 C1648 C 0.04988 0.04854 0.15477
 N1649 N 0.03552 0.05628 0.14677
 N1650 N 0.02934 0.05012 0.13120
 C1651 C 0.03092 0.02967 0.10552
 N1652 N 0.01708 0.03799 0.09720
 N1653 N 0.01172 0.03272 0.08101
 C1654 C 0.01999 0.01894 0.07254
 N1655 N 0.03377 0.01057 0.08091
 N1656 N 0.03914 0.01583 0.09710
 C1657 C 0.03576 0.53495 0.62442
 N1658 N 0.05019 0.52732 0.63239
 N1659 N 0.05646 0.53369 0.64784
 C1660 C 0.04853 0.54792 0.65588
 N1661 N 0.03402 0.55545 0.64798
 N1662 N 0.02775 0.54909 0.63253
 C1663 C 0.02948 0.52861 0.60689
 N1664 N 0.01563 0.53685 0.59852
 N1665 N 0.01055 0.53176 0.58219
 C1666 C 0.01911 0.51822 0.57363
 N1667 N 0.03286 0.50987 0.58207
 N1668 N 0.03795 0.51497 0.59840
 C1669 C 0.53532 0.03515 0.62476
 N1670 N 0.52741 0.04936 0.63284
 N1671 N 0.53362 0.05562 0.64836
 C1672 C 0.54800 0.04793 0.65638
 N1673 N 0.55580 0.03360 0.64836
 N1674 N 0.54958 0.02734 0.63285
 C1675 C 0.52910 0.02890 0.60717
 N1676 N 0.53752 0.01523 0.59869
 N1677 N 0.53248 0.01020 0.58232
 C1678 C 0.51881 0.01864 0.57385
 N1679 N 0.51029 0.03221 0.58240
 N1680 N 0.51533 0.03725 0.59876
 C1681 C 0.53551 0.53487 0.12451
 N1682 N 0.52761 0.54909 0.13258
 N1683 N 0.53399 0.55552 0.14796
 C1684 C 0.54850 0.54796 0.15583
 N1685 N 0.55631 0.53364 0.14783
 N1686 N 0.54993 0.52722 0.13245
 C1687 C 0.52912 0.52847 0.10703
 N1688 N 0.53745 0.51470 0.09861
 N1689 N 0.53230 0.50957 0.08231
 C1690 C 0.51863 0.51801 0.07384
 N1691 N 0.51020 0.53167 0.08234
 N1692 N 0.51535 0.53680 0.09863
 C1693 C 0.21344 0.53670 0.62760
 N1694 N 0.19929 0.52881 0.61936
 N1695 N 0.19314 0.53513 0.60386
 C1696 C 0.20090 0.54957 0.59603
 N1697 N 0.21513 0.55739 0.60421
 N1698 N 0.22128 0.55107 0.61971
 C1699 C 0.21972 0.53027 0.64508
 N1700 N 0.23356 0.53850 0.65351
 N1701 N 0.23880 0.53316 0.66970
 C1702 C 0.23040 0.51939 0.67806
 N1703 N 0.21662 0.51109 0.66959
 N1704 N 0.21138 0.51643 0.65339
 C1705 C 0.21320 0.03486 0.12524
 N1706 N 0.19872 0.02725 0.11732
 N1707 N 0.19216 0.03388 0.10211
 C1708 C 0.19982 0.04839 0.09427
 N1709 N 0.21442 0.05587 0.10212
 N1710 N 0.22098 0.04924 0.11731
 C1711 C 0.21975 0.02828 0.14256
 N1712 N 0.23374 0.03642 0.15082
 N1713 N 0.23902 0.03117 0.16703
 C1714 C 0.23051 0.01759 0.17557
 N1715 N 0.21662 0.00933 0.16724
 N1716 N 0.21134 0.01458 0.15102
 C1717 C 0.71328 0.21405 0.62315
 N1718 N 0.69917 0.22201 0.63132
 N1719 N 0.69318 0.21597 0.64700
 C1720 C 0.70111 0.20176 0.65507
 N1721 N 0.71530 0.19388 0.64695
 N1722 N 0.72128 0.19991 0.63128
 C1723 C 0.71942 0.22020 0.60552
 N1724 N 0.73312 0.21178 0.59711
 N1725 N 0.73831 0.21694 0.58085
 C1726 C 0.72998 0.23069 0.57240
 N1727 N 0.71633 0.23916 0.58086
 N1728 N 0.71114 0.23401 0.59712
 C1729 C 0.71308 0.71358 0.12183
 N1730 N 0.72088 0.69917 0.12969
 N1731 N 0.71470 0.69281 0.14516
 C1732 C 0.70050 0.70062 0.15333
 N1733 N 0.69278 0.71510 0.14554
 N1734 N 0.69896 0.72146 0.13007
 C1735 C 0.71940 0.72008 0.10440
 N1736 N 0.71116 0.73401 0.09616
 N1737 N 0.71644 0.73944 0.08001
 C1738 C 0.73017 0.73114 0.07152
 N1739 N 0.73848 0.71728 0.07982
 N1740 N 0.73320 0.71185 0.09595
 C1741 C 0.53582 0.71530 0.12527
 N1742 N 0.52783 0.70112 0.11715
 N1743 N 0.53416 0.69471 0.10177
 C1744 C 0.54872 0.70223 0.09394
 N1745 N 0.55662 0.71650 0.10198
 N1746 N 0.55028 0.72292 0.11736
 C1747 C 0.52948 0.72170 0.14274
 N1748 N 0.53793 0.73538 0.15122
 N1749 N 0.53280 0.74052 0.16751
 C1750 C 0.51904 0.73216 0.17591
 N1751 N 0.51049 0.71858 0.16736
 N1752 N 0.51561 0.71345 0.15107
 C1753 C 0.03565 0.71533 0.62549
 N1754 N 0.02774 0.70111 0.61738
 N1755 N 0.03410 0.69473 0.60199
 C1756 C 0.04861 0.70233 0.59416
 N1757 N 0.05643 0.71665 0.60220
 N1758 N 0.05007 0.72303 0.61758
 C1759 C 0.02927 0.72169 0.64297
 N1760 N 0.03760 0.73547 0.65142
 N1761 N 0.03244 0.74059 0.66771
 C1762 C 0.01877 0.73212 0.67615
 N1763 N 0.01034 0.71844 0.66762
 N1764 N 0.01549 0.71333 0.65133
 C1765 C 0.53542 0.62593 0.21479
 N1766 N 0.54987 0.61813 0.22253
 N1767 N 0.55629 0.60272 0.21625
 C1768 C 0.54848 0.59456 0.20200
 N1769 N 0.53393 0.60229 0.19435
 N1770 N 0.52752 0.61769 0.20063
 C1771 C 0.52901 0.64342 0.22106
 N1772 N 0.51513 0.65169 0.21275
 N1773 N 0.50998 0.66799 0.21780
 C1774 C 0.51851 0.67663 0.23136
 N1775 N 0.53228 0.66828 0.23976
 N1776 N 0.53743 0.65198 0.23472
 C1777 C 0.03505 0.62581 0.71483
 N1778 N 0.02732 0.61765 0.70053
 N1779 N 0.03374 0.60223 0.69430
 C1780 C 0.04813 0.59441 0.70214
 N1781 N 0.05578 0.60249 0.71652
 N1782 N 0.04935 0.61791 0.72275
 C1783 C 0.02865 0.64331 0.72104
 N1784 N 0.03685 0.65176 0.73491
 N1785 N 0.03171 0.66807 0.73992
 C1786 C 0.01818 0.67655 0.73126
 N1787 N 0.00988 0.66804 0.71749
 N1788 N 0.01502 0.65172 0.71248
 C1789 C 0.03669 0.12203 0.03784
 N1790 N 0.05107 0.12987 0.03001
 N1791 N 0.05750 0.14531 0.03623
 C1792 C 0.04981 0.15348 0.05052
 N1793 N 0.03532 0.14569 0.05825
 N1794 N 0.02889 0.13025 0.05204
 C1795 C 0.03012 0.10461 0.03147
 N1796 N 0.01624 0.09634 0.03977
 N1797 N 0.01078 0.08021 0.03444
 C1798 C 0.01899 0.07177 0.02059
 N1799 N 0.03279 0.08011 0.01223
 N1800 N 0.03825 0.09622 0.01757
 C1801 C 0.03542 0.62450 0.53494
 N1802 N 0.02753 0.63266 0.54912
 N1803 N 0.03394 0.64807 0.55546
 C1804 C 0.04847 0.65586 0.54785
 N1805 N 0.05626 0.64777 0.53357
 N1806 N 0.04986 0.63237 0.52724
 C1807 C 0.02902 0.60700 0.52861
 N1808 N 0.03745 0.59849 0.51496
 N1809 N 0.03232 0.58219 0.50987
 C1810 C 0.01855 0.57379 0.51823
 N1811 N 0.01002 0.58237 0.53178
 N1812 N 0.01515 0.59868 0.53687
 C1813 C 0.53461 0.12523 0.53484
 N1814 N 0.54899 0.13315 0.52708
 N1815 N 0.55534 0.14859 0.53335
 C1816 C 0.54754 0.15669 0.54762
 N1817 N 0.53307 0.14885 0.55529
 N1818 N 0.52672 0.13340 0.54901
 C1819 C 0.52832 0.10768 0.52859
 N1820 N 0.51452 0.09930 0.53691
 N1821 N 0.50948 0.08293 0.53190
 C1822 C 0.51806 0.07435 0.51837
 N1823 N 0.53175 0.08281 0.50995
 N1824 N 0.53678 0.09916 0.51497
 C1825 C 0.53526 0.62423 0.03511
 N1826 N 0.54963 0.63208 0.02725
 N1827 N 0.55610 0.64749 0.03349
 C1828 C 0.54843 0.65563 0.04781
 N1829 N 0.53397 0.64785 0.05557
 N1830 N 0.52751 0.63243 0.04934
 C1831 C 0.52879 0.60673 0.02889
 N1832 N 0.51511 0.59837 0.03741
 N1833 N 0.50989 0.58206 0.03240
 C1834 C 0.51817 0.57351 0.01867
 N1835 N 0.53174 0.58195 0.01004
 N1836 N 0.53696 0.59825 0.01506
 C1837 C 0.71365 0.12716 0.53708
 N1838 N 0.69946 0.11909 0.52909
 N1839 N 0.69328 0.10350 0.53516
 C1840 C 0.70105 0.09539 0.54946
 N1841 N 0.71535 0.10341 0.55736
 N1842 N 0.72153 0.11900 0.55129
 C1843 C 0.71996 0.14471 0.53086
 N1844 N 0.73376 0.15309 0.53923
 N1845 N 0.73904 0.16930 0.53400
 C1846 C 0.73071 0.17773 0.52021
 N1847 N 0.71698 0.16930 0.51179
 N1848 N 0.71170 0.15309 0.51702
 C1849 C 0.71378 0.62744 0.03595
 N1850 N 0.72156 0.61949 0.05032
 N1851 N 0.71534 0.60400 0.05658
 C1852 C 0.70112 0.59588 0.04869
 N1853 N 0.69342 0.60376 0.03424
 N1854 N 0.69964 0.61926 0.02798
 C1855 C 0.72012 0.64491 0.02955
 N1856 N 0.71189 0.65318 0.01562
 N1857 N 0.71716 0.66936 0.01029
 C1858 C 0.73087 0.67786 0.01869
 N1859 N 0.73916 0.66954 0.03255
 N1860 N 0.73389 0.65336 0.03788
 C1861 C 0.21339 0.62274 0.71333
 N1862 N 0.22123 0.63075 0.69903
 N1863 N 0.21509 0.64630 0.69283
 C1864 C 0.20089 0.65441 0.70073
 N1865 N 0.19314 0.64646 0.71510
 N1866 N 0.19927 0.63091 0.72128
 C1867 C 0.21966 0.60524 0.71968
 N1868 N 0.21133 0.59692 0.73351
 N1869 N 0.21658 0.58074 0.73885
 C1870 C 0.23035 0.57231 0.73057
 N1871 N 0.23875 0.58068 0.71681
 N1872 N 0.23349 0.59685 0.71146
 C1873 C 0.21463 0.12400 0.21350
 N1874 N 0.22220 0.13191 0.19901
 N1875 N 0.21579 0.14728 0.19266
 C1876 C 0.20154 0.15532 0.20056
 N1877 N 0.19410 0.14749 0.21518
 N1878 N 0.20052 0.13211 0.22152
 C1879 C 0.22102 0.10654 0.21986
 N1880 N 0.21285 0.09824 0.23379
 N1881 N 0.21797 0.08196 0.23893
 C1882 C 0.23148 0.07339 0.23034
 N1883 N 0.23976 0.08176 0.21651
 N1884 N 0.23463 0.09804 0.21137
 C1885 C 0.71508 1.12477 0.71496
 N1886 N 0.72269 1.13268 0.70049
 N1887 N 0.71634 1.14810 0.69419
 C1888 C 0.70215 1.15616 0.70213
 N1889 N 0.69464 1.14832 0.71669
 N1890 N 0.70098 1.13290 0.72299
 C1891 C 0.72138 1.10725 0.72123
 N1892 N 0.71317 1.09891 0.73512
 N1893 N 0.71823 1.08259 0.74018
 C1894 C 0.73169 1.07401 0.73153
 N1895 N 0.74001 1.08242 0.71774
 N1896 N 0.73495 1.09874 0.71269
 C1897 C 0.71338 0.62243 0.21207
 N1898 N 0.72109 0.63043 0.19770
 N1899 N 0.71484 0.64593 0.19150
 C1900 C 0.70064 0.65399 0.19943
 N1901 N 0.69300 0.64604 0.21387
 N1902 N 0.69925 0.63054 0.22007
 C1903 C 0.71978 0.60499 0.21846
 N1904 N 0.71156 0.59666 0.23235
 N1905 N 0.71693 0.58054 0.23774
 C1906 C 0.73073 0.57215 0.22943
 N1907 N 0.73901 0.58053 0.21560
 N1908 N 0.73364 0.59665 0.21021
 C1909 C 0.53445 0.12529 0.71480
 N1910 N 0.52672 0.11728 0.70041
 N1911 N 0.53300 0.10180 0.69418
 C1912 C 0.54722 0.09376 0.70211
 N1913 N 0.55485 0.10170 0.71658
 N1914 N 0.54858 0.11718 0.72281
 C1915 C 0.52820 0.14285 0.72103
 N1916 N 0.53643 0.15121 0.73492
 N1917 N 0.53140 0.16754 0.73998
 C1918 C 0.51793 0.17613 0.73132
 N1919 N 0.50960 0.16771 0.71752
 N1920 N 0.51463 0.15137 0.71247
 C1921 C 1.03533 0.12490 0.21420
 N1922 N 1.04959 0.11689 0.22210
 N1923 N 1.05606 0.10157 0.21569
 C1924 C 1.04852 0.09369 0.20113
 N1925 N 1.03417 0.10163 0.19332
 N1926 N 1.02769 0.11695 0.19974
 C1927 C 1.02888 0.14232 0.22062
 N1928 N 1.01510 0.15069 0.21227
 N1929 N 1.00992 0.16696 0.21743
 C1930 C 1.01833 0.17544 0.23115
 N1931 N 1.03201 0.16698 0.23961
 N1932 N 1.03718 0.15072 0.23444
 C1933 C 0.21355 0.62791 0.53745
 N1934 N 0.22133 0.61991 0.55179
 N1935 N 0.21514 0.60436 0.55794
 C1936 C 0.20097 0.59624 0.54997
 N1937 N 0.19327 0.60419 0.53556
 N1938 N 0.19945 0.61974 0.52941
 C1939 C 0.21987 0.64542 0.53112
 N1940 N 0.21159 0.65374 0.51726
 N1941 N 0.21688 0.66991 0.51193
 C1942 C 0.23066 0.67835 0.52027
 N1943 N 0.23900 0.66998 0.53407
 N1944 N 0.23370 0.65381 0.53941
 C1945 C 0.21248 0.12682 1.03715
 N1946 N 0.19808 0.11894 1.02934
 N1947 N 0.19178 0.10343 1.03547
 C1948 C 0.19966 0.09522 1.04964
 N1949 N 0.21413 0.10304 1.05738
 N1950 N 0.22043 0.11855 1.05124
 C1951 C 0.21892 0.14429 1.03087
 N1952 N 0.23289 0.15251 1.03910
 N1953 N 0.23829 0.16867 1.03383
 C1954 C 0.22990 0.17720 1.02015
 N1955 N 0.21599 0.16894 1.01187
 N1956 N 0.21059 0.15278 1.01714
 C1957 C 0.21370 0.71395 0.62316
 N1958 N 0.19954 0.72183 0.63133
 N1959 N 0.19333 0.71551 0.64680
 C1960 C 0.20104 0.70107 0.65466
 N1961 N 0.21528 0.69326 0.64655
 N1962 N 0.22150 0.69958 0.63108
 C1963 C 0.22004 0.72039 0.60571
 N1964 N 0.23387 0.71216 0.59733
 N1965 N 0.23916 0.71750 0.58117
 C1966 C 0.23080 0.73128 0.57278
 N1967 N 0.21703 0.73958 0.58120
 N1968 N 0.21175 0.73424 0.59738
 C1969 C 0.21327 0.21292 1.12343
 N1970 N 0.22118 0.19867 1.13143
 N1971 N 0.21506 0.19240 1.14695
 C1972 C 0.20077 0.20014 1.15507
 N1973 N 0.19296 0.21450 1.14713
 N1974 N 0.19909 0.22077 1.13160
 C1975 C 0.21952 0.21929 1.10592
 N1976 N 0.21116 0.23308 1.09755
 N1977 N 0.21639 0.23838 1.08134
 C1978 C 0.23016 0.23008 1.07292
 N1979 N 0.23858 0.21636 1.08134
 N1980 N 0.23335 0.21107 1.09754
 C1981 C 0.71378 0.53662 0.12654
 N1982 N 0.69959 0.52873 0.11837
 N1983 N 0.69338 0.53502 0.10288
 C1984 C 0.70113 0.54944 0.09500
 N1985 N 0.71539 0.55726 0.10311
 N1986 N 0.72161 0.55096 0.11860
 C1987 C 0.72012 0.53019 0.14401
 N1988 N 0.73398 0.53842 0.15241
 N1989 N 0.73926 0.53308 0.16858
 C1990 C 0.73088 0.51931 0.17696
 N1991 N 0.71708 0.51100 0.16852
 N1992 N 0.71180 0.51635 0.15234
 C1993 C 0.71483 1.03558 0.62572
 N1994 N 0.72257 1.05008 0.61796
 N1995 N 0.71628 1.05658 0.60259
 C1996 C 0.70202 1.04882 0.59441
 N1997 N 0.69438 1.03423 0.60209
 N1998 N 0.70066 1.02774 0.61747
 C1999 C 0.72110 1.02911 0.64319
 N2000 N 0.71279 1.01521 0.65144
 N2001 N 0.71783 1.01001 0.66774
 C2002 C 0.73138 1.01851 0.67639
 N2003 N 0.73979 1.03230 0.66807
 N2004 N 0.73475 1.03749 0.65177
 C2005 C 0.53493 0.21578 0.62550
 N2006 N 0.52699 0.20163 0.61731
 N2007 N 0.53328 0.19537 0.60185
 C2008 C 0.54776 0.20303 0.59401
 N2009 N 0.55562 0.21728 0.60213
 N2010 N 0.54932 0.22354 0.61759
 C2011 C 0.52865 0.22198 0.64307
 N2012 N 0.53701 0.23569 0.65160
 N2013 N 0.53194 0.24065 0.66796
 C2014 C 0.51833 0.23208 0.67639
 N2015 N 0.50987 0.21847 0.66779
 N2016 N 0.51493 0.21352 0.65143
 C2017 C 1.03627 0.21322 0.12575
 N2018 N 1.02850 0.19876 0.11791
 N2019 N 1.03500 0.19207 0.10272
 C2020 C 1.04954 0.19956 0.09480
 N2021 N 1.05718 0.21414 0.10256
 N2022 N 1.05068 0.22083 0.11775
 C2023 C 1.02976 0.21989 0.14305
 N2024 N 1.03811 0.23372 0.15140
 N2025 N 1.03286 0.23907 0.16759
 C2026 C 1.01906 0.23080 0.17601
 N2027 N 1.01060 0.21708 0.16757
 N2028 N 1.01584 0.21174 0.15139
 C2029 C 0.62437 0.21502 0.71537
 N2030 N 0.63223 0.22285 0.70099
 N2031 N 0.64763 0.21662 0.69459
 C2032 C 0.65575 0.20234 0.70234
 N2033 N 0.64796 0.19462 0.71683
 N2034 N 0.63255 0.20084 0.72322
 C2035 C 0.60686 0.22122 0.72174
 N2036 N 0.59850 0.21276 0.73547
 N2037 N 0.58218 0.21774 0.74058
 C2038 C 0.57364 0.23137 0.73214
 N2039 N 0.58207 0.23993 0.71852
 N2040 N 0.59838 0.23494 0.71341
 C2041 C 1.12443 0.21373 0.21460
 N2042 N 1.13251 0.19941 0.22232
 N2043 N 1.14786 0.19311 0.21585
 C2044 C 1.15569 0.20088 0.20142
 N2045 N 1.14769 0.21529 0.19379
 N2046 N 1.13234 0.22160 0.20026
 C2047 C 1.10700 0.22004 0.22105
 N2048 N 1.09862 0.23391 0.21286
 N2049 N 1.08236 0.23900 0.21804
 C2050 C 1.07388 0.23041 0.23161
 N2051 N 1.08232 0.21663 0.23991
 N2052 N 1.09859 0.21155 0.23473
 C2053 C 0.12737 0.71377 0.53604
 N2054 N 0.11922 0.69957 0.52813
 N2055 N 0.10362 0.69351 0.53425
 C2056 C 0.09559 0.70145 0.54848
 N2057 N 0.10369 0.71572 0.55631
 N2058 N 0.11929 0.72177 0.55020
 C2059 C 0.14494 0.71996 0.52979
 N2060 N 0.15334 0.73379 0.53809
 N2061 N 0.16956 0.73899 0.53287
 C2062 C 0.17798 0.73056 0.51916
 N2063 N 0.16954 0.71679 0.51080
 N2064 N 0.15332 0.71159 0.51602
 C2065 C 0.12725 0.21179 1.03674
 N2066 N 0.11930 0.19732 1.02910
 N2067 N 0.10388 0.19105 1.03545
 C2068 C 0.09584 0.19901 1.04967
 N2069 N 0.10373 0.21354 1.05723
 N2070 N 0.11915 0.21981 1.05088
 C2071 C 0.14465 0.21823 1.03027
 N2072 N 0.15291 0.23223 1.03842
 N2073 N 0.16902 0.23762 1.03305
 C2074 C 0.17746 0.22922 1.01933
 N2075 N 0.16914 0.21529 1.01111
 N2076 N 0.15303 0.20989 1.01648
 C2077 C 0.62743 0.53675 0.21382
 N2078 N 0.61934 0.55096 0.22172
 N2079 N 0.60372 0.55700 0.21564
 C2080 C 0.59561 0.54904 0.20144
 N2081 N 0.60364 0.53476 0.19362
 N2082 N 0.61927 0.52872 0.19970
 C2083 C 0.64502 0.53056 0.22003
 N2084 N 0.65336 0.51674 0.21171
 N2085 N 0.66959 0.51154 0.21689
 C2086 C 0.67808 0.51997 0.23060
 N2087 N 0.66970 0.53373 0.23898
 N2088 N 0.65346 0.53893 0.23379
 C2089 C 0.62518 1.03504 0.71520
 N2090 N 0.61703 1.04926 0.72303
 N2091 N 0.60156 1.05542 0.71670
 C2092 C 0.59366 1.04759 0.70230
 N2093 N 0.60174 1.03328 0.69456
 N2094 N 0.61721 1.02712 0.70089
 C2095 C 0.64273 1.02888 0.72152
 N2096 N 0.65120 1.01515 0.71319
 N2097 N 0.66753 1.01017 0.71829
 C2098 C 0.67600 1.01874 0.73192
 N2099 N 0.66746 1.03238 0.74036
 N2100 N 0.65113 1.03735 0.73526
 C2101 C 0.87423 0.46399 0.28597
 N2102 N 0.88210 0.47154 0.30052
 N2103 N 0.89729 0.46491 0.30707
 C2104 C 0.90515 0.45049 0.29933
 N2105 N 0.89735 0.44303 0.28469
 N2106 N 0.88217 0.44966 0.27813
 C2107 C 0.85695 0.47062 0.27940
 N2108 N 0.84867 0.46254 0.26537
 N2109 N 0.83252 0.46787 0.26006
 C2110 C 0.82405 0.48149 0.26859
 N2111 N 0.83240 0.48969 0.28251
 N2112 N 0.84856 0.48436 0.28781
 C2113 C 0.87244 0.96349 0.78737
 N2114 N 0.88040 0.94922 0.77945
 N2115 N 0.89593 0.94299 0.78558
 C2116 C 0.90407 0.95082 0.79983
 N2117 N 0.89616 0.96517 0.80767
 N2118 N 0.88063 0.97140 0.80155
 C2119 C 0.85495 0.96984 0.78109
 N2120 N 0.84665 0.98372 0.78935
 N2121 N 0.83048 0.98902 0.78406
 C2122 C 0.82202 0.98063 0.77032
 N2123 N 0.83037 0.96681 0.76200
 N2124 N 0.84653 0.96151 0.76729
 C2125 C 0.37699 0.28618 0.78707
 N2126 N 0.36890 0.30035 0.77910
 N2127 N 0.35326 0.30640 0.78511
 C2128 C 0.34514 0.29849 0.79930
 N2129 N 0.35317 0.28425 0.80720
 N2130 N 0.36881 0.27820 0.80119
 C2131 C 0.39457 0.28000 0.78090
 N2132 N 0.40292 0.26614 0.78916
 N2133 N 0.41914 0.26094 0.78394
 C2134 C 0.42760 0.26941 0.77028
 N2135 N 0.41921 0.28321 0.76197
 N2136 N 0.40299 0.28841 0.76718
 C2137 C 0.87738 0.28553 0.28646
 N2138 N 0.86919 0.27773 0.30068
 N2139 N 0.85363 0.28397 0.30670
 C2140 C 0.84568 0.29822 0.29872
 N2141 N 0.85382 0.30594 0.28443
 N2142 N 0.86938 0.29971 0.27842
 C2143 C 0.89490 0.27915 0.28029
 N2144 N 0.90331 0.28734 0.26644
 N2145 N 0.91950 0.28201 0.26126
 C2146 C 0.92787 0.26830 0.26973
 N2147 N 0.91941 0.26004 0.28353
 N2148 N 0.90322 0.26537 0.28871
 C2149 C 0.37431 0.78633 0.46426
 N2150 N 0.38226 0.80069 0.47209
 N2151 N 0.39749 0.80727 0.46560
 C2152 C 0.40532 0.79975 0.45104
 N2153 N 0.39744 0.78530 0.44330
 N2154 N 0.38221 0.77872 0.44979
 C2155 C 0.35698 0.77975 0.47075
 N2156 N 0.34856 0.76602 0.46231
 N2157 N 0.33237 0.76074 0.46753
 C2158 C 0.32400 0.76898 0.48139
 N2159 N 0.33249 0.78261 0.48993
 N2160 N 0.34869 0.78789 0.48471
 C2161 C 0.37373 0.28541 0.96464
 N2162 N 0.38171 0.27778 0.95021
 N2163 N 0.39695 0.28439 0.94377
 C2164 C 0.40477 0.29887 0.95150
 N2165 N 0.39686 0.30641 0.96601
 N2166 N 0.38162 0.29980 0.97246
 C2167 C 0.35640 0.27879 0.97109
 N2168 N 0.34807 0.28691 0.98504
 N2169 N 0.33188 0.28159 0.99023
 C2170 C 0.32342 0.26795 0.98167
 N2171 N 0.33183 0.25973 0.96782
 N2172 N 0.34802 0.26505 0.96263
 C2173 C 0.78508 0.46495 0.37421
 N2174 N 0.79946 0.47275 0.38213
 N2175 N 0.80583 0.46648 0.39757
 C2176 C 0.79805 0.45220 0.40565
 N2177 N 0.78357 0.44450 0.39781
 N2178 N 0.77720 0.45076 0.38237
 C2179 C 0.77876 0.47119 0.35667
 N2180 N 0.76495 0.46285 0.34828
 N2181 N 0.75990 0.46788 0.33193
 C2182 C 0.76846 0.48143 0.32337
 N2183 N 0.78216 0.48986 0.33184
 N2184 N 0.78721 0.48485 0.34819
 C2185 C 0.78620 0.96370 0.87336
 N2186 N 0.80041 0.97167 0.88142
 N2187 N 0.80667 0.96552 0.89695
 C2188 C 0.79895 0.95118 0.90499
 N2189 N 0.78466 0.94328 0.89699
 N2190 N 0.77840 0.94943 0.88146
 C2191 C 0.77983 0.96997 0.85584
 N2192 N 0.76608 0.96156 0.84742
 N2193 N 0.76079 0.96680 0.83121
 C2194 C 0.76904 0.98064 0.82283
 N2195 N 0.78272 0.98911 0.83130
 N2196 N 0.78801 0.98388 0.84750
 C2197 C 0.28593 0.78663 0.37621
 N2198 N 0.27831 0.80107 0.36826
 N2199 N 0.28491 0.80759 0.35303
 C2200 C 0.29937 0.79990 0.34520
 N2201 N 0.30690 0.78537 0.35307
 N2202 N 0.30030 0.77886 0.36830
 C2203 C 0.27935 0.78010 0.39354
 N2204 N 0.28761 0.76627 0.40192
 N2205 N 0.28235 0.76101 0.41812
 C2206 C 0.26861 0.76938 0.42653
 N2207 N 0.26023 0.78310 0.41808
 N2208 N 0.26550 0.78836 0.40187
 C2209 C 0.28479 0.28487 0.87599
 N2210 N 0.27693 0.29906 0.86781
 N2211 N 0.28335 0.30537 0.85243
 C2212 C 0.29788 0.29775 0.84466
 N2213 N 0.30565 0.28347 0.85276
 N2214 N 0.29922 0.27715 0.86814
 C2215 C 0.27840 0.27857 0.89347
 N2216 N 0.28681 0.26490 0.90197
 N2217 N 0.28168 0.25982 0.91827
 C2218 C 0.26795 0.26821 0.92667
 N2219 N 0.25943 0.28177 0.91810
 N2220 N 0.26456 0.28686 0.90179
 C2221 C 0.46336 0.28690 0.87320
 N2222 N 0.47100 0.30139 0.88110
 N2223 N 0.46470 0.30769 0.89655
 C2224 C 0.45054 0.29973 0.90466
 N2225 N 0.44298 0.28517 0.89682
 N2226 N 0.44927 0.27888 0.88137
 C2227 C 0.46977 0.28046 0.85576
 N2228 N 0.46163 0.26644 0.84752
 N2229 N 0.46694 0.26106 0.83137
 C2230 C 0.48059 0.26950 0.82287
 N2231 N 0.48880 0.28344 0.83116
 N2232 N 0.48349 0.28883 0.84731
 C2233 C 0.96339 0.28652 0.37248
 N2234 N 0.94925 0.27854 0.38060
 N2235 N 0.94306 0.28473 0.39614
 C2236 C 0.95079 0.29912 0.40412
 N2237 N 0.96501 0.30703 0.39605
 N2238 N 0.97120 0.30084 0.38052
 C2239 C 0.96972 0.28017 0.35499
 N2240 N 0.98357 0.28842 0.34664
 N2241 N 0.98888 0.28308 0.33047
 C2242 C 0.98051 0.26929 0.32206
 N2243 N 0.96671 0.26099 0.33045
 N2244 N 0.96142 0.26633 0.34662
 C2245 C 0.46311 0.37273 0.78680
 N2246 N 0.44900 0.38097 0.77889
 N2247 N 0.44290 0.39649 0.78520
 C2248 C 0.45069 0.40433 0.79965
 N2249 N 0.46488 0.39614 0.80748
 N2250 N 0.47098 0.38063 0.80117
 C2251 C 0.46932 0.35523 0.78038
 N2252 N 0.48310 0.34678 0.78865
 N2253 N 0.48829 0.33059 0.78330
 C2254 C 0.47989 0.32225 0.76950
 N2255 N 0.46617 0.33074 0.76116
 N2256 N 0.46098 0.34694 0.76650
 C2257 C 0.96338 0.37196 0.28681
 N2258 N 0.94922 0.38014 0.27892
 N2259 N 0.94298 0.39557 0.28531
 C2260 C 0.95067 0.40338 0.29983
 N2261 N 0.96490 0.39525 0.30765
 N2262 N 0.97114 0.37983 0.30125
 C2263 C 0.96976 0.35455 0.28028
 N2264 N 0.98362 0.34618 0.28850
 N2265 N 0.98895 0.33006 0.28307
 C2266 C 0.98062 0.32171 0.26922
 N2267 N 0.96682 0.33013 0.26093
 N2268 N 0.96150 0.34626 0.26636
 C2269 C 0.28651 0.87472 0.46463
 N2270 N 0.30102 0.88264 0.47218
 N2271 N 0.30754 0.89785 0.46554
 C2272 C 0.29978 0.90569 0.45109
 N2273 N 0.28518 0.89785 0.44364
 N2274 N 0.27866 0.88264 0.45028
 C2275 C 0.27998 0.85741 0.47125
 N2276 N 0.26602 0.84909 0.46309
 N2277 N 0.26076 0.83290 0.46837
 C2278 C 0.26925 0.82442 0.48202
 N2279 N 0.28309 0.83281 0.49030
 N2280 N 0.28836 0.84901 0.48501
 C2281 C 0.28565 0.37400 0.96570
 N2282 N 0.27764 0.38216 0.95158
 N2283 N 0.28405 0.39752 0.94517
 C2284 C 0.29870 0.40527 0.95263
 N2285 N 0.30661 0.39717 0.96685
 N2286 N 0.30021 0.38182 0.97327
 C2287 C 0.27923 0.35655 0.97208
 N2288 N 0.28768 0.34802 0.98573
 N2289 N 0.28248 0.33175 0.99084
 C2290 C 0.26865 0.32340 0.98250
 N2291 N 0.26010 0.33200 0.96896
 N2292 N 0.26529 0.34828 0.96386
 C2293 C 0.78607 0.37548 0.28456
 N2294 N 0.77807 0.36737 0.29871
 N2295 N 0.78439 0.35199 0.30513
 C2296 C 0.79894 0.34415 0.29765
 N2297 N 0.80687 0.35218 0.28341
 N2298 N 0.80055 0.36756 0.27698
 C2299 C 0.77972 0.39294 0.27815
 N2300 N 0.78817 0.40142 0.26449
 N2301 N 0.78302 0.41769 0.25934
 C2302 C 0.76922 0.42607 0.26764
 N2303 N 0.76068 0.41751 0.28120
 N2304 N 0.76582 0.40124 0.28634
   
