data_POSCAR
  _audit_creation_date              2014-09-24
  _audit_creation_method            'ToBaCCo'
  _symmetry_space_group_name_H-M    'P1'
  _symmetry_Int_Tables_number       1
  _symmetry_cell_setting            triclinic
  loop_
  _symmetry_equiv_pos_as_xyz
 x,y,z
_cell_length_a 58.8419
_cell_length_b 58.8519
_cell_length_c 58.8320
_cell_angle_alpha 90.033300
_cell_angle_beta 90.041600
_cell_angle_gamma 89.988600
loop_
  _atom_site_label
  _atom_site_type_symbol
  _atom_site_fract_x
  _atom_site_fract_y
  _atom_site_fract_z
O1 O 0.26758 1.02268 0.01988
 O2 O 0.26924 0.97559 -0.02136
 O3 O 0.26861 1.02007 -0.02399
 O4 O 0.26793 0.97859 0.02287
 O5 O 0.23051 0.97659 0.02040
 O6 O 0.23106 1.02015 -0.02446
 O7 O 0.23179 0.97636 -0.02374
 O8 O 0.23007 1.02097 0.02014
 Cu9 Cu 0.27212 0.99924 -0.00058
 Cu10 Cu 0.22707 0.99852 -0.00194
 C11 C 0.24854 1.02962 0.02723
 C12 C 0.25080 0.96818 -0.02986
 C13 C 0.24993 1.02730 -0.03205
 C14 C 0.24910 0.97033 0.02940
 O15 O 0.73055 0.52163 0.52225
 O16 O 0.73289 0.47735 0.47807
 O17 O 0.73140 0.47722 0.52221
 O18 O 0.73177 0.52116 0.47765
 O19 O 0.76932 0.52152 0.47840
 O20 O 0.76880 0.47946 0.52481
 O21 O 0.77037 0.47705 0.48050
 O22 O 0.76805 0.52362 0.52226
 Cu23 Cu 0.72787 0.49930 0.50001
 Cu24 Cu 0.77291 0.50044 0.50160
 C25 C 0.74890 0.53038 0.52952
 C26 C 0.75203 0.46954 0.47192
 C27 C 0.75001 0.47099 0.53120
 C28 C 0.75062 0.52860 0.47025
 O29 O 0.76842 0.97831 1.02446
 O30 O 0.76834 1.02148 0.97916
 O31 O 0.76844 1.02281 1.02312
 O32 O 0.76852 0.97697 0.98047
 O33 O 0.73096 0.97713 0.98026
 O34 O 0.73091 1.02250 1.02340
 O35 O 0.73080 1.02119 0.97892
 O36 O 0.73089 0.97859 1.02480
 Cu37 Cu 0.77220 0.99989 1.00180
 Cu38 Cu 0.72712 0.99983 1.00182
 C39 C 0.74968 0.97115 1.03243
 C40 C 0.74956 1.02868 0.97134
 C41 C 0.74967 1.03044 1.03059
 C42 C 0.74975 0.96929 0.97309
 O43 O 0.26766 0.47895 0.52350
 O44 O 0.26860 0.52083 0.47701
 O45 O 0.26719 0.52302 0.52080
 O46 O 0.26935 0.47627 0.47918
 O47 O 0.23188 0.47675 0.47668
 O48 O 0.22967 0.52131 0.52061
 O49 O 0.23106 0.52063 0.47610
 O50 O 0.23025 0.47699 0.52084
 Cu51 Cu 0.27199 0.49974 0.50020
 Cu52 Cu 0.22693 0.49889 0.49847
 C53 C 0.24878 0.47073 0.52995
 C54 C 0.24997 0.52804 0.46884
 C55 C 0.24806 0.52994 0.52795
 C56 C 0.25099 0.46878 0.47062
 O57 O 1.02230 0.23248 0.02357
 O58 O 0.98017 0.23097 -0.02285
 O59 O 1.02452 0.23158 -0.02051
 O60 O 0.97849 0.23135 0.02177
 O61 O 0.97819 0.26890 0.02172
 O62 O 1.02242 0.26901 -0.02256
 O63 O 0.97820 0.26843 -0.02216
 O64 O 1.02269 0.26998 0.02176
 Cu65 Cu 1.00138 0.22780 0.00047
 Cu66 Cu 1.00035 0.27286 -0.00035
 C67 C 1.02983 0.25152 0.03036
 C68 C 0.97174 0.24947 -0.03018
 C69 C 1.03119 0.25031 -0.02884
 C70 C 0.97072 0.25007 0.02915
 O71 O 0.52221 0.76998 0.52244
 O72 O 0.47799 0.76812 0.47827
 O73 O 0.47767 0.76876 0.52216
 O74 O 0.52217 0.76879 0.47806
 O75 O 0.52430 0.73137 0.48024
 O76 O 0.47814 0.73122 0.52245
 O77 O 0.47995 0.73063 0.47788
 O78 O 0.52197 0.73249 0.52437
 Cu79 Cu 0.49999 0.77269 0.50019
 Cu80 Cu 0.50114 0.72764 0.50124
 C81 C 0.52938 0.75159 0.53114
 C82 C 0.47160 0.74909 0.47040
 C83 C 0.47022 0.74995 0.52966
 C84 C 0.53095 0.75008 0.47182
 O85 O 0.02172 0.76810 -0.02304
 O86 O -0.02235 0.76785 0.02148
 O87 O 0.02220 0.76933 0.02142
 O88 O -0.02242 0.76719 -0.02234
 O89 O -0.02003 0.72975 -0.02296
 O90 O 0.02204 0.73185 0.02353
 O91 O -0.02179 0.73031 0.02164
 O92 O 0.02433 0.73076 -0.02061
 Cu93 Cu -0.00023 0.77189 -0.00065
 Cu94 Cu 0.00121 0.72688 0.00041
 C95 C 0.03070 0.74947 -0.02926
 C96 C -0.02973 0.74899 0.02894
 C97 C 0.02943 0.75099 0.03019
 C98 C -0.02867 0.74814 -0.03031
 O99 O 0.52273 0.26892 0.47822
 O100 O 0.47770 0.26822 0.52170
 O101 O 0.52225 0.27000 0.52264
 O102 O 0.47863 0.26766 0.47789
 O103 O 0.48110 0.23019 0.47742
 O104 O 0.52242 0.23250 0.52454
 O105 O 0.47861 0.23068 0.52187
 O106 O 0.52537 0.23153 0.48041
 Cu107 Cu 0.50029 0.27249 0.50010
 Cu108 Cu 0.50200 0.22745 0.50108
 C109 C 0.53180 0.25033 0.47205
 C110 C 0.47032 0.24929 0.52896
 C111 C 0.52952 0.25168 0.53143
 C112 C 0.47258 0.24857 0.46990
 O113 O 1.02141 0.02206 0.27080
 O114 O 0.97724 -0.02226 0.27101
 O115 O 1.02165 -0.02246 0.27183
 O116 O 0.97752 0.02187 0.26962
 O117 O 0.97716 0.01950 0.23213
 O118 O 1.02365 -0.02228 0.23432
 O119 O 0.97959 -0.02486 0.23365
 O120 O 1.02173 0.02148 0.23325
 Cu121 Cu 0.99940 -0.00015 0.27460
 Cu122 Cu 1.00052 -0.00160 0.22955
 C123 C 1.02894 0.02944 0.25198
 C124 C 0.97106 -0.03131 0.25240
 C125 C 1.03040 -0.02963 0.25344
 C126 C 0.96969 0.02805 0.25049
 O127 O 0.52048 0.52207 0.73331
 O128 O 0.47884 0.47534 0.73348
 O129 O 0.47593 0.51969 0.73203
 O130 O 0.52289 0.47831 0.73432
 O131 O 0.52085 0.47817 0.77182
 O132 O 0.47606 0.52191 0.76953
 O133 O 0.47652 0.47771 0.77089
 O134 O 0.51995 0.52266 0.77086
 Cu135 Cu 0.49953 0.49880 0.72950
 Cu136 Cu 0.49826 0.50017 0.77455
 C137 C 0.52750 0.53011 0.75208
 C138 C 0.47049 0.46870 0.75223
 C139 C 0.46825 0.52809 0.75038
 C140 C 0.52970 0.47105 0.75346
 O141 O 0.97611 1.02289 0.76781
 O142 O 1.02051 0.97876 0.76962
 O143 O 1.01993 1.02333 0.76835
 O144 O 0.97610 0.97876 0.76950
 O145 O 0.97784 0.97599 0.73208
 O146 O 1.01964 1.02258 0.73079
 O147 O 1.02198 0.97873 0.73209
 O148 O 0.97511 1.02022 0.73038
 Cu149 Cu 0.99819 1.00099 0.77260
 Cu150 Cu 0.99862 0.99928 0.72756
 C151 C 0.96786 1.02890 0.74878
 C152 C 1.02902 0.97149 0.75115
 C153 C 1.02703 1.03073 0.74937
 C154 C 0.96965 0.96966 0.75102
 O155 O 0.47797 0.52233 0.26648
 O156 O 0.52218 0.47813 0.26870
 O157 O 0.52180 0.52268 0.26753
 O158 O 0.47778 0.47822 0.26802
 O159 O 0.47988 0.47563 0.23061
 O160 O 0.52206 0.52196 0.22997
 O161 O 0.52403 0.47812 0.23119
 O162 O 0.47755 0.51993 0.22900
 Cu163 Cu 0.49990 0.50038 0.27147
 Cu164 Cu 0.50089 0.49881 0.22641
 C165 C 0.47010 0.52849 0.24736
 C166 C 0.53084 0.47086 0.25031
 C167 C 0.52923 0.53005 0.24867
 C168 C 0.47147 0.46924 0.24943
 O169 O 0.24979 0.19028 0.21678
 O170 O 0.27599 0.18276 0.24730
 O171 O 0.19235 0.21736 0.25318
 O172 O 0.18444 0.24728 0.27474
 O173 O 0.21843 0.25135 0.19191
 O174 O 0.25038 0.27522 0.18512
 O175 O 0.25429 0.27841 0.30943
 O176 O 0.22735 0.24812 0.31527
 O177 O 0.31109 0.24705 0.27965
 O178 O 0.31725 0.22293 0.24696
 O179 O 0.28340 0.30654 0.25254
 O180 O 0.25079 0.31448 0.22639
 O181 O 0.25230 0.30624 0.28270
 O182 O 0.22697 0.31423 0.25068
 O183 O 0.31043 0.27908 0.24933
 O184 O 0.31584 0.24653 0.22252
 O185 O 0.28457 0.24876 0.30770
 O186 O 0.25729 0.22217 0.31502
 O187 O 0.25026 0.21830 0.19012
 O188 O 0.27501 0.24997 0.18384
 O189 O 0.19179 0.24889 0.21986
 O190 O 0.18779 0.27553 0.25234
 O191 O 0.21909 0.18980 0.24870
 O192 O 0.25225 0.18193 0.27311
 Zr193 Zr 0.25008 0.20766 0.24807
 O194 O 0.27207 0.22642 0.26920
 Zr195 Zr 0.21073 0.24788 0.25028
 O196 O 0.23097 0.26840 0.27157
 Zr197 Zr 0.24962 0.24859 0.20921
 O198 O 0.27154 0.26913 0.22866
 Zr199 Zr 0.25336 0.24810 0.29045
 O200 O 0.23098 0.22709 0.27142
 Zr201 Zr 0.29199 0.24843 0.24938
 O202 O 0.27184 0.22768 0.22792
 Zr203 Zr 0.25237 0.28878 0.25153
 O204 O 0.23020 0.27015 0.23013
 O205 O 0.22868 0.22725 0.22799
 O206 O 0.27426 0.26956 0.27165
 C207 C 0.25019 0.19730 0.19611
 C208 C 0.19849 0.19648 0.25149
 C209 C 0.19776 0.25088 0.19894
 C210 C 0.25345 0.29936 0.30337
 C211 C 0.30518 0.24782 0.30065
 C212 C 0.30414 0.29992 0.25105
 H213 H 0.28142 0.21582 0.27830
 H214 H 0.28074 0.27868 0.21837
 H215 H 0.21858 0.21787 0.21833
 H216 H 0.22103 0.27748 0.28164
 H217 H 0.21697 0.23543 0.31145
 H218 H 0.19094 0.25318 0.28907
 H219 H 0.31309 0.25956 0.21225
 H220 H 0.28704 0.23917 0.18850
 H221 H 0.24778 0.20932 0.30994
 H222 H 0.23915 0.18390 0.28347
 H223 H 0.26361 0.31218 0.21577
 H224 H 0.24101 0.28766 0.19149
 H225 H 0.28745 0.18809 0.23621
 H226 H 0.31299 0.21056 0.25750
 H227 H 0.19160 0.28602 0.23976
 H228 H 0.21550 0.31035 0.26232
 O229 O 0.75050 0.80964 0.22079
 O230 O 0.72701 0.81578 0.25347
 O231 O 0.81045 0.77957 0.25005
 O232 O 0.81779 0.74986 0.27302
 O233 O 0.78078 0.75094 0.19075
 O234 O 0.74844 0.72673 0.18422
 O235 O 0.75204 0.71627 0.30798
 O236 O 0.77802 0.74711 0.31429
 O237 O 0.69260 0.75061 0.28306
 O238 O 0.68556 0.77652 0.25131
 O239 O 0.71760 0.69195 0.24841
 O240 O 0.74996 0.68491 0.22307
 O241 O 0.74770 0.69006 0.27988
 O242 O 0.77385 0.68340 0.24722
 O243 O 0.69110 0.71981 0.25231
 O244 O 0.68442 0.75292 0.22675
 O245 O 0.72024 0.74576 0.30965
 O246 O 0.74767 0.77133 0.31774
 O247 O 0.75033 0.78321 0.19251
 O248 O 0.72372 0.75287 0.18579
 O249 O 0.80853 0.74788 0.21756
 O250 O 0.81416 0.72180 0.24901
 O251 O 0.78384 0.80756 0.25235
 O252 O 0.75165 0.81496 0.27737
 Zr253 Zr 0.75239 0.79046 0.25103
 O254 O 0.73122 0.77073 0.27204
 Zr255 Zr 0.79118 0.74949 0.24883
 O256 O 0.77162 0.72800 0.26976
 Zr257 Zr 0.75050 0.75195 0.20974
 O258 O 0.72913 0.73059 0.22889
 Zr259 Zr 0.75064 0.74756 0.29094
 O260 O 0.77233 0.76937 0.27210
 Zr261 Zr 0.71005 0.75018 0.25189
 O262 O 0.72946 0.77190 0.23074
 Zr263 Zr 0.74887 0.70920 0.24959
 O264 O 0.77038 0.72876 0.22835
 O265 O 0.77255 0.77182 0.22884
 O266 O 0.72844 0.72750 0.27198
 C267 C 0.75001 0.80381 0.19972
 C268 C 0.80451 0.80051 0.25179
 C269 C 0.80165 0.74888 0.19684
 C270 C 0.74990 0.69576 0.30086
 C271 C 0.69937 0.74807 0.30365
 C272 C 0.69700 0.69890 0.25024
 H273 H 0.72251 0.78089 0.28221
 H274 H 0.71933 0.72185 0.21841
 H275 H 0.78235 0.78156 0.21926
 H276 H 0.78186 0.71815 0.27873
 H277 H 0.78783 0.76030 0.31065
 H278 H 0.81228 0.74160 0.28657
 H279 H 0.68683 0.74064 0.21552
 H280 H 0.71218 0.76346 0.19194
 H281 H 0.75491 0.78545 0.31236
 H282 H 0.76462 0.81179 0.28760
 H283 H 0.73837 0.68926 0.21169
 H284 H 0.75923 0.71459 0.18859
 H285 H 0.71469 0.81128 0.24291
 H286 H 0.68976 0.78763 0.26321
 H287 H 0.80846 0.71068 0.23774
 H288 H 0.78460 0.68539 0.26000
 O289 O 0.74869 0.19127 0.78269
 O290 O 0.72340 0.18549 0.75149
 O291 O 0.80818 0.21763 0.74940
 O292 O 0.81620 0.24678 0.72619
 O293 O 0.78320 0.25081 0.80982
 O294 O 0.75181 0.27465 0.81783
 O295 O 0.74764 0.28246 0.69339
 O296 O 0.77349 0.25248 0.68597
 O297 O 0.69028 0.25251 0.72236
 O298 O 0.68357 0.22716 0.75472
 O299 O 0.72001 0.30985 0.75142
 O300 O 0.75312 0.31577 0.77754
 O301 O 0.75085 0.30944 0.72090
 O302 O 0.77669 0.31555 0.75298
 O303 O 0.69213 0.28321 0.75400
 O304 O 0.68540 0.25034 0.77924
 O305 O 0.71673 0.25367 0.69420
 O306 O 0.74713 0.22581 0.68609
 O307 O 0.75163 0.21821 0.81036
 O308 O 0.72635 0.24991 0.81764
 O309 O 0.80977 0.24825 0.78185
 O310 O 0.81476 0.27547 0.75065
 O311 O 0.78022 0.19088 0.74909
 O312 O 0.74743 0.18545 0.72567
 Zr313 Zr 0.74989 0.20975 0.75203
 O314 O 0.72838 0.22997 0.73183
 Zr315 Zr 0.79073 0.24870 0.75150
 O316 O 0.77114 0.27051 0.73084
 Zr317 Zr 0.75197 0.24920 0.79247
 O318 O 0.73077 0.27123 0.77388
 Zr319 Zr 0.74802 0.25159 0.71131
 O320 O 0.76973 0.22946 0.72968
 Zr321 Zr 0.70949 0.25201 0.75259
 O322 O 0.72898 0.22978 0.77308
 Zr323 Zr 0.75045 0.29099 0.75156
 O324 O 0.77198 0.27092 0.77235
 O325 O 0.77202 0.22778 0.77284
 O326 O 0.72788 0.27315 0.73090
 C327 C 0.74974 0.19751 0.80362
 C328 C 0.80119 0.19697 0.74845
 C329 C 0.80384 0.24981 0.80281
 C330 C 0.74918 0.30319 0.70005
 C331 C 0.69612 0.25347 0.70135
 C332 C 0.69908 0.30386 0.75294
 H333 H 0.71838 0.22002 0.72273
 H334 H 0.72199 0.28075 0.78457
 H335 H 0.78181 0.21770 0.78210
 H336 H 0.78129 0.27962 0.72105
 H337 H 0.78513 0.24116 0.69041
 H338 H 0.81143 0.25664 0.71344
 H339 H 0.68946 0.26206 0.79059
 H340 H 0.71460 0.23884 0.81287
 H341 H 0.73409 0.21569 0.68924
 H342 H 0.75710 0.19104 0.71311
 H343 H 0.74023 0.31364 0.78811
 H344 H 0.76098 0.28739 0.81180
 H345 H 0.71159 0.19110 0.76207
 H346 H 0.68642 0.21569 0.74276
 H347 H 0.81086 0.28601 0.76319
 H348 H 0.78797 0.31162 0.74115
 O349 O 0.24983 0.80797 0.78192
 O350 O 0.27527 0.81456 0.75076
 O351 O 0.19011 0.78227 0.75100
 O352 O 0.18326 0.75588 0.72469
 O353 O 0.21798 0.74806 0.80857
 O354 O 0.24923 0.72318 0.81431
 O355 O 0.24961 0.71954 0.68984
 O356 O 0.22283 0.74897 0.68420
 O357 O 0.30716 0.74723 0.71742
 O358 O 0.31583 0.77236 0.74904
 O359 O 0.27870 0.69023 0.74568
 O360 O 0.24686 0.68397 0.77334
 O361 O 0.24680 0.69170 0.71651
 O362 O 0.22190 0.68493 0.74603
 O363 O 0.30658 0.71684 0.74854
 O364 O 0.31394 0.74994 0.77450
 O365 O 0.27981 0.75046 0.69027
 O366 O 0.24808 0.77650 0.68433
 O367 O 0.25110 0.78005 0.80871
 O368 O 0.27490 0.74729 0.81429
 O369 O 0.19030 0.75070 0.78163
 O370 O 0.18452 0.72404 0.75015
 O371 O 0.21811 0.80898 0.74953
 O372 O 0.25041 0.81558 0.72533
 Zr373 Zr 0.24875 0.79034 0.75083
 O374 O 0.26954 0.77087 0.72919
 Zr375 Zr 0.20801 0.75141 0.75052
 O376 O 0.22690 0.73032 0.72851
 Zr377 Zr 0.24852 0.74958 0.78997
 O378 O 0.26895 0.72820 0.76983
 Zr379 Zr 0.24916 0.74993 0.70866
 O380 O 0.22816 0.77137 0.72861
 Zr381 Zr 0.28927 0.74811 0.74835
 O382 O 0.27062 0.76968 0.77030
 Zr383 Zr 0.24837 0.70917 0.74763
 O384 O 0.22762 0.72852 0.76988
 O385 O 0.22765 0.77152 0.77185
 O386 O 0.27004 0.72772 0.72667
 C387 C 0.25116 0.80103 0.80258
 C388 C 0.19709 0.80294 0.75006
 C389 C 0.19706 0.74893 0.80233
 C390 C 0.24804 0.69862 0.69585
 C391 C 0.30062 0.74880 0.69664
 C392 C 0.29966 0.69621 0.74691
 H393 H 0.27912 0.78117 0.72005
 H394 H 0.27820 0.71843 0.77987
 H395 H 0.21830 0.78124 0.78190
 H396 H 0.21642 0.72129 0.71895
 H397 H 0.21085 0.75948 0.68958
 H398 H 0.18509 0.74336 0.71360
 H399 H 0.31141 0.73696 0.78488
 H400 H 0.28691 0.75798 0.80940
 H401 H 0.26018 0.78753 0.68808
 H402 H 0.23957 0.81097 0.71330
 H403 H 0.26046 0.68554 0.78310
 H404 H 0.23936 0.71094 0.80831
 H405 H 0.28732 0.80848 0.76082
 H406 H 0.31166 0.78482 0.73859
 H407 H 0.16918 0.73019 0.75349
 H408 H 0.20939 0.69083 0.75557
 O409 O 0.25149 0.30905 0.71980
 O410 O 0.22713 0.31522 0.75202
 O411 O 0.30997 0.27764 0.74785
 O412 O 0.31735 0.24748 0.77001
 O413 O 0.27863 0.25074 0.68864
 O414 O 0.24630 0.22640 0.68254
 O415 O 0.25142 0.21497 0.80617
 O416 O 0.27803 0.24496 0.81233
 O417 O 0.19224 0.25060 0.78255
 O418 O 0.18471 0.27635 0.75147
 O419 O 0.21571 0.19161 0.74698
 O420 O 0.24736 0.18419 0.72116
 O421 O 0.24630 0.18904 0.77795
 O422 O 0.27184 0.18231 0.74468
 O423 O 0.18974 0.21981 0.75182
 O424 O 0.18335 0.25349 0.72618
 O425 O 0.22023 0.24501 0.80863
 O426 O 0.24832 0.27024 0.81622
 O427 O 0.24681 0.28296 0.69161
 O428 O 0.22175 0.25199 0.68447
 O429 O 0.30672 0.24635 0.71491
 O430 O 0.31253 0.21981 0.74604
 O431 O 0.28385 0.30595 0.75136
 O432 O 0.25152 0.31384 0.77630
 Zr433 Zr 0.25213 0.28950 0.74979
 O434 O 0.23098 0.26998 0.77099
 Zr435 Zr 0.29011 0.24795 0.74654
 O436 O 0.27060 0.22666 0.76769
 Zr437 Zr 0.24869 0.25141 0.70824
 O438 O 0.22739 0.23021 0.72761
 Zr439 Zr 0.25034 0.24639 0.78939
 O440 O 0.27208 0.26795 0.77035
 Zr441 Zr 0.20910 0.24993 0.75111
 O442 O 0.22845 0.27153 0.72981
 Zr443 Zr 0.24721 0.20838 0.74779
 O444 O 0.26859 0.22777 0.72627
 O445 O 0.27150 0.27074 0.72703
 O446 O 0.22749 0.22681 0.77069
 C447 C 0.24859 0.30346 0.69887
 C448 C 0.30438 0.29861 0.75025
 C449 C 0.29954 0.24799 0.69434
 C450 C 0.24891 0.19456 0.79893
 C451 C 0.19932 0.24779 0.80299
 C452 C 0.19528 0.19884 0.74935
 H453 H 0.22262 0.28023 0.78137
 H454 H 0.21725 0.22171 0.71726
 H455 H 0.28128 0.28046 0.71740
 H456 H 0.28085 0.21659 0.77640
 H457 H 0.28821 0.25783 0.80857
 H458 H 0.31189 0.23950 0.78375
 H459 H 0.18441 0.24041 0.71567
 H460 H 0.20978 0.26178 0.69109
 H461 H 0.25692 0.28373 0.81124
 H462 H 0.26454 0.31063 0.78645
 H463 H 0.23602 0.18912 0.70976
 H464 H 0.25718 0.21423 0.68664
 H465 H 0.21497 0.31110 0.74112
 H466 H 0.19011 0.28803 0.76230
 H467 H 0.30652 0.20900 0.73463
 H468 H 0.28271 0.18389 0.75741
 O469 O 0.74794 0.69117 0.71885
 O470 O 0.77403 0.68355 0.74947
 O471 O 0.69043 0.71826 0.75511
 O472 O 0.68245 0.74817 0.77667
 O473 O 0.71675 0.75233 0.69399
 O474 O 0.74873 0.77617 0.68737
 O475 O 0.75211 0.77907 0.81171
 O476 O 0.72526 0.74868 0.81740
 O477 O 0.80909 0.74749 0.78200
 O478 O 0.81531 0.72363 0.74921
 O479 O 0.78158 0.80727 0.75505
 O480 O 0.74915 0.81538 0.72879
 O481 O 0.75022 0.80698 0.78505
 O482 O 0.72515 0.81505 0.75286
 O483 O 0.80856 0.77976 0.75185
 O484 O 0.81404 0.74735 0.72492
 O485 O 0.78254 0.74952 0.81000
 O486 O 0.75526 0.72286 0.81721
 O487 O 0.74854 0.71925 0.69224
 O488 O 0.77337 0.75093 0.68613
 O489 O 0.69002 0.74985 0.72184
 O490 O 0.68595 0.77643 0.75440
 O491 O 0.71713 0.69068 0.75063
 O492 O 0.75013 0.68266 0.77513
 Zr493 Zr 0.74815 0.70848 0.75016
 O494 O 0.77009 0.72714 0.77142
 Zr495 Zr 0.70885 0.74876 0.75232
 O496 O 0.72904 0.76918 0.77375
 Zr497 Zr 0.74787 0.74950 0.71140
 O498 O 0.76974 0.76995 0.73098
 Zr499 Zr 0.75136 0.74881 0.79266
 O500 O 0.72900 0.72788 0.77349
 Zr501 Zr 0.79009 0.74915 0.75170
 O502 O 0.76999 0.72850 0.73012
 Zr503 Zr 0.75053 0.78958 0.75383
 O504 O 0.72841 0.77104 0.73230
 O505 O 0.72685 0.72814 0.73005
 O506 O 0.77234 0.77028 0.77398
 C507 C 0.74844 0.69823 0.69819
 C508 C 0.69655 0.69739 0.75335
 C509 C 0.69606 0.75187 0.70094
 C510 C 0.75123 0.80004 0.80570
 C511 C 0.80316 0.74837 0.80298
 C512 C 0.80232 0.80059 0.75360
 H513 H 0.77939 0.71650 0.78052
 H514 H 0.77899 0.77951 0.72075
 H515 H 0.71676 0.71881 0.72034
 H516 H 0.71906 0.77823 0.78379
 H517 H 0.71494 0.73597 0.81351
 H518 H 0.68897 0.75382 0.79109
 H519 H 0.81134 0.76041 0.71469
 H520 H 0.78536 0.74008 0.69080
 H521 H 0.74593 0.70994 0.81199
 H522 H 0.73703 0.68467 0.78547
 H523 H 0.76198 0.81304 0.71818
 H524 H 0.73941 0.78863 0.69376
 H525 H 0.78549 0.68881 0.73835
 H526 H 0.81099 0.71120 0.75965
 H527 H 0.68975 0.78691 0.74181
 H528 H 0.71361 0.81116 0.76443
 O529 O 0.24967 0.69073 0.28047
 O530 O 0.22450 0.68487 0.24914
 O531 O 0.30932 0.71771 0.24789
 O532 O 0.31505 0.74514 0.22248
 O533 O 0.28384 0.75024 0.30783
 O534 O 0.25224 0.77404 0.31589
 O535 O 0.24791 0.78248 0.19182
 O536 O 0.27410 0.75296 0.18410
 O537 O 0.19092 0.75185 0.22041
 O538 O 0.18444 0.72614 0.25268
 O539 O 0.22026 0.80922 0.24987
 O540 O 0.25335 0.81459 0.27666
 O541 O 0.25090 0.80933 0.21949
 O542 O 0.27683 0.81525 0.24821
 O543 O 0.19256 0.78237 0.25227
 O544 O 0.18591 0.74934 0.27720
 O545 O 0.21737 0.75325 0.19227
 O546 O 0.24818 0.72582 0.18403
 O547 O 0.25247 0.71758 0.30824
 O548 O 0.22711 0.74902 0.31577
 O549 O 0.31048 0.74816 0.27988
 O550 O 0.31490 0.77590 0.24921
 O551 O 0.28141 0.69086 0.24699
 O552 O 0.24865 0.68509 0.22347
 Zr553 Zr 0.25079 0.70934 0.24990
 O554 O 0.22916 0.72952 0.22976
 Zr555 Zr 0.29144 0.74850 0.24949
 O556 O 0.27162 0.77037 0.22914
 Zr557 Zr 0.25263 0.74863 0.29049
 O558 O 0.23123 0.77052 0.27204
 Zr559 Zr 0.24866 0.75144 0.20942
 O560 O 0.27041 0.72931 0.22769
 Zr561 Zr 0.21009 0.75127 0.25065
 O562 O 0.22975 0.72912 0.27105
 Zr563 Zr 0.25079 0.79058 0.24989
 O564 O 0.27258 0.77056 0.27048
 O565 O 0.27276 0.72745 0.27073
 O566 O 0.22835 0.77269 0.22912
 C567 C 0.25069 0.69691 0.30142
 C568 C 0.30239 0.69704 0.24667
 C569 C 0.30450 0.74951 0.30084
 C570 C 0.24923 0.80318 0.19861
 C571 C 0.19676 0.75290 0.19941
 C572 C 0.19938 0.80307 0.25137
 H573 H 0.21925 0.71954 0.22058
 H574 H 0.22236 0.77988 0.28280
 H575 H 0.28258 0.71742 0.28001
 H576 H 0.28167 0.77985 0.21958
 H577 H 0.28597 0.74187 0.18850
 H578 H 0.31258 0.75797 0.21191
 H579 H 0.18998 0.76089 0.28872
 H580 H 0.21533 0.73804 0.31089
 H581 H 0.23532 0.71548 0.18715
 H582 H 0.25831 0.69082 0.21095
 H583 H 0.23985 0.81297 0.28653
 H584 H 0.26175 0.78666 0.31015
 H585 H 0.21262 0.69032 0.25973
 H586 H 0.18727 0.71488 0.24052
 H587 H 0.33037 0.76967 0.25167
 H588 H 0.29003 0.80887 0.25645
 O589 O 0.75212 0.30847 0.28261
 O590 O 0.77726 0.31509 0.25141
 O591 O 0.69228 0.28217 0.25179
 O592 O 0.68486 0.25545 0.22649
 O593 O 0.72048 0.24886 0.30968
 O594 O 0.75161 0.22399 0.31562
 O595 O 0.75227 0.21989 0.19073
 O596 O 0.72520 0.24914 0.18501
 O597 O 0.80939 0.24753 0.21835
 O598 O 0.81818 0.27258 0.24985
 O599 O 0.78082 0.19054 0.24675
 O600 O 0.75108 0.18201 0.27175
 O601 O 0.74859 0.19221 0.21744
 O602 O 0.72267 0.18728 0.25282
 O603 O 0.80873 0.21714 0.24944
 O604 O 0.81617 0.25025 0.27544
 O605 O 0.78204 0.25093 0.19122
 O606 O 0.74986 0.27692 0.18543
 O607 O 0.75349 0.28074 0.30957
 O608 O 0.77763 0.24790 0.31506
 O609 O 0.69274 0.25094 0.28275
 O610 O 0.68813 0.22309 0.25177
 O611 O 0.72016 0.30903 0.25030
 O612 O 0.75249 0.31574 0.22599
 Zr613 Zr 0.75095 0.29065 0.25165
 O614 O 0.77179 0.27118 0.23007
 Zr615 Zr 0.71039 0.25147 0.25162
 O616 O 0.72914 0.23054 0.22930
 Zr617 Zr 0.75099 0.25015 0.29103
 O618 O 0.77118 0.22861 0.27086
 Zr619 Zr 0.75141 0.25023 0.20959
 O620 O 0.73035 0.27150 0.22958
 Zr621 Zr 0.79151 0.24844 0.24929
 O622 O 0.77296 0.27018 0.27116
 Zr623 Zr 0.75060 0.20956 0.24867
 O624 O 0.73019 0.22892 0.27113
 O625 O 0.72999 0.27184 0.27279
 O626 O 0.77225 0.22804 0.22765
 C627 C 0.75350 0.30167 0.30332
 C628 C 0.69917 0.30287 0.25078
 C629 C 0.69954 0.24949 0.30346
 C630 C 0.75032 0.19902 0.19679
 C631 C 0.80283 0.24919 0.19759
 C632 C 0.80178 0.19652 0.24787
 H633 H 0.78136 0.28150 0.22092
 H634 H 0.78038 0.21874 0.28087
 H635 H 0.72062 0.28161 0.28277
 H636 H 0.71865 0.22168 0.21961
 H637 H 0.71273 0.25878 0.19090
 H638 H 0.68677 0.24309 0.21526
 H639 H 0.81365 0.23724 0.28579
 H640 H 0.78940 0.25892 0.31028
 H641 H 0.76225 0.28775 0.18882
 H642 H 0.74149 0.31116 0.21411
 H643 H 0.75977 0.18695 0.28526
 H644 H 0.74148 0.21185 0.30988
 H645 H 0.78947 0.30905 0.26129
 H646 H 0.81385 0.28519 0.23963
 H647 H 0.67257 0.22860 0.25519
 H648 H 0.71322 0.18827 0.23894
 C649 C 0.24754 0.08104 0.07622
 N650 N 0.26580 0.07833 0.06240
 N651 N 0.26608 0.06193 0.04679
 C652 C 0.24800 0.04784 0.04423
 N653 N 0.22964 0.05068 0.05790
 N654 N 0.22947 0.06690 0.07373
 C655 C 0.24754 0.09873 0.09380
 N656 N 0.23369 0.09702 0.11216
 N657 N 0.23412 0.11278 0.12842
 C658 C 0.24821 0.13097 0.12676
 N659 N 0.26192 0.13279 0.10830
 N660 N 0.26170 0.11687 0.09219
 C661 C 0.24878 0.14824 0.14474
 N662 N 0.25690 0.16941 0.14048
 N663 N 0.25730 0.18510 0.15682
 C664 C 0.24991 0.18007 0.17809
 N665 N 0.24194 0.15885 0.18237
 N666 N 0.24126 0.14326 0.16596
 C667 C 0.74715 0.58179 0.57849
 N668 N 0.76555 0.57919 0.56483
 N669 N 0.76608 0.56276 0.54926
 C670 C 0.74811 0.54855 0.54656
 N671 N 0.72962 0.55127 0.56008
 N672 N 0.72921 0.56751 0.57587
 C673 C 0.74687 0.59953 0.59601
 N674 N 0.73287 0.59779 0.61425
 N675 N 0.73306 0.61361 0.63046
 C676 C 0.74706 0.63188 0.62886
 N677 N 0.76091 0.63373 0.61052
 N678 N 0.76093 0.61775 0.59446
 C679 C 0.74740 0.64918 0.64681
 N680 N 0.75549 0.67037 0.64259
 N681 N 0.75575 0.68607 0.65893
 C682 C 0.74824 0.68102 0.68015
 N683 N 0.74029 0.65979 0.68439
 N684 N 0.73975 0.64420 0.66799
 C685 C 0.74988 0.92317 0.08308
 N686 N 0.73022 0.93346 0.07677
 N687 N 0.73013 0.94895 0.06025
 C688 C 0.74974 0.95495 0.04967
 N689 N 0.76943 0.94479 0.05616
 N690 N 0.76947 0.92905 0.07243
 C691 C 0.74995 0.90571 0.10086
 N692 N 0.76619 0.88934 0.10105
 N693 N 0.76607 0.87320 0.11691
 C694 C 0.74992 0.87306 0.13338
 N695 N 0.73379 0.88957 0.13333
 N696 N 0.73370 0.90551 0.11725
 C697 C 0.74980 0.85515 0.15070
 N698 N 0.74052 0.85886 0.17151
 N699 N 0.74067 0.84256 0.18724
 C700 C 0.74977 0.82187 0.18257
 N701 N 0.75887 0.81814 0.16171
 N702 N 0.75905 0.83453 0.14612
 C703 C 0.24753 0.42225 0.58175
 N704 N 0.26590 0.43592 0.57898
 N705 N 0.26636 0.45131 0.56238
 C706 C 0.24836 0.45375 0.54815
 N707 N 0.22993 0.44019 0.55102
 N708 N 0.22958 0.42462 0.56744
 C709 C 0.24717 0.40499 0.59971
 N710 N 0.23248 0.38725 0.59852
 N711 N 0.23240 0.37131 0.61459
 C712 C 0.24680 0.37270 0.63257
 N713 N 0.26137 0.39054 0.63386
 N714 N 0.26164 0.40634 0.61765
 C715 C 0.24691 0.35493 0.65003
 N716 N 0.25631 0.35879 0.67076
 N717 N 0.25658 0.34249 0.68648
 C718 C 0.24770 0.32169 0.68191
 N719 N 0.23838 0.31783 0.66116
 N720 N 0.23786 0.33420 0.64555
 C721 C 0.74947 0.07839 0.92064
 N722 N 0.73100 0.06493 0.92385
 N723 N 0.73099 0.04912 0.94006
 C724 C 0.74955 0.04599 0.95342
 N725 N 0.76807 0.05933 0.95008
 N726 N 0.76798 0.07533 0.93408
 C727 C 0.74938 0.09609 0.90307
 N728 N 0.76402 0.11386 0.90436
 N729 N 0.76384 0.13008 0.88857
 C730 C 0.74921 0.12894 0.87075
 N731 N 0.73467 0.11109 0.86937
 N732 N 0.73465 0.09502 0.88533
 C733 C 0.74914 0.14677 0.85332
 N734 N 0.74036 0.14273 0.83235
 N735 N 0.74059 0.15887 0.81647
 C736 C 0.74934 0.17972 0.82109
 N737 N 0.75797 0.18380 0.84210
 N738 N 0.75800 0.16758 0.85788
 C739 C 0.25059 0.57753 0.41800
 N740 N 0.23210 0.56407 0.42100
 N741 N 0.23189 0.54831 0.43725
 C742 C 0.25027 0.54525 0.45086
 N743 N 0.26883 0.55858 0.44774
 N744 N 0.26893 0.57454 0.43169
 C745 C 0.25065 0.59519 0.40043
 N746 N 0.26522 0.61302 0.40186
 N747 N 0.26506 0.62925 0.38609
 C748 C 0.25054 0.62810 0.36819
 N749 N 0.23609 0.61018 0.36667
 N750 N 0.23604 0.59409 0.38260
 C751 C 0.25044 0.64597 0.35085
 N752 N 0.24169 0.64196 0.32986
 N753 N 0.24182 0.65817 0.31406
 C754 C 0.25041 0.67906 0.31879
 N755 N 0.25901 0.68310 0.33982
 N756 N 0.25915 0.66681 0.35552
 C757 C 0.25211 0.91794 0.92173
 N758 N 0.23244 0.92881 0.92688
 N759 N 0.23202 0.94492 0.94277
 C760 C 0.25132 0.95103 0.95386
 N761 N 0.27105 0.94022 0.94862
 N762 N 0.27140 0.92385 0.93295
 C763 C 0.25244 0.90037 0.90406
 N764 N 0.26852 0.88381 0.90410
 N765 N 0.26856 0.86779 0.88807
 C766 C 0.25273 0.86799 0.87126
 N767 N 0.23678 0.88465 0.87114
 N768 N 0.23654 0.90045 0.88735
 C769 C 0.25277 0.85060 0.85340
 N770 N 0.24329 0.85507 0.83286
 N771 N 0.24307 0.83932 0.81660
 C772 C 0.25201 0.81841 0.82042
 N773 N 0.26137 0.81386 0.84103
 N774 N 0.26190 0.82975 0.85719
 C775 C 0.75403 0.41902 0.42207
 N776 N 0.73560 0.43271 0.42423
 N777 N 0.73495 0.44868 0.44026
 C778 C 0.75283 0.45175 0.45450
 N779 N 0.77135 0.43815 0.45228
 N780 N 0.77188 0.42197 0.43642
 C781 C 0.75459 0.40149 0.40435
 N782 N 0.76875 0.38335 0.40607
 N783 N 0.76891 0.36733 0.39004
 C784 C 0.75512 0.36906 0.37160
 N785 N 0.74109 0.38728 0.36983
 N786 N 0.74072 0.40312 0.38599
 C787 C 0.75519 0.35156 0.35385
 N788 N 0.74709 0.35636 0.33279
 N789 N 0.74684 0.34050 0.31665
 C790 C 0.75441 0.31917 0.32105
 N791 N 0.76243 0.31431 0.34215
 N792 N 0.76296 0.33027 0.35823
 C793 C 0.07890 0.25310 0.08168
 N794 N 0.06539 0.23462 0.07891
 N795 N 0.04981 0.23409 0.06248
 C796 C 0.04700 0.25215 0.04841
 N797 N 0.06039 0.27071 0.05128
 N798 N 0.07618 0.27112 0.06753
 C799 C 0.09630 0.25347 0.09954
 N800 N 0.11427 0.26786 0.09815
 N801 N 0.13032 0.26783 0.11415
 C802 C 0.12880 0.25362 0.13225
 N803 N 0.11073 0.23937 0.13374
 N804 N 0.09484 0.23920 0.11760
 C805 C 0.14658 0.25337 0.14974
 N806 N 0.14234 0.24458 0.17064
 N807 N 0.15858 0.24408 0.18643
 C808 C 0.17971 0.25208 0.18178
 N809 N 0.18396 0.26079 0.16085
 N810 N 0.16765 0.26156 0.14516
 C811 C 0.57803 0.75356 0.58285
 N812 N 0.56463 0.73500 0.58003
 N813 N 0.54920 0.73435 0.56346
 C814 C 0.54642 0.75235 0.54931
 N815 N 0.55971 0.77098 0.55223
 N816 N 0.57535 0.77152 0.56862
 C817 C 0.59527 0.75407 0.60087
 N818 N 0.61319 0.76854 0.59959
 N819 N 0.62909 0.76862 0.61572
 C820 C 0.62748 0.75446 0.63386
 N821 N 0.60946 0.74013 0.63523
 N822 N 0.59371 0.73985 0.61895
 C823 C 0.64513 0.75430 0.65147
 N824 N 0.64079 0.74552 0.67235
 N825 N 0.65694 0.74505 0.68824
 C826 C 0.67808 0.75309 0.68371
 N827 N 0.68244 0.76180 0.66280
 N828 N 0.66621 0.76253 0.64701
 C829 C 0.08041 0.74944 0.92178
 N830 N 0.07527 0.73012 0.93326
 N831 N 0.05907 0.73012 0.94907
 C832 C 0.04764 0.74951 0.95423
 N833 N 0.05296 0.76888 0.94286
 N834 N 0.06893 0.76880 0.92681
 C835 C 0.09796 0.74933 0.90407
 N836 N 0.09772 0.76512 0.88726
 N837 N 0.11344 0.76483 0.87098
 C838 C 0.13016 0.74893 0.87110
 N839 N 0.13052 0.73324 0.88801
 N840 N 0.11460 0.73334 0.90411
 C841 C 0.14752 0.74870 0.85320
 N842 N 0.16814 0.73904 0.85693
 N843 N 0.18398 0.73914 0.84074
 C844 C 0.17962 0.74857 0.82013
 N845 N 0.15893 0.75805 0.81636
 N846 N 0.14321 0.75826 0.83265
 C847 C 0.58283 0.25056 0.42273
 N848 N 0.58044 0.23262 0.43702
 N849 N 0.56415 0.23255 0.45274
 C850 C 0.54987 0.25054 0.45492
 N851 N 0.55238 0.26856 0.44076
 N852 N 0.56849 0.26851 0.42485
 C853 C 0.60042 0.25042 0.40509
 N854 N 0.59864 0.26424 0.38671
 N855 N 0.61442 0.26387 0.37048
 C856 C 0.63267 0.24987 0.37219
 N857 N 0.63455 0.23617 0.39066
 N858 N 0.61862 0.23634 0.40674
 C859 C 0.65004 0.24955 0.35433
 N860 N 0.67117 0.24131 0.35859
 N861 N 0.68699 0.24129 0.34239
 C862 C 0.68213 0.24923 0.32127
 N863 N 0.66095 0.25731 0.31698
 N864 N 0.64523 0.25758 0.33325
 C865 C 0.91934 0.74829 0.07841
 N866 N 0.92249 0.76687 0.06511
 N867 N 0.93881 0.76716 0.04942
 C868 C 0.95237 0.74876 0.04627
 N869 N 0.94912 0.73013 0.05946
 N870 N 0.93299 0.72995 0.07535
 C871 C 0.90155 0.74806 0.09588
 N872 N 0.90271 0.73328 0.11356
 N873 N 0.88671 0.73323 0.12958
 C874 C 0.86882 0.74774 0.12833
 N875 N 0.86757 0.76240 0.11056
 N876 N 0.88373 0.76266 0.09470
 C877 C 0.85124 0.74773 0.14601
 N878 N 0.83039 0.75671 0.14185
 N879 N 0.81449 0.75680 0.15796
 C880 C 0.81895 0.74818 0.17890
 N881 N 0.83984 0.73931 0.18309
 N882 N 0.85565 0.73894 0.16689
 C883 C 0.41797 0.24789 0.57685
 N884 N 0.42149 0.26667 0.56394
 N885 N 0.43828 0.26719 0.54875
 C886 C 0.45196 0.24886 0.54577
 N887 N 0.44833 0.23003 0.55858
 N888 N 0.43173 0.22961 0.57395
 C889 C 0.39978 0.24741 0.59387
 N890 N 0.40045 0.23221 0.61120
 N891 N 0.38418 0.23198 0.62692
 C892 C 0.36649 0.24673 0.62571
 N893 N 0.36570 0.26181 0.60828
 N894 N 0.38213 0.26223 0.59270
 C895 C 0.34883 0.24667 0.64329
 N896 N 0.32820 0.25625 0.63936
 N897 N 0.31232 0.25638 0.65550
 C898 C 0.31662 0.24717 0.67623
 N899 N 0.33727 0.23767 0.68015
 N900 N 0.35303 0.23728 0.66393
 C901 C 0.92281 0.24884 0.92003
 N902 N 0.92835 0.26842 0.93088
 N903 N 0.94436 0.26860 0.94687
 C904 C 0.95522 0.24914 0.95288
 N905 N 0.94957 0.22949 0.94212
 N906 N 0.93377 0.22939 0.92586
 C907 C 0.90514 0.24883 0.90243
 N908 N 0.90486 0.23268 0.88594
 N909 N 0.88892 0.23297 0.86982
 C910 C 0.87253 0.24923 0.86983
 N911 N 0.87273 0.26525 0.88642
 N912 N 0.88885 0.26516 0.90233
 C913 C 0.85479 0.24946 0.85231
 N914 N 0.83444 0.25951 0.85647
 N915 N 0.81820 0.25959 0.84069
 C916 C 0.82185 0.24996 0.82004
 N917 N 0.84227 0.24007 0.81581
 N918 N 0.85840 0.23970 0.83172
 C919 C 0.42226 0.74841 0.41931
 N920 N 0.42464 0.76668 0.43318
 N921 N 0.44044 0.76685 0.44938
 C922 C 0.45424 0.74865 0.45252
 N923 N 0.45178 0.73028 0.43875
 N924 N 0.43614 0.73022 0.42233
 C925 C 0.40486 0.74845 0.40143
 N926 N 0.40646 0.73427 0.38328
 N927 N 0.39073 0.73464 0.36697
 C928 C 0.37272 0.74901 0.36837
 N929 N 0.37106 0.76306 0.38659
 N930 N 0.38693 0.76290 0.40274
 C931 C 0.35515 0.74928 0.35067
 N932 N 0.33423 0.75787 0.35519
 N933 N 0.31812 0.75795 0.33929
 C934 C 0.32244 0.74975 0.31816
 N935 N 0.34343 0.74131 0.31355
 N936 N 0.35946 0.74096 0.32957
 C937 C 0.07886 0.07995 0.25197
 N938 N 0.06544 0.07676 0.27045
 N939 N 0.04955 0.06063 0.27047
 C940 C 0.04632 0.04730 0.25190
 N941 N 0.05962 0.05061 0.23336
 N942 N 0.07570 0.06655 0.23344
 C943 C 0.09666 0.09743 0.25207
 N944 N 0.11431 0.09620 0.23728
 N945 N 0.13062 0.11190 0.23752
 C946 C 0.12972 0.12955 0.25237
 N947 N 0.11198 0.13086 0.26706
 N948 N 0.09582 0.11500 0.26702
 C949 C 0.14764 0.14689 0.25247
 N950 N 0.14386 0.16771 0.26168
 N951 N 0.16005 0.18354 0.26139
 C952 C 0.18071 0.17901 0.25217
 N953 N 0.18454 0.15813 0.24313
 N954 N 0.16826 0.14240 0.24315
 C955 C 0.57699 0.58097 0.75242
 N956 N 0.56348 0.57767 0.77082
 N957 N 0.54770 0.56144 0.77072
 C958 C 0.54468 0.54813 0.75211
 N959 N 0.55806 0.55155 0.73364
 N960 N 0.57403 0.56759 0.73385
 C961 C 0.59471 0.59848 0.75270
 N962 N 0.61247 0.59733 0.73803
 N963 N 0.62876 0.61303 0.73847
 C964 C 0.62774 0.63060 0.75340
 N965 N 0.60990 0.63184 0.76796
 N966 N 0.59374 0.61597 0.76772
 C967 C 0.64566 0.64790 0.75374
 N968 N 0.64183 0.66867 0.76304
 N969 N 0.65805 0.68448 0.76296
 C970 C 0.67876 0.67995 0.75386
 N971 N 0.68263 0.65912 0.74473
 N972 N 0.66633 0.64343 0.74456
 C973 C 0.91781 0.07752 0.74732
 N974 N 0.92354 0.06609 0.72810
 N975 N 0.93985 0.05037 0.72851
 C976 C 0.95078 0.04527 0.74822
 N977 N 0.94484 0.05657 0.76745
 N978 N 0.92879 0.07252 0.76697
 C979 C 0.90030 0.09526 0.74693
 N980 N 0.90062 0.11218 0.76260
 N981 N 0.88487 0.12843 0.76231
 C982 C 0.86802 0.12816 0.74656
 N983 N 0.86757 0.11114 0.73096
 N984 N 0.88354 0.09506 0.73104
 C985 C 0.85067 0.14606 0.74650
 N986 N 0.82964 0.14220 0.73780
 N987 N 0.81379 0.15839 0.73839
 C988 C 0.81855 0.17912 0.74738
 N989 N 0.83965 0.18301 0.75586
 N990 N 0.85536 0.16673 0.75558
 C991 C 0.41953 0.57824 0.24553
 N992 N 0.43332 0.57612 0.26390
 N993 N 0.44931 0.56013 0.26450
 C994 C 0.45230 0.54587 0.24662
 N995 N 0.43860 0.54805 0.22816
 N996 N 0.42239 0.56387 0.22769
 C997 C 0.40199 0.59592 0.24504
 N998 N 0.38374 0.59415 0.23101
 N999 N 0.36772 0.61018 0.23092
 C1000 C 0.36957 0.62865 0.24463
 N1001 N 0.38790 0.63047 0.25852
 N1002 N 0.40374 0.61432 0.25883
 C1003 C 0.35211 0.64642 0.24462
 N1004 N 0.35706 0.66749 0.25258
 N1005 N 0.34124 0.68365 0.25292
 C1006 C 0.31981 0.67927 0.24560
 N1007 N 0.31480 0.65816 0.23772
 N1008 N 0.33072 0.64205 0.23710
 C1009 C 0.08045 0.92250 0.75222
 N1010 N 0.07756 0.93612 0.73383
 N1011 N 0.06114 0.95170 0.73352
 C1012 C 0.04722 0.95445 0.75171
 N1013 N 0.05023 0.94098 0.77019
 N1014 N 0.06646 0.92518 0.77038
 C1015 C 0.09819 0.90496 0.75227
 N1016 N 0.09670 0.88679 0.76640
 N1017 N 0.11251 0.87059 0.76602
 C1018 C 0.13055 0.87211 0.75172
 N1019 N 0.13215 0.89038 0.73773
 N1020 N 0.11617 0.90643 0.73789
 C1021 C 0.14788 0.85418 0.75123
 N1022 N 0.16893 0.85836 0.74276
 N1023 N 0.18467 0.84207 0.74243
 C1024 C 0.17980 0.82092 0.75024
 N1025 N 0.15871 0.81671 0.75857
 N1026 N 0.14307 0.83307 0.75917
 C1027 C 0.58224 0.42194 0.25189
 N1028 N 0.57951 0.43552 0.23346
 N1029 N 0.56308 0.45109 0.23299
 C1030 C 0.54899 0.45382 0.25104
 N1031 N 0.55184 0.44037 0.26956
 N1032 N 0.56809 0.42460 0.26991
 C1033 C 0.60000 0.40446 0.25211
 N1034 N 0.59844 0.38633 0.26626
 N1035 N 0.61430 0.37017 0.26604
 C1036 C 0.63243 0.37172 0.25186
 N1037 N 0.63409 0.38996 0.23785
 N1038 N 0.61808 0.40597 0.23787
 C1039 C 0.64980 0.35387 0.25153
 N1040 N 0.67087 0.35811 0.24316
 N1041 N 0.68666 0.34188 0.24296
 C1042 C 0.68183 0.32074 0.25081
 N1043 N 0.66071 0.31647 0.25904
 N1044 N 0.64502 0.33278 0.25951
 C1045 C 0.92291 0.91818 0.25298
 N1046 N 0.92790 0.92988 0.27224
 N1047 N 0.94366 0.94614 0.27208
 C1048 C 0.95477 0.95154 0.25259
 N1049 N 0.94965 0.93991 0.23329
 N1050 N 0.93413 0.92343 0.23352
 C1051 C 0.90555 0.90029 0.25317
 N1052 N 0.90577 0.88352 0.23732
 N1053 N 0.88998 0.86729 0.23751
 C1054 C 0.87323 0.86744 0.25337
 N1055 N 0.87293 0.88429 0.26914
 N1056 N 0.88891 0.90033 0.26914
 C1057 C 0.85553 0.84988 0.25328
 N1058 N 0.83490 0.85404 0.26273
 N1059 N 0.81865 0.83829 0.26225
 C1060 C 0.82254 0.81770 0.25261
 N1061 N 0.84324 0.81345 0.24334
 N1062 N 0.85940 0.82933 0.24353
 C1063 C 0.42251 0.41640 0.75280
 N1064 N 0.42454 0.43069 0.77080
 N1065 N 0.43995 0.44727 0.77066
 C1066 C 0.45366 0.45034 0.75238
 N1067 N 0.45156 0.43613 0.73432
 N1068 N 0.43634 0.41937 0.73457
 C1069 C 0.40542 0.39827 0.75295
 N1070 N 0.40711 0.38032 0.73853
 N1071 N 0.39144 0.36397 0.73862
 C1072 C 0.37340 0.36513 0.75294
 N1073 N 0.37168 0.38312 0.76729
 N1074 N 0.38749 0.39931 0.76740
 C1075 C 0.35572 0.34758 0.75260
 N1076 N 0.33481 0.35204 0.76123
 N1077 N 0.31850 0.33637 0.76050
 C1078 C 0.32259 0.31558 0.75139
 N1079 N 0.34357 0.31103 0.74294
 N1080 N 0.35982 0.32681 0.74341
 C1081 C 0.08262 0.25018 0.92226
 N1082 N 0.07957 0.23198 0.93609
 N1083 N 0.06311 0.23200 0.95163
 C1084 C 0.04928 0.25031 0.95405
 N1085 N 0.05243 0.26857 0.94033
 N1086 N 0.06872 0.26845 0.92461
 C1087 C 0.10042 0.24999 0.90482
 N1088 N 0.09941 0.26455 0.88698
 N1089 N 0.11532 0.26414 0.87090
 C1090 C 0.13297 0.24934 0.87222
 N1091 N 0.13409 0.23488 0.89016
 N1092 N 0.11802 0.23511 0.90611
 C1093 C 0.15032 0.24885 0.85435
 N1094 N 0.17094 0.23918 0.85811
 N1095 N 0.18667 0.23891 0.84181
 C1096 C 0.18220 0.24804 0.82109
 N1097 N 0.16153 0.25757 0.81732
 N1098 N 0.14593 0.25808 0.83368
 C1099 C 0.58208 0.74977 0.42253
 N1100 N 0.57921 0.73169 0.43656
 N1101 N 0.56287 0.73177 0.45222
 C1102 C 0.54898 0.75004 0.45461
 N1103 N 0.55195 0.76819 0.44070
 N1104 N 0.56812 0.76800 0.42485
 C1105 C 0.59980 0.74953 0.40498
 N1106 N 0.59860 0.76389 0.38697
 N1107 N 0.61450 0.76347 0.37086
 C1108 C 0.63231 0.74889 0.37231
 N1109 N 0.63361 0.73463 0.39040
 N1110 N 0.61756 0.73485 0.40638
 C1111 C 0.64978 0.74850 0.35450
 N1112 N 0.67054 0.73923 0.35851
 N1113 N 0.68641 0.73914 0.34235
 C1114 C 0.68198 0.74804 0.32152
 N1115 N 0.66117 0.75715 0.31749
 N1116 N 0.64540 0.75749 0.33372
 C1117 C 0.92233 0.74700 0.91997
 N1118 N 0.92769 0.76663 0.93082
 N1119 N 0.94373 0.76696 0.94678
 C1120 C 0.95479 0.74761 0.95278
 N1121 N 0.94932 0.72791 0.94202
 N1122 N 0.93349 0.72765 0.92578
 C1123 C 0.90460 0.74684 0.90244
 N1124 N 0.90443 0.73078 0.88587
 N1125 N 0.88844 0.73100 0.86979
 C1126 C 0.87190 0.74710 0.86994
 N1127 N 0.87200 0.76303 0.88661
 N1128 N 0.88816 0.76301 0.90247
 C1129 C 0.85411 0.74732 0.85247
 N1130 N 0.83372 0.75720 0.85678
 N1131 N 0.81746 0.75741 0.84103
 C1132 C 0.82113 0.74808 0.82025
 N1133 N 0.84159 0.73835 0.81585
 N1134 N 0.85775 0.73783 0.83174
 C1135 C 0.42346 0.24731 0.41860
 N1136 N 0.42561 0.26561 0.43247
 N1137 N 0.44137 0.26598 0.44870
 C1138 C 0.45537 0.24794 0.45188
 N1139 N 0.45317 0.22954 0.43811
 N1140 N 0.43757 0.22929 0.42166
 C1141 C 0.40601 0.24711 0.40078
 N1142 N 0.40771 0.23294 0.38263
 N1143 N 0.39189 0.23310 0.36639
 C1144 C 0.37369 0.24722 0.36789
 N1145 N 0.37195 0.26126 0.38611
 N1146 N 0.38790 0.26131 0.40218
 C1147 C 0.35602 0.24730 0.35029
 N1148 N 0.33505 0.25567 0.35497
 N1149 N 0.31887 0.25574 0.33914
 C1150 C 0.32315 0.24772 0.31794
 N1151 N 0.34418 0.23948 0.31317
 N1152 N 0.36030 0.23915 0.32911
 C1153 C 0.07814 0.75334 0.08185
 N1154 N 0.06473 0.73476 0.07917
 N1155 N 0.04929 0.73398 0.06262
 C1156 C 0.04651 0.75187 0.04833
 N1157 N 0.05980 0.77052 0.05110
 N1158 N 0.07545 0.77118 0.06748
 C1159 C 0.09542 0.75398 0.09983
 N1160 N 0.11338 0.76838 0.09834
 N1161 N 0.12934 0.76857 0.11442
 C1162 C 0.12775 0.75461 0.13271
 N1163 N 0.10969 0.74036 0.13430
 N1164 N 0.09388 0.73995 0.11807
 C1165 C 0.14551 0.75457 0.15022
 N1166 N 0.14127 0.74616 0.17128
 N1167 N 0.15751 0.74588 0.18707
 C1168 C 0.17867 0.75372 0.18226
 N1169 N 0.18293 0.76206 0.16118
 N1170 N 0.16660 0.76261 0.14549
 C1171 C 0.57769 0.25417 0.58359
 N1172 N 0.56441 0.23552 0.58074
 N1173 N 0.54912 0.23471 0.56405
 C1174 C 0.54635 0.25263 0.54980
 N1175 N 0.55950 0.27136 0.55276
 N1176 N 0.57501 0.27205 0.56926
 C1177 C 0.59489 0.25482 0.60166
 N1178 N 0.61282 0.26925 0.60026
 N1179 N 0.62875 0.26943 0.61638
 C1180 C 0.62713 0.25541 0.63462
 N1181 N 0.60908 0.24113 0.63613
 N1182 N 0.59332 0.24074 0.61986
 C1183 C 0.64488 0.25533 0.65216
 N1184 N 0.64060 0.24691 0.67321
 N1185 N 0.65685 0.24658 0.68901
 C1186 C 0.67802 0.25437 0.68421
 N1187 N 0.68231 0.26271 0.66314
 N1188 N 0.66599 0.26332 0.64744
 C1189 C 0.92032 0.24965 0.07909
 N1190 N 0.92345 0.26823 0.06580
 N1191 N 0.93959 0.26842 0.04993
 C1192 C 0.95296 0.24992 0.04659
 N1193 N 0.94972 0.23128 0.05978
 N1194 N 0.93378 0.23120 0.07584
 C1195 C 0.90273 0.24951 0.09674
 N1196 N 0.90395 0.23468 0.11436
 N1197 N 0.88808 0.23467 0.13050
 C1198 C 0.87028 0.24929 0.12943
 N1199 N 0.86897 0.26403 0.11173
 N1200 N 0.88500 0.26424 0.09575
 C1201 C 0.85274 0.24920 0.14713
 N1202 N 0.83190 0.25819 0.14300
 N1203 N 0.81594 0.25803 0.15905
 C1204 C 0.82035 0.24915 0.17988
 N1205 N 0.84124 0.24028 0.18405
 N1206 N 0.85711 0.24018 0.16791
 C1207 C 0.41921 0.74946 0.57906
 N1208 N 0.42241 0.76801 0.56574
 N1209 N 0.43876 0.76824 0.55006
 C1210 C 0.45228 0.74980 0.54696
 N1211 N 0.44897 0.73120 0.56018
 N1212 N 0.43283 0.73109 0.57605
 C1213 C 0.40139 0.74927 0.59651
 N1214 N 0.40248 0.73448 0.61417
 N1215 N 0.38641 0.73440 0.63013
 C1216 C 0.36853 0.74892 0.62883
 N1217 N 0.36735 0.76361 0.61108
 N1218 N 0.38357 0.76388 0.59528
 C1219 C 0.35082 0.74879 0.64640
 N1220 N 0.32996 0.75768 0.64212
 N1221 N 0.31389 0.75751 0.65807
 C1222 C 0.31820 0.74871 0.67896
 N1223 N 0.33910 0.73993 0.68327
 N1224 N 0.35507 0.73984 0.66723
 C1225 C 0.25048 0.07551 0.91586
 N1226 N 0.23177 0.06256 0.91962
 N1227 N 0.23156 0.04725 0.93629
 C1228 C 0.25016 0.04415 0.94961
 N1229 N 0.26893 0.05696 0.94573
 N1230 N 0.26904 0.07247 0.92925
 C1231 C 0.25055 0.09278 0.89789
 N1232 N 0.26570 0.11014 0.89851
 N1233 N 0.26550 0.12613 0.88250
 C1234 C 0.25033 0.12518 0.86513
 N1235 N 0.23530 0.10770 0.86438
 N1236 N 0.23531 0.09185 0.88056
 C1237 C 0.25000 0.14303 0.84775
 N1238 N 0.24011 0.13942 0.82720
 N1239 N 0.23989 0.15575 0.81150
 C1240 C 0.24929 0.17635 0.81594
 N1241 N 0.25905 0.17997 0.83653
 N1242 N 0.25952 0.16357 0.85210
 C1243 C 0.75104 0.57716 0.41842
 N1244 N 0.73246 0.56395 0.42194
 N1245 N 0.73229 0.54855 0.43853
 C1246 C 0.75078 0.54562 0.45203
 N1247 N 0.76942 0.55871 0.44841
 N1248 N 0.76949 0.57431 0.43200
 C1249 C 0.75110 0.59446 0.40045
 N1250 N 0.76602 0.61203 0.40125
 N1251 N 0.76586 0.62798 0.38520
 C1252 C 0.75098 0.62679 0.36759
 N1253 N 0.73618 0.60912 0.36668
 N1254 N 0.73614 0.59331 0.38290
 C1255 C 0.75073 0.64456 0.35009
 N1256 N 0.74125 0.64070 0.32939
 N1257 N 0.74112 0.65693 0.31357
 C1258 C 0.75021 0.67767 0.31802
 N1259 N 0.75956 0.68154 0.33877
 N1260 N 0.75995 0.66524 0.35446
 C1261 C 0.74955 0.08105 0.07864
 N1262 N 0.76922 0.07463 0.06845
 N1263 N 0.76929 0.05812 0.05295
 C1264 C 0.74963 0.04764 0.04682
 N1265 N 0.72994 0.05423 0.05691
 N1266 N 0.72992 0.07050 0.07265
 C1267 C 0.74950 0.09894 0.09600
 N1268 N 0.73286 0.09970 0.11195
 N1269 N 0.73297 0.11572 0.12795
 C1270 C 0.74953 0.13177 0.12836
 N1271 N 0.76607 0.13114 0.11229
 N1272 N 0.76615 0.11490 0.09649
 C1273 C 0.74965 0.14935 0.14603
 N1274 N 0.76019 0.16956 0.14248
 N1275 N 0.76021 0.18551 0.15857
 C1276 C 0.74999 0.18168 0.17889
 N1277 N 0.73960 0.16141 0.18249
 N1278 N 0.73928 0.14560 0.16628
 C1279 C 0.24640 0.58152 0.57675
 N1280 N 0.26495 0.57859 0.56337
 N1281 N 0.26545 0.56212 0.54785
 C1282 C 0.24732 0.54816 0.54494
 N1283 N 0.22868 0.55120 0.55819
 N1284 N 0.22829 0.56750 0.57393
 C1285 C 0.24613 0.59935 0.59419
 N1286 N 0.23167 0.59804 0.61211
 N1287 N 0.23184 0.61395 0.62823
 C1288 C 0.24627 0.63190 0.62686
 N1289 N 0.26059 0.63331 0.60883
 N1290 N 0.26062 0.61725 0.59287
 C1291 C 0.24659 0.64932 0.64471
 N1292 N 0.25550 0.67019 0.64060
 N1293 N 0.25582 0.68598 0.65684
 C1294 C 0.24753 0.68135 0.67786
 N1295 N 0.23875 0.66042 0.68200
 N1296 N 0.23816 0.64474 0.66568
 C1297 C 0.74986 0.91774 0.92421
 N1298 N 0.73137 0.93126 0.92696
 N1299 N 0.73126 0.94757 0.94268
 C1300 C 0.74977 0.95114 0.95600
 N1301 N 0.76831 0.93770 0.95318
 N1302 N 0.76831 0.92120 0.93766
 C1303 C 0.74999 0.89988 0.90680
 N1304 N 0.76466 0.88213 0.90824
 N1305 N 0.76475 0.86596 0.89236
 C1306 C 0.75038 0.86714 0.87434
 N1307 N 0.73580 0.88496 0.87285
 N1308 N 0.73550 0.90096 0.88887
 C1309 C 0.75069 0.84962 0.85659
 N1310 N 0.74226 0.85417 0.83560
 N1311 N 0.74261 0.83839 0.81938
 C1312 C 0.75111 0.81738 0.82363
 N1313 N 0.75942 0.81275 0.84467
 N1314 N 0.75935 0.82865 0.86082
 C1315 C 0.25270 0.41755 0.42144
 N1316 N 0.23429 0.43129 0.42350
 N1317 N 0.23374 0.44750 0.43929
 C1318 C 0.25171 0.45078 0.45339
 N1319 N 0.27020 0.43713 0.45126
 N1320 N 0.27063 0.42070 0.43565
 C1321 C 0.25314 0.39974 0.40397
 N1322 N 0.26747 0.38173 0.40576
 N1323 N 0.26759 0.36551 0.38993
 C1324 C 0.25359 0.36688 0.37162
 N1325 N 0.23939 0.38496 0.36978
 N1326 N 0.23906 0.40101 0.38574
 C1327 C 0.25377 0.34925 0.35397
 N1328 N 0.24545 0.35381 0.33294
 N1329 N 0.24551 0.33792 0.31683
 C1330 C 0.25361 0.31678 0.32122
 N1331 N 0.26183 0.31215 0.34230
 N1332 N 0.26204 0.32815 0.35835
 C1333 C 0.24837 0.92140 0.08081
 N1334 N 0.23042 0.92365 0.06648
 N1335 N 0.23058 0.93940 0.05022
 C1336 C 0.24881 0.95325 0.04752
 N1337 N 0.26682 0.95093 0.06178
 N1338 N 0.26654 0.93537 0.07822
 C1339 C 0.24822 0.90400 0.09864
 N1340 N 0.26241 0.90561 0.11677
 N1341 N 0.26229 0.88975 0.13293
 C1342 C 0.24817 0.87158 0.13138
 N1343 N 0.23406 0.86991 0.11319
 N1344 N 0.23398 0.88591 0.09718
 C1345 C 0.24830 0.85389 0.14894
 N1346 N 0.23986 0.83290 0.14442
 N1347 N 0.24025 0.81672 0.16024
 C1348 C 0.24884 0.82103 0.18123
 N1349 N 0.25712 0.84207 0.18580
 N1350 N 0.25699 0.85818 0.16989
 C1351 C 0.74940 0.42151 0.58215
 N1352 N 0.76752 0.43558 0.57973
 N1353 N 0.76777 0.45130 0.56343
 C1354 C 0.74978 0.45370 0.54916
 N1355 N 0.73160 0.43973 0.55169
 N1356 N 0.73147 0.42383 0.56780
 C1357 C 0.74923 0.40397 0.59990
 N1358 N 0.73498 0.38590 0.59834
 N1359 N 0.73497 0.36985 0.61430
 C1360 C 0.74901 0.37144 0.63256
 N1361 N 0.76315 0.38960 0.63420
 N1362 N 0.76336 0.40551 0.61809
 C1363 C 0.74898 0.35375 0.65015
 N1364 N 0.75758 0.35802 0.67114
 N1365 N 0.75749 0.34196 0.68710
 C1366 C 0.74907 0.32097 0.68256
 N1367 N 0.74057 0.31667 0.66152
 N1368 N 0.74040 0.33281 0.64565
 C1369 C 0.07568 0.08242 0.74836
 N1370 N 0.06271 0.07891 0.76710
 N1371 N 0.04725 0.06238 0.76745
 C1372 C 0.04402 0.04895 0.74896
 N1373 N 0.05685 0.05257 0.73015
 N1374 N 0.07251 0.06892 0.72991
 C1375 C 0.09308 0.10026 0.74817
 N1376 N 0.11049 0.09940 0.73307
 N1377 N 0.12659 0.11531 0.73318
 C1378 C 0.12571 0.13280 0.74820
 N1379 N 0.10820 0.13378 0.76318
 N1380 N 0.09224 0.11771 0.76325
 C1381 C 0.14364 0.15011 0.74844
 N1382 N 0.14006 0.17074 0.75816
 N1383 N 0.15643 0.18639 0.75832
 C1384 C 0.17706 0.18184 0.74903
 N1385 N 0.18066 0.16117 0.73944
 N1386 N 0.16420 0.14565 0.73902
 C1387 C 0.57820 0.58150 0.24837
 N1388 N 0.56488 0.57812 0.26689
 N1389 N 0.54933 0.56166 0.26701
 C1390 C 0.54636 0.54817 0.24851
 N1391 N 0.55956 0.55166 0.22993
 N1392 N 0.57531 0.56793 0.22992
 C1393 C 0.59563 0.59935 0.24839
 N1394 N 0.61334 0.59841 0.23364
 N1395 N 0.62938 0.61438 0.23391
 C1396 C 0.62814 0.63203 0.24872
 N1397 N 0.61034 0.63308 0.26335
 N1398 N 0.59444 0.61694 0.26329
 C1399 C 0.64593 0.64952 0.24906
 N1400 N 0.64195 0.67024 0.25841
 N1401 N 0.65815 0.68608 0.25865
 C1402 C 0.67900 0.68164 0.24981
 N1403 N 0.68300 0.66087 0.24059
 N1404 N 0.66672 0.64515 0.24009
 C1405 C 0.08200 0.92166 0.25482
 N1406 N 0.07917 0.93529 0.23644
 N1407 N 0.06268 0.95077 0.23604
 C1408 C 0.04860 0.95338 0.25411
 N1409 N 0.05153 0.93989 0.27259
 N1410 N 0.06786 0.92419 0.27288
 C1411 C 0.09988 0.90430 0.25494
 N1412 N 0.09854 0.88613 0.26908
 N1413 N 0.11450 0.87007 0.26869
 C1414 C 0.13249 0.87175 0.25435
 N1415 N 0.13392 0.89001 0.24036
 N1416 N 0.11782 0.90593 0.24054
 C1417 C 0.14994 0.85397 0.25375
 N1418 N 0.17080 0.85831 0.24490
 N1419 N 0.18663 0.84212 0.24428
 C1420 C 0.18204 0.82095 0.25218
 N1421 N 0.16114 0.81659 0.26090
 N1422 N 0.14541 0.83284 0.26179
 C1423 C 0.58162 0.42260 0.75514
 N1424 N 0.57873 0.43611 0.73668
 N1425 N 0.56215 0.45151 0.73617
 C1426 C 0.54804 0.45418 0.75422
 N1427 N 0.55104 0.44081 0.77278
 N1428 N 0.56745 0.42519 0.77317
 C1429 C 0.59956 0.40526 0.75540
 N1430 N 0.59827 0.38723 0.76972
 N1431 N 0.61426 0.37119 0.76951
 C1432 C 0.63226 0.37276 0.75517
 N1433 N 0.63366 0.39089 0.74099
 N1434 N 0.61752 0.40678 0.74101
 C1435 C 0.64974 0.35496 0.75476
 N1436 N 0.67062 0.35916 0.74591
 N1437 N 0.68643 0.34294 0.74548
 C1438 C 0.68181 0.32185 0.75360
 N1439 N 0.66088 0.31762 0.76232
 N1440 N 0.64517 0.33392 0.76302
 C1441 C 0.91897 0.07767 0.24861
 N1442 N 0.93256 0.07541 0.26711
 N1443 N 0.94861 0.05948 0.26772
 C1444 C 0.95185 0.04541 0.24973
 N1445 N 0.93835 0.04773 0.23115
 N1446 N 0.92208 0.06350 0.23065
 C1447 C 0.90135 0.09530 0.24809
 N1448 N 0.88344 0.09374 0.23360
 N1449 N 0.86738 0.10972 0.23342
 C1450 C 0.86884 0.12794 0.24751
 N1451 N 0.88682 0.12955 0.26186
 N1452 N 0.90271 0.11345 0.26225
 C1453 C 0.85137 0.14571 0.24730
 N1454 N 0.85602 0.16662 0.25584
 N1455 N 0.84024 0.18283 0.25582
 C1456 C 0.81912 0.17863 0.24755
 N1457 N 0.81439 0.15767 0.23910
 N1458 N 0.83029 0.14153 0.23885
 C1459 C 0.41716 0.57743 0.74836
 N1460 N 0.43064 0.57516 0.76695
 N1461 N 0.44678 0.55931 0.76761
 C1462 C 0.45024 0.54533 0.74959
 N1463 N 0.43685 0.54765 0.73092
 N1464 N 0.42050 0.56334 0.73038
 C1465 C 0.39947 0.59502 0.74776
 N1466 N 0.38167 0.59346 0.73313
 N1467 N 0.36557 0.60941 0.73285
 C1468 C 0.36687 0.62763 0.74698
 N1469 N 0.38474 0.62923 0.76148
 N1470 N 0.40066 0.61315 0.76197
 C1471 C 0.34935 0.64540 0.74665
 N1472 N 0.35392 0.66632 0.75523
 N1473 N 0.33811 0.68252 0.75510
 C1474 C 0.31705 0.67831 0.74667
 N1475 N 0.31242 0.65735 0.73819
 N1476 N 0.32834 0.64122 0.73805
 C1477 C 0.92041 0.91856 0.75253
 N1478 N 0.92288 0.93303 0.77034
 N1479 N 0.93871 0.94920 0.76993
 C1480 C 0.95245 0.95166 0.75156
 N1481 N 0.94990 0.93728 0.73370
 N1482 N 0.93425 0.92092 0.73423
 C1483 C 0.90296 0.90076 0.75300
 N1484 N 0.90443 0.88251 0.73897
 N1485 N 0.88858 0.86635 0.73940
 C1486 C 0.87054 0.86803 0.75369
 N1487 N 0.86901 0.88634 0.76763
 N1488 N 0.88501 0.90236 0.76740
 C1489 C 0.85290 0.85042 0.75390
 N1490 N 0.83197 0.85492 0.76250
 N1491 N 0.81582 0.83906 0.76236
 C1492 C 0.82012 0.81803 0.75388
 N1493 N 0.84110 0.81348 0.74545
 N1494 N 0.85716 0.82943 0.74533
 C1495 C 0.42208 0.41820 0.25032
 N1496 N 0.42444 0.43260 0.26821
 N1497 N 0.44030 0.44875 0.26798
 C1498 C 0.45418 0.45128 0.24973
 N1499 N 0.45174 0.43697 0.23178
 N1500 N 0.43606 0.42063 0.23214
 C1501 C 0.40462 0.40039 0.25062
 N1502 N 0.40616 0.38216 0.23655
 N1503 N 0.39032 0.36598 0.23688
 C1504 C 0.37223 0.36758 0.25110
 N1505 N 0.37062 0.38587 0.26508
 N1506 N 0.38660 0.40191 0.26495
 C1507 C 0.35461 0.34993 0.25125
 N1508 N 0.33367 0.35436 0.25986
 N1509 N 0.31757 0.33844 0.25973
 C1510 C 0.32191 0.31742 0.25126
 N1511 N 0.34291 0.31293 0.24282
 N1512 N 0.35893 0.32894 0.24269
   
