data_POSCAR
  _audit_creation_date              2014-09-24
  _audit_creation_method            'ToBaCCo'
  _symmetry_space_group_name_H-M    'P1'
  _symmetry_Int_Tables_number       1
  _symmetry_cell_setting            triclinic
  loop_
  _symmetry_equiv_pos_as_xyz
 x,y,z
_cell_length_a 88.4071
_cell_length_b 88.4768
_cell_length_c 88.5320
_cell_angle_alpha 89.961900
_cell_angle_beta 89.911100
_cell_angle_gamma 89.887400
loop_
  _atom_site_label
  _atom_site_type_symbol
  _atom_site_fract_x
  _atom_site_fract_y
  _atom_site_fract_z
N1 N 0.37516 0.33320 0.34459
 N2 N 0.37448 0.34329 0.33368
 C3 C 0.38516 0.34007 0.32329
 C4 C 0.39288 0.32739 0.32803
 C5 C 0.38629 0.32324 0.34152
 H6 H 0.38679 0.34607 0.31277
 H7 H 0.38897 0.31339 0.34825
 Cu8 Cu 0.35893 0.35888 0.33369
 Cu9 Cu 0.36061 0.33281 0.36116
 Cu10 Cu 0.33288 0.36068 0.36123
 N11 N 0.34339 0.37448 0.33373
 N12 N 0.33333 0.37521 0.34468
 C13 C 0.32340 0.38637 0.34163
 C14 C 0.32753 0.39291 0.32812
 C15 C 0.34018 0.38513 0.32333
 H16 H 0.31355 0.38908 0.34838
 H17 H 0.34614 0.38671 0.31278
 N18 N 0.33434 0.34494 0.37694
 N19 N 0.34488 0.33432 0.37691
 C20 C 0.34196 0.32444 0.38813
 C21 C 0.32906 0.32913 0.39551
 C22 C 0.32446 0.34208 0.38819
 H23 H 0.34817 0.31411 0.39020
 H24 H 0.31418 0.34836 0.39032
 H25 H 0.34292 0.34299 0.34961
 H26 H 0.35558 0.35555 0.36079
 N27 N 0.37564 0.83362 -0.15584
 N28 N 0.37511 0.84390 -0.16660
 C29 C 0.38578 0.84071 -0.17701
 C30 C 0.39332 0.82786 -0.17244
 C31 C 0.38665 0.82357 -0.15903
 H32 H 0.38746 0.84683 -0.18746
 H33 H 0.38913 0.81353 -0.15249
 Cu34 Cu 0.35961 0.85954 -0.16652
 Cu35 Cu 0.36101 0.83311 -0.13936
 Cu36 Cu 0.33336 0.86105 -0.13917
 N37 N 0.34412 0.87521 -0.16639
 N38 N 0.33391 0.87578 -0.15555
 C39 C 0.32392 0.88687 -0.15863
 C40 C 0.32818 0.89355 -0.17204
 C41 C 0.34096 0.88592 -0.17674
 H42 H 0.31392 0.88937 -0.15203
 H43 H 0.34701 0.88756 -0.18724
 N44 N 0.33468 0.84515 -0.12360
 N45 N 0.34520 0.83451 -0.12367
 C46 C 0.34224 0.82458 -0.11251
 C47 C 0.32935 0.82926 -0.10511
 C48 C 0.32478 0.84225 -0.11238
 H49 H 0.34845 0.81424 -0.11046
 H50 H 0.31452 0.84857 -0.11021
 H51 H 0.34348 0.84346 -0.15093
 H52 H 0.35608 0.85585 -0.13950
 N53 N 0.87504 0.33394 -0.15579
 N54 N 0.87443 0.34409 -0.16665
 C55 C 0.88518 0.34093 -0.17699
 C56 C 0.89287 0.32821 -0.17227
 C57 C 0.88619 0.32401 -0.15884
 H58 H 0.88684 0.34696 -0.18749
 H59 H 0.88880 0.31409 -0.15218
 Cu60 Cu 0.85878 0.35959 -0.16673
 Cu61 Cu 0.86032 0.33339 -0.13939
 Cu62 Cu 0.83237 0.36107 -0.13950
 N63 N 0.84316 0.37511 -0.16677
 N64 N 0.83293 0.37570 -0.15597
 C65 C 0.82294 0.38678 -0.15908
 C66 C 0.82722 0.39343 -0.17249
 C67 C 0.84001 0.38580 -0.17716
 H68 H 0.81297 0.38936 -0.15246
 H69 H 0.84611 0.38746 -0.18762
 N70 N 0.83377 0.34525 -0.12385
 N71 N 0.84441 0.33473 -0.12380
 C72 C 0.84149 0.32483 -0.11260
 C73 C 0.82849 0.32938 -0.10532
 C74 C 0.82382 0.34228 -0.11269
 H75 H 0.84781 0.31457 -0.11046
 H76 H 0.81348 0.34849 -0.11062
 H77 H 0.84267 0.34351 -0.15109
 H78 H 0.85508 0.35609 -0.13968
 N79 N 0.87521 0.83368 0.34463
 N80 N 0.87460 0.84385 0.33379
 C81 C 0.88527 0.84063 0.32339
 C82 C 0.89291 0.82787 0.32806
 C83 C 0.88628 0.82368 0.34151
 H84 H 0.88692 0.84667 0.31290
 H85 H 0.88886 0.81373 0.34815
 Cu86 Cu 0.85905 0.85945 0.33382
 Cu87 Cu 0.86063 0.83325 0.36116
 Cu88 Cu 0.83282 0.86104 0.36115
 N89 N 0.84350 0.87504 0.33382
 N90 N 0.83329 0.87563 0.34466
 C91 C 0.82327 0.88669 0.34153
 C92 C 0.82753 0.89333 0.32811
 C93 C 0.84031 0.88570 0.32343
 H94 H 0.81329 0.88923 0.34815
 H95 H 0.84637 0.88732 0.31293
 N96 N 0.83426 0.84528 0.37686
 N97 N 0.84486 0.83473 0.37688
 C98 C 0.84199 0.82487 0.38813
 C99 C 0.82905 0.82950 0.39548
 C100 C 0.82438 0.84239 0.38810
 H101 H 0.84826 0.81459 0.39025
 H102 H 0.81405 0.84862 0.39019
 H103 H 0.84304 0.84342 0.34957
 H104 H 0.85557 0.85596 0.36090
 N105 N 0.62536 0.66704 0.34456
 N106 N 0.62614 0.65702 0.33361
 C107 C 0.61552 0.66026 0.32320
 C108 C 0.60769 0.67286 0.32800
 C109 C 0.61419 0.67696 0.34151
 H110 H 0.61395 0.65431 0.31265
 H111 H 0.61141 0.68674 0.34829
 Cu112 Cu 0.64172 0.64146 0.33360
 Cu113 Cu 0.63979 0.66739 0.36117
 Cu114 Cu 0.66765 0.63964 0.36115
 N115 N 0.65726 0.62587 0.33367
 N116 N 0.66732 0.62516 0.34459
 C117 C 0.67724 0.61400 0.34157
 C118 C 0.67311 0.60742 0.32810
 C119 C 0.66048 0.61519 0.32330
 H120 H 0.68705 0.61126 0.34833
 H121 H 0.65450 0.61356 0.31278
 N122 N 0.66608 0.65531 0.37690
 N123 N 0.65547 0.66585 0.37693
 C124 C 0.65834 0.67572 0.38814
 C125 C 0.67129 0.67112 0.39544
 C126 C 0.67598 0.65823 0.38808
 H127 H 0.65208 0.68602 0.39023
 H128 H 0.68633 0.65204 0.39012
 H129 H 0.65752 0.65735 0.34963
 H130 H 0.64488 0.64469 0.36075
 N131 N 0.62500 0.16640 -0.15558
 N132 N 0.62583 0.15645 -0.16659
 C133 C 0.61517 0.15969 -0.17698
 C134 C 0.60731 0.17224 -0.17211
 C135 C 0.61379 0.17629 -0.15857
 H136 H 0.61361 0.15378 -0.18755
 H137 H 0.61098 0.18603 -0.15174
 Cu138 Cu 0.64139 0.14087 -0.16667
 Cu139 Cu 0.63943 0.16671 -0.13897
 Cu140 Cu 0.66706 0.13878 -0.13884
 N141 N 0.65683 0.12517 -0.16647
 N142 N 0.66671 0.12429 -0.15540
 C143 C 0.67654 0.11302 -0.15832
 C144 C 0.67252 0.10655 -0.17188
 C145 C 0.66007 0.11450 -0.17685
 H146 H 0.68625 0.11018 -0.15145
 H147 H 0.65423 0.11301 -0.18747
 N148 N 0.66557 0.15449 -0.12313
 N149 N 0.65506 0.16513 -0.12319
 C150 C 0.65800 0.17504 -0.11202
 C151 C 0.67088 0.17034 -0.10464
 C152 C 0.67546 0.15736 -0.11192
 H153 H 0.65184 0.18542 -0.11001
 H154 H 0.68574 0.15108 -0.10983
 H155 H 0.65718 0.15654 -0.15044
 H156 H 0.64432 0.14390 -0.13949
 N157 N 0.12518 0.66721 -0.15586
 N158 N 0.12612 0.65739 -0.16698
 C159 C 0.11540 0.66061 -0.17731
 C160 C 0.10737 0.67298 -0.17228
 C161 C 0.11383 0.67697 -0.15871
 H162 H 0.11390 0.65479 -0.18794
 H163 H 0.11090 0.68660 -0.15177
 Cu164 Cu 0.14182 0.64197 -0.16728
 Cu165 Cu 0.13962 0.66752 -0.13928
 Cu166 Cu 0.16748 0.63986 -0.13939
 N167 N 0.15730 0.62631 -0.16706
 N168 N 0.16719 0.62543 -0.15600
 C169 C 0.17699 0.61413 -0.15891
 C170 C 0.17296 0.60764 -0.17246
 C171 C 0.16051 0.61560 -0.17740
 H172 H 0.18666 0.61124 -0.15201
 H173 H 0.15463 0.61405 -0.18799
 N174 N 0.16591 0.65547 -0.12359
 N175 N 0.15528 0.66599 -0.12353
 C176 C 0.15812 0.67583 -0.11228
 C177 C 0.17109 0.67123 -0.10498
 C178 C 0.17579 0.65837 -0.11239
 H179 H 0.15183 0.68611 -0.11015
 H180 H 0.18614 0.65218 -0.11035
 H181 H 0.15744 0.65763 -0.15087
 H182 H 0.14468 0.64475 -0.14007
 N183 N 0.12482 0.16703 0.34460
 N184 N 0.12548 0.15690 0.33374
 C185 C 0.11479 0.16009 0.32337
 C186 C 0.10709 0.17281 0.32808
 C187 C 0.11370 0.17699 0.34152
 H188 H 0.11314 0.15405 0.31289
 H189 H 0.11103 0.18687 0.34820
 Cu190 Cu 0.14102 0.14130 0.33374
 Cu191 Cu 0.13938 0.16744 0.36111
 Cu192 Cu 0.16711 0.13956 0.36117
 N193 N 0.15655 0.12569 0.33377
 N194 N 0.16664 0.12499 0.34466
 C195 C 0.17656 0.11383 0.34161
 C196 C 0.17240 0.10724 0.32815
 C197 C 0.15973 0.11500 0.32341
 H198 H 0.18642 0.11112 0.34831
 H199 H 0.15372 0.11338 0.31290
 N200 N 0.16566 0.15534 0.37684
 N201 N 0.15512 0.16596 0.37681
 C202 C 0.15802 0.17583 0.38803
 C203 C 0.17090 0.17113 0.39540
 C204 C 0.17552 0.15820 0.38807
 H205 H 0.15179 0.18615 0.39011
 H206 H 0.18579 0.15190 0.39020
 H207 H 0.15706 0.15720 0.34955
 H208 H 0.14442 0.14468 0.36083
 N209 N 0.62498 0.33344 0.65592
 N210 N 0.62583 0.34331 0.66699
 C211 C 0.61515 0.34009 0.67738
 C212 C 0.60723 0.32765 0.67244
 C213 C 0.61371 0.32364 0.65886
 H214 H 0.61359 0.34596 0.68798
 H215 H 0.61086 0.31397 0.65197
 Cu216 Cu 0.64143 0.35879 0.66713
 Cu217 Cu 0.63942 0.33313 0.63928
 Cu218 Cu 0.66710 0.36091 0.63920
 N219 N 0.65687 0.37442 0.66693
 N220 N 0.66674 0.37532 0.65582
 C221 C 0.67650 0.38662 0.65870
 C222 C 0.67248 0.39307 0.67228
 C223 C 0.66007 0.38510 0.67728
 H224 H 0.68616 0.38952 0.65177
 H225 H 0.65421 0.38662 0.68791
 N226 N 0.66560 0.34526 0.62343
 N227 N 0.65507 0.33468 0.62347
 C228 C 0.65801 0.32480 0.61226
 C229 C 0.67090 0.32946 0.60487
 C230 C 0.67548 0.34238 0.61219
 H231 H 0.65183 0.31447 0.61022
 H232 H 0.68578 0.34862 0.61009
 H233 H 0.65720 0.34312 0.65075
 H234 H 0.64436 0.35589 0.63992
 N235 N 0.62516 0.83327 1.15574
 N236 N 0.62598 0.84316 1.16680
 C237 C 0.61528 0.83994 1.17717
 C238 C 0.60738 0.82747 1.17224
 C239 C 0.61390 0.82346 1.15867
 H240 H 0.61372 0.84580 1.18778
 H241 H 0.61109 0.81377 1.15179
 Cu242 Cu 0.64165 0.85858 1.16698
 Cu243 Cu 0.63963 0.83296 1.13913
 Cu244 Cu 0.66741 0.86063 1.13915
 N245 N 0.65719 0.87413 1.16688
 N246 N 0.66710 0.87499 1.15581
 C247 C 0.67696 0.88618 1.15877
 C248 C 0.67294 0.89262 1.17236
 C249 C 0.66044 0.88474 1.17728
 H250 H 0.68666 0.88901 1.15189
 H251 H 0.65455 0.88628 1.18789
 N252 N 0.66585 0.84506 1.12333
 N253 N 0.65530 0.83451 1.12334
 C254 C 0.65819 0.82467 1.11208
 C255 C 0.67108 0.82932 1.10469
 C256 C 0.67572 0.84220 1.11206
 H257 H 0.65198 0.81436 1.11000
 H258 H 0.68603 0.84841 1.10997
 H259 H 0.65740 0.84288 1.15064
 H260 H 0.64463 0.85570 1.13979
 N261 N 0.12499 0.33324 1.15581
 N262 N 0.12579 0.34319 1.16682
 C263 C 0.11510 0.33998 1.17722
 C264 C 0.10723 0.32748 1.17234
 C265 C 0.11376 0.32341 1.15879
 H266 H 0.11351 0.34590 1.18778
 H267 H 0.11096 0.31369 1.15196
 Cu268 Cu 0.14137 0.35869 1.16686
 Cu269 Cu 0.13946 0.33287 1.13919
 Cu270 Cu 0.16726 0.36056 1.13918
 N271 N 0.15690 0.37424 1.16677
 N272 N 0.16689 0.37501 1.15577
 C273 C 0.17675 0.38621 1.15873
 C274 C 0.17264 0.39276 1.17224
 C275 C 0.16009 0.38493 1.17713
 H276 H 0.18651 0.38898 1.15189
 H277 H 0.15414 0.38654 1.18769
 N278 N 0.16575 0.34490 1.12343
 N279 N 0.15516 0.33437 1.12342
 C280 C 0.15805 0.32451 1.11218
 C281 C 0.17098 0.32912 1.10482
 C282 C 0.17564 0.34199 1.11219
 H283 H 0.15181 0.31423 1.11009
 H284 H 0.18597 0.34818 1.11011
 H285 H 0.15718 0.34284 1.15071
 H286 H 0.14448 0.35558 1.13970
 N287 N 0.12483 0.83344 0.65568
 N288 N 0.12585 0.84311 0.66692
 C289 C 0.11511 0.83988 0.67724
 C290 C 0.10700 0.82764 0.67210
 C291 C 0.11343 0.82376 0.65846
 H292 H 0.11366 0.84558 0.68796
 H293 H 0.11044 0.81424 0.65142
 Cu294 Cu 0.14167 0.85836 0.66739
 Cu295 Cu 0.13927 0.83318 0.63906
 Cu296 Cu 0.16713 0.86069 0.63921
 N297 N 0.15716 0.87395 0.66713
 N298 N 0.16692 0.87495 0.65594
 C299 C 0.17670 0.88623 0.65883
 C300 C 0.17280 0.89257 0.67250
 C301 C 0.16044 0.88455 0.67754
 H302 H 0.18629 0.88920 0.65183
 H303 H 0.15466 0.88600 0.68822
 N304 N 0.16551 0.84521 0.62329
 N305 N 0.15490 0.83472 0.62324
 C306 C 0.15775 0.82491 0.61195
 C307 C 0.17069 0.82950 0.60460
 C308 C 0.17538 0.84233 0.61203
 H309 H 0.15149 0.81464 0.60983
 H310 H 0.18573 0.84850 0.60999
 H311 H 0.15717 0.84285 0.65061
 H312 H 0.14431 0.85592 0.64011
 N313 N 0.37498 0.66688 0.65588
 N314 N 0.37424 0.65685 0.66683
 C315 C 0.38489 0.66004 0.67722
 C316 C 0.39268 0.67264 0.67240
 C317 C 0.38615 0.67675 0.65889
 H318 H 0.38652 0.65404 0.68775
 H319 H 0.38891 0.68653 0.65210
 Cu320 Cu 0.35877 0.64122 0.66677
 Cu321 Cu 0.36055 0.66724 0.63925
 Cu322 Cu 0.33294 0.63936 0.63911
 N323 N 0.34333 0.62558 0.66665
 N324 N 0.33337 0.62481 0.65565
 C325 C 0.32356 0.61356 0.65859
 C326 C 0.32764 0.60698 0.67209
 C327 C 0.34015 0.61485 0.67699
 H328 H 0.31382 0.61079 0.65176
 H329 H 0.34609 0.61323 0.68755
 N330 N 0.33440 0.65512 0.62341
 N331 N 0.34491 0.66573 0.62346
 C332 C 0.34200 0.67562 0.61225
 C333 C 0.32913 0.67096 0.60486
 C334 C 0.32454 0.65801 0.61218
 H335 H 0.34819 0.68594 0.61018
 H336 H 0.31428 0.65175 0.61005
 H337 H 0.34282 0.65706 0.65073
 H338 H 0.35562 0.64450 0.63963
 N339 N 0.37492 0.16719 1.15599
 N340 N 0.37418 0.15716 1.16695
 C341 C 0.38481 0.16037 1.17734
 C342 C 0.39258 0.17299 1.17255
 C343 C 0.38605 0.17710 1.15903
 H344 H 0.38643 0.15438 1.18787
 H345 H 0.38879 0.18690 1.15226
 Cu346 Cu 0.35867 0.14157 1.16692
 Cu347 Cu 0.36048 0.16753 1.13937
 Cu348 Cu 0.33282 0.13970 1.13930
 N349 N 0.34317 0.12600 1.16690
 N350 N 0.33319 0.12522 1.15591
 C351 C 0.32331 0.11406 1.15892
 C352 C 0.32737 0.10753 1.17246
 C353 C 0.33994 0.11534 1.17730
 H354 H 0.31354 0.11130 1.15213
 H355 H 0.34586 0.11376 1.18786
 N356 N 0.33434 0.15540 1.12355
 N357 N 0.34485 0.16599 1.12358
 C358 C 0.34196 0.17585 1.11234
 C359 C 0.32911 0.17117 1.10494
 C360 C 0.32450 0.15826 1.11230
 H361 H 0.34815 0.18618 1.11027
 H362 H 0.31423 0.15200 1.11018
 H363 H 0.34276 0.15737 1.15086
 H364 H 0.35553 0.14475 1.13978
 N365 N 0.87492 0.66694 1.15595
 N366 N 0.87406 0.65703 1.16701
 C367 C 0.88471 0.66027 1.17740
 C368 C 0.89260 0.67276 1.17247
 C369 C 0.88613 0.67678 1.15890
 H370 H 0.88625 0.65439 1.18800
 H371 H 0.88895 0.68649 1.15202
 Cu372 Cu 0.85845 0.64155 1.16711
 Cu373 Cu 0.86051 0.66729 1.13934
 Cu374 Cu 0.83263 0.63968 1.13946
 N375 N 0.84289 0.62601 1.16707
 N376 N 0.83290 0.62526 1.15609
 C377 C 0.82303 0.61407 1.15909
 C378 C 0.82712 0.60752 1.17260
 C379 C 0.83968 0.61533 1.17744
 H380 H 0.81328 0.61131 1.15227
 H381 H 0.84564 0.61369 1.18798
 N382 N 0.83423 0.65530 1.12363
 N383 N 0.84487 0.66577 1.12357
 C384 C 0.84206 0.67560 1.11228
 C385 C 0.82913 0.67103 1.10496
 C386 C 0.82439 0.65821 1.11239
 H387 H 0.84835 0.68585 1.11014
 H388 H 0.81403 0.65207 1.11034
 H389 H 0.84274 0.65742 1.15091
 H390 H 0.85542 0.64460 1.13995
 N391 N 0.87510 0.16688 0.65590
 N392 N 0.87413 0.15712 0.66707
 C393 C 0.88481 0.16037 0.67742
 C394 C 0.89284 0.17270 0.67235
 C395 C 0.88643 0.17662 0.65872
 H396 H 0.88628 0.15461 0.68810
 H397 H 0.88936 0.18621 0.65173
 Cu398 Cu 0.85842 0.14174 0.66743
 Cu399 Cu 0.86069 0.16719 0.63930
 Cu400 Cu 0.83289 0.13959 0.63943
 N401 N 0.84297 0.12609 0.66718
 N402 N 0.83315 0.12518 0.65607
 C403 C 0.82336 0.11390 0.65897
 C404 C 0.82732 0.10745 0.67258
 C405 C 0.83973 0.11542 0.67756
 H406 H 0.81373 0.11101 0.65204
 H407 H 0.84554 0.11390 0.68819
 N408 N 0.83445 0.15518 0.62360
 N409 N 0.84506 0.16568 0.62354
 C410 C 0.84221 0.17553 0.61228
 C411 C 0.82928 0.17096 0.60496
 C412 C 0.82458 0.15810 0.61238
 H413 H 0.84847 0.18581 0.61016
 H414 H 0.81423 0.15194 0.61035
 H415 H 0.84288 0.15740 0.65087
 H416 H 0.85572 0.14445 0.64019
 N417 N 0.33387 0.37529 0.65520
 N418 N 0.34443 0.37513 0.66565
 C419 C 0.34134 0.38593 0.67596
 C420 C 0.32827 0.39323 0.67159
 C421 C 0.32378 0.38624 0.65843
 H422 H 0.34771 0.38791 0.68619
 H423 H 0.31359 0.38852 0.65208
 Cu424 Cu 0.36066 0.36023 0.66552
 Cu425 Cu 0.33316 0.36038 0.63907
 Cu426 Cu 0.36086 0.33269 0.63909
 N427 N 0.37556 0.34400 0.66569
 N428 N 0.37575 0.33344 0.65524
 C429 C 0.38671 0.32336 0.65849
 C430 C 0.39367 0.32787 0.67164
 C431 C 0.38635 0.34093 0.67600
 H432 H 0.38900 0.31317 0.65214
 H433 H 0.38831 0.34731 0.68623
 N434 N 0.34486 0.33379 0.62368
 N435 N 0.33428 0.34435 0.62368
 C436 C 0.32423 0.34129 0.61267
 C437 C 0.32876 0.32825 0.60546
 C438 C 0.34180 0.32373 0.61268
 H439 H 0.31394 0.34757 0.61058
 H440 H 0.34809 0.31344 0.61060
 H441 H 0.34401 0.34355 0.65130
 H442 H 0.35604 0.35554 0.63872
 N443 N 0.33311 0.87489 0.15541
 N444 N 0.34300 0.87402 0.16648
 C445 C 0.33975 0.88470 0.17684
 C446 C 0.32726 0.89263 0.17191
 C447 C 0.32327 0.88615 0.15834
 H448 H 0.34562 0.88626 0.18743
 H449 H 0.31358 0.88902 0.15145
 Cu450 Cu 0.35852 0.85840 0.16663
 Cu451 Cu 0.33284 0.86046 0.13879
 Cu452 Cu 0.36066 0.83272 0.13877
 N453 N 0.37417 0.84292 0.16646
 N454 N 0.37508 0.83304 0.15540
 C455 C 0.38636 0.82322 0.15833
 C456 C 0.39281 0.82723 0.17190
 C457 C 0.38485 0.83969 0.17684
 H458 H 0.38924 0.81354 0.15145
 H459 H 0.38637 0.84556 0.18744
 N460 N 0.34502 0.83427 0.12299
 N461 N 0.33443 0.84484 0.12300
 C462 C 0.32459 0.84197 0.11175
 C463 C 0.32927 0.82908 0.10437
 C464 C 0.34218 0.82443 0.11173
 H465 H 0.31427 0.84821 0.10966
 H466 H 0.34844 0.81414 0.10964
 H467 H 0.34286 0.84269 0.15029
 H468 H 0.35563 0.85547 0.13942
 N469 N 0.83360 0.37538 0.15476
 N470 N 0.84403 0.37500 0.16533
 C471 C 0.84096 0.38576 0.17568
 C472 C 0.82802 0.39323 0.17123
 C473 C 0.82357 0.38639 0.15800
 H474 H 0.84722 0.38759 0.18600
 H475 H 0.81349 0.38887 0.15155
 Cu476 Cu 0.85999 0.35986 0.16526
 Cu477 Cu 0.83288 0.36058 0.13853
 Cu478 Cu 0.86052 0.33273 0.13854
 N479 N 0.87509 0.34385 0.16527
 N480 N 0.87536 0.33338 0.15473
 C481 C 0.88632 0.32329 0.15796
 C482 C 0.89324 0.32775 0.17116
 C483 C 0.88587 0.34075 0.17558
 H484 H 0.88872 0.31317 0.15155
 H485 H 0.88778 0.34705 0.18587
 N486 N 0.84450 0.33394 0.12313
 N487 N 0.83399 0.34458 0.12311
 C488 C 0.82391 0.34155 0.11212
 C489 C 0.82838 0.32848 0.10492
 C490 C 0.84137 0.32387 0.11217
 H491 H 0.81364 0.34786 0.11005
 H492 H 0.84757 0.31352 0.11014
 H493 H 0.84358 0.34359 0.15037
 H494 H 0.85582 0.35570 0.13821
 N495 N 0.83298 0.87545 0.65555
 N496 N 0.84286 0.87454 0.66661
 C497 C 0.83960 0.88516 0.67703
 C498 C 0.82712 0.89310 0.67211
 C499 C 0.82312 0.88669 0.65853
 H500 H 0.84545 0.88666 0.68764
 H501 H 0.81343 0.88957 0.65166
 Cu502 Cu 0.85839 0.85896 0.66667
 Cu503 Cu 0.83268 0.86108 0.63889
 Cu504 Cu 0.86047 0.83328 0.63887
 N505 N 0.87400 0.84344 0.66655
 N506 N 0.87487 0.83355 0.65549
 C507 C 0.88610 0.82369 0.65845
 C508 C 0.89255 0.82768 0.67202
 C509 C 0.88463 0.84017 0.67694
 H510 H 0.88895 0.81398 0.65158
 H511 H 0.88616 0.84603 0.68755
 N512 N 0.84484 0.83488 0.62308
 N513 N 0.83427 0.84547 0.62309
 C514 C 0.82439 0.84259 0.61189
 C515 C 0.82902 0.82967 0.60454
 C516 C 0.84194 0.82501 0.61188
 H517 H 0.81406 0.84882 0.60984
 H518 H 0.84814 0.81466 0.60983
 H519 H 0.84265 0.84330 0.65038
 H520 H 0.85543 0.85606 0.63947
 N521 N 0.66631 0.62471 0.65563
 N522 N 0.65509 0.62429 0.66541
 C523 C 0.65810 0.61374 0.67597
 C524 C 0.67183 0.60718 0.67248
 C525 C 0.67680 0.61439 0.65958
 H526 H 0.65109 0.61139 0.68572
 H527 H 0.68748 0.61266 0.65383
 Cu528 Cu 0.63800 0.63808 0.66392
 Cu529 Cu 0.66710 0.63950 0.63936
 Cu530 Cu 0.63942 0.66721 0.63945
 N531 N 0.62423 0.65518 0.66551
 N532 N 0.62465 0.66641 0.65577
 C533 C 0.61435 0.67690 0.65978
 C534 C 0.60715 0.67191 0.67268
 C535 C 0.61369 0.65817 0.67611
 H536 H 0.61262 0.68758 0.65407
 H537 H 0.61134 0.65114 0.68583
 N538 N 0.65539 0.66608 0.62392
 N539 N 0.66596 0.65549 0.62388
 C540 C 0.67595 0.65850 0.61277
 C541 C 0.67140 0.67153 0.60555
 C542 C 0.65840 0.67609 0.61284
 H543 H 0.68621 0.65218 0.61060
 H544 H 0.65210 0.68636 0.61073
 H545 H 0.65537 0.65542 0.65177
 H546 H 0.64419 0.64430 0.63770
 N547 N 0.66720 0.12450 0.15533
 N548 N 0.65710 0.12517 0.16625
 C549 C 0.66032 0.11451 0.17663
 C550 C 0.67302 0.10680 0.17187
 C551 C 0.67717 0.11339 0.15838
 H552 H 0.65432 0.11286 0.18715
 H553 H 0.68704 0.11073 0.15165
 Cu554 Cu 0.64149 0.14071 0.16627
 Cu555 Cu 0.66756 0.13901 0.13876
 Cu556 Cu 0.63964 0.16669 0.13873
 N557 N 0.62590 0.15625 0.16629
 N558 N 0.62514 0.16628 0.15533
 C559 C 0.61398 0.17620 0.15839
 C560 C 0.60745 0.17210 0.17192
 C561 C 0.61525 0.15948 0.17671
 H562 H 0.61124 0.18602 0.15163
 H563 H 0.61368 0.15353 0.18727
 N564 N 0.65536 0.16521 0.12297
 N565 N 0.66601 0.15471 0.12300
 C566 C 0.67589 0.15763 0.11176
 C567 C 0.67116 0.17049 0.10436
 C568 C 0.65820 0.17507 0.11171
 H569 H 0.68624 0.15144 0.10968
 H570 H 0.65188 0.18532 0.10958
 H571 H 0.65734 0.15668 0.15031
 H572 H 0.64479 0.14400 0.13916
 N573 N 0.16712 0.62516 0.15539
 N574 N 0.15719 0.62602 0.16644
 C575 C 0.16040 0.61535 0.17683
 C576 C 0.17290 0.60742 0.17191
 C577 C 0.17695 0.61390 0.15834
 H578 H 0.15448 0.61380 0.18742
 H579 H 0.18666 0.61103 0.15147
 Cu580 Cu 0.14166 0.64163 0.16653
 Cu581 Cu 0.16746 0.63960 0.13876
 Cu582 Cu 0.13971 0.66743 0.13879
 N583 N 0.12607 0.65716 0.16644
 N584 N 0.12525 0.66711 0.15541
 C585 C 0.11400 0.67696 0.15838
 C586 C 0.10747 0.67289 0.17192
 C587 C 0.11536 0.66037 0.17681
 H588 H 0.11118 0.68669 0.15154
 H589 H 0.11377 0.65445 0.18738
 N590 N 0.15539 0.66588 0.12301
 N591 N 0.16594 0.65527 0.12299
 C592 C 0.17584 0.65817 0.11178
 C593 C 0.17124 0.67111 0.10445
 C594 C 0.15833 0.67578 0.11182
 H595 H 0.18616 0.65192 0.10970
 H596 H 0.15214 0.68613 0.10978
 H597 H 0.15747 0.65734 0.15027
 H598 H 0.14471 0.64466 0.13934
 N599 N 0.16681 0.12425 0.65565
 N600 N 0.15675 0.12497 0.66660
 C601 C 0.15996 0.11430 0.67699
 C602 C 0.17261 0.10652 0.67219
 C603 C 0.17673 0.11308 0.65868
 H604 H 0.15396 0.11268 0.68752
 H605 H 0.18656 0.11036 0.65192
 Cu606 Cu 0.14119 0.14055 0.66663
 Cu607 Cu 0.16724 0.13881 0.63910
 Cu608 Cu 0.13945 0.16662 0.63916
 N609 N 0.12563 0.15613 0.66666
 N610 N 0.12492 0.16619 0.65573
 C611 C 0.11375 0.17610 0.65877
 C612 C 0.10717 0.17198 0.67227
 C613 C 0.11495 0.15934 0.67705
 H614 H 0.11103 0.18593 0.65203
 H615 H 0.11331 0.15333 0.68757
 N616 N 0.15519 0.16515 0.62343
 N617 N 0.16577 0.15457 0.62340
 C618 C 0.17567 0.15749 0.61219
 C619 C 0.17102 0.17042 0.60486
 C620 C 0.15810 0.17506 0.61223
 H621 H 0.18598 0.15125 0.61008
 H622 H 0.15185 0.18537 0.61017
 H623 H 0.15713 0.15646 0.65069
 H624 H 0.14451 0.14388 0.63951
 N625 N 0.33291 0.62498 0.34411
 N626 N 0.34260 0.62602 0.33286
 C627 C 0.33937 0.61534 0.32252
 C628 C 0.32709 0.60724 0.32765
 C629 C 0.32320 0.61361 0.34131
 H630 H 0.34511 0.61390 0.31182
 H631 H 0.31367 0.61061 0.34835
 Cu632 Cu 0.35793 0.64176 0.33239
 Cu633 Cu 0.33266 0.63934 0.36076
 Cu634 Cu 0.36035 0.66701 0.36071
 N635 N 0.37367 0.65710 0.33278
 N636 N 0.37471 0.66677 0.34402
 C637 C 0.38609 0.67646 0.34118
 C638 C 0.39247 0.67259 0.32751
 C639 C 0.38435 0.66034 0.32241
 H640 H 0.38911 0.68598 0.34821
 H641 H 0.38579 0.65461 0.31171
 N642 N 0.34479 0.66544 0.37658
 N643 N 0.33422 0.65490 0.37660
 C644 C 0.32437 0.65777 0.38787
 C645 C 0.32901 0.67065 0.39525
 C646 C 0.34192 0.67528 0.38785
 H647 H 0.31405 0.65156 0.38996
 H648 H 0.34815 0.68557 0.38993
 H649 H 0.34250 0.65722 0.34928
 H650 H 0.35550 0.64423 0.35969
 N651 N 0.33334 0.12442 0.84426
 N652 N 0.34332 0.12520 0.83325
 C653 C 0.34012 0.11452 0.82289
 C654 C 0.32759 0.10668 0.82778
 C655 C 0.32349 0.11322 0.84131
 H656 H 0.34606 0.11292 0.81232
 H657 H 0.31374 0.11044 0.84814
 Cu658 Cu 0.35885 0.14074 0.83313
 Cu659 Cu 0.33292 0.13891 0.86082
 Cu660 Cu 0.36074 0.16655 0.86082
 N661 N 0.37449 0.15618 0.83325
 N662 N 0.37529 0.16612 0.84426
 C663 C 0.38655 0.17592 0.84130
 C664 C 0.39309 0.17184 0.82777
 C665 C 0.38520 0.15936 0.82287
 H666 H 0.38934 0.18565 0.84813
 H667 H 0.38678 0.15345 0.81229
 N668 N 0.34498 0.16514 0.87653
 N669 N 0.33440 0.15461 0.87654
 C670 C 0.32445 0.15758 0.88770
 C671 C 0.32907 0.17050 0.89502
 C672 C 0.34203 0.17507 0.88770
 H673 H 0.31411 0.15140 0.88977
 H674 H 0.34826 0.18536 0.88976
 H675 H 0.34302 0.15655 0.84928
 H676 H 0.35570 0.14378 0.86030
 N677 N 0.83344 0.62447 0.84442
 N678 N 0.84314 0.62551 0.83319
 C679 C 0.83991 0.61483 0.82284
 C680 C 0.82764 0.60671 0.82796
 C681 C 0.82374 0.61309 0.84162
 H682 H 0.84563 0.61342 0.81212
 H683 H 0.81419 0.61010 0.84865
 Cu684 Cu 0.85841 0.64132 0.83272
 Cu685 Cu 0.83311 0.63890 0.86103
 Cu686 Cu 0.86065 0.66672 0.86091
 N687 N 0.87406 0.65675 0.83306
 N688 N 0.87503 0.66648 0.84425
 C689 C 0.88634 0.67625 0.84138
 C690 C 0.89274 0.67237 0.82773
 C691 C 0.88473 0.66004 0.82267
 H692 H 0.88927 0.68582 0.84837
 H693 H 0.88620 0.65430 0.81199
 N694 N 0.84507 0.66512 0.87676
 N695 N 0.83456 0.65452 0.87681
 C696 C 0.82468 0.65739 0.88806
 C697 C 0.82925 0.67032 0.89539
 C698 C 0.84214 0.67499 0.88799
 H699 H 0.81440 0.65112 0.89017
 H700 H 0.84831 0.68533 0.89002
 H701 H 0.84287 0.65680 0.84948
 H702 H 0.85592 0.64392 0.85999
 N703 N 0.83305 0.12477 0.34428
 N704 N 0.84291 0.12568 0.33317
 C705 C 0.83970 0.11501 0.32280
 C706 C 0.82729 0.10705 0.32780
 C707 C 0.82327 0.11349 0.34138
 H708 H 0.84556 0.11349 0.31218
 H709 H 0.81362 0.11058 0.34832
 Cu710 Cu 0.85838 0.14127 0.33300
 Cu711 Cu 0.83275 0.13911 0.36094
 Cu712 Cu 0.86047 0.16683 0.36093
 N713 N 0.87400 0.15671 0.33315
 N714 N 0.87488 0.16655 0.34425
 C715 C 0.88613 0.17636 0.34131
 C716 C 0.89259 0.17239 0.32771
 C717 C 0.88466 0.15996 0.32275
 H718 H 0.88899 0.18601 0.34822
 H719 H 0.88619 0.15413 0.31212
 N720 N 0.84484 0.16524 0.37676
 N721 N 0.83429 0.15468 0.37678
 C722 C 0.82440 0.15756 0.38801
 C723 C 0.82900 0.17047 0.39536
 C724 C 0.84191 0.17511 0.38798
 H725 H 0.81409 0.15134 0.39009
 H726 H 0.84810 0.18543 0.39003
 H727 H 0.84270 0.15693 0.34945
 H728 H 0.85554 0.14409 0.36022
 N729 N 0.66587 0.37547 0.34450
 N730 N 0.65452 0.37604 0.33492
 C731 C 0.65735 0.38673 0.32444
 C732 C 0.67116 0.39317 0.32776
 C733 C 0.67630 0.38580 0.34048
 H734 H 0.65020 0.38925 0.31486
 H735 H 0.68707 0.38741 0.34602
 Cu736 Cu 0.63771 0.36202 0.33653
 Cu737 Cu 0.66696 0.36049 0.36064
 Cu738 Cu 0.63935 0.33272 0.36062
 N739 N 0.62380 0.34513 0.33489
 N740 N 0.62441 0.33376 0.34446
 C741 C 0.61414 0.32331 0.34044
 C742 C 0.60676 0.32844 0.32773
 C743 C 0.61313 0.34227 0.32441
 H744 H 0.61256 0.31253 0.34598
 H745 H 0.61058 0.34945 0.31485
 N746 N 0.65550 0.33371 0.37593
 N747 N 0.66604 0.34429 0.37594
 C748 C 0.67608 0.34123 0.38697
 C749 C 0.67156 0.32821 0.39421
 C750 C 0.65856 0.32367 0.38696
 H751 H 0.68631 0.34755 0.38912
 H752 H 0.65227 0.31342 0.38911
 H753 H 0.65530 0.34449 0.34831
 H754 H 0.64419 0.35547 0.36254
 N755 N 0.66594 0.87561 0.84473
 N756 N 0.65545 0.87535 0.83420
 C757 C 0.65855 0.88609 0.82384
 C758 C 0.67155 0.89344 0.82825
 C759 C 0.67600 0.88656 0.84150
 H760 H 0.65226 0.88797 0.81353
 H761 H 0.68615 0.88885 0.84790
 Cu762 Cu 0.63974 0.85996 0.83454
 Cu763 Cu 0.66679 0.86063 0.86093
 Cu764 Cu 0.63898 0.83294 0.86097
 N765 N 0.62431 0.84429 0.83423
 N766 N 0.62401 0.83381 0.84479
 C767 C 0.61305 0.82377 0.84158
 C768 C 0.60619 0.82823 0.82832
 C769 C 0.61359 0.84121 0.82388
 H770 H 0.61073 0.81363 0.84800
 H771 H 0.61174 0.84749 0.81355
 N772 N 0.65509 0.83400 0.87634
 N773 N 0.66568 0.84452 0.87632
 C774 C 0.67574 0.84142 0.88732
 C775 C 0.67119 0.82841 0.89457
 C776 C 0.65815 0.82394 0.88737
 H777 H 0.68605 0.84764 0.88938
 H778 H 0.65187 0.81367 0.88946
 H779 H 0.65625 0.84344 0.84907
 H780 H 0.64410 0.85562 0.86128
 N781 N 0.16649 0.37512 0.84431
 N782 N 0.15650 0.37436 0.83335
 C783 C 0.15971 0.38502 0.82294
 C784 C 0.17227 0.39284 0.82778
 C785 C 0.17636 0.38630 0.84130
 H786 H 0.15377 0.38660 0.81239
 H787 H 0.18613 0.38906 0.84808
 Cu788 Cu 0.14100 0.35877 0.83330
 Cu789 Cu 0.16691 0.36059 0.86087
 Cu790 Cu 0.13924 0.33276 0.86084
 N791 N 0.12549 0.34321 0.83332
 N792 N 0.12476 0.33318 0.84427
 C793 C 0.11362 0.32328 0.84125
 C794 C 0.10709 0.32738 0.82773
 C795 C 0.11486 0.33999 0.82291
 H796 H 0.11089 0.31347 0.84802
 H797 H 0.11324 0.34596 0.81237
 N798 N 0.15494 0.33425 0.87657
 N799 N 0.16546 0.34484 0.87658
 C800 C 0.17535 0.34193 0.88778
 C801 C 0.17077 0.32898 0.89510
 C802 C 0.15787 0.32434 0.88775
 H803 H 0.18564 0.34817 0.88987
 H804 H 0.15168 0.31402 0.88981
 H805 H 0.15690 0.34288 0.84931
 H806 H 0.14418 0.35548 0.86045
 N807 N 0.16679 0.87486 0.34421
 N808 N 0.15693 0.87398 0.33313
 C809 C 0.16016 0.88465 0.32274
 C810 C 0.17260 0.89258 0.32769
 C811 C 0.17659 0.88612 0.34128
 H812 H 0.15431 0.88619 0.31213
 H813 H 0.18625 0.88900 0.34818
 Cu814 Cu 0.14146 0.85837 0.33298
 Cu815 Cu 0.16710 0.86044 0.36085
 Cu816 Cu 0.13938 0.83272 0.36088
 N817 N 0.12584 0.84291 0.33317
 N818 N 0.12496 0.83304 0.34426
 C819 C 0.11370 0.82324 0.34136
 C820 C 0.10723 0.82725 0.32779
 C821 C 0.11516 0.83969 0.32282
 H822 H 0.11083 0.81358 0.34828
 H823 H 0.11362 0.84555 0.31220
 N824 N 0.15500 0.83426 0.37667
 N825 N 0.16555 0.84482 0.37667
 C826 C 0.17541 0.84192 0.38790
 C827 C 0.17079 0.82901 0.39526
 C828 C 0.15789 0.82439 0.38791
 H829 H 0.18571 0.84814 0.38998
 H830 H 0.15167 0.81408 0.38999
 H831 H 0.15717 0.84268 0.34936
 H832 H 0.14433 0.85548 0.36019
 C833 C 0.25959 0.96806 0.24012
 C834 C 0.24994 0.96028 0.24990
 C835 C 0.24030 0.96803 0.25973
 C836 C 0.24019 0.98399 0.25988
 C837 C 0.24995 0.99201 0.25000
 C838 C 0.25971 0.98402 0.24007
 C839 C 0.26931 0.99219 0.23038
 C840 C 0.26932 1.00793 0.23043
 C841 C 0.25972 1.01607 0.24017
 C842 C 0.24995 1.00805 0.25004
 C843 C 0.23060 0.99213 0.26962
 C844 C 0.23059 1.00787 0.26966
 C845 C 0.24018 1.01604 0.25996
 C846 C 0.24029 1.03200 0.25990
 C847 C 0.24994 1.03978 0.25013
 C848 C 0.25960 1.03203 0.24031
 H849 H 0.27691 0.98647 0.22267
 H850 H 0.27693 1.01368 0.22276
 H851 H 0.22301 0.98639 0.27731
 H852 H 0.22298 1.01359 0.27737
 H853 H 0.24993 0.94801 0.24985
 H854 H 0.24994 1.05205 0.25016
 C855 C 0.25971 0.46774 0.74003
 C856 C 0.25000 0.46000 0.74978
 C857 C 0.24028 0.46777 0.75951
 C858 C 0.24014 0.48373 0.75958
 C859 C 0.24995 0.49173 0.74973
 C860 C 0.25980 0.48371 0.73991
 C861 C 0.26946 0.49185 0.73026
 C862 C 0.26943 0.50759 0.73024
 C863 C 0.25973 0.51576 0.73985
 C864 C 0.24992 0.50777 0.74970
 C865 C 0.23046 0.49190 0.76922
 C866 C 0.23043 0.50764 0.76918
 C867 C 0.24007 0.51579 0.75952
 C868 C 0.24016 0.53175 0.75940
 C869 C 0.24984 0.53950 0.74963
 C870 C 0.25957 0.53172 0.73990
 H871 H 0.27713 0.48612 0.72263
 H872 H 0.27711 0.51332 0.72261
 H873 H 0.22281 0.48619 0.77688
 H874 H 0.22275 0.51339 0.77681
 H875 H 0.25002 0.44773 0.74979
 H876 H 0.24982 0.55177 0.74961
 C877 C 0.74075 0.03162 0.24026
 C878 C 0.75041 0.03937 0.25001
 C879 C 0.76002 0.03159 0.25984
 C880 C 0.76009 0.01563 0.26000
 C881 C 0.75033 0.00763 0.25014
 C882 C 0.74061 0.01566 0.24021
 C883 C 0.73103 0.00751 0.23053
 C884 C 0.73101 -0.00823 0.23058
 C885 C 0.74054 -0.01640 0.24034
 C886 C 0.75029 -0.00841 0.25021
 C887 C 0.76964 0.00746 0.26974
 C888 C 0.76959 -0.00828 0.26983
 C889 C 0.76001 -0.01643 0.26014
 C890 C 0.75987 -0.03240 0.26010
 C891 C 0.75021 -0.04014 0.25034
 C892 C 0.74061 -0.03237 0.24050
 H893 H 0.72346 0.01325 0.22281
 H894 H 0.72343 -0.01395 0.22289
 H895 H 0.77725 0.01318 0.27741
 H896 H 0.77714 -0.01402 0.27756
 H897 H 0.75044 0.05164 0.24997
 H898 H 0.75019 -0.05241 0.25037
 C899 C 0.75973 0.46798 0.75968
 C900 C 0.75005 0.46026 0.74992
 C901 C 0.74035 0.46806 0.74022
 C902 C 0.74018 0.48402 0.74019
 C903 C 0.74998 0.49199 0.75003
 C904 C 0.75983 0.48394 0.75981
 C905 C 0.76950 0.49206 0.76943
 C906 C 0.76945 0.50780 0.76949
 C907 C 0.75974 0.51600 0.75993
 C908 C 0.74993 0.50803 0.75010
 C909 C 0.73049 0.49221 0.73061
 C910 C 0.73042 0.50795 0.73069
 C911 C 0.74005 0.51608 0.74034
 C912 C 0.74008 0.53205 0.74053
 C913 C 0.74978 0.53976 0.75028
 C914 C 0.75955 0.53196 0.75993
 H915 H 0.77719 0.48630 0.77701
 H916 H 0.77712 0.51350 0.77711
 H917 H 0.72284 0.48651 0.72297
 H918 H 0.72274 0.51371 0.72310
 H919 H 0.75007 0.44799 0.74989
 H920 H 0.74971 0.55203 0.75037
 C921 C 0.25947 0.46793 0.25995
 C922 C 0.24984 0.46016 0.25018
 C923 C 0.24022 0.46792 0.24036
 C924 C 0.24012 0.48388 0.24021
 C925 C 0.24985 0.49189 0.25008
 C926 C 0.25958 0.48389 0.26001
 C927 C 0.26914 0.49205 0.26971
 C928 C 0.26917 0.50779 0.26964
 C929 C 0.25961 0.51594 0.25989
 C930 C 0.24987 0.50793 0.25003
 C931 C 0.23056 0.49203 0.23046
 C932 C 0.23056 0.50777 0.23042
 C933 C 0.24014 0.51593 0.24010
 C934 C 0.24027 0.53189 0.24013
 C935 C 0.24991 0.53966 0.24989
 C936 C 0.25953 0.53191 0.25972
 H937 H 0.27671 0.48632 0.27744
 H938 H 0.27676 0.51352 0.27731
 H939 H 0.22299 0.48630 0.22277
 H940 H 0.22298 0.51350 0.22270
 H941 H 0.24985 0.44789 0.25021
 H942 H 0.24992 0.55193 0.24984
 C943 C 0.75959 1.03221 0.74082
 C944 C 0.74995 1.03995 0.75066
 C945 C 0.74024 1.03217 0.76037
 C946 C 0.74006 1.01620 0.76037
 C947 C 0.74982 1.00822 0.75044
 C948 C 0.75965 1.01625 0.74062
 C949 C 0.76924 1.00811 0.73089
 C950 C 0.76917 0.99237 0.73078
 C951 C 0.75951 0.98420 0.74040
 C952 C 0.74974 0.99218 0.75033
 C953 C 0.73039 1.00803 0.76999
 C954 C 0.73032 0.99229 0.76988
 C955 C 0.73990 0.98415 0.76013
 C956 C 0.73993 0.96818 0.75990
 C957 C 0.74959 0.96045 0.75008
 C958 C 0.75932 0.96824 0.74039
 H959 H 0.77690 1.01385 0.72326
 H960 H 0.77679 0.98666 0.72307
 H961 H 0.72279 1.01375 0.77771
 H962 H 0.72266 0.98654 0.77750
 H963 H 0.74999 1.05222 0.75074
 H964 H 0.74954 0.94818 0.74997
 C965 C 0.75952 0.46759 0.23988
 C966 C 0.74968 0.45978 0.24945
 C967 C 0.73992 0.46748 0.25921
 C968 C 0.73991 0.48346 0.25951
 C969 C 0.74985 0.49152 0.24982
 C970 C 0.75970 0.48356 0.23995
 C971 C 0.76944 0.49177 0.23043
 C972 C 0.76949 0.50751 0.23057
 C973 C 0.75982 0.51562 0.24026
 C974 C 0.74993 0.50756 0.24999
 C975 C 0.73027 0.49158 0.26921
 C976 C 0.73037 0.50732 0.26940
 C977 C 0.74011 0.51553 0.25989
 C978 C 0.74031 0.53149 0.25997
 C979 C 0.75007 0.53930 0.25032
 C980 C 0.75976 0.53159 0.24050
 H981 H 0.77712 0.48608 0.22277
 H982 H 0.77719 0.51328 0.22301
 H983 H 0.72254 0.48581 0.27675
 H984 H 0.72272 0.51302 0.27709
 H985 H 0.74962 0.44751 0.24930
 H986 H 0.75012 0.55157 0.25044
 C987 C 0.26002 -0.03255 0.76003
 C988 C 0.25035 -0.04031 0.75029
 C989 C 0.24068 -0.03254 0.74052
 C990 C 0.24057 -0.01658 0.74037
 C991 C 0.25034 -0.00858 0.75022
 C992 C 0.26011 -0.01659 0.76011
 C993 C 0.26969 -0.00843 0.76978
 C994 C 0.26969 0.00731 0.76973
 C995 C 0.26012 0.01547 0.76000
 C996 C 0.25035 0.00746 0.75016
 C997 C 0.23097 -0.00842 0.73067
 C998 C 0.23097 0.00731 0.73062
 C999 C 0.24059 0.01547 0.74027
 C1000 C 0.24072 0.03143 0.74030
 C1001 C 0.25040 0.03919 0.75003
 C1002 C 0.26003 0.03143 0.75983
 H1003 H 0.27727 -0.01416 0.77749
 H1004 H 0.27729 0.01305 0.77739
 H1005 H 0.22336 -0.01415 0.72301
 H1006 H 0.22336 0.01304 0.72294
 H1007 H 0.25035 -0.05258 0.75031
 H1008 H 0.25042 0.05146 0.74997
 C1009 C 0.25967 0.24006 0.96786
 C1010 C 0.24993 0.24980 0.96010
 C1011 C 0.24021 0.25956 0.96786
 C1012 C 0.24012 0.25969 0.98382
 C1013 C 0.24995 0.24986 0.99183
 C1014 C 0.25977 0.23999 0.98382
 C1015 C 0.26941 0.23032 0.99199
 C1016 C 0.26943 0.23037 1.00772
 C1017 C 0.25983 0.24008 1.01588
 C1018 C 0.24999 0.24990 1.00787
 C1019 C 0.23047 0.26936 0.99199
 C1020 C 0.23050 0.26941 1.00772
 C1021 C 0.24018 0.25978 1.01588
 C1022 C 0.24033 0.25974 1.03185
 C1023 C 0.25008 0.25003 1.03960
 C1024 C 0.25978 0.24025 1.03184
 H1025 H 0.27703 0.22262 0.98627
 H1026 H 0.27708 0.22270 1.01344
 H1027 H 0.22280 0.27700 0.98627
 H1028 H 0.22286 0.27709 1.01345
 H1029 H 0.24993 0.24979 0.94784
 H1030 H 0.25012 0.25008 1.05187
 C1031 C 0.25961 0.74013 0.46812
 C1032 C 0.24989 0.74986 0.46035
 C1033 C 0.24017 0.75963 0.46810
 C1034 C 0.24007 0.75977 0.48406
 C1035 C 0.24989 0.74993 0.49208
 C1036 C 0.25971 0.74006 0.48408
 C1037 C 0.26934 0.73040 0.49226
 C1038 C 0.26934 0.73043 0.50799
 C1039 C 0.25970 0.74012 0.51614
 C1040 C 0.24988 0.74996 0.50812
 C1041 C 0.23044 0.76947 0.49221
 C1042 C 0.23043 0.76950 0.50794
 C1043 C 0.24006 0.75983 0.51611
 C1044 C 0.24015 0.75974 0.53207
 C1045 C 0.24986 0.75001 0.53984
 C1046 C 0.25959 0.74025 0.53210
 H1047 H 0.27698 0.72272 0.48654
 H1048 H 0.27698 0.72277 0.51372
 H1049 H 0.22280 0.77714 0.48647
 H1050 H 0.22279 0.77718 0.51365
 H1051 H 0.24989 0.74983 0.44809
 H1052 H 0.24985 0.75003 0.55211
 C1053 C 0.24060 0.74046 0.03164
 C1054 C 0.25036 0.75016 0.03935
 C1055 C 0.26005 0.75988 0.03155
 C1056 C 0.26009 0.76000 0.01559
 C1057 C 0.25023 0.75021 0.00762
 C1058 C 0.24043 0.74039 0.01567
 C1059 C 0.23075 0.73077 0.00755
 C1060 C 0.23069 0.73081 -0.00818
 C1061 C 0.24029 0.74046 -0.01638
 C1062 C 0.25015 0.75025 -0.00842
 C1063 C 0.26971 0.76964 0.00738
 C1064 C 0.26963 0.76968 -0.00835
 C1065 C 0.25994 0.76008 -0.01646
 C1066 C 0.25975 0.76004 -0.03242
 C1067 C 0.24999 0.75035 -0.04014
 C1068 C 0.24032 0.74060 -0.03235
 H1069 H 0.22313 0.72312 0.01331
 H1070 H 0.22301 0.72319 -0.01387
 H1071 H 0.27740 0.77725 0.01307
 H1072 H 0.27726 0.77732 -0.01410
 H1073 H 0.25041 0.75014 0.05161
 H1074 H 0.24994 0.75038 -0.05241
 C1075 C 0.24019 0.24031 0.46813
 C1076 C 0.24989 0.25009 0.46039
 C1077 C 0.25962 0.25975 0.46818
 C1078 C 0.25975 0.25975 0.48414
 C1079 C 0.24995 0.24987 0.49212
 C1080 C 0.24012 0.24010 0.48409
 C1081 C 0.23051 0.23039 0.49222
 C1082 C 0.23054 0.23028 0.50795
 C1083 C 0.24018 0.23988 0.51614
 C1084 C 0.24998 0.24976 0.50816
 C1085 C 0.26939 0.26934 0.49233
 C1086 C 0.26942 0.26923 0.50807
 C1087 C 0.25980 0.25953 0.51620
 C1088 C 0.25971 0.25933 0.53216
 C1089 C 0.25002 0.24955 0.53989
 C1090 C 0.24030 0.23987 0.53210
 H1091 H 0.22287 0.22278 0.48648
 H1092 H 0.22292 0.22259 0.51365
 H1093 H 0.27702 0.27702 0.48663
 H1094 H 0.27707 0.27684 0.51381
 H1095 H 0.24986 0.25017 0.44813
 H1096 H 0.25003 0.24947 0.55215
 C1097 C 0.74045 0.75978 1.03199
 C1098 C 0.75019 0.75008 1.03977
 C1099 C 0.75990 0.74030 1.03202
 C1100 C 0.75997 0.74012 1.01606
 C1101 C 0.75012 0.74992 1.00804
 C1102 C 0.74032 0.75981 1.01603
 C1103 C 0.73065 0.76944 1.00786
 C1104 C 0.73060 0.76935 0.99213
 C1105 C 0.74021 0.75962 0.98398
 C1106 C 0.75007 0.74983 0.99200
 C1107 C 0.76960 0.73042 1.00792
 C1108 C 0.76956 0.73033 0.99219
 C1109 C 0.75988 0.73994 0.98401
 C1110 C 0.75972 0.73994 0.96805
 C1111 C 0.74995 0.74962 0.96028
 C1112 C 0.74025 0.75941 0.96802
 H1113 H 0.72303 0.77715 1.01357
 H1114 H 0.72294 0.77699 0.98639
 H1115 H 0.77727 0.72279 1.01366
 H1116 H 0.77720 0.72264 0.98648
 H1117 H 0.75021 0.75013 1.05203
 H1118 H 0.74990 0.74954 0.94802
 C1119 C 0.75974 0.24004 0.46828
 C1120 C 0.74999 0.24974 0.46050
 C1121 C 0.74029 0.25953 0.46824
 C1122 C 0.74023 0.25973 0.48420
 C1123 C 0.75008 0.24993 0.49223
 C1124 C 0.75989 0.24004 0.48424
 C1125 C 0.76955 0.23041 0.49242
 C1126 C 0.76959 0.23051 0.50815
 C1127 C 0.75997 0.24022 0.51629
 C1128 C 0.75013 0.25003 0.50827
 C1129 C 0.73061 0.26945 0.49234
 C1130 C 0.73066 0.26955 0.50807
 C1131 C 0.74032 0.25993 0.51625
 C1132 C 0.74046 0.25991 0.53222
 C1133 C 0.75020 0.25020 0.54000
 C1134 C 0.75990 0.24041 0.53225
 H1135 H 0.77718 0.22271 0.48672
 H1136 H 0.77725 0.22287 0.51389
 H1137 H 0.72295 0.27709 0.48660
 H1138 H 0.72303 0.27725 0.51378
 H1139 H 0.74996 0.24967 0.44824
 H1140 H 0.75023 0.25026 0.55226
 C1141 C 0.74027 0.24004 -0.03248
 C1142 C 0.74995 0.24981 -0.04025
 C1143 C 0.75962 0.25957 -0.03249
 C1144 C 0.75971 0.25966 -0.01653
 C1145 C 0.74993 0.24979 -0.00851
 C1146 C 0.74017 0.23993 -0.01651
 C1147 C 0.73057 0.23025 -0.00834
 C1148 C 0.73057 0.23023 0.00739
 C1149 C 0.74016 0.23990 0.01554
 C1150 C 0.74993 0.24978 0.00752
 C1151 C 0.76929 0.26935 -0.00838
 C1152 C 0.76929 0.26933 0.00736
 C1153 C 0.75970 0.25964 0.01553
 C1154 C 0.75960 0.25951 0.03149
 C1155 C 0.74993 0.24973 0.03925
 C1156 C 0.74027 0.23998 0.03150
 H1157 H 0.72295 0.22258 -0.01405
 H1158 H 0.72296 0.22255 0.01312
 H1159 H 0.77689 0.27703 -0.01410
 H1160 H 0.77689 0.27701 0.01308
 H1161 H 0.74996 0.24982 -0.05251
 H1162 H 0.74993 0.24971 0.05151
 C1163 C 0.75964 0.75999 0.46807
 C1164 C 0.74993 0.75024 0.46038
 C1165 C 0.74026 0.74052 0.46821
 C1166 C 0.74019 0.74046 0.48418
 C1167 C 0.75001 0.75032 0.49211
 C1168 C 0.75979 0.76013 0.48403
 C1169 C 0.76944 0.76981 0.49212
 C1170 C 0.76949 0.76984 0.50785
 C1171 C 0.75990 0.76020 0.51608
 C1172 C 0.75007 0.75035 0.50815
 C1173 C 0.73058 0.73084 0.49241
 C1174 C 0.73063 0.73088 0.50814
 C1175 C 0.74029 0.74054 0.51623
 C1176 C 0.74045 0.74067 0.53219
 C1177 C 0.75018 0.75041 0.53988
 C1178 C 0.75985 0.76013 0.53204
 H1179 H 0.77705 0.77745 0.48633
 H1180 H 0.77715 0.77750 0.51351
 H1181 H 0.72293 0.72318 0.48674
 H1182 H 0.72301 0.72324 0.51393
 H1183 H 0.74990 0.75020 0.44812
 H1184 H 0.75023 0.75043 0.55214
 C1185 C 0.96766 0.25971 0.24012
 C1186 C 0.95990 0.25001 0.24987
 C1187 C 0.96768 0.24038 0.25967
 C1188 C 0.98366 0.24032 0.25982
 C1189 C 0.99166 0.25012 0.24997
 C1190 C 0.98364 0.25987 0.24007
 C1191 C 0.99180 0.26951 0.23042
 C1192 C 1.00755 0.26955 0.23046
 C1193 C 1.01572 0.25996 0.24016
 C1194 C 1.00771 0.25016 0.25001
 C1195 C 0.99183 0.23074 0.26953
 C1196 C 1.00758 0.23078 0.26957
 C1197 C 1.01574 0.24040 0.25991
 C1198 C 1.03172 0.24055 0.25984
 C1199 C 1.03947 0.25023 0.25008
 C1200 C 1.03169 0.25987 0.24028
 H1201 H 0.98606 0.27711 0.22273
 H1202 H 1.01328 0.27720 0.22281
 H1203 H 0.98610 0.22312 0.27720
 H1204 H 1.01332 0.22318 0.27726
 H1205 H 0.94762 0.24996 0.24984
 H1206 H 1.05175 0.25026 0.25010
 C1207 C 0.53209 0.24016 0.75978
 C1208 C 0.53984 0.24989 0.75005
 C1209 C 0.53205 0.25959 0.74034
 C1210 C 0.51607 0.25969 0.74024
 C1211 C 0.50808 0.24984 0.75005
 C1212 C 0.51611 0.24002 0.75987
 C1213 C 0.50797 0.23035 0.76951
 C1214 C 0.49222 0.23032 0.76950
 C1215 C 0.48403 0.23996 0.75986
 C1216 C 0.49203 0.24981 0.75004
 C1217 C 0.50789 0.26934 0.73061
 C1218 C 0.49214 0.26930 0.73059
 C1219 C 0.48399 0.25962 0.74021
 C1220 C 0.46801 0.25946 0.74029
 C1221 C 0.46027 0.24973 0.75001
 C1222 C 0.46806 0.24004 0.75975
 H1223 H 0.51372 0.22271 0.77714
 H1224 H 0.48650 0.22266 0.77713
 H1225 H 0.51362 0.27702 0.72299
 H1226 H 0.48640 0.27695 0.72295
 H1227 H 0.55212 0.24990 0.75005
 H1228 H 0.44799 0.24970 0.74999
 C1229 C -0.03203 0.24050 0.74024
 C1230 C -0.03979 0.25024 0.74996
 C1231 C -0.03202 0.25992 0.75967
 C1232 C -0.01604 0.25997 0.75976
 C1233 C -0.00803 0.25011 0.74995
 C1234 C -0.01605 0.24031 0.74014
 C1235 C -0.00790 0.23061 0.73052
 C1236 C 0.00785 0.23053 0.73053
 C1237 C 0.01602 0.24016 0.74015
 C1238 C 0.00802 0.25003 0.74996
 C1239 C -0.00787 0.26961 0.76936
 C1240 C 0.00789 0.26953 0.76937
 C1241 C 0.01604 0.25981 0.75977
 C1242 C 0.03201 0.25960 0.75970
 C1243 C 0.03977 0.24987 0.74998
 C1244 C 0.03200 0.24021 0.74025
 H1245 H -0.01364 0.22298 0.72290
 H1246 H 0.01358 0.22284 0.72293
 H1247 H -0.01359 0.27730 0.77697
 H1248 H 0.01363 0.27718 0.77697
 H1249 H -0.05207 0.25028 0.74997
 H1250 H 0.05206 0.24981 0.74999
 C1251 C 0.53245 0.26000 0.25921
 C1252 C 0.54018 0.25025 0.24948
 C1253 C 0.53238 0.24043 0.23992
 C1254 C 0.51641 0.24028 0.23996
 C1255 C 0.50842 0.25010 0.24982
 C1256 C 0.51646 0.26001 0.25951
 C1257 C 0.50831 0.26962 0.26921
 C1258 C 0.49255 0.26952 0.26940
 C1259 C 0.48437 0.25982 0.25986
 C1260 C 0.49236 0.25003 0.24997
 C1261 C 0.50822 0.23058 0.23042
 C1262 C 0.49247 0.23054 0.23054
 C1263 C 0.48432 0.24017 0.24023
 C1264 C 0.46834 0.24024 0.24044
 C1265 C 0.46060 0.24991 0.25025
 C1266 C 0.46839 0.25963 0.25992
 H1267 H 0.51406 0.27731 0.27677
 H1268 H 0.48683 0.27714 0.27709
 H1269 H 0.51394 0.22293 0.22275
 H1270 H 0.48672 0.22286 0.22297
 H1271 H 0.55246 0.25030 0.24934
 H1272 H 0.44832 0.24988 0.25035
 C1273 C 0.96774 0.75964 0.73998
 C1274 C 0.95998 0.74996 0.74973
 C1275 C 0.96775 0.74030 0.75951
 C1276 C 0.98372 0.74022 0.75965
 C1277 C 0.99173 0.75002 0.74979
 C1278 C 0.98372 0.75978 0.73990
 C1279 C 0.99188 0.76939 0.73023
 C1280 C 1.00763 0.76942 0.73026
 C1281 C 1.01579 0.75984 0.73997
 C1282 C 1.00778 0.75006 0.74983
 C1283 C 0.99189 0.73064 0.76936
 C1284 C 1.00764 0.73069 0.76941
 C1285 C 1.01580 0.74030 0.75973
 C1286 C 1.03178 0.74045 0.75967
 C1287 C 1.03954 0.75014 0.74992
 C1288 C 1.03177 0.75977 0.74012
 H1289 H 0.98614 0.77699 0.72253
 H1290 H 1.01336 0.77704 0.72258
 H1291 H 0.98616 0.72302 0.77702
 H1292 H 1.01338 0.72310 0.77711
 H1293 H 0.94770 0.74994 0.74971
 H1294 H 1.05182 0.75017 0.74995
 C1295 C 0.53209 0.74043 0.26001
 C1296 C 0.53987 0.75010 0.25026
 C1297 C 0.53213 0.75972 0.24042
 C1298 C 0.51615 0.75979 0.24024
 C1299 C 0.50812 0.75001 0.25009
 C1300 C 0.51611 0.74028 0.26003
 C1301 C 0.50793 0.73066 0.26969
 C1302 C 0.49218 0.73061 0.26960
 C1303 C 0.48404 0.74017 0.25985
 C1304 C 0.49207 0.74996 0.25001
 C1305 C 0.50801 0.76935 0.23049
 C1306 C 0.49226 0.76932 0.23042
 C1307 C 0.48407 0.75971 0.24009
 C1308 C 0.46810 0.75955 0.24011
 C1309 C 0.46031 0.74987 0.24985
 C1310 C 0.46806 0.74024 0.25967
 H1311 H 0.51365 0.72308 0.27741
 H1312 H 0.48643 0.72298 0.27725
 H1313 H 0.51376 0.77696 0.22283
 H1314 H 0.48653 0.77691 0.22271
 H1315 H 0.55215 0.75012 0.25031
 H1316 H 0.44803 0.74984 0.24979
 C1317 C 0.03206 0.74044 0.24023
 C1318 C 0.03979 0.75006 0.25003
 C1319 C 0.03198 0.75970 0.25981
 C1320 C 0.01601 0.75982 0.25989
 C1321 C 0.00803 0.75007 0.25000
 C1322 C 0.01608 0.74032 0.24012
 C1323 C 0.00796 0.73075 0.23041
 C1324 C -0.00779 0.73075 0.23040
 C1325 C -0.01599 0.74032 0.24011
 C1326 C -0.00802 0.75007 0.25000
 C1327 C 0.00781 0.76940 0.26959
 C1328 C -0.00794 0.76939 0.26959
 C1329 C -0.01607 0.75982 0.25989
 C1330 C -0.03205 0.75972 0.25977
 C1331 C -0.03978 0.75006 0.25000
 C1332 C -0.03197 0.74041 0.24022
 H1333 H 0.01373 0.72316 0.22272
 H1334 H -0.01350 0.72317 0.22269
 H1335 H 0.01352 0.77700 0.27727
 H1336 H -0.01370 0.77698 0.27729
 H1337 H 0.05207 0.75006 0.25004
 H1338 H -0.05206 0.75006 0.25000
 C1339 C 0.46781 0.74045 0.74042
 C1340 C 0.46000 0.75020 0.75009
 C1341 C 0.46772 0.75990 0.75982
 C1342 C 0.48371 0.75998 0.75996
 C1343 C 0.49177 0.75010 0.75020
 C1344 C 0.48379 0.74027 0.74040
 C1345 C 0.49199 0.73054 0.73085
 C1346 C 0.50775 0.73049 0.73090
 C1347 C 0.51588 0.74017 0.74050
 C1348 C 0.50782 0.75006 0.75025
 C1349 C 0.49183 0.76964 0.76958
 C1350 C 0.50759 0.76962 0.76961
 C1351 C 0.51580 0.75992 0.76004
 C1352 C 0.53179 0.75979 0.75997
 C1353 C 0.53959 0.75001 0.75031
 C1354 C 0.53186 0.74024 0.74064
 H1355 H 0.48629 0.72286 0.72325
 H1356 H 0.51351 0.72279 0.72333
 H1357 H 0.48606 0.77733 0.77717
 H1358 H 0.51330 0.77729 0.77723
 H1359 H 0.44772 0.75024 0.75003
 H1360 H 0.55187 0.74998 0.75034
 C1361 C 0.42348 0.30268 0.30328
 C1362 C 0.42339 0.30692 0.28647
 C1363 C 0.43294 0.29839 0.27791
 C1364 C 0.44166 0.28643 0.28698
 C1365 C 0.42944 0.27719 0.29512
 C1366 C 0.41989 0.28572 0.30368
 C1367 C 0.44012 0.30385 0.30811
 C1368 C 0.44969 0.29529 0.29953
 C1369 C 0.41299 0.31177 0.31238
 C1370 C 0.40399 0.31901 0.31963
 C1371 C 0.45170 0.27713 0.27762
 C1372 C 0.45952 0.26927 0.26968
 H1373 H 0.41646 0.31588 0.28171
 H1374 H 0.43421 0.30004 0.26582
 H1375 H 0.42843 0.26499 0.29430
 H1376 H 0.41070 0.28083 0.31018
 H1377 H 0.44402 0.31076 0.31745
 H1378 H 0.46180 0.29488 0.30151
 C1379 C 0.42283 0.80332 0.80291
 C1380 C 0.42263 0.80741 0.78607
 C1381 C 0.43213 0.79879 0.77751
 C1382 C 0.44089 0.78691 0.78664
 C1383 C 0.42872 0.77775 0.79493
 C1384 C 0.41923 0.78636 0.80348
 C1385 C 0.43949 0.80451 0.80763
 C1386 C 0.44900 0.79587 0.79906
 C1387 C 0.41244 0.81250 0.81205
 C1388 C 0.40360 0.81982 0.81942
 C1389 C 0.45093 0.77753 0.77732
 C1390 C 0.45878 0.76962 0.76946
 H1391 H 0.41565 0.81631 0.78127
 H1392 H 0.43329 0.80032 0.76540
 H1393 H 0.42768 0.76554 0.79420
 H1394 H 0.41004 0.78154 0.81004
 H1395 H 0.44346 0.81150 0.81688
 H1396 H 0.46112 0.79546 0.80098
 C1397 C -0.07668 0.30329 0.80299
 C1398 C -0.07694 0.30736 0.78614
 C1399 C -0.06746 0.29876 0.77757
 C1400 C -0.05865 0.28690 0.78667
 C1401 C -0.07078 0.27772 0.79502
 C1402 C -0.08025 0.28633 0.80359
 C1403 C -0.06000 0.30451 0.80765
 C1404 C -0.05050 0.29588 0.79905
 C1405 C -0.08711 0.31247 0.81208
 C1406 C -0.09606 0.31979 0.81932
 C1407 C -0.04868 0.27752 0.77730
 C1408 C -0.04089 0.26961 0.76938
 H1409 H -0.08390 0.31629 0.78137
 H1410 H -0.06630 0.30032 0.76546
 H1411 H -0.07178 0.26551 0.79432
 H1412 H -0.08935 0.28148 0.81026
 H1413 H -0.05601 0.31150 0.81689
 H1414 H -0.03837 0.29550 0.80090
 C1415 C -0.07668 0.80302 0.30322
 C1416 C -0.07691 0.80719 0.28639
 C1417 C -0.06746 0.79859 0.27778
 C1418 C -0.05870 0.78665 0.28683
 C1419 C -0.07086 0.77748 0.29513
 C1420 C -0.08031 0.78608 0.30374
 C1421 C -0.06000 0.80417 0.30790
 C1422 C -0.05053 0.79554 0.29927
 C1423 C -0.08709 0.81218 0.31235
 C1424 C -0.09604 0.81946 0.31962
 C1425 C -0.04874 0.77727 0.27743
 C1426 C -0.04096 0.76937 0.26950
 H1427 H -0.08381 0.81618 0.28167
 H1428 H -0.06628 0.80021 0.26568
 H1429 H -0.07191 0.76527 0.29438
 H1430 H -0.08943 0.78124 0.31038
 H1431 H -0.05599 0.81111 0.31717
 H1432 H -0.03840 0.79511 0.30113
 C1433 C 0.57693 0.69744 0.30341
 C1434 C 0.56233 0.68918 0.29898
 C1435 C 0.55277 0.69773 0.29040
 C1436 C 0.55877 0.71368 0.28713
 C1437 C 0.57435 0.71123 0.27987
 C1438 C 0.58388 0.70270 0.28842
 C1439 C 0.57161 0.71198 0.31127
 C1440 C 0.56206 0.72052 0.30271
 C1441 C 0.58745 0.68838 0.31248
 C1442 C 0.59651 0.68117 0.31967
 C1443 C 0.54874 0.72298 0.27776
 C1444 C 0.54095 0.73083 0.26980
 H1445 H 0.55970 0.67768 0.30234
 H1446 H 0.54195 0.69356 0.28641
 H1447 H 0.57761 0.71577 0.26895
 H1448 H 0.59531 0.69995 0.28483
 H1449 H 0.57497 0.71522 0.32261
 H1450 H 0.55724 0.73108 0.30670
 C1451 C 0.57681 0.19700 0.80315
 C1452 C 0.57519 0.19129 0.78687
 C1453 C 0.56571 0.19985 0.77827
 C1454 C 0.55878 0.21330 0.78678
 C1455 C 0.57233 0.22209 0.79304
 C1456 C 0.58180 0.21353 0.80164
 C1457 C 0.56058 0.19776 0.80933
 C1458 C 0.55108 0.20634 0.80070
 C1459 C 0.58723 0.18789 0.81228
 C1460 C 0.59620 0.18063 0.81953
 C1461 C 0.54879 0.22263 0.77740
 C1462 C 0.54099 0.23050 0.76948
 H1463 H 0.58093 0.18135 0.78250
 H1464 H 0.56333 0.19725 0.76653
 H1465 H 0.57430 0.23402 0.79094
 H1466 H 0.59187 0.21813 0.80691
 H1467 H 0.55687 0.19206 0.81954
 H1468 H 0.53924 0.20799 0.80352
 C1469 C 1.07659 0.69750 0.80314
 C1470 C 1.07494 0.69173 0.78688
 C1471 C 1.06541 0.70024 0.77828
 C1472 C 1.05847 0.71369 0.78677
 C1473 C 1.07202 0.72254 0.79296
 C1474 C 1.08153 0.71403 0.80156
 C1475 C 1.06038 0.69823 0.80936
 C1476 C 1.05083 0.70676 0.80074
 C1477 C 1.08708 0.68847 0.81226
 C1478 C 1.09614 0.68129 0.81946
 C1479 C 1.04846 0.72298 0.77738
 C1480 C 1.04066 0.73083 0.76943
 H1481 H 1.08066 0.68177 0.78254
 H1482 H 1.06298 0.69757 0.76656
 H1483 H 1.07392 0.73448 0.79085
 H1484 H 1.09159 0.71868 0.80681
 H1485 H 1.05672 0.69254 0.81960
 H1486 H 1.03899 0.70839 0.80359
 C1487 C 1.07660 0.19756 0.30328
 C1488 C 1.07493 0.19182 0.28702
 C1489 C 1.06541 0.20035 0.27842
 C1490 C 1.05849 0.21381 0.28692
 C1491 C 1.07206 0.22263 0.29312
 C1492 C 1.08157 0.21410 0.30171
 C1493 C 1.06039 0.19832 0.30950
 C1494 C 1.05085 0.20687 0.30089
 C1495 C 1.08705 0.18846 0.31240
 C1496 C 1.09602 0.18120 0.31966
 C1497 C 1.04846 0.22310 0.27754
 C1498 C 1.04062 0.23094 0.26960
 H1499 H 1.08066 0.18187 0.28266
 H1500 H 1.06299 0.19770 0.26670
 H1501 H 1.07399 0.23456 0.29100
 H1502 H 1.09164 0.21873 0.30695
 H1503 H 1.05673 0.19265 0.31975
 H1504 H 1.03901 0.20850 0.30374
 C1505 C 0.57666 0.30288 0.69704
 C1506 C 0.56823 0.31188 0.70926
 C1507 C 0.55874 0.30327 0.71783
 C1508 C 0.55864 0.28652 0.71334
 C1509 C 0.57524 0.28150 0.71413
 C1510 C 0.58470 0.29008 0.70557
 C1511 C 0.56421 0.29504 0.68787
 C1512 C 0.55472 0.28643 0.69645
 C1513 C 0.58709 0.31202 0.68796
 C1514 C 0.59608 0.31928 0.68075
 C1515 C 0.54868 0.27716 0.72270
 C1516 C 0.54090 0.26927 0.73062
 H1517 H 0.56953 0.32395 0.71097
 H1518 H 0.55192 0.30798 0.72689
 H1519 H 0.57921 0.27199 0.72081
 H1520 H 0.59678 0.28793 0.70491
 H1521 H 0.56294 0.29618 0.67572
 H1522 H 0.54531 0.28020 0.69166
 C1523 C 0.57682 0.80276 0.19692
 C1524 C 0.58075 0.80288 0.21380
 C1525 C 0.57129 0.79434 0.22242
 C1526 C 0.55879 0.78650 0.21333
 C1527 C 0.56716 0.77745 0.20110
 C1528 C 0.57663 0.78600 0.19248
 C1529 C 0.56021 0.80786 0.19615
 C1530 C 0.55072 0.79929 0.20479
 C1531 C 0.58725 0.81186 0.18779
 C1532 C 0.59624 0.81910 0.18056
 C1533 C 0.54882 0.77719 0.22274
 C1534 C 0.54103 0.76934 0.23068
 H1535 H 0.59013 0.80916 0.21857
 H1536 H 0.57256 0.79331 0.23457
 H1537 H 0.56570 0.76540 0.19932
 H1538 H 0.58329 0.78127 0.18331
 H1539 H 0.55626 0.81731 0.18939
 H1540 H 0.53864 0.80141 0.20545
 C1541 C 1.07650 0.30286 0.19691
 C1542 C 1.07046 0.28885 0.18867
 C1543 C 1.06091 0.28031 0.19724
 C1544 C 1.05836 0.28661 0.21319
 C1545 C 1.05279 0.30289 0.21078
 C1546 C 1.06234 0.31144 0.20221
 C1547 C 1.08376 0.29673 0.21141
 C1548 C 1.07424 0.28821 0.21995
 C1549 C 1.08700 0.31193 0.18784
 C1550 C 1.09605 0.31915 0.18065
 C1551 C 1.04834 0.27732 0.22256
 C1552 C 1.04056 0.26948 0.23052
 H1553 H 1.07337 0.28593 0.17712
 H1554 H 1.05564 0.27007 0.19302
 H1555 H 1.04225 0.30728 0.21534
 H1556 H 1.05999 0.32316 0.19942
 H1557 H 1.09539 0.29890 0.21468
 H1558 H 1.07770 0.28308 0.23055
 C1559 C 1.07637 0.80290 0.69663
 C1560 C 1.06922 0.78967 0.68801
 C1561 C 1.05974 0.78110 0.69663
 C1562 C 1.05836 0.78661 0.71301
 C1563 C 1.05346 0.80323 0.71179
 C1564 C 1.06294 0.81180 0.70316
 C1565 C 1.08409 0.79565 0.71035
 C1566 C 1.07464 0.78710 0.71896
 C1567 C 1.08680 0.81200 0.68752
 C1568 C 1.09581 0.81926 0.68034
 C1569 C 1.04840 0.77728 0.72242
 C1570 C 1.04063 0.76941 0.73037
 H1571 H 1.07137 0.78728 0.67617
 H1572 H 1.05375 0.77138 0.69217
 H1573 H 1.04341 0.80784 0.71715
 H1574 H 1.06102 0.82375 0.70113
 H1575 H 1.09597 0.79710 0.71308
 H1576 H 1.07841 0.78125 0.72905
 C1577 C 0.42320 0.69741 0.69700
 C1578 C 0.41515 0.71010 0.70567
 C1579 C 0.42461 0.71864 0.71424
 C1580 C 0.44122 0.71368 0.71332
 C1581 C 0.44510 0.71393 0.69641
 C1582 C 0.43561 0.70537 0.68781
 C1583 C 0.43171 0.68833 0.70910
 C1584 C 0.44118 0.69689 0.71768
 C1585 C 0.41278 0.68828 0.68792
 C1586 C 0.40380 0.68101 0.68073
 C1587 C 0.45119 0.72299 0.72271
 C1588 C 0.45896 0.73083 0.73066
 H1589 H 0.40307 0.71225 0.70507
 H1590 H 0.42062 0.72808 0.72101
 H1591 H 0.45448 0.72023 0.69162
 H1592 H 0.43685 0.70435 0.67565
 H1593 H 0.43047 0.67623 0.71071
 H1594 H 0.44806 0.69212 0.72666
 C1595 C 0.42328 0.19748 0.19721
 C1596 C 0.41532 0.20629 0.20985
 C1597 C 0.42488 0.21475 0.21840
 C1598 C 0.44150 0.21358 0.21348
 C1599 C 0.44154 0.21792 0.19669
 C1600 C 0.43196 0.20945 0.18812
 C1601 C 0.43554 0.18813 0.20520
 C1602 C 0.44513 0.19661 0.21376
 C1603 C 0.41275 0.18847 0.18812
 C1604 C 0.40372 0.18129 0.18090
 C1605 C 0.45158 0.22281 0.22283
 C1606 C 0.45943 0.23063 0.23074
 H1607 H 0.40322 0.20594 0.21191
 H1608 H 0.42097 0.22163 0.22777
 H1609 H 0.44853 0.22681 0.19193
 H1610 H 0.43073 0.21109 0.17603
 H1611 H 0.43664 0.17595 0.20416
 H1612 H 0.45445 0.19169 0.22006
 C1613 C -0.07670 0.69737 0.19696
 C1614 C -0.06027 0.69724 0.19128
 C1615 C -0.05072 0.70578 0.19985
 C1616 C -0.05858 0.71359 0.21322
 C1617 C -0.06626 0.70079 0.22205
 C1618 C -0.07578 0.69227 0.21350
 C1619 C -0.08111 0.71414 0.19764
 C1620 C -0.07160 0.72266 0.20618
 C1621 C -0.08719 0.68831 0.18791
 C1622 C -0.09623 0.68109 0.18074
 C1623 C -0.04858 0.72290 0.22257
 C1624 C -0.04081 0.73077 0.23049
 H1625 H -0.05647 0.69100 0.18141
 H1626 H -0.03875 0.70686 0.19733
 H1627 H -0.06433 0.69856 0.23395
 H1628 H -0.08200 0.68274 0.21808
 H1629 H -0.09082 0.71892 0.19184
 H1630 H -0.07316 0.73474 0.20770
 C1631 C -0.07663 0.19744 0.69688
 C1632 C -0.06018 0.19736 0.69127
 C1633 C -0.05070 0.20592 0.69988
 C1634 C -0.05863 0.21371 0.71323
 C1635 C -0.06631 0.20088 0.72202
 C1636 C -0.07577 0.19233 0.71343
 C1637 C -0.08110 0.21419 0.69755
 C1638 C -0.07165 0.22274 0.70614
 C1639 C -0.08704 0.18834 0.68779
 C1640 C -0.09602 0.18109 0.68060
 C1641 C -0.04868 0.22302 0.72261
 C1642 C -0.04091 0.23088 0.73053
 H1643 H -0.05632 0.19114 0.68142
 H1644 H -0.03872 0.20705 0.69742
 H1645 H -0.06443 0.19866 0.73394
 H1646 H -0.08200 0.18280 0.71799
 H1647 H -0.09080 0.21895 0.69172
 H1648 H -0.07325 0.23481 0.70766
 C1649 C 0.30270 0.42333 0.30335
 C1650 C 0.28572 0.41984 0.30400
 C1651 C 0.27713 0.42930 0.29541
 C1652 C 0.28636 0.44134 0.28701
 C1653 C 0.29817 0.43245 0.27790
 C1654 C 0.30676 0.42298 0.28649
 C1655 C 0.30401 0.44001 0.30795
 C1656 C 0.29540 0.44950 0.29934
 C1657 C 0.31184 0.41292 0.31246
 C1658 C 0.31912 0.40397 0.31972
 C1659 C 0.27700 0.45130 0.27763
 C1660 C 0.26911 0.45907 0.26970
 H1661 H 0.28085 0.41077 0.31067
 H1662 H 0.26491 0.42834 0.29474
 H1663 H 0.29970 0.43354 0.26578
 H1664 H 0.31564 0.41596 0.28172
 H1665 H 0.31105 0.44401 0.31715
 H1666 H 0.29507 0.46163 0.30115
 C1667 C 0.30356 -0.07700 0.80336
 C1668 C 0.28812 -0.08367 0.79913
 C1669 C 0.27948 -0.07428 0.79054
 C1670 C 0.28708 -0.05912 0.78698
 C1671 C 0.30226 -0.06331 0.77963
 C1672 C 0.31092 -0.07271 0.78824
 C1673 C 0.29992 -0.06187 0.81106
 C1674 C 0.29124 -0.05246 0.80244
 C1675 C 0.31277 -0.08732 0.81253
 C1676 C 0.32012 -0.09615 0.81987
 C1677 C 0.27766 -0.04920 0.77761
 C1678 C 0.26972 -0.04143 0.76972
 H1679 H 0.28431 -0.09480 0.80261
 H1680 H 0.26826 -0.07737 0.78665
 H1681 H 0.30590 -0.05921 0.76865
 H1682 H 0.32198 -0.07668 0.78463
 H1683 H 0.30381 -0.05882 0.82227
 H1684 H 0.28772 -0.04134 0.80626
 C1685 C 0.80279 0.42315 0.80308
 C1686 C 0.78581 0.41958 0.80355
 C1687 C 0.77726 0.42907 0.79496
 C1688 C 0.78650 0.44122 0.78673
 C1689 C 0.79844 0.43246 0.77767
 C1690 C 0.80699 0.42296 0.78626
 C1691 C 0.80396 0.43981 0.80782
 C1692 C 0.79539 0.44932 0.79921
 C1693 C 0.81192 0.41273 0.81220
 C1694 C 0.81923 0.40381 0.81948
 C1695 C 0.77719 0.45123 0.77734
 C1696 C 0.76935 0.45906 0.76941
 H1697 H 0.78092 0.41044 0.81012
 H1698 H 0.76504 0.42806 0.79417
 H1699 H 0.80008 0.43365 0.76557
 H1700 H 0.81595 0.41601 0.78151
 H1701 H 0.81088 0.44376 0.81713
 H1702 H 0.79498 0.46143 0.80112
 C1703 C 0.80312 -0.07697 0.30363
 C1704 C 0.78759 -0.08349 0.29952
 C1705 C 0.77901 -0.07407 0.29091
 C1706 C 0.78675 -0.05900 0.28723
 C1707 C 0.80185 -0.06339 0.27984
 C1708 C 0.81045 -0.07283 0.28846
 C1709 C 0.79967 -0.06175 0.31127
 C1710 C 0.79106 -0.05230 0.30263
 C1711 C 0.81226 -0.08736 0.31278
 C1712 C 0.81954 -0.09628 0.32007
 C1713 C 0.77739 -0.04906 0.27782
 C1714 C 0.76950 -0.04128 0.26986
 H1715 H 0.78366 -0.09455 0.30312
 H1716 H 0.76773 -0.07705 0.28712
 H1717 H 0.80551 -0.05938 0.26883
 H1718 H 0.82147 -0.07690 0.28485
 H1719 H 0.80366 -0.05868 0.32244
 H1720 H 0.78767 -0.04112 0.30640
 C1721 C 0.30275 0.57642 0.69659
 C1722 C 0.28764 0.57220 0.68921
 C1723 C 0.27903 0.56270 0.69777
 C1724 C 0.28639 0.55837 0.71286
 C1725 C 0.28990 0.57345 0.72062
 C1726 C 0.29848 0.58293 0.71208
 C1727 C 0.31050 0.56125 0.70003
 C1728 C 0.30189 0.55175 0.70860
 C1729 C 0.31193 0.58686 0.68755
 C1730 C 0.31925 0.59585 0.68039
 C1731 C 0.27705 0.54838 0.72221
 C1732 C 0.26919 0.54059 0.73015
 H1733 H 0.28405 0.57623 0.67819
 H1734 H 0.26807 0.55861 0.69409
 H1735 H 0.28600 0.57642 0.73188
 H1736 H 0.30192 0.59402 0.71601
 H1737 H 0.32171 0.55821 0.69602
 H1738 H 0.30573 0.54058 0.71195
 C1739 C 0.30264 1.07692 0.19706
 C1740 C 0.29687 1.08404 0.21179
 C1741 C 0.28832 1.07452 0.22032
 C1742 C 0.28636 1.05879 0.21332
 C1743 C 0.30252 1.05301 0.21054
 C1744 C 0.31109 1.06255 0.20198
 C1745 C 0.28840 1.07124 0.18897
 C1746 C 0.27983 1.06171 0.19752
 C1747 C 0.31175 1.08740 0.18800
 C1748 C 0.31901 1.09641 0.18080
 C1749 C 0.27706 1.04876 0.22265
 C1750 C 0.26921 1.04093 0.23057
 H1751 H 0.29930 1.09556 0.21522
 H1752 H 0.28343 1.07789 0.23106
 H1753 H 0.30682 1.04235 0.21485
 H1754 H 0.32273 1.06007 0.19895
 H1755 H 0.28534 1.07437 0.17751
 H1756 H 0.26944 1.05667 0.19340
 C1757 C 0.80265 0.57674 0.19727
 C1758 C 0.80333 0.56024 0.19192
 C1759 C 0.79484 0.55064 0.20051
 C1760 C 0.78653 0.55850 0.21358
 C1761 C 0.77729 0.57115 0.20611
 C1762 C 0.78576 0.58073 0.19755
 C1763 C 0.80742 0.57624 0.21393
 C1764 C 0.79895 0.56666 0.22250
 C1765 C 0.81165 0.58728 0.18817
 C1766 C 0.81882 0.59634 0.18093
 C1767 C 0.77728 0.54840 0.22294
 C1768 C 0.76943 0.54053 0.23083
 H1769 H 0.80988 0.55645 0.18226
 H1770 H 0.79412 0.53861 0.19820
 H1771 H 0.76514 0.57243 0.20737
 H1772 H 0.78086 0.59021 0.19148
 H1773 H 0.81669 0.58279 0.21857
 H1774 H 0.80097 0.56500 0.23448
 C1775 C 0.80261 1.07691 0.69728
 C1776 C 0.81094 1.06239 0.70195
 C1777 C 0.80238 1.05291 0.71060
 C1778 C 0.78636 1.05889 0.71371
 C1779 C 0.77960 1.06200 0.69805
 C1780 C 0.78814 1.07148 0.68941
 C1781 C 0.79720 1.08400 0.71215
 C1782 C 0.78867 1.07454 0.72078
 C1783 C 0.81169 1.08733 0.68813
 C1784 C 0.81894 1.09631 0.68089
 C1785 C 0.77707 1.04891 0.72313
 C1786 C 0.76922 1.04111 0.73108
 H1787 H 0.82249 1.05977 0.69870
 H1788 H 0.80661 1.04216 0.71476
 H1789 H 0.76908 1.05713 0.69407
 H1790 H 0.78494 1.07472 0.67803
 H1791 H 0.79985 1.09546 0.71562
 H1792 H 0.78402 1.07790 0.73163
 C1793 C 0.69759 0.57657 0.30349
 C1794 C 0.70259 0.56225 0.31195
 C1795 C 0.71105 0.55263 0.30334
 C1796 C 0.71366 0.55829 0.28715
 C1797 C 0.72072 0.57402 0.28895
 C1798 C 0.71228 0.58362 0.29754
 C1799 C 0.68932 0.57082 0.28939
 C1800 C 0.69778 0.56121 0.28080
 C1801 C 0.68860 0.58714 0.31259
 C1802 C 0.68142 0.59622 0.31979
 C1803 C 0.72288 0.54819 0.27775
 C1804 C 0.73069 0.54035 0.26978
 H1805 H 0.69974 0.55989 0.32365
 H1806 H 0.71544 0.54201 0.30766
 H1807 H 0.73144 0.57732 0.28397
 H1808 H 0.71578 0.59513 0.29991
 H1809 H 0.67782 0.57398 0.28645
 H1810 H 0.69351 0.55613 0.27049
 C1811 C 0.69699 1.07672 0.80387
 C1812 C 0.70025 1.06145 0.81147
 C1813 C 0.70887 1.05197 0.80285
 C1814 C 0.71335 1.05872 0.78750
 C1815 C 0.72119 1.07370 0.79128
 C1816 C 0.71260 1.08316 0.79987
 C1817 C 0.68976 1.07272 0.78864
 C1818 C 0.69836 1.06326 0.78004
 C1819 C 0.68784 1.08713 0.81298
 C1820 C 0.68053 1.09609 0.82021
 C1821 C 0.72271 1.04877 0.77811
 C1822 C 0.73060 1.04101 0.77015
 H1823 H 0.69616 1.05836 0.82262
 H1824 H 0.71214 1.04075 0.80660
 H1825 H 0.73253 1.07662 0.78756
 H1826 H 0.71658 1.09416 0.80352
 H1827 H 0.67881 1.07691 0.78496
 H1828 H 0.69478 1.05932 0.76900
 C1829 C 0.19741 0.57677 0.80292
 C1830 C 0.20451 0.56373 0.81193
 C1831 C 0.21298 0.55414 0.80329
 C1832 C 0.21349 0.55855 0.78652
 C1833 C 0.21917 0.57492 0.78632
 C1834 C 0.21073 0.58448 0.79493
 C1835 C 0.18841 0.56910 0.79025
 C1836 C 0.19686 0.55951 0.78162
 C1837 C 0.18843 0.58731 0.81205
 C1838 C 0.18126 0.59640 0.81926
 C1839 C 0.22271 0.54848 0.77711
 C1840 C 0.23053 0.54064 0.76915
 H1841 H 0.20299 0.56214 0.82399
 H1842 H 0.21870 0.54433 0.80796
 H1843 H 0.22900 0.57867 0.77997
 H1844 H 0.21333 0.59643 0.79596
 H1845 H 0.17643 0.57097 0.78828
 H1846 H 0.19214 0.55317 0.77227
 C1847 C 0.19721 1.07674 0.30339
 C1848 C 0.20238 1.06247 0.31183
 C1849 C 0.21095 1.05295 0.30321
 C1850 C 0.21348 1.05866 0.28702
 C1851 C 0.22036 1.07446 0.28883
 C1852 C 0.21182 1.08396 0.29743
 C1853 C 0.18901 1.07090 0.28929
 C1854 C 0.19756 1.06140 0.28068
 C1855 C 0.18808 1.08718 0.31251
 C1856 C 0.18080 1.09615 0.31975
 C1857 C 0.22280 1.04866 0.27763
 C1858 C 0.23066 1.04086 0.26967
 H1859 H 0.19955 1.06004 0.32352
 H1860 H 0.21543 1.04235 0.30749
 H1861 H 0.23103 1.07789 0.28380
 H1862 H 0.21519 1.09551 0.29979
 H1863 H 0.17747 1.07391 0.28636
 H1864 H 0.19335 1.05626 0.27038
 C1865 C 0.69720 0.42360 0.69683
 C1866 C 0.70612 0.41547 0.70928
 C1867 C 0.71470 0.42490 0.71786
 C1868 C 0.71353 0.44155 0.71316
 C1869 C 0.69656 0.44523 0.71367
 C1870 C 0.68797 0.43579 0.70507
 C1871 C 0.70913 0.43234 0.68773
 C1872 C 0.71772 0.44178 0.69632
 C1873 C 0.68808 0.41321 0.68775
 C1874 C 0.68083 0.40422 0.68056
 C1875 C 0.72287 0.45148 0.72253
 C1876 C 0.73073 0.45923 0.73048
 H1877 H 0.70575 0.40336 0.71119
 H1878 H 0.72166 0.42085 0.72711
 H1879 H 0.69174 0.45448 0.72015
 H1880 H 0.67577 0.43694 0.70418
 H1881 H 0.71065 0.43124 0.67561
 H1882 H 0.72661 0.44878 0.69157
 C1883 C 0.69761 -0.07691 0.19702
 C1884 C 0.71439 -0.08133 0.19765
 C1885 C 0.72292 -0.07188 0.20625
 C1886 C 0.71385 -0.05892 0.21340
 C1887 C 0.70104 -0.06665 0.22219
 C1888 C 0.69251 -0.07611 0.21358
 C1889 C 0.69747 -0.06047 0.19146
 C1890 C 0.70602 -0.05099 0.20009
 C1891 C 0.68854 -0.08732 0.18791
 C1892 C 0.68130 -0.09628 0.18068
 C1893 C 0.72315 -0.04897 0.22280
 C1894 C 0.73100 -0.04122 0.23075
 H1895 H 0.71918 -0.09098 0.19176
 H1896 H 0.73501 -0.07343 0.20772
 H1897 H 0.69880 -0.06479 0.23410
 H1898 H 0.68297 -0.08236 0.21813
 H1899 H 0.69123 -0.05662 0.18163
 H1900 H 0.70710 -0.03901 0.19765
 C1901 C 0.19726 0.42330 0.19690
 C1902 C 0.21404 0.41888 0.19751
 C1903 C 0.22258 0.42833 0.20611
 C1904 C 0.21351 0.44129 0.21327
 C1905 C 0.20071 0.43356 0.22206
 C1906 C 0.19217 0.42410 0.21346
 C1907 C 0.19712 0.43975 0.19134
 C1908 C 0.20568 0.44922 0.19996
 C1909 C 0.18819 0.41288 0.18778
 C1910 C 0.18097 0.40389 0.18056
 C1911 C 0.22281 0.45125 0.22266
 C1912 C 0.23064 0.45904 0.23061
 H1913 H 0.21883 0.40923 0.19162
 H1914 H 0.23467 0.42676 0.20759
 H1915 H 0.19850 0.43540 0.23399
 H1916 H 0.18264 0.41785 0.21801
 H1917 H 0.19088 0.44360 0.18151
 H1918 H 0.20677 0.46120 0.19752
 C1919 C 0.19757 -0.07697 0.69709
 C1920 C 0.18834 -0.06469 0.70520
 C1921 C 0.19692 -0.05526 0.71382
 C1922 C 0.21387 -0.05905 0.71347
 C1923 C 0.21819 -0.05891 0.69666
 C1924 C 0.20961 -0.06835 0.68804
 C1925 C 0.20634 -0.08509 0.70966
 C1926 C 0.21490 -0.07568 0.71825
 C1927 C 0.18845 -0.08735 0.68799
 C1928 C 0.18118 -0.09631 0.68078
 C1929 C 0.22320 -0.04914 0.72286
 C1930 C 0.23106 -0.04139 0.73080
 H1931 H 0.17616 -0.06345 0.70417
 H1932 H 0.19210 -0.04593 0.72019
 H1933 H 0.22711 -0.05194 0.69193
 H1934 H 0.21118 -0.06946 0.67593
 H1935 H 0.20587 -0.09720 0.71163
 H1936 H 0.22175 -0.07972 0.72760
 C1937 C 0.30361 0.30378 0.42490
 C1938 C 0.30583 0.28677 0.42232
 C1939 C 0.29702 0.27797 0.43138
 C1940 C 0.28686 0.28704 0.44214
 C1941 C 0.27778 0.29770 0.43190
 C1942 C 0.28659 0.30650 0.42283
 C1943 C 0.30651 0.30617 0.44183
 C1944 C 0.29769 0.29736 0.45090
 C1945 C 0.31300 0.31315 0.41494
 C1946 C 0.32047 0.32059 0.40632
 C1947 C 0.27730 0.27748 0.45175
 C1948 C 0.26932 0.26949 0.45937
 H1949 H 0.31364 0.28204 0.41410
 H1950 H 0.29730 0.26571 0.43092
 H1951 H 0.26552 0.29830 0.43177
 H1952 H 0.28186 0.31464 0.41495
 H1953 H 0.31475 0.31407 0.44628
 H1954 H 0.29838 0.29770 0.46314
 C1955 C 0.30384 0.80396 -0.07574
 C1956 C 0.29376 0.81307 -0.06491
 C1957 C 0.28491 0.80428 -0.05585
 C1958 C 0.28701 0.78726 -0.05852
 C1959 C 0.30402 0.78441 -0.05649
 C1960 C 0.31287 0.79319 -0.06555
 C1961 C 0.29291 0.79374 -0.08448
 C1962 C 0.28407 0.78497 -0.07544
 C1963 C 0.31326 0.81329 -0.08569
 C1964 C 0.32075 0.82072 -0.09431
 C1965 C 0.27742 0.77773 -0.04892
 C1966 C 0.26943 0.76975 -0.04129
 H1967 H 0.29363 0.82533 -0.06437
 H1968 H 0.27719 0.80901 -0.04755
 H1969 H 0.30870 0.77624 -0.04862
 H1970 H 0.32514 0.79255 -0.06544
 H1971 H 0.29219 0.79341 -0.09672
 H1972 H 0.27579 0.77714 -0.07993
 C1973 C 0.80328 0.30387 -0.07586
 C1974 C 0.79320 0.31287 -0.06495
 C1975 C 0.78448 0.30399 -0.05586
 C1976 C 0.78670 0.28699 -0.05857
 C1977 C 0.80375 0.28428 -0.05666
 C1978 C 0.81247 0.29316 -0.06576
 C1979 C 0.79239 0.29359 -0.08456
 C1980 C 0.78368 0.28473 -0.07548
 C1981 C 0.81257 0.31331 -0.08585
 C1982 C 0.81996 0.32080 -0.09450
 C1983 C 0.77722 0.27737 -0.04896
 C1984 C 0.76928 0.26933 -0.04133
 H1985 H 0.79297 0.32513 -0.06439
 H1986 H 0.77678 0.30865 -0.04749
 H1987 H 0.80855 0.27614 -0.04882
 H1988 H 0.82474 0.29262 -0.06571
 H1989 H 0.79158 0.29329 -0.09679
 H1990 H 0.77542 0.27684 -0.07994
 C1991 C 0.80366 0.80406 0.42481
 C1992 C 0.80590 0.78705 0.42220
 C1993 C 0.79708 0.77822 0.43121
 C1994 C 0.78686 0.78725 0.44196
 C1995 C 0.77781 0.79793 0.43170
 C1996 C 0.78664 0.80676 0.42269
 C1997 C 0.80649 0.80641 0.44176
 C1998 C 0.79764 0.79757 0.45078
 C1999 C 0.81304 0.81346 0.41490
 C2000 C 0.82050 0.82093 0.40629
 C2001 C 0.77729 0.77768 0.45153
 C2002 C 0.76931 0.76969 0.45917
 H2003 H 0.81377 0.78235 0.41402
 H2004 H 0.79737 0.76596 0.43073
 H2005 H 0.76554 0.79852 0.43153
 H2006 H 0.78193 0.81492 0.41482
 H2007 H 0.81470 0.81431 0.44626
 H2008 H 0.79827 0.79789 0.46302
 C2009 C 0.69642 0.30405 0.57551
 C2010 C 0.69146 0.30406 0.55890
 C2011 C 0.70030 0.29523 0.54983
 C2012 C 0.71322 0.28727 0.55829
 C2013 C 0.70547 0.27852 0.57111
 C2014 C 0.69664 0.28733 0.58015
 C2015 C 0.71310 0.30883 0.57522
 C2016 C 0.72193 0.30001 0.56617
 C2017 C 0.68701 0.31343 0.58546
 C2018 C 0.67952 0.32089 0.59408
 C2019 C 0.72279 0.27770 0.54868
 C2020 C 0.73076 0.26968 0.54105
 H2021 H 0.68187 0.31044 0.55463
 H2022 H 0.69829 0.29405 0.53780
 H2023 H 0.70681 0.26646 0.57293
 H2024 H 0.69042 0.28281 0.58972
 H2025 H 0.71759 0.31831 0.58157
 H2026 H 0.73398 0.30193 0.56478
 C2027 C 0.69646 0.80391 1.07526
 C2028 C 0.69487 0.78693 1.07843
 C2029 C 0.70367 0.77811 1.06937
 C2030 C 0.71321 0.78712 1.05803
 C2031 C 0.72225 0.79833 1.06765
 C2032 C 0.71345 0.80715 1.07671
 C2033 C 0.69298 0.80571 1.05837
 C2034 C 0.70179 0.79687 1.04930
 C2035 C 0.68710 0.81331 1.08523
 C2036 C 0.67965 0.82077 1.09386
 C2037 C 0.72276 0.77754 1.04843
 C2038 C 0.73074 0.76953 1.04081
 H2039 H 0.68746 0.78225 1.08702
 H2040 H 0.70380 0.76586 1.07021
 H2041 H 0.73449 0.79927 1.06736
 H2042 H 0.71815 0.81566 1.08418
 H2043 H 0.68436 0.81326 1.05393
 H2044 H 0.70074 0.79684 1.03708
 C2045 C 0.19635 0.30377 1.07532
 C2046 C 0.20009 0.28824 1.08212
 C2047 C 0.20889 0.27946 1.07303
 C2048 C 0.21311 0.28705 1.05801
 C2049 C 0.22056 0.30205 1.06248
 C2050 C 0.21175 0.31084 1.07158
 C2051 C 0.18912 0.30034 1.05995
 C2052 C 0.19795 0.29154 1.05084
 C2053 C 0.18698 0.31312 1.08532
 C2054 C 0.17953 0.32057 1.09398
 C2055 C 0.22266 0.27750 1.04836
 C2056 C 0.23064 0.26950 1.04070
 H2057 H 0.19616 0.28448 1.09312
 H2058 H 0.21252 0.26818 1.07625
 H2059 H 0.23177 0.30547 1.05882
 H2060 H 0.21540 0.32179 1.07571
 H2061 H 0.17808 0.30446 1.05652
 H2062 H 0.19446 0.28813 1.03959
 C2063 C 0.19610 0.80397 0.57524
 C2064 C 0.19215 0.80517 0.55840
 C2065 C 0.20097 0.79630 0.54936
 C2066 C 0.21286 0.78711 0.55806
 C2067 C 0.20386 0.77819 0.56990
 C2068 C 0.19505 0.78704 0.57893
 C2069 C 0.21303 0.80769 0.57615
 C2070 C 0.22184 0.79883 0.56712
 C2071 C 0.18672 0.81340 0.58518
 C2072 C 0.17926 0.82090 0.59379
 C2073 C 0.22243 0.77750 0.54849
 C2074 C 0.23042 0.76948 0.54089
 H2075 H 0.18323 0.81235 0.55397
 H2076 H 0.19961 0.79588 0.53718
 H2077 H 0.20433 0.76598 0.57108
 H2078 H 0.18798 0.78241 0.58783
 H2079 H 0.21769 0.81653 0.58324
 H2080 H 0.23403 0.80008 0.56649
 C2081 C 0.30366 0.69632 0.57546
 C2082 C 0.29153 0.68741 0.56687
 C2083 C 0.28270 0.69621 0.55779
 C2084 C 0.28687 0.71304 0.55820
 C2085 C 0.30375 0.71357 0.55413
 C2086 C 0.31259 0.70478 0.56321
 C2087 C 0.29494 0.70866 0.58401
 C2088 C 0.28612 0.71743 0.57495
 C2089 C 0.31306 0.68696 0.58543
 C2090 C 0.32054 0.67952 0.59405
 C2091 C 0.27730 0.72257 0.54859
 C2092 C 0.26931 0.73055 0.54095
 H2093 H 0.29002 0.67528 0.56781
 H2094 H 0.27362 0.69160 0.55096
 H2095 H 0.30835 0.72024 0.54492
 H2096 H 0.32475 0.70391 0.56177
 H2097 H 0.29562 0.71036 0.59614
 H2098 H 0.27926 0.72665 0.57931
 C2099 C 0.30379 0.19639 1.07535
 C2100 C 0.31235 0.20963 1.06810
 C2101 C 0.30356 0.21840 1.05898
 C2102 C 0.28707 0.21308 1.05800
 C2103 C 0.28153 0.21245 1.07442
 C2104 C 0.29031 0.20369 1.08353
 C2105 C 0.29682 0.18773 1.06206
 C2106 C 0.28802 0.19651 1.05293
 C2107 C 0.31314 0.18707 1.08538
 C2108 C 0.32058 0.17967 1.09407
 C2109 C 0.27752 0.22260 1.04834
 C2110 C 0.26952 0.23056 1.04069
 H2111 H 0.32427 0.21189 1.06996
 H2112 H 0.30794 0.22820 1.05303
 H2113 H 0.27159 0.21838 1.07854
 H2114 H 0.28788 0.20210 1.09545
 H2115 H 0.29865 0.17577 1.05999
 H2116 H 0.28232 0.19208 1.04303
 C2117 C 0.80389 0.69645 1.07549
 C2118 C 0.78792 0.69012 1.07307
 C2119 C 0.77912 0.69890 1.06398
 C2120 C 0.78714 0.71315 1.05819
 C2121 C 0.80158 0.70736 1.05043
 C2122 C 0.81040 0.69857 1.05954
 C2123 C 0.80144 0.71253 1.08154
 C2124 C 0.79264 0.72130 1.07245
 C2125 C 0.81323 0.68709 1.08547
 C2126 C 0.82064 0.67962 1.09412
 C2127 C 0.77759 0.72266 1.04854
 C2128 C 0.76961 0.73062 1.04088
 H2129 H 0.78389 0.67966 1.07805
 H2130 H 0.76754 0.69596 1.06117
 H2131 H 0.80460 0.70992 1.03882
 H2132 H 0.82098 0.69361 1.05574
 H2133 H 0.80621 0.71666 1.09204
 H2134 H 0.78985 0.73294 1.07518
 C2135 C 0.80394 0.19642 0.57557
 C2136 C 0.78715 0.19203 0.57578
 C2137 C 0.77834 0.20084 0.56672
 C2138 C 0.78718 0.21318 0.55833
 C2139 C 0.79974 0.20474 0.54978
 C2140 C 0.80856 0.19592 0.55885
 C2141 C 0.80419 0.21324 0.57980
 C2142 C 0.79539 0.22205 0.57074
 C2143 C 0.81330 0.18703 0.58553
 C2144 C 0.82074 0.17955 0.59416
 C2145 C 0.77762 0.22274 0.54873
 C2146 C 0.76962 0.23072 0.54110
 H2147 H 0.78258 0.18279 0.58244
 H2148 H 0.76623 0.19915 0.56562
 H2149 H 0.80153 0.20561 0.53767
 H2150 H 0.81792 0.18923 0.55453
 H2151 H 0.81074 0.21784 0.58909
 H2152 H 0.79439 0.23418 0.57227
 C2153 C 0.69656 0.69649 0.42483
 C2154 C 0.68768 0.70899 0.43297
 C2155 C 0.69642 0.71778 0.44209
 C2156 C 0.71318 0.71320 0.44216
 C2157 C 0.71802 0.71351 0.42551
 C2158 C 0.70930 0.70473 0.41641
 C2159 C 0.70453 0.68762 0.43744
 C2160 C 0.71327 0.69641 0.44657
 C2161 C 0.68726 0.68713 0.41484
 C2162 C 0.67983 0.67968 0.40622
 C2163 C 0.72265 0.72275 0.45181
 C2164 C 0.73058 0.73076 0.45943
 H2165 H 0.67560 0.71078 0.43169
 H2166 H 0.69182 0.72711 0.44862
 H2167 H 0.72750 0.72005 0.42125
 H2168 H 0.71130 0.70375 0.40435
 H2169 H 0.70340 0.67551 0.43906
 H2170 H 0.71964 0.69184 0.45600
 C2171 C 0.69635 0.19577 -0.07545
 C2172 C 0.70379 0.20899 -0.08387
 C2173 C 0.71259 0.21784 -0.07491
 C2174 C 0.71311 0.21263 -0.05839
 C2175 C 0.71831 0.19608 -0.05903
 C2176 C 0.70950 0.18721 -0.06801
 C2177 C 0.68768 0.20310 -0.06231
 C2178 C 0.69650 0.21198 -0.05334
 C2179 C 0.68697 0.18636 -0.08532
 C2180 C 0.67949 0.17889 -0.09389
 C2181 C 0.72266 0.22225 -0.04887
 C2182 C 0.73062 0.23029 -0.04129
 H2183 H 0.70228 0.21119 -0.09584
 H2184 H 0.71862 0.22762 -0.07921
 H2185 H 0.72805 0.19171 -0.05297
 H2186 H 0.71167 0.17524 -0.06962
 H2187 H 0.67569 0.20145 -0.06023
 H2188 H 0.69206 0.21793 -0.04357
 C2189 C 0.19646 0.69664 -0.07567
 C2190 C 0.20951 0.68800 -0.06814
 C2191 C 0.21828 0.69679 -0.05906
 C2192 C 0.21314 0.71336 -0.05839
 C2193 C 0.19648 0.71276 -0.05349
 C2194 C 0.18771 0.70396 -0.06258
 C2195 C 0.20403 0.70985 -0.08398
 C2196 C 0.21279 0.71863 -0.07490
 C2197 C 0.18711 0.68727 -0.08562
 C2198 C 0.17965 0.67981 -0.09422
 C2199 C 0.22265 0.72291 -0.04877
 C2200 C 0.23062 0.73089 -0.04115
 H2201 H 0.21167 0.67603 -0.06981
 H2202 H 0.22794 0.69236 -0.05292
 H2203 H 0.19198 0.71872 -0.04375
 H2204 H 0.17569 0.70239 -0.06064
 H2205 H 0.20263 0.71211 -0.09595
 H2206 H 0.21887 0.72842 -0.07910
 C2207 C 0.19624 0.19639 0.42486
 C2208 C 0.18785 0.21009 0.43147
 C2209 C 0.19664 0.21889 0.44052
 C2210 C 0.21296 0.21314 0.44208
 C2211 C 0.21887 0.21183 0.42583
 C2212 C 0.21009 0.20304 0.41679
 C2213 C 0.20267 0.18795 0.43859
 C2214 C 0.21146 0.19677 0.44765
 C2215 C 0.18689 0.18704 0.41490
 C2216 C 0.17944 0.17963 0.40625
 C2217 C 0.22250 0.22268 0.45166
 C2218 C 0.23048 0.23065 0.45928
 H2219 H 0.17604 0.21263 0.42925
 H2220 H 0.19237 0.22898 0.44606
 H2221 H 0.22906 0.21734 0.42177
 H2222 H 0.21277 0.20101 0.40499
 H2223 H 0.20049 0.17613 0.44101
 H2224 H 0.21681 0.19249 0.45783
 C2225 C 0.30332 0.42340 0.69660
 C2226 C 0.29691 0.43697 0.68785
 C2227 C 0.28823 0.44636 0.69650
 C2228 C 0.28682 0.44124 0.71302
 C2229 C 0.30317 0.43970 0.71864
 C2230 C 0.31185 0.43031 0.71000
 C2231 C 0.28948 0.41564 0.70360
 C2232 C 0.28082 0.42500 0.71222
 C2233 C 0.31254 0.41308 0.68744
 C2234 C 0.31986 0.40420 0.68011
 C2235 C 0.27738 0.45111 0.72242
 C2236 C 0.26942 0.45886 0.73034
 H2237 H 0.29907 0.43907 0.67596
 H2238 H 0.28296 0.45651 0.69202
 H2239 H 0.30757 0.44551 0.72849
 H2240 H 0.32367 0.42809 0.71245
 H2241 H 0.28673 0.40380 0.70194
 H2242 H 0.27066 0.42118 0.71796
 C2243 C 0.30251 0.92327 0.19652
 C2244 C 0.29616 0.93683 0.18771
 C2245 C 0.28763 0.94638 0.19634
 C2246 C 0.28630 0.94140 0.21291
 C2247 C 0.30267 0.93975 0.21843
 C2248 C 0.31119 0.93022 0.20981
 C2249 C 0.28864 0.91570 0.20368
 C2250 C 0.28013 0.92521 0.21229
 C2251 C 0.31159 0.91280 0.18741
 C2252 C 0.31886 0.90379 0.18021
 C2253 C 0.27702 0.95141 0.22233
 C2254 C 0.26919 0.95920 0.23031
 H2255 H 0.29821 0.93878 0.17578
 H2256 H 0.28240 0.95652 0.19181
 H2257 H 0.30719 0.94561 0.22820
 H2258 H 0.32301 0.92791 0.21220
 H2259 H 0.28572 0.90389 0.20209
 H2260 H 0.26994 0.92155 0.21809
 C2261 C 0.80319 0.42352 0.19620
 C2262 C 0.79676 0.43712 0.18753
 C2263 C 0.78807 0.44646 0.19623
 C2264 C 0.78669 0.44126 0.21273
 C2265 C 0.80305 0.43972 0.21832
 C2266 C 0.81173 0.43039 0.20963
 C2267 C 0.78937 0.41571 0.20319
 C2268 C 0.78071 0.42502 0.21187
 C2269 C 0.81241 0.41323 0.18700
 C2270 C 0.81969 0.40431 0.17970
 C2271 C 0.77724 0.45109 0.22219
 C2272 C 0.76927 0.45878 0.23015
 H2273 H 0.79884 0.43924 0.17562
 H2274 H 0.78274 0.45659 0.19179
 H2275 H 0.80744 0.44546 0.22822
 H2276 H 0.82355 0.42816 0.21207
 H2277 H 0.78661 0.40389 0.20145
 H2278 H 0.77056 0.42116 0.21760
 C2279 C 0.80241 0.92368 0.69679
 C2280 C 0.79937 0.91768 0.71277
 C2281 C 0.79082 0.92715 0.72139
 C2282 C 0.78614 0.94170 0.71320
 C2283 C 0.77815 0.93639 0.69877
 C2284 C 0.78671 0.92691 0.69014
 C2285 C 0.80960 0.93929 0.69911
 C2286 C 0.80103 0.94879 0.70776
 C2287 C 0.81150 0.91324 0.68766
 C2288 C 0.81875 0.90424 0.68044
 C2289 C 0.77682 0.95165 0.72262
 C2290 C 0.76895 0.95940 0.73060
 H2291 H 0.80359 0.90694 0.71696
 H2292 H 0.78774 0.92452 0.73297
 H2293 H 0.76680 0.93983 0.69558
 H2294 H 0.78269 0.92222 0.67955
 H2295 H 0.82043 0.94260 0.69436
 H2296 H 0.80452 0.96023 0.71043
 C2297 C 0.69625 0.57677 0.69773
 C2298 C 0.69299 0.57774 0.71473
 C2299 C 0.70172 0.56829 0.72320
 C2300 C 0.71283 0.55876 0.71385
 C2301 C 0.72199 0.57025 0.70466
 C2302 C 0.71329 0.57970 0.69619
 C2303 C 0.69424 0.56000 0.69372
 C2304 C 0.70298 0.55052 0.70220
 C2305 C 0.68712 0.58724 0.68864
 C2306 C 0.68000 0.59620 0.68124
 C2307 C 0.72232 0.54877 0.72311
 C2308 C 0.73031 0.54097 0.73093
 H2309 H 0.68454 0.58516 0.71969
 H2310 H 0.70079 0.56766 0.73541
 H2311 H 0.73425 0.57085 0.70471
 H2312 H 0.71809 0.58840 0.68899
 H2313 H 0.68666 0.55594 0.68498
 H2314 H 0.70295 0.53834 0.70069
 C2315 C 0.69775 0.07634 0.19669
 C2316 C 0.70843 0.06622 0.18745
 C2317 C 0.71697 0.05672 0.19609
 C2318 C 0.71398 0.05829 0.21311
 C2319 C 0.69688 0.05588 0.21496
 C2320 C 0.68834 0.06538 0.20632
 C2321 C 0.70801 0.08455 0.20797
 C2322 C 0.71653 0.07508 0.21659
 C2323 C 0.68866 0.08677 0.18754
 C2324 C 0.68141 0.09573 0.18026
 C2325 C 0.72329 0.04830 0.22253
 C2326 C 0.73114 0.04051 0.23049
 H2327 H 0.70918 0.06647 0.17521
 H2328 H 0.72503 0.04882 0.19125
 H2329 H 0.69192 0.04743 0.22234
 H2330 H 0.67606 0.06507 0.20630
 H2331 H 0.70854 0.09676 0.20908
 H2332 H 0.72435 0.07917 0.22509
 C2333 C 0.19747 0.57664 0.19650
 C2334 C 0.20809 0.56648 0.18723
 C2335 C 0.21660 0.55693 0.19586
 C2336 C 0.21362 0.55850 0.21288
 C2337 C 0.19652 0.55616 0.21474
 C2338 C 0.18802 0.56571 0.20612
 C2339 C 0.20777 0.58479 0.20777
 C2340 C 0.21625 0.57527 0.21637
 C2341 C 0.18843 0.58715 0.18739
 C2342 C 0.18122 0.59621 0.18020
 C2343 C 0.22288 0.54850 0.22231
 C2344 C 0.23070 0.54074 0.23031
 H2345 H 0.20883 0.56672 0.17499
 H2346 H 0.22460 0.54897 0.19101
 H2347 H 0.19153 0.54771 0.22211
 H2348 H 0.17574 0.56544 0.20610
 H2349 H 0.20837 0.59699 0.20890
 H2350 H 0.22410 0.57931 0.22488
 C2351 C 0.19759 0.07613 0.69689
 C2352 C 0.20741 0.06524 0.68756
 C2353 C 0.21599 0.05573 0.69615
 C2354 C 0.21391 0.05807 0.71322
 C2355 C 0.19685 0.05643 0.71598
 C2356 C 0.18827 0.06593 0.70739
 C2357 C 0.20872 0.08434 0.70732
 C2358 C 0.21728 0.07486 0.71589
 C2359 C 0.18841 0.08654 0.68780
 C2360 C 0.18107 0.09547 0.68057
 C2361 C 0.22324 0.04809 0.72259
 C2362 C 0.23111 0.04030 0.73054
 H2363 H 0.20758 0.06499 0.67530
 H2364 H 0.22349 0.04731 0.69126
 H2365 H 0.19194 0.04848 0.72393
 H2366 H 0.17600 0.06611 0.70798
 H2367 H 0.20980 0.09655 0.70790
 H2368 H 0.22566 0.07895 0.72386
 C2369 C 0.30243 0.57660 0.30315
 C2370 C 0.29414 0.56444 0.31236
 C2371 C 0.28562 0.55494 0.30374
 C2372 C 0.28624 0.55856 0.28678
 C2373 C 0.30312 0.55833 0.28273
 C2374 C 0.31164 0.56782 0.29134
 C2375 C 0.29000 0.58467 0.29414
 C2376 C 0.28150 0.57520 0.28554
 C2377 C 0.31150 0.58704 0.31225
 C2378 C 0.31874 0.59606 0.31942
 C2379 C 0.27696 0.54858 0.27740
 C2380 C 0.26913 0.54079 0.26946
 H2381 H 0.29496 0.56334 0.32455
 H2382 H 0.27915 0.54569 0.30854
 H2383 H 0.30797 0.55128 0.27392
 H2384 H 0.32379 0.56889 0.28992
 H2385 H 0.28803 0.59679 0.29449
 H2386 H 0.27228 0.57921 0.27851
 C2387 C 0.30295 0.07612 0.80319
 C2388 C 0.29530 0.06350 0.81232
 C2389 C 0.28677 0.05399 0.80372
 C2390 C 0.28674 0.05807 0.78686
 C2391 C 0.30348 0.05843 0.78226
 C2392 C 0.31201 0.06792 0.79085
 C2393 C 0.29001 0.08407 0.79480
 C2394 C 0.28150 0.07459 0.78623
 C2395 C 0.31202 0.08656 0.81228
 C2396 C 0.31924 0.09556 0.81948
 C2397 C 0.27746 0.04808 0.77749
 C2398 C 0.26963 0.04030 0.76956
 H2399 H 0.29651 0.06212 0.82445
 H2400 H 0.28068 0.04446 0.80848
 H2401 H 0.30824 0.05175 0.77312
 H2402 H 0.32407 0.06939 0.78907
 H2403 H 0.28770 0.09611 0.79556
 H2404 H 0.27191 0.07851 0.77963
 C2405 C 0.80281 0.57623 0.80342
 C2406 C 0.79455 0.56403 0.81260
 C2407 C 0.78594 0.55461 0.80397
 C2408 C 0.78645 0.55835 0.78704
 C2409 C 0.80331 0.55811 0.78286
 C2410 C 0.81191 0.56751 0.79148
 C2411 C 0.79033 0.58440 0.79456
 C2412 C 0.78175 0.57501 0.78595
 C2413 C 0.81196 0.58660 0.81253
 C2414 C 0.81925 0.59557 0.81971
 C2415 C 0.77709 0.54848 0.77763
 C2416 C 0.76920 0.54077 0.76967
 H2417 H 0.79544 0.56284 0.82477
 H2418 H 0.77947 0.54535 0.80875
 H2419 H 0.80807 0.55111 0.77397
 H2420 H 0.82405 0.56856 0.78999
 H2421 H 0.78838 0.59651 0.79502
 H2422 H 0.77247 0.57909 0.77903
 C2423 C 0.80281 0.07631 0.30331
 C2424 C 0.79522 0.06365 0.31244
 C2425 C 0.78672 0.05411 0.30384
 C2426 C 0.78666 0.05821 0.28697
 C2427 C 0.80341 0.05863 0.28237
 C2428 C 0.81190 0.06816 0.29096
 C2429 C 0.78984 0.08422 0.29494
 C2430 C 0.78136 0.07472 0.28636
 C2431 C 0.81183 0.08679 0.31239
 C2432 C 0.81901 0.09584 0.31956
 C2433 C 0.77741 0.04822 0.27758
 C2434 C 0.76960 0.04044 0.26961
 H2435 H 0.79645 0.06227 0.32456
 H2436 H 0.78067 0.04456 0.30859
 H2437 H 0.80819 0.05197 0.27324
 H2438 H 0.82396 0.06966 0.28919
 H2439 H 0.78748 0.09624 0.29573
 H2440 H 0.77174 0.07860 0.27981
 C2441 C 0.69600 0.42294 0.30214
 C2442 C 0.71304 0.41993 0.30364
 C2443 C 0.72174 0.42930 0.29507
 C2444 C 0.71258 0.44078 0.28583
 C2445 C 0.70273 0.44913 0.29746
 C2446 C 0.69401 0.43974 0.30604
 C2447 C 0.69275 0.42186 0.28515
 C2448 C 0.70146 0.43124 0.27658
 C2449 C 0.68673 0.41267 0.31133
 C2450 C 0.67944 0.40393 0.31883
 C2451 C 0.72208 0.45072 0.27653
 C2452 C 0.73009 0.45854 0.26874
 H2453 H 0.71784 0.41120 0.31081
 H2454 H 0.73400 0.42859 0.29491
 H2455 H 0.70261 0.46132 0.29882
 H2456 H 0.68643 0.44389 0.31477
 H2457 H 0.68434 0.41440 0.28028
 H2458 H 0.70049 0.43182 0.26437
 C2459 C 0.69642 0.92351 0.80306
 C2460 C 0.69688 0.93980 0.80901
 C2461 C 0.70555 0.94925 0.80044
 C2462 C 0.71288 0.94146 0.78676
 C2463 C 0.69968 0.93433 0.77808
 C2464 C 0.69103 0.92490 0.78665
 C2465 C 0.71305 0.91862 0.80193
 C2466 C 0.72169 0.92805 0.79338
 C2467 C 0.68725 0.91318 0.81225
 C2468 C 0.67996 0.90435 0.81965
 C2469 C 0.72230 0.95144 0.77743
 C2470 C 0.73022 0.95926 0.76956
 H2471 H 0.69093 0.94358 0.81906
 H2472 H 0.70706 0.96111 0.80317
 H2473 H 0.69729 0.93657 0.76627
 H2474 H 0.68123 0.91904 0.78216
 H2475 H 0.71765 0.90865 0.80743
 H2476 H 0.73370 0.92619 0.79160
 C2477 C 0.19708 0.42328 0.80304
 C2478 C 0.19961 0.41760 0.78686
 C2479 C 0.20818 0.42704 0.77826
 C2480 C 0.21342 0.44125 0.78666
 C2481 C 0.22160 0.43536 0.80077
 C2482 C 0.21301 0.42591 0.80938
 C2483 C 0.19024 0.43915 0.80125
 C2484 C 0.19884 0.44861 0.79262
 C2485 C 0.18794 0.41288 0.81216
 C2486 C 0.18066 0.40393 0.81940
 C2487 C 0.22276 0.45118 0.77725
 C2488 C 0.23064 0.45893 0.76927
 H2489 H 0.19504 0.40709 0.78252
 H2490 H 0.21094 0.42461 0.76655
 H2491 H 0.23310 0.43841 0.80378
 H2492 H 0.21716 0.42087 0.81977
 H2493 H 0.17962 0.44266 0.80635
 H2494 H 0.19559 0.46022 0.79031
 C2495 C 0.19729 0.92322 0.30309
 C2496 C 0.20153 0.91673 0.28758
 C2497 C 0.21005 0.92624 0.27902
 C2498 C 0.21353 0.94134 0.28678
 C2499 C 0.22095 0.93703 0.30185
 C2500 C 0.21241 0.92750 0.31043
 C2501 C 0.18947 0.93836 0.29968
 C2502 C 0.19802 0.94790 0.29109
 C2503 C 0.18820 0.91275 0.31218
 C2504 C 0.18096 0.90374 0.31938
 C2505 C 0.22283 0.95135 0.27741
 C2506 C 0.23068 0.95915 0.26947
 H2507 H 0.19810 0.90563 0.28366
 H2508 H 0.21392 0.92329 0.26775
 H2509 H 0.23190 0.94117 0.30550
 H2510 H 0.21605 0.92348 0.32143
 H2511 H 0.17824 0.94134 0.30370
 H2512 H 0.19413 0.95905 0.28774
 C2513 C 0.42378 0.30298 0.69672
 C2514 C 0.42060 0.30423 0.71371
 C2515 C 0.42993 0.29558 0.72237
 C2516 C 0.44154 0.28649 0.71320
 C2517 C 0.44995 0.29829 0.70363
 C2518 C 0.44059 0.30697 0.69494
 C2519 C 0.42282 0.28603 0.69320
 C2520 C 0.43216 0.27736 0.70186
 C2521 C 0.41350 0.31218 0.68753
 C2522 C 0.40464 0.31948 0.68019
 C2523 C 0.45138 0.27706 0.72264
 C2524 C 0.45912 0.26914 0.73058
 H2525 H 0.41184 0.31138 0.71853
 H2526 H 0.42916 0.29530 0.73461
 H2527 H 0.46214 0.29972 0.70369
 H2528 H 0.44478 0.31584 0.68756
 H2529 H 0.41551 0.28125 0.68461
 H2530 H 0.43283 0.26516 0.70069
 C2531 C 0.42337 0.80250 0.19657
 C2532 C 0.43943 0.80121 0.19003
 C2533 C 0.44895 0.79267 0.19866
 C2534 C 0.44145 0.78627 0.21296
 C2535 C 0.42756 0.77761 0.20728
 C2536 C 0.41806 0.78613 0.19867
 C2537 C 0.42551 0.80862 0.21264
 C2538 C 0.43502 0.80009 0.22125
 C2539 C 0.41293 0.81159 0.18745
 C2540 C 0.40394 0.81885 0.18022
 C2541 C 0.45144 0.77699 0.22236
 C2542 C 0.45924 0.76915 0.23033
 H2543 H 0.44300 0.80654 0.17957
 H2544 H 0.46068 0.79070 0.19562
 H2545 H 0.42539 0.76579 0.20977
 H2546 H 0.40777 0.78161 0.19378
 H2547 H 0.42010 0.81881 0.21686
 H2548 H 0.43775 0.80298 0.23285
 C2549 C 0.92342 0.30293 0.19625
 C2550 C 0.93953 0.30144 0.18988
 C2551 C 0.94885 0.29281 0.19863
 C2552 C 0.94114 0.28653 0.21287
 C2553 C 0.92721 0.27802 0.20708
 C2554 C 0.91790 0.28663 0.19834
 C2555 C 0.92548 0.30907 0.21233
 C2556 C 0.93479 0.30045 0.22106
 C2557 C 0.91316 0.31211 0.18699
 C2558 C 0.90427 0.31939 0.17965
 C2559 C 0.95100 0.27717 0.22236
 C2560 C 0.95876 0.26931 0.23035
 H2561 H 0.94327 0.30669 0.17944
 H2562 H 0.96060 0.29069 0.19571
 H2563 H 0.92483 0.26625 0.20962
 H2564 H 0.90759 0.28222 0.19338
 H2565 H 0.92011 0.31931 0.21648
 H2566 H 0.93738 0.30329 0.23270
 C2567 C 0.92303 0.80287 0.69667
 C2568 C 0.93510 0.81210 0.70501
 C2569 C 0.94460 0.80351 0.71359
 C2570 C 0.94107 0.78653 0.71298
 C2571 C 0.94143 0.78248 0.69612
 C2572 C 0.93193 0.79107 0.68754
 C2573 C 0.91492 0.79381 0.70904
 C2574 C 0.92440 0.78524 0.71761
 C2575 C 0.91261 0.81200 0.68758
 C2576 C 0.90364 0.81927 0.68035
 C2577 C 0.95106 0.77718 0.72234
 C2578 C 0.95886 0.76929 0.73026
 H2579 H 0.93613 0.82430 0.70419
 H2580 H 0.95377 0.80834 0.72013
 H2581 H 0.94855 0.77369 0.69134
 H2582 H 0.93091 0.78964 0.67541
 H2583 H 0.90278 0.79411 0.71091
 H2584 H 0.92037 0.77819 0.72681
 C2585 C 0.57702 0.30366 0.30215
 C2586 C 0.56239 0.29905 0.31032
 C2587 C 0.55300 0.29040 0.30172
 C2588 C 0.55915 0.28720 0.28582
 C2589 C 0.57479 0.28009 0.28835
 C2590 C 0.58417 0.28873 0.29693
 C2591 C 0.57176 0.31148 0.28759
 C2592 C 0.56237 0.30283 0.27900
 C2593 C 0.58728 0.31287 0.31134
 C2594 C 0.59602 0.32016 0.31882
 C2595 C 0.54921 0.27776 0.27651
 C2596 C 0.54138 0.26980 0.26873
 H2597 H 0.55966 0.30229 0.32183
 H2598 H 0.54221 0.28625 0.30586
 H2599 H 0.57821 0.26920 0.28381
 H2600 H 0.59560 0.28523 0.29976
 H2601 H 0.57509 0.32282 0.28432
 H2602 H 0.55766 0.30676 0.26838
 C2603 C 0.57618 0.80338 0.80314
 C2604 C 0.56165 0.79862 0.81140
 C2605 C 0.55225 0.78995 0.80282
 C2606 C 0.55829 0.78691 0.78684
 C2607 C 0.57400 0.77990 0.78920
 C2608 C 0.58339 0.78855 0.79774
 C2609 C 0.57073 0.81128 0.78869
 C2610 C 0.56133 0.80263 0.78012
 C2611 C 0.58647 0.81256 0.81233
 C2612 C 0.59529 0.81984 0.81972
 C2613 C 0.54838 0.77748 0.77750
 C2614 C 0.54063 0.76953 0.76962
 H2615 H 0.55898 0.80181 0.82293
 H2616 H 0.54152 0.78570 0.80702
 H2617 H 0.57742 0.76904 0.78462
 H2618 H 0.59487 0.78512 0.80044
 H2619 H 0.57391 0.82270 0.78550
 H2620 H 0.55642 0.80664 0.76962
 C2621 C 0.07669 0.30256 0.80307
 C2622 C 0.06682 0.31187 0.79225
 C2623 C 0.05733 0.30331 0.78368
 C2624 C 0.05866 0.28629 0.78677
 C2625 C 0.05599 0.28458 0.80383
 C2626 C 0.06549 0.29314 0.81241
 C2627 C 0.08492 0.29108 0.79298
 C2628 C 0.07545 0.28254 0.78442
 C2629 C 0.08710 0.31168 0.81215
 C2630 C 0.09604 0.31897 0.81937
 C2631 C 0.04868 0.27700 0.77740
 C2632 C 0.04090 0.26918 0.76945
 H2633 H 0.06720 0.32411 0.79145
 H2634 H 0.04957 0.30822 0.77553
 H2635 H 0.04739 0.27733 0.80873
 H2636 H 0.06504 0.29321 0.82467
 H2637 H 0.09712 0.28974 0.79262
 H2638 H 0.07954 0.27390 0.77672
 C2639 C 0.07664 0.80259 0.30324
 C2640 C 0.06674 0.81195 0.29248
 C2641 C 0.05722 0.80343 0.28389
 C2642 C 0.05856 0.78639 0.28692
 C2643 C 0.05592 0.78463 0.30398
 C2644 C 0.06545 0.79315 0.31257
 C2645 C 0.08483 0.79115 0.29308
 C2646 C 0.07534 0.78265 0.28451
 C2647 C 0.08709 0.81166 0.31232
 C2648 C 0.09609 0.81889 0.31951
 C2649 C 0.04858 0.77712 0.27754
 C2650 C 0.04081 0.76929 0.26958
 H2651 H 0.06713 0.82419 0.29171
 H2652 H 0.04945 0.80837 0.27578
 H2653 H 0.04732 0.77738 0.30887
 H2654 H 0.06501 0.79319 0.32482
 H2655 H 0.09703 0.78983 0.29266
 H2656 H 0.07941 0.77405 0.27676
 C2657 C 0.57671 0.69631 0.69797
 C2658 C 0.56497 0.68714 0.70691
 C2659 C 0.55545 0.69589 0.71536
 C2660 C 0.55862 0.71290 0.71404
 C2661 C 0.55790 0.71632 0.69705
 C2662 C 0.56741 0.70758 0.68861
 C2663 C 0.58484 0.70596 0.70983
 C2664 C 0.57535 0.71467 0.71825
 C2665 C 0.58720 0.68717 0.68890
 C2666 C 0.59617 0.68006 0.68148
 C2667 C 0.54861 0.72242 0.72326
 C2668 C 0.54079 0.73044 0.73105
 H2669 H 0.56415 0.67491 0.70657
 H2670 H 0.54647 0.69114 0.72226
 H2671 H 0.55057 0.72483 0.69210
 H2672 H 0.56817 0.70857 0.67640
 H2673 H 0.59701 0.70595 0.71147
 H2674 H 0.57940 0.72218 0.72704
 C2675 C 0.57694 0.19692 0.19665
 C2676 C 0.57503 0.19107 0.21286
 C2677 C 0.56556 0.19968 0.22145
 C2678 C 0.55893 0.21331 0.21299
 C2679 C 0.55132 0.20660 0.19894
 C2680 C 0.56080 0.19798 0.19032
 C2681 C 0.58214 0.21337 0.19837
 C2682 C 0.57269 0.22197 0.20695
 C2683 C 0.58737 0.18777 0.18754
 C2684 C 0.59634 0.18049 0.18031
 C2685 C 0.54898 0.22271 0.22236
 C2686 C 0.54123 0.23068 0.23025
 H2687 H 0.58056 0.18100 0.21719
 H2688 H 0.56298 0.19698 0.23314
 H2689 H 0.53953 0.20844 0.19602
 H2690 H 0.55715 0.19244 0.18002
 H2691 H 0.59234 0.21788 0.19323
 H2692 H 0.57479 0.23385 0.20918
 C2693 C 0.07684 0.69752 0.19663
 C2694 C 0.08041 0.71448 0.19620
 C2695 C 0.07091 0.72301 0.20483
 C2696 C 0.05877 0.71374 0.21306
 C2697 C 0.06756 0.70180 0.22207
 C2698 C 0.07706 0.69328 0.21344
 C2699 C 0.06017 0.69633 0.19191
 C2700 C 0.05066 0.70487 0.20057
 C2701 C 0.08729 0.68846 0.18749
 C2702 C 0.09631 0.68123 0.18025
 C2703 C 0.04878 0.72302 0.22249
 C2704 C 0.04097 0.73085 0.23046
 H2705 H 0.08954 0.71938 0.18963
 H2706 H 0.07192 0.73520 0.20566
 H2707 H 0.06638 0.70013 0.23417
 H2708 H 0.08401 0.68431 0.21814
 H2709 H 0.05621 0.68941 0.18261
 H2710 H 0.03853 0.70527 0.19869
 C2711 C 0.07675 0.19696 0.69694
 C2712 C 0.06516 0.18768 0.70593
 C2713 C 0.05565 0.19628 0.71451
 C2714 C 0.05868 0.21331 0.71324
 C2715 C 0.05778 0.21682 0.69627
 C2716 C 0.06729 0.20821 0.68770
 C2717 C 0.08491 0.20662 0.70877
 C2718 C 0.07542 0.21520 0.71733
 C2719 C 0.08717 0.18776 0.68787
 C2720 C 0.09611 0.18042 0.68066
 C2721 C 0.04868 0.22266 0.72260
 C2722 C 0.04088 0.23055 0.73052
 H2723 H 0.06444 0.17544 0.70553
 H2724 H 0.04679 0.19142 0.72147
 H2725 H 0.05028 0.22525 0.69143
 H2726 H 0.06797 0.20929 0.67550
 H2727 H 0.09710 0.20674 0.71027
 H2728 H 0.07948 0.22264 0.72619
 C2729 C 0.42322 0.69725 0.30302
 C2730 C 0.43506 0.70587 0.31230
 C2731 C 0.44460 0.71440 0.30370
 C2732 C 0.44135 0.71346 0.28669
 C2733 C 0.42465 0.71790 0.28506
 C2734 C 0.41513 0.70940 0.29364
 C2735 C 0.43239 0.68801 0.29153
 C2736 C 0.44193 0.69653 0.28294
 C2737 C 0.41273 0.68818 0.31210
 C2738 C 0.40368 0.68094 0.31926
 C2739 C 0.45136 0.72275 0.27732
 C2740 C 0.45917 0.73061 0.26939
 H2741 H 0.43590 0.70529 0.32452
 H2742 H 0.45365 0.72111 0.30855
 H2743 H 0.42064 0.72694 0.27778
 H2744 H 0.40298 0.71117 0.29372
 H2745 H 0.43152 0.67583 0.29030
 H2746 H 0.44923 0.69167 0.27434
 C2747 C 0.42361 0.19662 0.80311
 C2748 C 0.41730 0.20031 0.78739
 C2749 C 0.42673 0.20892 0.77882
 C2750 C 0.44157 0.21303 0.78677
 C2751 C 0.44851 0.19783 0.79155
 C2752 C 0.43905 0.18919 0.80015
 C2753 C 0.42728 0.21202 0.81018
 C2754 C 0.43673 0.22064 0.80159
 C2755 C 0.41321 0.18747 0.81220
 C2756 C 0.40422 0.18020 0.81943
 C2757 C 0.45148 0.22242 0.77739
 C2758 C 0.45922 0.23035 0.76946
 H2759 H 0.40638 0.19647 0.78334
 H2760 H 0.42389 0.21244 0.76742
 H2761 H 0.45984 0.19420 0.78848
 H2762 H 0.44228 0.17816 0.80446
 H2763 H 0.42291 0.21578 0.82101
 H2764 H 0.44045 0.23179 0.80507
 C2765 C 0.92324 0.69719 0.80310
 C2766 C 0.93957 0.69760 0.80899
 C2767 C 0.94903 0.70617 0.80032
 C2768 C 0.94120 0.71348 0.78666
 C2769 C 0.92786 0.72238 0.79332
 C2770 C 0.91842 0.71382 0.80195
 C2771 C 0.92454 0.69173 0.78670
 C2772 C 0.93398 0.70029 0.77806
 C2773 C 0.91285 0.68807 0.81224
 C2774 C 0.90387 0.68079 0.81944
 C2775 C 0.95113 0.72280 0.77723
 C2776 C 0.95889 0.73067 0.76926
 H2777 H 0.94336 0.69169 0.81905
 H2778 H 0.96094 0.70760 0.80295
 H2779 H 0.92601 0.73437 0.79145
 H2780 H 0.90850 0.71850 0.80750
 H2781 H 0.91861 0.68196 0.78228
 H2782 H 0.93615 0.69784 0.76624
 C2783 C 0.92316 0.19714 0.30309
 C2784 C 0.91496 0.20676 0.29122
 C2785 C 0.92440 0.21532 0.28262
 C2786 C 0.94115 0.21346 0.28673
 C2787 C 0.94426 0.19642 0.28553
 C2788 C 0.93479 0.18783 0.29415
 C2789 C 0.93256 0.20843 0.31229
 C2790 C 0.94204 0.21702 0.30368
 C2791 C 0.91274 0.18802 0.31220
 C2792 C 0.90374 0.18076 0.31940
 C2793 C 0.95109 0.22281 0.27733
 C2794 C 0.95884 0.23071 0.26939
 H2795 H 0.90277 0.20683 0.28968
 H2796 H 0.92032 0.22271 0.27372
 H2797 H 0.95315 0.19154 0.27859
 H2798 H 0.93555 0.17559 0.29458
 H2799 H 0.93189 0.20954 0.32448
 H2800 H 0.94949 0.22547 0.30849
 C2801 C 0.30342 0.30297 0.57596
 C2802 C 0.30569 0.30628 0.55908
 C2803 C 0.29695 0.29756 0.54988
 C2804 C 0.28682 0.28640 0.55847
 C2805 C 0.27765 0.29618 0.56950
 C2806 C 0.28638 0.30489 0.57869
 C2807 C 0.30639 0.28595 0.57765
 C2808 C 0.29766 0.27725 0.56846
 C2809 C 0.31274 0.31226 0.58604
 C2810 C 0.32018 0.31968 0.59469
 C2811 C 0.27734 0.27693 0.54873
 C2812 C 0.26940 0.26900 0.54104
 H2813 H 0.31347 0.31473 0.55475
 H2814 H 0.29724 0.29853 0.53765
 H2815 H 0.26538 0.29629 0.57003
 H2816 H 0.28157 0.31246 0.58708
 H2817 H 0.31465 0.28116 0.58536
 H2818 H 0.29844 0.26500 0.56830
 C2819 C 0.30396 0.80380 0.07488
 C2820 C 0.29376 0.79278 0.08357
 C2821 C 0.28500 0.78401 0.07448
 C2822 C 0.28728 0.78710 0.05757
 C2823 C 0.30432 0.78507 0.05486
 C2824 C 0.31310 0.79385 0.06397
 C2825 C 0.29317 0.81290 0.06478
 C2826 C 0.28440 0.80412 0.05567
 C2827 C 0.31330 0.81313 0.08488
 C2828 C 0.32074 0.82056 0.09354
 C2829 C 0.27776 0.77757 0.04795
 C2830 C 0.26978 0.76959 0.04034
 H2831 H 0.29344 0.79193 0.09580
 H2832 H 0.27720 0.77566 0.07893
 H2833 H 0.30908 0.77743 0.04651
 H2834 H 0.32536 0.79373 0.06341
 H2835 H 0.29250 0.82515 0.06475
 H2836 H 0.27622 0.80885 0.04784
 C2837 C 0.80316 0.30335 0.07524
 C2838 C 0.79291 0.29230 0.08383
 C2839 C 0.78421 0.28356 0.07467
 C2840 C 0.78658 0.28671 0.05779
 C2841 C 0.80364 0.28468 0.05517
 C2842 C 0.81236 0.29343 0.06434
 C2843 C 0.79241 0.31248 0.06511
 C2844 C 0.78369 0.30372 0.05593
 C2845 C 0.81243 0.31263 0.08535
 C2846 C 0.81983 0.32000 0.09408
 C2847 C 0.77714 0.27720 0.04806
 C2848 C 0.76923 0.26924 0.04035
 H2849 H 0.79253 0.29144 0.09606
 H2850 H 0.77637 0.27521 0.07906
 H2851 H 0.80844 0.27701 0.04687
 H2852 H 0.82463 0.29329 0.06388
 H2853 H 0.79170 0.32473 0.06516
 H2854 H 0.77548 0.30847 0.04815
 C2855 C 0.80364 0.80426 0.57526
 C2856 C 0.80571 0.80752 0.55835
 C2857 C 0.79695 0.79868 0.54928
 C2858 C 0.78699 0.78747 0.55803
 C2859 C 0.77786 0.79722 0.56912
 C2860 C 0.78661 0.80605 0.57817
 C2861 C 0.80677 0.78728 0.57700
 C2862 C 0.79802 0.77846 0.56794
 C2863 C 0.81297 0.81365 0.58520
 C2864 C 0.82043 0.82111 0.59379
 C2865 C 0.77750 0.77789 0.54842
 C2866 C 0.76955 0.76988 0.54082
 H2867 H 0.81336 0.81601 0.55390
 H2868 H 0.79710 0.79959 0.53705
 H2869 H 0.76560 0.79718 0.56982
 H2870 H 0.78184 0.81357 0.58662
 H2871 H 0.81511 0.78260 0.58469
 H2872 H 0.79887 0.76621 0.56788
 C2873 C 0.30360 0.69606 0.42473
 C2874 C 0.29923 0.68840 0.43968
 C2875 C 0.29042 0.69722 0.44878
 C2876 C 0.28686 0.71281 0.44203
 C2877 C 0.27973 0.70951 0.42659
 C2878 C 0.28852 0.70071 0.41751
 C2879 C 0.31114 0.71098 0.42932
 C2880 C 0.30233 0.71979 0.43842
 C2881 C 0.31298 0.68668 0.41473
 C2882 C 0.32044 0.67922 0.40608
 C2883 C 0.27731 0.72238 0.45166
 C2884 C 0.26932 0.73038 0.45929
 H2885 H 0.30275 0.67707 0.44283
 H2886 H 0.28639 0.69345 0.45974
 H2887 H 0.26872 0.71370 0.42311
 H2888 H 0.28504 0.69738 0.40624
 H2889 H 0.32240 0.71433 0.42577
 H2890 H 0.30606 0.73067 0.44265
 C2891 C 0.30368 0.19595 0.92445
 C2892 C 0.29955 0.18843 0.93953
 C2893 C 0.29075 0.19726 0.94863
 C2894 C 0.28695 0.21275 0.94174
 C2895 C 0.27970 0.20919 0.92641
 C2896 C 0.28848 0.20038 0.91734
 C2897 C 0.31112 0.21099 0.92880
 C2898 C 0.30232 0.21982 0.93789
 C2899 C 0.31304 0.18656 0.91446
 C2900 C 0.32049 0.17909 0.90583
 C2901 C 0.27739 0.22233 0.95137
 C2902 C 0.26940 0.23033 0.95901
 H2903 H 0.30322 0.17717 0.94278
 H2904 H 0.28687 0.19357 0.95967
 H2905 H 0.26863 0.21325 0.92298
 H2906 H 0.28493 0.19688 0.90614
 H2907 H 0.32231 0.21440 0.92508
 H2908 H 0.30598 0.23080 0.94194
 C2909 C 0.80376 0.69575 0.92477
 C2910 C 0.79937 0.68813 0.93973
 C2911 C 0.79055 0.69697 0.94881
 C2912 C 0.78699 0.71255 0.94202
 C2913 C 0.77989 0.70921 0.92658
 C2914 C 0.78869 0.70040 0.91752
 C2915 C 0.81129 0.71068 0.92935
 C2916 C 0.80248 0.71951 0.93842
 C2917 C 0.81315 0.68636 0.91481
 C2918 C 0.82064 0.67889 0.90619
 C2919 C 0.77742 0.72214 0.95162
 C2920 C 0.76943 0.73017 0.95923
 H2921 H 0.80290 0.67681 0.94292
 H2922 H 0.78652 0.69322 0.95978
 H2923 H 0.76889 0.71341 0.92306
 H2924 H 0.78523 0.69705 0.90625
 H2925 H 0.82256 0.71401 0.92581
 H2926 H 0.80621 0.73039 0.94265
 C2927 C 0.80358 0.19592 0.42476
 C2928 C 0.79928 0.18828 0.43974
 C2929 C 0.79050 0.19710 0.44886
 C2930 C 0.78689 0.21268 0.44211
 C2931 C 0.77970 0.20934 0.42670
 C2932 C 0.78846 0.20054 0.41759
 C2933 C 0.81112 0.21085 0.42930
 C2934 C 0.80234 0.21966 0.43842
 C2935 C 0.81293 0.18653 0.41476
 C2936 C 0.82040 0.17905 0.40614
 C2937 C 0.77738 0.22225 0.45178
 C2938 C 0.76943 0.23026 0.45944
 H2939 H 0.80282 0.17695 0.44289
 H2940 H 0.78650 0.19332 0.45983
 H2941 H 0.76867 0.21351 0.42325
 H2942 H 0.78494 0.19717 0.40634
 H2943 H 0.82236 0.21420 0.42569
 H2944 H 0.80607 0.23056 0.44262
 C2945 C 0.69654 0.30316 0.42426
 C2946 C 0.70960 0.29514 0.41609
 C2947 C 0.71829 0.28644 0.42533
 C2948 C 0.71310 0.28659 0.44188
 C2949 C 0.69643 0.28177 0.44144
 C2950 C 0.68772 0.29048 0.43217
 C2951 C 0.70406 0.31207 0.43707
 C2952 C 0.71278 0.30336 0.44634
 C2953 C 0.68731 0.31241 0.41404
 C2954 C 0.67999 0.31976 0.40520
 C2955 C 0.72258 0.27713 0.45166
 C2956 C 0.73055 0.26920 0.45937
 H2957 H 0.71183 0.29620 0.40407
 H2958 H 0.72796 0.28006 0.42123
 H2959 H 0.69187 0.27236 0.44786
 H2960 H 0.67569 0.28855 0.43067
 H2961 H 0.70264 0.32415 0.43875
 H2962 H 0.71883 0.30796 0.45595
 C2963 C 0.69636 0.80316 0.92431
 C2964 C 0.70644 0.79191 0.91574
 C2965 C 0.71518 0.78318 0.92491
 C2966 C 0.71301 0.78652 0.94177
 C2967 C 0.69597 0.78470 0.94460
 C2968 C 0.68721 0.79346 0.93542
 C2969 C 0.70727 0.81228 0.93422
 C2970 C 0.71602 0.80352 0.94341
 C2971 C 0.68707 0.81246 0.91419
 C2972 C 0.67970 0.81987 0.90545
 C2973 C 0.72252 0.77703 0.95149
 C2974 C 0.73051 0.76908 0.95916
 H2975 H 0.70669 0.79089 0.90352
 H2976 H 0.72291 0.77468 0.92055
 H2977 H 0.69121 0.77721 0.95308
 H2978 H 0.67494 0.79348 0.93603
 H2979 H 0.70803 0.82452 0.93407
 H2980 H 0.72430 0.80826 0.95111
 C2981 C 0.19618 0.30360 0.92451
 C2982 C 0.19426 0.30702 0.94141
 C2983 C 0.20308 0.29820 0.95050
 C2984 C 0.21294 0.28685 0.94177
 C2985 C 0.22199 0.29646 0.93052
 C2986 C 0.21319 0.30526 0.92145
 C2987 C 0.19300 0.28662 0.92297
 C2988 C 0.20180 0.27782 0.93204
 C2989 C 0.18680 0.31297 0.91454
 C2990 C 0.17934 0.32042 0.90591
 C2991 C 0.22250 0.27729 0.95139
 C2992 C 0.23049 0.26929 0.95902
 H2993 H 0.18665 0.31559 0.94584
 H2994 H 0.20303 0.29922 0.96272
 H2995 H 0.23425 0.29638 0.92975
 H2996 H 0.21791 0.31271 0.91292
 H2997 H 0.18455 0.28193 0.91544
 H2998 H 0.20090 0.26559 0.93227
 C2999 C 0.19622 0.80357 0.42463
 C3000 C 0.20625 0.79235 0.41595
 C3001 C 0.21504 0.78357 0.42504
 C3002 C 0.21295 0.78684 0.44194
 C3003 C 0.19593 0.78502 0.44485
 C3004 C 0.18713 0.79382 0.43574
 C3005 C 0.20719 0.81263 0.43452
 C3006 C 0.21599 0.80384 0.44363
 C3007 C 0.18685 0.81294 0.41465
 C3008 C 0.17938 0.82042 0.40604
 C3009 C 0.22249 0.77731 0.45159
 C3010 C 0.23047 0.76934 0.45924
 H3011 H 0.20644 0.79139 0.40373
 H3012 H 0.22275 0.77509 0.42060
 H3013 H 0.19121 0.77751 0.45333
 H3014 H 0.17487 0.79384 0.43642
 H3015 H 0.20796 0.82488 0.43441
 H3016 H 0.22429 0.80854 0.45131
 C3017 C 0.69680 0.69693 0.57615
 C3018 C 0.68809 0.70380 0.56281
 C3019 C 0.69683 0.71254 0.55359
 C3020 C 0.71340 0.71355 0.55864
 C3021 C 0.71882 0.69709 0.55975
 C3022 C 0.71009 0.68835 0.56897
 C3023 C 0.70402 0.71046 0.58422
 C3024 C 0.71274 0.71919 0.57501
 C3025 C 0.68747 0.68760 0.58619
 C3026 C 0.68001 0.68013 0.59480
 C3027 C 0.72287 0.72303 0.54887
 C3028 C 0.73080 0.73098 0.54113
 H3029 H 0.67613 0.70196 0.56079
 H3030 H 0.69235 0.71817 0.54366
 H3031 H 0.72862 0.69268 0.55380
 H3032 H 0.71244 0.67647 0.57094
 H3033 H 0.70243 0.71297 0.59612
 H3034 H 0.71861 0.72918 0.57903
 C3035 C 0.69644 0.19593 0.07490
 C3036 C 0.69246 0.21281 0.07565
 C3037 C 0.70124 0.22161 0.06657
 C3038 C 0.71314 0.21268 0.05762
 C3039 C 0.70417 0.20061 0.04900
 C3040 C 0.69538 0.19179 0.05810
 C3041 C 0.71337 0.19510 0.07865
 C3042 C 0.72215 0.20390 0.06956
 C3043 C 0.68710 0.18654 0.08489
 C3044 C 0.67968 0.17907 0.09353
 C3045 C 0.72266 0.22223 0.04798
 C3046 C 0.73061 0.23024 0.04034
 H3047 H 0.68352 0.21744 0.08270
 H3048 H 0.69982 0.23378 0.06583
 H3049 H 0.70469 0.19911 0.03684
 H3050 H 0.68836 0.18274 0.05374
 H3051 H 0.71806 0.18818 0.08763
 H3052 H 0.73435 0.20452 0.07077
 C3053 C 0.19668 0.69648 0.07509
 C3054 C 0.18797 0.70939 0.06741
 C3055 C 0.19677 0.71821 0.05834
 C3056 C 0.21342 0.71324 0.05783
 C3057 C 0.21304 0.69657 0.05304
 C3058 C 0.20423 0.68775 0.06212
 C3059 C 0.20974 0.70422 0.08345
 C3060 C 0.21853 0.71303 0.07439
 C3061 C 0.18731 0.68711 0.08505
 C3062 C 0.17984 0.67967 0.09367
 C3063 C 0.22295 0.72279 0.04820
 C3064 C 0.23092 0.73077 0.04053
 H3065 H 0.17595 0.71141 0.06895
 H3066 H 0.19229 0.72780 0.05212
 H3067 H 0.21913 0.69210 0.04337
 H3068 H 0.20277 0.67572 0.06022
 H3069 H 0.21189 0.70291 0.09545
 H3070 H 0.22819 0.71926 0.07864
 C3071 C 0.19635 0.19577 0.57537
 C3072 C 0.20991 0.20281 0.58355
 C3073 C 0.21869 0.21162 0.57449
 C3074 C 0.21308 0.21254 0.55812
 C3075 C 0.19663 0.21801 0.55931
 C3076 C 0.18783 0.20919 0.56838
 C3077 C 0.20319 0.18723 0.56190
 C3078 C 0.21200 0.19605 0.55282
 C3079 C 0.18699 0.18641 0.58535
 C3080 C 0.17956 0.17896 0.59402
 C3081 C 0.22262 0.22211 0.54852
 C3082 C 0.23060 0.23012 0.54091
 H3083 H 0.21239 0.20104 0.59542
 H3084 H 0.22870 0.21738 0.57861
 H3085 H 0.19227 0.22792 0.55352
 H3086 H 0.17593 0.21154 0.57035
 H3087 H 0.20126 0.17532 0.55967
 H3088 H 0.21762 0.19170 0.54282
   
