data_POSCAR
  _audit_creation_date              2014-09-24
  _audit_creation_method            'ToBaCCo'
  _symmetry_space_group_name_H-M    'P1'
  _symmetry_Int_Tables_number       1
  _symmetry_cell_setting            triclinic
  loop_
  _symmetry_equiv_pos_as_xyz
 x,y,z
_cell_length_a 56.3798
_cell_length_b 56.3798
_cell_length_c 56.3798
_cell_angle_alpha 90.000000
_cell_angle_beta 90.000000
_cell_angle_gamma 90.000000
loop_
  _atom_site_label
  _atom_site_type_symbol
  _atom_site_fract_x
  _atom_site_fract_y
  _atom_site_fract_z
N1 N 0.20896 0.20933 0.21037
 N2 N 0.70831 0.70966 0.70841
 N3 N 0.29092 0.79193 0.71319
 N4 N 0.79179 0.29022 0.20849
 N5 N 0.79101 0.70767 0.29098
 N6 N 0.28903 0.20914 -0.20948
 N7 N 0.70921 0.28915 -0.20985
 N8 N 0.20849 0.79313 0.29106
 N9 N 0.45619 0.46050 0.45853
 N10 N -0.04055 -0.04326 0.95923
 N11 N 1.03950 0.53882 0.95948
 N12 N 0.54231 0.04131 0.46085
 N13 N -0.04034 0.03909 0.53964
 N14 N 0.46042 0.53805 0.03954
 N15 N 0.54148 -0.04261 0.04290
 N16 N 1.04050 0.46200 0.54062
 C17 C 0.41670 0.00936 0.21491
 H18 H 0.41960 0.02569 0.22455
 C19 C 0.43212 0.00393 0.19507
 H20 H 0.44611 0.01630 0.19066
 C21 C 0.39590 -0.02600 0.20936
 H22 H 0.38196 -0.03820 0.21433
 C23 C 0.41076 -0.03195 0.18953
 H24 H 0.40680 -0.04827 0.18029
 N25 N 0.39871 -0.00555 0.22228
 C26 C 0.33616 0.03879 0.26062
 H27 H 0.33298 0.02874 0.27665
 C28 C 0.32070 0.05862 0.25531
 H29 H 0.30645 0.06265 0.26751
 C30 C 0.35757 0.04519 0.22576
 H31 H 0.37174 0.04049 0.21370
 C32 C 0.34273 0.06507 0.21997
 H33 H 0.34698 0.07467 0.20395
 Zn34 Zn 0.37621 0.00129 0.25235
 N35 N 0.35443 0.03184 0.24587
 C36 C 0.40197 0.02815 0.29374
 N37 N 0.39857 0.00652 0.28278
 C38 C 0.41110 -0.01223 0.29203
 C39 C 0.42638 -0.00995 0.31231
 C40 C 0.41756 0.03125 0.31392
 C41 C 0.33624 -0.03315 0.24031
 C42 C 0.31984 -0.05255 0.24201
 C43 C 0.33643 -0.06296 0.27932
 C44 C 0.35262 -0.04312 0.27701
 N45 N 0.35281 -0.02833 0.25748
 H46 H 0.39264 0.04347 0.28693
 H47 H 0.40927 -0.02947 0.28381
 H48 H 0.43536 -0.02570 0.31860
 H49 H 0.41913 0.04868 0.32179
 H50 H 0.33548 -0.02180 0.22485
 H51 H 0.30723 -0.05453 0.22772
 H52 H 0.33763 -0.07402 0.29495
 H53 H 0.36516 -0.03988 0.29115
 C54 C 0.32321 0.07247 0.23436
 C55 C 0.42991 -0.01735 0.18166
 C56 C 0.31942 -0.06866 0.26154
 C57 C 0.43024 0.01201 0.32420
 C58 C 0.08258 -0.00803 0.71373
 H59 H 0.07861 -0.02345 0.72441
 C60 C 0.06780 -0.00323 0.69331
 H61 H 0.05341 -0.01529 0.68930
 C62 C 0.10572 0.02539 0.70575
 H63 H 0.12031 0.03708 0.71006
 C64 C 0.09169 0.03050 0.68506
 H65 H 0.09635 0.04594 0.67466
 N66 N 0.10153 0.00612 0.72010
 C67 C 0.16254 -0.03761 0.76118
 H68 H 0.16406 -0.02711 0.77717
 C69 C 0.17912 -0.05670 0.75754
 H70 H 0.19252 -0.05970 0.77096
 C71 C 0.14439 -0.04578 0.72488
 H72 H 0.13128 -0.04177 0.71145
 C73 C 0.16043 -0.06551 0.72085
 H74 H 0.15891 -0.07544 0.70450
 Zn75 Zn 0.12343 -0.00057 0.75064
 N76 N 0.14543 -0.03159 0.74484
 C77 C 0.08207 -0.02138 0.78186
 N78 N 0.10067 -0.00542 0.78114
 C79 C 0.10386 0.00798 0.80127
 C80 C 0.08922 0.00548 0.82205
 C81 C 0.06672 -0.02414 0.80230
 C82 C 0.17103 0.02587 0.75632
 C83 C 0.18771 0.04459 0.76098
 C84 C 0.15569 0.07153 0.76567
 C85 C 0.13940 0.05212 0.76115
 N86 N 0.14688 0.02921 0.75668
 H87 H 0.07881 -0.03240 0.76651
 H88 H 0.11810 0.02084 0.80158
 H89 H 0.09314 0.01671 0.83711
 H90 H 0.05271 -0.03724 0.80161
 H91 H 0.17789 0.00842 0.75245
 H92 H 0.20638 0.04020 0.76037
 H93 H 0.14848 0.08891 0.76946
 H94 H 0.12056 0.05572 0.76151
 C95 C 0.17882 -0.07152 0.73707
 C96 C 0.07203 0.01628 0.67792
 C97 C 0.18074 0.06834 0.76610
 C98 C 0.06993 -0.01084 0.82350
 C99 C 0.58351 0.49034 0.21260
 H100 H 0.58007 0.47464 0.22308
 C101 C 0.56853 0.49500 0.19223
 H102 H 0.55462 0.48248 0.18797
 C103 C 0.60529 0.52480 0.20535
 H104 H 0.61934 0.53702 0.20997
 C105 C 0.59099 0.52988 0.18484
 H106 H 0.59495 0.54585 0.17498
 N107 N 0.60194 0.50505 0.21923
 C108 C 0.66535 0.46466 0.25972
 H109 H 0.66742 0.47650 0.27468
 C110 C 0.68224 0.44577 0.25669
 H111 H 0.69624 0.44416 0.26972
 C112 C 0.64532 0.45293 0.22544
 H113 H 0.63122 0.45536 0.21265
 C114 C 0.66180 0.43346 0.22198
 H115 H 0.65958 0.42213 0.20665
 Zn116 Zn 0.62416 0.49889 0.24973
 N117 N 0.64701 0.46865 0.24417
 C118 C 0.60353 0.47215 0.29271
 N119 N 0.60168 0.49291 0.28009
 C120 C 0.58452 0.50860 0.28784
 C121 C 0.56899 0.50366 0.30775
 C122 C 0.58848 0.46664 0.31256
 C123 C 0.66540 0.53290 0.23980
 C124 C 0.68225 0.55180 0.24279
 C125 C 0.66173 0.56421 0.27744
 C126 C 0.64528 0.54474 0.27401
 N127 N 0.64703 0.52898 0.25533
 H128 H 0.61680 0.45934 0.28743
 H129 H 0.58237 0.52520 0.27846
 H130 H 0.55568 0.51667 0.31245
 H131 H 0.59159 0.44997 0.32149
 H132 H 0.66748 0.52102 0.22488
 H133 H 0.69627 0.55339 0.22978
 H134 H 0.65948 0.57560 0.29272
 H135 H 0.63113 0.54235 0.28675
 C136 C 0.68131 0.42935 0.23748
 C137 C 0.57194 0.51504 0.17726
 C138 C 0.68125 0.56827 0.26195
 C139 C 0.57016 0.48208 0.32082
 C140 C 0.89907 0.50766 0.70035
 H141 H 0.88869 0.52377 0.69952
 C142 C 0.91541 0.50258 0.68112
 H143 H 0.91673 0.51514 0.66666
 C144 C 0.91018 0.47288 0.71985
 H145 H 0.90865 0.46078 0.73466
 C146 C 0.92646 0.46719 0.70108
 H147 H 0.93604 0.45067 0.70264
 N148 N 0.89652 0.49305 0.71986
 C149 C 0.83708 0.52994 0.72349
 H150 H 0.83806 0.51505 0.71145
 C151 C 0.82102 0.54893 0.71798
 H152 H 0.81039 0.54707 0.70214
 C153 C 0.84905 0.54940 0.75801
 H154 H 0.85971 0.55011 0.77395
 C155 C 0.83304 0.56892 0.75306
 H156 H 0.83252 0.58372 0.76527
 Zn157 Zn 0.87383 0.49982 0.74990
 N158 N 0.85124 0.52991 0.74330
 C159 C 0.88934 0.50848 0.80325
 N160 N 0.89664 0.50602 0.77999
 C161 C 0.92064 0.50791 0.77615
 C162 C 0.93734 0.51259 0.79481
 C163 C 0.90569 0.51298 0.82261
 C164 C 0.83585 0.46334 0.73732
 C165 C 0.81970 0.44375 0.73911
 C166 C 0.83402 0.43585 0.77793
 C167 C 0.85000 0.45587 0.77549
 N168 N 0.85111 0.46961 0.75523
 H169 H 0.87062 0.50711 0.80719
 H170 H 0.92727 0.50604 0.75825
 H171 H 0.95588 0.51379 0.79003
 H172 H 0.89863 0.51506 0.84033
 H173 H 0.83596 0.47360 0.72113
 H174 H 0.80810 0.44069 0.72418
 H175 H 0.83442 0.42572 0.79422
 H176 H 0.86160 0.46018 0.79016
 C177 C 0.81841 0.56952 0.73247
 C178 C 0.93015 0.48205 0.68090
 C179 C 0.81824 0.42880 0.75950
 C180 C 0.93056 0.51554 0.81898
 C181 C 0.21184 0.41406 0.00993
 H182 H 0.22136 0.41663 0.02639
 C183 C 0.19148 0.42894 0.00508
 H184 H 0.18625 0.44195 0.01819
 C185 C 0.20698 0.39439 -0.02621
 H186 H 0.21256 0.38122 -0.03898
 C187 C 0.18660 0.40873 -0.03159
 H188 H 0.17790 0.40573 -0.04841
 N189 N 0.21961 0.39669 -0.00550
 C190 C 0.24305 0.32817 0.03123
 H191 H 0.24594 0.31929 0.01449
 C192 C 0.23906 0.31378 0.05212
 H193 H 0.23924 0.29468 0.05030
 C194 C 0.23984 0.36286 0.05362
 H195 H 0.23995 0.38201 0.05495
 C196 C 0.23604 0.34916 0.07480
 H197 H 0.23320 0.35877 0.09116
 Zn198 Zn 0.24983 0.37445 0.00106
 N199 N 0.24356 0.35266 0.03180
 C200 C 0.29416 0.39351 0.02699
 N201 N 0.28021 0.39687 0.00728
 C202 C 0.28682 0.41531 -0.00743
 C203 C 0.30722 0.43027 -0.00283
 C204 C 0.31469 0.40781 0.03201
 C205 C 0.24086 0.33357 -0.03562
 C206 C 0.24510 0.31841 -0.05593
 C207 C 0.28012 0.34043 -0.06392
 C208 C 0.27554 0.35485 -0.04335
 N209 N 0.25592 0.35180 -0.02919
 H210 H 0.28963 0.37940 0.03917
 H211 H 0.27630 0.41875 -0.02311
 H212 H 0.31145 0.44418 -0.01536
 H213 H 0.32460 0.40382 0.04795
 H214 H 0.22515 0.33050 -0.02506
 H215 H 0.23232 0.30468 -0.06001
 H216 H 0.29589 0.34423 -0.07418
 H217 H 0.28793 0.36884 -0.03902
 C218 C 0.23565 0.32385 0.07500
 C219 C 0.17778 0.42660 -0.01598
 C220 C 0.26497 0.32150 -0.07115
 C221 C 0.32226 0.42685 0.01715
 C222 C 0.71283 0.08379 -0.00992
 H223 H 0.72216 0.08162 -0.02655
 C224 C 0.69304 0.06814 -0.00484
 H225 H 0.68834 0.05475 -0.01777
 C226 C 0.70803 0.10284 0.02651
 H227 H 0.71326 0.11616 0.03928
 C228 C 0.68836 0.08762 0.03220
 H229 H 0.67955 0.09059 0.04897
 N230 N 0.72058 0.10102 0.00570
 C231 C 0.76376 0.16184 -0.03646
 H232 H 0.77978 0.16207 -0.02589
 C233 C 0.76180 0.17813 -0.05595
 H234 H 0.77651 0.19007 -0.05880
 C235 C 0.72595 0.14699 -0.04440
 H236 H 0.71146 0.13509 -0.04029
 C237 C 0.72333 0.16312 -0.06428
 H238 H 0.70712 0.16250 -0.07452
 Zn239 Zn 0.75116 0.12333 -0.00029
 N240 N 0.74612 0.14615 -0.03051
 C241 C 0.79676 0.10172 -0.02484
 N242 N 0.78137 0.10029 -0.00581
 C243 C 0.78577 0.08224 0.00999
 C244 C 0.80474 0.06543 0.00692
 C245 C 0.81627 0.08530 -0.02837
 C246 C 0.75712 0.17030 0.02903
 C247 C 0.76031 0.18541 0.04957
 C248 C 0.76285 0.15083 0.07346
 C249 C 0.75987 0.13638 0.05259
 N250 N 0.75675 0.14582 0.03032
 H251 H 0.79403 0.11556 -0.03784
 H252 H 0.77422 0.08036 0.02520
 H253 H 0.80670 0.05171 0.02019
 H254 H 0.82731 0.08732 -0.04394
 H255 H 0.75469 0.17863 0.01193
 H256 H 0.76002 0.20444 0.04711
 H257 H 0.76519 0.14179 0.09021
 H258 H 0.75986 0.11730 0.05457
 C259 C 0.74149 0.17934 -0.07103
 C260 C 0.68014 0.06923 0.01685
 C261 C 0.76301 0.17616 0.07289
 C262 C 0.82083 0.06610 -0.01261
 C263 C 0.21872 0.58214 0.50651
 H264 H 0.23541 0.57372 0.50223
 C265 C 0.19824 0.56720 0.51073
 H266 H 0.20039 0.54816 0.50969
 C267 C 0.19620 0.61622 0.51324
 H268 H 0.19462 0.63532 0.51430
 C269 C 0.17549 0.60198 0.51764
 H270 H 0.15914 0.61121 0.52155
 N271 N 0.21792 0.60659 0.50788
 C272 C 0.26033 0.66765 0.46599
 H273 H 0.27631 0.66831 0.47659
 C274 C 0.25825 0.68342 0.44608
 H275 H 0.27283 0.69545 0.44284
 C276 C 0.22281 0.65200 0.45814
 H277 H 0.20855 0.63988 0.46235
 C278 C 0.22003 0.66768 0.43794
 H279 H 0.20391 0.66658 0.42758
 Zn280 Zn 0.24846 0.62884 0.50221
 N281 N 0.24295 0.65172 0.47210
 C282 C 0.29094 0.60825 0.47450
 N283 N 0.27868 0.60622 0.49546
 C284 C 0.28671 0.58887 0.51081
 C285 C 0.30649 0.57334 0.50533
 C286 C 0.31067 0.59325 0.46847
 C287 C 0.23992 0.66976 0.53913
 C288 C 0.24424 0.68488 0.55951
 C289 C 0.27882 0.66232 0.56774
 C290 C 0.27411 0.64788 0.54719
 N291 N 0.25465 0.65117 0.53287
 H292 H 0.28546 0.62163 0.46190
 H293 H 0.27764 0.58654 0.52756
 H294 H 0.31141 0.55990 0.51811
 H295 H 0.31931 0.59658 0.45169
 H296 H 0.22445 0.67321 0.52832
 H297 H 0.23169 0.69886 0.56342
 H298 H 0.29454 0.65832 0.57800
 H299 H 0.28636 0.63373 0.54294
 C300 C 0.23800 0.68396 0.43088
 C301 C 0.17566 0.57665 0.51684
 C302 C 0.26394 0.68152 0.57494
 C303 C 0.31920 0.57474 0.48354
 C304 C 0.72488 0.92205 0.49449
 H305 H 0.74235 0.92849 0.49905
 C306 C 0.70644 0.93910 0.49036
 H307 H 0.71098 0.95764 0.49218
 C308 C 0.69845 0.89094 0.48751
 H309 H 0.69472 0.87217 0.48618
 C310 C 0.67933 0.90760 0.48333
 H311 H 0.66198 0.90076 0.47878
 N312 N 0.72128 0.89801 0.49289
 C313 C 0.75899 0.83466 0.53666
 H314 H 0.77548 0.83196 0.52723
 C315 C 0.75359 0.81931 0.55653
 H316 H 0.76613 0.80555 0.56117
 C317 C 0.72328 0.85501 0.54170
 H318 H 0.71099 0.86880 0.53652
 C319 C 0.71736 0.84024 0.56159
 H320 H 0.70094 0.84410 0.57067
 Zn321 Zn 0.75070 0.87451 0.49878
 N322 N 0.74386 0.85232 0.52897
 C323 C 0.79382 0.89453 0.52607
 N324 N 0.78148 0.89626 0.50513
 C325 C 0.78955 0.91317 0.48934
 C326 C 0.80973 0.92831 0.49416
 C327 C 0.81410 0.90906 0.53139
 C328 C 0.75638 0.82760 0.46977
 C329 C 0.75949 0.81248 0.44927
 C330 C 0.76164 0.84704 0.42525
 C331 C 0.75876 0.86150 0.44608
 N332 N 0.75591 0.85206 0.46837
 H333 H 0.78802 0.88174 0.53914
 H334 H 0.78030 0.91530 0.47266
 H335 H 0.81512 0.94100 0.48081
 H336 H 0.82264 0.90650 0.54837
 H337 H 0.75416 0.81932 0.48692
 H338 H 0.75932 0.79345 0.45176
 H339 H 0.76378 0.85603 0.40844
 H340 H 0.75862 0.88058 0.44410
 C341 C 0.73216 0.82134 0.56971
 C342 C 0.68278 0.93259 0.48429
 C343 C 0.76195 0.82173 0.42594
 C344 C 0.82305 0.92664 0.51552
 C345 C 0.00759 0.21505 0.41839
 H346 H 0.02283 0.22600 0.42239
 C347 C 0.00300 0.19455 0.43321
 H348 H 0.01510 0.19068 0.44760
 C349 C -0.02574 0.20667 0.39529
 H350 H -0.03752 0.21083 0.38075
 C351 C -0.03066 0.18597 0.40938
 H352 H -0.04606 0.17549 0.40475
 N353 N -0.00658 0.22119 0.39937
 C354 C 0.03811 0.26054 0.33747
 H355 H 0.02877 0.27714 0.33512
 C356 C 0.05793 0.25533 0.32193
 H357 H 0.06264 0.26815 0.30845
 C358 C 0.04286 0.22430 0.35690
 H359 H 0.03753 0.21165 0.37031
 C360 C 0.06262 0.21851 0.34183
 H361 H 0.07146 0.20181 0.34505
 Zn362 Zn -0.00014 0.25158 0.37702
 N363 N 0.03035 0.24510 0.35485
 C364 C 0.02531 0.29635 0.39613
 N365 N 0.00569 0.28222 0.39934
 C366 C -0.00916 0.28866 0.41774
 C367 C -0.00479 0.30906 0.43281
 C368 C 0.03007 0.31691 0.41050
 C369 C -0.03483 0.23969 0.33703
 C370 C -0.05376 0.24190 0.32012
 C371 C -0.06399 0.27919 0.33686
 C372 C -0.04464 0.27636 0.35358
 N373 N -0.02993 0.25677 0.35371
 H374 H 0.03764 0.29192 0.38212
 H375 H -0.02475 0.27800 0.42110
 H376 H -0.01741 0.31314 0.44667
 H377 H 0.04591 0.32701 0.40660
 H378 H -0.02382 0.22398 0.33649
 H379 H -0.05628 0.22743 0.30778
 H380 H -0.07451 0.29523 0.33758
 H381 H -0.04146 0.29031 0.36637
 C382 C 0.07088 0.23370 0.32331
 C383 C -0.01635 0.17891 0.42900
 C384 C -0.06910 0.26199 0.31908
 C385 C 0.01508 0.32428 0.42953
 C386 C -0.00854 0.71224 0.08429
 H387 H -0.02377 0.72335 0.08070
 C388 C -0.00433 0.69195 0.06911
 H389 H -0.01671 0.68834 0.05490
 C390 C 0.02522 0.70346 0.10662
 H391 H 0.03735 0.70744 0.12092
 C392 C 0.02978 0.68293 0.09216
 H393 H 0.04522 0.67233 0.09632
 N394 N 0.00603 0.71808 0.10310
 C395 C -0.03585 0.76083 0.16385
 H396 H -0.02529 0.77685 0.16423
 C397 C -0.05495 0.75841 0.18051
 H398 H -0.05810 0.77300 0.19255
 C399 C -0.04430 0.72351 0.14796
 H400 H -0.04044 0.70937 0.13557
 C401 C -0.06381 0.72046 0.16439
 H402 H -0.07383 0.70410 0.16388
 Zn403 Zn 0.00007 0.74861 0.12528
 N404 N -0.03018 0.74351 0.14771
 C405 C -0.02537 0.79248 0.10170
 N406 N -0.00516 0.77864 0.10234
 C407 C 0.01237 0.78465 0.08654
 C408 C 0.01000 0.80382 0.06992
 C409 C -0.02840 0.81199 0.08523
 C410 C 0.03900 0.73821 0.16377
 C411 C 0.05846 0.74308 0.17983
 C412 C 0.05990 0.78239 0.16471
 C413 C 0.04078 0.77677 0.14876
 N414 N 0.03002 0.75490 0.14823
 H415 H -0.03968 0.78841 0.11381
 H416 H 0.02859 0.77439 0.08649
 H417 H 0.02486 0.80727 0.05831
 H418 H -0.04493 0.82175 0.08547
 H419 H 0.03097 0.72079 0.16417
 H420 H 0.06425 0.72921 0.19177
 H421 H 0.06714 0.80014 0.16406
 H422 H 0.03434 0.79048 0.13699
 C423 C -0.06965 0.73787 0.18171
 C424 C 0.01506 0.67622 0.07272
 C425 C 0.06951 0.76572 0.18114
 C426 C -0.01075 0.81823 0.06829
 C427 C 0.48877 0.21351 0.58550
 H428 H 0.47200 0.22263 0.58358
 C429 C 0.49347 0.19319 0.57048
 H430 H 0.47996 0.18762 0.55803
 C431 C 0.52572 0.20947 0.60377
 H432 H 0.53888 0.21535 0.61642
 C433 C 0.53100 0.18923 0.58921
 H434 H 0.54816 0.18099 0.59154
 N435 N 0.50466 0.22162 0.60229
 C436 C 0.46057 0.26002 0.66486
 H437 H 0.47027 0.27634 0.66761
 C438 C 0.44030 0.25512 0.67985
 H439 H 0.43531 0.26807 0.69311
 C440 C 0.45519 0.22425 0.64467
 H441 H 0.46056 0.21161 0.63127
 C442 C 0.43488 0.21884 0.65909
 H443 H 0.42598 0.20216 0.65590
 Zn444 Zn 0.49831 0.25158 0.62503
 N445 N 0.46804 0.24480 0.64717
 C446 C 0.47096 0.29448 0.60521
 N447 N 0.49187 0.28216 0.60307
 C448 C 0.50731 0.29025 0.58585
 C449 C 0.50195 0.31017 0.57050
 C450 C 0.46505 0.31435 0.59037
 C451 C 0.53346 0.23918 0.66429
 C452 C 0.55301 0.24074 0.68055
 C453 C 0.56297 0.27841 0.66454
 C454 C 0.54302 0.27621 0.64844
 N455 N 0.52833 0.25660 0.64807
 H456 H 0.45832 0.28890 0.61852
 H457 H 0.52400 0.28109 0.58347
 H458 H 0.51477 0.31514 0.55711
 H459 H 0.44830 0.32303 0.59372
 H460 H 0.52224 0.22362 0.66489
 H461 H 0.55525 0.22624 0.69288
 H462 H 0.57391 0.29415 0.66352
 H463 H 0.53958 0.29049 0.63610
 C464 C 0.42638 0.23423 0.67729
 C465 C 0.51490 0.17996 0.57202
 C466 C 0.56895 0.26040 0.68123
 C467 C 0.48020 0.32292 0.57196
 C468 C 0.50907 0.71101 0.91674
 H469 H 0.52487 0.72133 0.92020
 C470 C 0.50424 0.69063 0.93165
 H471 H 0.51674 0.68620 0.94552
 C472 C 0.47448 0.70421 0.89501
 H473 H 0.46227 0.70901 0.88102
 C474 C 0.46924 0.68368 0.90924
 H475 H 0.45316 0.67400 0.90528
 N476 N 0.49439 0.71788 0.89837
 C477 C 0.54018 0.76164 0.84099
 H478 H 0.53163 0.77875 0.84249
 C479 C 0.56037 0.75939 0.82558
 H480 H 0.56613 0.77503 0.81608
 C481 C 0.54283 0.72156 0.85113
 H482 H 0.53642 0.70634 0.86091
 C483 C 0.56301 0.71851 0.83551
 H484 H 0.57126 0.70122 0.83437
 Zn485 Zn 0.50100 0.74852 0.87645
 N486 N 0.53139 0.74303 0.85405
 C487 C 0.52800 0.79074 0.90126
 N488 N 0.50678 0.77861 0.89944
 C489 C 0.48869 0.78673 0.91363
 C490 C 0.49113 0.80699 0.92894
 C491 C 0.53126 0.81099 0.91676
 C492 C 0.46332 0.73971 0.83634
 C493 C 0.44297 0.74435 0.82133
 C494 C 0.43749 0.78085 0.84164
 C495 C 0.45791 0.77572 0.85604
 N496 N 0.47082 0.75516 0.85383
 H497 H 0.54285 0.78492 0.89059
 H498 H 0.47180 0.77764 0.91308
 H499 H 0.47585 0.81226 0.93929
 H500 H 0.54830 0.81982 0.91693
 H501 H 0.47301 0.72335 0.83380
 H502 H 0.43795 0.73121 0.80828
 H503 H 0.42845 0.79750 0.84468
 H504 H 0.46325 0.78861 0.86919
 C505 C 0.57279 0.73762 0.82223
 C506 C 0.48405 0.67588 0.92823
 C507 C 0.42894 0.76521 0.82367
 C508 C 0.51262 0.82016 0.93109
 C509 C 0.15577 0.22681 0.25315
 C510 C 0.14780 0.20461 0.25917
 C511 C 0.15858 0.18421 0.24994
 C512 C 0.17821 0.18635 0.23419
 C513 C 0.18795 0.20867 0.22718
 C514 C 0.17584 0.22942 0.23699
 O515 O 0.14266 0.24385 0.26410
 C516 C 0.12617 0.23211 0.27723
 C517 C 0.12873 0.20804 0.27468
 C518 C 0.11363 0.19229 0.28650
 C519 C 0.09542 0.20119 0.30156
 C520 C 0.09154 0.22594 0.30563
 C521 C 0.10757 0.24164 0.29258
 H522 H 0.15196 0.16683 0.25469
 H523 H 0.18569 0.17016 0.22713
 H524 H 0.18191 0.24703 0.23243
 H525 H 0.11571 0.17335 0.28413
 H526 H 0.08395 0.18825 0.30982
 H527 H 0.10585 0.26065 0.29451
 C528 C 0.65496 0.71135 0.75382
 C529 C 0.65850 0.73350 0.76335
 C530 C 0.67811 0.74730 0.75679
 C531 C 0.69454 0.73847 0.73976
 C532 C 0.69218 0.71579 0.72889
 C533 C 0.67164 0.70195 0.73639
 O534 O 0.63475 0.70145 0.76245
 C535 C 0.62543 0.71767 0.77767
 C536 C 0.63939 0.73760 0.77864
 C537 C 0.63304 0.75696 0.79283
 C538 C 0.61180 0.75614 0.80645
 C539 C 0.59618 0.73618 0.80661
 C540 C 0.60372 0.71634 0.79173
 H541 H 0.68057 0.76478 0.76433
 H542 H 0.70915 0.74977 0.73451
 H543 H 0.66830 0.68485 0.72836
 H544 H 0.64421 0.77256 0.79341
 H545 H 0.60772 0.77141 0.81734
 H546 H 0.59284 0.70057 0.79076
 C547 C 0.34759 0.77633 0.75008
 C548 C 0.34140 0.78632 0.77139
 C549 C 0.31943 0.79744 0.77440
 C550 C 0.30318 0.79865 0.75515
 C551 C 0.30802 0.78907 0.73205
 C552 C 0.33123 0.77740 0.73000
 O553 O 0.36964 0.76660 0.75133
 C554 C 0.37737 0.77058 0.77384
 C555 C 0.36059 0.78269 0.78667
 C556 C 0.36468 0.78900 0.81032
 C557 C 0.38657 0.78298 0.82136
 C558 C 0.40515 0.77048 0.80947
 C559 C 0.39988 0.76402 0.78490
 H560 H 0.31475 0.80508 0.79138
 H561 H 0.28625 0.80703 0.75856
 H562 H 0.33674 0.76999 0.71318
 H563 H 0.35123 0.79847 0.82023
 H564 H 0.38877 0.78796 0.83975
 H565 H 0.41300 0.75454 0.77460
 C566 C -0.15755 0.28375 0.25707
 C567 C -0.14131 0.27071 0.24449
 C568 C -0.14583 0.26383 0.22104
 C569 C -0.16754 0.27043 0.20991
 C570 C -0.18546 0.28405 0.22156
 C571 C -0.17992 0.29064 0.24606
 O572 O -0.14948 0.28834 0.27933
 C573 C -0.12776 0.27799 0.28073
 C574 C -0.12211 0.26696 0.25977
 C575 C -0.10053 0.25500 0.25706
 C576 C -0.08418 0.25404 0.27627
 C577 C -0.08856 0.26478 0.29883
 C578 C -0.11117 0.27733 0.30063
 H579 H -0.13284 0.25354 0.21135
 H580 H -0.17018 0.26491 0.19174
 H581 H -0.19267 0.30062 0.25635
 H582 H -0.09624 0.24653 0.24037
 H583 H -0.06759 0.24494 0.27313
 H584 H -0.11590 0.28601 0.31708
 C585 C -0.15808 0.71478 0.24290
 C586 C -0.14211 0.72801 0.25564
 C587 C -0.14685 0.73477 0.27906
 C588 C -0.16853 0.72785 0.29000
 C589 C -0.18619 0.71405 0.27815
 C590 C -0.18043 0.70760 0.25369
 O591 O -0.14980 0.71035 0.22071
 C592 C -0.12822 0.72100 0.21951
 C593 C -0.12288 0.73207 0.24053
 C594 C -0.10153 0.74437 0.24343
 C595 C -0.08508 0.74563 0.22434
 C596 C -0.08916 0.73481 0.20177
 C597 C -0.11153 0.72192 0.19976
 H598 H -0.13406 0.74519 0.28887
 H599 H -0.17135 0.73328 0.30816
 H600 H -0.19299 0.69751 0.24328
 H601 H -0.09750 0.75289 0.26016
 H602 H -0.06866 0.75501 0.22756
 H603 H -0.11599 0.71319 0.18326
 C604 C 0.34615 0.22328 0.75182
 C605 C 0.33997 0.21228 0.73101
 C606 C 0.31823 0.20046 0.72875
 C607 C 0.30216 0.19979 0.74824
 C608 C 0.30704 0.21079 0.77055
 C609 C 0.33004 0.22272 0.77203
 O610 O 0.36788 0.23355 0.75000
 C611 C 0.37548 0.22891 0.72761
 C612 C 0.35892 0.21587 0.71540
 C613 C 0.36295 0.20890 0.69193
 C614 C 0.38453 0.21523 0.68046
 C615 C 0.40287 0.22862 0.69177
 C616 C 0.39766 0.23573 0.71614
 H617 H 0.31361 0.19187 0.71221
 H618 H 0.28551 0.19066 0.74563
 H619 H 0.33537 0.23115 0.78841
 H620 H 0.34967 0.19875 0.68247
 H621 H 0.38664 0.20977 0.66220
 H622 H 0.41058 0.24593 0.72599
 C623 C 0.65350 0.28563 0.74732
 C624 C 0.65088 0.26149 0.74572
 C625 C 0.66602 0.24611 0.75807
 C626 C 0.68451 0.25551 0.77252
 C627 C 0.68853 0.28038 0.77530
 C628 C 0.67229 0.29563 0.76201
 O629 O 0.63701 0.29699 0.73388
 C630 C 0.62379 0.27964 0.72362
 C631 C 0.63173 0.25764 0.73040
 C632 C 0.62091 0.23702 0.72186
 C633 C 0.60126 0.23870 0.70610
 C634 C 0.59143 0.26080 0.69836
 C635 C 0.60363 0.28179 0.70748
 H636 H 0.66382 0.22711 0.75649
 H637 H 0.69616 0.24302 0.78125
 H638 H 0.67424 0.31469 0.76301
 H639 H 0.62754 0.21978 0.72712
 H640 H 0.59398 0.22220 0.69963
 H641 H 0.59748 0.29925 0.70245
 C642 C 0.15505 0.77332 0.25016
 C643 C 0.14211 0.79397 0.25020
 C644 C 0.14910 0.81343 0.26400
 C645 C 0.17008 0.81204 0.27797
 C646 C 0.18470 0.79143 0.27883
 C647 C 0.17662 0.77151 0.26439
 O648 O 0.14514 0.75707 0.23533
 C649 C 0.12566 0.76773 0.22591
 C650 C 0.12325 0.79040 0.23447
 C651 C 0.10469 0.80503 0.22684
 C652 C 0.08802 0.79644 0.20992
 C653 C 0.08902 0.77310 0.20009
 C654 C 0.10856 0.75845 0.20880
 H655 H 0.13880 0.82962 0.26376
 H656 H 0.17540 0.82757 0.28793
 H657 H 0.18717 0.75550 0.26361
 H658 H 0.10304 0.82288 0.23372
 H659 H 0.07385 0.80827 0.20470
 H660 H 0.11065 0.74057 0.20217
 C661 C 0.25167 0.15600 0.22745
 C662 C 0.26029 0.15028 0.20544
 C663 C 0.25317 0.16280 0.18523
 C664 C 0.23668 0.18180 0.18735
 C665 C 0.22653 0.18891 0.20946
 C666 C 0.23465 0.17531 0.23003
 O667 O 0.26117 0.14167 0.24437
 C668 C 0.27599 0.12666 0.23270
 C669 C 0.27591 0.13133 0.20882
 C670 C 0.28969 0.11796 0.19313
 C671 C 0.30421 0.09931 0.20193
 C672 C 0.30588 0.09336 0.22655
 C673 C 0.29084 0.10765 0.24214
 H674 H 0.26019 0.15808 0.16800
 H675 H 0.23170 0.19072 0.17120
 H676 H 0.22810 0.17973 0.24751
 H677 H 0.28919 0.12168 0.17430
 H678 H 0.31393 0.08917 0.18891
 H679 H 0.29086 0.10429 0.26102
 C680 C 0.75029 0.65601 0.72610
 C681 C 0.75548 0.64743 0.70391
 C682 C 0.74570 0.65773 0.68355
 C683 C 0.73026 0.67756 0.68569
 C684 C 0.72408 0.68793 0.70796
 C685 C 0.73443 0.67634 0.72872
 O686 O 0.76175 0.64324 0.74307
 C687 C 0.77433 0.62637 0.73128
 C688 C 0.77095 0.62836 0.70725
 C689 C 0.78224 0.61297 0.69142
 C690 C 0.79734 0.59477 0.70019
 C691 C 0.80170 0.59098 0.72490
 C692 C 0.78979 0.60780 0.74068
 H693 H 0.74986 0.65064 0.66620
 H694 H 0.72293 0.68484 0.66952
 H695 H 0.73061 0.68312 0.74625
 H696 H 0.77960 0.61495 0.67251
 H697 H 0.80602 0.58371 0.68716
 H698 H 0.79219 0.60631 0.75966
 C699 C 0.75191 0.34484 0.78593
 C700 C 0.75410 0.34667 0.76176
 C701 C 0.74216 0.33102 0.74657
 C702 C 0.72751 0.31283 0.75621
 C703 C 0.72419 0.30959 0.78111
 C704 C 0.73708 0.32632 0.79617
 O705 O 0.76499 0.36176 0.79706
 C706 C 0.77562 0.37445 0.77954
 C707 C 0.76945 0.36573 0.75766
 C708 C 0.77851 0.37581 0.73690
 C709 C 0.79417 0.39555 0.73831
 C710 C 0.80123 0.40624 0.76024
 C711 C 0.79160 0.39476 0.78140
 H712 H 0.74418 0.33262 0.72755
 H713 H 0.71904 0.30077 0.74393
 H714 H 0.73563 0.32493 0.81525
 H715 H 0.77375 0.36854 0.71978
 H716 H 0.80109 0.40219 0.72173
 H717 H 0.79612 0.40155 0.79876
 C718 C 0.25367 -0.15313 0.28747
 C719 C 0.25448 -0.15003 0.26334
 C720 C 0.24128 -0.16453 0.24807
 C721 C 0.22669 -0.18279 0.25760
 C722 C 0.22482 -0.18734 0.28242
 C723 C 0.23899 -0.17184 0.29760
 O724 O 0.26763 -0.13697 0.29867
 C725 C 0.27741 -0.12352 0.28123
 C726 C 0.26983 -0.13098 0.25933
 C727 C 0.27769 -0.11985 0.23862
 C728 C 0.29364 -0.10037 0.24011
 C729 C 0.30217 -0.09099 0.26210
 C730 C 0.29372 -0.10350 0.28318
 H731 H 0.24209 -0.16182 0.22908
 H732 H 0.21676 -0.19369 0.24531
 H733 H 0.23838 -0.17408 0.31665
 H734 H 0.27178 -0.12613 0.22146
 H735 H 0.29960 -0.09286 0.22352
 H736 H 0.29937 -0.09769 0.30057
 C737 C 0.24131 -0.15991 0.71513
 C738 C 0.25498 -0.14066 0.72116
 C739 C 0.27965 -0.14239 0.72246
 C740 C 0.29091 -0.16450 0.71820
 C741 C 0.27830 -0.18593 0.71279
 C742 C 0.25254 -0.18297 0.71057
 O743 O 0.21790 -0.15389 0.71515
 C744 C 0.21700 -0.13053 0.72135
 C745 C 0.23937 -0.12185 0.72534
 C746 C 0.24293 -0.09839 0.73271
 C747 C 0.22312 -0.08312 0.73620
 C748 C 0.19921 -0.09036 0.73220
 C749 C 0.19642 -0.11497 0.72435
 H750 H 0.29017 -0.12700 0.72704
 H751 H 0.31005 -0.16502 0.71973
 H752 H 0.24152 -0.19823 0.70686
 H753 H 0.26070 -0.09190 0.73595
 H754 H 0.22662 -0.06514 0.74193
 H755 H 0.17882 -0.12192 0.72116
 C756 C 0.74268 0.34023 0.21599
 C757 C 0.75656 0.35850 0.22413
 C758 C 0.78111 0.35572 0.22673
 C759 C 0.79196 0.33360 0.22114
 C760 C 0.77891 0.31338 0.21321
 C761 C 0.75342 0.31732 0.21031
 O762 O 0.71956 0.34704 0.21462
 C763 C 0.71895 0.36998 0.22210
 C764 C 0.74126 0.37763 0.22818
 C765 C 0.74497 0.40066 0.23670
 C766 C 0.72543 0.41646 0.23929
 C767 C 0.70159 0.41015 0.23340
 C768 C 0.69869 0.38603 0.22429
 H769 H 0.79187 0.37039 0.23286
 H770 H 0.81102 0.33243 0.22291
 H771 H 0.74225 0.30298 0.20416
 H772 H 0.76266 0.40645 0.24140
 H773 H 0.72918 0.43413 0.24575
 H774 H 0.68120 0.37980 0.21947
 C775 C 0.74221 0.65751 0.28337
 C776 C 0.75618 0.63931 0.27521
 C777 C 0.78071 0.64219 0.27258
 C778 C 0.79146 0.66435 0.27818
 C779 C 0.77829 0.68449 0.28614
 C780 C 0.75284 0.68044 0.28905
 O781 O 0.71914 0.65061 0.28476
 C782 C 0.71864 0.62768 0.27728
 C783 C 0.74097 0.62012 0.27118
 C784 C 0.74479 0.59711 0.26266
 C785 C 0.72531 0.58125 0.26010
 C786 C 0.70146 0.58748 0.26600
 C787 C 0.69845 0.61157 0.27510
 H788 H 0.79153 0.62757 0.26645
 H789 H 0.81051 0.66562 0.27642
 H790 H 0.74161 0.69471 0.29524
 H791 H 0.76250 0.59139 0.25796
 H792 H 0.72912 0.56358 0.25366
 H793 H 0.68094 0.61774 0.27993
 C794 C 0.24035 0.15983 0.78048
 C795 C 0.25149 0.14079 0.79080
 C796 C 0.27362 0.14341 0.80195
 C797 C 0.28491 0.16606 0.80243
 C798 C 0.27460 0.18664 0.79209
 C799 C 0.25157 0.18311 0.78083
 O800 O 0.21942 0.15322 0.77052
 C801 C 0.21733 0.12957 0.77464
 C802 C 0.23664 0.12123 0.78694
 C803 C 0.23852 0.09718 0.79283
 C804 C 0.22030 0.08105 0.78599
 C805 C 0.19959 0.08810 0.77315
 C806 C 0.19833 0.11340 0.76767
 H807 H 0.28227 0.12822 0.80988
 H808 H 0.30224 0.16750 0.81058
 H809 H 0.24298 0.19786 0.77206
 H810 H 0.25381 0.09081 0.80255
 H811 H 0.22241 0.06270 0.79118
 H812 H 0.18328 0.12022 0.75793
 C813 C 0.21420 0.25004 0.15366
 C814 C 0.22545 0.26938 0.16327
 C815 C 0.23069 0.27031 0.18763
 C816 C 0.22456 0.25084 0.20263
 C817 C 0.21293 0.23016 0.19401
 C818 C 0.20748 0.23021 0.16871
 O819 O 0.21124 0.25263 0.12990
 C820 C 0.22075 0.27404 0.12441
 C821 C 0.22959 0.28495 0.14432
 C822 C 0.24027 0.30733 0.14283
 C823 C 0.24190 0.31906 0.12049
 C824 C 0.23311 0.30908 0.09887
 C825 C 0.22243 0.28562 0.10134
 H826 H 0.23966 0.28561 0.19496
 H827 H 0.22929 0.25172 0.22122
 H828 H 0.19865 0.21508 0.16089
 H829 H 0.24732 0.31570 0.15860
 H830 H 0.25061 0.33613 0.12019
 H831 H 0.21536 0.27677 0.08586
 C832 C 0.72542 0.75124 0.65437
 C833 C 0.70324 0.75884 0.64782
 C834 C 0.68293 0.75115 0.65992
 C835 C 0.68519 0.73522 0.67937
 C836 C 0.70750 0.72631 0.68733
 C837 C 0.72813 0.73479 0.67413
 O838 O 0.74237 0.76111 0.64036
 C839 C 0.73059 0.77514 0.62470
 C840 C 0.70659 0.77420 0.62866
 C841 C 0.69080 0.78710 0.61454
 C842 C 0.69962 0.80161 0.59588
 C843 C 0.72434 0.80411 0.59066
 C844 C 0.74003 0.78997 0.60570
 H845 H 0.66558 0.75734 0.65455
 H846 H 0.66914 0.72958 0.68827
 H847 H 0.74569 0.72900 0.67922
 H848 H 0.67190 0.78595 0.61769
 H849 H 0.68657 0.81065 0.58516
 H850 H 0.75900 0.79067 0.60293
 C851 C 0.78020 0.74551 0.34877
 C852 C 0.76803 0.76434 0.33924
 C853 C 0.76204 0.76479 0.31506
 C854 C 0.76885 0.74561 0.30002
 C855 C 0.78155 0.72552 0.30851
 C856 C 0.78725 0.72574 0.33373
 O857 O 0.78438 0.74891 0.37224
 C858 C 0.77467 0.77028 0.37761
 C859 C 0.76455 0.78039 0.35789
 C860 C 0.75375 0.80272 0.35917
 C861 C 0.75325 0.81522 0.38112
 C862 C 0.76334 0.80610 0.40253
 C863 C 0.77415 0.78268 0.40031
 H864 H 0.75259 0.77982 0.30776
 H865 H 0.76462 0.74666 0.28133
 H866 H 0.79744 0.71133 0.34124
 H867 H 0.74580 0.81048 0.34352
 H868 H 0.74441 0.83225 0.38132
 H869 H 0.78224 0.77449 0.41566
 C870 C 0.27583 0.24693 -0.15153
 C871 C 0.28246 0.26902 -0.15935
 C872 C 0.29036 0.27249 -0.18264
 C873 C 0.29184 0.25289 -0.19849
 C874 C 0.28608 0.22915 -0.19174
 C875 C 0.27745 0.22652 -0.16742
 O876 O 0.26846 0.24786 -0.12858
 C877 C 0.27059 0.27094 -0.12188
 C878 C 0.27923 0.28446 -0.14019
 C879 C 0.28325 0.30881 -0.13730
 C880 C 0.27848 0.31981 -0.11507
 C881 C 0.26936 0.30723 -0.09505
 C882 C 0.26519 0.28195 -0.09905
 H883 H 0.29517 0.29007 -0.18866
 H884 H 0.29745 0.25651 -0.21647
 H885 H 0.27243 0.20917 -0.16095
 H886 H 0.29007 0.31924 -0.15189
 H887 H 0.28169 0.33868 -0.11367
 H888 H 0.25837 0.27112 -0.08476
 C889 C 0.71406 0.24602 -0.15446
 C890 C 0.73826 0.24412 -0.15268
 C891 C 0.75325 0.25635 -0.16829
 C892 C 0.74339 0.27100 -0.18638
 C893 C 0.71844 0.27404 -0.18956
 C894 C 0.70359 0.26088 -0.17285
 O895 O 0.70313 0.23266 -0.13761
 C896 C 0.72081 0.22215 -0.12503
 C897 C 0.74260 0.22869 -0.13373
 C898 C 0.76349 0.21986 -0.12370
 C899 C 0.76232 0.20405 -0.10405
 C900 C 0.74050 0.19656 -0.09344
 C901 C 0.71920 0.20598 -0.10484
 H902 H 0.77230 0.25457 -0.16674
 H903 H 0.75557 0.27969 -0.19838
 H904 H 0.68449 0.26213 -0.17415
 H905 H 0.78054 0.22492 -0.13093
 H906 H 0.77900 0.19734 -0.09742
 H907 H 0.70190 0.20116 -0.09808
 C908 C 0.21155 0.74901 0.34582
 C909 C 0.23563 0.74554 0.34690
 C910 C 0.25089 0.75629 0.33052
 C911 C 0.24147 0.77125 0.31252
 C912 C 0.21673 0.77610 0.31012
 C913 C 0.20147 0.76421 0.32740
 O914 O 0.20041 0.73695 0.36351
 C915 C 0.21784 0.72574 0.37587
 C916 C 0.23966 0.73056 0.36624
 C917 C 0.26036 0.72099 0.37601
 C918 C 0.25896 0.70613 0.39636
 C919 C 0.23712 0.70029 0.40786
 C920 C 0.21598 0.71045 0.39674
 H921 H 0.26982 0.75330 0.33157
 H922 H 0.25386 0.77911 0.30015
 H923 H 0.18251 0.76702 0.32681
 H924 H 0.27742 0.72481 0.36809
 H925 H 0.27543 0.69882 0.40291
 H926 H 0.19869 0.70689 0.40425
 C927 C 0.27524 0.75569 0.65617
 C928 C 0.28257 0.73361 0.66334
 C929 C 0.29134 0.72987 0.68621
 C930 C 0.29320 0.74918 0.70231
 C931 C 0.28693 0.77314 0.69639
 C932 C 0.27701 0.77591 0.67245
 O933 O 0.26723 0.75490 0.63338
 C934 C 0.26966 0.73194 0.62622
 C935 C 0.27907 0.71837 0.64408
 C936 C 0.28348 0.69415 0.64080
 C937 C 0.27832 0.68326 0.61861
 C938 C 0.26852 0.69581 0.59891
 C939 C 0.26394 0.72102 0.60334
 H940 H 0.29659 0.71225 0.69174
 H941 H 0.29930 0.74493 0.71998
 H942 H 0.27158 0.79327 0.66636
 H943 H 0.29087 0.68369 0.65511
 H944 H 0.28181 0.66445 0.61704
 H945 H 0.25655 0.73187 0.58935
 C946 C 0.78112 0.25239 0.15046
 C947 C 0.76939 0.23329 0.16001
 C948 C 0.76371 0.23261 0.18426
 C949 C 0.77035 0.25183 0.19936
 C950 C 0.78257 0.27223 0.19089
 C951 C 0.78800 0.27222 0.16558
 O952 O 0.78504 0.24919 0.12689
 C953 C 0.77562 0.22767 0.12148
 C954 C 0.76593 0.21728 0.14128
 C955 C 0.75547 0.19479 0.13996
 C956 C 0.75486 0.18239 0.11792
 C957 C 0.76451 0.19176 0.09641
 C958 C 0.77498 0.21537 0.09868
 H959 H 0.75461 0.21738 0.19159
 H960 H 0.76633 0.25058 0.21809
 H961 H 0.79783 0.28686 0.15803
 H962 H 0.74785 0.18680 0.15566
 H963 H 0.74627 0.16524 0.11777
 H964 H 0.78274 0.22379 0.08328
 C965 C 0.47319 0.40817 0.50239
 C966 C 0.45096 0.40058 0.50879
 C967 C 0.43058 0.41173 0.49990
 C968 C 0.43279 0.43122 0.48395
 C969 C 0.45517 0.44036 0.47638
 C970 C 0.47585 0.42809 0.48611
 O971 O 0.49022 0.39478 0.51297
 C972 C 0.47847 0.37846 0.52627
 C973 C 0.45439 0.38140 0.52418
 C974 C 0.43865 0.36644 0.53616
 C975 C 0.44757 0.34800 0.55093
 C976 C 0.47235 0.34378 0.55456
 C977 C 0.48802 0.35966 0.54134
 H978 H 0.41318 0.40543 0.50498
 H979 H 0.41662 0.43890 0.47704
 H980 H 0.49347 0.43381 0.48112
 H981 H 0.41970 0.36877 0.53413
 H982 H 0.43461 0.33664 0.55929
 H983 H 0.50703 0.35768 0.54291
 C984 C -0.03448 0.90651 0.00672
 C985 C -0.01981 0.89131 -0.00532
 C986 C -0.01183 0.89666 -0.02818
 C987 C -0.01898 0.91814 -0.03932
 C988 C -0.03441 0.93521 -0.02836
 C989 C -0.04205 0.92868 -0.00430
 O990 O -0.03976 0.89777 0.02858
 C991 C -0.02820 0.87666 0.03021
 C992 C -0.01575 0.87209 0.00980
 C993 C -0.00239 0.85133 0.00735
 C994 C -0.00148 0.83466 0.02627
 C995 C -0.01362 0.83794 0.04830
 C996 C -0.02759 0.85974 0.04983
 H997 H -0.00027 0.88446 -0.03745
 H998 H -0.01261 0.92111 -0.05718
 H999 H -0.05297 0.94069 0.00592
 H1000 H 0.00718 0.84789 -0.00893
 H1001 H 0.00871 0.81869 0.02329
 H1002 H -0.03738 0.86361 0.06587
 C1003 C 0.02634 0.59648 -0.00238
 C1004 C 0.03258 0.58839 0.01972
 C1005 C 0.04027 0.56501 0.02308
 C1006 C 0.04192 0.54935 0.00335
 C1007 C 0.03651 0.55638 -0.02039
 C1008 C 0.02810 0.58078 -0.02290
 O1009 O 0.01915 0.61948 -0.00135
 C1010 C 0.02099 0.62594 0.02181
 C1011 C 0.02926 0.60742 0.03530
 C1012 C 0.03290 0.61003 0.05972
 C1013 C 0.02812 0.63218 0.07087
 C1014 C 0.01942 0.65241 0.05832
 C1015 C 0.01563 0.64870 0.03295
 H1016 H 0.04479 0.55879 0.04067
 H1017 H 0.04737 0.53129 0.00684
 H1018 H 0.02335 0.58745 -0.04025
 H1019 H 0.03940 0.59527 0.07013
 H1020 H 0.03100 0.63334 0.08980
 H1021 H 0.00913 0.66316 0.02214
 C1022 C 0.52493 0.09816 0.49876
 C1023 C 0.53746 0.09332 0.51908
 C1024 C 0.55070 0.07250 0.52137
 C1025 C 0.55149 0.05603 0.50234
 C1026 C 0.53923 0.05950 0.48041
 C1027 C 0.52535 0.08137 0.47897
 O1028 O 0.51363 0.11941 0.50065
 C1029 C 0.51922 0.12796 0.52253
 C1030 C 0.53379 0.11246 0.53433
 C1031 C 0.54198 0.11740 0.55721
 C1032 C 0.53534 0.13891 0.56855
 C1033 C 0.52050 0.15635 0.55765
 C1034 C 0.51211 0.15016 0.53388
 H1035 H 0.56042 0.06896 0.53754
 H1036 H 0.56193 0.04016 0.50499
 H1037 H 0.51564 0.08542 0.46293
 H1038 H 0.55331 0.10486 0.56632
 H1039 H 0.54175 0.14165 0.58640
 H1040 H 0.50074 0.16234 0.52438
 C1041 C -0.02918 0.09799 0.50263
 C1042 C -0.03526 0.09029 0.48035
 C1043 C -0.04285 0.06693 0.47655
 C1044 C -0.04443 0.05084 0.49598
 C1045 C -0.03918 0.05746 0.51990
 C1046 C -0.03101 0.08192 0.52284
 O1047 O -0.02182 0.12095 0.50206
 C1048 C -0.02339 0.12781 0.47900
 C1049 C -0.03165 0.10957 0.46512
 C1050 C -0.03491 0.11261 0.44069
 C1051 C -0.02979 0.13491 0.42997
 C1052 C -0.02110 0.15488 0.44295
 C1053 C -0.01769 0.15071 0.46831
 H1054 H -0.04714 0.06098 0.45881
 H1055 H -0.04939 0.03274 0.49207
 H1056 H -0.02613 0.08823 0.54028
 H1057 H -0.04137 0.09807 0.42995
 H1058 H -0.03238 0.13639 0.41102
 H1059 H -0.01120 0.16493 0.47944
 C1060 C 0.47185 0.59549 1.00260
 C1061 C 0.46328 0.58842 0.98097
 C1062 C 0.45364 0.56574 0.97790
 C1063 C 0.45271 0.54961 0.99735
 C1064 C 0.46092 0.55540 1.02076
 C1065 C 0.47077 0.57944 1.02285
 O1066 O 0.48071 0.61789 1.00142
 C1067 C 0.47761 0.62502 0.97860
 C1068 C 0.46690 0.60752 0.96549
 C1069 C 0.46180 0.61094 0.94143
 C1070 C 0.46761 0.63288 0.93031
 C1071 C 0.47873 0.65213 0.94251
 C1072 C 0.48396 0.64755 0.96748
 H1073 H 0.44732 0.56026 0.96062
 H1074 H 0.44637 0.53193 0.99352
 H1075 H 0.47729 0.58565 1.03979
 H1076 H 0.45346 0.59695 0.93127
 H1077 H 0.46359 0.63459 0.91163
 H1078 H 0.49238 0.66118 0.97804
 C1079 C 0.53950 0.90357 0.99792
 C1080 C 0.51695 0.90650 0.98917
 C1081 C 0.50297 0.92588 0.99603
 C1082 C 0.51202 0.94269 1.01257
 C1083 C 0.53510 0.94095 1.02271
 C1084 C 0.54913 0.92063 1.01489
 O1085 O 0.54955 0.88350 0.98908
 C1086 C 0.53300 0.87366 0.97454
 C1087 C 0.51272 0.88715 0.97420
 C1088 C 0.49299 0.88019 0.96082
 C1089 C 0.49379 0.85883 0.94736
 C1090 C 0.51410 0.84371 0.94652
 C1091 C 0.53431 0.85186 0.96059
 H1092 H 0.48518 0.92788 0.98908
 H1093 H 0.50057 0.95709 1.01805
 H1094 H 0.56657 0.91774 1.02234
 H1095 H 0.47711 0.89098 0.96075
 H1096 H 0.47821 0.85426 0.93713
 H1097 H 0.55037 0.84137 0.96102
 C1098 C 0.02653 0.40510 0.50383
 C1099 C 0.03416 0.41236 0.48190
 C1100 C 0.04290 0.43531 0.47840
 C1101 C 0.04440 0.45136 0.49784
 C1102 C 0.03804 0.44514 0.52168
 C1103 C 0.02803 0.42123 0.52410
 O1104 O 0.01833 0.38241 0.50289
 C1105 C 0.02094 0.37534 0.47995
 C1106 C 0.03064 0.39318 0.46653
 C1107 C 0.03519 0.38994 0.44233
 C1108 C 0.02990 0.36782 0.43135
 C1109 C 0.01980 0.34819 0.44380
 C1110 C 0.01507 0.35258 0.46895
 H1111 H 0.04817 0.44102 0.46085
 H1112 H 0.04988 0.46925 0.49373
 H1113 H 0.02209 0.41506 0.54127
 H1114 H 0.04279 0.40421 0.43197
 H1115 H 0.03351 0.36624 0.41257
 H1116 H 0.00746 0.33864 0.47971
 C1117 C 0.40409 0.50462 0.47592
 C1118 C 0.39650 0.51120 0.45376
 C1119 C 0.40757 0.50238 0.43330
 C1120 C 0.42698 0.48630 0.43536
 C1121 C 0.43613 0.47850 0.45767
 C1122 C 0.42394 0.48819 0.47844
 O1123 O 0.39079 0.51518 0.49305
 C1124 C 0.37452 0.52866 0.48142
 C1125 C 0.37740 0.52669 0.45732
 C1126 C 0.36247 0.53888 0.44170
 C1127 C 0.34413 0.55371 0.45075
 C1128 C 0.33995 0.55723 0.47556
 C1129 C 0.35581 0.54379 0.49110
 H1130 H 0.40128 0.50762 0.41594
 H1131 H 0.43459 0.47947 0.41913
 H1132 H 0.42966 0.48307 0.49602
 H1133 H 0.36475 0.53695 0.42274
 H1134 H 0.33280 0.56220 0.43785
 H1135 H 0.35388 0.54526 0.51013
 C1136 C 0.90992 0.00474 -0.03499
 C1137 C 0.89200 -0.00895 -0.02584
 C1138 C 0.89501 -0.03335 -0.02254
 C1139 C 0.91706 -0.04424 -0.02821
 C1140 C 0.93724 -0.03139 -0.03685
 C1141 C 0.93279 -0.00605 -0.04091
 O1142 O 0.90287 0.02777 -0.03688
 C1143 C 0.88014 0.02847 -0.02873
 C1144 C 0.87287 0.00632 -0.02173
 C1145 C 0.85014 0.00269 -0.01239
 C1146 C 0.83425 0.02216 -0.00992
 C1147 C 0.84014 0.04587 -0.01668
 C1148 C 0.86397 0.04868 -0.02663
 H1149 H 0.88051 -0.04400 -0.01584
 H1150 H 0.91796 -0.06329 -0.02625
 H1151 H 0.94684 0.00509 -0.04774
 H1152 H 0.84466 -0.01489 -0.00699
 H1153 H 0.81681 0.01843 -0.00283
 H1154 H 0.86990 0.06606 -0.03217
 C1155 C 0.59509 -0.00079 0.02439
 C1156 C 0.60401 0.00441 0.04645
 C1157 C 0.59392 -0.00530 0.06696
 C1158 C 0.57398 -0.02068 0.06512
 C1159 C 0.56330 -0.02691 0.04301
 C1160 C 0.57466 -0.01661 0.02207
 O1161 O 0.60763 0.01067 0.00723
 C1162 C 0.62469 0.02327 0.01876
 C1163 C 0.62305 0.01990 0.04281
 C1164 C 0.63877 0.03112 0.05839
 C1165 C 0.65669 0.04643 0.04935
 C1166 C 0.65970 0.05131 0.02464
 C1167 C 0.64304 0.03886 0.00908
 H1168 H 0.60123 -0.00112 0.08420
 H1169 H 0.56687 -0.02792 0.08140
 H1170 H 0.56763 -0.02043 0.00464
 H1171 H 0.63736 0.02814 0.07730
 H1172 H 0.66865 0.05427 0.06213
 H1173 H 0.64408 0.04146 -0.00989
 C1174 C 0.09627 0.50090 0.52700
 C1175 C 0.09123 0.52036 0.54066
 C1176 C 0.07060 0.52123 0.55445
 C1177 C 0.05438 0.50185 0.55422
 C1178 C 0.05764 0.48096 0.54000
 C1179 C 0.07994 0.48086 0.52646
 O1180 O 0.11727 0.50371 0.51549
 C1181 C 0.12550 0.52542 0.52197
 C1182 C 0.11005 0.53622 0.53738
 C1183 C 0.11486 0.55880 0.54650
 C1184 C 0.13593 0.57094 0.53963
 C1185 C 0.15295 0.56124 0.52351
 C1186 C 0.14727 0.53749 0.51480
 H1187 H 0.06696 0.53664 0.56531
 H1188 H 0.03875 0.50379 0.56511
 H1189 H 0.08505 0.46542 0.51632
 H1190 H 0.10262 0.56703 0.55879
 H1191 H 0.13901 0.58814 0.54752
 H1192 H 0.15921 0.52878 0.50257
 C1193 C 0.09687 0.50045 -0.02648
 C1194 C 0.09107 0.47981 -0.03798
 C1195 C 0.06953 0.47756 -0.05016
 C1196 C 0.05325 0.49688 -0.05065
 C1197 C 0.05771 0.51900 -0.03910
 C1198 C 0.08053 0.52048 -0.02684
 O1199 O 0.11848 0.49866 -0.01596
 C1200 C 0.12639 0.47646 -0.02095
 C1201 C 0.11015 0.46434 -0.03445
 C1202 C 0.11452 0.44106 -0.04184
 C1203 C 0.13614 0.42969 -0.03545
 C1204 C 0.15418 0.44093 -0.02160
 C1205 C 0.14861 0.46509 -0.01408
 H1206 H 0.06522 0.46116 -0.05916
 H1207 H 0.03679 0.49424 -0.06009
 H1208 H 0.08557 0.53674 -0.01799
 H1209 H 0.10148 0.43167 -0.05234
 H1210 H 0.13850 0.41156 -0.04123
 H1211 H 0.16128 0.47488 -0.00351
 C1212 C 0.59174 0.99262 0.47036
 C1213 C 0.61123 1.00494 0.46252
 C1214 C 0.60905 1.02807 0.45359
 C1215 C 0.58633 1.03912 0.45271
 C1216 C 0.56526 1.02755 0.46039
 C1217 C 0.56838 1.00355 0.46951
 O1218 O 0.59797 0.97085 0.47855
 C1219 C 0.62184 0.96941 0.47578
 C1220 C 0.63068 0.98993 0.46606
 C1221 C 0.65497 0.99256 0.46176
 C1222 C 0.67086 0.97383 0.46761
 C1223 C 0.66332 0.95193 0.47797
 C1224 C 0.63779 0.94995 0.48180
 H1225 H 0.62460 1.03762 0.44764
 H1226 H 0.58514 1.05714 0.44618
 H1227 H 0.55329 0.99389 0.47633
 H1228 H 0.66168 1.00877 0.45397
 H1229 H 0.68941 0.97655 0.46357
 H1230 H 0.63059 0.93396 0.48957
 C1231 C 0.90317 1.00144 0.52640
 C1232 C 0.90927 0.98069 0.53751
 C1233 C 0.93105 0.97838 0.54917
 C1234 C 0.94724 0.99775 0.54964
 C1235 C 0.94241 1.02032 0.53889
 C1236 C 0.91936 1.02163 0.52686
 O1237 O 0.88147 0.99954 0.51604
 C1238 C 0.87385 0.97715 0.52076
 C1239 C 0.89034 0.96504 0.53395
 C1240 C 0.88630 0.94160 0.54106
 C1241 C 0.86474 0.93007 0.53474
 C1242 C 0.84650 0.94125 0.52113
 C1243 C 0.85172 0.96558 0.51387
 H1244 H 0.93577 0.96175 0.55751
 H1245 H 0.96423 0.99436 0.55781
 H1246 H 0.91391 1.03793 0.51835
 H1247 H 0.89952 0.93224 0.55136
 H1248 H 0.86256 0.91187 0.54037
 H1249 H 0.83885 0.97534 0.50351
 C1250 C 0.40282 0.50118 0.02853
 C1251 C 0.40997 0.47953 0.03698
 C1252 C 0.43275 0.47641 0.04637
 C1253 C 0.44889 0.49585 0.04719
 C1254 C 0.44304 0.51928 0.03911
 C1255 C 0.41891 0.52142 0.02949
 O1256 O 0.38032 0.50003 0.01993
 C1257 C 0.37320 0.47721 0.02306
 C1258 C 0.39083 0.46407 0.03354
 C1259 C 0.38746 0.44000 0.03861
 C1260 C 0.36546 0.42889 0.03304
 C1261 C 0.34607 0.44112 0.02218
 C1262 C 0.35060 0.46611 0.01695
 H1263 H 0.43828 0.45911 0.05259
 H1264 H 0.46663 0.49199 0.05336
 H1265 H 0.41266 0.53839 0.02308
 H1266 H 0.40155 0.42981 0.04676
 H1267 H 0.36381 0.41020 0.03703
 H1268 H 0.33686 0.47669 0.00873
 C1269 C 0.50022 0.47667 0.40597
 C1270 C 0.50620 0.45431 0.39842
 C1271 C 0.49691 0.43413 0.40958
 C1272 C 0.48100 0.43666 0.42906
 C1273 C 0.47386 0.45919 0.43821
 C1274 C 0.48398 0.47968 0.42590
 O1275 O 0.51117 0.49347 0.39255
 C1276 C 0.52426 0.48142 0.37627
 C1277 C 0.52169 0.45740 0.37926
 C1278 C 0.53343 0.44139 0.36437
 C1279 C 0.54844 0.44997 0.34596
 C1280 C 0.55254 0.47466 0.34166
 C1281 C 0.53956 0.49063 0.35747
 H1282 H 0.50166 0.41662 0.40331
 H1283 H 0.47381 0.42064 0.43677
 H1284 H 0.47937 0.49739 0.43162
 H1285 H 0.53104 0.42249 0.36676
 H1286 H 0.55661 0.43682 0.33467
 H1287 H 0.54150 0.50960 0.35543
 C1288 C -0.00552 -0.02779 0.90218
 C1289 C 0.01644 -0.02381 0.91198
 C1290 C 0.01982 -0.02459 0.93657
 C1291 C 0.00040 -0.02999 0.95176
 C1292 C -0.02313 -0.03412 0.94326
 C1293 C -0.02589 -0.03265 0.91751
 O1294 O -0.00433 -0.02709 0.87809
 C1295 C 0.01874 -0.02246 0.87270
 C1296 C 0.03201 -0.02020 0.89299
 C1297 C 0.05635 -0.01537 0.89186
 C1298 C 0.06762 -0.01253 0.86943
 C1299 C 0.05533 -0.01460 0.84736
 C1300 C 0.03004 -0.01999 0.84949
 H1301 H 0.03729 -0.02173 0.94400
 H1302 H 0.00382 -0.03132 0.97061
 H1303 H -0.04293 -0.03649 0.90958
 H1304 H 0.06661 -0.01376 0.90800
 H1305 H 0.08649 -0.00903 0.86942
 H1306 H 0.01941 -0.02187 0.83362
 C1307 C -0.00236 0.02934 0.59807
 C1308 C 0.01980 0.03521 0.58990
 C1309 C 0.02316 0.04266 0.56639
 C1310 C 0.00342 0.04400 0.55059
 C1311 C -0.02025 0.03831 0.55763
 C1312 C -0.02280 0.03108 0.58243
 O1313 O -0.00150 0.02219 0.62105
 C1314 C 0.02165 0.02364 0.62750
 C1315 C 0.03531 0.03169 0.60900
 C1316 C 0.05981 0.03485 0.61172
 C1317 C 0.07077 0.02978 0.63393
 C1318 C 0.05796 0.02121 0.65405
 C1319 C 0.03257 0.01797 0.65024
 H1320 H 0.04076 0.04707 0.56012
 H1321 H 0.00686 0.04914 0.53243
 H1322 H -0.04015 0.02661 0.58928
 H1323 H 0.07039 0.04117 0.59701
 H1324 H 0.08975 0.03230 0.63521
 H1325 H 0.02158 0.01159 0.66462
 C1326 C 0.49743 0.52683 0.09698
 C1327 C 0.51910 0.53517 0.08975
 C1328 C 0.52220 0.54454 0.06696
 C1329 C 0.50271 0.54546 0.05089
 C1330 C 0.47925 0.53752 0.05684
 C1331 C 0.47714 0.52790 0.08097
 O1332 O 0.49861 0.51821 0.11947
 C1333 C 0.52147 0.52122 0.12650
 C1334 C 0.53461 0.53164 0.10884
 C1335 C 0.55872 0.53659 0.11212
 C1336 C 0.56986 0.53096 0.13409
 C1337 C 0.55764 0.52015 0.15350
 C1338 C 0.53261 0.51504 0.14906
 H1339 H 0.53951 0.55067 0.06137
 H1340 H 0.50653 0.55160 0.03313
 H1341 H 0.46017 0.52157 0.08728
 H1342 H 0.56889 0.54471 0.09801
 H1343 H 0.58857 0.53486 0.13570
 H1344 H 0.52204 0.50686 0.16282
 C1345 C 0.50013 -0.02487 0.09702
 C1346 C 0.49255 -0.04698 0.10383
 C1347 C 0.50026 -0.06741 0.09196
 C1348 C 0.51616 -0.06538 0.07245
 C1349 C 0.52500 -0.04315 0.06417
 C1350 C 0.51654 -0.02238 0.07717
 O1351 O 0.49023 -0.00778 0.11086
 C1352 C 0.47623 -0.01940 0.12668
 C1353 C 0.47719 -0.04344 0.12298
 C1354 C 0.46428 -0.05908 0.13725
 C1355 C 0.44974 -0.05008 0.15581
 C1356 C 0.44721 -0.02531 0.16079
 C1357 C 0.46137 -0.00976 0.14560
 H1358 H 0.49411 -0.08472 0.09755
 H1359 H 0.52178 -0.08153 0.06373
 H1360 H 0.52228 -0.00487 0.07184
 H1361 H 0.46543 -0.07801 0.13429
 H1362 H 0.44065 -0.06301 0.16664
 H1363 H 0.46065 0.00923 0.14818
 C1364 C 0.99171 0.47202 0.58995
 C1365 C 1.00142 0.45908 0.60815
 C1366 C 1.02250 0.44620 0.60488
 C1367 C 1.03427 0.44670 0.58247
 C1368 C 1.02545 0.45975 0.56274
 C1369 C 1.00337 0.47263 0.56690
 O1370 O 0.97163 0.48328 0.59711
 C1371 C 0.96862 0.47730 0.62025
 C1372 C 0.98649 0.46253 0.62772
 C1373 C 0.98725 0.45436 0.65113
 C1374 C 0.96920 0.46116 0.66745
 C1375 C 0.94962 0.47611 0.66124
 C1376 C 0.94990 0.48447 0.63669
 H1377 H 1.03002 0.43619 0.61942
 H1378 H 1.05083 0.43717 0.58059
 H1379 H 0.99593 0.48338 0.55286
 H1380 H 1.00161 0.44301 0.65690
 H1381 H 0.97106 0.45479 0.68542
 H1382 H 0.93589 0.49599 0.63045
 C1383 C 0.99089 0.52831 0.91021
 C1384 C 1.00097 0.54048 0.89168
 C1385 C 1.02237 0.55291 0.89467
 C1386 C 1.03402 0.55278 0.91715
 C1387 C 1.02478 0.54053 0.93718
 C1388 C 1.00247 0.52803 0.93330
 O1389 O 0.97053 0.51741 0.90333
 C1390 C 0.96773 0.52280 0.88002
 C1391 C 0.98602 0.53684 0.87215
 C1392 C 0.98702 0.54432 0.84850
 C1393 C 0.96896 0.53728 0.83228
 C1394 C 0.94930 0.52265 0.83884
 C1395 C 0.94892 0.51557 0.86375
 H1396 H 1.03019 0.56231 0.87988
 H1397 H 1.05077 0.56201 0.91886
 H1398 H 0.99470 0.51790 0.94763
 H1399 H 1.00149 0.55542 0.84251
 H1400 H 0.97034 0.54376 0.81427
 H1401 H 0.93468 0.50443 0.87020
 C1402 C 0.49926 0.03800 0.40576
 C1403 C 0.48813 0.01684 0.41047
 C1404 C 0.49322 0.00402 0.43118
 C1405 C 0.51032 0.01286 0.44756
 C1406 C 0.52288 0.03445 0.44387
 C1407 C 0.51693 0.04726 0.42221
 O1408 O 0.49162 0.04728 0.38488
 C1409 C 0.47544 0.03164 0.37627
 C1410 C 0.47287 0.01266 0.39134
 C1411 C 0.45744 -0.00600 0.38584
 C1412 C 0.44422 -0.00546 0.36432
 C1413 C 0.44563 0.01360 0.34769
 C1414 C 0.46176 0.03273 0.35433
 H1415 H 0.48427 -0.01259 0.43468
 H1416 H 0.51394 0.00256 0.46332
 H1417 H 0.52601 0.06365 0.41810
 H1418 H 0.45563 -0.02087 0.39785
 H1419 H 0.43240 -0.02017 0.36080
 H1420 H 0.46394 0.04777 0.34262
   
