data_POSCAR
  _audit_creation_date              2014-09-24
  _audit_creation_method            'ToBaCCo'
  _symmetry_space_group_name_H-M    'P1'
  _symmetry_Int_Tables_number       1
  _symmetry_cell_setting            triclinic
  loop_
  _symmetry_equiv_pos_as_xyz
 x,y,z
_cell_length_a 49.0262
_cell_length_b 46.7105
_cell_length_c 47.1972
_cell_angle_alpha 88.623500
_cell_angle_beta 91.149200
_cell_angle_gamma 91.167600
loop_
  _atom_site_label
  _atom_site_type_symbol
  _atom_site_fract_x
  _atom_site_fract_y
  _atom_site_fract_z
C1 C 0.72492 0.66092 0.96570
 H2 H 0.74425 0.65919 0.95528
 C3 C 0.70489 0.67855 0.95381
 H4 H 0.70936 0.69084 0.93467
 C5 C 0.69542 0.64614 1.00260
 H6 H 0.69142 0.63287 1.02114
 C7 C 0.67468 0.66333 0.99126
 H8 H 0.65499 0.66292 1.00126
 N9 N 0.71999 0.64515 0.98972
 C10 C 0.79865 0.62542 1.02904
 H11 H 0.79370 0.60387 1.03635
 C12 C 0.82321 0.63826 1.03766
 H13 H 0.83720 0.62624 1.05117
 C14 C 0.78591 0.66768 1.00384
 H15 H 0.77113 0.67944 0.99130
 C16 C 0.81047 0.68136 1.01188
 H17 H 0.81427 0.70347 1.00545
 Zn18 Zn 0.74745 0.61970 1.00360
 N19 N 0.78054 0.64006 1.01236
 C20 C 0.77669 0.57592 0.97760
 N21 N 0.75417 0.59241 0.97528
 C22 C 0.73747 0.59128 0.95191
 C23 C 0.74408 0.57444 0.92905
 C24 C 0.78410 0.55885 0.95522
 C25 C 0.73092 0.61908 1.05934
 C26 C 0.72134 0.60813 1.08505
 C27 C 0.72437 0.56043 1.06695
 C28 C 0.73319 0.57253 1.04114
 N29 N 0.73585 0.60142 1.03774
 H30 H 0.78960 0.57676 0.99633
 H31 H 0.71931 0.60398 0.95061
 H32 H 0.73084 0.57437 0.91041
 H33 H 0.80292 0.54716 0.95702
 H34 H 0.73413 0.64194 1.05638
 H35 H 0.71847 0.62330 1.10162
 H36 H 0.72144 0.53743 1.06813
 H37 H 0.73759 0.55882 1.02373
 C38 C 0.82927 0.66666 1.02930
 C39 C 0.67914 0.67956 0.96630
 C40 C 0.71726 0.57824 1.08945
 C41 C 0.76809 0.55852 0.93019
 C42 C 0.72620 0.31833 0.52870
 H43 H 0.74340 0.31005 0.54081
 C44 C 0.69983 0.30750 0.53378
 H45 H 0.69670 0.29109 0.55005
 C46 C 0.70888 0.35098 0.49394
 H47 H 0.71223 0.36784 0.47833
 C48 C 0.68234 0.34103 0.49850
 H49 H 0.66552 0.35073 0.48681
 N50 N 0.73006 0.34056 0.50990
 C51 C 0.78439 0.31575 0.47317
 H52 H 0.76420 0.31681 0.46357
 C53 C 0.80410 0.29886 0.46126
 H54 H 0.79882 0.28675 0.44259
 C55 C 0.81594 0.33102 0.50862
 H56 H 0.82061 0.34382 0.52689
 C57 C 0.83635 0.31448 0.49733
 H58 H 0.85665 0.31523 0.50677
 Zn59 Zn 0.76485 0.35921 0.50656
 N60 N 0.79092 0.33232 0.49569
 C61 C 0.79812 0.39387 0.54127
 N62 N 0.77545 0.37660 0.54119
 C63 C 0.76013 0.37300 0.56479
 C64 C 0.76791 0.38635 0.58994
 C65 C 0.80665 0.40762 0.56595
 C66 C 0.77064 0.38563 0.45159
 C67 C 0.76237 0.40458 0.42985
 C68 C 0.73826 0.43131 0.46430
 C69 C 0.74701 0.41193 0.48535
 N70 N 0.76175 0.38884 0.47845
 H71 H 0.80966 0.39686 0.52208
 H72 H 0.74172 0.35997 0.56419
 H73 H 0.75536 0.38331 0.60843
 H74 H 0.82511 0.42073 0.56569
 H75 H 0.78263 0.36739 0.44653
 H76 H 0.76781 0.40045 0.40822
 H77 H 0.72503 0.44851 0.46986
 H78 H 0.74029 0.41405 0.50687
 C79 C 0.83081 0.29900 0.47267
 C80 C 0.67754 0.31969 0.51920
 C81 C 0.74486 0.42693 0.43594
 C82 C 0.79153 0.40385 0.59080
 C83 C 0.20762 -0.17903 -0.01557
 H84 H 0.20709 -0.16839 -0.03611
 C85 C 0.18414 -0.19326 -0.00583
 H86 H 0.16578 -0.19336 -0.01898
 C87 C 0.23117 -0.18958 0.02766
 H88 H 0.24926 -0.18716 0.04095
 C89 C 0.20799 -0.20359 0.03839
 H90 H 0.20842 -0.21211 0.05994
 N91 N 0.23028 -0.17679 0.00148
 C92 C 0.30913 -0.15008 -0.03159
 H93 H 0.30532 -0.12734 -0.03206
 C94 C 0.33313 -0.16007 -0.04247
 H95 H 0.34782 -0.14477 -0.05114
 C96 C 0.29441 -0.19738 -0.01942
 H97 H 0.27903 -0.21169 -0.01054
 C98 C 0.31837 -0.20843 -0.03034
 H99 H 0.32126 -0.23136 -0.03011
 Zn100 Zn 0.25877 -0.15041 -0.00805
 N101 N 0.29033 -0.16862 -0.02040
 C102 C 0.29451 -0.12801 0.03409
 N103 N 0.26806 -0.12867 0.02474
 C104 C 0.24843 -0.11508 0.03905
 C105 C 0.25529 -0.09948 0.06330
 C106 C 0.30226 -0.11242 0.05782
 C107 C 0.24585 -0.13772 -0.06492
 C108 C 0.23740 -0.12137 -0.08856
 C109 C 0.23212 -0.08133 -0.05793
 C110 C 0.24096 -0.09846 -0.03500
 N111 N 0.24705 -0.12628 -0.03874
 H112 H 0.30979 -0.13969 0.02333
 H113 H 0.22742 -0.11640 0.03165
 H114 H 0.23955 -0.08855 0.07434
 H115 H 0.32346 -0.11216 0.06478
 H116 H 0.25110 -0.15990 -0.06740
 H117 H 0.23548 -0.13232 -0.10841
 H118 H 0.22859 -0.05910 -0.05369
 H119 H 0.24297 -0.08938 -0.01422
 C120 C 0.33785 -0.18959 -0.04246
 C121 C 0.18386 -0.20470 0.02187
 C122 C 0.22961 -0.09257 -0.08559
 C123 C 0.28264 -0.09773 0.07266
 C124 C 0.22013 0.16461 0.44637
 H125 H 0.23765 0.16153 0.43328
 C126 C 0.19697 0.17773 0.43485
 H127 H 0.19678 0.18480 0.41282
 C128 C 0.19865 0.15809 0.49068
 H129 H 0.19928 0.15001 0.51233
 C130 C 0.17516 0.17143 0.48009
 H131 H 0.15769 0.17318 0.49358
 N132 N 0.22031 0.15444 0.47360
 C133 C 0.30311 0.14645 0.50761
 H134 H 0.30259 0.12432 0.51489
 C135 C 0.32560 0.16380 0.51442
 H136 H 0.34241 0.15495 0.52678
 C137 C 0.28108 0.18559 0.48463
 H138 H 0.26347 0.19410 0.47347
 C139 C 0.30332 0.20376 0.49098
 H140 H 0.30271 0.22625 0.48492
 Zn141 Zn 0.25053 0.13282 0.48690
 N142 N 0.28129 0.15751 0.49317
 C143 C 0.28494 0.09657 0.45672
 N144 N 0.25882 0.10535 0.45910
 C145 C 0.23885 0.09611 0.44079
 C146 C 0.24504 0.07808 0.41860
 C147 C 0.29194 0.07845 0.43509
 C148 C 0.25078 0.12382 0.54681
 C149 C 0.24224 0.11117 0.57234
 C150 C 0.21336 0.07865 0.54564
 C151 C 0.22275 0.09165 0.52059
 N152 N 0.24100 0.11393 0.52157
 H153 H 0.30068 0.10404 0.47110
 H154 H 0.21815 0.10313 0.44308
 H155 H 0.22900 0.07125 0.40402
 H156 H 0.31306 0.07253 0.43321
 H157 H 0.26448 0.14220 0.54731
 H158 H 0.24966 0.11979 0.59222
 H159 H 0.19844 0.06128 0.54452
 H160 H 0.21498 0.08443 0.50032
 C161 C 0.32568 0.19277 0.50627
 C162 C 0.17390 0.18071 0.45162
 C163 C 0.22297 0.08860 0.57194
 C164 C 0.27197 0.06917 0.41547
 C165 C 0.16810 0.46331 0.23290
 H166 H 0.16323 0.44962 0.25099
 C167 C 0.18267 0.45248 0.21054
 H168 H 0.18878 0.43034 0.21172
 C169 C 0.16373 0.50791 0.20848
 H170 H 0.15572 0.52924 0.20727
 C171 C 0.17862 0.49814 0.18589
 H172 H 0.18243 0.51248 0.16799
 N173 N 0.15845 0.49037 0.23122
 C174 C 0.13381 0.52686 0.31025
 H175 H 0.11245 0.52931 0.30472
 C176 C 0.14413 0.53757 0.33559
 H177 H 0.13060 0.54868 0.34924
 C178 C 0.17742 0.51033 0.29826
 H179 H 0.19018 0.49976 0.28345
 C180 C 0.18867 0.52076 0.32358
 H181 H 0.21018 0.51799 0.32826
 Zn182 Zn 0.13315 0.50111 0.25859
 N183 N 0.15039 0.51349 0.29226
 C184 C 0.10806 0.45995 0.29442
 N185 N 0.11027 0.46888 0.26692
 C186 C 0.09794 0.45400 0.24558
 C187 C 0.08243 0.42916 0.25166
 C188 C 0.09257 0.43563 0.30143
 C189 C 0.12617 0.55822 0.24327
 C190 C 0.11302 0.58241 0.23247
 C191 C 0.07225 0.55330 0.22531
 C192 C 0.08622 0.52961 0.23627
 N193 N 0.11288 0.53239 0.24438
 H194 H 0.11857 0.47139 0.31109
 H195 H 0.10047 0.46122 0.22382
 H196 H 0.07268 0.41747 0.23457
 H197 H 0.09122 0.42881 0.32346
 H198 H 0.14727 0.55987 0.25032
 H199 H 0.12431 0.60252 0.23074
 H200 H 0.05112 0.55071 0.21857
 H201 H 0.07588 0.50902 0.23795
 C202 C 0.17188 0.53459 0.34262
 C203 C 0.18766 0.46980 0.18631
 C204 C 0.08583 0.58003 0.22290
 C205 C 0.07949 0.41993 0.27996
 C206 C -0.18450 0.01613 0.19660
 H207 H -0.18991 0.02445 0.21689
 C208 C -0.19948 0.02388 0.17217
 H209 H -0.21585 0.03881 0.17428
 C210 C -0.15538 -0.01197 0.16978
 H211 H -0.13834 -0.02614 0.16884
 C212 C -0.16948 -0.00457 0.14486
 H213 H -0.16318 -0.01401 0.12539
 N214 N -0.16241 -0.00079 0.19484
 C215 C -0.15615 -0.00584 0.28405
 H216 H -0.14078 0.01095 0.28561
 C217 C -0.16898 -0.01591 0.30854
 H218 H -0.16309 -0.00691 0.32874
 C219 C -0.18136 -0.03906 0.25619
 H220 H -0.18571 -0.04822 0.23572
 C221 C -0.19457 -0.04991 0.28020
 H222 H -0.20930 -0.06736 0.27807
 Zn223 Zn -0.14004 -0.00804 0.22728
 N224 N -0.16179 -0.01818 0.25872
 C225 C -0.12741 0.05169 0.22891
 N226 N -0.11879 0.02493 0.23610
 C227 C -0.09561 0.02091 0.25186
 C228 C -0.08065 0.04433 0.26194
 C229 C -0.11312 0.07578 0.23877
 C230 C -0.12145 -0.06542 0.22973
 C231 C -0.10526 -0.08801 0.22184
 C232 C -0.07728 -0.05421 0.19529
 C233 C -0.09420 -0.03233 0.20340
 N234 N -0.11614 -0.03832 0.21984
 H235 H -0.14592 0.05443 0.21647
 H236 H -0.08928 -0.00057 0.25744
 H237 H -0.06251 0.04063 0.27488
 H238 H -0.12101 0.09688 0.23403
 H239 H -0.13875 -0.06984 0.24299
 H240 H -0.11076 -0.10959 0.22877
 H241 H -0.06010 -0.04897 0.18193
 H242 H -0.09027 -0.01057 0.19597
 C243 C -0.18778 -0.03886 0.30692
 C244 C -0.19141 0.01447 0.14543
 C245 C -0.08315 -0.08266 0.20389
 C246 C -0.08980 0.07220 0.25613
 C247 C 0.31367 0.52069 0.72807
 H248 H 0.30467 0.51473 0.74811
 C249 C 0.29678 0.52808 0.70485
 H250 H 0.27489 0.52777 0.70740
 C251 C 0.35286 0.52669 0.69990
 H252 H 0.37458 0.52472 0.69758
 C253 C 0.33697 0.53474 0.67650
 H254 H 0.34717 0.54065 0.65705
 N255 N 0.34125 0.52061 0.72527
 C256 C 0.35450 0.46673 0.79532
 H257 H 0.36925 0.45484 0.78396
 C258 C 0.34310 0.45457 0.81964
 H259 H 0.34932 0.43340 0.82665
 C260 C 0.32979 0.50925 0.80095
 H261 H 0.32518 0.53080 0.79374
 C262 C 0.31780 0.49781 0.82549
 H263 H 0.30347 0.51044 0.83677
 Zn264 Zn 0.36607 0.50955 0.75458
 N265 N 0.34775 0.49360 0.78641
 C266 C 0.39060 0.54691 0.79405
 N267 N 0.38797 0.54150 0.76592
 C268 C 0.40061 0.55863 0.74622
 C269 C 0.41588 0.58267 0.75446
 C270 C 0.40587 0.57055 0.80322
 C271 C 0.37424 0.46110 0.72405
 C272 C 0.38846 0.44020 0.71036
 C273 C 0.43066 0.46044 0.72925
 C274 C 0.41558 0.48142 0.74224
 N275 N 0.38791 0.48135 0.73926
 H276 H 0.38096 0.53286 0.80951
 H277 H 0.39900 0.55386 0.72407
 H278 H 0.42579 0.59607 0.73853
 H279 H 0.40747 0.57469 0.82568
 H280 H 0.35223 0.46158 0.72215
 H281 H 0.37741 0.42451 0.69781
 H282 H 0.45270 0.46065 0.73135
 H283 H 0.42590 0.49779 0.75450
 C284 C 0.32445 0.47008 0.83508
 C285 C 0.30845 0.53545 0.67859
 C286 C 0.41694 0.43988 0.71281
 C287 C 0.41858 0.58885 0.78327
 C288 C 0.65199 0.97602 0.69170
 H289 H 0.65072 0.96654 0.71275
 C290 C 0.66455 0.96118 0.67038
 H291 H 0.67288 0.94037 0.67546
 C292 C 0.64039 1.01333 0.65913
 H293 H 0.63022 1.03314 0.65436
 C294 C 0.65322 0.99954 0.63731
 H295 H 0.65353 1.00967 0.61645
 N296 N 0.64033 1.00169 0.68584
 C297 C 0.64182 1.06027 0.75276
 H298 H 0.62644 1.07346 0.74280
 C299 C 0.65600 1.07077 0.77618
 H300 H 0.65085 1.09186 0.78312
 C301 C 0.66387 1.01584 0.75776
 H302 H 0.66641 0.99420 0.75086
 C303 C 0.67801 1.02521 0.78201
 H304 H 0.69203 1.01076 0.79267
 Zn305 Zn 0.62134 1.01895 0.71539
 N306 N 0.64572 1.03320 0.74398
 C307 C 0.60027 0.98677 0.76097
 N308 N 0.59866 0.99039 0.73235
 C309 C 0.58381 0.97191 0.71604
 C310 C 0.57079 0.94792 0.72849
 C311 C 0.58808 0.96299 0.77414
 C312 C 0.61498 1.07243 0.68886
 C313 C 0.60177 1.09737 0.68037
 C314 C 0.55928 1.07588 0.69613
 C315 C 0.57337 1.05120 0.70431
 N316 N 0.60078 1.05005 0.70076
 H317 H 0.61188 1.00177 0.77366
 H318 H 0.58296 0.97521 0.69328
 H319 H 0.55931 0.93330 0.71514
 H320 H 0.59125 0.95995 0.79675
 H321 H 0.63687 1.07122 0.68687
 H322 H 0.61352 1.11485 0.67090
 H323 H 0.53757 1.07677 0.69969
 H324 H 0.56258 1.03331 0.71422
 C325 C 0.67403 1.05309 0.79185
 C326 C 0.66541 0.97298 0.64270
 C327 C 0.57362 1.09951 0.68431
 C328 C 0.57335 0.94284 0.75793
 C329 C 0.04805 0.22335 -0.13255
 H330 H 0.05764 0.24432 -0.13104
 C331 C 0.05909 0.20306 -0.15005
 H332 H 0.07669 0.20908 -0.16250
 C333 C 0.01377 0.19017 -0.11779
 H334 H -0.00343 0.18486 -0.10459
 C335 C 0.02442 0.16908 -0.13463
 H336 H 0.01518 0.14783 -0.13402
 N337 N 0.02539 0.21688 -0.11732
 C338 C -0.01269 0.29845 -0.10153
 H339 H -0.01965 0.29355 -0.08037
 C340 C -0.02128 0.32345 -0.11538
 H341 H -0.03449 0.33765 -0.10446
 C342 C 0.01032 0.28434 -0.14237
 H343 H 0.02183 0.26875 -0.15329
 C344 C 0.00212 0.30917 -0.15709
 H345 H 0.00803 0.31260 -0.17891
 Zn346 Zn 0.01090 0.24529 -0.09373
 N347 N 0.00310 0.27956 -0.11491
 C348 C 0.03421 0.27695 -0.04825
 N349 N 0.03675 0.25321 -0.06407
 C350 C 0.05948 0.23695 -0.06164
 C351 C 0.08181 0.24593 -0.04498
 C352 C 0.05611 0.28684 -0.03161
 C353 C -0.04134 0.22552 -0.10081
 C354 C -0.06746 0.21585 -0.09429
 C355 C -0.05679 0.22301 -0.04473
 C356 C -0.03027 0.23161 -0.05230
 N357 N -0.02311 0.23233 -0.07998
 H358 H 0.01596 0.28940 -0.04993
 H359 H 0.06106 0.21789 -0.07398
 H360 H 0.10055 0.23404 -0.04509
 H361 H 0.05462 0.30704 -0.02100
 H362 H -0.03540 0.22753 -0.12273
 H363 H -0.08124 0.21149 -0.11192
 H364 H -0.06139 0.22184 -0.02241
 H365 H -0.01552 0.23782 -0.03614
 C366 C -0.01398 0.32908 -0.14358
 C367 C 0.04734 0.17538 -0.15121
 C368 C -0.07589 0.21396 -0.06580
 C369 C 0.08065 0.27190 -0.03089
 C370 C 0.48073 0.21623 0.18091
 H371 H 0.47566 0.23766 0.18688
 C372 C 0.46898 0.19260 0.19514
 H373 H 0.45565 0.19623 0.21264
 C374 C 0.50354 0.18574 0.15024
 H375 H 0.51612 0.18314 0.13199
 C376 C 0.49186 0.16156 0.16350
 H377 H 0.49581 0.14071 0.15514
 N378 N 0.49782 0.21244 0.15904
 C379 C 0.53083 0.29906 0.14321
 H380 H 0.52876 0.29873 0.12036
 C381 C 0.54050 0.32379 0.15630
 H382 H 0.54628 0.34226 0.14330
 C383 C 0.52635 0.27491 0.18765
 H384 H 0.52109 0.25572 0.19973
 C385 C 0.53612 0.29927 0.20168
 H386 H 0.53794 0.29869 0.22458
 Zn387 Zn 0.50992 0.24456 0.13699
 N388 N 0.52360 0.27541 0.15890
 C389 C 0.46654 0.28075 0.12533
 N390 N 0.47922 0.25746 0.11558
 C391 C 0.46897 0.24306 0.09285
 C392 C 0.44579 0.25301 0.07808
 C393 C 0.44341 0.29123 0.11145
 C394 C 0.56028 0.22103 0.12721
 C395 C 0.58305 0.21327 0.11214
 C396 C 0.56254 0.23446 0.06988
 C397 C 0.53989 0.24138 0.08573
 N398 N 0.53905 0.23427 0.11380
 H399 H 0.47409 0.29107 0.14425
 H400 H 0.47890 0.22399 0.08607
 H401 H 0.43826 0.24184 0.05957
 H402 H 0.43362 0.30969 0.11987
 H403 H 0.55932 0.21616 0.14970
 H404 H 0.59912 0.20173 0.12319
 H405 H 0.56296 0.24072 0.04767
 H406 H 0.52327 0.25292 0.07571
 C407 C 0.54315 0.32421 0.18592
 C408 C 0.47406 0.16471 0.18616
 C409 C 0.58448 0.21993 0.08300
 C410 C 0.43298 0.27773 0.08716
 C411 C 0.97729 0.72162 0.69861
 H412 H 0.97806 0.74130 0.71012
 C413 C 0.97018 0.69598 0.71282
 H414 H 0.96694 0.69637 0.73540
 C415 C 0.97981 0.69751 0.65527
 H416 H 0.98349 0.69828 0.63275
 C417 C 0.97194 0.67168 0.66837
 H418 H 0.96900 0.65311 0.65532
 N419 N 0.98236 0.72184 0.67038
 C420 C 1.00188 0.81297 0.65508
 H421 H 0.99325 0.81378 0.63382
 C422 C 1.01343 0.83774 0.66646
 H423 H 1.01309 0.85756 0.65407
 C424 C 1.01540 0.78570 0.69572
 H425 H 1.01804 0.76510 0.70615
 C426 C 1.02707 0.81017 0.70809
 H427 H 1.03789 0.80826 0.72825
 Zn428 Zn 0.99125 0.75517 0.64841
 N429 N 1.00267 0.78759 0.66980
 C430 C 0.94317 0.78474 0.63438
 N431 N 0.95984 0.76392 0.62565
 C432 C 0.95369 0.74891 0.60187
 C433 C 0.93094 0.75597 0.58488
 C434 C 0.92051 0.79268 0.61793
 C435 C 1.04253 0.73393 0.63953
 C436 C 1.06636 0.72827 0.62523
 C437 C 1.04665 0.75028 0.58294
 C438 C 1.02313 0.75560 0.59814
 N439 N 1.02144 0.74710 0.62584
 H440 H 0.94759 0.79546 0.65403
 H441 H 0.96674 0.73184 0.59574
 H442 H 0.92680 0.74456 0.56551
 H443 H 0.90788 0.80984 0.62484
 H444 H 1.04080 0.72784 0.66169
 H445 H 1.08267 0.71723 0.63644
 H446 H 1.04778 0.75729 0.56096
 H447 H 1.00651 0.76698 0.58794
 C448 C 1.02654 0.83645 0.69310
 C449 C 0.96709 0.67045 0.69765
 C450 C 1.06869 0.73648 0.59655
 C451 C 0.91447 0.77859 0.59258
 C452 C 0.51738 0.71323 0.35144
 H453 H 0.52331 0.73493 0.34540
 C454 C 0.52904 0.69024 0.33819
 H455 H 0.54367 0.69438 0.32163
 C456 C 0.49226 0.68151 0.38152
 H457 H 0.47878 0.67830 0.39920
 C458 C 0.50333 0.65781 0.36867
 H459 H 0.49813 0.63643 0.37645
 N460 N 0.49976 0.70854 0.37299
 C461 C 0.46067 0.76876 0.34972
 H462 H 0.44916 0.74888 0.34961
 C463 C 0.45201 0.79151 0.33234
 H464 H 0.43321 0.78832 0.32041
 C465 C 0.49803 0.79639 0.36683
 H466 H 0.51635 0.79813 0.37977
 C467 C 0.49017 0.81980 0.34971
 H468 H 0.50320 0.83874 0.34982
 Zn469 Zn 0.49022 0.74096 0.39361
 N470 N 0.48270 0.77179 0.36737
 C471 C 0.52141 0.77580 0.43176
 N472 N 0.52044 0.75051 0.41799
 C473 C 0.54195 0.73247 0.41937
 C474 C 0.56630 0.74060 0.43305
 C475 C 0.54557 0.78498 0.44530
 C476 C 0.43680 0.72009 0.40105
 C477 C 0.41184 0.71613 0.41433
 C478 C 0.43156 0.73740 0.45634
 C479 C 0.45619 0.74123 0.44209
 N480 N 0.45823 0.73296 0.41475
 H481 H 0.50405 0.78974 0.43058
 H482 H 0.54078 0.71226 0.40872
 H483 H 0.58382 0.72689 0.43236
 H484 H 0.54686 0.80612 0.45422
 H485 H 0.43905 0.71271 0.37973
 H486 H 0.39507 0.70580 0.40302
 H487 H 0.43008 0.74445 0.47794
 H488 H 0.47344 0.75124 0.45275
 C489 C 0.46624 0.81813 0.33254
 C490 C 0.52256 0.66212 0.34726
 C491 C 0.40889 0.72515 0.44220
 C492 C 0.56849 0.76752 0.44532
 C493 C 0.36581 -0.01274 0.24966
 C494 C 0.13673 1.01181 0.75224
 C495 C 0.63263 0.50165 0.26932
 C496 C 0.87497 0.48790 0.76838
 C497 C 0.26054 0.37152 0.01556
 C498 C 0.73899 0.12971 0.97936
 C499 C 0.23182 0.64747 0.51365
 C500 C 0.75171 0.86069 0.48783
 C501 C -0.00644 0.23935 0.36175
 C502 C 1.00401 0.74806 0.11478
 C503 C 0.49161 0.27955 0.60015
 C504 C 0.51460 0.76200 0.86436
 C505 C 0.43088 -0.10967 0.29077
 C506 C 0.42487 -0.13716 0.28090
 C507 C 0.43770 -0.16082 0.29376
 C508 C 0.45604 -0.15753 0.31716
 C509 C 0.46255 -0.12927 0.32584
 C510 C 0.44996 -0.10545 0.31286
 C511 C 0.41614 -0.08492 0.27845
 C512 C 0.42154 -0.05753 0.28888
 C513 C 0.40628 -0.03441 0.27835
 C514 C 0.38482 -0.03829 0.25799
 C515 C 0.38077 -0.06617 0.24707
 C516 C 0.39617 -0.08934 0.25727
 C517 C 0.45532 -0.07753 0.32230
 C518 C 0.44140 -0.05398 0.31047
 C519 C 0.40551 -0.14061 0.25882
 C520 C 0.39134 -0.11713 0.24728
 H521 H 0.47007 -0.07390 0.33930
 H522 H 0.44582 -0.03290 0.31871
 H523 H 0.40077 -0.16173 0.25085
 H524 H 0.37609 -0.12086 0.23077
 H525 H 0.43328 -0.18169 0.28517
 H526 H 0.47590 -0.12550 0.34394
 H527 H 0.40989 -0.01348 0.28730
 H528 H 0.36523 -0.07057 0.23118
 C529 C 0.94781 0.40031 0.81424
 C530 C 0.95069 0.37471 0.79969
 C531 C 0.96444 0.35190 0.81305
 C532 C 0.97502 0.35449 0.84088
 C533 C 0.97294 0.38080 0.85465
 C534 C 0.95920 0.40372 0.84150
 C535 C 0.93153 0.42353 0.80120
 C536 C 0.92792 0.44875 0.81607
 C537 C 0.91088 0.46989 0.80439
 C538 C 0.89606 0.46538 0.77875
 C539 C 0.90233 0.44100 0.76295
 C540 C 0.91931 0.41973 0.77442
 C541 C 0.95585 0.42966 0.85539
 C542 C 0.94052 0.45183 0.84285
 C543 C 0.93892 0.37209 0.77247
 C544 C 0.92358 0.39427 0.76000
 H545 H 0.96469 0.43262 0.87637
 H546 H 0.93795 0.47125 0.85453
 H547 H 0.94112 0.35252 0.76094
 H548 H 0.91436 0.39114 0.73922
 H549 H 0.96567 0.33170 0.80236
 H550 H 0.98139 0.38315 0.87589
 H551 H 0.90776 0.48924 0.81605
 H552 H 0.89392 0.43805 0.74187
 C553 C 0.08362 1.10889 0.80162
 C554 C 0.05513 1.10945 0.80359
 C555 C 0.04323 1.13162 0.81837
 C556 C 0.05969 1.15284 0.83155
 C557 C 0.08826 1.15194 0.82900
 C558 C 0.10028 1.13019 0.81396
 C559 C 0.09634 1.08515 0.78700
 C560 C 0.12480 1.08463 0.78533
 C561 C 0.13688 1.06151 0.77267
 C562 C 0.12106 1.03791 0.76281
 C563 C 0.09228 1.03980 0.76299
 C564 C 0.07988 1.06321 0.77548
 C565 C 0.12872 1.12905 0.81147
 C566 C 0.14077 1.10672 0.79725
 C567 C 0.03920 1.08758 0.79110
 C568 C 0.05136 1.06485 0.77732
 H569 H 0.14178 1.14543 0.82080
 H570 H 0.16281 1.10645 0.79606
 H571 H 0.01717 1.08779 0.79234
 H572 H 0.03833 1.04820 0.76843
 H573 H 0.02121 1.13225 0.81971
 H574 H 0.10129 1.16765 0.83940
 H575 H 0.15895 1.06092 0.77192
 H576 H 0.07941 1.02328 0.75381
 C577 C 0.56783 0.59241 0.31600
 C578 C 0.53933 0.58954 0.31760
 C579 C 0.52437 0.61230 0.32799
 C580 C 0.53784 0.63780 0.33630
 C581 C 0.56643 0.64010 0.33469
 C582 C 0.58152 0.61750 0.32468
 C583 C 0.58371 0.56877 0.30494
 C584 C 0.61214 0.57169 0.30373
 C585 C 0.62711 0.54952 0.29286
 C586 C 0.61411 0.52461 0.28194
 C587 C 0.58544 0.52158 0.28465
 C588 C 0.57018 0.54376 0.29582
 C589 C 0.61006 0.61952 0.32322
 C590 C 0.62514 0.59694 0.31301
 C591 C 0.52648 0.56403 0.30865
 C592 C 0.54163 0.54156 0.29795
 H593 H 0.62084 0.63874 0.32997
 H594 H 0.64713 0.59936 0.31212
 H595 H 0.50452 0.56147 0.30979
 H596 H 0.53086 0.52237 0.29111
 H597 H 0.50235 0.61041 0.32923
 H598 H 0.57697 0.65941 0.34162
 H599 H 0.64911 0.55196 0.29181
 H600 H 0.57479 0.50219 0.27847
 C601 C 0.57775 0.39946 0.22413
 C602 C 0.58555 0.37222 0.23424
 C603 C 0.57359 0.34774 0.22221
 C604 C 0.55415 0.35027 0.19998
 C605 C 0.54632 0.37781 0.19032
 C606 C 0.55813 0.40249 0.20228
 C607 C 0.59087 0.42527 0.23622
 C608 C 0.58365 0.45251 0.22576
 C609 C 0.59680 0.47695 0.23692
 C610 C 0.61679 0.47451 0.25890
 C611 C 0.62407 0.44647 0.26826
 C612 C 0.61102 0.42211 0.25741
 C613 C 0.55113 0.43012 0.19255
 C614 C 0.56369 0.45469 0.20405
 C615 C 0.60562 0.37001 0.25576
 C616 C 0.61820 0.39452 0.26708
 H617 H 0.53599 0.43278 0.17570
 H618 H 0.55785 0.47556 0.19574
 H619 H 0.61186 0.34915 0.26371
 H620 H 0.63378 0.39184 0.28349
 H621 H 0.58010 0.32672 0.22948
 H622 H 0.53118 0.38001 0.17340
 H623 H 0.59168 0.49797 0.22842
 H624 H 0.64052 0.44297 0.28342
 C625 C 0.07281 0.91018 0.71943
 C626 C 0.07710 0.89843 0.69281
 C627 C 0.06186 0.87430 0.68468
 C628 C 0.04262 0.86157 0.70299
 C629 C 0.03893 0.87306 0.72998
 C630 C 0.05389 0.89767 0.73821
 C631 C 0.08854 0.93602 0.72774
 C632 C 0.08441 0.94805 0.75423
 C633 C 0.09957 0.97275 0.76187
 C634 C 0.11847 0.98588 0.74298
 C635 C 0.12307 0.97196 0.71712
 C636 C 0.10784 0.94783 0.70917
 C637 C 0.05035 0.91020 0.76468
 C638 C 0.06532 0.93494 0.77254
 C639 C 0.09659 0.91099 0.67479
 C640 C 0.11185 0.93517 0.68292
 H641 H 0.03585 0.90084 0.77943
 H642 H 0.06190 0.94387 0.79311
 H643 H 0.10014 0.90200 0.65426
 H644 H 0.12679 0.94416 0.66843
 H645 H 0.06506 0.86522 0.66411
 H646 H 0.02413 0.86322 0.74413
 H647 H 0.09685 0.98173 0.78256
 H648 H 0.13903 0.97918 0.70303
 C649 C 0.93515 0.59179 0.73439
 C650 C 0.92896 0.61791 0.74660
 C651 C 0.93988 0.64347 0.73498
 C652 C 0.95750 0.64309 0.71168
 C653 C 0.96464 0.61635 0.70084
 C654 C 0.95304 0.59077 0.71166
 C655 C 0.92188 0.56511 0.74499
 C656 C 0.92680 0.53923 0.73173
 C657 C 0.91238 0.51441 0.74039
 C658 C 0.89261 0.51523 0.76185
 C659 C 0.89055 0.54097 0.77694
 C660 C 0.90408 0.56611 0.76778
 C661 C 0.95838 0.56423 0.69968
 C662 C 0.94532 0.53892 0.70941
 C663 C 0.91137 0.61800 0.76974
 C664 C 0.89942 0.59248 0.78039
 H665 H 0.97223 0.56312 0.68216
 H666 H 0.94945 0.51904 0.69909
 H667 H 0.90659 0.63798 0.77954
 H668 H 0.88572 0.59355 0.79805
 H669 H 0.93372 0.66359 0.74351
 H670 H 0.97881 0.61534 0.68361
 H671 H 0.91547 0.49461 0.72949
 H672 H 0.87816 0.54203 0.79552
 C673 C 0.43032 0.09052 0.21851
 C674 C 0.41775 0.11725 0.21777
 C675 C 0.43233 0.14147 0.20781
 C676 C 0.45948 0.13925 0.19883
 C677 C 0.47196 0.11225 0.20049
 C678 C 0.45734 0.08778 0.20990
 C679 C 0.41457 0.06474 0.22765
 C680 C 0.42658 0.03786 0.22705
 C681 C 0.41104 0.01331 0.23439
 C682 C 0.38360 0.01508 0.24354
 C683 C 0.37227 0.04283 0.24352
 C684 C 0.38747 0.06741 0.23572
 C685 C 0.46895 0.06050 0.21024
 C686 C 0.45377 0.03595 0.21845
 C687 C 0.39059 0.11912 0.22632
 C688 C 0.37573 0.09465 0.23521
 H689 H 0.48979 0.05804 0.20362
 H690 H 0.46337 0.01529 0.21793
 H691 H 0.38063 0.13963 0.22589
 H692 H 0.35475 0.09704 0.24140
 H693 H 0.42212 0.16180 0.20615
 H694 H 0.49292 0.11014 0.19413
 H695 H 0.42024 -0.00727 0.23171
 H696 H 0.35145 0.04612 0.24871
 C697 C 0.29431 0.43067 -0.08858
 C698 C 0.30076 0.46009 -0.08893
 C699 C 0.30985 0.47330 -0.11420
 C700 C 0.31252 0.45714 -0.13884
 C701 C 0.30517 0.42785 -0.13816
 C702 C 0.29639 0.41445 -0.11308
 C703 C 0.28572 0.41638 -0.06194
 C704 C 0.28020 0.38685 -0.06160
 C705 C 0.27260 0.37323 -0.03631
 C706 C 0.26929 0.38878 -0.01129
 C707 C 0.27567 0.41849 -0.01189
 C708 C 0.28376 0.43236 -0.03726
 C709 C 0.29022 0.38499 -0.11194
 C710 C 0.28238 0.37137 -0.08655
 C711 C 0.29854 0.47546 -0.06385
 C712 C 0.29015 0.46185 -0.03847
 H713 H 0.29179 0.37228 -0.13072
 H714 H 0.27802 0.34853 -0.08645
 H715 H 0.30346 0.49818 -0.06378
 H716 H 0.28878 0.47450 -0.01963
 H717 H 0.31570 0.49580 -0.11444
 H718 H 0.30667 0.41535 -0.15710
 H719 H 0.26871 0.35029 -0.03603
 H720 H 0.27496 0.43075 0.00721
 C721 C 0.78669 0.91990 0.38416
 C722 C 0.78618 0.94990 0.38176
 C723 C 0.79387 0.96343 0.35618
 C724 C 0.80192 0.94708 0.33317
 C725 C 0.80205 0.91701 0.33595
 C726 C 0.79459 0.90332 0.36141
 C727 C 0.77896 0.90554 0.41105
 C728 C 0.77988 0.87563 0.41345
 C729 C 0.77204 0.86203 0.43875
 C730 C 0.76215 0.87781 0.46151
 C731 C 0.76287 0.90810 0.45915
 C732 C 0.77089 0.92198 0.43382
 C733 C 0.79528 0.87339 0.36468
 C734 C 0.78810 0.85977 0.39032
 C735 C 0.77825 0.96570 0.40509
 C736 C 0.77074 0.95198 0.43067
 H737 H 0.80145 0.86040 0.34731
 H738 H 0.78882 0.83662 0.39199
 H739 H 0.77783 0.98887 0.40355
 H740 H 0.76462 0.96497 0.44807
 H741 H 0.79371 0.98659 0.35417
 H742 H 0.80880 0.90431 0.31858
 H743 H 0.77240 0.83885 0.44048
 H744 H 0.75732 0.92107 0.47669
 C745 C 0.77480 0.05228 1.07064
 C746 C 0.75826 0.04810 1.09434
 C747 C 0.76916 0.03481 1.11893
 C748 C 0.79642 0.02526 1.11990
 C749 C 0.81206 0.02843 1.09506
 C750 C 0.80156 0.04228 1.07072
 C751 C 0.76437 0.06862 1.04575
 C752 C 0.78160 0.07453 1.02295
 C753 C 0.77266 0.09256 1.00073
 C754 C 0.74684 0.10562 1.00129
 C755 C 0.72864 0.09616 1.02277
 C756 C 0.73772 0.07889 1.04565
 C757 C 0.81778 0.04741 1.04685
 C758 C 0.80800 0.06336 1.02339
 C759 C 0.73134 0.05797 1.09316
 C760 C 0.72116 0.07287 1.06911
 H761 H 0.83847 0.03971 1.04661
 H762 H 0.82145 0.06759 1.00578
 H763 H 0.71819 0.05461 1.11117
 H764 H 0.70048 0.08062 1.06931
 H765 H 0.75619 0.03169 1.13710
 H766 H 0.83324 0.02232 1.09507
 H767 H 0.78650 0.09698 0.98363
 H768 H 0.70784 0.10351 1.02268
 C769 C 0.26611 0.57143 0.60652
 C770 C 0.25531 0.57472 0.63355
 C771 C 0.26826 0.56162 0.65712
 C772 C 0.29162 0.54499 0.65364
 C773 C 0.30053 0.53993 0.62598
 C774 C 0.28846 0.55383 0.60250
 C775 C 0.25486 0.58806 0.58225
 C776 C 0.26725 0.58671 0.55584
 C777 C 0.25858 0.60503 0.53376
 C778 C 0.23771 0.62501 0.53772
 C779 C 0.22337 0.62328 0.56354
 C780 C 0.23273 0.60596 0.58622
 C781 C 0.29925 0.55166 0.57531
 C782 C 0.28898 0.56806 0.55239
 C783 C 0.23258 0.59216 0.63657
 C784 C 0.22124 0.60722 0.61321
 H785 H 0.31647 0.53804 0.57195
 H786 H 0.29855 0.56666 0.53198
 H787 H 0.22383 0.59466 0.65724
 H788 H 0.20406 0.62089 0.61656
 H789 H 0.26109 0.56578 0.67815
 H790 H 0.31772 0.52626 0.62275
 H791 H 0.26918 0.60499 0.51383
 H792 H 0.20550 0.63580 0.56674
 C793 C 0.20090 0.57671 0.41720
 C794 C 0.17631 0.56085 0.41802
 C795 C 0.16761 0.54591 0.39400
 C796 C 0.18308 0.54714 0.36910
 C797 C 0.20819 0.56231 0.36903
 C798 C 0.21718 0.57718 0.39303
 C799 C 0.20940 0.59376 0.44184
 C800 C 0.23379 0.60985 0.44091
 C801 C 0.24143 0.62664 0.46402
 C802 C 0.22420 0.62888 0.48764
 C803 C 0.20068 0.61077 0.48872
 C804 C 0.19293 0.59373 0.46578
 C805 C 0.24176 0.59315 0.39311
 C806 C 0.25001 0.60908 0.41672
 C807 C 0.16059 0.56086 0.44260
 C808 C 0.16879 0.57700 0.46611
 H809 H 0.25458 0.59359 0.37467
 H810 H 0.26899 0.62133 0.41582
 H811 H 0.14161 0.54861 0.44352
 H812 H 0.15593 0.57671 0.48452
 H813 H 0.14850 0.53383 0.39444
 H814 H 0.22013 0.56360 0.34994
 H815 H 0.26113 0.63736 0.46338
 H816 H 0.18806 0.61060 0.50733
 C817 C 0.70346 0.08368 0.87048
 C818 C 0.69964 0.05409 0.86724
 C819 C 0.69139 0.04368 0.84064
 C820 C 0.68610 0.06282 0.81751
 C821 C 0.69125 0.09241 0.82125
 C822 C 0.69971 0.10288 0.84752
 C823 C 0.71127 0.09486 0.89850
 C824 C 0.71518 0.12442 0.90146
 C825 C 0.72295 0.13498 0.92784
 C826 C 0.72704 0.11645 0.95174
 C827 C 0.72231 0.08666 0.94833
 C828 C 0.71466 0.07584 0.92171
 C829 C 0.70399 0.13236 0.85134
 C830 C 0.71164 0.14296 0.87789
 C831 C 0.70337 0.03561 0.89092
 C832 C 0.71070 0.04630 0.91768
 H833 H 0.70122 0.14738 0.83372
 H834 H 0.71472 0.16585 0.88000
 H835 H 0.70041 0.01271 0.88880
 H836 H 0.71332 0.03130 0.93534
 H837 H 0.68727 0.02094 0.83876
 H838 H 0.68894 0.10752 0.80363
 H839 H 0.72648 0.15784 0.92994
 H840 H 0.72507 0.07169 0.96595
 C841 C 0.70328 0.92747 0.57649
 C842 C 0.68054 0.94426 0.56985
 C843 C 0.66814 0.95906 0.59152
 C844 C 0.67864 0.95751 0.61960
 C845 C 0.70176 0.94084 0.62564
 C846 C 0.71388 0.92549 0.60431
 C847 C 0.71601 0.91130 0.55399
 C848 C 0.73798 0.89364 0.56097
 C849 C 0.74942 0.87750 0.53990
 C850 C 0.74027 0.87980 0.51119
 C851 C 0.71768 0.89751 0.50493
 C852 C 0.70554 0.91320 0.52616
 C853 C 0.73625 0.90794 0.61034
 C854 C 0.74794 0.89206 0.58908
 C855 C 0.67053 0.94566 0.54172
 C856 C 0.68289 0.93048 0.52023
 H857 H 0.74458 0.90618 0.63174
 H858 H 0.76499 0.87850 0.59468
 H859 H 0.65299 0.95857 0.53629
 H860 H 0.67452 0.93212 0.49884
 H861 H 0.65008 0.97133 0.58655
 H862 H 0.71043 0.93982 0.64693
 H863 H 0.76502 0.86266 0.54656
 H864 H 0.70941 0.89875 0.48348
 C865 C 0.22251 0.43239 0.11345
 C866 C 0.20278 0.45351 0.10956
 C867 C 0.19184 0.46609 0.13341
 C868 C 0.20068 0.45785 0.16105
 C869 C 0.22101 0.43708 0.16439
 C870 C 0.23169 0.42402 0.14073
 C871 C 0.23318 0.41814 0.08854
 C872 C 0.25182 0.39606 0.09261
 C873 C 0.26086 0.38157 0.06912
 C874 C 0.25259 0.38966 0.04110
 C875 C 0.23343 0.41183 0.03772
 C876 C 0.22373 0.42608 0.06127
 C877 C 0.25093 0.40227 0.14386
 C878 C 0.26067 0.38836 0.12020
 C879 C 0.19393 0.46112 0.08192
 C880 C 0.20429 0.44770 0.05818
 H881 H 0.25816 0.39558 0.16478
 H882 H 0.27515 0.37134 0.12356
 H883 H 0.17872 0.47743 0.07861
 H884 H 0.19676 0.45405 0.03728
 H885 H 0.17584 0.48159 0.13042
 H886 H 0.22832 0.43081 0.18540
 H887 H 0.27381 0.36338 0.07310
 H888 H 0.22565 0.41760 0.01678
 C889 C -0.10197 0.26765 0.42658
 C890 C -0.10262 0.26260 0.45599
 C891 C -0.12506 0.27201 0.47116
 C892 C -0.14667 0.28623 0.45693
 C893 C -0.14581 0.29041 0.42731
 C894 C -0.12356 0.28130 0.41209
 C895 C -0.07795 0.25917 0.41068
 C896 C -0.07724 0.26495 0.38147
 C897 C -0.05417 0.25789 0.36659
 C898 C -0.03116 0.24562 0.38043
 C899 C -0.03297 0.23837 0.40966
 C900 C -0.05611 0.24573 0.42496
 C901 C -0.12221 0.28625 0.38271
 C902 C -0.09942 0.27819 0.36763
 C903 C -0.08059 0.24871 0.46959
 C904 C -0.05782 0.24029 0.45433
 H905 H -0.13878 0.29673 0.37132
 H906 H -0.09902 0.28266 0.34500
 H907 H -0.08084 0.24451 0.49226
 H908 H -0.04122 0.22986 0.46570
 H909 H -0.12559 0.26858 0.49393
 H910 H -0.16196 0.30185 0.41620
 H911 H -0.05369 0.26263 0.34400
 H912 H -0.01676 0.22697 0.42057
 C913 C 0.41161 0.78637 0.91821
 C914 C 0.39439 0.80641 0.90484
 C915 C 0.36980 0.81287 0.91734
 C916 C 0.36243 0.80005 0.94343
 C917 C 0.37939 0.77915 0.95620
 C918 C 0.40416 0.77223 0.94357
 C919 C 0.43803 0.78032 0.90543
 C920 C 0.45529 0.75997 0.91824
 C921 C 0.48035 0.75419 0.90555
 C922 C 0.48890 0.76980 0.88104
 C923 C 0.47017 0.78917 0.86819
 C924 C 0.44525 0.79474 0.88029
 C925 C 0.42191 0.75190 0.95586
 C926 C 0.44691 0.74573 0.94330
 C927 C 0.40225 0.82009 0.87944
 C928 C 0.42729 0.81434 0.86735
 H929 H 0.41647 0.74071 0.97537
 H930 H 0.45991 0.72989 0.95347
 H931 H 0.38905 0.83554 0.86894
 H932 H 0.43271 0.82545 0.84778
 H933 H 0.35656 0.82842 0.90702
 H934 H 0.37380 0.76912 0.97625
 H935 H 0.49285 0.73724 0.91444
 H936 H 0.47451 0.79962 0.84801
 C937 C 1.10654 0.77527 0.05881
 C938 C 1.12465 0.79493 0.07171
 C939 C 1.15018 0.80040 0.05986
 C940 C 1.15762 0.78684 0.03498
 C941 C 1.13925 0.76723 0.02210
 C942 C 1.11371 0.76104 0.03426
 C943 C 1.07963 0.76942 0.07143
 C944 C 1.06178 0.74894 0.05947
 C945 C 1.03665 0.74259 0.07254
 C946 C 1.02875 0.75758 0.09670
 C947 C 1.04759 0.77784 0.10822
 C948 C 1.07267 0.78385 0.09581
 C949 C 1.09517 0.74099 0.02252
 C950 C 1.06979 0.73484 0.03506
 C951 C 1.11684 0.80894 0.09612
 C952 C 1.09125 0.80353 0.10795
 H953 H 1.10040 0.72975 0.00363
 H954 H 1.05631 0.71898 0.02550
 H955 H 1.13063 0.82420 0.10618
 H956 H 1.08603 0.81471 0.12689
 H957 H 1.16404 0.81590 0.06952
 H958 H 1.14491 0.75683 0.00286
 H959 H 1.02379 0.72541 0.06446
 H960 H 1.04336 0.78827 0.12785
 C961 C 0.59588 0.30403 0.54642
 C962 C 0.60802 0.33137 0.54885
 C963 C 0.63459 0.33612 0.53940
 C964 C 0.64934 0.31365 0.52825
 C965 C 0.63714 0.28623 0.52608
 C966 C 0.61013 0.28138 0.53491
 C967 C 0.56805 0.29886 0.55699
 C968 C 0.55584 0.27160 0.55490
 C969 C 0.52992 0.26651 0.56645
 C970 C 0.51656 0.28801 0.58147
 C971 C 0.52946 0.31548 0.58255
 C972 C 0.55472 0.32102 0.57016
 C973 C 0.59709 0.25439 0.53278
 C974 C 0.57036 0.24964 0.54244
 C975 C 0.59357 0.35332 0.56120
 C976 C 0.56745 0.34817 0.57189
 H977 H 0.60771 0.23674 0.52381
 H978 H 0.56123 0.22842 0.54073
 H979 H 0.60276 0.37450 0.56315
 H980 H 0.55727 0.36552 0.58193
 H981 H 0.64414 0.35716 0.54127
 H982 H 0.64854 0.26896 0.51740
 H983 H 0.52086 0.24518 0.56547
 H984 H 0.52110 0.33265 0.59424
 C985 C 0.39260 0.23993 0.54160
 C986 C 0.36962 0.23338 0.55805
 C987 C 0.34712 0.21939 0.54560
 C988 C 0.34760 0.21170 0.51708
 C989 C 0.37028 0.21913 0.50046
 C990 C 0.39303 0.23327 0.51275
 C991 C 0.41716 0.25259 0.55527
 C992 C 0.44065 0.25809 0.53932
 C993 C 0.46459 0.26839 0.55297
 C994 C 0.46536 0.27209 0.58268
 C995 C 0.44085 0.26754 0.59776
 C996 C 0.41701 0.25774 0.58436
 C997 C 0.41660 0.23989 0.49720
 C998 C 0.43996 0.25217 0.51023
 C999 C 0.37000 0.23982 0.58693
 C1000 C 0.39334 0.25180 0.59989
 H1001 H 0.41720 0.23500 0.47490
 H1002 H 0.45785 0.25638 0.49757
 H1003 H 0.35235 0.23494 0.59977
 H1004 H 0.39307 0.25583 0.62240
 H1005 H 0.32965 0.21332 0.55833
 H1006 H 0.37062 0.21283 0.47851
 H1007 H 0.48250 0.27252 0.54045
 H1008 H 0.44086 0.27016 0.62052
 C1009 C 0.90214 0.70538 0.06382
 C1010 C 0.89643 0.70908 0.03471
 C1011 C 0.87214 0.69704 0.02325
 C1012 C 0.85410 0.68118 0.04084
 C1013 C 0.86001 0.67836 0.07001
 C1014 C 0.88391 0.69033 0.08160
 C1015 C 0.92784 0.71715 0.07596
 C1016 C 0.93323 0.71326 0.10499
 C1017 C 0.95764 0.72381 0.11643
 C1018 C 0.97762 0.73759 0.09934
 C1019 C 0.97128 0.74260 0.07027
 C1020 C 0.94648 0.73197 0.05842
 C1021 C 0.89002 0.68720 0.11064
 C1022 C 0.91428 0.69856 0.12217
 C1023 C 0.91533 0.72436 0.01777
 C1024 C 0.93987 0.73563 0.02942
 H1025 H 0.87604 0.67572 0.12453
 H1026 H 0.91837 0.69554 0.14468
 H1027 H 0.91122 0.72746 -0.00472
 H1028 H 0.95389 0.74707 0.01554
 H1029 H 0.86763 0.69929 0.00074
 H1030 H 0.84595 0.66668 0.08371
 H1031 H 0.96149 0.72073 0.13898
 H1032 H 0.98519 0.75484 0.05698
 C1033 C 0.61208 0.72160 0.92412
 C1034 C 0.63160 0.70775 0.90825
 C1035 C 0.65363 0.69469 0.92224
 C1036 C 0.65647 0.69533 0.95196
 C1037 C 0.63692 0.70979 0.96761
 C1038 C 0.61461 0.72294 0.95372
 C1039 C 0.58815 0.73418 0.90946
 C1040 C 0.56813 0.74750 0.92515
 C1041 C 0.54468 0.75818 0.91102
 C1042 C 0.54073 0.75426 0.88157
 C1043 C 0.56226 0.74258 0.86629
 C1044 C 0.58554 0.73211 0.88000
 C1045 C 0.59453 0.73701 0.96875
 C1046 C 0.57175 0.74914 0.95472
 C1047 C 0.62844 0.70667 0.87868
 C1048 C 0.60580 0.71871 0.86477
 H1049 H 0.59625 0.73836 0.99160
 H1050 H 0.55660 0.75941 0.96718
 H1051 H 0.64342 0.69611 0.86623
 H1052 H 0.60390 0.71708 0.84195
 H1053 H 0.66808 0.68315 0.90997
 H1054 H 0.63899 0.71065 0.99047
 H1055 H 0.52968 0.76909 0.92305
 H1056 H 0.56014 0.74031 0.84354
 C1057 C 0.09767 0.20675 0.41440
 C1058 C 0.11330 0.18622 0.40117
 C1059 C 0.13840 0.17842 0.41329
 C1060 C 0.14789 0.19067 0.43866
 C1061 C 0.13203 0.21125 0.45178
 C1062 C 0.10693 0.21961 0.43949
 C1063 C 0.07112 0.21486 0.40167
 C1064 C 0.05567 0.23593 0.41425
 C1065 C 0.03055 0.24382 0.40160
 C1066 C 0.02003 0.22961 0.37742
 C1067 C 0.03690 0.20938 0.36471
 C1068 C 0.06198 0.20175 0.37679
 C1069 C 0.09087 0.24053 0.45165
 C1070 C 0.06581 0.24871 0.43912
 C1071 C 0.10345 0.17373 0.37614
 C1072 C 0.07821 0.18137 0.36415
 H1073 H 0.09777 0.25075 0.47094
 H1074 H 0.05417 0.26501 0.44912
 H1075 H 0.11533 0.15787 0.36577
 H1076 H 0.07131 0.17119 0.34482
 H1077 H 0.15030 0.16227 0.40335
 H1078 H 0.13932 0.22080 0.47128
 H1079 H 0.01928 0.26106 0.41047
 H1080 H 0.03094 0.19982 0.34481
 C1081 C 0.53482 0.17662 0.65593
 C1082 C 0.52162 0.15004 0.65161
 C1083 C 0.53399 0.12494 0.66173
 C1084 C 0.55952 0.12625 0.67584
 C1085 C 0.57216 0.15317 0.68062
 C1086 C 0.55997 0.17842 0.67052
 C1087 C 0.52256 0.20294 0.64399
 C1088 C 0.53620 0.22938 0.64727
 C1089 C 0.52519 0.25408 0.63439
 C1090 C 0.50061 0.25276 0.61809
 C1091 C 0.48735 0.22556 0.61548
 C1092 C 0.49806 0.20092 0.62840
 C1093 C 0.57274 0.20536 0.67405
 C1094 C 0.56107 0.23041 0.66258
 C1095 C 0.49671 0.14902 0.63648
 C1096 C 0.48515 0.17403 0.62502
 H1097 H 0.59215 0.20703 0.68534
 H1098 H 0.57182 0.25067 0.66533
 H1099 H 0.48630 0.12868 0.63303
 H1100 H 0.46613 0.17225 0.61302
 H1101 H 0.52428 0.10436 0.65766
 H1102 H 0.59163 0.15442 0.69185
 H1103 H 0.53622 0.27433 0.63612
 H1104 H 0.46935 0.22258 0.60229
 C1105 C 1.04974 0.65165 0.17927
 C1106 C 1.04554 0.62392 0.16893
 C1107 C 1.05681 0.60062 0.18379
 C1108 C 1.07240 0.60481 0.20874
 C1109 C 1.07635 0.63278 0.21895
 C1110 C 1.06508 0.65633 0.20420
 C1111 C 1.03827 0.67626 0.16335
 C1112 C 1.04277 0.70411 0.17323
 C1113 C 1.03183 0.72745 0.15776
 C1114 C 1.01551 0.72299 0.13312
 C1115 C 1.01299 0.69475 0.12289
 C1116 C 1.02361 0.67147 0.13811
 C1117 C 1.06912 0.68448 0.21358
 C1118 C 1.05821 0.70797 0.19832
 C1119 C 1.03060 0.62004 0.14360
 C1120 C 1.01989 0.64346 0.12838
 H1121 H 1.08096 0.68842 0.23277
 H1122 H 1.06190 0.72931 0.20624
 H1123 H 1.02730 0.59876 0.13539
 H1124 H 1.00855 0.63960 0.10885
 H1125 H 1.05418 0.57931 0.17542
 H1126 H 1.08825 0.63618 0.23822
 H1127 H 1.03603 0.74898 0.16488
 H1128 H 1.00270 0.69070 0.10282
 C1129 C 0.95780 0.84654 0.16871
 C1130 C 0.95297 0.87122 0.15195
 C1131 C 0.94019 0.89444 0.16385
 C1132 C 0.93225 0.89327 0.19238
 C1133 C 0.93762 0.86844 0.20905
 C1134 C 0.95023 0.84491 0.19722
 C1135 C 0.97037 0.82167 0.15590
 C1136 C 0.97444 0.79656 0.17225
 C1137 C 0.98565 0.77263 0.15961
 C1138 C 0.99355 0.77398 0.13091
 C1139 C 0.98848 0.79942 0.11493
 C1140 C 0.97724 0.82320 0.12724
 C1141 C 0.95495 0.81958 0.21311
 C1142 C 0.96674 0.79578 0.20080
 C1143 C 0.96042 0.87199 0.12338
 C1144 C 0.97237 0.84836 0.11122
 H1145 H 0.94919 0.81800 0.23514
 H1146 H 0.96974 0.77657 0.21373
 H1147 H 0.95677 0.89093 0.11024
 H1148 H 0.97764 0.84971 0.08903
 H1149 H 0.93561 0.91303 0.15057
 H1150 H 0.93180 0.86734 0.23108
 H1151 H 0.98733 0.75292 0.17195
 H1152 H 0.99310 0.80048 0.09256
 C1153 C 0.45431 0.37495 0.66622
 C1154 C 0.45633 0.37394 0.69597
 C1155 C 0.44532 0.39618 0.71135
 C1156 C 0.43189 0.41872 0.69701
 C1157 C 0.43038 0.41965 0.66726
 C1158 C 0.44165 0.39786 0.65171
 C1159 C 0.46479 0.35112 0.64996
 C1160 C 0.46226 0.35199 0.62035
 C1161 C 0.47157 0.32907 0.60504
 C1162 C 0.48353 0.30495 0.61878
 C1163 C 0.48530 0.30441 0.64882
 C1164 C 0.47632 0.32756 0.66437
 C1165 C 0.43984 0.39811 0.62199
 C1166 C 0.45006 0.37558 0.60655
 C1167 C 0.46851 0.35027 0.70967
 C1168 C 0.47822 0.32742 0.69415
 H1169 H 0.43018 0.41571 0.61060
 H1170 H 0.44807 0.37644 0.58364
 H1171 H 0.47016 0.34918 0.73260
 H1172 H 0.48714 0.30941 0.70558
 H1173 H 0.44609 0.39540 0.73433
 H1174 H 0.41986 0.43703 0.65636
 H1175 H 0.46953 0.32981 0.58211
 H1176 H 0.49292 0.28602 0.66049
 C1177 C 0.46405 0.66176 0.81261
 C1178 C 0.46792 0.63480 0.82577
 C1179 C 0.45333 0.61101 0.81567
 C1180 C 0.43487 0.61398 0.79267
 C1181 C 0.43153 0.64104 0.77931
 C1182 C 0.44596 0.66512 0.78941
 C1183 C 0.47856 0.68706 0.82399
 C1184 C 0.47388 0.71425 0.81178
 C1185 C 0.48663 0.73844 0.82381
 C1186 C 0.50451 0.73561 0.84760
 C1187 C 0.50832 0.70778 0.85954
 C1188 C 0.49582 0.68367 0.84775
 C1189 C 0.44220 0.69259 0.77729
 C1190 C 0.45584 0.71675 0.78836
 C1191 C 0.48587 0.63224 0.84917
 C1192 C 0.49955 0.65630 0.86003
 H1193 H 0.42828 0.69550 0.75938
 H1194 H 0.45201 0.73759 0.77868
 H1195 H 0.48904 0.61154 0.85944
 H1196 H 0.51290 0.65351 0.87842
 H1197 H 0.45619 0.59017 0.82578
 H1198 H 0.41713 0.64345 0.76173
 H1199 H 0.48183 0.75950 0.81527
 H1200 H 0.52011 0.70472 0.87897
 C1201 C -0.05310 0.14365 0.29881
 C1202 C -0.05682 0.11733 0.31336
 C1203 C -0.06852 0.09417 0.29904
 C1204 C -0.07652 0.09698 0.27032
 C1205 C -0.07274 0.12358 0.25597
 C1206 C -0.06100 0.14705 0.27020
 C1207 C -0.04104 0.16818 0.31402
 C1208 C -0.03757 0.19472 0.29979
 C1209 C -0.02629 0.21809 0.31461
 C1210 C -0.01795 0.21477 0.34337
 C1211 C -0.02258 0.18793 0.35717
 C1212 C -0.03371 0.16469 0.34270
 C1213 C -0.05717 0.17390 0.25656
 C1214 C -0.04571 0.19733 0.27112
 C1215 C -0.04909 0.11472 0.34207
 C1216 C -0.03774 0.13805 0.35653
 H1217 H -0.06319 0.17687 0.23449
 H1218 H -0.04322 0.21765 0.25982
 H1219 H -0.05194 0.09451 0.35350
 H1220 H -0.03211 0.13522 0.37872
 H1221 H -0.07198 0.07407 0.31050
 H1222 H -0.07882 0.12594 0.23385
 H1223 H -0.02471 0.23874 0.30385
 H1224 H -0.01730 0.18523 0.37949
 C1225 C 0.03698 0.34412 0.30824
 C1226 C 0.03188 0.37045 0.32067
 C1227 C 0.04482 0.39532 0.31018
 C1228 C 0.06312 0.39406 0.28771
 C1229 C 0.06740 0.36769 0.27475
 C1230 C 0.05451 0.34250 0.28518
 C1231 C 0.02467 0.31764 0.32045
 C1232 C 0.03062 0.29108 0.30899
 C1233 C 0.01981 0.26585 0.32167
 C1234 C 0.00263 0.26698 0.34539
 C1235 C -0.00211 0.29420 0.35684
 C1236 C 0.00830 0.31933 0.34428
 C1237 C 0.05953 0.31559 0.27382
 C1238 C 0.04783 0.29033 0.28555
 C1239 C 0.01475 0.37129 0.34407
 C1240 C 0.00323 0.34613 0.35576
 H1241 H 0.07300 0.31398 0.25603
 H1242 H 0.05259 0.27001 0.27641
 H1243 H 0.01066 0.39150 0.35380
 H1244 H -0.00949 0.34763 0.37416
 H1245 H 0.04133 0.41561 0.32005
 H1246 H 0.08170 0.36660 0.25761
 H1247 H 0.02523 0.24530 0.31350
 H1248 H -0.01318 0.29610 0.37628
 C1249 C 0.54666 0.86550 0.80092
 C1250 C 0.54651 0.89164 0.81496
 C1251 C 0.55352 0.91691 0.80016
 C1252 C 0.56211 0.91626 0.77186
 C1253 C 0.56181 0.88978 0.75794
 C1254 C 0.55385 0.86435 0.77236
 C1255 C 0.53951 0.83881 0.81661
 C1256 C 0.53899 0.81261 0.80259
 C1257 C 0.53138 0.78736 0.81759
 C1258 C 0.52423 0.78835 0.84646
 C1259 C 0.52719 0.81476 0.86038
 C1260 C 0.53369 0.84002 0.84547
 C1261 C 0.55349 0.83771 0.75906
 C1262 C 0.54601 0.81232 0.77386
 C1263 C 0.54001 0.89198 0.84378
 C1264 C 0.53402 0.86653 0.85888
 H1265 H 0.55900 0.83646 0.73701
 H1266 H 0.54582 0.79229 0.76273
 H1267 H 0.53996 0.91202 0.85486
 H1268 H 0.52937 0.86765 0.88117
 H1269 H 0.55280 0.93706 0.81100
 H1270 H 0.56862 0.88874 0.73631
 H1271 H 0.53126 0.76718 0.80682
 H1272 H 0.52313 0.81573 0.88284
 C1273 C 0.68354 0.54606 0.16529
 C1274 C 0.67782 0.57393 0.15564
 C1275 C 0.68951 0.58455 0.13065
 C1276 C 0.70645 0.56742 0.11418
 C1277 C 0.71122 0.53889 0.12413
 C1278 C 0.70024 0.52842 0.14984
 C1279 C 0.67138 0.53505 0.19190
 C1280 C 0.67731 0.50737 0.20205
 C1281 C 0.66553 0.49714 0.22748
 C1282 C 0.64751 0.51424 0.24272
 C1283 C 0.64101 0.54152 0.23072
 C1284 C 0.65343 0.55224 0.20623
 C1285 C 0.70569 0.50068 0.16056
 C1286 C 0.69457 0.49041 0.18627
 C1287 C 0.66002 0.59065 0.17090
 C1288 C 0.64779 0.57988 0.19559
 H1289 H 0.71868 0.48676 0.14900
 H1290 H 0.69934 0.46893 0.19370
 H1291 H 0.65527 0.61217 0.16355
 H1292 H 0.63393 0.59338 0.20655
 H1293 H 0.68361 0.60571 0.12332
 H1294 H 0.72465 0.52513 0.11299
 H1295 H 0.66993 0.47567 0.23523
 H1296 H 0.62567 0.55469 0.23958
 C1297 C 0.18815 1.05722 0.64957
 C1298 C 0.21665 1.05933 0.64765
 C1299 C 0.22817 1.06956 0.62217
 C1300 C 0.21127 1.07711 0.59872
 C1301 C 0.18276 1.07470 0.60110
 C1302 C 0.17110 1.06501 0.62649
 C1303 C 0.17585 1.04666 0.67624
 C1304 C 0.14741 1.04515 0.67810
 C1305 C 0.13576 1.03484 0.70313
 C1306 C 0.15201 1.02464 0.72626
 C1307 C 0.18074 1.02746 0.72439
 C1308 C 0.19271 1.03829 0.69928
 C1309 C 0.14267 1.06314 0.62928
 C1310 C 0.13102 1.05351 0.65472
 C1311 C 0.23294 1.05117 0.67125
 C1312 C 0.22119 1.04076 0.69656
 H1313 H 0.12932 1.06921 0.61167
 H1314 H 0.10898 1.05233 0.65601
 H1315 H 0.25497 1.05268 0.67010
 H1316 H 0.23453 1.03451 0.71412
 H1317 H 0.25015 1.07140 0.62043
 H1318 H 0.16966 1.08096 0.58333
 H1319 H 0.11370 1.03354 0.70438
 H1320 H 0.19382 1.02144 0.74215
 C1321 C 0.19595 0.95498 0.84581
 C1322 C 0.21271 0.93195 0.84033
 C1323 C 0.22432 0.91627 0.86322
 C1324 C 0.21945 0.92341 0.89187
 C1325 C 0.20278 0.94735 0.89635
 C1326 C 0.19089 0.96277 0.87367
 C1327 C 0.18268 0.97073 0.82193
 C1328 C 0.16469 0.99259 0.82770
 C1329 C 0.15072 1.00623 0.80534
 C1330 C 0.15519 0.99944 0.77662
 C1331 C 0.17357 0.97719 0.77144
 C1332 C 0.18724 0.96278 0.79396
 C1333 C 0.17322 0.98535 0.87849
 C1334 C 0.16020 0.99987 0.85591
 C1335 C 0.21725 0.92484 0.81200
 C1336 C 0.20477 0.93999 0.78925
 H1337 H 0.16905 0.99156 0.89993
 H1338 H 0.14633 1.01682 0.86059
 H1339 H 0.23029 0.90718 0.80737
 H1340 H 0.20857 0.93353 0.76781
 H1341 H 0.23791 0.89925 0.85821
 H1342 H 0.19701 0.95312 0.91741
 H1343 H 0.13538 1.02123 0.81100
 H1344 H 0.17641 0.97044 0.74991
 C1345 C 0.69960 0.46516 0.36690
 C1346 C 0.72813 0.46434 0.36522
 C1347 C 0.74330 0.45263 0.38820
 C1348 C 0.72997 0.44229 0.41273
 C1349 C 0.70142 0.44413 0.41420
 C1350 C 0.68615 0.45522 0.39133
 C1351 C 0.68336 0.47575 0.34231
 C1352 C 0.65487 0.47517 0.34374
 C1353 C 0.63946 0.48379 0.32006
 C1354 C 0.65192 0.49341 0.29460
 C1355 C 0.68080 0.49510 0.29408
 C1356 C 0.69655 0.48564 0.31770
 C1357 C 0.65757 0.45572 0.39213
 C1358 C 0.64217 0.46542 0.36866
 C1359 C 0.74072 0.47468 0.34038
 C1360 C 0.72523 0.48533 0.31713
 H1361 H 0.64699 0.44809 0.41088
 H1362 H 0.62012 0.46504 0.36994
 H1363 H 0.76273 0.47433 0.33879
 H1364 H 0.73579 0.49290 0.29835
 H1365 H 0.76528 0.45121 0.38693
 H1366 H 0.69094 0.43563 0.43268
 H1367 H 0.61739 0.48242 0.32108
 H1368 H 0.69123 0.50333 0.27558
 C1369 C 0.82025 0.44303 0.66743
 C1370 C 0.82152 0.45860 0.64166
 C1371 C 0.81156 0.44593 0.61677
 C1372 C 0.80057 0.41780 0.61748
 C1373 C 0.79891 0.40277 0.64368
 C1374 C 0.80875 0.41528 0.66872
 C1375 C 0.83189 0.45573 0.69344
 C1376 C 0.83111 0.44000 0.71909
 C1377 C 0.84362 0.45152 0.74337
 C1378 C 0.85840 0.47788 0.74193
 C1379 C 0.85660 0.49439 0.71638
 C1380 C 0.84405 0.48313 0.69202
 C1381 C 0.80781 0.40040 0.69494
 C1382 C 0.81872 0.41260 0.71972
 C1383 C 0.83312 0.48636 0.64124
 C1384 C 0.84415 0.49844 0.66601
 H1385 H 0.79888 0.37902 0.69625
 H1386 H 0.81796 0.40023 0.73941
 H1387 H 0.83406 0.49868 0.62153
 H1388 H 0.85335 0.51970 0.66465
 H1389 H 0.81248 0.45790 0.59684
 H1390 H 0.79074 0.38104 0.64448
 H1391 H 0.84343 0.43917 0.76311
 H1392 H 0.86521 0.51585 0.71496
 C1393 C 0.31191 -0.05394 0.14633
 C1394 C 0.28835 -0.07145 0.14829
 C1395 C 0.27785 -0.08471 0.12379
 C1396 C 0.29119 -0.08094 0.09774
 C1397 C 0.31433 -0.06268 0.09611
 C1398 C 0.32483 -0.04922 0.12030
 C1399 C 0.32401 -0.04132 0.17222
 C1400 C 0.34815 -0.02489 0.17031
 C1401 C 0.36064 -0.01452 0.19505
 C1402 C 0.34937 -0.02019 0.22211
 C1403 C 0.32465 -0.03660 0.22326
 C1404 C 0.31199 -0.04710 0.19849
 C1405 C 0.34855 -0.03192 0.11915
 C1406 C 0.36002 -0.01998 0.14373
 C1407 C 0.27643 -0.07613 0.17490
 C1408 C 0.28807 -0.06423 0.19955
 H1409 H 0.35865 -0.02804 0.09917
 H1410 H 0.37865 -0.00722 0.14198
 H1411 H 0.25825 -0.08956 0.17678
 H1412 H 0.27850 -0.06887 0.21968
 H1413 H 0.26017 -0.09895 0.12523
 H1414 H 0.32454 -0.05951 0.07607
 H1415 H 0.37979 -0.00297 0.19290
 H1416 H 0.31604 -0.04260 0.24355
 C1417 C 0.30165 0.02362 0.34510
 C1418 C 0.28154 0.04424 0.34024
 C1419 C 0.27058 0.05803 0.36348
 C1420 C 0.27991 0.05146 0.39132
 C1421 C 0.29899 0.02958 0.39576
 C1422 C 0.31009 0.01578 0.37276
 C1423 C 0.31519 0.01110 0.32078
 C1424 C 0.33618 -0.00834 0.32571
 C1425 C 0.35081 -0.01803 0.30277
 C1426 C 0.34590 -0.00739 0.27467
 C1427 C 0.32225 0.00939 0.27024
 C1428 C 0.30759 0.01955 0.29312
 C1429 C 0.33030 -0.00485 0.37683
 C1430 C 0.34309 -0.01677 0.35369
 C1431 C 0.27371 0.05143 0.31217
 C1432 C 0.28641 0.03918 0.28902
 H1433 H 0.33684 -0.01126 0.39808
 H1434 H 0.35916 -0.03200 0.35779
 H1435 H 0.25808 0.06714 0.30805
 H1436 H 0.28021 0.04586 0.26775
 H1437 H 0.25599 0.07491 0.35982
 H1438 H 0.30591 0.02401 0.41711
 H1439 H 0.36627 -0.03341 0.30776
 H1440 H 0.31619 0.01611 0.24894
 C1441 C 0.80260 0.52006 0.85794
 C1442 C 0.80412 0.50575 0.88441
 C1443 C 0.79145 0.51753 0.90772
 C1444 C 0.77772 0.54371 0.90479
 C1445 C 0.77541 0.55707 0.87773
 C1446 C 0.78789 0.54538 0.85427
 C1447 C 0.81796 0.50920 0.83400
 C1448 C 0.81735 0.52412 0.80787
 C1449 C 0.83404 0.51526 0.78607
 C1450 C 0.85300 0.49310 0.79091
 C1451 C 0.85061 0.47629 0.81619
 C1452 C 0.83387 0.48480 0.83807
 C1453 C 0.78694 0.55916 0.82747
 C1454 C 0.80132 0.54862 0.80461
 C1455 C 0.81920 0.48054 0.88727
 C1456 C 0.83377 0.47020 0.86447
 H1457 H 0.77552 0.57862 0.82430
 H1458 H 0.80063 0.56032 0.78452
 H1459 H 0.82036 0.46914 0.90751
 H1460 H 0.84582 0.45118 0.86783
 H1461 H 0.79298 0.50681 0.92829
 H1462 H 0.76521 0.57736 0.87520
 H1463 H 0.83415 0.52726 0.76612
 H1464 H 0.86224 0.45706 0.81954
 C1465 C 0.14063 0.71118 0.55443
 C1466 C 0.11526 0.70936 0.54015
 C1467 C 0.09190 0.71892 0.55347
 C1468 C 0.09378 0.72991 0.58101
 C1469 C 0.11962 0.73276 0.59444
 C1470 C 0.14308 0.72326 0.58132
 C1471 C 0.16481 0.69879 0.54168
 C1472 C 0.18988 0.69948 0.55648
 C1473 C 0.21205 0.68508 0.54562
 C1474 C 0.20883 0.66817 0.52122
 C1475 C 0.18441 0.67100 0.50488
 C1476 C 0.16210 0.68537 0.51550
 C1477 C 0.16879 0.72464 0.59499
 C1478 C 0.19183 0.71300 0.58274
 C1479 C 0.11364 0.69696 0.51332
 C1480 C 0.13669 0.68526 0.50115
 H1481 H 0.17099 0.73412 0.61566
 H1482 H 0.21110 0.71374 0.59436
 H1483 H 0.09425 0.69563 0.50195
 H1484 H 0.13437 0.67514 0.48080
 H1485 H 0.07213 0.71649 0.54301
 H1486 H 0.12134 0.74171 0.61539
 H1487 H 0.23115 0.68470 0.55759
 H1488 H 0.18205 0.66130 0.48441
 C1489 C 0.65211 0.18984 1.03615
 C1490 C 0.65656 0.19897 1.06398
 C1491 C 0.63468 0.20986 1.07886
 C1492 C 0.60826 0.21090 1.06637
 C1493 C 0.60437 0.20187 1.03827
 C1494 C 0.62618 0.19140 1.02309
 C1495 C 0.67473 0.17723 1.02080
 C1496 C 0.66991 0.16704 0.99352
 C1497 C 0.69075 0.15325 0.97973
 C1498 C 0.71703 0.14933 0.99258
 C1499 C 0.72097 0.15996 1.02039
 C1500 C 0.70019 0.17400 1.03434
 C1501 C 0.62234 0.18161 0.99539
 C1502 C 0.64383 0.16964 0.98086
 C1503 C 0.68263 0.19624 1.07661
 C1504 C 0.70400 0.18377 1.06212
 H1505 H 0.60246 0.18274 0.98504
 H1506 H 0.63985 0.16186 0.95970
 H1507 H 0.68639 0.20319 1.09809
 H1508 H 0.72358 0.18146 1.07290
 H1509 H 0.63819 0.21715 1.10027
 H1510 H 0.58419 0.20194 1.02849
 H1511 H 0.68511 0.14427 0.95963
 H1512 H 0.73940 0.15506 1.03238
 C1513 C 0.84564 0.18218 0.95242
 C1514 C 0.85827 0.20160 0.97094
 C1515 C 0.88496 0.21171 0.96543
 C1516 C 0.89864 0.20357 0.94067
 C1517 C 0.88502 0.18394 0.92249
 C1518 C 0.85903 0.17299 0.92845
 C1519 C 0.81805 0.17073 0.95849
 C1520 C 0.80644 0.14995 0.94096
 C1521 C 0.78118 0.13775 0.94769
 C1522 C 0.76587 0.14679 0.97114
 C1523 C 0.77800 0.16867 0.98794
 C1524 C 0.80418 0.18012 0.98209
 C1525 C 0.84638 0.15254 0.91098
 C1526 C 0.82063 0.14096 0.91732
 C1527 C 0.84380 0.21063 0.99446
 C1528 C 0.81716 0.20029 0.99979
 H1529 H 0.85662 0.14514 0.89246
 H1530 H 0.81175 0.12487 0.90357
 H1531 H 0.85312 0.22582 1.00889
 H1532 H 0.80683 0.20780 1.01820
 H1533 H 0.89408 0.22724 0.97960
 H1534 H 0.89515 0.17543 0.90443
 H1535 H 0.77429 0.11989 0.93506
 H1536 H 0.76800 0.17681 1.00594
 C1537 C 0.33204 0.70570 0.48011
 C1538 C 0.33260 0.71951 0.45339
 C1539 C 0.35785 0.72709 0.44165
 C1540 C 0.38238 0.72081 0.45640
 C1541 C 0.38140 0.70832 0.48380
 C1542 C 0.35625 0.70042 0.49565
 C1543 C 0.30576 0.69496 0.49123
 C1544 C 0.30543 0.67941 0.51698
 C1545 C 0.28101 0.66628 0.52578
 C1546 C 0.25726 0.66702 0.50815
 C1547 C 0.25728 0.68614 0.48442
 C1548 C 0.28170 0.69912 0.47519
 C1549 C 0.35487 0.68615 0.52213
 C1550 C 0.32986 0.67584 0.53264
 C1551 C 0.30796 0.72438 0.43848
 C1552 C 0.28291 0.71447 0.44927
 H1553 H 0.37335 0.68212 0.53442
 H1554 H 0.32981 0.66404 0.55269
 H1555 H 0.30811 0.73525 0.41794
 H1556 H 0.26448 0.71789 0.43669
 H1557 H 0.35851 0.73710 0.42070
 H1558 H 0.40019 0.70329 0.49517
 H1559 H 0.28117 0.65450 0.54578
 H1560 H 0.23885 0.68840 0.47154
 C1561 C 0.64825 0.80196 0.46248
 C1562 C 0.63439 0.80897 0.43698
 C1563 C 0.60811 0.79783 0.43210
 C1564 C 0.59570 0.77960 0.45228
 C1565 C 0.60974 0.77240 0.47772
 C1566 C 0.63611 0.78389 0.48307
 C1567 C 0.67576 0.81433 0.46790
 C1568 C 0.68931 0.80859 0.49381
 C1569 C 0.71480 0.82205 0.49944
 C1570 C 0.72709 0.84092 0.47919
 C1571 C 0.71262 0.84584 0.45317
 C1572 C 0.68739 0.83272 0.44747
 C1573 C 0.65054 0.77803 0.50855
 C1574 C 0.67659 0.79029 0.51389
 C1575 C 0.64698 0.82713 0.41687
 C1576 C 0.67305 0.83882 0.42204
 H1577 H 0.64149 0.76415 0.52466
 H1578 H 0.68675 0.78559 0.53401
 H1579 H 0.63650 0.83258 0.39710
 H1580 H 0.68191 0.85309 0.40612
 H1581 H 0.59728 0.80307 0.41244
 H1582 H 0.60011 0.75818 0.49318
 H1583 H 0.72448 0.81899 0.52011
 H1584 H 0.71963 0.86149 0.43763
 C1585 C 0.15616 0.31335 -0.00832
 C1586 C 0.14886 0.28783 0.00620
 C1587 C 0.12382 0.27405 -0.00073
 C1588 C 0.10610 0.28640 -0.02129
 C1589 C 0.11354 0.31234 -0.03495
 C1590 C 0.13860 0.32571 -0.02885
 C1591 C 0.18278 0.32736 -0.00217
 C1592 C 0.19008 0.35233 -0.01733
 C1593 C 0.21528 0.36546 -0.01185
 C1594 C 0.23407 0.35403 0.00851
 C1595 C 0.22535 0.32991 0.02501
 C1596 C 0.20017 0.31588 0.01899
 C1597 C 0.14656 0.35102 -0.04325
 C1598 C 0.17194 0.36407 -0.03765
 C1599 C 0.16685 0.27672 0.02713
 C1600 C 0.19188 0.29069 0.03366
 H1601 H 0.13315 0.36069 -0.05914
 H1602 H 0.17742 0.38352 -0.04936
 H1603 H 0.16148 0.25714 0.03866
 H1604 H 0.20501 0.28147 0.05005
 H1605 H 0.11811 0.25396 0.00971
 H1606 H 0.10012 0.32158 -0.05112
 H1607 H 0.21977 0.38532 -0.02324
 H1608 H 0.23796 0.32219 0.04255
 C1609 C 0.36182 0.31529 0.04896
 C1610 C 0.36352 0.28532 0.05004
 C1611 C 0.38731 0.27272 0.06150
 C1612 C 0.40910 0.29010 0.07172
 C1613 C 0.40741 0.32008 0.06891
 C1614 C 0.38377 0.33276 0.05806
 C1615 C 0.33631 0.32873 0.03894
 C1616 C 0.33451 0.35857 0.03915
 C1617 C 0.30999 0.37122 0.03125
 C1618 C 0.28675 0.35468 0.02304
 C1619 C 0.28957 0.32467 0.02103
 C1620 C 0.31412 0.31155 0.02983
 C1621 C 0.38140 0.36264 0.05701
 C1622 C 0.35710 0.37535 0.04782
 C1623 C 0.34108 0.26873 0.04036
 C1624 C 0.31692 0.28162 0.03021
 H1625 H 0.39826 0.37629 0.06392
 H1626 H 0.35586 0.39848 0.04785
 H1627 H 0.34209 0.24558 0.04088
 H1628 H 0.30008 0.26799 0.02320
 H1629 H 0.38842 0.24961 0.06352
 H1630 H 0.42431 0.33363 0.07595
 H1631 H 0.30864 0.39432 0.03212
 H1632 H 0.27310 0.31143 0.01273
 C1633 C 0.84829 0.81036 0.54118
 C1634 C 0.84951 0.78078 0.54696
 C1635 C 0.87169 0.77003 0.56309
 C1636 C 0.89204 0.78889 0.57375
 C1637 C 0.89069 0.81834 0.56715
 C1638 C 0.86895 0.82919 0.55091
 C1639 C 0.82456 0.82205 0.52540
 C1640 C 0.82337 0.85162 0.52024
 C1641 C 0.80029 0.86289 0.50682
 C1642 C 0.77756 0.84526 0.49922
 C1643 C 0.77990 0.81522 0.50292
 C1644 C 0.80325 0.80360 0.51648
 C1645 C 0.86721 0.85862 0.54471
 C1646 C 0.84481 0.86965 0.52955
 C1647 C 0.82820 0.76280 0.53701
 C1648 C 0.80549 0.77400 0.52206
 H1649 H 0.88311 0.87330 0.55199
 H1650 H 0.84400 0.89257 0.52558
 H1651 H 0.82887 0.73992 0.54120
 H1652 H 0.78934 0.75940 0.51524
 H1653 H 0.87267 0.74732 0.56817
 H1654 H 0.90653 0.83284 0.57495
 H1655 H 0.79919 0.88592 0.50375
 H1656 H 0.76372 0.80087 0.49591
   
