data_POSCAR
  _audit_creation_date              2014-09-24
  _audit_creation_method            'ToBaCCo'
  _symmetry_space_group_name_H-M    'P1'
  _symmetry_Int_Tables_number       1
  _symmetry_cell_setting            triclinic
  loop_
  _symmetry_equiv_pos_as_xyz
 x,y,z
_cell_length_a 44.3002
_cell_length_b 44.5618
_cell_length_c 44.0528
_cell_angle_alpha 90.028300
_cell_angle_beta 89.895700
_cell_angle_gamma 89.749400
loop_
  _atom_site_label
  _atom_site_type_symbol
  _atom_site_fract_x
  _atom_site_fract_y
  _atom_site_fract_z
C1 C 0.37640 1.37744 0.33221
 N2 N 0.34558 1.37840 0.33316
 C3 C 0.33050 1.36132 0.35396
 N4 N 0.34629 1.34296 0.37298
 C5 C 0.37684 1.34352 0.37324
 N6 N 0.39157 1.36087 0.35301
 C7 C 0.33776 0.84781 0.80857
 N8 N 0.35573 0.82561 0.81918
 C9 C 0.35547 0.81819 0.84902
 N10 N 0.33781 0.83396 0.86860
 C11 C 0.31951 0.85631 0.85809
 N12 N 0.31916 0.86278 0.82793
 C13 C 0.87429 1.35141 0.82986
 N14 N 0.87769 1.32616 0.84681
 C15 C 0.85647 1.31865 0.86764
 N16 N 0.83230 1.33675 0.87218
 C17 C 0.82957 1.36271 0.85657
 N18 N 0.85038 1.36985 0.83508
 C19 C 0.87273 0.85568 0.33579
 N20 N 0.87831 0.83179 0.35397
 C21 C 0.85786 0.82325 0.37506
 N22 N 0.83189 0.83920 0.37869
 C23 C 0.82656 0.86377 0.36131
 N24 N 0.84683 0.87170 0.33954
 C25 C 0.64581 0.62791 0.33122
 N26 N 0.62609 0.65116 0.33365
 C27 C 0.63078 0.67332 0.35423
 N28 N 0.65560 0.67229 0.37229
 C29 C 0.67550 0.64906 0.37001
 N30 N 0.67044 0.62685 0.34953
 C31 C 0.63505 0.12449 0.83569
 N32 N 0.62965 0.15423 0.83091
 C33 C 0.64341 0.17520 0.84863
 N34 N 0.66374 0.16637 0.87022
 C35 C 0.66813 0.13660 0.87582
 N36 N 0.65322 0.11611 0.85888
 C37 C 1.14417 0.62770 0.83052
 N38 N 1.17017 0.62799 0.84671
 C39 C 1.17705 0.65186 0.86446
 N40 N 1.15759 0.67546 0.86626
 C41 C 1.13136 0.67527 0.85033
 N42 N 1.12484 0.65143 0.83228
 C43 C 1.17157 0.15332 0.29778
 N44 N 1.18474 0.14197 0.32330
 C45 C 1.18336 0.15784 0.34979
 N46 N 1.16741 0.18386 0.35085
 C47 C 1.15440 0.19511 0.32553
 N48 N 1.15716 0.18019 0.29897
 C49 C 0.64631 1.35344 0.66915
 N50 N 0.63657 1.32776 0.65583
 C51 C 0.64360 1.32229 0.62622
 N52 N 0.66130 1.34199 0.61058
 C53 C 0.67030 1.36792 0.62392
 N54 N 0.66239 1.37351 0.65298
 C55 C 0.63671 0.84917 1.17559
 N56 N 0.65349 0.87107 1.16249
 C57 C 0.66506 0.86701 1.13415
 N58 N 0.65849 0.84163 1.11839
 C59 C 0.64083 0.82019 1.13118
 N60 N 0.63074 0.82376 1.15990
 C61 C 1.14236 1.36969 1.16994
 N62 N 1.13060 1.34161 1.17121
 C63 C 1.14260 1.31918 1.15409
 N64 N 1.16721 1.32458 1.13670
 C65 C 1.17981 1.35232 1.13606
 N66 N 1.16696 1.37497 1.15224
 C67 C 1.14855 0.85425 0.68603
 N68 N 1.17587 0.86237 0.67484
 C69 C 1.19563 0.84147 0.66473
 N70 N 1.18775 0.81223 0.66526
 C71 C 1.16016 0.80362 0.67519
 N72 N 1.14032 0.82468 0.68598
 C73 C 0.36508 0.65359 0.67700
 N74 N 0.34450 0.63150 0.67317
 C75 C 0.32657 0.63099 0.64822
 N76 N 0.32954 0.65279 0.62678
 C77 C 0.35032 0.67490 0.63042
 N78 N 0.36786 0.67528 0.65564
 C79 C 0.35223 0.15398 1.17801
 N80 N 0.32461 0.14057 1.17845
 C81 C 0.30083 0.15395 1.16430
 N82 N 0.30493 0.18034 1.14954
 C83 C 0.33268 0.19280 1.14750
 N84 N 0.35626 0.17970 1.16198
 C85 C 0.86787 0.65014 1.17806
 N86 N 0.87078 0.67267 1.15751
 C87 C 0.85545 0.67189 1.13089
 N88 N 0.83669 0.64862 1.12503
 C89 C 0.83370 0.62594 1.14538
 N90 N 0.84945 0.62665 1.17178
 C91 C 0.84257 0.16601 0.69338
 N92 N 0.85660 0.17933 0.66938
 C93 C 0.84496 0.17611 0.64083
 N94 N 0.82050 0.15823 0.63637
 C95 C 0.80689 0.14455 0.66021
 N96 N 0.81750 0.14939 0.68857
 C97 C 1.36041 0.37575 0.66609
 N98 N 1.38121 0.35353 0.66235
 C99 C 1.37612 0.33095 0.64230
 N100 N 1.35009 0.33060 0.62617
 C101 C 1.32940 0.35280 0.62951
 N102 N 1.33460 0.37537 0.64945
 C103 C 1.35933 0.87232 1.16694
 N104 N 1.33454 0.87300 1.14899
 C105 C 1.32892 0.85011 1.12953
 N106 N 1.34838 0.82650 1.12791
 C107 C 1.37348 0.82580 1.14562
 N108 N 1.37871 0.84870 1.16525
 C109 C 0.85350 0.36756 1.17436
 N110 N 0.87191 0.34304 1.17477
 C111 C 0.86634 0.31938 1.15613
 N112 N 0.84207 0.32017 1.13739
 C113 C 0.82359 0.34450 1.13697
 N114 N 0.82947 0.36818 1.15532
 C115 C 0.85127 0.86946 0.67642
 N116 N 0.82619 0.87003 0.65874
 C117 C 0.82016 0.84689 0.63965
 N118 N 0.83957 0.82321 0.63806
 C119 C 0.86486 0.82260 0.65546
 N120 N 0.87052 0.84571 0.67473
 C121 C 0.63848 0.64293 0.67265
 N122 N 0.66736 0.63285 0.66989
 C123 C 0.68883 0.65080 0.65777
 N124 N 0.68117 0.67865 0.64793
 C125 C 0.65216 0.68849 0.64964
 N126 N 0.63084 0.67076 0.66254
 C127 C 0.61986 1.13606 1.16781
 N128 N 0.64718 1.12237 1.16631
 C129 C 0.67063 1.13564 1.15212
 N130 N 0.66660 1.16257 1.13867
 C131 C 0.63926 1.17654 1.13953
 N132 N 0.61580 1.16347 1.15466
 C133 C 0.13649 0.63772 1.17202
 N134 N 0.13295 0.66787 1.16721
 C135 C 0.15075 0.68195 1.14629
 N136 N 0.17167 0.66597 1.13073
 C137 C 0.17466 0.63614 1.13462
 N138 N 0.15685 0.62190 1.15500
 C139 C 0.12488 1.13657 0.66811
 N140 N 0.11057 1.14813 0.64363
 C141 C 0.12628 1.16093 0.62061
 N142 N 0.15701 1.16115 0.62160
 C143 C 0.17162 1.14823 0.64551
 N144 N 0.15545 1.13659 0.66897
 C145 C 1.35068 0.64945 0.31351
 N146 N 1.35018 0.67865 0.32226
 C147 C 1.33563 0.68715 0.34782
 N148 N 1.32122 0.66640 0.36491
 C149 C 1.32233 0.63698 0.35705
 N150 N 1.33713 0.62841 0.33126
 C151 C 1.37010 1.12616 0.83624
 N152 N 1.34293 1.12228 0.85017
 C153 C 1.33065 1.14494 0.86689
 N154 N 1.34616 1.17099 0.87058
 C155 C 1.37377 1.17438 0.85774
 N156 N 1.38523 1.15217 0.84011
 C157 C 0.83703 0.65798 0.79914
 N158 N 0.84699 0.68608 0.80493
 C159 C 0.84214 0.69881 0.83256
 N160 N 0.82820 0.68279 0.85476
 C161 C 0.81802 0.65464 0.84872
 N162 N 0.82212 0.64255 0.82085
 C163 C 0.85116 1.14434 0.32284
 N164 N 0.85860 1.17337 0.32917
 C165 C 0.83662 1.19390 0.33513
 N166 N 0.80758 1.18476 0.33682
 C167 C 0.80009 1.15565 0.33267
 N168 N 0.82182 1.13546 0.32475
 C169 C 0.63623 0.34566 0.32559
 N170 N 0.63208 0.32326 0.34594
 C171 C 0.64757 0.32289 0.37245
 N172 N 0.66786 0.34492 0.37834
 C173 C 0.67227 0.36740 0.35800
 N174 N 0.65623 0.36783 0.33173
 C175 C 0.63476 0.84826 0.82580
 N176 N 0.65396 0.87127 0.83171
 C177 C 0.67212 0.87026 0.85656
 N178 N 0.67088 0.84634 0.87551
 C179 C 0.65163 0.82348 0.86996
 N180 N 0.63367 0.82444 0.84503
 C181 C 0.15484 0.32872 0.80660
 N182 N 0.14247 0.31387 0.83062
 C183 C 0.15350 0.31854 0.85921
 N184 N 0.17580 0.33914 0.86355
 C185 C 0.18766 0.35427 0.83961
 N186 N 0.17758 0.34834 0.81134
 C187 C 0.13425 0.84737 0.32515
 N188 N 0.15162 0.87147 0.33203
 C189 C 0.16627 0.87278 0.35903
 N190 N 0.16321 0.85013 0.37935
 C191 C 0.14544 0.82627 0.37293
 N192 N 0.13121 0.82482 0.34571
 O193 O 0.96323 0.91353 0.84188
 O194 O 0.96095 0.88287 0.80267
 C195 C 0.95217 0.90651 0.81622
 C196 C 0.92784 0.92517 0.80265
 C197 C 0.91466 0.91687 0.77487
 H198 H 0.92379 0.89790 0.76255
 O199 O 1.03207 1.12063 0.86406
 O200 O 1.03257 1.15933 0.83286
 C201 C 1.04204 1.13329 0.84036
 C202 C 1.06484 1.11734 0.82162
 C203 C 1.06896 1.12465 0.79099
 H204 H 1.05543 1.14234 0.78093
 O205 O 0.84716 0.99512 0.89337
 O206 O 0.81146 1.00046 0.85895
 C207 C 0.82190 0.98734 0.88227
 C208 C 0.80459 0.96243 0.89602
 C209 C 0.77656 0.95439 0.88376
 H210 H 0.76787 0.96699 0.86473
 O211 O 1.15184 1.03611 0.89578
 O212 O 1.18661 1.03871 0.86007
 C213 C 1.17638 1.04701 0.88575
 C214 C 1.19224 1.07027 0.90400
 C215 C 1.21864 1.08451 0.89323
 H216 H 1.22839 1.07800 0.87163
 O217 O 0.87860 0.86489 0.95998
 O218 O 0.84131 0.83250 0.95632
 C219 C 0.86633 0.84274 0.94672
 C220 C 0.88112 0.82969 0.91935
 C221 C 0.86797 0.80565 0.90321
 H222 H 0.84715 0.79565 0.91111
 O223 O 1.11238 1.14891 0.98822
 O224 O 1.14875 1.18226 0.99228
 C225 C 1.12412 1.17375 0.98038
 C226 C 1.10956 1.19236 0.95642
 C227 C 1.12241 1.21971 0.94709
 H228 H 1.14263 1.22762 0.95820
 O229 O 0.89013 1.05554 0.85615
 O230 O 0.85396 1.06079 0.82223
 C231 C 0.87924 1.06872 0.83301
 C232 C 0.89546 1.09432 0.81926
 C233 C 0.88198 1.11123 0.79607
 H234 H 0.86027 1.10453 0.78708
 O235 O 1.10769 0.98291 0.85002
 O236 O 1.14286 0.98378 0.81457
 C237 C 1.11784 0.97387 0.82460
 C238 C 1.10071 0.95099 0.80712
 C239 C 1.11119 0.94080 0.77876
 H240 H 1.13141 0.95042 0.76897
 O241 O 1.01813 0.86253 0.87817
 O242 O 1.01527 0.83171 0.83910
 C243 C 1.02625 0.83848 0.86477
 C244 C 1.04935 0.81879 0.87885
 C245 C 1.05683 0.79077 0.86609
 H246 H 1.04495 0.78333 0.84606
 O247 O 0.97518 1.15701 0.91195
 O248 O 0.97498 1.19633 0.88160
 C249 C 0.96451 1.18238 0.90463
 C250 C 0.93867 1.19499 0.92210
 C251 C 0.92260 1.21975 0.91054
 H252 H 0.92971 1.23006 0.88947
 O253 O 0.84978 1.11463 0.99317
 O254 O 0.81664 1.15128 0.99892
 C255 C 0.82576 1.12807 0.98485
 C256 C 0.80927 1.11698 0.95781
 C257 C 0.77902 1.12520 0.95199
 H258 H 0.76675 1.13912 0.96802
 O259 O 1.13977 0.88798 0.95875
 O260 O 1.17335 0.85164 0.95344
 C261 C 1.16397 0.87786 0.94704
 C262 C 1.18208 0.89673 0.92636
 C263 C 1.21212 0.88894 0.92062
 H264 H 1.22159 0.86907 0.93119
 O265 O 0.97332 1.12783 0.86096
 O266 O 0.97426 1.16732 0.83083
 C267 C 0.96296 1.14233 0.83823
 C268 C 0.93654 1.13060 0.82146
 C269 C 0.92259 1.14746 0.79814
 H270 H 0.93197 1.16875 0.79107
 O271 O 1.02258 0.90935 0.84344
 O272 O 1.02006 0.87838 0.80449
 C273 C 1.03253 0.90029 0.81798
 C274 C 1.05932 0.91476 0.80421
 C275 C 1.07077 0.90436 0.77634
 H276 H 1.05964 0.88622 0.76446
 O277 O 1.14953 0.97767 0.89036
 O278 O 1.18533 0.97943 0.85559
 C279 C 1.17379 0.96729 0.87901
 C280 C 1.18771 0.94031 0.89310
 C281 C 1.21788 0.93169 0.88708
 H282 H 1.23182 0.94501 0.87206
 O283 O 0.85016 1.05319 0.89958
 O284 O 0.81392 1.05815 0.86567
 C285 C 0.82543 1.06505 0.89114
 C286 C 0.80976 1.08666 0.91145
 C287 C 0.77973 1.09512 0.90598
 H288 H 0.76784 1.08585 0.88666
 O289 O 0.89653 1.14879 0.99637
 O290 O 0.86361 1.18573 1.00122
 C291 C 0.88703 1.17453 0.98865
 C292 C 0.90164 1.19111 0.96342
 C293 C 0.88684 1.21638 0.95188
 H294 H 0.86700 1.22485 0.96342
 O295 O 1.09729 0.84761 0.95577
 O296 O 1.13073 0.81117 0.95060
 C297 C 1.10635 0.82389 0.94252
 C298 C 1.08865 0.81164 0.91691
 C299 C 1.09585 0.78366 0.90398
 H300 H 1.11376 0.77031 0.91386
 O301 O 1.11014 1.04108 0.85493
 O302 O 1.14430 1.04253 0.81850
 C303 C 1.12023 1.05265 0.83063
 C304 C 1.10348 1.07810 0.81679
 C305 C 1.10777 1.08616 0.78621
 H306 H 1.12376 1.07384 0.77229
 O307 O 0.88810 0.99707 0.85130
 O308 O 0.85233 1.00233 0.81695
 C309 C 0.87648 0.98972 0.82606
 C310 C 0.89065 0.96559 0.80761
 C311 C 0.87769 0.95675 0.77994
 H312 H 0.85776 0.96836 0.77200
 O313 O 1.03428 1.15991 0.90756
 O314 O 1.03489 1.19914 0.87714
 C315 C 1.04536 1.18513 0.89986
 C316 C 1.07122 1.19778 0.91689
 C317 C 1.08456 1.22497 0.90775
 H318 H 1.07510 1.23738 0.88888
 O319 O 0.95961 0.86992 0.88064
 O320 O 0.95707 0.83930 0.84140
 C321 C 0.94736 0.84796 0.86717
 C322 C 0.92093 0.83274 0.88079
 C323 C 0.90746 0.80899 0.86522
 H324 H 0.91743 0.80103 0.84421
 O325 O 1.15178 1.10577 0.98425
 O326 O 1.18811 1.13915 0.98854
 C327 C 1.17672 1.11654 0.97524
 C328 C 1.19206 1.10376 0.94818
 C329 C 1.21830 1.11731 0.93719
 H330 H 1.22827 1.13558 0.94988
 O331 O 0.84061 0.90875 0.96623
 O332 O 0.80311 0.87659 0.96266
 C333 C 0.81541 0.90116 0.95491
 C334 C 0.80101 0.92053 0.93158
 C335 C 0.77285 0.91292 0.91899
 H336 H 0.76090 0.89364 0.92771
 Cu337 Cu 0.99125 0.89199 0.86487
 Cu338 Cu 0.98801 0.85510 0.81796
 Cu339 Cu 1.00369 1.13756 0.88899
 Cu340 Cu 1.00457 1.18453 0.85296
 Cu341 Cu 0.87257 1.02484 0.87847
 Cu342 Cu 0.82942 1.03103 0.83744
 Cu343 Cu 1.12648 1.00934 0.87635
 Cu344 Cu 1.16834 1.01131 0.83366
 C345 C 0.91588 0.94980 0.81864
 H346 H 0.92558 0.95603 0.84029
 C347 C 0.88938 0.93231 0.76338
 C348 C 1.08196 1.09385 0.83421
 H349 H 1.07865 1.08792 0.85783
 C350 C 1.09000 1.10892 0.77306
 C351 C 0.81652 0.94558 0.92011
 H352 H 0.83842 0.95137 0.92924
 C353 C 0.76044 0.92970 0.89491
 C354 C 1.17933 1.08006 0.93163
 H355 H 1.15870 1.06990 0.93981
 C356 C 1.23139 1.10847 0.90962
 C357 C 0.90776 0.84286 0.90796
 H358 H 0.91782 0.86164 0.91978
 C359 C 0.88096 0.79564 0.87584
 C360 C 1.08379 1.18182 0.94134
 H361 H 1.07395 1.16063 0.94811
 C362 C 1.11013 1.23619 0.92271
 C363 C 0.92301 1.10387 0.83136
 H364 H 0.93318 1.09120 0.84968
 C365 C 0.89514 1.13788 0.78560
 C366 C 1.07445 0.93805 0.81944
 H367 H 1.06615 0.94563 0.84129
 C368 C 1.09643 0.91740 0.76343
 C369 C 1.06515 0.82877 0.90442
 H370 H 1.05980 0.85053 0.91406
 C371 C 1.07993 0.77283 0.87861
 C372 C 0.92777 1.18049 0.94851
 H373 H 0.93906 1.16057 0.95693
 C374 C 0.89621 1.22993 0.92492
 C375 C 0.82428 1.09772 0.93739
 H376 H 0.84750 1.09132 0.94169
 C377 C 0.76413 1.11400 0.92621
 C378 C 1.17014 0.92267 0.91294
 H379 H 1.14688 0.92879 0.91754
 C380 C 1.23029 0.90631 0.90156
 O381 O 1.02535 0.87408 1.13756
 O382 O 1.02363 0.83563 1.16907
 C383 C 1.03527 0.86043 1.16078
 C384 C 1.06096 0.87302 1.17810
 C385 C 1.06951 0.85986 1.20562
 H386 H 1.05610 0.84167 1.21454
 O387 O 0.97948 1.08659 1.17192
 O388 O 0.98272 1.11807 1.21039
 C389 C 0.97099 1.09521 1.19809
 C390 C 0.94611 1.07971 1.21390
 C391 C 0.93655 1.08982 1.24238
 H392 H 0.94876 1.10796 1.25301
 O393 O 0.85528 1.02299 1.12596
 O394 O 0.82070 1.01977 1.16189
 C395 C 0.83120 1.03245 1.13829
 C396 C 0.81548 1.05875 1.12543
 C397 C 0.78836 1.06857 1.13823
 H398 H 0.77843 1.05541 1.15623
 O399 O 1.15147 0.95123 1.10512
 O400 O 1.18779 0.94458 1.13859
 C401 C 1.17577 0.93830 1.11323
 C402 C 1.18940 0.91497 1.09337
 C403 C 1.21717 0.90135 1.10079
 H404 H 1.22918 0.90866 1.12082
 O405 O 1.09977 0.84160 1.01510
 O406 O 1.13405 0.80587 1.01000
 C407 C 1.11078 0.81643 1.02310
 C408 C 1.09771 0.80030 1.04929
 C409 C 1.11537 0.77950 1.06538
 H410 H 1.13743 0.77344 1.05668
 O411 O 0.89602 1.14454 1.05556
 O412 O 0.86381 1.18211 1.06050
 C413 C 0.88768 1.16854 1.06882
 C414 C 0.90551 1.18032 1.09467
 C415 C 0.89882 1.20862 1.10718
 H416 H 0.88131 1.22218 1.09691
 O417 O 0.89431 0.95863 1.15901
 O418 O 0.86044 0.95531 1.19564
 C419 C 0.88439 0.94599 1.18277
 C420 C 0.90100 0.91997 1.19490
 C421 C 0.89770 0.91070 1.22525
 H422 H 0.88282 0.92304 1.24031
 O423 O 1.11474 1.00565 1.15613
 O424 O 1.15105 0.99906 1.18977
 C425 C 1.12741 1.01269 1.18100
 C426 C 1.11620 1.03893 1.19820
 C427 C 1.13645 1.05547 1.21621
 H428 H 1.15944 1.04766 1.21934
 O429 O 0.96316 0.84114 1.09379
 O430 O 0.96141 0.80239 1.12482
 C431 C 0.95125 0.81657 1.10190
 C432 C 0.92473 0.80503 1.08501
 C433 C 0.91227 0.77692 1.09203
 H434 H 0.92301 0.76296 1.10900
 O435 O 1.03649 1.13078 1.13060
 O436 O 1.03796 1.16248 1.16904
 C437 C 1.04688 1.15438 1.14292
 C438 C 1.07014 1.17247 1.12748
 C439 C 1.07942 1.19951 1.14052
 H440 H 1.06755 1.20762 1.16033
 O441 O 0.84154 0.90102 1.02535
 O442 O 0.80367 0.86926 1.02204
 C443 C 0.81650 0.89117 1.03522
 C444 C 0.80279 0.90514 1.06267
 C445 C 0.77237 0.90004 1.07060
 H446 H 0.75835 0.88602 1.05638
 O447 O 1.15084 1.09919 1.04346
 O448 O 1.18670 1.13308 1.04772
 C449 C 1.17516 1.10817 1.05563
 C450 C 1.18931 1.09088 1.08075
 C451 C 1.20951 1.10562 1.09999
 H452 H 1.21594 1.12858 1.09513
 O453 O 1.03877 1.08551 1.16772
 O454 O 1.04167 1.11777 1.20561
 C455 C 1.05136 1.09451 1.19195
 C456 C 1.07892 1.07922 1.20311
 C457 C 1.09937 1.09523 1.22113
 H458 H 1.09384 1.11785 1.22843
 O459 O 0.96714 0.87550 1.14169
 O460 O 0.96552 0.83660 1.17263
 C461 C 0.95740 0.86300 1.16570
 C462 C 0.93679 0.87939 1.18608
 C463 C 0.93336 0.87027 1.21626
 H464 H 0.94557 0.85067 1.22401
 O465 O 1.15297 1.00973 1.11283
 O466 O 1.18900 1.00384 1.14683
 C467 C 1.17741 1.01850 1.12490
 C468 C 1.19095 1.04731 1.11479
 C469 C 1.21088 1.06301 1.13407
 H470 H 1.21777 1.05336 1.15556
 O471 O 0.85226 0.96560 1.11857
 O472 O 0.81779 0.96213 1.15459
 C473 C 0.82720 0.95556 1.12808
 C474 C 0.80851 0.93651 1.10798
 C475 C 0.77811 0.93166 1.11506
 H476 H 0.76867 0.94167 1.13539
 O477 O 1.11236 1.14309 1.04762
 O478 O 1.14831 1.17692 1.05156
 C479 C 1.12359 1.16587 1.06080
 C480 C 1.10806 1.17856 1.08782
 C481 C 1.11774 1.20544 1.10179
 H482 H 1.13649 1.21776 1.09222
 O483 O 0.88057 0.85810 1.01865
 O484 O 0.84313 0.82583 1.01541
 C485 C 0.86866 0.83332 1.02615
 C486 C 0.88435 0.81336 1.04805
 C487 C 0.87233 0.78518 1.05536
 H488 H 0.85171 0.77799 1.04449
 O489 O 1.11026 0.94775 1.14709
 O490 O 1.14599 0.94096 1.18117
 C491 C 1.12058 0.93371 1.16990
 C492 C 1.10288 0.90839 1.18279
 C493 C 1.11130 0.89452 1.21028
 H494 H 1.13088 0.90251 1.22246
 O495 O 0.89509 1.01618 1.16811
 O496 O 0.86080 1.01330 1.20431
 C497 C 0.88544 1.02382 1.19424
 C498 C 0.90318 1.04567 1.21223
 C499 C 0.89336 1.05663 1.24079
 H500 H 0.87259 1.04846 1.25075
 O501 O 0.97785 1.13091 1.13359
 O502 O 0.98005 1.16233 1.17222
 C503 C 0.96866 1.15452 1.14698
 C504 C 0.94458 1.17318 1.13310
 C505 C 0.93734 1.20140 1.14544
 H506 H 0.94939 1.20906 1.16527
 O507 O 1.02259 0.83539 1.09462
 O508 O 1.02072 0.79682 1.12595
 C509 C 1.03228 0.80988 1.10324
 C510 C 1.05899 0.79664 1.08840
 C511 C 1.07696 0.77576 1.10427
 H512 H 1.06976 0.76754 1.12625
 O513 O 1.14219 0.88106 1.01705
 O514 O 1.17613 0.84510 1.01124
 C515 C 1.16691 0.86866 1.02470
 C516 C 1.18482 0.88112 1.05001
 C517 C 1.21271 0.86819 1.05749
 H518 H 1.22164 0.85042 1.04333
 O519 O 0.85195 1.10658 1.05240
 O520 O 0.81962 1.14391 1.05815
 C521 C 0.82890 1.11788 1.06538
 C522 C 0.81381 1.10074 1.08992
 C523 C 0.78673 1.11079 1.10359
 H524 H 0.77596 1.13115 1.09560
 Cu525 Cu 0.99437 0.86016 1.11346
 Cu526 Cu 0.99248 0.81384 1.15106
 Cu527 Cu 1.00786 1.10505 1.14721
 Cu528 Cu 1.01073 1.14312 1.19334
 Cu529 Cu 0.86395 0.88645 0.99290
 Cu530 Cu 0.81901 0.84786 0.98888
 Cu531 Cu 1.11608 0.86801 0.98700
 Cu532 Cu 1.15677 0.82466 0.98045
 Cu533 Cu 0.87658 1.12473 1.02402
 Cu534 Cu 0.83777 1.16955 1.03021
 Cu535 Cu 1.12812 1.12102 1.01549
 Cu536 Cu 1.17169 1.16105 1.02036
 Cu537 Cu 0.87787 0.99107 1.13949
 Cu538 Cu 0.83636 0.98708 1.18270
 Cu539 Cu 1.12881 0.97896 1.12691
 Cu540 Cu 1.17221 0.97098 1.16727
 C541 C 1.07758 0.89744 1.16696
 H542 H 1.07113 0.90755 1.14557
 C543 C 1.09466 0.87013 1.22184
 C544 C 0.92978 1.05721 1.19936
 H545 H 0.93716 1.04963 1.17718
 C546 C 0.91034 1.07861 1.25619
 C547 C 0.82790 1.07469 1.10111
 H548 H 0.84906 1.06714 1.09132
 C549 C 0.77396 1.09474 1.12801
 C550 C 1.17351 0.90475 1.06780
 H551 H 1.15180 0.91457 1.06227
 C552 C 1.22896 0.87778 1.08297
 C553 C 1.06944 0.80860 1.06088
 H554 H 1.05614 0.82545 1.04916
 C555 C 1.10561 0.76785 1.09337
 C556 C 0.92867 1.16291 1.10761
 H557 H 0.93390 1.14102 1.09820
 C558 C 0.91470 1.21951 1.13253
 C559 C 0.92083 0.90437 1.17565
 H560 H 0.92340 0.91131 1.15221
 C561 C 0.91436 0.88605 1.23625
 C562 C 1.08742 1.05090 1.19194
 H563 H 1.07228 1.03892 1.17697
 C564 C 1.12833 1.08391 1.22698
 C565 C 0.91074 0.82293 1.06276
 H566 H 0.91994 0.84481 1.05749
 C567 C 0.88612 0.76674 1.07723
 C568 C 1.08420 1.16236 1.10095
 H569 H 1.07711 1.14129 1.09104
 C570 C 1.10347 1.21602 1.12844
 C571 C 0.82057 0.92357 1.08149
 H572 H 0.84405 0.92738 1.07585
 C573 C 0.75979 0.91385 1.09647
 C574 C 1.18020 1.06158 1.08821
 H575 H 1.16385 1.05036 1.07395
 C576 C 1.21951 1.09245 1.12702
 O577 O 0.96388 0.40995 0.33763
 O578 O 0.96213 0.38011 0.29773
 C579 C 0.95298 0.40330 0.31189
 C580 C 0.92866 0.42211 0.29886
 C581 C 0.91568 0.41457 0.27088
 H582 H 0.92496 0.39594 0.25816
 O583 O 1.03824 0.62066 0.36236
 O584 O 1.03951 0.65931 0.33116
 C585 C 1.04855 0.63320 0.33861
 C586 C 1.07144 0.61678 0.32015
 C587 C 1.07680 0.62345 0.28916
 H588 H 1.06413 0.64114 0.27804
 O589 O 0.85062 0.48995 0.39232
 O590 O 0.81464 0.49653 0.35842
 C591 C 0.82538 0.48244 0.38112
 C592 C 0.80872 0.45653 0.39396
 C593 C 0.78018 0.44909 0.38256
 H594 H 0.77051 0.46321 0.36521
 O595 O 1.15207 0.52789 0.39777
 O596 O 1.18708 0.53039 0.36222
 C597 C 1.17725 0.53760 0.38840
 C598 C 1.19523 0.55797 0.40760
 C599 C 1.22500 0.56429 0.39945
 H600 H 1.23488 0.55330 0.37983
 O601 O 0.88692 0.35622 0.45468
 O602 O 0.84930 0.32421 0.45106
 C603 C 0.87442 0.33426 0.44148
 C604 C 0.88840 0.32113 0.41388
 C605 C 0.87381 0.29791 0.39849
 H606 H 0.85326 0.28847 0.40779
 O607 O 1.11895 0.64282 0.48965
 O608 O 1.15652 0.67495 0.49266
 C609 C 1.13121 0.66721 0.48156
 C610 C 1.11619 0.68631 0.45846
 C611 C 1.12818 0.71438 0.45068
 H612 H 1.14827 0.72217 0.46211
 O613 O 0.89362 0.55086 0.35658
 O614 O 0.85809 0.55740 0.32219
 C615 C 0.88350 0.56451 0.33339
 C616 C 0.90154 0.58910 0.31983
 C617 C 0.89316 0.60272 0.29220
 H618 H 0.87324 0.59502 0.28038
 O619 O 1.10699 0.47905 0.34844
 O620 O 1.14200 0.48186 0.31291
 C621 C 1.11676 0.47197 0.32231
 C622 C 1.09914 0.45157 0.30272
 C623 C 1.10910 0.44553 0.27320
 H624 H 1.12928 0.45644 0.26492
 O625 O 1.02133 0.36173 0.37257
 O626 O 1.01991 0.33189 0.33264
 C627 C 1.03100 0.33893 0.35827
 C628 C 1.05641 0.32129 0.37075
 C629 C 1.06944 0.29830 0.35335
 H630 H 1.05939 0.29221 0.33185
 O631 O 0.98105 0.65790 0.40988
 O632 O 0.98134 0.69703 0.37931
 C633 C 0.97056 0.68338 0.40227
 C634 C 0.94489 0.69636 0.41992
 C635 C 0.92889 0.72192 0.40950
 H636 H 0.93549 0.73276 0.38854
 O637 O 0.85745 0.61398 0.49074
 O638 O 0.82369 0.65015 0.49589
 C639 C 0.83315 0.62686 0.48228
 C640 C 0.81631 0.61550 0.45563
 C641 C 0.78873 0.62879 0.44725
 H642 H 0.77907 0.64594 0.46170
 O643 O 1.14639 0.38402 0.45587
 O644 O 1.18000 0.34756 0.45186
 C645 C 1.17053 0.37341 0.44433
 C646 C 1.18710 0.39042 0.42077
 C647 C 1.21277 0.37782 0.40728
 H648 H 1.22168 0.35702 0.41632
 O649 O 0.97964 0.62206 0.36415
 O650 O 0.98088 0.66101 0.33328
 C651 C 0.96967 0.63597 0.34108
 C652 C 0.94417 0.62347 0.32364
 C653 C 0.93580 0.63644 0.29597
 H654 H 0.94954 0.65426 0.28678
 O655 O 1.02264 0.40619 0.33524
 O656 O 1.02107 0.37659 0.29515
 C657 C 1.03257 0.39866 0.30920
 C658 C 1.05836 0.41538 0.29593
 C659 C 1.06917 0.40915 0.26642
 H660 H 1.05808 0.39244 0.25254
 O661 O 1.15185 0.47035 0.38546
 O662 O 1.18684 0.47308 0.34993
 C663 C 1.17571 0.46003 0.37290
 C664 C 1.18982 0.43218 0.38499
 C665 C 1.21549 0.41874 0.37117
 H666 H 1.22596 0.42909 0.35158
 O667 O 0.85269 0.54816 0.39893
 O668 O 0.81691 0.55491 0.36486
 C669 C 0.82850 0.56109 0.39045
 C670 C 0.81414 0.58386 0.41041
 C671 C 0.78667 0.59765 0.40225
 H672 H 0.77571 0.59115 0.38134
 O673 O 0.90410 0.64883 0.49405
 O674 O 0.87023 0.68497 0.49842
 C675 C 0.89418 0.67443 0.48638
 C676 C 0.90895 0.69184 0.46198
 C677 C 0.89490 0.71819 0.45234
 H678 H 0.87611 0.72703 0.46530
 O679 O 1.10147 0.34756 0.45075
 O680 O 1.13519 0.31134 0.44564
 C681 C 1.11134 0.32468 0.43671
 C682 C 1.09572 0.31432 0.40898
 C683 C 1.10844 0.29141 0.39114
 H684 H 1.12909 0.28057 0.39846
 O685 O 1.11288 0.53709 0.35469
 O686 O 1.14783 0.53955 0.31905
 C687 C 1.12381 0.54961 0.33118
 C688 C 1.10815 0.57564 0.31726
 C689 C 1.11321 0.58260 0.28673
 H690 H 1.12916 0.56917 0.27383
 O691 O 0.88981 0.49301 0.34907
 O692 O 0.85395 0.49942 0.31499
 C693 C 0.87798 0.48638 0.32369
 C694 C 0.89182 0.46259 0.30466
 C695 C 0.87881 0.45443 0.27680
 H696 H 0.85897 0.46636 0.26911
 O697 O 1.04030 0.65545 0.40970
 O698 O 1.04137 0.69460 0.37918
 C699 C 1.05153 0.68051 0.40211
 C700 C 1.07723 0.69286 0.41966
 C701 C 1.08956 0.72094 0.41227
 H702 H 1.07930 0.73423 0.39447
 O703 O 0.96250 0.36243 0.37174
 O704 O 0.96057 0.33237 0.33204
 C705 C 0.95100 0.34004 0.35815
 C706 C 0.92556 0.32374 0.37269
 C707 C 0.91043 0.30027 0.35754
 H708 H 0.91784 0.29299 0.33526
 O709 O 1.15888 0.60020 0.48506
 O710 O 1.19679 0.63193 0.48806
 C711 C 1.18431 0.60949 0.47552
 C712 C 1.19893 0.59402 0.44934
 C713 C 1.22864 0.60094 0.43997
 H714 H 1.24153 0.61782 0.45190
 O715 O 0.84752 0.39920 0.46014
 O716 O 0.80981 0.36730 0.45633
 C717 C 0.82211 0.39197 0.44895
 C718 C 0.80708 0.41223 0.42672
 C719 C 0.77841 0.40522 0.41492
 H720 H 0.76702 0.38531 0.42291
 Cu721 Cu 0.99263 0.38806 0.35823
 Cu722 Cu 0.99066 0.35216 0.31043
 Cu723 Cu 1.00991 0.63525 0.38965
 Cu724 Cu 1.01105 0.68210 0.35284
 Cu725 Cu 0.87529 0.52003 0.37762
 Cu726 Cu 0.83224 0.52780 0.33678
 Cu727 Cu 1.12758 0.50329 0.37519
 Cu728 Cu 1.16940 0.50664 0.33251
 C729 C 0.91685 0.44640 0.31538
 H730 H 0.92656 0.45209 0.33717
 C731 C 0.89045 0.43028 0.25974
 C732 C 1.08716 0.59270 0.33373
 H733 H 1.08314 0.58721 0.35735
 C734 C 1.09720 0.60573 0.27215
 C735 C 0.82190 0.43810 0.41623
 H736 H 0.84413 0.44348 0.42480
 C737 C 0.76471 0.42347 0.39267
 C738 C 1.18251 0.57240 0.43292
 H739 H 1.15942 0.56746 0.43923
 C740 C 1.24183 0.58562 0.41526
 C741 C 0.91451 0.33364 0.40104
 H742 H 0.92549 0.35207 0.41257
 C743 C 0.88434 0.28763 0.37035
 C744 C 1.09055 0.67588 0.44300
 H745 H 1.08144 0.65404 0.44858
 C746 C 1.11500 0.73193 0.42771
 C747 C 0.92717 0.59963 0.33523
 H748 H 0.93350 0.58975 0.35678
 C749 C 0.91026 0.62653 0.28010
 C750 C 1.07347 0.43682 0.31376
 H751 H 1.06588 0.44132 0.33671
 C752 C 1.09441 0.42451 0.25484
 C753 C 1.06954 0.32904 0.39868
 H754 H 1.05994 0.34722 0.41194
 C755 C 1.09562 0.28356 0.36315
 C756 C 0.93427 0.68119 0.44601
 H757 H 0.94512 0.66064 0.45343
 C758 C 0.90322 0.73231 0.42539
 C759 C 0.82865 0.59286 0.43724
 H760 H 0.85010 0.58283 0.44339
 C761 C 0.77378 0.62029 0.42049
 C762 C 1.17599 0.41773 0.40976
 H763 H 1.15590 0.42731 0.42000
 C764 C 1.22674 0.39110 0.38203
 O765 O 1.02866 0.36506 0.63636
 O766 O 1.02748 0.32568 0.66664
 C767 C 1.03889 0.35067 0.65911
 C768 C 1.06472 0.36288 0.67643
 C769 C 1.07850 0.34597 0.69970
 H770 H 1.06987 0.32404 0.70571
 O771 O 0.97833 0.59241 0.66244
 O772 O 0.97904 0.62314 0.70174
 C773 C 0.96710 0.60152 0.68735
 C774 C 0.93877 0.58811 0.69858
 C775 C 0.91893 0.60534 0.71659
 H776 H 0.92521 0.62780 0.72350
 O777 O 0.85492 0.51798 0.61871
 O778 O 0.82020 0.51474 0.65452
 C779 C 0.83104 0.52794 0.63142
 C780 C 0.81720 0.55620 0.62002
 C781 C 0.79363 0.57080 0.63601
 H782 H 0.78391 0.56060 0.65607
 O783 O 1.14811 0.44668 0.60527
 O784 O 1.18380 0.44050 0.63956
 C785 C 1.17230 0.43397 0.61397
 C786 C 1.18665 0.41086 0.59439
 C787 C 1.21462 0.39802 0.60227
 H788 H 1.22602 0.40552 0.62260
 O789 O 1.10340 0.33672 0.50896
 O790 O 1.13676 0.30016 0.50397
 C791 C 1.11272 0.31047 0.51567
 C792 C 1.09558 0.29225 0.53778
 C793 C 1.10279 0.26184 0.54321
 H794 H 1.12088 0.25097 0.53072
 O795 O 0.90109 0.64779 0.55314
 O796 O 0.86754 0.68431 0.55713
 C797 C 0.89190 0.67199 0.56564
 C798 C 0.90954 0.68548 0.59063
 C799 C 0.90167 0.71354 0.60313
 H800 H 0.88297 0.72596 0.59353
 O801 O 0.89653 0.45468 0.65208
 O802 O 0.86231 0.45104 0.68827
 C803 C 0.88670 0.44209 0.67601
 C804 C 0.90377 0.41636 0.68881
 C805 C 0.90008 0.40691 0.71919
 H806 H 0.88478 0.41903 0.73400
 O807 O 1.10975 0.50138 0.65474
 O808 O 1.14516 0.49539 0.68932
 C809 C 1.12112 0.50824 0.68024
 C810 C 1.10683 0.53222 0.69888
 C811 C 1.11898 0.54019 0.72722
 H812 H 1.13832 0.52796 0.73567
 O813 O 0.96571 0.33416 0.59181
 O814 O 0.96388 0.29542 0.62286
 C815 C 0.95370 0.30961 0.60008
 C816 C 0.92724 0.29778 0.58345
 C817 C 0.91403 0.27049 0.59215
 H818 H 0.92390 0.25755 0.61045
 O819 O 1.04130 0.63381 0.62800
 O820 O 1.04327 0.66352 0.66798
 C821 C 1.05309 0.65574 0.64202
 C822 C 1.07912 0.67163 0.62838
 C823 C 1.09275 0.69573 0.64364
 H824 H 1.08351 0.70374 0.66497
 O825 O 0.84836 0.39241 0.51888
 O826 O 0.81018 0.36101 0.51511
 C827 C 0.82287 0.38310 0.52804
 C828 C 0.80832 0.39806 0.55424
 C829 C 0.77730 0.39451 0.56030
 H830 H 0.76350 0.38079 0.54556
 O831 O 1.15724 0.59303 0.54374
 O832 O 1.19504 0.62487 0.54714
 C833 C 1.18242 0.60049 0.55506
 C834 C 1.19663 0.58106 0.57834
 C835 C 1.22416 0.58925 0.59173
 H836 H 1.23520 0.60949 0.58416
 O837 O 1.03717 0.58710 0.66326
 O838 O 1.03832 0.61661 0.70341
 C839 C 1.04726 0.59319 0.68947
 C840 C 1.07053 0.57353 0.70335
 C841 C 1.08266 0.58074 0.73181
 H842 H 1.07334 0.59956 0.74423
 O843 O 0.97047 0.37156 0.63649
 O844 O 0.96947 0.33294 0.66782
 C845 C 0.96094 0.35927 0.66058
 C846 C 0.94000 0.37582 0.68060
 C847 C 0.93600 0.36657 0.71059
 H848 H 0.94801 0.34684 0.71822
 O849 O 1.15154 0.50461 0.61342
 O850 O 1.18694 0.49831 0.64798
 C851 C 1.17669 0.51214 0.62498
 C852 C 1.19380 0.53784 0.61230
 C853 C 1.22155 0.54620 0.62510
 H854 H 1.23086 0.53255 0.64305
 O855 O 0.85619 0.46001 0.60911
 O856 O 0.82122 0.45728 0.64468
 C857 C 0.83107 0.45014 0.61849
 C858 C 0.81280 0.43068 0.59855
 C859 C 0.78194 0.42712 0.60412
 H860 H 0.77193 0.43812 0.62363
 O861 O 1.12070 0.63805 0.54896
 O862 O 1.15825 0.67016 0.55231
 C863 C 1.13319 0.66020 0.56207
 C864 C 1.11872 0.67359 0.58950
 C865 C 1.13257 0.69703 0.60572
 H866 H 1.15380 0.70620 0.59785
 O867 O 0.88589 0.34802 0.51361
 O868 O 0.84811 0.31618 0.51027
 C869 C 0.87340 0.32359 0.52154
 C870 C 0.88812 0.30428 0.54482
 C871 C 0.87540 0.27670 0.55369
 H872 H 0.85500 0.26898 0.54274
 O873 O 1.10806 0.44269 0.64779
 O874 O 1.14366 0.43676 0.68220
 C875 C 1.11889 0.42858 0.67042
 C876 C 1.10348 0.40142 0.68214
 C877 C 1.11692 0.38414 0.70513
 H878 H 1.13780 0.39152 0.71546
 O879 O 0.89927 0.51308 0.65556
 O880 O 0.86425 0.51028 0.69116
 C881 C 0.88814 0.52205 0.68051
 C882 C 0.90082 0.54867 0.69563
 C883 C 0.88164 0.56602 0.71388
 H884 H 0.85935 0.55773 0.71936
 O885 O 0.98279 0.63842 0.62772
 O886 O 0.98485 0.66895 0.66711
 C887 C 0.97407 0.66206 0.64136
 C888 C 0.95018 0.68080 0.62752
 C889 C 0.94200 0.70870 0.63997
 H890 H 0.95422 0.71684 0.65950
 O891 O 1.02462 0.33134 0.58838
 O892 O 1.02266 0.29203 0.61871
 C893 C 1.03314 0.30501 0.59529
 C894 C 1.05605 0.28973 0.57634
 C895 C 1.06295 0.25942 0.58098
 H896 H 1.05062 0.24681 0.59795
 O897 O 1.14375 0.37843 0.51496
 O898 O 1.17728 0.34194 0.51058
 C899 C 1.16766 0.36548 0.52391
 C900 C 1.18419 0.37750 0.55039
 C901 C 1.21219 0.36522 0.55848
 H902 H 1.22206 0.34801 0.54426
 O903 O 0.86060 0.60519 0.54988
 O904 O 0.82755 0.64207 0.55438
 C905 C 0.83701 0.61618 0.56199
 C906 C 0.82093 0.59947 0.58606
 C907 C 0.79767 0.61357 0.60226
 H908 H 0.79061 0.63609 0.59613
 Cu909 Cu 0.99760 0.35434 0.61007
 Cu910 Cu 0.99560 0.30752 0.64700
 Cu911 Cu 1.00989 0.60990 0.64140
 Cu912 Cu 1.01182 0.64586 0.68927
 Cu913 Cu 0.87096 0.37707 0.48724
 Cu914 Cu 0.82569 0.33884 0.48280
 Cu915 Cu 1.12037 0.36526 0.48324
 Cu916 Cu 1.16064 0.32162 0.47764
 Cu917 Cu 0.88402 0.62516 0.52178
 Cu918 Cu 0.84392 0.66893 0.52679
 Cu919 Cu 1.13520 0.61545 0.51645
 Cu920 Cu 1.18038 0.65374 0.52028
 Cu921 Cu 0.88012 0.48638 0.63026
 Cu922 Cu 0.83876 0.48238 0.67349
 Cu923 Cu 1.12574 0.47450 0.62697
 Cu924 Cu 1.16834 0.46717 0.66830
 C925 C 1.07718 0.39073 0.66816
 H926 H 1.06706 0.40357 0.64993
 C927 C 1.10474 0.35643 0.71382
 C928 C 0.92941 0.55985 0.68793
 H929 H 0.94390 0.54706 0.67283
 C930 C 0.88991 0.59477 0.72331
 C931 C 0.83032 0.57067 0.59483
 H932 H 0.84879 0.56003 0.58274
 C933 C 0.78415 0.59968 0.62724
 C934 C 1.17169 0.40051 0.56829
 H935 H 1.14990 0.40987 0.56229
 C936 C 1.22752 0.37512 0.58443
 C937 C 1.07211 0.30582 0.55436
 H938 H 1.06690 0.32933 0.55079
 C939 C 1.08607 0.24527 0.56444
 C940 C 0.93403 0.66962 0.60272
 H941 H 0.93992 0.64787 0.59340
 C942 C 0.91790 0.72554 0.62779
 C943 C 0.92414 0.40087 0.66995
 H944 H 0.92709 0.40784 0.64657
 C945 C 0.91672 0.38219 0.73043
 C946 C 1.08247 0.54895 0.68725
 H947 H 1.07348 0.54352 0.66508
 C948 C 1.10717 0.56458 0.74383
 C949 C 0.91426 0.31436 0.55966
 H950 H 0.92410 0.33564 0.55324
 C951 C 0.88821 0.25969 0.57741
 C952 C 1.09190 0.66121 0.60105
 H953 H 1.08153 0.64256 0.58931
 C954 C 1.11955 0.70825 0.63263
 C955 C 0.82577 0.41638 0.57335
 H956 H 0.84966 0.41915 0.56889
 C957 C 0.76388 0.40967 0.58484
 C958 C 1.18168 0.55524 0.58871
 H959 H 1.16013 0.54913 0.57898
 C960 C 1.23680 0.57214 0.61538
 O961 O 0.60707 1.00736 0.65387
 O962 O 0.64156 1.00134 0.68940
 C963 C 0.61826 1.01478 0.67935
 C964 C 0.60443 1.03991 0.69677
 C965 C 0.61357 1.04657 0.72661
 H966 H 0.63055 1.03268 0.73737
 O967 O 0.38677 0.97084 0.64355
 O968 O 0.35310 0.97158 0.68051
 C969 C 0.37541 0.95919 0.66724
 C970 C 0.38645 0.92992 0.67873
 C971 C 0.36958 0.91532 0.70107
 H972 H 0.35027 0.92657 0.71111
 O973 O 0.53916 1.13822 0.61911
 O974 O 0.54265 1.17184 0.65566
 C975 C 0.55143 1.16147 0.63018
 C976 C 0.57627 1.17579 0.61279
 C977 C 0.58437 1.20618 0.61699
 H978 H 0.57247 1.21989 0.63346
 O979 O 0.45739 0.84397 0.59298
 O980 O 0.45476 0.80553 0.62431
 C981 C 0.44543 0.81930 0.60086
 C982 C 0.41932 0.80750 0.58350
 C983 C 0.40711 0.77916 0.59014
 H984 H 0.41819 0.76501 0.60671
 O985 O 0.65599 1.08739 0.53343
 O986 O 0.69375 1.11937 0.53513
 C987 C 0.68092 1.09584 0.54480
 C988 C 0.69390 1.07947 0.57110
 C989 C 0.71725 1.09249 0.58833
 H990 H 0.72704 1.11356 0.58116
 O991 O 0.33684 0.90573 0.52422
 O992 O 0.29859 0.87420 0.52252
 C993 C 0.31207 0.89604 0.53482
 C994 C 0.29984 0.90836 0.56319
 C995 C 0.28113 0.89019 0.58081
 H996 H 0.27391 0.86860 0.57217
 O997 O 0.47856 1.09983 0.65988
 O998 O 0.48150 1.13199 0.69778
 C999 C 0.46952 1.10902 0.68566
 C1000 C 0.44445 1.09255 0.70069
 C1001 C 0.43706 1.09625 0.73179
 H1002 H 0.44981 1.11171 0.74569
 O1003 O 0.51633 0.87788 0.64066
 O1004 O 0.51213 0.84069 0.67338
 C1005 C 0.52455 0.86498 0.66505
 C1006 C 0.54976 0.87768 0.68303
 C1007 C 0.55831 0.86479 0.71083
 H1008 H 0.54489 0.84671 0.71996
 O1009 O 0.64352 0.94892 0.60723
 O1010 O 0.67875 0.94320 0.64205
 C1011 C 0.66751 0.93617 0.61648
 C1012 C 0.68211 0.91277 0.59730
 C1013 C 0.70912 0.89864 0.60641
 H1014 H 0.71956 0.90509 0.62761
 O1015 O 0.34953 1.03768 0.61095
 O1016 O 0.31598 1.03766 0.64797
 C1017 C 0.32664 1.04924 0.62393
 C1018 C 0.31280 1.07697 0.61158
 C1019 C 0.28801 1.09032 0.62620
 H1020 H 0.27814 1.07959 0.64590
 O1021 O 0.39989 1.15715 0.54058
 O1022 O 0.36850 1.19555 0.54419
 C1023 C 0.39217 1.18170 0.55297
 C1024 C 0.41076 1.19371 0.57816
 C1025 C 0.40620 1.22302 0.58913
 H1026 H 0.38946 1.23722 0.57842
 O1027 O 0.59658 0.84520 0.51468
 O1028 O 0.63003 0.80853 0.51121
 C1029 C 0.60676 0.82008 0.52369
 C1030 C 0.59293 0.80513 0.55040
 C1031 C 0.60986 0.78380 0.56638
 H1032 H 0.63176 0.77694 0.55776
 O1033 O 0.39258 1.02881 0.65055
 O1034 O 0.35874 1.02893 0.68734
 C1035 C 0.38406 1.03710 0.67680
 C1036 C 0.40335 1.05658 0.69556
 C1037 C 0.39677 1.05999 0.72633
 H1038 H 0.37773 1.04797 0.73563
 O1039 O 0.60151 0.94910 0.64874
 O1040 O 0.63640 0.94300 0.68383
 C1041 C 0.61102 0.93600 0.67249
 C1042 C 0.59249 0.91203 0.68650
 C1043 C 0.60090 0.89866 0.71418
 H1044 H 0.62097 0.90640 0.72568
 O1045 O 0.51690 0.84148 0.59499
 O1046 O 0.51480 0.80418 0.62777
 C1047 C 0.52695 0.81656 0.60477
 C1048 C 0.55419 0.80306 0.59024
 C1049 C 0.57174 0.78153 0.60585
 H1050 H 0.56458 0.77345 0.62790
 O1051 O 0.48052 1.14205 0.61945
 O1052 O 0.48369 1.17479 0.65685
 C1053 C 0.47245 1.16661 0.63165
 C1054 C 0.44985 1.18602 0.61653
 C1055 C 0.44485 1.21524 0.62719
 H1056 H 0.45758 1.22309 0.64652
 O1057 O 0.35312 1.12274 0.53903
 O1058 O 0.32122 1.16068 0.54274
 C1059 C 0.32990 1.13478 0.55103
 C1060 C 0.31382 1.11873 0.57564
 C1061 C 0.28847 1.13150 0.59021
 H1062 H 0.27937 1.15278 0.58254
 O1063 O 0.64068 0.88231 0.51622
 O1064 O 0.67405 0.84567 0.51194
 C1065 C 0.66467 0.86931 0.52515
 C1066 C 0.68099 0.88081 0.55212
 C1067 C 0.70802 0.86717 0.56153
 H1068 H 0.71790 0.84973 0.54757
 O1069 O 0.45764 0.88191 0.63736
 O1070 O 0.45313 0.84385 0.66897
 C1071 C 0.44486 0.86979 0.66006
 C1072 C 0.41955 0.88584 0.67540
 C1073 C 0.40209 0.87163 0.69806
 H1074 H 0.40751 0.84900 0.70527
 O1075 O 0.53678 1.09457 0.65772
 O1076 O 0.54025 1.12751 0.69492
 C1077 C 0.54811 1.10280 0.68281
 C1078 C 0.57062 1.08341 0.69802
 C1079 C 0.58017 1.08984 0.72766
 H1080 H 0.57063 1.10890 0.73962
 O1081 O 0.34261 0.97901 0.60716
 O1082 O 0.30924 0.97935 0.64444
 C1083 C 0.31831 0.96940 0.61907
 C1084 C 0.30217 0.94437 0.60460
 C1085 C 0.28328 0.92572 0.62215
 H1086 H 0.27832 0.93126 0.64560
 O1087 O 0.64702 1.00696 0.61106
 O1088 O 0.68176 1.00173 0.64647
 C1089 C 0.67200 1.01467 0.62266
 C1090 C 0.68911 1.03996 0.60931
 C1091 C 0.71257 1.05312 0.62587
 H1092 H 0.71944 1.04310 0.64715
 O1093 O 0.37435 0.86120 0.51838
 O1094 O 0.33601 0.82982 0.51664
 C1095 C 0.36206 0.83677 0.52645
 C1096 C 0.37812 0.81645 0.54768
 C1097 C 0.36630 0.78807 0.55462
 H1098 H 0.34547 0.78110 0.54403
 O1099 O 0.61704 1.13079 0.53728
 O1100 O 0.65478 1.16295 0.53840
 C1101 C 0.62944 1.15398 0.54836
 C1102 C 0.61413 1.17135 0.57252
 C1103 C 0.62170 1.20142 0.57685
 H1104 H 0.63908 1.21136 0.56279
 Cu1105 Cu 0.62120 0.97848 0.62683
 Cu1106 Cu 0.66314 0.97162 0.66892
 Cu1107 Cu 0.37110 1.00443 0.62410
 Cu1108 Cu 0.33092 1.00478 0.66882
 Cu1109 Cu 0.50843 1.11542 0.63536
 Cu1110 Cu 0.51234 1.15490 0.68004
 Cu1111 Cu 0.48738 0.86493 0.61322
 Cu1112 Cu 0.48329 0.81965 0.65165
 C1113 C 0.58269 1.05834 0.68288
 H1114 H 0.57562 1.05357 0.65985
 C1115 C 0.60139 1.07146 0.74227
 C1116 C 0.41143 0.91507 0.66590
 H1117 H 0.42415 0.92606 0.64810
 C1118 C 0.37664 0.88620 0.71038
 C1119 C 0.59127 1.15874 0.59032
 H1120 H 0.58529 1.13545 0.58677
 C1121 C 0.60663 1.21921 0.59829
 C1122 C 0.40484 0.82577 0.56193
 H1123 H 0.41376 0.84784 0.55705
 C1124 C 0.38061 0.76919 0.57575
 C1125 C 0.68008 1.05312 0.58179
 H1126 H 0.66142 1.04353 0.56930
 C1127 C 0.72615 1.07984 0.61614
 C1128 C 0.31014 0.93557 0.57502
 H1129 H 0.32563 0.94908 0.56181
 C1130 C 0.27362 0.89816 0.61046
 C1131 C 0.42741 1.07249 0.68298
 H1132 H 0.43231 1.06982 0.65901
 C1133 C 0.41334 1.07940 0.74484
 C1134 C 0.56677 0.90151 0.67132
 H1135 H 0.56050 0.91128 0.64971
 C1136 C 0.58396 0.87494 0.72659
 C1137 C 0.66838 0.90375 0.57002
 H1138 H 0.64731 0.91406 0.56309
 C1139 C 0.72218 0.87565 0.58872
 C1140 C 0.32542 1.09124 0.58624
 H1141 H 0.34499 1.08133 0.57531
 C1142 C 0.27577 1.11749 0.61573
 C1143 C 0.43292 1.17549 0.59184
 H1144 H 0.43652 1.15279 0.58374
 C1145 C 0.42335 1.23405 0.61358
 C1146 C 0.56506 0.81468 0.56247
 H1147 H 0.55233 0.83194 0.55075
 C1148 C 0.60001 0.77259 0.59437
 O1149 O 0.59492 0.97158 0.34027
 O1150 O 0.62907 0.97056 0.30378
 C1151 C 0.60492 0.96067 0.31554
 C1152 C 0.58905 0.93517 0.30137
 C1153 C 0.60298 0.91817 0.27816
 H1154 H 0.62493 0.92452 0.26947
 O1155 O 0.38948 1.05126 0.35207
 O1156 O 0.35448 1.05645 0.31688
 C1157 C 0.37976 1.06379 0.32807
 C1158 C 0.39789 1.08748 0.31340
 C1159 C 0.39149 1.09693 0.28372
 H1160 H 0.37355 1.08615 0.27117
 O1161 O 0.47694 1.16259 0.40228
 O1162 O 0.48036 1.20056 0.37040
 C1163 C 0.46920 1.18884 0.39417
 C1164 C 0.44645 1.20557 0.41216
 C1165 C 0.44075 1.23596 0.40627
 H1166 H 0.45384 1.24759 0.38916
 O1167 O 0.50880 0.85464 0.38279
 O1168 O 0.50525 0.82182 0.34551
 C1169 C 0.51729 0.83039 0.37025
 C1170 C 0.54237 0.81279 0.38391
 C1171 C 0.55078 0.78486 0.37172
 H1172 H 0.53797 0.77603 0.35293
 O1173 O 0.63970 0.88657 0.45676
 O1174 O 0.67310 0.84999 0.45265
 C1175 C 0.66355 0.87576 0.44481
 C1176 C 0.67943 0.89347 0.42108
 C1177 C 0.70949 0.88720 0.41197
 H1178 H 0.72202 0.86930 0.42288
 O1179 O 0.35405 1.12471 0.47997
 O1180 O 0.32161 1.16225 0.48313
 C1181 C 0.33020 1.13771 0.47094
 C1182 C 0.31290 1.12409 0.44566
 C1183 C 0.28403 1.13466 0.43775
 H1184 H 0.27441 1.15311 0.45048
 O1185 O 0.52987 1.11971 0.35490
 O1186 O 0.53292 1.15721 0.32234
 C1187 C 0.53978 1.13065 0.33019
 C1188 C 0.55882 1.11171 0.31035
 C1189 C 0.56184 1.11789 0.27917
 H1190 H 0.55075 1.13733 0.26939
 O1191 O 0.45374 0.90362 0.34500
 O1192 O 0.45032 0.87146 0.30709
 C1193 C 0.44283 0.89621 0.31949
 C1194 C 0.42089 0.91643 0.30440
 C1195 C 0.41075 0.91031 0.27490
 H1196 H 0.42002 0.89117 0.26297
 O1197 O 0.63983 1.02665 0.38244
 O1198 O 0.67240 1.02799 0.34453
 C1199 C 0.66386 1.03683 0.37059
 C1200 C 0.68136 1.06003 0.38675
 C1201 C 0.70287 1.07701 0.37089
 H1202 H 0.70762 1.07230 0.34721
 O1203 O 0.34356 0.99417 0.39035
 O1204 O 0.30847 0.99958 0.35529
 C1205 C 0.31809 0.98709 0.37931
 C1206 C 0.29972 0.96370 0.39420
 C1207 C 0.27106 0.95653 0.38290
 H1208 H 0.26252 0.96876 0.36356
 O1209 O 0.61631 1.13647 0.47881
 O1210 O 0.65446 1.16809 0.48083
 C1211 C 0.62871 1.16087 0.47062
 C1212 C 0.61358 1.18102 0.44863
 C1213 C 0.62561 1.20948 0.44288
 H1214 H 0.64564 1.21638 0.45495
 O1215 O 0.37140 0.86591 0.45994
 O1216 O 0.33244 0.83526 0.45867
 C1217 C 0.35771 0.84370 0.44837
 C1218 C 0.37076 0.82766 0.42231
 C1219 C 0.35546 0.80331 0.40980
 H1220 H 0.33502 0.79551 0.42064
 O1221 O 0.38518 0.99278 0.34905
 O1222 O 0.35015 0.99813 0.31393
 C1223 C 0.37364 0.98500 0.32390
 C1224 C 0.38725 0.95993 0.30648
 C1225 C 0.37713 0.95327 0.27707
 H1226 H 0.35976 0.96721 0.26716
 O1227 O 0.59619 1.03057 0.34318
 O1228 O 0.62859 1.02954 0.30509
 C1229 C 0.60548 1.04080 0.31796
 C1230 C 0.58974 1.06669 0.30414
 C1231 C 0.59210 1.07272 0.27300
 H1232 H 0.60517 1.05774 0.25869
 O1233 O 0.44946 0.85794 0.38097
 O1234 O 0.44569 0.82546 0.34343
 C1235 C 0.43639 0.83571 0.36858
 C1236 C 0.40930 0.82291 0.38322
 C1237 C 0.39353 0.79839 0.37061
 H1238 H 0.40195 0.78742 0.35033
 O1239 O 0.53556 1.15545 0.40118
 O1240 O 0.53940 1.19330 0.36921
 C1241 C 0.54859 1.17930 0.39266
 C1242 C 0.57488 1.19029 0.41024
 C1243 C 0.58738 1.21879 0.40474
 H1244 H 0.57722 1.23329 0.38787
 O1245 O 0.33517 0.91133 0.46517
 O1246 O 0.29637 0.88052 0.46373
 C1247 C 0.30939 0.90433 0.45488
 C1248 C 0.29515 0.92349 0.43145
 C1249 C 0.26637 0.91676 0.42003
 H1250 H 0.25382 0.89843 0.42991
 O1251 O 0.65355 1.09215 0.47276
 O1252 O 0.69123 1.12426 0.47442
 C1253 C 0.67758 1.10283 0.46136
 C1254 C 0.68834 1.09204 0.43133
 C1255 C 0.70908 1.10928 0.41466
 H1256 H 0.71868 1.12937 0.42454
 O1257 O 0.51174 0.89693 0.34297
 O1258 O 0.50815 0.86397 0.30577
 C1259 C 0.52085 0.88653 0.31771
 C1260 C 0.54762 0.89935 0.30276
 C1261 C 0.56144 0.88320 0.27938
 H1262 H 0.55074 0.86309 0.27087
 O1263 O 0.47228 1.12516 0.35779
 O1264 O 0.47516 1.16264 0.32521
 C1265 C 0.46310 1.13823 0.33392
 C1266 C 0.43833 1.12440 0.31632
 C1267 C 0.43175 1.13358 0.28653
 H1268 H 0.44465 1.15159 0.27645
 O1269 O 0.34914 1.05185 0.39478
 O1270 O 0.31387 1.05716 0.35987
 C1271 C 0.32521 1.06447 0.38529
 C1272 C 0.31063 1.08808 0.40388
 C1273 C 0.28168 1.09859 0.39657
 H1274 H 0.26976 1.08847 0.37780
 O1275 O 0.63634 0.96882 0.38084
 O1276 O 0.67069 0.96985 0.34450
 C1277 C 0.66057 0.95887 0.36912
 C1278 C 0.67723 0.93428 0.38415
 C1279 C 0.70672 0.92762 0.37520
 H1280 H 0.71657 0.94042 0.35687
 O1281 O 0.59507 0.84813 0.45549
 O1282 O 0.62808 0.81119 0.45162
 C1283 C 0.60357 0.82363 0.44335
 C1284 C 0.58491 0.80975 0.41915
 C1285 C 0.59281 0.78168 0.40676
 H1286 H 0.61220 0.76986 0.41570
 O1287 O 0.39704 1.16382 0.48196
 O1288 O 0.36515 1.20183 0.48514
 C1289 C 0.38858 1.18985 0.47365
 C1290 C 0.40625 1.20602 0.45029
 C1291 C 0.40019 1.23630 0.44336
 H1292 H 0.38241 1.24834 0.45519
 Cu1293 Cu 0.61320 0.99960 0.36520
 Cu1294 Cu 0.65349 0.99960 0.32064
 Cu1295 Cu 0.37048 1.02202 0.37499
 Cu1296 Cu 0.32827 1.02844 0.33290
 Cu1297 Cu 0.63228 1.10801 0.50542
 Cu1298 Cu 0.67781 1.14634 0.50755
 Cu1299 Cu 0.61482 0.86935 0.48576
 Cu1300 Cu 0.65452 0.82508 0.48117
 Cu1301 Cu 0.37911 1.13835 0.51001
 Cu1302 Cu 0.34092 1.18388 0.51410
 Cu1303 Cu 0.35826 0.88937 0.49207
 Cu1304 Cu 0.31180 0.85197 0.49032
 Cu1305 Cu 0.50349 1.13711 0.38239
 Cu1306 Cu 0.50735 1.18249 0.34379
 Cu1307 Cu 0.48110 0.88133 0.36693
 Cu1308 Cu 0.47690 0.84231 0.32179
 C1309 C 0.56136 0.92549 0.31356
 H1310 H 0.55095 0.93774 0.33210
 C1311 C 0.58948 0.89167 0.26777
 C1312 C 0.42142 1.10117 0.32939
 H1313 H 0.42622 1.09406 0.35240
 C1314 C 0.40844 1.11978 0.26996
 C1315 C 0.42942 1.19091 0.43454
 H1316 H 0.43379 1.16743 0.43924
 C1317 C 0.41776 1.25139 0.42174
 C1318 C 0.55944 0.82491 0.40778
 H1319 H 0.55343 0.84670 0.41693
 C1320 C 0.57587 0.76891 0.38304
 C1321 C 0.66384 0.91736 0.40723
 H1322 H 0.64082 0.92240 0.41391
 C1323 C 0.72352 0.90487 0.38936
 C1324 C 0.32588 1.10066 0.42865
 H1325 H 0.34832 1.09267 0.43422
 C1326 C 0.26811 1.12192 0.41323
 C1327 C 0.57273 1.08607 0.32251
 H1328 H 0.57075 1.08145 0.34658
 C1329 C 0.57784 1.09803 0.26027
 C1330 C 0.40930 0.94152 0.31986
 H1331 H 0.41681 0.94625 0.34275
 C1332 C 0.38873 0.92850 0.26097
 C1333 C 0.67456 1.06739 0.41710
 H1334 H 0.65759 1.05469 0.42924
 C1335 C 0.71614 1.10200 0.38449
 C1336 C 0.31144 0.94729 0.41865
 H1337 H 0.33383 0.95236 0.42701
 C1338 C 0.25415 0.93305 0.39554
 C1339 C 0.58804 1.17171 0.43249
 H1340 H 0.57889 1.14959 0.43669
 C1341 C 0.61269 1.22866 0.42124
 C1342 C 0.39772 0.83717 0.40916
 H1343 H 0.40929 0.85631 0.41876
 C1344 C 0.36625 0.78874 0.38382
 O1345 O 0.61329 0.50493 1.15170
 O1346 O 0.64797 0.49841 1.18697
 C1347 C 0.62466 0.51202 1.17710
 C1348 C 0.61109 0.53694 1.19483
 C1349 C 0.62303 0.54497 1.22315
 H1350 H 0.64180 0.53216 1.23199
 O1351 O 0.39038 0.46510 1.14265
 O1352 O 0.35562 0.46515 1.17858
 C1353 C 0.37966 0.45438 1.16704
 C1354 C 0.39559 0.42924 1.18194
 C1355 C 0.39156 0.42354 1.21301
 H1356 H 0.37638 0.43748 1.22630
 O1357 O 0.54357 0.63404 1.11923
 O1358 O 0.54587 0.66671 1.15678
 C1359 C 0.55507 0.65730 1.13113
 C1360 C 0.57968 0.67269 1.11462
 C1361 C 0.58600 0.70358 1.11835
 H1362 H 0.57288 0.71701 1.13411
 O1363 O 0.46225 0.34292 1.09318
 O1364 O 0.45941 0.30529 1.12550
 C1365 C 0.44977 0.31886 1.10214
 C1366 C 0.42285 0.30752 1.08608
 C1367 C 0.40484 0.28500 1.09920
 H1368 H 0.41156 0.27486 1.12049
 O1369 O 0.66472 0.58714 1.03813
 O1370 O 0.70193 0.61961 1.04230
 C1371 C 0.68964 0.59507 1.04989
 C1372 C 0.70385 0.57597 1.07335
 C1373 C 0.73228 0.58310 1.08541
 H1374 H 0.74450 0.60194 1.07614
 O1375 O 0.34999 0.39958 1.01239
 O1376 O 0.31293 0.36701 1.00778
 C1377 C 0.32459 0.38963 1.02093
 C1378 C 0.30917 0.40284 1.04769
 C1379 C 0.28334 0.38884 1.05881
 H1380 H 0.27329 0.37080 1.04585
 O1381 O 0.48185 0.59255 1.15539
 O1382 O 0.48405 0.62446 1.19357
 C1383 C 0.47162 0.60219 1.18045
 C1384 C 0.44366 0.58915 1.19349
 C1385 C 0.42975 0.60393 1.21773
 H1386 H 0.44095 0.62281 1.22831
 O1387 O 0.52354 0.37574 1.13833
 O1388 O 0.52074 0.33768 1.17023
 C1389 C 0.53262 0.36222 1.16207
 C1390 C 0.55773 0.37463 1.18001
 C1391 C 0.56582 0.36148 1.20774
 H1392 H 0.55224 0.34338 1.21657
 O1393 O 0.64913 0.44684 1.10490
 O1394 O 0.68402 0.43981 1.13988
 C1395 C 0.67265 0.43338 1.11419
 C1396 C 0.68658 0.40984 1.09496
 C1397 C 0.71362 0.39570 1.10374
 H1398 H 0.72441 0.40224 1.12473
 O1399 O 0.35266 0.52830 1.10535
 O1400 O 0.31588 0.52683 1.13911
 C1401 C 0.32805 0.53864 1.11589
 C1402 C 0.31408 0.56505 1.10117
 C1403 C 0.28374 0.57274 1.10661
 H1404 H 0.27001 0.55900 1.12145
 O1405 O 0.40637 0.65448 1.04098
 O1406 O 0.37384 0.69187 1.04492
 C1407 C 0.39754 0.67841 1.05393
 C1408 C 0.41481 0.69017 1.08009
 C1409 C 0.40793 0.71835 1.09276
 H1410 H 0.39050 0.73200 1.08246
 O1411 O 0.59986 0.34324 1.00834
 O1412 O 0.63363 0.30685 1.00564
 C1413 C 0.60956 0.31789 1.01713
 C1414 C 0.59425 0.30198 1.04255
 C1415 C 0.60858 0.27716 1.05568
 H1416 H 0.62879 0.26819 1.04515
 O1417 O 0.39314 0.52330 1.14719
 O1418 O 0.35683 0.52398 1.18148
 C1419 C 0.38229 0.53330 1.17196
 C1420 C 0.39920 0.55666 1.18912
 C1421 C 0.38533 0.57271 1.21311
 H1422 H 0.36228 0.56786 1.21966
 O1423 O 0.60909 0.44675 1.14772
 O1424 O 0.64365 0.43996 1.18306
 C1425 C 0.61841 0.43330 1.17137
 C1426 C 0.59988 0.40918 1.18471
 C1427 C 0.60801 0.39551 1.21231
 H1428 H 0.62781 0.40322 1.22430
 O1429 O 0.52158 0.34075 1.09132
 O1430 O 0.51949 0.30289 1.12343
 C1431 C 0.53098 0.31524 1.10002
 C1432 C 0.55654 0.30068 1.08354
 C1433 C 0.57195 0.27611 1.09658
 H1434 H 0.56449 0.26701 1.11810
 O1435 O 0.48503 0.63902 1.12044
 O1436 O 0.48763 0.67081 1.15875
 C1437 C 0.47659 0.66323 1.13332
 C1438 C 0.45341 0.68256 1.11887
 C1439 C 0.44608 0.71067 1.13136
 H1440 H 0.45776 0.71798 1.15154
 O1441 O 0.36202 0.61662 1.03633
 O1442 O 0.32894 0.65358 1.04028
 C1443 C 0.33759 0.62720 1.04713
 C1444 C 0.31898 0.60843 1.06757
 C1445 C 0.28846 0.61532 1.07262
 H1446 H 0.27844 0.63462 1.06151
 O1447 O 0.64477 0.37959 1.01369
 O1448 O 0.67838 0.34310 1.00990
 C1449 C 0.66857 0.36651 1.02306
 C1450 C 0.68466 0.37777 1.05009
 C1451 C 0.71182 0.36416 1.05905
 H1452 H 0.72162 0.34677 1.04497
 O1453 O 0.46524 0.38190 1.13666
 O1454 O 0.46297 0.34472 1.16963
 C1455 C 0.45472 0.37077 1.16097
 C1456 C 0.43272 0.38854 1.17908
 C1457 C 0.42902 0.38364 1.21035
 H1458 H 0.44235 0.36646 1.22152
 O1459 O 0.54097 0.59019 1.15821
 O1460 O 0.54362 0.62221 1.19624
 C1461 C 0.55210 0.59798 1.18361
 C1462 C 0.57569 0.57902 1.19809
 C1463 C 0.58784 0.58664 1.22658
 H1464 H 0.57888 0.60591 1.23857
 O1465 O 0.34962 0.46981 1.10099
 O1466 O 0.31431 0.46764 1.13620
 C1467 C 0.32496 0.45897 1.11079
 C1468 C 0.30936 0.43548 1.09254
 C1469 C 0.28384 0.42004 1.10387
 H1470 H 0.27480 0.42549 1.12606
 O1471 O 0.65600 0.50415 1.11173
 O1472 O 0.69084 0.49733 1.14680
 C1473 C 0.68142 0.51072 1.12320
 C1474 C 0.69972 0.53473 1.10935
 C1475 C 0.72804 0.54222 1.12132
 H1476 H 0.73654 0.52959 1.14041
 O1477 O 0.38679 0.35476 1.01121
 O1478 O 0.34955 0.32231 1.00706
 C1479 C 0.37375 0.33081 1.01971
 C1480 C 0.38576 0.31353 1.04567
 C1481 C 0.36813 0.29102 1.05902
 H1482 H 0.34686 0.28496 1.04872
 O1483 O 0.62421 0.62928 1.04128
 O1484 O 0.66140 0.66196 1.04454
 C1485 C 0.63581 0.65244 1.05309
 C1486 C 0.61910 0.66936 1.07619
 C1487 C 0.62504 0.69977 1.07988
 H1488 H 0.64259 0.71010 1.06631
 Cu1489 Cu 0.62834 0.47630 1.12554
 Cu1490 Cu 0.67006 0.46814 1.16778
 Cu1491 Cu 0.37490 0.49666 1.12054
 Cu1492 Cu 0.33201 0.49578 1.16231
 Cu1493 Cu 0.51288 0.61077 1.13454
 Cu1494 Cu 0.51566 0.64892 1.18041
 Cu1495 Cu 0.49338 0.36394 1.11154
 Cu1496 Cu 0.49018 0.31861 1.15009
 C1497 C 0.58728 0.55393 1.18263
 H1498 H 0.57833 0.54812 1.16054
 C1499 C 0.61166 0.56978 1.23936
 C1500 C 0.41613 0.41165 1.16520
 H1501 H 0.41910 0.41588 1.14116
 C1502 C 0.40882 0.40137 1.22748
 C1503 C 0.59634 0.65595 1.09330
 H1504 H 0.59175 0.63229 1.09010
 C1505 C 0.60830 0.71728 1.10012
 C1506 C 0.41319 0.32150 1.05921
 H1507 H 0.42655 0.33934 1.04937
 C1508 C 0.37711 0.27709 1.08610
 C1509 C 0.68800 0.55150 1.08518
 H1510 H 0.66592 0.54613 1.07624
 C1511 C 0.74461 0.56643 1.10958
 C1512 C 0.32186 0.42647 1.06441
 H1513 H 0.34214 0.43712 1.05598
 C1514 C 0.27129 0.39615 1.08720
 C1515 C 0.42841 0.56522 1.17945
 H1516 H 0.43879 0.55406 1.16022
 C1517 C 0.40039 0.59687 1.22682
 C1518 C 0.57461 0.39868 1.16887
 H1519 H 0.56856 0.40867 1.14729
 C1520 C 0.59106 0.37152 1.22401
 C1521 C 0.67232 0.40078 1.06800
 H1522 H 0.65120 0.41114 1.06128
 C1523 C 0.72633 0.37270 1.08591
 C1524 C 0.33145 0.58297 1.08157
 H1525 H 0.35496 0.57740 1.07760
 C1526 C 0.27069 0.59744 1.09182
 C1527 C 0.43782 0.67263 1.09311
 H1528 H 0.44311 0.65079 1.08363
 C1529 C 0.42357 0.72895 1.11838
 C1530 C 0.56801 0.31353 1.05652
 H1531 H 0.55719 0.33322 1.04699
 C1532 C 0.59848 0.26491 1.08317
 O1533 O 0.61223 0.47847 0.84002
 O1534 O 0.64794 0.47941 0.80502
 C1535 C 0.62321 0.46910 0.81501
 C1536 C 0.60781 0.44495 0.79822
 C1537 C 0.62328 0.42884 0.77559
 H1538 H 0.64602 0.43518 0.76928
 O1539 O 0.39735 0.55272 0.85257
 O1540 O 0.36293 0.55900 0.81701
 C1541 C 0.38776 0.56646 0.82921
 C1542 C 0.40545 0.59170 0.81656
 C1543 C 0.39690 0.60555 0.78921
 H1544 H 0.37730 0.59736 0.77724
 O1545 O 0.48799 0.66197 0.90614
 O1546 O 0.49219 0.70028 0.87477
 C1547 C 0.48035 0.68826 0.89802
 C1548 C 0.45533 0.70410 0.91356
 C1549 C 0.44208 0.72861 0.89896
 H1550 H 0.45288 0.73802 0.87904
 O1551 O 0.52791 0.35918 0.86763
 O1552 O 0.52509 0.32825 0.82868
 C1553 C 0.53673 0.33547 0.85400
 C1554 C 0.56137 0.31703 0.86782
 C1555 C 0.57415 0.29172 0.85301
 H1556 H 0.56555 0.28452 0.83120
 O1557 O 0.64653 0.38655 0.95497
 O1558 O 0.68054 0.35044 0.95165
 C1559 C 0.67127 0.37647 0.94429
 C1560 C 0.68845 0.39543 0.92255
 C1561 C 0.71866 0.38912 0.91387
 H1562 H 0.73047 0.37014 0.92365
 O1563 O 0.36285 0.62268 0.97807
 O1564 O 0.32978 0.65965 0.98212
 C1565 C 0.33882 0.63565 0.96933
 C1566 C 0.32150 0.62305 0.94372
 C1567 C 0.29417 0.63628 0.93492
 H1568 H 0.28524 0.65477 0.94812
 O1569 O 0.54046 0.62045 0.85672
 O1570 O 0.54344 0.65854 0.82485
 C1571 C 0.55046 0.63198 0.83227
 C1572 C 0.57068 0.61404 0.81278
 C1573 C 0.57420 0.61996 0.78155
 H1574 H 0.56211 0.63844 0.77111
 O1575 O 0.47051 0.40935 0.83429
 O1576 O 0.46675 0.37852 0.79534
 C1577 C 0.45848 0.40228 0.80913
 C1578 C 0.43421 0.42165 0.79626
 C1579 C 0.42083 0.41459 0.76816
 H1580 H 0.42881 0.39516 0.75577
 O1581 O 0.65651 0.53120 0.88568
 O1582 O 0.69123 0.53369 0.84987
 C1583 C 0.68165 0.54116 0.87592
 C1584 C 0.69960 0.56135 0.89555
 C1585 C 0.72782 0.57303 0.88638
 H1586 H 0.73700 0.56740 0.86429
 O1587 O 0.35259 0.49170 0.88586
 O1588 O 0.31813 0.49765 0.85030
 C1589 C 0.32814 0.48361 0.87331
 C1590 C 0.31216 0.45665 0.88466
 C1591 C 0.28628 0.44593 0.86980
 H1592 H 0.27682 0.45875 0.85124
 O1593 O 0.62703 0.63640 0.98275
 O1594 O 0.66460 0.66853 0.98658
 C1595 C 0.63959 0.66086 0.97495
 C1596 C 0.62523 0.68034 0.95180
 C1597 C 0.63797 0.70821 0.94426
 H1598 H 0.65824 0.71537 0.95575
 O1599 O 0.39023 0.35888 0.95205
 O1600 O 0.35395 0.32534 0.94824
 C1601 C 0.37941 0.33542 0.93988
 C1602 C 0.39655 0.32067 0.91517
 C1603 C 0.39153 0.29051 0.90668
 H1604 H 0.37522 0.27711 0.91893
 O1605 O 0.39550 0.49449 0.84621
 O1606 O 0.36111 0.50085 0.81064
 C1607 C 0.38484 0.48785 0.82034
 C1608 C 0.39911 0.46390 0.80169
 C1609 C 0.38681 0.45690 0.77330
 H1610 H 0.36874 0.47080 0.76477
 O1611 O 0.61180 0.53666 0.84744
 O1612 O 0.64621 0.53724 0.81112
 C1613 C 0.62206 0.54741 0.82295
 C1614 C 0.60558 0.57205 0.80840
 C1615 C 0.60847 0.57749 0.77732
 H1616 H 0.62329 0.56339 0.76382
 O1617 O 0.46952 0.36496 0.87213
 O1618 O 0.46670 0.33360 0.83346
 C1619 C 0.45805 0.34212 0.85959
 C1620 C 0.43480 0.32486 0.87565
 C1621 C 0.42931 0.29529 0.86715
 H1622 H 0.44167 0.28598 0.84811
 O1623 O 0.54666 0.65382 0.90488
 O1624 O 0.55059 0.69187 0.87315
 C1625 C 0.55981 0.67759 0.89638
 C1626 C 0.58633 0.68847 0.91344
 C1627 C 0.59925 0.71629 0.90638
 H1628 H 0.58893 0.73008 0.88905
 O1629 O 0.35057 0.40237 0.95334
 O1630 O 0.31423 0.36905 0.94863
 C1631 C 0.32611 0.39380 0.94109
 C1632 C 0.31160 0.41246 0.91743
 C1633 C 0.28576 0.40211 0.90230
 H1634 H 0.27625 0.38062 0.90847
 O1635 O 0.66378 0.59154 0.97907
 O1636 O 0.70118 0.62378 0.98343
 C1637 C 0.68894 0.60170 0.97015
 C1638 C 0.70346 0.58916 0.94296
 C1639 C 0.73165 0.59983 0.93404
 H1640 H 0.74312 0.61577 0.94847
 O1641 O 0.52933 0.40580 0.83279
 O1642 O 0.52599 0.37482 0.79386
 C1643 C 0.53852 0.39681 0.80706
 C1644 C 0.56560 0.41036 0.79355
 C1645 C 0.58091 0.39519 0.77023
 H1646 H 0.57130 0.37515 0.76027
 O1647 O 0.48252 0.62487 0.86156
 O1648 O 0.48566 0.66321 0.83004
 C1649 C 0.47306 0.63897 0.83842
 C1650 C 0.44704 0.62717 0.82123
 C1651 C 0.43836 0.64051 0.79376
 H1652 H 0.45155 0.65892 0.78499
 O1653 O 0.35505 0.55020 0.89310
 O1654 O 0.32045 0.55626 0.85770
 C1655 C 0.33137 0.56321 0.88339
 C1656 C 0.31737 0.58751 0.90175
 C1657 C 0.29004 0.60130 0.89299
 H1658 H 0.27833 0.59338 0.87300
 O1659 O 0.64856 0.47393 0.88496
 O1660 O 0.68444 0.47558 0.85016
 C1661 C 0.67287 0.46386 0.87383
 C1662 C 0.68821 0.43839 0.88830
 C1663 C 0.71759 0.43168 0.87971
 H1664 H 0.72788 0.44509 0.86213
 O1665 O 0.60345 0.34735 0.94873
 O1666 O 0.63719 0.31096 0.94591
 C1667 C 0.61360 0.32377 0.93594
 C1668 C 0.59868 0.31167 0.90846
 C1669 C 0.61095 0.28666 0.89350
 H1670 H 0.63058 0.27537 0.90282
 O1671 O 0.40580 0.66145 0.98195
 O1672 O 0.37278 0.69848 0.98526
 C1673 C 0.39644 0.68714 0.97354
 C1674 C 0.41282 0.70311 0.94902
 C1675 C 0.39894 0.72674 0.93266
 H1676 H 0.37626 0.73398 0.93836
 Cu1677 Cu 0.62860 0.50539 0.86785
 Cu1678 Cu 0.67110 0.50672 0.82555
 Cu1679 Cu 0.37843 0.52178 0.87313
 Cu1680 Cu 0.33717 0.52904 0.83038
 Cu1681 Cu 0.64122 0.60769 1.01005
 Cu1682 Cu 0.68618 0.64660 1.01478
 Cu1683 Cu 0.62027 0.36783 0.98146
 Cu1684 Cu 0.66050 0.32396 0.97781
 Cu1685 Cu 0.38774 0.63528 1.00908
 Cu1686 Cu 0.34819 0.67981 1.01381
 Cu1687 Cu 0.37326 0.38209 0.98232
 Cu1688 Cu 0.32887 0.34275 0.97736
 Cu1689 Cu 0.51436 0.63648 0.88559
 Cu1690 Cu 0.51837 0.68254 0.84779
 Cu1691 Cu 0.49965 0.38793 0.85554
 Cu1692 Cu 0.49551 0.35086 0.80876
 C1693 C 0.57890 0.43558 0.80704
 H1694 H 0.56733 0.44709 0.82537
 C1695 C 0.61002 0.40377 0.76188
 C1696 C 0.43061 0.60265 0.83234
 H1697 H 0.43715 0.59235 0.85362
 C1698 C 0.41329 0.62997 0.77752
 C1699 C 0.44096 0.69185 0.93905
 H1700 H 0.45095 0.67252 0.95012
 C1701 C 0.41328 0.73876 0.90692
 C1702 C 0.57375 0.32640 0.89569
 H1703 H 0.56458 0.34597 0.90708
 C1704 C 0.59908 0.27656 0.86592
 C1705 C 0.67377 0.42053 0.90989
 H1706 H 0.65066 0.42573 0.91611
 C1707 C 0.73353 0.40791 0.89273
 C1708 C 0.33274 0.59850 0.92728
 H1709 H 0.35406 0.58847 0.93387
 C1710 C 0.27833 0.62587 0.90948
 C1711 C 0.58638 0.59005 0.82583
 H1712 H 0.58415 0.58573 0.84995
 C1713 C 0.59259 0.60114 0.76363
 C1714 C 0.42310 0.44640 0.81287
 H1715 H 0.43251 0.45154 0.83493
 C1716 C 0.39679 0.43194 0.75656
 C1717 C 0.68785 0.56950 0.92400
 H1718 H 0.66586 0.56146 0.93099
 C1719 C 0.74403 0.59224 0.90587
 C1720 C 0.32447 0.43984 0.90863
 H1721 H 0.34472 0.44762 0.91986
 C1722 C 0.27314 0.41845 0.87820
 C1723 C 0.59931 0.67075 0.93637
 H1724 H 0.58956 0.64915 0.94179
 C1725 C 0.62507 0.72644 0.92166
 C1726 C 0.41864 0.33737 0.89981
 H1727 H 0.42283 0.36047 0.90618
 C1728 C 0.40871 0.27750 0.88310
 N1729 N 1.15692 1.13066 1.22290
 N1730 N 1.16851 1.15114 1.24356
 C1731 C 1.17063 1.13737 1.27068
 C1732 C 1.16082 1.10783 1.26792
 C1733 C 1.15138 1.10497 1.23791
 H1734 H 1.15541 1.09274 1.28638
 H1735 H 1.14908 1.13629 1.20128
 H1736 H 1.17107 1.17404 1.23924
 N1737 N 1.14295 0.55922 0.78796
 N1738 N 1.15274 0.57600 0.81062
 C1739 C 1.13773 0.60231 0.81031
 C1740 C 1.11746 0.60233 0.78654
 C1741 C 1.12157 0.57462 0.77256
 H1742 H 1.10317 0.62081 0.77957
 H1743 H 1.15129 0.53778 0.78323
 H1744 H 1.16979 0.56960 0.82568
 N1745 N 0.62173 1.05784 0.79333
 N1746 N 0.63045 1.07284 0.81961
 C1747 C 0.62486 1.10236 0.81566
 C1748 C 0.61198 1.10677 0.78723
 C1749 C 0.61092 1.07842 0.77375
 H1750 H 0.60635 1.12805 0.77681
 H1751 H 0.62387 1.03475 0.78989
 H1752 H 0.64098 1.06261 0.83814
 N1753 N 0.64630 0.56236 1.28417
 N1754 N 0.65547 0.57781 1.30801
 C1755 C 0.64075 0.60424 1.30857
 C1756 C 0.62130 0.60575 1.28404
 C1757 C 0.62562 0.57875 1.26877
 H1758 H 0.60701 0.62448 1.27778
 H1759 H 0.65442 0.54097 1.27892
 H1760 H 0.67163 0.57027 1.32350
 N1761 N 0.93217 0.85792 1.28192
 N1762 N 0.92009 0.84907 1.30964
 C1763 C 0.89288 0.86230 1.31254
 C1764 C 0.88708 0.88005 1.28727
 C1765 C 0.91184 0.87601 1.26820
 H1766 H 0.86634 0.89193 1.28219
 H1767 H 0.95303 0.85067 1.27361
 H1768 H 0.93025 0.83381 1.32449
 N1769 N 0.93321 0.35185 0.77535
 N1770 N 0.92081 0.34266 0.80282
 C1771 C 0.89453 0.35741 0.80648
 C1772 C 0.88958 0.37635 0.78183
 C1773 C 0.91387 0.37151 0.76231
 H1774 H 0.86954 0.38960 0.77741
 H1775 H 0.95370 0.34380 0.76688
 H1776 H 0.93019 0.32640 0.81708
 N1777 N 0.32657 0.87773 0.73450
 N1778 N 0.31631 0.86848 0.76101
 C1779 C 0.33936 0.85629 0.77654
 C1780 C 0.36546 0.85748 0.75911
 C1781 C 0.35648 0.87190 0.73279
 H1782 H 0.38825 0.85204 0.76611
 H1783 H 0.31350 0.88927 0.71858
 H1784 H 0.29420 0.87162 0.76869
 N1785 N 0.43278 0.39354 1.27758
 N1786 N 0.42353 0.38789 1.30719
 C1787 C 0.39309 0.38915 1.30800
 C1788 C 0.38231 0.39671 1.27927
 C1789 C 0.40791 0.39832 1.26082
 H1790 H 0.35902 0.39735 1.27193
 H1791 H 0.45510 0.39257 1.26995
 H1792 H 0.43803 0.38116 1.32461
 N1793 N 0.84818 1.16451 0.77310
 N1794 N 0.83280 1.17149 0.74655
 C1795 C 0.85241 1.16956 0.72324
 C1796 C 0.88075 1.16124 0.73439
 C1797 C 0.87681 1.15742 0.76567
 H1798 H 0.89978 1.15342 0.72107
 H1799 H 0.83774 1.16066 0.79402
 H1800 H 0.80940 1.17418 0.74508
 N1801 N 0.91183 0.66884 0.24268
 N1802 N 0.90031 0.67507 0.21399
 C1803 C 0.88327 0.65161 0.20556
 C1804 C 0.88346 0.63003 0.22838
 C1805 C 0.90180 0.64152 0.25119
 H1806 H 0.87218 0.60855 0.22808
 H1807 H 0.92516 0.68369 0.25505
 H1808 H 0.90430 0.69479 0.20184
 N1809 N 0.42031 1.14445 0.22016
 N1810 N 0.40552 1.15280 0.19554
 C1811 C 0.37679 1.14324 0.19763
 C1812 C 0.37316 1.12794 0.22471
 C1813 C 0.40122 1.12959 0.23863
 H1814 H 0.35229 1.11956 0.23423
 H1815 H 0.44288 1.14966 0.22436
 H1816 H 0.41470 1.16603 0.17829
 N1817 N 0.41465 0.67118 0.73845
 N1818 N 0.40216 0.67717 0.71193
 C1819 C 0.38361 0.65452 0.70453
 C1820 C 0.38429 0.63312 0.72723
 C1821 C 0.40435 0.64444 0.74848
 H1822 H 0.37193 0.61225 0.72786
 H1823 H 0.42949 0.68569 0.74940
 H1824 H 0.40607 0.69668 0.69940
 N1825 N 1.12035 0.92420 0.71281
 N1826 N 1.13319 0.90727 0.69186
 C1827 C 1.12963 0.87813 0.69929
 C1828 C 1.11323 0.87646 0.72612
 C1829 C 1.10826 0.90630 0.73414
 H1830 H 1.10898 0.85673 0.73977
 H1831 H 1.12117 0.94762 0.71313
 H1832 H 1.14597 0.91567 0.67384
 N1833 N 1.12432 0.43732 0.20866
 N1834 N 1.13879 0.42155 0.18552
 C1835 C 1.13012 0.39272 0.18753
 C1836 C 1.10974 0.38948 0.21139
 C1837 C 1.10737 0.41774 0.22458
 H1838 H 1.10044 0.36872 0.22000
 H1839 H 1.12781 0.46001 0.21336
 H1840 H 1.15450 0.43073 0.17049
 N1841 N 0.59977 0.84124 0.24632
 N1842 N 0.61221 0.82953 0.21989
 C1843 C 0.62493 0.85237 0.20462
 C1844 C 0.62143 0.87894 0.22090
 C1845 C 0.60466 0.87109 0.24636
 H1846 H 0.62747 0.90134 0.21368
 H1847 H 0.58774 0.82869 0.26224
 H1848 H 0.61059 0.80712 0.21314
 N1849 N 0.65730 0.37947 0.74365
 N1850 N 0.66638 0.36413 0.71970
 C1851 C 0.64254 0.35917 0.70146
 C1852 C 0.61706 0.37193 0.71435
 C1853 C 0.62754 0.38485 0.74091
 H1854 H 0.59500 0.37465 0.70418
 H1855 H 0.67157 0.38704 0.76085
 H1856 H 0.68895 0.35920 0.71482
 N1857 N 1.22315 1.13973 1.15526
 N1858 N 1.24686 1.15809 1.16405
 C1859 C 1.27215 1.14129 1.16445
 C1860 C 1.26526 1.11193 1.15599
 C1861 C 1.23450 1.11226 1.14920
 H1862 H 1.28130 1.09460 1.14973
 H1863 H 1.20173 1.14764 1.14930
 H1864 H 1.24531 1.18136 1.16657
 N1865 N 1.27549 0.57021 0.65708
 N1866 N 1.30043 0.58688 0.66612
 C1867 C 1.30469 0.60873 0.64549
 C1868 C 1.28306 0.60637 0.62285
 C1869 C 1.26489 0.58213 0.63097
 H1870 H 1.28049 0.62119 0.60359
 H1871 H 1.26642 0.55274 0.66986
 H1872 H 1.31262 0.58322 0.68607
 N1873 N 0.74662 1.09259 0.66723
 N1874 N 0.76879 1.11102 0.67938
 C1875 C 0.78253 1.12518 0.65620
 C1876 C 0.76943 1.11637 0.62890
 C1877 C 0.74717 1.09572 0.63679
 H1878 H 0.77566 1.12359 0.60629
 H1879 H 0.73177 1.07974 0.68021
 H1880 H 0.77360 1.11285 0.70252
 N1881 N 0.78865 0.55951 1.14516
 N1882 N 0.81190 0.57536 1.15474
 C1883 C 0.81251 0.60145 1.13944
 C1884 C 0.78872 0.60233 1.11921
 C1885 C 0.77373 0.57537 1.12369
 H1886 H 0.78245 0.62089 1.10468
 H1887 H 0.78327 0.53836 1.15371
 H1888 H 0.82678 0.56848 1.17177
 N1889 N 1.27829 0.88513 0.92086
 N1890 N 1.30253 0.86934 0.90850
 C1891 C 1.30083 0.87197 0.87813
 C1892 C 1.27608 0.88984 0.87045
 C1893 C 1.26208 0.89687 0.89782
 H1894 H 1.26726 0.89388 0.84790
 H1895 H 1.27236 0.88488 0.94382
 H1896 H 1.31791 0.85651 0.92098
 N1897 N 1.25418 0.34413 0.36919
 N1898 N 1.28376 0.33591 0.36270
 C1899 C 1.29904 0.36090 0.35544
 C1900 C 1.27964 0.38573 0.35725
 C1901 C 1.25199 0.37428 0.36732
 H1902 H 1.28603 0.40912 0.35625
 H1903 H 1.23773 0.32918 0.37676
 H1904 H 1.29253 0.31425 0.36517
 N1905 N 0.77186 0.92255 0.36623
 N1906 N 0.79830 0.91154 0.35809
 C1907 C 0.79986 0.88269 0.36672
 C1908 C 0.77307 0.87484 0.38123
 C1909 C 0.75557 0.90082 0.37995
 H1910 H 0.76688 0.85315 0.39027
 H1911 H 0.76551 0.94483 0.36250
 H1912 H 0.81508 0.92384 0.34706
 N1913 N 0.78118 0.42488 0.86792
 N1914 N 0.80689 0.41165 0.85568
 C1915 C 0.80660 0.38263 0.86377
 C1916 C 0.78090 0.37649 0.88093
 C1917 C 0.76508 0.40338 0.88228
 H1918 H 0.77384 0.35491 0.88963
 H1919 H 0.77615 0.44768 0.86583
 H1920 H 0.82351 0.42295 0.84338
 N1921 N 0.71148 0.93061 1.12026
 N1922 N 0.68646 0.91815 1.13044
 C1923 C 0.68606 0.88924 1.12170
 C1924 C 0.71188 0.88300 1.10488
 C1925 C 0.72775 0.90979 1.10504
 H1926 H 0.71971 0.86130 1.09702
 H1927 H 0.71782 0.95266 1.12499
 H1928 H 0.67075 0.92897 1.14442
 N1929 N 0.71596 0.42983 0.60559
 N1930 N 0.68971 0.41759 0.61746
 C1931 C 0.68882 0.38849 0.60931
 C1932 C 0.71406 0.38153 0.59173
 C1933 C 0.73118 0.40774 0.59124
 H1934 H 0.72160 0.35931 0.58516
 H1935 H 0.72355 0.45149 0.61028
 H1936 H 0.67519 0.42868 0.63249
 N1937 N 0.26678 0.84612 0.62845
 N1938 N 0.24426 0.82995 0.64304
 C1939 C 0.22333 0.84979 0.65267
 C1940 C 0.23219 0.87881 0.64531
 C1941 C 0.25908 0.87539 0.62956
 H1942 H 0.21920 0.89928 0.64802
 H1943 H 0.28492 0.83655 0.61669
 H1944 H 0.24330 0.80655 0.64412
 N1945 N 0.24723 0.34632 1.09297
 N1946 N 0.22126 0.33431 1.10572
 C1947 C 0.20660 0.35668 1.12011
 C1948 C 0.22280 0.38334 1.11707
 C1949 C 0.24792 0.37588 1.09957
 H1950 H 0.21675 0.40531 1.12569
 H1951 H 0.26317 0.33390 1.08073
 H1952 H 0.21501 0.31178 1.10426
 N1953 N 0.71345 1.09228 0.92483
 N1954 N 0.68693 1.09799 0.90900
 C1955 C 0.68843 1.12604 0.89771
 C1956 C 0.71578 1.13896 0.90634
 C1957 C 0.73110 1.11667 0.92264
 H1958 H 0.72525 1.15965 0.89778
 H1959 H 0.72003 1.07112 0.93267
 H1960 H 0.67023 1.08203 0.90483
 N1961 N 0.73576 0.66241 0.42245
 N1962 N 0.71004 0.66985 0.40925
 C1963 C 0.70254 0.64820 0.38939
 C1964 C 0.72450 0.62593 0.38994
 C1965 C 0.74530 0.63572 0.41134
 H1966 H 0.72505 0.60552 0.37663
 H1967 H 0.74665 0.67599 0.43828
 H1968 H 0.69808 0.68964 0.41365
 N1969 N 0.22154 1.15339 0.42045
 N1970 N 0.19777 1.16333 0.40236
 C1971 C 0.20003 1.14944 0.37526
 C1972 C 0.22466 1.13016 0.37554
 C1973 C 0.23814 1.13387 0.40392
 H1974 H 0.23343 1.11776 0.35631
 H1975 H 0.22577 1.16124 0.44233
 H1976 H 0.18242 1.18011 0.40858
 N1977 N 0.24232 0.66953 0.90855
 N1978 N 0.21565 0.67619 0.89701
 C1979 C 0.20578 0.65249 0.88102
 C1980 C 0.22713 0.62968 0.88233
 C1981 C 0.25003 0.64132 0.90022
 H1982 H 0.22590 0.60767 0.87202
 H1983 H 0.25503 0.68454 0.92142
 H1984 H 0.20464 0.69678 0.89989
 N1985 N 1.10461 1.25127 1.17296
 N1986 N 1.11428 1.27849 1.17932
 C1987 C 1.12950 1.28905 1.15526
 C1988 C 1.12963 1.26758 1.13236
 C1989 C 1.11302 1.24395 1.14433
 H1990 H 1.13917 1.26959 1.10983
 H1991 H 1.09257 1.23823 1.18842
 H1992 H 1.11051 1.28952 1.19993
 N1993 N 1.16436 0.72530 0.66128
 N1994 N 1.17439 0.75013 0.67397
 C1995 C 1.15281 0.77152 0.67243
 C1996 C 1.12753 0.75946 0.65830
 C1997 C 1.13612 0.73016 0.65130
 H1998 H 1.10743 0.77120 0.65089
 H1999 H 1.17721 0.70581 0.65830
 H2000 H 1.19651 0.75296 0.68161
 N2001 N 0.61970 1.26704 0.57282
 N2002 N 0.63044 1.29362 0.58006
 C2003 C 0.63137 1.29592 0.61047
 C2004 C 0.62026 1.26962 0.62333
 C2005 C 0.61355 1.25166 0.59845
 H2006 H 0.61934 1.26364 0.64712
 H2007 H 0.61744 1.25934 0.55053
 H2008 H 0.63743 1.30966 0.56429
 N2009 N 0.62313 0.76511 1.07532
 N2010 N 0.63327 0.79168 1.08349
 C2011 C 0.63134 0.79386 1.11384
 C2012 C 0.61903 0.76768 1.12560
 C2013 C 0.61458 0.74979 1.10034
 H2014 H 0.61580 0.76177 1.14921
 H2015 H 0.62292 0.75738 1.05293
 H2016 H 0.64162 0.80778 1.06848
 N2017 N 0.84705 1.25637 0.91711
 N2018 N 0.83666 1.27965 0.90192
 C2019 C 0.85944 1.29147 0.88577
 C2020 C 0.88557 1.27512 0.89069
 C2021 C 0.87681 1.25319 0.91112
 H2022 H 0.90787 1.27936 0.88163
 H2023 H 0.83359 1.24291 0.93095
 H2024 H 0.81432 1.28723 0.90276
 N2025 N 0.85320 0.75796 0.42124
 N2026 N 0.84148 0.78218 0.40876
 C2027 C 0.86314 0.79606 0.39281
 C2028 C 0.89000 0.77998 0.39508
 C2029 C 0.88279 0.75607 0.41378
 H2030 H 0.91166 0.78526 0.38506
 H2031 H 0.84064 0.74284 0.43415
 H2032 H 0.81887 0.78867 0.41081
 N2033 N 0.43526 1.30302 0.41082
 N2034 N 0.42436 1.32742 0.39787
 C2035 C 0.39458 1.32377 0.39315
 C2036 C 0.38595 1.29590 0.40414
 C2037 C 0.41264 1.28331 0.41475
 H2038 H 0.36439 1.28492 0.40128
 H2039 H 0.45813 1.29930 0.41522
 H2040 H 0.43757 1.34547 0.39072
 N2041 N 0.40060 0.75207 0.85402
 N2042 N 0.38618 0.77312 0.83891
 C2043 C 0.37307 0.79197 0.85885
 C2044 C 0.37915 0.78228 0.88831
 C2045 C 0.39718 0.75699 0.88404
 H2046 H 0.37254 0.79272 0.90950
 H2047 H 0.41274 0.73467 0.84371
 H2048 H 0.38551 0.77443 0.81524
 N2049 N 1.06972 0.72763 0.84587
 N2050 N 1.08325 0.70216 0.83846
 C2051 C 1.11008 0.70071 0.85268
 C2052 C 1.11381 0.72644 0.86994
 C2053 C 1.08764 0.74311 0.86503
 H2054 H 1.13302 0.73209 0.88392
 H2055 H 1.04829 0.73375 0.83819
 H2056 H 1.07402 0.68598 0.82409
 N2057 N 1.10687 0.25885 0.31324
 N2058 N 1.12272 0.23567 0.30329
 C2059 C 1.13639 0.22260 0.32714
 C2060 C 1.12910 0.23797 0.35335
 C2061 C 1.11018 0.26077 0.34364
 H2062 H 1.13588 0.23263 0.37632
 H2063 H 1.09435 0.27305 0.29921
 H2064 H 1.12383 0.22891 0.28061
 N2065 N 0.56757 0.72355 0.34994
 N2066 N 0.58213 0.69875 0.34231
 C2067 C 0.60872 0.69797 0.35699
 C2068 C 0.61127 0.72347 0.37479
 C2069 C 0.58462 0.73936 0.36965
 H2070 H 0.63011 0.72950 0.38910
 H2071 H 0.54613 0.72897 0.34181
 H2072 H 0.57373 0.68255 0.32744
 N2073 N 0.64473 0.25516 0.84145
 N2074 N 0.65712 0.22830 0.83819
 C2075 C 0.63632 0.20735 0.84459
 C2076 C 0.60937 0.22165 0.85238
 C2077 C 0.61566 0.25216 0.85010
 H2078 H 0.58942 0.21144 0.86204
 H2079 H 0.65674 0.27524 0.84024
 H2080 H 0.67991 0.22450 0.83338
 N2081 N 0.85365 0.72173 1.06712
 N2082 N 0.84551 0.69693 1.08131
 C2083 C 0.85911 0.69612 1.10858
 C2084 C 0.87678 0.72145 1.11191
 C2085 C 0.87266 0.73728 1.08509
 H2086 H 0.89024 0.72763 1.13138
 H2087 H 0.84644 0.72745 1.04533
 H2088 H 0.83093 0.68087 1.07230
 N2089 N 0.85692 0.21349 0.56982
 N2090 N 0.84621 0.19124 0.58642
 C2091 C 0.85640 0.19405 0.61509
 C2092 C 0.87467 0.21920 0.61673
 C2093 C 0.87418 0.23113 0.58751
 H2094 H 0.88496 0.22868 0.63681
 H2095 H 0.85199 0.21661 0.54687
 H2096 H 0.83130 0.17501 0.57834
 N2097 N 0.34666 0.72485 0.56672
 N2098 N 0.33857 0.70016 0.58119
 C2099 C 0.35368 0.69873 0.60761
 C2100 C 0.37227 0.72349 0.61006
 C2101 C 0.36713 0.73971 0.58370
 H2102 H 0.38680 0.72919 0.62890
 H2103 H 0.33826 0.73106 0.54550
 H2104 H 0.32289 0.68469 0.57303
 N2105 N 0.32615 0.25604 1.09800
 N2106 N 0.31452 0.23421 1.11445
 C2107 C 0.33704 0.21977 1.12888
 C2108 C 0.36430 0.23306 1.12141
 C2109 C 0.35641 0.25592 1.10149
 H2110 H 0.38667 0.22639 1.12864
 H2111 H 0.31327 0.27084 1.08493
 H2112 H 0.29152 0.22921 1.11545
 N2113 N 1.06742 1.12202 0.72311
 N2114 N 1.07656 1.12872 0.69543
 C2115 C 1.10688 1.12659 0.69431
 C2116 C 1.11756 1.11768 0.72255
 C2117 C 1.09169 1.11534 0.74023
 H2118 H 1.14079 1.11516 0.72971
 H2119 H 1.04489 1.12248 0.73014
 H2120 H 1.06221 1.13563 0.67796
 N2121 N 1.10427 0.58357 0.22121
 N2122 N 1.11673 0.59234 0.19367
 C2123 C 1.11994 0.62235 0.19418
 C2124 C 1.10923 0.63350 0.22196
 C2125 C 1.10070 0.60819 0.23867
 H2126 H 1.11160 0.65616 0.23046
 H2127 H 1.10144 0.56126 0.22786
 H2128 H 1.12394 0.57753 0.17672
 N2129 N 0.58096 1.08046 0.20697
 N2130 N 0.59226 1.09193 0.17991
 C2131 C 0.59704 1.12157 0.18361
 C2132 C 0.58875 1.12957 0.21308
 C2133 C 0.57978 1.10307 0.22716
 H2134 H 0.59426 1.15035 0.22450
 H2135 H 0.57790 1.05765 0.21139
 H2136 H 0.60019 1.07868 0.16200
 N2137 N 0.60147 0.58388 0.71074
 N2138 N 0.61390 0.59519 0.68605
 C2139 C 0.61684 0.62498 0.68974
 C2140 C 0.60558 0.63310 0.71795
 C2141 C 0.59664 0.60624 0.73084
 H2142 H 0.60850 0.65438 0.72942
 H2143 H 0.59880 0.56093 0.71464
 H2144 H 0.62260 0.58234 0.66820
 N2145 N 0.85276 0.93744 0.71992
 N2146 N 0.84259 0.92077 0.69735
 C2147 C 0.85734 0.89432 0.69751
 C2148 C 0.87786 0.89412 0.72116
 C2149 C 0.87416 0.92189 0.73515
 H2150 H 0.89240 0.87574 0.72784
 H2151 H 0.84487 0.95906 0.72450
 H2152 H 0.82571 0.92747 0.68226
 N2153 N 0.85271 0.43518 0.21738
 N2154 N 0.84221 0.41722 0.19376
 C2155 C 0.85858 0.39170 0.19378
 C2156 C 0.87971 0.39275 0.21688
 C2157 C 0.87518 0.42015 0.23150
 H2158 H 0.89520 0.37496 0.22307
 H2159 H 0.84384 0.45626 0.22271
 H2160 H 0.82436 0.42285 0.17935
 N2161 N 0.35737 0.93763 0.21411
 N2162 N 0.34959 0.92270 0.18943
 C2163 C 0.36420 0.89620 0.18926
 C2164 C 0.38207 0.89408 0.21480
 C2165 C 0.37695 0.92074 0.23036
 H2166 H 0.39542 0.87490 0.22167
 H2167 H 0.34883 0.95882 0.21951
 H2168 H 0.33414 0.93045 0.17333
 N2169 N 0.35468 0.43605 0.71848
 N2170 N 0.34465 0.42016 0.69326
 C2171 C 0.36456 0.39793 0.68794
 C2172 C 0.38779 0.39929 0.70906
 C2173 C 0.38070 0.42326 0.72816
 H2174 H 0.40652 0.38376 0.71099
 H2175 H 0.34237 0.45347 0.72839
 H2176 H 0.32441 0.42435 0.68186
 N2177 N 1.09378 0.82728 1.25864
 N2178 N 1.10438 0.82129 1.28775
 C2179 C 1.12012 0.84536 1.29700
 C2180 C 1.11998 0.86707 1.27429
 C2181 C 1.10301 0.85506 1.25073
 H2182 H 1.13026 0.88904 1.27520
 H2183 H 1.08144 0.81208 1.24567
 H2184 H 1.10067 0.80137 1.29965
 N2185 N 1.15146 0.32971 0.72714
 N2186 N 1.16596 0.32198 0.75399
 C2187 C 1.14573 0.32375 0.77680
 C2188 C 1.11791 0.33274 0.76498
 C2189 C 1.12273 0.33691 0.73395
 H2190 H 1.09869 0.34083 0.77787
 H2191 H 1.16249 0.33389 0.70661
 H2192 H 1.18933 0.31958 0.75618
 N2193 N 0.58370 0.83294 0.76476
 N2194 N 0.59697 0.82610 0.79068
 C2195 C 0.61555 0.84861 0.79853
 C2196 C 0.61402 0.87086 0.77658
 C2197 C 0.59345 0.86009 0.75538
 H2198 H 0.62628 0.89180 0.77622
 H2199 H 0.56880 0.81862 0.75361
 H2200 H 0.59356 0.80609 0.80251
 N2201 N 0.58998 0.32907 1.26141
 N2202 N 0.60173 0.32248 1.28809
 C2203 C 0.61937 0.34534 1.29698
 C2204 C 0.61889 0.36754 1.27501
 C2205 C 0.59978 0.35642 1.25274
 H2206 H 0.63051 0.38884 1.27552
 H2207 H 0.57595 0.31454 1.24942
 H2208 H 0.59784 0.30248 1.29979
 N2209 N 0.91952 1.10751 1.30358
 N2210 N 0.90291 1.12779 1.32093
 C2211 C 0.87366 1.12430 1.31380
 C2212 C 0.87083 1.10177 1.29198
 C2213 C 0.90028 1.09286 1.28506
 H2214 H 0.85067 1.09638 1.27927
 H2215 H 0.94306 1.10658 1.30330
 H2216 H 0.91221 1.14394 1.33531
 N2217 N 0.83704 0.61102 0.73440
 N2218 N 0.82298 0.62837 0.75418
 C2219 C 0.84374 0.64324 0.77042
 C2220 C 0.87236 0.63505 0.76075
 C2221 C 0.86710 0.61407 0.73820
 H2222 H 0.89373 0.64079 0.77105
 H2223 H 0.82598 0.59667 0.71938
 H2224 H 0.79962 0.62877 0.75749
 N2225 N 0.38649 1.06202 0.79150
 N2226 N 0.37253 1.07578 0.81622
 C2227 C 0.38185 1.10439 0.81687
 C2228 C 0.40199 1.10953 0.79307
 C2229 C 0.40333 1.08278 0.77691
 H2230 H 0.41105 1.13097 0.78607
 H2231 H 0.38243 1.03993 0.78484
 H2232 H 0.35686 1.06555 0.83057
 N2233 N 0.38821 0.64861 1.24235
 N2234 N 0.37543 0.66321 1.26708
 C2235 C 0.36433 0.64215 1.28591
 C2236 C 0.36938 0.61368 1.27353
 C2237 C 0.38486 0.61887 1.24647
 H2238 H 0.36423 0.59218 1.28367
 H2239 H 0.39951 0.65931 1.22459
 H2240 H 0.37535 0.68646 1.27013
 N2241 N 1.14218 1.28180 0.93025
 N2242 N 1.15405 1.30475 0.91242
 C2243 C 1.14366 1.30123 0.88390
 C2244 C 1.12468 1.27636 0.88303
 C2245 C 1.12470 1.26452 0.91241
 H2246 H 1.11386 1.26698 0.86318
 H2247 H 1.14675 1.27888 0.95330
 H2248 H 1.16928 1.32087 0.92014
 N2249 N 1.14646 0.77763 0.43762
 N2250 N 1.15453 0.80227 0.42313
 C2251 C 1.14171 0.80225 0.39546
 C2252 C 1.12464 0.77652 0.39215
 C2253 C 1.12828 0.76135 0.41945
 H2254 H 1.11178 0.76974 0.37246
 H2255 H 1.15308 0.77256 0.45977
 H2256 H 1.16849 0.81882 0.43223
 N2257 N 0.64544 1.27245 0.43491
 N2258 N 0.65562 1.29855 0.42090
 C2259 C 0.64262 1.30002 0.39337
 C2260 C 0.62402 1.27533 0.38919
 C2261 C 0.62657 1.25841 0.41553
 H2262 H 0.61114 1.26992 0.36908
 H2263 H 0.65156 1.26583 0.45677
 H2264 H 0.67065 1.31383 0.43052
 N2265 N 0.65869 0.77086 0.93098
 N2266 N 0.66567 0.79626 0.91727
 C2267 C 0.65019 0.79804 0.89107
 C2268 C 0.63264 0.77270 0.88786
 C2269 C 0.63860 0.75586 0.91372
 H2270 H 0.61779 0.76744 0.86915
 H2271 H 0.66728 0.76451 0.95207
 H2272 H 0.68055 0.81219 0.92600
 N2273 N 0.92493 1.26448 1.16575
 N2274 N 0.91213 1.29062 1.17202
 C2275 C 0.88646 1.29306 1.15594
 C2276 C 0.88268 1.26738 1.13873
 C2277 C 0.90760 1.24962 1.14551
 H2278 H 0.86423 1.26257 1.12346
 H2279 H 0.94549 1.25755 1.17495
 H2280 H 0.92113 1.30657 1.18680
 N2281 N 0.92685 0.77085 0.66078
 N2282 N 0.91282 0.79606 0.66811
 C2283 C 0.88633 0.79732 0.65328
 C2284 C 0.88330 0.77169 0.63570
 C2285 C 0.90956 0.75526 0.64110
 H2286 H 0.86449 0.76595 0.62123
 H2287 H 0.94816 0.76502 0.66898
 H2288 H 0.92154 0.81223 0.68283
 N2289 N 0.43749 1.27938 0.64431
 N2290 N 0.42391 1.30644 0.65266
 C2291 C 0.39692 1.30778 0.63878
 C2292 C 0.39268 1.28217 0.62144
 C2293 C 0.41833 1.26473 0.62569
 H2294 H 0.37276 1.27648 0.60849
 H2295 H 0.45883 1.27250 0.65154
 H2296 H 0.43333 1.32228 0.66730
 N2297 N 0.43377 0.77315 1.15229
 N2298 N 0.41953 0.80006 1.15992
 C2299 C 0.39372 0.80178 1.14393
 C2300 C 0.39084 0.77631 1.12599
 C2301 C 0.41630 0.75878 1.13187
 H2302 H 0.37229 0.77117 1.11095
 H2303 H 0.45469 0.76645 1.16080
 H2304 H 0.42801 0.81583 1.17521
 N2305 N 0.86695 0.77456 0.82577
 N2306 N 0.85765 0.74888 0.81441
 C2307 C 0.85113 0.73014 0.83741
 C2308 C 0.85613 0.74472 0.86488
 C2309 C 0.86664 0.77283 0.85632
 H2310 H 0.85463 0.73548 0.88754
 H2311 H 0.87424 0.79266 0.81263
 H2312 H 0.85647 0.74418 0.79121
 N2313 N 0.83499 0.27210 0.35042
 N2314 N 0.82133 0.24532 0.34214
 C2315 C 0.84305 0.22416 0.34006
 C2316 C 0.87104 0.23699 0.34636
 C2317 C 0.86479 0.26690 0.35338
 H2318 H 0.89241 0.22542 0.34897
 H2319 H 0.82337 0.29169 0.35636
 H2320 H 0.79806 0.24245 0.33970
 N2321 N 0.31863 0.75980 0.37675
 N2322 N 0.31073 0.73261 0.36814
 C2323 C 0.33517 0.71866 0.35678
 C2324 C 0.35981 0.73769 0.35799
 C2325 C 0.34846 0.76348 0.37151
 H2326 H 0.38307 0.73244 0.35250
 H2327 H 0.30373 0.77513 0.38673
 H2328 H 0.28911 0.72367 0.37060
 N2329 N 0.42999 0.23048 0.86150
 N2330 N 0.41983 0.20217 0.85347
 C2331 C 0.39093 0.19998 0.86258
 C2332 C 0.38194 0.22662 0.87664
 C2333 C 0.40695 0.24536 0.87487
 H2334 H 0.35980 0.23214 0.88552
 H2335 H 0.45192 0.23806 0.85761
 H2336 H 0.43290 0.18591 0.84243
 N2337 N 1.15686 0.75163 1.10946
 N2338 N 1.16946 0.72769 1.12521
 C2339 C 1.14687 0.71185 1.13788
 C2340 C 1.11938 0.72558 1.13100
 C2341 C 1.12665 0.74967 1.11205
 H2342 H 1.09708 0.71651 1.13495
 H2343 H 1.16921 0.76686 1.09647
 H2344 H 1.19227 0.72167 1.12421
 N2345 N 1.06952 0.19365 0.57505
 N2346 N 1.08074 0.17012 0.59246
 C2347 C 1.11018 0.17546 0.59772
 C2348 C 1.11860 0.20191 0.58320
 C2349 C 1.09212 0.21324 0.57042
 H2350 H 1.13941 0.21411 0.58658
 H2351 H 1.04661 0.19736 0.57084
 H2352 H 1.06745 0.15341 0.60226
 N2353 N 0.65138 0.75988 0.61300
 N2354 N 0.66508 0.73787 0.62753
 C2355 C 0.64426 0.71793 0.63671
 C2356 C 0.61577 0.72793 0.62794
 C2357 C 0.62146 0.75449 0.61249
 H2358 H 0.59445 0.71635 0.63017
 H2359 H 0.66259 0.77788 0.60289
 H2360 H 0.68846 0.73613 0.63010
 N2361 N 0.64832 0.24232 1.09525
 N2362 N 0.65953 0.21770 1.11094
 C2363 C 0.63603 0.20367 1.12410
 C2364 C 0.60939 0.21914 1.11750
 C2365 C 0.61809 0.24284 1.09878
 H2366 H 0.58665 0.21296 1.12386
 H2367 H 0.66166 0.25742 1.08313
 H2368 H 0.68225 0.21135 1.11139
 N2369 N 1.25917 1.15637 0.90284
 N2370 N 1.28529 1.16577 0.89225
 C2371 C 1.30022 1.14233 0.88006
 C2372 C 1.28256 1.11667 0.88271
 C2373 C 1.25675 1.12662 0.89774
 H2374 H 1.28826 1.09398 0.87599
 H2375 H 1.24336 1.17030 0.91351
 H2376 H 1.29271 1.18796 0.89355
 N2377 N 1.29083 0.57162 0.39142
 N2378 N 1.31148 0.58509 0.37470
 C2379 C 1.30659 0.61486 0.37595
 C2380 C 1.28203 0.62067 0.39472
 C2381 C 1.27231 0.59253 0.40367
 H2382 H 1.27065 0.64194 0.39818
 H2383 H 1.28835 0.54835 0.39277
 H2384 H 1.32768 0.57392 0.36159
 N2385 N 0.72569 1.15225 0.36274
 N2386 N 0.74734 1.16615 0.34782
 C2387 C 0.76947 1.14628 0.34129
 C2388 C 0.76121 1.11821 0.35212
 C2389 C 0.73347 1.12324 0.36593
 H2390 H 0.77478 1.09796 0.35287
 H2391 H 0.70651 1.16280 0.37164
 H2392 H 0.74773 1.18928 0.34400
 N2393 N 0.79214 0.61940 0.91645
 N2394 N 0.81059 0.63738 0.90163
 C2395 C 0.80313 0.63685 0.87213
 C2396 C 0.77909 0.61754 0.86774
 C2397 C 0.77228 0.60737 0.89663
 H2398 H 0.76676 0.61362 0.84693
 H2399 H 0.79286 0.61623 0.93992
 H2400 H 0.82775 0.64992 0.91169
 N2401 N 1.26615 0.83502 1.08100
 N2402 N 1.29249 0.82789 1.09305
 C2403 C 1.30131 0.85047 1.11118
 C2404 C 1.27970 0.87302 1.11071
 C2405 C 1.25764 0.86242 1.09119
 H2406 H 1.28010 0.89405 1.12298
 H2407 H 1.25413 0.82073 1.06671
 H2408 H 1.30386 0.80765 1.08922
 N2409 N 1.26646 0.33412 0.58269
 N2410 N 1.29328 0.32847 0.59437
 C2411 C 1.30116 0.35158 0.61229
 C2412 C 1.27841 0.37294 0.61210
 C2413 C 1.25672 0.36108 0.59288
 H2414 H 1.27798 0.39416 0.62405
 H2415 H 1.25507 0.31924 0.56849
 H2416 H 1.30572 0.30891 0.59030
 N2417 N 0.75861 0.83225 0.58916
 N2418 N 0.78427 0.82480 0.60246
 C2419 C 0.79268 0.84732 0.62091
 C2420 C 0.77137 0.87017 0.61935
 C2421 C 0.75005 0.85980 0.59880
 H2422 H 0.77160 0.89139 0.63130
 H2423 H 0.74709 0.81821 0.57422
 H2424 H 0.79561 0.80447 0.59903
 N2425 N 0.76287 0.32948 1.08591
 N2426 N 0.78854 0.32216 1.09923
 C2427 C 0.79684 0.34488 1.11747
 C2428 C 0.77563 0.36767 1.11576
 C2429 C 0.75434 0.35707 1.09544
 H2430 H 0.77576 0.38886 1.12776
 H2431 H 0.75126 0.31527 1.07121
 H2432 H 0.79982 0.30175 1.09614
 N2433 N 0.73702 1.09459 1.17104
 N2434 N 0.70963 1.10467 1.17684
 C2435 C 0.70046 1.12161 1.15340
 C2436 C 0.72300 1.12256 1.13153
 C2437 C 0.74576 1.10452 1.14340
 H2438 H 0.72219 1.13343 1.10959
 H2439 H 0.74921 1.08120 1.18612
 H2440 H 0.69754 1.10002 1.19666
 N2441 N 0.76911 0.64594 0.65427
 N2442 N 0.74375 0.66004 0.66107
 C2443 C 0.72057 0.64115 0.65674
 C2444 C 0.73169 0.61355 0.64698
 C2445 C 0.76272 0.61773 0.64536
 H2446 H 0.71888 0.59466 0.63862
 H2447 H 0.79025 0.65622 0.65364
 H2448 H 0.74233 0.68267 0.66713
 N2449 N 0.24803 1.13032 0.66312
 N2450 N 0.22049 1.13861 0.67100
 C2451 C 0.20467 1.14504 0.64574
 C2452 C 0.22320 1.14112 0.62054
 C2453 C 0.25041 1.13124 0.63264
 H2454 H 0.21673 1.14170 0.59687
 H2455 H 0.26438 1.12271 0.67837
 H2456 H 0.21226 1.13812 0.69323
 N2457 N 0.22084 0.61459 1.07269
 N2458 N 0.19496 0.62399 1.08414
 C2459 C 0.19526 0.61987 1.11441
 C2460 C 0.22265 0.60710 1.12269
 C2461 C 0.23835 0.60448 1.09547
 H2462 H 0.23138 0.60394 1.14540
 H2463 H 0.22690 0.61662 1.04986
 H2464 H 0.17824 0.63503 1.07165
 N2465 N 0.71611 0.93737 0.85982
 N2466 N 0.69321 0.92154 0.84937
 C2467 C 0.69351 0.89452 0.86288
 C2468 C 0.71756 0.89301 0.88284
 C2469 C 0.73168 0.92061 0.88012
 H2470 H 0.72437 0.87391 0.89638
 H2471 H 0.72064 0.95927 0.85286
 H2472 H 0.67777 0.92921 0.83321
 N2473 N 0.72024 0.43173 0.35785
 N2474 N 0.69622 0.41685 0.34869
 C2475 C 0.69486 0.39072 0.36381
 C2476 C 0.71909 0.38879 0.38356
 C2477 C 0.73506 0.41525 0.37894
 H2478 H 0.72481 0.37002 0.39802
 H2479 H 0.72613 0.45266 0.34915
 H2480 H 0.68125 0.42445 0.33205
 N2481 N 0.20980 0.94010 0.36046
 N2482 N 0.18684 0.92400 0.35061
 C2483 C 0.18663 0.89774 0.36561
 C2484 C 0.21034 0.89700 0.38591
 C2485 C 0.22490 0.92420 0.38177
 H2486 H 0.21705 0.87830 0.40004
 H2487 H 0.21496 0.96138 0.35212
 H2488 H 0.17198 0.93078 0.33353
 N2489 N 0.24213 0.41281 0.83111
 N2490 N 0.22012 0.39565 0.82103
 C2491 C 0.21117 0.37721 0.84349
 C2492 C 0.22823 0.38293 0.86916
 C2493 C 0.24785 0.40570 0.86031
 H2494 H 0.22699 0.37156 0.89082
 H2495 H 0.25364 0.42824 0.81759
 H2496 H 0.21176 0.39634 0.79889
   
