data_POSCAR
  _audit_creation_date              2014-09-24
  _audit_creation_method            'ToBaCCo'
  _symmetry_space_group_name_H-M    'P1'
  _symmetry_Int_Tables_number       1
  _symmetry_cell_setting            triclinic
  loop_
  _symmetry_equiv_pos_as_xyz
 x,y,z
_cell_length_a 35.8261
_cell_length_b 35.0178
_cell_length_c 46.4036
_cell_angle_alpha 90.141700
_cell_angle_beta 89.833900
_cell_angle_gamma 89.497700
loop_
  _atom_site_label
  _atom_site_type_symbol
  _atom_site_fract_x
  _atom_site_fract_y
  _atom_site_fract_z
B1 B 0.27044 0.22793 0.21655
 B2 B 0.28234 0.27217 0.22692
 B3 B 0.23728 0.26235 0.22030
 B4 B 0.22847 0.21738 0.23133
 B5 B 0.26886 0.19957 0.24540
 B6 B 0.30256 0.23377 0.24278
 B7 B 0.24755 0.26132 0.27792
 B8 B 0.23514 0.21728 0.26709
 B9 B 0.28034 0.22698 0.27416
 B10 B 0.28932 0.27212 0.26308
 B11 B 0.24895 0.28991 0.24874
 B12 B 0.21532 0.25602 0.25170
 B13 B 0.74504 0.78248 0.22837
 B14 B 0.73098 0.73687 0.23137
 B15 B 0.77543 0.74594 0.22219
 B16 B 0.78943 0.78561 0.24024
 B17 B 0.75267 0.80021 0.26127
 B18 B 0.71632 0.76969 0.25568
 B19 B 0.77379 0.72863 0.27867
 B20 B 0.78778 0.77413 0.27568
 B21 B 0.74332 0.76474 0.28475
 B22 B 0.72942 0.72527 0.26663
 B23 B 0.76616 0.71074 0.24586
 B24 B 0.80255 0.74115 0.25137
 B25 B 0.72469 0.23581 -0.21547
 B26 B 0.71443 0.28038 -0.22654
 B27 B 0.75758 0.27011 -0.21436
 B28 B 0.76940 0.22538 -0.22505
 B29 B 0.73264 0.20825 -0.24431
 B30 B 0.69839 0.24253 -0.24528
 B31 B 0.75980 0.27065 -0.27264
 B32 B 0.77035 0.22627 -0.26122
 B33 B 0.72705 0.23653 -0.27354
 B34 B 0.71540 0.28129 -0.26300
 B35 B 0.75192 0.29848 -0.24351
 B36 B 0.78628 0.26440 -0.24280
 B37 B 0.26408 0.76431 -0.28659
 B38 B 0.21852 0.77422 -0.28082
 B39 B 0.23193 0.72954 -0.28926
 B40 B 0.27387 0.72030 -0.27367
 B41 B 0.28567 0.76031 -0.25469
 B42 B 0.25108 0.79373 -0.25939
 B43 B 0.22066 0.73245 -0.23191
 B44 B 0.26622 0.72255 -0.23792
 B45 B 0.25259 0.76728 -0.22904
 B46 B 0.21086 0.77668 -0.24475
 B47 B 0.19904 0.73686 -0.26364
 B48 B 0.23348 0.70326 -0.25940
 B49 B 1.24200 1.27095 0.78128
 B50 B 1.28679 1.28010 0.77290
 B51 B 1.27405 1.23568 0.78197
 B52 B 1.23112 1.22703 0.76839
 B53 B 1.21759 1.26728 0.75076
 B54 B 1.25220 1.30039 0.75365
 B55 B 1.28044 1.23859 0.72431
 B56 B 1.23575 1.22974 0.73228
 B57 B 1.24822 1.27430 0.72364
 B58 B 1.29115 1.28248 0.73675
 B59 B 1.30479 1.24236 0.75476
 B60 B 1.27009 1.20943 0.75208
 B61 B 0.77511 0.73233 0.78048
 B62 B 0.73071 0.72580 0.77012
 B63 B 0.74671 0.77037 0.77502
 B64 B 0.79167 0.77183 0.76409
 B65 B 0.80321 0.72727 0.75178
 B66 B 0.76518 0.69858 0.75565
 B67 B 0.74675 0.75582 0.71808
 B68 B 0.79113 0.76204 0.72847
 B69 B 0.77497 0.71757 0.72351
 B70 B 0.73009 0.71617 0.73447
 B71 B 0.71868 0.76053 0.74673
 B72 B 0.75666 0.78930 0.74302
 B73 B 1.22897 0.73782 0.28587
 B74 B 1.21525 0.78126 0.27433
 B75 B 1.26017 0.77369 0.28287
 B76 B 1.27256 0.72890 0.27300
 B77 B 1.23430 0.70885 0.25753
 B78 B 1.19843 0.74160 0.25838
 B79 B 1.25414 0.77045 0.22496
 B80 B 1.26834 0.72741 0.23700
 B81 B 1.22312 0.73492 0.22809
 B82 B 1.21078 0.77987 0.23799
 B83 B 1.24896 0.79977 0.25347
 B84 B 1.28474 0.76747 0.25256
 B85 B 0.76230 1.26657 0.26968
 B86 B 0.77426 1.22139 0.26061
 B87 B 0.73054 1.23150 0.27181
 B88 B 0.71813 1.27490 0.25916
 B89 B 0.75471 1.29128 0.23906
 B90 B 0.78992 1.25813 0.24060
 B91 B 0.72975 1.22596 0.21392
 B92 B 0.71808 1.27094 0.22288
 B93 B 0.76182 1.26054 0.21161
 B94 B 0.77432 1.21726 0.22460
 B95 B 0.73742 1.20107 0.24390
 B96 B 0.70244 1.23440 0.24309
 O97 O 0.45313 1.05232 0.01871
 O98 O 0.53615 0.91020 0.02293
 O99 O 0.42338 0.93597 0.01096
 O100 O 0.56714 1.02746 0.01727
 O101 O 0.47125 0.91573 0.03215
 O102 O 0.51522 1.04568 0.03365
 O103 O 0.55840 0.96425 0.03613
 O104 O 0.42953 0.99912 0.03115
 C105 C 0.43282 1.03371 0.03554
 C106 C 0.55461 0.92974 0.04063
 C107 C 0.43710 0.92020 0.03235
 C108 C 0.54931 1.04427 0.03650
 O109 O 0.53856 1.05232 -0.02342
 O110 O 0.45704 0.90969 -0.02701
 O111 O 0.42523 1.02730 -0.02231
 O112 O 0.56974 0.93549 -0.01606
 O113 O 0.52132 0.91506 -0.03596
 O114 O 0.47702 1.04522 -0.03820
 O115 O 0.56313 0.99923 -0.03645
 O116 O 0.43595 0.96385 -0.04151
 Co117 Co 0.49599 1.04250 -0.00228
 Co118 Co 0.49646 0.91898 -0.00196
 Co119 Co 0.43550 0.98159 -0.00510
 Co120 Co 0.55769 0.98162 -0.00011
 O121 O 0.49643 0.98115 -0.00228
 C122 C 0.55877 1.03383 -0.04073
 C123 C 0.43984 0.92910 -0.04565
 C124 C 0.44305 1.04418 -0.04121
 C125 C 0.55528 0.91967 -0.03707
 O126 O 0.95819 0.55529 0.51491
 O127 O 1.04250 0.41443 0.52511
 O128 O 0.92919 0.43838 0.51476
 O129 O 1.07207 0.53095 0.51377
 O130 O 0.97834 0.41966 0.53528
 O131 O 1.02052 0.55026 0.52995
 O132 O 1.06433 0.46954 0.53603
 O133 O 0.93528 0.50349 0.53085
 C134 C 0.94009 0.53814 0.53390
 C135 C 1.06009 0.43550 0.54215
 C136 C 0.94420 0.42408 0.53627
 C137 C 1.05466 0.54860 0.53270
 O138 O 1.04283 0.55215 0.47247
 O139 O 0.96258 0.40854 0.47759
 O140 O 0.92987 0.52593 0.47575
 O141 O 1.07496 0.43683 0.48525
 O142 O 1.02704 0.41337 0.46648
 O143 O 0.98131 0.54296 0.45848
 O144 O 1.06731 0.49828 0.46164
 O145 O 0.93958 0.46034 0.46032
 Co146 Co 1.00076 0.54378 0.49430
 Co147 Co 1.00256 0.42039 0.50072
 Co148 Co 0.94038 0.48220 0.49559
 Co149 Co 1.06277 0.48384 0.49890
 O150 O 1.00159 0.48252 0.49738
 C151 C 1.06319 0.53257 0.45605
 C152 C 0.94419 0.42529 0.45835
 C153 C 0.94738 0.54033 0.45550
 C154 C 1.06095 0.41880 0.46513
 O155 O 1.00771 0.46162 0.06220
 O156 O 1.01692 0.52796 -0.05857
 O157 O 1.04922 0.44585 -0.02175
 O158 O 1.05442 0.54707 0.02854
 O159 O 1.01103 0.45757 -0.05578
 O160 O 1.01576 0.53057 0.06237
 O161 O 1.05133 0.55624 -0.02615
 O162 O 1.04757 0.45155 0.02932
 C163 C 1.03983 0.45105 0.05519
 C164 C 1.04444 0.54846 -0.05186
 C165 C 1.04285 0.44714 -0.04787
 C166 C 1.04736 0.54278 0.05464
 O167 O 0.94527 0.53906 0.04065
 O168 O 0.94146 0.46613 -0.03467
 O169 O 0.97591 0.42265 0.02978
 O170 O 0.98196 0.58028 -0.02109
 O171 O 0.94741 0.53777 -0.04337
 O172 O 0.94013 0.47084 0.03660
 O173 O 0.98788 0.57927 0.03237
 O174 O 0.97760 0.41961 -0.02228
 Co175 Co 0.97899 0.50036 0.04642
 Co176 Co 0.98065 0.49704 -0.04319
 Co177 Co 1.01121 0.44019 0.00381
 Co178 Co 1.01686 0.55899 0.00350
 O179 O 0.99684 0.49950 0.00231
 C180 C 0.95560 0.57266 0.04087
 C181 C 0.94688 0.43114 -0.03245
 C182 C 0.94429 0.43576 0.03641
 C183 C 0.95438 0.57175 -0.03680
 O184 O 0.55080 0.96831 0.55245
 O185 O 0.55928 1.01556 0.45422
 O186 O 0.55414 0.92571 0.49302
 O187 O 0.56347 1.05909 0.51437
 O188 O 0.54337 0.95193 0.45179
 O189 O 0.54429 1.03459 0.55439
 O190 O 0.53684 1.06864 0.46580
 O191 O 0.52041 0.92104 0.53936
 C192 C 0.54777 0.93334 0.55225
 C193 C 0.56203 1.05050 0.45366
 C194 C 0.56362 0.93125 0.46758
 C195 C 0.56855 1.05279 0.54050
 O196 O 0.46661 1.02759 0.54931
 O197 O 0.46695 0.97315 0.45273
 O198 O 0.45708 0.93510 0.51351
 O199 O 0.46894 1.06656 0.48737
 O200 O 0.48397 1.03693 0.44824
 O201 O 0.47213 0.96188 0.55375
 O202 O 0.49730 1.07452 0.53548
 O203 O 0.48930 0.92169 0.46731
 Co204 Co 0.50872 0.99789 0.54805
 Co205 Co 0.51309 0.99450 0.45615
 Co206 Co 0.50585 0.93342 0.50313
 Co207 Co 0.51598 1.05951 0.50085
 O208 O 0.51090 0.99637 0.50204
 C209 C 0.46937 1.06252 0.54792
 C210 C 0.46433 0.93820 0.45393
 C211 C 0.44925 0.94299 0.53902
 C212 C 0.46268 1.05985 0.46147
 O213 O 1.07032 1.04902 0.47491
 O214 O 0.92009 1.05199 0.52723
 O215 O 0.95808 1.08048 0.47341
 O216 O 1.02652 1.02842 0.56182
 O217 O 0.91497 1.04158 0.47410
 O218 O 1.06650 1.04681 0.52947
 O219 O 0.97157 1.06732 0.54664
 O220 O 1.02298 1.08480 0.46568
 C221 C 1.05708 1.07897 0.46415
 C222 C 0.93820 1.07455 0.54279
 C223 C 0.92566 1.07379 0.46710
 C224 C 1.05606 1.04501 0.55533
 O225 O 1.05581 0.97249 0.52666
 O226 O 0.93987 0.97134 0.47926
 O227 O 1.02528 1.01495 0.44077
 O228 O 0.95678 1.00568 0.57241
 O229 O 0.93488 0.97688 0.53362
 O230 O 1.05611 0.97736 0.47061
 O231 O 0.99942 0.96669 0.54311
 O232 O 0.95902 1.00928 0.44509
 Co233 Co 1.05581 1.01215 0.50057
 Co234 Co 0.93394 1.01185 0.50341
 Co235 Co 0.99092 1.04582 0.45950
 Co236 Co 0.98480 1.01745 0.54199
 O237 O 0.99510 1.02257 0.50002
 C238 C 1.03260 0.95536 0.54227
 C239 C 0.94657 0.97721 0.45300
 C240 C 1.04538 0.98564 0.44550
 C241 C 0.93182 0.98314 0.56083
 O242 O 0.56977 0.53467 -0.02790
 O243 O 0.41596 0.54082 0.02687
 O244 O 0.45990 0.57643 -0.03085
 O245 O 0.53145 0.57221 0.04672
 O246 O 0.41586 0.53730 -0.02592
 O247 O 0.57291 0.53475 0.02634
 O248 O 0.46107 0.57803 0.03938
 O249 O 0.52670 0.57610 -0.03584
 C250 C 0.56005 0.56696 -0.03695
 C251 C 0.42695 0.57181 0.03782
 C252 C 0.42658 0.56934 -0.03431
 C253 C 0.56457 0.56258 0.04262
 O254 O 0.55017 0.46473 0.02810
 O255 O 0.44673 0.46646 -0.02281
 O256 O 0.52497 0.50523 -0.05913
 O257 O 0.45487 0.50862 0.06071
 O258 O 0.44280 0.46741 0.02877
 O259 O 0.54094 0.46450 -0.02650
 O260 O 0.52330 0.49974 0.06191
 O261 O 0.45799 0.50582 -0.05670
 Co262 Co 0.55215 0.50159 -0.00023
 Co263 Co 0.43553 0.50477 0.00175
 Co264 Co 0.49220 0.53931 -0.04176
 Co265 Co 0.49249 0.53804 0.04728
 O266 O 0.49346 0.52063 0.00184
 C267 C 0.54146 0.47018 0.05398
 C268 C 0.44964 0.47278 -0.04892
 C269 C 0.53642 0.47236 -0.05240
 C270 C 0.44663 0.47529 0.05459
 C271 C 0.32368 1.21616 0.17936
 C272 C 0.34038 1.19704 0.15653
 C273 C 0.32164 1.16807 0.14232
 C274 C 0.28461 1.15970 0.15005
 C275 C 0.26690 1.18041 0.17235
 C276 C 0.28646 1.20879 0.18754
 N277 N 0.34245 1.14681 0.12141
 N278 N 0.33520 1.11278 0.11387
 C279 C 0.35952 1.09324 0.09403
 C280 C 0.35549 1.05399 0.08958
 C281 C 0.38016 1.03420 0.07136
 C282 C 0.40904 1.05353 0.05703
 C283 C 0.41315 1.09287 0.06171
 C284 C 0.38874 1.11252 0.08005
 H285 H 0.34089 1.23602 0.19109
 H286 H 0.36907 1.20331 0.15096
 H287 H 0.26972 1.13712 0.13917
 H288 H 0.23865 1.17315 0.17843
 H289 H 0.33341 1.03867 0.10041
 H290 H 0.37625 1.00394 0.06816
 H291 H 0.43504 1.10859 0.05096
 H292 H 0.39271 1.14285 0.08321
 C293 C 0.76669 0.67223 0.67884
 C294 C 0.78132 0.64882 0.65692
 C295 C 0.81991 0.64267 0.65464
 C296 C 0.84363 0.65886 0.67521
 C297 C 0.82913 0.68144 0.69733
 C298 C 0.79052 0.68926 0.69912
 N299 N 0.83487 0.62048 0.63127
 N300 N 0.86877 0.62429 0.62357
 C301 C 0.88576 0.60219 0.60108
 C302 C 0.91866 0.61549 0.58846
 C303 C 0.93620 0.59471 0.56649
 C304 C 0.92168 0.55957 0.55744
 C305 C 0.88894 0.54591 0.57045
 C306 C 0.87085 0.56726 0.59195
 H307 H 0.73687 0.67721 0.67971
 H308 H 0.76268 0.63627 0.64128
 H309 H 0.87350 0.65411 0.67413
 H310 H 0.84860 0.69376 0.71243
 H311 H 0.93045 0.64233 0.59543
 H312 H 0.96122 0.60598 0.55666
 H313 H 0.87690 0.51920 0.56358
 H314 H 0.84556 0.55636 0.60162
 C315 C 0.74921 0.82640 0.18248
 C316 C 0.73186 0.84634 0.15987
 C317 C 0.69292 0.85088 0.15948
 C318 C 0.67184 0.83791 0.18282
 C319 C 0.68893 0.81877 0.20541
 C320 C 0.72770 0.81117 0.20506
 N321 N 0.67463 0.86786 0.13523
 N322 N 0.64095 0.85929 0.12950
 C323 C 0.62011 0.87682 0.10682
 C324 C 0.58770 0.85905 0.09682
 C325 C 0.56609 0.87607 0.07522
 C326 C 0.57618 0.91169 0.06400
 C327 C 0.60841 0.92971 0.07447
 C328 C 0.63041 0.91226 0.09549
 H329 H 0.77907 0.82167 0.18169
 H330 H 0.74854 0.85680 0.14212
 H331 H 0.64184 0.84197 0.18335
 H332 H 0.67095 0.80832 0.22233
 H333 H 0.57936 0.83183 0.10567
 H334 H 0.54142 0.86165 0.06750
 H335 H 0.61700 0.95710 0.06604
 H336 H 0.65506 0.92667 0.10321
 C337 C 1.25320 0.32120 0.67958
 C338 C 1.23614 0.34333 0.65804
 C339 C 1.19767 0.34045 0.65312
 C340 C 1.17660 0.31494 0.66956
 C341 C 1.19321 0.29357 0.69095
 C342 C 1.23172 0.29619 0.69642
 N343 N 1.17958 0.36382 0.63205
 N344 N 1.14531 0.35804 0.62665
 C345 C 1.12375 0.37966 0.60679
 C346 C 1.08903 0.36535 0.59875
 C347 C 1.06747 0.38443 0.57843
 C348 C 1.08018 0.41859 0.56640
 C349 C 1.11426 0.43404 0.57556
 C350 C 1.13621 0.41442 0.59553
 H351 H 1.28276 0.32445 0.68351
 H352 H 1.25271 0.36300 0.64551
 H353 H 1.14683 0.31203 0.66642
 H354 H 1.17525 0.27519 0.70343
 H355 H 1.07920 0.33871 0.60770
 H356 H 1.04124 0.37215 0.57167
 H357 H 1.12462 0.46031 0.56634
 H358 H 1.16285 0.42604 0.60191
 C359 C 0.66548 1.22087 -0.18479
 C360 C 0.64588 1.20003 -0.16433
 C361 C 0.66378 1.17184 -0.14821
 C362 C 0.70240 1.16589 -0.15177
 C363 C 0.72253 1.18782 -0.17175
 C364 C 0.70422 1.21545 -0.18880
 N365 N 0.64144 1.14947 -0.12907
 N366 N 0.65140 1.11704 -0.11926
 C367 C 0.62726 1.09596 -0.10044
 C368 C 0.63611 1.05802 -0.09356
 C369 C 0.61303 1.03708 -0.07508
 C370 C 0.58095 1.05406 -0.06283
 C371 C 0.57186 1.09193 -0.07010
 C372 C 0.59463 1.11261 -0.08882
 H373 H 0.64973 1.24063 -0.19799
 H374 H 0.61612 1.20476 -0.16188
 H375 H 0.71682 1.14422 -0.13936
 H376 H 0.75207 1.18213 -0.17454
 H377 H 0.66101 1.04472 -0.10243
 H378 H 0.62088 1.00801 -0.06971
 H379 H 0.54735 1.10577 -0.06101
 H380 H 0.58700 1.14183 -0.09380
 C381 C 1.17392 0.72420 0.32100
 C382 C 1.15590 0.70270 0.34175
 C383 C 1.17416 0.67240 0.35507
 C384 C 1.21203 0.66522 0.34882
 C385 C 1.23090 0.68812 0.32864
 C386 C 1.21185 0.71770 0.31406
 N387 N 1.15219 0.64888 0.37352
 N388 N 1.16073 0.61502 0.38102
 C389 C 1.13534 0.59366 0.39862
 C390 C 1.14355 0.55565 0.40567
 C391 C 1.11914 0.53477 0.42315
 C392 C 1.08624 0.55177 0.43399
 C393 C 1.07758 0.58950 0.42614
 C394 C 1.10174 0.61018 0.40864
 H395 H 1.15706 0.74478 0.30948
 H396 H 1.12664 0.70819 0.34620
 H397 H 1.22664 0.64172 0.35903
 H398 H 1.25969 0.68139 0.32341
 H399 H 1.16909 0.54237 0.39793
 H400 H 1.12674 0.50593 0.42901
 H401 H 1.05244 0.60339 0.43410
 H402 H 1.09434 0.63937 0.40336
 C403 C 0.27025 0.76775 -0.17374
 C404 C 0.29025 0.78335 -0.15071
 C405 C 0.30605 0.81960 -0.15302
 C406 C 0.29938 0.84119 -0.17794
 C407 C 0.27964 0.82562 -0.20096
 C408 C 0.26616 0.78791 -0.19982
 N409 N 0.33035 0.83313 -0.13074
 N410 N 0.34647 0.86529 -0.13279
 C411 C 0.37174 0.87958 -0.11155
 C412 C 0.38320 0.91755 -0.11357
 C413 C 0.40657 0.93321 -0.09271
 C414 C 0.41945 0.91087 -0.06960
 C415 C 0.40923 0.87222 -0.06822
 C416 C 0.38530 0.85671 -0.08895
 H417 H 0.26031 0.73886 -0.17164
 H418 H 0.29483 0.76644 -0.13151
 H419 H 0.31072 0.86959 -0.18017
 H420 H 0.27684 0.84279 -0.22018
 H421 H 0.37319 0.93535 -0.13102
 H422 H 0.41396 0.96306 -0.09433
 H423 H 0.41853 0.85444 -0.05053
 H424 H 0.37710 0.82713 -0.08715
 C425 C 0.78735 0.32941 0.29271
 C426 C 0.80539 0.34984 0.31419
 C427 C 0.81599 0.33200 0.33968
 C428 C 0.80595 0.29385 0.34449
 C429 C 0.78674 0.27350 0.32320
 C430 C 0.77879 0.29042 0.29637
 N431 N 0.83810 0.35321 0.35955
 N432 N 0.85660 0.33769 0.37978
 C433 C 0.87926 0.36010 0.39862
 C434 C 0.90174 0.34164 0.41893
 C435 C 0.92399 0.36282 0.43765
 C436 C 0.92385 0.40298 0.43648
 C437 C 0.90176 0.42145 0.41570
 C438 C 0.87972 0.40021 0.39688
 H439 H 0.78115 0.34446 0.27296
 H440 H 0.81256 0.37941 0.31046
 H441 H 0.81333 0.27971 0.36442
 H442 H 0.77963 0.24410 0.32740
 H443 H 0.90183 0.31077 0.42035
 H444 H 0.94063 0.34777 0.45350
 H445 H 0.90099 0.45233 0.41434
 H446 H 0.86271 0.41519 0.38125
 C447 C 1.18675 0.26151 0.17913
 C448 C 1.16239 0.28029 0.16009
 C449 C 1.16415 0.31996 0.15634
 C450 C 1.19081 0.34066 0.17180
 C451 C 1.21441 0.32220 0.19131
 C452 C 1.21288 0.28229 0.19533
 N453 N 1.13778 0.33893 0.13783
 N454 N 1.14345 0.37254 0.12835
 C455 C 1.11679 0.39275 0.11094
 C456 C 1.12934 0.42118 0.09215
 C457 C 1.10419 0.44075 0.07434
 C458 C 1.06582 0.43323 0.07591
 C459 C 1.05300 0.40585 0.09560
 C460 C 1.07835 0.38533 0.11271
 H461 H 1.18434 0.23093 0.18173
 H462 H 1.14189 0.26390 0.14837
 H463 H 1.19258 0.37135 0.16953
 H464 H 1.23365 0.33952 0.20351
 H465 H 1.15883 0.42744 0.09075
 H466 H 1.11465 0.46168 0.05925
 H467 H 1.02354 0.39931 0.09692
 H468 H 1.06799 0.36386 0.12738
 C469 C 0.74296 0.80871 0.67868
 C470 C 0.72457 0.82816 0.65682
 C471 C 0.69265 0.81309 0.64440
 C472 C 0.68063 0.77655 0.65274
 C473 C 0.69971 0.75639 0.67445
 C474 C 0.73079 0.77261 0.68825
 N475 N 0.67140 0.83752 0.62584
 N476 N 0.64022 0.82828 0.61499
 C477 C 0.61879 0.85493 0.59826
 C478 C 0.58639 0.84233 0.58475
 C479 C 0.56378 0.86791 0.56960
 C480 C 0.57294 0.90689 0.56789
 C481 C 0.60567 0.91959 0.58126
 C482 C 0.62852 0.89378 0.59628
 H483 H 0.76528 0.82370 0.68925
 H484 H 0.73384 0.85643 0.65084
 H485 H 0.65572 0.76439 0.64345
 H486 H 0.68872 0.72930 0.68159
 H487 H 0.57845 0.81263 0.58620
 H488 H 0.53873 0.85717 0.55952
 H489 H 0.61347 0.94935 0.58020
 H490 H 0.65339 0.90431 0.60672
 C491 C 1.18664 0.73394 -0.18124
 C492 C 1.16720 0.71583 -0.15885
 C493 C 1.15611 0.67769 -0.16166
 C494 C 1.16388 0.65819 -0.18738
 C495 C 1.18349 0.67596 -0.20942
 C496 C 1.19664 0.71364 -0.20635
 N497 N 1.13730 0.65900 -0.13834
 N498 N 1.12367 0.62573 -0.14143
 C499 C 1.10555 0.60565 -0.11854
 C500 C 1.08515 0.57277 -0.12501
 C501 C 1.06602 0.55324 -0.10330
 C502 C 1.06767 0.56599 -0.07461
 C503 C 1.08936 0.59822 -0.06807
 C504 C 1.10791 0.61803 -0.08984
 H505 H 1.19407 0.76363 -0.17874
 H506 H 1.16071 0.73156 -0.13933
 H507 H 1.15515 0.62894 -0.19043
 H508 H 1.18843 0.65952 -0.22883
 H509 H 1.08340 0.56278 -0.14707
 H510 H 1.04956 0.52855 -0.10898
 H511 H 1.09100 0.60897 -0.04621
 H512 H 1.12383 0.64311 -0.08429
 C513 C 0.70272 1.23711 0.32445
 C514 C 0.68655 1.22076 0.34911
 C515 C 0.68047 1.18127 0.35041
 C516 C 0.69036 1.15849 0.32672
 C517 C 0.70584 1.17465 0.30225
 C518 C 0.71322 1.21406 0.30081
 N519 N 0.66201 1.16471 0.37480
 N520 N 0.65919 1.12856 0.37677
 C521 C 0.63862 1.10957 0.39886
 C522 C 0.63672 1.06967 0.39798
 C523 C 0.61296 1.05008 0.41660
 C524 C 0.59073 1.07026 0.43649
 C525 C 0.59395 1.11025 0.43822
 C526 C 0.61769 1.12981 0.41952
 H527 H 0.70663 1.26771 0.32380
 H528 H 0.67840 1.23890 0.36702
 H529 H 0.68516 1.12808 0.32668
 H530 H 0.71112 1.15574 0.28427
 H531 H 0.65260 1.05383 0.38197
 H532 H 0.61074 1.01942 0.41451
 H533 H 0.57720 1.12654 0.45343
 H534 H 0.61868 1.16068 0.42053
 C535 C 0.78147 0.69504 0.18125
 C536 C 0.79813 0.67865 0.15720
 C537 C 0.82777 0.69635 0.14347
 C538 C 0.83971 0.73226 0.15344
 C539 C 0.82197 0.74961 0.17743
 C540 C 0.79249 0.73107 0.19182
 N541 N 0.84639 0.67473 0.12139
 N542 N 0.87654 0.68400 0.10878
 C543 C 0.89379 0.65791 0.08862
 C544 C 0.92841 0.66674 0.07641
 C545 C 0.94776 0.63965 0.05965
 C546 C 0.93282 0.60307 0.05492
 C547 C 0.89728 0.59494 0.06603
 C548 C 0.87796 0.62203 0.08265
 H549 H 0.76085 0.67801 0.19214
 H550 H 0.78916 0.65069 0.15011
 H551 H 0.86309 0.74627 0.14327
 H552 H 0.83232 0.77658 0.18538
 H553 H 0.94106 0.69412 0.08075
 H554 H 0.97510 0.64683 0.05136
 H555 H 0.88495 0.56715 0.06272
 H556 H 0.85117 0.61431 0.09166
 C557 C 0.29636 1.17807 0.69404
 C558 C 0.31404 1.15847 0.67189
 C559 C 0.33712 1.17748 0.65274
 C560 C 0.34182 1.21722 0.65547
 C561 C 0.32342 1.23739 0.67774
 C562 C 0.30055 1.21791 0.69746
 N563 N 0.35657 1.15452 0.63204
 N564 N 0.38021 1.16697 0.61400
 C565 C 0.39961 1.14074 0.59535
 C566 C 0.42738 1.15436 0.57698
 C567 C 0.44920 1.12886 0.56082
 C568 C 0.44359 1.08918 0.56282
 C569 C 0.41470 1.07562 0.58035
 C570 C 0.39289 1.10114 0.59650
 H571 H 0.27913 1.16145 0.70839
 H572 H 0.31037 1.12789 0.67000
 H573 H 0.35989 1.23241 0.64079
 H574 H 0.32757 1.26785 0.67979
 H575 H 0.43286 1.18468 0.57584
 H576 H 0.47117 1.14019 0.54732
 H577 H 0.40967 1.04530 0.58223
 H578 H 0.37145 1.08977 0.61046
 C579 C 0.77092 0.32883 -0.18119
 C580 C 0.78832 0.34677 -0.15805
 C581 C 0.81089 0.32607 -0.13911
 C582 C 0.81477 0.28637 -0.14302
 C583 C 0.79665 0.26805 -0.16606
 C584 C 0.77475 0.28916 -0.18572
 N585 N 0.83057 0.34693 -0.11728
 N586 N 0.85539 0.33260 -0.10081
 C587 C 0.87515 0.35615 -0.08052
 C588 C 0.90633 0.34132 -0.06599
 C589 C 0.92870 0.36511 -0.04893
 C590 C 0.92013 0.40426 -0.04602
 C591 C 0.88759 0.41848 -0.05929
 C592 C 0.86545 0.39480 -0.07637
 H593 H 0.75480 0.34644 -0.19579
 H594 H 0.78516 0.37737 -0.15538
 H595 H 0.83215 0.26972 -0.12863
 H596 H 0.80064 0.23760 -0.16889
 H597 H 0.91422 0.31163 -0.06885
 H598 H 0.95355 0.35323 -0.03905
 H599 H 0.88001 0.44840 -0.05748
 H600 H 0.84139 0.40708 -0.08707
 C601 C 0.27817 0.83649 0.30947
 C602 C 0.29745 0.85714 0.33016
 C603 C 0.31967 0.83846 0.35035
 C604 C 0.32154 0.79827 0.35024
 C605 C 0.30188 0.77728 0.32947
 C606 C 0.28033 0.79623 0.30852
 N607 N 0.34132 0.86143 0.36948
 N608 N 0.36307 0.84745 0.38837
 C609 C 0.38576 0.87138 0.40613
 C610 C 0.40943 0.85423 0.42622
 C611 C 0.43411 0.87629 0.44225
 C612 C 0.43564 0.91613 0.43846
 C613 C 0.41101 0.93361 0.41896
 C614 C 0.38624 0.91139 0.40284
 H615 H 0.26169 0.85251 0.29410
 H616 H 0.29575 0.88804 0.33007
 H617 H 0.33865 0.78321 0.36576
 H618 H 0.30414 0.74643 0.32947
 H619 H 0.40934 0.82353 0.42898
 H620 H 0.45259 0.86197 0.45725
 H621 H 0.41157 0.96421 0.41564
 H622 H 0.36814 0.92537 0.38741
 C623 C 1.22477 1.15647 0.29872
 C624 C 1.20682 1.13839 0.32168
 C625 C 1.17385 1.15377 0.33322
 C626 C 1.15712 1.18547 0.31987
 C627 C 1.17488 1.20340 0.29686
 C628 C 1.21024 1.19062 0.28727
 N629 N 1.15869 1.13776 0.35903
 N630 N 1.13178 1.15374 0.37254
 C631 C 1.11639 1.13802 0.39837
 C632 C 1.08321 1.15356 0.40943
 C633 C 1.06508 1.13609 0.43255
 C634 C 1.08023 1.10295 0.44515
 C635 C 1.11504 1.08915 0.43538
 C636 C 1.13288 1.10640 0.41205
 H637 H 1.25074 1.14452 0.29089
 H638 H 1.21948 1.11330 0.33129
 H639 H 1.13112 1.19734 0.32795
 H640 H 1.16211 1.22903 0.28823
 H641 H 1.07044 1.17816 0.39921
 H642 H 1.03828 1.14732 0.43955
 H643 H 1.12735 1.06357 0.44452
 H644 H 1.15881 1.09421 0.40410
 C645 C 0.69917 0.71877 -0.17916
 C646 C 0.67824 0.69894 -0.15903
 C647 C 0.65955 0.66565 -0.16694
 C648 C 0.66069 0.65355 -0.19573
 C649 C 0.68112 0.67407 -0.21625
 C650 C 0.70137 0.70669 -0.20812
 N651 N 0.64164 0.64274 -0.14556
 N652 N 0.63549 0.65580 -0.12034
 C653 C 0.61969 0.63316 -0.09794
 C654 C 0.60019 0.65138 -0.07556
 C655 C 0.58233 0.62986 -0.05440
 C656 C 0.58510 0.58988 -0.05481
 C657 C 0.60671 0.57175 -0.07621
 C658 C 0.62354 0.59325 -0.09789
 H659 H 0.71587 0.74167 -0.17095
 H660 H 0.67848 0.70854 -0.13683
 H661 H 0.64648 0.62773 -0.20211
 H662 H 0.68243 0.66330 -0.23812
 H663 H 0.59744 0.68220 -0.07528
 H664 H 0.56537 0.64426 -0.03827
 H665 H 0.60855 0.54087 -0.07722
 H666 H 0.63905 0.57877 -0.11480
 C667 C 0.78722 1.16302 0.71152
 C668 C 0.80595 1.14459 0.68896
 C669 C 0.83686 1.16152 0.67595
 C670 C 0.85149 1.19507 0.68791
 C671 C 0.83279 1.21346 0.71064
 C672 C 0.79848 1.19934 0.72086
 N673 N 0.85110 1.14532 0.64973
 N674 N 0.87752 1.16021 0.63533
 C675 C 0.89010 1.14356 0.60873
 C676 C 0.92589 1.15183 0.59851
 C677 C 0.94074 1.13175 0.57495
 C678 C 0.91952 1.10374 0.56088
 C679 C 0.88236 1.09816 0.56950
 C680 C 0.86786 1.11762 0.59342
 H681 H 0.76282 1.14962 0.72047
 H682 H 0.79519 1.11798 0.68061
 H683 H 0.87604 1.20817 0.67873
 H684 H 0.84328 1.24063 0.71812
 H685 H 0.94315 1.17208 0.60991
 H686 H 0.96955 1.13642 0.56886
 H687 H 0.86550 1.07647 0.55930
 H688 H 0.83982 1.11131 0.60063
 C689 C 0.33212 0.71502 0.21120
 C690 C 0.35226 0.69914 0.18830
 C691 C 0.33702 0.66970 0.17190
 C692 C 0.30326 0.65323 0.18064
 C693 C 0.28340 0.66861 0.20395
 C694 C 0.29614 0.70163 0.21801
 N695 N 0.35557 0.65834 0.14591
 N696 N 0.34002 0.63761 0.12694
 C697 C 0.35921 0.62663 0.10107
 C698 C 0.34367 0.59871 0.08326
 C699 C 0.36439 0.58326 0.06038
 C700 C 0.40099 0.59572 0.05505
 C701 C 0.41496 0.62642 0.07123
 C702 C 0.39434 0.64162 0.09415
 H703 H 0.34364 0.73970 0.22193
 H704 H 0.37873 0.71146 0.18215
 H705 H 0.29166 0.62939 0.16889
 H706 H 0.25718 0.65589 0.20978
 H707 H 0.31639 0.58730 0.08816
 H708 H 0.35281 0.55970 0.04829
 H709 H 0.44296 0.63683 0.06759
 H710 H 0.40663 0.66380 0.10726
 C711 C 1.20445 0.79757 0.66652
 C712 C 1.18315 0.81605 0.64577
 C713 C 1.15054 0.83548 0.65331
 C714 C 1.13976 0.83711 0.68249
 C715 C 1.16186 0.81909 0.70371
 C716 C 1.19467 0.79885 0.69600
 N717 N 1.12987 0.85317 0.63046
 N718 N 1.09655 0.86582 0.63250
 C719 C 1.07883 0.88361 0.60809
 C720 C 1.04178 0.89647 0.61020
 C721 C 1.02532 0.91703 0.58756
 C722 C 1.04590 0.92542 0.56246
 C723 C 1.08232 0.91062 0.55978
 C724 C 1.09856 0.88985 0.58224
 H725 H 1.22762 0.78067 0.65873
 H726 H 1.19157 0.81422 0.62337
 H727 H 1.11454 0.85220 0.68882
 H728 H 1.15282 0.82032 0.72598
 H729 H 1.02606 0.89175 0.62982
 H730 H 0.99734 0.92839 0.59048
 H731 H 1.09898 0.91669 0.54084
 H732 H 1.12713 0.88002 0.57979
 C733 C 0.66704 0.32467 0.21865
 C734 C 0.64293 0.34818 0.20288
 C735 C 0.64052 0.34439 0.17298
 C736 C 0.66277 0.31681 0.15891
 C737 C 0.68719 0.29363 0.17458
 C738 C 0.68965 0.29701 0.20473
 N739 N 0.61656 0.36968 0.15715
 N740 N 0.61029 0.36408 0.13053
 C741 C 0.58853 0.38947 0.11313
 C742 C 0.58350 0.37987 0.08422
 C743 C 0.56654 0.40555 0.06542
 C744 C 0.55424 0.44157 0.07522
 C745 C 0.55741 0.45051 0.10466
 C746 C 0.57463 0.42461 0.12356
 H747 H 0.66808 0.32864 0.24176
 H748 H 0.62616 0.36951 0.21398
 H749 H 0.66184 0.31362 0.13572
 H750 H 0.70448 0.27345 0.16284
 H751 H 0.59399 0.35285 0.07601
 H752 H 0.56412 0.39760 0.04293
 H753 H 0.54816 0.47804 0.11277
 H754 H 0.57825 0.43255 0.14593
 C755 C 0.81385 0.78160 0.32832
 C756 C 0.83419 0.80041 0.34949
 C757 C 0.85645 0.83147 0.34249
 C758 C 0.85907 0.84291 0.31349
 C759 C 0.83863 0.82387 0.29205
 C760 C 0.81519 0.79316 0.29920
 N761 N 0.87391 0.85192 0.36560
 N762 N 0.89486 0.88060 0.36165
 C763 C 0.91034 0.90176 0.38528
 C764 C 0.93326 0.93282 0.37924
 C765 C 0.94608 0.95626 0.40145
 C766 C 0.93622 0.94917 0.43035
 C767 C 0.91439 0.91704 0.43658
 C768 C 0.90147 0.89354 0.41422
 H769 H 0.79562 0.75913 0.33541
 H770 H 0.83160 0.79148 0.37173
 H771 H 0.87606 0.86706 0.30753
 H772 H 0.84038 0.83397 0.27006
 H773 H 0.94039 0.93951 0.35714
 H774 H 0.96292 0.98066 0.39582
 H775 H 0.90627 0.91083 0.45856
 H776 H 0.88378 0.86964 0.41949
 C777 C 0.33899 0.33092 -0.21961
 C778 C 0.36235 0.35283 -0.20222
 C779 C 0.36073 0.34953 -0.17226
 C780 C 0.33502 0.32449 -0.15973
 C781 C 0.31135 0.30303 -0.17700
 C782 C 0.31318 0.30558 -0.20723
 N783 N 0.38408 0.37300 -0.15481
 N784 N 0.38724 0.36704 -0.12791
 C785 C 0.40795 0.39149 -0.10935
 C786 C 0.40977 0.38247 -0.08008
 C787 C 0.42510 0.40817 -0.06053
 C788 C 0.43867 0.44350 -0.07004
 C789 C 0.43880 0.45160 -0.09969
 C790 C 0.42349 0.42577 -0.11926
 H791 H 0.34126 0.33408 -0.24273
 H792 H 0.38181 0.37237 -0.21210
 H793 H 0.33277 0.32191 -0.13655
 H794 H 0.29154 0.28458 -0.16646
 H795 H 0.39791 0.35609 -0.07228
 H796 H 0.42488 0.40102 -0.03783
 H797 H 0.44940 0.47849 -0.10761
 H798 H 0.42244 0.43324 -0.14187
 C799 C 1.19134 0.26826 -0.17802
 C800 C 1.16760 0.28620 -0.15807
 C801 C 1.17244 0.32463 -0.15085
 C802 C 1.20203 0.34483 -0.16327
 C803 C 1.22528 0.32721 -0.18367
 C804 C 1.22017 0.28869 -0.19154
 N805 N 1.14558 0.34317 -0.13247
 N806 N 1.15173 0.37538 -0.12069
 C807 C 1.12396 0.39451 -0.10354
 C808 C 1.13521 0.41977 -0.08188
 C809 C 1.10871 0.43753 -0.06403
 C810 C 1.07046 0.43135 -0.06835
 C811 C 1.05908 0.40740 -0.09092
 C812 C 1.08566 0.38865 -0.10816
 H813 H 1.18580 0.23891 -0.18378
 H814 H 1.14475 0.27034 -0.14875
 H815 H 1.20610 0.37471 -0.15827
 H816 H 1.24630 0.34441 -0.19408
 H817 H 1.16462 0.42476 -0.07827
 H818 H 1.11803 0.45592 -0.04673
 H819 H 1.02971 0.40203 -0.09447
 H820 H 1.07639 0.36964 -0.12506
 C821 C 0.69982 0.75389 0.32994
 C822 C 0.68147 0.76725 0.35484
 C823 C 0.68807 0.80415 0.36535
 C824 C 0.71417 0.82708 0.35111
 C825 C 0.73228 0.81393 0.32636
 C826 C 0.72549 0.77711 0.31526
 N827 N 0.66601 0.81910 0.38879
 N828 N 0.66907 0.85381 0.39668
 C829 C 0.64620 0.87153 0.41838
 C830 C 0.64758 0.91129 0.42124
 C831 C 0.62199 0.93063 0.43885
 C832 C 0.59515 0.91039 0.45444
 C833 C 0.59523 0.87030 0.45317
 C834 C 0.62045 0.85089 0.43500
 H835 H 0.69270 0.72601 0.32167
 H836 H 0.66106 0.74935 0.36533
 H837 H 0.71978 0.85579 0.35854
 H838 H 0.75107 0.83329 0.31560
 H839 H 0.66729 0.92751 0.40857
 H840 H 0.62227 0.96151 0.43957
 H841 H 0.57430 0.85425 0.46475
 H842 H 0.61891 0.82013 0.43315
 C843 C 0.77912 0.68247 -0.17801
 C844 C 0.79477 0.66743 -0.15309
 C845 C 0.82370 0.68621 -0.13914
 C846 C 0.83624 0.72130 -0.14991
 C847 C 0.81999 0.73693 -0.17477
 C848 C 0.79094 0.71779 -0.18912
 N849 N 0.84174 0.66662 -0.11600
 N850 N 0.87089 0.67827 -0.10323
 C851 C 0.88870 0.65452 -0.08208
 C852 C 0.92356 0.66479 -0.07098
 C853 C 0.94424 0.63878 -0.05437
 C854 C 0.93029 0.60207 -0.04893
 C855 C 0.89428 0.59295 -0.05839
 C856 C 0.87364 0.61889 -0.07467
 H857 H 0.75851 0.66545 -0.18897
 H858 H 0.78547 0.63994 -0.14533
 H859 H 0.85917 0.73596 -0.13969
 H860 H 0.83117 0.76321 -0.18327
 H861 H 0.93554 0.69211 -0.07648
 H862 H 0.97199 0.64648 -0.04735
 H863 H 0.88265 0.56503 -0.05422
 H864 H 0.84662 0.61025 -0.08265
 C865 C 0.31997 1.17010 0.29435
 C866 C 0.33908 1.15051 0.31586
 C867 C 0.34377 1.16663 0.34306
 C868 C 0.33002 1.20377 0.34831
 C869 C 0.31086 1.22380 0.32646
 C870 C 0.30412 1.20654 0.29947
 N871 N 0.36330 1.14422 0.36412
 N872 N 0.36864 1.15370 0.39030
 C873 C 0.38917 1.12856 0.40917
 C874 C 0.39703 1.13977 0.43756
 C875 C 0.41937 1.11661 0.45539
 C876 C 0.43432 1.08188 0.44498
 C877 C 0.42501 1.07006 0.41697
 C878 C 0.40274 1.09300 0.39932
 H879 H 0.31732 1.15594 0.27373
 H880 H 0.35020 1.12226 0.31131
 H881 H 0.33422 1.21726 0.36905
 H882 H 0.30136 1.25263 0.33078
 H883 H 0.38671 1.16693 0.44560
 H884 H 0.42619 1.12659 0.47684
 H885 H 0.43587 1.04341 0.40832
 H886 H 0.39694 1.08323 0.37765
 C887 C 1.19502 0.73042 0.17563
 C888 C 1.17736 0.70996 0.15357
 C889 C 1.16479 0.67272 0.15841
 C890 C 1.16938 0.65645 0.18571
 C891 C 1.18718 0.67654 0.20748
 C892 C 1.20169 0.71331 0.20256
 N893 N 1.14705 0.65192 0.13569
 N894 N 1.13186 0.61977 0.14043
 C895 C 1.11395 0.59809 0.11836
 C896 C 1.09029 0.56826 0.12633
 C897 C 1.06977 0.54872 0.10546
 C898 C 1.07333 0.55830 0.07623
 C899 C 1.09889 0.58668 0.06818
 C900 C 1.11878 0.60668 0.08909
 H901 H 1.20334 0.75950 0.17153
 H902 H 1.17319 0.72325 0.13277
 H903 H 1.15944 0.62798 0.19025
 H904 H 1.18993 0.66256 0.22813
 H905 H 1.08663 0.56120 0.14886
 H906 H 1.05035 0.52694 0.11222
 H907 H 1.10210 0.59483 0.04581
 H908 H 1.13730 0.62930 0.08245
 C909 C 0.70271 1.23978 0.67271
 C910 C 0.68842 1.22258 0.64771
 C911 C 0.67991 1.18357 0.64739
 C912 C 0.68473 1.16236 0.67275
 C913 C 0.69862 1.17948 0.69758
 C914 C 0.70948 1.21806 0.69773
 N915 N 0.66480 1.16613 0.62189
 N916 N 0.65986 1.13015 0.62086
 C917 C 0.64276 1.11031 0.59735
 C918 C 0.63549 1.07142 0.60086
 C919 C 0.61361 1.05190 0.58095
 C920 C 0.59914 1.07077 0.55674
 C921 C 0.60875 1.10912 0.55195
 C922 C 0.63022 1.12896 0.57231
 H923 H 0.70867 1.27002 0.67235
 H924 H 0.68394 1.23968 0.62860
 H925 H 0.67726 1.13250 0.67358
 H926 H 0.70057 1.16205 0.71671
 H927 H 0.64501 1.05673 0.62002
 H928 H 0.60636 1.02249 0.58524
 H929 H 0.59739 1.12445 0.53368
 H930 H 0.63557 1.15904 0.56915
 C931 C 0.80458 0.25229 0.16606
 C932 C 0.82382 0.26682 0.14230
 C933 C 0.81878 0.30481 0.13391
 C934 C 0.79343 0.32803 0.14928
 C935 C 0.77445 0.31367 0.17324
 C936 C 0.77975 0.27555 0.18207
 N937 N 0.84201 0.32001 0.11153
 N938 N 0.83696 0.35351 0.10164
 C939 C 0.86176 0.37064 0.08120
 C940 C 0.85343 0.40740 0.07133
 C941 C 0.87943 0.42760 0.05506
 C942 C 0.91449 0.41139 0.04843
 C943 C 0.92195 0.37351 0.05675
 C944 C 0.89578 0.35325 0.07309
 H945 H 0.81051 0.22321 0.17245
 H946 H 0.84362 0.24872 0.13090
 H947 H 0.78936 0.35770 0.14349
 H948 H 0.75644 0.33288 0.18532
 H949 H 0.82734 0.42110 0.07739
 H950 H 0.87273 0.45666 0.04884
 H951 H 0.94872 0.36030 0.05201
 H952 H 0.90287 0.32482 0.08050
 C953 C 0.30577 0.75969 0.66656
 C954 C 0.32436 0.77639 0.64313
 C955 C 0.32485 0.81618 0.63989
 C956 C 0.30656 0.83908 0.66049
 C957 C 0.28809 0.82256 0.68375
 C958 C 0.28706 0.78256 0.68709
 N959 N 0.34500 0.83299 0.61633
 N960 N 0.34732 0.86913 0.61393
 C961 C 0.36834 0.88793 0.59188
 C962 C 0.37530 0.92694 0.59518
 C963 C 0.39982 0.94556 0.57661
 C964 C 0.41709 0.92568 0.55384
 C965 C 0.40805 0.88715 0.54918
 C966 C 0.38409 0.86820 0.56830
 H967 H 0.30614 0.72896 0.66852
 H968 H 0.33863 0.75829 0.62760
 H969 H 0.30651 0.86989 0.65870
 H970 H 0.27404 0.84148 0.69881
 H971 H 0.36327 0.94247 0.61321
 H972 H 0.40662 0.97511 0.58080
 H973 H 0.42150 0.87107 0.53203
 H974 H 0.37893 0.83805 0.56526
 C975 C 0.26560 1.19262 -0.17245
 C976 C 0.28064 1.16999 -0.15044
 C977 C 0.31924 1.16897 -0.14586
 C978 C 0.34252 1.19219 -0.16249
 C979 C 0.32772 1.21453 -0.18433
 C980 C 0.28914 1.21464 -0.19001
 N981 N 0.33478 1.14308 -0.12528
 N982 N 0.36997 1.13846 -0.12371
 C983 C 0.38745 1.11307 -0.10386
 C984 C 0.42644 1.11120 -0.10334
 C985 C 0.44471 1.08791 -0.08348
 C986 C 0.42403 1.06611 -0.06386
 C987 C 0.38482 1.06717 -0.06498
 C988 C 0.36660 1.09058 -0.08484
 H989 H 0.23587 1.19171 -0.17633
 H990 H 0.26240 1.15226 -0.13764
 H991 H 0.37242 1.19233 -0.15919
 H992 H 0.34695 1.23103 -0.19720
 H993 H 0.44266 1.12838 -0.11808
 H994 H 0.47495 1.08755 -0.08308
 H995 H 0.36824 1.05055 -0.05012
 H996 H 0.33639 1.09148 -0.08507
 C997 C 0.76741 0.67708 0.31937
 C998 C 0.78310 0.65192 0.33950
 C999 C 0.82191 0.64913 0.34246
 C1000 C 0.84492 0.67182 0.32518
 C1001 C 0.82944 0.69689 0.30534
 C1002 C 0.79044 0.70021 0.30225
 N1003 N 0.83774 0.62395 0.36345
 N1004 N 0.87297 0.61973 0.36518
 C1005 C 0.89075 0.59659 0.38644
 C1006 C 0.92976 0.59557 0.38717
 C1007 C 0.94835 0.57627 0.40918
 C1008 C 0.92800 0.55765 0.43080
 C1009 C 0.88879 0.55743 0.42939
 C1010 C 0.87024 0.57688 0.40737
 H1011 H 0.73742 0.67806 0.31711
 H1012 H 0.76505 0.63448 0.35269
 H1013 H 0.87500 0.67045 0.32710
 H1014 H 0.84838 0.71398 0.29267
 H1015 H 0.94575 0.61072 0.37106
 H1016 H 0.97857 0.57675 0.40969
 H1017 H 0.87246 0.54311 0.44572
 H1018 H 0.84003 0.57728 0.40712
 C1019 C 0.73285 1.18055 0.16892
 C1020 C 0.71562 1.15864 0.14756
 C1021 C 0.67676 1.15937 0.14453
 C1022 C 0.65528 1.18302 0.16264
 C1023 C 0.67234 1.20484 0.18386
 C1024 C 0.71139 1.20393 0.18742
 N1025 N 0.65949 1.13529 0.12356
 N1026 N 0.62413 1.13328 0.12160
 C1027 C 0.60597 1.10951 0.10094
 C1028 C 0.56694 1.10996 0.09973
 C1029 C 0.54826 1.08807 0.07920
 C1030 C 0.56854 1.06536 0.05956
 C1031 C 0.60772 1.06429 0.06127
 C1032 C 0.62632 1.08623 0.08177
 H1033 H 0.76276 1.17821 0.17139
 H1034 H 0.73249 1.14038 0.13377
 H1035 H 0.62518 1.18424 0.16072
 H1036 H 0.65461 1.22210 0.19772
 H1037 H 0.55100 1.12774 0.11450
 H1038 H 0.51806 1.08942 0.07837
 H1039 H 0.62404 1.04694 0.04646
 H1040 H 0.65651 1.08528 0.08243
 C1041 C 1.23940 0.68069 0.66779
 C1042 C 1.22371 0.65819 0.64593
 C1043 C 1.18597 0.66261 0.63864
 C1044 C 1.16455 0.69083 0.65248
 C1045 C 1.17993 0.71295 0.67409
 C1046 C 1.21757 0.70833 0.68231
 N1047 N 1.16899 0.63732 0.61833
 N1048 N 1.13366 0.63743 0.61533
 C1049 C 1.11445 0.61345 0.59548
 C1050 C 1.07546 0.61590 0.59427
 C1051 C 1.05564 0.59412 0.57435
 C1052 C 1.07475 0.56969 0.55527
 C1053 C 1.11388 0.56660 0.55705
 C1054 C 1.13362 0.58833 0.57700
 H1055 H 1.26797 0.67518 0.67411
 H1056 H 1.24054 0.63635 0.63548
 H1057 H 1.13537 0.69506 0.64728
 H1058 H 1.16140 0.73272 0.68508
 H1059 H 1.06046 0.63515 0.60857
 H1060 H 1.02556 0.59691 0.57354
 H1061 H 1.12934 0.54779 0.54270
 H1062 H 1.16375 0.58591 0.57770
 C1063 C 0.75115 0.81177 -0.17760
 C1064 C 0.73411 0.83230 -0.15503
 C1065 C 0.69570 0.84018 -0.15566
 C1066 C 0.67493 0.82911 -0.17976
 C1067 C 0.69167 0.80874 -0.20203
 C1068 C 0.72981 0.79853 -0.20094
 N1069 N 0.67753 0.85761 -0.13134
 N1070 N 0.64205 0.85988 -0.13051
 C1071 C 0.62132 0.87587 -0.10703
 C1072 C 0.58236 0.87401 -0.10797
 C1073 C 0.56081 0.88821 -0.08521
 C1074 C 0.57805 0.90473 -0.06115
 C1075 C 0.61724 0.90704 -0.06040
 C1076 C 0.63880 0.89257 -0.08317
 H1077 H 0.78064 0.80550 -0.17634
 H1078 H 0.75060 0.84106 -0.13669
 H1079 H 0.64532 0.83526 -0.18112
 H1080 H 0.67385 0.79986 -0.21953
 H1081 H 0.56869 0.86118 -0.12634
 H1082 H 0.53070 0.88626 -0.08644
 H1083 H 0.63123 0.91982 -0.04215
 H1084 H 0.66891 0.89432 -0.08209
 C1085 C 1.22554 0.25672 0.33202
 C1086 C 1.20416 0.27102 0.35492
 C1087 C 1.19166 0.30890 0.35474
 C1088 C 1.20254 0.33300 0.33219
 C1089 C 1.22300 0.31851 0.30897
 C1090 C 1.23328 0.27958 0.30781
 N1091 N 1.16663 0.32205 0.37677
 N1092 N 1.16146 0.35756 0.38107
 C1093 C 1.13547 0.37186 0.40185
 C1094 C 1.14406 0.40551 0.41639
 C1095 C 1.11963 0.42029 0.43699
 C1096 C 1.08523 0.40274 0.44241
 C1097 C 1.07594 0.36946 0.42718
 C1098 C 1.10131 0.35368 0.40726
 H1099 H 1.23422 0.22715 0.33280
 H1100 H 1.19660 0.25230 0.37250
 H1101 H 1.19361 0.36261 0.33175
 H1102 H 1.22904 0.33769 0.29137
 H1103 H 1.17025 0.41975 0.41226
 H1104 H 1.12778 0.44548 0.44883
 H1105 H 1.04970 0.35527 0.43120
 H1106 H 1.09415 0.32780 0.39582
 C1107 C 0.27900 0.76440 0.17158
 C1108 C 0.30022 0.77825 0.14863
 C1109 C 0.31115 0.81642 0.14806
 C1110 C 0.29930 0.84108 0.17020
 C1111 C 0.27899 0.82700 0.19358
 C1112 C 0.26966 0.78801 0.19522
 N1113 N 0.33555 0.82915 0.12561
 N1114 N 0.33816 0.86432 0.11922
 C1115 C 0.36359 0.87749 0.09771
 C1116 C 0.35293 0.90822 0.08040
 C1117 C 0.37683 0.92150 0.05898
 C1118 C 0.41269 0.90553 0.05542
 C1119 C 0.42388 0.87525 0.07332
 C1120 C 0.39918 0.86085 0.09407
 H1121 H 0.27136 0.73469 0.17115
 H1122 H 0.30868 0.75901 0.13146
 H1123 H 0.30724 0.87084 0.17012
 H1124 H 0.27205 0.84662 0.21087
 H1125 H 0.32562 0.92129 0.08307
 H1126 H 0.36728 0.94446 0.04520
 H1127 H 0.45127 0.86231 0.07088
 H1128 H 0.40797 0.83727 0.10756
 C1129 C 0.78699 0.26746 0.67448
 C1130 C 0.80875 0.28221 0.65216
 C1131 C 0.82160 0.31971 0.65343
 C1132 C 0.81174 0.34271 0.67710
 C1133 C 0.79088 0.32763 0.69985
 C1134 C 0.77890 0.28936 0.69929
 N1135 N 0.84560 0.33338 0.63102
 N1136 N 0.84932 0.36886 0.62607
 C1137 C 0.87413 0.38254 0.60426
 C1138 C 0.86410 0.41519 0.58876
 C1139 C 0.88699 0.42841 0.56661
 C1140 C 0.92123 0.41026 0.56048
 C1141 C 0.93203 0.37826 0.57675
 C1142 C 0.90828 0.36405 0.59821
 H1143 H 0.77813 0.23815 0.67272
 H1144 H 0.81592 0.26420 0.63393
 H1145 H 0.82134 0.37188 0.67852
 H1146 H 0.78516 0.34590 0.71820
 H1147 H 0.83791 0.42971 0.59328
 H1148 H 0.87789 0.45284 0.55417
 H1149 H 0.95821 0.36367 0.57231
 H1150 H 0.91663 0.33895 0.61024
 C1151 C 1.21770 1.21045 0.67978
 C1152 C 1.19881 1.18923 0.65948
 C1153 C 1.17350 1.16178 0.66798
 C1154 C 1.16683 1.15566 0.69753
 C1155 C 1.18600 1.17732 0.71829
 C1156 C 1.21186 1.20513 0.70962
 N1157 N 1.15536 1.14118 0.64557
 N1158 N 1.13189 1.11485 0.64974
 C1159 C 1.11488 1.09627 0.62568
 C1160 C 1.08742 1.06917 0.63077
 C1161 C 1.06901 1.05212 0.60776
 C1162 C 1.07781 1.06186 0.57907
 C1163 C 1.10620 1.08825 0.57388
 C1164 C 1.12456 1.10546 0.59702
 H1165 H 1.23739 1.23080 0.67151
 H1166 H 1.20414 1.19409 0.63679
 H1167 H 1.14709 1.13433 0.70448
 H1168 H 1.18081 1.17215 0.74093
 H1169 H 1.07985 1.06172 0.65265
 H1170 H 1.04755 1.03146 0.61251
 H1171 H 1.11357 1.09619 0.55206
 H1172 H 1.14593 1.12628 0.59249
 C1173 C 0.70193 0.73307 0.17955
 C1174 C 0.68172 0.71548 0.15795
 C1175 C 0.66469 0.68069 0.16287
 C1176 C 0.66625 0.66432 0.19047
 C1177 C 0.68502 0.68329 0.21294
 C1178 C 0.70356 0.71804 0.20772
 N1179 N 0.64657 0.66309 0.13898
 N1180 N 0.64890 0.62762 0.13323
 C1181 C 0.63107 0.61260 0.10800
 C1182 C 0.63748 0.57457 0.09976
 C1183 C 0.61866 0.55903 0.07607
 C1184 C 0.59282 0.58132 0.06060
 C1185 C 0.58791 0.61991 0.06799
 C1186 C 0.60702 0.63550 0.09130
 H1187 H 0.71842 0.75685 0.17287
 H1188 H 0.68133 0.72789 0.13658
 H1189 H 0.65299 0.63721 0.19459
 H1190 H 0.68633 0.66999 0.23394
 H1191 H 0.65617 0.55668 0.11222
 H1192 H 0.62215 0.52892 0.07123
 H1193 H 0.56770 0.63746 0.05667
 H1194 H 0.60174 0.66508 0.09694
 C1195 C 1.19681 0.80763 0.32498
 C1196 C 1.17586 0.82980 0.34373
 C1197 C 1.14802 0.85385 0.33345
 C1198 C 1.14114 0.85582 0.30365
 C1199 C 1.16237 0.83308 0.28447
 C1200 C 1.19052 0.80846 0.29500
 N1201 N 1.12788 0.87535 0.35456
 N1202 N 1.10277 0.90026 0.34958
 C1203 C 1.08582 0.91974 0.37356
 C1204 C 1.06300 0.95170 0.36889
 C1205 C 1.04918 0.97284 0.39230
 C1206 C 1.05789 0.96210 0.42078
 C1207 C 1.07963 0.92922 0.42536
 C1208 C 1.09344 0.90828 0.40206
 H1209 H 1.21746 0.78906 0.33458
 H1210 H 1.18127 0.82809 0.36665
 H1211 H 1.11952 0.87453 0.29535
 H1212 H 1.15668 0.83465 0.26161
 H1213 H 1.05681 0.96085 0.34713
 H1214 H 1.03237 0.99804 0.38807
 H1215 H 1.08657 0.92000 0.44697
 H1216 H 1.11069 0.88344 0.40642
 C1217 C 0.66246 0.33390 -0.22261
 C1218 C 0.63798 0.35729 -0.20662
 C1219 C 0.63675 0.35473 -0.17651
 C1220 C 0.66092 0.32912 -0.16254
 C1221 C 0.68559 0.30634 -0.17833
 C1222 C 0.68655 0.30786 -0.20865
 N1223 N 0.61180 0.37879 -0.16020
 N1224 N 0.60560 0.37183 -0.13370
 C1225 C 0.58335 0.39562 -0.11519
 C1226 C 0.57805 0.38385 -0.08672
 C1227 C 0.56101 0.40811 -0.06666
 C1228 C 0.54898 0.44484 -0.07474
 C1229 C 0.55242 0.45590 -0.10378
 C1230 C 0.56960 0.43146 -0.12390
 H1231 H 0.66242 0.33629 -0.24585
 H1232 H 0.61975 0.37718 -0.21771
 H1233 H 0.66107 0.32689 -0.13928
 H1234 H 0.70368 0.28722 -0.16648
 H1235 H 0.58852 0.35626 -0.07979
 H1236 H 0.55855 0.39860 -0.04455
 H1237 H 0.54335 0.48402 -0.11064
 H1238 H 0.57344 0.44113 -0.14584
 C1239 C 0.79303 1.15716 0.28550
 C1240 C 0.81031 1.13766 0.30807
 C1241 C 0.83705 1.15578 0.32497
 C1242 C 0.84957 1.19216 0.31693
 C1243 C 0.83263 1.21147 0.29394
 C1244 C 0.80166 1.19556 0.27986
 N1245 N 0.84920 1.13744 0.35090
 N1246 N 0.86907 1.15413 0.36972
 C1247 C 0.87980 1.13548 0.39593
 C1248 C 0.90629 1.15264 0.41375
 C1249 C 0.91947 1.13367 0.43824
 C1250 C 0.90596 1.09732 0.44545
 C1251 C 0.87766 1.08121 0.42854
 C1252 C 0.86481 1.10003 0.40390
 H1253 H 0.77166 1.14254 0.27351
 H1254 H 0.80138 1.10905 0.31336
 H1255 H 0.87125 1.20625 0.32907
 H1256 H 0.84179 1.24005 0.28886
 H1257 H 0.91780 1.18010 0.40803
 H1258 H 0.94142 1.14666 0.45081
 H1259 H 0.86697 1.05311 0.43342
 H1260 H 0.84390 1.08640 0.39069
 C1261 C 0.27648 0.66014 -0.20767
 C1262 C 0.29236 0.64058 -0.18444
 C1263 C 0.32206 0.65632 -0.16911
 C1264 C 0.33768 0.69069 -0.17881
 C1265 C 0.32207 0.71008 -0.20235
 C1266 C 0.28970 0.69626 -0.21593
 N1267 N 0.33516 0.63720 -0.14366
 N1268 N 0.35880 0.65203 -0.12660
 C1269 C 0.37196 0.63282 -0.10118
 C1270 C 0.40063 0.64939 -0.08514
 C1271 C 0.41665 0.62987 -0.06191
 C1272 C 0.40401 0.59339 -0.05409
 C1273 C 0.37364 0.57779 -0.06909
 C1274 C 0.35784 0.59725 -0.09253
 H1275 H 0.25309 0.64732 -0.21850
 H1276 H 0.28063 0.61361 -0.17774
 H1277 H 0.36125 0.70307 -0.16776
 H1278 H 0.33385 0.73722 -0.20856
 H1279 H 0.41162 0.67687 -0.09139
 H1280 H 0.44009 0.64258 -0.05089
 H1281 H 0.36355 0.54959 -0.06381
 H1282 H 0.33545 0.58394 -0.10441
 C1283 C 0.82224 0.76932 0.67763
 C1284 C 0.84139 0.79053 0.65725
 C1285 C 0.85759 0.82495 0.66496
 C1286 C 0.85769 0.83638 0.69401
 C1287 C 0.83962 0.81430 0.71482
 C1288 C 0.82033 0.78110 0.70673
 N1289 N 0.87003 0.84936 0.64243
 N1290 N 0.87320 0.88510 0.64615
 C1291 C 0.88416 0.90974 0.62324
 C1292 C 0.88855 0.94849 0.62920
 C1293 C 0.90157 0.97295 0.60792
 C1294 C 0.91026 0.95893 0.58030
 C1295 C 0.90377 0.92049 0.57372
 C1296 C 0.89086 0.89589 0.59516
 H1297 H 0.80607 0.74598 0.66948
 H1298 H 0.84074 0.78182 0.63484
 H1299 H 0.87042 0.86301 0.70038
 H1300 H 0.83863 0.82473 0.73679
 H1301 H 0.88299 0.95948 0.65063
 H1302 H 0.90637 1.00261 0.61337
 H1303 H 0.91072 0.90908 0.55264
 H1304 H 0.88718 0.86599 0.59003
 C1305 C 0.29637 0.29847 0.17542
 C1306 C 0.31681 0.31922 0.15563
 C1307 C 0.34655 0.34144 0.16454
 C1308 C 0.35558 0.34324 0.19401
 C1309 C 0.33487 0.32212 0.21418
 C1310 C 0.30498 0.29918 0.20508
 N1311 N 0.36642 0.36154 0.14268
 N1312 N 0.39356 0.38382 0.14728
 C1313 C 0.41068 0.40326 0.12357
 C1314 C 0.43460 0.43370 0.12905
 C1315 C 0.44760 0.45619 0.10636
 C1316 C 0.43713 0.44825 0.07775
 C1317 C 0.41513 0.41621 0.07210
 C1318 C 0.40184 0.39399 0.09482
 H1319 H 0.27464 0.28061 0.16687
 H1320 H 0.30970 0.31758 0.13299
 H1321 H 0.37863 0.36050 0.20132
 H1322 H 0.34259 0.32332 0.23670
 H1323 H 0.44185 0.44103 0.15101
 H1324 H 0.46497 0.48050 0.11127
 H1325 H 0.40680 0.40937 0.05028
 H1326 H 0.38373 0.37026 0.08994
   
