data_POSCAR
  _audit_creation_date              2014-09-24
  _audit_creation_method            'ToBaCCo'
  _symmetry_space_group_name_H-M    'P1'
  _symmetry_Int_Tables_number       1
  _symmetry_cell_setting            triclinic
  loop_
  _symmetry_equiv_pos_as_xyz
 x,y,z
_cell_length_a 44.7515
_cell_length_b 44.9957
_cell_length_c 45.0028
_cell_angle_alpha 90.090200
_cell_angle_beta 89.979500
_cell_angle_gamma 90.004600
loop_
  _atom_site_label
  _atom_site_type_symbol
  _atom_site_fract_x
  _atom_site_fract_y
  _atom_site_fract_z
C1 C 0.25457 0.98498 -0.01742
 C2 C 0.25273 0.98455 0.01401
 C3 C 0.25070 1.01141 0.02959
 C4 C 0.24986 1.03925 0.01531
 C5 C 0.25129 1.03995 -0.01634
 C6 C 0.25301 1.01273 -0.03192
 H7 H 0.25621 1.01339 -0.05578
 H8 H 0.24731 1.01026 0.05342
 C9 C 0.73603 0.46788 0.47383
 C10 C 0.74030 0.46976 0.50490
 C11 C 0.73980 0.49784 0.51865
 C12 C 0.73519 0.52430 0.50253
 C13 C 0.73054 0.52227 0.47139
 C14 C 0.73140 0.49412 0.45765
 H15 H 0.72802 0.49256 0.43383
 H16 H 0.74289 0.49904 0.54251
 C17 C 0.75859 1.01067 0.96377
 C18 C 0.75641 0.97941 0.96206
 C19 C 0.75262 0.96296 0.98827
 C20 C 0.75090 0.97647 1.01662
 C21 C 0.75371 1.00802 1.01815
 C22 C 0.75721 1.02442 0.99178
 H23 H 0.75984 1.04834 0.99318
 H24 H 0.74908 0.93925 0.98601
 C25 C 0.26164 0.49501 0.47204
 C26 C 0.25750 0.52613 0.47180
 C27 C 0.25644 0.54168 0.49886
 C28 C 0.25841 0.52672 0.52611
 C29 C 0.26260 0.49565 0.52634
 C30 C 0.26419 0.48019 0.49934
 H31 H 0.26755 0.45632 0.49960
 H32 H 0.25277 0.56551 0.49873
 C33 C 0.96497 0.22727 -0.01672
 C34 C 0.96492 0.22870 0.01471
 C35 C 0.99202 0.22756 0.03029
 C36 C 1.02009 0.22560 0.01590
 C37 C 1.01996 0.22296 -0.01566
 C38 C 0.99272 0.22403 -0.03114
 H39 H 0.99334 0.22174 -0.05514
 H40 H 0.99079 0.22800 0.05433
 C41 C 0.47493 0.74790 0.48634
 C42 C 0.47421 0.74168 0.51704
 C43 C 0.50118 0.73763 0.53245
 C44 C 0.52901 0.74011 0.51824
 C45 C 0.52969 0.74673 0.48756
 C46 C 0.50269 0.75058 0.47220
 H47 H 0.50333 0.75620 0.44878
 H48 H 0.50039 0.73222 0.55591
 C49 C -0.01420 0.73838 0.02890
 C50 C 0.01735 0.74059 0.02809
 C51 C 0.03210 0.73871 0.00065
 C52 C 0.01690 0.73349 -0.02641
 C53 C -0.01455 0.72901 -0.02518
 C54 C -0.02936 0.73191 0.00223
 H55 H -0.05357 0.73079 0.00226
 H56 H 0.05632 0.73915 0.00081
 C57 C 0.50549 0.23155 0.47371
 C58 C 0.47397 0.23417 0.47357
 C59 C 0.45871 0.23940 0.50030
 C60 C 0.47354 0.24099 0.52780
 C61 C 0.50496 0.23693 0.52828
 C62 C 0.52024 0.23231 0.50131
 H63 H 0.54419 0.22872 0.50192
 H64 H 0.43469 0.24249 0.49945
 C65 C 0.97493 -0.02457 0.27533
 C66 C 0.97099 0.00640 0.27050
 C67 C 0.99654 0.02437 0.26694
 C68 C 1.02563 0.01253 0.26667
 C69 C 1.02962 -0.01848 0.27027
 C70 C 1.00419 -0.03619 0.27503
 H71 H 1.00729 -0.05990 0.27806
 H72 H 0.99378 0.04812 0.26396
 C73 C 0.47784 0.49119 0.77432
 C74 C 0.47965 0.52269 0.77429
 C75 C 0.50748 0.53653 0.77010
 C76 C 0.53382 0.52002 0.76648
 C77 C 0.53241 0.48869 0.76837
 C78 C 0.50450 0.47483 0.77208
 H79 H 0.50348 0.45080 0.77349
 H80 H 0.50852 0.56059 0.76907
 C81 C 1.02064 0.97932 0.76185
 C82 C 0.98922 0.97922 0.76094
 C83 C 0.97397 1.00631 0.76360
 C84 C 0.98905 1.03356 0.76888
 C85 C 1.02061 1.03255 0.77336
 C86 C 1.03576 1.00556 0.76893
 H87 H 1.05997 1.00515 0.77017
 H88 H 0.94976 1.00584 0.76309
 C89 C 0.51487 0.46846 0.25026
 C90 C 0.48358 0.47035 0.25456
 C91 C 0.47014 0.49851 0.25653
 C92 C 0.48674 0.52478 0.25391
 C93 C 0.51798 0.52294 0.24966
 C94 C 0.53153 0.49483 0.24801
 H95 H 0.55539 0.49347 0.24402
 H96 H 0.44628 0.50006 0.26046
 O97 O 0.24216 0.17826 0.21699
 O98 O 0.27450 0.17197 0.25694
 O99 O 0.16397 0.21420 0.26312
 O100 O 0.15461 0.25714 0.29093
 O101 O 0.19290 0.25073 0.17907
 O102 O 0.23145 0.28457 0.16600
 O103 O 0.24202 0.30151 0.32795
 O104 O 0.21448 0.25896 0.34261
 O105 O 0.31948 0.26435 0.28791
 O106 O 0.32663 0.22758 0.24732
 O107 O 0.27730 0.33526 0.24665
 O108 O 0.23387 0.34295 0.21827
 O109 O 0.23959 0.33589 0.29103
 O110 O 0.20163 0.34005 0.24918
 O111 O 0.31465 0.30104 0.24680
 O112 O 0.32257 0.25711 0.21392
 O113 O 0.28657 0.26436 0.32643
 O114 O 0.24560 0.22765 0.33961
 O115 O 0.23757 0.21127 0.17903
 O116 O 0.26694 0.25423 0.16617
 O117 O 0.15965 0.25346 0.21719
 O118 O 0.15302 0.28815 0.25789
 O119 O 0.20047 0.17904 0.26074
 O120 O 0.24450 0.17462 0.29192
 Zr121 Zr 0.24006 0.20408 0.25562
 O122 O 0.26945 0.23182 0.27945
 Zr123 Zr 0.18607 0.25460 0.25596
 O124 O 0.21251 0.28413 0.28082
 Zr125 Zr 0.23465 0.25284 0.20046
 O126 O 0.26290 0.28329 0.22237
 Zr127 Zr 0.24420 0.26061 0.30608
 O128 O 0.21478 0.23088 0.28446
 Zr129 Zr 0.29245 0.26003 0.25011
 O130 O 0.26617 0.22931 0.22592
 Zr131 Zr 0.23810 0.31018 0.25166
 O132 O 0.20925 0.28252 0.22649
 O133 O 0.20958 0.22582 0.22838
 O134 O 0.26910 0.28844 0.27854
 C135 C 0.24155 0.18492 0.18930
 C136 C 0.17320 0.18725 0.26453
 C137 C 0.16617 0.25225 0.18937
 C138 C 0.23991 0.32828 0.31856
 C139 C 0.31313 0.26560 0.31563
 C140 C 0.30495 0.32783 0.24538
 H141 H 0.28330 0.21954 0.29133
 H142 H 0.27360 0.29527 0.20738
 H143 H 0.19661 0.21180 0.21734
 H144 H 0.19911 0.29626 0.29340
 H145 H 0.19669 0.27085 0.33729
 H146 H 0.16330 0.24606 0.30784
 H147 H 0.31751 0.27303 0.19966
 H148 H 0.28370 0.24143 0.17264
 H149 H 0.26372 0.21545 0.33646
 H150 H 0.23049 0.18159 0.30746
 H151 H 0.24414 0.33535 0.20035
 H152 H 0.21756 0.30016 0.17311
 H153 H 0.29100 0.17994 0.24467
 H154 H 0.32529 0.21481 0.26514
 H155 H 0.15775 0.30254 0.24196
 H156 H 0.18988 0.33807 0.26769
 O157 O 0.74001 0.81894 0.19246
 O158 O 0.70353 0.83002 0.23056
 O159 O 0.81840 0.80193 0.24436
 O160 O 0.83410 0.76969 0.27823
 O161 O 0.79116 0.73792 0.17407
 O162 O 0.75215 0.70430 0.16835
 O163 O 0.75069 0.72585 0.33111
 O164 O 0.77738 0.77235 0.33103
 O165 O 0.66970 0.74523 0.28641
 O166 O 0.65704 0.77189 0.24066
 O167 O 0.71548 0.67193 0.26305
 O168 O 0.76076 0.66187 0.23152
 O169 O 0.75219 0.68416 0.30247
 O170 O 0.79051 0.67170 0.26390
 O171 O 0.67580 0.70166 0.25261
 O172 O 0.66379 0.73765 0.21208
 O173 O 0.70340 0.75507 0.32292
 O174 O 0.73221 0.79704 0.32653
 O175 O 0.74807 0.77777 0.16424
 O176 O 0.71659 0.73321 0.16341
 O177 O 0.82578 0.75189 0.20833
 O178 O 0.83496 0.72838 0.25679
 O179 O 0.77882 0.83178 0.23368
 O180 O 0.73406 0.84117 0.26325
 Zr181 Zr 0.74185 0.80321 0.23652
 O182 O 0.71618 0.77990 0.26814
 Zr183 Zr 0.80020 0.75884 0.24740
 O184 O 0.77706 0.73380 0.27963
 Zr185 Zr 0.75002 0.74279 0.19523
 O186 O 0.72504 0.71656 0.22475
 Zr187 Zr 0.74410 0.76009 0.29994
 O188 O 0.76982 0.78658 0.27045
 Zr189 Zr 0.69463 0.74407 0.24714
 O190 O 0.71726 0.76975 0.21492
 Zr191 Zr 0.75293 0.69975 0.25839
 O192 O 0.77867 0.72282 0.22647
 O193 O 0.77371 0.77751 0.21460
 O194 O 0.72105 0.72511 0.28020
 C195 C 0.74387 0.80589 0.16731
 C196 C 0.80667 0.82742 0.23874
 C197 C 0.81817 0.74211 0.18250
 C198 C 0.75192 0.69752 0.32772
 C199 C 0.67696 0.74865 0.31377
 C200 C 0.68738 0.67650 0.25957
 H201 H 0.70187 0.79350 0.27793
 H202 H 0.71499 0.70057 0.21347
 H203 H 0.78612 0.78877 0.20029
 H204 H 0.79146 0.72612 0.29440
 H205 H 0.78749 0.79023 0.32306
 H206 H 0.82550 0.76654 0.29821
 H207 H 0.67026 0.71994 0.20074
 H208 H 0.70078 0.74841 0.16584
 H209 H 0.73992 0.81480 0.31622
 H210 H 0.75092 0.84281 0.27739
 H211 H 0.74358 0.65963 0.21788
 H212 H 0.76397 0.68955 0.17965
 H213 H 0.68949 0.81841 0.21812
 H214 H 0.65955 0.78970 0.25331
 H215 H 0.83100 0.71039 0.24473
 H216 H 0.80284 0.67995 0.28017
 O217 O 0.75054 0.17129 0.78330
 O218 O 0.71780 0.16298 0.74140
 O219 O 0.82801 0.21033 0.74234
 O220 O 0.83663 0.24866 0.71155
 O221 O 0.79060 0.24865 0.82014
 O222 O 0.74637 0.28153 0.82827
 O223 O 0.74730 0.29181 0.66676
 O224 O 0.78388 0.25281 0.65877
 O225 O 0.67183 0.24810 0.70119
 O226 O 0.66381 0.21310 0.74276
 O227 O 0.70560 0.32485 0.74425
 O228 O 0.74348 0.33206 0.77930
 O229 O 0.74092 0.32581 0.70368
 O230 O 0.78136 0.33358 0.74013
 O231 O 0.67126 0.28772 0.73995
 O232 O 0.66269 0.24473 0.77520
 O233 O 0.70808 0.25346 0.66621
 O234 O 0.74442 0.21861 0.65586
 O235 O 0.74673 0.20697 0.81898
 O236 O 0.71683 0.24736 0.82959
 O237 O 0.82588 0.25258 0.78401
 O238 O 0.83252 0.28581 0.74262
 O239 O 0.79289 0.17380 0.74028
 O240 O 0.74997 0.16233 0.71011
 Zr241 Zr 0.75159 0.19579 0.74317
 O242 O 0.72333 0.22082 0.71526
 Zr243 Zr 0.80236 0.24956 0.74392
 O244 O 0.77598 0.27721 0.71667
 Zr245 Zr 0.74996 0.24733 0.79613
 O246 O 0.72104 0.27413 0.77088
 Zr247 Zr 0.74837 0.25097 0.68978
 O248 O 0.77718 0.22288 0.71450
 Zr249 Zr 0.69569 0.24783 0.74162
 O250 O 0.72187 0.22056 0.76965
 Zr251 Zr 0.74640 0.30188 0.74325
 O252 O 0.77561 0.27725 0.77091
 O253 O 0.77858 0.22075 0.77130
 O254 O 0.71962 0.27692 0.71498
 C255 C 0.74709 0.17976 0.81042
 C256 C 0.82006 0.18296 0.74007
 C257 C 0.81778 0.25191 0.81135
 C258 C 0.74225 0.31837 0.67615
 C259 C 0.68059 0.25191 0.67426
 C260 C 0.67868 0.31529 0.74141
 H261 H 0.71174 0.20734 0.70225
 H262 H 0.70832 0.28596 0.78444
 H263 H 0.79157 0.20815 0.78388
 H264 H 0.78883 0.29039 0.70458
 H265 H 0.79726 0.23587 0.66322
 H266 H 0.82944 0.26014 0.69425
 H267 H 0.66444 0.26249 0.78807
 H268 H 0.69911 0.23753 0.82083
 H269 H 0.75727 0.20180 0.66174
 H270 H 0.76541 0.16716 0.69515
 H271 H 0.76241 0.33044 0.79054
 H272 H 0.76380 0.29479 0.82565
 H273 H 0.70217 0.16914 0.75572
 H274 H 0.66873 0.19903 0.72657
 H275 H 0.82493 0.30089 0.75677
 H276 H 0.77205 0.35347 0.73806
 O277 O 0.24960 0.83390 0.79037
 O278 O 0.27943 0.84341 0.74789
 O279 O 0.17390 0.78922 0.75701
 O280 O 0.16753 0.74671 0.72492
 O281 O 0.21611 0.75679 0.83259
 O282 O 0.26090 0.72860 0.84285
 O283 O 0.26243 0.71134 0.67994
 O284 O 0.22379 0.74304 0.66750
 O285 O 0.33102 0.76124 0.71233
 O286 O 0.34023 0.79274 0.75355
 O287 O 0.30128 0.68078 0.75664
 O288 O 0.26513 0.67264 0.79232
 O289 O 0.26418 0.67679 0.71680
 O290 O 0.22530 0.66985 0.75557
 O291 O 0.33401 0.71890 0.74927
 O292 O 0.34030 0.76257 0.78703
 O293 O 0.29500 0.75632 0.67701
 O294 O 0.24541 0.78495 0.66970
 O295 O 0.25408 0.80134 0.82875
 O296 O 0.29170 0.76244 0.83779
 O297 O 0.17917 0.74949 0.79850
 O298 O 0.17331 0.71354 0.75748
 O299 O 0.20689 0.82768 0.75349
 O300 O 0.24586 0.83667 0.71556
 Zr301 Zr 0.24924 0.80754 0.75226
 O302 O 0.27926 0.78348 0.72588
 Zr303 Zr 0.20155 0.75122 0.75720
 O304 O 0.22892 0.72488 0.72955
 Zr305 Zr 0.25566 0.75915 0.80759
 O306 O 0.28445 0.73172 0.78277
 Zr307 Zr 0.25504 0.75180 0.70160
 O308 O 0.22416 0.77800 0.72593
 Zr309 Zr 0.30820 0.75820 0.75271
 O310 O 0.28122 0.78627 0.77927
 Zr311 Zr 0.25983 0.70217 0.75610
 O312 O 0.23080 0.72649 0.78438
 O313 O 0.22501 0.78221 0.78218
 O314 O 0.28528 0.72762 0.72686
 C315 C 0.25107 0.82778 0.81813
 C316 C 0.18042 0.81703 0.75634
 C317 C 0.18858 0.75311 0.82529
 C318 C 0.26571 0.68468 0.68940
 C319 C 0.32223 0.76024 0.68524
 C320 C 0.32756 0.69114 0.75195
 H321 H 0.28997 0.79780 0.71309
 H322 H 0.29780 0.72073 0.79638
 H323 H 0.21187 0.79435 0.79501
 H324 H 0.21659 0.71081 0.71789
 H325 H 0.20430 0.73998 0.67734
 H326 H 0.17138 0.76201 0.70958
 H327 H 0.34217 0.74318 0.79718
 H328 H 0.30512 0.77812 0.83006
 H329 H 0.26193 0.79956 0.67028
 H330 H 0.22893 0.82961 0.70328
 H331 H 0.24719 0.67486 0.80499
 H332 H 0.24712 0.71190 0.83883
 H333 H 0.29636 0.83916 0.76138
 H334 H 0.33236 0.80896 0.74098
 H335 H 0.18068 0.70033 0.77345
 H336 H 0.23477 0.65007 0.75308
 O337 O 0.24487 0.34613 0.71542
 O338 O 0.21907 0.35654 0.76132
 O339 O 0.32308 0.30018 0.74635
 O340 O 0.33157 0.26066 0.77676
 O341 O 0.27383 0.26363 0.67390
 O342 O 0.22706 0.23782 0.66962
 O343 O 0.24285 0.22408 0.83038
 O344 O 0.28468 0.25770 0.83453
 O345 O 0.17000 0.27212 0.80495
 O346 O 0.16105 0.31173 0.76597
 O347 O 0.19063 0.19733 0.75785
 O348 O 0.22951 0.18501 0.71886
 O349 O 0.23339 0.19100 0.79337
 O350 O 0.26176 0.17806 0.74928
 O351 O 0.15966 0.23730 0.76081
 O352 O 0.15263 0.28299 0.73321
 O353 O 0.20980 0.26948 0.83632
 O354 O 0.25511 0.29667 0.84173
 O355 O 0.23605 0.31124 0.67979
 O356 O 0.20004 0.27433 0.67269
 O357 O 0.31357 0.25981 0.70518
 O358 O 0.32104 0.22422 0.74403
 O359 O 0.29204 0.33982 0.75233
 O360 O 0.25615 0.35219 0.78916
 Zr361 Zr 0.24907 0.32083 0.75484
 O362 O 0.22166 0.29778 0.78525
 Zr363 Zr 0.29443 0.26299 0.74774
 O364 O 0.26865 0.23716 0.77748
 Zr365 Zr 0.23673 0.27054 0.70202
 O366 O 0.20822 0.24597 0.72969
 Zr367 Zr 0.24660 0.26511 0.80770
 O368 O 0.27503 0.29091 0.78007
 Zr369 Zr 0.18887 0.27384 0.76196
 O370 O 0.21439 0.29926 0.73163
 Zr371 Zr 0.23389 0.21576 0.75424
 O372 O 0.26218 0.23828 0.72409
 O373 O 0.27026 0.29411 0.72352
 O374 O 0.21258 0.24207 0.78589
 C375 C 0.23877 0.33822 0.68859
 C376 C 0.31807 0.32825 0.74884
 C377 C 0.30178 0.25953 0.67917
 C378 C 0.23685 0.19776 0.82082
 C379 C 0.18169 0.27103 0.83102
 C380 C 0.16456 0.20925 0.75932
 H381 H 0.21255 0.31209 0.79923
 H382 H 0.19310 0.23604 0.71711
 H383 H 0.28272 0.30561 0.70945
 H384 H 0.28153 0.22283 0.78809
 H385 H 0.30039 0.27151 0.82750
 H386 H 0.32655 0.24647 0.79278
 H387 H 0.15368 0.26866 0.71654
 H388 H 0.18588 0.28841 0.68204
 H389 H 0.24329 0.31469 0.83741
 H390 H 0.27042 0.34299 0.80322
 H391 H 0.21119 0.19015 0.70770
 H392 H 0.23981 0.22044 0.67419
 H393 H 0.20073 0.35150 0.75010
 H394 H 0.16692 0.32270 0.78411
 H395 H 0.31023 0.21038 0.73071
 H396 H 0.27928 0.18075 0.76240
 O397 O 0.76466 0.66864 0.69873
 O398 O 0.79999 0.65947 0.73461
 O399 O 0.69267 0.70352 0.75742
 O400 O 0.68261 0.74336 0.78260
 O401 O 0.71287 0.74363 0.67025
 O402 O 0.75096 0.77723 0.65469
 O403 O 0.78204 0.78707 0.81444
 O404 O 0.74816 0.74855 0.82876
 O405 O 0.84986 0.75084 0.76689
 O406 O 0.85335 0.71665 0.72411
 O407 O 0.80382 0.82415 0.73164
 O408 O 0.75721 0.83270 0.70879
 O409 O 0.77269 0.82280 0.78000
 O410 O 0.72934 0.82883 0.74362
 O411 O 0.84121 0.79014 0.72772
 O412 O 0.84542 0.74709 0.69193
 O413 O 0.82068 0.74691 0.80808
 O414 O 0.78641 0.71347 0.82311
 O415 O 0.75582 0.70339 0.66318
 O416 O 0.78548 0.74583 0.64996
 O417 O 0.68380 0.74394 0.71169
 O418 O 0.68419 0.77946 0.75473
 O419 O 0.72696 0.66774 0.74687
 O420 O 0.77643 0.66111 0.77267
 Zr421 Zr 0.76664 0.69242 0.73896
 O422 O 0.79856 0.71907 0.76094
 Zr423 Zr 0.71401 0.74361 0.74752
 O424 O 0.74316 0.77182 0.77101
 Zr425 Zr 0.75664 0.74375 0.68712
 O426 O 0.78723 0.77308 0.70748
 Zr427 Zr 0.77694 0.74690 0.79146
 O428 O 0.74511 0.71808 0.77188
 Zr429 Zr 0.81935 0.74860 0.73117
 O430 O 0.79032 0.71898 0.70834
 Zr431 Zr 0.76559 0.79877 0.74019
 O432 O 0.73423 0.77237 0.71680
 O433 O 0.73389 0.71583 0.71619
 O434 O 0.79905 0.77575 0.76273
 C435 C 0.76075 0.67654 0.67157
 C436 C 0.70092 0.67629 0.75559
 C437 C 0.68741 0.74457 0.68338
 C438 C 0.77933 0.81432 0.80648
 C439 C 0.84614 0.74922 0.79517
 C440 C 0.83128 0.81698 0.72790
 H441 H 0.81312 0.70603 0.77108
 H442 H 0.79644 0.78568 0.69202
 H443 H 0.71956 0.70244 0.70606
 H444 H 0.73187 0.78353 0.78586
 H445 H 0.73357 0.73220 0.82633
 H446 H 0.69380 0.74827 0.80090
 H447 H 0.83942 0.76400 0.67925
 H448 H 0.80258 0.73261 0.65439
 H449 H 0.77157 0.69751 0.82008
 H450 H 0.76021 0.66215 0.78758
 H451 H 0.76649 0.82645 0.68983
 H452 H 0.73777 0.79249 0.66362
 H453 H 0.81607 0.66845 0.72247
 H454 H 0.85236 0.70213 0.74055
 H455 H 0.68501 0.79224 0.73686
 H456 H 0.72074 0.82699 0.76379
 O457 O 0.26159 0.67669 0.28113
 O458 O 0.22405 0.67167 0.24086
 O459 O 0.33640 0.71347 0.23742
 O460 O 0.34697 0.75405 0.21016
 O461 O 0.30259 0.75247 0.31951
 O462 O 0.26058 0.78550 0.32954
 O463 O 0.25998 0.80123 0.16882
 O464 O 0.29265 0.76108 0.15812
 O465 O 0.18202 0.75801 0.20298
 O466 O 0.17546 0.72108 0.24624
 O467 O 0.21815 0.83259 0.24437
 O468 O 0.26091 0.83840 0.28205
 O469 O 0.26158 0.83450 0.20693
 O470 O 0.29177 0.84234 0.24956
 O471 O 0.18277 0.79634 0.24352
 O472 O 0.17172 0.75609 0.27494
 O473 O 0.21762 0.76519 0.16769
 O474 O 0.25682 0.72780 0.15541
 O475 O 0.26261 0.71138 0.31810
 O476 O 0.22826 0.75097 0.32940
 O477 O 0.33757 0.75076 0.28282
 O478 O 0.34489 0.78889 0.24470
 O479 O 0.29942 0.67878 0.23479
 O480 O 0.25625 0.67065 0.20730
 Zr481 Zr 0.25973 0.70250 0.24166
 O482 O 0.23217 0.72954 0.21506
 Zr483 Zr 0.31319 0.75396 0.24311
 O484 O 0.28744 0.78363 0.21772
 Zr485 Zr 0.26170 0.75233 0.29623
 O486 O 0.23307 0.78103 0.27273
 Zr487 Zr 0.25819 0.75962 0.19026
 O488 O 0.28600 0.72962 0.21359
 Zr489 Zr 0.20646 0.75647 0.24306
 O490 O 0.23185 0.72736 0.26995
 Zr491 Zr 0.25902 0.80869 0.24553
 O492 O 0.28803 0.78186 0.27136
 O493 O 0.28849 0.72553 0.26951
 O494 O 0.23074 0.78593 0.21670
 C495 C 0.26330 0.68447 0.30868
 C496 C 0.32698 0.68666 0.23391
 C497 C 0.32972 0.75056 0.31027
 C498 C 0.26191 0.82780 0.17921
 C499 C 0.19031 0.76314 0.17612
 C500 C 0.19084 0.82366 0.24306
 H501 H 0.21948 0.71689 0.20230
 H502 H 0.22070 0.79262 0.28678
 H503 H 0.30183 0.71190 0.28049
 H504 H 0.30114 0.79631 0.20608
 H505 H 0.30733 0.74557 0.16365
 H506 H 0.34066 0.76782 0.19425
 H507 H 0.17993 0.76457 0.29349
 H508 H 0.21299 0.73661 0.32248
 H509 H 0.23841 0.71582 0.15748
 H510 H 0.26491 0.68009 0.18940
 H511 H 0.24202 0.83664 0.29333
 H512 H 0.27519 0.80089 0.32356
 H513 H 0.21113 0.67628 0.25812
 H514 H 0.17673 0.70936 0.22766
 H515 H 0.33957 0.80160 0.26189
 H516 H 0.30897 0.83627 0.23716
 O517 O 0.75300 0.31189 0.28779
 O518 O 0.77832 0.31853 0.24154
 O519 O 0.66646 0.28003 0.25618
 O520 O 0.65120 0.24166 0.22728
 O521 O 0.70861 0.23875 0.33015
 O522 O 0.74887 0.20316 0.33473
 O523 O 0.72910 0.19302 0.17380
 O524 O 0.69783 0.23625 0.16925
 O525 O 0.81296 0.22715 0.19964
 O526 O 0.82812 0.26430 0.23930
 O527 O 0.77991 0.15596 0.24616
 O528 O 0.74003 0.14921 0.28326
 O529 O 0.73601 0.15729 0.20885
 O530 O 0.70516 0.15041 0.25504
 O531 O 0.81637 0.19068 0.24043
 O532 O 0.83127 0.23291 0.27151
 O533 O 0.77334 0.22738 0.16795
 O534 O 0.73985 0.26435 0.16142
 O535 O 0.75232 0.27764 0.32496
 O536 O 0.78402 0.23453 0.33050
 O537 O 0.66904 0.23840 0.29838
 O538 O 0.65588 0.20464 0.25828
 O539 O 0.70449 0.31363 0.25466
 O540 O 0.74098 0.32029 0.21493
 Zr541 Zr 0.74326 0.28794 0.24893
 O542 O 0.76651 0.26080 0.21866
 Zr543 Zr 0.68862 0.23851 0.25580
 O544 O 0.70976 0.20889 0.22606
 Zr545 Zr 0.74644 0.23688 0.30216
 O546 O 0.77016 0.20736 0.27429
 Zr547 Zr 0.73640 0.23306 0.19626
 O548 O 0.71245 0.26314 0.22364
 Zr549 Zr 0.79422 0.23160 0.24233
 O550 O 0.77357 0.26120 0.27259
 Zr551 Zr 0.74016 0.18152 0.24914
 O552 O 0.71623 0.20887 0.27961
 O553 O 0.71765 0.26523 0.28001
 O554 O 0.76562 0.20431 0.21800
 C555 C 0.75514 0.30440 0.31524
 C556 C 0.67670 0.30678 0.25667
 C557 C 0.68038 0.23896 0.32461
 C558 C 0.73080 0.16579 0.18202
 C559 C 0.80135 0.22525 0.17361
 C560 C 0.80733 0.16370 0.24214
 H561 H 0.77781 0.27319 0.20442
 H562 H 0.78343 0.19489 0.28661
 H563 H 0.70731 0.27869 0.29405
 H564 H 0.69434 0.19724 0.21548
 H565 H 0.68713 0.25459 0.17525
 H566 H 0.65617 0.23062 0.20892
 H567 H 0.82759 0.21831 0.28751
 H568 H 0.79947 0.24756 0.32166
 H569 H 0.73433 0.28377 0.17001
 H570 H 0.72178 0.31737 0.20440
 H571 H 0.75663 0.15399 0.29696
 H572 H 0.73309 0.18854 0.32978
 H573 H 0.79594 0.31072 0.25226
 H574 H 0.82458 0.27607 0.22109
 H575 H 0.66359 0.18952 0.27227
 H576 H 0.68983 0.15434 0.23972
 C577 C 0.25890 0.06672 0.06131
 C578 C 0.25291 0.09034 0.08055
 C579 C 0.23332 0.11327 0.07170
 C580 C 0.21960 0.11171 0.04374
 C581 C 0.22497 0.08748 0.02496
 C582 C 0.24494 0.06469 0.03334
 C583 C 0.22748 0.13701 0.09115
 C584 C 0.24044 0.13751 0.11958
 C585 C 0.25947 0.11401 0.12846
 C586 C 0.26592 0.09090 0.10876
 C587 C 0.27163 0.11379 0.15707
 C588 C 0.26512 0.13668 0.17682
 C589 C 0.24678 0.16048 0.16818
 C590 C 0.23454 0.16091 0.13944
 H591 H 0.27487 0.04993 0.06815
 H592 H 0.20414 0.12884 0.03670
 H593 H 0.21263 0.08619 0.00432
 H594 H 0.21261 0.15478 0.08437
 H595 H 0.28069 0.07304 0.11560
 H596 H 0.28613 0.09588 0.16420
 H597 H 0.27501 0.13605 0.19878
 H598 H 0.22021 0.17914 0.13275
 C599 C 0.75628 0.55772 0.54186
 C600 C 0.75393 0.58188 0.56145
 C601 C 0.73064 0.60275 0.55790
 C602 C 0.70989 0.59874 0.53480
 C603 C 0.71161 0.57375 0.51619
 C604 C 0.73477 0.55287 0.51957
 C605 C 0.72801 0.62664 0.57805
 C606 C 0.74768 0.62909 0.60238
 C607 C 0.77048 0.60759 0.60607
 C608 C 0.77386 0.58463 0.58528
 C609 C 0.78927 0.60896 0.63089
 C610 C 0.78548 0.63120 0.65212
 C611 C 0.76336 0.65305 0.64867
 C612 C 0.74465 0.65215 0.62349
 H613 H 0.77433 0.54190 0.54471
 H614 H 0.69168 0.61432 0.53184
 H615 H 0.69425 0.57029 0.49981
 H616 H 0.71021 0.64276 0.57531
 H617 H 0.79145 0.56830 0.58821
 H618 H 0.80673 0.59258 0.63408
 H619 H 0.80028 0.63163 0.67117
 H620 H 0.72738 0.66883 0.62081
 C621 C 0.75719 0.92895 0.04304
 C622 C 0.75100 0.91003 0.06699
 C623 C 0.73360 0.92038 0.09102
 C624 C 0.72178 0.94917 0.09010
 C625 C 0.72715 0.96756 0.06565
 C626 C 0.74547 0.95812 0.04187
 C627 C 0.72813 0.90169 0.11541
 C628 C 0.73938 0.87254 0.11570
 C629 C 0.75588 0.86192 0.09107
 C630 C 0.76189 0.88081 0.06708
 C631 C 0.76636 0.83259 0.09091
 C632 C 0.76125 0.81410 0.11523
 C633 C 0.74585 0.82465 0.14037
 C634 C 0.73466 0.85390 0.14030
 H635 H 0.77188 0.92094 0.02564
 H636 H 0.70776 0.95727 0.10801
 H637 H 0.71573 0.98871 0.06504
 H638 H 0.71512 0.90979 0.13408
 H639 H 0.77493 0.87272 0.04841
 H640 H 0.77888 0.82406 0.07213
 H641 H 0.77032 0.79179 0.11475
 H642 H 0.72263 0.86225 0.15948
 C643 C 0.24389 0.45604 0.55995
 C644 C 0.24545 0.43944 0.58617
 C645 C 0.26819 0.44533 0.60720
 C646 C 0.28874 0.46826 0.60169
 C647 C 0.28698 0.48478 0.57542
 C648 C 0.26464 0.47863 0.55438
 C649 C 0.27026 0.42790 0.63302
 C650 C 0.25010 0.40443 0.63777
 C651 C 0.22713 0.39906 0.61677
 C652 C 0.22481 0.41673 0.59135
 C653 C 0.20727 0.37547 0.62098
 C654 C 0.21080 0.35650 0.64506
 C655 C 0.23389 0.36102 0.66571
 C656 C 0.25305 0.38553 0.66252
 H657 H 0.22651 0.45148 0.54379
 H658 H 0.30630 0.47320 0.61751
 H659 H 0.30317 0.50219 0.57136
 H660 H 0.28790 0.43214 0.64900
 H661 H 0.20735 0.41231 0.57520
 H662 H 0.18951 0.37116 0.60517
 H663 H 0.19569 0.33782 0.64733
 H664 H 0.27103 0.38892 0.67831
 C665 C 0.74367 0.05437 0.93295
 C666 C 0.74727 0.07311 0.90835
 C667 C 0.76971 0.06701 0.88707
 C668 C 0.78839 0.04227 0.89109
 C669 C 0.78498 0.02398 0.91601
 C670 C 0.76243 0.02972 0.93702
 C671 C 0.77333 0.08596 0.86248
 C672 C 0.75524 0.11132 0.85935
 C673 C 0.73309 0.11743 0.88102
 C674 C 0.72900 0.09813 0.90505
 C675 C 0.71565 0.14311 0.87869
 C676 C 0.72039 0.16297 0.85548
 C677 C 0.74217 0.15728 0.83373
 C678 C 0.75929 0.13113 0.83542
 H679 H 0.72624 0.05898 0.94907
 H680 H 0.80588 0.03730 0.87518
 H681 H 0.80009 0.00543 0.91899
 H682 H 0.79053 0.08129 0.84613
 H683 H 0.71195 0.10290 0.92153
 H684 H 0.69866 0.14812 0.89512
 H685 H 0.70688 0.18292 0.85445
 H686 H 0.77632 0.12681 0.81883
 C687 C 0.27240 0.56633 0.43691
 C688 C 0.26815 0.58295 0.41097
 C689 C 0.24420 0.57612 0.39161
 C690 C 0.22512 0.55235 0.39849
 C691 C 0.22948 0.53592 0.42450
 C692 C 0.25310 0.54288 0.44386
 C693 C 0.23944 0.59350 0.36611
 C694 C 0.25804 0.61791 0.36008
 C695 C 0.28218 0.62431 0.37945
 C696 C 0.28723 0.60666 0.40449
 C697 C 0.30051 0.64886 0.37403
 C698 C 0.29437 0.66766 0.35035
 C699 C 0.27016 0.66204 0.33131
 C700 C 0.25243 0.63669 0.33566
 H701 H 0.29067 0.57165 0.45183
 H702 H 0.20663 0.54673 0.38400
 H703 H 0.21425 0.51796 0.42971
 H704 H 0.22090 0.58848 0.35141
 H705 H 0.30559 0.61184 0.41937
 H706 H 0.31911 0.65399 0.38857
 H707 H 0.30839 0.68703 0.34706
 H708 H 0.23366 0.63245 0.32104
 C709 C 0.24437 0.95594 0.93766
 C710 C 0.24817 0.93044 0.92027
 C711 C 0.26642 0.90696 0.93044
 C712 C 0.28109 0.90981 0.95778
 C713 C 0.27760 0.93558 0.97484
 C714 C 0.25873 0.95887 0.96534
 C715 C 0.26995 0.88129 0.91294
 C716 C 0.25593 0.87924 0.88509
 C717 C 0.23810 0.90317 0.87492
 C718 C 0.23402 0.92832 0.89268
 C719 C 0.22492 0.90189 0.84685
 C720 C 0.22960 0.87736 0.82870
 C721 C 0.24692 0.85317 0.83847
 C722 C 0.25979 0.85401 0.86693
 H723 H 0.22932 0.97315 0.92990
 H724 H 0.29563 0.89231 0.96578
 H725 H 0.29046 0.93751 0.99510
 H726 H 0.28387 0.86320 0.92077
 H727 H 0.22020 0.94649 0.88480
 H728 H 0.21130 0.92006 0.83872
 H729 H 0.21940 0.87728 0.80688
 H730 H 0.27335 0.83555 0.87451
 C731 C 0.75358 0.43500 0.43241
 C732 C 0.75226 0.40854 0.41590
 C733 C 0.73262 0.38555 0.42469
 C734 C 0.71468 0.38952 0.44999
 C735 C 0.71586 0.41615 0.46609
 C736 C 0.73536 0.43907 0.45750
 C737 C 0.73082 0.35931 0.40772
 C738 C 0.74794 0.35610 0.38170
 C739 C 0.76754 0.37923 0.37305
 C740 C 0.76985 0.40505 0.39037
 C741 C 0.78397 0.37658 0.34669
 C742 C 0.78035 0.35175 0.32848
 C743 C 0.76081 0.32872 0.33657
 C744 C 0.74509 0.33066 0.36358
 H745 H 0.76864 0.45262 0.42564
 H746 H 0.69939 0.37224 0.45703
 H747 H 0.70128 0.41900 0.48509
 H748 H 0.71562 0.34175 0.41435
 H749 H 0.78480 0.42276 0.38356
 H750 H 0.79905 0.39409 0.33975
 H751 H 0.79264 0.35064 0.30776
 H752 H 0.72963 0.31315 0.36971
 C753 C 0.04684 0.24334 0.06025
 C754 C 0.07115 0.24252 0.07981
 C755 C 0.09672 0.22573 0.07249
 C756 C 0.09718 0.20965 0.04577
 C757 C 0.07230 0.20964 0.02684
 C758 C 0.04651 0.22644 0.03369
 C759 C 0.12104 0.22486 0.09230
 C760 C 0.11957 0.23992 0.11970
 C761 C 0.09353 0.25614 0.12713
 C762 C 0.06979 0.25778 0.10695
 C763 C 0.09144 0.27023 0.15483
 C764 C 0.11491 0.26836 0.17511
 C765 C 0.14119 0.25290 0.16789
 C766 C 0.14347 0.23878 0.14001
 H767 H 0.02816 0.25761 0.06585
 H768 H 0.11642 0.19622 0.03997
 H769 H 0.07293 0.19488 0.00793
 H770 H 0.14081 0.21210 0.08664
 H771 H 0.04994 0.27040 0.11268
 H772 H 0.07156 0.28259 0.16089
 H773 H 0.11273 0.27955 0.19633
 H774 H 0.16358 0.22658 0.13436
 C775 C 0.55869 0.75023 0.56406
 C776 C 0.58368 0.74586 0.58220
 C777 C 0.60748 0.72778 0.57218
 C778 C 0.60528 0.71354 0.54450
 C779 C 0.57974 0.71720 0.52698
 C780 C 0.55645 0.73598 0.53637
 C781 C 0.63285 0.72403 0.59012
 C782 C 0.63426 0.73750 0.61825
 C783 C 0.60987 0.75466 0.62861
 C784 C 0.58496 0.75907 0.61036
 C785 C 0.61074 0.76714 0.65713
 C786 C 0.63571 0.76304 0.67516
 C787 C 0.66046 0.74690 0.66478
 C788 C 0.65961 0.73408 0.63629
 H789 H 0.54081 0.76467 0.57157
 H790 H 0.62309 0.69925 0.53662
 H791 H 0.57813 0.70523 0.50616
 H792 H 0.65131 0.71049 0.58232
 H793 H 0.56646 0.77256 0.61818
 H794 H 0.59215 0.78015 0.66545
 H795 H 0.63602 0.77320 0.69700
 H796 H 0.67855 0.72133 0.62831
 C797 C 0.05903 0.75117 0.94392
 C798 C 0.07849 0.74861 0.91979
 C799 C 0.07274 0.72760 0.89721
 C800 C 0.04746 0.70929 0.89950
 C801 C 0.02862 0.71123 0.92432
 C802 C 0.03414 0.73219 0.94707
 C803 C 0.09275 0.72484 0.87324
 C804 C 0.11888 0.74222 0.87230
 C805 C 0.12461 0.76286 0.89539
 C806 C 0.10415 0.76631 0.91858
 C807 C 0.15102 0.77947 0.89528
 C808 C 0.17182 0.77563 0.87264
 C809 C 0.16639 0.75554 0.84934
 C810 C 0.13967 0.73907 0.84903
 H811 H 0.06344 0.76819 0.96044
 H812 H 0.04284 0.69273 0.88261
 H813 H 0.01082 0.69512 0.92626
 H814 H 0.08838 0.70877 0.85579
 H815 H 0.10863 0.78223 0.93616
 H816 H 0.15571 0.79530 0.91285
 H817 H 0.19205 0.78887 0.87304
 H818 H 0.13542 0.72351 0.83110
 C819 C 0.55103 0.24538 0.44431
 C820 C 0.57091 0.24125 0.42055
 C821 C 0.56334 0.22164 0.39722
 C822 C 0.53634 0.20581 0.39865
 C823 C 0.51733 0.20897 0.42320
 C824 C 0.52424 0.22898 0.44624
 C825 C 0.58319 0.21768 0.37328
 C826 C 0.61102 0.23221 0.37305
 C827 C 0.61896 0.25094 0.39707
 C828 C 0.59864 0.25581 0.42031
 C829 C 0.64724 0.26435 0.39759
 C830 C 0.66746 0.25951 0.37445
 C831 C 0.65956 0.24176 0.35000
 C832 C 0.63122 0.22817 0.34938
 H833 H 0.55681 0.26092 0.46183
 H834 H 0.53039 0.19024 0.38124
 H835 H 0.49782 0.19493 0.42445
 H836 H 0.57723 0.20289 0.35517
 H837 H 0.60466 0.27045 0.43852
 H838 H 0.65373 0.27859 0.41593
 H839 H 0.68904 0.27039 0.37525
 H840 H 0.62505 0.21428 0.33065
 C841 C 0.94350 0.72568 0.06093
 C842 C 0.92566 0.73100 0.08588
 C843 C 0.93297 0.75418 0.10579
 C844 C 0.95859 0.77131 0.10054
 C845 C 0.97635 0.76590 0.07550
 C846 C 0.96895 0.74312 0.05517
 C847 C 0.91423 0.76015 0.13018
 C848 C 0.88811 0.74335 0.13455
 C849 C 0.88135 0.71982 0.11471
 C850 C 0.90025 0.71366 0.09078
 C851 C 0.85531 0.70317 0.11854
 C852 C 0.83545 0.71035 0.14114
 C853 C 0.84133 0.73407 0.16065
 C854 C 0.86812 0.75012 0.15781
 H855 H 0.93777 0.70742 0.04625
 H856 H 0.96456 0.78929 0.11543
 H857 H 0.99513 0.78049 0.07143
 H858 H 0.91959 0.77818 0.14529
 H859 H 0.89475 0.69579 0.07550
 H860 H 0.84995 0.68500 0.10363
 H861 H 0.81516 0.69738 0.14321
 H862 H 0.87273 0.76846 0.17276
 C863 C 0.42721 0.23354 0.55837
 C864 C 0.40822 0.24132 0.58191
 C865 C 0.41792 0.26198 0.60351
 C866 C 0.44612 0.27528 0.60049
 C867 C 0.46431 0.26852 0.57606
 C868 C 0.45525 0.24731 0.55489
 C869 C 0.39902 0.26939 0.62737
 C870 C 0.37011 0.25728 0.62915
 C871 C 0.36006 0.23763 0.60670
 C872 C 0.37937 0.22930 0.58362
 C873 C 0.33073 0.22672 0.60757
 C874 C 0.31157 0.23484 0.63066
 C875 C 0.32160 0.25338 0.65369
 C876 C 0.35094 0.26460 0.65284
 H877 H 0.41985 0.21711 0.54231
 H878 H 0.45377 0.29154 0.61656
 H879 H 0.48523 0.28031 0.57350
 H880 H 0.40659 0.28492 0.64422
 H881 H 0.37174 0.21389 0.56667
 H882 H 0.32262 0.21186 0.59040
 H883 H 0.28912 0.22584 0.63104
 H884 H 0.35868 0.27915 0.67045
 C885 C 0.93878 0.24412 0.93853
 C886 C 0.91363 0.24448 0.92004
 C887 C 0.88732 0.22950 0.92872
 C888 C 0.88670 0.21453 0.95599
 C889 C 0.91203 0.21397 0.97420
 C890 C 0.93855 0.22875 0.96582
 C891 C 0.86240 0.22919 0.90970
 C892 C 0.86375 0.24332 0.88190
 C893 C 0.89017 0.25845 0.87349
 C894 C 0.91473 0.25921 0.89270
 C895 C 0.89193 0.27210 0.84565
 C896 C 0.86810 0.27019 0.82589
 C897 C 0.84180 0.25495 0.83367
 C898 C 0.83950 0.24199 0.86201
 H899 H 0.95852 0.25634 0.93173
 H900 H 0.86687 0.20256 0.96290
 H901 H 0.91117 0.20041 0.99396
 H902 H 0.84226 0.21749 0.91624
 H903 H 0.93498 0.27068 0.88605
 H904 H 0.91198 0.28382 0.83893
 H905 H 0.87030 0.28062 0.80432
 H906 H 0.81938 0.23006 0.86812
 C907 C 0.44572 0.73586 0.44099
 C908 C 0.42198 0.74082 0.42148
 C909 C 0.39891 0.76078 0.42938
 C910 C 0.40039 0.77576 0.45675
 C911 C 0.42486 0.77150 0.47565
 C912 C 0.44767 0.75145 0.46792
 C913 C 0.37531 0.76596 0.40947
 C914 C 0.37522 0.75224 0.38139
 C915 C 0.39882 0.73280 0.37347
 C916 C 0.42164 0.72678 0.39375
 C917 C 0.39956 0.72001 0.34514
 C918 C 0.37729 0.72653 0.32462
 C919 C 0.35348 0.74540 0.33224
 C920 C 0.35230 0.75799 0.36081
 H921 H 0.46328 0.72040 0.43486
 H922 H 0.38309 0.79137 0.46312
 H923 H 0.42625 0.78430 0.49600
 H924 H 0.35749 0.78116 0.41550
 H925 H 0.43961 0.71177 0.38763
 H926 H 0.41752 0.70515 0.33875
 H927 H 0.37836 0.71628 0.30286
 H928 H 0.33398 0.77261 0.36673
 C929 C 0.05466 0.05848 0.27799
 C930 C 0.07822 0.07819 0.27241
 C931 C 0.09848 0.07233 0.24898
 C932 C 0.09432 0.04708 0.23113
 C933 C 0.07041 0.02783 0.23652
 C934 C 0.05074 0.03311 0.26030
 C935 C 0.12226 0.09197 0.24362
 C936 C 0.12553 0.11777 0.26091
 C937 C 0.10477 0.12381 0.28391
 C938 C 0.08157 0.10380 0.28976
 C939 C 0.10721 0.15007 0.30043
 C940 C 0.12970 0.17046 0.29398
 C941 C 0.15058 0.16463 0.27145
 C942 C 0.14875 0.13804 0.25520
 H943 H 0.03936 0.06274 0.29621
 H944 H 0.10940 0.04236 0.21288
 H945 H 0.06734 0.00868 0.22223
 H946 H 0.13789 0.08744 0.22575
 H947 H 0.06582 0.10842 0.30752
 H948 H 0.09144 0.15508 0.31801
 H949 H 0.13089 0.19088 0.30673
 H950 H 0.16466 0.13372 0.23753
 C951 C 0.57138 0.55962 0.77820
 C952 C 0.59722 0.57593 0.77141
 C953 C 0.61418 0.56874 0.74586
 C954 C 0.60504 0.54500 0.72774
 C955 C 0.57912 0.52898 0.73456
 C956 C 0.56205 0.53618 0.75979
 C957 C 0.63956 0.58575 0.73859
 C958 C 0.64781 0.61021 0.75627
 C959 C 0.63082 0.61705 0.78195
 C960 C 0.60594 0.59972 0.78950
 C961 C 0.63840 0.64170 0.79934
 C962 C 0.66184 0.66017 0.79087
 C963 C 0.67864 0.65410 0.76519
 C964 C 0.67207 0.62861 0.74827
 H965 H 0.55833 0.56523 0.79773
 H966 H 0.61767 0.53913 0.70804
 H967 H 0.57212 0.51118 0.71991
 H968 H 0.65239 0.58042 0.71884
 H969 H 0.59289 0.60525 0.80907
 H970 H 0.62566 0.64720 0.81909
 H971 H 0.66668 0.67962 0.80426
 H972 H 0.68478 0.62401 0.72827
 C973 C 0.94780 0.06310 0.74925
 C974 C 0.92901 0.08790 0.74995
 C975 C 0.93430 0.11095 0.77057
 C976 C 0.95854 0.10857 0.79022
 C977 C 0.97693 0.08333 0.78980
 C978 C 0.97184 0.06010 0.76930
 C979 C 0.91487 0.13552 0.77158
 C980 C 0.88983 0.13674 0.75270
 C981 C 0.88471 0.11337 0.73222
 C982 C 0.90457 0.08945 0.73065
 C983 C 0.85932 0.11380 0.71409
 C984 C 0.83865 0.13676 0.71665
 C985 C 0.84334 0.16010 0.73682
 C986 C 0.86927 0.16038 0.75446
 H987 H 0.94374 0.04612 0.73261
 H988 H 0.96278 0.12584 0.80648
 H989 H 0.99405 0.08155 0.80663
 H990 H 0.91878 0.15324 0.78748
 H991 H 0.90049 0.07157 0.71496
 H992 H 0.85510 0.09601 0.69837
 H993 H 0.81884 0.13630 0.70283
 H994 H 0.87275 0.17823 0.77030
 C995 C 0.44603 0.55794 0.23604
 C996 C 0.42919 0.58413 0.23756
 C997 C 0.43690 0.60649 0.25829
 C998 C 0.46157 0.60216 0.27709
 C999 C 0.47803 0.57572 0.27569
 C1000 C 0.47034 0.55344 0.25517
 C1001 C 0.41945 0.63242 0.26025
 C1002 C 0.39402 0.63581 0.24223
 C1003 C 0.38651 0.61327 0.22155
 C1004 C 0.40435 0.58785 0.21907
 C1005 C 0.36070 0.61603 0.20421
 C1006 C 0.34187 0.64039 0.20795
 C1007 C 0.34885 0.66280 0.22854
 C1008 C 0.37534 0.66082 0.24520
 H1009 H 0.44006 0.54080 0.22014
 H1010 H 0.46781 0.61898 0.29318
 H1011 H 0.49656 0.57249 0.29082
 H1012 H 0.42520 0.64952 0.27627
 H1013 H 0.39842 0.57058 0.20328
 H1014 H 0.35465 0.59895 0.18831
 H1015 H 0.32158 0.64163 0.19489
 H1016 H 0.38058 0.67791 0.26137
 C1017 C 0.05940 0.94188 0.77490
 C1018 C 0.07720 0.91735 0.76774
 C1019 C 0.07419 0.90341 0.73968
 C1020 C 0.05272 0.91391 0.71957
 C1021 C 0.03492 0.93834 0.72698
 C1022 C 0.03839 0.95260 0.75454
 C1023 C 0.09300 0.87961 0.73207
 C1024 C 0.11483 0.86974 0.75214
 C1025 C 0.11714 0.88334 0.78050
 C1026 C 0.09829 0.90692 0.78810
 C1027 C 0.13874 0.87357 0.80068
 C1028 C 0.15856 0.85121 0.79257
 C1029 C 0.15713 0.83830 0.76426
 C1030 C 0.13491 0.84703 0.74420
 H1031 H 0.06187 0.95279 0.79627
 H1032 H 0.04997 0.90349 0.69803
 H1033 H 0.01877 0.94648 0.71103
 H1034 H 0.09103 0.86919 0.71041
 H1035 H 0.10043 0.91753 0.80967
 H1036 H 0.14066 0.88357 0.82253
 H1037 H 0.17539 0.84412 0.80834
 H1038 H 0.13390 0.83689 0.72235
 C1039 C 0.55695 0.43513 0.26469
 C1040 C 0.57407 0.40933 0.26111
 C1041 C 0.56497 0.38724 0.24065
 C1042 C 0.53883 0.39161 0.22397
 C1043 C 0.52228 0.41784 0.22713
 C1044 C 0.53115 0.43977 0.24759
 C1045 C 0.58254 0.36159 0.23676
 C1046 C 0.60953 0.35831 0.25241
 C1047 C 0.61861 0.38078 0.27256
 C1048 C 0.60061 0.40579 0.27714
 C1049 C 0.64594 0.37826 0.28741
 C1050 C 0.66452 0.35406 0.28197
 C1051 C 0.65587 0.33154 0.26214
 C1052 C 0.62806 0.33341 0.24775
 H1053 H 0.56396 0.45198 0.28048
 H1054 H 0.53156 0.37507 0.20802
 H1055 H 0.50278 0.42120 0.21331
 H1056 H 0.57561 0.34462 0.22107
 H1057 H 0.60767 0.42292 0.29262
 H1058 H 0.65321 0.39529 0.30287
 H1059 H 0.68575 0.35281 0.29349
 H1060 H 0.62141 0.31613 0.23229
 C1061 C 0.92637 0.95463 0.25978
 C1062 C 0.90595 0.93084 0.26052
 C1063 C 0.91004 0.90758 0.28125
 C1064 C 0.93356 0.90893 0.30157
 C1065 C 0.95393 0.93222 0.30041
 C1066 C 0.95120 0.95502 0.27910
 C1067 C 0.89114 0.88282 0.28086
 C1068 C 0.86817 0.88080 0.25990
 C1069 C 0.86328 0.90436 0.23971
 C1070 C 0.88224 0.92927 0.24012
 C1071 C 0.83963 0.90243 0.21934
 C1072 C 0.82114 0.87735 0.21896
 C1073 C 0.82643 0.85359 0.23849
 C1074 C 0.85002 0.85546 0.25887
 H1075 H 0.92416 0.97143 0.24270
 H1076 H 0.93675 0.89148 0.31785
 H1077 H 0.97225 0.93223 0.31616
 H1078 H 0.89466 0.86485 0.29653
 H1079 H 0.87884 0.94712 0.22431
 H1080 H 0.83538 0.92030 0.20380
 H1081 H 0.80289 0.87634 0.20318
 H1082 H 0.85383 0.83742 0.27437
 C1083 C 0.44437 0.45134 0.75400
 C1084 C 0.41954 0.43233 0.75619
 C1085 C 0.39819 0.43700 0.77886
 C1086 C 0.40267 0.45995 0.79951
 C1087 C 0.42828 0.47774 0.79807
 C1088 C 0.44916 0.47413 0.77502
 C1089 C 0.37333 0.41804 0.78116
 C1090 C 0.37024 0.39364 0.76187
 C1091 C 0.39222 0.38835 0.73989
 C1092 C 0.41633 0.40809 0.73676
 C1093 C 0.38996 0.36312 0.72168
 C1094 C 0.36619 0.34326 0.72519
 C1095 C 0.34380 0.34870 0.74637
 C1096 C 0.34583 0.37408 0.76455
 H1097 H 0.46064 0.44778 0.73649
 H1098 H 0.38697 0.46336 0.81753
 H1099 H 0.43222 0.49325 0.81585
 H1100 H 0.35683 0.42182 0.79841
 H1101 H 0.43301 0.40414 0.71971
 H1102 H 0.40670 0.35860 0.70487
 H1103 H 0.36492 0.32394 0.71085
 H1104 H 0.32875 0.37823 0.78114
 C1105 C 0.06497 0.24590 0.96017
 C1106 C 0.08649 0.24541 0.93732
 C1107 C 0.09020 0.21939 0.91996
 C1108 C 0.07319 0.19406 0.92636
 C1109 C 0.05160 0.19490 0.94870
 C1110 C 0.04699 0.22086 0.96542
 C1111 C 0.11006 0.21935 0.89584
 C1112 C 0.12621 0.24503 0.88863
 C1113 C 0.12329 0.27081 0.90647
 C1114 C 0.10347 0.27082 0.93072
 C1115 C 0.14003 0.29625 0.89948
 C1116 C 0.15919 0.29626 0.87490
 C1117 C 0.16149 0.27105 0.85673
 C1118 C 0.14510 0.24544 0.86368
 H1119 H 0.06105 0.26611 0.97273
 H1120 H 0.07579 0.17394 0.91335
 H1121 H 0.03763 0.17558 0.95230
 H1122 H 0.11247 0.19952 0.88230
 H1123 H 0.10084 0.29075 0.94406
 H1124 H 0.13826 0.31614 0.91298
 H1125 H 0.17201 0.31604 0.86985
 H1126 H 0.14728 0.22583 0.84979
 C1127 C 0.56038 0.73331 0.44380
 C1128 C 0.58444 0.73813 0.42469
 C1129 C 0.60697 0.75874 0.43249
 C1130 C 0.60486 0.77412 0.45960
 C1131 C 0.58011 0.76986 0.47817
 C1132 C 0.55762 0.74958 0.47020
 C1133 C 0.63058 0.76419 0.41265
 C1134 C 0.63123 0.74999 0.38481
 C1135 C 0.60837 0.72959 0.37720
 C1136 C 0.58551 0.72341 0.39736
 C1137 C 0.60831 0.71603 0.34924
 C1138 C 0.63047 0.72281 0.32871
 C1139 C 0.65341 0.74292 0.33588
 C1140 C 0.65395 0.75621 0.36416
 H1141 H 0.54306 0.71759 0.43764
 H1142 H 0.62182 0.79008 0.46597
 H1143 H 0.57814 0.78286 0.49835
 H1144 H 0.64790 0.78001 0.41850
 H1145 H 0.56801 0.70780 0.39140
 H1146 H 0.59096 0.70036 0.34313
 H1147 H 0.62991 0.71186 0.30725
 H1148 H 0.67162 0.77170 0.36982
 C1149 C 0.96528 0.74277 0.92414
 C1150 C 0.94406 0.73863 0.90138
 C1151 C 0.92324 0.71504 0.90351
 C1152 C 0.92488 0.69514 0.92731
 C1153 C 0.94616 0.69916 0.94951
 C1154 C 0.96611 0.72325 0.94855
 C1155 C 0.90058 0.71205 0.88225
 C1156 C 0.89854 0.73211 0.85861
 C1157 C 0.92020 0.75477 0.85539
 C1158 C 0.94276 0.75802 0.87693
 C1159 C 0.91851 0.77406 0.83093
 C1160 C 0.89507 0.77147 0.81046
 C1161 C 0.87269 0.75000 0.81451
 C1162 C 0.87477 0.73016 0.83841
 H1163 H 0.98047 0.76151 0.92336
 H1164 H 0.90929 0.67680 0.92909
 H1165 H 0.94656 0.68384 0.96806
 H1166 H 0.88422 0.69439 0.88441
 H1167 H 0.95894 0.77585 0.87492
 H1168 H 0.93503 0.79140 0.82788
 H1169 H 0.89377 0.78694 0.79213
 H1170 H 0.85768 0.71333 0.84139
 C1171 C 0.44650 0.25464 0.42970
 C1172 C 0.42313 0.25181 0.40896
 C1173 C 0.40872 0.22402 0.40529
 C1174 C 0.41837 0.19943 0.42174
 C1175 C 0.44111 0.20260 0.44266
 C1176 C 0.45519 0.23013 0.44692
 C1177 C 0.38421 0.22143 0.38608
 C1178 C 0.37365 0.24628 0.37058
 C1179 C 0.38843 0.27394 0.37360
 C1180 C 0.41311 0.27652 0.39273
 C1181 C 0.37809 0.29860 0.35752
 C1182 C 0.35332 0.29588 0.33878
 C1183 C 0.33827 0.26867 0.33627
 C1184 C 0.34847 0.24392 0.35213
 H1185 H 0.45678 0.27610 0.43366
 H1186 H 0.40754 0.17803 0.41927
 H1187 H 0.44711 0.18375 0.45638
 H1188 H 0.37299 0.20019 0.38362
 H1189 H 0.42416 0.29781 0.39538
 H1190 H 0.38921 0.31991 0.35936
 H1191 H 0.34580 0.31502 0.32626
 H1192 H 0.33705 0.22279 0.34971
 C1193 C 0.06039 0.76040 0.05785
 C1194 C 0.07975 0.75894 0.08230
 C1195 C 0.07434 0.73810 0.10518
 C1196 C 0.04971 0.71896 0.10306
 C1197 C 0.03104 0.71999 0.07821
 C1198 C 0.03611 0.74076 0.05544
 C1199 C 0.09410 0.73615 0.12933
 C1200 C 0.11976 0.75406 0.13034
 C1201 C 0.12523 0.77469 0.10724
 C1202 C 0.10493 0.77737 0.08370
 C1203 C 0.15137 0.79178 0.10762
 C1204 C 0.17231 0.78797 0.13021
 C1205 C 0.16721 0.76754 0.15322
 C1206 C 0.14057 0.75104 0.15354
 H1207 H 0.06452 0.77640 0.04034
 H1208 H 0.04533 0.70268 0.12024
 H1209 H 0.01287 0.70418 0.07652
 H1210 H 0.08999 0.72011 0.14683
 H1211 H 0.10922 0.79316 0.06601
 H1212 H 0.15593 0.80766 0.09011
 H1213 H 0.19260 0.80108 0.12975
 H1214 H 0.13664 0.73509 0.17116
 C1215 C 0.54927 0.25404 0.55724
 C1216 C 0.56866 0.25195 0.58155
 C1217 C 0.56138 0.23323 0.60568
 C1218 C 0.53460 0.21694 0.60493
 C1219 C 0.51577 0.21851 0.58012
 C1220 C 0.52303 0.23696 0.55601
 C1221 C 0.58137 0.23053 0.62965
 C1222 C 0.60890 0.24561 0.62923
 C1223 C 0.61605 0.26413 0.60483
 C1224 C 0.59572 0.26755 0.58147
 C1225 C 0.64376 0.27851 0.60380
 C1226 C 0.66454 0.27423 0.62642
 C1227 C 0.65788 0.25593 0.65081
 C1228 C 0.62975 0.24201 0.65238
 H1229 H 0.55500 0.26838 0.53874
 H1230 H 0.52865 0.20237 0.62314
 H1231 H 0.49588 0.20482 0.57945
 H1232 H 0.57587 0.21613 0.64816
 H1233 H 0.60134 0.28172 0.56280
 H1234 H 0.64954 0.29277 0.58529
 H1235 H 0.68587 0.28554 0.62496
 H1236 H 0.62449 0.22782 0.67111
 C1237 C 0.92600 0.21298 0.05111
 C1238 C 0.90149 0.21929 0.06948
 C1239 C 0.88923 0.24828 0.06991
 C1240 C 0.90087 0.27005 0.05082
 C1241 C 0.92487 0.26335 0.03206
 C1242 C 0.93775 0.23494 0.03239
 C1243 C 0.86594 0.25510 0.08972
 C1244 C 0.85453 0.23319 0.10879
 C1245 C 0.86586 0.20383 0.10717
 C1246 C 0.88935 0.19714 0.08769
 C1247 C 0.85385 0.18168 0.12547
 C1248 C 0.83169 0.18876 0.14607
 C1249 C 0.82160 0.21807 0.14906
 C1250 C 0.83244 0.24017 0.12995
 H1251 H 0.93604 0.19105 0.05129
 H1252 H 0.89166 0.29232 0.05067
 H1253 H 0.93393 0.28051 0.01781
 H1254 H 0.85702 0.27750 0.09059
 H1255 H 0.89844 0.17480 0.08698
 H1256 H 0.86189 0.15900 0.12416
 H1257 H 0.82265 0.17141 0.16009
 H1258 H 0.82433 0.26278 0.13215
 C1259 C 0.44343 0.75917 0.55914
 C1260 C 0.41821 0.75764 0.57728
 C1261 C 0.39485 0.73765 0.57030
 C1262 C 0.39730 0.71956 0.54494
 C1263 C 0.42296 0.72085 0.52718
 C1264 C 0.44618 0.74061 0.53432
 C1265 C 0.36995 0.73562 0.58920
 C1266 C 0.36874 0.75269 0.61535
 C1267 C 0.39236 0.77254 0.62212
 C1268 C 0.41660 0.77526 0.60280
 C1269 C 0.39188 0.78884 0.64858
 C1270 C 0.36872 0.78486 0.66875
 C1271 C 0.34526 0.76510 0.66252
 C1272 C 0.34489 0.74960 0.63541
 H1273 H 0.46134 0.77449 0.56458
 H1274 H 0.37970 0.70404 0.53922
 H1275 H 0.42491 0.70622 0.50815
 H1276 H 0.35204 0.72021 0.58405
 H1277 H 0.43469 0.79042 0.60813
 H1278 H 0.40980 0.80411 0.65402
 H1279 H 0.36916 0.79727 0.68940
 H1280 H 0.32678 0.73438 0.63053
 C1281 C 0.23763 0.06945 0.94014
 C1282 C 0.23960 0.09538 0.92312
 C1283 C 0.25803 0.11907 0.93254
 C1284 C 0.27411 0.11632 0.95913
 C1285 C 0.27199 0.09034 0.97610
 C1286 C 0.25352 0.06659 0.96698
 C1287 C 0.26030 0.14487 0.91502
 C1288 C 0.24451 0.14701 0.88810
 C1289 C 0.22591 0.12319 0.87906
 C1290 C 0.22343 0.09774 0.89666
 C1291 C 0.21040 0.12483 0.85220
 C1292 C 0.21388 0.14940 0.83387
 C1293 C 0.23259 0.17314 0.84212
 C1294 C 0.24744 0.17216 0.86966
 H1295 H 0.22290 0.05174 0.93285
 H1296 H 0.28858 0.13411 0.96666
 H1297 H 0.28544 0.08860 0.99601
 H1298 H 0.27461 0.16300 0.92211
 H1299 H 0.20925 0.07952 0.88950
 H1300 H 0.19598 0.10683 0.84505
 H1301 H 0.20197 0.14970 0.81294
 H1302 H 0.26196 0.19032 0.87617
 C1303 C 0.74429 0.57259 0.45038
 C1304 C 0.74027 0.59476 0.42863
 C1305 C 0.71628 0.59236 0.40826
 C1306 C 0.69589 0.56893 0.41088
 C1307 C 0.69993 0.54722 0.43254
 C1308 C 0.72449 0.54832 0.45197
 C1309 C 0.71344 0.61289 0.38504
 C1310 C 0.73413 0.63602 0.38192
 C1311 C 0.75724 0.63951 0.40308
 C1312 C 0.76026 0.61876 0.42626
 C1313 C 0.77723 0.66343 0.40028
 C1314 C 0.77487 0.68309 0.37627
 C1315 C 0.75290 0.67875 0.35447
 C1316 C 0.73236 0.65543 0.35761
 H1317 H 0.76337 0.57353 0.46518
 H1318 H 0.67722 0.56697 0.39568
 H1319 H 0.68427 0.52889 0.43359
 H1320 H 0.69546 0.61050 0.36904
 H1321 H 0.77843 0.62097 0.44205
 H1322 H 0.79491 0.66668 0.41640
 H1323 H 0.79082 0.70108 0.37416
 H1324 H 0.71508 0.65239 0.34100
 C1325 C 0.73541 0.04838 0.05178
 C1326 C 0.73699 0.06504 0.07811
 C1327 C 0.75901 0.05834 0.09962
 C1328 C 0.77887 0.03473 0.09441
 C1329 C 0.77713 0.01820 0.06805
 C1330 C 0.75539 0.02490 0.04656
 C1331 C 0.76103 0.07564 0.12566
 C1332 C 0.74153 0.09976 0.13020
 C1333 C 0.71938 0.10605 0.10864
 C1334 C 0.71711 0.08856 0.08297
 C1335 C 0.70023 0.13031 0.11265
 C1336 C 0.70360 0.14891 0.13717
 C1337 C 0.72577 0.14339 0.15853
 C1338 C 0.74432 0.11832 0.15537
 H1339 H 0.71857 0.05358 0.03526
 H1340 H 0.79592 0.02922 0.11058
 H1341 H 0.79285 0.00029 0.06429
 H1342 H 0.77810 0.07071 0.14203
 H1343 H 0.70024 0.09366 0.06644
 H1344 H 0.68313 0.13538 0.09638
 H1345 H 0.68906 0.16806 0.13926
 H1346 H 0.76173 0.11418 0.17160
 C1347 C 0.27411 0.56711 0.56065
 C1348 C 0.27035 0.58371 0.58675
 C1349 C 0.24657 0.57697 0.60637
 C1350 C 0.22717 0.55344 0.59962
 C1351 C 0.23105 0.53705 0.57352
 C1352 C 0.25450 0.54381 0.55392
 C1353 C 0.24224 0.59422 0.63202
 C1354 C 0.26106 0.61844 0.63799
 C1355 C 0.28506 0.62483 0.61847
 C1356 C 0.28972 0.60726 0.59321
 C1357 C 0.30354 0.64931 0.62402
 C1358 C 0.29754 0.66806 0.64792
 C1359 C 0.27337 0.66239 0.66692
 C1360 C 0.25564 0.63710 0.66250
 H1361 H 0.29223 0.57226 0.54550
 H1362 H 0.20882 0.54794 0.61433
 H1363 H 0.21560 0.51923 0.56844
 H1364 H 0.22381 0.58927 0.64688
 H1365 H 0.30795 0.61239 0.57817
 H1366 H 0.32209 0.65445 0.60941
 H1367 H 0.31156 0.68736 0.65143
 H1368 H 0.23685 0.63290 0.67712
 C1369 C 0.77644 0.93868 0.93001
 C1370 C 0.77540 0.92090 0.90443
 C1371 C 0.75484 0.92759 0.88155
 C1372 C 0.73587 0.95226 0.88465
 C1373 C 0.73668 0.96956 0.91052
 C1374 C 0.75687 0.96283 0.93345
 C1375 C 0.75302 0.90902 0.85645
 C1376 C 0.77095 0.88343 0.85439
 C1377 C 0.79158 0.87700 0.87734
 C1378 C 0.79398 0.89598 0.90192
 C1379 C 0.80893 0.85115 0.87582
 C1380 C 0.80518 0.83123 0.85238
 C1381 C 0.78448 0.83703 0.82965
 C1382 C 0.76790 0.86358 0.83036
 H1383 H 0.79202 0.93337 0.94767
 H1384 H 0.71990 0.95771 0.86742
 H1385 H 0.72110 0.98782 0.91293
 H1386 H 0.73708 0.91397 0.83900
 H1387 H 0.80965 0.89082 0.91957
 H1388 H 0.82487 0.84595 0.89317
 H1389 H 0.81840 0.81105 0.85210
 H1390 H 0.75173 0.86808 0.81300
 C1391 C 0.24371 0.45279 0.44120
 C1392 C 0.24514 0.43480 0.41588
 C1393 C 0.26580 0.44141 0.39303
 C1394 C 0.28462 0.46619 0.39602
 C1395 C 0.28330 0.48384 0.42162
 C1396 C 0.26286 0.47719 0.44437
 C1397 C 0.26767 0.42277 0.36800
 C1398 C 0.24964 0.39728 0.36601
 C1399 C 0.22903 0.39093 0.38906
 C1400 C 0.22663 0.40991 0.41354
 C1401 C 0.21161 0.36518 0.38777
 C1402 C 0.21516 0.34530 0.36437
 C1403 C 0.23566 0.35110 0.34150
 C1404 C 0.25245 0.37745 0.34193
 H1405 H 0.22783 0.44769 0.45869
 H1406 H 0.30066 0.47162 0.37882
 H1407 H 0.29846 0.50246 0.42386
 H1408 H 0.28361 0.42767 0.35052
 H1409 H 0.21090 0.40486 0.43118
 H1410 H 0.19575 0.36004 0.40523
 H1411 H 0.20190 0.32515 0.36418
 H1412 H 0.26845 0.38178 0.32437
 C1413 C 0.26741 0.95288 0.05705
 C1414 C 0.26368 0.92792 0.07516
 C1415 C 0.24254 0.90588 0.06740
 C1416 C 0.22507 0.90961 0.04179
 C1417 C 0.22828 0.93511 0.02433
 C1418 C 0.24968 0.95680 0.03168
 C1419 C 0.23883 0.88088 0.08571
 C1420 C 0.25532 0.87826 0.11213
 C1421 C 0.27592 0.90081 0.12005
 C1422 C 0.28035 0.92515 0.10128
 C1423 C 0.29148 0.89899 0.14694
 C1424 C 0.28650 0.87523 0.16606
 C1425 C 0.26646 0.85249 0.15835
 C1426 C 0.25116 0.85384 0.13114
 H1427 H 0.28385 0.96960 0.06291
 H1428 H 0.20854 0.89313 0.03560
 H1429 H 0.21397 0.93801 0.00515
 H1430 H 0.22273 0.86387 0.07975
 H1431 H 0.29628 0.94229 0.10736
 H1432 H 0.30723 0.91613 0.15336
 H1433 H 0.29867 0.87441 0.18686
 H1434 H 0.23553 0.83640 0.12524
 C1435 C 0.72854 0.43931 0.54985
 C1436 C 0.73379 0.41511 0.56870
 C1437 C 0.75584 0.39387 0.56124
 C1438 C 0.77252 0.39754 0.53508
 C1439 C 0.76760 0.42216 0.51673
 C1440 C 0.74542 0.44313 0.52383
 C1441 C 0.76115 0.36968 0.58030
 C1442 C 0.74523 0.36699 0.60710
 C1443 C 0.72350 0.38863 0.61458
 C1444 C 0.71764 0.41222 0.59519
 C1445 C 0.70823 0.38666 0.64165
 C1446 C 0.71468 0.36378 0.66142
 C1447 C 0.73608 0.34204 0.65434
 C1448 C 0.75101 0.34343 0.62688
 H1449 H 0.71140 0.45539 0.55550
 H1450 H 0.78969 0.38166 0.52906
 H1451 H 0.78131 0.42496 0.49711
 H1452 H 0.77802 0.35334 0.57456
 H1453 H 0.70091 0.42869 0.60100
 H1454 H 0.69155 0.40305 0.64770
 H1455 H 0.70263 0.36290 0.68230
 H1456 H 0.76762 0.32677 0.62136
 C1457 C 0.04207 0.08307 0.76151
 C1458 C 0.06393 0.10502 0.76657
 C1459 C 0.08393 0.10202 0.79076
 C1460 C 0.08073 0.07813 0.81038
 C1461 C 0.05885 0.05666 0.80539
 C1462 C 0.03979 0.05851 0.78064
 C1463 C 0.10732 0.12243 0.79454
 C1464 C 0.11087 0.14608 0.77464
 C1465 C 0.08995 0.15009 0.75141
 C1466 C 0.06673 0.12944 0.74740
 C1467 C 0.09291 0.17448 0.73228
 C1468 C 0.11678 0.19423 0.73564
 C1469 C 0.13839 0.18956 0.75773
 C1470 C 0.13524 0.16561 0.77737
 H1471 H 0.02763 0.08447 0.74223
 H1472 H 0.09566 0.07562 0.82917
 H1473 H 0.05742 0.03785 0.82033
 H1474 H 0.12306 0.11961 0.81266
 H1475 H 0.05118 0.13211 0.72911
 H1476 H 0.07697 0.17811 0.71453
 H1477 H 0.11893 0.21270 0.72037
 H1478 H 0.15167 0.16229 0.79473
 C1479 C 0.56330 0.55215 0.26341
 C1480 C 0.58228 0.57665 0.25997
 C1481 C 0.57469 0.59937 0.23965
 C1482 C 0.54856 0.59681 0.22265
 C1483 C 0.53018 0.57190 0.22566
 C1484 C 0.53716 0.54961 0.24636
 C1485 C 0.59356 0.62400 0.23634
 C1486 C 0.62032 0.62577 0.25248
 C1487 C 0.62820 0.60268 0.27229
 C1488 C 0.60892 0.57849 0.27623
 C1489 C 0.65546 0.60400 0.28756
 C1490 C 0.67486 0.62787 0.28311
 C1491 C 0.66700 0.65115 0.26387
 C1492 C 0.63957 0.65006 0.24876
 H1493 H 0.56891 0.53491 0.27927
 H1494 H 0.54258 0.61382 0.20672
 H1495 H 0.51058 0.56996 0.21170
 H1496 H 0.58768 0.64153 0.22089
 H1497 H 0.61488 0.56087 0.29156
 H1498 H 0.66191 0.58644 0.30271
 H1499 H 0.69589 0.62829 0.29499
 H1500 H 0.63351 0.66779 0.23363
 C1501 C 0.06061 0.94079 0.25222
 C1502 C 0.08753 0.92508 0.25139
 C1503 C 0.11248 0.93543 0.26757
 C1504 C 0.11011 0.96215 0.28357
 C1505 C 0.08308 0.97795 0.28409
 C1506 C 0.05781 0.96723 0.26872
 C1507 C 0.13901 0.91854 0.26786
 C1508 C 0.14059 0.89142 0.25226
 C1509 C 0.11562 0.88188 0.23542
 C1510 C 0.08947 0.89880 0.23495
 C1511 C 0.11673 0.85502 0.21986
 C1512 C 0.14177 0.83695 0.22192
 C1513 C 0.16642 0.84539 0.23936
 C1514 C 0.16619 0.87314 0.25385
 H1515 H 0.04174 0.93255 0.23949
 H1516 H 0.12896 0.97054 0.29614
 H1517 H 0.08165 0.99781 0.29763
 H1518 H 0.15806 0.92613 0.28068
 H1519 H 0.07029 0.89108 0.22236
 H1520 H 0.09788 0.84760 0.20667
 H1521 H 0.14170 0.81594 0.21010
 H1522 H 0.18515 0.87977 0.26729
 C1523 C 0.55983 0.44422 0.74926
 C1524 C 0.58426 0.42481 0.74970
 C1525 C 0.60929 0.43137 0.76774
 C1526 C 0.60923 0.45717 0.78525
 C1527 C 0.58436 0.47594 0.78536
 C1528 C 0.55952 0.46970 0.76729
 C1529 C 0.63357 0.41168 0.76853
 C1530 C 0.63267 0.38507 0.75227
 C1531 C 0.60740 0.37840 0.73456
 C1532 C 0.58362 0.39854 0.73299
 C1533 C 0.60604 0.35137 0.71914
 C1534 C 0.62925 0.33087 0.72161
 C1535 C 0.65448 0.33729 0.73902
 C1536 C 0.65630 0.36464 0.75397
 H1537 H 0.54074 0.43926 0.73525
 H1538 H 0.62808 0.46244 0.79941
 H1539 H 0.58432 0.49508 0.79997
 H1540 H 0.65278 0.41670 0.78234
 H1541 H 0.56428 0.39340 0.71938
 H1542 H 0.58684 0.34592 0.70551
 H1543 H 0.62761 0.31003 0.70962
 H1544 H 0.67568 0.36962 0.76756
 C1545 C 0.93475 0.04263 0.24856
 C1546 C 0.90858 0.05971 0.24987
 C1547 C 0.88767 0.05498 0.27292
 C1548 C 0.89362 0.03316 0.29443
 C1549 C 0.92040 0.01697 0.29359
 C1550 C 0.94126 0.02156 0.27065
 C1551 C 0.86181 0.07281 0.27459
 C1552 C 0.85742 0.09619 0.25427
 C1553 C 0.87887 0.10101 0.23163
 C1554 C 0.90376 0.08233 0.22912
 C1555 C 0.87587 0.12528 0.21251
 C1556 C 0.85241 0.14521 0.21623
 C1557 C 0.83053 0.14063 0.23812
 C1558 C 0.83278 0.11568 0.25686
 H1559 H 0.95063 0.04636 0.23074
 H1560 H 0.87804 0.02929 0.31244
 H1561 H 0.92509 0.00131 0.31122
 H1562 H 0.84577 0.06923 0.29229
 H1563 H 0.92008 0.08620 0.21171
 H1564 H 0.89233 0.12951 0.19535
 H1565 H 0.85162 0.16466 0.20218
 H1566 H 0.81637 0.11241 0.27428
 C1567 C 0.44305 0.55896 0.75370
 C1568 C 0.42195 0.58170 0.75795
 C1569 C 0.41029 0.58703 0.78671
 C1570 C 0.42090 0.57048 0.81085
 C1571 C 0.44314 0.54915 0.80662
 C1572 C 0.45356 0.54244 0.77799
 C1573 C 0.38906 0.60953 0.79108
 C1574 C 0.38035 0.62772 0.76736
 C1575 C 0.39301 0.62331 0.73886
 C1576 C 0.41326 0.59993 0.73421
 C1577 C 0.38528 0.64249 0.71553
 C1578 C 0.36490 0.66555 0.72030
 C1579 C 0.35158 0.66934 0.74824
 C1580 C 0.35928 0.65041 0.77171
 H1581 H 0.45236 0.55497 0.73180
 H1582 H 0.41290 0.57488 0.83316
 H1583 H 0.45276 0.53833 0.82584
 H1584 H 0.37985 0.61332 0.81307
 H1585 H 0.42268 0.59632 0.71228
 H1586 H 0.39487 0.63957 0.69361
 H1587 H 0.35873 0.67983 0.70193
 H1588 H 0.34883 0.65340 0.79326
 C1589 C 0.94781 0.94778 0.73967
 C1590 C 0.93111 0.92131 0.73903
 C1591 C 0.93896 0.89751 0.75801
 C1592 C 0.96310 0.90072 0.77754
 C1593 C 0.97915 0.92729 0.77849
 C1594 C 0.97197 0.95094 0.75938
 C1595 C 0.92216 0.87118 0.75769
 C1596 C 0.89697 0.86864 0.73933
 C1597 C 0.88891 0.89258 0.72059
 C1598 C 0.90631 0.91852 0.72018
 C1599 C 0.86301 0.89052 0.70322
 C1600 C 0.84471 0.86547 0.70515
 C1601 C 0.85247 0.84166 0.72373
 C1602 C 0.87900 0.84302 0.74026
 H1603 H 0.94198 0.96595 0.72499
 H1604 H 0.96924 0.88287 0.79248
 H1605 H 0.99709 0.92949 0.79448
 H1606 H 0.92818 0.85300 0.77233
 H1607 H 0.90008 0.93684 0.70581
 H1608 H 0.85642 0.90866 0.68882
 H1609 H 0.82424 0.86478 0.69233
 H1610 H 0.88476 0.82488 0.75498
 C1611 C 0.43728 0.44309 0.24048
 C1612 C 0.41699 0.41973 0.24395
 C1613 C 0.42383 0.39598 0.26331
 C1614 C 0.45072 0.39646 0.27935
 C1615 C 0.47037 0.42049 0.27657
 C1616 C 0.46389 0.44389 0.25695
 C1617 C 0.40340 0.37254 0.26670
 C1618 C 0.37588 0.37317 0.25172
 C1619 C 0.36884 0.39747 0.23305
 C1620 C 0.38964 0.42028 0.22887
 C1621 C 0.34089 0.39879 0.21910
 C1622 C 0.32000 0.37628 0.22360
 C1623 C 0.32698 0.35174 0.24150
 C1624 C 0.35503 0.35017 0.25541
 H1625 H 0.43210 0.46106 0.22530
 H1626 H 0.45622 0.37862 0.29454
 H1627 H 0.49041 0.42098 0.29003
 H1628 H 0.40866 0.35417 0.28138
 H1629 H 0.38429 0.43877 0.21438
 H1630 H 0.33512 0.41734 0.20489
 H1631 H 0.29851 0.37774 0.21262
 H1632 H 0.36034 0.33139 0.26953
   
