data_POSCAR
  _audit_creation_date              2014-09-24
  _audit_creation_method            'ToBaCCo'
  _symmetry_space_group_name_H-M    'P1'
  _symmetry_Int_Tables_number       1
  _symmetry_cell_setting            triclinic
  loop_
  _symmetry_equiv_pos_as_xyz
 x,y,z
_cell_length_a 64.9063
_cell_length_b 66.3811
_cell_length_c 68.8539
_cell_angle_alpha 91.395300
_cell_angle_beta 90.866600
_cell_angle_gamma 90.147900
loop_
  _atom_site_label
  _atom_site_type_symbol
  _atom_site_fract_x
  _atom_site_fract_y
  _atom_site_fract_z
C1 C 0.16100 0.20946 0.18809
 C2 C 0.17054 0.21574 0.17114
 C3 C 0.18851 0.20659 0.16507
 C4 C 0.19711 0.19093 0.17580
 C5 C 0.18777 0.18480 0.19261
 C6 C 0.16955 0.19415 0.19880
 C7 C 0.14376 0.21605 0.19765
 N8 N 0.14156 0.20515 0.21394
 C9 C 0.15732 0.19170 0.21475
 C10 C 0.19976 0.16973 0.20020
 N11 N 0.21600 0.16648 0.18830
 C12 C 0.21449 0.17940 0.17336
 C13 C 0.19478 0.21628 0.14873
 N14 N 0.18100 0.23105 0.14472
 C15 C 0.16607 0.23075 0.15832
 H16 H 0.13386 0.22829 0.19327
 H17 H 0.15973 0.18089 0.22607
 H18 H 0.19674 0.16157 0.21328
 H19 H 0.22540 0.18053 0.16169
 H20 H 0.20845 0.21292 0.14046
 H21 H 0.15327 0.24114 0.15921
 C22 C 0.67503 0.73194 0.70190
 C23 C 0.68577 0.73492 0.68465
 C24 C 0.70196 0.72234 0.67971
 C25 C 0.70742 0.70643 0.69180
 C26 C 0.69669 0.70341 0.70867
 C27 C 0.68049 0.71630 0.71379
 C28 C 0.65868 0.74174 0.71045
 N29 N 0.65412 0.73244 0.72726
 C30 C 0.66740 0.71678 0.72930
 C31 C 0.70480 0.68663 0.71720
 N32 N 0.72020 0.67929 0.70592
 C33 C 0.72193 0.69139 0.69036
 C34 C 0.70931 0.72856 0.66219
 N35 N 0.69786 0.74445 0.65629
 C36 C 0.68342 0.74843 0.66993
 H37 H 0.65091 0.75486 0.70490
 H38 H 0.66741 0.70623 0.74102
 H39 H 0.69981 0.68024 0.73067
 H40 H 0.73257 0.68911 0.67855
 H41 H 0.72174 0.72172 0.65407
 H42 H 0.67202 0.76027 0.66917
 C43 C 0.31757 0.80596 0.71623
 C44 C 0.30316 0.80067 0.70163
 C45 C 0.28550 0.81200 0.69922
 C46 C 0.28211 0.82893 0.71136
 C47 C 0.29643 0.83426 0.72560
 C48 C 0.31421 0.82261 0.72818
 C49 C 0.33565 0.79723 0.72232
 N50 N 0.34330 0.80809 0.73779
 C51 C 0.33028 0.82370 0.74143
 C52 C 0.28922 0.85120 0.73510
 N53 N 0.27068 0.85643 0.72712
 C54 C 0.26630 0.84266 0.71256
 C55 C 0.27426 0.80312 0.68416
 N56 N 0.28477 0.78677 0.67736
 C57 C 0.30243 0.78517 0.68805
 H58 H 0.34235 0.78355 0.71635
 H59 H 0.33223 0.83494 0.75297
 H60 H 0.29688 0.85865 0.74735
 H61 H 0.25293 0.84271 0.70300
 H62 H 0.25966 0.80835 0.67842
 H63 H 0.31384 0.77343 0.68627
 C64 C 0.81287 0.26878 0.22157
 C65 C 0.79962 0.26425 0.20576
 C66 C 0.78185 0.27533 0.20314
 C67 C 0.77726 0.29126 0.21603
 C68 C 0.79033 0.29582 0.23156
 C69 C 0.80821 0.28432 0.23444
 C70 C 0.83099 0.26032 0.22788
 N71 N 0.83759 0.27016 0.24449
 C72 C 0.82356 0.28496 0.24845
 C73 C 0.78215 0.31229 0.24126
 N74 N 0.76447 0.31778 0.23193
 C75 C 0.76142 0.30490 0.21651
 C76 C 0.77178 0.26756 0.18693
 N77 N 0.78310 0.25210 0.17954
 C78 C 0.80021 0.24999 0.19091
 H79 H 0.83822 0.24740 0.22102
 H80 H 0.82437 0.29582 0.26039
 H81 H 0.78864 0.31974 0.25411
 H82 H 0.74892 0.30573 0.20597
 H83 H 0.75739 0.27288 0.18080
 H84 H 0.81205 0.23874 0.18867
 C85 C 0.78963 0.70238 0.26411
 C86 C 0.77888 0.70790 0.28102
 C87 C 0.76125 0.69743 0.28580
 C88 C 0.75423 0.68127 0.27399
 C89 C 0.76470 0.67603 0.25732
 C90 C 0.78243 0.68668 0.25236
 C91 C 0.80712 0.70973 0.25555
 N92 N 0.81066 0.69893 0.23876
 C93 C 0.79542 0.68479 0.23692
 C94 C 0.75442 0.66001 0.24858
 N95 N 0.73804 0.65527 0.25965
 C96 C 0.73779 0.66823 0.27524
 C97 C 0.75353 0.70638 0.30233
 N98 N 0.76598 0.72205 0.30780
 C99 C 0.78164 0.72302 0.29494
 H100 H 0.81612 0.72239 0.26109
 H101 H 0.79392 0.67336 0.22553
 H102 H 0.75877 0.65210 0.23533
 H103 H 0.72643 0.66822 0.28659
 H104 H 0.73972 0.70192 0.30976
 H105 H 0.79373 0.73430 0.29533
 C106 C 0.31950 0.22345 -0.21348
 C107 C 0.30546 0.23132 -0.20009
 C108 C 0.28732 0.22118 -0.19663
 C109 C 0.28298 0.20295 -0.20668
 C110 C 0.29679 0.19529 -0.21999
 C111 C 0.31516 0.20572 -0.22356
 C112 C 0.33828 0.23020 -0.21954
 N113 N 0.34561 0.21713 -0.23336
 C114 C 0.33135 0.20209 -0.23588
 C115 C 0.28875 0.17743 -0.22728
 N116 N 0.27025 0.17381 -0.21877
 C117 C 0.26673 0.18962 -0.20616
 C118 C 0.27674 0.23250 -0.18299
 N119 N 0.28803 0.24928 -0.17831
 C120 C 0.30565 0.24857 -0.18869
 H121 H 0.34552 0.24414 -0.21462
 H122 H 0.33268 0.18910 -0.24556
 H123 H 0.29604 0.16809 -0.23823
 H124 H 0.25370 0.19134 -0.19670
 H125 H 0.26179 0.22895 -0.17720
 H126 H 0.31786 0.25971 -0.18790
 C127 C 0.70454 0.28110 -0.21079
 C128 C 0.71881 0.27537 -0.19648
 C129 C 0.73746 0.28534 -0.19455
 C130 C 0.74197 0.30132 -0.20671
 C131 C 0.72787 0.30712 -0.22067
 C132 C 0.70907 0.29672 -0.22290
 C133 C 0.68556 0.27361 -0.21637
 N134 N 0.67833 0.28406 -0.23186
 C135 C 0.69278 0.29834 -0.23580
 C136 C 0.73633 0.32325 -0.22998
 N137 N 0.75535 0.32739 -0.22206
 C138 C 0.75878 0.31379 -0.20783
 C139 C 0.74840 0.27644 -0.17983
 N140 N 0.73678 0.26134 -0.17270
 C141 C 0.71863 0.26060 -0.18280
 H142 H 0.67824 0.26075 -0.21000
 H143 H 0.69171 0.30937 -0.24707
 H144 H 0.72909 0.33101 -0.24189
 H145 H 0.77210 0.31327 -0.19825
 H146 H 0.76361 0.28076 -0.17456
 H147 H 0.70633 0.24990 -0.18055
 C148 C 0.18886 0.79626 0.29877
 C149 C 0.19934 0.79036 0.31562
 C150 C 0.21766 0.79970 0.32115
 C151 C 0.22563 0.81520 0.30995
 C152 C 0.21511 0.82124 0.29356
 C153 C 0.19660 0.81170 0.28788
 C154 C 0.17115 0.78939 0.28957
 N155 N 0.16794 0.80035 0.27341
 C156 C 0.18337 0.81411 0.27231
 C157 C 0.22630 0.83653 0.28567
 N158 N 0.24359 0.84002 0.29679
 C159 C 0.24315 0.82684 0.31171
 C160 C 0.22437 0.79093 0.33801
 N161 N 0.21046 0.77664 0.34290
 C162 C 0.19514 0.77617 0.32924
 H163 H 0.16136 0.77726 0.29424
 H164 H 0.18514 0.82471 0.26073
 H165 H 0.22217 0.84398 0.27239
 H166 H 0.25434 0.82591 0.32343
 H167 H 0.23812 0.79495 0.34633
 H168 H 0.18192 0.76619 0.32917
 C169 C 0.47844 0.44639 0.48224
 C170 C 0.48119 0.45808 0.46580
 C171 C 0.46862 0.47447 0.46265
 C172 C 0.45298 0.47926 0.47574
 C173 C 0.45011 0.46769 0.49193
 C174 C 0.46290 0.45104 0.49516
 C175 C 0.48859 0.42979 0.48907
 N176 N 0.47949 0.42413 0.50569
 C177 C 0.46370 0.43695 0.50952
 C178 C 0.43386 0.47600 0.50199
 N179 N 0.42681 0.49218 0.49216
 C180 C 0.43845 0.49423 0.47611
 C181 C 0.47464 0.48296 0.44561
 N182 N 0.49043 0.47195 0.43825
 C183 C 0.49456 0.45670 0.45050
 H184 H 0.50153 0.42225 0.48236
 H185 H 0.45375 0.43621 0.52197
 H186 H 0.42752 0.47054 0.51533
 H187 H 0.43669 0.50597 0.46557
 H188 H 0.46772 0.49588 0.43881
 H189 H 0.50641 0.44543 0.44842
 C190 C -0.03171 -0.07832 0.97830
 C191 C -0.02541 -0.06826 0.96162
 C192 C -0.03657 -0.05187 0.95516
 C193 C -0.05429 -0.04554 0.96496
 C194 C -0.06052 -0.05562 0.98109
 C195 C -0.04903 -0.07181 0.98795
 C196 C -0.02372 -0.09417 0.98864
 N197 N -0.03561 -0.09710 1.00455
 C198 C -0.05120 -0.08342 1.00395
 C199 C -0.07818 -0.04657 0.98758
 N200 N -0.08302 -0.03098 0.97584
 C201 C -0.06821 -0.03023 0.96199
 C202 C -0.02684 -0.04475 0.93913
 N203 N -0.01009 -0.05640 0.93556
 C204 C -0.00910 -0.07087 0.94919
 H205 H -0.00973 -0.10222 0.98517
 H206 H -0.06366 -0.08201 1.01414
 H207 H -0.08639 -0.05086 1.00039
 H208 H -0.06776 -0.01984 0.95015
 H209 H -0.03173 -0.03213 0.93054
 H210 H 0.00276 -0.08226 0.95015
 C211 C 1.01200 0.55762 0.95111
 C212 C 1.00488 0.54728 0.93436
 C213 C 1.01412 0.52949 0.92843
 C214 C 1.03063 0.52178 0.93934
 C215 C 1.03766 0.53202 0.95587
 C216 C 1.02810 0.55002 0.96193
 C217 C 1.00577 0.57517 0.96012
 N218 N 1.01753 0.57856 0.97645
 C219 C 1.03125 0.56305 0.97760
 C220 C 1.05395 0.52126 0.96325
 N221 N 1.05706 0.50454 0.95173
 C222 C 1.04263 0.50486 0.93709
 C223 C 1.00392 0.52287 0.91174
 N224 N 0.98867 0.53620 0.90757
 C225 C 0.98924 0.55118 0.92136
 H226 H 0.99296 0.58426 0.95529
 H227 H 1.04308 0.56140 0.98868
 H228 H 1.06244 0.52530 0.97641
 H229 H 1.04119 0.49407 0.92514
 H230 H 1.00713 0.50920 0.90346
 H231 H 0.97913 0.56412 0.92182
 C232 C 0.53855 0.05072 0.45956
 C233 C 0.53429 0.03936 0.44255
 C234 C 0.54737 0.02399 0.43689
 C235 C 0.56492 0.01976 0.44820
 C236 C 0.56937 0.03122 0.46474
 C237 C 0.55606 0.04682 0.47052
 C238 C 0.52822 0.06618 0.46877
 N239 N 0.53907 0.07183 0.48502
 C240 C 0.55619 0.06016 0.48617
 C241 C 0.58736 0.02387 0.47262
 N242 N 0.59394 0.00796 0.46143
 C243 C 0.58013 0.00549 0.44641
 C244 C 0.53967 0.01591 0.41966
 N245 N 0.52228 0.02609 0.41466
 C246 C 0.51888 0.04040 0.42871
 H247 H 0.51386 0.07284 0.46401
 H248 H 0.56762 0.06099 0.49779
 H249 H 0.59454 0.02940 0.48599
 H250 H 0.58112 -0.00551 0.43462
 H251 H 0.54637 0.00360 0.41135
 H252 H 0.50651 0.05130 0.42858
 C253 C -0.02511 0.05193 0.53805
 C254 C -0.01875 0.04381 0.55578
 C255 C -0.02827 0.02671 0.56250
 C256 C -0.04417 0.01740 0.55152
 C257 C -0.05045 0.02547 0.53409
 C258 C -0.04086 0.04283 0.52731
 C259 C -0.01851 0.06822 0.52780
 N260 N -0.02990 0.06928 0.51110
 C261 C -0.04363 0.05375 0.51077
 C262 C -0.06581 0.01324 0.52643
 N263 N -0.06900 -0.00213 0.53874
 C264 C -0.05580 0.00033 0.55415
 C265 C -0.01893 0.02221 0.57993
 N266 N -0.00396 0.03613 0.58396
 C267 C -0.00376 0.04938 0.56920
 H268 H -0.00602 0.07828 0.53209
 H269 H -0.05501 0.05064 0.49944
 H270 H -0.07371 0.01513 0.51264
 H271 H -0.05474 -0.00953 0.56641
 H272 H -0.02255 0.00951 0.58886
 H273 H 0.00641 0.06227 0.56837
 C274 C 0.46981 0.56130 0.03572
 C275 C 0.47469 0.54758 0.05019
 C276 C 0.46196 0.53127 0.05326
 C277 C 0.44410 0.52846 0.04169
 C278 C 0.43942 0.54198 0.02728
 C279 C 0.45245 0.55846 0.02421
 C280 C 0.47933 0.57856 0.02985
 N281 N 0.46830 0.58642 0.01483
 C282 C 0.45180 0.57399 0.01131
 C283 C 0.42123 0.53574 0.01856
 N284 N 0.41466 0.51878 0.02729
 C285 C 0.42864 0.51420 0.04143
 C286 C 0.47068 0.52060 0.06824
 N287 N 0.48844 0.53003 0.07412
 C288 C 0.49088 0.54658 0.06316
 H289 H 0.49365 0.58445 0.03591
 H290 H 0.43969 0.57622 0.00063
 H291 H 0.41343 0.54302 0.00664
 H292 H 0.42745 0.50168 0.05113
 H293 H 0.46476 0.50682 0.07415
 H294 H 0.50347 0.55726 0.06460
 C295 C 0.53241 -0.04398 0.03945
 C296 C 0.52421 -0.03368 0.05561
 C297 C 0.53383 -0.01645 0.06302
 C298 C 0.55176 -0.00925 0.05436
 C299 C 0.55977 -0.01941 0.03845
 C300 C 0.55002 -0.03680 0.03092
 C301 C 0.52626 -0.06092 0.02892
 N302 N 0.53968 -0.06408 0.01418
 C303 C 0.55427 -0.04937 0.01535
 C304 C 0.57697 -0.00907 0.03292
 N305 N 0.57972 0.00717 0.04509
 C306 C 0.56429 0.00720 0.05825
 C307 C 0.52237 -0.00952 0.07843
 N308 N 0.50600 -0.02207 0.08057
 C309 C 0.50706 -0.03690 0.06663
 H310 H 0.51276 -0.07001 0.03155
 H311 H 0.56713 -0.04795 0.00565
 H312 H 0.58655 -0.01293 0.02066
 H313 H 0.56239 0.01824 0.06991
 H314 H 0.52552 0.00395 0.08716
 H315 H 0.49624 -0.04924 0.06469
 C316 C 1.05219 0.43974 0.54173
 C317 C 1.04611 0.45386 0.55595
 C318 C 1.05690 0.47171 0.55854
 C319 C 1.07381 0.47575 0.54682
 C320 C 1.07988 0.46184 0.53284
 C321 C 1.06892 0.44368 0.53019
 C322 C 1.04448 0.42120 0.53604
 N323 N 1.05605 0.41374 0.52125
 C324 C 1.07104 0.42743 0.51756
 C325 C 1.09680 0.46975 0.52391
 N326 N 1.10118 0.48829 0.53200
 C327 C 1.08698 0.49191 0.54608
 C328 C 1.04770 0.48243 0.57339
 N329 N 1.03152 0.47153 0.57979
 C330 C 1.03043 0.45403 0.56916
 H331 H 1.03115 0.41387 0.54199
 H332 H 1.08270 0.42565 0.50659
 H333 H 1.10485 0.46251 0.51203
 H334 H 1.08639 0.50501 0.55569
 H335 H 1.05230 0.49718 0.57896
 H336 H 1.01925 0.44214 0.57109
 C337 C 0.40408 0.02942 0.22748
 H338 H 0.40312 0.04289 0.23659
 C339 C 0.41917 0.02791 0.21328
 H340 H 0.42956 0.04046 0.21133
 C341 C 0.39170 -0.00331 0.21913
 H342 H 0.38136 -0.01566 0.22178
 C343 C 0.40657 -0.00547 0.20477
 H344 H 0.40741 -0.01951 0.19649
 N345 N 0.39061 0.01402 0.23002
 C346 C 0.33817 0.04130 0.25945
 H347 H 0.33707 0.03116 0.27146
 C348 C 0.32361 0.05652 0.25722
 H349 H 0.31123 0.05784 0.26754
 C350 C 0.35515 0.05108 0.23094
 H351 H 0.36725 0.04870 0.22055
 C352 C 0.34095 0.06660 0.22820
 H353 H 0.34260 0.07629 0.21590
 Zn354 Zn 0.37151 0.01690 0.25043
 N355 N 0.35358 0.03890 0.24646
 C356 C 0.38461 0.03750 0.28528
 N357 N 0.38692 0.02075 0.27375
 C358 C 0.40069 0.00617 0.27838
 C359 C 0.41246 0.00785 0.29547
 C360 C 0.39610 0.03980 0.30251
 C361 C 0.34271 -0.01180 0.23648
 C362 C 0.32892 -0.02790 0.23756
 C363 C 0.33937 -0.03188 0.27107
 C364 C 0.35315 -0.01590 0.26925
 N365 N 0.35460 -0.00624 0.25213
 H366 H 0.37391 0.04912 0.28112
 H367 H 0.40232 -0.00690 0.26885
 H368 H 0.42299 -0.00416 0.29910
 H369 H 0.39415 0.05328 0.31145
 H370 H 0.34385 -0.00357 0.22316
 H371 H 0.31986 -0.03224 0.22481
 H372 H 0.33801 -0.03886 0.28504
 H373 H 0.36215 -0.01082 0.28175
 C374 C 0.32485 0.06944 0.24142
 C375 C 0.42059 0.01025 0.20171
 C376 C 0.32695 -0.03809 0.25511
 C377 C 0.41018 0.02480 0.30785
 C378 C 0.07868 0.00127 0.74475
 H379 H 0.07913 -0.01213 0.75338
 C380 C 0.06422 0.00281 0.72966
 H381 H 0.05369 -0.00960 0.72666
 C382 C 0.09238 0.03340 0.73791
 H383 H 0.10325 0.04536 0.74126
 C384 C 0.07817 0.03557 0.72265
 H385 H 0.07825 0.04926 0.71442
 N386 N 0.09265 0.01625 0.74833
 C387 C 0.14508 -0.01563 0.77334
 H388 H 0.14721 -0.00785 0.78722
 C389 C 0.15777 -0.03188 0.76834
 H390 H 0.16936 -0.03673 0.77868
 C391 C 0.12720 -0.01883 0.74319
 H392 H 0.11557 -0.01350 0.73321
 C393 C 0.13965 -0.03495 0.73752
 H394 H 0.13738 -0.04175 0.72320
 Zn395 Zn 0.11244 0.01200 0.76834
 N396 N 0.12981 -0.00976 0.76099
 C397 C 0.10167 -0.01025 0.80194
 N398 N 0.09773 0.00628 0.79120
 C399 C 0.08255 0.01939 0.79618
 C400 C 0.07085 0.01635 0.81270
 C401 C 0.09054 -0.01372 0.81876
 C402 C 0.14156 0.04103 0.75789
 C403 C 0.15420 0.05801 0.76029
 C404 C 0.14162 0.06236 0.79296
 C405 C 0.12918 0.04534 0.78990
 N406 N 0.12919 0.03519 0.77250
 H407 H 0.11347 -0.02077 0.79759
 H408 H 0.07949 0.03224 0.78722
 H409 H 0.05862 0.02685 0.81610
 H410 H 0.09438 -0.02665 0.82736
 H411 H 0.14147 0.03254 0.74427
 H412 H 0.16357 0.06264 0.74831
 H413 H 0.14152 0.07009 0.80698
 H414 H 0.11962 0.04022 0.80151
 C415 C 0.15502 -0.04191 0.75026
 C416 C 0.06399 0.02003 0.71822
 C417 C 0.15429 0.06898 0.77801
 C418 C 0.07488 -0.00029 0.82442
 C419 C 0.57026 0.46453 0.22695
 H420 H 0.56962 0.45094 0.23528
 C421 C 0.55645 0.46721 0.21147
 H422 H 0.54535 0.45547 0.20779
 C423 C 0.58562 0.49631 0.22164
 H424 H 0.59680 0.50775 0.22582
 C425 C 0.57218 0.49957 0.20603
 H426 H 0.57314 0.51359 0.19837
 N427 N 0.58459 0.47891 0.23161
 C428 C 0.63584 0.44909 0.26080
 H429 H 0.63718 0.45835 0.27391
 C430 C 0.64908 0.43278 0.25795
 H431 H 0.66042 0.42945 0.26910
 C432 C 0.61892 0.44195 0.23068
 H433 H 0.60726 0.44565 0.22001
 C434 C 0.63191 0.42557 0.22718
 H435 H 0.63013 0.41690 0.21374
 Zn436 Zn 0.60256 0.47458 0.25301
 N437 N 0.62080 0.45305 0.24747
 C438 C 0.58991 0.45151 0.28493
 N439 N 0.58622 0.46840 0.27466
 C440 C 0.57069 0.48119 0.27953
 C441 C 0.55870 0.47763 0.29578
 C442 C 0.57840 0.44744 0.30132
 C443 C 0.63371 0.50257 0.24578
 C444 C 0.64646 0.51928 0.24933
 C445 C 0.62824 0.52604 0.27910
 C446 C 0.61596 0.50910 0.27507
 N447 N 0.61875 0.49787 0.25854
 H448 H 0.60193 0.44122 0.28062
 H449 H 0.56780 0.49431 0.27088
 H450 H 0.54645 0.48803 0.29943
 H451 H 0.58214 0.43429 0.30966
 H452 H 0.63581 0.49320 0.23289
 H453 H 0.65850 0.52250 0.23915
 H454 H 0.62543 0.53498 0.29215
 H455 H 0.60424 0.50500 0.28520
 C456 C 0.64704 0.42059 0.24107
 C457 C 0.55738 0.48489 0.20072
 C458 C 0.64379 0.53133 0.26618
 C459 C 0.56268 0.46069 0.30708
 C460 C 0.89890 0.51640 0.69660
 H461 H 0.90072 0.53055 0.70458
 C462 C 0.91174 0.51184 0.68104
 H463 H 0.92315 0.52279 0.67691
 C464 C 0.88169 0.48504 0.69239
 H465 H 0.87033 0.47441 0.69715
 C466 C 0.89431 0.47980 0.67683
 H467 H 0.89243 0.46513 0.66979
 N468 N 0.88407 0.50317 0.70180
 C469 C 0.84097 0.54151 0.73378
 H470 H 0.84004 0.53355 0.74727
 C471 C 0.82959 0.55911 0.73123
 H472 H 0.82014 0.56478 0.74296
 C473 C 0.85449 0.54373 0.70214
 H474 H 0.86381 0.53747 0.69064
 C475 C 0.84339 0.56135 0.69897
 H476 H 0.84437 0.56847 0.68503
 Zn477 Zn 0.86809 0.51020 0.72369
 N478 N 0.85333 0.53434 0.71943
 C479 C 0.88822 0.53031 0.75605
 N480 N 0.88678 0.51311 0.74496
 C481 C 0.89928 0.49712 0.74831
 C482 C 0.91362 0.49783 0.76360
 C483 C 0.90232 0.53164 0.77158
 C484 C 0.83441 0.48475 0.71459
 C485 C 0.82044 0.46905 0.71733
 C486 C 0.83542 0.46445 0.74924
 C487 C 0.84915 0.48012 0.74584
 N488 N 0.84872 0.48962 0.72857
 H489 H 0.87852 0.54305 0.75287
 H490 H 0.89795 0.48371 0.73912
 H491 H 0.92313 0.48477 0.76625
 H492 H 0.90332 0.54544 0.78025
 H493 H 0.83420 0.49277 0.70109
 H494 H 0.80966 0.46493 0.70575
 H495 H 0.83604 0.45711 0.76311
 H496 H 0.86017 0.48462 0.75704
 C497 C 0.83078 0.56932 0.71364
 C498 C 0.90959 0.49329 0.67094
 C499 C 0.82103 0.45848 0.73476
 C500 C 0.91520 0.51521 0.77555
 C501 C 0.21285 0.40865 0.00732
 H502 H 0.22164 0.40739 0.02070
 C503 C 0.19710 0.42289 0.00601
 H504 H 0.19365 0.43221 0.01865
 C505 C 0.20665 0.39777 -0.02526
 H506 H 0.21066 0.38820 -0.03753
 C507 C 0.19097 0.41196 -0.02729
 H508 H 0.18318 0.41314 -0.04122
 N509 N 0.21709 0.39623 -0.00808
 C510 C 0.24763 0.34393 0.01618
 H511 H 0.26023 0.34281 0.00611
 C512 C 0.24568 0.32978 0.03065
 H513 H 0.25676 0.31765 0.03146
 C514 C 0.21760 0.36086 0.02682
 H515 H 0.20655 0.37285 0.02514
 C516 C 0.21509 0.34703 0.04161
 H517 H 0.20233 0.34882 0.05143
 Zn518 Zn 0.23878 0.37736 -0.00557
 N519 N 0.23390 0.35927 0.01470
 C520 C 0.27452 0.38851 0.01631
 N521 N 0.26359 0.39181 -0.00032
 C522 C 0.26987 0.40573 -0.01317
 C523 C 0.28811 0.41658 -0.00975
 C524 C 0.29285 0.39894 0.02025
 C525 C 0.22474 0.34892 -0.03310
 C526 C 0.22598 0.33499 -0.04855
 C527 C 0.26060 0.34663 -0.05431
 C528 C 0.25870 0.36036 -0.03873
 N529 N 0.24097 0.36119 -0.02846
 H530 H 0.26903 0.37785 0.02665
 H531 H 0.26075 0.40826 -0.02616
 H532 H 0.29308 0.42733 -0.02031
 H533 H 0.30126 0.39615 0.03361
 H534 H 0.21095 0.34969 -0.02449
 H535 H 0.21290 0.32531 -0.05196
 H536 H 0.27505 0.34576 -0.06194
 H537 H 0.27163 0.36983 -0.03450
 C538 C 0.22937 0.33132 0.04376
 C539 C 0.18587 0.42471 -0.01149
 C540 C 0.24419 0.33354 -0.05924
 C541 C 0.29994 0.41312 0.00709
 C542 C 0.73627 0.09776 -0.01002
 H543 H 0.74419 0.09721 -0.02373
 C544 C 0.72117 0.08348 -0.00623
 H545 H 0.71731 0.07212 -0.01725
 C546 C 0.73182 0.11329 0.02099
 H547 H 0.73631 0.12470 0.03169
 C548 C 0.71652 0.09932 0.02537
 H549 H 0.70933 0.10012 0.03945
 N550 N 0.74125 0.11232 0.00348
 C551 C 0.76791 0.16129 -0.02892
 H552 H 0.78270 0.16296 -0.02158
 C553 C 0.76245 0.17422 -0.04383
 H554 H 0.77310 0.18596 -0.04776
 C555 C 0.73582 0.14435 -0.03210
 H556 H 0.72537 0.13285 -0.02736
 C557 C 0.72979 0.15683 -0.04716
 H558 H 0.71489 0.15444 -0.05412
 Zn559 Zn 0.76291 0.12995 -0.00291
 N560 N 0.75468 0.14664 -0.02346
 C561 C 0.79372 0.11438 -0.02832
 N562 N 0.78526 0.11348 -0.01041
 C563 C 0.79179 0.09981 0.00267
 C564 C 0.80780 0.08665 -0.00183
 C565 C 0.80964 0.10127 -0.03355
 C566 C 0.75671 0.16053 0.02529
 C567 C 0.76163 0.17313 0.04125
 C568 C 0.79503 0.15729 0.04316
 C569 C 0.78955 0.14517 0.02707
 N570 N 0.77053 0.14670 0.01870
 H571 H 0.78793 0.12501 -0.03869
 H572 H 0.78456 0.09922 0.01670
 H573 H 0.81307 0.07630 0.00908
 H574 H 0.81591 0.10194 -0.04800
 H575 H 0.74183 0.16172 0.01812
 H576 H 0.75045 0.18414 0.04614
 H577 H 0.81003 0.15530 0.04992
 H578 H 0.80057 0.13451 0.02138
 C579 C 0.74318 0.17203 -0.05324
 C580 C 0.71113 0.08410 0.01169
 C581 C 0.78097 0.17147 0.05055
 C582 C 0.81688 0.08712 -0.02021
 C583 C 0.22965 0.61619 0.49861
 H584 H 0.23826 0.61460 0.48533
 C585 C 0.21238 0.60409 0.50143
 H586 H 0.20754 0.59355 0.49000
 C587 C 0.22572 0.63183 0.52963
 H588 H 0.23122 0.64237 0.54074
 C589 C 0.20847 0.61993 0.53311
 H590 H 0.20093 0.62145 0.54699
 N591 N 0.23588 0.62982 0.51256
 C592 C 0.27222 0.67608 0.48498
 H593 H 0.28516 0.67682 0.49507
 C594 C 0.27121 0.68926 0.46952
 H595 H 0.28335 0.70029 0.46800
 C596 C 0.24047 0.66107 0.47518
 H597 H 0.22845 0.65016 0.47747
 C598 C 0.23894 0.67381 0.45939
 H599 H 0.22589 0.67220 0.44950
 Zn600 Zn 0.26032 0.64456 0.50845
 N601 N 0.25712 0.66217 0.48739
 C602 C 0.29298 0.62741 0.48687
 N603 N 0.28134 0.62567 0.50299
 C604 C 0.28366 0.60980 0.51495
 C605 C 0.29815 0.59482 0.51084
 C606 C 0.30774 0.61290 0.48230
 C607 C 0.25531 0.67676 0.53483
 C608 C 0.26040 0.68984 0.55035
 C609 C 0.28996 0.66904 0.55735
 C610 C 0.28439 0.65645 0.54159
 N611 N 0.26730 0.66049 0.53072
 H612 H 0.29076 0.63997 0.47739
 H613 H 0.27396 0.60862 0.52752
 H614 H 0.29942 0.58208 0.52030
 H615 H 0.31702 0.61477 0.46954
 H616 H 0.24196 0.67976 0.52576
 H617 H 0.25094 0.70299 0.55302
 H618 H 0.30351 0.66542 0.56593
 H619 H 0.29384 0.64357 0.53797
 C620 C 0.25452 0.68809 0.45630
 C621 C 0.20159 0.60578 0.51893
 C622 C 0.27802 0.68612 0.56182
 C623 C 0.31038 0.59621 0.49425
 C624 C 0.72976 0.88641 0.48971
 H625 H 0.73797 0.88806 0.50346
 C626 C 0.71264 0.89844 0.48593
 H627 H 0.70751 0.90888 0.49715
 C628 C 0.72657 0.87052 0.45865
 H629 H 0.73228 0.85988 0.44792
 C630 C 0.70960 0.88253 0.45411
 H631 H 0.70255 0.88095 0.43981
 N632 N 0.73615 0.87251 0.47630
 C633 C 0.77042 0.82768 0.50914
 H634 H 0.78396 0.82620 0.50025
 C635 C 0.76826 0.81571 0.52542
 H636 H 0.78014 0.80484 0.52867
 C637 C 0.73824 0.84317 0.51507
 H638 H 0.72640 0.85366 0.51094
 C639 C 0.73566 0.83184 0.53168
 H640 H 0.72207 0.83436 0.54030
 Zn641 Zn 0.75998 0.85729 0.48235
 N642 N 0.75561 0.84123 0.50439
 C643 C 0.79140 0.87703 0.50507
 N644 N 0.78133 0.87618 0.48759
 C645 C 0.78506 0.88994 0.47376
 C646 C 0.79947 0.90529 0.47719
 C647 C 0.80589 0.89223 0.50916
 C648 C 0.75346 0.82469 0.45636
 C649 C 0.75742 0.81162 0.44066
 C650 C 0.78890 0.82993 0.43513
 C651 C 0.78441 0.84256 0.45103
 N652 N 0.76676 0.83995 0.46109
 H653 H 0.78786 0.86624 0.51604
 H654 H 0.77659 0.88910 0.46011
 H655 H 0.80229 0.91596 0.46589
 H656 H 0.81334 0.89296 0.52333
 H657 H 0.73969 0.82275 0.46478
 H658 H 0.74668 0.79949 0.43727
 H659 H 0.80275 0.83267 0.42702
 H660 H 0.79500 0.85453 0.45519
 C661 C 0.75079 0.81785 0.53715
 C662 C 0.70229 0.89669 0.46788
 C663 C 0.77526 0.81425 0.42965
 C664 C 0.80997 0.90673 0.49517
 C665 C 0.02160 0.21939 0.41570
 H666 H 0.03590 0.22762 0.41438
 C667 C 0.01960 0.20520 0.43018
 H668 H 0.03252 0.20240 0.43987
 C669 C -0.01264 0.21315 0.40467
 H670 H -0.02530 0.21655 0.39496
 C671 C -0.01524 0.19868 0.41884
 H672 H -0.02993 0.19102 0.41986
 N673 N 0.00565 0.22302 0.40325
 C674 C 0.03250 0.24679 0.35091
 H675 H 0.02410 0.26079 0.34991
 C676 C 0.04671 0.24144 0.33669
 H677 H 0.04935 0.25155 0.32487
 C678 C 0.03940 0.21677 0.36775
 H679 H 0.03632 0.20709 0.37976
 C680 C 0.05381 0.21086 0.35388
 H681 H 0.06170 0.19661 0.35534
 Zn682 Zn 0.00975 0.24316 0.38467
 N683 N 0.02928 0.23459 0.36615
 C684 C 0.03767 0.27527 0.39393
 N685 N 0.01942 0.26649 0.39833
 C686 C 0.00769 0.27383 0.41306
 C687 C 0.01390 0.29100 0.42370
 C688 C 0.04449 0.29248 0.40422
 C689 C -0.02378 0.23420 0.35953
 C690 C -0.04165 0.23805 0.34869
 C691 C -0.04100 0.27231 0.36132
 C692 C -0.02319 0.26780 0.37194
 N693 N -0.01506 0.24894 0.37103
 H694 H 0.04704 0.26893 0.38250
 H695 H -0.00664 0.26641 0.41640
 H696 H 0.00408 0.29688 0.43507
 H697 H 0.05910 0.29920 0.40058
 H698 H -0.01678 0.21943 0.35877
 H699 H -0.04853 0.22602 0.33987
 H700 H -0.04701 0.28751 0.36204
 H701 H -0.01572 0.27952 0.38062
 C702 C 0.05765 0.22330 0.33812
 C703 C 0.00100 0.19460 0.43184
 C704 C -0.05051 0.25734 0.34951
 C705 C 0.03250 0.30062 0.41928
 C706 C -0.00640 0.70179 0.10628
 H707 H -0.02028 0.71070 0.10514
 C708 C -0.00378 0.68494 0.09409
 H709 H -0.01599 0.68074 0.08390
 C710 C 0.02638 0.69672 0.12095
 H711 H 0.03831 0.70170 0.13109
 C712 C 0.02975 0.67985 0.10887
 H713 H 0.04432 0.67202 0.10989
 N714 N 0.00857 0.70735 0.11935
 C715 C -0.02411 0.74754 0.15945
 H716 H -0.01462 0.76091 0.15863
 C717 C -0.04111 0.74751 0.17165
 H718 H -0.04481 0.76106 0.17992
 C719 C -0.03067 0.71366 0.14961
 H720 H -0.02627 0.70034 0.14139
 C721 C -0.04775 0.71293 0.16168
 H722 H -0.05632 0.69897 0.16253
 Zn723 Zn 0.00473 0.73181 0.13340
 N724 N -0.01934 0.73085 0.14861
 C725 C -0.01488 0.76303 0.11251
 N726 N 0.00273 0.75223 0.11473
 C727 C 0.01898 0.75481 0.10278
 C728 C 0.01821 0.76924 0.08837
 C729 C -0.01642 0.77744 0.09813
 C730 C 0.02925 0.72372 0.16566
 C731 C 0.04497 0.72650 0.17951
 C732 C 0.05613 0.75588 0.16246
 C733 C 0.04002 0.75267 0.14906
 N734 N 0.02712 0.73665 0.15077
 H735 H -0.02791 0.76025 0.12164
 H736 H 0.03263 0.74567 0.10454
 H737 H 0.03156 0.77140 0.07942
 H738 H -0.03075 0.78556 0.09642
 H739 H 0.01855 0.71130 0.16684
 H740 H 0.04607 0.71623 0.19145
 H741 H 0.06648 0.76846 0.16055
 H742 H 0.03784 0.76305 0.13739
 C743 C -0.05320 0.73001 0.17291
 C744 C 0.01465 0.67390 0.09503
 C745 C 0.05876 0.74273 0.17801
 C746 C 0.00033 0.78085 0.08589
 C747 C 0.50621 0.21579 0.59331
 H748 H 0.49122 0.22276 0.59201
 C749 C 0.51194 0.20061 0.58008
 H750 H 0.50128 0.19622 0.56850
 C751 C 0.53856 0.21391 0.60951
 H752 H 0.54905 0.21928 0.62080
 C753 C 0.54481 0.19848 0.59680
 H754 H 0.55989 0.19189 0.59888
 N755 N 0.51946 0.22208 0.60770
 C756 C 0.48230 0.24728 0.65454
 H757 H 0.48866 0.26235 0.65576
 C758 C 0.46623 0.24169 0.66652
 H759 H 0.46009 0.25280 0.67662
 C760 C 0.48226 0.21494 0.63925
 H761 H 0.48864 0.20453 0.62865
 C762 C 0.46638 0.20859 0.65116
 H763 H 0.46085 0.19322 0.64967
 Zn764 Zn 0.51065 0.24327 0.62452
 N765 N 0.48961 0.23411 0.64091
 C766 C 0.48192 0.27274 0.61169
 N767 N 0.50076 0.26436 0.60880
 C768 C 0.51315 0.27074 0.59443
 C769 C 0.50697 0.28649 0.58261
 C770 C 0.47526 0.28872 0.60041
 C771 C 0.54104 0.24009 0.65374
 C772 C 0.55762 0.24629 0.66560
 C773 C 0.55629 0.27887 0.65076
 C774 C 0.53983 0.27199 0.63909
 N775 N 0.53278 0.25278 0.64054
 H776 H 0.47203 0.26725 0.62285
 H777 H 0.52793 0.26360 0.59222
 H778 H 0.51703 0.29113 0.57114
 H779 H 0.46053 0.29559 0.60351
 H780 H 0.53491 0.22499 0.65483
 H781 H 0.56439 0.23569 0.67553
 H782 H 0.56157 0.29425 0.64944
 H783 H 0.53272 0.28205 0.62890
 C784 C 0.45791 0.22212 0.66488
 C785 C 0.53147 0.19163 0.58175
 C786 C 0.56558 0.26590 0.66411
 C787 C 0.48788 0.29593 0.58568
 C788 C 0.50880 0.72447 0.90959
 H789 H 0.52397 0.73106 0.91154
 C790 C 0.50367 0.70704 0.91939
 H791 H 0.51524 0.70009 0.92849
 C792 C 0.47549 0.72560 0.89515
 H793 H 0.46438 0.73313 0.88604
 C794 C 0.46960 0.70835 0.90488
 H795 H 0.45396 0.70286 0.90310
 N796 N 0.49488 0.73319 0.89751
 C797 C 0.53224 0.76844 0.85818
 H798 H 0.52453 0.78285 0.85928
 C799 C 0.54868 0.76584 0.84549
 H800 H 0.55376 0.77839 0.83699
 C801 C 0.53482 0.73448 0.86774
 H802 H 0.52907 0.72210 0.87598
 C803 C 0.55144 0.73130 0.85543
 H804 H 0.55840 0.71650 0.85447
 Zn805 Zn 0.50274 0.75727 0.88533
 N806 N 0.52575 0.75291 0.86911
 C807 C 0.52682 0.78686 0.90651
 N808 N 0.50876 0.77642 0.90541
 C809 C 0.49394 0.77918 0.91895
 C810 C 0.49669 0.79333 0.93407
 C811 C 0.53018 0.80126 0.92139
 C812 C 0.47429 0.75504 0.85428
 C813 C 0.45801 0.76133 0.84243
 C814 C 0.45611 0.79204 0.86186
 C815 C 0.47238 0.78515 0.87336
 N816 N 0.48089 0.76679 0.86959
 H817 H 0.53856 0.78418 0.89580
 H818 H 0.47979 0.77056 0.91778
 H819 H 0.48444 0.79566 0.94439
 H820 H 0.54459 0.80953 0.92204
 H821 H 0.48153 0.74061 0.85147
 H822 H 0.45260 0.75151 0.83063
 H823 H 0.44960 0.80673 0.86506
 H824 H 0.47821 0.79455 0.88523
 C825 C 0.55856 0.74709 0.84411
 C826 C 0.48379 0.69875 0.91718
 C827 C 0.44859 0.78001 0.84626
 C828 C 0.51492 0.80472 0.93535
 C829 C 0.12940 0.20383 0.24780
 C830 C 0.11418 0.20746 0.26172
 C831 C 0.09483 0.21518 0.25588
 C832 C 0.09094 0.21888 0.23622
 C833 C 0.10619 0.21531 0.22249
 C834 C 0.12562 0.20793 0.22811
 C835 C 0.07975 0.21930 0.26978
 C836 C 0.08381 0.21594 0.28950
 C837 C 0.10306 0.20800 0.29534
 C838 C 0.11811 0.20376 0.28141
 C839 C 0.10700 0.20461 0.31507
 C840 C 0.09214 0.20933 0.32892
 C841 C 0.07307 0.21753 0.32331
 C842 C 0.06897 0.22062 0.30349
 H843 H 0.14437 0.19836 0.25237
 H844 H 0.07616 0.22468 0.23148
 H845 H 0.10273 0.21827 0.20741
 H846 H 0.06497 0.22536 0.26529
 H847 H 0.13293 0.19781 0.28592
 H848 H 0.12166 0.19853 0.31982
 H849 H 0.09573 0.20698 0.34410
 H850 H 0.05420 0.22666 0.29897
 C851 C 0.63952 0.73280 0.76028
 C852 C 0.62363 0.73753 0.77320
 C853 C 0.60602 0.74791 0.76651
 C854 C 0.60465 0.75339 0.74700
 C855 C 0.62046 0.74844 0.73417
 C856 C 0.63802 0.73800 0.74061
 C857 C 0.59000 0.75243 0.77937
 C858 C 0.59127 0.74647 0.79878
 C859 C 0.60891 0.73606 0.80543
 C860 C 0.62503 0.73181 0.79265
 C861 C 0.61004 0.72982 0.82471
 C862 C 0.59372 0.73358 0.83726
 C863 C 0.57608 0.74383 0.83084
 C864 C 0.57505 0.75044 0.81159
 H865 H 0.65307 0.72510 0.76562
 H866 H 0.59124 0.76130 0.74159
 H867 H 0.61871 0.75247 0.71911
 H868 H 0.57646 0.76036 0.77423
 H869 H 0.63853 0.72379 0.79777
 H870 H 0.62345 0.72185 0.83004
 H871 H 0.59492 0.72852 0.85207
 H872 H 0.56139 0.75817 0.80646
 C873 C 0.36216 0.80730 0.76917
 C874 C 0.37935 0.80169 0.78035
 C875 C 0.39615 0.79195 0.77130
 C876 C 0.39546 0.78807 0.75120
 C877 C 0.37820 0.79354 0.74020
 C878 C 0.36137 0.80313 0.74906
 C879 C 0.41323 0.78607 0.78250
 C880 C 0.41364 0.78963 0.80267
 C881 C 0.39685 0.79940 0.81170
 C882 C 0.37985 0.80543 0.80049
 C883 C 0.39726 0.80286 0.83185
 C884 C 0.41409 0.79660 0.84301
 C885 C 0.43087 0.78682 0.83423
 C886 C 0.43054 0.78345 0.81398
 H887 H 0.34915 0.81441 0.77620
 H888 H 0.40821 0.78066 0.74400
 H889 H 0.37803 0.79037 0.72470
 H890 H 0.42610 0.77856 0.77555
 H891 H 0.36695 0.81287 0.80744
 H892 H 0.38450 0.81026 0.83902
 H893 H 0.41382 0.79914 0.85860
 H894 H 0.44350 0.77617 0.80701
 C895 C -0.14218 0.27373 0.27439
 C896 C -0.12466 0.26889 0.28554
 C897 C -0.10949 0.25605 0.27760
 C898 C -0.11213 0.24819 0.25870
 C899 C -0.12965 0.25288 0.24773
 C900 C -0.14507 0.26573 0.25530
 C901 C -0.09194 0.25122 0.28868
 C902 C -0.08945 0.25896 0.30771
 C903 C -0.10471 0.27169 0.31574
 C904 C -0.12219 0.27660 0.30461
 C905 C -0.10222 0.27932 0.33479
 C906 C -0.08472 0.27451 0.34576
 C907 C -0.06933 0.26200 0.33791
 C908 C -0.07188 0.25422 0.31882
 H909 H -0.15372 0.28326 0.28100
 H910 H -0.10059 0.23838 0.25235
 H911 H -0.13065 0.24666 0.23311
 H912 H -0.08027 0.24141 0.28251
 H913 H -0.13386 0.28641 0.31078
 H914 H -0.11381 0.28902 0.34121
 H915 H -0.08331 0.28047 0.36050
 H916 H -0.06003 0.24478 0.31248
 C917 C -0.15585 0.71319 0.23134
 C918 C -0.13928 0.71506 0.21855
 C919 C -0.14030 0.70549 0.20001
 C920 C -0.15779 0.69431 0.19452
 C921 C -0.17405 0.69229 0.20733
 C922 C -0.17343 0.70151 0.22607
 C923 C -0.12376 0.70705 0.18727
 C924 C -0.10599 0.71784 0.19292
 C925 C -0.10488 0.72745 0.21145
 C926 C -0.12157 0.72610 0.22412
 C927 C -0.08698 0.73810 0.21705
 C928 C -0.07029 0.73904 0.20450
 C929 C -0.07117 0.72943 0.18606
 C930 C -0.08923 0.71898 0.18035
 H931 H -0.15451 0.72029 0.24561
 H932 H -0.15889 0.68701 0.18029
 H933 H -0.18727 0.68374 0.20212
 H934 H -0.12461 0.69964 0.17306
 H935 H -0.12067 0.73344 0.23836
 H936 H -0.08581 0.74552 0.23122
 H937 H -0.05650 0.74697 0.20941
 H938 H -0.09028 0.71176 0.16608
 C939 C 0.36707 0.20885 0.73900
 C940 C 0.38515 0.21200 0.72849
 C941 C 0.40059 0.22508 0.73618
 C942 C 0.39772 0.23481 0.75416
 C943 C 0.37953 0.23206 0.76429
 C944 C 0.36377 0.21917 0.75689
 C945 C 0.41848 0.22858 0.72561
 C946 C 0.42086 0.21970 0.70711
 C947 C 0.40538 0.20674 0.69929
 C948 C 0.38775 0.20273 0.71013
 C949 C 0.40762 0.19834 0.68057
 C950 C 0.42476 0.20312 0.66952
 C951 C 0.44023 0.21614 0.67707
 C952 C 0.43827 0.22404 0.69611
 H953 H 0.35524 0.19914 0.73264
 H954 H 0.40947 0.24480 0.76032
 H955 H 0.37817 0.23981 0.77819
 H956 H 0.43030 0.23866 0.73156
 H957 H 0.37586 0.19281 0.70410
 H958 H 0.39586 0.18844 0.67429
 H959 H 0.42559 0.19701 0.65483
 H960 H 0.45019 0.23376 0.70237
 C961 C 0.65688 0.28800 0.73925
 C962 C 0.63895 0.28311 0.72845
 C963 C 0.62376 0.27071 0.73652
 C964 C 0.62670 0.26346 0.75526
 C965 C 0.64471 0.26806 0.76580
 C966 C 0.66027 0.28027 0.75799
 C967 C 0.60600 0.26548 0.72566
 C968 C 0.60342 0.27219 0.70662
 C969 C 0.61862 0.28459 0.69850
 C970 C 0.63621 0.29010 0.70951
 C971 C 0.61612 0.29104 0.67939
 C972 C 0.59885 0.28508 0.66832
 C973 C 0.58363 0.27267 0.67618
 C974 C 0.58600 0.26645 0.69548
 H975 H 0.66848 0.29709 0.73252
 H976 H 0.61513 0.25404 0.76173
 H977 H 0.64606 0.26223 0.78027
 H978 H 0.59438 0.25592 0.73189
 H979 H 0.64788 0.29956 0.70323
 H980 H 0.62765 0.30048 0.67290
 H981 H 0.59764 0.28986 0.65343
 H982 H 0.57427 0.25715 0.70186
 C983 C 0.14485 0.77774 0.25427
 C984 C 0.12910 0.77465 0.24034
 C985 C 0.11955 0.79142 0.23171
 C986 C 0.12617 0.81096 0.23695
 C987 C 0.14213 0.81387 0.25058
 C988 C 0.15150 0.79733 0.25942
 C989 C 0.10366 0.78837 0.21791
 C990 C 0.09745 0.76877 0.21238
 C991 C 0.10726 0.75202 0.22077
 C992 C 0.12292 0.75507 0.23480
 C993 C 0.10130 0.73248 0.21493
 C994 C 0.08572 0.72951 0.20095
 C995 C 0.07560 0.74601 0.19266
 C996 C 0.08161 0.76565 0.19854
 H997 H 0.15227 0.76492 0.26083
 H998 H 0.11907 0.82398 0.23045
 H999 H 0.14701 0.82907 0.25445
 H1000 H 0.09625 0.80124 0.21138
 H1001 H 0.13036 0.74221 0.24131
 H1002 H 0.10877 0.71947 0.22110
 H1003 H 0.08176 0.71422 0.19648
 H1004 H 0.07380 0.77856 0.19254
 C1005 C 0.23932 0.14740 0.20971
 C1006 C 0.25505 0.13320 0.21232
 C1007 C 0.26343 0.12305 0.19596
 C1008 C 0.25613 0.12749 0.17729
 C1009 C 0.24065 0.14182 0.17482
 C1010 C 0.23204 0.15182 0.19097
 C1011 C 0.27895 0.10864 0.19852
 C1012 C 0.28635 0.10437 0.21721
 C1013 C 0.27820 0.11474 0.23354
 C1014 C 0.26257 0.12904 0.23100
 C1015 C 0.28578 0.11057 0.25217
 C1016 C 0.30112 0.09610 0.25466
 C1017 C 0.30914 0.08542 0.23859
 C1018 C 0.30170 0.08978 0.21985
 H1019 H 0.23295 0.15526 0.22221
 H1020 H 0.26238 0.11987 0.16460
 H1021 H 0.23515 0.14487 0.16028
 H1022 H 0.28526 0.10077 0.18597
 H1023 H 0.25624 0.13690 0.24355
 H1024 H 0.27982 0.11847 0.26484
 H1025 H 0.30678 0.09334 0.26922
 H1026 H 0.30751 0.08151 0.20733
 C1027 C 0.75254 0.65984 0.70316
 C1028 C 0.76412 0.64242 0.70666
 C1029 C 0.75515 0.62631 0.71665
 C1030 C 0.73481 0.62793 0.72302
 C1031 C 0.72342 0.64532 0.71952
 C1032 C 0.73211 0.66144 0.70956
 C1033 C 0.76661 0.60884 0.72010
 C1034 C 0.78697 0.60726 0.71371
 C1035 C 0.79598 0.62339 0.70378
 C1036 C 0.78451 0.64087 0.70034
 C1037 C 0.81633 0.62173 0.69741
 C1038 C 0.82762 0.60423 0.70072
 C1039 C 0.81881 0.58803 0.71048
 C1040 C 0.79843 0.58973 0.71699
 H1041 H 0.75949 0.67224 0.69567
 H1042 H 0.72767 0.61572 0.73065
 H1043 H 0.70765 0.64602 0.72437
 H1044 H 0.75969 0.59648 0.72772
 H1045 H 0.79143 0.65321 0.69269
 H1046 H 0.82351 0.63397 0.68985
 H1047 H 0.84336 0.60343 0.69579
 H1048 H 0.79136 0.57726 0.72431
 C1049 C 0.76146 0.35910 0.76201
 C1050 C 0.77469 0.37520 0.75790
 C1051 C 0.79542 0.37479 0.76442
 C1052 C 0.80260 0.35836 0.77485
 C1053 C 0.78934 0.34259 0.77917
 C1054 C 0.76847 0.34266 0.77301
 C1055 C 0.80863 0.39090 0.76064
 C1056 C 0.80130 0.40766 0.75069
 C1057 C 0.78056 0.40818 0.74416
 C1058 C 0.76741 0.39188 0.74769
 C1059 C 0.77332 0.42509 0.73435
 C1060 C 0.78644 0.44141 0.73122
 C1061 C 0.80706 0.44109 0.73778
 C1062 C 0.81438 0.42400 0.74736
 H1063 H 0.74554 0.35999 0.75728
 H1064 H 0.81851 0.35775 0.77982
 H1065 H 0.79582 0.33018 0.78704
 H1066 H 0.82454 0.39054 0.76569
 H1067 H 0.75148 0.39230 0.74272
 H1068 H 0.75747 0.42579 0.72927
 H1069 H 0.78033 0.45444 0.72396
 H1070 H 0.83034 0.42335 0.75217
 C1071 C 0.25517 -0.13008 0.28046
 C1072 C 0.27035 -0.11546 0.27735
 C1073 C 0.28953 -0.11656 0.28721
 C1074 C 0.29314 -0.13217 0.30011
 C1075 C 0.27788 -0.14653 0.30335
 C1076 C 0.25860 -0.14583 0.29358
 C1077 C 0.30470 -0.10194 0.28418
 C1078 C 0.30077 -0.08597 0.27167
 C1079 C 0.28151 -0.08477 0.26193
 C1080 C 0.26648 -0.09960 0.26471
 C1081 C 0.27749 -0.06860 0.24975
 C1082 C 0.29229 -0.05359 0.24742
 C1083 C 0.31154 -0.05455 0.25703
 C1084 C 0.31571 -0.07101 0.26899
 H1085 H 0.24049 -0.12857 0.27303
 H1086 H 0.30779 -0.13327 0.30776
 H1087 H 0.28164 -0.15842 0.31322
 H1088 H 0.31944 -0.10282 0.29175
 H1089 H 0.25171 -0.09866 0.25721
 H1090 H 0.26276 -0.06739 0.24225
 H1091 H 0.28843 -0.04096 0.23842
 H1092 H 0.33056 -0.07220 0.27627
 C1093 C 0.23776 -0.12628 0.72695
 C1094 C 0.22550 -0.10988 0.73278
 C1095 C 0.23421 -0.09407 0.74431
 C1096 C 0.25493 -0.09508 0.75007
 C1097 C 0.26697 -0.11157 0.74449
 C1098 C 0.25871 -0.12746 0.73273
 C1099 C 0.22206 -0.07754 0.74995
 C1100 C 0.20119 -0.07676 0.74443
 C1101 C 0.19239 -0.09276 0.73317
 C1102 C 0.20460 -0.10915 0.72734
 C1103 C 0.17147 -0.09211 0.72794
 C1104 C 0.15938 -0.07572 0.73368
 C1105 C 0.16798 -0.05951 0.74462
 C1106 C 0.18898 -0.06022 0.74998
 H1107 H 0.23060 -0.13833 0.71841
 H1108 H 0.26187 -0.08307 0.75890
 H1109 H 0.28297 -0.11135 0.74903
 H1110 H 0.22882 -0.06535 0.75870
 H1111 H 0.19783 -0.12135 0.71860
 H1112 H 0.16442 -0.10433 0.71946
 H1113 H 0.14319 -0.07586 0.72967
 H1114 H 0.19593 -0.04778 0.75821
 C1115 C 0.73047 0.33434 0.23182
 C1116 C 0.71804 0.35126 0.23522
 C1117 C 0.72671 0.36890 0.24391
 C1118 C 0.74764 0.36915 0.24931
 C1119 C 0.75995 0.35223 0.24576
 C1120 C 0.75156 0.33475 0.23678
 C1121 C 0.71438 0.38601 0.24688
 C1122 C 0.69351 0.38569 0.24121
 C1123 C 0.68484 0.36796 0.23268
 C1124 C 0.69714 0.35086 0.22979
 C1125 C 0.66401 0.36763 0.22708
 C1126 C 0.65183 0.38472 0.22981
 C1127 C 0.66023 0.40253 0.23814
 C1128 C 0.68116 0.40286 0.24385
 H1129 H 0.72371 0.32085 0.22522
 H1130 H 0.75456 0.38252 0.25601
 H1131 H 0.77617 0.35304 0.24957
 H1132 H 0.72105 0.39958 0.25347
 H1133 H 0.69049 0.33731 0.22314
 H1134 H 0.65711 0.35413 0.22062
 H1135 H 0.63570 0.38389 0.22563
 H1136 H 0.68791 0.41653 0.25009
 C1137 C 0.71615 0.62763 0.27102
 C1138 C 0.70292 0.61120 0.26718
 C1139 C 0.69693 0.60629 0.24780
 C1140 C 0.70439 0.61780 0.23261
 C1141 C 0.71782 0.63391 0.23654
 C1142 C 0.72381 0.63898 0.25574
 C1143 C 0.68378 0.58983 0.24389
 C1144 C 0.67682 0.57799 0.25908
 C1145 C 0.68297 0.58279 0.27844
 C1146 C 0.69585 0.59944 0.28238
 C1147 C 0.67624 0.57075 0.29353
 C1148 C 0.66360 0.55406 0.28952
 C1149 C 0.65725 0.54915 0.27035
 C1150 C 0.66392 0.56133 0.25519
 H1151 H 0.72094 0.63128 0.28584
 H1152 H 0.69998 0.61426 0.21767
 H1153 H 0.72344 0.64257 0.22459
 H1154 H 0.67917 0.58611 0.22902
 H1155 H 0.70053 0.60312 0.29724
 H1156 H 0.68090 0.57413 0.30844
 H1157 H 0.65905 0.54480 0.30146
 H1158 H 0.65894 0.55796 0.24037
 C1159 C 0.23757 0.15646 0.78545
 C1160 C 0.22495 0.13941 0.78234
 C1161 C 0.23241 0.12265 0.77160
 C1162 C 0.25226 0.12327 0.76403
 C1163 C 0.26473 0.14026 0.76711
 C1164 C 0.25776 0.15722 0.77796
 C1165 C 0.21993 0.10552 0.76861
 C1166 C 0.19999 0.10497 0.77618
 C1167 C 0.19245 0.12180 0.78682
 C1168 C 0.20496 0.13890 0.78983
 C1169 C 0.17251 0.12123 0.79430
 C1170 C 0.16015 0.10413 0.79137
 C1171 C 0.16749 0.08721 0.78092
 C1172 C 0.18750 0.08780 0.77333
 H1173 H 0.23128 0.16915 0.79346
 H1174 H 0.25824 0.11052 0.75578
 H1175 H 0.28003 0.13961 0.76123
 H1176 H 0.22573 0.09264 0.76041
 H1177 H 0.19916 0.15178 0.79804
 H1178 H 0.16643 0.13403 0.80241
 H1179 H 0.14472 0.10424 0.79711
 H1180 H 0.19348 0.07480 0.76546
 C1181 C 0.20189 0.25234 0.12369
 C1182 C 0.20347 0.26656 0.10905
 C1183 C 0.18543 0.27366 0.09972
 C1184 C 0.16612 0.26650 0.10533
 C1185 C 0.16469 0.25251 0.12010
 C1186 C 0.18253 0.24526 0.12936
 C1187 C 0.18699 0.28783 0.08501
 C1188 C 0.20636 0.29514 0.07966
 C1189 C 0.22435 0.28817 0.08917
 C1190 C 0.22280 0.27389 0.10374
 C1191 C 0.24365 0.29561 0.08394
 C1192 C 0.24517 0.30972 0.06935
 C1193 C 0.22745 0.31663 0.05959
 C1194 C 0.20803 0.30929 0.06493
 H1195 H 0.21570 0.24708 0.13098
 H1196 H 0.15213 0.27177 0.09836
 H1197 H 0.14963 0.24715 0.12416
 H1198 H 0.17316 0.29322 0.07780
 H1199 H 0.23663 0.26852 0.11097
 H1200 H 0.25757 0.29053 0.09117
 H1201 H 0.26028 0.31538 0.06581
 H1202 H 0.19426 0.31431 0.05740
 C1203 C 0.71995 0.75892 0.63128
 C1204 C 0.72227 0.76915 0.61382
 C1205 C 0.70461 0.77495 0.60308
 C1206 C 0.68495 0.77077 0.61016
 C1207 C 0.68279 0.76095 0.62774
 C1208 C 0.70022 0.75484 0.63837
 C1209 C 0.70685 0.78499 0.58554
 C1210 C 0.72653 0.78979 0.57883
 C1211 C 0.74418 0.78435 0.58975
 C1212 C 0.74196 0.77387 0.60706
 C1213 C 0.76376 0.78970 0.58328
 C1214 C 0.76588 0.80051 0.56626
 C1215 C 0.74847 0.80589 0.55509
 C1216 C 0.72881 0.80019 0.56148
 H1217 H 0.73344 0.75445 0.63956
 H1218 H 0.67125 0.77516 0.60216
 H1219 H 0.66747 0.75780 0.63290
 H1220 H 0.69329 0.78933 0.57726
 H1221 H 0.75552 0.76960 0.61538
 H1222 H 0.77746 0.78581 0.59156
 H1223 H 0.78120 0.80497 0.56209
 H1224 H 0.71520 0.80380 0.55297
 C1225 C 0.77887 0.74332 0.33542
 C1226 C 0.77514 0.75614 0.35155
 C1227 C 0.75469 0.76178 0.35593
 C1228 C 0.73835 0.75445 0.34425
 C1229 C 0.74216 0.74148 0.32847
 C1230 C 0.76238 0.73576 0.32391
 C1231 C 0.75084 0.77453 0.37200
 C1232 C 0.76714 0.78149 0.38399
 C1233 C 0.78757 0.77573 0.37977
 C1234 C 0.79147 0.76319 0.36351
 C1235 C 0.80375 0.78255 0.39196
 C1236 C 0.79975 0.79494 0.40818
 C1237 C 0.77949 0.80089 0.41248
 C1238 C 0.76326 0.79408 0.40020
 H1239 H 0.79448 0.73882 0.33208
 H1240 H 0.72260 0.75863 0.34738
 H1241 H 0.72927 0.73602 0.31966
 H1242 H 0.73515 0.77887 0.37528
 H1243 H 0.80716 0.75881 0.36026
 H1244 H 0.81950 0.77821 0.38903
 H1245 H 0.81254 0.79965 0.41750
 H1246 H 0.74760 0.79876 0.40309
 C1247 C 0.27096 0.26105 -0.14821
 C1248 C 0.26673 0.27640 -0.13443
 C1249 C 0.27397 0.29620 -0.13736
 C1250 C 0.28505 0.30037 -0.15409
 C1251 C 0.28933 0.28502 -0.16761
 C1252 C 0.28255 0.26519 -0.16475
 C1253 C 0.27032 0.31146 -0.12340
 C1254 C 0.25970 0.30715 -0.10641
 C1255 C 0.25225 0.28742 -0.10355
 C1256 C 0.25573 0.27219 -0.11761
 C1257 C 0.24168 0.28319 -0.08652
 C1258 C 0.23882 0.29825 -0.07230
 C1259 C 0.24641 0.31787 -0.07485
 C1260 C 0.25669 0.32223 -0.09208
 H1261 H 0.26581 0.24580 -0.14576
 H1262 H 0.29061 0.31548 -0.15663
 H1263 H 0.29795 0.28867 -0.18039
 H1264 H 0.27602 0.32659 -0.12562
 H1265 H 0.25015 0.25703 -0.11533
 H1266 H 0.23589 0.26816 -0.08406
 H1267 H 0.23109 0.29441 -0.05906
 H1268 H 0.26238 0.33734 -0.09433
 C1269 C 0.72803 0.24170 -0.14399
 C1270 C 0.73384 0.22926 -0.12867
 C1271 C 0.75461 0.22315 -0.12665
 C1272 C 0.76923 0.22977 -0.13987
 C1273 C 0.76335 0.24236 -0.15492
 C1274 C 0.74274 0.24838 -0.15716
 C1275 C 0.76044 0.21059 -0.11145
 C1276 C 0.74582 0.20426 -0.09807
 C1277 C 0.72512 0.21058 -0.09995
 C1278 C 0.71923 0.22296 -0.11527
 C1279 C 0.71062 0.20443 -0.08642
 C1280 C 0.71654 0.19206 -0.07120
 C1281 C 0.73704 0.18548 -0.06928
 C1282 C 0.75161 0.19170 -0.08284
 H1283 H 0.71216 0.24652 -0.14547
 H1284 H 0.78520 0.22524 -0.13854
 H1285 H 0.77488 0.24719 -0.16502
 H1286 H 0.77635 0.20583 -0.10997
 H1287 H 0.70332 0.22774 -0.11674
 H1288 H 0.69472 0.20924 -0.08755
 H1289 H 0.70506 0.18783 -0.06080
 H1290 H 0.76740 0.18654 -0.08173
 C1291 C 0.23066 0.75773 0.36702
 C1292 C 0.23172 0.74563 0.38344
 C1293 C 0.21341 0.74033 0.39299
 C1294 C 0.19437 0.74707 0.38585
 C1295 C 0.19344 0.75890 0.36937
 C1296 C 0.21153 0.76438 0.35984
 C1297 C 0.21441 0.72830 0.40944
 C1298 C 0.23345 0.72124 0.41630
 C1299 C 0.25173 0.72636 0.40663
 C1300 C 0.25077 0.73862 0.39034
 C1301 C 0.27069 0.71902 0.41336
 C1302 C 0.27155 0.70664 0.42946
 C1303 C 0.25350 0.70149 0.43930
 C1304 C 0.23448 0.70900 0.43262
 H1305 H 0.24465 0.76168 0.35960
 H1306 H 0.18019 0.74316 0.39298
 H1307 H 0.17857 0.76404 0.36421
 H1308 H 0.20036 0.72430 0.41678
 H1309 H 0.26481 0.74259 0.38296
 H1310 H 0.28484 0.72269 0.40606
 H1311 H 0.28637 0.70081 0.43400
 H1312 H 0.22046 0.70544 0.44018
 C1313 C 0.29328 0.76381 0.64992
 C1314 C 0.28733 0.75040 0.63482
 C1315 C 0.26618 0.74639 0.63126
 C1316 C 0.25138 0.75607 0.64279
 C1317 C 0.25746 0.76948 0.65778
 C1318 C 0.27845 0.77338 0.66158
 C1319 C 0.26022 0.73279 0.61627
 C1320 C 0.27514 0.72326 0.60473
 C1321 C 0.29626 0.72744 0.60821
 C1322 C 0.30222 0.74094 0.62325
 C1323 C 0.31112 0.71806 0.59658
 C1324 C 0.30515 0.70467 0.58158
 C1325 C 0.28421 0.70026 0.57798
 C1326 C 0.26927 0.70965 0.58971
 H1327 H 0.30949 0.76697 0.65250
 H1328 H 0.23510 0.75319 0.64027
 H1329 H 0.24575 0.77651 0.66666
 H1330 H 0.24400 0.72967 0.61358
 H1331 H 0.31844 0.74407 0.62594
 H1332 H 0.32736 0.72118 0.59898
 H1333 H 0.31698 0.69800 0.57258
 H1334 H 0.25308 0.70623 0.58728
 C1335 C 0.79293 0.23458 0.14913
 C1336 C 0.78765 0.22332 0.13226
 C1337 C 0.76699 0.21708 0.12904
 C1338 C 0.75194 0.22250 0.14257
 C1339 C 0.75727 0.23406 0.15911
 C1340 C 0.77777 0.24009 0.16257
 C1341 C 0.76169 0.20562 0.11232
 C1342 C 0.77670 0.20063 0.09859
 C1343 C 0.79726 0.20723 0.10161
 C1344 C 0.80263 0.21840 0.11849
 C1345 C 0.81211 0.20253 0.08767
 C1346 C 0.80673 0.19124 0.07098
 C1347 C 0.78642 0.18422 0.06796
 C1348 C 0.77147 0.18909 0.08188
 H1349 H 0.80872 0.23946 0.15164
 H1350 H 0.73604 0.21790 0.14031
 H1351 H 0.74543 0.23811 0.16938
 H1352 H 0.74588 0.20071 0.10994
 H1353 H 0.81844 0.22334 0.12086
 H1354 H 0.82789 0.20762 0.08966
 H1355 H 0.81850 0.18811 0.06036
 H1356 H 0.75582 0.18360 0.07993
 C1357 C 0.47092 0.39420 0.52448
 C1358 C 0.47704 0.37748 0.53522
 C1359 C 0.49821 0.37431 0.53926
 C1360 C 0.51289 0.38769 0.53217
 C1361 C 0.50668 0.40399 0.52109
 C1362 C 0.48570 0.40743 0.51725
 C1363 C 0.50439 0.35776 0.55017
 C1364 C 0.48973 0.34404 0.55672
 C1365 C 0.46862 0.34693 0.55230
 C1366 C 0.46238 0.36373 0.54175
 C1367 C 0.45410 0.33290 0.55847
 C1368 C 0.46038 0.31622 0.56901
 C1369 C 0.48130 0.31336 0.57386
 C1370 C 0.49588 0.32744 0.56760
 H1371 H 0.45473 0.39671 0.52129
 H1372 H 0.52917 0.38546 0.53506
 H1373 H 0.51823 0.41412 0.51566
 H1374 H 0.52061 0.35545 0.55340
 H1375 H 0.44616 0.36602 0.53848
 H1376 H 0.43787 0.33476 0.55505
 H1377 H 0.44881 0.30548 0.57323
 H1378 H 0.51202 0.32570 0.57142
 C1379 C -0.01987 0.87203 0.01589
 C1380 C -0.01748 0.85764 0.03043
 C1381 C -0.02724 0.86063 0.04848
 C1382 C -0.03933 0.87772 0.05167
 C1383 C -0.04205 0.89167 0.03709
 C1384 C -0.03249 0.88914 0.01888
 C1385 C -0.02502 0.84638 0.06303
 C1386 C -0.01355 0.82885 0.05966
 C1387 C -0.00395 0.82562 0.04157
 C1388 C -0.00579 0.84013 0.02712
 C1389 C 0.00714 0.80781 0.03820
 C1390 C 0.00854 0.79328 0.05255
 C1391 C -0.00092 0.79637 0.07064
 C1392 C -0.01179 0.81437 0.07408
 H1393 H -0.01258 0.86936 0.00204
 H1394 H -0.04682 0.88028 0.06548
 H1395 H -0.05126 0.90477 0.04052
 H1396 H -0.03250 0.84879 0.07688
 H1397 H 0.00161 0.83767 0.01325
 H1398 H 0.01452 0.80499 0.02439
 H1399 H 0.01676 0.77947 0.04931
 H1400 H -0.01886 0.81721 0.08804
 C1401 C 0.02404 0.59390 0.00838
 C1402 C 0.02118 0.60995 0.02176
 C1403 C 0.01021 0.62721 0.01600
 C1404 C 0.00218 0.62813 -0.00290
 C1405 C 0.00468 0.61201 -0.01599
 C1406 C 0.01557 0.59453 -0.01065
 C1407 C 0.00721 0.64325 0.02925
 C1408 C 0.01469 0.64211 0.04838
 C1409 C 0.02550 0.62481 0.05431
 C1410 C 0.02882 0.60888 0.04092
 C1411 C 0.03267 0.62372 0.07357
 C1412 C 0.02910 0.63958 0.08684
 C1413 C 0.01839 0.65689 0.08106
 C1414 C 0.01137 0.65803 0.06169
 H1415 H 0.03213 0.58066 0.01320
 H1416 H -0.00618 0.64131 -0.00757
 H1417 H -0.00157 0.61367 -0.03048
 H1418 H -0.00118 0.65650 0.02474
 H1419 H 0.03715 0.59561 0.04545
 H1420 H 0.04092 0.61054 0.07842
 H1421 H 0.03450 0.63817 0.10169
 H1422 H 0.00348 0.67142 0.05687
 C1423 C 0.54781 0.10030 0.50736
 C1424 C 0.54185 0.11554 0.52060
 C1425 C 0.52091 0.11732 0.52580
 C1426 C 0.50628 0.10405 0.51744
 C1427 C 0.51228 0.08921 0.50398
 C1428 C 0.53305 0.08715 0.49889
 C1429 C 0.51491 0.13240 0.53915
 C1430 C 0.52949 0.14603 0.54707
 C1431 C 0.55035 0.14450 0.54160
 C1432 C 0.55644 0.12916 0.52855
 C1433 C 0.56475 0.15845 0.54921
 C1434 C 0.55859 0.17378 0.56209
 C1435 C 0.53793 0.17534 0.56788
 C1436 C 0.52349 0.16127 0.56028
 H1437 H 0.56381 0.09891 0.50328
 H1438 H 0.49017 0.10522 0.52122
 H1439 H 0.50073 0.07911 0.49771
 H1440 H 0.49887 0.13366 0.54321
 H1441 H 0.57246 0.12794 0.52445
 H1442 H 0.58077 0.15762 0.54505
 H1443 H 0.57003 0.18458 0.56731
 H1444 H 0.50757 0.16200 0.56476
 C1445 C -0.01910 0.10319 0.50075
 C1446 C -0.01693 0.11760 0.48632
 C1447 C -0.02363 0.11301 0.46708
 C1448 C -0.03221 0.09405 0.46259
 C1449 C -0.03417 0.07975 0.47699
 C1450 C -0.02772 0.08412 0.49625
 C1451 C -0.02160 0.12740 0.45264
 C1452 C -0.01280 0.14629 0.45715
 C1453 C -0.00591 0.15082 0.47636
 C1454 C -0.00812 0.13650 0.49084
 C1455 C 0.00315 0.16961 0.48075
 C1456 C 0.00543 0.18378 0.46626
 C1457 C -0.00147 0.17950 0.44715
 C1458 C -0.01064 0.16070 0.44272
 H1459 H -0.01429 0.10695 0.51552
 H1460 H -0.03731 0.09023 0.44789
 H1461 H -0.04051 0.06514 0.47292
 H1462 H -0.02680 0.12388 0.43790
 H1463 H -0.00290 0.14001 0.50557
 H1464 H 0.00851 0.17334 0.49538
 H1465 H 0.01237 0.19823 0.47004
 H1466 H -0.01578 0.15718 0.42797
 C1467 C 0.46411 0.60756 0.98675
 C1468 C 0.46933 0.62497 0.97669
 C1469 C 0.48329 0.63907 0.98522
 C1470 C 0.49199 0.63543 1.00349
 C1471 C 0.48708 0.61793 1.01325
 C1472 C 0.47302 0.60365 1.00514
 C1473 C 0.48847 0.65653 0.97531
 C1474 C 0.48021 0.65988 0.95674
 C1475 C 0.46651 0.64563 0.94802
 C1476 C 0.46101 0.62835 0.95811
 C1477 C 0.45864 0.64887 0.92930
 C1478 C 0.46432 0.66603 0.91927
 C1479 C 0.47781 0.68043 0.92785
 C1480 C 0.48559 0.67721 0.94671
 H1481 H 0.45368 0.59680 0.97978
 H1482 H 0.50269 0.64613 1.01026
 H1483 H 0.49398 0.61606 1.02746
 H1484 H 0.49911 0.66738 0.98195
 H1485 H 0.45042 0.61747 0.95144
 H1486 H 0.44822 0.63805 0.92233
 H1487 H 0.45834 0.66786 0.90467
 H1488 H 0.49570 0.68828 0.95372
 C1489 C 0.53060 0.90098 1.00403
 C1490 C 0.52966 0.88545 0.98982
 C1491 C 0.53660 0.88904 0.97084
 C1492 C 0.54449 0.90803 0.96644
 C1493 C 0.54549 0.92334 0.98068
 C1494 C 0.53855 0.92002 0.99958
 C1495 C 0.53550 0.87365 0.95654
 C1496 C 0.52754 0.85467 0.96097
 C1497 C 0.52074 0.85101 0.97998
 C1498 C 0.52187 0.86641 0.99429
 C1499 C 0.51276 0.83204 0.98432
 C1500 C 0.51120 0.81692 0.96990
 C1501 C 0.51766 0.82046 0.95087
 C1502 C 0.52602 0.83937 0.94658
 H1503 H 0.52545 0.89819 1.01861
 H1504 H 0.54985 0.91106 0.95196
 H1505 H 0.55144 0.93793 0.97682
 H1506 H 0.54074 0.87646 0.94197
 H1507 H 0.51658 0.86361 1.00885
 H1508 H 0.50756 0.82893 0.99883
 H1509 H 0.50494 0.80241 0.97363
 H1510 H 0.53081 0.84236 0.93191
 C1511 C 0.05676 0.39271 0.49114
 C1512 C 0.05225 0.37460 0.48097
 C1513 C 0.04364 0.35827 0.49092
 C1514 C 0.03987 0.36026 0.51085
 C1515 C 0.04421 0.37838 0.52080
 C1516 C 0.05254 0.39482 0.51106
 C1517 C 0.03867 0.34031 0.48076
 C1518 C 0.04194 0.33853 0.46071
 C1519 C 0.05067 0.35479 0.45076
 C1520 C 0.05587 0.37269 0.46097
 C1521 C 0.05384 0.35294 0.43071
 C1522 C 0.04814 0.33527 0.42054
 C1523 C 0.03922 0.31909 0.43024
 C1524 C 0.03636 0.32081 0.45041
 H1525 H 0.06296 0.40535 0.48344
 H1526 H 0.03336 0.34788 0.51872
 H1527 H 0.04110 0.37954 0.53618
 H1528 H 0.03197 0.32784 0.48840
 H1529 H 0.06246 0.38519 0.45331
 H1530 H 0.06049 0.36524 0.42284
 H1531 H 0.05031 0.33443 0.40498
 H1532 H 0.02981 0.30833 0.45812
 C1533 C 0.39769 0.51403 0.48334
 C1534 C 0.38217 0.52770 0.48845
 C1535 C 0.37889 0.53268 0.50824
 C1536 C 0.39093 0.52347 0.52259
 C1537 C 0.40636 0.50979 0.51735
 C1538 C 0.41007 0.50519 0.49769
 C1539 C 0.36382 0.54692 0.51332
 C1540 C 0.35199 0.55619 0.49883
 C1541 C 0.35504 0.55086 0.47907
 C1542 C 0.37008 0.53665 0.47402
 C1543 C 0.34313 0.55996 0.46463
 C1544 C 0.32850 0.57446 0.46964
 C1545 C 0.32556 0.58027 0.48919
 C1546 C 0.33730 0.57088 0.50375
 H1547 H 0.40019 0.51028 0.46815
 H1548 H 0.38861 0.52704 0.53784
 H1549 H 0.41580 0.50324 0.52863
 H1550 H 0.36143 0.55090 0.52849
 H1551 H 0.37254 0.53274 0.45884
 H1552 H 0.34515 0.55591 0.44944
 H1553 H 0.31938 0.58106 0.45816
 H1554 H 0.33535 0.57531 0.51886
 C1555 C 0.89960 0.00040 -0.03133
 C1556 C 0.88284 0.01349 -0.02859
 C1557 C 0.86616 0.00749 -0.01710
 C1558 C 0.86651 -0.01134 -0.00847
 C1559 C 0.88336 -0.02406 -0.01085
 C1560 C 0.90029 -0.01847 -0.02223
 C1561 C 0.84951 0.02051 -0.01411
 C1562 C 0.84956 0.03975 -0.02201
 C1563 C 0.86626 0.04592 -0.03339
 C1564 C 0.88271 0.03266 -0.03681
 C1565 C 0.86634 0.06538 -0.04088
 C1566 C 0.85024 0.07872 -0.03680
 C1567 C 0.83362 0.07277 -0.02534
 C1568 C 0.83329 0.05305 -0.01833
 H1569 H 0.91240 0.00544 -0.03985
 H1570 H 0.85378 -0.01619 0.00031
 H1571 H 0.88268 -0.03855 -0.00407
 H1572 H 0.83674 0.01584 -0.00527
 H1573 H 0.89555 0.03739 -0.04554
 H1574 H 0.87904 0.07042 -0.04959
 H1575 H 0.85106 0.09386 -0.04225
 H1576 H 0.82039 0.04803 -0.00986
 C1577 C 0.61516 0.01626 0.03610
 C1578 C 0.63079 0.03060 0.03390
 C1579 C 0.62743 0.05087 0.03975
 C1580 C 0.60854 0.05635 0.04795
 C1581 C 0.59299 0.04196 0.05000
 C1582 C 0.59605 0.02183 0.04390
 C1583 C 0.64289 0.06533 0.03708
 C1584 C 0.66159 0.05977 0.02848
 C1585 C 0.66495 0.03943 0.02281
 C1586 C 0.64959 0.02498 0.02566
 C1587 C 0.68353 0.03390 0.01412
 C1588 C 0.69856 0.04841 0.01075
 C1589 C 0.69534 0.06873 0.01606
 C1590 C 0.67686 0.07427 0.02515
 H1591 H 0.61789 0.00074 0.03170
 H1592 H 0.60568 0.07181 0.05253
 H1593 H 0.57838 0.04670 0.05591
 H1594 H 0.64028 0.08092 0.04145
 H1595 H 0.65216 0.00941 0.02119
 H1596 H 0.68639 0.01837 0.00978
 H1597 H 0.71279 0.04372 0.00402
 H1598 H 0.67416 0.08992 0.02915
 C1599 C 0.11726 0.52137 0.53338
 C1600 C 0.13358 0.53420 0.52878
 C1601 C 0.15020 0.52666 0.51782
 C1602 C 0.14999 0.50652 0.51132
 C1603 C 0.13360 0.49385 0.51579
 C1604 C 0.11701 0.50092 0.52710
 C1605 C 0.16677 0.53936 0.51358
 C1606 C 0.16683 0.55957 0.52005
 C1607 C 0.14999 0.56721 0.53071
 C1608 C 0.13351 0.55448 0.53503
 C1609 C 0.14998 0.58745 0.53697
 C1610 C 0.16659 0.59999 0.53292
 C1611 C 0.18361 0.59254 0.52261
 C1612 C 0.18352 0.57225 0.51614
 H1613 H 0.10459 0.52767 0.54150
 H1614 H 0.16261 0.50049 0.50286
 H1615 H 0.13448 0.47833 0.51080
 H1616 H 0.17962 0.53351 0.50529
 H1617 H 0.12068 0.56032 0.54335
 H1618 H 0.13714 0.59358 0.54504
 H1619 H 0.16605 0.61561 0.53778
 H1620 H 0.19663 0.56617 0.50842
 C1621 C 0.08924 0.49385 -0.03329
 C1622 C 0.10475 0.47933 -0.03103
 C1623 C 0.10305 0.46056 -0.04102
 C1624 C 0.08601 0.45670 -0.05324
 C1625 C 0.07080 0.47131 -0.05570
 C1626 C 0.07204 0.49017 -0.04576
 C1627 C 0.11847 0.44599 -0.03877
 C1628 C 0.13582 0.45010 -0.02691
 C1629 C 0.13768 0.46899 -0.01711
 C1630 C 0.12208 0.48342 -0.01911
 C1631 C 0.15520 0.47318 -0.00556
 C1632 C 0.17080 0.45885 -0.00378
 C1633 C 0.16913 0.43991 -0.01334
 C1634 C 0.15143 0.43567 -0.02482
 H1635 H 0.09115 0.50824 -0.02577
 H1636 H 0.08443 0.44236 -0.06099
 H1637 H 0.05783 0.46739 -0.06506
 H1638 H 0.11709 0.43155 -0.04640
 H1639 H 0.12350 0.49789 -0.01153
 H1640 H 0.15695 0.48763 0.00196
 H1641 H 0.18436 0.46276 0.00486
 H1642 H 0.14968 0.42107 -0.03206
 C1643 C 0.61328 0.97717 0.45584
 C1644 C 0.63064 0.96522 0.45956
 C1645 C 0.64655 0.97268 0.47199
 C1646 C 0.64464 0.99181 0.48077
 C1647 C 0.62712 1.00345 0.47738
 C1648 C 0.61113 0.99645 0.46478
 C1649 C 0.66400 0.96085 0.47560
 C1650 C 0.66552 0.94139 0.46732
 C1651 C 0.64941 0.93375 0.45521
 C1652 C 0.63218 0.94577 0.45124
 C1653 C 0.65073 0.91411 0.44739
 C1654 C 0.66780 0.90211 0.45158
 C1655 C 0.68410 0.90958 0.46343
 C1656 C 0.68282 0.92939 0.47113
 H1657 H 0.60115 0.97096 0.44655
 H1658 H 0.65670 0.99778 0.49034
 H1659 H 0.62655 1.01823 0.48428
 H1660 H 0.67627 0.96667 0.48505
 H1661 H 0.61988 0.93991 0.44185
 H1662 H 0.63844 0.90794 0.43821
 H1663 H 0.66803 0.88683 0.44574
 H1664 H 0.69533 0.93561 0.47999
 C1665 C 0.89808 0.98465 0.52513
 C1666 C 0.88416 0.96873 0.52158
 C1667 C 0.88867 0.94938 0.52863
 C1668 C 0.90693 0.94638 0.53930
 C1669 C 0.92069 0.96233 0.54279
 C1670 C 0.91649 0.98158 0.53565
 C1671 C 0.87490 0.93336 0.52485
 C1672 C 0.85665 0.93648 0.51415
 C1673 C 0.85209 0.95589 0.50727
 C1674 C 0.86586 0.97188 0.51102
 C1675 C 0.83382 0.95902 0.49670
 C1676 C 0.82020 0.94306 0.49287
 C1677 C 0.82458 0.92361 0.49944
 C1678 C 0.84289 0.92048 0.51017
 H1679 H 0.89450 0.99948 0.51981
 H1680 H 0.91065 0.93166 0.54482
 H1681 H 0.93485 0.95951 0.55076
 H1682 H 0.87840 0.91850 0.53019
 H1683 H 0.86237 0.98673 0.50566
 H1684 H 0.83003 0.97382 0.49142
 H1685 H 0.80605 0.94604 0.48493
 H1686 H 0.84659 0.90554 0.51517
 C1687 C 0.39454 0.48702 0.02557
 C1688 C 0.37627 0.47642 0.02100
 C1689 C 0.35908 0.48678 0.01335
 C1690 C 0.36047 0.50754 0.01037
 C1691 C 0.37868 0.51797 0.01494
 C1692 C 0.39591 0.50787 0.02259
 C1693 C 0.34078 0.47626 0.00884
 C1694 C 0.33940 0.45549 0.01192
 C1695 C 0.35661 0.44512 0.01955
 C1696 C 0.37493 0.45562 0.02400
 C1697 C 0.35516 0.42439 0.02271
 C1698 C 0.33680 0.41404 0.01853
 C1699 C 0.31954 0.42418 0.01104
 C1700 C 0.32103 0.44494 0.00765
 H1701 H 0.40775 0.47900 0.03122
 H1702 H 0.34743 0.51574 0.00458
 H1703 H 0.37917 0.53404 0.01276
 H1704 H 0.32759 0.48425 0.00300
 H1705 H 0.38810 0.44765 0.02987
 H1706 H 0.36820 0.41619 0.02849
 H1707 H 0.33614 0.39801 0.02103
 H1708 H 0.30775 0.45297 0.00209
 C1709 C 0.50623 0.45929 0.40804
 C1710 C 0.51580 0.46273 0.39029
 C1711 C 0.52016 0.48269 0.38485
 C1712 C 0.51454 0.49886 0.39711
 C1713 C 0.50469 0.49531 0.41460
 C1714 C 0.50059 0.47553 0.42026
 C1715 C 0.53003 0.48616 0.36727
 C1716 C 0.53538 0.46994 0.35493
 C1717 C 0.53065 0.45001 0.36019
 C1718 C 0.52097 0.44653 0.37787
 C1719 C 0.53577 0.43388 0.34770
 C1720 C 0.54578 0.43739 0.33029
 C1721 C 0.55098 0.45710 0.32507
 C1722 C 0.54555 0.47333 0.33747
 H1723 H 0.50279 0.44403 0.41221
 H1724 H 0.51771 0.51425 0.39316
 H1725 H 0.50052 0.50799 0.42390
 H1726 H 0.53353 0.50146 0.36318
 H1727 H 0.51749 0.43123 0.38196
 H1728 H 0.53211 0.41853 0.35142
 H1729 H 0.54943 0.42464 0.32088
 H1730 H 0.54968 0.48859 0.33379
 C1731 C 0.00905 -0.03424 0.91395
 C1732 C 0.02178 -0.03144 0.89795
 C1733 C 0.02942 -0.04837 0.88752
 C1734 C 0.02465 -0.06782 0.89368
 C1735 C 0.01211 -0.07046 0.90977
 C1736 C 0.00395 -0.05373 0.91984
 C1737 C 0.04152 -0.04557 0.87106
 C1738 C 0.04625 -0.02604 0.86504
 C1739 C 0.03906 -0.00916 0.87583
 C1740 C 0.02682 -0.01196 0.89216
 C1741 C 0.04413 0.01029 0.87007
 C1742 C 0.05598 0.01307 0.85360
 C1743 C 0.06283 -0.00352 0.84236
 C1744 C 0.05795 -0.02311 0.84832
 H1745 H 0.00306 -0.02127 0.92185
 H1746 H 0.03044 -0.08098 0.88593
 H1747 H 0.00828 -0.08559 0.91404
 H1748 H 0.04717 -0.05856 0.86291
 H1749 H 0.02111 0.00102 0.90028
 H1750 H 0.03893 0.02339 0.87830
 H1751 H 0.05990 0.02831 0.84976
 H1752 H 0.06286 -0.03610 0.83978
 C1753 C 0.00266 0.02943 0.61866
 C1754 C 0.01581 0.02967 0.63505
 C1755 C 0.03613 0.03715 0.63359
 C1756 C 0.04287 0.04443 0.61583
 C1757 C 0.02966 0.04420 0.59961
 C1758 C 0.00949 0.03663 0.60081
 C1759 C 0.04942 0.03713 0.64985
 C1760 C 0.04266 0.02970 0.66757
 C1761 C 0.02228 0.02240 0.66909
 C1762 C 0.00897 0.02247 0.65284
 C1763 C 0.01560 0.01497 0.68681
 C1764 C 0.02905 0.01449 0.70282
 C1765 C 0.04944 0.02147 0.70144
 C1766 C 0.05607 0.02923 0.68375
 H1767 H -0.01295 0.02383 0.61985
 H1768 H 0.05840 0.05020 0.61443
 H1769 H 0.03537 0.04962 0.58601
 H1770 H 0.06505 0.04276 0.64868
 H1771 H -0.00663 0.01677 0.65399
 H1772 H -0.00000 0.00941 0.68826
 H1773 H 0.02348 0.00869 0.71634
 H1774 H 0.07182 0.03441 0.68241
 C1775 C 0.49531 0.51400 0.10568
 C1776 C 0.50901 0.50902 0.12083
 C1777 C 0.53021 0.51364 0.11931
 C1778 C 0.53739 0.52286 0.10264
 C1779 C 0.52369 0.52789 0.08775
 C1780 C 0.50252 0.52374 0.08916
 C1781 C 0.54387 0.50925 0.13457
 C1782 C 0.53663 0.50045 0.15146
 C1783 C 0.51550 0.49560 0.15297
 C1784 C 0.50182 0.49985 0.13762
 C1785 C 0.50840 0.48676 0.16993
 C1786 C 0.52204 0.48305 0.18534
 C1787 C 0.54302 0.48812 0.18410
 C1788 C 0.55021 0.49666 0.16698
 H1789 H 0.47901 0.51086 0.10699
 H1790 H 0.55360 0.52638 0.10118
 H1791 H 0.52968 0.53503 0.07505
 H1792 H 0.56009 0.51293 0.13340
 H1793 H 0.48558 0.49627 0.13883
 H1794 H 0.49227 0.48293 0.17136
 H1795 H 0.51609 0.47660 0.19843
 H1796 H 0.56641 0.50033 0.16573
 C1797 C 0.49448 -0.01034 0.11301
 C1798 C 0.47905 -0.00805 0.12696
 C1799 C 0.45895 -0.01537 0.12281
 C1800 C 0.45465 -0.02487 0.10480
 C1801 C 0.47009 -0.02709 0.09100
 C1802 C 0.49015 -0.01986 0.09492
 C1803 C 0.44349 -0.01310 0.13672
 C1804 C 0.44788 -0.00363 0.15475
 C1805 C 0.46799 0.00369 0.15890
 C1806 C 0.48344 0.00143 0.14499
 C1807 C 0.47232 0.01314 0.17693
 C1808 C 0.45691 0.01530 0.19076
 C1809 C 0.43685 0.00809 0.18684
 C1810 C 0.43247 -0.00137 0.16873
 H1811 H 0.50992 -0.00495 0.11635
 H1812 H 0.43931 -0.03052 0.10135
 H1813 H 0.46622 -0.03422 0.07712
 H1814 H 0.42807 -0.01872 0.13351
 H1815 H 0.49886 0.00704 0.14820
 H1816 H 0.48766 0.01877 0.18037
 H1817 H 0.46080 0.02236 0.20468
 H1818 H 0.41701 -0.00677 0.16542
 C1819 C 0.99707 0.47168 0.59447
 C1820 C 0.98381 0.47721 0.60958
 C1821 C 0.99154 0.48849 0.62580
 C1822 C 1.01234 0.49424 0.62650
 C1823 C 1.02540 0.48881 0.61131
 C1824 C 1.01793 0.47740 0.59524
 C1825 C 0.97839 0.49381 0.64104
 C1826 C 0.95755 0.48816 0.64020
 C1827 C 0.94976 0.47711 0.62387
 C1828 C 0.96294 0.47165 0.60869
 C1829 C 0.92888 0.47167 0.62302
 C1830 C 0.91584 0.47704 0.63823
 C1831 C 0.92343 0.48787 0.65464
 C1832 C 0.94439 0.49337 0.65547
 H1833 H 0.99112 0.46314 0.58199
 H1834 H 1.01853 0.50289 0.63881
 H1835 H 1.04145 0.49322 0.61229
 H1836 H 0.98436 0.50237 0.65353
 H1837 H 0.95697 0.46309 0.59620
 H1838 H 0.92262 0.46330 0.61056
 H1839 H 0.89973 0.47288 0.63704
 H1840 H 0.95056 0.50143 0.66815
 C1841 C 0.98006 0.52617 0.87355
 C1842 C 0.96617 0.52556 0.85768
 C1843 C 0.94613 0.53355 0.85984
 C1844 C 0.94029 0.54192 0.87778
 C1845 C 0.95422 0.54259 0.89342
 C1846 C 0.97425 0.53484 0.89148
 C1847 C 0.93225 0.53313 0.84402
 C1848 C 0.93816 0.52489 0.82602
 C1849 C 0.95818 0.51688 0.82383
 C1850 C 0.97206 0.51726 0.83967
 C1851 C 0.96398 0.50861 0.80581
 C1852 C 0.95005 0.50818 0.79013
 C1853 C 0.93009 0.51607 0.79213
 C1854 C 0.92429 0.52447 0.81017
 H1855 H 0.99552 0.52034 0.87183
 H1856 H 0.92497 0.54803 0.87971
 H1857 H 0.94927 0.54907 0.90714
 H1858 H 0.91689 0.53927 0.84572
 H1859 H 0.98743 0.51114 0.83797
 H1860 H 0.97927 0.50245 0.80384
 H1861 H 0.95497 0.50183 0.77633
 H1862 H 0.90885 0.53036 0.81197
 C1863 C 0.48920 0.02843 0.39652
 C1864 C 0.47758 0.02635 0.37924
 C1865 C 0.48694 0.01859 0.36224
 C1866 C 0.50773 0.01295 0.36287
 C1867 C 0.51922 0.01518 0.38010
 C1868 C 0.51016 0.02305 0.39709
 C1869 C 0.47544 0.01671 0.34488
 C1870 C 0.45468 0.02256 0.34428
 C1871 C 0.44530 0.03027 0.36130
 C1872 C 0.45679 0.03206 0.37867
 C1873 C 0.42458 0.03613 0.36062
 C1874 C 0.41323 0.03439 0.34326
 C1875 C 0.42237 0.02676 0.32624
 C1876 C 0.44317 0.02087 0.32690
 H1877 H 0.48190 0.03421 0.40954
 H1878 H 0.51517 0.00701 0.34997
 H1879 H 0.53536 0.01117 0.37998
 H1880 H 0.48265 0.01079 0.33183
 H1881 H 0.44959 0.03803 0.39171
 H1882 H 0.41713 0.04202 0.37354
 H1883 H 0.39717 0.03877 0.34323
 H1884 H 0.45050 0.01523 0.31382
   
