data_POSCAR
  _audit_creation_date              2014-09-24
  _audit_creation_method            'ToBaCCo'
  _symmetry_space_group_name_H-M    'P1'
  _symmetry_Int_Tables_number       1
  _symmetry_cell_setting            triclinic
  loop_
  _symmetry_equiv_pos_as_xyz
 x,y,z
_cell_length_a 43.5985
_cell_length_b 46.5107
_cell_length_c 58.6854
_cell_angle_alpha 90.000200
_cell_angle_beta 89.982600
_cell_angle_gamma 90.007600
loop_
  _atom_site_label
  _atom_site_type_symbol
  _atom_site_fract_x
  _atom_site_fract_y
  _atom_site_fract_z
B1 B 0.26105 0.23506 0.22928
 B2 B 0.27235 0.26859 0.23453
 B3 B 0.23557 0.26176 0.22919
 B4 B 0.22606 0.22982 0.24078
 B5 B 0.25846 0.21707 0.25390
 B6 B 0.28744 0.24134 0.24965
 B7 B 0.24246 0.26779 0.27411
 B8 B 0.23114 0.23424 0.26889
 B9 B 0.26792 0.24111 0.27421
 B10 B 0.27743 0.27302 0.26260
 B11 B 0.24504 0.28577 0.24950
 B12 B 0.21605 0.26150 0.25375
 B13 B 0.73759 0.76308 0.22850
 B14 B 0.72657 0.72941 0.23350
 B15 B 0.76334 0.73661 0.22842
 B16 B 0.77237 0.76853 0.24025
 B17 B 0.73969 0.78086 0.25324
 B18 B 0.71103 0.75637 0.24868
 B19 B 0.75598 0.73012 0.27328
 B20 B 0.76702 0.76382 0.26831
 B21 B 0.73024 0.75655 0.27336
 B22 B 0.72121 0.72467 0.26151
 B23 B 0.75388 0.71234 0.24854
 B24 B 0.78257 0.73683 0.25311
 B25 B 0.73767 0.23518 -0.22929
 B26 B 0.72648 0.26876 -0.23445
 B27 B 0.76326 0.26178 -0.22926
 B28 B 0.77255 0.22985 -0.24093
 B29 B 0.74001 0.21725 -0.25396
 B30 B 0.71117 0.24161 -0.24957
 B31 B 0.75611 0.26796 -0.27414
 B32 B 0.76732 0.23436 -0.26901
 B33 B 0.73053 0.24138 -0.27419
 B34 B 0.72124 0.27329 -0.26250
 B35 B 0.75377 0.28588 -0.24949
 B36 B 0.78262 0.26153 -0.25389
 B37 B 0.27015 0.75861 -0.27348
 B38 B 0.23336 0.76607 -0.26868
 B39 B 0.24424 0.73232 -0.27356
 B40 B 0.27883 0.72669 -0.26155
 B41 B 0.28906 0.75834 -0.24867
 B42 B 0.26061 0.78299 -0.25345
 B43 B 0.23637 0.73889 -0.22876
 B44 B 0.27315 0.73148 -0.23358
 B45 B 0.26229 0.76522 -0.22868
 B46 B 0.22769 0.77084 -0.24067
 B47 B 0.21745 0.73919 -0.25358
 B48 B 0.24592 0.71455 -0.24880
 B49 B 1.23666 1.26074 0.77053
 B50 B 1.27350 1.26743 0.76528
 B51 B 1.26198 1.23392 0.77035
 B52 B 1.22701 1.22894 0.75877
 B53 B 1.21723 1.26077 0.74594
 B54 B 1.24633 1.28486 0.75036
 B55 B 1.26905 1.24028 0.72547
 B56 B 1.23221 1.23355 0.73069
 B57 B 1.24374 1.26708 0.72565
 B58 B 1.27870 1.27206 0.73724
 B59 B 1.28848 1.24022 0.75005
 B60 B 1.25939 1.21613 0.74564
 B61 B 0.76350 0.73801 0.77185
 B62 B 0.72660 0.73151 0.76669
 B63 B 0.73833 0.76495 0.77178
 B64 B 0.77327 0.76979 0.76010
 B65 B 0.78283 0.73794 0.74720
 B66 B 0.75361 0.71398 0.75167
 B67 B 0.73104 0.75872 0.72690
 B68 B 0.76793 0.76526 0.73203
 B69 B 0.75620 0.73180 0.72698
 B70 B 0.72127 0.72697 0.73866
 B71 B 0.71171 0.75882 0.75153
 B72 B 0.74092 0.78278 0.74708
 B73 B 1.23595 0.73803 0.22849
 B74 B 1.27276 0.73121 0.23369
 B75 B 1.26138 0.76476 0.22864
 B76 B 1.22644 0.76985 0.24027
 B77 B 1.21654 0.73804 0.25310
 B78 B 1.24554 0.71387 0.24864
 B79 B 1.26847 0.75835 0.27352
 B80 B 1.23165 0.76520 0.26833
 B81 B 1.24306 0.73164 0.27335
 B82 B 1.27798 0.72656 0.26172
 B83 B 1.28788 0.75836 0.24891
 B84 B 1.25888 0.78255 0.25337
 B85 B 0.76539 1.26218 0.22955
 B86 B 0.72874 1.26991 0.23461
 B87 B 0.73918 1.23611 0.22945
 B88 B 0.77384 1.23004 0.24123
 B89 B 0.78454 1.26148 0.25426
 B90 B 0.75630 1.28643 0.24978
 B91 B 0.73182 1.24237 0.27432
 B92 B 0.76848 1.23462 0.26929
 B93 B 0.75800 1.26842 0.27441
 B94 B 0.72338 1.27448 0.26263
 B95 B 0.71267 1.24305 0.24962
 B96 B 0.74090 1.21809 0.25410
 N97 N 0.55465 1.03119 0.02522
 N98 N 0.57658 1.04965 0.03046
 N99 N 0.53323 0.97070 0.04088
 N100 N 0.54002 0.95216 0.05716
 N101 N 0.55464 0.97074 0.02511
 N102 N 0.57655 0.95223 0.03029
 N103 N 0.53324 1.03115 0.04099
 N104 N 0.54006 1.04959 0.05734
 C105 C 0.56681 1.06129 0.05028
 C106 C 0.56676 0.94047 0.05007
 N107 N 0.44562 0.97075 0.02490
 N108 N 0.42365 0.95226 0.02999
 N109 N 0.46692 1.03116 0.04085
 N110 N 0.46018 1.04989 0.05701
 N111 N 0.44563 1.03119 0.02499
 N112 N 0.42388 1.04993 0.02997
 N113 N 0.46691 0.97071 0.04075
 N114 N 0.45997 0.95219 0.05701
 Mn115 Mn 0.50007 1.00093 0.04103
 C116 C 0.43328 0.94052 0.04981
 C117 C 0.43360 1.06173 0.04974
 N118 N 0.55482 0.97090 -0.02417
 N119 N 0.57677 0.95243 -0.02933
 N120 N 0.53352 1.03140 -0.03989
 N121 N 0.54027 1.05018 -0.05601
 N122 N 0.55481 1.03134 -0.02404
 N123 N 0.57660 1.05009 -0.02899
 N124 N 0.53352 0.97096 -0.04002
 N125 N 0.54045 0.95252 -0.05635
 Mn126 Mn 0.55496 1.00104 0.00053
 C127 C 0.56713 0.94079 -0.04919
 C128 C 0.56687 1.06196 -0.04874
 N129 N 0.44580 1.03133 -0.02425
 N130 N 0.42399 1.04998 -0.02930
 N131 N 0.46721 0.97094 -0.04015
 N132 N 0.46038 0.95253 -0.05651
 N133 N 0.44580 0.97089 -0.02438
 N134 N 0.42386 0.95244 -0.02963
 N135 N 0.46720 1.03140 -0.04002
 N136 N 0.46049 1.05010 -0.05621
 Mn137 Mn 0.44548 1.00103 0.00032
 Mn138 Mn 0.50037 1.00118 -0.04019
 Cl139 Cl 0.50022 1.00104 0.00042
 C140 C 0.43381 1.06183 -0.04904
 C141 C 0.43363 0.94082 -0.04946
 N142 N 0.96858 0.53188 0.46020
 N143 N 0.94811 0.53779 0.44430
 N144 N 1.03314 0.55142 0.47622
 N145 N 1.05372 0.57139 0.47147
 N146 N 1.03308 0.53138 0.46044
 N147 N 1.05362 0.53718 0.44455
 N148 N 0.96866 0.55194 0.47597
 N149 N 0.94822 0.57203 0.47121
 C150 C 0.93534 0.56262 0.45163
 C151 C 1.06659 0.56189 0.45191
 N152 N 1.03250 0.53157 0.54124
 N153 N 1.05323 0.53710 0.55704
 N154 N 0.96831 0.55207 0.52517
 N155 N 0.94790 0.57224 0.52973
 N156 N 0.96801 0.53211 0.54101
 N157 N 0.94737 0.53818 0.55677
 N158 N 1.03281 0.55155 0.52541
 N159 N 1.05377 0.57122 0.53003
 Mn160 Mn 1.00073 0.55200 0.50069
 C161 C 1.06654 0.56162 0.54960
 C162 C 0.93476 0.56298 0.54927
 N163 N 1.03251 0.46928 0.46055
 N164 N 1.05297 0.46309 0.44469
 N165 N 0.96771 0.44985 0.47616
 N166 N 0.94685 0.43010 0.47150
 N167 N 0.96801 0.46982 0.46032
 N168 N 0.94737 0.46421 0.44448
 N169 N 1.03219 0.44931 0.47639
 N170 N 1.05243 0.42902 0.47172
 Mn171 Mn 1.00055 0.50059 0.46018
 C172 C 1.06549 0.43821 0.45213
 C173 C 0.93412 0.43966 0.45190
 N174 N 0.96743 0.47004 0.54112
 N175 N 0.94659 0.46449 0.55685
 N176 N 1.03187 0.44947 0.52559
 N177 N 1.05254 0.42955 0.53023
 N178 N 1.03193 0.46953 0.54135
 N179 N 1.05264 0.46381 0.55712
 N180 N 0.96737 0.44998 0.52536
 N181 N 0.94648 0.43023 0.52995
 Mn182 Mn 0.99996 0.50081 0.54138
 Mn183 Mn 0.99978 0.44939 0.50087
 Cl184 Cl 1.00026 0.50070 0.50078
 C185 C 0.93348 0.43987 0.54943
 C186 C 1.06552 0.43907 0.54975
 N187 N 1.03281 0.55023 -0.02490
 N188 N 1.05189 0.57122 -0.03027
 N189 N 0.96835 0.53024 -0.04073
 N190 N 0.94907 0.53712 -0.05721
 N191 N 0.96836 0.55014 -0.02482
 N192 N 0.94910 0.57102 -0.03009
 N193 N 1.03282 0.53032 -0.04080
 N194 N 1.05192 0.53732 -0.05738
 C195 C 1.06408 0.56252 -0.05030
 C196 C 0.93682 0.56225 -0.05006
 N197 N 0.96850 0.44799 -0.02509
 N198 N 0.94922 0.42714 -0.03046
 N199 N 1.03291 0.46810 -0.04096
 N200 N 1.05213 0.46136 -0.05753
 N201 N 1.03295 0.44807 -0.02516
 N202 N 1.05219 0.42724 -0.03058
 N203 N 0.96843 0.46803 -0.04089
 N204 N 0.94911 0.46129 -0.05738
 Mn205 Mn 1.00063 0.49917 -0.04100
 C206 C 0.93689 0.43609 -0.05036
 C207 C 1.06441 0.43616 -0.05053
 N208 N 0.96843 0.54992 0.02442
 N209 N 0.94919 0.57076 0.02984
 N210 N 1.03292 0.52996 0.04017
 N211 N 1.05215 0.53676 0.05670
 N212 N 1.03288 0.54999 0.02436
 N213 N 1.05208 0.57087 0.02976
 N214 N 0.96846 0.52989 0.04023
 N215 N 0.94923 0.53665 0.05679
 Mn216 Mn 1.00062 0.55025 -0.00023
 C217 C 0.93696 0.56184 0.04979
 C218 C 1.06435 0.56198 0.04969
 N219 N 1.03302 0.44787 0.02408
 N220 N 1.05257 0.42717 0.02921
 N221 N 0.96854 0.46766 0.04006
 N222 N 0.94918 0.46080 0.05651
 N223 N 0.96857 0.44778 0.02414
 N224 N 0.94923 0.42693 0.02936
 N225 N 1.03302 0.46776 0.04000
 N226 N 1.05257 0.46105 0.05635
 Mn227 Mn 1.00076 0.44775 -0.00051
 Mn228 Mn 1.00073 0.49881 0.04028
 Cl229 Cl 1.00069 0.49900 -0.00037
 C230 C 1.06497 0.43601 0.04912
 C231 C 0.93691 0.43568 0.04932
 N232 N 0.55489 1.02980 0.52396
 N233 N 0.57553 1.04985 0.52837
 N234 N 0.53399 0.96911 0.53965
 N235 N 0.54002 0.94948 0.55527
 N236 N 0.55540 0.96932 0.52390
 N237 N 0.57659 0.94982 0.52838
 N238 N 0.53349 1.02956 0.53973
 N239 N 0.53895 1.04943 0.55526
 C240 C 0.56497 1.06207 0.54776
 C241 C 0.56638 0.93743 0.54780
 N242 N 0.44638 0.96858 0.52392
 N243 N 0.42562 0.94863 0.52831
 N244 N 0.46739 1.02911 0.53975
 N245 N 0.46171 1.04900 0.55523
 N246 N 0.44598 1.02907 0.52399
 N247 N 0.42512 1.04893 0.52835
 N248 N 0.46780 0.96866 0.53966
 N249 N 0.46222 0.94878 0.55518
 Mn250 Mn 0.50066 0.99910 0.53990
 C251 C 0.43611 0.93630 0.54768
 C252 C 0.43553 1.06133 0.54772
 N253 N 0.55537 0.96937 0.47471
 N254 N 0.57624 0.94949 0.47041
 N255 N 0.53348 1.02968 0.45899
 N256 N 0.53887 1.04968 0.44354
 N257 N 0.55488 1.02987 0.47475
 N258 N 0.57545 1.05001 0.47042
 N259 N 0.53395 0.96922 0.45897
 N260 N 0.53964 0.94926 0.44354
 Mn261 Mn 0.55545 0.99960 0.49933
 C262 C 0.56583 0.93699 0.45109
 C263 C 0.56486 1.06232 0.45108
 N264 N 0.44597 1.02915 0.47477
 N265 N 0.42506 1.04897 0.47043
 N266 N 0.46780 0.96879 0.45898
 N267 N 0.46232 0.94887 0.44349
 N268 N 0.44638 0.96865 0.47474
 N269 N 0.42572 0.94861 0.47038
 N270 N 0.46737 1.02925 0.45900
 N271 N 0.46163 1.04912 0.44353
 Mn272 Mn 0.44586 0.99887 0.49935
 Mn273 Mn 0.50065 0.99923 0.45878
 Cl274 Cl 0.50066 0.99919 0.49934
 C275 C 0.43543 1.06140 0.45106
 C276 C 0.43626 0.93631 0.45101
 N277 N 1.05368 1.02945 0.52440
 N278 N 1.07445 1.04932 0.52895
 N279 N 1.03278 0.96874 0.53978
 N280 N 1.03910 0.94939 0.55551
 N281 N 1.05414 0.96905 0.52399
 N282 N 1.07564 0.94991 0.52859
 N283 N 1.03234 1.02908 0.54019
 N284 N 1.03790 1.04868 0.55588
 C285 C 1.06392 1.06131 0.54844
 C286 C 1.06553 0.93756 0.54806
 N287 N 0.94516 0.96835 0.52463
 N288 N 0.92434 0.94856 0.52925
 N289 N 0.96646 1.02867 0.54057
 N290 N 0.96103 1.04831 0.55625
 N291 N 0.94480 1.02877 0.52502
 N292 N 0.92396 1.04850 0.52973
 N293 N 0.96685 0.96832 0.54015
 N294 N 0.96145 0.94853 0.55573
 Mn295 Mn 0.99960 0.99869 0.54037
 C296 C 0.93518 0.93617 0.54848
 C297 C 0.93474 1.06068 0.54906
 N298 N 1.05362 0.96953 0.47487
 N299 N 1.07458 0.94993 0.47008
 N300 N 1.03154 1.02992 0.45972
 N301 N 1.03692 1.04972 0.44414
 N302 N 1.05320 1.02994 0.47526
 N303 N 1.07399 1.04977 0.47066
 N304 N 1.03194 0.96957 0.45934
 N305 N 1.03747 0.95002 0.44360
 Mn306 Mn 1.05401 0.99950 0.49963
 C307 C 1.06384 0.93776 0.45074
 C308 C 1.06315 1.06213 0.45142
 N309 N 0.94430 1.02929 0.47590
 N310 N 0.92329 1.04902 0.47160
 N311 N 0.96601 0.96918 0.45970
 N312 N 0.95999 0.95005 0.44374
 N313 N 0.94465 0.96890 0.47549
 N314 N 0.92345 0.94955 0.47065
 N315 N 0.96567 1.02952 0.46011
 N316 N 0.95987 1.04939 0.44470
 Mn317 Mn 0.94438 0.99883 0.50026
 Mn318 Mn 0.99879 0.99954 0.45952
 Cl319 Cl 0.99919 0.99913 0.49994
 C320 C 0.93369 1.06156 0.45229
 C321 C 0.93373 0.93772 0.45103
 N322 N 0.55263 0.52974 0.02380
 N323 N 0.57318 0.54985 0.02818
 N324 N 0.53206 0.46906 0.03942
 N325 N 0.53851 0.44991 0.05525
 N326 N 0.55343 0.46939 0.02365
 N327 N 0.57509 0.45046 0.02836
 N328 N 0.53129 0.52938 0.03959
 N329 N 0.53664 0.54922 0.05512
 C330 C 0.56251 0.56199 0.04756
 C331 C 0.56503 0.43819 0.04787
 N332 N 0.44452 0.46813 0.02428
 N333 N 0.42415 0.44787 0.02873
 N334 N 0.46548 0.52864 0.03998
 N335 N 0.46031 0.54872 0.05534
 N336 N 0.44379 0.52852 0.02447
 N337 N 0.42315 0.54856 0.02887
 N338 N 0.46623 0.46831 0.03979
 N339 N 0.46132 0.44821 0.05519
 Mn340 Mn 0.49875 0.49884 0.03991
 C341 C 0.43531 0.43547 0.04785
 C342 C 0.43413 0.56111 0.04799
 N343 N 0.55285 0.46955 -0.02540
 N344 N 0.57353 0.44957 -0.02981
 N345 N 0.53044 0.52975 -0.04078
 N346 N 0.53540 0.54983 -0.05619
 N347 N 0.55210 0.52995 -0.02524
 N348 N 0.57248 0.55020 -0.02967
 N349 N 0.53117 0.46942 -0.04093
 N350 N 0.53642 0.44937 -0.05631
 Mn351 Mn 0.55311 0.49966 -0.00081
 C352 C 0.56262 0.43702 -0.04894
 C353 C 0.56139 0.56257 -0.04882
 N354 N 0.44328 0.52876 -0.02457
 N355 N 0.42263 0.54891 -0.02855
 N356 N 0.46537 0.46871 -0.04054
 N357 N 0.46025 0.44863 -0.05592
 N358 N 0.44400 0.46836 -0.02477
 N359 N 0.42366 0.44801 -0.02902
 N360 N 0.46465 0.52902 -0.04035
 N361 N 0.45922 0.54933 -0.05547
 Mn362 Mn 0.44351 0.49844 -0.00015
 Mn363 Mn 0.49790 0.49922 -0.04087
 Cl364 Cl 0.49832 0.49903 -0.00048
 C365 C 0.43323 0.56168 -0.04769
 C366 C 0.43447 0.43575 -0.04831
 C367 C 0.27146 1.21961 0.20740
 C368 C 0.28172 1.20762 0.19085
 C369 C 0.29563 1.19320 0.17175
 C370 C 0.29073 1.16378 0.16838
 C371 C 0.30651 1.14915 0.15116
 C372 C 0.32754 1.16375 0.13710
 C373 C 0.33180 1.19348 0.14031
 C374 C 0.31595 1.20808 0.15752
 C375 C 0.34587 1.14773 0.11988
 C376 C 0.37727 1.15372 0.11688
 C377 C 0.39498 1.13746 0.10173
 C378 C 0.38158 1.11505 0.08932
 C379 C 0.35024 1.10928 0.09185
 C380 C 0.33250 1.12549 0.10700
 C381 C 0.40018 1.09706 0.07483
 C382 C 0.41559 1.08134 0.06314
 H383 H 0.27530 1.15198 0.17943
 H384 H 0.30302 1.12621 0.14938
 H385 H 0.34754 1.20541 0.12961
 H386 H 0.32002 1.23084 0.16003
 H387 H 0.38837 1.17040 0.12676
 H388 H 0.41924 1.14202 0.10003
 H389 H 0.33960 1.09198 0.08235
 H390 H 0.30833 1.12056 0.10871
 C391 C 0.76601 0.71604 0.70513
 C392 C 0.77561 0.70364 0.68857
 C393 C 0.78871 0.68867 0.66945
 C394 C 0.78733 0.65864 0.66845
 C395 C 0.80279 0.64379 0.65121
 C396 C 0.81997 0.65881 0.63474
 C397 C 0.82050 0.68907 0.63554
 C398 C 0.80502 0.70387 0.65281
 C399 C 0.83862 0.64289 0.61768
 C400 C 0.86845 0.65222 0.61224
 C401 C 0.88685 0.63630 0.59738
 C402 C 0.87578 0.61085 0.58770
 C403 C 0.84595 0.60162 0.59264
 C404 C 0.82746 0.61753 0.60752
 C405 C 0.89563 0.59370 0.57354
 C406 C 0.91305 0.57953 0.56219
 H407 H 0.77503 0.64665 0.68138
 H408 H 0.80227 0.62052 0.65129
 H409 H 0.83319 0.70127 0.62297
 H410 H 0.80637 0.72712 0.65349
 H411 H 0.87793 0.67136 0.62003
 H412 H 0.90997 0.64357 0.59378
 H413 H 0.83713 0.58194 0.58525
 H414 H 0.80450 0.60993 0.61116
 C415 C 0.72735 0.77876 0.20668
 C416 C 0.71729 0.79115 0.19025
 C417 C 0.70364 0.80623 0.17136
 C418 C 0.71333 0.83406 0.16589
 C419 C 0.69798 0.84985 0.14911
 C420 C 0.67256 0.83805 0.13763
 C421 C 0.66355 0.80972 0.14280
 C422 C 0.67897 0.79397 0.15958
 C423 C 0.65465 0.85568 0.12116
 C424 C 0.64260 0.84346 0.10111
 C425 C 0.62493 0.86002 0.08611
 C426 C 0.61903 0.88898 0.09095
 C427 C 0.63106 0.90133 0.11076
 C428 C 0.64870 0.88486 0.12575
 C429 C 0.60044 0.90617 0.07586
 C430 C 0.58496 0.92136 0.06378
 H431 H 0.73234 0.84381 0.17493
 H432 H 0.70579 0.87141 0.14529
 H433 H 0.64390 0.80011 0.13450
 H434 H 0.67111 0.77251 0.16380
 H435 H 0.64699 0.82115 0.09697
 H436 H 0.61579 0.85022 0.07080
 H437 H 0.62656 0.92369 0.11475
 H438 H 0.65713 0.89483 0.14120
 C439 C 1.23378 0.28292 0.70386
 C440 C 1.22414 0.29549 0.68740
 C441 C 1.21104 0.31077 0.66843
 C442 C 1.18689 0.29850 0.65610
 C443 C 1.17191 0.31438 0.63920
 C444 C 1.18086 0.34285 0.63445
 C445 C 1.20577 0.35468 0.64650
 C446 C 1.22070 0.33875 0.66340
 C447 C 1.16319 0.36056 0.61793
 C448 C 1.15647 0.38952 0.62283
 C449 C 1.13815 0.40573 0.60810
 C450 C 1.12632 0.39332 0.58825
 C451 C 1.13335 0.36472 0.58296
 C452 C 1.15168 0.34844 0.59768
 C453 C 1.10568 0.40952 0.57400
 C454 C 1.08772 0.42306 0.56263
 H455 H 1.17905 0.27693 0.65999
 H456 H 1.15259 0.30476 0.63049
 H457 H 1.21348 0.37637 0.64304
 H458 H 1.23931 0.34849 0.67289
 H459 H 1.16453 0.39938 0.63843
 H460 H 1.13269 0.42779 0.61245
 H461 H 1.12427 0.35486 0.56766
 H462 H 1.15671 0.32632 0.59329
 C463 C 0.72737 1.21972 -0.20739
 C464 C 0.71725 1.20774 -0.19078
 C465 C 0.70355 1.19334 -0.17158
 C466 C 0.70851 1.16393 -0.16821
 C467 C 0.69296 1.14933 -0.15086
 C468 C 0.67210 1.16395 -0.13667
 C469 C 0.66779 1.19367 -0.13989
 C470 C 0.68340 1.20824 -0.15724
 C471 C 0.65400 1.14795 -0.11930
 C472 C 0.62264 1.15396 -0.11607
 C473 C 0.60512 1.13772 -0.10079
 C474 C 0.61867 1.11531 -0.08846
 C475 C 0.64996 1.10954 -0.09121
 C476 C 0.66752 1.12573 -0.10650
 C477 C 0.60022 1.09732 -0.07387
 C478 C 0.58488 1.08159 -0.06213
 H479 H 0.72380 1.15212 -0.17935
 H480 H 0.69648 1.12640 -0.14907
 H481 H 0.65218 1.20561 -0.12910
 H482 H 0.67929 1.23099 -0.15975
 H483 H 0.61141 1.17063 -0.12588
 H484 H 0.58088 1.14228 -0.09892
 H485 H 0.66071 1.09223 -0.08177
 H486 H 0.69166 1.12079 -0.10837
 C487 C 1.23317 0.71581 0.29515
 C488 C 1.22369 0.70325 0.31168
 C489 C 1.21084 0.68801 0.33077
 C490 C 1.21184 0.65795 0.33134
 C491 C 1.19666 0.64291 0.34862
 C492 C 1.18014 0.65776 0.36554
 C493 C 1.18000 0.68803 0.36516
 C494 C 1.19521 0.70304 0.34786
 C495 C 1.16177 0.64168 0.38267
 C496 C 1.13220 0.65119 0.38865
 C497 C 1.11404 0.63520 0.40363
 C498 C 1.12511 0.60950 0.41289
 C499 C 1.15469 0.60008 0.40740
 C500 C 1.17293 0.61606 0.39239
 C501 C 1.10548 0.59236 0.42723
 C502 C 1.08820 0.57827 0.43875
 H503 H 1.22364 0.64611 0.31808
 H504 H 1.19687 0.61964 0.34821
 H505 H 1.16782 0.70009 0.37809
 H506 H 1.19419 0.72632 0.34752
 H507 H 1.12271 0.67053 0.38119
 H508 H 1.09111 0.64261 0.40765
 H509 H 1.16351 0.58021 0.41447
 H510 H 1.19571 0.60832 0.38832
 C511 C 0.27241 0.78085 -0.20681
 C512 C 0.28243 0.79317 -0.19033
 C513 C 0.29607 0.80813 -0.17138
 C514 C 0.32037 0.79555 -0.15939
 C515 C 0.33584 0.81114 -0.14255
 C516 C 0.32726 0.83962 -0.13751
 C517 C 0.30221 0.85176 -0.14921
 C518 C 0.28679 0.83613 -0.16606
 C519 C 0.34526 0.85705 -0.12097
 C520 C 0.35183 0.88609 -0.12562
 C521 C 0.36959 0.90235 -0.11055
 C522 C 0.38111 0.88990 -0.09061
 C523 C 0.37458 0.86108 -0.08571
 C524 C 0.35679 0.84473 -0.10079
 C525 C 0.39980 0.90687 -0.07544
 C526 C 0.41536 0.92189 -0.06328
 H527 H 0.32791 0.77398 -0.16350
 H528 H 0.35521 0.80127 -0.13407
 H529 H 0.29473 0.87346 -0.14551
 H530 H 0.26809 0.84613 -0.17527
 H531 H 0.34380 0.89611 -0.14116
 H532 H 0.37457 0.92460 -0.11458
 H533 H 0.38330 0.85122 -0.07029
 H534 H 0.35191 0.82253 -0.09660
 C535 C 0.76809 0.28389 0.29632
 C536 C 0.77765 0.29629 0.31290
 C537 C 0.79050 0.31144 0.33202
 C538 C 0.81490 0.29937 0.34420
 C539 C 0.82956 0.31520 0.36128
 C540 C 0.82004 0.34340 0.36637
 C541 C 0.79490 0.35502 0.35446
 C542 C 0.78029 0.33915 0.33738
 C543 C 0.83736 0.36112 0.38309
 C544 C 0.84357 0.39025 0.37849
 C545 C 0.86161 0.40650 0.39338
 C546 C 0.87368 0.39394 0.41310
 C547 C 0.86714 0.36514 0.41808
 C548 C 0.84909 0.34883 0.40320
 C549 C 0.89413 0.41017 0.42745
 C550 C 0.91198 0.42371 0.43892
 H551 H 0.82315 0.27802 0.34006
 H552 H 0.84907 0.30576 0.36989
 H553 H 0.78677 0.37651 0.35818
 H554 H 0.76148 0.34874 0.32801
 H555 H 0.83533 0.40025 0.36300
 H556 H 0.86671 0.42870 0.38925
 H557 H 0.87641 0.35517 0.43328
 H558 H 0.84445 0.32657 0.40735
 C559 C 1.22046 0.27307 0.20724
 C560 C 1.20891 0.28390 0.19067
 C561 C 1.19510 0.29837 0.17155
 C562 C 1.21211 0.31840 0.15899
 C563 C 1.19800 0.33453 0.14181
 C564 C 1.16662 0.33085 0.13697
 C565 C 1.14992 0.31017 0.14935
 C566 C 1.16406 0.29411 0.16654
 C567 C 1.15099 0.34928 0.11980
 C568 C 1.12847 0.33773 0.10526
 C569 C 1.11250 0.35545 0.09010
 C570 C 1.11878 0.38495 0.08920
 C571 C 1.14153 0.39657 0.10328
 C572 C 1.15757 0.37888 0.11845
 C573 C 1.10084 0.40338 0.07463
 C574 C 1.08497 0.41852 0.06279
 H575 H 1.23614 0.32197 0.16278
 H576 H 1.21157 0.35001 0.13242
 H577 H 1.12565 0.30709 0.14628
 H578 H 1.15059 0.27888 0.17630
 H579 H 1.12313 0.31500 0.10568
 H580 H 1.09493 0.34619 0.07930
 H581 H 1.14647 0.41939 0.10286
 H582 H 1.17445 0.38853 0.12961
 C583 C 0.71574 0.76966 0.70495
 C584 C 0.70387 0.77983 0.68825
 C585 C 0.68960 0.79337 0.66893
 C586 C 0.65767 0.79290 0.66665
 C587 C 0.64349 0.80841 0.64917
 C588 C 0.66110 0.82470 0.63375
 C589 C 0.69327 0.82440 0.63584
 C590 C 0.70740 0.80888 0.65334
 C591 C 0.64582 0.84315 0.61644
 C592 C 0.65682 0.87106 0.61206
 C593 C 0.64130 0.88922 0.59699
 C594 C 0.61462 0.87980 0.58606
 C595 C 0.60381 0.85188 0.58992
 C596 C 0.61931 0.83365 0.60500
 C597 C 0.59761 0.89936 0.57183
 C598 C 0.58334 0.91639 0.56053
 H599 H 0.64366 0.78119 0.67875
 H600 H 0.61869 0.80850 0.64826
 H601 H 0.70748 0.83643 0.62408
 H602 H 0.73215 0.80949 0.65502
 H603 H 0.67685 0.87921 0.62084
 H604 H 0.64977 0.91085 0.59425
 H605 H 0.58316 0.84436 0.58157
 H606 H 0.61046 0.81219 0.60780
 C607 C 1.22053 0.72793 -0.20698
 C608 C 1.20835 0.71722 -0.19061
 C609 C 1.19373 0.70274 -0.17183
 C610 C 1.20944 0.68115 -0.15998
 C611 C 1.19432 0.66489 -0.14336
 C612 C 1.16319 0.66994 -0.13841
 C613 C 1.14787 0.69226 -0.14997
 C614 C 1.16303 0.70848 -0.16658
 C615 C 1.14637 0.65119 -0.12209
 C616 C 1.11623 0.64223 -0.12693
 C617 C 1.10052 0.62409 -0.11197
 C618 C 1.11462 0.61455 -0.09193
 C619 C 1.14457 0.62335 -0.08688
 C620 C 1.16038 0.64153 -0.10187
 C621 C 1.09803 0.59587 -0.07667
 C622 C 1.08313 0.58044 -0.06438
 H623 H 1.23315 0.67635 -0.16404
 H624 H 1.20668 0.64769 -0.13498
 H625 H 1.12406 0.69699 -0.14632
 H626 H 1.15061 0.72505 -0.17569
 H627 H 1.10496 0.64883 -0.14252
 H628 H 1.07738 0.61738 -0.11609
 H629 H 1.15569 0.61619 -0.07138
 H630 H 1.18344 0.64823 -0.09755
 C631 C 0.71605 1.23175 0.29620
 C632 C 0.70389 1.22167 0.31282
 C633 C 0.68936 1.20811 0.33203
 C634 C 0.70405 1.18536 0.34318
 C635 C 0.68884 1.17014 0.36034
 C636 C 0.65863 1.17744 0.36656
 C637 C 0.64442 1.20091 0.35570
 C638 C 0.65967 1.21609 0.33852
 C639 C 0.64149 1.15960 0.38330
 C640 C 0.61051 1.15263 0.37943
 C641 C 0.59486 1.13426 0.39427
 C642 C 0.60987 1.12260 0.41320
 C643 C 0.64050 1.12983 0.41749
 C644 C 0.65622 1.14824 0.40266
 C645 C 0.59423 1.10203 0.42741
 C646 C 0.58092 1.08422 0.43860
 H647 H 0.72695 1.17886 0.33817
 H648 H 0.70029 1.15196 0.36812
 H649 H 0.62135 1.20731 0.36030
 H650 H 0.64806 1.23362 0.32996
 H651 H 0.59863 1.16060 0.36452
 H652 H 0.57123 1.12865 0.39069
 H653 H 0.65237 1.12090 0.43208
 H654 H 0.67994 1.15343 0.40625
 C655 C 0.77885 0.72559 0.20653
 C656 C 0.79082 0.71485 0.19008
 C657 C 0.80520 0.70037 0.17120
 C658 C 0.79091 0.67650 0.16127
 C659 C 0.80610 0.66049 0.14454
 C660 C 0.83592 0.66807 0.13757
 C661 C 0.84972 0.69261 0.14720
 C662 C 0.83448 0.70859 0.16392
 C663 C 0.85310 0.64970 0.12119
 C664 C 0.88446 0.64400 0.12466
 C665 C 0.90054 0.62605 0.10977
 C666 C 0.88561 0.61346 0.09118
 C667 C 0.85445 0.61906 0.08746
 C668 C 0.83827 0.63705 0.10237
 C669 C 0.90252 0.59485 0.07607
 C670 C 0.91766 0.57954 0.06385
 H671 H 0.76836 0.66977 0.16692
 H672 H 0.79497 0.64156 0.13770
 H673 H 0.87245 0.69927 0.14197
 H674 H 0.84581 0.72696 0.17153
 H675 H 0.89644 0.65296 0.13918
 H676 H 0.92462 0.62182 0.11286
 H677 H 0.84266 0.60952 0.07308
 H678 H 0.81424 0.64121 0.09910
 C679 C 0.28430 1.22945 0.70345
 C680 C 0.29617 1.21933 0.68673
 C681 C 0.31048 1.20583 0.66740
 C682 C 0.29608 1.18258 0.65669
 C683 C 0.31119 1.16748 0.63941
 C684 C 0.34100 1.17541 0.63264
 C685 C 0.35489 1.19938 0.64305
 C686 C 0.33974 1.21443 0.66035
 C687 C 0.35814 1.15773 0.61578
 C688 C 0.38940 1.15157 0.61922
 C689 C 0.40512 1.13335 0.60431
 C690 C 0.38990 1.12104 0.58573
 C691 C 0.35897 1.12747 0.58187
 C692 C 0.34317 1.14572 0.59678
 C693 C 0.40570 1.10065 0.57147
 C694 C 0.41919 1.08300 0.56023
 H695 H 0.27352 1.17561 0.66214
 H696 H 0.30001 1.14893 0.63198
 H697 H 0.37762 1.20627 0.63801
 H698 H 0.35112 1.23236 0.66856
 H699 H 0.40148 1.16006 0.63387
 H700 H 0.42900 1.12836 0.60757
 H701 H 0.34693 1.11802 0.56756
 H702 H 0.31922 1.15029 0.59352
 C703 C 0.77865 0.27295 -0.20737
 C704 C 0.79062 0.28366 -0.19092
 C705 C 0.80512 0.29800 -0.17203
 C706 C 0.79019 0.32082 -0.16112
 C707 C 0.80542 0.33681 -0.14439
 C708 C 0.83589 0.33024 -0.13840
 C709 C 0.85035 0.30670 -0.14901
 C710 C 0.83509 0.29076 -0.16574
 C711 C 0.85301 0.34865 -0.12202
 C712 C 0.88389 0.35575 -0.12619
 C713 C 0.89993 0.37363 -0.11121
 C714 C 0.88542 0.38473 -0.09185
 C715 C 0.85473 0.37776 -0.08747
 C716 C 0.83860 0.35986 -0.10247
 C717 C 0.90233 0.40320 -0.07664
 C718 C 0.91751 0.41842 -0.06438
 H719 H 0.76707 0.32678 -0.16599
 H720 H 0.79375 0.35496 -0.13676
 H721 H 0.87361 0.30079 -0.14454
 H722 H 0.84691 0.27321 -0.17411
 H723 H 0.89552 0.34794 -0.14127
 H724 H 0.92364 0.37891 -0.11482
 H725 H 0.84329 0.38616 -0.07249
 H726 H 0.81495 0.35460 -0.09867
 C727 C 0.28378 0.76908 0.29553
 C728 C 0.29573 0.77908 0.31226
 C729 C 0.31017 0.79242 0.33160
 C730 C 0.29610 0.81590 0.34224
 C731 C 0.31138 0.83083 0.35952
 C732 C 0.34103 0.82252 0.36636
 C733 C 0.35457 0.79833 0.35602
 C734 C 0.33925 0.78343 0.33873
 C735 C 0.35838 0.84003 0.38318
 C736 C 0.38974 0.84580 0.37976
 C737 C 0.40566 0.86393 0.39461
 C738 C 0.39055 0.87654 0.41312
 C739 C 0.35953 0.87048 0.41698
 C740 C 0.34353 0.85232 0.40213
 C741 C 0.40652 0.89691 0.42729
 C742 C 0.42004 0.91458 0.43849
 H743 H 0.27369 0.82318 0.33673
 H744 H 0.30047 0.84957 0.36689
 H745 H 0.37718 0.79115 0.36110
 H746 H 0.35037 0.76532 0.33057
 H747 H 0.40174 0.83709 0.36516
 H748 H 0.42961 0.86864 0.39135
 H749 H 0.34757 0.88017 0.43123
 H750 H 0.31951 0.84806 0.40538
 C751 C 1.21205 1.21814 0.28672
 C752 C 1.19845 1.20611 0.30178
 C753 C 1.18323 1.19202 0.32035
 C754 C 1.19212 1.16427 0.32671
 C755 C 1.17795 1.15072 0.34514
 C756 C 1.15474 1.16482 0.35749
 C757 C 1.14608 1.19280 0.35104
 C758 C 1.16032 1.20633 0.33259
 C759 C 1.13911 1.14998 0.37659
 C760 C 1.10708 1.15183 0.37907
 C761 C 1.09208 1.13603 0.39597
 C762 C 1.10889 1.11832 0.41065
 C763 C 1.14084 1.11700 0.40876
 C764 C 1.15589 1.13277 0.39187
 C765 C 1.09312 1.09962 0.42620
 C766 C 1.07960 1.08299 0.43829
 H767 H 1.20999 1.15311 0.31740
 H768 H 1.18480 1.12903 0.34949
 H769 H 1.12853 1.20430 0.36039
 H770 H 1.15356 1.22797 0.32794
 H771 H 1.09352 1.16461 0.36740
 H772 H 1.06729 1.13696 0.39715
 H773 H 1.15403 1.10325 0.41998
 H774 H 1.18062 1.13125 0.39057
 C775 C 0.70739 0.71591 -0.21534
 C776 C 0.69366 0.70469 -0.19998
 C777 C 0.67840 0.69191 -0.18089
 C778 C 0.69272 0.69194 -0.15956
 C779 C 0.67826 0.67922 -0.14088
 C780 C 0.64925 0.66640 -0.14336
 C781 C 0.63490 0.66679 -0.16484
 C782 C 0.64943 0.67949 -0.18350
 C783 C 0.63447 0.65166 -0.12389
 C784 C 0.60270 0.65417 -0.12026
 C785 C 0.58840 0.63832 -0.10307
 C786 C 0.60569 0.61989 -0.08930
 C787 C 0.63744 0.61794 -0.09230
 C788 C 0.65180 0.63379 -0.10946
 C789 C 0.59046 0.60088 -0.07373
 C790 C 0.57736 0.58390 -0.06174
 H791 H 0.71511 0.70169 -0.15739
 H792 H 0.68969 0.67947 -0.12450
 H793 H 0.61277 0.65670 -0.16732
 H794 H 0.63822 0.67940 -0.19998
 H795 H 0.58887 0.66805 -0.13093
 H796 H 0.56376 0.63982 -0.10094
 H797 H 0.65095 0.60347 -0.08188
 H798 H 0.67623 0.63118 -0.11204
 C799 C 0.78624 1.21821 0.71310
 C800 C 0.79977 1.20611 0.69804
 C801 C 0.81494 1.19190 0.67951
 C802 C 0.80422 1.16524 0.67192
 C803 C 0.81850 1.15156 0.65359
 C804 C 0.84367 1.16445 0.64259
 C805 C 0.85413 1.19139 0.65025
 C806 C 0.83979 1.20505 0.66859
 C807 C 0.85945 1.14935 0.62368
 C808 C 0.89167 1.14906 0.62250
 C809 C 0.90662 1.13304 0.60572
 C810 C 0.88959 1.11723 0.58987
 C811 C 0.85753 1.11802 0.59049
 C812 C 0.84252 1.13404 0.60727
 C813 C 0.90505 1.09833 0.57431
 C814 C 0.91839 1.08159 0.56221
 H815 H 0.78487 1.15500 0.68020
 H816 H 0.81021 1.13065 0.64830
 H817 H 0.87322 1.20198 0.64194
 H818 H 0.84801 1.22586 0.67421
 H819 H 0.90533 1.16033 0.63506
 H820 H 0.93146 1.13232 0.60550
 H821 H 0.84415 1.10575 0.57835
 H822 H 0.81769 1.13419 0.60757
 C823 C 0.29171 0.71534 0.21571
 C824 C 0.30503 0.70365 0.20038
 C825 C 0.31969 0.69010 0.18136
 C826 C 0.30836 0.66399 0.17310
 C827 C 0.32184 0.65115 0.15409
 C828 C 0.34679 0.66437 0.14306
 C829 C 0.35790 0.69074 0.15142
 C830 C 0.34437 0.70354 0.17047
 C831 C 0.36178 0.65007 0.12346
 C832 C 0.39395 0.64937 0.12182
 C833 C 0.40818 0.63368 0.10452
 C834 C 0.39047 0.61864 0.08863
 C835 C 0.35846 0.62000 0.08963
 C836 C 0.34416 0.63570 0.10692
 C837 C 0.40521 0.59953 0.07289
 C838 C 0.41810 0.58247 0.06084
 H839 H 0.28912 0.65355 0.18136
 H840 H 0.31309 0.63064 0.14827
 H841 H 0.37686 0.70154 0.14313
 H842 H 0.35304 0.72394 0.17662
 H843 H 0.40811 0.65992 0.13446
 H844 H 0.43299 0.63248 0.10402
 H845 H 0.34457 0.60828 0.07746
 H846 H 0.31934 0.63621 0.10758
 C847 C 1.21497 0.78236 0.71323
 C848 C 1.20192 0.79461 0.69802
 C849 C 1.18745 0.80899 0.67927
 C850 C 1.15563 0.80773 0.67653
 C851 C 1.14174 0.82171 0.65816
 C852 C 1.15960 0.83705 0.64230
 C853 C 1.19163 0.83789 0.64510
 C854 C 1.20543 0.82396 0.66350
 C855 C 1.14478 0.85294 0.62337
 C856 C 1.15507 0.88060 0.61742
 C857 C 1.14007 0.89633 0.60051
 C858 C 1.11467 0.88464 0.58931
 C859 C 1.10461 0.85691 0.59474
 C860 C 1.11960 0.84110 0.61165
 C861 C 1.09764 0.90209 0.57360
 C862 C 1.08311 0.91774 0.56137
 H863 H 1.14156 0.79611 0.68865
 H864 H 1.11700 0.82102 0.65664
 H865 H 1.20601 0.84921 0.63302
 H866 H 1.23013 0.82489 0.66544
 H867 H 1.17408 0.89047 0.62635
 H868 H 1.14782 0.91791 0.59659
 H869 H 1.08484 0.84774 0.58623
 H870 H 1.11141 0.81971 0.61567
 C871 C 0.71049 0.28651 0.21668
 C872 C 0.69784 0.29899 0.20143
 C873 C 0.68410 0.31363 0.18256
 C874 C 0.70032 0.33551 0.17154
 C875 C 0.68751 0.34942 0.15277
 C876 C 0.65821 0.34165 0.14485
 C877 C 0.64218 0.31943 0.15595
 C878 C 0.65512 0.30545 0.17469
 C879 C 0.64401 0.35738 0.12562
 C880 C 0.62661 0.34275 0.10908
 C881 C 0.61196 0.35799 0.09167
 C882 C 0.61467 0.38793 0.09062
 C883 C 0.63241 0.40256 0.10672
 C884 C 0.64699 0.38742 0.12411
 C885 C 0.59763 0.40416 0.07417
 C886 C 0.58293 0.41903 0.06148
 H887 H 0.72291 0.34176 0.17743
 H888 H 0.70058 0.36616 0.14438
 H889 H 0.61943 0.31324 0.15042
 H890 H 0.64252 0.28837 0.18306
 H891 H 0.62422 0.31959 0.10967
 H892 H 0.59813 0.34652 0.07932
 H893 H 0.63435 0.42578 0.10615
 H894 H 0.65981 0.39933 0.13679
 C895 C 0.78567 0.78011 0.28627
 C896 C 0.79880 0.79251 0.30137
 C897 C 0.81325 0.80718 0.31999
 C898 C 0.79524 0.82239 0.33560
 C899 C 0.80901 0.83668 0.35384
 C900 C 0.84104 0.83597 0.35667
 C901 C 0.85893 0.82037 0.34098
 C902 C 0.84508 0.80603 0.32276
 C903 C 0.85580 0.85221 0.37544
 C904 C 0.88095 0.84061 0.38733
 C905 C 0.89577 0.85667 0.40419
 C906 C 0.88556 0.88443 0.40938
 C907 C 0.86022 0.89591 0.39797
 C908 C 0.84540 0.87993 0.38112
 C909 C 0.90228 0.90205 0.42518
 C910 C 0.91652 0.91781 0.43753
 H911 H 0.77055 0.82326 0.33363
 H912 H 0.79459 0.84818 0.36579
 H913 H 0.88367 0.81975 0.34253
 H914 H 0.85918 0.79423 0.31077
 H915 H 0.88923 0.81920 0.38352
 H916 H 0.91548 0.84766 0.41287
 H917 H 0.85235 0.91750 0.40172
 H918 H 0.82640 0.88962 0.37206
 C919 C 0.29261 0.28302 -0.21669
 C920 C 0.30610 0.29410 -0.20116
 C921 C 0.32092 0.30661 -0.18177
 C922 C 0.30651 0.30551 -0.16049
 C923 C 0.32047 0.31801 -0.14152
 C924 C 0.34909 0.33167 -0.14366
 C925 C 0.36357 0.33232 -0.16509
 C926 C 0.34953 0.31986 -0.18405
 C927 C 0.36330 0.34621 -0.12388
 C928 C 0.39509 0.34435 -0.12016
 C929 C 0.40885 0.36018 -0.10272
 C930 C 0.39099 0.37794 -0.08879
 C931 C 0.35921 0.37918 -0.09186
 C932 C 0.34539 0.36334 -0.10927
 C933 C 0.40569 0.39712 -0.07309
 C934 C 0.41853 0.41426 -0.06108
 H935 H 0.28441 0.29510 -0.15858
 H936 H 0.30896 0.31696 -0.12519
 H937 H 0.38541 0.34307 -0.16730
 H938 H 0.36081 0.32078 -0.20049
 H939 H 0.40936 0.33105 -0.13098
 H940 H 0.43351 0.35923 -0.10055
 H941 H 0.34526 0.39315 -0.08132
 H942 H 0.32092 0.36543 -0.11191
 C943 C 1.22146 0.27194 -0.20752
 C944 C 1.20965 0.28272 -0.19102
 C945 C 1.19535 0.29717 -0.17209
 C946 C 1.16562 0.28969 -0.16536
 C947 C 1.15049 0.30575 -0.14863
 C948 C 1.16485 0.32964 -0.13846
 C949 C 1.19511 0.33645 -0.14486
 C950 C 1.21021 0.32035 -0.16160
 C951 C 1.14782 0.34816 -0.12210
 C952 C 1.16249 0.35994 -0.10286
 C953 C 1.14644 0.37799 -0.08792
 C954 C 1.11559 0.38455 -0.09204
 C955 C 1.10084 0.37288 -0.11108
 C956 C 1.11678 0.35486 -0.12600
 C957 C 1.09878 0.40316 -0.07687
 C958 C 1.08369 0.41846 -0.06461
 H959 H 1.15387 0.27185 -0.17341
 H960 H 1.12740 0.29966 -0.14383
 H961 H 1.20670 0.35487 -0.13758
 H962 H 1.23313 0.32650 -0.16682
 H963 H 1.18627 0.35500 -0.09927
 H964 H 1.15809 0.38682 -0.07319
 H965 H 1.07699 0.37786 -0.11449
 H966 H 1.10495 0.34661 -0.14084
 C967 C 0.71444 0.76713 0.29525
 C968 C 0.70185 0.77701 0.31176
 C969 C 0.68645 0.79025 0.33076
 C970 C 0.65517 0.79661 0.32919
 C971 C 0.64059 0.81192 0.34659
 C972 C 0.65716 0.82120 0.36581
 C973 C 0.68848 0.81410 0.36749
 C974 C 0.70301 0.79871 0.35006
 C975 C 0.64212 0.83950 0.38332
 C976 C 0.65752 0.86347 0.39246
 C977 C 0.64254 0.88209 0.40750
 C978 C 0.61201 0.87699 0.41369
 C979 C 0.59673 0.85281 0.40517
 C980 C 0.61167 0.83416 0.39011
 C981 C 0.59587 0.89749 0.42765
 C982 C 0.58221 0.91523 0.43870
 H983 H 0.64220 0.79041 0.31423
 H984 H 0.61661 0.81740 0.34459
 H985 H 0.70177 0.82066 0.38217
 H986 H 0.72725 0.79393 0.35144
 H987 H 0.68079 0.86842 0.38734
 H988 H 0.65453 0.90084 0.41387
 H989 H 0.57309 0.84866 0.40981
 H990 H 0.59931 0.81572 0.38359
 C991 C 0.77875 0.72670 -0.20626
 C992 C 0.79063 0.71587 -0.18981
 C993 C 0.80504 0.70138 -0.17096
 C994 C 0.83469 0.70904 -0.16418
 C995 C 0.84994 0.69299 -0.14752
 C996 C 0.83577 0.66892 -0.13745
 C997 C 0.80559 0.66192 -0.14390
 C998 C 0.79038 0.67801 -0.16057
 C999 C 0.85293 0.65042 -0.12115
 C1000 C 0.83832 0.63840 -0.10198
 C1001 C 0.85448 0.62036 -0.08711
 C1002 C 0.88540 0.61405 -0.09123
 C1003 C 0.90010 0.62598 -0.11020
 C1004 C 0.88404 0.64400 -0.12505
 C1005 C 0.90231 0.59540 -0.07616
 C1006 C 0.91747 0.58005 -0.06400
 H1007 H 0.84630 0.72703 -0.17215
 H1008 H 0.87297 0.69922 -0.14269
 H1009 H 0.79415 0.64336 -0.13670
 H1010 H 0.76751 0.67172 -0.16582
 H1011 H 0.81449 0.64313 -0.09839
 H1012 H 0.84287 0.61132 -0.07244
 H1013 H 0.92399 0.62121 -0.11361
 H1014 H 0.89584 0.65245 -0.13984
 C1015 C 0.28319 1.23015 0.29617
 C1016 C 0.29514 1.21990 0.31282
 C1017 C 0.30957 1.20624 0.33203
 C1018 C 0.33884 1.21482 0.33903
 C1019 C 0.35411 1.19963 0.35620
 C1020 C 0.34032 1.17555 0.36652
 C1021 C 0.31050 1.16763 0.35979
 C1022 C 0.29527 1.18286 0.34264
 C1023 C 0.35755 1.15778 0.38326
 C1024 C 0.34267 1.14562 0.40226
 C1025 C 0.35857 1.12735 0.41708
 C1026 C 0.38952 1.12104 0.41315
 C1027 C 0.40464 1.13347 0.39457
 C1028 C 0.38882 1.15171 0.37974
 C1029 C 0.40544 1.10066 0.42736
 C1030 C 0.41901 1.08304 0.43857
 H1031 H 0.35015 1.23284 0.33089
 H1032 H 0.37686 1.20651 0.36120
 H1033 H 0.29939 1.14899 0.36715
 H1034 H 0.27270 1.17590 0.33722
 H1035 H 0.31872 1.15011 0.40558
 H1036 H 0.34661 1.11782 0.43139
 H1037 H 0.42853 1.12858 0.39126
 H1038 H 0.40084 1.16031 0.36510
 C1039 C 1.22067 0.72686 0.20657
 C1040 C 1.20881 0.71608 0.19010
 C1041 C 1.19447 0.70158 0.17122
 C1042 C 1.20979 0.67908 0.16018
 C1043 C 1.19475 0.66287 0.14350
 C1044 C 1.16409 0.66889 0.13769
 C1045 C 1.14923 0.69212 0.14842
 C1046 C 1.16430 0.70829 0.16510
 C1047 C 1.14721 0.65021 0.12137
 C1048 C 1.11653 0.64251 0.12568
 C1049 C 1.10073 0.62442 0.11074
 C1050 C 1.11527 0.61368 0.09127
 C1051 C 1.14576 0.62123 0.08674
 C1052 C 1.16167 0.63935 0.10170
 C1053 C 1.09858 0.59506 0.07604
 C1054 C 1.08356 0.57973 0.06376
 H1055 H 1.23307 0.67354 0.16493
 H1056 H 1.20673 0.64496 0.13577
 H1057 H 1.12581 0.69760 0.14409
 H1058 H 1.15219 0.72558 0.17358
 H1059 H 1.10489 0.65005 0.14085
 H1060 H 1.07716 0.61868 0.11446
 H1061 H 1.15723 0.61313 0.07167
 H1062 H 1.18516 0.64508 0.09779
 C1063 C 0.71515 1.23054 0.70385
 C1064 C 0.70324 1.22041 0.68715
 C1065 C 0.68894 1.20687 0.66783
 C1066 C 0.70352 1.18382 0.65698
 C1067 C 0.68849 1.16869 0.63969
 C1068 C 0.65857 1.17639 0.63304
 C1069 C 0.64449 1.20016 0.64360
 C1070 C 0.65956 1.21524 0.66091
 C1071 C 0.64155 1.15869 0.61614
 C1072 C 0.61036 1.15222 0.61961
 C1073 C 0.59478 1.13398 0.60464
 C1074 C 0.61006 1.12195 0.58597
 C1075 C 0.64092 1.12869 0.58208
 C1076 C 0.65658 1.14696 0.59704
 C1077 C 0.59443 1.10152 0.57164
 C1078 C 0.58110 1.08382 0.56034
 H1079 H 0.72619 1.17703 0.66233
 H1080 H 0.69983 1.15030 0.63215
 H1081 H 0.62166 1.20687 0.63866
 H1082 H 0.64804 1.23302 0.66922
 H1083 H 0.59824 1.16049 0.63432
 H1084 H 0.57096 1.12876 0.60792
 H1085 H 0.65300 1.11946 0.56769
 H1086 H 0.68047 1.15176 0.59375
 C1087 C 0.78118 0.27305 0.20772
 C1088 C 0.79340 0.28349 0.19125
 C1089 C 0.80808 0.29749 0.17227
 C1090 C 0.79057 0.31286 0.15641
 C1091 C 0.80503 0.32880 0.13926
 C1092 C 0.83724 0.32954 0.13774
 C1093 C 0.85459 0.31347 0.15346
 C1094 C 0.84009 0.29764 0.17062
 C1095 C 0.85283 0.34781 0.12045
 C1096 C 0.87942 0.33801 0.10928
 C1097 C 0.89511 0.35585 0.09405
 C1098 C 0.88450 0.38373 0.08972
 C1099 C 0.85777 0.39352 0.10042
 C1100 C 0.84199 0.37568 0.11565
 C1101 C 0.90187 0.40254 0.07506
 C1102 C 0.91732 0.41794 0.06313
 H1103 H 0.76577 0.31295 0.15755
 H1104 H 0.79103 0.34066 0.12727
 H1105 H 0.87941 0.31391 0.15298
 H1106 H 0.85389 0.28607 0.18294
 H1107 H 0.88813 0.31656 0.11239
 H1108 H 0.91577 0.34802 0.08587
 H1109 H 0.84943 0.41510 0.09731
 H1110 H 0.82185 0.38401 0.12418
 C1111 C 0.28624 0.76904 0.70471
 C1112 C 0.29901 0.77876 0.68820
 C1113 C 0.31455 0.79176 0.66917
 C1114 C 0.34584 0.79809 0.67078
 C1115 C 0.36056 0.81309 0.65329
 C1116 C 0.34414 0.82210 0.63392
 C1117 C 0.31282 0.81504 0.63220
 C1118 C 0.29813 0.79996 0.64973
 C1119 C 0.35935 0.84006 0.61626
 C1120 C 0.34405 0.86387 0.60678
 C1121 C 0.35917 0.88218 0.59158
 C1122 C 0.38973 0.87693 0.58557
 C1123 C 0.40491 0.85290 0.59444
 C1124 C 0.38983 0.83455 0.60966
 C1125 C 0.40601 0.89716 0.57145
 C1126 C 0.41973 0.91470 0.56025
 H1127 H 0.35869 0.79209 0.68585
 H1128 H 0.38455 0.81855 0.65532
 H1129 H 0.29963 0.82139 0.61740
 H1130 H 0.27388 0.79520 0.64831
 H1131 H 0.32075 0.86895 0.61175
 H1132 H 0.34726 0.90083 0.58494
 H1133 H 0.42858 0.84863 0.58993
 H1134 H 0.40211 0.81622 0.61643
 C1135 C 0.27219 1.21833 -0.20778
 C1136 C 0.28230 1.20634 -0.19118
 C1137 C 0.29605 1.19201 -0.17198
 C1138 C 0.31575 1.20713 -0.15744
 C1139 C 0.33148 1.19267 -0.14010
 C1140 C 0.32774 1.16284 -0.13708
 C1141 C 0.30731 1.14800 -0.15147
 C1142 C 0.29165 1.16249 -0.16881
 C1143 C 0.34600 1.14699 -0.11973
 C1144 C 0.33279 1.12441 -0.10713
 C1145 C 0.35052 1.10838 -0.09186
 C1146 C 0.38168 1.11466 -0.08893
 C1147 C 0.39491 1.13742 -0.10106
 C1148 C 0.37721 1.15351 -0.11633
 C1149 C 0.40031 1.09687 -0.07433
 C1150 C 0.41575 1.08129 -0.06254
 H1151 H 0.31944 1.22998 -0.15980
 H1152 H 0.34675 1.20478 -0.12915
 H1153 H 0.30424 1.12499 -0.14984
 H1154 H 0.27671 1.15051 -0.18010
 H1155 H 0.30877 1.11908 -0.10915
 H1156 H 0.34002 1.09080 -0.08258
 H1157 H 0.41904 1.14238 -0.09905
 H1158 H 0.38820 1.17047 -0.12598
 C1159 C 0.76601 0.71437 0.29510
 C1160 C 0.77570 0.70188 0.31159
 C1161 C 0.78886 0.68675 0.33062
 C1162 C 0.80362 0.70199 0.34802
 C1163 C 0.81911 0.68720 0.36530
 C1164 C 0.82016 0.65694 0.36535
 C1165 C 0.80455 0.64185 0.34809
 C1166 C 0.78907 0.65667 0.33085
 C1167 C 0.83881 0.64118 0.38252
 C1168 C 0.82850 0.61496 0.39176
 C1169 C 0.84705 0.59932 0.40677
 C1170 C 0.87609 0.60968 0.41278
 C1171 C 0.88629 0.63598 0.40402
 C1172 C 0.86781 0.65164 0.38902
 C1173 C 0.89609 0.59287 0.42708
 C1174 C 0.91359 0.57894 0.43856
 H1175 H 0.80373 0.72529 0.34796
 H1176 H 0.83056 0.69945 0.37848
 H1177 H 0.80527 0.61859 0.34742
 H1178 H 0.77799 0.64466 0.31734
 H1179 H 0.80617 0.60648 0.38729
 H1180 H 0.83891 0.57898 0.41344
 H1181 H 0.90879 0.64414 0.40844
 H1182 H 0.87666 0.67148 0.38196
 C1183 C 0.72869 1.22079 0.20754
 C1184 C 0.71840 1.20872 0.19104
 C1185 C 0.70447 1.19404 0.17207
 C1186 C 0.71501 1.16687 0.16548
 C1187 C 0.69951 1.15138 0.14861
 C1188 C 0.67312 1.16279 0.13814
 C1189 C 0.66323 1.19049 0.14445
 C1190 C 0.67878 1.20596 0.16132
 C1191 C 0.65516 1.14536 0.12158
 C1192 C 0.64168 1.15814 0.10226
 C1193 C 0.62391 1.14173 0.08722
 C1194 C 0.61935 1.11237 0.09128
 C1195 C 0.63283 1.09947 0.11035
 C1196 C 0.65057 1.11579 0.12538
 C1197 C 0.60062 1.09534 0.07619
 C1198 C 0.58506 1.08027 0.06407
 H1199 H 0.73481 1.15740 0.17373
 H1200 H 0.70800 1.13032 0.14391
 H1201 H 0.64282 1.19977 0.13695
 H1202 H 0.67026 1.22688 0.16642
 H1203 H 0.64500 1.18077 0.09873
 H1204 H 0.61364 1.15196 0.07249
 H1205 H 0.62938 1.07679 0.11372
 H1206 H 0.66014 1.10536 0.14026
 C1207 C 1.23444 0.71659 0.70457
 C1208 C 1.22494 0.70409 0.68802
 C1209 C 1.21202 0.68889 0.66894
 C1210 C 1.22156 0.66085 0.66398
 C1211 C 1.20676 0.64500 0.64697
 C1212 C 1.18209 0.65698 0.63473
 C1213 C 1.17327 0.68549 0.63942
 C1214 C 1.18812 0.70129 0.65643
 C1215 C 1.16450 0.63935 0.61810
 C1216 C 1.15328 0.65155 0.59779
 C1217 C 1.13494 0.63540 0.58299
 C1218 C 1.12763 0.60685 0.58824
 C1219 C 1.13919 0.59436 0.60815
 C1220 C 1.15751 0.61045 0.62297
 C1221 C 1.10692 0.59082 0.57393
 C1222 C 1.08888 0.57743 0.56252
 H1223 H 1.23997 0.65100 0.67361
 H1224 H 1.21436 0.62326 0.64357
 H1225 H 1.15413 0.69522 0.63057
 H1226 H 1.18038 0.72290 0.66026
 H1227 H 1.15852 0.67363 0.59343
 H1228 H 1.12608 0.64532 0.56764
 H1229 H 1.13350 0.57235 0.61248
 H1230 H 1.16534 0.60053 0.63861
 C1231 C 0.72831 0.78066 -0.20637
 C1232 C 0.71835 0.79297 -0.18986
 C1233 C 0.70477 0.80789 -0.17087
 C1234 C 0.68037 0.79537 -0.15895
 C1235 C 0.66494 0.81096 -0.14208
 C1236 C 0.67365 0.83938 -0.13697
 C1237 C 0.69882 0.85144 -0.14860
 C1238 C 0.71420 0.83582 -0.16546
 C1239 C 0.65566 0.85684 -0.12044
 C1240 C 0.64928 0.88593 -0.12506
 C1241 C 0.63151 0.90222 -0.11003
 C1242 C 0.61978 0.88977 -0.09015
 C1243 C 0.62612 0.86090 -0.08528
 C1244 C 0.64393 0.84452 -0.10032
 C1245 C 0.60105 0.90677 -0.07503
 C1246 C 0.58545 0.92182 -0.06292
 H1247 H 0.67272 0.77383 -0.16312
 H1248 H 0.64547 0.80115 -0.13367
 H1249 H 0.70640 0.87310 -0.14483
 H1250 H 0.73299 0.84577 -0.17463
 H1251 H 0.65747 0.89596 -0.14056
 H1252 H 0.62668 0.92451 -0.11403
 H1253 H 0.61723 0.85103 -0.06991
 H1254 H 0.64865 0.82228 -0.09617
 C1255 C 1.23237 0.28341 0.29596
 C1256 C 1.22267 0.29583 0.31248
 C1257 C 1.20955 0.31091 0.33155
 C1258 C 1.19254 0.29593 0.34792
 C1259 C 1.17718 0.31092 0.36516
 C1260 C 1.17854 0.34114 0.36618
 C1261 C 1.19638 0.35592 0.34997
 C1262 C 1.21173 0.34089 0.33277
 C1263 C 1.16011 0.35732 0.38323
 C1264 C 1.17185 0.38226 0.39368
 C1265 C 1.15365 0.39839 0.40861
 C1266 C 1.12353 0.38980 0.41332
 C1267 C 1.11186 0.36477 0.40333
 C1268 C 1.12998 0.34864 0.38841
 C1269 C 1.10403 0.40715 0.42760
 C1270 C 1.08689 0.42149 0.43907
 H1271 H 1.19059 0.27273 0.34708
 H1272 H 1.16397 0.29889 0.37754
 H1273 H 1.19756 0.37917 0.35006
 H1274 H 1.22459 0.35272 0.32005
 H1275 H 1.19505 0.38935 0.39024
 H1276 H 1.16293 0.41773 0.41625
 H1277 H 1.08852 0.35801 0.40674
 H1278 H 1.12005 0.32985 0.38040
 C1279 C 0.27163 0.78044 0.20683
 C1280 C 0.28178 0.79271 0.19037
 C1281 C 0.29558 0.80755 0.17142
 C1282 C 0.32094 0.79552 0.16032
 C1283 C 0.33641 0.81106 0.14345
 C1284 C 0.32676 0.83894 0.13748
 C1285 C 0.30068 0.85050 0.14830
 C1286 C 0.28527 0.83492 0.16518
 C1287 C 0.34467 0.85642 0.12091
 C1288 C 0.34970 0.88588 0.12493
 C1289 C 0.36745 0.90220 0.10990
 C1290 C 0.38049 0.88941 0.09062
 C1291 C 0.37548 0.86017 0.08633
 C1292 C 0.35770 0.84376 0.10137
 C1293 C 0.39928 0.90643 0.07555
 C1294 C 0.41491 0.92151 0.06349
 H1295 H 0.32928 0.77443 0.16514
 H1296 H 0.35659 0.80167 0.13568
 H1297 H 0.29239 0.87171 0.14387
 H1298 H 0.26572 0.84448 0.17370
 H1299 H 0.34049 0.89620 0.13999
 H1300 H 0.37126 0.92478 0.11346
 H1301 H 0.38541 0.85003 0.07143
 H1302 H 0.35403 0.82121 0.09767
 C1303 C 0.76610 0.28364 0.70401
 C1304 C 0.77568 0.29616 0.68749
 C1305 C 0.78864 0.31143 0.66846
 C1306 C 0.77876 0.33932 0.66337
 C1307 C 0.79353 0.35528 0.64640
 C1308 C 0.81850 0.34356 0.63434
 C1309 C 0.82767 0.31518 0.63916
 C1310 C 0.81286 0.29927 0.65613
 C1311 C 0.83600 0.36133 0.61776
 C1312 C 0.84753 0.34921 0.59751
 C1313 C 0.86575 0.36554 0.58274
 C1314 C 0.87264 0.39419 0.58797
 C1315 C 0.86078 0.40660 0.60782
 C1316 C 0.84258 0.39033 0.62260
 C1317 C 0.89324 0.41043 0.57371
 C1318 C 0.91120 0.42395 0.56232
 H1319 H 0.76010 0.34898 0.67287
 H1320 H 0.78566 0.37691 0.64289
 H1321 H 0.84705 0.30565 0.63043
 H1322 H 0.82087 0.27778 0.66007
 H1323 H 0.84261 0.32706 0.59317
 H1324 H 0.87485 0.35569 0.56743
 H1325 H 0.86615 0.42868 0.61214
 H1326 H 0.83449 0.40019 0.63820
 C1327 C 1.21310 1.21764 0.71278
 C1328 C 1.19947 1.20569 0.69770
 C1329 C 1.18423 1.19165 0.67911
 C1330 C 1.19487 1.16503 0.67139
 C1331 C 1.18054 1.15151 0.65301
 C1332 C 1.15540 1.16453 0.64209
 C1333 C 1.14502 1.19143 0.64988
 C1334 C 1.15941 1.20493 0.66828
 C1335 C 1.13957 1.14960 0.62312
 C1336 C 1.10735 1.14939 0.62195
 C1337 C 1.09235 1.13351 0.60511
 C1338 C 1.10932 1.11774 0.58920
 C1339 C 1.14139 1.11846 0.58981
 C1340 C 1.15645 1.13434 0.60663
 C1341 C 1.09379 1.09892 0.57361
 C1342 C 1.08038 1.08222 0.56152
 H1343 H 1.21420 1.15469 0.67960
 H1344 H 1.18878 1.13063 0.64762
 H1345 H 1.12595 1.20212 0.64164
 H1346 H 1.15124 1.22571 0.67401
 H1347 H 1.09373 1.16062 0.63456
 H1348 H 1.06751 1.13284 0.60492
 H1349 H 1.15473 1.10622 0.57762
 H1350 H 1.18128 1.13443 0.60692
 C1351 C 0.70777 0.71355 0.21543
 C1352 C 0.69435 0.70222 0.19998
 C1353 C 0.67942 0.68942 0.18076
 C1354 C 0.69420 0.68921 0.15960
 C1355 C 0.67997 0.67663 0.14077
 C1356 C 0.65071 0.66422 0.14292
 C1357 C 0.63591 0.66482 0.16423
 C1358 C 0.65022 0.67737 0.18305
 C1359 C 0.63606 0.64976 0.12327
 C1360 C 0.60444 0.65286 0.11927
 C1361 C 0.59019 0.63729 0.10190
 C1362 C 0.60739 0.61856 0.08832
 C1363 C 0.63903 0.61603 0.09169
 C1364 C 0.65334 0.63161 0.10903
 C1365 C 0.59208 0.59982 0.07260
 C1366 C 0.57881 0.58306 0.06052
 H1367 H 0.71675 0.69871 0.15767
 H1368 H 0.69175 0.67672 0.12452
 H1369 H 0.61357 0.65505 0.16646
 H1370 H 0.63864 0.67748 0.19939
 H1371 H 0.59067 0.66697 0.12980
 H1372 H 0.56564 0.63924 0.09950
 H1373 H 0.65246 0.60132 0.08142
 H1374 H 0.67766 0.62855 0.11189
 C1375 C 1.21253 0.78109 0.28626
 C1376 C 1.19876 0.79285 0.30137
 C1377 C 1.18327 0.80649 0.32003
 C1378 C 1.15465 0.81937 0.31675
 C1379 C 1.13989 0.83296 0.33492
 C1380 C 1.15365 0.83382 0.35661
 C1381 C 1.18234 0.82060 0.35976
 C1382 C 1.19702 0.80698 0.34157
 C1383 C 1.13847 0.84922 0.37563
 C1384 C 1.15560 0.86708 0.39021
 C1385 C 1.14097 0.88320 0.40711
 C1386 C 1.10913 0.88154 0.40971
 C1387 C 1.09200 0.86324 0.39571
 C1388 C 1.10657 0.84714 0.37878
 C1389 C 1.09369 0.90037 0.42535
 C1390 C 1.08030 0.91700 0.43751
 H1391 H 1.14387 0.81912 0.30011
 H1392 H 1.11802 0.84332 0.33191
 H1393 H 1.19332 0.82068 0.37631
 H1394 H 1.21914 0.79692 0.34428
 H1395 H 1.18014 0.86937 0.38801
 H1396 H 1.15438 0.89752 0.41772
 H1397 H 1.06731 0.86192 0.39752
 H1398 H 1.09286 0.83329 0.36800
 C1399 C 0.70759 0.28473 -0.21650
 C1400 C 0.69419 0.29633 -0.20116
 C1401 C 0.67932 0.30963 -0.18213
 C1402 C 0.65499 0.29572 -0.17119
 C1403 C 0.64120 0.30829 -0.15215
 C1404 C 0.65171 0.33489 -0.14385
 C1405 C 0.67635 0.34858 -0.15491
 C1406 C 0.69009 0.33597 -0.17391
 C1407 C 0.63641 0.34893 -0.12427
 C1408 C 0.65371 0.36368 -0.10775
 C1409 C 0.63907 0.37915 -0.09050
 C1410 C 0.60703 0.37993 -0.08952
 C1411 C 0.58965 0.36452 -0.10539
 C1412 C 0.60423 0.34905 -0.12265
 C1413 C 0.59192 0.39885 -0.07383
 C1414 C 0.57879 0.41578 -0.06181
 H1415 H 0.64678 0.27513 -0.17731
 H1416 H 0.62250 0.29712 -0.14383
 H1417 H 0.68463 0.36927 -0.14912
 H1418 H 0.70909 0.34676 -0.18221
 H1419 H 0.67853 0.36362 -0.10840
 H1420 H 0.65270 0.39117 -0.07835
 H1421 H 0.56482 0.36527 -0.10490
 H1422 H 0.59030 0.33820 -0.13528
 C1423 C 0.78688 1.21815 0.28728
 C1424 C 0.80006 1.20600 0.30248
 C1425 C 0.81486 1.19195 0.32124
 C1426 C 0.83908 1.20549 0.33261
 C1427 C 0.85302 1.19206 0.35121
 C1428 C 0.84281 1.16495 0.35867
 C1429 C 0.81826 1.15166 0.34721
 C1430 C 0.80436 1.16513 0.32863
 C1431 C 0.85830 1.15006 0.37780
 C1432 C 0.84120 1.13430 0.39386
 C1433 C 0.85604 1.11841 0.41080
 C1434 C 0.88809 1.11821 0.41193
 C1435 C 0.90525 1.13450 0.39646
 C1436 C 0.89047 1.15038 0.37952
 C1437 C 0.90353 1.09930 0.42749
 C1438 C 0.91700 1.08253 0.43946
 H1439 H 0.84711 1.22643 0.32714
 H1440 H 0.87162 1.20295 0.35987
 H1441 H 0.81017 1.13062 0.35233
 H1442 H 0.78547 1.15460 0.32000
 H1443 H 0.81639 1.13398 0.39315
 H1444 H 0.84257 1.10574 0.42263
 H1445 H 0.93009 1.13422 0.39706
 H1446 H 0.90426 1.16199 0.36724
 C1447 C 0.29152 0.71544 -0.21540
 C1448 C 0.30449 0.70381 -0.19989
 C1449 C 0.31887 0.69051 -0.18066
 C1450 C 0.34333 0.70416 -0.16968
 C1451 C 0.35666 0.69161 -0.15047
 C1452 C 0.34557 0.66527 -0.14204
 C1453 C 0.32080 0.65186 -0.15312
 C1454 C 0.30751 0.66446 -0.17230
 C1455 C 0.36052 0.65114 -0.12236
 C1456 C 0.34290 0.63668 -0.10585
 C1457 C 0.35722 0.62099 -0.08857
 C1458 C 0.38923 0.61974 -0.08755
 C1459 C 0.40693 0.63492 -0.10338
 C1460 C 0.39268 0.65059 -0.12067
 C1461 C 0.40402 0.60047 -0.07198
 C1462 C 0.41702 0.58325 -0.06016
 H1463 H 0.35202 0.72451 -0.17593
 H1464 H 0.37548 0.70256 -0.14213
 H1465 H 0.31208 0.63137 -0.14724
 H1466 H 0.28841 0.65388 -0.18063
 H1467 H 0.31809 0.63708 -0.10656
 H1468 H 0.34335 0.60914 -0.07646
 H1469 H 0.43174 0.63379 -0.10286
 H1470 H 0.40685 0.66119 -0.13328
 C1471 C 0.78702 0.78109 0.71404
 C1472 C 0.80055 0.79293 0.69885
 C1473 C 0.81561 0.80684 0.68012
 C1474 C 0.83847 0.79243 0.66788
 C1475 C 0.85259 0.80582 0.64931
 C1476 C 0.84386 0.83374 0.64273
 C1477 C 0.82067 0.84790 0.65507
 C1478 C 0.80663 0.83450 0.67362
 C1479 C 0.85941 0.84847 0.62354
 C1480 C 0.84256 0.86555 0.60821
 C1481 C 0.85756 0.88127 0.59125
 C1482 C 0.88951 0.88002 0.58935
 C1483 C 0.90638 0.86243 0.60407
 C1484 C 0.89144 0.84668 0.62104
 C1485 C 0.90522 0.89871 0.57374
 C1486 C 0.91871 0.91533 0.56163
 H1487 H 0.84529 0.77085 0.67264
 H1488 H 0.87012 0.79427 0.63998
 H1489 H 0.81377 0.86955 0.65062
 H1490 H 0.78880 0.84572 0.68291
 H1491 H 0.81784 0.86703 0.60953
 H1492 H 0.84431 0.89494 0.58000
 H1493 H 0.93117 0.86155 0.60288
 H1494 H 0.90506 0.83399 0.63274
 C1495 C 0.29142 0.28451 0.21666
 C1496 C 0.30490 0.29604 0.20132
 C1497 C 0.31981 0.30922 0.18225
 C1498 C 0.34425 0.29530 0.17145
 C1499 C 0.35798 0.30768 0.15231
 C1500 C 0.34729 0.33409 0.14376
 C1501 C 0.32258 0.34780 0.15470
 C1502 C 0.30890 0.33539 0.17381
 C1503 C 0.36246 0.34790 0.12401
 C1504 C 0.34500 0.36221 0.10734
 C1505 C 0.35949 0.37749 0.08990
 C1506 C 0.39152 0.37848 0.08888
 C1507 C 0.40905 0.36346 0.10490
 C1508 C 0.39463 0.34820 0.12235
 C1509 C 0.40644 0.39729 0.07301
 C1510 C 0.41938 0.41418 0.06084
 H1511 H 0.35256 0.27483 0.17774
 H1512 H 0.37675 0.29650 0.14409
 H1513 H 0.31416 0.36836 0.14871
 H1514 H 0.28981 0.34618 0.18198
 H1515 H 0.32018 0.36200 0.10803
 H1516 H 0.34574 0.38919 0.07764
 H1517 H 0.43388 0.36439 0.10437
 H1518 H 0.40866 0.33767 0.13508
   
