data_POSCAR
  _audit_creation_date              2014-09-24
  _audit_creation_method            'ToBaCCo'
  _symmetry_space_group_name_H-M    'P1'
  _symmetry_Int_Tables_number       1
  _symmetry_cell_setting            triclinic
  loop_
  _symmetry_equiv_pos_as_xyz
 x,y,z
_cell_length_a 66.7325
_cell_length_b 67.1368
_cell_length_c 66.4648
_cell_angle_alpha 90.156500
_cell_angle_beta 90.185600
_cell_angle_gamma 89.297600
loop_
  _atom_site_label
  _atom_site_type_symbol
  _atom_site_fract_x
  _atom_site_fract_y
  _atom_site_fract_z
N1 N 0.39101 0.32801 0.35011
 N2 N 0.38912 0.34165 0.33607
 C3 C 0.40252 0.33791 0.32142
 C4 C 0.41339 0.32092 0.32651
 C5 C 0.40586 0.31526 0.34501
 H6 H 0.40390 0.34668 0.30788
 H7 H 0.41027 0.30234 0.35372
 Cu8 Cu 0.36865 0.36244 0.33775
 Cu9 Cu 0.37268 0.32689 0.37284
 Cu10 Cu 0.32682 0.34914 0.36169
 N11 N 0.34401 0.37789 0.33524
 N12 N 0.32747 0.37229 0.34414
 C13 C 0.31221 0.38419 0.33817
 C14 C 0.31963 0.39806 0.32481
 C15 C 0.33993 0.39370 0.32350
 H16 H 0.29685 0.38250 0.34291
 H17 H 0.35069 0.40092 0.31390
 N18 N 0.33070 0.32977 0.38366
 N19 N 0.34816 0.32139 0.38804
 C20 C 0.34576 0.30855 0.40337
 C21 C 0.32578 0.30897 0.40893
 C22 C 0.31680 0.32277 0.39629
 H23 H 0.35767 0.29953 0.40980
 H24 H 0.30115 0.32715 0.39620
 H25 H 0.35201 0.33356 0.35172
 H26 H 0.35553 0.35358 0.37089
 N27 N 0.37815 0.81313 -0.15587
 N28 N 0.37828 0.82570 -0.17100
 C29 C 0.39316 0.82054 -0.18364
 C30 C 0.40283 0.80373 -0.17618
 C31 C 0.39291 0.79947 -0.15842
 H32 H 0.39635 0.82790 -0.19771
 H33 H 0.39557 0.78701 -0.14848
 Cu34 Cu 0.35788 0.84647 -0.17365
 Cu35 Cu 0.35760 0.81415 -0.13500
 Cu36 Cu 0.31974 0.84936 -0.14150
 N37 N 0.33751 0.86737 -0.17612
 N38 N 0.32306 0.86887 -0.16280
 C39 C 0.31058 0.88385 -0.16804
 C40 C 0.31716 0.89190 -0.18599
 C41 C 0.33452 0.88120 -0.19054
 H42 H 0.29716 0.88798 -0.15988
 H43 H 0.34401 0.88307 -0.20352
 N44 N 0.32046 0.83072 -0.11871
 N45 N 0.33511 0.81761 -0.11597
 C46 C 0.33070 0.80623 -0.09997
 C47 C 0.31223 0.81220 -0.09250
 C48 C 0.30632 0.82793 -0.10463
 H49 H 0.33966 0.79375 -0.09475
 H50 H 0.29245 0.83634 -0.10369
 H51 H 0.33605 0.82548 -0.15368
 H52 H 0.35002 0.84388 -0.13810
 N53 N 0.88935 0.32948 -0.16067
 N54 N 0.88774 0.33984 -0.17737
 C55 C 0.90133 0.33308 -0.19070
 C56 C 0.91214 0.31763 -0.18194
 C57 C 0.90429 0.31596 -0.16274
 H58 H 0.90287 0.33879 -0.20578
 H59 H 0.90855 0.30512 -0.15145
 Cu60 Cu 0.86733 0.36042 -0.18073
 Cu61 Cu 0.87081 0.33348 -0.13826
 Cu62 Cu 0.82708 0.35888 -0.15130
 N63 N 0.84626 0.38055 -0.18283
 N64 N 0.83062 0.37995 -0.17090
 C65 C 0.81744 0.39423 -0.17632
 C66 C 0.82504 0.40426 -0.19275
 C67 C 0.84350 0.39521 -0.19642
 H68 H 0.80291 0.39656 -0.16946
 H69 H 0.85380 0.39844 -0.20844
 N70 N 0.82946 0.34210 -0.12725
 N71 N 0.84619 0.33289 -0.12182
 C72 C 0.84260 0.32212 -0.10515
 C73 C 0.82259 0.32456 -0.09998
 C74 C 0.81484 0.33751 -0.11427
 H75 H 0.85344 0.31242 -0.09787
 H76 H 0.79961 0.34295 -0.11552
 H77 H 0.84909 0.33767 -0.15917
 H78 H 0.85671 0.36071 -0.14553
 N79 N 0.87819 0.82698 0.33960
 N80 N 0.88056 0.84186 0.32707
 C81 C 0.89675 0.83815 0.31560
 C82 C 0.90515 0.82008 0.32138
 C83 C 0.89275 0.81327 0.33648
 H84 H 0.90127 0.84714 0.30297
 H85 H 0.89345 0.79884 0.34366
 Cu86 Cu 0.86021 0.86269 0.32484
 Cu87 Cu 0.85462 0.82516 0.35672
 Cu88 Cu 0.82710 0.86930 0.36190
 N89 N 0.84010 0.88377 0.32341
 N90 N 0.82692 0.88619 0.33790
 C91 C 0.81445 0.90136 0.33308
 C92 C 0.82014 0.90892 0.31455
 C93 C 0.83644 0.89723 0.30883
 H94 H 0.80200 0.90641 0.34224
 H95 H 0.84474 0.89805 0.29495
 N96 N 0.82457 0.84650 0.38048
 N97 N 0.83477 0.82968 0.37815
 C98 C 0.82899 0.81663 0.39222
 C99 C 0.81420 0.82547 0.40389
 C100 C 0.81194 0.84451 0.39612
 H101 H 0.83503 0.80171 0.39365
 H102 H 0.80132 0.85579 0.40104
 H103 H 0.83443 0.84590 0.34409
 H104 H 0.85524 0.85509 0.36027
 N105 N 0.61651 0.67181 0.34502
 N106 N 0.61868 0.65991 0.32942
 C107 C 0.60513 0.66501 0.31523
 C108 C 0.59384 0.68102 0.32231
 C109 C 0.60132 0.68469 0.34142
 H110 H 0.60389 0.65778 0.30073
 H111 H 0.59665 0.69645 0.35160
 Cu112 Cu 0.63940 0.63924 0.32886
 Cu113 Cu 0.63497 0.67082 0.36788
 Cu114 Cu 0.68093 0.65015 0.35467
 N115 N 0.66351 0.62275 0.32674
 N116 N 0.67975 0.62720 0.33693
 C117 C 0.69460 0.61442 0.33197
 C118 C 0.68727 0.60109 0.31792
 C119 C 0.66746 0.60686 0.31494
 H120 H 0.70970 0.61524 0.33780
 H121 H 0.65695 0.60030 0.30451
 N122 N 0.67720 0.66794 0.37790
 N123 N 0.65966 0.67528 0.38350
 C124 C 0.66231 0.68694 0.39980
 C125 C 0.68253 0.68690 0.40467
 C126 C 0.69144 0.67459 0.39046
 H127 H 0.65055 0.69544 0.40716
 H128 H 0.70715 0.67091 0.38899
 H129 H 0.65559 0.66669 0.34631
 H130 H 0.65228 0.64467 0.36298
 N131 N 0.62056 0.16701 -0.14997
 N132 N 0.62104 0.15388 -0.16467
 C133 C 0.60626 0.15819 -0.17785
 C134 C 0.59612 0.17512 -0.17121
 C135 C 0.60550 0.18013 -0.15329
 H136 H 0.60358 0.15009 -0.19167
 H137 H 0.60210 0.19270 -0.14363
 Cu138 Cu 0.64182 0.13322 -0.16595
 Cu139 Cu 0.64053 0.16680 -0.12847
 Cu140 Cu 0.68532 0.14539 -0.14402
 N141 N 0.66594 0.11693 -0.16952
 N142 N 0.68290 0.12185 -0.16084
 C143 C 0.69748 0.10914 -0.16670
 C144 C 0.68922 0.09526 -0.17967
 C145 C 0.66915 0.10081 -0.18123
 H146 H 0.71304 0.11050 -0.16239
 H147 H 0.65795 0.09401 -0.19073
 N148 N 0.68329 0.16404 -0.12123
 N149 N 0.66616 0.17158 -0.11472
 C150 C 0.66979 0.18356 -0.09889
 C151 C 0.69025 0.18359 -0.09529
 C152 C 0.69830 0.17096 -0.10973
 H153 H 0.65850 0.19216 -0.09094
 H154 H 0.71390 0.16714 -0.11195
 H155 H 0.65941 0.16146 -0.15136
 H156 H 0.65739 0.14033 -0.13332
 N157 N 0.10883 0.66018 -0.14795
 N158 N 0.11040 0.64692 -0.16246
 C159 C 0.09695 0.65124 -0.17696
 C160 C 0.08630 0.66818 -0.17127
 C161 C 0.09410 0.67327 -0.15262
 H162 H 0.09554 0.64289 -0.19080
 H163 H 0.09004 0.68615 -0.14362
 Cu164 Cu 0.13068 0.62589 -0.16180
 Cu165 Cu 0.12771 0.66050 -0.12539
 Cu166 Cu 0.17322 0.63909 -0.13906
 N167 N 0.15505 0.61007 -0.16477
 N168 N 0.17180 0.61558 -0.15607
 C169 C 0.18685 0.60357 -0.16219
 C170 C 0.17913 0.58966 -0.17545
 C171 C 0.15883 0.59419 -0.17661
 H172 H 0.20232 0.60540 -0.15780
 H173 H 0.14791 0.58712 -0.18625
 N174 N 0.17017 0.65789 -0.11648
 N175 N 0.15282 0.66556 -0.11070
 C176 C 0.15591 0.67758 -0.09475
 C177 C 0.17624 0.67750 -0.09034
 C178 C 0.18473 0.66472 -0.10440
 H179 H 0.14434 0.68617 -0.08721
 H180 H 0.20032 0.66056 -0.10585
 H181 H 0.14743 0.65467 -0.14736
 H182 H 0.14500 0.63402 -0.12886
 N183 N 0.11734 0.16996 0.34321
 N184 N 0.11891 0.15770 0.32784
 C185 C 0.10518 0.16270 0.31384
 C186 C 0.09435 0.17903 0.32083
 C187 C 0.10230 0.18301 0.33967
 H188 H 0.10355 0.15519 0.29954
 H189 H 0.09814 0.19515 0.34961
 Cu190 Cu 0.13918 0.13678 0.32720
 Cu191 Cu 0.13644 0.16923 0.36543
 Cu192 Cu 0.18167 0.14698 0.35192
 N193 N 0.16320 0.12086 0.32321
 N194 N 0.17990 0.12488 0.33285
 C195 C 0.19440 0.11228 0.32651
 C196 C 0.18636 0.09972 0.31209
 C197 C 0.16645 0.10558 0.31044
 H198 H 0.20977 0.11241 0.33172
 H199 H 0.15520 0.09954 0.30051
 N200 N 0.17880 0.16546 0.37499
 N201 N 0.16150 0.17356 0.38034
 C202 C 0.16440 0.18563 0.39627
 C203 C 0.18456 0.18511 0.40123
 C204 C 0.19317 0.17204 0.38752
 H205 H 0.15269 0.19431 0.40344
 H206 H 0.20885 0.16784 0.38669
 H207 H 0.15678 0.16397 0.34351
 H208 H 0.15311 0.14259 0.36090
 N209 N 0.61168 0.32307 0.66598
 N210 N 0.61323 0.33587 0.68089
 C211 C 0.60076 0.33057 0.69576
 C212 C 0.59080 0.31350 0.68983
 C213 C 0.59804 0.30929 0.67077
 H214 H 0.59929 0.33856 0.70982
 H215 H 0.59398 0.29684 0.66129
 Cu216 Cu 0.63149 0.35823 0.67968
 Cu217 Cu 0.62828 0.32495 0.64199
 Cu218 Cu 0.67239 0.34989 0.65171
 N219 N 0.65422 0.37607 0.68080
 N220 N 0.67029 0.37240 0.66998
 C221 C 0.68435 0.38584 0.67446
 C222 C 0.67671 0.39885 0.68873
 C223 C 0.65747 0.39218 0.69248
 H224 H 0.69924 0.38598 0.66807
 H225 H 0.64693 0.39808 0.70334
 N226 N 0.66891 0.33175 0.62873
 N227 N 0.65203 0.32252 0.62468
 C228 C 0.65460 0.31114 0.60811
 C229 C 0.67408 0.31348 0.60143
 C230 C 0.68259 0.32673 0.61479
 H231 H 0.64324 0.30166 0.60175
 H232 H 0.69780 0.33211 0.61444
 H233 H 0.64963 0.33168 0.66212
 H234 H 0.64272 0.35269 0.64502
 N235 N 0.61611 0.83323 1.16610
 N236 N 0.61991 0.84392 1.18222
 C237 C 0.60720 0.83884 1.19695
 C238 C 0.59479 0.82404 1.18975
 C239 C 0.60075 0.82102 1.17002
 H240 H 0.60720 0.84535 1.21183
 H241 H 0.59486 0.81015 1.15961
 Cu242 Cu 0.64156 0.86290 1.18310
 Cu243 Cu 0.63292 0.83424 1.14222
 Cu244 Cu 0.67059 0.86926 1.14270
 N245 N 0.65821 0.88624 1.18030
 N246 N 0.66948 0.88880 1.16437
 C247 C 0.68101 0.90486 1.16728
 C248 C 0.67652 0.91302 1.18593
 C249 C 0.66215 0.90062 1.19385
 H250 H 0.69278 0.90944 1.15722
 H251 H 0.65601 0.90128 1.20888
 N252 N 0.66630 0.85085 1.12000
 N253 N 0.65195 0.83752 1.11981
 C254 C 0.65452 0.82547 1.10376
 C255 C 0.67140 0.83140 1.09337
 C256 C 0.67824 0.84776 1.10398
 H257 H 0.64552 0.81256 1.10060
 H258 H 0.69175 0.85595 1.10097
 H259 H 0.65829 0.84417 1.15612
 H260 H 0.64064 0.86377 1.14655
 N261 N 0.12431 0.32015 1.16370
 N262 N 0.12072 0.33680 1.17353
 C263 C 0.10479 0.33431 1.18559
 C264 C 0.09816 0.31494 1.18335
 C265 C 0.11092 0.30643 1.16924
 H266 H 0.09899 0.34540 1.19595
 H267 H 0.11096 0.29129 1.16372
 Cu268 Cu 0.13864 0.35924 1.17130
 Cu269 Cu 0.14701 0.31694 1.14570
 Cu270 Cu 0.17260 0.36010 1.13429
 N271 N 0.16136 0.37707 1.17226
 N272 N 0.17456 0.37773 1.15765
 C273 C 0.18855 0.39130 1.16233
 C274 C 0.18402 0.39938 1.18102
 C275 C 0.16655 0.39000 1.18678
 H276 H 0.20133 0.39475 1.15305
 H277 H 0.15817 0.39218 1.20050
 N278 N 0.17470 0.33561 1.11799
 N279 N 0.16555 0.31899 1.12285
 C280 C 0.17089 0.30456 1.10978
 C281 C 0.18415 0.31242 1.09603
 C282 C 0.18612 0.33219 1.10166
 H283 H 0.16562 0.28944 1.11045
 H284 H 0.19575 0.34305 1.09477
 H285 H 0.16537 0.34001 1.15520
 H286 H 0.14454 0.34611 1.13738
 N287 N 0.11568 0.80859 0.66664
 N288 N 0.11448 0.82426 0.67850
 C289 C 0.09927 0.82185 0.69148
 C290 C 0.09072 0.80347 0.68785
 C291 C 0.10148 0.79554 0.67184
 H292 H 0.09533 0.83215 0.70340
 H293 H 0.09954 0.78120 0.66474
 Cu294 Cu 0.13501 0.84451 0.67756
 Cu295 Cu 0.13672 0.80553 0.64646
 Cu296 Cu 0.16064 0.84975 0.63495
 N297 N 0.15505 0.86510 0.67502
 N298 N 0.16537 0.86684 0.65832
 C299 C 0.17903 0.88124 0.66072
 C300 C 0.17739 0.88876 0.68011
 C301 C 0.16185 0.87828 0.68866
 H302 H 0.18949 0.88560 0.64921
 H303 H 0.15636 0.87978 0.70388
 N304 N 0.16094 0.82626 0.61703
 N305 N 0.15265 0.80918 0.62182
 C306 C 0.15740 0.79547 0.60773
 C307 C 0.16934 0.80434 0.59337
 C308 C 0.17111 0.82390 0.59972
 H309 H 0.15301 0.78005 0.60835
 H310 H 0.18021 0.83523 0.59285
 H311 H 0.15774 0.82709 0.65465
 H312 H 0.13395 0.83512 0.64213
 N313 N 0.37378 0.67650 0.65744
 N314 N 0.37135 0.66559 0.67362
 C315 C 0.38603 0.66961 0.68685
 C316 C 0.39836 0.68380 0.67858
 C317 C 0.39012 0.68787 0.65986
 H318 H 0.38728 0.66329 0.70175
 H319 H 0.39493 0.69901 0.64927
 Cu320 Cu 0.34853 0.64821 0.67696
 Cu321 Cu 0.35386 0.67705 0.63600
 Cu322 Cu 0.31679 0.64171 0.63837
 N323 N 0.33033 0.62581 0.67590
 N324 N 0.31817 0.62306 0.66060
 C325 C 0.30660 0.60722 0.66431
 C326 C 0.31176 0.59961 0.68297
 C327 C 0.32696 0.61180 0.68987
 H328 H 0.29475 0.60203 0.65456
 H329 H 0.33459 0.61104 0.70421
 N330 N 0.31980 0.65978 0.61537
 N331 N 0.33395 0.67331 0.61435
 C332 C 0.33047 0.68489 0.59816
 C333 C 0.31322 0.67845 0.58866
 C334 C 0.30700 0.66239 0.59994
 H335 H 0.33892 0.69798 0.59433
 H336 H 0.29340 0.65408 0.59800
 H337 H 0.32946 0.66662 0.65127
 H338 H 0.34702 0.64760 0.64051
 N339 N 0.38604 0.17736 1.16420
 N340 N 0.38382 0.16574 1.17989
 C341 C 0.39780 0.17011 1.19375
 C342 C 0.40934 0.18548 1.18651
 C343 C 0.40160 0.18953 1.16757
 H344 H 0.39915 0.16286 1.20818
 H345 H 0.40640 0.20108 1.15742
 Cu346 Cu 0.36206 0.14703 1.18187
 Cu347 Cu 0.36722 0.17720 1.14174
 Cu348 Cu 0.33184 0.13994 1.14200
 N349 N 0.34455 0.12427 1.18013
 N350 N 0.33296 0.12135 1.16442
 C351 C 0.32171 0.10519 1.16769
 C352 C 0.32643 0.09765 1.18651
 C353 C 0.34106 0.11013 1.19395
 H354 H 0.31030 0.09974 1.15755
 H355 H 0.34820 0.10943 1.20855
 N356 N 0.33315 0.16030 1.12077
 N357 N 0.34668 0.17446 1.12055
 C358 C 0.34245 0.18704 1.10530
 C359 C 0.32531 0.18063 1.09559
 C360 C 0.31994 0.16353 1.10577
 H361 H 0.35051 0.20054 1.10214
 H362 H 0.30686 0.15458 1.10317
 H363 H 0.34295 0.16505 1.15629
 H364 H 0.36179 0.14721 1.14536
 N365 N 0.87111 0.68870 1.15947
 N366 N 0.87364 0.67300 1.17100
 C367 C 0.89027 0.67545 1.18224
 C368 C 0.89865 0.69361 1.17736
 C369 C 0.88593 0.70166 1.16296
 H370 H 0.89546 0.66528 1.19378
 H371 H 0.88672 0.71627 1.15622
 Cu372 Cu 0.85339 0.65231 1.17153
 Cu373 Cu 0.84747 0.69225 1.14263
 Cu374 Cu 0.82278 0.64823 1.13165
 N375 N 0.83372 0.63119 1.16985
 N376 N 0.82188 0.62946 1.15410
 C377 C 0.80954 0.61397 1.15692
 C378 C 0.81376 0.60567 1.17557
 C379 C 0.82912 0.61708 1.18334
 H380 H 0.79790 0.60966 1.14649
 H381 H 0.83606 0.61542 1.19798
 N382 N 0.81961 0.67275 1.11543
 N383 N 0.82857 0.68954 1.12016
 C384 C 0.82260 0.70388 1.10737
 C385 C 0.80899 0.69589 1.09392
 C386 C 0.80759 0.67604 1.09940
 H387 H 0.82783 0.71902 1.10799
 H388 H 0.79799 0.66502 1.09261
 H389 H 0.82774 0.66996 1.15213
 H390 H 0.84997 0.66286 1.13661
 N391 N 0.88707 0.17529 0.65784
 N392 N 0.88676 0.16025 0.67044
 C393 C 0.90107 0.16276 0.68449
 C394 C 0.91076 0.18048 0.68067
 C395 C 0.90160 0.18791 0.66344
 H396 H 0.90382 0.15274 0.69694
 H397 H 0.90491 0.20164 0.65575
 Cu398 Cu 0.86692 0.13940 0.66816
 Cu399 Cu 0.86787 0.17751 0.63572
 Cu400 Cu 0.82359 0.15326 0.64626
 N401 N 0.84301 0.12339 0.67044
 N402 N 0.82597 0.12904 0.66215
 C403 C 0.81154 0.11630 0.66753
 C404 C 0.82000 0.10177 0.67974
 C405 C 0.84004 0.10682 0.68131
 H406 H 0.79591 0.11779 0.66339
 H407 H 0.85143 0.09966 0.69044
 N408 N 0.82583 0.17395 0.62541
 N409 N 0.84275 0.18292 0.62105
 C410 C 0.83946 0.19584 0.60589
 C411 C 0.81944 0.19488 0.60040
 C412 C 0.81134 0.18080 0.61305
 H413 H 0.85081 0.20516 0.59940
 H414 H 0.79599 0.17584 0.61306
 H415 H 0.84835 0.16878 0.65681
 H416 H 0.85229 0.15026 0.63614
 N417 N 0.32924 0.37926 0.66564
 N418 N 0.34207 0.37801 0.68064
 C419 C 0.33803 0.39253 0.69407
 C420 C 0.32183 0.40360 0.68705
 C421 C 0.31661 0.39468 0.66899
 H422 H 0.34586 0.39435 0.70820
 H423 H 0.30414 0.39875 0.65933
 Cu424 Cu 0.36229 0.35700 0.68182
 Cu425 Cu 0.32945 0.36008 0.64353
 Cu426 Cu 0.35043 0.31480 0.65772
 N427 N 0.37750 0.33256 0.68607
 N428 N 0.37270 0.31605 0.67665
 C429 C 0.38506 0.30127 0.68271
 C430 C 0.39833 0.30889 0.69672
 C431 C 0.39311 0.32887 0.69846
 H432 H 0.38446 0.28605 0.67739
 H433 H 0.40000 0.33990 0.70802
 N434 N 0.33276 0.31803 0.63409
 N435 N 0.32512 0.33530 0.62829
 C436 C 0.31413 0.33251 0.61149
 C437 C 0.31504 0.31250 0.60634
 C438 C 0.32698 0.30382 0.62110
 H439 H 0.30593 0.34412 0.60363
 H440 H 0.33118 0.28831 0.62247
 H441 H 0.33418 0.34032 0.66573
 H442 H 0.35586 0.34306 0.64834
 N443 N 0.33045 0.88526 0.15094
 N444 N 0.34359 0.88548 0.16572
 C445 C 0.33811 0.89958 0.17911
 C446 C 0.32041 0.90848 0.17252
 C447 C 0.31619 0.89917 0.15441
 H448 H 0.34595 0.90260 0.19304
 H449 H 0.30338 0.90178 0.14472
 Cu450 Cu 0.36570 0.86621 0.16687
 Cu451 Cu 0.33187 0.86564 0.12934
 Cu452 Cu 0.35515 0.82230 0.14543
 N453 N 0.38310 0.84296 0.17069
 N454 N 0.37867 0.82587 0.16222
 C455 C 0.39174 0.81181 0.16839
 C456 C 0.40528 0.82045 0.18152
 C457 C 0.39934 0.84033 0.18257
 H458 H 0.39081 0.79633 0.16410
 H459 H 0.40581 0.85173 0.19201
 N460 N 0.33630 0.82326 0.12266
 N461 N 0.32807 0.83990 0.11589
 C462 C 0.31602 0.83559 0.10024
 C463 C 0.31665 0.81520 0.09706
 C464 C 0.32978 0.80790 0.11151
 H465 H 0.30689 0.84638 0.09220
 H466 H 0.33421 0.79259 0.11398
 H467 H 0.33810 0.84736 0.15249
 H468 H 0.35924 0.85002 0.13443
 N469 N 0.83622 0.39095 0.15306
 N470 N 0.84857 0.39000 0.16848
 C471 C 0.84279 0.40347 0.18242
 C472 C 0.82572 0.41323 0.17547
 C473 C 0.82217 0.40504 0.15663
 H474 H 0.85007 0.40558 0.19682
 H475 H 0.81008 0.40868 0.14637
 Cu476 Cu 0.87036 0.37046 0.16942
 Cu477 Cu 0.83866 0.37289 0.13009
 Cu478 Cu 0.86100 0.32835 0.14409
 N479 N 0.88742 0.34694 0.17242
 N480 N 0.88340 0.33049 0.16253
 C481 C 0.89606 0.31595 0.16842
 C482 C 0.90884 0.32362 0.18286
 C483 C 0.90298 0.34342 0.18492
 H484 H 0.89550 0.30085 0.16283
 H485 H 0.90904 0.35415 0.19541
 N486 N 0.84386 0.33117 0.12018
 N487 N 0.83591 0.34825 0.11424
 C488 C 0.82497 0.34506 0.09749
 C489 C 0.82611 0.32496 0.09270
 C490 C 0.83831 0.31669 0.10743
 H491 H 0.81612 0.35633 0.08982
 H492 H 0.84255 0.30123 0.10915
 H493 H 0.84354 0.35297 0.15199
 H494 H 0.86570 0.35690 0.13547
 N495 N 0.83732 0.88683 0.65460
 N496 N 0.84894 0.88498 0.67050
 C497 C 0.84344 0.89870 0.68431
 C498 C 0.82733 0.90958 0.67674
 C499 C 0.82409 0.90176 0.65769
 H500 H 0.85009 0.90012 0.69910
 H501 H 0.81259 0.90606 0.64701
 Cu502 Cu 0.86913 0.86385 0.67214
 Cu503 Cu 0.83895 0.86836 0.63194
 Cu504 Cu 0.85714 0.82229 0.64688
 N505 N 0.88395 0.83906 0.67612
 N506 N 0.87894 0.82280 0.66638
 C507 C 0.89038 0.80750 0.67287
 C508 C 0.90338 0.81451 0.68750
 C509 C 0.89892 0.83468 0.68906
 H510 H 0.88902 0.79240 0.66744
 H511 H 0.90564 0.84519 0.69935
 N512 N 0.84050 0.82624 0.62261
 N513 N 0.83428 0.84391 0.61641
 C514 C 0.82294 0.84163 0.59978
 C515 C 0.82190 0.82151 0.59532
 C516 C 0.83334 0.81223 0.61010
 H517 H 0.81513 0.85361 0.59209
 H518 H 0.83581 0.79644 0.61210
 H519 H 0.84154 0.84821 0.65417
 H520 H 0.86438 0.85017 0.63822
 N521 N 0.67624 0.62021 0.65850
 N522 N 0.66034 0.61849 0.66996
 C523 C 0.66278 0.60259 0.68203
 C524 C 0.68133 0.59393 0.67808
 C525 C 0.68931 0.60541 0.66284
 H526 H 0.65225 0.59830 0.69348
 H527 H 0.70410 0.60386 0.65636
 Cu528 Cu 0.63971 0.63913 0.67001
 Cu529 Cu 0.68013 0.64341 0.64134
 Cu530 Cu 0.63681 0.67136 0.63204
 N531 N 0.61891 0.65959 0.66943
 N532 N 0.61803 0.67242 0.65454
 C533 C 0.60322 0.68572 0.65810
 C534 C 0.59446 0.68112 0.67638
 C535 C 0.60473 0.66435 0.68304
 H536 H 0.59958 0.69804 0.64828
 H537 H 0.60245 0.65669 0.69712
 N538 N 0.66140 0.67361 0.61586
 N539 N 0.67801 0.66343 0.61975
 C540 C 0.69252 0.66946 0.60722
 C541 C 0.68472 0.68429 0.59491
 C542 C 0.66492 0.68641 0.60076
 H543 H 0.70769 0.66369 0.60741
 H544 H 0.65413 0.69708 0.59494
 H545 H 0.65877 0.66399 0.65198
 H546 H 0.65058 0.64323 0.63532
 N547 N 0.67709 0.12276 0.15353
 N548 N 0.66297 0.12330 0.16728
 C549 C 0.66742 0.11001 0.18176
 C550 C 0.68542 0.10064 0.17697
 C551 C 0.69095 0.10892 0.15874
 H552 H 0.65824 0.10755 0.19487
 H553 H 0.70435 0.10554 0.15022
 Cu554 Cu 0.64032 0.14178 0.16564
 Cu555 Cu 0.67667 0.14115 0.13074
 Cu556 Cu 0.65087 0.18462 0.14277
 N557 N 0.62258 0.16488 0.16798
 N558 N 0.62706 0.18167 0.15907
 C559 C 0.61386 0.19589 0.16460
 C560 C 0.60024 0.18765 0.17776
 C561 C 0.60620 0.16784 0.17946
 H562 H 0.61479 0.21124 0.15993
 H563 H 0.59976 0.15677 0.18923
 N564 N 0.67052 0.18279 0.12088
 N565 N 0.67993 0.16617 0.11569
 C566 C 0.69191 0.16995 0.09989
 C567 C 0.68996 0.18996 0.09499
 C568 C 0.67613 0.19751 0.10857
 H569 H 0.70163 0.15907 0.09270
 H570 H 0.67031 0.21255 0.10943
 H571 H 0.66831 0.16048 0.15213
 H572 H 0.64855 0.15595 0.13279
 N573 N 0.17536 0.61756 0.17017
 N574 N 0.15881 0.61352 0.17992
 C575 C 0.16203 0.59752 0.19176
 C576 C 0.18177 0.59132 0.18930
 C577 C 0.18972 0.60442 0.17552
 H578 H 0.15102 0.59133 0.20177
 H579 H 0.20501 0.60464 0.17019
 Cu580 Cu 0.13532 0.63064 0.17731
 Cu581 Cu 0.17758 0.64038 0.15240
 Cu582 Cu 0.13241 0.66206 0.13826
 N583 N 0.11533 0.65189 0.17643
 N584 N 0.11390 0.66388 0.16088
 C585 C 0.09939 0.67751 0.16437
 C586 C 0.09156 0.67415 0.18335
 C587 C 0.10188 0.65756 0.19043
 H588 H 0.09540 0.68940 0.15412
 H589 H 0.10018 0.65050 0.20492
 N590 N 0.15733 0.66580 0.12308
 N591 N 0.17467 0.65822 0.12906
 C592 C 0.18918 0.66457 0.11673
 C593 C 0.18061 0.67688 0.10229
 C594 C 0.16034 0.67722 0.10677
 H595 H 0.20482 0.66061 0.11842
 H596 H 0.14879 0.68577 0.09913
 H597 H 0.15261 0.65751 0.16027
 H598 H 0.14898 0.63548 0.14353
 N599 N 0.17714 0.10846 0.65403
 N600 N 0.16488 0.10861 0.66948
 C601 C 0.16986 0.09346 0.68180
 C602 C 0.18601 0.08322 0.67361
 C603 C 0.19025 0.09319 0.65596
 H604 H 0.16280 0.09041 0.69607
 H605 H 0.20253 0.09023 0.64579
 Cu606 Cu 0.14462 0.12946 0.67263
 Cu607 Cu 0.17680 0.12939 0.63386
 Cu608 Cu 0.14055 0.16652 0.63907
 N609 N 0.12410 0.15014 0.67527
 N610 N 0.12222 0.16423 0.66168
 C611 C 0.10752 0.17694 0.66729
 C612 C 0.09998 0.17075 0.68559
 C613 C 0.11076 0.15355 0.69010
 H614 H 0.10317 0.19021 0.65912
 H615 H 0.10929 0.14445 0.70338
 N616 N 0.16053 0.16619 0.61730
 N617 N 0.17411 0.15191 0.61512
 C618 C 0.18663 0.15688 0.60015
 C619 C 0.18092 0.17533 0.59280
 C620 C 0.16416 0.18069 0.60390
 H621 H 0.19976 0.14838 0.59573
 H622 H 0.15574 0.19448 0.60299
 H623 H 0.16464 0.15153 0.65199
 H624 H 0.14679 0.13644 0.63677
 N625 N 0.33083 0.61216 0.33513
 N626 N 0.34532 0.61374 0.32189
 C627 C 0.34317 0.59960 0.30763
 C628 C 0.32638 0.58855 0.31223
 C629 C 0.31904 0.59690 0.32983
 H630 H 0.35274 0.59800 0.29463
 H631 H 0.30562 0.59266 0.33775
 Cu632 Cu 0.36508 0.63474 0.32405
 Cu633 Cu 0.32748 0.63107 0.35731
 Cu634 Cu 0.34769 0.67669 0.34544
 N635 N 0.38033 0.65925 0.32325
 N636 N 0.37320 0.67564 0.33152
 C637 C 0.38553 0.69078 0.32759
 C638 C 0.40142 0.68356 0.31624
 C639 C 0.39763 0.66341 0.31384
 H640 H 0.38267 0.70595 0.33231
 H641 H 0.40640 0.65283 0.30517
 N642 N 0.32705 0.67329 0.36617
 N643 N 0.31987 0.65585 0.37143
 C644 C 0.30717 0.65847 0.38699
 C645 C 0.30644 0.67860 0.39173
 C646 C 0.31922 0.68745 0.37820
 H647 H 0.29931 0.64657 0.39439
 H648 H 0.32299 0.70306 0.37765
 H649 H 0.33408 0.65067 0.33568
 H650 H 0.35339 0.64886 0.35599
 N651 N 0.31734 0.10972 0.83390
 N652 N 0.33034 0.10996 0.81908
 C653 C 0.32670 0.09455 0.80667
 C654 C 0.31060 0.08406 0.81407
 C655 C 0.30500 0.09418 0.83140
 H656 H 0.33455 0.09165 0.79274
 H657 H 0.29223 0.09120 0.84084
 Cu658 Cu 0.34969 0.13127 0.81608
 Cu659 Cu 0.31585 0.13108 0.85370
 Cu660 Cu 0.35557 0.16348 0.85420
 N661 N 0.37326 0.14809 0.81810
 N662 N 0.37595 0.15994 0.83362
 C663 C 0.39276 0.17041 0.83086
 C664 C 0.40100 0.16508 0.81251
 C665 C 0.38824 0.15075 0.80484
 H666 H 0.39801 0.18200 0.84082
 H667 H 0.38928 0.14337 0.79041
 N668 N 0.33502 0.16334 0.87538
 N669 N 0.31966 0.15114 0.87510
 C670 C 0.30728 0.15590 0.89041
 C671 C 0.31534 0.17172 0.90096
 C672 C 0.33277 0.17618 0.89081
 H673 H 0.29296 0.14906 0.89312
 H674 H 0.34248 0.18862 0.89380
 H675 H 0.33077 0.15331 0.83894
 H676 H 0.34629 0.13420 0.85233
 N677 N 0.81279 0.62135 0.84204
 N678 N 0.82996 0.61600 0.83393
 C679 C 0.82736 0.59926 0.82311
 C680 C 0.80740 0.59396 0.82429
 C681 C 0.79860 0.60835 0.83650
 H682 H 0.83882 0.59209 0.81408
 H683 H 0.78297 0.60982 0.84048
 Cu684 Cu 0.85329 0.63288 0.83602
 Cu685 Cu 0.80977 0.64584 0.85752
 Cu686 Cu 0.85413 0.66888 0.87093
 N687 N 0.87256 0.65434 0.83478
 N688 N 0.87335 0.66811 0.84884
 C689 C 0.88787 0.68106 0.84426
 C690 C 0.89634 0.67537 0.82609
 C691 C 0.88633 0.65819 0.82062
 H692 H 0.89148 0.69411 0.85307
 H693 H 0.88864 0.64921 0.80729
 N694 N 0.82858 0.67415 0.88474
 N695 N 0.81157 0.66603 0.87901
 C696 C 0.79659 0.67347 0.89037
 C697 C 0.80452 0.68703 0.90387
 C698 C 0.82488 0.68698 0.89991
 H699 H 0.78110 0.66922 0.88884
 H700 H 0.83607 0.69605 0.90720
 H701 H 0.83484 0.66174 0.84888
 H702 H 0.83807 0.64195 0.86830
 N703 N 0.82918 0.12155 0.34557
 N704 N 0.84257 0.12263 0.33115
 C705 C 0.83791 0.10962 0.31651
 C706 C 0.82059 0.09981 0.32198
 C707 C 0.81564 0.10763 0.34066
 H708 H 0.84646 0.10775 0.30285
 H709 H 0.80274 0.10392 0.34967
 Cu710 Cu 0.86458 0.14137 0.33224
 Cu711 Cu 0.82975 0.13957 0.36872
 Cu712 Cu 0.85288 0.18365 0.35618
 N713 N 0.88153 0.16467 0.33019
 N714 N 0.87658 0.18121 0.33962
 C715 C 0.88943 0.19559 0.33468
 C716 C 0.90334 0.18775 0.32134
 C717 C 0.89794 0.16797 0.31894
 H718 H 0.88829 0.21069 0.34021
 H719 H 0.90492 0.15709 0.30910
 N720 N 0.83418 0.18122 0.37871
 N721 N 0.82579 0.16440 0.38416
 C722 C 0.81419 0.16793 0.40040
 C723 C 0.81542 0.18798 0.40535
 C724 C 0.82834 0.19581 0.39127
 H725 H 0.80520 0.15687 0.40783
 H726 H 0.83332 0.21098 0.39008
 H727 H 0.83624 0.15920 0.34726
 H728 H 0.85706 0.15503 0.36563
 N729 N 0.67484 0.39352 0.33762
 N730 N 0.66135 0.39129 0.32334
 C731 C 0.66544 0.40357 0.30799
 C732 C 0.68249 0.41414 0.31279
 C733 C 0.68789 0.40755 0.33186
 H734 H 0.65669 0.40447 0.29431
 H735 H 0.70076 0.41214 0.34058
 Cu736 Cu 0.64003 0.37200 0.32541
 Cu737 Cu 0.67499 0.37655 0.36169
 Cu738 Cu 0.65440 0.33094 0.34971
 N739 N 0.62431 0.34790 0.32393
 N740 N 0.63039 0.33171 0.33326
 C741 C 0.61820 0.31663 0.32857
 C742 C 0.60353 0.32371 0.31556
 C743 C 0.60780 0.34373 0.31306
 H744 H 0.62021 0.30164 0.33413
 H745 H 0.59998 0.35419 0.30341
 N746 N 0.67242 0.33503 0.37274
 N747 N 0.67960 0.35244 0.37823
 C748 C 0.69003 0.35007 0.39555
 C749 C 0.68900 0.33020 0.40126
 C750 C 0.67799 0.32120 0.38620
 H751 H 0.69786 0.36182 0.40334
 H752 H 0.67417 0.30565 0.38507
 H753 H 0.66953 0.35614 0.34070
 H754 H 0.64856 0.35951 0.35890
 N755 N 0.66959 0.88778 0.82694
 N756 N 0.65867 0.88380 0.81097
 C757 C 0.66308 0.89671 0.79624
 C758 C 0.67765 0.90949 0.80329
 C759 C 0.68129 0.90345 0.82290
 H760 H 0.65650 0.89638 0.78139
 H761 H 0.69232 0.90950 0.83310
 Cu762 Cu 0.64066 0.86138 0.81007
 Cu763 Cu 0.66931 0.87092 0.85078
 Cu764 Cu 0.63187 0.83588 0.85266
 N765 N 0.61778 0.84407 0.81267
 N766 N 0.61390 0.83476 0.82955
 C767 C 0.59791 0.82306 0.82672
 C768 C 0.59160 0.82491 0.80694
 C769 C 0.60451 0.83852 0.79850
 H770 H 0.59202 0.81296 0.83782
 H771 H 0.60476 0.84351 0.78307
 N772 N 0.65185 0.83912 0.87427
 N773 N 0.66637 0.85224 0.87342
 C774 C 0.67927 0.84882 0.88870
 C775 C 0.67270 0.83259 0.89960
 C776 C 0.65511 0.82704 0.89012
 H777 H 0.69306 0.85680 0.89102
 H778 H 0.64605 0.81432 0.89374
 H779 H 0.65762 0.84523 0.83823
 H780 H 0.63930 0.86509 0.84633
 N781 N 0.17630 0.37703 0.83352
 N782 N 0.15904 0.37885 0.82409
 C783 C 0.16008 0.39396 0.81081
 C784 C 0.17911 0.40194 0.81202
 C785 C 0.18892 0.39081 0.82659
 H786 H 0.14818 0.39821 0.80056
 H787 H 0.20434 0.39231 0.83133
 Cu788 Cu 0.13765 0.36005 0.82872
 Cu789 Cu 0.18186 0.35606 0.85294
 Cu790 Cu 0.14147 0.32738 0.86667
 N791 N 0.12097 0.33651 0.82982
 N792 N 0.12252 0.32368 0.84465
 C793 C 0.10971 0.30867 0.84144
 C794 C 0.09975 0.31213 0.82343
 C795 C 0.10711 0.33010 0.81663
 H796 H 0.10799 0.29610 0.85139
 H797 H 0.10295 0.33775 0.80291
 N798 N 0.16682 0.32756 0.88184
 N799 N 0.18237 0.33822 0.87644
 C800 C 0.19771 0.33440 0.88915
 C801 C 0.19150 0.32061 0.90320
 C802 C 0.17187 0.31655 0.89799
 H803 H 0.21246 0.34074 0.88786
 H804 H 0.16221 0.30584 0.90509
 H805 H 0.16005 0.33574 0.84452
 H806 H 0.15284 0.35626 0.86217
 N807 N 0.17132 0.88706 0.33570
 N808 N 0.15840 0.88526 0.32085
 C809 C 0.16321 0.89802 0.30611
 C810 C 0.18007 0.90843 0.31208
 C811 C 0.18466 0.90115 0.33102
 H812 H 0.15512 0.89934 0.29206
 H813 H 0.19713 0.90544 0.34046
 Cu814 Cu 0.13654 0.86634 0.32199
 Cu815 Cu 0.17038 0.87026 0.35946
 Cu816 Cu 0.14488 0.82642 0.35111
 N817 N 0.11883 0.84350 0.32116
 N818 N 0.12229 0.82800 0.33272
 C819 C 0.10900 0.81375 0.32846
 C820 C 0.09638 0.82056 0.31331
 C821 C 0.10306 0.83960 0.30909
 H822 H 0.10908 0.79932 0.33558
 H823 H 0.09729 0.84951 0.29760
 N824 N 0.16395 0.83001 0.37336
 N825 N 0.17373 0.84666 0.37665
 C826 C 0.18653 0.84388 0.39216
 C827 C 0.18454 0.82453 0.39899
 C828 C 0.16989 0.81635 0.38690
 H829 H 0.19680 0.85498 0.39766
 H830 H 0.16447 0.80125 0.38759
 H831 H 0.16326 0.84862 0.33977
 H832 H 0.14240 0.85602 0.35698
 C833 C 0.26321 1.05475 0.27034
 C834 C 0.27819 1.05477 0.25626
 C835 C 0.27350 1.04016 0.24225
 N836 N 0.25581 1.03180 0.24711
 C837 C 0.24921 1.04110 0.26389
 C838 C 0.28362 1.03570 0.22402
 C839 C 0.27887 1.01754 0.21443
 C840 C 0.27729 1.01401 0.19391
 C841 C 0.27491 0.99380 0.19154
 C842 C 0.27445 0.98581 0.21069
 N843 N 0.27612 1.00036 0.22457
 C844 C 0.27366 0.96542 0.21517
 C845 C 0.25987 0.95877 0.22976
 C846 C 0.25376 0.93930 0.23206
 C847 C 0.23968 0.93945 0.24693
 C848 C 0.23775 0.95898 0.25368
 N849 N 0.24969 0.97086 0.24263
 C850 C 0.22435 0.96578 0.26893
 C851 C 0.21921 0.98634 0.27044
 C852 C 0.20065 0.99368 0.27622
 C853 C 0.20220 1.01394 0.27768
 C854 C 0.22146 1.01884 0.27169
 N855 N 0.23173 1.00176 0.26730
 C856 C 0.22984 1.03833 0.27192
 H857 H 0.26272 1.06394 0.28372
 H858 H 0.29078 1.06462 0.25677
 H859 H 0.24704 1.00051 0.26445
 H860 H 0.27755 1.02478 0.18185
 H861 H 0.27352 0.98587 0.17742
 H862 H 0.25807 0.92637 0.22329
 H863 H 0.23115 0.92658 0.25124
 H864 H 0.19030 1.02342 0.28324
 H865 H 0.27752 0.99835 0.24010
 H866 H 0.18722 0.98537 0.27929
 C867 C 0.25263 0.44461 0.76861
 C868 C 0.26886 0.44511 0.75606
 C869 C 0.26468 0.45964 0.74189
 N870 N 0.24647 0.46791 0.74513
 C871 C 0.23878 0.45829 0.76112
 C872 C 0.27743 0.46471 0.72597
 C873 C 0.28167 0.48499 0.72231
 C874 C 0.29976 0.49178 0.71505
 C875 C 0.29858 0.51215 0.71512
 C876 C 0.27960 0.51746 0.72195
 N877 N 0.26954 0.50074 0.72676
 C878 C 0.27241 0.53740 0.72407
 C879 C 0.25867 0.54262 0.73966
 C880 C 0.25687 0.56138 0.74826
 C881 C 0.24209 0.56043 0.76234
 C882 C 0.23556 0.54090 0.76267
 N883 N 0.24578 0.53005 0.74873
 C884 C 0.21943 0.53366 0.77450
 C885 C 0.21214 0.51421 0.77111
 C886 C 0.19236 0.50854 0.77257
 C887 C 0.19213 0.48813 0.77151
 C888 C 0.21176 0.48175 0.76828
 N889 N 0.22378 0.49794 0.76772
 C890 C 0.21909 0.46173 0.76818
 H891 H 0.25145 0.43551 0.78194
 H892 H 0.28244 0.43627 0.75755
 H893 H 0.23942 0.49777 0.76766
 H894 H 0.31296 0.48311 0.71117
 H895 H 0.31083 0.52185 0.71140
 H896 H 0.26551 0.57454 0.74524
 H897 H 0.23667 0.57315 0.77077
 H898 H 0.17876 0.47958 0.77340
 H899 H 0.25468 0.50002 0.73129
 H900 H 0.17933 0.51807 0.77461
 C901 C 0.74641 0.06855 0.24160
 C902 C 0.76063 0.06847 0.25635
 C903 C 0.76367 0.04881 0.26205
 N904 N 0.75211 0.03682 0.25046
 C905 C 0.74157 0.04887 0.23778
 C906 C 0.77771 0.04222 0.27692
 C907 C 0.78455 0.02210 0.27710
 C908 C 0.80383 0.01600 0.28230
 C909 C 0.80417 -0.00438 0.28197
 C910 C 0.78528 -0.01032 0.27597
 N911 N 0.77346 0.00591 0.27258
 C912 C 0.77988 -0.03040 0.27288
 C913 C 0.76731 -0.03523 0.25661
 C914 C 0.77085 -0.05067 0.24323
 C915 C 0.75554 -0.04998 0.22947
 C916 C 0.74266 -0.03478 0.23553
 N917 N 0.75030 -0.02528 0.25173
 C918 C 0.72367 -0.03004 0.22718
 C919 C 0.71739 -0.00965 0.22668
 C920 C 0.69843 -0.00254 0.22145
 C921 C 0.69933 0.01780 0.22120
 C922 C 0.71899 0.02286 0.22513
 N923 N 0.72981 0.00612 0.22908
 C924 C 0.72670 0.04244 0.22381
 H925 H 0.74011 0.08198 0.23516
 H926 H 0.76812 0.08167 0.26159
 H927 H 0.74533 0.00544 0.23094
 H928 H 0.81663 0.02521 0.28552
 H929 H 0.81718 -0.01366 0.28499
 H930 H 0.78359 -0.06079 0.24290
 H931 H 0.75439 -0.05935 0.21626
 H932 H 0.68678 0.02769 0.21811
 H933 H 0.75818 0.00588 0.26932
 H934 H 0.68513 -0.01059 0.21751
 C935 C 0.74758 0.55879 0.76245
 C936 C 0.73357 0.55861 0.74751
 C937 C 0.73395 0.53971 0.73908
 N938 N 0.74739 0.52810 0.74909
 C939 C 0.75585 0.53976 0.76345
 C940 C 0.72177 0.53359 0.72259
 C941 C 0.71603 0.51337 0.72049
 C942 C 0.69778 0.50720 0.71290
 C943 C 0.69809 0.48681 0.71286
 C944 C 0.71629 0.48074 0.72117
 N945 N 0.72719 0.49718 0.72563
 C946 C 0.72315 0.46057 0.72299
 C947 C 0.74257 0.45656 0.73066
 C948 C 0.75533 0.44130 0.72448
 C949 C 0.77143 0.44140 0.73731
 C950 C 0.76830 0.45719 0.75038
 N951 N 0.75086 0.46666 0.74612
 C952 C 0.78151 0.46271 0.76589
 C953 C 0.78536 0.48304 0.76932
 C954 C 0.80412 0.49058 0.77351
 C955 C 0.80171 0.51080 0.77550
 C956 C 0.78141 0.51497 0.77331
 N957 N 0.77162 0.49801 0.76872
 C958 C 0.77217 0.53387 0.77611
 H959 H 0.75141 0.57197 0.77087
 H960 H 0.72403 0.57117 0.74369
 H961 H 0.75613 0.49649 0.76747
 H962 H 0.68523 0.51633 0.70800
 H963 H 0.68625 0.47791 0.70662
 H964 H 0.75342 0.43127 0.71187
 H965 H 0.78429 0.43145 0.73666
 H966 H 0.81371 0.52122 0.77793
 H967 H 0.74212 0.49748 0.73014
 H968 H 0.81820 0.48246 0.77436
 C969 C 0.27623 0.54894 0.24010
 C970 C 0.26037 0.54882 0.22698
 C971 C 0.24773 0.53384 0.23328
 N972 N 0.25598 0.52397 0.24898
 C973 C 0.27319 0.53342 0.25331
 C974 C 0.22830 0.53002 0.22578
 C975 C 0.22151 0.50993 0.22477
 C976 C 0.20273 0.50394 0.21821
 C977 C 0.20271 0.48358 0.21846
 C978 C 0.22173 0.47728 0.22414
 N979 N 0.23304 0.49342 0.22831
 C980 C 0.22822 0.45702 0.22479
 C981 C 0.24200 0.45044 0.23990
 C982 C 0.24375 0.43103 0.24680
 C983 C 0.25820 0.43084 0.26135
 C984 C 0.26458 0.45028 0.26371
 N985 N 0.25463 0.46225 0.25048
 C986 C 0.28030 0.45647 0.27684
 C987 C 0.28857 0.47570 0.27478
 C988 C 0.30860 0.48035 0.27766
 C989 C 0.31001 0.50067 0.27652
 C990 C 0.29099 0.50784 0.27216
 N991 N 0.27803 0.49253 0.27061
 C992 C 0.28625 0.52811 0.26907
 H993 H 0.28890 0.55883 0.23953
 H994 H 0.25852 0.55857 0.21416
 H995 H 0.26251 0.49369 0.26902
 H996 H 0.19021 0.51278 0.21298
 H997 H 0.18992 0.47454 0.21473
 H998 H 0.23519 0.41815 0.24249
 H999 H 0.26354 0.41748 0.26871
 H1000 H 0.32364 0.50912 0.27798
 H1001 H 0.24836 0.49308 0.23133
 H1002 H 0.32105 0.47017 0.28009
 C1003 C 0.75688 0.94170 0.72980
 C1004 C 0.74075 0.94156 0.74236
 C1005 C 0.73769 0.96100 0.74870
 N1006 N 0.75131 0.97307 0.74007
 C1007 C 0.76358 0.96119 0.72899
 C1008 C 0.72186 0.96755 0.76135
 C1009 C 0.71676 0.98790 0.76207
 C1010 C 0.69744 0.99564 0.76178
 C1011 C 0.69906 1.01587 0.76457
 C1012 C 0.71930 1.01969 0.76700
 N1013 N 0.73005 1.00268 0.76448
 C1014 C 0.72797 1.03797 0.77258
 C1015 C 0.74621 1.04314 0.76309
 C1016 C 0.75885 1.05862 0.76823
 C1017 C 0.77382 1.05869 0.75416
 C1018 C 0.76928 1.04416 0.74012
 N1019 N 0.75272 1.03434 0.74590
 C1020 C 0.77905 1.04084 0.72149
 C1021 C 0.78082 1.02100 0.71370
 C1022 C 0.78936 1.01562 0.69539
 C1023 C 0.78917 0.99529 0.69418
 C1024 C 0.78152 0.98837 0.71213
 N1025 N 0.77614 1.00411 0.72385
 C1026 C 0.78002 0.96789 0.71730
 H1027 H 0.76210 0.92886 0.72143
 H1028 H 0.73177 0.92865 0.74548
 H1029 H 0.77148 1.00330 0.73876
 H1030 H 0.68367 0.98751 0.75976
 H1031 H 0.68674 1.02648 0.76478
 H1032 H 0.75779 1.06905 0.78053
 H1033 H 0.78659 1.06846 0.75435
 H1034 H 0.79415 0.98670 0.68132
 H1035 H 0.74548 1.00094 0.76669
 H1036 H 0.79585 1.02484 0.68396
 C1037 C 0.74260 0.44414 0.24635
 C1038 C 0.75766 0.44438 0.23247
 C1039 C 0.76335 0.46410 0.23022
 N1040 N 0.75146 0.47594 0.24173
 C1041 C 0.73913 0.46371 0.25200
 C1042 C 0.77847 0.47098 0.21691
 C1043 C 0.77885 0.49135 0.21100
 C1044 C 0.78483 0.49802 0.19230
 C1045 C 0.78471 0.51840 0.19301
 C1046 C 0.77766 0.52401 0.21188
 N1047 N 0.77413 0.50727 0.22275
 C1048 C 0.77619 0.54395 0.21942
 C1049 C 0.76753 0.54733 0.23858
 C1050 C 0.77269 0.56204 0.25220
 C1051 C 0.75841 0.56206 0.26700
 C1052 C 0.74567 0.54643 0.26269
 N1053 N 0.75139 0.53746 0.24533
 C1054 C 0.72790 0.54126 0.27302
 C1055 C 0.71965 0.52248 0.26861
 C1056 C 0.69950 0.51786 0.26714
 C1057 C 0.69851 0.49747 0.26540
 C1058 C 0.71808 0.49043 0.26527
 N1059 N 0.73090 0.50574 0.26645
 C1060 C 0.72391 0.47026 0.26536
 H1061 H 0.73445 0.43104 0.25074
 H1062 H 0.76281 0.43140 0.22427
 H1063 H 0.74645 0.50461 0.26808
 H1064 H 0.78896 0.48918 0.17930
 H1065 H 0.78996 0.52755 0.18088
 H1066 H 0.78536 0.57191 0.25160
 H1067 H 0.75795 0.57261 0.27922
 H1068 H 0.68499 0.48878 0.26433
 H1069 H 0.77077 0.50670 0.23803
 H1070 H 0.68680 0.52803 0.26725
 C1071 C 0.24939 -0.07582 0.73128
 C1072 C 0.26367 -0.07539 0.74604
 C1073 C 0.26386 -0.05611 0.75369
 N1074 N 0.24963 -0.04500 0.74415
 C1075 C 0.24048 -0.05712 0.73068
 C1076 C 0.27546 -0.04941 0.77046
 C1077 C 0.27304 -0.02951 0.77749
 C1078 C 0.27420 -0.02328 0.79733
 C1079 C 0.27429 -0.00283 0.79724
 C1080 C 0.27182 0.00310 0.77738
 N1081 N 0.27080 -0.01339 0.76551
 C1082 C 0.27220 0.02295 0.76986
 C1083 C 0.26507 0.02616 0.75014
 C1084 C 0.27260 0.03923 0.73601
 C1085 C 0.25955 0.03898 0.72001
 C1086 C 0.24505 0.02522 0.72469
 N1087 N 0.24855 0.01719 0.74292
 C1088 C 0.22830 0.02087 0.71269
 C1089 C 0.22332 0.00078 0.70876
 C1090 C 0.21342 -0.00576 0.69170
 C1091 C 0.21271 -0.02611 0.69290
 C1092 C 0.22183 -0.03164 0.71091
 N1093 N 0.22862 -0.01509 0.72025
 C1094 C 0.22418 -0.05161 0.71783
 H1095 H 0.24628 -0.08861 0.72192
 H1096 H 0.27223 -0.08831 0.75066
 H1097 H 0.23518 -0.01444 0.73440
 H1098 H 0.27504 -0.03243 0.81067
 H1099 H 0.27621 0.00611 0.81056
 H1100 H 0.28612 0.04791 0.73701
 H1101 H 0.26076 0.04759 0.70633
 H1102 H 0.20686 -0.03565 0.68121
 H1103 H 0.27089 -0.01363 0.74980
 H1104 H 0.20813 0.00301 0.67909
 C1105 C 0.24272 0.24942 1.06030
 C1106 C 0.25714 0.23489 1.06012
 C1107 C 0.26552 0.23473 1.04107
 N1108 N 0.25591 0.24830 1.02933
 C1109 C 0.24192 0.25741 1.04109
 C1110 C 0.28159 0.22198 1.03491
 C1111 C 0.28334 0.21573 1.01449
 C1112 C 0.29101 0.19742 1.00847
 C1113 C 0.29075 0.19709 0.98793
 C1114 C 0.28202 0.21488 0.98150
 N1115 N 0.27771 0.22625 0.99797
 C1116 C 0.27963 0.22083 0.96095
 C1117 C 0.27116 0.23975 0.95630
 C1118 C 0.27601 0.25148 0.93992
 C1119 C 0.26272 0.26717 0.93973
 C1120 C 0.25089 0.26509 0.95660
 N1121 N 0.25622 0.24854 0.96692
 C1122 C 0.23589 0.27878 0.96257
 C1123 C 0.23420 0.28396 0.98305
 C1124 C 0.23149 0.30322 0.99005
 C1125 C 0.23066 0.30205 1.01063
 C1126 C 0.23211 0.28203 1.01557
 N1127 N 0.23515 0.27112 0.99867
 C1128 C 0.22977 0.27398 1.03506
 H1129 H 0.23444 0.25368 1.07357
 H1130 H 0.26063 0.22536 1.07276
 H1131 H 0.23561 0.25561 0.99772
 H1132 H 0.29615 0.18520 1.01778
 H1133 H 0.29710 0.18504 0.97922
 H1134 H 0.28817 0.24932 0.92938
 H1135 H 0.26251 0.27923 0.92898
 H1136 H 0.22940 0.31463 1.02078
 H1137 H 0.27294 0.24105 0.99799
 H1138 H 0.23077 0.31677 0.98129
 C1139 C 0.22923 0.74491 0.55454
 C1140 C 0.24414 0.73091 0.55392
 C1141 C 0.25258 0.73171 0.53493
 N1142 N 0.24257 0.74539 0.52364
 C1143 C 0.22821 0.75360 0.53564
 C1144 C 0.26912 0.71971 0.52847
 C1145 C 0.27126 0.71427 0.50792
 C1146 C 0.27907 0.69625 0.50121
 C1147 C 0.27927 0.69691 0.48065
 C1148 C 0.27082 0.71506 0.47497
 N1149 N 0.26611 0.72560 0.49187
 C1150 C 0.26915 0.72227 0.45483
 C1151 C 0.26131 0.74163 0.45139
 C1152 C 0.26760 0.75472 0.43667
 C1153 C 0.25482 0.77082 0.43735
 C1154 C 0.24162 0.76731 0.45291
 N1155 N 0.24576 0.74966 0.46171
 C1156 C 0.22592 0.78030 0.45864
 C1157 C 0.22213 0.78379 0.47922
 C1158 C 0.21758 0.80230 0.48729
 C1159 C 0.21557 0.79967 0.50764
 C1160 C 0.21806 0.77946 0.51137
 N1161 N 0.22285 0.76997 0.49400
 C1162 C 0.21556 0.77007 0.53028
 H1163 H 0.22086 0.74841 0.56796
 H1164 H 0.24795 0.72111 0.56626
 H1165 H 0.22444 0.75462 0.49202
 H1166 H 0.28405 0.68365 0.51009
 H1167 H 0.28578 0.68532 0.47142
 H1168 H 0.28028 0.75306 0.42668
 H1169 H 0.25555 0.78389 0.42791
 H1170 H 0.21313 0.81152 0.51844
 H1171 H 0.26149 0.74043 0.49263
 H1172 H 0.21663 0.81639 0.47947
 C1173 C 0.23489 0.74357 0.06798
 C1174 C 0.24931 0.75784 0.06757
 C1175 C 0.25440 0.76052 0.04757
 N1176 N 0.24358 0.74812 0.03580
 C1177 C 0.23143 0.73786 0.04821
 C1178 C 0.27046 0.77222 0.04049
 C1179 C 0.27670 0.76991 0.02040
 C1180 C 0.29642 0.76833 0.01409
 C1181 C 0.29597 0.76818 -0.00657
 C1182 C 0.27601 0.76985 -0.01218
 N1183 N 0.26425 0.76997 0.00434
 C1184 C 0.26885 0.77203 -0.03202
 C1185 C 0.25177 0.76110 -0.03807
 C1186 C 0.24477 0.75924 -0.05763
 C1187 C 0.23004 0.74530 -0.05733
 C1188 C 0.22822 0.73897 -0.03756
 N1189 N 0.24169 0.74858 -0.02587
 C1190 C 0.21652 0.72273 -0.03088
 C1191 C 0.21906 0.71582 -0.01097
 C1192 C 0.22036 0.69600 -0.00530
 C1193 C 0.22108 0.69574 0.01535
 C1194 C 0.22024 0.71540 0.02167
 N1195 N 0.21989 0.72764 0.00552
 C1196 C 0.21926 0.72178 0.04190
 H1197 H 0.22900 0.73730 0.08164
 H1198 H 0.25615 0.76416 0.08083
 H1199 H 0.21826 0.74314 0.00581
 H1200 H 0.30971 0.76736 0.02342
 H1201 H 0.30887 0.76694 -0.01634
 H1202 H 0.25046 0.76590 -0.07119
 H1203 H 0.22288 0.73963 -0.07071
 H1204 H 0.22233 0.68257 0.02464
 H1205 H 0.24873 0.77220 0.00466
 H1206 H 0.22097 0.68306 -0.01502
 C1207 C 0.26090 0.22420 0.44735
 C1208 C 0.27670 0.23701 0.44840
 C1209 C 0.27203 0.25068 0.46332
 N1210 N 0.25397 0.24688 0.47133
 C1211 C 0.24684 0.23103 0.46112
 C1212 C 0.28411 0.26678 0.46888
 C1213 C 0.28784 0.27060 0.48946
 C1214 C 0.30616 0.27644 0.49702
 C1215 C 0.30425 0.27718 0.51752
 C1216 C 0.28450 0.27267 0.52202
 N1217 N 0.27474 0.26800 0.50475
 C1218 C 0.27607 0.27287 0.54168
 C1219 C 0.26077 0.25907 0.54689
 C1220 C 0.25530 0.25426 0.56638
 C1221 C 0.24078 0.24027 0.56508
 C1222 C 0.23818 0.23590 0.54487
 N1223 N 0.25031 0.24763 0.53373
 C1224 C 0.22414 0.22197 0.53709
 C1225 C 0.21811 0.22275 0.51664
 C1226 C 0.19906 0.21857 0.50966
 C1227 C 0.19994 0.21831 0.48908
 C1228 C 0.21933 0.22342 0.48377
 N1229 N 0.23027 0.22621 0.50084
 C1230 C 0.22733 0.22363 0.46389
 H1231 H 0.26008 0.21118 0.43777
 H1232 H 0.29030 0.23608 0.43961
 H1233 H 0.24575 0.22800 0.50178
 H1234 H 0.31986 0.27887 0.48879
 H1235 H 0.31644 0.27995 0.52786
 H1236 H 0.26135 0.25948 0.58048
 H1237 H 0.23286 0.23456 0.57793
 H1238 H 0.18754 0.21405 0.47969
 H1239 H 0.25953 0.26503 0.50323
 H1240 H 0.18582 0.21559 0.51843
 C1241 C 0.74213 0.75162 1.05928
 C1242 C 0.72778 0.76626 1.05905
 C1243 C 0.72583 0.77259 1.03928
 N1244 N 0.73874 0.76217 1.02747
 C1245 C 0.74860 0.74912 1.03963
 C1246 C 0.71424 0.78930 1.03274
 C1247 C 0.71633 0.79615 1.01280
 C1248 C 0.71726 0.81592 1.00704
 C1249 C 0.71760 0.81610 0.98636
 C1250 C 0.71689 0.79642 0.98013
 N1251 N 0.71700 0.78426 0.99634
 C1252 C 0.71547 0.78991 0.95997
 C1253 C 0.72726 0.77330 0.95360
 C1254 C 0.72961 0.76684 0.93388
 C1255 C 0.74353 0.75174 0.93416
 C1256 C 0.74949 0.74937 0.95400
 N1257 N 0.73969 0.76274 0.96582
 C1258 C 0.76515 0.73659 0.96083
 C1259 C 0.77193 0.73839 0.98082
 C1260 C 0.79180 0.73830 0.98685
 C1261 C 0.79176 0.73839 1.00752
 C1262 C 0.77185 0.73841 1.01342
 N1263 N 0.75981 0.73932 0.99704
 C1264 C 0.76496 0.73685 1.03339
 H1265 H 0.74789 0.74490 1.07288
 H1266 H 0.72084 0.77228 1.07244
 H1267 H 0.74420 0.73836 0.99691
 H1268 H 0.71786 0.82888 1.01673
 H1269 H 0.71847 0.82921 0.97699
 H1270 H 0.72307 0.77291 0.92031
 H1271 H 0.74933 0.74439 0.92088
 H1272 H 0.80490 0.73852 1.01710
 H1273 H 0.71545 0.76880 0.99614
 H1274 H 0.80492 0.73816 0.97732
 C1275 C 0.73869 0.26224 0.43958
 C1276 C 0.75234 0.24702 0.43979
 C1277 C 0.75877 0.24476 0.45953
 N1278 N 0.74967 0.25881 0.47123
 C1279 C 0.73758 0.26980 0.45898
 C1280 C 0.77413 0.23127 0.46618
 C1281 C 0.78142 0.23255 0.48618
 C1282 C 0.80108 0.22943 0.49221
 C1283 C 0.80125 0.22945 0.51286
 C1284 C 0.78180 0.23370 0.51906
 N1285 N 0.76989 0.23577 0.50256
 C1286 C 0.77458 0.23373 0.53918
 C1287 C 0.75498 0.24094 0.54255
 C1288 C 0.74096 0.23303 0.55549
 C1289 C 0.72470 0.24572 0.55503
 C1290 C 0.72927 0.26064 0.54150
 N1291 N 0.74761 0.25753 0.53363
 C1292 C 0.71718 0.27750 0.53749
 C1293 C 0.71431 0.28409 0.51740
 C1294 C 0.69742 0.29422 0.51060
 C1295 C 0.69952 0.29642 0.49022
 C1296 C 0.71784 0.28791 0.48493
 N1297 N 0.72660 0.28014 0.50162
 C1298 C 0.72529 0.28639 0.46490
 H1299 H 0.73038 0.26677 0.42636
 H1300 H 0.75716 0.23933 0.42637
 H1301 H 0.74078 0.27368 0.50242
 H1302 H 0.81411 0.22721 0.48280
 H1303 H 0.81438 0.22618 0.52176
 H1304 H 0.74220 0.21944 0.56415
 H1305 H 0.71099 0.24410 0.56349
 H1306 H 0.68804 0.30247 0.48042
 H1307 H 0.75428 0.23703 0.50242
 H1308 H 0.68427 0.29851 0.51911
 C1309 C 0.76556 0.26065 -0.06526
 C1310 C 0.75141 0.24612 -0.06483
 C1311 C 0.74571 0.24399 -0.04493
 N1312 N 0.75587 0.25700 -0.03323
 C1313 C 0.76830 0.26703 -0.04558
 C1314 C 0.73000 0.23176 -0.03797
 C1315 C 0.72347 0.23373 -0.01793
 C1316 C 0.70369 0.23378 -0.01172
 C1317 C 0.70401 0.23390 0.00895
 C1318 C 0.72400 0.23389 0.01467
 N1319 N 0.73579 0.23468 -0.00180
 C1320 C 0.73119 0.23241 0.03458
 C1321 C 0.74711 0.24491 0.04075
 C1322 C 0.75360 0.24764 0.06039
 C1323 C 0.76755 0.26234 0.06001
 C1324 C 0.76924 0.26840 0.04015
 N1325 N 0.75652 0.25785 0.02845
 C1326 C 0.78072 0.28472 0.03331
 C1327 C 0.77876 0.29106 0.01318
 C1328 C 0.77812 0.31069 0.00684
 C1329 C 0.77814 0.31026 -0.01384
 C1330 C 0.77874 0.29038 -0.01946
 N1331 N 0.77824 0.27871 -0.00292
 C1332 C 0.78039 0.28323 -0.03939
 H1333 H 0.77189 0.26650 -0.07891
 H1334 H 0.74531 0.23903 -0.07807
 H1335 H 0.77973 0.26321 -0.00264
 H1336 H 0.69042 0.23372 -0.02113
 H1337 H 0.69102 0.23405 0.01865
 H1338 H 0.74815 0.24093 0.07402
 H1339 H 0.77454 0.26847 0.07328
 H1340 H 0.77762 0.32312 -0.02362
 H1341 H 0.75142 0.23363 -0.00201
 H1342 H 0.77757 0.32393 0.01614
 C1343 C 0.73699 0.75401 0.43762
 C1344 C 0.75026 0.76927 0.43764
 C1345 C 0.75432 0.77376 0.45760
 N1346 N 0.74357 0.76180 0.46979
 C1347 C 0.73291 0.74966 0.45757
 C1348 C 0.76733 0.78904 0.46428
 C1349 C 0.76712 0.79506 0.48462
 C1350 C 0.76847 0.81456 0.49128
 C1351 C 0.76953 0.81384 0.51191
 C1352 C 0.76880 0.79392 0.51721
 N1353 N 0.76650 0.78257 0.50053
 C1354 C 0.77107 0.78649 0.53694
 C1355 C 0.75866 0.77082 0.54366
 C1356 C 0.75620 0.76520 0.56356
 C1357 C 0.74262 0.75017 0.56365
 C1358 C 0.73685 0.74708 0.54385
 N1359 N 0.74672 0.75974 0.53162
 C1360 C 0.72408 0.73169 0.53711
 C1361 C 0.72472 0.72575 0.51674
 C1362 C 0.72488 0.70614 0.51022
 C1363 C 0.72409 0.70664 0.48963
 C1364 C 0.72336 0.72654 0.48415
 N1365 N 0.72458 0.73819 0.50075
 C1366 C 0.72114 0.73346 0.46420
 H1367 H 0.73194 0.74654 0.42416
 H1368 H 0.75605 0.77611 0.42421
 H1369 H 0.72320 0.75370 0.50125
 H1370 H 0.76861 0.82791 0.48220
 H1371 H 0.77063 0.82653 0.52190
 H1372 H 0.76314 0.77126 0.57690
 H1373 H 0.73835 0.74203 0.57693
 H1374 H 0.72428 0.69375 0.47982
 H1375 H 0.76689 0.76702 0.49992
 H1376 H 0.72567 0.69284 0.51936
 C1377 C 0.93909 0.26036 0.24370
 C1378 C 0.93850 0.24544 0.25762
 C1379 C 0.95802 0.24222 0.26418
 N1380 N 0.97042 0.25507 0.25487
 C1381 C 0.95892 0.26604 0.24214
 C1382 C 0.96405 0.22935 0.28006
 C1383 C 0.98396 0.23022 0.28712
 C1384 C 0.98978 0.23025 0.30714
 C1385 C 1.01038 0.22971 0.30732
 C1386 C 1.01644 0.22923 0.28741
 N1387 N 1.00028 0.23048 0.27515
 C1388 C 1.03631 0.22668 0.28064
 C1389 C 1.04310 0.23840 0.26434
 C1390 C 1.06261 0.23904 0.25723
 C1391 C 1.06311 0.25370 0.24303
 C1392 C 1.04391 0.26174 0.24179
 N1393 N 1.03177 0.25247 0.25499
 C1394 C 1.03811 0.27867 0.23032
 C1395 C 1.01857 0.28651 0.23258
 C1396 C 1.01341 0.30653 0.23357
 C1397 C 0.99281 0.30756 0.23372
 C1398 C 0.98612 0.28813 0.23284
 N1399 N 1.00188 0.27534 0.23305
 C1400 C 0.96602 0.28233 0.23071
 H1401 H 0.92599 0.26686 0.23659
 H1402 H 0.92484 0.23887 0.26297
 H1403 H 1.00127 0.25989 0.23122
 H1404 H 0.98019 0.23077 0.32023
 H1405 H 1.01982 0.22973 0.32059
 H1406 H 1.07564 0.23077 0.26232
 H1407 H 1.07655 0.25842 0.23551
 H1408 H 0.98378 0.32105 0.23435
 H1409 H 1.00034 0.22937 0.25947
 H1410 H 1.02344 0.31907 0.23412
 C1411 C 0.56109 0.25280 0.75475
 C1412 C 0.56154 0.23856 0.76936
 C1413 C 0.54207 0.23204 0.77166
 N1414 N 0.52967 0.24223 0.75906
 C1415 C 0.54139 0.25455 0.74819
 C1416 C 0.53578 0.21786 0.78608
 C1417 C 0.51525 0.21608 0.79046
 C1418 C 0.50724 0.21464 0.80956
 C1419 C 0.48695 0.21198 0.80714
 C1420 C 0.48330 0.21132 0.78659
 N1421 N 0.50053 0.21479 0.77655
 C1422 C 0.46485 0.20726 0.77690
 C1423 C 0.46022 0.21836 0.75932
 C1424 C 0.44518 0.21465 0.74537
 C1425 C 0.44472 0.23053 0.73245
 C1426 C 0.45865 0.24397 0.73948
 N1427 N 0.46847 0.23628 0.75552
 C1428 C 0.46127 0.26369 0.73261
 C1429 C 0.48095 0.27180 0.73242
 C1430 C 0.48590 0.29105 0.72679
 C1431 C 0.50634 0.29230 0.72751
 C1432 C 0.51368 0.27361 0.73257
 N1433 N 0.49815 0.26126 0.73588
 C1434 C 0.53431 0.26824 0.73338
 H1435 H 0.57385 0.26158 0.75053
 H1436 H 0.57472 0.23442 0.77793
 H1437 H 0.49935 0.24596 0.73822
 H1438 H 0.51518 0.21577 0.82374
 H1439 H 0.47619 0.21123 0.81923
 H1440 H 0.43527 0.20217 0.74423
 H1441 H 0.43504 0.23201 0.71944
 H1442 H 0.51476 0.30561 0.72447
 H1443 H 0.50246 0.21433 0.76096
 H1444 H 0.47631 0.30312 0.72189
 C1445 C -0.05574 0.23922 0.74422
 C1446 C -0.05565 0.25342 0.75896
 C1447 C -0.03614 0.25453 0.76608
 N1448 N -0.02440 0.24109 0.75627
 C1449 C -0.03628 0.23191 0.74262
 C1450 C -0.02965 0.26651 0.78245
 C1451 C -0.00997 0.26407 0.78992
 C1452 C -0.00441 0.26467 0.81001
 C1453 C 0.01618 0.26404 0.81052
 C1454 C 0.02251 0.26285 0.79073
 N1455 N 0.00651 0.26206 0.77826
 C1456 C 0.04260 0.26354 0.78436
 C1457 C 0.04932 0.25010 0.76925
 C1458 C 0.06918 0.24593 0.76463
 C1459 C 0.06911 0.23135 0.75025
 C1460 C 0.04921 0.22698 0.74633
 N1461 N 0.03716 0.23816 0.75835
 C1462 C 0.04235 0.21192 0.73304
 C1463 C 0.02208 0.20623 0.73368
 C1464 C 0.01536 0.18682 0.73253
 C1465 C -0.00521 0.18790 0.73179
 C1466 C -0.01040 0.20794 0.73235
 N1467 N 0.00629 0.21902 0.73440
 C1468 C -0.02999 0.21581 0.73012
 H1469 H -0.06908 0.23432 0.73653
 H1470 H -0.06889 0.26115 0.76430
 H1471 H 0.00695 0.23455 0.73394
 H1472 H -0.01418 0.26556 0.82295
 H1473 H 0.02546 0.26445 0.82389
 H1474 H 0.08253 0.25181 0.77156
 H1475 H 0.08244 0.22420 0.74434
 H1476 H -0.01521 0.17535 0.73097
 H1477 H 0.00689 0.26257 0.76256
 H1478 H 0.02437 0.17331 0.73228
 C1479 C 0.44407 0.26395 0.25908
 C1480 C 0.44362 0.24966 0.24442
 C1481 C 0.46330 0.24376 0.24094
 N1482 N 0.47570 0.25390 0.25334
 C1483 C 0.46401 0.26646 0.26431
 C1484 C 0.46951 0.22776 0.22831
 C1485 C 0.48955 0.22092 0.22930
 C1486 C 0.49565 0.20112 0.22945
 C1487 C 0.51623 0.20101 0.22865
 C1488 C 0.52201 0.22073 0.22796
 N1489 N 0.50571 0.23283 0.22927
 C1490 C 0.54177 0.22741 0.22537
 C1491 C 0.54849 0.24392 0.23686
 C1492 C 0.56809 0.25048 0.23796
 C1493 C 0.56853 0.26515 0.25221
 C1494 C 0.54916 0.26736 0.25947
 N1495 N 0.53700 0.25414 0.25022
 C1496 C 0.54326 0.27959 0.27593
 C1497 C 0.52389 0.27749 0.28395
 C1498 C 0.51928 0.27690 0.30425
 C1499 C 0.49875 0.27648 0.30553
 C1500 C 0.49149 0.27693 0.28599
 N1501 N 0.50692 0.27664 0.27286
 C1502 C 0.47112 0.27838 0.28043
 H1503 H 0.43087 0.27054 0.26583
 H1504 H 0.42999 0.24358 0.23830
 H1505 H 0.50589 0.27800 0.25723
 H1506 H 0.48625 0.18812 0.23015
 H1507 H 0.52584 0.18791 0.22868
 H1508 H 0.58121 0.24468 0.23038
 H1509 H 0.58208 0.27218 0.25733
 H1510 H 0.49015 0.27583 0.31929
 H1511 H 0.50550 0.24833 0.22793
 H1512 H 0.52964 0.27667 0.31680
 C1513 C 0.93173 0.75029 0.74909
 C1514 C 0.93097 0.73507 0.76264
 C1515 C 0.95040 0.73165 0.76937
 N1516 N 0.96307 0.74409 0.75989
 C1517 C 0.95167 0.75559 0.74750
 C1518 C 0.95631 0.71661 0.78323
 C1519 C 0.97631 0.70928 0.78325
 C1520 C 0.98166 0.68945 0.78591
 C1521 C 1.00217 0.68851 0.78622
 C1522 C 1.00888 0.70778 0.78367
 N1523 N 0.99302 0.72036 0.78118
 C1524 C 1.02929 0.71321 0.78394
 C1525 C 1.03640 0.72727 0.76983
 C1526 C 1.05604 0.72848 0.76322
 C1527 C 1.05653 0.74339 0.74932
 C1528 C 1.03712 0.75079 0.74751
 N1529 N 1.02481 0.74080 0.76002
 C1530 C 1.03116 0.76747 0.73575
 C1531 C 1.01165 0.77536 0.73801
 C1532 C 1.00664 0.79542 0.73890
 C1533 C 0.98606 0.79660 0.73902
 C1534 C 0.97921 0.77722 0.73818
 N1535 N 0.99488 0.76429 0.73849
 C1536 C 0.95905 0.77163 0.73591
 H1537 H 0.91878 0.75677 0.74169
 H1538 H 0.91752 0.72714 0.76646
 H1539 H 0.99416 0.74885 0.73670
 H1540 H 0.97182 0.67683 0.78721
 H1541 H 1.01113 0.67506 0.78779
 H1542 H 1.06879 0.71930 0.76739
 H1543 H 1.06996 0.74830 0.74190
 H1544 H 0.97713 0.81016 0.73953
 H1545 H 0.99358 0.73586 0.78036
 H1546 H 1.01677 0.80788 0.73934
 C1547 C 0.43749 0.75840 0.24225
 C1548 C 0.43715 0.74342 0.25606
 C1549 C 0.45663 0.74082 0.26305
 N1550 N 0.46875 0.75419 0.25411
 C1551 C 0.45711 0.76482 0.24117
 C1552 C 0.46271 0.72790 0.27890
 C1553 C 0.48243 0.72910 0.28651
 C1554 C 0.48776 0.72839 0.30666
 C1555 C 0.50834 0.72837 0.30740
 C1556 C 0.51495 0.72905 0.28768
 N1557 N 0.49907 0.73038 0.27503
 C1558 C 0.53515 0.72774 0.28153
 C1559 C 0.54199 0.74060 0.26613
 C1560 C 0.56185 0.74330 0.26081
 C1561 C 0.56211 0.75835 0.24702
 C1562 C 0.54240 0.76445 0.24407
 N1563 N 0.53016 0.75377 0.25605
 C1564 C 0.53602 0.78089 0.23215
 C1565 C 0.51602 0.78777 0.23366
 C1566 C 0.50995 0.80757 0.23425
 C1567 C 0.48936 0.80774 0.23356
 C1568 C 0.48355 0.78804 0.23256
 N1569 N 0.49983 0.77589 0.23350
 C1570 C 0.46377 0.78143 0.22994
 H1571 H 0.42431 0.76444 0.23490
 H1572 H 0.42361 0.73634 0.26102
 H1573 H 0.49996 0.76042 0.23175
 H1574 H 0.47784 0.72813 0.31950
 H1575 H 0.51742 0.72806 0.32092
 H1576 H 0.57513 0.73625 0.26696
 H1577 H 0.57564 0.76469 0.24108
 H1578 H 0.47976 0.82084 0.23382
 H1579 H 0.49957 0.72999 0.25933
 H1580 H 0.51939 0.82055 0.23507
 C1581 C 0.06154 0.75577 0.25584
 C1582 C 0.06111 0.74073 0.24206
 C1583 C 0.04114 0.73713 0.23775
 N1584 N 0.02939 0.75018 0.24817
 C1585 C 0.04188 0.76178 0.25916
 C1586 C 0.03417 0.72289 0.22345
 C1587 C 0.01430 0.72421 0.21591
 C1588 C 0.00865 0.71982 0.19629
 C1589 C -0.01180 0.72134 0.19541
 C1590 C -0.01815 0.72728 0.21431
 N1591 N -0.00213 0.72947 0.22668
 C1592 C -0.03834 0.73141 0.21928
 C1593 C -0.04287 0.74779 0.23177
 C1594 C -0.05793 0.76164 0.22806
 C1595 C -0.05703 0.77530 0.24335
 C1596 C -0.04208 0.76879 0.25637
 N1597 N -0.03293 0.75233 0.24886
 C1598 C -0.03738 0.77706 0.27537
 C1599 C -0.01694 0.77726 0.28175
 C1600 C -0.00999 0.78345 0.30046
 C1601 C 0.01048 0.78291 0.29977
 C1602 C 0.01583 0.77742 0.28042
 N1603 N -0.00092 0.77350 0.26963
 C1604 C 0.03578 0.77692 0.27303
 H1605 H 0.07510 0.76094 0.26290
 H1606 H 0.07438 0.73391 0.23571
 H1607 H -0.00136 0.77064 0.25422
 H1608 H 0.01826 0.71629 0.18367
 H1609 H -0.02083 0.71915 0.18206
 H1610 H -0.06795 0.76230 0.21525
 H1611 H -0.06612 0.78871 0.24443
 H1612 H 0.02025 0.78639 0.31227
 H1613 H -0.00253 0.73241 0.24207
 H1614 H -0.01824 0.78859 0.31339
 C1615 C 0.55834 0.76301 0.74579
 C1616 C 0.55843 0.74850 0.73139
 C1617 C 0.53983 0.73957 0.73183
 N1618 N 0.52809 0.74886 0.74567
 C1619 C 0.53940 0.76325 0.75432
 C1620 C 0.53401 0.72336 0.71932
 C1621 C 0.51354 0.72061 0.71408
 C1622 C 0.50695 0.71306 0.69586
 C1623 C 0.48653 0.71187 0.69687
 C1624 C 0.48075 0.71958 0.71541
 N1625 N 0.49749 0.72472 0.72588
 C1626 C 0.46071 0.72033 0.72294
 C1627 C 0.45705 0.72774 0.74255
 C1628 C 0.44242 0.72119 0.75566
 C1629 C 0.44224 0.73412 0.77164
 C1630 C 0.45738 0.74753 0.76815
 N1631 N 0.46665 0.74347 0.75058
 C1632 C 0.46258 0.76316 0.78117
 C1633 C 0.48295 0.76699 0.78484
 C1634 C 0.49088 0.77100 0.80363
 C1635 C 0.51108 0.77343 0.80098
 C1636 C 0.51477 0.77169 0.78051
 N1637 N 0.49762 0.76691 0.77083
 C1638 C 0.53332 0.77530 0.77099
 H1639 H 0.57130 0.77167 0.74967
 H1640 H 0.57093 0.74531 0.72155
 H1641 H 0.49566 0.76589 0.75529
 H1642 H 0.51582 0.70883 0.68291
 H1643 H 0.47749 0.70526 0.68522
 H1644 H 0.43291 0.70835 0.75401
 H1645 H 0.43260 0.73331 0.78466
 H1646 H 0.52181 0.77595 0.81292
 H1647 H 0.49819 0.72896 0.74092
 H1648 H 0.48305 0.77147 0.81786
 C1649 C 0.42896 0.31000 0.31412
 C1650 C 0.45051 0.31556 0.31965
 C1651 C 0.46474 0.30582 0.30856
 C1652 C 0.45619 0.29074 0.29318
 C1653 C 0.44246 0.27731 0.30558
 C1654 C 0.42823 0.28725 0.31629
 C1655 C 0.42758 0.31370 0.29132
 C1656 C 0.44198 0.30400 0.28050
 H1657 H 0.45421 0.32738 0.33016
 H1658 H 0.48028 0.31027 0.30929
 H1659 H 0.44375 0.26117 0.30575
 H1660 H 0.41732 0.27951 0.32536
 H1661 H 0.41660 0.32346 0.28421
 H1662 H 0.44342 0.30595 0.26436
 C1663 C 0.41831 0.79273 0.81371
 C1664 C 0.43695 0.80531 0.80976
 C1665 C 0.45142 0.79566 0.79902
 C1666 C 0.44629 0.77397 0.79341
 C1667 C 0.44104 0.76401 0.81348
 C1668 C 0.42646 0.77376 0.82413
 C1669 C 0.41156 0.78567 0.79279
 C1670 C 0.42614 0.77618 0.78213
 H1671 H 0.43848 0.82069 0.81457
 H1672 H 0.46505 0.80305 0.79451
 H1673 H 0.44826 0.75046 0.81887
 H1674 H 0.42146 0.76837 0.83860
 H1675 H 0.39669 0.78837 0.78661
 H1676 H 0.42361 0.77122 0.76678
 C1677 C -0.07202 0.30444 0.80852
 C1678 C -0.05082 0.30825 0.81654
 C1679 C -0.03641 0.29636 0.80806
 C1680 C -0.04456 0.28109 0.79263
 C1681 C -0.06114 0.27008 0.80394
 C1682 C -0.07548 0.28217 0.81202
 C1683 C -0.07005 0.30651 0.78555
 C1684 C -0.05553 0.29467 0.77740
 H1685 H -0.04721 0.32044 0.82662
 H1686 H -0.02069 0.29943 0.81049
 H1687 H -0.06153 0.25399 0.80546
 H1688 H -0.08811 0.27636 0.82030
 H1689 H -0.07878 0.31670 0.77633
 H1690 H -0.05184 0.29527 0.76152
 C1691 C -0.07960 0.80812 0.30969
 C1692 C -0.08925 0.79598 0.29278
 C1693 C -0.07595 0.78493 0.28187
 C1694 C -0.05376 0.78763 0.28814
 C1695 C -0.05048 0.81025 0.28818
 C1696 C -0.06376 0.82086 0.29941
 C1697 C -0.06758 0.79260 0.32190
 C1698 C -0.05446 0.78159 0.31055
 H1699 H -0.10534 0.79420 0.29120
 H1700 H -0.08133 0.77304 0.27230
 H1701 H -0.03840 0.81737 0.28011
 H1702 H -0.06282 0.83691 0.30103
 H1703 H -0.07004 0.78962 0.33773
 H1704 H -0.04636 0.76887 0.31671
 C1705 C 0.57795 0.69302 0.31129
 C1706 C 0.55650 0.68751 0.31715
 C1707 C 0.54203 0.69829 0.30735
 C1708 C 0.55028 0.71426 0.29288
 C1709 C 0.56480 0.72648 0.30582
 C1710 C 0.57926 0.71552 0.31519
 C1711 C 0.57830 0.69094 0.28823
 C1712 C 0.56369 0.70168 0.27872
 H1713 H 0.55297 0.67507 0.32686
 H1714 H 0.52643 0.69416 0.30834
 H1715 H 0.56381 0.74257 0.30737
 H1716 H 0.59064 0.72235 0.32456
 H1717 H 0.58875 0.68154 0.27998
 H1718 H 0.56159 0.70096 0.26253
 C1719 C 0.57978 0.18650 0.81773
 C1720 C 0.55889 0.17753 0.82026
 C1721 C 0.54414 0.18740 0.80990
 C1722 C 0.55151 0.20574 0.79808
 C1723 C 0.56252 0.21840 0.81380
 C1724 C 0.57727 0.20849 0.82394
 C1725 C 0.58298 0.18708 0.79487
 C1726 C 0.56809 0.19665 0.78464
 H1727 H 0.55611 0.16396 0.82859
 H1728 H 0.52906 0.18162 0.80911
 H1729 H 0.55904 0.23400 0.81661
 H1730 H 0.58641 0.21585 0.83517
 H1731 H 0.59553 0.18000 0.78722
 H1732 H 0.56790 0.19729 0.76832
 C1733 C 1.07094 0.67994 0.81677
 C1734 C 1.07599 0.70215 0.81526
 C1735 C 1.06199 0.71319 0.80521
 C1736 C 1.04440 0.70101 0.79665
 C1737 C 1.05416 0.68403 0.78449
 C1738 C 1.06795 0.67310 0.79486
 C1739 C 1.04991 0.67975 0.82605
 C1740 C 1.03611 0.69092 0.81576
 H1741 H 1.08897 0.70882 0.82233
 H1742 H 1.06296 0.72928 0.80417
 H1743 H 1.05051 0.68093 0.76887
 H1744 H 1.07598 0.66082 0.78784
 H1745 H 1.04642 0.67237 0.84010
 H1746 H 1.02109 0.69336 0.82154
 C1747 C 1.07858 0.19117 0.30993
 C1748 C 1.07717 0.18747 0.28711
 C1749 C 1.06265 0.19852 0.27783
 C1750 C 1.05116 0.21292 0.29191
 C1751 C 1.04291 0.19859 0.30804
 C1752 C 1.05730 0.18756 0.31764
 C1753 C 1.08166 0.21368 0.31206
 C1754 C 1.06732 0.22494 0.30290
 H1755 H 1.08629 0.17678 0.27888
 H1756 H 1.05932 0.19684 0.26192
 H1757 H 1.02719 0.19536 0.31019
 H1758 H 1.05365 0.17597 0.32834
 H1759 H 1.09409 0.22029 0.32015
 H1760 H 1.06749 0.24111 0.30334
 C1761 C 0.57573 0.30149 0.70139
 C1762 C 0.58189 0.27948 0.70372
 C1763 C 0.56805 0.26827 0.71338
 C1764 C 0.54949 0.28015 0.72079
 C1765 C 0.55785 0.29771 0.73289
 C1766 C 0.57145 0.30879 0.72290
 C1767 C 0.55514 0.30078 0.69108
 C1768 C 0.54158 0.28936 0.70091
 H1769 H 0.59539 0.27302 0.69722
 H1770 H 0.56966 0.25221 0.71458
 H1771 H 0.55339 0.30113 0.74822
 H1772 H 0.57844 0.32151 0.72995
 H1773 H 0.55194 0.30746 0.67655
 H1774 H 0.52719 0.28592 0.69419
 C1775 C 0.57899 0.81270 0.20100
 C1776 C 0.55756 0.81822 0.19449
 C1777 C 0.54314 0.80770 0.20412
 C1778 C 0.55137 0.79279 0.21995
 C1779 C 0.56577 0.77973 0.20726
 C1780 C 0.58041 0.79005 0.19779
 C1781 C 0.57925 0.81549 0.22397
 C1782 C 0.56488 0.80522 0.23373
 H1783 H 0.55409 0.82846 0.18232
 H1784 H 0.52761 0.80863 0.19933
 H1785 H 0.56416 0.76378 0.20528
 H1786 H 0.59141 0.78279 0.18816
 H1787 H 0.58997 0.82446 0.23212
 H1788 H 0.56334 0.80571 0.24998
 C1789 C 1.08180 0.30515 0.19527
 C1790 C 1.06091 0.31419 0.19143
 C1791 C 1.04608 0.30563 0.20239
 C1792 C 1.05354 0.28903 0.21683
 C1793 C 1.06425 0.27446 0.20234
 C1794 C 1.07915 0.28272 0.19137
 C1795 C 1.08502 0.30695 0.21806
 C1796 C 1.07029 0.29874 0.22923
 H1797 H 1.05779 0.32516 0.17982
 H1798 H 1.03049 0.30897 0.19913
 H1799 H 1.05999 0.25902 0.20037
 H1800 H 1.08747 0.27407 0.18036
 H1801 H 1.09781 0.31424 0.22487
 H1802 H 1.07049 0.29913 0.24556
 C1803 C 1.07455 0.79377 0.70015
 C1804 C 1.07230 0.77122 0.69683
 C1805 C 1.05751 0.76299 0.70798
 C1806 C 1.04651 0.77773 0.72208
 C1807 C 1.06307 0.78800 0.73427
 C1808 C 1.07772 0.79613 0.72292
 C1809 C 1.05354 0.80241 0.69609
 C1810 C 1.03883 0.79388 0.70724
 H1811 H 1.08112 0.76239 0.68636
 H1812 H 1.05367 0.74737 0.70656
 H1813 H 1.06324 0.78875 0.75059
 H1814 H 1.09041 0.80367 0.72961
 H1815 H 1.05027 0.81312 0.68428
 H1816 H 1.02318 0.79699 0.70399
 C1817 C 0.41503 0.69423 0.68951
 C1818 C 0.43001 0.67971 0.69927
 C1819 C 0.44457 0.68868 0.71017
 C1820 C 0.44327 0.71154 0.71044
 C1821 C 0.44235 0.71784 0.68810
 C1822 C 0.42793 0.70849 0.67706
 C1823 C 0.40708 0.70724 0.70677
 C1824 C 0.42165 0.71664 0.71735
 H1825 H 0.42928 0.66364 0.69767
 H1826 H 0.45619 0.68020 0.71792
 H1827 H 0.45147 0.72953 0.68175
 H1828 H 0.42535 0.71188 0.66132
 H1829 H 0.39129 0.71070 0.70892
 H1830 H 0.41772 0.72878 0.72743
 C1831 C 0.42560 0.19663 0.19745
 C1832 C 0.42591 0.19360 0.22037
 C1833 C 0.44064 0.20360 0.22999
 C1834 C 0.45387 0.21607 0.21615
 C1835 C 0.46158 0.20127 0.19994
 C1836 C 0.44680 0.19098 0.19042
 C1837 C 0.42429 0.21932 0.19464
 C1838 C 0.43926 0.22939 0.20397
 H1839 H 0.41526 0.18473 0.22862
 H1840 H 0.44259 0.20291 0.24620
 H1841 H 0.47698 0.20022 0.19488
 H1842 H 0.44985 0.18084 0.17802
 H1843 H 0.41306 0.22680 0.18542
 H1844 H 0.44093 0.24537 0.20231
 C1845 C -0.08432 0.70375 0.18810
 C1846 C -0.07577 0.72209 0.17738
 C1847 C -0.06072 0.73113 0.18765
 C1848 C -0.05532 0.72112 0.20774
 C1849 C -0.07527 0.72012 0.21938
 C1850 C -0.09037 0.71126 0.20905
 C1851 C -0.06605 0.69013 0.19187
 C1852 C -0.05104 0.69907 0.20234
 H1853 H -0.08069 0.72731 0.16273
 H1854 H -0.05306 0.74406 0.18185
 H1855 H -0.07723 0.72529 0.23475
 H1856 H -0.10512 0.70918 0.21551
 H1857 H -0.06521 0.67463 0.18723
 H1858 H -0.03760 0.69096 0.20683
 C1859 C -0.07317 0.18999 0.69341
 C1860 C -0.05201 0.18208 0.68880
 C1861 C -0.03736 0.19054 0.70024
 C1862 C -0.04523 0.20586 0.71589
 C1863 C -0.05678 0.22087 0.70250
 C1864 C -0.07156 0.21270 0.69113
 C1865 C -0.07595 0.18666 0.71607
 C1866 C -0.06137 0.19471 0.72768
 H1867 H -0.04863 0.17201 0.67643
 H1868 H -0.02169 0.18808 0.69667
 H1869 H -0.05331 0.23661 0.70172
 H1870 H -0.08082 0.22165 0.68111
 H1871 H -0.08842 0.17870 0.72255
 H1872 H -0.06136 0.19340 0.74396
 C1873 C 0.30842 0.41367 0.31279
 C1874 C 0.31368 0.43497 0.31904
 C1875 C 0.30404 0.44928 0.30807
 C1876 C 0.29054 0.44112 0.29100
 C1877 C 0.30402 0.42669 0.27903
 C1878 C 0.31316 0.41241 0.29027
 C1879 C 0.28537 0.41323 0.31396
 C1880 C 0.27610 0.42779 0.30292
 H1881 H 0.32255 0.43849 0.33227
 H1882 H 0.30424 0.46474 0.31285
 H1883 H 0.30609 0.42761 0.26286
 H1884 H 0.32292 0.40114 0.28364
 H1885 H 0.27698 0.40317 0.32335
 H1886 H 0.26000 0.43017 0.30340
 C1887 C 0.30722 -0.09290 0.80245
 C1888 C 0.31207 -0.07180 0.80975
 C1889 C 0.30262 -0.05711 0.79908
 C1890 C 0.28824 -0.06473 0.78247
 C1891 C 0.30263 -0.07760 0.76955
 C1892 C 0.31216 -0.09255 0.77980
 C1893 C 0.28427 -0.09423 0.80323
 C1894 C 0.27454 -0.07955 0.79312
 H1895 H 0.32375 -0.06860 0.82066
 H1896 H 0.30757 -0.04185 0.80044
 H1897 H 0.30560 -0.07474 0.75377
 H1898 H 0.32271 -0.10258 0.77246
 H1899 H 0.27620 -0.10597 0.81079
 H1900 H 0.25829 -0.07874 0.79242
 C1901 C 0.81462 0.41934 0.79605
 C1902 C 0.82479 0.42702 0.77680
 C1903 C 0.81390 0.44125 0.76687
 C1904 C 0.79387 0.44669 0.77694
 C1905 C 0.78296 0.42671 0.77937
 C1906 C 0.79387 0.41243 0.78900
 C1907 C 0.81036 0.43812 0.80864
 C1908 C 0.79940 0.45227 0.79880
 H1909 H 0.83919 0.42184 0.77125
 H1910 H 0.81906 0.44803 0.75304
 H1911 H 0.76765 0.42410 0.77457
 H1912 H 0.78794 0.39772 0.79188
 H1913 H 0.81512 0.43995 0.82417
 H1914 H 0.79464 0.46596 0.80619
 C1915 C 0.81024 -0.07546 0.30354
 C1916 C 0.82121 -0.06786 0.28470
 C1917 C 0.81115 -0.05318 0.27466
 C1918 C 0.79104 -0.04713 0.28420
 C1919 C 0.77934 -0.06675 0.28602
 C1920 C 0.78943 -0.08151 0.29592
 C1921 C 0.80635 -0.05666 0.31624
 C1922 C 0.79609 -0.04204 0.30631
 H1923 H 0.83582 -0.07306 0.27974
 H1924 H 0.81710 -0.04624 0.26126
 H1925 H 0.76414 -0.06874 0.28059
 H1926 H 0.78290 -0.09601 0.29857
 H1927 H 0.81075 -0.05513 0.33191
 H1928 H 0.79156 -0.02830 0.31373
 C1929 C 0.30142 0.58292 0.69380
 C1930 C 0.31042 0.57730 0.71434
 C1931 C 0.30069 0.56240 0.72379
 C1932 C 0.28270 0.55414 0.71213
 C1933 C 0.26935 0.57244 0.70707
 C1934 C 0.27922 0.58756 0.69796
 C1935 C 0.30111 0.56333 0.68181
 C1936 C 0.29099 0.54846 0.69112
 H1937 H 0.32354 0.58407 0.72097
 H1938 H 0.30551 0.55675 0.73834
 H1939 H 0.25325 0.57302 0.70932
 H1940 H 0.27161 0.60107 0.69300
 H1941 H 0.30710 0.56171 0.66672
 H1942 H 0.28795 0.53449 0.68352
 C1943 C 0.31604 1.08075 0.19690
 C1944 C 0.29352 1.08473 0.19911
 C1945 C 0.28343 1.06962 0.20773
 C1946 C 0.29654 1.05159 0.21373
 C1947 C 0.30801 1.04567 0.19434
 C1948 C 0.31778 1.06098 0.18541
 C1949 C 0.32344 1.07558 0.21827
 C1950 C 0.31351 1.06013 0.22684
 H1951 H 0.28608 1.09836 0.19425
 H1952 H 0.26735 1.07040 0.21012
 H1953 H 0.31116 1.03047 0.18969
 H1954 H 0.32781 1.05865 0.17277
 H1955 H 0.33649 1.08203 0.22537
 H1956 H 0.31867 1.05332 0.24074
 C1957 C 0.80302 0.58929 0.18654
 C1958 C 0.81740 0.57397 0.19594
 C1959 C 0.80820 0.55964 0.20675
 C1960 C 0.78521 0.56143 0.20728
 C1961 C 0.78075 0.58299 0.21454
 C1962 C 0.79043 0.59734 0.20406
 C1963 C 0.78814 0.57691 0.17409
 C1964 C 0.77856 0.56271 0.18502
 H1965 H 0.83356 0.57432 0.19421
 H1966 H 0.81659 0.54786 0.21428
 H1967 H 0.76853 0.58721 0.22442
 H1968 H 0.78723 0.61308 0.20634
 H1969 H 0.78452 0.57968 0.15843
 H1970 H 0.76649 0.55399 0.17867
 C1971 C 0.80895 1.08566 0.69079
 C1972 C 0.82236 1.07009 0.70125
 C1973 C 0.81209 1.05601 0.71135
 C1974 C 0.78917 1.05825 0.71023
 C1975 C 0.78465 1.07989 0.71720
 C1976 C 0.79531 1.09403 0.70738
 C1977 C 0.79478 1.07354 0.67736
 C1978 C 0.78409 1.05966 0.68757
 H1979 H 0.83858 1.06977 0.70057
 H1980 H 0.81968 1.04401 0.71937
 H1981 H 0.77197 1.08433 0.72638
 H1982 H 0.79240 1.10984 0.70953
 H1983 H 0.79236 1.07651 0.66149
 H1984 H 0.77224 1.05125 0.68039
 C1985 C 0.69845 0.58481 0.30683
 C1986 C 0.69967 0.58883 0.28422
 C1987 C 0.70913 0.57424 0.27363
 C1988 C 0.71680 0.55664 0.28637
 C1989 C 0.72965 0.56598 0.30315
 C1990 C 0.72027 0.58091 0.31357
 C1991 C 0.68857 0.56440 0.30863
 C1992 C 0.69829 0.54962 0.29834
 H1993 H 0.69356 0.60212 0.27709
 H1994 H 0.71099 0.57511 0.25743
 H1995 H 0.74413 0.56004 0.30782
 H1996 H 0.72721 0.58775 0.32659
 H1997 H 0.67646 0.56135 0.31901
 H1998 H 0.69483 0.53419 0.30135
 C1999 C 0.69936 1.08013 0.80888
 C2000 C 0.72093 1.07493 0.81568
 C2001 C 0.72996 1.06048 0.80433
 C2002 C 0.71709 1.05280 0.78672
 C2003 C 0.69811 1.04563 0.79784
 C2004 C 0.68875 1.05997 0.80906
 C2005 C 0.70112 1.08565 0.78661
 C2006 C 0.71026 1.07150 0.77516
 H2007 H 0.72788 1.08047 0.82933
 H2008 H 0.74423 1.05381 0.80866
 H2009 H 0.69400 1.03018 0.79961
 H2010 H 0.67636 1.05658 0.81899
 H2011 H 0.69558 1.09958 0.78031
 H2012 H 0.71242 1.07340 0.75910
 C2013 C 0.19028 0.57440 0.81202
 C2014 C 0.21322 0.57378 0.81471
 C2015 C 0.22258 0.55976 0.80311
 C2016 C 0.20845 0.54798 0.78917
 C2017 C 0.19362 0.53908 0.80454
 C2018 C 0.18389 0.55292 0.81610
 C2019 C 0.18688 0.57749 0.78943
 C2020 C 0.19617 0.56375 0.77762
 H2021 H 0.22143 0.58256 0.82558
 H2022 H 0.23853 0.55667 0.80446
 H2023 H 0.19269 0.52338 0.80813
 H2024 H 0.17419 0.54879 0.82845
 H2025 H 0.17780 0.58952 0.78320
 H2026 H 0.19491 0.56405 0.76133
 C2027 C 0.19749 1.08367 0.30060
 C2028 C 0.20581 1.06728 0.31434
 C2029 C 0.21653 1.05296 0.30458
 C2030 C 0.21812 1.05592 0.28171
 C2031 C 0.19636 1.05858 0.27414
 C2032 C 0.18546 1.07267 0.28426
 C2033 C 0.21570 1.09160 0.28928
 C2034 C 0.22621 1.07731 0.27908
 H2035 H 0.20347 1.06696 0.33049
 H2036 H 0.22336 1.04046 0.31248
 H2037 H 0.19043 1.05099 0.26100
 H2038 H 0.17028 1.07656 0.27978
 H2039 H 0.21854 1.10737 0.28728
 H2040 H 0.23675 1.08170 0.26761
 C2041 C 0.68823 0.41537 0.69867
 C2042 C 0.70539 0.40735 0.71183
 C2043 C 0.71652 0.42181 0.72064
 C2044 C 0.71017 0.44332 0.71486
 C2045 C 0.70960 0.44349 0.69176
 C2046 C 0.69816 0.42911 0.68337
 C2047 C 0.67643 0.42943 0.71276
 C2048 C 0.68798 0.44374 0.72152
 H2049 H 0.70716 0.39175 0.71579
 H2050 H 0.72672 0.41805 0.73282
 H2051 H 0.71754 0.45424 0.68269
 H2052 H 0.69630 0.42768 0.66720
 H2053 H 0.66073 0.42775 0.71645
 H2054 H 0.68207 0.45377 0.73294
 C2055 C 0.68866 -0.07185 0.19730
 C2056 C 0.70585 -0.08156 0.20922
 C2057 C 0.71702 -0.06839 0.21990
 C2058 C 0.71070 -0.04629 0.21707
 C2059 C 0.71001 -0.04312 0.19416
 C2060 C 0.69854 -0.05627 0.18393
 C2061 C 0.67697 -0.05971 0.21316
 C2062 C 0.68858 -0.04677 0.22380
 H2063 H 0.70744 -0.09755 0.21123
 H2064 H 0.72676 -0.07383 0.23180
 H2065 H 0.71785 -0.03122 0.18659
 H2066 H 0.69649 -0.05540 0.16775
 H2067 H 0.66132 -0.06206 0.21671
 H2068 H 0.68285 -0.03877 0.23682
 C2069 C 0.19593 0.41473 0.19252
 C2070 C 0.19671 0.43497 0.18189
 C2071 C 0.20790 0.44876 0.19180
 C2072 C 0.21680 0.44143 0.21206
 C2073 C 0.19897 0.43323 0.22382
 C2074 C 0.18816 0.41943 0.21378
 C2075 C 0.21806 0.40884 0.19551
 C2076 C 0.22905 0.42292 0.20525
 H2077 H 0.19022 0.43779 0.16715
 H2078 H 0.21130 0.46301 0.18503
 H2079 H 0.19523 0.43792 0.23901
 H2080 H 0.17535 0.41248 0.22071
 H2081 H 0.22480 0.39535 0.18938
 H2082 H 0.24519 0.42149 0.20687
 C2083 C 0.18990 -0.09549 0.69027
 C2084 C 0.17835 -0.07588 0.69367
 C2085 C 0.18917 -0.06170 0.70339
 C2086 C 0.21103 -0.06800 0.70830
 C2087 C 0.20781 -0.08697 0.72098
 C2088 C 0.19725 -0.10145 0.71139
 C2089 C 0.20896 -0.08966 0.67893
 C2090 C 0.21988 -0.07544 0.68831
 H2091 H 0.16263 -0.07375 0.68989
 H2092 H 0.18235 -0.04774 0.70825
 H2093 H 0.21211 -0.08843 0.73667
 H2094 H 0.19331 -0.11527 0.71874
 H2095 H 0.21392 -0.09637 0.66493
 H2096 H 0.23386 -0.07008 0.68216
 C2097 C 0.31533 0.29721 0.42498
 C2098 C 0.29558 0.28830 0.41748
 C2099 C 0.28522 0.27855 0.43189
 C2100 C 0.29575 0.27791 0.45262
 C2101 C 0.31679 0.26935 0.44833
 C2102 C 0.32705 0.27943 0.43395
 C2103 C 0.30935 0.31010 0.44313
 C2104 C 0.29903 0.30013 0.45746
 H2105 H 0.28987 0.29004 0.40227
 H2106 H 0.27052 0.27249 0.42885
 H2107 H 0.32298 0.25631 0.45584
 H2108 H 0.34194 0.27482 0.42922
 H2109 H 0.31258 0.32587 0.44440
 H2110 H 0.29328 0.30757 0.47080
 C2111 C 0.30045 0.80208 -0.07615
 C2112 C 0.27792 0.80731 -0.07554
 C2113 C 0.26785 0.79807 -0.06051
 C2114 C 0.28088 0.78380 -0.04769
 C2115 C 0.29134 0.76982 -0.06281
 C2116 C 0.30132 0.77927 -0.07766
 C2117 C 0.30799 0.80692 -0.05490
 C2118 C 0.29761 0.79773 -0.04001
 H2119 H 0.27046 0.81772 -0.08559
 H2120 H 0.25208 0.80104 -0.05768
 H2121 H 0.29081 0.75369 -0.06191
 H2122 H 0.30914 0.77116 -0.08947
 H2123 H 0.31928 0.81802 -0.05175
 H2124 H 0.29976 0.80197 -0.02441
 C2125 C 0.81147 0.31383 -0.08352
 C2126 C 0.81786 0.31993 -0.06219
 C2127 C 0.80827 0.30984 -0.04731
 C2128 C 0.79264 0.29475 -0.05507
 C2129 C 0.77888 0.30688 -0.06909
 C2130 C 0.78856 0.31671 -0.08388
 C2131 C 0.81481 0.29116 -0.08406
 C2132 C 0.80540 0.28128 -0.06901
 H2133 H 0.82987 0.33026 -0.05906
 H2134 H 0.81292 0.31124 -0.03173
 H2135 H 0.76270 0.30765 -0.06747
 H2136 H 0.78035 0.32561 -0.09476
 H2137 H 0.82452 0.28359 -0.09477
 H2138 H 0.80745 0.26538 -0.06678
 C2139 C 0.80203 0.81594 0.42036
 C2140 C 0.80849 0.82200 0.44169
 C2141 C 0.79763 0.81330 0.45659
 C2142 C 0.78073 0.79961 0.44883
 C2143 C 0.76856 0.81274 0.43418
 C2144 C 0.77957 0.82104 0.41929
 C2145 C 0.80305 0.79303 0.42050
 C2146 C 0.79237 0.78464 0.43552
 H2147 H 0.82146 0.83112 0.44483
 H2148 H 0.80217 0.81462 0.47220
 H2149 H 0.75252 0.81529 0.43547
 H2150 H 0.77284 0.83052 0.40785
 H2151 H 0.81164 0.78397 0.41004
 H2152 H 0.79247 0.76864 0.43792
 C2153 C 0.68487 0.30352 0.58418
 C2154 C 0.70401 0.29265 0.59114
 C2155 C 0.71484 0.28443 0.57592
 C2156 C 0.70532 0.28716 0.55484
 C2157 C 0.68386 0.27932 0.55691
 C2158 C 0.67316 0.28785 0.57216
 C2159 C 0.69207 0.31845 0.56840
 C2160 C 0.70295 0.31000 0.55328
 H2161 H 0.70918 0.29231 0.60664
 H2162 H 0.72946 0.27772 0.57867
 H2163 H 0.67766 0.26793 0.54717
 H2164 H 0.65787 0.28363 0.57532
 H2165 H 0.68944 0.33441 0.56941
 H2166 H 0.70985 0.31892 0.54166
 C2167 C 0.68234 0.82023 1.07680
 C2168 C 0.67730 0.82775 1.05557
 C2169 C 0.68713 0.81769 1.04059
 C2170 C 0.70173 0.80124 1.04822
 C2171 C 0.71526 0.81183 1.06352
 C2172 C 0.70526 0.82146 1.07844
 C2173 C 0.67806 0.79777 1.07590
 C2174 C 0.68779 0.78803 1.06079
 H2175 H 0.66578 0.83889 1.05247
 H2176 H 0.68307 0.81997 1.02496
 H2177 H 0.73151 0.81154 1.06276
 H2178 H 0.71314 0.82907 1.09046
 H2179 H 0.66793 0.79011 1.08589
 H2180 H 0.68548 0.77231 1.05780
 C2181 C 0.19546 0.30182 1.07945
 C2182 C 0.19046 0.30977 1.05838
 C2183 C 0.20090 0.30053 1.04334
 C2184 C 0.21620 0.28456 1.05073
 C2185 C 0.22889 0.29520 1.06672
 C2186 C 0.21817 0.30401 1.08165
 C2187 C 0.19204 0.27923 1.07769
 C2188 C 0.20251 0.27037 1.06248
 H2189 H 0.17823 0.32016 1.05536
 H2190 H 0.19642 0.30257 1.02779
 H2191 H 0.24514 0.29575 1.06628
 H2192 H 0.22529 0.31195 1.09394
 H2193 H 0.18151 0.27094 1.08666
 H2194 H 0.20052 0.25481 1.05855
 C2195 C 0.18062 0.79475 0.57613
 C2196 C 0.17513 0.80343 0.55546
 C2197 C 0.18571 0.79517 0.53993
 C2198 C 0.20162 0.77943 0.54646
 C2199 C 0.21409 0.78980 0.56280
 C2200 C 0.20327 0.79757 0.57819
 C2201 C 0.17790 0.77216 0.57341
 C2202 C 0.18849 0.76431 0.55770
 H2203 H 0.16253 0.81352 0.55301
 H2204 H 0.18104 0.79771 0.52450
 H2205 H 0.23030 0.79092 0.56225
 H2206 H 0.21028 0.80518 0.59076
 H2207 H 0.16763 0.76322 0.58204
 H2208 H 0.18690 0.74889 0.55305
 C2209 C 0.30183 0.68925 0.57226
 C2210 C 0.29602 0.71061 0.57840
 C2211 C 0.28618 0.72099 0.56379
 C2212 C 0.28202 0.70886 0.54446
 C2213 C 0.30347 0.70231 0.53823
 C2214 C 0.31363 0.69177 0.55264
 C2215 C 0.28207 0.67952 0.56581
 C2216 C 0.27186 0.68973 0.55146
 H2217 H 0.30041 0.71743 0.59254
 H2218 H 0.28272 0.73674 0.56545
 H2219 H 0.31058 0.70666 0.52429
 H2220 H 0.32903 0.68678 0.55069
 H2221 H 0.27658 0.66551 0.57148
 H2222 H 0.25782 0.68444 0.54525
 C2223 C 0.31389 0.19159 1.07925
 C2224 C 0.30848 0.21313 1.08513
 C2225 C 0.29876 0.22351 1.07040
 C2226 C 0.29431 0.21123 1.05122
 C2227 C 0.31563 0.20424 1.04506
 C2228 C 0.32563 0.19368 1.05955
 C2229 C 0.29389 0.18219 1.07305
 C2230 C 0.28382 0.19239 1.05857
 H2231 H 0.31306 0.22004 1.09917
 H2232 H 0.29566 0.23936 1.07185
 H2233 H 0.32279 0.20832 1.03105
 H2234 H 0.34095 0.18842 1.05760
 H2235 H 0.28794 0.16861 1.07927
 H2236 H 0.26951 0.18744 1.05270
 C2237 C 0.79740 0.70657 1.07752
 C2238 C 0.77471 0.70309 1.07843
 C2239 C 0.76419 0.71217 1.06336
 C2240 C 0.77707 0.72478 1.04908
 C2241 C 0.78912 0.73869 1.06274
 C2242 C 0.79957 0.72935 1.07752
 C2243 C 0.80331 0.69995 1.05620
 C2244 C 0.79255 0.70918 1.04134
 H2245 H 0.76763 0.69348 1.08935
 H2246 H 0.74822 0.70994 1.06132
 H2247 H 0.78930 0.75476 1.06096
 H2248 H 0.80834 0.73774 1.08826
 H2249 H 0.81389 0.68793 1.05311
 H2250 H 0.79363 0.70419 1.02585
 C2251 C 0.80818 0.20608 0.58422
 C2252 C 0.78977 0.21726 0.59244
 C2253 C 0.77891 0.22703 0.57811
 C2254 C 0.78698 0.22430 0.55643
 C2255 C 0.80861 0.23192 0.55863
 C2256 C 0.81982 0.22217 0.57283
 C2257 C 0.80006 0.19223 0.56785
 C2258 C 0.78906 0.20166 0.55349
 H2259 H 0.78680 0.21918 0.60838
 H2260 H 0.76763 0.23794 0.58250
 H2261 H 0.81415 0.24496 0.55091
 H2262 H 0.83490 0.22673 0.57660
 H2263 H 0.80279 0.17626 0.56757
 H2264 H 0.78236 0.19367 0.54099
 C2265 C 0.69263 0.69907 0.42085
 C2266 C 0.68926 0.72157 0.41817
 C2267 C 0.69779 0.73283 0.43287
 C2268 C 0.70977 0.72074 0.44866
 C2269 C 0.69370 0.70635 0.45669
 C2270 C 0.68503 0.69485 0.44219
 C2271 C 0.71551 0.69627 0.42221
 C2272 C 0.72431 0.70747 0.43664
 H2273 H 0.68007 0.72805 0.40631
 H2274 H 0.69553 0.74886 0.43363
 H2275 H 0.68838 0.70624 0.47210
 H2276 H 0.67296 0.68467 0.44546
 H2277 H 0.72429 0.68611 0.41302
 H2278 H 0.74033 0.70677 0.43949
 C2279 C 0.70110 0.19586 -0.07974
 C2280 C 0.69503 0.19110 -0.05804
 C2281 C 0.70452 0.20236 -0.04391
 C2282 C 0.71896 0.21795 -0.05275
 C2283 C 0.73330 0.20485 -0.06540
 C2284 C 0.72410 0.19361 -0.07965
 C2285 C 0.69706 0.21826 -0.08211
 C2286 C 0.70622 0.22971 -0.06804
 H2287 H 0.68538 0.17882 -0.05406
 H2288 H 0.70331 0.19882 -0.02806
 H2289 H 0.74936 0.20389 -0.06281
 H2290 H 0.73254 0.18339 -0.08909
 H2291 H 0.68761 0.22461 -0.09384
 H2292 H 0.70451 0.24581 -0.06774
 C2293 C 0.18674 0.68942 -0.07422
 C2294 C 0.18214 0.71186 -0.07533
 C2295 C 0.19107 0.72270 -0.06052
 C2296 C 0.20462 0.71033 -0.04628
 C2297 C 0.18983 0.69470 -0.03814
 C2298 C 0.18078 0.68363 -0.05274
 C2299 C 0.20974 0.68776 -0.07451
 C2300 C 0.21892 0.69852 -0.05999
 H2301 H 0.17191 0.71854 -0.08619
 H2302 H 0.18813 0.73853 -0.05863
 H2303 H 0.18524 0.69364 -0.02255
 H2304 H 0.16930 0.67283 -0.04936
 H2305 H 0.21840 0.67899 -0.08514
 H2306 H 0.23512 0.69865 -0.05837
 C2307 C 0.19540 0.19621 0.41768
 C2308 C 0.21338 0.20790 0.40987
 C2309 C 0.22366 0.21767 0.42453
 C2310 C 0.21559 0.21436 0.44610
 C2311 C 0.19369 0.22166 0.44379
 C2312 C 0.18301 0.21191 0.42933
 C2313 C 0.20400 0.18225 0.43377
 C2314 C 0.21446 0.19163 0.44846
 H2315 H 0.21627 0.21029 0.39400
 H2316 H 0.23422 0.22909 0.42045
 H2317 H 0.18756 0.23455 0.45165
 H2318 H 0.16782 0.21639 0.42547
 H2319 H 0.20201 0.16622 0.43364
 H2320 H 0.22142 0.18353 0.46080
 C2321 C 0.31045 0.42006 0.69761
 C2322 C 0.29018 0.41309 0.70559
 C2323 C 0.27919 0.42770 0.71468
 C2324 C 0.28956 0.44815 0.71543
 C2325 C 0.31008 0.44399 0.72519
 C2326 C 0.32101 0.42940 0.71592
 C2327 C 0.30523 0.43776 0.68389
 C2328 C 0.29408 0.45225 0.69305
 H2329 H 0.28462 0.39808 0.70359
 H2330 H 0.26411 0.42504 0.72002
 H2331 H 0.31565 0.45207 0.73818
 H2332 H 0.33594 0.42530 0.72101
 H2333 H 0.30938 0.43854 0.66814
 H2334 H 0.28851 0.46517 0.68490
 C2335 C 0.30783 0.92377 0.18362
 C2336 C 0.30702 0.92016 0.20641
 C2337 C 0.29636 0.93423 0.21667
 C2338 C 0.28664 0.95044 0.20328
 C2339 C 0.30485 0.95894 0.19193
 C2340 C 0.31574 0.94502 0.18158
 C2341 C 0.28571 0.92516 0.17701
 C2342 C 0.27476 0.93908 0.18721
 H2343 H 0.31467 0.90793 0.21398
 H2344 H 0.29537 0.93408 0.23297
 H2345 H 0.30974 0.97425 0.19295
 H2346 H 0.32932 0.94867 0.17351
 H2347 H 0.27901 0.91583 0.16554
 H2348 H 0.25895 0.94169 0.18422
 C2349 C 0.81334 0.42868 0.18661
 C2350 C 0.82287 0.44937 0.18682
 C2351 C 0.81209 0.46333 0.19725
 C2352 C 0.79219 0.45562 0.20606
 C2353 C 0.78122 0.44600 0.18825
 C2354 C 0.79210 0.43202 0.17819
 C2355 C 0.81024 0.42383 0.20897
 C2356 C 0.79972 0.43809 0.21921
 H2357 H 0.83756 0.45240 0.18064
 H2358 H 0.81818 0.47793 0.20041
 H2359 H 0.76589 0.44973 0.18407
 H2360 H 0.78577 0.42381 0.16567
 H2361 H 0.81676 0.41091 0.21641
 H2362 H 0.79787 0.43743 0.23541
 C2363 C 0.81502 0.92522 0.68770
 C2364 C 0.82552 0.94536 0.68957
 C2365 C 0.81469 0.95941 0.69985
 C2366 C 0.79382 0.95236 0.70684
 C2367 C 0.78372 0.94407 0.68786
 C2368 C 0.79460 0.93000 0.67797
 C2369 C 0.81008 0.91962 0.70952
 C2370 C 0.79953 0.93394 0.71965
 H2371 H 0.84074 0.94790 0.68458
 H2372 H 0.82118 0.97356 0.70407
 H2373 H 0.76892 0.94875 0.68278
 H2374 H 0.78874 0.92270 0.66468
 H2375 H 0.81543 0.90610 0.71680
 H2376 H 0.79647 0.93270 0.73562
 C2377 C 0.69206 0.57766 0.68969
 C2378 C 0.71366 0.58306 0.69540
 C2379 C 0.72378 0.56832 0.70528
 C2380 C 0.71117 0.54967 0.70965
 C2381 C 0.69207 0.55746 0.71995
 C2382 C 0.68216 0.57197 0.70969
 C2383 C 0.69425 0.55801 0.67799
 C2384 C 0.70449 0.54350 0.68822
 H2385 H 0.72082 0.59682 0.69104
 H2386 H 0.73963 0.56948 0.70873
 H2387 H 0.68686 0.55205 0.73437
 H2388 H 0.66868 0.57886 0.71569
 H2389 H 0.68927 0.55607 0.66255
 H2390 H 0.70861 0.52946 0.68112
 C2391 C 0.69672 0.08510 0.18909
 C2392 C 0.71957 0.08787 0.18958
 C2393 C 0.72964 0.07341 0.20004
 C2394 C 0.71599 0.05788 0.21006
 C2395 C 0.70050 0.07004 0.22209
 C2396 C 0.69058 0.08416 0.21132
 C2397 C 0.69408 0.06388 0.18100
 C2398 C 0.70440 0.04973 0.19162
 H2399 H 0.72728 0.09946 0.18143
 H2400 H 0.74590 0.07254 0.20026
 H2401 H 0.69782 0.06791 0.23804
 H2402 H 0.67975 0.09410 0.21836
 H2403 H 0.68615 0.06046 0.16714
 H2404 H 0.70569 0.03454 0.18612
 C2405 C 0.19329 0.57500 0.19990
 C2406 C 0.18156 0.56201 0.21473
 C2407 C 0.19314 0.54786 0.22407
 C2408 C 0.21524 0.54725 0.21716
 C2409 C 0.21443 0.54597 0.19409
 C2410 C 0.20303 0.56028 0.18516
 C2411 C 0.21058 0.58318 0.21257
 C2412 C 0.22171 0.56885 0.22195
 H2413 H 0.16600 0.56452 0.21875
 H2414 H 0.18741 0.53889 0.23629
 H2415 H 0.22221 0.53454 0.18543
 H2416 H 0.20105 0.56101 0.16896
 H2417 H 0.21236 0.59889 0.21594
 H2418 H 0.23178 0.57292 0.23407
 C2419 C 0.19758 0.06650 0.68348
 C2420 C 0.20856 0.07337 0.70253
 C2421 C 0.21852 0.05850 0.71233
 C2422 C 0.21704 0.03790 0.70201
 C2423 C 0.19419 0.03481 0.70051
 C2424 C 0.18414 0.04954 0.69057
 C2425 C 0.21383 0.05622 0.67058
 C2426 C 0.22398 0.04136 0.68030
 H2427 H 0.20787 0.08851 0.70830
 H2428 H 0.22585 0.06113 0.72668
 H2429 H 0.18644 0.02238 0.70724
 H2430 H 0.16799 0.04945 0.68859
 H2431 H 0.21702 0.05998 0.65508
 H2432 H 0.23582 0.03271 0.67313
 C2433 C 0.31647 0.57228 0.30021
 C2434 C 0.31343 0.55320 0.31242
 C2435 C 0.30344 0.53874 0.30228
 C2436 C 0.29763 0.54436 0.28049
 C2437 C 0.28545 0.56388 0.28322
 C2438 C 0.29535 0.57842 0.29326
 C2439 C 0.32722 0.56528 0.28091
 C2440 C 0.31736 0.55073 0.27065
 H2441 H 0.31827 0.55139 0.32793
 H2442 H 0.29957 0.52477 0.30939
 H2443 H 0.27007 0.56598 0.27823
 H2444 H 0.28852 0.59284 0.29645
 H2445 H 0.34140 0.57103 0.27574
 H2446 H 0.32312 0.54422 0.25684
 C2447 C 0.29970 0.06773 0.80311
 C2448 C 0.28903 0.07562 0.78427
 C2449 C 0.27921 0.06143 0.77364
 C2450 C 0.28154 0.04009 0.78221
 C2451 C 0.30424 0.03675 0.78477
 C2452 C 0.31364 0.05102 0.79564
 C2453 C 0.28310 0.05704 0.81482
 C2454 C 0.27338 0.04292 0.80376
 H2455 H 0.28719 0.09138 0.78100
 H2456 H 0.26819 0.06589 0.76247
 H2457 H 0.31228 0.02400 0.77856
 H2458 H 0.32962 0.05040 0.79874
 H2459 H 0.27836 0.06108 0.82988
 H2460 H 0.25995 0.03583 0.80926
 C2461 C 0.79749 0.57762 0.81240
 C2462 C 0.77461 0.57596 0.81472
 C2463 C 0.76647 0.56098 0.80361
 C2464 C 0.78166 0.54935 0.79046
 C2465 C 0.79289 0.56519 0.77843
 C2466 C 0.80095 0.57987 0.78975
 C2467 C 0.80542 0.55670 0.81758
 C2468 C 0.79689 0.54190 0.80651
 H2469 H 0.76564 0.58476 0.82509
 H2470 H 0.75078 0.55709 0.80487
 H2471 H 0.79435 0.56485 0.76217
 H2472 H 0.80918 0.59206 0.78312
 H2473 H 0.81524 0.55361 0.83027
 H2474 H 0.79895 0.52644 0.81078
 C2475 C 0.80903 0.08447 0.31016
 C2476 C 0.78659 0.08952 0.30799
 C2477 C 0.77595 0.07535 0.29798
 C2478 C 0.78879 0.05770 0.29006
 C2479 C 0.80590 0.06716 0.27820
 C2480 C 0.81639 0.08101 0.28853
 C2481 C 0.80942 0.06380 0.31995
 C2482 C 0.79856 0.04995 0.30976
 H2483 H 0.77945 0.10245 0.31485
 H2484 H 0.75973 0.07611 0.29688
 H2485 H 0.80937 0.06332 0.26271
 H2486 H 0.82859 0.08890 0.28155
 H2487 H 0.81633 0.06071 0.33443
 H2488 H 0.79582 0.03537 0.31614
 C2489 C 0.69335 0.42911 0.29998
 C2490 C 0.69062 0.45058 0.30749
 C2491 C 0.70071 0.46427 0.29648
 C2492 C 0.71251 0.45535 0.27849
 C2493 C 0.72616 0.43962 0.28874
 C2494 C 0.71615 0.42577 0.29959
 C2495 C 0.68709 0.42971 0.27766
 C2496 C 0.69703 0.44339 0.26656
 H2497 H 0.68231 0.45458 0.32096
 H2498 H 0.70128 0.47974 0.30115
 H2499 H 0.74241 0.43970 0.28805
 H2500 H 0.72387 0.41397 0.30775
 H2501 H 0.67606 0.42003 0.27088
 H2502 H 0.69426 0.44540 0.25058
 C2503 C 0.68890 0.92520 0.79189
 C2504 C 0.68399 0.92691 0.76930
 C2505 C 0.69463 0.94107 0.75957
 C2506 C 0.70939 0.95236 0.77305
 C2507 C 0.69648 0.96049 0.79063
 C2508 C 0.68568 0.94632 0.80028
 C2509 C 0.71167 0.92183 0.79281
 C2510 C 0.72233 0.93614 0.78340
 H2511 H 0.67307 0.91795 0.76143
 H2512 H 0.69265 0.94409 0.74365
 H2513 H 0.69679 0.97572 0.79611
 H2514 H 0.67652 0.94968 0.81335
 H2515 H 0.71886 0.90966 0.80091
 H2516 H 0.73860 0.93623 0.78386
 C2517 C 0.18862 0.41785 0.79943
 C2518 C 0.17514 0.42888 0.78414
 C2519 C 0.18510 0.44272 0.77302
 C2520 C 0.20743 0.44495 0.77870
 C2521 C 0.20768 0.44824 0.80159
 C2522 C 0.19791 0.43427 0.81231
 C2523 C 0.20583 0.40945 0.78664
 C2524 C 0.21530 0.42339 0.77549
 H2525 H 0.15978 0.42488 0.78081
 H2526 H 0.17830 0.44945 0.75979
 H2527 H 0.21496 0.46077 0.80881
 H2528 H 0.19681 0.43493 0.82859
 H2529 H 0.20870 0.39361 0.78461
 H2530 H 0.22521 0.41882 0.76338
 C2531 C 0.19174 0.92379 0.30064
 C2532 C 0.19238 0.94407 0.31133
 C2533 C 0.20360 0.95784 0.30161
 C2534 C 0.21266 0.95044 0.28146
 C2535 C 0.22490 0.93201 0.28840
 C2536 C 0.21390 0.91794 0.29793
 C2537 C 0.18404 0.92836 0.27933
 C2538 C 0.19489 0.94218 0.26945
 H2539 H 0.18590 0.94688 0.32604
 H2540 H 0.20712 0.97198 0.30863
 H2541 H 0.24106 0.93062 0.28700
 H2542 H 0.22064 0.90448 0.30410
 H2543 H 0.17115 0.92148 0.27237
 H2544 H 0.19114 0.94692 0.25428
 C2545 C 0.41483 0.29734 0.70720
 C2546 C 0.42675 0.30865 0.72338
 C2547 C 0.44127 0.29732 0.73247
 C2548 C 0.44335 0.27592 0.72406
 C2549 C 0.42189 0.26799 0.72741
 C2550 C 0.40717 0.27894 0.71827
 C2551 C 0.43058 0.28938 0.69245
 C2552 C 0.44529 0.27826 0.70116
 H2553 H 0.42319 0.32362 0.72849
 H2554 H 0.44959 0.30270 0.74541
 H2555 H 0.41797 0.25695 0.73853
 H2556 H 0.39139 0.27614 0.72082
 H2557 H 0.43019 0.29225 0.67638
 H2558 H 0.45740 0.27161 0.69246
 C2559 C 0.42140 0.81016 0.19386
 C2560 C 0.42348 0.78755 0.19026
 C2561 C 0.43797 0.77864 0.20157
 C2562 C 0.44892 0.79273 0.21612
 C2563 C 0.45705 0.80878 0.20164
 C2564 C 0.44260 0.81802 0.19029
 C2565 C 0.41801 0.81242 0.21656
 C2566 C 0.43236 0.80353 0.22810
 H2567 H 0.41529 0.77922 0.17902
 H2568 H 0.44188 0.76299 0.19971
 H2569 H 0.47278 0.81131 0.19873
 H2570 H 0.44616 0.82873 0.17866
 H2571 H 0.40545 0.82058 0.22306
 H2572 H 0.43205 0.80421 0.24441
 C2573 C 0.92445 0.31259 0.19513
 C2574 C 0.92536 0.28990 0.19168
 C2575 C 0.93960 0.28040 0.20282
 C2576 C 0.95144 0.29409 0.21708
 C2577 C 0.96010 0.30963 0.20237
 C2578 C 0.94594 0.31945 0.19119
 C2579 C 0.92147 0.31513 0.21786
 C2580 C 0.93556 0.30568 0.22925
 H2581 H 0.91629 0.28184 0.18093
 H2582 H 0.94260 0.26455 0.20120
 H2583 H 0.97588 0.31138 0.19916
 H2584 H 0.94984 0.32987 0.17941
 H2585 H 0.90933 0.32381 0.22449
 H2586 H 0.93549 0.30639 0.24556
 C2587 C 0.91846 0.80290 0.69993
 C2588 C 0.91850 0.78018 0.69671
 C2589 C 0.93238 0.77025 0.70799
 C2590 C 0.94473 0.78362 0.72213
 C2591 C 0.95396 0.79867 0.70726
 C2592 C 0.94020 0.80889 0.69597
 C2593 C 0.91554 0.80576 0.72264
 C2594 C 0.92925 0.79588 0.73415
 H2595 H 0.90912 0.77242 0.68600
 H2596 H 0.93479 0.75429 0.70652
 H2597 H 0.96982 0.79980 0.70405
 H2598 H 0.94453 0.81903 0.68411
 H2599 H 0.90371 0.81494 0.72916
 H2600 H 0.92915 0.79673 0.75047
 C2601 C 0.58723 0.31209 0.30522
 C2602 C 0.56603 0.31794 0.31215
 C2603 C 0.55119 0.30788 0.30247
 C2604 C 0.55888 0.29236 0.28694
 C2605 C 0.57170 0.30525 0.27287
 C2606 C 0.58673 0.31514 0.28233
 C2607 C 0.58857 0.28938 0.30805
 C2608 C 0.57382 0.27923 0.29864
 H2609 H 0.56291 0.32995 0.32270
 H2610 H 0.53558 0.31210 0.30443
 H2611 H 0.56874 0.30701 0.25689
 H2612 H 0.59672 0.32499 0.27434
 H2613 H 0.60012 0.28165 0.31656
 H2614 H 0.57287 0.26312 0.29939
 C2615 C 0.57577 0.81257 0.79676
 C2616 C 0.57932 0.79021 0.79997
 C2617 C 0.56506 0.77853 0.79172
 C2618 C 0.54834 0.78995 0.78057
 C2619 C 0.54022 0.80539 0.79600
 C2620 C 0.55460 0.81680 0.80473
 C2621 C 0.57369 0.81504 0.77381
 C2622 C 0.55912 0.80355 0.76547
 H2623 H 0.59207 0.78402 0.80811
 H2624 H 0.56564 0.76241 0.79293
 H2625 H 0.52448 0.80903 0.79805
 H2626 H 0.55095 0.82913 0.81472
 H2627 H 0.58195 0.82565 0.76492
 H2628 H 0.55497 0.80477 0.74971
 C2629 C 0.08443 0.29919 0.81316
 C2630 C 0.06277 0.30592 0.81727
 C2631 C 0.04874 0.29467 0.80775
 C2632 C 0.05758 0.27722 0.79519
 C2633 C 0.07187 0.28802 0.78075
 C2634 C 0.08609 0.29908 0.79010
 C2635 C 0.08526 0.27709 0.81914
 C2636 C 0.07126 0.26573 0.80986
 H2637 H 0.05884 0.31917 0.82585
 H2638 H 0.03305 0.29903 0.80786
 H2639 H 0.07056 0.28748 0.76447
 H2640 H 0.09706 0.30749 0.78175
 H2641 H 0.09612 0.27073 0.82955
 H2642 H 0.07010 0.24985 0.81257
 C2643 C 0.08002 0.80928 0.30254
 C2644 C 0.05930 0.81942 0.30371
 C2645 C 0.04469 0.80954 0.29347
 C2646 C 0.05186 0.78982 0.28350
 C2647 C 0.06893 0.79722 0.26986
 C2648 C 0.08380 0.80690 0.27987
 C2649 C 0.07673 0.78800 0.31027
 C2650 C 0.06219 0.77802 0.30040
 H2651 H 0.05666 0.83386 0.31067
 H2652 H 0.02990 0.81610 0.29130
 H2653 H 0.06881 0.79594 0.25358
 H2654 H 0.09645 0.81338 0.27214
 H2655 H 0.08478 0.78116 0.32266
 H2656 H 0.05814 0.76293 0.30444
 C2657 C 0.57827 0.69233 0.68769
 C2658 C 0.55909 0.68026 0.69046
 C2659 C 0.54467 0.68990 0.70138
 C2660 C 0.55034 0.71122 0.70804
 C2661 C 0.56989 0.70726 0.71998
 C2662 C 0.58457 0.69789 0.70922
 C2663 C 0.57128 0.71204 0.67813
 C2664 C 0.55681 0.72178 0.68870
 H2665 H 0.55748 0.66497 0.68539
 H2666 H 0.53111 0.68244 0.70599
 H2667 H 0.57170 0.71048 0.73589
 H2668 H 0.59889 0.69370 0.71586
 H2669 H 0.57716 0.71811 0.66429
 H2670 H 0.55048 0.73593 0.68376
 C2671 C 0.58415 0.19825 0.18981
 C2672 C 0.58736 0.19612 0.21256
 C2673 C 0.57301 0.20519 0.22388
 C2674 C 0.55662 0.21604 0.21166
 C2675 C 0.56780 0.22996 0.19726
 C2676 C 0.58232 0.22085 0.18616
 C2677 C 0.56291 0.19054 0.18594
 C2678 C 0.54846 0.19999 0.19707
 H2679 H 0.59982 0.18793 0.21925
 H2680 H 0.57321 0.20464 0.24020
 H2681 H 0.56405 0.24563 0.19536
 H2682 H 0.59074 0.22903 0.17508
 H2683 H 0.55933 0.17985 0.17424
 H2684 H 0.53274 0.19766 0.19386
 C2685 C 0.07624 0.68672 0.19442
 C2686 C 0.07942 0.68787 0.21734
 C2687 C 0.06512 0.69884 0.22711
 C2688 C 0.04935 0.70863 0.21308
 C2689 C 0.06138 0.71978 0.19711
 C2690 C 0.07536 0.70852 0.18751
 C2691 C 0.05481 0.67907 0.19203
 C2692 C 0.04082 0.69019 0.20207
 H2693 H 0.09125 0.67998 0.22537
 H2694 H 0.06459 0.69973 0.24341
 H2695 H 0.05923 0.73551 0.19385
 H2696 H 0.08521 0.71485 0.17633
 H2697 H 0.05118 0.66517 0.18456
 H2698 H 0.02554 0.68508 0.20360
 C2699 C 0.08446 0.18149 0.69824
 C2700 C 0.08476 0.17618 0.72072
 C2701 C 0.07064 0.18599 0.73176
 C2702 C 0.05737 0.20048 0.71960
 C2703 C 0.07203 0.21414 0.70842
 C2704 C 0.08639 0.20427 0.69774
 C2705 C 0.06289 0.17769 0.69130
 C2706 C 0.04874 0.18774 0.70223
 H2707 H 0.09532 0.16583 0.72760
 H2708 H 0.06911 0.18378 0.74785
 H2709 H 0.07087 0.23028 0.70841
 H2710 H 0.09762 0.21208 0.68912
 H2711 H 0.05914 0.16894 0.67809
 H2712 H 0.03315 0.18791 0.69758
 C2713 C 0.41814 0.69520 0.30672
 C2714 C 0.41721 0.71783 0.31039
 C2715 C 0.43220 0.72799 0.30153
 C2716 C 0.44698 0.71498 0.28949
 C2717 C 0.45431 0.69889 0.30457
 C2718 C 0.43921 0.68880 0.31372
 C2719 C 0.41877 0.69281 0.28375
 C2720 C 0.43403 0.70270 0.27485
 H2721 H 0.40601 0.72547 0.31938
 H2722 H 0.43358 0.74402 0.30310
 H2723 H 0.46981 0.69425 0.30651
 H2724 H 0.44206 0.67642 0.32385
 H2725 H 0.40869 0.68334 0.27530
 H2726 H 0.43706 0.70134 0.25886
 C2727 C 0.41846 0.17519 0.80257
 C2728 C 0.41505 0.19772 0.80098
 C2729 C 0.43061 0.20764 0.79292
 C2730 C 0.44852 0.19439 0.78672
 C2731 C 0.45397 0.18229 0.80582
 C2732 C 0.43820 0.17267 0.81425
 C2733 C 0.42374 0.16836 0.78107
 C2734 C 0.43963 0.17812 0.77300
 H2735 H 0.40145 0.20532 0.80585
 H2736 H 0.43023 0.22371 0.79107
 H2737 H 0.46912 0.17869 0.81057
 H2738 H 0.44015 0.16228 0.82662
 H2739 H 0.41687 0.15588 0.77345
 H2740 H 0.44640 0.17340 0.75892
 C2741 C 0.91235 0.68627 0.81465
 C2742 C 0.91523 0.67961 0.79268
 C2743 C 0.92973 0.68961 0.78277
 C2744 C 0.94026 0.70556 0.79544
 C2745 C 0.92327 0.71896 0.80388
 C2746 C 0.90853 0.70886 0.81345
 C2747 C 0.93317 0.68429 0.82433
 C2748 C 0.94768 0.69455 0.81454
 H2749 H 0.90646 0.66827 0.78524
 H2750 H 0.93331 0.68660 0.76713
 H2751 H 0.92324 0.73511 0.80320
 H2752 H 0.89585 0.71642 0.82041
 H2753 H 0.93603 0.67649 0.83835
 H2754 H 0.96267 0.69581 0.82074
 C2755 C 0.91981 0.19863 0.31053
 C2756 C 0.91976 0.22134 0.31375
 C2757 C 0.93458 0.23087 0.30394
 C2758 C 0.94832 0.21720 0.29147
 C2759 C 0.95590 0.20114 0.30646
 C2760 C 0.94099 0.19168 0.31654
 C2761 C 0.91916 0.19586 0.28759
 C2762 C 0.93424 0.20514 0.27771
 H2763 H 0.90903 0.22956 0.32283
 H2764 H 0.93637 0.24690 0.30493
 H2765 H 0.97136 0.19614 0.30775
 H2766 H 0.94398 0.17941 0.32676
 H2767 H 0.90834 0.18661 0.27985
 H2768 H 0.93638 0.20347 0.26161
 C2769 C 0.30470 0.30242 0.58882
 C2770 C 0.31040 0.28036 0.58595
 C2771 C 0.30095 0.27143 0.57038
 C2772 C 0.28638 0.28497 0.55867
 C2773 C 0.27220 0.29423 0.57459
 C2774 C 0.28175 0.30285 0.59050
 C2775 C 0.30878 0.31208 0.56832
 C2776 C 0.29888 0.30332 0.55267
 H2777 H 0.32141 0.27231 0.59487
 H2778 H 0.30388 0.25597 0.56641
 H2779 H 0.25602 0.29494 0.57294
 H2780 H 0.27367 0.31045 0.60247
 H2781 H 0.31723 0.32566 0.56651
 H2782 H 0.29841 0.31019 0.53792
 C2783 C 0.30459 0.80370 0.08182
 C2784 C 0.30744 0.78094 0.08241
 C2785 C 0.29633 0.77104 0.06860
 C2786 C 0.28313 0.78449 0.05528
 C2787 C 0.27075 0.79751 0.06995
 C2788 C 0.28191 0.80719 0.08400
 C2789 C 0.30907 0.80952 0.06000
 C2790 C 0.29772 0.79976 0.04613
 H2791 H 0.31740 0.77303 0.09261
 H2792 H 0.29695 0.75493 0.06716
 H2793 H 0.25462 0.79954 0.06891
 H2794 H 0.27523 0.81714 0.09507
 H2795 H 0.31929 0.82127 0.05587
 H2796 H 0.29797 0.80394 0.03039
 C2797 C 0.81467 0.31427 0.07635
 C2798 C 0.81917 0.32158 0.05498
 C2799 C 0.80856 0.31202 0.04032
 C2800 C 0.79384 0.29626 0.04839
 C2801 C 0.80790 0.28238 0.06051
 C2802 C 0.81845 0.29162 0.07524
 C2803 C 0.79193 0.31672 0.07866
 C2804 C 0.78113 0.30752 0.06408
 H2805 H 0.83088 0.33211 0.05155
 H2806 H 0.81220 0.31408 0.02459
 H2807 H 0.81001 0.26666 0.05718
 H2808 H 0.82935 0.28349 0.08422
 H2809 H 0.78487 0.32522 0.09068
 H2810 H 0.76488 0.30826 0.06365
 C2811 C 0.80898 0.81202 0.57933
 C2812 C 0.78665 0.81694 0.58213
 C2813 C 0.77456 0.80898 0.56783
 C2814 C 0.78562 0.79642 0.55190
 C2815 C 0.80183 0.81043 0.54345
 C2816 C 0.81378 0.81875 0.55783
 C2817 C 0.81021 0.78914 0.57825
 C2818 C 0.79834 0.78111 0.56379
 H2819 H 0.78083 0.82613 0.59429
 H2820 H 0.75845 0.81146 0.56776
 H2821 H 0.80515 0.81221 0.52761
 H2822 H 0.82647 0.82798 0.55410
 H2823 H 0.82037 0.77994 0.58705
 H2824 H 0.79864 0.76527 0.56048
 C2825 C 0.29554 0.68936 0.40846
 C2826 C 0.28177 0.70611 0.40068
 C2827 C 0.27231 0.71658 0.41550
 C2828 C 0.27800 0.70997 0.43712
 C2829 C 0.27233 0.68771 0.43653
 C2830 C 0.28181 0.67685 0.42188
 C2831 C 0.31007 0.69949 0.42303
 C2832 C 0.30100 0.71019 0.43779
 H2833 H 0.27803 0.70810 0.38490
 H2834 H 0.25992 0.72654 0.41185
 H2835 H 0.26085 0.68130 0.44597
 H2836 H 0.27856 0.66127 0.41929
 H2837 H 0.32626 0.69829 0.42184
 H2838 H 0.30950 0.71817 0.44913
 C2839 C 0.30528 0.18434 0.91688
 C2840 C 0.29166 0.20057 0.90786
 C2841 C 0.28231 0.21220 0.92187
 C2842 C 0.28811 0.20729 0.94393
 C2843 C 0.28221 0.18512 0.94512
 C2844 C 0.29156 0.17308 0.93137
 C2845 C 0.32003 0.19539 0.93052
 C2846 C 0.31113 0.20734 0.94439
 H2847 H 0.28775 0.20126 0.89201
 H2848 H 0.26970 0.22157 0.91750
 H2849 H 0.27086 0.17952 0.95524
 H2850 H 0.28852 0.15727 0.93022
 H2851 H 0.33620 0.19374 0.92964
 H2852 H 0.31979 0.21598 0.95509
 C2853 C 0.79370 0.69976 0.91921
 C2854 C 0.77070 0.69820 0.91918
 C2855 C 0.76156 0.70976 0.93336
 C2856 C 0.77600 0.72248 0.94603
 C2857 C 0.79041 0.70652 0.95498
 C2858 C 0.79981 0.69494 0.94094
 C2859 C 0.79782 0.72205 0.91674
 C2860 C 0.78874 0.73382 0.93074
 H2861 H 0.76218 0.68838 0.90954
 H2862 H 0.74548 0.70941 0.93576
 H2863 H 0.79170 0.70307 0.97086
 H2864 H 0.80945 0.68244 0.94503
 H2865 H 0.80723 0.72809 0.90500
 H2866 H 0.79048 0.74988 0.93096
 C2867 C 0.80448 0.19900 0.42194
 C2868 C 0.78160 0.19711 0.42068
 C2869 C 0.77162 0.20662 0.43585
 C2870 C 0.78527 0.21815 0.45053
 C2871 C 0.79944 0.20128 0.45810
 C2872 C 0.80972 0.19161 0.44318
 C2873 C 0.80830 0.22154 0.42255
 C2874 C 0.79843 0.23132 0.43735
 H2875 H 0.77397 0.18802 0.40958
 H2876 H 0.75556 0.20523 0.43782
 H2877 H 0.79964 0.19564 0.47337
 H2878 H 0.81918 0.17866 0.44611
 H2879 H 0.81802 0.22949 0.41244
 H2880 H 0.79996 0.24726 0.43962
 C2881 C 0.69882 0.31966 0.41887
 C2882 C 0.68855 0.30001 0.42422
 C2883 C 0.69750 0.28976 0.43929
 C2884 C 0.71601 0.29978 0.44826
 C2885 C 0.72989 0.30420 0.43026
 C2886 C 0.72078 0.31407 0.41481
 C2887 C 0.69949 0.33128 0.43885
 C2888 C 0.70879 0.32106 0.45412
 H2889 H 0.67463 0.29494 0.41760
 H2890 H 0.69141 0.27596 0.44501
 H2891 H 0.74587 0.30095 0.43018
 H2892 H 0.72890 0.31878 0.40155
 H2893 H 0.69425 0.34656 0.44053
 H2894 H 0.71188 0.32801 0.46854
 C2895 C 0.68387 0.82134 0.91596
 C2896 C 0.70679 0.82314 0.91498
 C2897 C 0.71672 0.81321 0.92980
 C2898 C 0.70313 0.80193 0.94439
 C2899 C 0.68802 0.81786 0.95216
 C2900 C 0.67825 0.82811 0.93730
 C2901 C 0.68013 0.79876 0.91595
 C2902 C 0.68975 0.78879 0.93100
 H2903 H 0.71469 0.83130 0.90346
 H2904 H 0.73295 0.81318 0.93095
 H2905 H 0.68364 0.81963 0.96775
 H2906 H 0.66645 0.83893 0.94048
 H2907 H 0.67039 0.79120 0.90539
 H2908 H 0.68769 0.77296 0.93340
 C2909 C 0.20374 0.31009 0.91917
 C2910 C 0.22412 0.31934 0.92441
 C2911 C 0.23467 0.30913 0.93873
 C2912 C 0.22404 0.29054 0.94661
 C2913 C 0.20326 0.29819 0.95363
 C2914 C 0.19285 0.30858 0.93940
 C2915 C 0.20863 0.28847 0.91334
 C2916 C 0.21902 0.27822 0.92765
 H2917 H 0.22967 0.33297 0.91786
 H2918 H 0.24915 0.31400 0.94420
 H2919 H 0.19694 0.29521 0.96832
 H2920 H 0.17796 0.31467 0.94216
 H2921 H 0.20385 0.28161 0.89934
 H2922 H 0.22280 0.26255 0.92582
 C2923 C 0.19612 0.81351 0.41505
 C2924 C 0.21486 0.82375 0.42358
 C2925 C 0.22471 0.81286 0.43791
 C2926 C 0.21499 0.79274 0.44258
 C2927 C 0.19299 0.79791 0.44778
 C2928 C 0.18326 0.80885 0.43350
 C2929 C 0.20373 0.79311 0.40765
 C2930 C 0.21319 0.78215 0.42201
 H2931 H 0.22017 0.83813 0.41867
 H2932 H 0.23828 0.81802 0.44520
 H2933 H 0.18547 0.79293 0.46128
 H2934 H 0.16766 0.81337 0.43499
 H2935 H 0.20129 0.78742 0.39255
 H2936 H 0.21827 0.76701 0.41905
 C2937 C 0.69533 0.69667 0.57939
 C2938 C 0.68664 0.69430 0.55813
 C2939 C 0.69553 0.70601 0.54411
 C2940 C 0.71286 0.71878 0.55244
 C2941 C 0.70245 0.73066 0.56945
 C2942 C 0.69371 0.71913 0.58367
 C2943 C 0.71791 0.69242 0.57709
 C2944 C 0.72694 0.70390 0.56308
 H2945 H 0.67381 0.68511 0.55462
 H2946 H 0.68968 0.70707 0.52889
 H2947 H 0.70139 0.74680 0.56988
 H2948 H 0.68556 0.72547 0.59632
 H2949 H 0.72628 0.68136 0.58558
 H2950 H 0.74282 0.70248 0.55975
 C2951 C 0.70083 0.20106 0.07865
 C2952 C 0.72367 0.19805 0.07933
 C2953 C 0.73354 0.20754 0.06430
 C2954 C 0.71986 0.22001 0.05026
 C2955 C 0.70496 0.20421 0.04247
 C2956 C 0.69488 0.19459 0.05731
 C2957 C 0.69763 0.22380 0.07896
 C2958 C 0.70741 0.23353 0.06419
 H2959 H 0.73135 0.18849 0.09009
 H2960 H 0.74958 0.20574 0.06214
 H2961 H 0.70379 0.19944 0.02692
 H2962 H 0.68475 0.18243 0.05416
 H2963 H 0.68869 0.23189 0.08990
 H2964 H 0.70649 0.24961 0.06260
 C2965 C 0.19089 0.68855 0.08596
 C2966 C 0.18702 0.71110 0.08763
 C2967 C 0.19555 0.72186 0.07267
 C2968 C 0.20801 0.70933 0.05763
 C2969 C 0.22263 0.69694 0.07053
 C2970 C 0.21383 0.68621 0.08525
 C2971 C 0.18377 0.68320 0.06465
 C2972 C 0.19242 0.69420 0.04987
 H2973 H 0.17757 0.71793 0.09905
 H2974 H 0.19305 0.73780 0.07124
 H2975 H 0.23872 0.69657 0.06813
 H2976 H 0.22264 0.67684 0.09523
 H2977 H 0.17191 0.67269 0.06156
 H2978 H 0.18710 0.69338 0.03446
 C2979 C 0.19231 0.18761 0.57778
 C2980 C 0.18524 0.20939 0.57583
 C2981 C 0.19579 0.22010 0.56233
 C2982 C 0.21266 0.20841 0.55177
 C2983 C 0.22549 0.19912 0.56879
 C2984 C 0.21481 0.18880 0.58261
 C2985 C 0.19159 0.17917 0.55632
 C2986 C 0.20248 0.18974 0.54281
 H2987 H 0.17313 0.21614 0.58436
 H2988 H 0.19248 0.23570 0.55944
 H2989 H 0.24173 0.19972 0.56937
 H2990 H 0.22196 0.18114 0.59513
 H2991 H 0.18444 0.16524 0.55241
 H2992 H 0.20506 0.18417 0.52769
   
