data_POSCAR
  _audit_creation_date              2014-09-24
  _audit_creation_method            'ToBaCCo'
  _symmetry_space_group_name_H-M    'P1'
  _symmetry_Int_Tables_number       1
  _symmetry_cell_setting            triclinic
  loop_
  _symmetry_equiv_pos_as_xyz
 x,y,z
_cell_length_a 55.5757
_cell_length_b 55.5761
_cell_length_c 55.5695
_cell_angle_alpha 89.971800
_cell_angle_beta 90.019800
_cell_angle_gamma 89.977700
loop_
  _atom_site_label
  _atom_site_type_symbol
  _atom_site_fract_x
  _atom_site_fract_y
  _atom_site_fract_z
C1 C 0.35930 1.36043 0.32842
 C2 C 0.36963 1.33988 0.33880
 C3 C 0.35936 1.32958 0.35939
 C4 C 0.33875 1.33985 0.36965
 C5 C 0.32837 1.36040 0.35932
 C6 C 0.33867 1.37070 0.33870
 H7 H 0.38547 1.33175 0.33077
 H8 H 0.33072 1.33170 0.38547
 H9 H 0.33053 1.38649 0.33056
 C10 C 0.35890 0.86003 0.82919
 C11 C 0.33830 0.87031 0.83947
 C12 C 0.32796 0.85999 0.86004
 C13 C 0.33830 0.83939 0.87034
 C14 C 0.35890 0.82911 0.86006
 C15 C 0.36920 0.83945 0.83950
 H16 H 0.33024 0.88612 0.83131
 H17 H 0.33024 0.83122 0.88613
 H18 H 0.38502 0.83137 0.83142
 C19 C 0.85887 1.36024 0.82904
 C20 C 0.86919 1.33970 0.83940
 C21 C 0.85892 1.32939 0.85998
 C22 C 0.83832 1.33967 0.87025
 C23 C 0.82795 1.36023 0.85992
 C24 C 0.83827 1.37052 0.83931
 H25 H 0.88501 1.33161 0.83132
 H26 H 0.83028 1.33151 0.88606
 H27 H 0.83018 1.38631 0.83112
 C28 C 0.86036 0.86045 0.32960
 C29 C 0.87065 0.83984 0.33988
 C30 C 0.86035 0.82949 0.36043
 C31 C 0.83978 0.83978 0.37073
 C32 C 0.82947 0.86038 0.36047
 C33 C 0.83978 0.87072 0.33992
 H34 H 0.88644 0.83174 0.33176
 H35 H 0.83166 0.83163 0.38650
 H36 H 0.83167 0.88653 0.33183
 C37 C 0.63969 0.63994 0.32846
 C38 C 0.66030 0.62962 0.33876
 C39 C 0.67064 0.63988 0.35933
 C40 C 0.66036 0.66045 0.36965
 C41 C 0.63977 0.67080 0.35940
 C42 C 0.62943 0.66053 0.33882
 H43 H 0.66843 0.61382 0.33068
 H44 H 0.66849 0.66853 0.38544
 H45 H 0.61361 0.66871 0.33079
 C46 C 0.64067 0.13989 0.82942
 C47 C 0.63035 0.16042 0.83978
 C48 C 0.64065 0.17071 0.86036
 C49 C 0.66127 0.16043 0.87061
 C50 C 0.67164 0.13988 0.86027
 C51 C 0.66130 0.12961 0.83967
 H52 H 0.61452 0.16851 0.83172
 H53 H 0.66933 0.16857 0.88642
 H54 H 0.66938 0.11385 0.83147
 C55 C 1.13930 0.63932 0.82955
 C56 C 1.15987 0.62903 0.83990
 C57 C 1.17015 0.63933 0.86048
 C58 C 1.15983 0.65992 0.87074
 C59 C 1.13926 0.67022 0.86040
 C60 C 1.12899 0.65991 0.83982
 H61 H 1.16799 0.61324 0.83181
 H62 H 1.16793 0.66804 0.88652
 H63 H 1.11322 0.66802 0.83168
 C64 C 1.14127 0.14009 0.32767
 C65 C 1.16189 0.12981 0.33800
 C66 C 1.17218 0.14010 0.35861
 C67 C 1.16180 0.16065 0.36891
 C68 C 1.14120 0.17093 0.35862
 C69 C 1.13094 0.16064 0.33802
 H70 H 1.17003 0.11401 0.32989
 H71 H 1.16982 0.16879 0.38474
 H72 H 1.11510 0.16877 0.32998
 C73 C 0.64112 1.36019 0.67110
 C74 C 0.63077 1.33967 0.66077
 C75 C 0.64101 1.32935 0.64019
 C76 C 0.66162 1.33959 0.62989
 C77 C 0.67203 1.36013 0.64020
 C78 C 0.66174 1.37043 0.66081
 H79 H 0.61495 1.33161 0.66886
 H80 H 0.66964 1.33143 0.61407
 H81 H 0.66985 1.38620 0.66898
 C82 C 0.63961 0.86044 1.17065
 C83 C 0.62933 0.83985 1.16036
 C84 C 0.63964 0.82952 1.13981
 C85 C 0.66022 0.83982 1.12952
 C86 C 0.67051 0.86041 1.13979
 C87 C 0.66019 0.87072 1.16034
 H88 H 0.61354 0.83175 1.16848
 H89 H 0.66834 0.83169 1.11375
 H90 H 0.66829 0.88651 1.16844
 C91 C 1.14116 1.35982 1.17183
 C92 C 1.16177 1.37011 1.16154
 C93 C 1.17209 1.35984 1.14093
 C94 C 1.16173 1.33928 1.13060
 C95 C 1.14114 1.32899 1.14087
 C96 C 1.13085 1.33927 1.16146
 H97 H 1.16988 1.38590 1.16967
 H98 H 1.16978 1.33116 1.11478
 H99 H 1.11502 1.33113 1.16948
 C100 C 1.13937 0.86028 0.67029
 C101 C 1.12912 0.83968 0.65999
 C102 C 1.13943 0.82939 0.63941
 C103 C 1.15998 0.83974 0.62912
 C104 C 1.17025 0.86033 0.63942
 C105 C 1.15992 0.87060 0.65998
 H106 H 1.11335 0.83154 0.66810
 H107 H 1.16811 0.83165 0.61334
 H108 H 1.16800 0.88640 0.66810
 C109 C 0.35871 0.64019 0.67108
 C110 C 0.33814 0.62989 0.66077
 C111 C 0.32779 0.64019 0.64018
 C112 C 0.33810 0.66080 0.62990
 C113 C 0.35868 0.67110 0.64020
 C114 C 0.36898 0.66078 0.66077
 H115 H 0.33011 0.61407 0.66892
 H116 H 0.33004 0.66896 0.61409
 H117 H 0.38478 0.66888 0.66887
 C118 C 0.36105 0.13886 1.16976
 C119 C 0.34048 0.12857 1.15945
 C120 C 0.33018 0.13887 1.13886
 C121 C 0.34049 0.15944 1.12856
 C122 C 0.36106 0.16974 1.13886
 C123 C 0.37134 0.15943 1.15945
 H124 H 0.33235 0.11280 1.16758
 H125 H 0.33237 0.16757 1.11277
 H126 H 0.38711 0.16755 1.16758
 C127 C 0.86022 0.63981 1.17152
 C128 C 0.83961 0.62953 1.16120
 C129 C 0.82929 0.63985 1.14063
 C130 C 0.83959 0.66043 1.13034
 C131 C 0.86018 0.67072 1.14061
 C132 C 0.87050 0.66040 1.16119
 H133 H 0.83147 0.61373 1.16926
 H134 H 0.83147 0.66854 1.11455
 H135 H 0.88632 0.66854 1.16923
 C136 C 0.85851 0.14045 0.67222
 C137 C 0.83787 0.13019 0.66193
 C138 C 0.82757 0.14047 0.64130
 C139 C 0.83795 0.16101 0.63095
 C140 C 0.85856 0.17128 0.64121
 C141 C 0.86884 0.16099 0.66182
 H142 H 0.82974 0.11440 0.67007
 H143 H 0.82993 0.16913 0.61510
 H144 H 0.88468 0.16910 0.66984
 C145 C 1.36056 0.35956 0.67063
 C146 C 1.37086 0.33897 0.66035
 C147 C 1.36058 0.32866 0.63974
 C148 C 1.34002 0.33902 0.62941
 C149 C 1.32972 0.35961 0.63968
 C150 C 1.34001 0.36988 0.66027
 H151 H 1.38664 0.33088 0.66854
 H152 H 1.33187 0.33098 0.61359
 H153 H 1.33191 0.38568 0.66836
 C154 C 1.36020 0.85914 1.17089
 C155 C 1.37047 0.83851 1.16067
 C156 C 1.36018 0.82814 1.14009
 C157 C 1.33961 0.83849 1.12974
 C158 C 1.32934 0.85912 1.13997
 C159 C 1.33965 0.86944 1.16052
 H160 H 1.38626 0.83045 1.16887
 H161 H 1.33146 0.83041 1.11395
 H162 H 1.33157 0.88528 1.16856
 C163 C 0.86069 0.35941 1.17014
 C164 C 0.87095 0.33882 1.15984
 C165 C 0.86059 0.32847 1.13929
 C166 C 0.83996 0.33880 1.12904
 C167 C 0.82970 0.35940 1.13935
 C168 C 0.84009 0.36970 1.15987
 H169 H 0.88677 0.33075 1.16797
 H170 H 0.83174 0.33073 1.11328
 H171 H 0.83201 0.38551 1.16798
 C172 C 0.86035 0.86007 0.67046
 C173 C 0.87062 0.83948 0.66015
 C174 C 0.86029 0.82918 0.63958
 C175 C 0.83971 0.83952 0.62930
 C176 C 0.82943 0.86010 0.63959
 C177 C 0.83977 0.87038 0.66016
 H178 H 0.88641 0.83135 0.66826
 H179 H 0.83158 0.83142 0.61352
 H180 H 0.83168 0.88618 0.66827
 C181 C 0.63970 0.63952 0.67068
 C182 C 0.62939 0.66011 0.66040
 C183 C 0.63964 0.67044 0.63981
 C184 C 0.66020 0.66013 0.62948
 C185 C 0.67053 0.63954 0.63974
 C186 C 0.66025 0.62923 0.66033
 H187 H 0.61362 0.66822 0.66854
 H188 H 0.66828 0.66825 0.61368
 H189 H 0.66838 0.61343 0.66842
 C190 C 0.63998 1.14079 1.17086
 C191 C 0.62969 1.16140 1.16059
 C192 C 0.63997 1.17177 1.14001
 C193 C 0.66056 1.16144 1.12971
 C194 C 0.67086 1.14083 1.13998
 C195 C 0.66055 1.13051 1.16054
 H196 H 0.61388 1.16945 1.16876
 H197 H 0.66872 1.16952 1.11391
 H198 H 0.66865 1.11470 1.16862
 C199 C 0.14013 0.64118 1.17195
 C200 C 0.16070 0.63085 1.16160
 C201 C 0.17101 0.64115 1.14103
 C202 C 0.16075 0.66177 1.13075
 C203 C 0.14019 0.67214 1.14105
 C204 C 0.12987 0.66182 1.16164
 H205 H 0.16881 0.61500 1.16963
 H206 H 0.16891 0.66981 1.11494
 H207 H 0.11407 0.66994 1.16975
 C208 C 0.13939 1.14048 0.67034
 C209 C 0.12910 1.16108 0.66005
 C210 C 0.13940 1.17141 0.63946
 C211 C 0.15998 1.16106 0.62917
 C212 C 0.17027 1.14047 0.63946
 C213 C 0.15995 1.13017 0.66003
 H214 H 0.11331 1.16916 0.66821
 H215 H 0.16815 1.16913 0.61337
 H216 H 0.16805 1.11437 0.66813
 C217 C 1.36039 0.64085 0.32964
 C218 C 1.33985 0.63053 0.33996
 C219 C 1.32949 0.64083 0.36050
 C220 C 1.33972 0.66146 0.37076
 C221 C 1.36029 0.67183 0.36046
 C222 C 1.37062 0.66148 0.33989
 H223 H 1.33180 0.61470 0.33189
 H224 H 1.33152 0.66953 0.38653
 H225 H 1.38641 0.66957 0.33173
 C226 C 1.35998 1.14123 0.82916
 C227 C 1.37024 1.16182 0.83948
 C228 C 1.35993 1.17211 0.86008
 C229 C 1.33935 1.16174 0.87035
 C230 C 1.32909 1.14116 0.86003
 C231 C 1.33942 1.13091 0.83946
 H232 H 1.38604 1.16990 0.83134
 H233 H 1.33117 1.16977 0.88616
 H234 H 1.33135 1.11511 0.83135
 C235 C 0.86006 0.63972 0.82912
 C236 C 0.83951 0.62943 0.83947
 C237 C 0.82923 0.63973 0.86005
 C238 C 0.83955 0.66031 0.87031
 C239 C 0.86010 0.67062 0.85998
 C240 C 0.87036 0.66030 0.83940
 H241 H 0.83140 0.61363 0.83139
 H242 H 0.83146 0.66842 0.88611
 H243 H 0.88614 0.66841 0.83126
 C244 C 0.86095 1.13897 0.33004
 C245 C 0.87127 1.15953 0.34034
 C246 C 0.86099 1.16986 0.36090
 C247 C 0.84040 1.15959 0.37119
 C248 C 0.83007 1.13903 0.36091
 C249 C 0.84036 1.12872 0.34034
 H250 H 0.88706 1.16762 0.33221
 H251 H 0.83229 1.16773 0.38696
 H252 H 0.83222 1.11295 0.33223
 C253 C 0.64017 0.35891 0.32825
 C254 C 0.62989 0.33832 0.33860
 C255 C 0.64023 0.32799 0.35918
 C256 C 0.66084 0.33832 0.36943
 C257 C 0.67113 0.35889 0.35911
 C258 C 0.66078 0.36919 0.33854
 H259 H 0.61405 0.33023 0.33052
 H260 H 0.66902 0.33027 0.38524
 H261 H 0.66891 0.38500 0.33047
 C262 C 0.63944 0.86041 0.82973
 C263 C 0.62917 0.83983 0.84004
 C264 C 0.63948 0.82951 0.86062
 C265 C 0.66006 0.83982 0.87090
 C266 C 0.67035 0.86040 0.86060
 C267 C 0.66002 0.87070 0.84003
 H268 H 0.61338 0.83172 0.83193
 H269 H 0.66819 0.83170 0.88668
 H270 H 0.66812 0.88649 0.83191
 C271 C 0.13986 0.36021 0.82812
 C272 C 0.12953 0.33965 0.83847
 C273 C 0.13976 0.32938 0.85911
 C274 C 0.16029 0.33970 0.86945
 C275 C 0.17065 0.36025 0.85915
 C276 C 0.16042 0.37051 0.83851
 H277 H 0.11375 0.33148 0.83037
 H278 H 0.16834 0.33163 0.88530
 H279 H 0.16860 0.38630 0.83044
 C280 C 0.13990 0.86003 0.32826
 C281 C 0.12963 0.83941 0.33856
 C282 C 0.13991 0.82912 0.35917
 C283 C 0.16043 0.83946 0.36951
 C284 C 0.17073 0.86006 0.35925
 C285 C 0.16045 0.87035 0.33864
 H286 H 0.11386 0.83123 0.33047
 H287 H 0.16852 0.83137 0.38533
 H288 H 0.16859 0.88617 0.33060
 O289 O 1.08713 1.02352 1.11992
 O290 O 1.11520 1.02357 1.14798
 C291 C 1.09561 1.03177 1.13947
 C292 C 1.08285 1.05149 1.15207
 C293 C 1.09093 1.05981 1.17454
 H294 H 1.10622 1.05135 1.18323
 O295 O 0.91333 0.97664 1.11977
 O296 O 0.88540 0.97661 1.14796
 C297 C 0.90495 0.96842 1.13939
 C298 C 0.91783 0.94877 1.15201
 C299 C 0.90995 0.94062 1.17461
 H300 H 0.89473 0.94912 1.18335
 O301 O 1.02372 1.12009 1.08693
 O302 O 1.02372 1.14821 1.11492
 C303 C 1.03191 1.13969 1.09534
 C304 C 1.05155 1.15232 1.08249
 C305 C 1.05987 1.17481 1.09051
 H306 H 1.05148 1.18349 1.10582
 O307 O 0.97683 0.88010 1.08696
 O308 O 0.97678 0.85199 1.11498
 C309 C 0.96859 0.86052 1.09540
 C310 C 0.94892 0.84793 1.08257
 C311 C 0.94068 0.82539 1.09054
 H312 H 0.94917 0.81665 1.10578
 O313 O 1.11970 1.08704 1.02328
 O314 O 1.14787 1.11498 1.02327
 C315 C 1.13933 1.09540 1.03146
 C316 C 1.15199 1.08248 1.05105
 C317 C 1.17465 1.09027 1.05910
 H318 H 1.18341 1.10547 1.05056
 O319 O 0.88031 0.91314 1.02356
 O320 O 0.85215 0.88520 1.02361
 C321 C 0.86070 0.90476 1.03178
 C322 C 0.84809 0.91765 1.05140
 C323 C 0.82551 0.90978 1.05958
 H324 H 0.81676 0.89454 1.05112
 O325 O 0.97689 1.08701 1.11985
 O326 O 0.97682 1.11495 1.14801
 C327 C 0.96867 1.09538 1.13946
 C328 C 0.94907 1.08246 1.15208
 C329 C 0.94097 1.09026 1.17472
 H330 H 0.94950 1.10543 1.18351
 O331 O 1.02377 0.91304 1.11990
 O332 O 1.02378 0.88509 1.14809
 C333 C 1.03197 0.90465 1.13953
 C334 C 1.05162 0.91750 1.15214
 C335 C 1.05989 0.90955 1.17468
 H336 H 1.05145 0.89428 1.18341
 O337 O 1.11999 0.97653 1.08694
 O338 O 1.14821 0.97651 1.11485
 C339 C 1.13962 0.96831 1.09531
 C340 C 1.15221 0.94865 1.08246
 C341 C 1.17476 0.94039 1.09040
 H342 H 1.18351 0.94884 1.10565
 O343 O 0.88029 1.02362 1.08692
 O344 O 0.85221 1.02365 1.11495
 C345 C 0.86071 1.03185 1.09537
 C346 C 0.84808 1.05152 1.08254
 C347 C 0.82554 1.05976 1.09051
 H348 H 0.81683 1.05129 1.10577
 O349 O 0.91319 1.11999 1.02344
 O350 O 0.88523 1.14816 1.02351
 C351 C 0.90481 1.13959 1.03168
 C352 C 0.91769 1.15218 1.05133
 C353 C 0.90976 1.17475 1.05953
 H354 H 0.89452 1.18349 1.05105
 O355 O 1.08712 0.88003 1.02355
 O356 O 1.11512 0.85190 1.02352
 C357 C 1.09557 0.86043 1.03176
 C358 C 1.08280 0.84783 1.05148
 C359 C 1.09086 0.82535 1.05983
 H360 H 1.10615 0.81665 1.05141
 O361 O 0.91336 1.02356 1.11977
 O362 O 0.88544 1.02358 1.14797
 C363 C 0.90500 1.03175 1.13940
 C364 C 0.91792 1.05134 1.15204
 C365 C 0.91010 1.05941 1.17469
 H366 H 0.89491 1.05088 1.18345
 O367 O 1.08707 0.97657 1.11991
 O368 O 1.11512 0.97655 1.14799
 C369 C 1.09553 0.96836 1.13950
 C370 C 1.08273 0.94868 1.15213
 C371 C 1.09071 0.94044 1.17468
 H372 H 1.10596 0.94892 1.18340
 O373 O 1.02378 0.88006 1.08700
 O374 O 1.02379 0.85195 1.11503
 C375 C 1.03199 0.86047 1.09545
 C376 C 1.05168 0.84785 1.08265
 C377 C 1.06002 0.82538 1.09072
 H378 H 1.05160 0.81669 1.10602
 O379 O 0.97679 1.11999 1.08692
 O380 O 0.97671 1.14811 1.11490
 C381 C 0.96853 1.13957 1.09533
 C382 C 0.94885 1.15217 1.08247
 C383 C 0.94064 1.17474 1.09039
 H384 H 0.94913 1.18347 1.10563
 O385 O 0.88020 1.08710 1.02346
 O386 O 0.85207 1.11510 1.02354
 C387 C 0.86062 1.09552 1.03171
 C388 C 0.84804 1.08267 1.05138
 C389 C 0.82550 1.09062 1.05963
 H390 H 0.81676 1.10588 1.05116
 O391 O 1.11993 0.91309 1.02347
 O392 O 1.14810 0.88513 1.02344
 C393 C 1.13955 0.90469 1.03165
 C394 C 1.15218 0.91753 1.05130
 C395 C 1.17473 0.90956 1.05952
 H396 H 1.18345 0.89431 1.05104
 O397 O 0.97684 0.91310 1.11984
 O398 O 0.97679 0.88515 1.14804
 C399 C 0.96861 0.90472 1.13945
 C400 C 0.94898 0.91761 1.15205
 C401 C 0.94081 0.90974 1.17465
 H402 H 0.94930 0.89452 1.18342
 O403 O 1.02382 1.08712 1.11988
 O404 O 1.02382 1.11508 1.14803
 C405 C 1.03204 1.09553 1.13948
 C406 C 1.05175 1.08271 1.15207
 C407 C 1.06012 1.09074 1.17455
 H408 H 1.05173 1.10605 1.18324
 O409 O 0.88031 0.97669 1.08688
 O410 O 0.85222 0.97666 1.11490
 C411 C 0.86073 0.96848 1.09532
 C412 C 0.84810 0.94884 1.08249
 C413 C 0.82551 0.94068 1.09039
 H414 H 0.81677 0.94919 1.10561
 O415 O 1.11987 1.02346 1.08678
 O416 O 1.14811 1.02350 1.11467
 C417 C 1.13950 1.03167 1.09511
 C418 C 1.15208 1.05129 1.08218
 C419 C 1.17474 1.05937 1.08994
 H420 H 1.18356 1.05082 1.10510
 O421 O 0.91327 0.88019 1.02357
 O422 O 0.88527 0.85207 1.02362
 C423 C 0.90485 0.86059 1.03180
 C424 C 0.91772 0.84797 1.05146
 C425 C 0.90977 0.82543 1.05971
 H426 H 0.89450 0.81671 1.05126
 O427 O 1.08691 1.12018 1.02333
 O428 O 1.11492 1.14827 1.02332
 C429 C 1.09537 1.13975 1.03155
 C430 C 1.08260 1.15235 1.05126
 C431 C 1.09065 1.17484 1.05956
 H432 H 1.10591 1.18354 1.05110
 Cu433 Cu 1.10070 1.00001 1.10060
 Cu434 Cu 1.13448 1.00004 1.13419
 Cu435 Cu 0.89962 1.00013 1.10052
 Cu436 Cu 0.86600 1.00013 1.13427
 Cu437 Cu 1.00031 1.10075 1.10059
 Cu438 Cu 1.00026 1.13441 1.13429
 Cu439 Cu 1.00031 0.89937 1.10062
 Cu440 Cu 1.00028 0.86572 1.13436
 C441 C 1.06309 1.06292 1.14111
 H442 H 1.05697 1.05683 1.12363
 C443 C 1.07958 1.07930 1.18574
 C444 C 0.93751 0.93729 1.14099
 H445 H 0.94349 0.94326 1.12342
 C446 C 0.92142 0.92123 1.18589
 C447 C 1.06289 1.14137 1.06270
 H448 H 1.05680 1.12389 1.05662
 C449 C 1.07930 1.18603 1.07906
 C450 C 0.93746 0.85895 1.06286
 H451 H 0.94349 0.87647 1.05683
 C452 C 0.92123 0.81417 1.07912
 C453 C 1.14096 1.06282 1.06256
 H454 H 1.12335 1.05691 1.05668
 C455 C 1.18599 1.07873 1.07841
 C456 C 0.85912 0.93735 1.06282
 H457 H 0.87667 0.94332 1.05683
 C458 C 0.81425 0.92128 1.07895
 C459 C 0.93757 1.06284 1.14100
 H460 H 0.94349 1.05693 1.12339
 C461 C 0.92162 1.07874 1.18599
 C462 C 1.06302 0.93724 1.14113
 H463 H 1.05697 0.94327 1.12361
 C464 C 1.07930 0.92100 1.18591
 C465 C 1.14119 0.93724 1.06274
 H466 H 1.12365 0.94328 1.05672
 C467 C 1.18598 0.92097 1.07894
 C468 C 0.85906 1.06295 1.06281
 H469 H 0.87658 1.05692 1.05677
 C470 C 0.81429 1.07919 1.07906
 C471 C 0.93740 1.14116 1.06277
 H472 H 0.94341 1.12362 1.05677
 C473 C 0.92123 1.18599 1.07894
 C474 C 1.06305 0.85881 1.06287
 H475 H 1.05694 0.87628 1.05676
 C476 C 1.07948 0.81416 1.07933
 O477 O 1.08687 0.97669 0.88012
 O478 O 1.11482 0.97665 0.85195
 C479 C 1.09525 0.96847 0.86051
 C480 C 1.08237 0.94885 0.84790
 C481 C 1.09024 0.94068 0.82531
 H482 H 1.10545 0.94916 0.81654
 O483 O 0.91288 1.02376 0.88001
 O484 O 0.88483 1.02373 0.85193
 C485 C 0.90440 1.03196 0.86042
 C486 C 0.91716 1.05166 0.84777
 C487 C 0.90904 1.06000 0.82531
 H488 H 0.89372 1.05158 0.81666
 O489 O 0.97633 1.12000 0.91287
 O490 O 0.97630 1.14816 0.88489
 C491 C 0.96813 1.13962 0.90447
 C492 C 0.94851 1.15225 0.91735
 C493 C 0.94025 1.17480 0.90941
 H494 H 0.94866 1.18352 0.89412
 O495 O 1.02341 0.88030 0.91313
 O496 O 1.02343 0.85217 0.88514
 C497 C 1.03162 0.86069 0.90472
 C498 C 1.05124 0.84804 0.91759
 C499 C 1.05937 0.82543 0.90972
 H500 H 1.05084 0.81670 0.89450
 O501 O 1.11989 0.91306 0.97652
 O502 O 1.14805 0.88509 0.97643
 C503 C 1.13948 0.90466 0.96826
 C504 C 1.15205 0.91752 0.94858
 C505 C 1.17457 0.90954 0.94029
 H506 H 1.18330 0.89426 0.94873
 O507 O 0.88012 1.08713 0.97652
 O508 O 0.85199 1.11513 0.97654
 C509 C 0.86051 1.09556 0.96833
 C510 C 0.84787 1.08274 0.94868
 C511 C 0.82532 1.09071 0.94045
 H512 H 0.81661 1.10597 0.94891
 O513 O 1.02322 1.08699 0.87995
 O514 O 1.02326 1.11497 0.85179
 C515 C 1.03145 1.09539 0.86035
 C516 C 1.05112 1.08254 0.84777
 C517 C 1.05931 1.09045 0.82520
 H518 H 1.05079 1.10566 0.81643
 O519 O 0.97646 0.91329 0.88020
 O520 O 0.97643 0.88534 0.85205
 C521 C 0.96824 0.90490 0.86060
 C522 C 0.94860 0.91778 0.84797
 C523 C 0.94042 0.90987 0.82539
 H524 H 0.94891 0.89464 0.81666
 O525 O 1.11985 1.02361 0.91301
 O526 O 1.14797 1.02364 0.88502
 C527 C 1.13944 1.03183 0.90458
 C528 C 1.15203 1.05152 0.91740
 C529 C 1.17456 1.05977 0.90944
 H530 H 1.18330 1.05130 0.89420
 O531 O 0.88013 0.97679 0.91313
 O532 O 0.85192 0.97670 0.88521
 C533 C 0.86053 0.96854 0.90477
 C534 C 0.84797 0.94889 0.91767
 C535 C 0.82537 0.94071 0.90982
 H536 H 0.81657 0.94921 0.89462
 O537 O 1.08672 1.12005 0.97637
 O538 O 1.11471 1.14817 0.97630
 C539 C 1.09513 1.13964 0.96813
 C540 C 1.08227 1.15223 0.94845
 C541 C 1.09020 1.17478 0.94020
 H542 H 1.10544 1.18352 0.94866
 O543 O 0.91319 0.88016 0.97663
 O544 O 0.88520 0.85205 0.97662
 C545 C 0.90476 0.86058 0.96841
 C546 C 0.91758 0.84798 0.94874
 C547 C 0.90965 0.82542 0.94053
 H548 H 0.89443 0.81667 0.94903
 O549 O 0.91301 0.97682 0.88012
 O550 O 0.88497 0.97673 0.85202
 C551 C 0.90458 0.96858 0.86054
 C552 C 0.91744 0.94893 0.84794
 C553 C 0.90954 0.94074 0.82536
 H554 H 0.89431 0.94923 0.81660
 O555 O 1.08685 1.02361 0.88010
 O556 O 1.11480 1.02364 0.85193
 C557 C 1.09523 1.03182 0.86048
 C558 C 1.08234 1.05145 0.84784
 C559 C 1.09024 1.05965 0.82526
 H560 H 1.10550 1.05119 0.81654
 O561 O 0.97649 0.88026 0.91310
 O562 O 0.97645 0.85215 0.88510
 C563 C 0.96828 0.86066 0.90468
 C564 C 0.94866 0.84803 0.91755
 C565 C 0.94046 0.82547 0.90962
 H566 H 0.94892 0.81676 0.89436
 O567 O 1.02326 1.11999 0.91283
 O568 O 1.02329 1.14814 0.88484
 C569 C 1.03148 1.13959 0.90442
 C570 C 1.05113 1.15220 0.91727
 C571 C 1.05934 1.17474 0.90931
 H572 H 1.05087 1.18346 0.89405
 O573 O 0.88032 0.91320 0.97663
 O574 O 0.85216 0.88525 0.97662
 C575 C 0.86071 0.90482 0.96843
 C576 C 0.84806 0.91771 0.94881
 C577 C 0.82546 0.90982 0.94067
 H578 H 0.81673 0.89459 0.94917
 O579 O 1.11975 1.08717 0.97635
 O580 O 1.14791 1.11513 0.97629
 C581 C 1.13935 1.09556 0.96812
 C582 C 1.15197 1.08270 0.94849
 C583 C 1.17450 1.09067 0.94025
 H584 H 1.18321 1.10594 0.94869
 O585 O 1.02339 0.91325 0.88017
 O586 O 1.02341 0.88529 0.85201
 C587 C 1.03160 0.90486 0.86056
 C588 C 1.05122 0.91772 0.84793
 C589 C 1.05937 0.90983 0.82533
 H590 H 1.05086 0.89462 0.81659
 O591 O 0.97627 1.08715 0.87984
 O592 O 0.97624 1.11514 0.85170
 C593 C 0.96803 1.09559 0.86025
 C594 C 0.94830 1.08280 0.84768
 C595 C 0.93990 1.09086 0.82522
 H596 H 0.94829 1.10616 0.81651
 O597 O 0.88005 1.02373 0.91307
 O598 O 0.85184 1.02371 0.88515
 C599 C 0.86042 1.03192 0.90469
 C600 C 0.84782 1.05159 0.91754
 C601 C 0.82528 1.05984 0.90960
 H602 H 0.81653 1.05139 0.89435
 O603 O 1.11984 0.97665 0.91306
 O604 O 1.14795 0.97662 0.88506
 C605 C 1.13943 0.96842 0.90463
 C606 C 1.15203 0.94872 0.91745
 C607 C 1.17455 0.94045 0.90945
 H608 H 1.18326 0.94892 0.89419
 O609 O 1.08691 0.88016 0.97660
 O610 O 1.11490 0.85201 0.97651
 C611 C 1.09530 0.86056 0.96837
 C612 C 1.08240 0.84797 0.94874
 C613 C 1.09024 0.82536 0.94058
 H614 H 1.10545 0.81657 0.94908
 O615 O 0.91309 1.12005 0.97649
 O616 O 0.88512 1.14821 0.97651
 C617 C 0.90466 1.13966 0.96828
 C618 C 0.91746 1.15226 0.94859
 C619 C 0.90949 1.17481 0.94037
 H620 H 0.89426 1.18355 0.94888
 Cu621 Cu 1.10056 1.00014 0.89938
 Cu622 Cu 1.13421 1.00013 0.86567
 Cu623 Cu 0.89933 1.00029 0.89937
 Cu624 Cu 0.86556 1.00020 0.86576
 Cu625 Cu 1.10046 1.10082 0.99984
 Cu626 Cu 1.13417 1.13446 0.99979
 Cu627 Cu 1.10066 0.89938 1.00004
 Cu628 Cu 1.13437 0.86572 0.99997
 Cu629 Cu 0.89945 1.10076 0.99997
 Cu630 Cu 0.86579 1.13447 1.00003
 Cu631 Cu 0.89958 0.89947 1.00010
 Cu632 Cu 0.86587 0.86582 1.00012
 Cu633 Cu 0.99976 1.10072 0.89917
 Cu634 Cu 0.99978 1.13442 0.86548
 Cu635 Cu 0.99994 0.89958 0.89946
 Cu636 Cu 0.99993 0.86592 0.86575
 C637 C 1.06270 0.93739 0.85895
 H638 H 1.05674 0.94337 0.87651
 C639 C 1.07875 0.92130 0.81406
 C640 C 0.93695 1.06303 0.85868
 H641 H 0.94310 1.05692 0.87615
 C642 C 0.92039 1.07947 0.81407
 C643 C 0.93714 1.14125 0.93711
 H644 H 0.94318 1.12372 0.94313
 C645 C 0.92086 1.18604 0.92091
 C646 C 1.06274 0.85904 0.93727
 H647 H 1.05679 0.87662 0.94324
 C648 C 1.07873 0.81413 0.92120
 C649 C 1.14105 0.93727 0.93718
 H650 H 1.12354 0.94332 0.94325
 C651 C 1.18578 0.92099 0.92086
 C652 C 0.85885 1.06301 0.93724
 H653 H 0.87638 1.05697 0.94326
 C654 C 0.81406 1.07928 0.92104
 C655 C 1.06261 1.06287 0.85883
 H656 H 1.05661 1.05687 0.87638
 C657 C 1.07874 1.07902 0.81398
 C658 C 0.93714 0.93747 0.85898
 H659 H 0.94313 0.94346 0.87654
 C660 C 0.92102 0.92134 0.81413
 C661 C 1.14100 1.06296 0.93709
 H662 H 1.12348 1.05692 0.94312
 C663 C 1.18576 1.07922 0.92085
 C664 C 0.85905 0.93741 0.93733
 H665 H 0.87662 0.94339 0.94328
 C666 C 0.81415 0.92131 0.92131
 C667 C 1.06257 1.14121 0.93701
 H668 H 1.05656 1.12368 0.94305
 C669 C 1.07875 1.18600 0.92076
 C670 C 0.93725 0.85901 0.93727
 H671 H 0.94326 0.87655 0.94329
 C672 C 0.92108 0.81420 0.92109
 O673 O 1.08702 0.52313 0.61955
 O674 O 1.11497 0.52316 0.64773
 C675 C 1.09539 0.53133 0.63917
 C676 C 1.08248 0.55093 0.65179
 C677 C 1.09032 0.55908 0.67440
 H678 H 1.10555 0.55059 0.68317
 O679 O 0.91310 0.47611 0.61953
 O680 O 0.88513 0.47608 0.64767
 C681 C 0.90471 0.46790 0.63914
 C682 C 0.91758 0.44826 0.65178
 C683 C 0.90962 0.44003 0.67432
 H684 H 0.89435 0.44848 0.68301
 O685 O 1.02342 0.61946 0.58657
 O686 O 1.02342 0.64760 0.61454
 C687 C 1.03162 0.63907 0.59498
 C688 C 1.05124 0.65171 0.58212
 C689 C 1.05938 0.67430 0.59001
 H690 H 1.05088 0.68303 0.60523
 O691 O 0.97664 0.37978 0.58672
 O692 O 0.97668 0.35164 0.61471
 C693 C 0.96844 0.36018 0.59515
 C694 C 0.94873 0.34759 0.58236
 C695 C 0.94037 0.32514 0.59045
 H696 H 0.94878 0.31646 0.60576
 O697 O 1.11999 0.58670 0.52321
 O698 O 1.14807 0.61473 0.52326
 C699 C 1.13956 0.59515 0.53146
 C700 C 1.15217 0.58235 0.55117
 C701 C 1.17465 0.59039 0.55949
 H702 H 1.18334 0.60568 0.55106
 O703 O 0.88018 0.41275 0.52320
 O704 O 0.85210 0.38472 0.52314
 C705 C 0.86059 0.40429 0.53137
 C706 C 0.84794 0.41708 0.55104
 C707 C 0.82543 0.40906 0.55931
 H708 H 0.81673 0.39379 0.55086
 O709 O 0.97650 0.58650 0.61952
 O710 O 0.97645 0.61447 0.64765
 C711 C 0.96827 0.59490 0.63911
 C712 C 0.94862 0.58205 0.65172
 C713 C 0.94042 0.58998 0.67428
 H714 H 0.94889 0.60522 0.68302
 O715 O 1.02360 0.41276 0.61962
 O716 O 1.02370 0.38477 0.64776
 C717 C 1.03186 0.40434 0.63921
 C718 C 1.05154 0.41718 0.65180
 C719 C 1.05978 0.40924 0.67435
 H720 H 1.05131 0.39400 0.68310
 O721 O 1.12007 0.47630 0.58659
 O722 O 1.14820 0.47626 0.61459
 C723 C 1.13968 0.46809 0.59501
 C724 C 1.15233 0.44847 0.58214
 C725 C 1.17490 0.44029 0.59007
 H726 H 1.18363 0.44876 0.60531
 O727 O 0.88010 0.52302 0.58655
 O728 O 0.85197 0.52306 0.61453
 C729 C 0.86050 0.53124 0.59495
 C730 C 0.84788 0.55088 0.58207
 C731 C 0.82531 0.55910 0.58998
 H732 H 0.81658 0.55063 0.60523
 O733 O 0.91302 0.61940 0.52307
 O734 O 0.88505 0.64755 0.52304
 C735 C 0.90461 0.63901 0.53126
 C736 C 0.91746 0.65163 0.55090
 C737 C 0.90954 0.67420 0.55908
 H738 H 0.89430 0.68295 0.55058
 O739 O 1.08717 0.37997 0.52311
 O740 O 1.11516 0.35184 0.52320
 C741 C 1.09558 0.36038 0.53136
 C742 C 1.08271 0.34776 0.55101
 C743 C 1.09063 0.32519 0.55922
 H744 H 1.10588 0.31646 0.55076
 O745 O 0.91304 0.52304 0.61953
 O746 O 0.88507 0.52308 0.64767
 C747 C 0.90463 0.53126 0.63912
 C748 C 0.91748 0.55092 0.65173
 C749 C 0.90955 0.55913 0.67429
 H750 H 0.89432 0.55065 0.68303
 O751 O 1.08713 0.47620 0.61954
 O752 O 1.11509 0.47617 0.64771
 C753 C 1.09554 0.46797 0.63915
 C754 C 1.08270 0.44831 0.65176
 C755 C 1.09065 0.44008 0.67432
 H756 H 1.10591 0.44854 0.68304
 O757 O 1.02360 0.37991 0.58659
 O758 O 1.02369 0.35174 0.61456
 C759 C 1.03185 0.36031 0.59499
 C760 C 1.05152 0.34773 0.58212
 C761 C 1.05973 0.32516 0.59004
 H762 H 1.05124 0.31640 0.60526
 O763 O 0.97649 0.61943 0.58654
 O764 O 0.97644 0.64757 0.61450
 C765 C 0.96826 0.63902 0.59493
 C766 C 0.94861 0.65163 0.58206
 C767 C 0.94041 0.67421 0.58995
 H768 H 0.94890 0.68296 0.60518
 O769 O 0.88010 0.58643 0.52305
 O770 O 0.85196 0.61443 0.52303
 C771 C 0.86049 0.59485 0.53124
 C772 C 0.84787 0.58201 0.55089
 C773 C 0.82531 0.58995 0.55909
 H774 H 0.81657 0.60519 0.55059
 O775 O 1.12016 0.41288 0.52309
 O776 O 1.14832 0.38491 0.52318
 C777 C 1.13976 0.40448 0.53134
 C778 C 1.15236 0.41735 0.55099
 C779 C 1.17494 0.40945 0.55919
 H780 H 1.18370 0.39422 0.55071
 O781 O 0.97665 0.41275 0.61964
 O782 O 0.97669 0.38476 0.64779
 C783 C 0.96846 0.40432 0.63925
 C784 C 0.94877 0.41715 0.65184
 C785 C 0.94052 0.40919 0.67439
 H786 H 0.94899 0.39394 0.68314
 O787 O 1.02343 0.58649 0.61952
 O788 O 1.02344 0.61446 0.64766
 C789 C 1.03164 0.59489 0.63913
 C790 C 1.05128 0.58203 0.65177
 C791 C 1.05941 0.58990 0.67438
 H792 H 1.05088 0.60510 0.68313
 O793 O 0.88010 0.47609 0.58662
 O794 O 0.85197 0.47606 0.61460
 C795 C 0.86051 0.46787 0.59504
 C796 C 0.84792 0.44820 0.58220
 C797 C 0.82541 0.43990 0.59019
 H798 H 0.81669 0.44834 0.60546
 O799 O 1.12004 0.52324 0.58668
 O800 O 1.14816 0.52327 0.61470
 C801 C 1.13962 0.53148 0.59513
 C802 C 1.15220 0.55119 0.58232
 C803 C 1.17468 0.55952 0.59037
 H804 H 1.18338 0.55108 0.60566
 O805 O 0.91317 0.37983 0.52329
 O806 O 0.88525 0.35164 0.52323
 C807 C 0.90478 0.36021 0.53148
 C808 C 0.91758 0.34761 0.55120
 C809 C 0.90950 0.32516 0.55957
 H810 H 0.89419 0.31648 0.55117
 O811 O 1.08692 0.61954 0.52314
 O812 O 1.11484 0.64773 0.52318
 C813 C 1.09528 0.63916 0.53135
 C814 C 1.08239 0.65176 0.55098
 C815 C 1.09025 0.67435 0.55916
 H816 H 1.10546 0.68312 0.55067
 Cu817 Cu 1.10077 0.49972 0.60028
 Cu818 Cu 1.13443 0.49971 0.63401
 Cu819 Cu 0.89939 0.49957 0.60025
 Cu820 Cu 0.86571 0.49957 0.63394
 Cu821 Cu 0.99996 0.60016 0.60023
 Cu822 Cu 0.99994 0.63385 0.63391
 Cu823 Cu 1.00011 0.39910 0.60034
 Cu824 Cu 1.00020 0.36540 0.63402
 C825 C 1.06279 0.56238 0.64074
 H826 H 1.05684 0.55642 0.62316
 C827 C 1.07880 0.57843 0.68566
 C828 C 0.93732 0.43685 0.64081
 H829 H 0.94336 0.44288 0.62328
 C830 C 0.92107 0.42062 0.68559
 C831 C 1.06272 0.64070 0.56243
 H832 H 1.05676 0.62314 0.55645
 C833 C 1.07876 0.68558 0.57854
 C834 C 0.93736 0.35856 0.56257
 H835 H 0.94348 0.37602 0.55644
 C836 C 0.92088 0.31396 0.57907
 C837 C 1.14121 0.56258 0.56256
 H838 H 1.12373 0.55648 0.55646
 C839 C 1.18587 0.57899 0.57897
 C840 C 0.85891 0.43681 0.56247
 H841 H 0.87641 0.44289 0.55641
 C842 C 0.81420 0.42046 0.57876
 C843 C 0.93718 0.56235 0.64071
 H844 H 0.94319 0.55634 0.62317
 C845 C 0.92101 0.57853 0.68553
 C846 C 1.06297 0.43688 0.64076
 H847 H 1.05694 0.44291 0.62323
 C848 C 1.07921 0.42067 0.68558
 C849 C 1.14132 0.43703 0.56243
 H850 H 1.12377 0.44302 0.55642
 C851 C 1.18617 0.42090 0.57861
 C852 C 0.85889 0.56231 0.56236
 H853 H 0.87643 0.55630 0.55636
 C854 C 0.81407 0.57850 0.57850
 C855 C 0.93716 0.64061 0.56237
 H856 H 0.94316 0.62306 0.55639
 C857 C 0.92101 0.68546 0.57847
 C858 C 1.06298 0.35877 0.56244
 H859 H 1.05697 0.37632 0.55643
 C860 C 1.07916 0.31393 0.57861
 O861 O 1.08724 0.47637 0.37960
 O862 O 1.11526 0.47637 0.35151
 C863 C 1.09569 0.46815 0.36003
 C864 C 1.08291 0.44845 0.34743
 C865 C 1.09095 0.44012 0.32495
 H866 H 1.10623 0.44857 0.31625
 O867 O 0.91319 0.52315 0.37970
 O868 O 0.88523 0.52315 0.35152
 C869 C 0.90478 0.53136 0.36008
 C870 C 0.91762 0.55103 0.34747
 C871 C 0.90964 0.55930 0.32494
 H872 H 0.89437 0.55086 0.31622
 O873 O 0.97668 0.61942 0.41265
 O874 O 0.97659 0.64762 0.38471
 C875 C 0.96843 0.63903 0.40428
 C876 C 0.94879 0.65162 0.41716
 C877 C 0.94064 0.67424 0.40932
 H878 H 0.94915 0.68303 0.39413
 O879 O 1.02395 0.37992 0.41265
 O880 O 1.02393 0.35176 0.38470
 C881 C 1.03214 0.36031 0.40425
 C882 C 1.05181 0.34769 0.41709
 C883 C 1.06011 0.32519 0.40909
 H884 H 1.05169 0.31650 0.39379
 O885 O 1.12015 0.41288 0.47614
 O886 O 1.14832 0.38491 0.47617
 C887 C 1.13976 0.40447 0.46794
 C888 C 1.15236 0.41731 0.44826
 C889 C 1.17489 0.40933 0.44000
 H890 H 1.18362 0.39407 0.44846
 O891 O 0.88011 0.58646 0.47610
 O892 O 0.85197 0.61446 0.47602
 C893 C 0.86052 0.59488 0.46785
 C894 C 0.84793 0.58204 0.44818
 C895 C 0.82538 0.58999 0.43993
 H896 H 0.81663 0.60523 0.44839
 O897 O 1.02367 0.58662 0.37961
 O898 O 1.02362 0.61466 0.35151
 C899 C 1.03187 0.59509 0.36003
 C900 C 1.05159 0.58234 0.34742
 C901 C 1.05990 0.59044 0.32495
 H902 H 1.05144 0.60573 0.31627
 O903 O 0.97699 0.41291 0.37972
 O904 O 0.97692 0.38491 0.35162
 C905 C 0.96874 0.40449 0.36014
 C906 C 0.94908 0.41733 0.34752
 C907 C 0.94092 0.40941 0.32494
 H908 H 0.94945 0.39420 0.31620
 O909 O 1.12008 0.52329 0.41264
 O910 O 1.14828 0.52337 0.38473
 C911 C 1.13970 0.53153 0.40429
 C912 C 1.15227 0.55116 0.41720
 C913 C 1.17483 0.55942 0.40933
 H914 H 1.18360 0.55099 0.39408
 O915 O 0.88030 0.47615 0.41262
 O916 O 0.85219 0.47608 0.38461
 C917 C 0.86072 0.46790 0.40419
 C918 C 0.84813 0.44822 0.41703
 C919 C 0.82563 0.43993 0.40902
 H920 H 0.81692 0.44836 0.39373
 O921 O 1.08701 0.61959 0.47620
 O922 O 1.11494 0.64776 0.47618
 C923 C 1.09540 0.63919 0.46797
 C924 C 1.08255 0.65179 0.44828
 C925 C 1.09047 0.67434 0.44004
 H926 H 1.10570 0.68309 0.44852
 O927 O 0.91341 0.37999 0.47634
 O928 O 0.88552 0.35177 0.47622
 C929 C 0.90509 0.36037 0.46810
 C930 C 0.91803 0.34779 0.44849
 C931 C 0.91025 0.32514 0.44040
 H932 H 0.89508 0.31635 0.44892
 O933 O 0.91329 0.47622 0.37972
 O934 O 0.88535 0.47616 0.35154
 C935 C 0.90493 0.46800 0.36011
 C936 C 0.91785 0.44840 0.34750
 C937 C 0.90997 0.44020 0.32491
 H938 H 0.89471 0.44865 0.31616
 O939 O 1.08723 0.52332 0.37958
 O940 O 1.11525 0.52340 0.35150
 C941 C 1.09566 0.53157 0.36001
 C942 C 1.08282 0.55126 0.34740
 C943 C 1.09086 0.55965 0.32494
 H944 H 1.10618 0.55128 0.31624
 O945 O 0.97701 0.38005 0.41278
 O946 O 0.97694 0.35188 0.38485
 C947 C 0.96879 0.36044 0.40442
 C948 C 0.94918 0.34782 0.41734
 C949 C 0.94110 0.32517 0.40953
 H950 H 0.94963 0.31640 0.39435
 O951 O 1.02362 0.61949 0.41262
 O952 O 1.02357 0.64769 0.38468
 C953 C 1.03179 0.63912 0.40424
 C954 C 1.05142 0.65175 0.41710
 C955 C 1.05963 0.67430 0.40915
 H956 H 1.05116 0.68302 0.39388
 O957 O 0.88027 0.41276 0.47624
 O958 O 0.85221 0.38471 0.47612
 C959 C 0.86072 0.40430 0.46795
 C960 C 0.84813 0.41711 0.44824
 C961 C 0.82563 0.40910 0.43994
 H962 H 0.81691 0.39384 0.44841
 O963 O 1.11995 0.58662 0.47626
 O964 O 1.14805 0.61463 0.47625
 C965 C 1.13954 0.59505 0.46806
 C966 C 1.15219 0.58223 0.44842
 C967 C 1.17475 0.59020 0.44026
 H968 H 1.18346 0.60542 0.44878
 O969 O 1.02393 0.41288 0.37968
 O970 O 1.02392 0.38487 0.35158
 C971 C 1.03213 0.40444 0.36009
 C972 C 1.05181 0.41726 0.34746
 C973 C 1.06014 0.40922 0.32498
 H974 H 1.05174 0.39391 0.31630
 O975 O 0.97671 0.58654 0.37964
 O976 O 0.97661 0.61457 0.35154
 C977 C 0.96845 0.59498 0.36006
 C978 C 0.94878 0.58215 0.34746
 C979 C 0.94051 0.59014 0.32493
 H980 H 0.94897 0.60539 0.31620
 O981 O 0.88022 0.52308 0.41262
 O982 O 0.85210 0.52309 0.38461
 C983 C 0.86062 0.53128 0.40419
 C984 C 0.84797 0.55092 0.41703
 C985 C 0.82542 0.55914 0.40906
 H986 H 0.81671 0.55068 0.39380
 O987 O 1.12013 0.47635 0.41262
 O988 O 1.14832 0.47636 0.38469
 C989 C 1.13975 0.46815 0.40424
 C990 C 1.15235 0.44847 0.41710
 C991 C 1.17488 0.44021 0.40913
 H992 H 1.18359 0.44867 0.39387
 O993 O 1.08729 0.37986 0.47616
 O994 O 1.11530 0.35173 0.47619
 C995 C 1.09573 0.36026 0.46797
 C996 C 1.08293 0.34766 0.44828
 C997 C 1.09096 0.32516 0.43999
 H998 H 1.10623 0.31645 0.44844
 O999 O 0.91312 0.61933 0.47613
 O1000 O 0.88516 0.64749 0.47606
 C1001 C 0.90474 0.63894 0.46790
 C1002 C 0.91763 0.65157 0.44829
 C1003 C 0.90977 0.67419 0.44016
 H1004 H 0.89455 0.68294 0.44867
 Cu1005 Cu 1.10086 0.49983 0.39890
 Cu1006 Cu 1.13460 0.49988 0.36529
 Cu1007 Cu 0.89955 0.49965 0.39897
 Cu1008 Cu 0.86590 0.49961 0.36525
 Cu1009 Cu 1.10067 0.60030 0.49970
 Cu1010 Cu 1.13429 0.63404 0.49972
 Cu1011 Cu 1.10089 0.39920 0.49962
 Cu1012 Cu 1.13460 0.36553 0.49970
 Cu1013 Cu 0.89939 0.60010 0.49959
 Cu1014 Cu 0.86571 0.63380 0.49953
 Cu1015 Cu 0.89955 0.39914 0.49978
 Cu1016 Cu 0.86596 0.36538 0.49966
 Cu1017 Cu 1.00018 0.60020 0.39893
 Cu1018 Cu 1.00009 0.63395 0.36529
 Cu1019 Cu 1.00048 0.39925 0.39900
 Cu1020 Cu 1.00041 0.36553 0.36537
 C1021 C 1.06317 0.43703 0.35841
 H1022 H 1.05708 0.44313 0.37589
 C1023 C 1.07959 0.42064 0.31377
 C1024 C 0.93736 0.56243 0.35847
 H1025 H 0.94341 0.55638 0.37599
 C1026 C 0.92107 0.57873 0.31371
 C1027 C 0.93731 0.64054 0.43681
 H1028 H 0.94327 0.62296 0.44276
 C1029 C 0.92126 0.68549 0.42081
 C1030 C 1.06320 0.35865 0.43685
 H1031 H 1.05711 0.37615 0.44292
 C1032 C 1.07956 0.31396 0.42051
 C1033 C 1.14135 0.43704 0.43683
 H1034 H 1.12384 0.44309 0.44287
 C1035 C 1.18611 0.42077 0.42056
 C1036 C 0.85896 0.56235 0.43675
 H1037 H 0.87649 0.55633 0.44279
 C1038 C 0.81416 0.57855 0.42050
 C1039 C 1.06302 0.56259 0.35837
 H1040 H 1.05693 0.55645 0.37584
 C1041 C 1.07941 0.57912 0.31375
 C1042 C 0.93757 0.43699 0.35853
 H1043 H 0.94355 0.44298 0.37609
 C1044 C 0.92149 0.42083 0.31367
 C1045 C 1.14121 0.56255 0.43691
 H1046 H 1.12367 0.55651 0.44289
 C1047 C 1.18603 0.57881 0.42085
 C1048 C 0.85912 0.43684 0.43680
 H1049 H 0.87661 0.44291 0.44288
 C1050 C 0.81441 0.42049 0.42046
 C1051 C 1.06286 0.64075 0.43683
 H1052 H 1.05686 0.62322 0.44287
 C1053 C 1.07902 0.68556 0.42060
 C1054 C 0.93767 0.35887 0.43699
 H1055 H 0.94357 0.37647 0.44291
 C1056 C 0.92177 0.31388 0.42105
 O1057 O 0.47633 0.91320 0.38032
 O1058 O 0.47631 0.88526 0.35215
 C1059 C 0.46812 0.90482 0.36071
 C1060 C 0.44849 0.91770 0.34808
 C1061 C 0.44026 0.90974 0.32553
 H1062 H 0.44872 0.89447 0.31683
 O1063 O 0.52355 1.08735 0.38035
 O1064 O 0.52357 1.11528 0.35214
 C1065 C 0.53175 1.09572 0.36072
 C1066 C 0.55138 1.08283 0.34812
 C1067 C 0.55961 1.09076 0.32556
 H1068 H 0.55116 1.10603 0.31683
 O1069 O 0.37999 0.97686 0.41315
 O1070 O 0.35191 0.97689 0.38510
 C1071 C 0.36040 0.96868 0.40469
 C1072 C 0.34775 0.94902 0.41750
 C1073 C 0.32522 0.94081 0.40950
 H1074 H 0.31652 0.94930 0.39423
 O1075 O 0.61973 1.02361 0.41334
 O1076 O 0.64788 1.02359 0.38538
 C1077 C 0.63935 1.03178 0.40495
 C1078 C 0.65201 1.05137 0.41783
 C1079 C 0.67465 1.05944 0.40998
 H1080 H 0.68340 1.05089 0.39479
 O1081 O 0.41283 0.88031 0.47656
 O1082 O 0.38480 0.85223 0.47655
 C1083 C 0.40438 0.86072 0.46836
 C1084 C 0.41722 0.84808 0.44873
 C1085 C 0.40926 0.82554 0.44049
 H1086 H 0.39399 0.81683 0.44895
 O1087 O 0.58709 1.12026 0.47664
 O1088 O 0.61511 1.14834 0.47658
 C1089 C 0.59554 1.13983 0.46839
 C1090 C 0.58272 1.15244 0.44868
 C1091 C 0.59077 1.17491 0.44033
 H1092 H 0.60608 1.18359 0.44873
 O1093 O 0.41314 1.02371 0.38031
 O1094 O 0.38525 1.02380 0.35208
 C1095 C 0.40481 1.03194 0.36068
 C1096 C 0.41775 1.05154 0.34807
 C1097 C 0.40999 1.05959 0.32539
 H1098 H 0.39484 1.05104 0.31658
 O1099 O 0.58670 0.97675 0.38038
 O1100 O 0.61467 0.97668 0.35225
 C1101 C 0.59509 0.96853 0.36079
 C1102 C 0.58222 0.94890 0.34817
 C1103 C 0.59011 0.94074 0.32558
 H1104 H 0.60532 0.94924 0.31683
 O1105 O 0.52325 0.88017 0.41326
 O1106 O 0.52329 0.85207 0.38524
 C1107 C 0.53147 0.86058 0.40483
 C1108 C 0.55113 0.84795 0.41767
 C1109 C 0.55939 0.82542 0.40970
 H1110 H 0.55093 0.81671 0.39444
 O1111 O 0.47661 1.12038 0.41320
 O1112 O 0.47657 1.14846 0.38515
 C1113 C 0.46838 1.13996 0.40473
 C1114 C 0.44869 1.15258 0.41752
 C1115 C 0.44045 1.17511 0.40952
 H1116 H 0.44893 1.18383 0.39428
 O1117 O 0.38000 1.08741 0.47636
 O1118 O 0.35187 1.11541 0.47630
 C1119 C 0.36042 1.09584 0.46811
 C1120 C 0.34783 1.08302 0.44841
 C1121 C 0.32535 1.09105 0.44004
 H1122 H 0.31664 1.10635 0.44843
 O1123 O 0.61957 0.91313 0.47669
 O1124 O 0.64772 0.88516 0.47673
 C1125 C 0.63918 0.90472 0.46852
 C1126 C 0.65182 0.91758 0.44889
 C1127 C 0.67441 0.90967 0.44074
 H1128 H 0.68314 0.89443 0.44923
 O1129 O 0.47663 1.08729 0.38040
 O1130 O 0.47660 1.11520 0.35218
 C1131 C 0.46843 1.09564 0.36076
 C1132 C 0.44885 1.08271 0.34812
 C1133 C 0.44081 1.09048 0.32543
 H1134 H 0.44935 1.10567 0.31665
 O1135 O 0.52326 0.91321 0.38039
 O1136 O 0.52330 0.88528 0.35221
 C1137 C 0.53147 0.90484 0.36077
 C1138 C 0.55110 0.91773 0.34817
 C1139 C 0.55928 0.90986 0.32558
 H1140 H 0.55079 0.89464 0.31683
 O1141 O 0.61969 0.97668 0.41330
 O1142 O 0.64783 0.97660 0.38533
 C1143 C 0.63928 0.96843 0.40490
 C1144 C 0.65187 0.94876 0.41776
 C1145 C 0.67445 0.94057 0.40989
 H1146 H 0.68322 0.94907 0.39468
 O1147 O 0.38001 1.02381 0.41306
 O1148 O 0.35195 1.02390 0.38499
 C1149 C 0.36046 1.03208 0.40458
 C1150 C 0.34786 1.05181 0.41734
 C1151 C 0.32538 1.06012 0.40926
 H1152 H 0.31669 1.05166 0.39398
 O1153 O 0.41298 1.12032 0.47642
 O1154 O 0.38501 1.14848 0.47638
 C1155 C 0.40459 1.13994 0.46821
 C1156 C 0.41747 1.15256 0.44858
 C1157 C 0.40951 1.17509 0.44031
 H1158 H 0.39422 1.18381 0.44872
 O1159 O 0.58667 0.88014 0.47668
 O1160 O 0.61466 0.85200 0.47673
 C1161 C 0.59510 0.86054 0.46850
 C1162 C 0.58228 0.84793 0.44883
 C1163 C 0.59025 0.82540 0.44058
 H1164 H 0.60552 0.81667 0.44904
 O1165 O 0.58683 1.02370 0.38032
 O1166 O 0.61481 1.02368 0.35220
 C1167 C 0.59526 1.03191 0.36073
 C1168 C 0.58245 1.05160 0.34812
 C1169 C 0.59040 1.05982 0.32556
 H1170 H 0.60563 1.05131 0.31683
 O1171 O 0.41293 0.97677 0.38021
 O1172 O 0.38502 0.97681 0.35200
 C1173 C 0.40455 0.96858 0.36059
 C1174 C 0.41737 0.94889 0.34801
 C1175 C 0.40943 0.94064 0.32546
 H1176 H 0.39419 0.94912 0.31671
 O1177 O 0.52357 1.12032 0.41326
 O1178 O 0.52359 1.14841 0.38521
 C1179 C 0.53180 1.13989 0.40479
 C1180 C 0.55152 1.15247 0.41757
 C1181 C 0.55984 1.17494 0.40951
 H1182 H 0.55139 1.18364 0.39422
 O1183 O 0.47631 0.88021 0.41324
 O1184 O 0.47629 0.85210 0.38523
 C1185 C 0.46809 0.86063 0.40480
 C1186 C 0.44841 0.84803 0.41762
 C1187 C 0.44016 0.82549 0.40967
 H1188 H 0.44864 0.81675 0.39444
 O1189 O 0.61986 1.08712 0.47676
 O1190 O 0.64807 1.11503 0.47671
 C1191 C 0.63949 1.09547 0.46855
 C1192 C 0.65209 1.08253 0.44895
 C1193 C 0.67472 1.09031 0.44082
 H1194 H 0.68352 1.10550 0.44933
 O1195 O 0.37992 0.91332 0.47650
 O1196 O 0.35173 0.88541 0.47649
 C1197 C 0.36030 0.90495 0.46829
 C1198 C 0.34771 0.91783 0.44862
 C1199 C 0.32518 0.90990 0.44034
 H1200 H 0.31645 0.89463 0.44877
 Cu1201 Cu 0.49978 0.89949 0.39961
 Cu1202 Cu 0.49980 0.86586 0.36589
 Cu1203 Cu 0.50009 1.10105 0.39962
 Cu1204 Cu 0.50008 1.13466 0.36585
 Cu1205 Cu 0.39931 1.00028 0.39950
 Cu1206 Cu 0.36571 1.00036 0.36571
 Cu1207 Cu 0.60043 1.00019 0.39964
 Cu1208 Cu 0.63412 1.00013 0.36597
 C1209 C 0.43707 0.93743 0.35905
 H1210 H 0.44310 0.94346 0.37658
 C1211 C 0.42086 0.92119 0.31426
 C1212 C 0.56277 1.06308 0.35913
 H1213 H 0.55675 1.05707 0.37666
 C1214 C 0.57899 1.07927 0.31432
 C1215 C 0.35873 0.93756 0.43723
 H1216 H 0.37625 0.94357 0.44329
 C1217 C 0.31397 0.92137 0.42090
 C1218 C 0.64099 1.06290 0.43748
 H1219 H 0.62340 1.05700 0.44342
 C1220 C 0.68597 1.07877 0.42147
 C1221 C 0.43696 0.85905 0.43731
 H1222 H 0.44300 0.87657 0.44334
 C1223 C 0.42071 0.81428 0.42109
 C1224 C 0.56293 1.14149 0.43733
 H1225 H 0.55683 1.12402 0.44344
 C1226 C 0.57934 1.18613 0.42087
 C1227 C 0.43734 1.06307 0.35918
 H1228 H 0.44322 1.05718 0.37681
 C1229 C 0.42152 1.07893 0.31411
 C1230 C 0.56255 0.93742 0.35920
 H1231 H 0.55657 0.94339 0.37676
 C1232 C 0.57865 0.92135 0.31432
 C1233 C 0.56255 0.85893 0.43740
 H1234 H 0.55651 0.87645 0.44344
 C1235 C 0.57882 0.81418 0.42114
 C1236 C 0.43723 1.14157 0.43722
 H1237 H 0.44326 1.12405 0.44328
 C1238 C 0.42098 1.18633 0.42090
 C1239 C 0.35882 1.06323 0.43708
 H1240 H 0.37629 1.05714 0.44320
 C1241 C 0.31416 1.07961 0.42059
 C1242 C 0.64082 0.93729 0.43743
 H1243 H 0.62326 0.94329 0.44340
 C1244 C 0.68569 0.92116 0.42136
 O1245 O 0.52311 0.91336 0.61988
 O1246 O 0.52316 0.88542 0.64808
 C1247 C 0.53134 0.90498 0.63949
 C1248 C 0.55100 0.91784 0.65209
 C1249 C 0.55916 0.90995 0.67469
 H1250 H 0.55066 0.89474 0.68345
 O1251 O 0.47645 1.08733 0.61982
 O1252 O 0.47641 1.11530 0.64795
 C1253 C 0.46822 1.09574 0.63941
 C1254 C 0.44855 1.08291 0.65201
 C1255 C 0.44031 1.09089 0.67454
 H1256 H 0.44878 1.10613 0.68326
 O1257 O 0.38001 1.02389 0.58686
 O1258 O 0.35184 1.02396 0.61481
 C1259 C 0.36040 1.03212 0.59523
 C1260 C 0.34779 1.05175 0.58233
 C1261 C 0.32520 1.05994 0.59020
 H1262 H 0.31644 1.05146 0.60543
 O1263 O 0.61968 0.97684 0.58694
 O1264 O 0.64778 0.97671 0.61497
 C1265 C 0.63925 0.96856 0.59537
 C1266 C 0.65183 0.94889 0.58253
 C1267 C 0.67443 0.94071 0.59042
 H1268 H 0.68321 0.94923 0.60561
 O1269 O 0.58658 0.88024 0.52362
 O1270 O 0.61456 0.85209 0.52373
 C1271 C 0.59498 0.86064 0.53188
 C1272 C 0.58210 0.84805 0.55152
 C1273 C 0.58998 0.82546 0.55972
 H1274 H 0.60521 0.81670 0.55124
 O1275 O 0.41295 1.12028 0.52336
 O1276 O 0.38497 1.14844 0.52338
 C1277 C 0.40454 1.13988 0.53158
 C1278 C 0.41740 1.15248 0.55124
 C1279 C 0.40946 1.17503 0.55946
 H1280 H 0.39421 1.18377 0.55100
 O1281 O 0.41289 0.97695 0.61993
 O1282 O 0.38488 0.97696 0.64803
 C1283 C 0.40445 0.96874 0.63952
 C1284 C 0.41725 0.94905 0.65215
 C1285 C 0.40925 0.94081 0.67468
 H1286 H 0.39400 0.94930 0.68338
 O1287 O 0.58677 1.02378 0.61990
 O1288 O 0.61471 1.02371 0.64810
 C1289 C 0.59517 1.03195 0.63952
 C1290 C 0.58234 1.05162 0.65213
 C1291 C 0.59030 1.05983 0.67468
 H1292 H 0.60553 1.05133 0.68342
 O1293 O 0.47614 0.88035 0.58705
 O1294 O 0.47612 0.85225 0.61508
 C1295 C 0.46792 0.86077 0.59550
 C1296 C 0.44825 0.84816 0.58266
 C1297 C 0.43997 0.82565 0.59066
 H1298 H 0.44839 0.81694 0.60595
 O1299 O 0.52342 1.12028 0.58692
 O1300 O 0.52343 1.14842 0.61489
 C1301 C 0.53164 1.13988 0.59534
 C1302 C 0.55132 1.15247 0.58251
 C1303 C 0.55959 1.17499 0.59048
 H1304 H 0.55112 1.18373 0.60572
 O1305 O 0.37998 0.91342 0.52344
 O1306 O 0.35177 0.88551 0.52349
 C1307 C 0.36036 0.90507 0.53166
 C1308 C 0.34776 0.91797 0.55128
 C1309 C 0.32517 0.91011 0.55945
 H1310 H 0.31641 0.89490 0.55097
 O1311 O 0.61996 1.08732 0.52370
 O1312 O 0.64813 1.11525 0.52372
 C1313 C 0.63956 1.09571 0.53194
 C1314 C 0.65212 1.08288 0.55167
 C1315 C 0.67457 1.09091 0.56007
 H1316 H 0.68328 1.10622 0.55169
 O1317 O 0.52339 1.08731 0.61987
 O1318 O 0.52341 1.11528 0.64801
 C1319 C 0.53160 1.09571 0.63948
 C1320 C 0.55124 1.08283 0.65211
 C1321 C 0.55949 1.09076 0.67466
 H1322 H 0.55104 1.10603 0.68339
 O1323 O 0.47618 0.91333 0.61997
 O1324 O 0.47616 0.88538 0.64816
 C1325 C 0.46797 0.90495 0.63959
 C1326 C 0.44833 0.91783 0.65219
 C1327 C 0.44004 0.90987 0.67471
 H1328 H 0.44846 0.89458 0.68344
 O1329 O 0.61982 1.02379 0.58706
 O1330 O 0.64791 1.02371 0.61510
 C1331 C 0.63941 1.03197 0.59554
 C1332 C 0.65205 1.05168 0.58278
 C1333 C 0.67450 1.05999 0.59090
 H1334 H 0.68316 1.05154 0.60621
 O1335 O 0.38002 0.97696 0.58689
 O1336 O 0.35185 0.97697 0.61483
 C1337 C 0.36041 0.96877 0.59527
 C1338 C 0.34778 0.94913 0.58241
 C1339 C 0.32519 0.94098 0.59030
 H1340 H 0.31644 0.94948 0.60552
 O1341 O 0.58694 1.12020 0.52358
 O1342 O 0.61495 1.14830 0.52359
 C1343 C 0.59536 1.13979 0.53178
 C1344 C 0.58251 1.15243 0.55141
 C1345 C 0.59048 1.17495 0.55965
 H1346 H 0.60576 1.18365 0.55121
 O1347 O 0.41280 0.88034 0.52351
 O1348 O 0.38476 0.85227 0.52356
 C1349 C 0.40434 0.86077 0.53176
 C1350 C 0.41715 0.84817 0.55146
 C1351 C 0.40914 0.82566 0.55974
 H1352 H 0.39389 0.81695 0.55127
 O1353 O 0.58670 0.97684 0.61986
 O1354 O 0.61464 0.97672 0.64805
 C1355 C 0.59507 0.96859 0.63948
 C1356 C 0.58217 0.94896 0.65208
 C1357 C 0.59005 0.94078 0.67468
 H1358 H 0.60527 0.94925 0.68344
 O1359 O 0.41295 1.02389 0.61985
 O1360 O 0.38495 1.02397 0.64795
 C1361 C 0.40453 1.03214 0.63943
 C1362 C 0.41738 1.05180 0.65202
 C1363 C 0.40942 1.06006 0.67456
 H1364 H 0.39416 1.05162 0.68329
 O1365 O 0.47647 1.12026 0.58684
 O1366 O 0.47643 1.14840 0.61481
 C1367 C 0.46824 1.13986 0.59524
 C1368 C 0.44858 1.15247 0.58238
 C1369 C 0.44036 1.17502 0.59031
 H1370 H 0.44884 1.18375 0.60555
 O1371 O 0.52308 0.88031 0.58704
 O1372 O 0.52312 0.85220 0.61507
 C1373 C 0.53130 0.86072 0.59548
 C1374 C 0.55094 0.84808 0.58264
 C1375 C 0.55911 0.82549 0.59056
 H1376 H 0.55061 0.81675 0.60579
 O1377 O 0.61953 0.91317 0.52362
 O1378 O 0.64768 0.88520 0.52372
 C1379 C 0.63913 0.90478 0.53186
 C1380 C 0.65177 0.91768 0.55146
 C1381 C 0.67436 0.90979 0.55963
 H1382 H 0.68309 0.89454 0.55116
 O1383 O 0.38001 1.08733 0.52330
 O1384 O 0.35187 1.11532 0.52331
 C1385 C 0.36041 1.09574 0.53150
 C1386 C 0.34778 1.08287 0.55114
 C1387 C 0.32520 1.09078 0.55929
 H1388 H 0.31645 1.10600 0.55078
 Cu1389 Cu 0.49962 0.89963 0.60068
 Cu1390 Cu 0.49965 0.86600 0.63442
 Cu1391 Cu 0.49994 1.10100 0.60056
 Cu1392 Cu 0.49992 1.13467 0.63423
 Cu1393 Cu 0.39919 0.89964 0.50000
 Cu1394 Cu 0.36544 0.86604 0.50003
 Cu1395 Cu 0.60028 0.89947 0.50015
 Cu1396 Cu 0.63398 0.86579 0.50024
 Cu1397 Cu 0.39929 1.10103 0.49986
 Cu1398 Cu 0.36561 1.13473 0.49984
 Cu1399 Cu 0.60066 1.10093 0.50017
 Cu1400 Cu 0.63439 1.13454 0.50014
 Cu1401 Cu 0.39928 1.00042 0.60059
 Cu1402 Cu 0.36556 1.00047 0.63422
 Cu1403 Cu 0.60045 1.00033 0.60063
 Cu1404 Cu 0.63408 1.00019 0.63438
 C1405 C 0.56248 0.93751 0.64104
 H1406 H 0.55650 0.94349 0.62348
 C1407 C 0.57856 0.92140 0.68595
 C1408 C 0.43711 1.06320 0.64102
 H1409 H 0.44314 1.05716 0.62350
 C1410 C 0.42087 1.07948 0.68578
 C1411 C 0.35882 1.06320 0.56263
 H1412 H 0.37638 1.05720 0.55667
 C1413 C 0.31394 1.07932 0.57869
 C1414 C 0.64077 0.93740 0.56288
 H1415 H 0.62320 0.94339 0.55691
 C1416 C 0.68565 0.92129 0.57898
 C1417 C 0.56241 0.85909 0.56295
 H1418 H 0.55643 0.87665 0.55695
 C1419 C 0.57850 0.81422 0.57911
 C1420 C 0.43712 1.14146 0.56268
 H1421 H 0.44314 1.12392 0.55666
 C1422 C 0.42093 1.18626 0.57887
 C1423 C 0.43695 0.93758 0.64117
 H1424 H 0.44302 0.94362 0.62366
 C1425 C 0.42063 0.92134 0.68592
 C1426 C 0.56265 1.06310 0.64111
 H1427 H 0.55661 1.05709 0.62358
 C1428 C 0.57889 1.07927 0.68591
 C1429 C 0.43687 0.85915 0.56290
 H1430 H 0.44293 0.87665 0.55683
 C1431 C 0.42054 0.81444 0.57921
 C1432 C 0.56276 1.14145 0.56281
 H1433 H 0.55671 1.12394 0.55677
 C1434 C 0.57904 1.18620 0.57906
 C1435 C 0.35881 0.93765 0.56274
 H1436 H 0.37637 0.94361 0.55675
 C1437 C 0.31393 0.92160 0.57883
 C1438 C 0.64112 1.06310 0.56300
 H1439 H 0.62366 1.05701 0.55684
 C1440 C 0.68573 1.07949 0.57957
 O1441 O 0.58680 0.52327 1.12041
 O1442 O 0.61480 0.52330 1.14854
 C1443 C 0.59522 0.53150 1.14000
 C1444 C 0.58239 0.55118 1.15258
 C1445 C 0.59035 0.55946 1.17510
 H1446 H 0.60561 0.55100 1.18385
 O1447 O 0.41288 0.47642 1.12025
 O1448 O 0.38491 0.47640 1.14840
 C1449 C 0.40448 0.46820 1.13986
 C1450 C 0.41732 0.44853 1.15248
 C1451 C 0.40933 0.44026 1.17499
 H1452 H 0.39405 0.44871 1.18369
 O1453 O 0.52332 0.61969 1.08726
 O1454 O 0.52336 0.64784 1.11522
 C1455 C 0.53154 0.63929 1.09565
 C1456 C 0.55117 0.65189 1.08278
 C1457 C 0.55934 0.67448 1.09065
 H1458 H 0.55084 0.68325 1.10586
 O1459 O 0.47653 0.38023 1.08730
 O1460 O 0.47645 0.35201 1.11521
 C1461 C 0.46831 0.36060 1.09563
 C1462 C 0.44873 0.34799 1.08268
 C1463 C 0.44069 0.32531 1.09042
 H1464 H 0.44923 0.31650 1.10559
 O1465 O 0.61975 0.58666 1.02388
 O1466 O 0.64788 0.61464 1.02390
 C1467 C 0.63934 0.59507 1.03210
 C1468 C 0.65195 0.58224 1.05179
 C1469 C 0.67451 0.59018 1.06001
 H1470 H 0.68324 0.60541 1.05151
 O1471 O 0.37988 0.41308 1.02377
 O1472 O 0.35180 0.38506 1.02383
 C1473 C 0.36031 0.40463 1.03202
 C1474 C 0.34772 0.41743 1.05173
 C1475 C 0.32524 0.40939 1.06005
 H1476 H 0.31654 0.39411 1.05161
 O1477 O 0.47641 0.58674 1.12022
 O1478 O 0.47639 0.61472 1.14835
 C1479 C 0.46820 0.59515 1.13982
 C1480 C 0.44855 0.58232 1.15243
 C1481 C 0.44035 0.59027 1.17499
 H1482 H 0.44885 0.60550 1.18371
 O1483 O 0.52341 0.41302 1.12045
 O1484 O 0.52339 0.38497 1.14854
 C1485 C 0.53161 0.40455 1.14004
 C1486 C 0.55130 0.41732 1.15268
 C1487 C 0.55962 0.40924 1.17516
 H1488 H 0.55117 0.39395 1.18384
 O1489 O 0.61973 0.47634 1.08746
 O1490 O 0.64792 0.47630 1.11541
 C1491 C 0.63936 0.46813 1.09584
 C1492 C 0.65198 0.44852 1.08294
 C1493 C 0.67458 0.44033 1.09081
 H1494 H 0.68333 0.44878 1.10605
 O1495 O 0.37991 0.52339 1.08731
 O1496 O 0.35179 0.52344 1.11530
 C1497 C 0.36032 0.53163 1.09573
 C1498 C 0.34773 0.55133 1.08290
 C1499 C 0.32524 0.55965 1.09090
 H1500 H 0.31653 0.55122 1.10618
 O1501 O 0.41294 0.61981 1.02384
 O1502 O 0.38495 0.64795 1.02383
 C1503 C 0.40452 0.63941 1.03204
 C1504 C 0.41735 0.65201 1.05172
 C1505 C 0.40938 0.67455 1.05996
 H1506 H 0.39412 0.68328 1.05150
 O1507 O 0.58686 0.38007 1.02387
 O1508 O 0.61484 0.35191 1.02395
 C1509 C 0.59527 0.36048 1.03212
 C1510 C 0.58244 0.34789 1.05181
 C1511 C 0.59040 0.32535 1.06006
 H1512 H 0.60564 0.31661 1.05159
 O1513 O 0.41288 0.52335 1.12025
 O1514 O 0.38492 0.52340 1.14841
 C1515 C 0.40449 0.53157 1.13986
 C1516 C 0.41736 0.55121 1.15246
 C1517 C 0.40945 0.55945 1.17502
 H1518 H 0.39420 0.55101 1.18376
 O1519 O 0.58688 0.47632 1.12050
 O1520 O 0.61489 0.47628 1.14862
 C1521 C 0.59532 0.46809 1.14010
 C1522 C 0.58250 0.44841 1.15270
 C1523 C 0.59053 0.44005 1.17518
 H1524 H 0.60583 0.44844 1.18389
 O1525 O 0.52346 0.38015 1.08744
 O1526 O 0.52344 0.35194 1.11537
 C1527 C 0.53166 0.36052 1.09583
 C1528 C 0.55132 0.34792 1.08298
 C1529 C 0.55956 0.32537 1.09095
 H1530 H 0.55111 0.31664 1.10621
 O1531 O 0.47638 0.61976 1.08732
 O1532 O 0.47637 0.64790 1.11529
 C1533 C 0.46817 0.63936 1.09573
 C1534 C 0.44850 0.65198 1.08288
 C1535 C 0.44025 0.67452 1.09084
 H1536 H 0.44871 0.68323 1.10611
 O1537 O 0.37997 0.58689 1.02386
 O1538 O 0.35182 0.61487 1.02384
 C1539 C 0.36037 0.59531 1.03206
 C1540 C 0.34776 0.58249 1.05174
 C1541 C 0.32526 0.59052 1.06003
 H1542 H 0.31657 0.60582 1.05159
 O1543 O 0.61978 0.41303 1.02382
 O1544 O 0.64792 0.38504 1.02389
 C1545 C 0.63937 0.40462 1.03206
 C1546 C 0.65199 0.41746 1.05171
 C1547 C 0.67458 0.40956 1.05986
 H1548 H 0.68334 0.39436 1.05133
 O1549 O 0.47646 0.41304 1.12038
 O1550 O 0.47637 0.38498 1.14846
 C1551 C 0.46819 0.40458 1.13994
 C1552 C 0.44849 0.41739 1.15253
 C1553 C 0.44021 0.40940 1.17504
 H1554 H 0.44866 0.39413 1.18378
 O1555 O 0.52335 0.58678 1.12028
 O1556 O 0.52339 0.61477 1.14840
 C1557 C 0.53158 0.59520 1.13988
 C1558 C 0.55124 0.58235 1.15251
 C1559 C 0.55949 0.59034 1.17504
 H1560 H 0.55104 0.60561 1.18373
 O1561 O 0.37991 0.47645 1.08731
 O1562 O 0.35179 0.47642 1.11529
 C1563 C 0.36032 0.46823 1.09572
 C1564 C 0.34773 0.44855 1.08290
 C1565 C 0.32524 0.44023 1.09093
 H1566 H 0.31655 0.44864 1.10622
 O1567 O 0.61975 0.52327 1.08748
 O1568 O 0.64792 0.52330 1.11544
 C1569 C 0.63936 0.53148 1.09587
 C1570 C 0.65196 0.55113 1.08299
 C1571 C 0.67451 0.55935 1.09092
 H1572 H 0.68324 0.55090 1.10619
 O1573 O 0.41300 0.38029 1.02370
 O1574 O 0.38508 0.35209 1.02375
 C1575 C 0.40465 0.36066 1.03191
 C1576 C 0.41759 0.34802 1.05150
 C1577 C 0.40984 0.32534 1.05953
 H1578 H 0.39468 0.31655 1.05097
 O1579 O 0.58680 0.61962 1.02383
 O1580 O 0.61476 0.64776 1.02385
 C1581 C 0.59519 0.63923 1.03203
 C1582 C 0.58232 0.65186 1.05165
 C1583 C 0.59021 0.67445 1.05980
 H1584 H 0.60543 0.68319 1.05130
 Cu1585 Cu 0.60048 0.49980 1.10117
 Cu1586 Cu 0.63420 0.49980 1.13483
 Cu1587 Cu 0.39919 0.49990 1.10098
 Cu1588 Cu 0.36553 0.49991 1.13467
 Cu1589 Cu 0.49987 0.60044 1.10097
 Cu1590 Cu 0.49988 0.63412 1.13464
 Cu1591 Cu 0.49997 0.39943 1.10110
 Cu1592 Cu 0.49990 0.36565 1.13471
 C1593 C 0.56266 0.56261 1.14155
 H1594 H 0.55662 0.55655 1.12403
 C1595 C 0.57892 0.57891 1.18630
 C1596 C 0.43707 0.43712 1.14151
 H1597 H 0.44313 0.44318 1.12400
 C1598 C 0.42075 0.42082 1.18624
 C1599 C 0.56264 0.64085 1.06312
 H1600 H 0.55666 0.62328 1.05715
 C1601 C 0.57873 0.68573 1.07917
 C1602 C 0.43721 0.35909 1.06305
 H1603 H 0.44308 0.37672 1.05717
 C1604 C 0.42138 0.31403 1.07886
 C1605 C 0.64094 0.56255 1.06326
 H1606 H 0.62341 0.55653 1.05724
 C1607 C 0.68575 0.57875 1.07945
 C1608 C 0.35869 0.43717 1.06313
 H1609 H 0.37617 0.44327 1.05704
 C1610 C 0.31404 0.42077 1.07952
 C1611 C 0.43708 0.56262 1.14144
 H1612 H 0.44308 0.55660 1.12390
 C1613 C 0.42093 0.57885 1.18624
 C1614 C 0.56272 0.43707 1.14172
 H1615 H 0.55663 0.44319 1.12424
 C1616 C 0.57910 0.42059 1.18638
 C1617 C 0.64095 0.43711 1.06322
 H1618 H 0.62338 0.44309 1.05725
 C1619 C 0.68584 0.42097 1.07928
 C1620 C 0.35873 0.56273 1.06315
 H1621 H 0.37622 0.55663 1.05708
 C1622 C 0.31404 0.57912 1.07948
 C1623 C 0.43707 0.64100 1.06315
 H1624 H 0.44311 0.62348 1.05711
 C1625 C 0.42082 0.68576 1.07940
 C1626 C 0.56274 0.35891 1.06325
 H1627 H 0.55670 0.37644 1.05721
 C1628 C 0.57898 0.31412 1.07950
 O1629 O 0.58682 0.47634 0.88046
 O1630 O 0.61479 0.47636 0.85231
 C1631 C 0.59524 0.46814 0.86085
 C1632 C 0.58243 0.44848 0.84824
 C1633 C 0.59042 0.44023 0.82572
 H1634 H 0.60568 0.44871 0.81701
 O1635 O 0.41297 0.52340 0.88028
 O1636 O 0.38497 0.52347 0.85215
 C1637 C 0.40453 0.53165 0.86069
 C1638 C 0.41735 0.55133 0.84809
 C1639 C 0.40935 0.55961 0.82558
 H1640 H 0.39409 0.55115 0.81685
 O1641 O 0.47629 0.61979 0.91336
 O1642 O 0.47630 0.64795 0.88539
 C1643 C 0.46809 0.63940 0.90495
 C1644 C 0.44843 0.65201 0.91778
 C1645 C 0.44015 0.67454 0.90980
 H1646 H 0.44858 0.68326 0.89452
 O1647 O 0.52337 0.37999 0.91343
 O1648 O 0.52339 0.35183 0.88548
 C1649 C 0.53158 0.36038 0.90505
 C1650 C 0.55123 0.34777 0.91793
 C1651 C 0.55948 0.32522 0.91001
 H1652 H 0.55103 0.31649 0.89475
 O1653 O 0.61985 0.41291 0.97687
 O1654 O 0.64798 0.38491 0.97688
 C1655 C 0.63944 0.40448 0.96866
 C1656 C 0.65204 0.41729 0.94897
 C1657 C 0.67455 0.40929 0.94068
 H1658 H 0.68328 0.39402 0.94913
 O1659 O 0.38006 0.58680 0.97691
 O1660 O 0.35189 0.61476 0.97684
 C1661 C 0.36045 0.59519 0.96867
 C1662 C 0.34786 0.58232 0.94902
 C1663 C 0.32525 0.59018 0.94087
 H1664 H 0.31647 0.60538 0.94938
 O1665 O 0.52323 0.58680 0.88047
 O1666 O 0.52331 0.61480 0.85233
 C1667 C 0.53147 0.59521 0.86087
 C1668 C 0.55112 0.58233 0.84827
 C1669 C 0.55930 0.59023 0.82569
 H1670 H 0.55081 0.60546 0.81693
 O1671 O 0.47649 0.41299 0.88040
 O1672 O 0.47645 0.38501 0.85228
 C1673 C 0.46828 0.40459 0.86080
 C1674 C 0.44864 0.41746 0.84816
 C1675 C 0.44045 0.40954 0.82559
 H1676 H 0.44894 0.39431 0.81687
 O1677 O 0.61975 0.52326 0.91343
 O1678 O 0.64787 0.52333 0.88545
 C1679 C 0.63934 0.53149 0.90503
 C1680 C 0.65195 0.55112 0.91789
 C1681 C 0.67451 0.55933 0.90996
 H1682 H 0.68324 0.55087 0.89471
 O1683 O 0.38003 0.47646 0.91323
 O1684 O 0.35188 0.47646 0.88525
 C1685 C 0.36041 0.46827 0.90482
 C1686 C 0.34777 0.44864 0.91768
 C1687 C 0.32524 0.44042 0.90971
 H1688 H 0.31654 0.44887 0.89442
 O1689 O 0.58678 0.61959 0.97690
 O1690 O 0.61474 0.64774 0.97686
 C1691 C 0.59517 0.63920 0.96868
 C1692 C 0.58230 0.65184 0.94904
 C1693 C 0.59019 0.67443 0.94088
 H1694 H 0.60542 0.68316 0.94938
 O1695 O 0.41283 0.38020 0.97676
 O1696 O 0.38489 0.35203 0.97677
 C1697 C 0.40444 0.36059 0.96856
 C1698 C 0.41728 0.34798 0.94889
 C1699 C 0.40927 0.32546 0.94062
 H1700 H 0.39399 0.31677 0.94905
 O1701 O 0.41303 0.47646 0.88033
 O1702 O 0.38505 0.47646 0.85219
 C1703 C 0.40462 0.46826 0.86073
 C1704 C 0.41748 0.44861 0.84812
 C1705 C 0.40957 0.44040 0.82555
 H1706 H 0.39433 0.44888 0.81679
 O1707 O 0.58675 0.52328 0.88050
 O1708 O 0.61472 0.52335 0.85235
 C1709 C 0.59514 0.53152 0.86090
 C1710 C 0.58227 0.55117 0.84829
 C1711 C 0.59016 0.55935 0.82570
 H1712 H 0.60538 0.55086 0.81696
 O1713 O 0.47642 0.38005 0.91337
 O1714 O 0.47638 0.35190 0.88542
 C1715 C 0.46818 0.36047 0.90497
 C1716 C 0.44847 0.34791 0.91779
 C1717 C 0.44018 0.32540 0.90981
 H1718 H 0.44864 0.31667 0.89456
 O1719 O 0.52323 0.61973 0.91342
 O1720 O 0.52331 0.64790 0.88545
 C1721 C 0.53147 0.63932 0.90503
 C1722 C 0.55113 0.65190 0.91791
 C1723 C 0.55930 0.67449 0.91003
 H1724 H 0.55080 0.68327 0.89482
 O1725 O 0.37989 0.41316 0.97681
 O1726 O 0.35178 0.38516 0.97680
 C1727 C 0.36030 0.40473 0.96859
 C1728 C 0.34770 0.41755 0.94890
 C1729 C 0.32516 0.40961 0.94064
 H1730 H 0.31641 0.39437 0.94912
 O1731 O 0.61977 0.58666 0.97693
 O1732 O 0.64790 0.61464 0.97689
 C1733 C 0.63936 0.59508 0.96871
 C1734 C 0.65197 0.58223 0.94906
 C1735 C 0.67453 0.59016 0.94085
 H1736 H 0.68327 0.60539 0.94933
 O1737 O 0.52342 0.41289 0.88041
 O1738 O 0.52345 0.38490 0.85229
 C1739 C 0.53165 0.40446 0.86082
 C1740 C 0.55132 0.41730 0.84822
 C1741 C 0.55961 0.40933 0.82570
 H1742 H 0.55118 0.39406 0.81697
 O1743 O 0.47630 0.58689 0.88036
 O1744 O 0.47631 0.61490 0.85223
 C1745 C 0.46810 0.59533 0.86075
 C1746 C 0.44845 0.58251 0.84812
 C1747 C 0.44017 0.59051 0.82560
 H1748 H 0.44859 0.60580 0.81689
 O1749 O 0.38013 0.52338 0.91334
 O1750 O 0.35197 0.52344 0.88537
 C1751 C 0.36052 0.53160 0.90495
 C1752 C 0.34790 0.55122 0.91784
 C1753 C 0.32529 0.55936 0.90997
 H1754 H 0.31654 0.55087 0.89475
 O1755 O 0.61978 0.47632 0.91340
 O1756 O 0.64791 0.47634 0.88541
 C1757 C 0.63938 0.46812 0.90498
 C1758 C 0.65201 0.44844 0.91781
 C1759 C 0.67452 0.44017 0.90980
 H1760 H 0.68321 0.44862 0.89453
 O1761 O 0.58683 0.38004 0.97692
 O1762 O 0.61480 0.35188 0.97694
 C1763 C 0.59523 0.36042 0.96874
 C1764 C 0.58238 0.34780 0.94909
 C1765 C 0.59034 0.32525 0.94089
 H1766 H 0.60560 0.31653 0.94937
 O1767 O 0.41292 0.61983 0.97689
 O1768 O 0.38492 0.64795 0.97682
 C1769 C 0.40449 0.63941 0.96864
 C1770 C 0.41731 0.65202 0.94896
 C1771 C 0.40932 0.67454 0.94069
 H1772 H 0.39406 0.68326 0.94915
 Cu1773 Cu 0.60047 0.49980 0.89975
 Cu1774 Cu 0.63414 0.49985 0.86606
 Cu1775 Cu 0.39935 0.49992 0.89959
 Cu1776 Cu 0.36564 0.49996 0.86591
 Cu1777 Cu 0.60047 0.60033 1.00038
 Cu1778 Cu 0.63414 0.63401 1.00037
 Cu1779 Cu 0.60053 0.39932 1.00036
 Cu1780 Cu 0.63420 0.36561 1.00042
 Cu1781 Cu 0.39928 0.60053 1.00038
 Cu1782 Cu 0.36557 0.63420 1.00032
 Cu1783 Cu 0.39919 0.39950 1.00026
 Cu1784 Cu 0.36557 0.36577 1.00030
 Cu1785 Cu 0.49976 0.60050 0.89970
 Cu1786 Cu 0.49982 0.63421 0.86603
 Cu1787 Cu 0.49993 0.39929 0.89970
 Cu1788 Cu 0.49992 0.36558 0.86605
 C1789 C 0.56271 0.43703 0.85922
 H1790 H 0.55665 0.44307 0.87673
 C1791 C 0.57903 0.42079 0.81448
 C1792 C 0.43706 0.56275 0.85910
 H1793 H 0.44312 0.55668 0.87661
 C1794 C 0.42074 0.57908 0.81436
 C1795 C 0.43703 0.64102 0.93753
 H1796 H 0.44309 0.62351 0.94359
 C1797 C 0.42072 0.68577 0.92123
 C1798 C 0.56266 0.35879 0.93764
 H1799 H 0.55662 0.37632 0.94365
 C1800 C 0.57891 0.31400 0.92147
 C1801 C 0.64104 0.43703 0.93755
 H1802 H 0.62354 0.44309 0.94362
 C1803 C 0.68575 0.42072 0.92122
 C1804 C 0.35892 0.56267 0.93754
 H1805 H 0.37650 0.55671 0.94350
 C1806 C 0.31400 0.57871 0.92147
 C1807 C 0.56258 0.56264 0.85931
 H1808 H 0.55659 0.55665 0.87687
 C1809 C 0.57869 0.57875 0.81444
 C1810 C 0.43718 0.43716 0.85916
 H1811 H 0.44317 0.44316 0.87671
 C1812 C 0.42105 0.42100 0.81432
 C1813 C 0.64095 0.56254 0.93761
 H1814 H 0.62341 0.55653 0.94361
 C1815 C 0.68576 0.57872 0.92143
 C1816 C 0.35873 0.43724 0.93744
 H1817 H 0.37626 0.44326 0.94349
 C1818 C 0.31397 0.42103 0.92116
 C1819 C 0.56260 0.64084 0.93758
 H1820 H 0.55661 0.62328 0.94355
 C1821 C 0.57870 0.68572 0.92150
 C1822 C 0.43704 0.35893 0.93749
 H1823 H 0.44311 0.37643 0.94355
 C1824 C 0.42071 0.31422 0.92120
 C1825 C 1.13164 1.13049 1.30726
 C1826 C 1.12325 1.12220 1.28905
 C1827 C 1.11359 1.11271 1.26755
 C1828 C 1.10550 1.10480 1.24905
 C1829 C 1.09624 1.09573 1.22720
 C1830 C 1.08853 1.08816 1.20839
 C1831 C 1.12924 0.62922 0.80793
 C1832 C 1.12103 0.62095 0.78965
 C1833 C 1.11164 0.61149 0.76803
 C1834 C 1.10382 0.60361 0.74941
 C1835 C 1.09489 0.59461 0.72741
 C1836 C 1.08746 0.58713 0.70847
 C1837 C 0.63050 1.12982 0.80783
 C1838 C 0.62213 1.12161 0.78958
 C1839 C 0.61252 1.11223 0.76803
 C1840 C 0.60450 1.10442 0.74946
 C1841 C 0.59532 1.09548 0.72753
 C1842 C 0.58770 1.08801 0.70865
 C1843 C 0.63007 0.63037 1.30804
 C1844 C 0.62175 0.62204 1.28982
 C1845 C 0.61225 0.61248 1.26829
 C1846 C 0.60432 0.60449 1.24975
 C1847 C 0.59527 0.59535 1.22786
 C1848 C 0.58772 0.58774 1.20900
 C1849 C 0.87047 0.87058 1.30802
 C1850 C 0.87875 0.87884 1.28976
 C1851 C 0.88824 0.88827 1.26817
 C1852 C 0.89615 0.89612 1.24958
 C1853 C 0.90519 0.90508 1.22760
 C1854 C 0.91271 0.91254 1.20868
 C1855 C 0.86905 0.37032 0.80746
 C1856 C 0.87746 0.37850 0.78921
 C1857 C 0.88716 0.38781 0.76766
 C1858 C 0.89528 0.39556 0.74910
 C1859 C 0.90455 0.40443 0.72719
 C1860 C 0.91222 0.41187 0.70831
 C1861 C 0.36907 0.87019 0.80764
 C1862 C 0.37742 0.87849 0.78942
 C1863 C 0.38700 0.88800 0.76790
 C1864 C 0.39500 0.89593 0.74937
 C1865 C 0.40415 0.90499 0.72748
 C1866 C 0.41178 0.91255 0.70863
 C1867 C 0.36892 0.36999 1.30799
 C1868 C 0.37730 0.37825 1.28976
 C1869 C 0.38695 0.38767 1.26823
 C1870 C 0.39501 0.39552 1.24969
 C1871 C 0.40423 0.40450 1.22779
 C1872 C 0.41189 0.41202 1.20894
 C1873 C 0.86815 1.13085 0.69264
 C1874 C 0.87657 1.12254 0.71084
 C1875 C 0.88626 1.11303 0.73232
 C1876 C 0.89437 1.10508 0.75081
 C1877 C 0.90366 1.09598 0.77265
 C1878 C 0.91140 1.08837 0.79144
 C1879 C 0.86983 0.63019 0.19194
 C1880 C 0.87815 0.62185 0.21016
 C1881 C 0.88767 0.61228 0.23169
 C1882 C 0.89561 0.60429 0.25023
 C1883 C 0.90469 0.59516 0.27213
 C1884 C 0.91226 0.58756 0.29099
 C1885 C 0.37111 1.12882 0.19142
 C1886 C 0.37934 1.12066 0.20975
 C1887 C 0.38876 1.11137 0.23143
 C1888 C 0.39659 1.10365 0.25012
 C1889 C 0.40553 1.09484 0.27220
 C1890 C 0.41294 1.08749 0.29122
 C1891 C 0.36891 0.63006 0.69264
 C1892 C 0.37730 0.62179 0.71086
 C1893 C 0.38695 0.61234 0.73239
 C1894 C 0.39501 0.60446 0.75092
 C1895 C 0.40422 0.59544 0.77281
 C1896 C 0.41188 0.58790 0.79166
 C1897 C 1.12926 0.87036 0.69189
 C1898 C 1.12102 0.87864 0.71016
 C1899 C 1.11162 0.88812 0.73176
 C1900 C 1.10380 0.89603 0.75036
 C1901 C 1.09486 0.90507 0.77234
 C1902 C 1.08742 0.91258 0.79127
 C1903 C 1.13152 0.36939 0.19224
 C1904 C 1.12312 0.37769 0.21045
 C1905 C 1.11347 0.38718 0.23194
 C1906 C 1.10541 0.39510 0.25045
 C1907 C 1.09617 0.40418 0.27230
 C1908 C 1.08849 0.41177 0.29111
 C1909 C 0.62950 0.87056 0.19223
 C1910 C 0.62122 0.87883 0.21049
 C1911 C 0.61176 0.88829 0.23207
 C1912 C 0.60387 0.89616 0.25066
 C1913 C 0.59487 0.90516 0.27263
 C1914 C 0.58737 0.91265 0.29154
 C1915 C 0.63098 0.37029 0.69269
 C1916 C 0.62259 0.37850 0.71092
 C1917 C 0.61293 0.38786 0.73246
 C1918 C 0.60484 0.39565 0.75101
 C1919 C 0.59558 0.40457 0.77292
 C1920 C 0.58790 0.41203 0.79177
 C1921 C 1.30854 1.12883 1.12879
 C1922 C 1.29023 1.12065 1.12055
 C1923 C 1.26858 1.11132 1.11115
 C1924 C 1.24991 1.10356 1.10332
 C1925 C 1.22785 1.09470 1.09440
 C1926 C 1.20886 1.08732 1.08700
 C1927 C 1.30739 0.63058 0.63056
 C1928 C 1.28919 0.62223 0.62221
 C1929 C 1.26770 0.61266 0.61264
 C1930 C 1.24919 0.60466 0.60464
 C1931 C 1.22734 0.59551 0.59549
 C1932 C 1.20852 0.58787 0.58785
 C1933 C 0.80715 1.13088 0.63167
 C1934 C 0.78895 1.12256 0.62327
 C1935 C 0.76747 1.11304 0.61362
 C1936 C 0.74898 1.10508 0.60554
 C1937 C 0.72715 1.09597 0.59627
 C1938 C 0.70836 1.08836 0.58855
 C1939 C 0.80770 0.62975 1.13051
 C1940 C 0.78945 0.62148 1.12222
 C1941 C 0.76788 0.61200 1.11272
 C1942 C 0.74931 0.60410 1.10480
 C1943 C 0.72738 0.59506 1.09575
 C1944 C 0.70849 0.58752 1.08821
 C1945 C 1.30752 0.86958 0.86962
 C1946 C 1.28929 0.87791 0.87792
 C1947 C 1.26776 0.88746 0.88743
 C1948 C 1.24923 0.89544 0.89536
 C1949 C 1.22733 0.90456 0.90445
 C1950 C 1.20848 0.91216 0.91202
 C1951 C 1.30793 0.36995 0.36892
 C1952 C 1.28969 0.37820 0.37728
 C1953 C 1.26814 0.38762 0.38689
 C1954 C 1.24959 0.39547 0.39492
 C1955 C 1.22769 0.40446 0.40410
 C1956 C 1.20883 0.41198 0.41173
 C1957 C 0.80786 0.87046 0.37058
 C1958 C 0.78959 0.87870 0.37885
 C1959 C 0.76799 0.88812 0.38831
 C1960 C 0.74938 0.89597 0.39619
 C1961 C 0.72740 0.90495 0.40519
 C1962 C 0.70847 0.91244 0.41267
 C1963 C 0.80751 0.36980 0.86951
 C1964 C 0.78927 0.37806 0.87787
 C1965 C 0.76774 0.38750 0.88748
 C1966 C 0.74920 0.39537 0.89552
 C1967 C 0.72730 0.40438 0.90472
 C1968 C 0.70845 0.41191 0.91236
 C1969 C 0.69211 0.87050 1.12970
 C1970 C 0.71039 0.87876 1.12145
 C1971 C 0.73198 0.88822 1.11201
 C1972 C 0.75058 0.89609 1.10415
 C1973 C 0.77255 0.90509 1.09516
 C1974 C 0.79147 0.91258 1.08767
 C1975 C 0.69247 0.36966 0.63058
 C1976 C 0.71070 0.37788 0.62219
 C1977 C 0.73223 0.38728 0.61254
 C1978 C 0.75077 0.39513 0.60448
 C1979 C 0.77266 0.40412 0.59526
 C1980 C 0.79151 0.41164 0.58761
 C1981 C 0.19183 0.87048 0.62934
 C1982 C 0.21009 0.87881 0.62112
 C1983 C 0.23167 0.88834 0.61174
 C1984 C 0.25026 0.89629 0.60392
 C1985 C 0.27222 0.90536 0.59499
 C1986 C 0.29114 0.91289 0.58753
 C1987 C 0.19250 0.36943 1.13132
 C1988 C 0.21071 0.37775 1.12294
 C1989 C 0.23220 0.38726 1.11333
 C1990 C 0.25071 0.39520 1.10528
 C1991 C 0.27256 0.40430 1.09608
 C1992 C 0.29138 0.41190 1.08842
 C1993 C 0.69210 1.13032 0.86983
 C1994 C 0.71036 1.12204 0.87813
 C1995 C 0.73193 1.11256 0.88765
 C1996 C 0.75051 1.10466 0.89560
 C1997 C 0.77244 1.09562 0.90469
 C1998 C 0.79132 1.08807 0.91225
 C1999 C 0.69223 0.62973 0.36943
 C2000 C 0.71048 0.62141 0.37771
 C2001 C 0.73204 0.61189 0.38719
 C2002 C 0.75061 0.60395 0.39510
 C2003 C 0.77254 0.59488 0.40415
 C2004 C 0.79142 0.58732 0.41170
 C2005 C 0.19260 1.13053 0.36827
 C2006 C 0.21081 1.12228 0.37671
 C2007 C 0.23232 1.11285 0.38644
 C2008 C 0.25083 1.10499 0.39458
 C2009 C 0.27268 1.09599 0.40390
 C2010 C 0.29150 1.08845 0.41164
 C2011 C 0.19175 0.62925 0.87061
 C2012 C 0.21003 0.62102 0.87890
 C2013 C 0.23164 0.61162 0.88838
 C2014 C 0.25026 0.60379 0.89627
 C2015 C 0.27225 0.59484 0.90529
 C2016 C 0.29119 0.58739 0.91278
 C2017 C 1.13096 1.30747 1.13066
 C2018 C 1.12260 1.28929 1.12230
 C2019 C 1.11301 1.26782 1.11272
 C2020 C 1.10501 1.24933 1.10471
 C2021 C 1.09584 1.22749 1.09556
 C2022 C 1.08819 1.20868 1.08793
 C2023 C 1.12937 0.80778 0.62932
 C2024 C 1.12114 0.78950 0.62106
 C2025 C 1.11172 0.76789 0.61161
 C2026 C 1.10387 0.74928 0.60374
 C2027 C 1.09490 0.72730 0.59475
 C2028 C 1.08743 0.70837 0.58726
 C2029 C 0.63078 1.30783 0.63005
 C2030 C 0.62238 1.28963 0.62177
 C2031 C 0.61274 1.26813 0.61231
 C2032 C 0.60470 1.24961 0.60442
 C2033 C 0.59551 1.22774 0.59539
 C2034 C 0.58788 1.20889 0.58786
 C2035 C 0.62955 0.80791 1.12974
 C2036 C 0.62128 0.78963 1.12151
 C2037 C 0.61183 0.76803 1.11210
 C2038 C 0.60394 0.74942 1.10426
 C2039 C 0.59494 0.72744 1.09531
 C2040 C 0.58744 0.70851 1.08785
 C2041 C 0.86911 1.30784 0.87012
 C2042 C 0.87750 1.28962 0.87838
 C2043 C 0.88714 1.26809 0.88781
 C2044 C 0.89519 1.24954 0.89567
 C2045 C 0.90439 1.22763 0.90465
 C2046 C 0.91202 1.20876 0.91215
 C2047 C 0.87045 0.80785 0.37047
 C2048 C 0.87872 0.78955 0.37867
 C2049 C 0.88819 0.76792 0.38804
 C2050 C 0.89608 0.74928 0.39583
 C2051 C 0.90508 0.72727 0.40474
 C2052 C 0.91257 0.70831 0.41216
 C2053 C 0.36955 1.30804 0.36956
 C2054 C 0.37790 1.28983 0.37789
 C2055 C 0.38747 1.26832 0.38743
 C2056 C 0.39546 1.24979 0.39538
 C2057 C 0.40458 1.22789 0.40448
 C2058 C 0.41217 1.20904 0.41207
 C2059 C 0.36908 0.80754 0.87019
 C2060 C 0.37744 0.78931 0.87847
 C2061 C 0.38704 0.76777 0.88793
 C2062 C 0.39506 0.74923 0.89583
 C2063 C 0.40424 0.72733 0.90487
 C2064 C 0.41187 0.70847 0.91242
 C2065 C 1.12917 0.69184 0.87047
 C2066 C 1.12094 0.71013 0.87871
 C2067 C 1.11155 0.73175 0.88815
 C2068 C 1.10373 0.75037 0.89602
 C2069 C 1.09481 0.77237 0.90502
 C2070 C 1.08738 0.79132 0.91250
 C2071 C 1.13101 0.19246 0.36880
 C2072 C 1.12266 0.21064 0.37717
 C2073 C 1.11312 0.23212 0.38678
 C2074 C 1.10515 0.25062 0.39481
 C2075 C 1.09603 0.27248 0.40400
 C2076 C 1.08843 0.29129 0.41164
 C2077 C 0.62968 0.69237 0.36958
 C2078 C 0.62144 0.71060 0.37795
 C2079 C 0.61201 0.73214 0.38755
 C2080 C 0.60414 0.75069 0.39556
 C2081 C 0.59513 0.77260 0.40471
 C2082 C 0.58761 0.79146 0.41232
 C2083 C 0.63046 0.19224 0.87052
 C2084 C 0.62210 0.21045 0.87881
 C2085 C 0.61251 0.23197 0.88828
 C2086 C 0.60450 0.25051 0.89618
 C2087 C 0.59535 0.27241 0.90519
 C2088 C 0.58773 0.29128 0.91271
 C2089 C 0.87029 0.69230 1.13046
 C2090 C 0.87856 0.71054 1.12214
 C2091 C 0.88801 0.73209 1.11259
 C2092 C 0.89590 0.75065 1.10462
 C2093 C 0.90493 0.77257 1.09551
 C2094 C 0.91246 0.79145 1.08793
 C2095 C 0.86880 0.19276 0.63097
 C2096 C 0.87722 0.21091 0.62258
 C2097 C 0.88688 0.23234 0.61296
 C2098 C 0.89496 0.25079 0.60492
 C2099 C 0.90422 0.27259 0.59571
 C2100 C 0.91192 0.29135 0.58803
 C2101 C 0.36883 0.69268 0.63009
 C2102 C 0.37719 0.71091 0.62184
 C2103 C 0.38681 0.73245 0.61241
 C2104 C 0.39484 0.75099 0.60455
 C2105 C 0.40404 0.77289 0.59554
 C2106 C 0.41168 0.79174 0.58801
 C2107 C 0.37111 0.19138 1.12882
 C2108 C 0.37933 0.20970 1.12064
 C2109 C 0.38871 0.23137 1.11132
 C2110 C 0.39652 0.25005 1.10358
 C2111 C 0.40542 0.27212 1.09475
 C2112 C 0.41281 0.29113 1.08740
 C2113 C 1.12930 1.13034 0.69193
 C2114 C 1.12107 1.12200 0.71019
 C2115 C 1.11168 1.11244 0.73177
 C2116 C 1.10386 1.10447 0.75035
 C2117 C 1.09492 1.09535 0.77231
 C2118 C 1.08746 1.08779 0.79121
 C2119 C 1.13053 0.63151 0.19234
 C2120 C 1.12223 0.62307 0.21052
 C2121 C 1.11277 0.61334 0.23200
 C2122 C 1.10487 0.60519 0.25048
 C2123 C 1.09583 0.59585 0.27231
 C2124 C 1.08826 0.58810 0.29111
 C2125 C 0.62988 1.13062 0.19243
 C2126 C 0.62162 1.12227 0.21067
 C2127 C 0.61217 1.11271 0.23221
 C2128 C 0.60430 1.10473 0.25078
 C2129 C 0.59529 1.09562 0.27270
 C2130 C 0.58777 1.08804 0.29158
 C2131 C 0.62962 0.62941 0.69229
 C2132 C 0.62135 0.62116 0.71056
 C2133 C 0.61188 0.61174 0.73216
 C2134 C 0.60397 0.60389 0.75076
 C2135 C 0.59493 0.59493 0.77274
 C2136 C 0.58741 0.58746 0.79166
 C2137 C 0.87046 0.87017 0.69205
 C2138 C 0.87870 0.87848 0.71031
 C2139 C 0.88810 0.88801 0.73189
 C2140 C 0.89592 0.89596 0.75048
 C2141 C 0.90486 0.90505 0.77244
 C2142 C 0.91231 0.91260 0.79135
 C2143 C 0.87084 0.36955 0.19169
 C2144 C 0.87911 0.37788 0.20993
 C2145 C 0.88854 0.38743 0.23148
 C2146 C 0.89638 0.39540 0.25006
 C2147 C 0.90533 0.40451 0.27200
 C2148 C 0.91279 0.41207 0.29091
 C2149 C 0.37029 0.86935 0.19245
 C2150 C 0.37851 0.87776 0.21068
 C2151 C 0.38788 0.88742 0.23221
 C2152 C 0.39568 0.89550 0.25076
 C2153 C 0.40462 0.90472 0.27267
 C2154 C 0.41210 0.91237 0.29154
 C2155 C 0.37063 0.36968 0.69223
 C2156 C 0.37883 0.37801 0.71050
 C2157 C 0.38818 0.38757 0.73209
 C2158 C 0.39598 0.39555 0.75068
 C2159 C 0.40489 0.40466 0.77264
 C2160 C 0.41234 0.41224 0.79155
 C2161 C 1.13034 0.86962 1.30781
 C2162 C 1.12206 0.87796 1.28956
 C2163 C 1.11259 0.88751 1.26800
 C2164 C 1.10469 0.89549 1.24944
 C2165 C 1.09565 0.90461 1.22752
 C2166 C 1.08811 0.91220 1.20864
 C2167 C 1.13033 0.36976 0.80764
 C2168 C 1.12205 0.37803 0.78936
 C2169 C 1.11256 0.38749 0.76777
 C2170 C 1.10463 0.39537 0.74918
 C2171 C 1.09556 0.40439 0.72723
 C2172 C 1.08800 0.41191 0.70833
 C2173 C 0.62933 0.87052 0.80812
 C2174 C 0.62106 0.87880 0.78985
 C2175 C 0.61161 0.88827 0.76826
 C2176 C 0.60374 0.89616 0.74965
 C2177 C 0.59475 0.90518 0.72767
 C2178 C 0.58726 0.91268 0.70874
 C2179 C 0.63053 0.36856 1.30785
 C2180 C 0.62219 0.37696 1.28966
 C2181 C 0.61264 0.38662 1.26818
 C2182 C 0.60468 0.39470 1.24968
 C2183 C 0.59557 0.40395 1.22784
 C2184 C 0.58797 0.41165 1.20903
 C2185 C 0.87102 1.12890 1.30842
 C2186 C 0.87926 1.12069 1.29012
 C2187 C 0.88870 1.11135 1.26849
 C2188 C 0.89656 1.10358 1.24984
 C2189 C 0.90553 1.09471 1.22781
 C2190 C 0.91298 1.08733 1.20883
 C2191 C 0.87015 0.62959 0.80753
 C2192 C 0.87841 0.62129 0.78927
 C2193 C 0.88785 0.61180 0.76770
 C2194 C 0.89574 0.60388 0.74912
 C2195 C 0.90475 0.59482 0.72717
 C2196 C 0.91226 0.58729 0.70828
 C2197 C 0.37011 1.13110 0.80759
 C2198 C 0.37837 1.12275 0.78936
 C2199 C 0.38778 1.11315 0.76782
 C2200 C 0.39563 1.10512 0.74927
 C2201 C 0.40461 1.09594 0.72736
 C2202 C 0.41211 1.08831 0.70849
 C2203 C 0.37051 0.63068 1.30809
 C2204 C 0.37873 0.62228 1.28986
 C2205 C 0.38809 0.61262 1.26833
 C2206 C 0.39587 0.60455 1.24977
 C2207 C 0.40477 0.59532 1.22785
 C2208 C 0.41222 0.58768 1.20898
 C2209 C 1.12962 1.30783 0.86928
 C2210 C 1.12134 1.28960 0.87762
 C2211 C 1.11189 1.26807 0.88720
 C2212 C 1.10401 1.24951 0.89520
 C2213 C 1.09501 1.22760 0.90434
 C2214 C 1.08750 1.20872 0.91194
 C2215 C 1.12981 0.80752 0.36930
 C2216 C 1.12156 0.78926 0.37761
 C2217 C 1.11213 0.76770 0.38715
 C2218 C 1.10427 0.74913 0.39512
 C2219 C 1.09527 0.72719 0.40422
 C2220 C 1.08777 0.70830 0.41180
 C2221 C 0.63065 1.30760 0.36885
 C2222 C 0.62234 1.28940 0.37726
 C2223 C 0.61284 1.26792 0.38693
 C2224 C 0.60490 1.24942 0.39501
 C2225 C 0.59581 1.22758 0.40425
 C2226 C 0.58821 1.20877 0.41194
 C2227 C 0.62941 0.80790 0.87072
 C2228 C 0.62116 0.78963 0.87899
 C2229 C 0.61174 0.76803 0.88844
 C2230 C 0.60388 0.74942 0.89632
 C2231 C 0.59490 0.72744 0.90532
 C2232 C 0.58741 0.70851 0.91281
 C2233 C 0.87013 1.30801 1.12973
 C2234 C 0.87842 1.28975 1.12146
 C2235 C 0.88792 1.26818 1.11202
 C2236 C 0.89585 1.24959 1.10416
 C2237 C 0.90492 1.22764 1.09517
 C2238 C 0.91247 1.20874 1.08767
 C2239 C 0.87037 0.80758 0.62947
 C2240 C 0.87859 0.78930 0.62118
 C2241 C 0.88800 0.76771 0.61168
 C2242 C 0.89583 0.74911 0.60376
 C2243 C 0.90480 0.72715 0.59472
 C2244 C 0.91228 0.70823 0.58720
 C2245 C 0.37014 1.30821 0.63016
 C2246 C 0.37840 1.28996 0.62184
 C2247 C 0.38783 1.26840 0.61230
 C2248 C 0.39569 1.24983 0.60433
 C2249 C 0.40468 1.22790 0.59522
 C2250 C 0.41218 1.20901 0.58765
 C2251 C 0.36975 0.80768 1.13056
 C2252 C 0.37803 0.78942 1.12229
 C2253 C 0.38752 0.76785 1.11279
 C2254 C 0.39543 0.74929 1.10485
 C2255 C 0.40448 0.72736 1.09577
 C2256 C 0.41202 0.70849 1.08820
 C2257 C 0.87022 0.69221 0.87008
 C2258 C 0.87849 0.71047 0.87835
 C2259 C 0.88794 0.73204 0.88784
 C2260 C 0.89582 0.75062 0.89575
 C2261 C 0.90483 0.77256 0.90480
 C2262 C 0.91234 0.79145 0.91234
 C2263 C 0.87110 0.19147 0.37094
 C2264 C 0.87938 0.20976 0.37912
 C2265 C 0.88884 0.23139 0.38844
 C2266 C 0.89672 0.25004 0.39620
 C2267 C 0.90570 0.27206 0.40506
 C2268 C 0.91315 0.29103 0.41244
 C2269 C 0.36980 0.69230 0.37001
 C2270 C 0.37805 0.71057 0.37829
 C2271 C 0.38750 0.73215 0.38779
 C2272 C 0.39538 0.75073 0.39571
 C2273 C 0.40441 0.77266 0.40477
 C2274 C 0.41194 0.79155 0.41232
 C2275 C 0.36949 0.19253 0.86970
 C2276 C 0.37778 0.21075 0.87806
 C2277 C 0.38728 0.23227 0.88763
 C2278 C 0.39521 0.25080 0.89563
 C2279 C 0.40429 0.27268 0.90477
 C2280 C 0.41187 0.29153 0.91237
 C2281 C 1.13062 0.69258 1.13141
 C2282 C 1.12235 0.71080 1.12300
 C2283 C 1.11289 0.73231 1.11333
 C2284 C 1.10499 0.75082 1.10523
 C2285 C 1.09594 0.77268 1.09596
 C2286 C 1.08836 0.79150 1.08825
 C2287 C 1.12986 0.19187 0.62988
 C2288 C 1.12161 0.21014 0.62155
 C2289 C 1.11220 0.23172 0.61200
 C2290 C 1.10435 0.25030 0.60404
 C2291 C 1.09538 0.27226 0.59494
 C2292 C 1.08789 0.29116 0.58737
 C2293 C 0.62952 0.69205 0.62974
 C2294 C 0.62121 0.71033 0.62152
 C2295 C 0.61171 0.73193 0.61212
 C2296 C 0.60378 0.75053 0.60428
 C2297 C 0.59473 0.77251 0.59532
 C2298 C 0.58721 0.79144 0.58784
 C2299 C 0.63038 0.19222 1.13046
 C2300 C 0.62204 0.21047 1.12219
 C2301 C 0.61248 0.23202 1.11273
 C2302 C 0.60450 0.25059 1.10485
 C2303 C 0.59537 0.27251 1.09582
 C2304 C 0.58778 0.29139 1.08829
 C2305 C 1.30753 1.13096 0.87012
 C2306 C 1.28931 1.12256 0.87836
 C2307 C 1.26778 1.11293 0.88776
 C2308 C 1.24923 1.10488 0.89560
 C2309 C 1.22733 1.09568 0.90457
 C2310 C 1.20847 1.08805 0.91208
 C2311 C 1.30793 0.63064 0.37058
 C2312 C 1.28970 0.62224 0.37878
 C2313 C 1.26815 0.61258 0.38811
 C2314 C 1.24959 0.60451 0.39588
 C2315 C 1.22766 0.59529 0.40475
 C2316 C 1.20878 0.58764 0.41217
 C2317 C 0.80843 1.12900 0.37098
 C2318 C 0.79012 1.12080 0.37921
 C2319 C 0.76847 1.11144 0.38861
 C2320 C 0.74982 1.10365 0.39644
 C2321 C 0.72779 1.09476 0.40538
 C2322 C 0.70881 1.08737 0.41282
 C2323 C 0.80766 0.62962 0.87021
 C2324 C 0.78943 0.62135 0.87854
 C2325 C 0.76788 0.61190 0.88807
 C2326 C 0.74931 0.60401 0.89602
 C2327 C 0.72739 0.59499 0.90510
 C2328 C 0.70850 0.58748 0.91266
 C2329 C 1.30779 0.86930 1.12980
 C2330 C 1.28957 0.87767 1.12152
 C2331 C 1.26804 0.88729 1.11208
 C2332 C 1.24949 0.89532 1.10421
 C2333 C 1.22758 0.90451 1.09521
 C2334 C 1.20871 0.91214 1.08770
 C2335 C 1.30815 0.36976 0.62955
 C2336 C 1.28991 0.37808 0.62126
 C2337 C 1.26835 0.38761 0.61179
 C2338 C 1.24978 0.39555 0.60390
 C2339 C 1.22783 0.40461 0.59488
 C2340 C 1.20893 0.41215 0.58736
 C2341 C 0.80783 0.87023 0.62952
 C2342 C 0.78955 0.87854 0.62129
 C2343 C 0.76796 0.88805 0.61190
 C2344 C 0.74935 0.89598 0.60407
 C2345 C 0.72737 0.90504 0.59513
 C2346 C 0.70844 0.91256 0.58767
 C2347 C 0.80808 0.36955 1.12932
 C2348 C 0.78979 0.37790 1.12117
 C2349 C 0.76818 0.38749 1.11189
 C2350 C 0.74956 0.39550 1.10416
 C2351 C 0.72757 0.40464 1.09533
 C2352 C 0.70864 0.41222 1.08793
 C2353 C 0.69243 1.13068 1.12986
 C2354 C 0.71067 1.12234 1.12161
 C2355 C 0.73222 1.11275 1.11219
 C2356 C 0.75078 1.10474 1.10434
 C2357 C 0.77269 1.09559 1.09535
 C2358 C 0.79157 1.08799 1.08784
 C2359 C 0.69210 0.62943 0.62959
 C2360 C 0.71034 0.62116 0.62128
 C2361 C 0.73190 0.61170 0.61177
 C2362 C 0.75048 0.60381 0.60384
 C2363 C 0.77242 0.59478 0.59478
 C2364 C 0.79131 0.58726 0.58725
 C2365 C 0.19185 1.13033 0.62937
 C2366 C 0.21011 1.12203 0.62112
 C2367 C 0.23169 1.11254 0.61169
 C2368 C 0.25028 1.10462 0.60383
 C2369 C 0.27225 1.09558 0.59486
 C2370 C 0.29116 1.08806 0.58739
 C2371 C 0.19254 0.63094 1.13086
 C2372 C 0.21073 0.62255 1.12253
 C2373 C 0.23221 0.61293 1.11300
 C2374 C 0.25071 0.60488 1.10504
 C2375 C 0.27256 0.59568 1.09593
 C2376 C 0.29138 0.58802 1.08834
 C2377 C 0.69196 0.87050 0.87069
 C2378 C 0.71023 0.87876 0.87893
 C2379 C 0.73183 0.88822 0.88836
 C2380 C 0.75044 0.89610 0.89621
 C2381 C 0.77242 0.90510 0.90517
 C2382 C 0.79136 0.91260 0.91263
 C2383 C 0.69270 0.36904 0.36922
 C2384 C 0.71093 0.37737 0.37752
 C2385 C 0.73246 0.38693 0.38702
 C2386 C 0.75100 0.39491 0.39496
 C2387 C 0.77288 0.40404 0.40405
 C2388 C 0.79173 0.41165 0.41163
 C2389 C 0.19226 0.87021 0.36944
 C2390 C 0.21047 0.87852 0.37779
 C2391 C 0.23198 0.88804 0.38735
 C2392 C 0.25052 0.89597 0.39533
 C2393 C 0.27241 0.90504 0.40445
 C2394 C 0.29127 0.91259 0.41206
 C2395 C 0.19219 0.37035 0.86936
 C2396 C 0.21041 0.37859 0.87777
 C2397 C 0.23194 0.38799 0.88742
 C2398 C 0.25048 0.39582 0.89548
 C2399 C 0.27239 0.40479 0.90468
 C2400 C 0.29125 0.41228 0.91233
   
