data_POSCAR
  _audit_creation_date              2014-09-24
  _audit_creation_method            'ToBaCCo'
  _symmetry_space_group_name_H-M    'P1'
  _symmetry_Int_Tables_number       1
  _symmetry_cell_setting            triclinic
  loop_
  _symmetry_equiv_pos_as_xyz
 x,y,z
_cell_length_a 72.1103
_cell_length_b 72.1019
_cell_length_c 72.1701
_cell_angle_alpha 90.015900
_cell_angle_beta 90.015000
_cell_angle_gamma 90.016900
loop_
  _atom_site_label
  _atom_site_type_symbol
  _atom_site_fract_x
  _atom_site_fract_y
  _atom_site_fract_z
C1 C 0.35925 0.33634 0.33661
 N2 N 0.35153 0.35167 0.32890
 C3 C 0.33620 0.35939 0.33661
 N4 N 0.32851 0.35170 0.35195
 C5 C 0.33623 0.33637 0.35967
 N6 N 0.35157 0.32866 0.35196
 C7 C 0.35976 0.83654 -0.16386
 N8 N 0.35210 0.82885 -0.14850
 C9 C 0.33675 0.83652 -0.14079
 N10 N 0.32898 0.85182 -0.14852
 C11 C 0.33663 0.85952 -0.16387
 N12 N 0.35199 0.85184 -0.17158
 C13 C 0.85928 0.33697 -0.16378
 N14 N 0.85158 0.35231 -0.17149
 C15 C 0.83624 0.36003 -0.16380
 N16 N 0.82853 0.35233 -0.14847
 C17 C 0.83623 0.33699 -0.14075
 N18 N 0.85157 0.32928 -0.14845
 C19 C 0.85985 0.83603 0.33640
 N20 N 0.85217 0.82837 0.35177
 C21 C 0.83688 0.83613 0.35951
 N22 N 0.82919 0.85147 0.35181
 C23 C 0.83685 0.85914 0.33644
 N24 N 0.85215 0.85137 0.32870
 C25 C 0.64056 0.66354 0.33654
 N26 N 0.64825 0.67122 0.35190
 C27 C 0.66359 0.66352 0.35960
 N28 N 0.67132 0.64820 0.35187
 C29 C 0.66364 0.64052 0.33651
 N30 N 0.64830 0.64823 0.32881
 C31 C 0.64020 0.16347 -0.16390
 N32 N 0.64795 0.14815 -0.17160
 C33 C 0.66331 0.14047 -0.16391
 N34 N 0.67099 0.14820 -0.14856
 C35 C 0.66324 0.16352 -0.14085
 N36 N 0.64788 0.17118 -0.14856
 C37 C 0.14097 0.66320 -0.16389
 N38 N 0.14867 0.67088 -0.14854
 C39 C 0.16398 0.66315 -0.14082
 N40 N 0.17167 0.64779 -0.14852
 C41 C 0.16398 0.64010 -0.16387
 N42 N 0.14866 0.64784 -0.17159
 C43 C 0.14044 0.16363 0.33603
 N44 N 0.14816 0.14830 0.32830
 C45 C 0.16346 0.14054 0.33603
 N46 N 0.17111 0.14817 0.35144
 C47 C 0.16339 0.16349 0.35917
 N48 N 0.14810 0.17125 0.35143
 C49 C 0.64047 0.33628 0.66342
 N50 N 0.64818 0.35162 0.67113
 C51 C 0.66350 0.35936 0.66341
 N52 N 0.67117 0.35169 0.64805
 C53 C 0.66345 0.33634 0.64033
 N54 N 0.64814 0.32861 0.64806
 C55 C 0.63999 0.83606 1.16375
 N56 N 0.64769 0.82834 1.14842
 C57 C 0.66304 0.83603 1.14071
 N58 N 0.67076 0.85138 1.14841
 C59 C 0.66307 0.85910 1.16373
 N60 N 0.64772 0.85141 1.17144
 C61 C 0.14057 0.33652 1.16392
 N62 N 0.14830 0.32883 1.14859
 C63 C 0.16361 0.33658 1.14088
 N64 N 0.17128 0.35195 1.14858
 C65 C 0.16357 0.35965 1.16391
 N66 N 0.14824 0.35189 1.17161
 C67 C 0.14037 0.83656 0.66380
 N68 N 0.14814 0.85185 0.67155
 C69 C 0.16348 0.85957 0.66384
 N70 N 0.17112 0.85191 0.64845
 C71 C 0.16335 0.83662 0.64069
 N72 N 0.14801 0.82891 0.64840
 C73 C 0.35931 0.66380 0.66332
 N74 N 0.35160 0.67148 0.64798
 C75 C 0.33628 0.66375 0.64027
 N76 N 0.32859 0.64839 0.64796
 C77 C 0.33630 0.64070 0.66330
 N78 N 0.35162 0.64844 0.67101
 C79 C 0.35965 0.16340 1.16416
 N80 N 0.35197 0.17107 1.14880
 C81 C 0.33661 0.16338 1.14110
 N82 N 0.32886 0.14808 1.14884
 C83 C 0.33653 0.14039 1.16420
 N84 N 0.35189 0.14809 1.17189
 C85 C 0.85965 0.66332 1.16391
 N86 N 0.85195 0.67099 1.14856
 C87 C 0.83663 0.66324 1.14084
 N88 N 0.82894 0.64789 1.14854
 C89 C 0.83664 0.64021 1.16389
 N90 N 0.85196 0.64796 1.17160
 C91 C 0.85907 0.16324 0.66356
 N92 N 0.85129 0.14795 0.67130
 C93 C 0.83593 0.14026 0.66360
 N94 N 0.82828 0.14794 0.64823
 C95 C 0.83605 0.16322 0.64048
 N96 N 0.85141 0.17091 0.64819
 C97 C 0.33646 0.35927 0.66382
 N98 N 0.35179 0.35155 0.67153
 C99 C 0.35949 0.33619 0.66385
 N100 N 0.35178 0.32848 0.64851
 C101 C 0.33645 0.33620 0.64080
 N102 N 0.32876 0.35155 0.64848
 C103 C 0.33645 0.86014 0.16348
 N104 N 0.35179 0.85242 0.17116
 C105 C 0.35949 0.83708 0.16345
 N106 N 0.35177 0.82939 0.14811
 C107 C 0.33643 0.83711 0.14042
 N108 N 0.32873 0.85245 0.14814
 C109 C 0.83713 0.35954 0.16318
 N110 N 0.82940 0.35181 0.14787
 C111 C 0.83708 0.33645 0.14018
 N112 N 0.85243 0.32875 0.14787
 C113 C 0.86017 0.33648 0.16318
 N114 N 0.85248 0.35184 0.17087
 C115 C 0.83662 0.86016 0.66373
 N116 N 0.85199 0.85250 0.67141
 C117 C 0.85973 0.83717 0.66371
 N118 N 0.85202 0.82943 0.64839
 C119 C 0.83665 0.83709 0.64070
 N120 N 0.82892 0.85242 0.64841
 C121 C 0.66343 0.64064 0.66389
 N122 N 0.64810 0.64835 0.67160
 C123 C 0.64039 0.66369 0.66392
 N124 N 0.64808 0.67140 0.64858
 C125 C 0.66341 0.66370 0.64086
 N126 N 0.67112 0.64835 0.64855
 C127 C 0.66341 0.14019 0.16324
 N128 N 0.67113 0.14790 0.14791
 C129 C 0.66341 0.16322 0.14019
 N130 N 0.64805 0.17091 0.14786
 C131 C 0.64033 0.16321 0.16318
 N132 N 0.64805 0.14788 0.17090
 C133 C 0.16305 0.64044 0.16312
 N134 N 0.14770 0.64815 0.17080
 C135 C 0.14002 0.66351 0.16312
 N136 N 0.14777 0.67124 0.14782
 C137 C 0.16312 0.66353 0.14013
 N138 N 0.17079 0.64817 0.14782
 C139 C 0.16332 0.13974 0.66369
 N140 N 0.14799 0.14746 0.67139
 C141 C 0.14029 0.16280 0.66370
 N142 N 0.14799 0.17050 0.64836
 C143 C 0.16332 0.16278 0.64065
 N144 N 0.17102 0.14743 0.64835
 C145 C 0.33617 0.64059 0.33621
 N146 N 0.35153 0.64829 0.32853
 C147 C 0.35924 0.66364 0.33623
 N148 N 0.35152 0.67135 0.35156
 C149 C 0.33617 0.66365 0.35924
 N150 N 0.32846 0.64830 0.35153
 C151 C 0.33652 0.13978 0.83690
 N152 N 0.35187 0.14748 0.82922
 C153 C 0.35958 0.16283 0.83692
 N154 N 0.35186 0.17054 0.85224
 C155 C 0.33651 0.16284 0.85993
 N156 N 0.32881 0.14749 0.85223
 C157 C 0.83701 0.64059 0.83659
 N158 N 0.85232 0.64832 0.82885
 C159 C 0.86004 0.66367 0.83653
 N160 N 0.85236 0.67138 0.85188
 C161 C 0.83705 0.66366 0.85961
 N162 N 0.82933 0.64830 0.85193
 C163 C 0.83709 0.14040 0.33628
 N164 N 0.82937 0.14812 0.35159
 C165 C 0.83706 0.16347 0.35930
 N166 N 0.85242 0.17117 0.35162
 C167 C 0.86015 0.16345 0.33631
 N168 N 0.85245 0.14810 0.32860
 C169 C 0.66360 0.35956 0.33598
 N170 N 0.67130 0.35187 0.35132
 C171 C 0.66358 0.33654 0.35903
 N172 N 0.64823 0.32884 0.35134
 C173 C 0.64053 0.33652 0.33600
 N174 N 0.64825 0.35185 0.32829
 C175 C 0.66352 0.85999 0.83695
 N176 N 0.67126 0.85225 0.85225
 C177 C 0.66356 0.83689 0.85993
 N178 N 0.64820 0.82921 0.85225
 C179 C 0.64046 0.83695 0.83695
 N180 N 0.64815 0.85231 0.82927
 C181 C 0.16346 0.35949 0.83690
 N182 N 0.14812 0.35178 0.82918
 C183 C 0.14041 0.33643 0.83685
 N184 N 0.14811 0.32871 0.85217
 C185 C 0.16345 0.33641 0.85990
 N186 N 0.17115 0.35177 0.85222
 C187 C 0.16296 0.86003 0.33624
 N188 N 0.17067 0.85234 0.35157
 C189 C 0.16298 0.83698 0.35926
 N190 N 0.14765 0.82925 0.35155
 C191 C 0.13994 0.83694 0.33621
 N192 N 0.14763 0.85230 0.32852
 O193 O 0.24780 1.01883 0.27359
 O194 O 0.27334 0.98267 0.24816
 O195 O 0.27339 1.01883 0.24821
 O196 O 0.24777 0.98268 0.27356
 O197 O 0.22621 0.98271 0.25187
 O198 O 0.25183 1.01887 0.22653
 O199 O 0.25178 0.98271 0.22647
 O200 O 0.22624 1.01887 0.25190
 Cu201 Cu 0.26273 1.00075 0.26305
 Cu202 Cu 0.23686 1.00079 0.23702
 C203 C 0.23268 1.02510 0.26706
 C204 C 0.26690 0.97644 0.23299
 C205 C 0.26697 1.02510 0.23306
 C206 C 0.23264 0.97644 0.26702
 O207 O 0.24804 0.51823 0.77368
 O208 O 0.27351 0.48203 0.74824
 O209 O 0.27349 0.51819 0.74816
 O210 O 0.24805 0.48207 0.77375
 O211 O 0.22638 0.48201 0.75217
 O212 O 0.25183 0.51812 0.72658
 O213 O 0.25184 0.48196 0.72666
 O214 O 0.22638 0.51817 0.75210
 Cu215 Cu 0.26294 0.50014 0.76312
 Cu216 Cu 0.23694 0.50006 0.73722
 C217 C 0.23289 0.52446 0.76721
 C218 C 0.26700 0.47574 0.73313
 C219 C 0.26698 0.52440 0.73302
 C220 C 0.23289 0.47580 0.76731
 O221 O 0.77375 0.01780 0.25180
 O222 O 0.74812 -0.01838 0.22644
 O223 O 0.74818 0.01778 0.22638
 O224 O 0.77370 -0.01836 0.25184
 O225 O 0.75214 -0.01830 0.27351
 O226 O 0.72662 0.01784 0.24804
 O227 O 0.72656 -0.01831 0.24810
 O228 O 0.75218 0.01785 0.27346
 Cu229 Cu 0.76310 -0.00030 0.23695
 Cu230 Cu 0.73721 -0.00022 0.26295
 C231 C 0.76732 0.02408 0.26694
 C232 C 0.73299 -0.02460 0.23296
 C233 C 0.73306 0.02405 0.23288
 C234 C 0.76726 -0.02458 0.26700
 O235 O 0.74823 0.48187 0.72659
 O236 O 0.77377 0.51799 0.75209
 O237 O 0.77374 0.48183 0.75206
 O238 O 0.74823 0.51802 0.72665
 O239 O 0.72662 0.51800 0.74827
 O240 O 0.75213 0.48183 0.77369
 O241 O 0.75217 0.51798 0.77371
 O242 O 0.72662 0.48185 0.74821
 Cu243 Cu 0.76316 0.49993 0.73718
 Cu244 Cu 0.73722 0.49991 0.76314
 C245 C 0.73309 0.47561 0.73307
 C246 C 0.76731 0.52423 0.76723
 C247 C 0.76726 0.47557 0.76720
 C248 C 0.73309 0.52427 0.73314
 O249 O 0.24759 0.48167 0.22626
 O250 O 0.27308 0.51789 0.25168
 O251 O 0.27308 0.48174 0.25175
 O252 O 0.24759 0.51783 0.22620
 O253 O 0.22596 0.51787 0.24780
 O254 O 0.25145 0.48177 0.27335
 O255 O 0.25145 0.51793 0.27328
 O256 O 0.22596 0.48171 0.24786
 Cu257 Cu 0.26250 0.49978 0.23681
 Cu258 Cu 0.23654 0.49982 0.26273
 C259 C 0.23245 0.47542 0.23274
 C260 C 0.26660 0.52417 0.26680
 C261 C 0.26660 0.47552 0.26689
 C262 C 0.23244 0.52409 0.23266
 O263 O 0.75164 1.01876 0.72658
 O264 O 0.72624 0.98260 0.75217
 O265 O 0.72616 1.01876 0.75208
 O266 O 0.75171 0.98260 0.72666
 O267 O 0.77336 0.98271 0.74826
 O268 O 0.74781 1.01887 0.77367
 O269 O 0.74789 0.98271 0.77376
 O270 O 0.77329 1.01886 0.74818
 Cu271 Cu 0.73677 1.00067 0.73721
 Cu272 Cu 0.76275 1.00080 0.76313
 C273 C 0.76678 1.02506 0.73303
 C274 C 0.73275 0.97640 0.76731
 C275 C 0.73264 1.02507 0.76719
 C276 C 0.76687 0.97640 0.73314
 O277 O 0.72692 0.48212 0.25152
 O278 O 0.75246 0.51832 0.22616
 O279 O 0.75247 0.48216 0.22610
 O280 O 0.72693 0.51827 0.25159
 O281 O 0.74852 0.51824 0.27324
 O282 O 0.77406 0.48213 0.24775
 O283 O 0.77406 0.51829 0.24780
 O284 O 0.74851 0.48208 0.27317
 Cu285 Cu 0.73753 0.50022 0.23667
 Cu286 Cu 0.76345 0.50018 0.26266
 C287 C 0.73338 0.47584 0.26665
 C288 C 0.76760 0.52456 0.23267
 C289 C 0.76760 0.47590 0.23259
 C290 C 0.73339 0.52449 0.26675
 O291 O 0.25198 -0.01900 0.77368
 O292 O 0.22643 0.01716 0.74826
 O293 O 0.22644 -0.01899 0.74823
 O294 O 0.25194 0.01716 0.77374
 O295 O 0.27354 0.01721 0.75211
 O296 O 0.24804 -0.01896 0.72661
 O297 O 0.24804 0.01720 0.72664
 O298 O 0.27359 -0.01895 0.75205
 Cu299 Cu 0.23703 -0.00092 0.76314
 Cu300 Cu 0.26297 -0.00087 0.73719
 C301 C 0.26713 -0.02522 0.76718
 C302 C 0.23289 0.02343 0.73313
 C303 C 0.23290 -0.02522 0.73309
 C304 C 0.26707 0.02343 0.76726
 O305 O 0.24817 0.27331 0.98230
 O306 O 0.27367 0.24784 1.01844
 O307 O 0.27363 0.24777 0.98231
 O308 O 0.24821 0.27336 1.01842
 O309 O 0.22655 0.25176 1.01847
 O310 O 0.25197 0.22617 0.98236
 O311 O 0.25201 0.22623 1.01848
 O312 O 0.22651 0.25170 0.98235
 Cu313 Cu 0.26309 0.26274 1.00036
 Cu314 Cu 0.23709 0.23680 1.00042
 C315 C 0.23301 0.26684 0.97608
 C316 C 0.26718 0.23271 1.02471
 C317 C 0.26712 0.23262 0.97609
 C318 C 0.23306 0.26691 1.02469
 O319 O 0.24766 0.77390 0.48172
 O320 O 0.27317 0.74838 0.51781
 O321 O 0.27314 0.74839 0.48169
 O322 O 0.24768 0.77388 0.51784
 O323 O 0.22605 0.75225 0.51784
 O324 O 0.25151 0.72676 0.48168
 O325 O 0.25154 0.72675 0.51781
 O326 O 0.22602 0.75227 0.48171
 Cu327 Cu 0.26258 0.76330 0.49977
 Cu328 Cu 0.23661 0.73734 0.49976
 C329 C 0.23251 0.76742 0.47547
 C330 C 0.26669 0.73323 0.52405
 C331 C 0.26665 0.73325 0.47544
 C332 C 0.23254 0.76739 0.52409
 O333 O 0.27375 0.75205 -0.01815
 O334 O 0.24818 0.72659 0.01795
 O335 O 0.24830 0.72650 -0.01817
 O336 O 0.27365 0.75214 0.01797
 O337 O 0.25199 0.77373 0.01786
 O338 O 0.22664 0.74809 -0.01829
 O339 O 0.22653 0.74819 0.01783
 O340 O 0.25209 0.77364 -0.01827
 Cu341 Cu 0.26314 0.73716 -0.00008
 Cu342 Cu 0.23714 0.76307 -0.00023
 C343 C 0.26726 0.76716 -0.02445
 C344 C 0.23301 0.73307 0.02413
 C345 C 0.23316 0.73294 -0.02448
 C346 C 0.26713 0.76729 0.02416
 O347 O 0.22621 0.24771 0.48213
 O348 O 0.25172 0.27316 0.51830
 O349 O 0.25170 0.27322 0.48218
 O350 O 0.22624 0.24763 0.51826
 O351 O 0.24787 0.22602 0.51820
 O352 O 0.27334 0.25161 0.48213
 O353 O 0.27336 0.25155 0.51825
 O354 O 0.24785 0.22609 0.48208
 Cu355 Cu 0.23680 0.26259 0.50022
 Cu356 Cu 0.26277 0.23665 0.50016
 C357 C 0.23270 0.23258 0.47585
 C358 C 0.26687 0.26668 0.52453
 C359 C 0.26685 0.26676 0.47592
 C360 C 0.23273 0.23248 0.52447
 O361 O 0.74822 0.77347 0.98224
 O362 O 0.77367 0.74792 1.01835
 O363 O 0.77376 0.74802 0.98223
 O364 O 0.74811 0.77335 1.01836
 O365 O 0.72653 0.75167 1.01822
 O366 O 0.75218 0.72634 0.98209
 O367 O 0.75209 0.72624 1.01822
 O368 O 0.72664 0.75180 0.98210
 Cu369 Cu 0.76311 0.76286 1.00031
 Cu370 Cu 0.73720 0.73684 1.00014
 C371 C 0.73311 0.76698 0.97593
 C372 C 0.76721 0.73274 1.02453
 C373 C 0.76733 0.73288 0.97591
 C374 C 0.73296 0.76681 1.02454
 O375 O 0.74813 0.27350 0.48163
 O376 O 0.77353 0.24796 0.51779
 O377 O 0.77364 0.24802 0.48167
 O378 O 0.74806 0.27348 0.51776
 O379 O 0.72643 0.25185 0.51767
 O380 O 0.75201 0.22639 0.48157
 O381 O 0.75189 0.22633 0.51769
 O382 O 0.72649 0.25187 0.48155
 Cu383 Cu 0.76300 0.26291 0.49972
 Cu384 Cu 0.73704 0.23694 0.49961
 C385 C 0.73299 0.26703 0.47534
 C386 C 0.76702 0.23280 0.52400
 C387 C 0.76717 0.23288 0.47538
 C388 C 0.73290 0.26699 0.52396
 O389 O 0.77346 0.25204 -0.01836
 O390 O 0.74804 0.22644 0.01776
 O391 O 0.74798 0.22651 -0.01836
 O392 O 0.77357 0.25193 0.01776
 O393 O 0.75194 0.27356 0.01788
 O394 O 0.72635 0.24814 -0.01827
 O395 O 0.72642 0.24807 0.01786
 O396 O 0.75183 0.27366 -0.01825
 Cu397 Cu 0.76293 0.23706 -0.00031
 Cu398 Cu 0.73697 0.26302 -0.00018
 C399 C 0.76696 0.26720 -0.02454
 C400 C 0.73291 0.23291 0.02405
 C401 C 0.73282 0.23300 -0.02456
 C402 C 0.76710 0.26706 0.02407
 O403 O 0.77371 0.75195 0.48225
 O404 O 0.74814 0.72656 0.51838
 O405 O 0.74816 0.72649 0.48226
 O406 O 0.77365 0.75206 0.51837
 O407 O 0.75206 0.77371 0.51829
 O408 O 0.72657 0.74815 0.48219
 O409 O 0.72654 0.74822 0.51831
 O410 O 0.75212 0.77360 0.48216
 Cu411 Cu 0.76308 0.73710 0.50032
 Cu412 Cu 0.73716 0.76309 0.50023
 C413 C 0.76726 0.76709 0.47596
 C414 C 0.73299 0.73308 0.52459
 C415 C 0.73304 0.73298 0.47598
 C416 C 0.76718 0.76723 0.52457
 O417 O 0.98277 0.24810 0.27338
 O418 O 1.01892 0.27363 0.24794
 O419 O 0.98276 0.27359 0.24789
 O420 O 1.01892 0.24810 0.27339
 O421 O 1.01893 0.22648 0.25177
 O422 O 0.98279 0.25196 0.22627
 O423 O 1.01895 0.25201 0.22632
 O424 O 0.98278 0.22648 0.25176
 Cu425 Cu 1.00084 0.26302 0.26281
 Cu426 Cu 1.00087 0.23706 0.23686
 C427 C 0.97652 0.23295 0.26689
 C428 C 1.02518 0.26716 0.23281
 C429 C 0.97653 0.26710 0.23275
 C430 C 1.02518 0.23296 0.26691
 O431 O 0.48201 0.25140 0.72677
 O432 O 0.51822 0.22591 0.75217
 O433 O 0.48207 0.22589 0.75224
 O434 O 0.51816 0.25141 0.72670
 O435 O 0.51821 0.27304 0.74832
 O436 O 0.48211 0.24752 0.77385
 O437 O 0.51827 0.24753 0.77378
 O438 O 0.48206 0.27303 0.74839
 Cu439 Cu 0.50011 0.23648 0.73730
 Cu440 Cu 0.50017 0.26244 0.76325
 C441 C 0.47578 0.26655 0.73326
 C442 C 0.52451 0.23239 0.76729
 C443 C 0.47585 0.23237 0.76738
 C444 C 0.52442 0.26656 0.73317
 O445 O -0.01820 0.27345 0.75191
 O446 O 0.01792 0.24781 0.72655
 O447 O -0.01823 0.24787 0.72650
 O448 O 0.01795 0.27336 0.75198
 O449 O 0.01786 0.25179 0.77364
 O450 O -0.01831 0.22630 0.74816
 O451 O 0.01784 0.22623 0.74821
 O452 O -0.01829 0.25188 0.77357
 Cu453 Cu -0.00013 0.26279 0.73707
 Cu454 Cu -0.00023 0.23689 0.76306
 C455 C -0.02449 0.26702 0.76705
 C456 C 0.02412 0.23266 0.73307
 C457 C -0.02453 0.23275 0.73300
 C458 C 0.02416 0.26691 0.76714
 O459 O 0.48164 0.22611 0.24796
 O460 O 0.51785 0.25168 0.27331
 O461 O 0.48170 0.25165 0.27341
 O462 O 0.51779 0.22615 0.24786
 O463 O 0.51771 0.24775 0.22623
 O464 O 0.48162 0.27325 0.25178
 O465 O 0.51777 0.27328 0.25168
 O466 O 0.48155 0.24771 0.22633
 Cu467 Cu 0.49975 0.23673 0.26280
 Cu468 Cu 0.49965 0.26266 0.23684
 C469 C 0.47533 0.23257 0.23284
 C470 C 0.52407 0.26683 0.26680
 C471 C 0.47542 0.26678 0.26694
 C472 C 0.52399 0.23262 0.23270
 O473 O 0.98241 0.75242 0.72630
 O474 O 1.01856 0.72678 0.75164
 O475 O 0.98241 0.72685 0.75171
 O476 O 1.01857 0.75236 0.72625
 O477 O 1.01865 0.77393 0.74792
 O478 O 0.98249 0.74842 0.77338
 O479 O 1.01864 0.74835 0.77332
 O480 O 0.98249 0.77399 0.74798
 Cu481 Cu 1.00048 0.73744 0.73680
 Cu482 Cu 1.00058 0.76334 0.76282
 C483 C 0.97620 0.76756 0.73284
 C484 C 1.02485 0.73321 0.76679
 C485 C 0.97620 0.73330 0.76687
 C486 C 1.02486 0.76748 0.73276
 O487 O 0.51815 0.77374 0.24794
 O488 O 0.48194 0.74829 0.27340
 O489 O 0.51810 0.74826 0.27344
 O490 O 0.48200 0.77381 0.24795
 O491 O 0.48196 0.75217 0.22634
 O492 O 0.51807 0.72662 0.25182
 O493 O 0.48192 0.72666 0.25179
 O494 O 0.51811 0.75210 0.22633
 Cu495 Cu 0.50005 0.76319 0.26285
 Cu496 Cu 0.50001 0.73722 0.23691
 C497 C 0.52439 0.76724 0.23281
 C498 C 0.47567 0.73315 0.26692
 C499 C 0.52433 0.73310 0.26696
 C500 C 0.47573 0.76733 0.23282
 O501 O 0.01750 0.75189 0.27334
 O502 O -0.01866 0.72629 0.24795
 O503 O 0.01749 0.72638 0.24787
 O504 O -0.01865 0.75179 0.27343
 O505 O -0.01875 0.77342 0.25183
 O506 O 0.01739 0.74800 0.22626
 O507 O -0.01876 0.74791 0.22634
 O508 O 0.01740 0.77351 0.25173
 Cu509 Cu -0.00057 0.73692 0.26281
 Cu510 Cu -0.00069 0.76287 0.23688
 C511 C 0.02370 0.76705 0.26685
 C512 C -0.02496 0.73275 0.23283
 C513 C 0.02369 0.73287 0.23272
 C514 C -0.02495 0.76692 0.26698
 O515 O 0.51777 0.75240 0.77386
 O516 O 0.48165 0.72692 0.74829
 O517 O 0.51780 0.72689 0.74839
 O518 O 0.48161 0.75242 0.77378
 O519 O 0.48168 0.77405 0.75218
 O520 O 0.51787 0.74852 0.72678
 O521 O 0.48172 0.74855 0.72668
 O522 O 0.51783 0.77403 0.75226
 Cu523 Cu 0.49970 0.73749 0.76324
 Cu524 Cu 0.49978 0.76346 0.73731
 C525 C 0.52405 0.76755 0.76740
 C526 C 0.47544 0.73341 0.73314
 C527 C 0.52409 0.73337 0.73327
 C528 C 0.47539 0.76757 0.76729
 C529 C 0.43895 0.30266 0.27913
 C530 C 0.43174 0.29537 0.29559
 C531 C 0.43904 0.27894 0.30288
 C532 C 0.45339 0.26973 0.29367
 C533 C 0.37516 0.32790 0.32817
 C534 C 0.45331 0.29347 0.26990
 C535 C 0.41654 0.30451 0.30475
 C536 C 0.40365 0.31202 0.31228
 C537 C 0.38837 0.32066 0.32093
 C538 C 0.46062 0.27684 0.27701
 H539 H 0.43338 0.31535 0.27335
 H540 H 0.43353 0.27317 0.31560
 H541 H 0.45871 0.25696 0.29952
 H542 H 0.45855 0.29931 0.25711
 C543 C 0.43888 0.80345 0.77934
 C544 C 0.43157 0.79616 0.79576
 C545 C 0.43883 0.77971 0.80307
 C546 C 0.45323 0.77050 0.79392
 C547 C 0.37484 0.82858 0.82815
 C548 C 0.45328 0.79427 0.77017
 C549 C 0.41634 0.80528 0.80485
 C550 C 0.40341 0.81278 0.81233
 C551 C 0.38809 0.82138 0.82094
 C552 C 0.46055 0.77763 0.77731
 H553 H 0.43334 0.81616 0.77355
 H554 H 0.43326 0.77393 0.81575
 H555 H 0.45851 0.75773 0.79978
 H556 H 0.45859 0.80012 0.75741
 C557 C -0.06100 0.27935 0.80281
 C558 C -0.06821 0.29580 0.79547
 C559 C -0.06089 0.30304 0.77903
 C560 C -0.04652 0.29379 0.76987
 C561 C -0.12480 0.32851 0.82780
 C562 C -0.04663 0.27007 0.79368
 C563 C -0.08341 0.30500 0.80455
 C564 C -0.09630 0.31256 0.81201
 C565 C -0.11159 0.32124 0.82060
 C566 C -0.03930 0.27714 0.77704
 H567 H -0.06658 0.27361 0.81551
 H568 H -0.06639 0.31575 0.77321
 H569 H -0.04120 0.29960 0.75710
 H570 H -0.04139 0.25730 0.79957
 C571 C -0.06144 0.80276 0.27923
 C572 C -0.06863 0.79545 0.29569
 C573 C -0.06132 0.77902 0.30296
 C574 C -0.04697 0.76982 0.29373
 C575 C -0.12514 0.82799 0.32838
 C576 C -0.04708 0.79359 0.26998
 C577 C -0.08381 0.80458 0.30488
 C578 C -0.09669 0.81209 0.31244
 C579 C -0.11195 0.82074 0.32111
 C580 C -0.03975 0.77695 0.27707
 H581 H -0.06702 0.81546 0.27347
 H582 H -0.06681 0.77322 0.31567
 H583 H -0.04164 0.75705 0.29956
 H584 H -0.04185 0.79945 0.25719
 C585 C 0.56077 0.69719 0.27912
 C586 C 0.56803 0.70448 0.29556
 C587 C 0.56077 0.72093 0.30285
 C588 C 0.54641 0.73015 0.29366
 C589 C 0.62464 0.67198 0.32810
 C590 C 0.54641 0.70638 0.26990
 C591 C 0.58324 0.69534 0.30470
 C592 C 0.59614 0.68784 0.31222
 C593 C 0.61143 0.67921 0.32087
 C594 C 0.53913 0.72303 0.27702
 H595 H 0.56632 0.68448 0.27334
 H596 H 0.56631 0.72672 0.31556
 H597 H 0.54112 0.74293 0.29951
 H598 H 0.54113 0.70053 0.25712
 C599 C 0.56104 0.19653 0.77932
 C600 C 0.56835 0.20383 0.79575
 C601 C 0.56108 0.22026 0.80306
 C602 C 0.54667 0.22947 0.79392
 C603 C 0.62511 0.17142 0.82812
 C604 C 0.54664 0.20570 0.77015
 C605 C 0.58359 0.19471 0.80484
 C606 C 0.59653 0.18722 0.81231
 C607 C 0.61186 0.17862 0.82091
 C608 C 0.53935 0.22234 0.77730
 H609 H 0.56659 0.18382 0.77352
 H610 H 0.56665 0.22605 0.81575
 H611 H 0.54139 0.24224 0.79979
 H612 H 0.54132 0.19985 0.75739
 C613 C 1.06124 0.69719 0.77878
 C614 C 1.06854 0.70442 0.79523
 C615 C 1.06133 0.72087 0.80258
 C616 C 1.04698 0.73015 0.79344
 C617 C 1.12507 0.67167 0.82766
 C618 C 1.04688 0.70644 0.76961
 C619 C 1.08373 0.69521 0.80433
 C620 C 1.09661 0.68764 0.81181
 C621 C 1.11188 0.67895 0.82043
 C622 C 1.03965 0.72309 0.77679
 H623 H 1.06674 0.68448 0.77295
 H624 H 1.06691 0.72660 0.81529
 H625 H 1.04173 0.74293 0.79933
 H626 H 1.04156 0.70064 0.75683
 C627 C 1.06161 0.19704 0.27905
 C628 C 1.06888 0.20432 0.29550
 C629 C 1.06163 0.22078 0.30279
 C630 C 1.04727 0.23001 0.29360
 C631 C 1.12542 0.17167 0.32802
 C632 C 1.04726 0.20624 0.26984
 C633 C 1.08407 0.19516 0.30464
 C634 C 1.09696 0.18762 0.31215
 C635 C 1.11222 0.17894 0.32078
 C636 C 1.03999 0.22290 0.27696
 H637 H 1.06715 0.18432 0.27327
 H638 H 1.06718 0.22656 0.31549
 H639 H 1.04200 0.24280 0.29945
 H640 H 1.04196 0.20039 0.25707
 C641 C 0.56085 0.30249 0.72096
 C642 C 0.56807 0.29520 0.70450
 C643 C 0.56080 0.27874 0.69722
 C644 C 0.54645 0.26951 0.70643
 C645 C 0.62457 0.32781 0.67188
 C646 C 0.54651 0.29328 0.73020
 C647 C 0.58325 0.30436 0.69533
 C648 C 0.59612 0.31189 0.68780
 C649 C 0.61139 0.32055 0.67913
 C650 C 0.53921 0.27663 0.72309
 H651 H 0.56640 0.31520 0.72673
 H652 H 0.56631 0.27297 0.68451
 H653 H 0.54116 0.25673 0.70059
 H654 H 0.54125 0.29913 0.74298
 C655 C 0.56088 0.77931 0.19695
 C656 C 0.56820 0.79574 0.20424
 C657 C 0.56096 0.80305 0.22068
 C658 C 0.54656 0.79390 0.22989
 C659 C 0.62492 0.82810 0.17174
 C660 C 0.54648 0.77013 0.20613
 C661 C 0.58344 0.80483 0.19511
 C662 C 0.59636 0.81231 0.18760
 C663 C 0.61168 0.82090 0.17897
 C664 C 0.53923 0.77727 0.22276
 H665 H 0.56641 0.77351 0.18424
 H666 H 0.56655 0.81575 0.22646
 H667 H 0.54130 0.79976 0.24266
 H668 H 0.54116 0.75736 0.20027
 C669 C 1.06163 0.30311 0.22073
 C670 C 1.06892 0.29583 0.20430
 C671 C 1.06169 0.27937 0.19700
 C672 C 1.04731 0.27013 0.20616
 C673 C 1.12553 0.32849 0.17190
 C674 C 1.04726 0.29390 0.22992
 C675 C 1.08413 0.30500 0.19520
 C676 C 1.09703 0.31255 0.18771
 C677 C 1.11231 0.32122 0.17911
 C678 C 1.04000 0.27724 0.22278
 H679 H 1.06715 0.31583 0.22652
 H680 H 1.06725 0.27359 0.18430
 H681 H 1.04205 0.25734 0.20030
 H682 H 1.04195 0.29974 0.24268
 C683 C 1.06132 0.77966 0.69689
 C684 C 1.06863 0.79607 0.70423
 C685 C 1.06140 0.80334 0.72069
 C686 C 1.04702 0.79415 0.72988
 C687 C 1.12530 0.82857 0.67178
 C688 C 1.04693 0.77044 0.70606
 C689 C 1.08385 0.80520 0.69511
 C690 C 1.09677 0.81271 0.68761
 C691 C 1.11208 0.82134 0.67900
 C692 C 1.03968 0.77754 0.72272
 H693 H 1.06683 0.77389 0.68417
 H694 H 1.06698 0.81602 0.72650
 H695 H 1.04176 0.79998 0.74267
 H696 H 1.04161 0.75769 0.70018
 C697 C 0.43897 0.69753 0.72088
 C698 C 0.43176 0.70483 0.70443
 C699 C 0.43905 0.72127 0.69716
 C700 C 0.45341 0.73049 0.70639
 C701 C 0.37521 0.67227 0.67177
 C702 C 0.45333 0.70671 0.73014
 C703 C 0.41657 0.69569 0.69524
 C704 C 0.40368 0.68817 0.68770
 C705 C 0.38841 0.67952 0.67903
 C706 C 0.46064 0.72336 0.72305
 H707 H 0.43340 0.68482 0.72664
 H708 H 0.43355 0.72706 0.68445
 H709 H 0.45872 0.74326 0.70056
 H710 H 0.45857 0.70086 0.74292
 C711 C 0.43874 0.22035 0.19711
 C712 C 0.43149 0.20391 0.20444
 C713 C 0.43882 0.19664 0.22086
 C714 C 0.45322 0.20584 0.23001
 C715 C 0.37473 0.17138 0.17213
 C716 C 0.45314 0.22958 0.20623
 C717 C 0.41624 0.19475 0.19537
 C718 C 0.40331 0.18723 0.18791
 C719 C 0.38798 0.17860 0.17933
 C720 C 0.46049 0.22248 0.22285
 H721 H 0.43314 0.22611 0.18442
 H722 H 0.43329 0.18393 0.22668
 H723 H 0.45856 0.20001 0.24277
 H724 H 0.45841 0.24235 0.20035
 C725 C -0.06149 0.72048 0.19704
 C726 C -0.06870 0.70402 0.20435
 C727 C -0.06138 0.69675 0.22077
 C728 C -0.04701 0.70598 0.22995
 C729 C -0.12530 0.67135 0.17190
 C730 C -0.04712 0.72975 0.20620
 C731 C -0.08391 0.69483 0.19524
 C732 C -0.09681 0.68728 0.18775
 C733 C -0.11209 0.67861 0.17913
 C734 C -0.03978 0.72265 0.22282
 H735 H -0.06707 0.72625 0.18435
 H736 H -0.06689 0.68403 0.22656
 H737 H -0.04168 0.70015 0.24271
 H738 H -0.04187 0.74254 0.20033
 C739 C -0.06100 0.22058 0.69713
 C740 C -0.06831 0.20416 0.70445
 C741 C -0.06107 0.19689 0.72090
 C742 C -0.04668 0.20608 0.73010
 C743 C -0.12499 0.17166 0.67199
 C744 C -0.04661 0.22980 0.70630
 C745 C -0.08353 0.19503 0.69532
 C746 C -0.09645 0.18752 0.68783
 C747 C -0.11176 0.17889 0.67921
 C748 C -0.03936 0.22270 0.72296
 H749 H -0.06653 0.22635 0.68441
 H750 H -0.06665 0.18421 0.72670
 H751 H -0.04141 0.20025 0.74289
 H752 H -0.04129 0.24255 0.70043
 C753 C 0.27875 0.43912 0.30283
 C754 C 0.29520 0.43184 0.29556
 C755 C 0.30250 0.43908 0.27912
 C756 C 0.29331 0.45343 0.26988
 C757 C 0.32774 0.37529 0.32816
 C758 C 0.26953 0.45347 0.29362
 C759 C 0.30434 0.41665 0.30473
 C760 C 0.31186 0.40377 0.31226
 C761 C 0.32050 0.38849 0.32091
 C762 C 0.27666 0.46072 0.27697
 H763 H 0.27296 0.43360 0.31554
 H764 H 0.31521 0.43352 0.27335
 H765 H 0.29916 0.45869 0.25710
 H766 H 0.25675 0.45877 0.29945
 C767 C 0.27939 -0.06171 0.80299
 C768 C 0.29585 -0.06892 0.79569
 C769 C 0.30311 -0.06163 0.77926
 C770 C 0.29388 -0.04727 0.77007
 C771 C 0.32858 -0.12546 0.82813
 C772 C 0.27013 -0.04735 0.79384
 C773 C 0.30504 -0.08411 0.80480
 C774 C 0.31261 -0.09699 0.81229
 C775 C 0.32130 -0.11226 0.82091
 C776 C 0.27722 -0.04003 0.77720
 H777 H 0.27363 -0.06728 0.81569
 H778 H 0.31583 -0.06713 0.77346
 H779 H 0.29971 -0.04195 0.75730
 H780 H 0.25734 -0.04210 0.79970
 C781 C 0.77940 0.43907 0.80303
 C782 C 0.79583 0.43178 0.79572
 C783 C 0.80312 0.43904 0.77928
 C784 C 0.79394 0.45343 0.77009
 C785 C 0.82826 0.37509 0.82820
 C786 C 0.77020 0.45346 0.79387
 C787 C 0.80495 0.41655 0.80484
 C788 C 0.81244 0.40363 0.81234
 C789 C 0.82105 0.38833 0.82097
 C790 C 0.77731 0.46074 0.77723
 H791 H 0.77362 0.43353 0.81573
 H792 H 0.81581 0.43348 0.77349
 H793 H 0.79979 0.45871 0.75732
 H794 H 0.75744 0.45876 0.79973
 C795 C 0.77946 -0.06102 0.30288
 C796 C 0.79588 -0.06831 0.29555
 C797 C 0.80314 -0.06107 0.27909
 C798 C 0.79394 -0.04670 0.26989
 C799 C 0.82842 -0.12494 0.32801
 C800 C 0.77024 -0.04665 0.29370
 C801 C 0.80503 -0.08352 0.30467
 C802 C 0.81255 -0.09642 0.31217
 C803 C 0.82119 -0.11172 0.32079
 C804 C 0.77732 -0.03939 0.27704
 H805 H 0.77371 -0.06654 0.31559
 H806 H 0.81583 -0.06664 0.27328
 H807 H 0.79977 -0.04144 0.25710
 H808 H 0.75748 -0.04134 0.29958
 C809 C 0.27903 0.56081 0.69707
 C810 C 0.29548 0.56812 0.70432
 C811 C 0.30282 0.56090 0.72076
 C812 C 0.29366 0.54653 0.73001
 C813 C 0.32788 0.62477 0.67173
 C814 C 0.26985 0.54644 0.70629
 C815 C 0.30458 0.58333 0.69516
 C816 C 0.31207 0.59624 0.68762
 C817 C 0.32067 0.61154 0.67897
 C818 C 0.27701 0.53920 0.72293
 H819 H 0.27322 0.56633 0.68437
 H820 H 0.31553 0.56647 0.72651
 H821 H 0.29954 0.54127 0.74278
 H822 H 0.25706 0.54113 0.70047
 C823 C 0.30297 1.06152 0.22108
 C824 C 0.29575 1.06881 0.20462
 C825 C 0.27931 1.06158 0.19727
 C826 C 0.27003 1.04721 0.20641
 C827 C 0.32849 1.12536 0.17221
 C828 C 0.29372 1.04716 0.23025
 C829 C 0.30496 1.08400 0.19553
 C830 C 0.31252 1.09689 0.18805
 C831 C 0.32122 1.11216 0.17943
 C832 C 0.27708 1.03991 0.22306
 H833 H 0.31568 1.06704 0.22691
 H834 H 0.27358 1.06714 0.18455
 H835 H 0.25726 1.04195 0.20051
 H836 H 0.29952 1.04186 0.24303
 C837 C 0.80348 0.56110 0.22067
 C838 C 0.79621 0.56839 0.20423
 C839 C 0.77978 0.56111 0.19690
 C840 C 0.77056 0.54671 0.20603
 C841 C 0.82867 0.62513 0.17186
 C842 C 0.79429 0.54670 0.22984
 C843 C 0.80535 0.58363 0.19515
 C844 C 0.81285 0.59656 0.18767
 C845 C 0.82146 0.61188 0.17907
 C846 C 0.77766 0.53941 0.22267
 H847 H 0.81618 0.56666 0.22649
 H848 H 0.77401 0.56667 0.18420
 H849 H 0.75780 0.54141 0.20015
 H850 H 0.80013 0.54140 0.24261
 C851 C 0.77885 1.06145 0.69706
 C852 C 0.79530 1.06875 0.70431
 C853 C 0.80262 1.06154 0.72076
 C854 C 0.79345 1.04719 0.73002
 C855 C 0.82788 1.12525 0.67163
 C856 C 0.76965 1.04709 0.70629
 C857 C 0.80443 1.08393 0.69512
 C858 C 0.81195 1.09680 0.68756
 C859 C 0.82061 1.11206 0.67889
 C860 C 0.77680 1.03986 0.72294
 H861 H 0.77305 1.06694 0.68435
 H862 H 0.81534 1.06712 0.72651
 H863 H 0.79933 1.04195 0.74280
 H864 H 0.75687 1.04177 0.70047
 C865 C 0.72117 0.56087 0.30270
 C866 C 0.70473 0.56814 0.29540
 C867 C 0.69746 0.56092 0.27893
 C868 C 0.70667 0.54658 0.26969
 C869 C 0.67211 0.62464 0.32803
 C870 C 0.73040 0.54653 0.29349
 C871 C 0.69556 0.58332 0.30456
 C872 C 0.68803 0.59619 0.31210
 C873 C 0.67937 0.61145 0.32077
 C874 C 0.72331 0.53928 0.27682
 H875 H 0.72693 0.56638 0.31543
 H876 H 0.68476 0.56647 0.27314
 H877 H 0.70084 0.54132 0.25690
 H878 H 0.74317 0.54123 0.29935
 C879 C 0.72044 1.06161 0.80298
 C880 C 0.70397 1.06881 0.79569
 C881 C 0.69668 1.06148 0.77928
 C882 C 0.70589 1.04711 0.77009
 C883 C 0.67133 1.12543 0.82811
 C884 C 0.72968 1.04723 0.79383
 C885 C 0.69480 1.08402 0.80480
 C886 C 0.68726 1.09692 0.81228
 C887 C 0.67859 1.11221 0.82089
 C888 C 0.72256 1.03989 0.77722
 H889 H 0.72623 1.06720 0.81566
 H890 H 0.68395 1.06698 0.77349
 H891 H 0.70003 1.04177 0.75734
 H892 H 0.74248 1.04199 0.79968
 C893 C 0.22081 0.56103 0.80301
 C894 C 0.20435 0.56828 0.79573
 C895 C 0.19703 0.56098 0.77932
 C896 C 0.20619 0.54658 0.77013
 C897 C 0.17195 0.62502 0.82815
 C898 C 0.23000 0.54663 0.79385
 C899 C 0.19524 0.58353 0.80484
 C900 C 0.18775 0.59645 0.81233
 C901 C 0.17915 0.61178 0.82094
 C902 C 0.22285 0.53930 0.77724
 H903 H 0.22662 0.56661 0.81569
 H904 H 0.18431 0.56651 0.77354
 H905 H 0.20032 0.54126 0.75738
 H906 H 0.24279 0.54135 0.79970
 C907 C 0.19678 1.06160 0.27911
 C908 C 0.20403 1.06886 0.29557
 C909 C 0.22045 1.06158 0.30291
 C910 C 0.22968 1.04720 0.29375
 C911 C 0.17146 1.12548 0.32803
 C912 C 0.20599 1.04722 0.26992
 C913 C 0.19487 1.08407 0.30468
 C914 C 0.18734 1.09697 0.31218
 C915 C 0.17870 1.11227 0.32080
 C916 C 0.22260 1.03992 0.27709
 H917 H 0.18410 1.06716 0.27328
 H918 H 0.22620 1.06711 0.31564
 H919 H 0.24244 1.04190 0.29964
 H920 H 0.20017 1.04194 0.25713
 C921 C 0.72090 0.43918 0.69715
 C922 C 0.70447 0.43189 0.70444
 C923 C 0.69719 0.43912 0.72090
 C924 C 0.70638 0.45349 0.73012
 C925 C 0.67195 0.37528 0.67186
 C926 C 0.73013 0.45354 0.70635
 C927 C 0.69533 0.41668 0.69529
 C928 C 0.68781 0.40378 0.68776
 C929 C 0.67918 0.38849 0.67911
 C930 C 0.72302 0.46080 0.72300
 H931 H 0.72668 0.43365 0.68444
 H932 H 0.68449 0.43356 0.72668
 H933 H 0.70055 0.45876 0.74291
 H934 H 0.74290 0.45885 0.70050
 C935 C 0.72067 -0.06112 0.19718
 C936 C 0.70423 -0.06835 0.20453
 C937 C 0.69699 -0.06104 0.22097
 C938 C 0.70624 -0.04667 0.23014
 C939 C 0.67153 -0.12497 0.17216
 C940 C 0.72994 -0.04674 0.20632
 C941 C 0.69503 -0.08356 0.19544
 C942 C 0.68748 -0.09646 0.18796
 C943 C 0.67880 -0.11176 0.17936
 C944 C 0.72288 -0.03942 0.22296
 H945 H 0.72641 -0.06669 0.18448
 H946 H 0.68429 -0.06656 0.22679
 H947 H 0.70043 -0.04135 0.24291
 H948 H 0.74271 -0.04148 0.20043
 C949 C 0.22034 0.43883 0.19696
 C950 C 0.20390 0.43156 0.20426
 C951 C 0.19660 0.43886 0.22068
 C952 C 0.20576 0.45328 0.22985
 C953 C 0.17152 0.37475 0.17189
 C954 C 0.22954 0.45325 0.20611
 C955 C 0.19479 0.41630 0.19517
 C956 C 0.18731 0.40335 0.18769
 C957 C 0.17871 0.38801 0.17909
 C958 C 0.22240 0.46057 0.22272
 H959 H 0.22613 0.43326 0.18428
 H960 H 0.18390 0.43331 0.22647
 H961 H 0.19991 0.45859 0.24261
 H962 H 0.24231 0.45854 0.20025
 C963 C 0.22069 -0.06166 0.69718
 C964 C 0.20424 -0.06892 0.70446
 C965 C 0.19697 -0.06167 0.72092
 C966 C 0.20618 -0.04731 0.73014
 C967 C 0.17154 -0.12542 0.67187
 C968 C 0.22994 -0.04730 0.70638
 C969 C 0.19506 -0.08410 0.69530
 C970 C 0.18751 -0.09697 0.68778
 C971 C 0.17882 -0.11223 0.67912
 C972 C 0.22283 -0.04003 0.72303
 H973 H 0.22646 -0.06719 0.68446
 H974 H 0.18426 -0.06721 0.72669
 H975 H 0.20035 -0.04204 0.74292
 H976 H 0.24272 -0.04202 0.70053
 C977 C 0.27894 0.30270 0.43950
 C978 C 0.29538 0.29542 0.43222
 C979 C 0.30270 0.27897 0.43946
 C980 C 0.29353 0.26974 0.45382
 C981 C 0.32781 0.32794 0.37559
 C982 C 0.26975 0.29349 0.45386
 C983 C 0.30450 0.30457 0.41701
 C984 C 0.31199 0.31208 0.40411
 C985 C 0.32060 0.32072 0.38881
 C986 C 0.27689 0.27684 0.46112
 H987 H 0.27314 0.31541 0.43397
 H988 H 0.31540 0.27320 0.43390
 H989 H 0.29940 0.25696 0.45909
 H990 H 0.25697 0.29933 0.45916
 C991 C 0.27943 0.80297 -0.06097
 C992 C 0.29590 0.79567 -0.06819
 C993 C 0.30321 0.77926 -0.06086
 C994 C 0.29401 0.77007 -0.04649
 C995 C 0.32836 0.82809 -0.12485
 C996 C 0.27021 0.79381 -0.04660
 C997 C 0.30504 0.80477 -0.08341
 C998 C 0.31254 0.81226 -0.09632
 C999 C 0.32115 0.82087 -0.11163
 C1000 C 0.27734 0.77719 -0.03926
 H1001 H 0.27364 0.81565 -0.06656
 H1002 H 0.31593 0.77347 -0.06637
 H1003 H 0.29987 0.75732 -0.04116
 H1004 H 0.25741 0.79966 -0.04136
 C1005 C 0.77899 0.30320 -0.06092
 C1006 C 0.79542 0.29593 -0.06825
 C1007 C 0.80273 0.27946 -0.06106
 C1008 C 0.79359 0.27020 -0.04670
 C1009 C 0.82779 0.32856 -0.12484
 C1010 C 0.76982 0.29397 -0.04655
 C1011 C 0.80450 0.30511 -0.08345
 C1012 C 0.81198 0.31266 -0.09635
 C1013 C 0.82058 0.32132 -0.11163
 C1014 C 0.77697 0.27730 -0.03935
 H1015 H 0.77319 0.31592 -0.06640
 H1016 H 0.81542 0.27369 -0.06666
 H1017 H 0.79946 0.25741 -0.04147
 H1018 H 0.75706 0.29981 -0.04122
 C1019 C 0.77949 0.80283 0.43940
 C1020 C 0.79593 0.79549 0.43218
 C1021 C 0.80320 0.77906 0.43951
 C1022 C 0.79399 0.76991 0.45390
 C1023 C 0.82847 0.82774 0.37547
 C1024 C 0.77025 0.79371 0.45379
 C1025 C 0.80509 0.80455 0.41695
 C1026 C 0.81261 0.81200 0.40403
 C1027 C 0.82125 0.82056 0.38871
 C1028 C 0.77735 0.77708 0.46114
 H1029 H 0.77373 0.81553 0.43381
 H1030 H 0.81591 0.77324 0.43400
 H1031 H 0.79982 0.75715 0.45924
 H1032 H 0.75748 0.79960 0.45904
 C1033 C 0.72073 0.30283 0.56045
 C1034 C 0.70429 0.29551 0.56770
 C1035 C 0.69699 0.27908 0.56040
 C1036 C 0.70618 0.26988 0.54602
 C1037 C 0.67186 0.32793 0.62439
 C1038 C 0.72995 0.29367 0.54608
 C1039 C 0.69516 0.30462 0.58292
 C1040 C 0.68767 0.31211 0.59584
 C1041 C 0.67906 0.32072 0.61115
 C1042 C 0.72283 0.27702 0.53877
 H1043 H 0.72652 0.31553 0.56602
 H1044 H 0.68428 0.27327 0.56593
 H1045 H 0.70033 0.25711 0.54071
 H1046 H 0.74273 0.29953 0.54081
 C1047 C 0.72062 0.80257 1.06106
 C1048 C 0.70417 0.79521 1.06824
 C1049 C 0.69693 0.77876 1.06090
 C1050 C 0.70618 0.76961 1.04654
 C1051 C 0.67147 0.82758 1.12481
 C1052 C 0.72990 0.79345 1.04670
 C1053 C 0.69496 0.80428 1.08344
 C1054 C 0.68740 0.81175 1.09633
 C1055 C 0.67873 0.82036 1.11161
 C1056 C 0.72284 0.77680 1.03934
 H1057 H 0.72636 0.81528 1.06666
 H1058 H 0.68422 0.77293 1.06639
 H1059 H 0.70038 0.75683 1.04120
 H1060 H 0.74268 0.79935 1.04148
 C1061 C 0.22100 0.30286 1.06111
 C1062 C 0.20454 0.29559 1.06839
 C1063 C 0.19722 0.27915 1.06114
 C1064 C 0.20638 0.26990 1.04678
 C1065 C 0.17207 0.32815 1.12497
 C1066 C 0.23019 0.29365 1.04675
 C1067 C 0.19543 0.30476 1.08359
 C1068 C 0.18793 0.31228 1.09648
 C1069 C 0.17930 0.32092 1.11176
 C1070 C 0.22303 0.27700 1.03949
 H1071 H 0.22681 0.31557 1.06664
 H1072 H 0.18450 0.27338 1.06670
 H1073 H 0.20050 0.25712 1.04151
 H1074 H 0.24297 0.29948 1.04146
 C1075 C 0.22047 0.80322 0.56064
 C1076 C 0.20404 0.79590 0.56791
 C1077 C 0.19672 0.77947 0.56062
 C1078 C 0.20587 0.77029 0.54622
 C1079 C 0.17172 0.82823 0.62472
 C1080 C 0.22965 0.79406 0.54623
 C1081 C 0.19494 0.80500 0.58317
 C1082 C 0.18747 0.81247 0.59611
 C1083 C 0.17890 0.82105 0.61146
 C1084 C 0.22251 0.77743 0.53893
 H1085 H 0.22627 0.81591 0.56621
 H1086 H 0.18402 0.77367 0.56617
 H1087 H 0.20000 0.75752 0.54091
 H1088 H 0.24242 0.79992 0.54094
 C1089 C 0.27884 0.69734 0.56049
 C1090 C 0.29530 0.70464 0.56775
 C1091 C 0.30260 0.72108 0.56048
 C1092 C 0.29341 0.73030 0.54612
 C1093 C 0.32783 0.67217 0.62435
 C1094 C 0.26962 0.70653 0.54613
 C1095 C 0.30444 0.69551 0.58295
 C1096 C 0.31196 0.68800 0.59585
 C1097 C 0.32059 0.67938 0.61113
 C1098 C 0.27675 0.72317 0.53885
 H1099 H 0.27305 0.68463 0.56604
 H1100 H 0.31531 0.72687 0.56602
 H1101 H 0.29926 0.74307 0.54084
 H1102 H 0.25684 0.70067 0.54085
 C1103 C 0.27929 0.19689 1.06123
 C1104 C 0.29575 0.20419 1.06847
 C1105 C 0.30307 0.22061 1.06117
 C1106 C 0.29389 0.22980 1.04679
 C1107 C 0.32820 0.17179 1.12516
 C1108 C 0.27008 0.20605 1.04684
 C1109 C 0.30488 0.19508 1.08370
 C1110 C 0.31238 0.18760 1.09662
 C1111 C 0.32099 0.17900 1.11193
 C1112 C 0.27723 0.22267 1.03953
 H1113 H 0.27349 0.18420 1.06680
 H1114 H 0.31579 0.22640 1.06670
 H1115 H 0.29976 0.24256 1.04148
 H1116 H 0.25730 0.20020 1.04158
 C1117 C 0.77932 0.69680 1.06094
 C1118 C 0.79573 0.70412 1.06827
 C1119 C 0.80302 0.72060 1.06106
 C1120 C 0.79386 0.72982 1.04668
 C1121 C 0.82819 0.67165 1.12491
 C1122 C 0.77013 0.70599 1.04656
 C1123 C 0.80485 0.69498 1.08348
 C1124 C 0.81234 0.68748 1.09639
 C1125 C 0.82097 0.67886 1.11169
 C1126 C 0.77724 0.72267 1.03934
 H1127 H 0.77354 0.68407 1.06644
 H1128 H 0.81570 0.72640 1.06665
 H1129 H 0.79970 0.74262 1.04144
 H1130 H 0.75737 0.70012 1.04123
 C1131 C 0.77902 0.19687 0.56044
 C1132 C 0.79543 0.20416 0.56779
 C1133 C 0.80277 0.22061 0.56058
 C1134 C 0.79364 0.22984 0.54619
 C1135 C 0.82767 0.17164 0.62453
 C1136 C 0.76987 0.20607 0.54605
 C1137 C 0.80450 0.19501 0.58303
 C1138 C 0.81194 0.18749 0.59596
 C1139 C 0.82050 0.17886 0.61128
 C1140 C 0.77702 0.22273 0.53882
 H1141 H 0.77320 0.18415 0.56595
 H1142 H 0.81545 0.22640 0.56619
 H1143 H 0.79952 0.24263 0.54094
 H1144 H 0.75711 0.20022 0.54070
 C1145 C 0.69718 0.72083 0.43948
 C1146 C 0.70447 0.70437 0.43223
 C1147 C 0.72090 0.69706 0.43953
 C1148 C 0.73010 0.70625 0.45391
 C1149 C 0.67201 0.67193 0.37555
 C1150 C 0.70636 0.73005 0.45386
 C1151 C 0.69535 0.69525 0.41701
 C1152 C 0.68785 0.68775 0.40409
 C1153 C 0.67923 0.67914 0.38878
 C1154 C 0.72299 0.72291 0.46117
 H1155 H 0.68449 0.72663 0.43391
 H1156 H 0.72668 0.68435 0.43400
 H1157 H 0.74286 0.70039 0.45921
 H1158 H 0.70051 0.74284 0.45913
 C1159 C 0.69688 0.22092 -0.06100
 C1160 C 0.70416 0.20448 -0.06830
 C1161 C 0.72061 0.19717 -0.06106
 C1162 C 0.72984 0.20633 -0.04669
 C1163 C 0.67166 0.17197 -0.12493
 C1164 C 0.70608 0.23011 -0.04663
 C1165 C 0.69501 0.19536 -0.08351
 C1166 C 0.68750 0.18785 -0.09642
 C1167 C 0.67887 0.17921 -0.11171
 C1168 C 0.72273 0.22297 -0.03938
 H1169 H 0.68417 0.22672 -0.06653
 H1170 H 0.72638 0.18447 -0.06663
 H1171 H 0.74262 0.20047 -0.04143
 H1172 H 0.70024 0.24288 -0.04132
 C1173 C 0.19740 0.72064 -0.06102
 C1174 C 0.20475 0.70419 -0.06823
 C1175 C 0.22118 0.69694 -0.06090
 C1176 C 0.23034 0.70617 -0.04652
 C1177 C 0.17241 0.67157 -0.12488
 C1178 C 0.20653 0.72990 -0.04664
 C1179 C 0.19568 0.69500 -0.08345
 C1180 C 0.18821 0.68746 -0.09636
 C1181 C 0.17962 0.67881 -0.11166
 C1182 C 0.22316 0.72282 -0.03929
 H1183 H 0.18470 0.72639 -0.06662
 H1184 H 0.22701 0.68423 -0.06640
 H1185 H 0.24311 0.70036 -0.04118
 H1186 H 0.20064 0.74268 -0.04140
 C1187 C 0.22060 0.19680 0.43925
 C1188 C 0.20416 0.20411 0.43200
 C1189 C 0.19684 0.22053 0.43932
 C1190 C 0.20601 0.22969 0.45374
 C1191 C 0.17178 0.17186 0.37516
 C1192 C 0.22979 0.20594 0.45367
 C1193 C 0.19505 0.19504 0.41673
 C1194 C 0.18757 0.18759 0.40378
 C1195 C 0.17898 0.17903 0.38843
 C1196 C 0.22265 0.22256 0.46100
 H1197 H 0.22640 0.18412 0.43366
 H1198 H 0.18414 0.22633 0.43378
 H1199 H 0.20014 0.24245 0.45906
 H1200 H 0.24257 0.20008 0.45894
 C1201 C 0.30289 0.43924 0.72103
 C1202 C 0.29556 0.43192 0.70463
 C1203 C 0.27910 0.43916 0.69734
 C1204 C 0.26990 0.45356 0.70650
 C1205 C 0.32804 0.37521 0.67223
 C1206 C 0.29371 0.45364 0.73022
 C1207 C 0.30469 0.41669 0.69552
 C1208 C 0.31219 0.40376 0.68804
 C1209 C 0.32082 0.38845 0.67944
 C1210 C 0.27705 0.46090 0.72310
 H1211 H 0.31561 0.43372 0.72681
 H1212 H 0.27329 0.43357 0.68467
 H1213 H 0.25711 0.45882 0.70066
 H1214 H 0.29958 0.45897 0.74296
 C1215 C 0.27911 0.93999 0.19712
 C1216 C 0.29551 0.93269 0.20445
 C1217 C 0.30277 0.93992 0.22093
 C1218 C 0.29357 0.95430 0.23013
 C1219 C 0.32802 0.87606 0.17193
 C1220 C 0.26988 0.95437 0.20629
 C1221 C 0.30466 0.91748 0.19532
 C1222 C 0.31217 0.90457 0.18781
 C1223 C 0.32079 0.88928 0.17917
 C1224 C 0.27696 0.96162 0.22296
 H1225 H 0.27335 0.93447 0.18439
 H1226 H 0.31545 0.93435 0.22674
 H1227 H 0.29939 0.95956 0.24293
 H1228 H 0.25713 0.95968 0.20040
 C1229 C 0.77979 0.43944 0.19672
 C1230 C 0.79622 0.43216 0.20403
 C1231 C 0.80350 0.43942 0.22048
 C1232 C 0.79430 0.45380 0.22969
 C1233 C 0.82872 0.37549 0.17160
 C1234 C 0.77057 0.45382 0.20589
 C1235 C 0.80536 0.41694 0.19492
 C1236 C 0.81287 0.40403 0.18742
 C1237 C 0.82149 0.38872 0.17881
 C1238 C 0.77767 0.46109 0.22254
 H1239 H 0.77402 0.43390 0.18400
 H1240 H 0.81619 0.43386 0.22629
 H1241 H 0.80014 0.45908 0.24247
 H1242 H 0.75780 0.45911 0.20002
 C1243 C 0.80283 0.93998 0.72104
 C1244 C 0.79554 0.93266 0.70463
 C1245 C 0.77907 0.93988 0.69734
 C1246 C 0.76983 0.95425 0.70650
 C1247 C 0.82816 0.87607 0.67216
 C1248 C 0.79362 0.95435 0.73024
 C1249 C 0.80470 0.91746 0.69551
 C1250 C 0.81224 0.90456 0.68801
 C1251 C 0.82090 0.88928 0.67939
 C1252 C 0.77695 0.96158 0.72311
 H1253 H 0.81556 0.93448 0.72683
 H1254 H 0.77328 0.93429 0.68465
 H1255 H 0.75703 0.95949 0.70065
 H1256 H 0.79948 0.95968 0.74299
 C1257 C 0.72091 0.56080 0.69735
 C1258 C 0.70447 0.56805 0.70467
 C1259 C 0.69719 0.56076 0.72109
 C1260 C 0.70638 0.54637 0.73027
 C1261 C 0.67188 0.62471 0.67230
 C1262 C 0.73014 0.54642 0.70650
 C1263 C 0.69531 0.58328 0.69557
 C1264 C 0.68778 0.59619 0.68810
 C1265 C 0.67913 0.61149 0.67950
 C1266 C 0.72303 0.53910 0.72312
 H1267 H 0.72668 0.56638 0.68466
 H1268 H 0.68448 0.56629 0.72689
 H1269 H 0.70054 0.54106 0.74303
 H1270 H 0.74291 0.54114 0.70063
 C1271 C 0.72085 0.06045 0.19697
 C1272 C 0.70443 0.06775 0.20428
 C1273 C 0.69718 0.06053 0.22075
 C1274 C 0.70638 0.04618 0.22998
 C1275 C 0.67187 0.12429 0.17170
 C1276 C 0.73008 0.04609 0.20616
 C1277 C 0.69528 0.08293 0.19513
 C1278 C 0.68775 0.09582 0.18760
 C1279 C 0.67911 0.11109 0.17895
 C1280 C 0.72300 0.03886 0.22283
 H1281 H 0.72660 0.06595 0.18424
 H1282 H 0.68449 0.06611 0.22655
 H1283 H 0.70056 0.04093 0.24277
 H1284 H 0.74283 0.04078 0.20029
 C1285 C 0.22032 0.56053 0.19676
 C1286 C 0.20388 0.56782 0.20404
 C1287 C 0.19658 0.56057 0.22047
 C1288 C 0.20575 0.54620 0.22969
 C1289 C 0.17146 0.62450 0.17154
 C1290 C 0.22953 0.54616 0.20595
 C1291 C 0.19477 0.58304 0.19490
 C1292 C 0.18728 0.59596 0.18739
 C1293 C 0.17867 0.61127 0.17877
 C1294 C 0.22239 0.53889 0.22258
 H1295 H 0.22612 0.56607 0.18406
 H1296 H 0.18387 0.56613 0.22624
 H1297 H 0.19989 0.54092 0.24246
 H1298 H 0.24230 0.54086 0.20011
 C1299 C 0.22070 0.05991 0.69730
 C1300 C 0.20426 0.06718 0.70460
 C1301 C 0.19699 0.05991 0.72104
 C1302 C 0.20618 0.04553 0.73024
 C1303 C 0.17175 0.12381 0.67212
 C1304 C 0.22993 0.04554 0.70646
 C1305 C 0.19512 0.08239 0.69548
 C1306 C 0.18761 0.09529 0.68798
 C1307 C 0.17898 0.11059 0.67935
 C1308 C 0.22282 0.03825 0.72310
 H1309 H 0.22647 0.06546 0.68459
 H1310 H 0.18429 0.06545 0.72684
 H1311 H 0.20035 0.04024 0.74301
 H1312 H 0.24270 0.04025 0.70060
 C1313 C 0.27875 0.56073 0.30261
 C1314 C 0.29520 0.56798 0.29531
 C1315 C 0.30249 0.56069 0.27889
 C1316 C 0.29330 0.54629 0.26970
 C1317 C 0.32774 0.62466 0.32777
 C1318 C 0.26953 0.54633 0.29345
 C1319 C 0.30434 0.58321 0.30443
 C1320 C 0.31186 0.59613 0.31192
 C1321 C 0.32050 0.61143 0.32054
 C1322 C 0.27666 0.53901 0.27683
 H1323 H 0.27296 0.56630 0.31530
 H1324 H 0.31520 0.56622 0.27311
 H1325 H 0.29916 0.54098 0.25695
 H1326 H 0.25675 0.54105 0.29930
 C1327 C 0.27920 0.05988 0.80318
 C1328 C 0.29563 0.06720 0.79588
 C1329 C 0.30292 0.05997 0.77943
 C1330 C 0.29374 0.04559 0.77020
 C1331 C 0.32808 0.12385 0.82846
 C1332 C 0.27000 0.04550 0.79398
 C1333 C 0.30475 0.08241 0.80504
 C1334 C 0.31224 0.09532 0.81257
 C1335 C 0.32086 0.11062 0.82122
 C1336 C 0.27711 0.03826 0.77732
 H1337 H 0.27342 0.06540 0.81589
 H1338 H 0.31561 0.06555 0.77365
 H1339 H 0.29959 0.04033 0.75742
 H1340 H 0.25724 0.04018 0.79983
 C1341 C 0.77952 0.56073 0.80308
 C1342 C 0.79596 0.56799 0.79578
 C1343 C 0.80324 0.56070 0.77934
 C1344 C 0.79403 0.54632 0.77014
 C1345 C 0.82855 0.62466 0.82818
 C1346 C 0.77028 0.54635 0.79391
 C1347 C 0.80512 0.58321 0.80489
 C1348 C 0.81265 0.59612 0.81237
 C1349 C 0.82130 0.61143 0.82097
 C1350 C 0.77739 0.53905 0.77727
 H1351 H 0.77374 0.56629 0.81578
 H1352 H 0.81595 0.56624 0.77355
 H1353 H 0.79987 0.54103 0.75737
 H1354 H 0.75750 0.54107 0.79977
 C1355 C 0.77962 0.06058 0.30274
 C1356 C 0.79605 0.06783 0.29540
 C1357 C 0.80328 0.06054 0.27895
 C1358 C 0.79405 0.04616 0.26978
 C1359 C 0.82866 0.12447 0.32784
 C1360 C 0.77036 0.04620 0.29360
 C1361 C 0.80523 0.08304 0.30450
 C1362 C 0.81276 0.09595 0.31199
 C1363 C 0.82142 0.11125 0.32061
 C1364 C 0.77742 0.03890 0.27695
 H1365 H 0.77387 0.06614 0.31546
 H1366 H 0.81598 0.06608 0.27313
 H1367 H 0.79986 0.04086 0.25700
 H1368 H 0.75759 0.04093 0.29949
 C1369 C 0.72114 0.43932 0.30244
 C1370 C 0.70470 0.43208 0.29511
 C1371 C 0.69744 0.43936 0.27867
 C1372 C 0.70665 0.45374 0.26949
 C1373 C 0.67206 0.37547 0.32753
 C1374 C 0.73038 0.45370 0.29329
 C1375 C 0.69552 0.41687 0.30421
 C1376 C 0.68798 0.40397 0.31169
 C1377 C 0.67931 0.38868 0.32031
 C1378 C 0.72329 0.46101 0.27666
 H1379 H 0.72690 0.43376 0.31514
 H1380 H 0.68473 0.43383 0.27285
 H1381 H 0.70083 0.45905 0.25672
 H1382 H 0.74316 0.45898 0.29917
 C1383 C 0.72074 0.93996 0.80325
 C1384 C 0.70431 0.93262 0.79598
 C1385 C 0.69697 0.93984 0.77954
 C1386 C 0.70611 0.95423 0.77030
 C1387 C 0.67195 0.87593 0.82854
 C1388 C 0.72991 0.95435 0.79404
 C1389 C 0.69523 0.91740 0.80514
 C1390 C 0.68775 0.90448 0.81267
 C1391 C 0.67916 0.88917 0.82131
 C1392 C 0.72275 0.96158 0.77740
 H1393 H 0.72656 0.93445 0.81595
 H1394 H 0.68428 0.93424 0.77378
 H1395 H 0.70023 0.95947 0.75753
 H1396 H 0.74268 0.95969 0.79986
 C1397 C 0.22082 0.43937 0.80323
 C1398 C 0.20437 0.43208 0.79598
 C1399 C 0.19703 0.43932 0.77955
 C1400 C 0.20620 0.45369 0.77031
 C1401 C 0.17190 0.37543 0.82849
 C1402 C 0.23002 0.45374 0.79402
 C1403 C 0.19525 0.41686 0.80513
 C1404 C 0.18776 0.40395 0.81265
 C1405 C 0.17913 0.38865 0.82127
 C1406 C 0.22286 0.46099 0.77739
 H1407 H 0.22664 0.43384 0.81593
 H1408 H 0.18432 0.43376 0.77379
 H1409 H 0.20032 0.45896 0.75755
 H1410 H 0.24281 0.45904 0.79984
 C1411 C 0.22036 0.93993 0.30280
 C1412 C 0.20394 0.93266 0.29544
 C1413 C 0.19670 0.93994 0.27899
 C1414 C 0.20592 0.95433 0.26983
 C1415 C 0.17139 0.87597 0.32781
 C1416 C 0.22960 0.95432 0.29367
 C1417 C 0.19478 0.91743 0.30453
 C1418 C 0.18725 0.90452 0.31200
 C1419 C 0.17862 0.88920 0.32060
 C1420 C 0.22254 0.96161 0.27702
 H1421 H 0.22610 0.93438 0.31552
 H1422 H 0.18401 0.93439 0.27316
 H1423 H 0.20011 0.95962 0.25705
 H1424 H 0.24236 0.95961 0.29958
 C1425 C 0.43925 0.27872 0.69746
 C1426 C 0.43200 0.29517 0.70476
 C1427 C 0.43930 0.30246 0.72119
 C1428 C 0.45368 0.29326 0.73038
 C1429 C 0.37540 0.32774 0.67229
 C1430 C 0.45363 0.26949 0.70662
 C1431 C 0.41680 0.30432 0.69565
 C1432 C 0.40390 0.31185 0.68815
 C1433 C 0.38861 0.32050 0.67952
 C1434 C 0.46094 0.27661 0.72325
 H1435 H 0.43368 0.27294 0.68476
 H1436 H 0.43377 0.31517 0.72699
 H1437 H 0.45899 0.29911 0.74315
 H1438 H 0.45890 0.25671 0.70075
 C1439 C 0.43925 0.77954 0.19698
 C1440 C 0.43202 0.79601 0.20428
 C1441 C 0.43932 0.80329 0.22070
 C1442 C 0.45369 0.79408 0.22990
 C1443 C 0.37541 0.82863 0.17186
 C1444 C 0.45361 0.77030 0.20615
 C1445 C 0.41682 0.80517 0.19516
 C1446 C 0.40392 0.81271 0.18768
 C1447 C 0.38862 0.82137 0.17907
 C1448 C 0.46093 0.77742 0.22277
 H1449 H 0.43367 0.77376 0.18428
 H1450 H 0.43381 0.81601 0.22649
 H1451 H 0.45900 0.79993 0.24266
 H1452 H 0.45887 0.75751 0.20029
 C1453 C 0.94000 0.30294 0.22059
 C1454 C 0.93276 0.29563 0.20415
 C1455 C 0.94006 0.27920 0.19685
 C1456 C 0.95445 0.27001 0.20604
 C1457 C 0.87610 0.32805 0.17161
 C1458 C 0.95439 0.29377 0.22981
 C1459 C 0.91754 0.30474 0.19500
 C1460 C 0.90463 0.31223 0.18748
 C1461 C 0.88932 0.32083 0.17884
 C1462 C 0.96170 0.27714 0.22269
 H1463 H 0.93443 0.31563 0.22638
 H1464 H 0.93454 0.27341 0.18415
 H1465 H 0.95976 0.25724 0.20019
 H1466 H 0.95965 0.29963 0.24259
 C1467 C 0.93966 0.77983 0.69708
 C1468 C 0.93241 0.79626 0.70444
 C1469 C 0.93972 0.80351 0.72089
 C1470 C 0.95412 0.79429 0.73003
 C1471 C 0.87568 0.82877 0.67213
 C1472 C 0.95405 0.77059 0.70620
 C1473 C 0.91718 0.80542 0.69538
 C1474 C 0.90425 0.81294 0.68791
 C1475 C 0.88893 0.82156 0.67933
 C1476 C 0.96137 0.77766 0.72285
 H1477 H 0.93408 0.77409 0.68438
 H1478 H 0.93419 0.81620 0.72672
 H1479 H 0.95943 0.80010 0.74281
 H1480 H 0.95932 0.75782 0.70030
 C1481 C 0.56065 0.27906 0.30255
 C1482 C 0.56789 0.29550 0.29522
 C1483 C 0.56057 0.30277 0.27880
 C1484 C 0.54617 0.29356 0.26964
 C1485 C 0.62459 0.32808 0.32758
 C1486 C 0.54625 0.26982 0.29342
 C1487 C 0.58312 0.30467 0.30430
 C1488 C 0.59604 0.31219 0.31178
 C1489 C 0.61136 0.32084 0.32037
 C1490 C 0.53891 0.27691 0.27680
 H1491 H 0.56623 0.27330 0.31524
 H1492 H 0.56610 0.31547 0.27299
 H1493 H 0.54085 0.29939 0.25688
 H1494 H 0.54098 0.25704 0.29930
 C1495 C 0.56050 0.77966 0.80332
 C1496 C 0.56780 0.79609 0.79604
 C1497 C 0.56056 0.80340 0.77960
 C1498 C 0.54618 0.79423 0.77038
 C1499 C 0.62451 0.82853 0.82853
 C1500 C 0.54612 0.77046 0.79412
 C1501 C 0.58303 0.80521 0.80518
 C1502 C 0.59595 0.81270 0.81269
 C1503 C 0.61127 0.82131 0.82131
 C1504 C 0.53886 0.77759 0.77748
 H1505 H 0.56603 0.77386 0.81602
 H1506 H 0.56613 0.81610 0.77383
 H1507 H 0.54091 0.80009 0.75760
 H1508 H 0.54081 0.75768 0.79996
 C1509 C 0.06069 0.30276 0.77930
 C1510 C 0.06790 0.29549 0.79577
 C1511 C 0.06057 0.27907 0.80308
 C1512 C 0.04620 0.26986 0.79388
 C1513 C 0.12450 0.32799 0.82838
 C1514 C 0.04632 0.29357 0.77007
 C1515 C 0.08310 0.30462 0.80493
 C1516 C 0.09600 0.31213 0.81246
 C1517 C 0.11129 0.32076 0.82113
 C1518 C 0.03898 0.27696 0.77721
 H1519 H 0.06628 0.31544 0.77350
 H1520 H 0.06607 0.27331 0.81581
 H1521 H 0.04087 0.25711 0.79974
 H1522 H 0.04108 0.29940 0.75727
 C1523 C 0.06023 0.77932 0.30264
 C1524 C 0.06744 0.79579 0.29533
 C1525 C 0.06012 0.80306 0.27891
 C1526 C 0.04574 0.79382 0.26973
 C1527 C 0.12403 0.82848 0.32777
 C1528 C 0.04586 0.77006 0.29349
 C1529 C 0.08264 0.80498 0.30444
 C1530 C 0.09554 0.81253 0.31193
 C1531 C 0.11082 0.82121 0.32054
 C1532 C 0.03852 0.77715 0.27687
 H1533 H 0.06582 0.77356 0.31533
 H1534 H 0.06562 0.81578 0.27312
 H1535 H 0.04041 0.79966 0.25697
 H1536 H 0.04062 0.75727 0.29935
 C1537 C 0.56054 0.69744 0.72121
 C1538 C 0.56785 0.70472 0.70479
 C1539 C 0.56062 0.72118 0.69749
 C1540 C 0.54625 0.73041 0.70664
 C1541 C 0.62447 0.67213 0.67236
 C1542 C 0.54616 0.70664 0.73039
 C1543 C 0.58307 0.69556 0.69569
 C1544 C 0.59597 0.68803 0.68820
 C1545 C 0.61126 0.67938 0.67959
 C1546 C 0.53892 0.72330 0.72326
 H1547 H 0.56606 0.68472 0.72700
 H1548 H 0.56620 0.72696 0.68481
 H1549 H 0.54099 0.74320 0.70078
 H1550 H 0.54084 0.70080 0.74314
 C1551 C 0.56049 0.19677 0.22053
 C1552 C 0.56772 0.20406 0.20408
 C1553 C 0.56040 0.22049 0.19678
 C1554 C 0.54603 0.22969 0.20597
 C1555 C 0.62439 0.17163 0.17159
 C1556 C 0.54612 0.20594 0.22975
 C1557 C 0.58294 0.19495 0.19494
 C1558 C 0.59585 0.18746 0.18743
 C1559 C 0.61116 0.17885 0.17881
 C1560 C 0.53880 0.22257 0.22263
 H1561 H 0.56608 0.18408 0.22631
 H1562 H 0.56592 0.22627 0.18407
 H1563 H 0.54071 0.24245 0.20012
 H1564 H 0.54087 0.20010 0.24254
 C1565 C 0.06012 0.72081 0.19679
 C1566 C 0.06744 0.70438 0.20407
 C1567 C 0.06023 0.69707 0.22051
 C1568 C 0.04585 0.70622 0.22975
 C1569 C 0.12409 0.67195 0.17153
 C1570 C 0.04574 0.72999 0.20600
 C1571 C 0.08266 0.69528 0.19491
 C1572 C 0.09557 0.68779 0.18739
 C1573 C 0.11087 0.67918 0.17876
 C1574 C 0.03851 0.72285 0.22264
 H1575 H 0.06563 0.72661 0.18408
 H1576 H 0.06581 0.68437 0.22628
 H1577 H 0.04060 0.70035 0.24252
 H1578 H 0.04041 0.74276 0.20016
 C1579 C 0.06059 0.22035 0.69726
 C1580 C 0.06782 0.20391 0.70459
 C1581 C 0.06054 0.19667 0.72104
 C1582 C 0.04618 0.20591 0.73022
 C1583 C 0.12438 0.17126 0.67214
 C1584 C 0.04623 0.22962 0.70641
 C1585 C 0.08301 0.19472 0.69549
 C1586 C 0.09590 0.18718 0.68799
 C1587 C 0.11118 0.17851 0.67937
 C1588 C 0.03893 0.22255 0.72306
 H1589 H 0.06615 0.22609 0.68455
 H1590 H 0.06606 0.18397 0.72686
 H1591 H 0.04087 0.20010 0.74300
 H1592 H 0.04097 0.24239 0.70052
 C1593 C 0.43914 0.72103 0.30274
 C1594 C 0.43187 0.70459 0.29544
 C1595 C 0.43915 0.69728 0.27901
 C1596 C 0.45354 0.70646 0.26982
 C1597 C 0.37518 0.67207 0.32782
 C1598 C 0.45354 0.73024 0.29358
 C1599 C 0.41664 0.69546 0.30454
 C1600 C 0.40372 0.68794 0.31202
 C1601 C 0.38841 0.67931 0.32062
 C1602 C 0.46083 0.72310 0.27695
 H1603 H 0.43359 0.72683 0.31543
 H1604 H 0.43359 0.68457 0.27322
 H1605 H 0.45884 0.70059 0.25706
 H1606 H 0.45883 0.74302 0.29943
 C1607 C 0.43938 0.19648 0.77955
 C1608 C 0.43214 0.20377 0.79600
 C1609 C 0.43943 0.22022 0.80329
 C1610 C 0.45379 0.22943 0.79410
 C1611 C 0.37551 0.17127 0.82850
 C1612 C 0.45375 0.20566 0.77033
 C1613 C 0.41693 0.19464 0.80514
 C1614 C 0.40403 0.18713 0.81265
 C1615 C 0.38873 0.17850 0.82127
 C1616 C 0.46105 0.22231 0.77745
 H1617 H 0.43382 0.18377 0.77377
 H1618 H 0.43390 0.22600 0.81600
 H1619 H 0.45910 0.24221 0.79994
 H1620 H 0.45901 0.19981 0.75756
 C1621 C 0.93980 0.72110 0.80279
 C1622 C 0.93249 0.70469 0.79547
 C1623 C 0.93969 0.69743 0.77899
 C1624 C 0.95405 0.70662 0.76977
 C1625 C 0.87594 0.67212 0.82806
 C1626 C 0.95416 0.73033 0.79360
 C1627 C 0.91729 0.69553 0.80462
 C1628 C 0.90441 0.68801 0.81215
 C1629 C 0.88913 0.67937 0.82080
 C1630 C 0.96139 0.72324 0.77692
 H1631 H 0.93430 0.72686 0.81552
 H1632 H 0.93411 0.68474 0.77319
 H1633 H 0.95930 0.70080 0.75697
 H1634 H 0.95949 0.74308 0.79947
 C1635 C 0.94002 0.19707 0.27899
 C1636 C 0.93276 0.20436 0.29543
 C1637 C 0.94004 0.22080 0.30273
 C1638 C 0.95442 0.23001 0.29356
 C1639 C 0.87608 0.17189 0.32789
 C1640 C 0.95440 0.20625 0.26979
 C1641 C 0.91753 0.19523 0.30455
 C1642 C 0.90462 0.18773 0.31205
 C1643 C 0.88931 0.17911 0.32067
 C1644 C 0.96170 0.22289 0.27693
 H1645 H 0.93446 0.18436 0.27320
 H1646 H 0.93450 0.22659 0.31543
 H1647 H 0.95972 0.24279 0.29942
 H1648 H 0.95968 0.20040 0.25702
 C1649 C 0.27902 0.30253 0.56103
 C1650 C 0.29548 0.29524 0.56828
 C1651 C 0.30278 0.27880 0.56099
 C1652 C 0.29359 0.26960 0.54661
 C1653 C 0.32801 0.32775 0.62488
 C1654 C 0.26980 0.29336 0.54665
 C1655 C 0.30462 0.30437 0.58348
 C1656 C 0.31214 0.31188 0.59638
 C1657 C 0.32077 0.32051 0.61167
 C1658 C 0.27693 0.27672 0.53935
 H1659 H 0.27324 0.31523 0.56659
 H1660 H 0.31549 0.27302 0.56652
 H1661 H 0.29944 0.25683 0.54131
 H1662 H 0.25702 0.29921 0.54138
 C1663 C 0.27913 0.80330 0.06057
 C1664 C 0.29557 0.79605 0.06789
 C1665 C 0.30291 0.77960 0.06068
 C1666 C 0.29377 0.77033 0.04631
 C1667 C 0.32798 0.82868 0.12450
 C1668 C 0.26996 0.79406 0.04620
 C1669 C 0.30466 0.80524 0.08310
 C1670 C 0.31214 0.81278 0.09600
 C1671 C 0.32075 0.82144 0.11129
 C1672 C 0.27713 0.77740 0.03898
 H1673 H 0.27330 0.81601 0.06608
 H1674 H 0.31562 0.77385 0.06627
 H1675 H 0.29966 0.75755 0.04107
 H1676 H 0.25718 0.79987 0.04087
 C1677 C 0.77938 0.30286 0.06058
 C1678 C 0.79586 0.29555 0.06776
 C1679 C 0.80313 0.27912 0.06043
 C1680 C 0.79388 0.26994 0.04607
 C1681 C 0.82861 0.32800 0.12429
 C1682 C 0.77011 0.29371 0.04622
 C1683 C 0.80506 0.30466 0.08295
 C1684 C 0.81263 0.31215 0.09583
 C1685 C 0.82133 0.32077 0.11110
 C1686 C 0.77721 0.27708 0.03887
 H1687 H 0.77362 0.31556 0.06618
 H1688 H 0.81586 0.27333 0.06591
 H1689 H 0.79972 0.25718 0.04073
 H1690 H 0.75732 0.29957 0.04100
 C1691 C 0.77932 0.80322 0.56094
 C1692 C 0.79574 0.79593 0.56826
 C1693 C 0.80303 0.77945 0.56106
 C1694 C 0.79385 0.77019 0.54670
 C1695 C 0.82821 0.82861 0.62480
 C1696 C 0.77012 0.79400 0.54659
 C1697 C 0.80487 0.80511 0.58345
 C1698 C 0.81237 0.81266 0.59633
 C1699 C 0.82099 0.82134 0.61160
 C1700 C 0.77723 0.77732 0.53937
 H1701 H 0.77355 0.81596 0.56643
 H1702 H 0.81572 0.77366 0.56665
 H1703 H 0.79970 0.75739 0.54147
 H1704 H 0.75736 0.79985 0.54126
 C1705 C 0.30252 0.72109 0.43898
 C1706 C 0.29521 0.70464 0.43171
 C1707 C 0.27877 0.69735 0.43898
 C1708 C 0.26956 0.70654 0.45334
 C1709 C 0.32772 0.67209 0.37514
 C1710 C 0.29334 0.73031 0.45334
 C1711 C 0.30435 0.69550 0.41652
 C1712 C 0.31185 0.68798 0.40362
 C1713 C 0.32049 0.67933 0.38835
 C1714 C 0.27670 0.72319 0.46062
 H1715 H 0.31523 0.72688 0.43343
 H1716 H 0.27297 0.68464 0.43344
 H1717 H 0.25678 0.70069 0.45863
 H1718 H 0.29920 0.74309 0.45863
 C1719 C 0.27917 0.19665 0.93968
 C1720 C 0.29562 0.20392 0.93239
 C1721 C 0.30295 0.22037 0.93963
 C1722 C 0.29379 0.22962 0.95399
 C1723 C 0.32807 0.17129 0.87584
 C1724 C 0.26999 0.20588 0.95404
 C1725 C 0.30473 0.19474 0.91720
 C1726 C 0.31222 0.18720 0.90431
 C1727 C 0.32084 0.17854 0.88904
 C1728 C 0.27714 0.22253 0.96129
 H1729 H 0.27336 0.18394 0.93416
 H1730 H 0.31566 0.22613 0.93407
 H1731 H 0.29967 0.24241 0.95925
 H1732 H 0.25721 0.20005 0.95934
 C1733 C 0.80331 0.72092 0.93950
 C1734 C 0.79607 0.70447 0.93218
 C1735 C 0.77963 0.69711 0.93939
 C1736 C 0.77037 0.70623 0.95376
 C1737 C 0.82863 0.67210 0.87554
 C1738 C 0.79408 0.73007 0.95387
 C1739 C 0.80524 0.69539 0.91696
 C1740 C 0.81277 0.68792 0.90406
 C1741 C 0.82141 0.67932 0.88876
 C1742 C 0.77744 0.72289 0.96110
 H1743 H 0.81601 0.72676 0.93399
 H1744 H 0.77388 0.68440 0.93380
 H1745 H 0.75759 0.70033 0.95900
 H1746 H 0.79989 0.74286 0.95920
 C1747 C 0.77942 0.19705 0.43890
 C1748 C 0.79590 0.20436 0.43172
 C1749 C 0.80318 0.22079 0.43904
 C1750 C 0.79394 0.22998 0.45339
 C1751 C 0.82860 0.17191 0.37520
 C1752 C 0.77016 0.20621 0.45325
 C1753 C 0.80509 0.19524 0.41653
 C1754 C 0.81265 0.18775 0.40365
 C1755 C 0.82133 0.17914 0.38839
 C1756 C 0.77727 0.22285 0.46059
 H1757 H 0.77365 0.18435 0.43331
 H1758 H 0.81591 0.22659 0.43356
 H1759 H 0.79979 0.24275 0.45872
 H1760 H 0.75736 0.20035 0.45848
 C1761 C 0.72093 0.30293 0.43888
 C1762 C 0.70449 0.29564 0.43159
 C1763 C 0.69717 0.27919 0.43883
 C1764 C 0.70633 0.26997 0.45321
 C1765 C 0.67202 0.32812 0.37496
 C1766 C 0.73011 0.29374 0.45326
 C1767 C 0.69537 0.30478 0.41637
 C1768 C 0.68787 0.31228 0.40347
 C1769 C 0.67925 0.32090 0.38817
 C1770 C 0.72297 0.27709 0.46052
 H1771 H 0.72673 0.31564 0.43335
 H1772 H 0.68447 0.27341 0.43326
 H1773 H 0.70046 0.25720 0.45848
 H1774 H 0.74289 0.29959 0.45857
 C1775 C 0.72097 0.80300 0.93961
 C1776 C 0.70456 0.79569 0.93227
 C1777 C 0.69728 0.77920 0.93944
 C1778 C 0.70645 0.76994 0.95378
 C1779 C 0.67203 0.82841 0.87581
 C1780 C 0.73018 0.79377 0.95395
 C1781 C 0.69543 0.80489 0.91710
 C1782 C 0.68792 0.81245 0.90423
 C1783 C 0.67928 0.82114 0.88898
 C1784 C 0.72307 0.77707 0.96114
 H1785 H 0.72674 0.81575 0.93414
 H1786 H 0.68459 0.77340 0.93384
 H1787 H 0.70061 0.75712 0.95899
 H1788 H 0.74293 0.79963 0.95929
 C1789 C 0.22087 0.30271 0.93961
 C1790 C 0.20440 0.29542 0.93237
 C1791 C 0.19709 0.27898 0.93965
 C1792 C 0.20628 0.26977 0.95401
 C1793 C 0.17188 0.32796 0.87581
 C1794 C 0.23009 0.29352 0.95397
 C1795 C 0.19526 0.30456 0.91718
 C1796 C 0.18774 0.31207 0.90429
 C1797 C 0.17911 0.32071 0.88901
 C1798 C 0.22295 0.27689 0.96127
 H1799 H 0.22666 0.31540 0.93406
 H1800 H 0.18437 0.27320 0.93412
 H1801 H 0.20042 0.25700 0.95931
 H1802 H 0.24288 0.29937 0.95924
 C1803 C 0.22037 0.80333 0.43904
 C1804 C 0.20392 0.79603 0.43177
 C1805 C 0.19662 0.77958 0.43903
 C1806 C 0.20580 0.77036 0.45339
 C1807 C 0.17142 0.82855 0.37518
 C1808 C 0.22958 0.79414 0.45341
 C1809 C 0.19479 0.80517 0.41657
 C1810 C 0.18728 0.81269 0.40367
 C1811 C 0.17865 0.82132 0.38839
 C1812 C 0.22245 0.77749 0.46067
 H1813 H 0.22616 0.81604 0.43351
 H1814 H 0.18391 0.77380 0.43348
 H1815 H 0.19994 0.75758 0.45866
 H1816 H 0.24236 0.79999 0.45869
 C1817 C 0.72077 0.69726 0.56108
 C1818 C 0.70434 0.70459 0.56833
 C1819 C 0.69707 0.72104 0.56104
 C1820 C 0.70628 0.73022 0.54667
 C1821 C 0.67183 0.67214 0.62494
 C1822 C 0.73001 0.70641 0.54671
 C1823 C 0.69519 0.69548 0.58354
 C1824 C 0.68767 0.68799 0.59644
 C1825 C 0.67905 0.67937 0.61173
 C1826 C 0.72291 0.72306 0.53941
 H1827 H 0.72654 0.68455 0.56664
 H1828 H 0.68437 0.72685 0.56657
 H1829 H 0.70045 0.74300 0.54136
 H1830 H 0.74278 0.70053 0.54144
 C1831 C 0.69707 0.22068 0.06051
 C1832 C 0.70438 0.20422 0.06773
 C1833 C 0.72082 0.19695 0.06044
 C1834 C 0.73002 0.20616 0.04609
 C1835 C 0.67186 0.17166 0.12428
 C1836 C 0.70624 0.22993 0.04616
 C1837 C 0.69525 0.19506 0.08292
 C1838 C 0.68774 0.18753 0.09581
 C1839 C 0.67910 0.17889 0.11108
 C1840 C 0.72288 0.22282 0.03885
 H1841 H 0.68437 0.22645 0.06607
 H1842 H 0.72661 0.18423 0.06596
 H1843 H 0.74279 0.20032 0.04078
 H1844 H 0.70038 0.24271 0.04090
 C1845 C 0.19700 0.72093 0.06046
 C1846 C 0.20430 0.70451 0.06778
 C1847 C 0.22078 0.69723 0.06060
 C1848 C 0.23004 0.70640 0.04626
 C1849 C 0.17160 0.67199 0.12425
 C1850 C 0.20623 0.73014 0.04612
 C1851 C 0.19511 0.69538 0.08295
 C1852 C 0.18755 0.68787 0.09582
 C1853 C 0.17887 0.67923 0.11107
 C1854 C 0.22292 0.72303 0.03892
 H1855 H 0.18426 0.72671 0.06594
 H1856 H 0.22656 0.68454 0.06619
 H1857 H 0.24285 0.70056 0.04104
 H1858 H 0.20038 0.74289 0.04079
 C1859 C 0.19688 0.22025 0.56092
 C1860 C 0.20420 0.20379 0.56815
 C1861 C 0.22064 0.19652 0.56086
 C1862 C 0.22983 0.20573 0.54651
 C1863 C 0.17176 0.17122 0.62474
 C1864 C 0.20605 0.22949 0.54657
 C1865 C 0.19508 0.19463 0.58335
 C1866 C 0.18759 0.18710 0.59624
 C1867 C 0.17898 0.17845 0.61153
 C1868 C 0.22269 0.22239 0.53926
 H1869 H 0.18418 0.22602 0.56649
 H1870 H 0.22644 0.18381 0.56638
 H1871 H 0.24261 0.19990 0.54120
 H1872 H 0.20018 0.24227 0.54131
   
