data_POSCAR
  _audit_creation_date              2014-09-24
  _audit_creation_method            'ToBaCCo'
  _symmetry_space_group_name_H-M    'P1'
  _symmetry_Int_Tables_number       1
  _symmetry_cell_setting            triclinic
  loop_
  _symmetry_equiv_pos_as_xyz
 x,y,z
_cell_length_a 79.3707
_cell_length_b 76.7942
_cell_length_c 75.3149
_cell_angle_alpha 89.574300
_cell_angle_beta 89.881600
_cell_angle_gamma 90.360700
loop_
  _atom_site_label
  _atom_site_type_symbol
  _atom_site_fract_x
  _atom_site_fract_y
  _atom_site_fract_z
C1 C 0.29057 0.45669 0.94280
 N2 N 0.28383 0.44095 0.94709
 C3 C 0.29099 0.43085 0.95980
 N4 N 0.30518 0.43648 0.96817
 C5 C 0.31202 0.45226 0.96398
 N6 N 0.30462 0.46227 0.95127
 C7 C 0.41784 0.84899 0.42019
 N8 N 0.42406 0.83865 0.40706
 C9 C 0.41530 0.82409 0.40210
 N10 N 0.40071 0.81981 0.41059
 C11 C 0.39456 0.83008 0.42363
 N12 N 0.40307 0.84467 0.42817
 C13 C 0.93378 0.90750 0.82150
 N14 N 0.92081 0.91628 0.81387
 C15 C 0.91656 0.93236 0.81988
 N16 N 0.92535 0.93954 0.83350
 C17 C 0.93827 0.93075 0.84119
 N18 N 0.94233 0.91476 0.83514
 C19 C 0.43531 -0.09427 0.31846
 N20 N 0.43920 -0.08765 0.33452
 C21 C 0.42982 -0.07486 0.34180
 N22 N 0.41624 -0.06863 0.33285
 C23 C 0.41203 -0.07542 0.31675
 N24 N 0.42168 -0.08814 0.30958
 C25 C 0.81427 0.31380 0.33166
 N26 N 0.80676 0.32750 0.32357
 C27 C 0.81541 0.33768 0.31182
 N28 N 0.83184 0.33393 0.30795
 C29 C 0.83935 0.32001 0.31602
 N30 N 0.83053 0.31022 0.32790
 C31 C -0.20276 0.81110 0.78453
 N32 N -0.18941 0.80190 0.77619
 C33 C -0.18236 0.78772 0.78387
 N34 N -0.18810 0.78177 0.79986
 C35 C -0.20116 0.78966 0.80832
 N36 N -0.20837 0.80394 0.80107
 C37 C 0.93991 0.30545 0.45751
 N38 N 0.92638 0.29807 0.46563
 C39 C 0.91657 0.28640 0.45703
 N40 N 0.92048 0.28183 0.44013
 C41 C 0.93427 0.28881 0.43197
 N42 N 0.94385 0.30081 0.44061
 C43 C 0.41302 0.40945 0.85168
 N44 N 0.40085 0.41736 0.84190
 C45 C 0.39524 0.41006 0.82661
 N46 N 0.40217 0.39496 0.82089
 C47 C 0.41430 0.38696 0.83067
 N48 N 0.41955 0.39419 0.84607
 C49 C 0.81840 0.91095 0.94542
 N50 N 0.81108 0.91632 0.93007
 C51 C 0.81496 0.93211 0.92287
 N52 N 0.82649 0.94259 0.93100
 C53 C 0.83382 0.93728 0.94645
 N54 N 0.82963 0.92155 0.95355
 C55 C 0.31146 0.83210 0.31181
 N56 N 0.30364 0.82560 0.32662
 C57 C 0.30887 0.81030 0.33393
 N58 N 0.32190 0.80166 0.32648
 C59 C 0.32983 0.80804 0.31189
 N60 N 0.32460 0.82329 0.30457
 C61 C 0.80563 0.43533 0.44172
 N62 N 0.79898 0.44679 0.42988
 C63 C 0.80712 0.46195 0.42598
 N64 N 0.82198 0.46558 0.43395
 C65 C 0.82892 0.45413 0.44553
 N66 N 0.82079 0.43890 0.44937
 C67 C 0.94302 0.84446 -0.06378
 N68 N 0.92998 0.83629 -0.05534
 C69 C 0.92414 0.82069 -0.06128
 N70 N 0.93130 0.81337 -0.07582
 C71 C 0.94432 0.82145 -0.08431
 N72 N 0.95011 0.83693 -0.07819
 C73 C 0.34218 0.34996 0.82421
 N74 N 0.35835 0.34546 0.82074
 C75 C 0.36637 0.33362 0.83109
 N76 N 0.35811 0.32622 0.84498
 C77 C 0.34186 0.33034 0.84844
 N78 N 0.33380 0.34220 0.83799
 C79 C 0.15538 0.56940 0.56943
 N80 N 0.16271 0.58453 0.56413
 C81 C 0.17632 0.59100 0.57281
 N82 N 0.18270 0.58212 0.58696
 C83 C 0.17542 0.56686 0.59238
 N84 N 0.16176 0.56060 0.58358
 C85 C 0.59787 0.67961 0.05623
 N86 N 0.58557 0.66966 0.04879
 C87 C 0.57006 0.66869 0.05634
 N88 N 0.56688 0.67773 0.07127
 C89 C 0.57890 0.68781 0.07885
 N90 N 0.59452 0.68870 0.07136
 C91 C 0.69514 0.18502 0.67268
 N92 N 0.70369 0.17272 0.68196
 C93 C 0.69765 0.16663 0.69769
 N94 N 0.68296 0.17288 0.70414
 C95 C 0.67432 0.18524 0.69506
 N96 N 0.68040 0.19129 0.67925
 C97 C 1.08498 0.06050 0.19510
 N98 N 1.07880 0.07461 0.20372
 C99 C 1.06418 0.08212 0.19828
 N100 N 1.05584 0.07558 0.18397
 C101 C 1.06200 0.06145 0.17535
 N102 N 1.07645 0.05402 0.18106
 C103 C 0.07935 0.16192 1.07446
 N104 N 0.09526 0.16588 1.06893
 C105 C 0.10517 0.17661 1.07875
 N106 N 0.09912 0.18343 1.09398
 C107 C 0.08320 0.17987 1.09941
 N108 N 0.07334 0.16908 1.08962
 C109 C 0.16886 0.69453 0.70838
 N110 N 0.17772 0.68011 0.71308
 C111 C 0.19244 0.67633 0.70468
 N112 N 0.19818 0.68697 0.69152
 C113 C 0.18939 0.70136 0.68672
 N114 N 0.17476 0.70506 0.69516
 C115 C 1.17834 0.15925 0.18208
 N116 N 1.18621 0.16174 0.16627
 C117 C 1.17991 0.17303 0.15407
 N118 N 1.16552 0.18195 0.15781
 C119 C 1.15753 0.17940 0.17366
 N120 N 1.16404 0.16803 0.18565
 C121 C 0.67322 1.06548 0.55771
 N122 N 0.68206 1.05695 0.57059
 C123 C 0.69557 1.06487 0.57829
 N124 N 0.70006 1.08123 0.57318
 C125 C 0.69118 1.08989 0.56063
 N126 N 0.67780 1.08193 0.55291
 C127 C 0.57256 0.57165 0.15209
 N128 N 0.58797 0.56531 0.15608
 C129 C 0.59644 0.57079 0.17057
 N130 N 0.58944 0.58303 0.18120
 C131 C 0.57396 0.58964 0.17736
 N132 N 0.56547 0.58385 0.16277
 C133 C 0.66213 0.69619 0.18098
 N134 N 0.67053 0.70074 0.16489
 C135 C 0.68481 0.69269 0.15975
 N136 N 0.69147 0.67974 0.16992
 C137 C 0.68410 0.67477 0.18550
 N138 N 0.66988 0.68266 0.19112
 C139 C 0.15664 0.06927 1.06884
 N140 N 0.16714 0.08188 1.06245
 C141 C 0.18202 0.08538 1.07058
 N142 N 0.18641 0.07614 1.08528
 C143 C 0.17605 0.06346 1.09192
 N144 N 0.16114 0.06010 1.08364
 C145 C 0.59448 0.17564 0.56499
 N146 N 0.58573 0.18284 0.57859
 C147 C 0.57540 0.17283 0.58885
 N148 N 0.57385 0.15562 0.58551
 C149 C 0.58236 0.14833 0.57191
 N150 N 0.59265 0.15837 0.56156
 C151 C 0.08353 0.55863 0.69050
 N152 N 0.07883 0.54733 0.67768
 C153 C 0.06432 0.54970 0.66858
 N154 N 0.05447 0.56366 0.67221
 C155 C 0.05913 0.57507 0.68504
 N156 N 0.07365 0.57245 0.69416
 C157 C 0.65653 0.55233 0.05430
 N158 N 0.66384 0.56598 0.04554
 C159 C 0.67881 0.57260 0.05123
 N160 N 0.68635 0.56557 0.06575
 C161 C 0.67912 0.55194 0.07451
 N162 N 0.66422 0.54540 0.06875
 C163 C 0.06251 0.67028 0.58133
 N164 N 0.05735 0.65574 0.57269
 C165 C 0.06566 0.65021 0.55803
 N166 N 0.07927 0.65928 0.55209
 C167 C 0.08463 0.67381 0.56062
 N168 N 0.07623 0.67932 0.57530
 C169 C 0.57094 1.06801 0.66366
 N170 N 0.58402 1.05854 0.67012
 C171 C 0.59315 1.06422 0.68415
 N172 N 0.58912 1.07956 0.69190
 C173 C 0.57603 1.08919 0.68571
 N174 N 0.56699 1.08339 0.67152
 C175 C 0.43280 0.34487 0.92539
 N176 N 0.43831 0.33585 0.91103
 C177 C 0.43132 0.32015 0.90690
 N178 N 0.41874 0.31352 0.91725
 C179 C 0.41313 0.32243 0.93161
 N180 N 0.42019 0.33805 0.93558
 C181 C 0.93508 0.43337 0.32993
 N182 N 0.91987 0.43787 0.32307
 C183 C 0.91450 0.43086 0.30755
 N184 N 0.92439 0.41943 0.29888
 C185 C 0.93963 0.41500 0.30547
 N186 N 0.94496 0.42192 0.32104
 C187 C 0.32359 0.94820 0.42933
 N188 N 0.31295 0.93531 0.43474
 C189 C 0.31773 0.92370 0.44738
 N190 N 0.33335 0.92503 0.45473
 C191 C 0.34412 0.93791 0.44938
 N192 N 0.33914 0.94940 0.43662
 O193 O 0.24254 0.47175 0.80240
 O194 O 0.21494 0.46994 0.78956
 O195 O 0.27421 0.45665 0.75894
 O196 O 0.27708 0.46536 0.72991
 O197 O 0.28717 0.50006 0.78979
 O198 O 0.27804 0.53014 0.78975
 O199 O 0.23248 0.50601 0.70947
 O200 O 0.24010 0.47576 0.71062
 O201 O 0.20173 0.51671 0.75053
 O202 O 0.20213 0.51041 0.78345
 O203 O 0.24322 0.54789 0.74189
 O204 O 0.27422 0.54465 0.74881
 O205 O 0.24994 0.52872 0.71578
 O206 O 0.27891 0.53008 0.72710
 O207 O 0.22025 0.54195 0.75904
 O208 O 0.21677 0.53092 0.78946
 O209 O 0.20768 0.49833 0.72784
 O210 O 0.21747 0.46854 0.72665
 O211 O 0.25927 0.49502 0.80891
 O212 O 0.25660 0.52577 0.80547
 O213 O 0.29344 0.48293 0.76620
 O214 O 0.29254 0.48971 0.73476
 O215 O 0.25061 0.45109 0.77534
 O216 O 0.22132 0.45368 0.76852
 Zr217 Zr 0.23738 0.47471 0.77512
 O218 O 0.22221 0.49004 0.75846
 Zr219 Zr 0.27148 0.48282 0.75070
 O220 O 0.25777 0.49870 0.73288
 Zr221 Zr 0.26231 0.50842 0.78468
 O222 O 0.24805 0.52529 0.76858
 Zr223 Zr 0.23249 0.49064 0.73272
 O224 O 0.24656 0.47338 0.74887
 Zr225 Zr 0.22315 0.51597 0.76695
 O226 O 0.23689 0.50033 0.78489
 Zr227 Zr 0.25709 0.52444 0.74235
 O228 O 0.27267 0.50896 0.75897
 O229 O 0.26235 0.48268 0.77659
 O230 O 0.23204 0.51648 0.74095
 C231 C 0.25106 0.48114 0.81325
 C232 C 0.26481 0.44665 0.76861
 C233 C 0.29709 0.49002 0.78111
 C234 C 0.23984 0.52048 0.70546
 C235 C 0.19803 0.50894 0.73598
 C236 C 0.22915 0.55210 0.74919
 H237 H 0.21058 0.48537 0.75862
 H238 H 0.24860 0.53717 0.77352
 H239 H 0.26883 0.47518 0.78480
 H240 H 0.26264 0.49813 0.72081
 H241 H 0.24575 0.46527 0.71542
 H242 H 0.27345 0.47084 0.71863
 H243 H 0.22587 0.53959 0.79126
 H244 H 0.24469 0.52355 0.80875
 H245 H 0.20913 0.46690 0.73629
 H246 H 0.22477 0.44978 0.75656
 H247 H 0.26978 0.55069 0.75936
 H248 H 0.28570 0.53133 0.77942
 H249 H 0.21270 0.48061 0.79646
 H250 H 0.19590 0.50048 0.77828
 H251 H 0.29634 0.50138 0.73864
 H252 H 0.28064 0.52031 0.71883
 O253 O 0.24961 -0.01268 0.30996
 O254 O 0.22055 -0.00864 0.30326
 O255 O 0.26683 -0.04208 0.26538
 O256 O 0.26723 -0.03894 0.23585
 O257 O 0.29590 0.00187 0.28361
 O258 O 0.29334 0.03226 0.28123
 O259 O 0.22858 0.00935 0.21524
 O260 O 0.22813 -0.02093 0.22132
 O261 O 0.21037 0.03440 0.25951
 O262 O 0.21657 0.03497 0.29061
 O263 O 0.25588 0.05052 0.23546
 O264 O 0.28520 0.04024 0.23700
 O265 O 0.25202 0.02646 0.21356
 O266 O 0.28252 0.02040 0.21984
 O267 O 0.23558 0.05427 0.25640
 O268 O 0.23781 0.04954 0.29000
 O269 O 0.20710 0.01278 0.23929
 O270 O 0.20933 -0.01939 0.24308
 O271 O 0.27253 0.00527 0.30866
 O272 O 0.27430 0.03592 0.29999
 O273 O 0.29320 -0.02081 0.26450
 O274 O 0.28676 -0.01865 0.23217
 O275 O 0.24691 -0.03837 0.28678
 O276 O 0.21808 -0.02831 0.28431
 Zr277 Zr 0.23971 -0.01209 0.28408
 O278 O 0.22554 0.00466 0.26779
 Zr279 Zr 0.26901 -0.01743 0.25314
 O280 O 0.25565 -0.00144 0.23507
 Zr281 Zr 0.27274 0.01470 0.28232
 O282 O 0.26032 0.03226 0.26536
 Zr283 Zr 0.22973 -0.00151 0.24100
 O284 O 0.24274 -0.01960 0.25742
 Zr285 Zr 0.23435 0.03039 0.27023
 O286 O 0.24690 0.01399 0.28848
 Zr287 Zr 0.26325 0.02452 0.23881
 O288 O 0.27776 0.00835 0.25568
 O289 O 0.26552 -0.01119 0.27965
 O290 O 0.23739 0.02430 0.24352
 C291 C 0.26247 -0.00518 0.31695
 C292 C 0.25769 -0.04766 0.27838
 C293 C 0.30149 -0.01177 0.27594
 C294 C 0.23839 0.02009 0.20701
 C295 C 0.20194 0.02635 0.24759
 C296 C 0.24458 0.05959 0.24321
 H297 H 0.21353 0.00363 0.27113
 H298 H 0.26470 0.04417 0.26733
 H299 H 0.27179 -0.01902 0.28773
 H300 H 0.25758 -0.00530 0.22275
 H301 H 0.23276 -0.03170 0.22666
 H302 H 0.26071 -0.03511 0.22537
 H303 H 0.24747 0.05700 0.28645
 H304 H 0.26349 0.03623 0.30655
 H305 H 0.20238 -0.01612 0.25342
 H306 H 0.21839 -0.03512 0.27321
 H307 H 0.28508 0.04841 0.24708
 H308 H 0.29817 0.03131 0.26915
 H309 H 0.22230 0.00311 0.30828
 H310 H 0.20917 0.02458 0.29144
 H311 H 0.29470 -0.00879 0.23375
 H312 H 0.27909 0.01048 0.21234
 O313 O 0.44561 0.75355 0.25916
 O314 O 0.44853 0.72270 0.26089
 O315 O 0.49012 0.77077 0.28694
 O316 O 0.51774 0.77002 0.28375
 O317 O 0.47517 0.79468 0.23641
 O318 O 0.47813 0.78611 0.20642
 O319 O 0.53350 0.72024 0.24685
 O320 O 0.52530 0.72356 0.27611
 O321 O 0.49041 0.69982 0.22086
 O322 O 0.46167 0.70798 0.21832
 O323 O 0.51795 0.74010 0.19786
 O324 O 0.51932 0.77128 0.20109
 O325 O 0.53738 0.73957 0.22415
 O326 O 0.53378 0.77242 0.22313
 O327 O 0.49537 0.72180 0.19633
 O328 O 0.46350 0.72766 0.20027
 O329 O 0.51033 0.69951 0.24250
 O330 O 0.50254 0.70652 0.27526
 O331 O 0.44942 0.77288 0.23641
 O332 O 0.45818 0.76799 0.20576
 O333 O 0.49284 0.79410 0.26016
 O334 O 0.52310 0.78401 0.26025
 O335 O 0.46666 0.75360 0.28598
 O336 O 0.46634 0.72177 0.28177
 Zr337 Zr 0.46884 0.74061 0.26131
 O338 O 0.48289 0.72142 0.24790
 Zr339 Zr 0.50124 0.76813 0.26186
 O340 O 0.51693 0.74993 0.24947
 Zr341 Zr 0.47440 0.76872 0.22798
 O342 O 0.48936 0.75123 0.21358
 Zr343 Zr 0.50844 0.72432 0.25442
 O344 O 0.49425 0.74252 0.26922
 Zr345 Zr 0.48207 0.72572 0.22031
 O346 O 0.46590 0.74325 0.23357
 Zr347 Zr 0.51460 0.75319 0.22188
 O348 O 0.50000 0.77255 0.23433
 O349 O 0.47592 0.76605 0.25541
 O350 O 0.50742 0.72756 0.22700
 C351 C 0.44049 0.76582 0.24880
 C352 C 0.47643 0.76469 0.29368
 C353 C 0.48282 0.80196 0.24939
 C354 C 0.54244 0.72735 0.23455
 C355 C 0.50222 0.69238 0.22964
 C356 C 0.50920 0.72828 0.19016
 H357 H 0.47862 0.70968 0.25105
 H358 H 0.48814 0.75358 0.20073
 H359 H 0.46895 0.77460 0.26182
 H360 H 0.52860 0.75165 0.25368
 H361 H 0.52018 0.73061 0.28564
 H362 H 0.52479 0.75946 0.28361
 H363 H 0.46787 0.73560 0.19091
 H364 H 0.45069 0.75774 0.20743
 H365 H 0.49561 0.69693 0.27040
 H366 H 0.47673 0.72250 0.28898
 H367 H 0.50930 0.77141 0.19332
 H368 H 0.48997 0.79019 0.20718
 H369 H 0.44432 0.72261 0.24852
 H370 H 0.45928 0.70349 0.23041
 H371 H 0.52202 0.79127 0.24939
 H372 H 0.54083 0.76985 0.23364
 O373 O -0.01394 0.76543 0.79285
 O374 O 0.01503 0.77158 0.78742
 O375 O -0.03733 0.78357 0.74479
 O376 O -0.03621 0.77782 0.71602
 O377 O -0.05096 0.73345 0.76782
 O378 O -0.03807 0.70561 0.76758
 O379 O 0.01712 0.74719 0.70089
 O380 O 0.00760 0.77579 0.70489
 O381 O 0.04145 0.73217 0.74703
 O382 O 0.03446 0.73267 0.77885
 O383 O 0.00547 0.69916 0.72527
 O384 O -0.02508 0.69803 0.72445
 O385 O 0.00258 0.72158 0.70092
 O386 O -0.02881 0.71667 0.70582
 O387 O 0.02444 0.70427 0.74722
 O388 O 0.02031 0.71086 0.77942
 O389 O 0.03787 0.75239 0.72518
 O390 O 0.02502 0.78198 0.72675
 O391 O -0.02898 0.74010 0.79318
 O392 O -0.02002 0.71043 0.78741
 O393 O -0.05507 0.75366 0.74602
 O394 O -0.04662 0.75173 0.71408
 O395 O -0.01885 0.78847 0.76731
 O396 O 0.01170 0.78964 0.76667
 Zr397 Zr -0.00302 0.76661 0.76746
 O398 O 0.01682 0.75534 0.75308
 Zr399 Zr -0.03078 0.75872 0.73551
 O400 O -0.01195 0.74767 0.71936
 Zr401 Zr -0.02481 0.72956 0.76776
 O402 O -0.00625 0.71679 0.75281
 Zr403 Zr 0.01187 0.75786 0.72583
 O404 O -0.00724 0.77081 0.74017
 Zr405 Zr 0.01728 0.72837 0.75784
 O406 O -0.00108 0.74004 0.77424
 Zr407 Zr -0.01026 0.72100 0.72550
 O408 O -0.03027 0.73173 0.74046
 O409 O -0.02670 0.75607 0.76261
 O410 O 0.01359 0.73118 0.73060
 C411 C -0.02370 0.75421 0.80045
 C412 C -0.03140 0.79282 0.75751
 C413 C -0.06041 0.74340 0.75845
 C414 C 0.01270 0.73275 0.69376
 C415 C 0.04699 0.74184 0.73430
 C416 C 0.01833 0.69501 0.73464
 H417 H 0.02758 0.76094 0.75642
 H418 H -0.00644 0.70427 0.75594
 H419 H -0.03561 0.76168 0.76973
 H420 H -0.01452 0.74975 0.70669
 H421 H -0.00059 0.78438 0.70938
 H422 H -0.02766 0.77668 0.70654
 H423 H 0.01262 0.70086 0.77755
 H424 H -0.00998 0.71442 0.79405
 H425 H 0.03270 0.78178 0.73706
 H426 H 0.00985 0.79502 0.75485
 H427 H -0.02367 0.69180 0.73588
 H428 H -0.04294 0.70445 0.75555
 H429 H 0.01749 0.76021 0.79309
 H430 H 0.03894 0.74466 0.77761
 H431 H -0.05091 0.73984 0.71659
 H432 H -0.02797 0.72620 0.69695
 O433 O -0.04049 -0.02449 0.00417
 O434 O -0.04192 -0.01536 0.03454
 O435 O -0.05328 0.02254 -0.02418
 O436 O -0.04369 0.05040 -0.02416
 O437 O -0.01165 -0.00783 -0.04079
 O438 O 0.01710 -0.01063 -0.03029
 O439 O -0.00460 0.06412 0.02400
 O440 O -0.03433 0.06381 0.01664
 O441 O 0.00423 0.01963 0.05336
 O442 O -0.00284 -0.01208 0.04926
 O443 O 0.03509 0.03214 0.01121
 O444 O 0.03253 0.02812 -0.02202
 O445 O 0.01752 0.05852 0.00572
 O446 O 0.01892 0.05006 -0.02564
 O447 O 0.02878 0.01290 0.03337
 O448 O 0.01726 -0.01688 0.03362
 O449 O -0.01185 0.04369 0.04903
 O450 O -0.03919 0.04584 0.04123
 O451 O -0.01847 -0.02961 -0.01444
 O452 O 0.01127 -0.02841 -0.00961
 O453 O -0.02735 0.01657 -0.04502
 O454 O -0.02036 0.04695 -0.04015
 O455 O -0.05912 0.00337 -0.00180
 O456 O -0.05664 0.00609 0.03066
 Zr457 Zr -0.03662 0.00132 0.01276
 O458 O -0.02140 0.01536 0.03054
 Zr459 Zr -0.02764 0.02882 -0.02019
 O460 O -0.01174 0.04390 -0.00388
 Zr461 Zr -0.00417 -0.00647 -0.01395
 O462 O 0.01259 0.00692 0.00287
 Zr463 Zr -0.01973 0.04157 0.02258
 O464 O -0.03698 0.02807 0.00608
 Zr465 Zr 0.00342 0.00619 0.02908
 O466 O -0.01219 -0.00921 0.01262
 Zr467 Zr 0.01275 0.03347 -0.00399
 O468 O -0.00269 0.01973 -0.02214
 O469 O -0.02873 0.00255 -0.01349
 O470 O 0.00494 0.03249 0.02238
 C471 C -0.03215 -0.03423 -0.00647
 C472 C -0.06325 0.01211 -0.01574
 C473 C -0.02068 0.00238 -0.05045
 C474 C 0.00954 0.06818 0.01670
 C475 C -0.00233 0.03399 0.05858
 C476 C 0.03885 0.02347 0.02533
 H477 H -0.02617 0.01435 0.04264
 H478 H 0.02393 0.00176 0.00196
 H479 H -0.03615 -0.00423 -0.02145
 H480 H -0.01185 0.05619 -0.00787
 H481 H -0.04515 0.05955 0.01174
 H482 H -0.03869 0.06041 -0.01784
 H483 H 0.02545 -0.01806 0.02380
 H484 H 0.00862 -0.03275 0.00249
 H485 H -0.04946 0.04041 0.03632
 H486 H -0.06247 0.01671 0.02649
 H487 H 0.03829 0.01747 -0.01787
 H488 H 0.01898 0.00031 -0.03706
 H489 H -0.03190 -0.02281 0.03614
 H490 H -0.01264 -0.00755 0.05587
 H491 H -0.00927 0.04317 -0.04468
 H492 H 0.01011 0.05908 -0.02647
 O493 O 0.04531 0.50406 0.51044
 O494 O 0.04169 0.50275 0.47830
 O495 O -0.00244 0.52229 0.52810
 O496 O -0.02962 0.51423 0.52443
 O497 O 0.02060 0.47881 0.55350
 O498 O 0.02260 0.44812 0.54601
 O499 O -0.03917 0.47145 0.47907
 O500 O -0.03627 0.50289 0.48241
 O501 O 0.00787 0.45651 0.45737
 O502 O 0.03752 0.46193 0.46633
 O503 O -0.01267 0.42914 0.49987
 O504 O -0.01396 0.43448 0.53292
 O505 O -0.03788 0.44943 0.49936
 O506 O -0.03438 0.44965 0.53127
 O507 O 0.00898 0.43250 0.48032
 O508 O 0.03841 0.44263 0.48467
 O509 O -0.01527 0.47378 0.45675
 O510 O -0.01631 0.50281 0.46053
 O511 O 0.04603 0.48181 0.53057
 O512 O 0.04305 0.45123 0.52867
 O513 O -0.00207 0.49680 0.55210
 O514 O -0.03072 0.49167 0.54246
 O515 O 0.01976 0.52530 0.50914
 O516 O 0.02193 0.52032 0.47737
 Zr517 Zr 0.02207 0.50071 0.49725
 O518 O 0.01010 0.48449 0.47859
 Zr519 Zr -0.00977 0.49600 0.52550
 O520 O -0.02291 0.47924 0.50835
 Zr521 Zr 0.02283 0.46898 0.52753
 O522 O 0.01137 0.45127 0.51007
 Zr523 Zr -0.01615 0.48495 0.48203
 O524 O -0.00435 0.50327 0.49902
 Zr525 Zr 0.01670 0.45848 0.48365
 O526 O 0.03010 0.47489 0.50122
 Zr527 Zr -0.01489 0.45344 0.51239
 O528 O -0.00340 0.46995 0.53124
 O529 O 0.01629 0.49483 0.52350
 O530 O -0.00949 0.45904 0.48589
 C531 C 0.05244 0.49529 0.52295
 C532 C 0.00949 0.53124 0.52081
 C533 C 0.01003 0.48942 0.56046
 C534 C -0.04531 0.45791 0.48696
 C535 C -0.00500 0.46307 0.44955
 C536 C -0.00277 0.42348 0.48771
 H537 H 0.01317 0.48829 0.46643
 H538 H 0.01529 0.43937 0.51285
 H539 H 0.02205 0.50269 0.53193
 H540 H -0.03515 0.48059 0.51030
 H541 H -0.03158 0.51414 0.48653
 H542 H -0.03814 0.50966 0.51608
 H543 H 0.03701 0.43435 0.49469
 H544 H 0.04898 0.45219 0.51712
 H545 H -0.00845 0.51227 0.46374
 H546 H 0.01125 0.52678 0.47865
 H547 H -0.00364 0.42753 0.53125
 H548 H 0.01117 0.44776 0.55130
 H549 H 0.04868 0.49220 0.47973
 H550 H 0.03538 0.47235 0.45889
 H551 H -0.02880 0.48043 0.54861
 H552 H -0.04205 0.45972 0.53036
 O553 O 0.52581 0.03201 0.51832
 O554 O 0.49512 0.02959 0.51620
 O555 O 0.53882 -0.01556 0.54382
 O556 O 0.53406 -0.04440 0.53874
 O557 O 0.56586 0.00257 0.49855
 O558 O 0.56040 0.00073 0.46662
 O559 O 0.49026 -0.05483 0.49119
 O560 O 0.49417 -0.05241 0.52348
 O561 O 0.47519 -0.00810 0.47241
 O562 O 0.48596 0.02250 0.47449
 O563 O 0.51309 -0.03592 0.45017
 O564 O 0.54584 -0.03569 0.45612
 O565 O 0.51294 -0.05872 0.47319
 O566 O 0.54264 -0.05620 0.47360
 O567 O 0.49744 -0.01122 0.44921
 O568 O 0.50375 0.01986 0.45553
 O569 O 0.47181 -0.02955 0.49314
 O570 O 0.47695 -0.02948 0.52501
 O571 O 0.54560 0.02955 0.49651
 O572 O 0.54526 0.02301 0.46596
 O573 O 0.56268 -0.01845 0.51980
 O574 O 0.55247 -0.04837 0.51659
 O575 O 0.52204 0.00837 0.54309
 O576 O 0.49270 0.01046 0.53648
 Zr577 Zr 0.51201 0.00844 0.51726
 O578 O 0.49420 -0.00439 0.50123
 Zr579 Zr 0.53711 -0.02596 0.51794
 O580 O 0.52049 -0.04035 0.50165
 Zr581 Zr 0.54199 0.00444 0.48655
 O582 O 0.52543 -0.00823 0.46904
 Zr583 Zr 0.49569 -0.03155 0.50505
 O584 O 0.51202 -0.01853 0.52304
 Zr585 Zr 0.50061 -0.00044 0.47446
 O586 O 0.51742 0.01396 0.49040
 Zr587 Zr 0.52582 -0.03499 0.47475
 O588 O 0.54386 -0.02252 0.49104
 O589 O 0.53669 0.00069 0.51333
 O590 O 0.50101 -0.02726 0.47842
 C591 C 0.53833 0.03784 0.50906
 C592 C 0.53236 -0.00193 0.55097
 C593 C 0.57144 -0.00690 0.51140
 C594 C 0.49857 -0.06335 0.47941
 C595 C 0.46637 -0.01979 0.48049
 C596 C 0.50249 -0.02563 0.44266
 H597 H 0.48284 0.00008 0.50393
 H598 H 0.52869 -0.00575 0.45660
 H599 H 0.54454 0.00718 0.52105
 H600 H 0.52135 -0.05293 0.50438
 H601 H 0.49951 -0.04827 0.53457
 H602 H 0.52718 -0.05414 0.53411
 H603 H 0.51313 0.01667 0.44755
 H604 H 0.53463 0.02964 0.46530
 H605 H 0.47227 -0.01759 0.52441
 H606 H 0.49155 -0.00120 0.54208
 H607 H 0.54261 -0.02859 0.44567
 H608 H 0.56492 -0.01114 0.46838
 H609 H 0.49737 0.03580 0.50487
 H610 H 0.47804 0.02172 0.48462
 H611 H 0.55937 -0.04722 0.50567
 H612 H 0.54227 -0.06206 0.48533
 O613 O 0.49131 0.56655 0.00354
 O614 O 0.46075 0.56316 0.00409
 O615 O 0.50766 0.52359 0.03476
 O616 O 0.50503 0.49444 0.03432
 O617 O 0.53087 0.53517 -0.01615
 O618 O 0.52256 0.52958 -0.04627
 O619 O 0.45800 0.47491 -0.00480
 O620 O 0.46353 0.48372 0.02527
 O621 O 0.43876 0.51847 -0.03057
 O622 O 0.44857 0.54905 -0.03492
 O623 O 0.47716 0.48896 -0.05256
 O624 O 0.50917 0.48943 -0.04861
 O625 O 0.47748 0.46990 -0.02629
 O626 O 0.50810 0.47299 -0.02731
 O627 O 0.45932 0.51189 -0.05519
 O628 O 0.46453 0.54362 -0.05484
 O629 O 0.43806 0.50002 -0.00681
 O630 O 0.44562 0.50569 0.02411
 O631 O 0.50976 0.56143 -0.01900
 O632 O 0.50594 0.55071 -0.04846
 O633 O 0.53015 0.51823 0.00878
 O634 O 0.52093 0.48778 0.01136
 O635 O 0.48952 0.54629 0.03197
 O636 O 0.46006 0.54737 0.02695
 Zr637 Zr 0.47828 0.54273 0.00706
 O638 O 0.45987 0.52694 -0.00494
 Zr639 Zr 0.50487 0.50970 0.01080
 O640 O 0.48758 0.49237 -0.00119
 Zr641 Zr 0.50584 0.53514 -0.02520
 O642 O 0.48863 0.51913 -0.03876
 Zr643 Zr 0.46281 0.50082 0.00315
 O644 O 0.47999 0.51703 0.01704
 Zr645 Zr 0.46397 0.52676 -0.03247
 O646 O 0.48125 0.54420 -0.02068
 Zr647 Zr 0.49054 0.49357 -0.02894
 O648 O 0.50922 0.50922 -0.01680
 O649 O 0.50296 0.53533 0.00225
 O650 O 0.46572 0.50087 -0.02427
 C651 C 0.50314 0.57127 -0.00723
 C652 C 0.50060 0.53752 0.04053
 C653 C 0.53788 0.52796 -0.00264
 C654 C 0.46490 0.46522 -0.01661
 C655 C 0.43112 0.50789 -0.01998
 C656 C 0.46529 0.49732 -0.06040
 H657 H 0.44861 0.53147 -0.00195
 H658 H 0.49082 0.51976 -0.05166
 H659 H 0.51119 0.54300 0.00827
 H660 H 0.48915 0.48043 0.00350
 H661 H 0.46988 0.48982 0.03470
 H662 H 0.49751 0.48432 0.03237
 H663 H 0.47388 0.53995 -0.06263
 H664 H 0.49525 0.55729 -0.04839
 H665 H 0.43961 0.51662 0.02139
 H666 H 0.45924 0.53654 0.03413
 H667 H 0.50667 0.49710 -0.05886
 H668 H 0.52692 0.51773 -0.04400
 H669 H 0.46200 0.56763 -0.00821
 H670 H 0.44183 0.54999 -0.02391
 H671 H 0.52657 0.48728 -0.00036
 H672 H 0.50725 0.46787 -0.01525
 O673 O 0.77736 0.25533 0.47022
 O674 O 0.76358 0.22812 0.46905
 O675 O 0.73842 0.29058 0.45341
 O676 O 0.71301 0.29839 0.46212
 O677 O 0.76932 0.30241 0.49900
 O678 O 0.76918 0.29297 0.52890
 O679 O 0.68842 0.25270 0.50313
 O680 O 0.69064 0.25862 0.47251
 O681 O 0.72498 0.21770 0.51669
 O682 O 0.75548 0.21569 0.51291
 O683 O 0.71927 0.26317 0.54685
 O684 O 0.72700 0.29332 0.54312
 O685 O 0.69548 0.26993 0.52641
 O686 O 0.70922 0.30041 0.52509
 O687 O 0.73195 0.23712 0.54225
 O688 O 0.76223 0.23199 0.53257
 O689 O 0.70387 0.22507 0.49776
 O690 O 0.70494 0.23477 0.46624
 O691 O 0.78507 0.27210 0.49367
 O692 O 0.78084 0.26896 0.52550
 O693 O 0.74815 0.31074 0.48052
 O694 O 0.71718 0.31160 0.48696
 O695 O 0.75254 0.26531 0.44876
 O696 O 0.74342 0.23525 0.45280
 Zr697 Zr 0.75128 0.25205 0.47335
 O698 O 0.73429 0.23785 0.48939
 Zr699 Zr 0.73133 0.28929 0.48024
 O700 O 0.71282 0.27652 0.49583
 Zr701 Zr 0.76232 0.27718 0.50718
 O702 O 0.74518 0.26470 0.52453
 Zr703 Zr 0.71079 0.25018 0.48869
 O704 O 0.72738 0.26360 0.47123
 Zr705 Zr 0.74166 0.23894 0.51617
 O706 O 0.76008 0.25094 0.49975
 Zr707 Zr 0.72118 0.27600 0.52227
 O708 O 0.73903 0.29019 0.50691
 O709 O 0.75496 0.27780 0.48073
 O710 O 0.71786 0.25003 0.51530
 C711 C 0.78839 0.26329 0.47963
 C712 C 0.74668 0.28006 0.44355
 C713 C 0.76214 0.31347 0.48869
 C714 C 0.68501 0.26041 0.51774
 C715 C 0.71096 0.21461 0.50881
 C716 C 0.72368 0.24789 0.55188
 H717 H 0.73367 0.22573 0.48513
 H718 H 0.74950 0.26530 0.53680
 H719 H 0.76323 0.28388 0.47298
 H720 H 0.70183 0.28239 0.49460
 H721 H 0.69576 0.26456 0.46209
 H722 H 0.70224 0.29264 0.46533
 H723 H 0.76290 0.24048 0.54237
 H724 H 0.78317 0.25660 0.52288
 H725 H 0.71240 0.22450 0.46630
 H726 H 0.73284 0.24012 0.44797
 H727 H 0.73800 0.28977 0.54806
 H728 H 0.75980 0.30121 0.53069
 H729 H 0.76927 0.22509 0.48034
 H730 H 0.75216 0.21058 0.50142
 H731 H 0.72230 0.31656 0.49779
 H732 H 0.69914 0.30051 0.51740
 O733 O 0.78758 0.77736 -0.01676
 O734 O 0.78831 0.77388 0.01528
 O735 O 0.81123 0.72976 -0.03372
 O736 O 0.80670 0.70089 -0.02816
 O737 O 0.76621 0.74701 -0.05868
 O738 O 0.73661 0.74579 -0.05012
 O739 O 0.76673 0.68814 0.01969
 O740 O 0.79661 0.69326 0.01360
 O741 O 0.74768 0.73392 0.03848
 O742 O 0.75049 0.76565 0.02846
 O743 O 0.72326 0.70913 -0.00100
 O744 O 0.72773 0.70772 -0.03465
 O745 O 0.74537 0.68620 -0.00025
 O746 O 0.74474 0.68820 -0.03250
 O747 O 0.72431 0.73334 0.01617
 O748 O 0.73084 0.76385 0.01152
 O749 O 0.76833 0.71358 0.04013
 O750 O 0.79613 0.71561 0.03436
 O751 O 0.76668 0.77434 -0.03718
 O752 O 0.73765 0.76795 -0.03405
 O753 O 0.78642 0.72617 -0.05685
 O754 O 0.78474 0.69674 -0.04605
 O755 O 0.81161 0.75343 -0.01576
 O756 O 0.80739 0.75625 0.01590
 Zr757 Zr 0.78804 0.75322 -0.00313
 O758 O 0.77436 0.73966 0.01661
 Zr759 Zr 0.78684 0.71909 -0.02988
 O760 O 0.77243 0.70425 -0.01156
 Zr761 Zr 0.75702 0.74924 -0.03247
 O762 O 0.74163 0.73623 -0.01376
 Zr763 Zr 0.77783 0.71268 0.01422
 O764 O 0.79367 0.72637 -0.00391
 Zr765 Zr 0.74857 0.74339 0.01213
 O766 O 0.76227 0.75835 -0.00670
 Zr767 Zr 0.74656 0.70945 -0.01486
 O768 O 0.76087 0.72233 -0.03486
 O769 O 0.78269 0.74576 -0.02896
 O770 O 0.75208 0.71660 0.01105
 C771 C 0.77835 0.78312 -0.02953
 C772 C 0.81846 0.74331 -0.02713
 C773 C 0.77762 0.73728 -0.06556
 C774 C 0.75397 0.68030 0.01284
 C775 C 0.75621 0.72230 0.04685
 C776 C 0.71691 0.71964 0.01043
 H777 H 0.77792 0.74365 0.02849
 H778 H 0.72968 0.73886 -0.01625
 H779 H 0.78937 0.75239 -0.03786
 H780 H 0.77495 0.69174 -0.01287
 H781 H 0.80692 0.69881 0.00867
 H782 H 0.80285 0.69123 -0.02037
 H783 H 0.72381 0.76226 0.00082
 H784 H 0.73828 0.77481 -0.02299
 H785 H 0.80545 0.72247 0.02907
 H786 H 0.81483 0.74601 0.01497
 H787 H 0.71956 0.71718 -0.03265
 H788 H 0.73749 0.73381 -0.05479
 H789 H 0.77720 0.77960 0.01443
 H790 H 0.75957 0.76360 0.03720
 H791 H 0.77333 0.69694 -0.05132
 H792 H 0.75529 0.68147 -0.03150
 O793 O 1.04015 0.21885 0.25286
 O794 O 1.03276 0.22110 0.28433
 O795 O 0.99278 0.20711 0.22893
 O796 O 0.96654 0.21896 0.22984
 O797 O 1.02426 0.24641 0.20686
 O798 O 1.03026 0.27648 0.21442
 O799 O 0.95869 0.26466 0.27387
 O800 O 0.95650 0.23303 0.27016
 O801 O 1.00451 0.27220 0.30042
 O802 O 1.03363 0.26252 0.29535
 O803 O 0.99313 0.30138 0.25556
 O804 O 0.99475 0.29541 0.22250
 O805 O 0.96517 0.28512 0.25293
 O806 O 0.97212 0.28364 0.22187
 O807 O 1.01192 0.29530 0.27746
 O808 O 1.03965 0.28068 0.27691
 O809 O 0.97929 0.25812 0.29871
 O810 O 0.97388 0.22968 0.29425
 O811 O 1.04595 0.23964 0.23199
 O812 O 1.04781 0.27056 0.23449
 O813 O 0.99945 0.23144 0.20538
 O814 O 0.97091 0.24129 0.21125
 O815 O 1.01189 0.20141 0.25066
 O816 O 1.01071 0.20655 0.28255
 Zr817 Zr 1.01615 0.22560 0.26289
 O818 O 1.00471 0.24383 0.27980
 Zr819 Zr 0.98880 0.23422 0.23080
 O820 O 0.97644 0.25316 0.24615
 Zr821 Zr 1.02507 0.25621 0.23281
 O822 O 1.01448 0.27578 0.24852
 Zr823 Zr 0.97922 0.24724 0.27321
 O824 O 0.98999 0.22694 0.25786
 Zr825 Zr 1.01574 0.26841 0.27542
 O826 O 1.02842 0.24981 0.25981
 Zr827 Zr 0.98863 0.27740 0.24297
 O828 O 0.99960 0.25896 0.22578
 O829 O 1.01430 0.23173 0.23614
 O830 O 0.99018 0.27174 0.27001
 C831 C 1.04958 0.22574 0.24073
 C832 C 1.00257 0.19677 0.23756
 C833 C 1.01343 0.23687 0.19870
 C834 C 0.95551 0.27865 0.26497
 C835 C 0.99026 0.26738 0.30696
 C836 C 1.00251 0.30577 0.26871
 H837 H 1.00581 0.23986 0.29226
 H838 H 1.02044 0.28690 0.24615
 H839 H 1.01978 0.22299 0.22853
 H840 H 0.96442 0.25364 0.24279
 H841 H 0.95965 0.22111 0.26651
 H842 H 0.95769 0.22535 0.23631
 H843 H 1.04076 0.28867 0.26661
 H844 H 1.05252 0.26814 0.24642
 H845 H 0.98013 0.21894 0.29159
 H846 H 0.99949 0.20159 0.27977
 H847 H 1.00560 0.30104 0.22555
 H848 H 1.01971 0.27856 0.20777
 H849 H 1.04149 0.23035 0.28370
 H850 H 1.02934 0.25241 0.30224
 H851 H 0.97537 0.25182 0.20515
 H852 H 0.96322 0.27458 0.22162
 O853 O 0.75951 1.03688 0.71834
 O854 O 0.78619 1.02363 0.71480
 O855 O 0.72580 0.99387 0.70673
 O856 O 0.72060 0.96732 0.71772
 O857 O 0.71671 1.02720 0.75165
 O858 O 0.72835 1.02830 0.78089
 O859 O 0.76664 0.94603 0.75417
 O860 O 0.76010 0.94770 0.72405
 O861 O 0.80176 0.98631 0.76321
 O862 O 0.80203 1.01808 0.75628
 O863 O 0.76199 0.97951 0.79776
 O864 O 0.73184 0.98707 0.79731
 O865 O 0.75210 0.95365 0.77893
 O866 O 0.72395 0.96718 0.78224
 O867 O 0.78520 0.99528 0.78991
 O868 O 0.78853 1.02522 0.77756
 O869 O 0.79339 0.96291 0.74710
 O870 O 0.78246 0.96251 0.71614
 O871 O 0.74460 1.04469 0.74284
 O872 O 0.75030 1.04222 0.77414
 O873 O 0.70833 1.00429 0.73478
 O874 O 0.70880 0.97303 0.74320
 O875 O 0.74889 1.00997 0.69902
 O876 O 0.77833 1.00201 0.70005
 Zr877 Zr 0.76391 1.01014 0.72208
 O878 O 0.77966 0.99388 0.73725
 Zr879 Zr 0.72954 0.98792 0.73372
 O880 O 0.74385 0.97040 0.74910
 Zr881 Zr 0.74200 1.02161 0.75782
 O882 O 0.75660 1.00560 0.77452
 Zr883 Zr 0.76860 0.96905 0.73926
 O884 O 0.75366 0.98479 0.72238
 Zr885 Zr 0.78074 1.00281 0.76349
 O886 O 0.76674 1.02044 0.74777
 Zr887 Zr 0.74654 0.98020 0.77498
 O888 O 0.73061 0.99688 0.76006
 O889 O 0.73962 1.01288 0.73191
 O890 O 0.77100 0.97758 0.76534
 C891 C 0.75187 1.04811 0.72794
 C892 C 0.73456 1.00284 0.69555
 C893 C 0.70570 1.01898 0.74237
 C894 C 0.75979 0.94253 0.76923
 C895 C 0.80423 0.97121 0.75651
 C896 C 0.77659 0.98611 0.80101
 H897 H 0.79098 0.99350 0.73181
 H898 H 0.75705 1.01071 0.78651
 H899 H 0.73283 1.02078 0.72439
 H900 H 0.73829 0.95885 0.74901
 H901 H 0.75341 0.95257 0.71413
 H902 H 0.72632 0.95658 0.72170
 H903 H 0.78047 1.02701 0.78740
 H904 H 0.76195 1.04506 0.77036
 H905 H 0.79224 0.97049 0.71509
 H906 H 0.77419 0.99024 0.69693
 H907 H 0.73637 0.99815 0.80200
 H908 H 0.72097 1.01822 0.78372
 H909 H 0.78986 1.03008 0.72546
 H910 H 0.80696 1.01308 0.74539
 H911 H 0.70511 0.97835 0.75448
 H912 H 0.72154 0.95836 0.77306
 O913 O 0.75757 0.55716 0.22622
 O914 O 0.78643 0.55177 0.22757
 O915 O 0.74004 0.51257 0.19637
 O916 O 0.73904 0.48382 0.19939
 O917 O 0.71234 0.52877 0.24348
 O918 O 0.71699 0.52739 0.27378
 O919 O 0.78180 0.46467 0.24295
 O920 O 0.78193 0.47253 0.21359
 O921 O 0.80018 0.50798 0.27111
 O922 O 0.79396 0.53809 0.27250
 O923 O 0.75647 0.48308 0.28942
 O924 O 0.72785 0.48151 0.28080
 O925 O 0.76171 0.46207 0.26439
 O926 O 0.72950 0.46674 0.25851
 O927 O 0.77541 0.50511 0.29296
 O928 O 0.77296 0.53779 0.28748
 O929 O 0.80254 0.48836 0.24877
 O930 O 0.79909 0.49497 0.21548
 O931 O 0.73495 0.55456 0.24474
 O932 O 0.73615 0.54566 0.27664
 O933 O 0.71455 0.51121 0.21940
 O934 O 0.72218 0.47926 0.22131
 O935 O 0.75875 0.53494 0.19923
 O936 O 0.78859 0.53303 0.20784
 Zr937 Zr 0.76779 0.53213 0.22543
 O938 O 0.78347 0.51667 0.24145
 Zr939 Zr 0.73911 0.50067 0.22146
 O940 O 0.75425 0.48329 0.23619
 Zr941 Zr 0.73646 0.52872 0.25462
 O942 O 0.75032 0.51207 0.27131
 Zr943 Zr 0.77977 0.49054 0.23455
 O944 O 0.76497 0.50609 0.21740
 Zr945 Zr 0.77596 0.51812 0.26820
 O946 O 0.76201 0.53579 0.25249
 Zr947 Zr 0.74824 0.48591 0.26317
 O948 O 0.73202 0.50236 0.24830
 O949 O 0.74218 0.52673 0.22783
 O950 O 0.77375 0.49193 0.26145
 C951 C 0.74459 0.56329 0.23409
 C952 C 0.74802 0.52596 0.19032
 C953 C 0.70633 0.52160 0.22955
 C954 C 0.77422 0.45617 0.25532
 C955 C 0.80814 0.49623 0.26260
 C956 C 0.76699 0.49185 0.29868
 H957 H 0.79532 0.52039 0.23987
 H958 H 0.74637 0.51366 0.28365
 H959 H 0.73519 0.53445 0.22032
 H960 H 0.75253 0.47125 0.23198
 H961 H 0.77590 0.47763 0.20332
 H962 H 0.74781 0.47500 0.20163
 H963 H 0.76335 0.53442 0.29518
 H964 H 0.74604 0.55350 0.27538
 H965 H 0.80752 0.50305 0.22056
 H966 H 0.78769 0.52264 0.20019
 H967 H 0.72616 0.49241 0.28746
 H968 H 0.71280 0.51523 0.27373
 H969 H 0.78621 0.55565 0.24008
 H970 H 0.80047 0.53963 0.26139
 H971 H 0.71422 0.48093 0.23128
 H972 H 0.73425 0.45798 0.25037
 O973 O 0.50923 0.21626 0.71621
 O974 O 0.48026 0.22265 0.71762
 O975 O 0.52972 0.26262 0.69118
 O976 O 0.53119 0.29087 0.69655
 O977 O 0.55395 0.23992 0.73702
 O978 O 0.54794 0.24076 0.76836
 O979 O 0.48770 0.30790 0.73970
 O980 O 0.49071 0.30305 0.70899
 O981 O 0.46595 0.26535 0.76281
 O982 O 0.47101 0.23250 0.76028
 O983 O 0.50944 0.28408 0.78556
 O984 O 0.53896 0.28424 0.77833
 O985 O 0.50592 0.30661 0.76296
 O986 O 0.53848 0.30211 0.75772
 O987 O 0.48779 0.26455 0.78551
 O988 O 0.48903 0.23263 0.77978
 O989 O 0.46562 0.28530 0.74030
 O990 O 0.47100 0.28246 0.70811
 O991 O 0.53033 0.21573 0.73664
 O992 O 0.52845 0.22170 0.76839
 O993 O 0.55388 0.26119 0.71581
 O994 O 0.54770 0.29247 0.71956
 O995 O 0.50978 0.24114 0.69161
 O996 O 0.47981 0.24269 0.69873
 Zr997 Zr 0.49963 0.24165 0.71741
 O998 O 0.48372 0.25681 0.73334
 Zr999 Zr 0.52972 0.27211 0.71722
 O1000 O 0.51492 0.28886 0.73271
 Zr1001 Zr 0.52953 0.24086 0.74811
 O1002 O 0.51514 0.25647 0.76539
 Zr1003 Zr 0.48938 0.28316 0.72853
 O1004 O 0.50405 0.26808 0.71124
 Zr1005 Zr 0.48933 0.25266 0.76032
 O1006 O 0.50372 0.23556 0.74437
 Zr1007 Zr 0.51915 0.28303 0.75963
 O1008 O 0.53539 0.26742 0.74412
 O1009 O 0.52524 0.24569 0.72139
 O1010 O 0.49364 0.27891 0.75549
 C1011 C 0.52131 0.20863 0.72441
 C1012 C 0.52132 0.25028 0.68386
 C1013 C 0.56102 0.24887 0.72452
 C1014 C 0.49414 0.31398 0.75396
 C1015 C 0.45914 0.27786 0.75399
 C1016 C 0.49665 0.27661 0.79283
 H1017 H 0.47183 0.25398 0.73073
 H1018 H 0.51806 0.25365 0.77784
 H1019 H 0.53222 0.23834 0.71358
 H1020 H 0.51749 0.30118 0.72983
 H1021 H 0.49604 0.29789 0.69837
 H1022 H 0.52409 0.30080 0.70005
 H1023 H 0.49937 0.23385 0.78698
 H1024 H 0.51721 0.21610 0.76751
 H1025 H 0.46324 0.27258 0.71047
 H1026 H 0.48106 0.25389 0.69224
 H1027 H 0.53931 0.27281 0.78445
 H1028 H 0.55374 0.25219 0.76769
 H1029 H 0.47962 0.21811 0.72993
 H1030 H 0.46235 0.23550 0.75136
 H1031 H 0.55430 0.29010 0.73044
 H1032 H 0.53397 0.31228 0.75118
 O1033 O 0.19747 0.74037 0.51618
 O1034 O 0.19811 0.74568 0.48508
 O1035 O 0.24062 0.70821 0.52420
 O1036 O 0.26813 0.70964 0.52104
 O1037 O 0.23096 0.75204 0.55897
 O1038 O 0.23468 0.78261 0.55606
 O1039 O 0.28315 0.75562 0.47719
 O1040 O 0.27399 0.72685 0.47648
 O1041 O 0.24087 0.78637 0.46599
 O1042 O 0.21307 0.78895 0.47779
 O1043 O 0.27183 0.79904 0.50985
 O1044 O 0.27606 0.78787 0.53897
 O1045 O 0.28949 0.77411 0.49970
 O1046 O 0.28910 0.76603 0.53318
 O1047 O 0.24961 0.80510 0.49186
 O1048 O 0.21806 0.80235 0.50049
 O1049 O 0.25797 0.76367 0.45934
 O1050 O 0.25072 0.73166 0.46141
 O1051 O 0.20367 0.75760 0.53975
 O1052 O 0.21387 0.78791 0.53973
 O1053 O 0.24737 0.72878 0.55229
 O1054 O 0.27644 0.72923 0.53908
 O1055 O 0.21661 0.71406 0.50881
 O1056 O 0.21449 0.72518 0.47808
 Zr1057 Zr 0.21952 0.74035 0.50080
 O1058 O 0.23317 0.75656 0.48316
 Zr1059 Zr 0.25344 0.73212 0.52519
 O1060 O 0.26878 0.74709 0.50804
 Zr1061 Zr 0.22883 0.76575 0.53486
 O1062 O 0.24373 0.78255 0.51896
 Zr1063 Zr 0.25825 0.74814 0.48250
 O1064 O 0.24429 0.73086 0.49893
 Zr1065 Zr 0.23456 0.78218 0.49284
 O1066 O 0.21858 0.76650 0.50912
 Zr1067 Zr 0.26843 0.77293 0.51689
 O1068 O 0.25418 0.75766 0.53504
 O1069 O 0.22853 0.74002 0.52666
 O1070 O 0.25939 0.77386 0.49100
 C1071 C 0.19371 0.74751 0.53104
 C1072 C 0.22628 0.70383 0.51772
 C1073 C 0.23868 0.73794 0.56315
 C1074 C 0.29294 0.76642 0.48502
 C1075 C 0.25057 0.77804 0.45541
 C1076 C 0.26360 0.80915 0.49950
 H1077 H 0.22787 0.75626 0.47131
 H1078 H 0.24356 0.79437 0.52405
 H1079 H 0.22183 0.73237 0.53463
 H1080 H 0.28029 0.74225 0.50770
 H1081 H 0.26888 0.71646 0.48226
 H1082 H 0.27554 0.71216 0.51076
 H1083 H 0.22382 0.80941 0.50961
 H1084 H 0.20580 0.78881 0.52976
 H1085 H 0.24115 0.73710 0.45514
 H1086 H 0.22422 0.71733 0.47656
 H1087 H 0.26634 0.79509 0.54248
 H1088 H 0.24652 0.78024 0.55934
 H1089 H 0.19469 0.75773 0.48792
 H1090 H 0.20958 0.77848 0.47115
 H1091 H 0.27680 0.73840 0.54824
 H1092 H 0.29607 0.75756 0.52666
 O1093 O 0.29840 0.24387 0.96858
 O1094 O 0.28888 0.21512 0.96475
 O1095 O 0.25618 0.27384 0.94976
 O1096 O 0.22948 0.27753 0.95623
 O1097 O 0.28096 0.28761 0.99911
 O1098 O 0.28067 0.27579 1.02818
 O1099 O 0.20786 0.22742 0.99146
 O1100 O 0.21269 0.23364 0.96173
 O1101 O 0.24741 0.19657 1.00915
 O1102 O 0.27834 0.19870 1.00732
 O1103 O 0.23430 0.23974 1.03987
 O1104 O 0.23667 0.27031 1.03759
 O1105 O 0.21134 0.24224 1.01727
 O1106 O 0.21992 0.27518 1.01789
 O1107 O 0.24986 0.21539 1.03532
 O1108 O 0.28161 0.21525 1.02820
 O1109 O 0.22693 0.20225 0.98890
 O1110 O 0.23100 0.21262 0.95691
 O1111 O 0.30144 0.26156 0.99250
 O1112 O 0.29587 0.25392 1.02377
 O1113 O 0.26044 0.29364 0.97897
 O1114 O 0.22919 0.28925 0.98181
 O1115 O 0.27455 0.25159 0.94543
 O1116 O 0.26881 0.21993 0.94717
 Zr1117 Zr 0.27285 0.23654 0.96904
 O1118 O 0.25675 0.21909 0.98283
 Zr1119 Zr 0.24723 0.26998 0.97566
 O1120 O 0.22954 0.25384 0.98868
 Zr1121 Zr 0.27748 0.26104 1.00483
 O1122 O 0.26083 0.24538 1.01991
 Zr1123 Zr 0.23194 0.22796 0.98022
 O1124 O 0.24782 0.24460 0.96510
 Zr1125 Zr 0.26154 0.21978 1.01031
 O1126 O 0.27946 0.23517 0.99614
 Zr1127 Zr 0.23577 0.25320 1.01573
 O1128 O 0.25268 0.27060 1.00294
 O1129 O 0.27210 0.26209 0.97790
 O1130 O 0.23668 0.22750 1.00740
 C1131 C 0.30712 0.25401 0.97852
 C1132 C 0.26699 0.26560 0.94041
 C1133 C 0.27295 0.29805 0.98883
 C1134 C 0.20267 0.23277 1.00657
 C1135 C 0.23407 0.19242 1.00049
 C1136 C 0.23988 0.22484 1.04464
 H1137 H 0.25808 0.20721 0.97811
 H1138 H 0.26403 0.24607 1.03256
 H1139 H 0.27985 0.26995 0.97129
 H1140 H 0.21799 0.25816 0.98660
 H1141 H 0.21792 0.24081 0.95221
 H1142 H 0.21985 0.26936 0.95730
 H1143 H 0.28015 0.22312 1.03843
 H1144 H 0.30049 0.24260 1.01996
 H1145 H 0.23808 0.20220 0.95871
 H1146 H 0.25832 0.22387 0.94135
 H1147 H 0.24790 0.26897 1.04309
 H1148 H 0.27025 0.28266 1.02965
 H1149 H 0.29324 0.21172 0.97658
 H1150 H 0.27626 0.19349 0.99556
 H1151 H 0.23258 0.29448 0.99324
 H1152 H 0.20981 0.27315 1.01051
 C1153 C 0.33420 0.36300 0.81261
 C1154 C 0.31816 0.36969 0.81560
 C1155 C 0.31056 0.38355 0.80436
 C1156 C 0.29320 0.38656 0.80567
 C1157 C 0.28559 0.39983 0.79577
 C1158 C 0.29524 0.41045 0.78422
 C1159 C 0.31260 0.40741 0.78291
 C1160 C 0.32022 0.39423 0.79288
 C1161 C 0.28810 0.42557 0.77444
 C1162 C 0.27092 0.42925 0.77352
 H1163 H 0.31075 0.36442 0.82650
 H1164 H 0.28547 0.37870 0.81454
 H1165 H 0.27227 0.40186 0.79768
 H1166 H 0.32040 0.41548 0.77431
 H1167 H 0.33372 0.39288 0.79180
 H1168 H 0.29691 0.43495 0.76880
 H1169 H 0.34152 0.36741 0.80131
 H1170 H 0.26173 0.42012 0.77874
 C1171 C 0.30649 -0.15222 0.30393
 C1172 C 0.29304 -0.14219 0.31009
 C1173 C 0.28815 -0.12533 0.30183
 C1174 C 0.27173 -0.11909 0.30440
 C1175 C 0.26673 -0.10315 0.29701
 C1176 C 0.27818 -0.09296 0.28703
 C1177 C 0.29458 -0.09921 0.28446
 C1178 C 0.29957 -0.11512 0.29184
 C1179 C 0.27369 -0.07581 0.27915
 C1180 C 0.26012 -0.06569 0.28477
 H1181 H 0.28541 -0.14712 0.32099
 H1182 H 0.26268 -0.12667 0.31205
 H1183 H 0.25387 -0.09904 0.29902
 H1184 H 0.30369 -0.09161 0.27693
 H1185 H 0.31248 -0.11911 0.28997
 H1186 H 0.28228 -0.07030 0.26938
 H1187 H 0.31340 -0.14793 0.29228
 H1188 H 0.25189 -0.07036 0.29524
 C1189 C 0.78956 0.82961 0.77603
 C1190 C 0.77875 0.84000 0.78576
 C1191 C 0.77432 0.85771 0.77977
 C1192 C 0.76584 0.86878 0.79148
 C1193 C 0.76284 0.88613 0.78679
 C1194 C 0.76829 0.89270 0.77023
 C1195 C 0.77621 0.88140 0.75832
 C1196 C 0.77923 0.86410 0.76300
 C1197 C 0.76631 0.91113 0.76477
 C1198 C 0.76067 0.92447 0.77578
 H1199 H 0.77479 0.83570 0.79885
 H1200 H 0.76187 0.86410 0.80444
 H1201 H 0.75640 0.89421 0.79627
 H1202 H 0.78040 0.88606 0.74543
 H1203 H 0.78568 0.85589 0.75358
 H1204 H 0.76998 0.91447 0.75129
 H1205 H 0.79333 0.82030 0.78044
 H1206 H 0.75670 0.92187 0.78926
 C1207 C 0.44546 0.89275 0.31156
 C1208 C 0.44310 0.88552 0.29482
 C1209 C 0.45382 0.87127 0.28829
 C1210 C 0.45638 0.86946 0.26998
 C1211 C 0.46613 0.85583 0.26346
 C1212 C 0.47322 0.84357 0.27520
 C1213 C 0.47088 0.84557 0.29351
 C1214 C 0.46117 0.85919 0.30002
 C1215 C 0.48223 0.82801 0.26894
 C1216 C 0.47870 0.82023 0.25270
 H1217 H 0.43365 0.89085 0.28598
 H1218 H 0.45087 0.87866 0.26072
 H1219 H 0.46802 0.85495 0.24927
 H1220 H 0.47609 0.83622 0.30281
 H1221 H 0.45906 0.85985 0.31419
 H1222 H 0.48977 0.82093 0.27853
 H1223 H 0.45593 0.88842 0.31963
 H1224 H 0.47041 0.82657 0.24331
 C1225 C -0.06113 0.89015 0.81555
 C1226 C -0.06767 0.88192 0.80061
 C1227 C -0.06118 0.86485 0.79478
 C1228 C -0.06086 0.86084 0.77664
 C1229 C -0.05350 0.84537 0.77078
 C1230 C -0.04649 0.83358 0.78306
 C1231 C -0.04738 0.83735 0.80122
 C1232 C -0.05477 0.85270 0.80705
 C1233 C -0.03756 0.81765 0.77762
 C1234 C -0.04000 0.80927 0.76144
 H1235 H -0.07663 0.88872 0.79228
 H1236 H -0.06580 0.86996 0.76695
 H1237 H -0.05284 0.84303 0.75665
 H1238 H -0.04224 0.82839 0.81096
 H1239 H -0.05537 0.85502 0.82119
 H1240 H -0.02927 0.81169 0.78731
 H1241 H -0.05108 0.88401 0.82294
 H1242 H -0.04925 0.81404 0.75209
 C1243 C -0.05090 -0.13936 -0.05832
 C1244 C -0.05767 -0.13000 -0.04415
 C1245 C -0.05151 -0.11239 -0.03918
 C1246 C -0.05461 -0.10623 -0.02197
 C1247 C -0.04878 -0.08977 -0.01680
 C1248 C -0.03984 -0.07909 -0.02885
 C1249 C -0.03696 -0.08515 -0.04610
 C1250 C -0.04285 -0.10151 -0.05129
 C1251 C -0.03289 -0.06185 -0.02394
 C1252 C -0.03906 -0.05170 -0.01007
 H1253 H -0.06752 -0.13591 -0.03610
 H1254 H -0.06133 -0.11429 -0.01242
 H1255 H -0.05100 -0.08569 -0.00329
 H1256 H -0.03022 -0.07712 -0.05568
 H1257 H -0.04073 -0.10537 -0.06488
 H1258 H -0.02299 -0.05647 -0.03231
 H1259 H -0.04036 -0.13395 -0.06567
 H1260 H -0.04979 -0.05612 -0.00235
 C1261 C -0.05146 0.31862 0.46632
 C1262 C -0.03901 0.32902 0.45845
 C1263 C -0.03318 0.34544 0.46669
 C1264 C -0.01738 0.35242 0.46209
 C1265 C -0.01196 0.36830 0.46918
 C1266 C -0.02243 0.37760 0.48084
 C1267 C -0.03817 0.37054 0.48546
 C1268 C -0.04357 0.35476 0.47838
 C1269 C -0.01777 0.39475 0.48830
 C1270 C -0.00515 0.40556 0.48139
 H1271 H -0.03382 0.32547 0.44566
 H1272 H -0.00921 0.34556 0.45301
 H1273 H 0.00040 0.37310 0.46552
 H1274 H -0.04653 0.37747 0.49429
 H1275 H -0.05611 0.35025 0.48174
 H1276 H -0.02553 0.39964 0.49900
 H1277 H -0.05556 0.32149 0.47970
 H1278 H 0.00257 0.40136 0.47041
 C1279 C 0.42631 -0.13633 0.42642
 C1280 C 0.44294 -0.13183 0.42238
 C1281 C 0.45150 -0.11794 0.43260
 C1282 C 0.46794 -0.12055 0.43878
 C1283 C 0.47544 -0.10861 0.45034
 C1284 C 0.46674 -0.09355 0.45565
 C1285 C 0.45051 -0.09069 0.44891
 C1286 C 0.44298 -0.10270 0.43749
 C1287 C 0.47406 -0.08047 0.46796
 C1288 C 0.49124 -0.07917 0.47167
 H1289 H 0.45034 -0.14015 0.41386
 H1290 H 0.47471 -0.13224 0.43526
 H1291 H 0.48785 -0.11156 0.45534
 H1292 H 0.44357 -0.07914 0.45255
 H1293 H 0.43039 -0.10014 0.43263
 H1294 H 0.46586 -0.07031 0.47281
 H1295 H 0.41986 -0.12879 0.43645
 H1296 H 0.49996 -0.08817 0.46572
 C1297 C 0.44015 0.36097 -0.07047
 C1298 C 0.43502 0.37082 -0.05580
 C1299 C 0.44243 0.38787 -0.05047
 C1300 C 0.43526 0.39664 -0.03600
 C1301 C 0.44175 0.41265 -0.03030
 C1302 C 0.45570 0.42029 -0.03895
 C1303 C 0.46290 0.41150 -0.05338
 C1304 C 0.45640 0.39553 -0.05911
 C1305 C 0.46305 0.43738 -0.03378
 C1306 C 0.45763 0.44771 -0.01961
 H1307 H 0.42483 0.36580 -0.04759
 H1308 H 0.42451 0.39109 -0.02905
 H1309 H 0.43569 0.41886 -0.01920
 H1310 H 0.47363 0.41706 -0.06036
 H1311 H 0.46249 0.38936 -0.07021
 H1312 H 0.47328 0.44230 -0.04199
 H1313 H 0.45009 0.36570 -0.07909
 H1314 H 0.44747 0.44346 -0.01103
 C1315 C 0.79638 0.41907 0.44556
 C1316 C 0.80188 0.40668 0.45786
 C1317 C 0.79244 0.39035 0.46174
 C1318 C 0.79507 0.38180 0.47801
 C1319 C 0.78639 0.36638 0.48216
 C1320 C 0.77502 0.35905 0.46995
 C1321 C 0.77239 0.36761 0.45368
 C1322 C 0.78107 0.38300 0.44953
 C1323 C 0.76562 0.34267 0.47368
 C1324 C 0.77103 0.33016 0.48590
 H1325 H 0.81314 0.40938 0.46550
 H1326 H 0.80374 0.38718 0.48766
 H1327 H 0.78847 0.36047 0.49504
 H1328 H 0.76375 0.36222 0.44402
 H1329 H 0.77903 0.38886 0.43663
 H1330 H 0.75457 0.33990 0.46574
 H1331 H 0.78456 0.41717 0.43871
 H1332 H 0.78263 0.33213 0.49313
 C1333 C 0.81502 0.89457 -0.04724
 C1334 C 0.80383 0.88268 -0.05485
 C1335 C 0.80107 0.86488 -0.04767
 C1336 C 0.78590 0.85627 -0.05148
 C1337 C 0.78294 0.83933 -0.04529
 C1338 C 0.79531 0.83048 -0.03540
 C1339 C 0.81046 0.83914 -0.03150
 C1340 C 0.81338 0.85612 -0.03764
 C1341 C 0.79277 0.81242 -0.02879
 C1342 C 0.78115 0.80092 -0.03626
 H1343 H 0.79643 0.88664 -0.06624
 H1344 H 0.77621 0.86275 -0.05915
 H1345 H 0.77087 0.83341 -0.04811
 H1346 H 0.82018 0.83264 -0.02391
 H1347 H 0.82544 0.86213 -0.03484
 H1348 H 0.80074 0.80783 -0.01808
 H1349 H 0.82151 0.89109 -0.03510
 H1350 H 0.77378 0.80490 -0.04762
 C1351 C 0.80537 0.30317 0.34506
 C1352 C 0.78859 0.30602 0.34971
 C1353 C 0.78023 0.29718 0.36492
 C1354 C 0.76603 0.30496 0.37255
 C1355 C 0.75864 0.29792 0.38787
 C1356 C 0.76538 0.28292 0.39594
 C1357 C 0.77889 0.27452 0.38765
 C1358 C 0.78624 0.28152 0.37229
 C1359 C 0.75916 0.27597 0.41318
 C1360 C 0.75007 0.28593 0.42526
 H1361 H 0.78175 0.31626 0.34293
 H1362 H 0.76091 0.31681 0.36690
 H1363 H 0.74777 0.30441 0.39331
 H1364 H 0.78409 0.26272 0.39335
 H1365 H 0.79667 0.27465 0.36640
 H1366 H 0.76326 0.26311 0.41722
 H1367 H 0.81273 0.29353 0.35206
 H1368 H 0.74627 0.29902 0.42185
 C1369 C 0.79289 0.78398 -0.17517
 C1370 C 0.79946 0.76997 -0.16558
 C1371 C 0.79335 0.76563 -0.14745
 C1372 C 0.79437 0.74844 -0.14115
 C1373 C 0.78851 0.74406 -0.12413
 C1374 C 0.78172 0.75692 -0.11300
 C1375 C 0.78079 0.77409 -0.11930
 C1376 C 0.78668 0.77847 -0.13623
 C1377 C 0.77567 0.75309 -0.09475
 C1378 C 0.78160 0.73921 -0.08456
 H1379 H 0.80893 0.76176 -0.17157
 H1380 H 0.79951 0.73835 -0.14950
 H1381 H 0.78912 0.73060 -0.11989
 H1382 H 0.77578 0.78426 -0.11094
 H1383 H 0.78626 0.79199 -0.14029
 H1384 H 0.76749 0.76251 -0.08852
 H1385 H 0.78247 0.79117 -0.16953
 H1386 H 0.79071 0.73033 -0.09010
 C1387 C 0.28397 0.46697 0.92786
 C1388 C 0.27207 0.46015 0.91615
 C1389 C 0.26829 0.46782 0.89850
 C1390 C 0.25468 0.46107 0.88881
 C1391 C 0.25158 0.46674 0.87145
 C1392 C 0.26219 0.47923 0.86339
 C1393 C 0.27546 0.48638 0.87324
 C1394 C 0.27860 0.48068 0.89055
 C1395 C 0.26001 0.48508 0.84480
 C1396 C 0.25165 0.47536 0.83189
 H1397 H 0.26591 0.44794 0.91957
 H1398 H 0.24652 0.45118 0.89461
 H1399 H 0.24090 0.46130 0.86449
 H1400 H 0.28378 0.49606 0.86734
 H1401 H 0.28944 0.48604 0.89725
 H1402 H 0.26628 0.49707 0.84083
 H1403 H 0.28973 0.47954 0.92538
 H1404 H 0.24581 0.46300 0.83526
 C1405 C 0.31869 -0.03958 0.41516
 C1406 C 0.30247 -0.03962 0.40806
 C1407 C 0.29739 -0.02917 0.39240
 C1408 C 0.28015 -0.02692 0.38910
 C1409 C 0.27471 -0.01853 0.37365
 C1410 C 0.28645 -0.01241 0.36104
 C1411 C 0.30370 -0.01404 0.36464
 C1412 C 0.30916 -0.02244 0.38010
 C1413 C 0.28120 -0.00498 0.34375
 C1414 C 0.26612 -0.00968 0.33553
 H1415 H 0.29295 -0.04788 0.41419
 H1416 H 0.27084 -0.03190 0.39840
 H1417 H 0.26131 -0.01699 0.37164
 H1418 H 0.31299 -0.00939 0.35514
 H1419 H 0.32255 -0.02418 0.38194
 H1420 H 0.29032 0.00277 0.33637
 H1421 H 0.32814 -0.03054 0.41025
 H1422 H 0.25737 -0.01838 0.34222
 C1423 C -0.05269 -0.06243 -0.14460
 C1424 C -0.05548 -0.04589 -0.13766
 C1425 C -0.04622 -0.03935 -0.12200
 C1426 C -0.04361 -0.02138 -0.12020
 C1427 C -0.03536 -0.01476 -0.10530
 C1428 C -0.02989 -0.02601 -0.09165
 C1429 C -0.03230 -0.04401 -0.09360
 C1430 C -0.04044 -0.05063 -0.10856
 C1431 C -0.02225 -0.01954 -0.07497
 C1432 C -0.02466 -0.00267 -0.06876
 H1433 H -0.06422 -0.03720 -0.14423
 H1434 H -0.04789 -0.01245 -0.13041
 H1435 H -0.03332 -0.00085 -0.10464
 H1436 H -0.02828 -0.05297 -0.08329
 H1437 H -0.04261 -0.06453 -0.10928
 H1438 H -0.01618 -0.02893 -0.06632
 H1439 H -0.04287 -0.07044 -0.13890
 H1440 H -0.03161 0.00665 -0.07663
 C1441 C -0.05984 0.44045 0.34606
 C1442 C -0.04448 0.43637 0.35410
 C1443 C -0.03924 0.44323 0.37159
 C1444 C -0.02210 0.44291 0.37616
 C1445 C -0.01667 0.44903 0.39264
 C1446 C -0.02836 0.45544 0.40499
 C1447 C -0.04548 0.45577 0.40042
 C1448 C -0.05091 0.44962 0.38399
 C1449 C -0.02336 0.46202 0.42263
 C1450 C -0.00838 0.45758 0.43122
 H1451 H -0.03567 0.42810 0.34715
 H1452 H -0.01286 0.43801 0.36687
 H1453 H -0.00332 0.44891 0.39549
 H1454 H -0.05476 0.46057 0.40973
 H1455 H -0.06428 0.44960 0.38131
 H1456 H -0.03247 0.46983 0.42971
 H1457 H -0.06828 0.44953 0.35236
 H1458 H 0.00053 0.44894 0.42498
 C1459 C 0.43516 -0.06727 0.35877
 C1460 C 0.44620 -0.07641 0.36980
 C1461 C 0.45637 -0.06844 0.38403
 C1462 C 0.46060 -0.05066 0.38381
 C1463 C 0.47203 -0.04396 0.39615
 C1464 C 0.47936 -0.05491 0.40905
 C1465 C 0.47490 -0.07263 0.40933
 C1466 C 0.46359 -0.07933 0.39692
 C1467 C 0.49149 -0.04855 0.42253
 C1468 C 0.49453 -0.03098 0.42600
 H1469 H 0.44830 -0.09010 0.36721
 H1470 H 0.45567 -0.04201 0.37371
 H1471 H 0.47526 -0.03031 0.39513
 H1472 H 0.48030 -0.08138 0.41909
 H1473 H 0.46068 -0.09313 0.39722
 H1474 H 0.49704 -0.05815 0.43134
 H1475 H 0.43118 -0.05423 0.36206
 H1476 H 0.48842 -0.02094 0.41831
 C1477 C 0.41993 0.41734 -0.13341
 C1478 C 0.41603 0.43430 -0.12840
 C1479 C 0.42621 0.44378 -0.11519
 C1480 C 0.42867 0.46176 -0.11740
 C1481 C 0.43914 0.47096 -0.10587
 C1482 C 0.44709 0.46236 -0.09164
 C1483 C 0.44439 0.44442 -0.08928
 C1484 C 0.43400 0.43520 -0.10088
 C1485 C 0.45808 0.47156 -0.07890
 C1486 C 0.45724 0.48943 -0.07591
 H1487 H 0.40687 0.44163 -0.13600
 H1488 H 0.42285 0.46861 -0.12839
 H1489 H 0.44117 0.48469 -0.10841
 H1490 H 0.45024 0.43753 -0.07834
 H1491 H 0.43202 0.42142 -0.09853
 H1492 H 0.46586 0.46369 -0.07021
 H1493 H 0.42989 0.41047 -0.12656
 H1494 H 0.44860 0.49744 -0.08341
 C1495 C 0.42108 0.81265 0.38766
 C1496 C 0.43478 0.81643 0.37659
 C1497 C 0.43983 0.80517 0.36147
 C1498 C 0.45606 0.80710 0.35428
 C1499 C 0.46129 0.79694 0.33994
 C1500 C 0.45036 0.78449 0.33239
 C1501 C 0.43400 0.78284 0.33933
 C1502 C 0.42876 0.79302 0.35366
 C1503 C 0.45520 0.77382 0.31675
 C1504 C 0.47185 0.77169 0.31118
 H1505 H 0.44232 0.82791 0.37931
 H1506 H 0.46476 0.81657 0.35975
 H1507 H 0.47377 0.79928 0.33466
 H1508 H 0.42516 0.77369 0.33356
 H1509 H 0.41592 0.79151 0.35824
 H1510 H 0.44523 0.76792 0.30898
 H1511 H 0.41392 0.80081 0.38571
 H1512 H 0.48202 0.77713 0.31893
 C1513 C -0.04843 0.81453 0.90045
 C1514 C -0.05377 0.79893 0.89276
 C1515 C -0.04682 0.79263 0.87573
 C1516 C -0.04732 0.77476 0.87197
 C1517 C -0.04082 0.76848 0.85596
 C1518 C -0.03390 0.78007 0.84330
 C1519 C -0.03361 0.79794 0.84702
 C1520 C -0.04008 0.80419 0.86296
 C1521 C -0.02672 0.77430 0.82619
 C1522 C -0.02983 0.75811 0.81845
 H1523 H -0.06305 0.79087 0.89954
 H1524 H -0.05255 0.76562 0.88154
 H1525 H -0.04107 0.75459 0.85375
 H1526 H -0.02850 0.80717 0.83745
 H1527 H -0.04004 0.81811 0.86502
 H1528 H -0.01936 0.78380 0.81876
 H1529 H -0.03822 0.82183 0.89436
 H1530 H -0.03781 0.74858 0.82501
 C1531 C 0.34432 0.79845 0.30480
 C1532 C 0.35378 0.80404 0.29018
 C1533 C 0.36910 0.79477 0.28419
 C1534 C 0.37431 0.79631 0.26643
 C1535 C 0.38880 0.78780 0.26048
 C1536 C 0.39851 0.77776 0.27231
 C1537 C 0.39330 0.77630 0.29007
 C1538 C 0.37885 0.78478 0.29600
 C1539 C 0.41416 0.76875 0.26693
 C1540 C 0.42356 0.77302 0.25179
 H1541 H 0.34964 0.81528 0.28262
 H1542 H 0.36704 0.80398 0.25709
 H1543 H 0.39216 0.78902 0.24661
 H1544 H 0.40060 0.76879 0.29952
 H1545 H 0.37563 0.78374 0.30993
 H1546 H 0.41926 0.75925 0.27614
 H1547 H 0.34763 0.78649 0.31158
 H1548 H 0.41931 0.78309 0.24278
 C1549 C -0.16779 0.77998 0.77496
 C1550 C -0.15646 0.76886 0.78333
 C1551 C -0.13983 0.76478 0.77540
 C1552 C -0.13153 0.74942 0.78034
 C1553 C -0.11547 0.74574 0.77366
 C1554 C -0.10724 0.75758 0.76211
 C1555 C -0.11566 0.77281 0.75703
 C1556 C -0.13168 0.77645 0.76366
 C1557 C -0.08983 0.75497 0.75544
 C1558 C -0.07843 0.74340 0.76312
 H1559 H -0.15960 0.76340 0.79623
 H1560 H -0.13751 0.74024 0.78938
 H1561 H -0.10968 0.73363 0.77763
 H1562 H -0.10964 0.78220 0.74824
 H1563 H -0.13735 0.78872 0.75996
 H1564 H -0.08533 0.76363 0.74501
 H1565 H -0.16521 0.78453 0.76162
 H1566 H -0.08232 0.73500 0.77396
 C1567 C 0.90106 0.28031 0.46578
 C1568 C 0.88773 0.27281 0.45650
 C1569 C 0.87058 0.27119 0.46414
 C1570 C 0.85926 0.25910 0.45691
 C1571 C 0.84266 0.25804 0.46309
 C1572 C 0.83698 0.26933 0.47647
 C1573 C 0.84839 0.28122 0.48386
 C1574 C 0.86496 0.28225 0.47771
 C1575 C 0.81935 0.26931 0.48296
 C1576 C 0.80591 0.26232 0.47341
 H1577 H 0.88968 0.26871 0.44292
 H1578 H 0.86327 0.25048 0.44642
 H1579 H 0.83445 0.24832 0.45737
 H1580 H 0.84436 0.29007 0.49415
 H1581 H 0.87309 0.29216 0.48326
 H1582 H 0.81672 0.27592 0.49531
 H1583 H 0.89954 0.28348 0.47966
 H1584 H 0.80806 0.25623 0.46073
 C1585 C 0.90986 0.81217 -0.05212
 C1586 C 0.90290 0.79641 -0.05789
 C1587 C 0.88788 0.78794 -0.04969
 C1588 C 0.88408 0.77056 -0.05394
 C1589 C 0.86975 0.76225 -0.04691
 C1590 C 0.85886 0.77127 -0.03551
 C1591 C 0.86272 0.78860 -0.03121
 C1592 C 0.87696 0.79689 -0.03826
 C1593 C 0.84329 0.76348 -0.02787
 C1594 C 0.83542 0.74817 -0.03368
 H1595 H 0.90880 0.78984 -0.06894
 H1596 H 0.89224 0.76336 -0.06276
 H1597 H 0.86738 0.74884 -0.05040
 H1598 H 0.85451 0.79591 -0.02255
 H1599 H 0.87902 0.81039 -0.03495
 H1600 H 0.83702 0.77102 -0.01773
 H1601 H 0.90487 0.81862 -0.04057
 H1602 H 0.84102 0.74035 -0.04397
 C1603 C -0.15399 -0.05282 -0.04488
 C1604 C -0.14687 -0.03737 -0.05149
 C1605 C -0.13231 -0.02878 -0.04264
 C1606 C -0.12871 -0.01111 -0.04604
 C1607 C -0.11505 -0.00283 -0.03770
 C1608 C -0.10484 -0.01216 -0.02578
 C1609 C -0.10833 -0.02979 -0.02259
 C1610 C -0.12166 -0.03809 -0.03109
 C1611 C -0.09041 -0.00432 -0.01632
 C1612 C -0.08015 0.00894 -0.02325
 H1613 H -0.15197 -0.03145 -0.06341
 H1614 H -0.13656 -0.00367 -0.05502
 H1615 H -0.11272 0.01085 -0.04034
 H1616 H -0.10046 -0.03734 -0.01370
 H1617 H -0.12327 -0.05188 -0.02870
 H1618 H -0.08633 -0.01101 -0.00438
 H1619 H -0.14959 -0.05801 -0.03234
 H1620 H -0.08353 0.01544 -0.03553
 C1621 C -0.15435 0.45817 0.45265
 C1622 C -0.14277 0.44532 0.45713
 C1623 C -0.12468 0.44918 0.46018
 C1624 C -0.11476 0.43687 0.46909
 C1625 C -0.09761 0.44002 0.47201
 C1626 C -0.09001 0.45565 0.46604
 C1627 C -0.09983 0.46766 0.45662
 C1628 C -0.11692 0.46449 0.45365
 C1629 C -0.07209 0.46009 0.46940
 C1630 C -0.06220 0.45165 0.48205
 H1631 H -0.14697 0.43187 0.45786
 H1632 H -0.12031 0.42479 0.47387
 H1633 H -0.09047 0.43007 0.47879
 H1634 H -0.09428 0.47965 0.45159
 H1635 H -0.12381 0.47399 0.44596
 H1636 H -0.06682 0.47130 0.46250
 H1637 H -0.15058 0.47172 0.45244
 H1638 H -0.06720 0.44075 0.48957
 C1639 C 0.36019 -0.06084 0.45689
 C1640 C 0.37187 -0.04814 0.45136
 C1641 C 0.38907 -0.04597 0.45869
 C1642 C 0.40069 -0.03582 0.44902
 C1643 C 0.41688 -0.03273 0.45554
 C1644 C 0.42178 -0.03952 0.47212
 C1645 C 0.41030 -0.04997 0.48168
 C1646 C 0.39406 -0.05311 0.47511
 C1647 C 0.43881 -0.03625 0.47956
 C1648 C 0.44892 -0.02213 0.47435
 H1649 H 0.36843 -0.03942 0.44059
 H1650 H 0.39725 -0.03027 0.43627
 H1651 H 0.42549 -0.02519 0.44738
 H1652 H 0.41381 -0.05549 0.49441
 H1653 H 0.38544 -0.06078 0.48314
 H1654 H 0.44343 -0.04514 0.48964
 H1655 H 0.36360 -0.07023 0.46702
 H1656 H 0.44420 -0.01265 0.46495
 C1657 C 0.32714 0.45751 -0.02819
 C1658 C 0.33526 0.47300 -0.03322
 C1659 C 0.35262 0.47773 -0.02795
 C1660 C 0.36172 0.48914 -0.03903
 C1661 C 0.37829 0.49375 -0.03506
 C1662 C 0.38612 0.48731 -0.01961
 C1663 C 0.37694 0.47599 -0.00841
 C1664 C 0.36033 0.47124 -0.01250
 C1665 C 0.40384 0.49163 -0.01506
 C1666 C 0.41318 0.50474 -0.02356
 H1667 H 0.32931 0.48140 -0.04296
 H1668 H 0.35608 0.49424 -0.05107
 H1669 H 0.38484 0.50206 -0.04443
 H1670 H 0.38263 0.47080 0.00355
 H1671 H 0.35359 0.46269 -0.00345
 H1672 H 0.40983 0.48407 -0.00465
 H1673 H 0.33307 0.44872 -0.01885
 H1674 H 0.40746 0.51294 -0.03354
 C1675 C 0.38218 0.41866 0.81585
 C1676 C 0.37541 0.43476 0.82058
 C1677 C 0.36233 0.44425 0.81033
 C1678 C 0.35655 0.46023 0.81689
 C1679 C 0.34406 0.46960 0.80796
 C1680 C 0.33703 0.46313 0.79218
 C1681 C 0.34307 0.44737 0.78542
 C1682 C 0.35548 0.43797 0.79437
 C1683 C 0.32315 0.47193 0.78255
 C1684 C 0.31322 0.48527 0.78949
 H1685 H 0.37995 0.44085 0.83260
 H1686 H 0.36167 0.46549 0.82906
 H1687 H 0.34008 0.48184 0.81350
 H1688 H 0.33798 0.44214 0.77322
 H1689 H 0.35948 0.42584 0.78863
 H1690 H 0.31954 0.46641 0.76990
 H1691 H 0.37813 0.41206 0.80398
 H1692 H 0.31609 0.49093 0.80222
 C1693 C 0.39710 -0.06943 0.30692
 C1694 C 0.38546 -0.05790 0.31411
 C1695 C 0.36994 -0.05211 0.30484
 C1696 C 0.36116 -0.03790 0.31176
 C1697 C 0.34641 -0.03198 0.30370
 C1698 C 0.34010 -0.04012 0.28837
 C1699 C 0.34861 -0.05462 0.28169
 C1700 C 0.36339 -0.06057 0.28978
 C1701 C 0.32435 -0.03420 0.27965
 C1702 C 0.31839 -0.01727 0.28146
 H1703 H 0.38795 -0.05258 0.32714
 H1704 H 0.36569 -0.03134 0.32352
 H1705 H 0.33987 -0.02128 0.30982
 H1706 H 0.34382 -0.06135 0.27014
 H1707 H 0.36937 -0.07193 0.28429
 H1708 H 0.31721 -0.04345 0.27183
 H1709 H 0.39532 -0.07454 0.29373
 H1710 H 0.32587 -0.00775 0.28850
 C1711 C 0.09919 0.55604 0.70042
 C1712 C 0.11062 0.54326 0.69551
 C1713 C 0.12636 0.53980 0.70519
 C1714 C 0.13951 0.53162 0.69614
 C1715 C 0.15436 0.52741 0.70494
 C1716 C 0.15620 0.53099 0.72312
 C1717 C 0.14319 0.53952 0.73211
 C1718 C 0.12832 0.54381 0.72327
 C1719 C 0.17157 0.52620 0.73291
 C1720 C 0.18182 0.51254 0.72759
 H1721 H 0.10825 0.53578 0.68362
 H1722 H 0.13831 0.52854 0.68218
 H1723 H 0.16439 0.52151 0.69737
 H1724 H 0.14440 0.54251 0.74608
 H1725 H 0.11829 0.54980 0.73075
 H1726 H 0.17475 0.53345 0.74475
 H1727 H 0.10188 0.56464 0.71137
 H1728 H 0.17828 0.50458 0.71639
 C1729 C 0.10012 0.05266 0.19988
 C1730 C 0.11038 0.05838 0.21372
 C1731 C 0.12682 0.05018 0.21774
 C1732 C 0.13329 0.05125 0.23501
 C1733 C 0.14877 0.04371 0.23924
 C1734 C 0.15827 0.03517 0.22615
 C1735 C 0.15180 0.03405 0.20890
 C1736 C 0.13632 0.04159 0.20466
 C1737 C 0.17488 0.02733 0.23009
 C1738 C 0.18524 0.03352 0.24359
 H1739 H 0.10605 0.06874 0.22225
 H1740 H 0.12624 0.05775 0.24533
 H1741 H 0.15308 0.04441 0.25283
 H1742 H 0.15889 0.02761 0.19857
 H1743 H 0.13207 0.04094 0.19105
 H1744 H 0.17949 0.01717 0.22147
 H1745 H 0.10397 0.04148 0.19224
 H1746 H 0.18132 0.04464 0.25128
 C1747 C 0.64422 0.70584 0.18703
 C1748 C 0.63621 0.70158 0.20282
 C1749 C 0.61975 0.70907 0.20743
 C1750 C 0.61225 0.70463 0.22371
 C1751 C 0.59634 0.71095 0.22809
 C1752 C 0.58759 0.72173 0.21610
 C1753 C 0.59529 0.72647 0.19999
 C1754 C 0.61119 0.72021 0.19566
 C1755 C 0.57054 0.72832 0.21976
 C1756 C 0.55965 0.72094 0.23230
 H1757 H 0.64189 0.69215 0.21172
 H1758 H 0.61868 0.69619 0.23305
 H1759 H 0.59109 0.70744 0.24088
 H1760 H 0.58886 0.73485 0.19058
 H1761 H 0.61663 0.72393 0.18299
 H1762 H 0.56603 0.73891 0.21149
 H1763 H 0.65322 0.70082 0.18423
 H1764 H 0.56346 0.70991 0.24031
 C1765 C 0.15265 0.69823 0.71715
 C1766 C 0.14295 0.71268 0.71238
 C1767 C 0.12594 0.71652 0.71955
 C1768 C 0.11875 0.73277 0.71561
 C1769 C 0.10246 0.73678 0.72133
 C1770 C 0.09290 0.72450 0.73103
 C1771 C 0.10018 0.70838 0.73525
 C1772 C 0.11646 0.70436 0.72952
 C1773 C 0.07539 0.72787 0.73695
 C1774 C 0.06493 0.74052 0.72942
 H1775 H 0.14807 0.72176 0.70267
 H1776 H 0.12576 0.74242 0.70801
 H1777 H 0.09754 0.74952 0.71818
 H1778 H 0.09311 0.69869 0.74274
 H1779 H 0.12129 0.69159 0.73265
 H1780 H 0.07010 0.71912 0.74687
 H1781 H 0.14838 0.68924 0.72732
 H1782 H 0.06952 0.74886 0.71881
 C1783 C 0.60570 0.18641 0.55381
 C1784 C 0.60807 0.20418 0.55688
 C1785 C 0.61978 0.21524 0.54636
 C1786 C 0.62617 0.23057 0.55392
 C1787 C 0.63791 0.24091 0.54474
 C1788 C 0.64340 0.23612 0.52769
 C1789 C 0.63633 0.22125 0.51982
 C1790 C 0.62466 0.21092 0.52901
 C1791 C 0.65704 0.24541 0.51799
 C1792 C 0.66835 0.25712 0.52577
 H1793 H 0.60183 0.21008 0.56812
 H1794 H 0.62236 0.23435 0.56716
 H1795 H 0.64267 0.25246 0.55116
 H1796 H 0.64017 0.21735 0.50663
 H1797 H 0.61953 0.19960 0.52244
 H1798 H 0.65969 0.24102 0.50464
 H1799 H 0.61254 0.17997 0.54334
 H1800 H 0.66617 0.26207 0.53896
 C1801 C 0.61449 0.68042 0.04746
 C1802 C 0.62825 0.68950 0.05441
 C1803 C 0.64480 0.69130 0.04522
 C1804 C 0.65620 0.70393 0.05130
 C1805 C 0.67163 0.70668 0.04273
 C1806 C 0.67603 0.69688 0.02770
 C1807 C 0.66503 0.68367 0.02210
 C1808 C 0.64956 0.68089 0.03071
 C1809 C 0.69206 0.70004 0.01790
 C1810 C 0.70009 0.71625 0.01797
 H1811 H 0.62657 0.69634 0.06681
 H1812 H 0.65309 0.71187 0.06267
 H1813 H 0.68009 0.71640 0.04808
 H1814 H 0.66830 0.67564 0.01085
 H1815 H 0.64154 0.67054 0.02592
 H1816 H 0.69747 0.68952 0.01031
 H1817 H 0.61558 0.67386 0.03488
 H1818 H 0.69427 0.72698 0.02484
 C1819 C 0.14146 0.06610 0.05998
 C1820 C 0.12993 0.05309 0.06501
 C1821 C 0.11392 0.04969 0.05534
 C1822 C 0.10627 0.03322 0.05692
 C1823 C 0.09116 0.02949 0.04815
 C1824 C 0.08312 0.04230 0.03777
 C1825 C 0.09079 0.05877 0.03616
 C1826 C 0.10594 0.06249 0.04490
 C1827 C 0.06687 0.03902 0.02848
 C1828 C 0.05567 0.02569 0.03335
 H1829 H 0.13307 0.04447 0.07595
 H1830 H 0.11213 0.02311 0.06484
 H1831 H 0.08601 0.01648 0.04941
 H1832 H 0.08490 0.06891 0.02830
 H1833 H 0.11111 0.07550 0.04368
 H1834 H 0.06308 0.04815 0.01822
 H1835 H 0.13887 0.07399 0.04835
 H1836 H 0.05863 0.01725 0.04445
 C1837 C 0.14071 0.56282 0.55959
 C1838 C 0.13212 0.54764 0.56455
 C1839 C 0.11747 0.54042 0.55479
 C1840 C 0.11209 0.52345 0.55893
 C1841 C 0.09833 0.51600 0.55026
 C1842 C 0.08955 0.52540 0.53711
 C1843 C 0.09480 0.54247 0.53311
 C1844 C 0.10856 0.54995 0.54184
 C1845 C 0.07452 0.51828 0.52784
 C1846 C 0.06883 0.50114 0.52973
 H1847 H 0.13666 0.54035 0.57594
 H1848 H 0.11857 0.51588 0.56899
 H1849 H 0.09464 0.50301 0.55426
 H1850 H 0.08814 0.55014 0.52327
 H1851 H 0.11188 0.56323 0.53852
 H1852 H 0.06723 0.52715 0.51969
 H1853 H 0.13692 0.57015 0.54799
 H1854 H 0.07573 0.49185 0.53764
 C1855 C 0.65947 0.05790 0.54918
 C1856 C 0.65339 0.04109 0.55267
 C1857 C 0.63861 0.03376 0.54316
 C1858 C 0.63667 0.01561 0.54181
 C1859 C 0.62304 0.00843 0.53251
 C1860 C 0.61107 0.01934 0.52445
 C1861 C 0.61289 0.03742 0.52602
 C1862 C 0.62633 0.04457 0.53543
 C1863 C 0.59644 0.01261 0.51441
 C1864 C 0.58857 -0.00335 0.51799
 H1865 H 0.66003 0.03280 0.56199
 H1866 H 0.64587 0.00699 0.54773
 H1867 H 0.62209 -0.00558 0.53140
 H1868 H 0.60369 0.04610 0.52016
 H1869 H 0.62684 0.05856 0.53676
 H1870 H 0.59028 0.02164 0.50544
 H1871 H 0.65353 0.06565 0.53894
 H1872 H 0.59377 -0.01209 0.52787
 C1873 C 0.64010 0.54519 0.04889
 C1874 C 0.63132 0.55113 0.03404
 C1875 C 0.61436 0.54447 0.02933
 C1876 C 0.60903 0.54541 0.01161
 C1877 C 0.59298 0.53950 0.00678
 C1878 C 0.58180 0.53280 0.01970
 C1879 C 0.58718 0.53181 0.03741
 C1880 C 0.60323 0.53765 0.04222
 C1881 C 0.56444 0.52693 0.01543
 C1882 C 0.55586 0.53191 0.00007
 H1883 H 0.63725 0.56059 0.02526
 H1884 H 0.61737 0.55060 0.00144
 H1885 H 0.58956 0.54011 -0.00709
 H1886 H 0.57882 0.52678 0.04765
 H1887 H 0.60665 0.53718 0.05610
 H1888 H 0.55769 0.51945 0.02546
 H1889 H 0.63488 0.53476 0.05696
 H1890 H 0.56196 0.54014 -0.00975
 C1891 C 0.05430 0.05453 0.16038
 C1892 C 0.04014 0.06157 0.15209
 C1893 C 0.03366 0.05450 0.13513
 C1894 C 0.01668 0.05682 0.13059
 C1895 C 0.01028 0.04998 0.11477
 C1896 C 0.02085 0.04077 0.10317
 C1897 C 0.03783 0.03865 0.10762
 C1898 C 0.04424 0.04561 0.12326
 C1899 C 0.01478 0.03318 0.08637
 C1900 C 0.00154 0.04015 0.07656
 H1901 H 0.03351 0.07225 0.15824
 H1902 H 0.00830 0.06372 0.13943
 H1903 H -0.00296 0.05163 0.11185
 H1904 H 0.04627 0.03180 0.09879
 H1905 H 0.05757 0.04419 0.12578
 H1906 H 0.02212 0.02277 0.08063
 H1907 H 0.06006 0.04306 0.15480
 H1908 H -0.00509 0.05146 0.08136
 C1909 C 0.05988 0.53720 0.65474
 C1910 C 0.04428 0.53707 0.64637
 C1911 C 0.04020 0.52464 0.63213
 C1912 C 0.02336 0.51980 0.62940
 C1913 C 0.01905 0.50861 0.61559
 C1914 C 0.03153 0.50236 0.60400
 C1915 C 0.04841 0.50683 0.60703
 C1916 C 0.05273 0.51795 0.62088
 C1917 C 0.02733 0.49223 0.58799
 C1918 C 0.01218 0.49453 0.57902
 H1919 H 0.03454 0.54585 0.65084
 H1920 H 0.01352 0.52472 0.63797
 H1921 H 0.00595 0.50501 0.61398
 H1922 H 0.05823 0.50225 0.59824
 H1923 H 0.06580 0.52174 0.62231
 H1924 H 0.03735 0.48508 0.58158
 H1925 H 0.06912 0.52741 0.65151
 H1926 H 0.00251 0.50270 0.58462
 C1927 C 0.56175 0.06215 0.64894
 C1928 C 0.56505 0.04610 0.64085
 C1929 C 0.55636 0.03936 0.62480
 C1930 C 0.55756 0.02152 0.62098
 C1931 C 0.55036 0.01460 0.60559
 C1932 C 0.54193 0.02546 0.59344
 C1933 C 0.54058 0.04329 0.59735
 C1934 C 0.54772 0.05020 0.61281
 C1935 C 0.53459 0.01893 0.57653
 C1936 C 0.53795 0.00262 0.56908
 H1937 H 0.57440 0.03764 0.64679
 H1938 H 0.56414 0.01285 0.62997
 H1939 H 0.55148 0.00077 0.60341
 H1940 H 0.53421 0.05201 0.58824
 H1941 H 0.54680 0.06405 0.61502
 H1942 H 0.52698 0.02798 0.56894
 H1943 H 0.55174 0.07030 0.64392
 H1944 H 0.54612 -0.00649 0.57581
 C1945 C 0.56419 0.56489 0.13613
 C1946 C 0.54737 0.56771 0.13172
 C1947 C 0.53952 0.55952 0.11591
 C1948 C 0.52545 0.56732 0.10798
 C1949 C 0.51821 0.56023 0.09268
 C1950 C 0.52489 0.54504 0.08499
 C1951 C 0.53857 0.53694 0.09335
 C1952 C 0.54574 0.54398 0.10863
 C1953 C 0.51833 0.53727 0.06830
 C1954 C 0.50564 0.54459 0.05789
 H1955 H 0.53996 0.57654 0.13966
 H1956 H 0.52021 0.57912 0.11345
 H1957 H 0.50750 0.56686 0.08706
 H1958 H 0.54386 0.52512 0.08797
 H1959 H 0.55608 0.53705 0.11471
 H1960 H 0.52427 0.52549 0.06362
 H1961 H 0.57191 0.55697 0.12756
 H1962 H 0.49946 0.55637 0.06201
 C1963 C 0.18194 0.55691 0.60768
 C1964 C 0.19625 0.56186 0.61723
 C1965 C 0.20276 0.55186 0.63272
 C1966 C 0.21959 0.55423 0.63794
 C1967 C 0.22615 0.54512 0.65253
 C1968 C 0.21588 0.53354 0.66237
 C1969 C 0.19906 0.53120 0.65716
 C1970 C 0.19251 0.54031 0.64261
 C1971 C 0.22206 0.52375 0.67812
 C1972 C 0.23606 0.52872 0.68818
 H1973 H 0.20335 0.57320 0.61280
 H1974 H 0.22776 0.56306 0.63059
 H1975 H 0.23926 0.54706 0.65585
 H1976 H 0.19083 0.52248 0.66456
 H1977 H 0.17935 0.53846 0.63947
 H1978 H 0.21434 0.51301 0.68293
 H1979 H 0.17533 0.54501 0.61114
 H1980 H 0.24333 0.54013 0.68443
 C1981 C 0.18051 0.05395 0.10717
 C1982 C 0.19605 0.05623 0.11573
 C1983 C 0.20131 0.04677 0.13209
 C1984 C 0.21856 0.04584 0.13602
 C1985 C 0.22419 0.03788 0.15167
 C1986 C 0.21262 0.03089 0.16405
 C1987 C 0.19535 0.03155 0.15998
 C1988 C 0.18972 0.03942 0.14421
 C1989 C 0.21803 0.02306 0.18130
 C1990 C 0.23384 0.02608 0.18896
 H1991 H 0.20522 0.06507 0.10985
 H1992 H 0.22779 0.05131 0.12690
 H1993 H 0.23762 0.03724 0.15386
 H1994 H 0.18612 0.02627 0.16921
 H1995 H 0.17630 0.04014 0.14185
 H1996 H 0.20878 0.01563 0.18883
 H1997 H 0.17168 0.04431 0.11219
 H1998 H 0.24290 0.03439 0.18226
 C1999 C 0.70194 0.19091 0.65546
 C2000 C 0.69348 0.20248 0.64431
 C2001 C 0.70013 0.20805 0.62673
 C2002 C 0.69414 0.22353 0.61911
 C2003 C 0.70017 0.22932 0.60263
 C2004 C 0.71239 0.21971 0.59339
 C2005 C 0.71796 0.20393 0.60074
 C2006 C 0.71193 0.19814 0.61722
 C2007 C 0.71913 0.22539 0.57589
 C2008 C 0.71849 0.24260 0.56988
 H2009 H 0.68180 0.20817 0.64888
 H2010 H 0.68479 0.23122 0.62596
 H2011 H 0.69497 0.24116 0.59714
 H2012 H 0.72706 0.19608 0.59372
 H2013 H 0.71637 0.18578 0.62224
 H2014 H 0.72496 0.21570 0.56753
 H2015 H 0.71407 0.18584 0.65159
 H2016 H 0.71337 0.25261 0.57831
 C2017 C 0.69242 0.69819 0.14285
 C2018 C 0.70806 0.69265 0.13678
 C2019 C 0.71515 0.69942 0.11990
 C2020 C 0.73264 0.70146 0.11808
 C2021 C 0.73950 0.70875 0.10256
 C2022 C 0.72893 0.71390 0.08850
 C2023 C 0.71148 0.71157 0.09025
 C2024 C 0.70465 0.70427 0.10568
 C2025 C 0.73552 0.72154 0.07180
 C2026 C 0.75152 0.71795 0.06522
 H2027 H 0.71571 0.68433 0.14514
 H2028 H 0.74095 0.69782 0.12885
 H2029 H 0.75300 0.71062 0.10181
 H2030 H 0.70310 0.71522 0.07953
 H2031 H 0.69115 0.70234 0.10637
 H2032 H 0.72677 0.72856 0.06338
 H2033 H 0.68555 0.70781 0.13523
 H2034 H 0.75996 0.70968 0.07271
 C2035 C 0.57476 0.69751 0.09516
 C2036 C 0.55802 0.69812 0.10109
 C2037 C 0.55191 0.70611 0.11772
 C2038 C 0.53440 0.70729 0.12018
 C2039 C 0.52768 0.71373 0.13592
 C2040 C 0.53834 0.71905 0.14973
 C2041 C 0.55588 0.71829 0.14718
 C2042 C 0.56265 0.71180 0.13136
 C2043 C 0.53156 0.72573 0.16668
 C2044 C 0.51546 0.72155 0.17314
 H2045 H 0.54843 0.69214 0.09289
 H2046 H 0.52582 0.70312 0.10986
 H2047 H 0.51414 0.71466 0.13709
 H2048 H 0.56437 0.72245 0.15760
 H2049 H 0.57618 0.71097 0.13007
 H2050 H 0.53986 0.73363 0.17477
 H2051 H 0.58475 0.70407 0.10226
 H2052 H 0.50750 0.71248 0.16606
 C2053 C 0.05318 0.67567 0.59726
 C2054 C 0.05621 0.69131 0.60603
 C2055 C 0.04653 0.69658 0.62196
 C2056 C 0.04473 0.71434 0.62565
 C2057 C 0.03566 0.71976 0.64056
 C2058 C 0.02844 0.70743 0.65232
 C2059 C 0.03030 0.68966 0.64860
 C2060 C 0.03929 0.68427 0.63366
 C2061 C 0.01906 0.71245 0.66857
 C2062 C 0.02028 0.72885 0.67638
 H2063 H 0.06534 0.70042 0.60051
 H2064 H 0.05017 0.72408 0.61684
 H2065 H 0.03423 0.73358 0.64260
 H2066 H 0.02497 0.67988 0.65744
 H2067 H 0.04081 0.67045 0.63155
 H2068 H 0.01182 0.70240 0.67537
 H2069 H 0.04311 0.66716 0.60180
 H2070 H 0.02820 0.73883 0.67048
 C2071 C 0.56691 0.60326 0.18895
 C2072 C 0.55075 0.61014 0.18677
 C2073 C 0.54383 0.62440 0.19787
 C2074 C 0.52630 0.62667 0.19870
 C2075 C 0.51929 0.64037 0.20837
 C2076 C 0.52972 0.65238 0.21727
 C2077 C 0.54725 0.64993 0.21666
 C2078 C 0.55425 0.63619 0.20704
 C2079 C 0.52299 0.66782 0.22679
 C2080 C 0.50700 0.67480 0.22371
 H2081 H 0.54262 0.60455 0.17676
 H2082 H 0.51795 0.61779 0.19182
 H2083 H 0.50572 0.64138 0.20878
 H2084 H 0.55564 0.65894 0.22331
 H2085 H 0.56782 0.63523 0.20646
 H2086 H 0.53162 0.67510 0.23509
 H2087 H 0.57477 0.60778 0.19971
 H2088 H 0.49855 0.66849 0.21450
 C2089 C 0.04878 0.59045 0.68864
 C2090 C 0.05284 0.60168 0.70248
 C2091 C 0.04392 0.61805 0.70620
 C2092 C 0.04580 0.62547 0.72303
 C2093 C 0.03833 0.64136 0.72698
 C2094 C 0.02902 0.65033 0.71399
 C2095 C 0.02691 0.64281 0.69721
 C2096 C 0.03436 0.62685 0.69328
 C2097 C 0.02113 0.66731 0.71761
 C2098 C 0.02670 0.67845 0.73096
 H2099 H 0.06306 0.59823 0.71132
 H2100 H 0.05307 0.61891 0.73321
 H2101 H 0.03976 0.64639 0.74026
 H2102 H 0.01975 0.64946 0.68702
 H2103 H 0.03294 0.62174 0.68002
 H2104 H 0.01092 0.67143 0.70904
 H2105 H 0.03794 0.59284 0.68032
 H2106 H 0.03760 0.67517 0.73887
 C2107 C 0.06899 0.15075 0.06486
 C2108 C 0.07419 0.14247 0.04935
 C2109 C 0.06336 0.12981 0.03998
 C2110 C 0.07093 0.11649 0.03020
 C2111 C 0.06105 0.10370 0.02213
 C2112 C 0.04343 0.10398 0.02365
 C2113 C 0.03580 0.11787 0.03262
 C2114 C 0.04567 0.13065 0.04070
 C2115 C 0.03359 0.08940 0.01610
 C2116 C 0.01737 0.08480 0.02180
 H2117 H 0.08702 0.14424 0.04466
 H2118 H 0.08452 0.11572 0.02923
 H2119 H 0.06723 0.09329 0.01505
 H2120 H 0.02225 0.11899 0.03342
 H2121 H 0.03940 0.14121 0.04740
 H2122 H 0.04006 0.08086 0.00698
 H2123 H 0.05655 0.14807 0.07015
 H2124 H 0.01085 0.09259 0.03149
 C2125 C 0.06042 0.63427 0.54871
 C2126 C 0.04620 0.62457 0.55370
 C2127 C 0.04115 0.60805 0.54507
 C2128 C 0.02443 0.60218 0.54680
 C2129 C 0.01928 0.58641 0.53928
 C2130 C 0.03086 0.57603 0.53003
 C2131 C 0.04756 0.58196 0.52823
 C2132 C 0.05269 0.59772 0.53572
 C2133 C 0.02626 0.55898 0.52221
 C2134 C 0.01198 0.54924 0.52699
 H2135 H 0.03816 0.62949 0.56414
 H2136 H 0.01529 0.60987 0.55395
 H2137 H 0.00622 0.58256 0.54067
 H2138 H 0.05677 0.57421 0.52125
 H2139 H 0.06579 0.60147 0.53449
 H2140 H 0.03527 0.55322 0.51319
 H2141 H 0.06797 0.63028 0.53751
 H2142 H 0.00314 0.55417 0.53663
 C2143 C 0.57912 0.12997 0.56804
 C2144 C 0.58176 0.12295 0.55130
 C2145 C 0.57341 0.10660 0.54592
 C2146 C 0.56832 0.10480 0.52822
 C2147 C 0.55889 0.09034 0.52300
 C2148 C 0.55460 0.07723 0.53539
 C2149 C 0.55998 0.07884 0.55301
 C2150 C 0.56944 0.09331 0.55823
 C2151 C 0.54470 0.06174 0.53029
 C2152 C 0.54553 0.05487 0.51328
 H2153 H 0.58768 0.13096 0.54112
 H2154 H 0.57114 0.11492 0.51854
 H2155 H 0.55464 0.08970 0.50938
 H2156 H 0.55696 0.06882 0.56274
 H2157 H 0.57356 0.09404 0.57189
 H2158 H 0.53810 0.05450 0.54060
 H2159 H 0.57195 0.12268 0.57786
 H2160 H 0.55365 0.06089 0.50340
 C2161 C 0.55661 0.65766 0.04912
 C2162 C 0.55816 0.64836 0.03342
 C2163 C 0.54480 0.63631 0.02735
 C2164 C 0.54303 0.63301 0.00917
 C2165 C 0.53083 0.62124 0.00318
 C2166 C 0.52038 0.61229 0.01537
 C2167 C 0.52196 0.61587 0.03351
 C2168 C 0.53410 0.62763 0.03948
 C2169 C 0.50847 0.59842 0.00997
 C2170 C 0.51071 0.58864 -0.00536
 H2171 H 0.56921 0.65027 0.02516
 H2172 H 0.55111 0.63957 -0.00041
 H2173 H 0.52972 0.61920 -0.01096
 H2174 H 0.51417 0.60907 0.04319
 H2175 H 0.53541 0.62944 0.05364
 H2176 H 0.49931 0.59396 0.01971
 H2177 H 0.54495 0.65698 0.05658
 H2178 H 0.52034 0.59228 -0.01488
 C2179 C 0.69577 0.10693 0.55622
 C2180 C 0.68706 0.11706 0.54380
 C2181 C 0.69170 0.13540 0.53984
 C2182 C 0.68752 0.14265 0.52327
 C2183 C 0.69232 0.15973 0.51892
 C2184 C 0.70125 0.16993 0.53122
 C2185 C 0.70492 0.16283 0.54797
 C2186 C 0.70012 0.14582 0.55231
 C2187 C 0.70790 0.18748 0.52692
 C2188 C 0.70254 0.19788 0.51273
 H2189 H 0.67691 0.11125 0.53623
 H2190 H 0.68090 0.13493 0.51350
 H2191 H 0.68947 0.16464 0.50578
 H2192 H 0.71166 0.17045 0.55774
 H2193 H 0.70297 0.14099 0.56548
 H2194 H 0.71762 0.19256 0.53558
 H2195 H 0.70664 0.11236 0.56288
 H2196 H 0.69195 0.19398 0.50463
 C2197 C 0.68650 0.58759 0.04189
 C2198 C 0.70184 0.59485 0.04732
 C2199 C 0.70976 0.61039 0.03892
 C2200 C 0.72691 0.61380 0.04204
 C2201 C 0.73480 0.62850 0.03462
 C2202 C 0.72559 0.64018 0.02403
 C2203 C 0.70844 0.63679 0.02098
 C2204 C 0.70056 0.62215 0.02839
 C2205 C 0.73320 0.65589 0.01570
 C2206 C 0.74847 0.66359 0.02078
 H2207 H 0.70861 0.58866 0.05811
 H2208 H 0.73426 0.60498 0.05016
 H2209 H 0.74809 0.63046 0.03706
 H2210 H 0.70102 0.64565 0.01296
 H2211 H 0.68724 0.62036 0.02607
 H2212 H 0.72577 0.66234 0.00558
 H2213 H 0.67990 0.59280 0.03052
 H2214 H 0.75587 0.65812 0.03146
 C2215 C 0.20208 0.66056 0.70911
 C2216 C 0.19599 0.64776 0.72073
 C2217 C 0.20476 0.63107 0.72407
 C2218 C 0.19525 0.61677 0.73014
 C2219 C 0.20288 0.60073 0.73334
 C2220 C 0.22035 0.59868 0.73090
 C2221 C 0.22988 0.61294 0.72473
 C2222 C 0.22221 0.62903 0.72145
 C2223 C 0.22880 0.58180 0.73439
 C2224 C 0.22219 0.56959 0.74634
 H2225 H 0.18368 0.64948 0.72668
 H2226 H 0.18179 0.61794 0.73215
 H2227 H 0.19494 0.58993 0.73743
 H2228 H 0.24333 0.61171 0.72268
 H2229 H 0.23006 0.63983 0.71716
 H2230 H 0.24060 0.57912 0.72773
 H2231 H 0.21382 0.65862 0.70211
 H2232 H 0.21103 0.57273 0.75390
 C2233 C 0.18502 0.14714 0.19544
 C2234 C 0.20064 0.13920 0.19352
 C2235 C 0.20734 0.12652 0.20651
 C2236 C 0.22476 0.12364 0.20704
 C2237 C 0.23148 0.11109 0.21847
 C2238 C 0.22080 0.10099 0.22941
 C2239 C 0.20344 0.10420 0.22923
 C2240 C 0.19673 0.11674 0.21782
 C2241 C 0.22710 0.08640 0.24037
 C2242 C 0.24139 0.07696 0.23576
 H2243 H 0.20851 0.14274 0.18227
 H2244 H 0.23319 0.13106 0.19850
 H2245 H 0.24499 0.10933 0.21861
 H2246 H 0.19496 0.09652 0.23748
 H2247 H 0.18319 0.11824 0.21751
 H2248 H 0.21894 0.08140 0.25080
 H2249 H 0.17756 0.14492 0.20729
 H2250 H 0.24918 0.08113 0.22471
 C2251 C 0.70634 1.15275 0.70746
 C2252 C 0.72069 1.14467 0.70079
 C2253 C 0.72774 1.12873 0.70886
 C2254 C 0.73626 1.11697 0.69795
 C2255 C 0.74167 1.10097 0.70469
 C2256 C 0.73884 1.09653 0.72264
 C2257 C 0.73107 1.10872 0.73372
 C2258 C 0.72562 1.12468 0.72696
 C2259 C 0.74271 1.07913 0.73012
 C2260 C 0.75095 1.06597 0.72090
 H2261 H 0.72581 1.14901 0.68815
 H2262 H 0.73816 1.11988 0.68399
 H2263 H 0.74753 1.09208 0.69556
 H2264 H 0.72888 1.10574 0.74762
 H2265 H 0.71965 1.13370 0.73592
 H2266 H 0.73811 1.07627 0.74340
 H2267 H 0.70045 1.14797 0.71953
 H2268 H 0.75644 1.06842 0.70799
 C2269 C 0.69076 0.66047 0.19640
 C2270 C 0.70346 0.64940 0.19070
 C2271 C 0.70872 0.63386 0.20103
 C2272 C 0.72454 0.62660 0.19763
 C2273 C 0.72979 0.61169 0.20674
 C2274 C 0.71926 0.60367 0.21954
 C2275 C 0.70332 0.61076 0.22272
 C2276 C 0.69807 0.62567 0.21358
 C2277 C 0.72399 0.58730 0.22879
 C2278 C 0.74052 0.58139 0.22967
 H2279 H 0.70987 0.65225 0.17829
 H2280 H 0.73285 0.63243 0.18778
 H2281 H 0.74188 0.60631 0.20326
 H2282 H 0.69482 0.60463 0.23218
 H2283 H 0.68549 0.63037 0.21610
 H2284 H 0.71400 0.57918 0.23426
 H2285 H 0.68488 0.65836 0.20921
 H2286 H 0.75074 0.58947 0.22477
 C2287 C 0.57200 0.10577 0.69462
 C2288 C 0.55865 0.11648 0.68947
 C2289 C 0.55426 0.13323 0.69822
 C2290 C 0.54277 0.14434 0.68973
 C2291 C 0.53807 0.16014 0.69739
 C2292 C 0.54461 0.16519 0.71396
 C2293 C 0.55622 0.15420 0.72241
 C2294 C 0.56092 0.13835 0.71474
 C2295 C 0.54002 0.18203 0.72237
 C2296 C 0.52507 0.19078 0.71849
 H2297 H 0.55119 0.11259 0.67812
 H2298 H 0.53749 0.14087 0.67697
 H2299 H 0.52956 0.16845 0.69006
 H2300 H 0.56155 0.15778 0.73510
 H2301 H 0.56958 0.13019 0.72200
 H2302 H 0.54869 0.18767 0.73185
 H2303 H 0.58008 0.10954 0.70546
 H2304 H 0.51598 0.18480 0.70972
 C2305 C 1.05776 0.09739 0.20792
 C2306 C 1.04255 0.10555 0.20365
 C2307 C 1.03579 0.12112 0.21292
 C2308 C 1.02100 0.12889 0.20645
 C2309 C 1.01436 0.14380 0.21442
 C2310 C 1.02242 0.15131 0.22915
 C2311 C 1.03698 0.14333 0.23584
 C2312 C 1.04360 0.12847 0.22789
 C2313 C 1.01672 0.16769 0.23764
 C2314 C 1.00418 0.17874 0.23105
 H2315 H 1.03526 0.10039 0.19271
 H2316 H 1.01460 0.12348 0.19503
 H2317 H 1.00303 0.14932 0.20890
 H2318 H 1.04347 0.14877 0.24719
 H2319 H 1.05484 0.12300 0.23364
 H2320 H 1.02388 0.17204 0.24903
 H2321 H 1.06550 0.10214 0.21863
 H2322 H 0.99669 0.17505 0.21971
 C2323 C 0.18414 0.60751 0.56685
 C2324 C 0.17735 0.61714 0.55275
 C2325 C 0.18454 0.63362 0.54558
 C2326 C 0.20098 0.63929 0.54951
 C2327 C 0.20731 0.65474 0.54209
 C2328 C 0.19744 0.66477 0.53037
 C2329 C 0.18101 0.65916 0.52659
 C2330 C 0.17467 0.64371 0.53401
 C2331 C 0.20357 0.68145 0.52257
 C2332 C 0.22058 0.68601 0.52170
 H2333 H 0.16582 0.61249 0.54667
 H2334 H 0.20911 0.63185 0.55815
 H2335 H 0.21984 0.65882 0.54588
 H2336 H 0.17306 0.66671 0.51779
 H2337 H 0.16196 0.63966 0.53072
 H2338 H 0.19429 0.69068 0.51785
 H2339 H 0.19515 0.61208 0.57387
 H2340 H 0.23009 0.67682 0.52582
 C2341 C 0.19336 0.09922 1.06378
 C2342 C 0.18998 0.10849 1.04813
 C2343 C 0.20075 0.12283 1.04102
 C2344 C 0.19900 0.12778 1.02313
 C2345 C 0.20849 0.14157 1.01597
 C2346 C 0.21985 0.15091 1.02666
 C2347 C 0.22171 0.14587 1.04452
 C2348 C 0.21223 0.13207 1.05167
 C2349 C 0.22982 0.16603 1.01991
 C2350 C 0.22582 0.17559 1.00461
 H2351 H 0.17905 0.10478 1.04040
 H2352 H 0.19026 0.12090 1.01462
 H2353 H 0.20691 0.14471 1.00207
 H2354 H 0.23033 0.15285 1.05308
 H2355 H 0.21370 0.12902 1.06562
 H2356 H 0.23993 0.17077 1.02827
 H2357 H 0.20473 0.10186 1.07120
 H2358 H 0.21518 0.17185 0.99652
 C2359 C 0.19502 0.71247 0.67183
 C2360 C 0.20904 0.70829 0.66150
 C2361 C 0.21389 0.71745 0.64483
 C2362 C 0.22904 0.71280 0.63650
 C2363 C 0.23363 0.72013 0.62015
 C2364 C 0.22306 0.73223 0.61170
 C2365 C 0.20820 0.73731 0.62026
 C2366 C 0.20357 0.72995 0.63657
 C2367 C 0.22690 0.73965 0.59396
 C2368 C 0.23705 0.73137 0.58147
 H2369 H 0.21663 0.69726 0.66550
 H2370 H 0.23729 0.70329 0.64259
 H2371 H 0.24546 0.71628 0.61425
 H2372 H 0.19989 0.74669 0.61405
 H2373 H 0.19171 0.73388 0.64226
 H2374 H 0.22027 0.75135 0.59004
 H2375 H 0.18745 0.72372 0.66876
 H2376 H 0.24312 0.71919 0.58471
 C2377 C 0.18862 0.17529 1.13809
 C2378 C 0.18398 0.18718 1.12491
 C2379 C 0.19458 0.19042 1.10898
 C2380 C 0.19480 0.20711 1.10137
 C2381 C 0.20541 0.21096 1.08704
 C2382 C 0.21595 0.19809 1.07985
 C2383 C 0.21508 0.18114 1.08684
 C2384 C 0.20458 0.17733 1.10136
 C2385 C 0.22728 0.20204 1.06465
 C2386 C 0.23401 0.21867 1.06203
 H2387 H 0.17325 0.19557 1.12709
 H2388 H 0.18698 0.21731 1.10675
 H2389 H 0.20510 0.22397 1.08143
 H2390 H 0.22273 0.17091 1.08125
 H2391 H 0.20426 0.16413 1.10649
 H2392 H 0.22968 0.19198 1.05497
 H2393 H 0.20001 0.16781 1.13632
 H2394 H 0.23194 0.22852 1.07199
 C2395 C 0.68688 0.54443 0.09046
 C2396 C 0.70153 0.55126 0.09800
 C2397 C 0.70876 0.54450 0.11477
 C2398 C 0.72578 0.54784 0.11861
 C2399 C 0.73296 0.54163 0.13438
 C2400 C 0.72313 0.53208 0.14662
 C2401 C 0.70611 0.52890 0.14283
 C2402 C 0.69894 0.53516 0.12719
 C2403 C 0.72998 0.52500 0.16336
 C2404 C 0.74391 0.53191 0.17223
 H2405 H 0.70814 0.56177 0.09122
 H2406 H 0.73357 0.55510 0.10931
 H2407 H 0.74619 0.54409 0.13675
 H2408 H 0.69825 0.52172 0.15215
 H2409 H 0.68564 0.53287 0.12514
 H2410 H 0.72271 0.51477 0.16981
 H2411 H 0.68067 0.53324 0.09639
 H2412 H 0.75084 0.54285 0.16669
 C2413 C 0.70553 1.05642 0.59231
 C2414 C 0.69986 1.04225 0.60243
 C2415 C 0.70904 1.03578 0.61836
 C2416 C 0.70515 1.01920 0.62530
 C2417 C 0.71323 1.01297 0.64060
 C2418 C 0.72531 1.02331 0.64932
 C2419 C 0.72926 1.03978 0.64231
 C2420 C 0.72113 1.04605 0.62718
 C2421 C 0.73396 1.01765 0.66578
 C2422 C 0.72715 1.00563 0.67784
 H2423 H 0.68817 1.03587 0.59878
 H2424 H 0.69586 1.01103 0.61886
 H2425 H 0.71007 1.00005 0.64541
 H2426 H 0.73842 1.04806 0.64884
 H2427 H 0.72415 1.05914 0.62286
 H2428 H 0.74536 1.02457 0.66943
 H2429 H 0.71753 1.06245 0.59525
 H2430 H 0.71525 0.99929 0.67502
 C2431 C 0.56515 0.18033 0.60299
 C2432 C 0.56450 0.19816 0.60608
 C2433 C 0.55316 0.20589 0.61942
 C2434 C 0.54953 0.22372 0.61823
 C2435 C 0.53900 0.23152 0.63070
 C2436 C 0.53196 0.22155 0.64458
 C2437 C 0.53535 0.20371 0.64564
 C2438 C 0.54601 0.19597 0.63335
 C2439 C 0.52200 0.22943 0.65885
 C2440 C 0.52619 0.24564 0.66575
 H2441 H 0.57192 0.20689 0.59777
 H2442 H 0.55486 0.23164 0.60764
 H2443 H 0.53639 0.24529 0.62946
 H2444 H 0.53023 0.19586 0.65641
 H2445 H 0.54886 0.18234 0.63521
 H2446 H 0.51350 0.22097 0.66627
 H2447 H 0.55711 0.17141 0.61029
 H2448 H 0.53557 0.25372 0.65917
 C2449 C 1.07706 0.18808 0.11444
 C2450 C 1.06027 0.18689 0.11983
 C2451 C 1.05364 0.19766 0.13436
 C2452 C 1.03683 0.20315 0.13375
 C2453 C 1.03046 0.21407 0.14687
 C2454 C 1.04080 0.21947 0.16094
 C2455 C 1.05754 0.21381 0.16164
 C2456 C 1.06389 0.20290 0.14857
 C2457 C 1.03461 0.23057 0.17539
 C2458 C 1.01787 0.23050 0.18102
 H2459 H 1.05138 0.17935 0.11209
 H2460 H 1.02873 0.19927 0.12289
 H2461 H 1.01757 0.21844 0.14578
 H2462 H 1.06565 0.21760 0.17251
 H2463 H 1.07675 0.19847 0.14978
 H2464 H 1.04400 0.23700 0.18351
 H2465 H 1.08560 0.19669 0.12141
 H2466 H 1.00843 0.22317 0.17385
 C2467 C 0.65831 0.19142 0.70246
 C2468 C 0.64934 0.20527 0.69519
 C2469 C 0.63333 0.21138 0.70300
 C2470 C 0.62886 0.22891 0.70096
 C2471 C 0.61387 0.23512 0.70826
 C2472 C 0.60282 0.22377 0.71744
 C2473 C 0.60733 0.20623 0.71947
 C2474 C 0.62237 0.20005 0.71226
 C2475 C 0.58650 0.22959 0.72487
 C2476 C 0.57824 0.24453 0.71898
 H2477 H 0.65468 0.21249 0.68410
 H2478 H 0.63712 0.23788 0.69392
 H2479 H 0.61117 0.24882 0.70679
 H2480 H 0.59905 0.19719 0.72640
 H2481 H 0.62518 0.18635 0.71369
 H2482 H 0.58012 0.22106 0.73428
 H2483 H 0.65379 0.18510 0.71446
 H2484 H 0.58385 0.25265 0.70875
 C2485 C 1.14206 0.18906 0.17805
 C2486 C 1.13373 0.18613 0.19425
 C2487 C 1.11857 0.19542 0.20062
 C2488 C 1.11186 0.19060 0.21724
 C2489 C 1.09775 0.19897 0.22417
 C2490 C 1.08991 0.21240 0.21454
 C2491 C 1.09667 0.21731 0.19796
 C2492 C 1.11080 0.20892 0.19101
 C2493 C 1.07487 0.22173 0.22120
 C2494 C 1.06525 0.21665 0.23601
 H2495 H 1.13878 0.17631 0.20313
 H2496 H 1.11763 0.18032 0.22501
 H2497 H 1.09327 0.19490 0.23710
 H2498 H 1.09098 0.22770 0.19029
 H2499 H 1.11552 0.21317 0.17823
 H2500 H 1.07073 0.23288 0.21350
 H2501 H 1.13747 0.19849 0.16854
 H2502 H 1.06848 0.20523 0.24369
 C2503 C 0.09971 0.68291 0.55375
 C2504 C 0.10750 0.69704 0.56207
 C2505 C 0.12338 0.70497 0.55518
 C2506 C 0.12745 0.72234 0.55923
 C2507 C 0.14215 0.73018 0.55238
 C2508 C 0.15308 0.72067 0.54143
 C2509 C 0.14920 0.70321 0.53781
 C2510 C 0.13468 0.69539 0.54472
 C2511 C 0.16833 0.72829 0.53298
 C2512 C 0.17726 0.74284 0.53906
 H2513 H 0.10159 0.70271 0.57363
 H2514 H 0.11907 0.72996 0.56741
 H2515 H 0.14468 0.74371 0.55532
 H2516 H 0.15751 0.69551 0.52962
 H2517 H 0.13251 0.68178 0.54191
 H2518 H 0.17356 0.72108 0.52197
 H2519 H 0.10489 0.67799 0.54150
 H2520 H 0.17312 0.74968 0.55078
 C2521 C 0.12192 0.18205 1.07264
 C2522 C 0.12639 0.18194 1.05477
 C2523 C 0.14109 0.19191 1.04819
 C2524 C 0.14015 0.20013 1.03156
 C2525 C 0.15330 0.21082 1.02555
 C2526 C 0.16779 0.21318 1.03601
 C2527 C 0.16882 0.20472 1.05252
 C2528 C 0.15565 0.19410 1.05855
 C2529 C 0.18219 0.22401 1.03002
 C2530 C 0.18596 0.22669 1.01214
 H2531 H 0.11758 0.17676 1.04516
 H2532 H 0.12899 0.19871 1.02342
 H2533 H 0.15188 0.21743 1.01292
 H2534 H 0.17994 0.20618 1.06069
 H2535 H 0.15693 0.18760 1.07128
 H2536 H 0.19133 0.22798 1.03990
 H2537 H 0.12984 0.18877 1.08211
 H2538 H 0.17784 0.22134 1.00200
 C2539 C 0.61294 0.56295 0.17437
 C2540 C 0.62233 0.56650 0.18955
 C2541 C 0.63826 0.55734 0.19387
 C2542 C 0.64378 0.55703 0.21153
 C2543 C 0.65847 0.54822 0.21629
 C2544 C 0.66805 0.53940 0.20342
 C2545 C 0.66279 0.54015 0.18566
 C2546 C 0.64811 0.54902 0.18089
 C2547 C 0.68398 0.53019 0.20780
 C2548 C 0.68896 0.52633 0.22512
 H2549 H 0.61726 0.57545 0.19922
 H2550 H 0.63662 0.56357 0.22175
 H2551 H 0.66227 0.54871 0.23003
 H2552 H 0.67011 0.53388 0.17538
 H2553 H 0.64474 0.54949 0.16700
 H2554 H 0.69250 0.52710 0.19702
 H2555 H 0.61729 0.55327 0.16511
 H2556 H 0.68076 0.52914 0.23618
 C2557 C 0.60743 1.05367 0.69046
 C2558 C 0.61807 1.05887 0.70424
 C2559 C 0.63305 1.04883 0.71013
 C2560 C 0.64053 1.05285 0.72651
 C2561 C 0.65490 1.04402 0.73236
 C2562 C 0.66223 1.03102 0.72182
 C2563 C 0.65469 1.02692 0.70553
 C2564 C 0.64038 1.03577 0.69966
 C2565 C 0.67768 1.02150 0.72713
 C2566 C 0.68930 1.02753 0.73964
 H2567 H 0.61520 1.07079 0.71121
 H2568 H 0.63519 1.06284 0.73485
 H2569 H 0.66007 1.04734 0.74517
 H2570 H 0.66009 1.01702 0.69711
 H2571 H 0.63542 1.03250 0.68676
 H2572 H 0.68072 1.00985 0.71977
 H2573 H 0.60946 1.04141 0.68385
 H2574 H 0.68712 1.03963 0.74649
 C2575 C 0.89832 0.43566 0.29967
 C2576 C 0.88941 0.45024 0.30504
 C2577 C 0.87464 0.45651 0.29512
 C2578 C 0.87187 0.47446 0.29390
 C2579 C 0.85842 0.48090 0.28401
 C2580 C 0.84720 0.46941 0.27550
 C2581 C 0.84997 0.45143 0.27676
 C2582 C 0.86353 0.44500 0.28654
 C2583 C 0.83235 0.47574 0.26565
 C2584 C 0.82457 0.49138 0.26980
 H2585 H 0.89451 0.45837 0.31546
 H2586 H 0.88038 0.48354 0.30030
 H2587 H 0.85703 0.49486 0.28290
 H2588 H 0.84145 0.44233 0.27042
 H2589 H 0.86516 0.43104 0.28755
 H2590 H 0.82634 0.46704 0.25629
 H2591 H 0.89415 0.42838 0.28822
 H2592 H 0.82955 0.49944 0.28030
 C2593 C 0.90229 0.94203 0.81224
 C2594 C 0.89174 0.93518 0.79916
 C2595 C 0.87659 0.94429 0.79229
 C2596 C 0.86924 0.93866 0.77635
 C2597 C 0.85475 0.94668 0.76964
 C2598 C 0.84721 0.96047 0.77886
 C2599 C 0.85458 0.96611 0.79475
 C2600 C 0.86898 0.95808 0.80148
 C2601 C 0.83181 0.96943 0.77256
 C2602 C 0.82039 0.96254 0.76029
 H2603 H 0.89476 0.92262 0.79357
 H2604 H 0.87478 0.92804 0.76901
 H2605 H 0.84967 0.94214 0.75719
 H2606 H 0.84900 0.97665 0.80219
 H2607 H 0.87380 0.96256 0.81406
 H2608 H 0.82870 0.98162 0.77890
 H2609 H 0.90011 0.95493 0.81737
 H2610 H 0.82262 0.94998 0.75435
 C2611 C 0.38315 0.32722 0.82632
 C2612 C 0.39027 0.33088 0.80979
 C2613 C 0.40341 0.31982 0.80199
 C2614 C 0.40320 0.31714 0.78362
 C2615 C 0.41447 0.30566 0.77577
 C2616 C 0.42656 0.29695 0.78615
 C2617 C 0.42694 0.29989 0.80452
 C2618 C 0.41547 0.31119 0.81241
 C2619 C 0.43920 0.28514 0.77834
 C2620 C 0.44326 0.28516 0.76032
 H2621 H 0.38408 0.34012 0.80107
 H2622 H 0.39390 0.32354 0.77537
 H2623 H 0.41335 0.30355 0.76167
 H2624 H 0.43621 0.29350 0.81278
 H2625 H 0.41618 0.31327 0.82659
 H2626 H 0.44699 0.27766 0.78736
 H2627 H 0.38862 0.31735 0.83482
 H2628 H 0.43657 0.29342 0.75110
 C2629 C 0.85694 0.31493 0.31267
 C2630 C 0.86680 0.32050 0.29833
 C2631 C 0.88352 0.31256 0.29467
 C2632 C 0.88940 0.31160 0.27712
 C2633 C 0.90443 0.30291 0.27318
 C2634 C 0.91398 0.29511 0.28680
 C2635 C 0.90832 0.29649 0.30438
 C2636 C 0.89341 0.30527 0.30832
 C2637 C 0.92954 0.28507 0.28317
 C2638 C 0.93978 0.28820 0.26840
 H2639 H 0.86145 0.32938 0.28866
 H2640 H 0.88208 0.31710 0.26635
 H2641 H 0.90820 0.30189 0.25942
 H2642 H 0.91550 0.29077 0.31514
 H2643 H 0.88970 0.30626 0.32209
 H2644 H 0.93358 0.27558 0.29298
 H2645 H 0.86173 0.30480 0.32131
 H2646 H 0.93671 0.29872 0.25936
 C2647 C 0.37925 0.82540 0.43360
 C2648 C 0.37155 0.80909 0.43237
 C2649 C 0.35758 0.80348 0.44420
 C2650 C 0.35493 0.78561 0.44713
 C2651 C 0.34213 0.77978 0.45849
 C2652 C 0.33155 0.79175 0.46701
 C2653 C 0.33419 0.80961 0.46412
 C2654 C 0.34696 0.81546 0.45271
 C2655 C 0.31750 0.78605 0.47863
 C2656 C 0.30891 0.77040 0.47602
 H2657 H 0.37687 0.79956 0.42346
 H2658 H 0.36296 0.77613 0.44079
 H2659 H 0.34072 0.76591 0.46073
 H2660 H 0.32612 0.81908 0.47044
 H2661 H 0.34823 0.82932 0.45044
 H2662 H 0.31252 0.79528 0.48808
 H2663 H 0.37491 0.83465 0.44332
 H2664 H 0.31269 0.76187 0.46537
 C2665 C 0.39935 0.31560 0.94290
 C2666 C 0.39160 0.29948 0.93999
 C2667 C 0.37722 0.29266 0.95070
 C2668 C 0.37326 0.27484 0.94986
 C2669 C 0.35937 0.26797 0.95908
 C2670 C 0.34895 0.27888 0.96919
 C2671 C 0.35312 0.29662 0.97035
 C2672 C 0.36700 0.30349 0.96114
 C2673 C 0.33341 0.27245 0.97819
 C2674 C 0.32448 0.25775 0.97260
 H2675 H 0.39646 0.29130 0.92952
 H2676 H 0.38093 0.26618 0.94200
 H2677 H 0.35691 0.25414 0.95822
 H2678 H 0.34532 0.30533 0.97802
 H2679 H 0.36930 0.31735 0.96189
 H2680 H 0.32773 0.28072 0.98811
 H2681 H 0.39545 0.32357 0.95392
 H2682 H 0.32927 0.25003 0.96178
 C2683 C 0.80110 0.47363 0.41189
 C2684 C 0.78824 0.46875 0.40035
 C2685 C 0.78527 0.47736 0.38300
 C2686 C 0.77029 0.47362 0.37393
 C2687 C 0.76776 0.47986 0.35669
 C2688 C 0.78032 0.48982 0.34809
 C2689 C 0.79500 0.49418 0.35738
 C2690 C 0.79756 0.48791 0.37461
 C2691 C 0.77858 0.49558 0.32943
 C2692 C 0.76910 0.48621 0.31718
 H2693 H 0.78070 0.45735 0.40357
 H2694 H 0.76062 0.46559 0.38009
 H2695 H 0.75600 0.47680 0.35017
 H2696 H 0.80480 0.50191 0.35104
 H2697 H 0.80946 0.49082 0.38089
 H2698 H 0.78567 0.50691 0.32500
 H2699 H 0.80812 0.48556 0.40961
 H2700 H 0.76279 0.47428 0.32122
 C2701 C 0.80656 0.93735 0.90627
 C2702 C 0.80879 0.95363 0.89822
 C2703 C 0.80017 0.95878 0.88150
 C2704 C 0.80681 0.97260 0.87136
 C2705 C 0.79928 0.97759 0.85533
 C2706 C 0.78487 0.96878 0.84906
 C2707 C 0.77790 0.95537 0.85953
 C2708 C 0.78539 0.95043 0.87556
 C2709 C 0.77668 0.97313 0.83186
 C2710 C 0.78441 0.98300 0.81846
 H2711 H 0.81768 0.96273 0.90399
 H2712 H 0.81798 0.97949 0.87577
 H2713 H 0.80480 0.98840 0.84810
 H2714 H 0.76664 0.94856 0.85523
 H2715 H 0.77939 0.94020 0.88327
 H2716 H 0.76435 0.96755 0.82930
 H2717 H 0.79844 0.92774 0.90021
 H2718 H 0.79697 0.98815 0.82033
 C2719 C 0.30124 0.80283 0.35011
 C2720 C 0.28926 0.81114 0.36058
 C2721 C 0.28349 0.80350 0.37774
 C2722 C 0.26735 0.80730 0.38427
 C2723 C 0.26159 0.79981 0.40024
 C2724 C 0.27202 0.78852 0.41004
 C2725 C 0.28824 0.78504 0.40365
 C2726 C 0.29398 0.79254 0.38782
 C2727 C 0.26661 0.77988 0.42680
 C2728 C 0.25371 0.78587 0.43776
 H2729 H 0.28376 0.82323 0.35597
 H2730 H 0.25907 0.81580 0.37684
 H2731 H 0.24892 0.80264 0.40460
 H2732 H 0.29660 0.77657 0.41102
 H2733 H 0.30675 0.78985 0.38369
 H2734 H 0.27404 0.76895 0.43137
 H2735 H 0.30575 0.79012 0.35410
 H2736 H 0.24674 0.79742 0.43415
 C2737 C 0.33330 0.32101 0.86297
 C2738 C 0.31617 0.31695 0.86270
 C2739 C 0.30842 0.30431 0.87534
 C2740 C 0.29097 0.30465 0.87821
 C2741 C 0.28335 0.29309 0.89029
 C2742 C 0.29312 0.28095 0.89980
 C2743 C 0.31043 0.28003 0.89625
 C2744 C 0.31801 0.29151 0.88414
 C2745 C 0.28600 0.26954 0.91396
 C2746 C 0.27137 0.27367 0.92325
 H2747 H 0.30824 0.32295 0.85271
 H2748 H 0.28322 0.31403 0.87124
 H2749 H 0.26986 0.29379 0.89207
 H2750 H 0.31821 0.27061 0.90312
 H2751 H 0.33135 0.29013 0.88169
 H2752 H 0.29367 0.25890 0.91883
 H2753 H 0.34128 0.31559 0.87319
 H2754 H 0.26406 0.28488 0.91931
 C2755 C 0.43715 0.31013 0.89139
 C2756 C 0.44983 0.31616 0.87991
 C2757 C 0.45628 0.30647 0.86423
 C2758 C 0.47032 0.31326 0.85508
 C2759 C 0.47694 0.30477 0.84025
 C2760 C 0.46968 0.28914 0.83417
 C2761 C 0.45550 0.28246 0.84316
 C2762 C 0.44886 0.29096 0.85799
 C2763 C 0.47591 0.28006 0.81805
 C2764 C 0.49182 0.28300 0.81055
 H2765 H 0.45562 0.32865 0.88272
 H2766 H 0.47620 0.32528 0.85936
 H2767 H 0.48746 0.31082 0.83343
 H2768 H 0.44946 0.27062 0.83861
 H2769 H 0.43784 0.28534 0.86427
 H2770 H 0.46747 0.27093 0.81164
 H2771 H 0.43126 0.29760 0.88929
 H2772 H 0.50071 0.29150 0.81712
 C2773 C 0.93831 0.28362 0.41368
 C2774 C 0.95284 0.28938 0.40489
 C2775 C 0.95728 0.28414 0.38658
 C2776 C 0.97421 0.28491 0.38125
 C2777 C 0.97895 0.28005 0.36411
 C2778 C 0.96674 0.27456 0.35178
 C2779 C 0.94979 0.27389 0.35710
 C2780 C 0.94506 0.27870 0.37427
 C2781 C 0.97112 0.26907 0.33351
 C2782 C 0.98643 0.27303 0.32515
 H2783 H 0.96179 0.29742 0.41202
 H2784 H 0.98386 0.28906 0.39048
 H2785 H 0.99220 0.28035 0.36079
 H2786 H 0.94012 0.26976 0.34789
 H2787 H 0.93182 0.27840 0.37768
 H2788 H 0.96162 0.26201 0.32610
 H2789 H 0.92980 0.27459 0.40727
 H2790 H 0.99581 0.28088 0.33180
 C2791 C 0.42333 0.37173 0.82399
 C2792 C 0.42515 0.36881 0.80587
 C2793 C 0.43915 0.35832 0.79881
 C2794 C 0.44679 0.36353 0.78282
 C2795 C 0.46092 0.35483 0.77640
 C2796 C 0.46744 0.34040 0.78567
 C2797 C 0.45962 0.33504 0.80155
 C2798 C 0.44563 0.34391 0.80810
 C2799 C 0.48184 0.33019 0.77894
 C2800 C 0.48619 0.32961 0.76100
 H2801 H 0.41817 0.37687 0.79662
 H2802 H 0.44212 0.37471 0.77553
 H2803 H 0.46674 0.35965 0.76434
 H2804 H 0.46423 0.32383 0.80883
 H2805 H 0.43988 0.33938 0.82034
 H2806 H 0.48729 0.32059 0.78783
 H2807 H 0.43131 0.36487 0.83331
 H2808 H 0.47990 0.33795 0.75152
 C2809 C 0.94989 0.40264 0.29554
 C2810 C 0.96558 0.39691 0.30129
 C2811 C 0.97436 0.38276 0.29202
 C2812 C 0.98359 0.37067 0.30197
 C2813 C 0.98993 0.35574 0.29394
 C2814 C 0.98733 0.35284 0.27570
 C2815 C 0.97902 0.36551 0.26558
 C2816 C 0.97268 0.38041 0.27361
 C2817 C 0.99148 0.33612 0.26720
 C2818 C 1.00217 0.32385 0.27478
 H2819 H 0.97050 0.40138 0.31389
 H2820 H 0.98509 0.37229 0.31616
 H2821 H 0.99602 0.34620 0.30231
 H2822 H 0.97698 0.36364 0.25150
 H2823 H 0.96611 0.38982 0.26546
 H2824 H 0.98499 0.33293 0.25499
 H2825 H 0.94436 0.39720 0.28367
 H2826 H 1.00977 0.32715 0.28619
 C2827 C 0.30592 0.90965 0.45244
 C2828 C 0.31010 0.89638 0.46434
 C2829 C 0.29879 0.88146 0.46865
 C2830 C 0.30585 0.86653 0.47636
 C2831 C 0.29580 0.85213 0.48065
 C2832 C 0.27831 0.85239 0.47755
 C2833 C 0.27122 0.86720 0.46966
 C2834 C 0.28130 0.88169 0.46539
 C2835 C 0.26748 0.83720 0.48213
 C2836 C 0.27144 0.82625 0.49632
 H2837 H 0.32261 0.89641 0.47008
 H2838 H 0.31927 0.86592 0.47889
 H2839 H 0.30184 0.84069 0.48612
 H2840 H 0.25781 0.86768 0.46708
 H2841 H 0.27522 0.89303 0.45984
 H2842 H 0.25640 0.83457 0.47420
 H2843 H 0.29386 0.90947 0.44580
 H2844 H 0.28193 0.82966 0.50482
 C2845 C 0.28389 0.41346 0.96323
 C2846 C 0.29201 0.40100 0.97363
 C2847 C 0.28618 0.38269 0.97487
 C2848 C 0.29120 0.37247 0.98940
 C2849 C 0.28626 0.35500 0.99075
 C2850 C 0.27637 0.34735 0.97737
 C2851 C 0.27134 0.35759 0.96287
 C2852 C 0.27628 0.37502 0.96152
 C2853 C 0.27083 0.32893 0.97813
 C2854 C 0.27881 0.31623 0.98836
 H2855 H 0.30309 0.40475 0.98109
 H2856 H 0.29886 0.37806 0.99982
 H2857 H 0.29004 0.34771 1.00239
 H2858 H 0.26376 0.35200 0.95238
 H2859 H 0.27261 0.38223 0.94979
 H2860 H 0.26040 0.32509 0.96973
 H2861 H 0.27221 0.41024 0.95659
 H2862 H 0.28980 0.31950 0.99615
 C2863 C 0.80650 0.35272 0.30410
 C2864 C 0.81431 0.36686 0.29565
 C2865 C 0.80491 0.38282 0.29033
 C2866 C 0.81164 0.39386 0.27715
 C2867 C 0.80319 0.40905 0.27199
 C2868 C 0.78773 0.41359 0.27994
 C2869 C 0.78126 0.40279 0.29345
 C2870 C 0.78969 0.38762 0.29860
 C2871 C 0.77852 0.42981 0.27516
 C2872 C 0.78098 0.43869 0.25911
 H2873 H 0.82768 0.36623 0.29280
 H2874 H 0.82350 0.39073 0.27082
 H2875 H 0.80907 0.41733 0.26206
 H2876 H 0.76961 0.40614 0.30009
 H2877 H 0.78437 0.37997 0.30935
 H2878 H 0.76962 0.43499 0.28465
 H2879 H 0.79301 0.35290 0.30613
 H2880 H 0.78934 0.43331 0.24925
   
