data_POSCAR
  _audit_creation_date              2014-09-24
  _audit_creation_method            'ToBaCCo'
  _symmetry_space_group_name_H-M    'P1'
  _symmetry_Int_Tables_number       1
  _symmetry_cell_setting            triclinic
  loop_
  _symmetry_equiv_pos_as_xyz
 x,y,z
_cell_length_a 77.1313
_cell_length_b 77.5319
_cell_length_c 77.1913
_cell_angle_alpha 90.588000
_cell_angle_beta 89.928700
_cell_angle_gamma 89.966900
loop_
  _atom_site_label
  _atom_site_type_symbol
  _atom_site_fract_x
  _atom_site_fract_y
  _atom_site_fract_z
C1 C 0.35666 0.33081 0.34565
 C2 C 0.34302 0.33044 0.35769
 C3 C 0.33031 0.34298 0.35732
 C4 C 0.33106 0.35611 0.34499
 C5 C 0.34454 0.35656 0.33321
 C6 C 0.35744 0.34379 0.33353
 C7 C 0.37039 0.31990 0.34248
 N8 N 0.37954 0.32589 0.32870
 C9 C 0.37167 0.34058 0.32323
 C10 C 0.34173 0.37049 0.32266
 N11 N 0.32682 0.37852 0.32773
 C12 C 0.32026 0.36972 0.34142
 C13 C 0.31865 0.33934 0.37025
 N14 N 0.32398 0.32491 0.37862
 C15 C 0.33891 0.31939 0.37092
 H16 H 0.37309 0.30812 0.34938
 H17 H 0.37587 0.34840 0.31249
 H18 H 0.35002 0.37448 0.31213
 H19 H 0.30825 0.37267 0.34808
 H20 H 0.30700 0.34660 0.37313
 H21 H 0.34646 0.30832 0.37478
 C22 C 0.35786 0.83099 -0.15573
 C23 C 0.34495 0.83100 -0.14293
 C24 C 0.33202 0.84330 -0.14318
 C25 C 0.33186 0.85580 -0.15615
 C26 C 0.34453 0.85581 -0.16875
 C27 C 0.35767 0.84324 -0.16857
 C28 C 0.37162 0.82021 -0.15901
 N29 N 0.38001 0.82543 -0.17366
 C30 C 0.37138 0.83965 -0.17947
 C31 C 0.34082 0.86919 -0.17975
 N32 N 0.32613 0.87746 -0.17416
 C33 C 0.32070 0.86911 -0.15963
 C34 C 0.32102 0.83995 -0.12960
 N35 N 0.32695 0.82589 -0.12100
 C36 C 0.34164 0.82037 -0.12914
 H37 H 0.37469 0.80906 -0.15133
 H38 H 0.37455 0.84709 -0.19080
 H39 H 0.34856 0.87249 -0.19091
 H40 H 0.30927 0.87199 -0.15204
 H41 H 0.30931 0.84704 -0.12654
 H42 H 0.34947 0.80947 -0.12533
 C43 C 0.85562 0.33303 -0.15812
 C44 C 0.84271 0.33291 -0.14528
 C45 C 0.82953 0.34497 -0.14564
 C46 C 0.82910 0.35735 -0.15874
 C47 C 0.84177 0.35748 -0.17131
 C48 C 0.85515 0.34520 -0.17100
 C49 C 0.86961 0.32251 -0.16141
 N50 N 0.87784 0.32786 -0.17611
 C51 C 0.86888 0.34188 -0.18191
 C52 C 0.83786 0.37066 -0.18245
 N53 N 0.82302 0.37873 -0.17700
 C54 C 0.81770 0.37043 -0.16238
 C55 C 0.81861 0.34153 -0.13203
 N56 N 0.82480 0.32767 -0.12331
 C57 C 0.83959 0.32235 -0.13139
 H58 H 0.87318 0.31168 -0.15347
 H59 H 0.87160 0.34915 -0.19345
 H60 H 0.84559 0.37396 -0.19361
 H61 H 0.80622 0.37323 -0.15485
 H62 H 0.80675 0.34841 -0.12905
 H63 H 0.84762 0.31162 -0.12749
 C64 C 0.85733 0.83260 0.34092
 C65 C 0.84487 0.83263 0.35420
 C66 C 0.83192 0.84494 0.35436
 C67 C 0.83125 0.85739 0.34135
 C68 C 0.84347 0.85737 0.32835
 C69 C 0.85663 0.84485 0.32812
 C70 C 0.87104 0.82187 0.33709
 N71 N 0.87886 0.82718 0.32215
 C72 C 0.86993 0.84138 0.31674
 C73 C 0.83937 0.87067 0.31742
 N74 N 0.82485 0.87894 0.32342
 C75 C 0.81993 0.87065 0.33818
 C76 C 0.82140 0.84165 0.36831
 N77 N 0.82761 0.82762 0.37675
 C78 C 0.84201 0.82204 0.36814
 H79 H 0.87467 0.81092 0.34482
 H80 H 0.87242 0.84873 0.30519
 H81 H 0.84671 0.87384 0.30596
 H82 H 0.80880 0.87362 0.34617
 H83 H 0.80978 0.84873 0.37172
 H84 H 0.84993 0.81112 0.37172
 C85 C 0.64108 0.66788 0.34671
 C86 C 0.65375 0.66772 0.35970
 C87 C 0.66554 0.65435 0.36045
 C88 C 0.66487 0.64095 0.34811
 C89 C 0.65240 0.64114 0.33526
 C90 C 0.64037 0.65469 0.33459
 C91 C 0.62819 0.67940 0.34278
 N92 N 0.61950 0.67354 0.32858
 C93 C 0.62695 0.65840 0.32346
 C94 C 0.65539 0.62709 0.32465
 N95 N 0.66939 0.61832 0.33071
 C96 C 0.67519 0.62674 0.34514
 C97 C 0.67656 0.65789 0.37405
 N98 N 0.67174 0.67312 0.38156
 C99 C 0.65776 0.67917 0.37277
 H100 H 0.62560 0.69137 0.34965
 H101 H 0.62285 0.65049 0.31259
 H102 H 0.64826 0.62393 0.31299
 H103 H 0.68620 0.62298 0.35290
 H104 H 0.68728 0.64989 0.37812
 H105 H 0.65123 0.69129 0.37532
 C106 C 0.63949 0.16769 -0.15488
 C107 C 0.65245 0.16780 -0.14211
 C108 C 0.66517 0.15522 -0.14231
 C109 C 0.66511 0.14233 -0.15519
 C110 C 0.65235 0.14222 -0.16762
 C111 C 0.63947 0.15497 -0.16748
 C112 C 0.62591 0.17863 -0.15847
 N113 N 0.61753 0.17289 -0.17304
 C114 C 0.62595 0.15829 -0.17846
 C115 C 0.65568 0.12862 -0.17866
 N116 N 0.67030 0.12023 -0.17335
 C117 C 0.67605 0.12876 -0.15886
 C118 C 0.67633 0.15883 -0.12890
 N119 N 0.67073 0.17327 -0.12042
 C120 C 0.65608 0.17881 -0.12848
 H121 H 0.62262 0.18991 -0.15083
 H122 H 0.62311 0.15073 -0.18993
 H123 H 0.64797 0.12556 -0.18994
 H124 H 0.68734 0.12559 -0.15126
 H125 H 0.68796 0.15166 -0.12591
 H126 H 0.64851 0.19001 -0.12476
 C127 C 0.14194 0.66771 -0.15327
 C128 C 0.15462 0.66717 -0.14032
 C129 C 0.16684 0.65413 -0.14036
 C130 C 0.16654 0.64145 -0.15348
 C131 C 0.15402 0.64202 -0.16621
 C132 C 0.14163 0.65528 -0.16612
 C133 C 0.12881 0.67915 -0.15664
 N134 N 0.12032 0.67409 -0.17136
 C135 C 0.12829 0.65936 -0.17715
 C136 C 0.15722 0.62861 -0.17753
 N137 N 0.17152 0.61973 -0.17216
 C138 C 0.17718 0.62768 -0.15731
 C139 C 0.17779 0.65725 -0.12658
 N140 N 0.17250 0.67188 -0.11820
 C141 C 0.15832 0.67798 -0.12662
 H142 H 0.12619 0.69055 -0.14892
 H143 H 0.12483 0.65185 -0.18849
 H144 H 0.14981 0.62615 -0.18915
 H145 H 0.18823 0.62399 -0.14961
 H146 H 0.18878 0.64938 -0.12299
 H147 H 0.15143 0.68975 -0.12341
 C148 C 0.13862 0.16768 0.34519
 C149 C 0.15128 0.16757 0.35825
 C150 C 0.16406 0.15504 0.35808
 C151 C 0.16434 0.14242 0.34492
 C152 C 0.15184 0.14251 0.33222
 C153 C 0.13893 0.15523 0.33233
 C154 C 0.12511 0.17867 0.34150
 N155 N 0.11709 0.17324 0.32662
 C156 C 0.12566 0.15876 0.32110
 C157 C 0.15548 0.12917 0.32097
 N158 N 0.17003 0.12075 0.32641
 C159 C 0.17544 0.12898 0.34119
 C160 C 0.17491 0.15843 0.37180
 N161 N 0.16907 0.17270 0.38041
 C162 C 0.15458 0.17835 0.37214
 H163 H 0.12166 0.18980 0.34930
 H164 H 0.12311 0.15142 0.30942
 H165 H 0.14811 0.12637 0.30939
 H166 H 0.18654 0.12562 0.34897
 H167 H 0.18651 0.15126 0.37491
 H168 H 0.14691 0.18946 0.37590
 C169 C 0.64046 0.33143 0.65341
 C170 C 0.65370 0.33073 0.64098
 C171 C 0.66602 0.34362 0.64041
 C172 C 0.66530 0.35738 0.65232
 C173 C 0.65223 0.35810 0.66457
 C174 C 0.63967 0.34502 0.66510
 C175 C 0.62709 0.32041 0.65723
 N176 N 0.61810 0.32693 0.67098
 C177 C 0.62577 0.34202 0.67588
 C178 C 0.65522 0.37243 0.67480
 N179 N 0.66987 0.38040 0.66914
 C180 C 0.67605 0.37121 0.65534
 C181 C 0.67738 0.33945 0.62726
 N182 N 0.67228 0.32429 0.61981
 C183 C 0.65779 0.31889 0.62823
 H184 H 0.62445 0.30828 0.65071
 H185 H 0.62158 0.35029 0.68645
 H186 H 0.64731 0.37660 0.68565
 H187 H 0.68789 0.37394 0.64835
 H188 H 0.68843 0.34707 0.62334
 H189 H 0.65084 0.30704 0.62558
 C190 C 0.64156 0.83321 1.15319
 C191 C 0.65434 0.83339 1.14025
 C192 C 0.66687 0.84611 1.14034
 C193 C 0.66675 0.85888 1.15334
 C194 C 0.65418 0.85866 1.16609
 C195 C 0.64151 0.84568 1.16602
 C196 C 0.62828 0.82198 1.15673
 N197 N 0.61996 0.82722 1.17153
 C198 C 0.62817 0.84187 1.17716
 C199 C 0.65762 0.87212 1.17730
 N200 N 0.67195 0.88062 1.17165
 C201 C 0.67758 0.87254 1.15695
 C202 C 0.67804 0.84255 1.12687
 N203 N 0.67261 0.82797 1.11852
 C204 C 0.65803 0.82237 1.12667
 H205 H 0.62547 0.81057 1.14910
 H206 H 0.62499 0.84943 1.18855
 H207 H 0.65042 0.87515 1.18898
 H208 H 0.68870 0.87627 1.14931
 H209 H 0.68964 0.84977 1.12383
 H210 H 0.65060 0.81104 1.12313
 C211 C 0.14111 0.33597 1.15415
 C212 C 0.15356 0.33612 1.14087
 C213 C 0.16643 0.34852 1.14094
 C214 C 0.16704 0.36096 1.15424
 C215 C 0.15479 0.36077 1.16728
 C216 C 0.14175 0.34820 1.16721
 C217 C 0.12752 0.32511 1.15784
 N218 N 0.11974 0.33040 1.17292
 C219 C 0.12858 0.34464 1.17859
 C220 C 0.15881 0.37389 1.17868
 N221 N 0.17321 0.38216 1.17288
 C222 C 0.17831 0.37426 1.15788
 C223 C 0.17712 0.34507 1.12707
 N224 N 0.17109 0.33088 1.11849
 C225 C 0.15661 0.32538 1.12689
 H226 H 0.12382 0.31420 1.14986
 H227 H 0.12621 0.35185 1.19040
 H228 H 0.15194 0.37685 1.19057
 H229 H 0.18934 0.37791 1.15007
 H230 H 0.18881 0.35208 1.12391
 H231 H 0.14884 0.31431 1.12324
 C232 C 0.13864 0.83557 0.65369
 C233 C 0.15064 0.83570 0.64001
 C234 C 0.16379 0.84778 0.63996
 C235 C 0.16513 0.85990 0.65348
 C236 C 0.15338 0.85979 0.66691
 C237 C 0.14002 0.84750 0.66706
 C238 C 0.12497 0.82489 0.65758
 N239 N 0.11803 0.82996 0.67304
 C240 C 0.12722 0.84383 0.67887
 C241 C 0.15818 0.87264 0.67835
 N242 N 0.17269 0.88072 0.67224
 C243 C 0.17688 0.87276 0.65692
 C244 C 0.17404 0.84436 0.62578
 N245 N 0.16749 0.83046 0.61712
 C246 C 0.15311 0.82512 0.62578
 H247 H 0.12051 0.81419 0.64967
 H248 H 0.12518 0.85047 0.69110
 H249 H 0.15151 0.87545 0.69036
 H250 H 0.18764 0.87585 0.64855
 H251 H 0.18584 0.85113 0.62247
 H252 H 0.14507 0.81423 0.62217
 C253 C 0.35385 0.67061 0.65409
 C254 C 0.34026 0.67116 0.64202
 C255 C 0.32735 0.65884 0.64245
 C256 C 0.32783 0.64577 0.65485
 C257 C 0.34125 0.64514 0.66665
 C258 C 0.35436 0.65768 0.66627
 C259 C 0.36777 0.68127 0.65721
 N260 N 0.37678 0.67517 0.67101
 C261 C 0.36862 0.66065 0.67655
 C262 C 0.33818 0.63129 0.67724
 N263 N 0.32318 0.62349 0.67218
 C264 C 0.31681 0.63235 0.65845
 C265 C 0.31585 0.66256 0.62943
 N266 N 0.32148 0.67680 0.62094
 C267 C 0.33643 0.68216 0.62866
 H268 H 0.37072 0.69295 0.65025
 H269 H 0.37265 0.65277 0.68730
 H270 H 0.34638 0.62721 0.68779
 H271 H 0.30480 0.62956 0.65177
 H272 H 0.30412 0.65544 0.62655
 H273 H 0.34419 0.69305 0.62471
 C274 C 0.35536 0.17005 1.15703
 C275 C 0.34221 0.17048 1.14450
 C276 C 0.32927 0.15819 1.14464
 C277 C 0.32930 0.14529 1.15722
 C278 C 0.34221 0.14482 1.16952
 C279 C 0.35539 0.15731 1.16944
 C280 C 0.36929 0.18063 1.16037
 N281 N 0.37788 0.17465 1.17449
 C282 C 0.36940 0.16033 1.18006
 C283 C 0.33865 0.13113 1.18019
 N284 N 0.32381 0.12313 1.17468
 C285 C 0.31816 0.13193 1.16052
 C286 C 0.31816 0.16182 1.13127
 N287 N 0.32402 0.17600 1.12285
 C288 C 0.33877 0.18138 1.13094
 H289 H 0.37258 0.19212 1.15325
 H290 H 0.37310 0.15257 1.19103
 H291 H 0.34660 0.12743 1.19104
 H292 H 0.30653 0.12935 1.15316
 H293 H 0.30646 0.15474 1.12816
 H294 H 0.34663 0.19228 1.12718
 C295 C 0.85588 0.66429 1.15568
 C296 C 0.84289 0.66468 1.14299
 C297 C 0.82929 0.65313 1.14366
 C298 C 0.82852 0.64095 1.15694
 C299 C 0.84133 0.64052 1.16941
 C300 C 0.85509 0.65235 1.16883
 C301 C 0.87017 0.67446 1.15871
 N302 N 0.87806 0.66914 1.17349
 C303 C 0.86888 0.65554 1.17969
 C304 C 0.83716 0.62749 1.18066
 N305 N 0.82210 0.61997 1.17533
 C306 C 0.81675 0.62826 1.16083
 C307 C 0.81840 0.65680 1.13010
 N308 N 0.82502 0.67032 1.12115
 C309 C 0.84005 0.67519 1.12901
 H310 H 0.87434 0.68504 1.15069
 H311 H 0.87156 0.64880 1.19160
 H312 H 0.84478 0.62365 1.19173
 H313 H 0.80501 0.62550 1.15367
 H314 H 0.80628 0.65033 1.12731
 H315 H 0.84841 0.68557 1.12489
 C316 C 0.85787 0.16500 0.65896
 C317 C 0.84496 0.16525 0.64614
 C318 C 0.83191 0.15306 0.64629
 C319 C 0.83159 0.14043 0.65913
 C320 C 0.84433 0.14012 0.67167
 C321 C 0.85755 0.15255 0.67159
 C322 C 0.87172 0.17563 0.66249
 N323 N 0.87997 0.17008 0.67709
 C324 C 0.87119 0.15581 0.68257
 C325 C 0.84058 0.12662 0.68251
 N326 N 0.82584 0.11872 0.67685
 C327 C 0.82029 0.12719 0.66253
 C328 C 0.82102 0.15655 0.63270
 N329 N 0.82712 0.17056 0.62415
 C330 C 0.84180 0.17596 0.63237
 H331 H 0.87511 0.18671 0.65484
 H332 H 0.87399 0.14830 0.69393
 H333 H 0.84818 0.12280 0.69360
 H334 H 0.80867 0.12423 0.65526
 H335 H 0.80930 0.14954 0.62955
 H336 H 0.84974 0.18678 0.62858
 C337 C 0.33371 0.36024 0.65284
 C338 C 0.33325 0.34713 0.64018
 C339 C 0.34511 0.33379 0.64074
 C340 C 0.35764 0.33339 0.65386
 C341 C 0.35814 0.34630 0.66630
 C342 C 0.34604 0.35981 0.66582
 C343 C 0.32331 0.37433 0.65604
 N344 N 0.32891 0.38244 0.67072
 C345 C 0.34288 0.37360 0.67672
 C346 C 0.37145 0.34243 0.67748
 N347 N 0.37905 0.32744 0.67213
 C348 C 0.37056 0.32184 0.65769
 C349 C 0.34129 0.32264 0.62733
 N350 N 0.32737 0.32884 0.61855
 C351 C 0.32239 0.34386 0.62639
 H352 H 0.31237 0.37823 0.64825
 H353 H 0.34988 0.37651 0.68852
 H354 H 0.37537 0.35014 0.68855
 H355 H 0.37331 0.31005 0.65058
 H356 H 0.34791 0.31062 0.62454
 H357 H 0.31167 0.35190 0.62240
 C358 C 0.33468 0.86049 0.15457
 C359 C 0.33487 0.84747 0.14182
 C360 C 0.34755 0.83489 0.14208
 C361 C 0.36023 0.83514 0.15507
 C362 C 0.36005 0.84796 0.16763
 C363 C 0.34718 0.86074 0.16737
 C364 C 0.32353 0.87397 0.15792
 N365 N 0.32896 0.88250 0.17242
 C366 C 0.34348 0.87443 0.17824
 C367 C 0.37339 0.84459 0.17890
 N368 N 0.38177 0.83005 0.17348
 C369 C 0.37375 0.82424 0.15884
 C370 C 0.34417 0.82360 0.12866
 N371 N 0.32974 0.82901 0.12014
 C372 C 0.32403 0.84368 0.12816
 H373 H 0.31201 0.87696 0.15055
 H374 H 0.35092 0.87818 0.18954
 H375 H 0.37639 0.85197 0.19049
 H376 H 0.37741 0.81292 0.15139
 H377 H 0.35144 0.81200 0.12570
 H378 H 0.31281 0.85113 0.12442
 C379 C 0.83263 0.35977 0.15391
 C380 C 0.83306 0.34729 0.14065
 C381 C 0.84635 0.33536 0.13996
 C382 C 0.85938 0.33567 0.15264
 C383 C 0.85891 0.34795 0.16574
 C384 C 0.84547 0.36013 0.16635
 C385 C 0.82113 0.37276 0.15789
 N386 N 0.82668 0.38115 0.17242
 C387 C 0.84160 0.37342 0.17768
 C388 C 0.87259 0.34469 0.17662
 N389 N 0.88143 0.33071 0.17050
 C390 C 0.87342 0.32518 0.15575
 C391 C 0.84314 0.32461 0.12600
 N392 N 0.82819 0.32974 0.11822
 C393 C 0.82199 0.34363 0.12719
 H394 H 0.80939 0.37562 0.15082
 H395 H 0.84927 0.37723 0.18879
 H396 H 0.87541 0.35165 0.18851
 H397 H 0.87733 0.31425 0.14785
 H398 H 0.85117 0.31389 0.12188
 H399 H 0.81002 0.35037 0.12448
 C400 C 0.83433 0.85907 0.65561
 C401 C 0.83489 0.84667 0.64224
 C402 C 0.84732 0.83382 0.64245
 C403 C 0.85943 0.83321 0.65597
 C404 C 0.85883 0.84538 0.66914
 C405 C 0.84619 0.85837 0.66897
 C406 C 0.82338 0.87269 0.65911
 N407 N 0.82830 0.88028 0.67432
 C408 C 0.84228 0.87152 0.68038
 C409 C 0.87181 0.84151 0.68062
 N410 N 0.88044 0.82729 0.67474
 C411 C 0.87286 0.82213 0.65964
 C412 C 0.84426 0.82317 0.62844
 N413 N 0.83024 0.82920 0.61966
 C414 C 0.82452 0.84365 0.62805
 H415 H 0.81265 0.87674 0.65111
 H416 H 0.84888 0.87414 0.69248
 H417 H 0.87453 0.84843 0.69255
 H418 H 0.87689 0.81125 0.65172
 H419 H 0.85136 0.81151 0.62532
 H420 H 0.81352 0.85141 0.62427
 C421 C 0.66996 0.64356 0.65217
 C422 C 0.66991 0.65660 0.63970
 C423 C 0.65704 0.66899 0.63993
 C424 C 0.64400 0.66853 0.65260
 C425 C 0.64404 0.65569 0.66487
 C426 C 0.65712 0.64310 0.66464
 C427 C 0.68115 0.63017 0.65543
 N428 N 0.67542 0.62149 0.66957
 C429 C 0.66065 0.62938 0.67522
 C430 C 0.63027 0.65876 0.67581
 N431 N 0.62175 0.67314 0.67047
 C432 C 0.63013 0.67914 0.65621
 C433 C 0.66054 0.68025 0.62673
 N434 N 0.67520 0.67498 0.61838
 C435 C 0.68096 0.66045 0.62629
 H436 H 0.69288 0.62731 0.64824
 H437 H 0.65291 0.62546 0.68620
 H438 H 0.62703 0.65126 0.68710
 H439 H 0.62645 0.69039 0.64889
 H440 H 0.65311 0.69169 0.62378
 H441 H 0.69232 0.65309 0.62259
 C442 C 0.67095 0.14496 0.15522
 C443 C 0.67049 0.15751 0.14229
 C444 C 0.65712 0.16937 0.14190
 C445 C 0.64405 0.16891 0.15456
 C446 C 0.64455 0.15655 0.16733
 C447 C 0.65807 0.14445 0.16763
 C448 C 0.68244 0.13190 0.15878
 N449 N 0.67682 0.12334 0.17303
 C450 C 0.66189 0.13103 0.17851
 C451 C 0.63069 0.15955 0.17817
 N452 N 0.62172 0.17345 0.17235
 C453 C 0.62983 0.17919 0.15783
 C454 C 0.66021 0.18008 0.12810
 N455 N 0.67514 0.17500 0.12011
 C456 C 0.68147 0.16119 0.12880
 H457 H 0.69416 0.12907 0.15159
 H458 H 0.65413 0.12705 0.18945
 H459 H 0.62778 0.15244 0.18980
 H460 H 0.62581 0.19010 0.15018
 H461 H 0.65205 0.19069 0.12417
 H462 H 0.69342 0.15446 0.12585
 C463 C 0.17105 0.64122 0.15512
 C464 C 0.17118 0.65466 0.14309
 C465 C 0.15847 0.66721 0.14372
 C466 C 0.14539 0.66649 0.15633
 C467 C 0.14517 0.65317 0.16808
 C468 C 0.15812 0.64046 0.16749
 C469 C 0.18230 0.62783 0.15822
 N470 N 0.17655 0.61892 0.17221
 C471 C 0.16167 0.62659 0.17786
 C472 C 0.13139 0.65603 0.17906
 N473 N 0.12320 0.67081 0.17434
 C474 C 0.13175 0.67725 0.16039
 C475 C 0.16203 0.67876 0.13080
 N476 N 0.17656 0.67351 0.12220
 C477 C 0.18223 0.65874 0.12973
 H478 H 0.19418 0.62525 0.15119
 H479 H 0.15398 0.62255 0.18882
 H480 H 0.12767 0.64787 0.18973
 H481 H 0.12869 0.68918 0.15392
 H482 H 0.15466 0.69030 0.12811
 H483 H 0.19342 0.65129 0.12571
 C484 C 0.17014 0.14187 0.65691
 C485 C 0.17013 0.15534 0.64490
 C486 C 0.15749 0.16796 0.64580
 C487 C 0.14464 0.16728 0.65865
 C488 C 0.14456 0.15393 0.67036
 C489 C 0.15742 0.14115 0.66950
 C490 C 0.18133 0.12835 0.65975
 N491 N 0.17574 0.11941 0.67378
 C492 C 0.16102 0.12718 0.67971
 C493 C 0.13097 0.15682 0.68158
 N494 N 0.12278 0.17166 0.67703
 C495 C 0.13113 0.17809 0.66296
 C496 C 0.16080 0.17949 0.63281
 N497 N 0.17510 0.17417 0.62388
 C498 C 0.18088 0.15939 0.63129
 H499 H 0.19304 0.12569 0.65247
 H500 H 0.15344 0.12314 0.69075
 H501 H 0.12739 0.14864 0.69227
 H502 H 0.12801 0.19005 0.65656
 H503 H 0.15340 0.19105 0.63026
 H504 H 0.19194 0.15189 0.62700
 C505 C 0.33633 0.64160 0.34738
 C506 C 0.33566 0.65437 0.36035
 C507 C 0.34783 0.66742 0.36068
 C508 C 0.36086 0.66791 0.34799
 C509 C 0.36152 0.65533 0.33521
 C510 C 0.34915 0.64207 0.33489
 C511 C 0.32572 0.62787 0.34344
 N512 N 0.33168 0.62001 0.32874
 C513 C 0.34606 0.62868 0.32348
 C514 C 0.37495 0.65945 0.32429
 N515 N 0.38245 0.67434 0.33002
 C516 C 0.37384 0.67956 0.34456
 C517 C 0.34355 0.67835 0.37416
 N518 N 0.32896 0.67235 0.38201
 C519 C 0.32410 0.65764 0.37356
 H520 H 0.31444 0.62403 0.35078
 H521 H 0.35345 0.62590 0.31185
 H522 H 0.37886 0.65208 0.31297
 H523 H 0.37638 0.69128 0.35185
 H524 H 0.35059 0.68988 0.37785
 H525 H 0.31264 0.65012 0.37634
 C526 C 0.33439 0.14020 0.84735
 C527 C 0.33456 0.15299 0.86036
 C528 C 0.34679 0.16601 0.85990
 C529 C 0.35904 0.16644 0.84647
 C530 C 0.35881 0.15390 0.83366
 C531 C 0.34642 0.14071 0.83410
 C532 C 0.32375 0.12626 0.84413
 N533 N 0.32907 0.11831 0.82923
 C534 C 0.34294 0.12716 0.82305
 C535 C 0.37182 0.15770 0.82215
 N536 N 0.38009 0.17224 0.82766
 C537 C 0.37227 0.17767 0.84258
 C538 C 0.34343 0.17699 0.87358
 N539 N 0.32942 0.17102 0.88241
 C540 C 0.32398 0.15627 0.87439
 H541 H 0.31298 0.12224 0.85211
 H542 H 0.34978 0.12430 0.81112
 H543 H 0.37476 0.15051 0.81042
 H544 H 0.37598 0.18884 0.85021
 H545 H 0.35032 0.18882 0.87643
 H546 H 0.31304 0.14849 0.87832
 C547 C 0.83351 0.63962 0.84366
 C548 C 0.83384 0.65173 0.85728
 C549 C 0.84677 0.66405 0.85799
 C550 C 0.85952 0.66451 0.84502
 C551 C 0.85910 0.65266 0.83154
 C552 C 0.84603 0.64012 0.83087
 C553 C 0.82239 0.62634 0.83953
 N554 N 0.82783 0.61873 0.82451
 C555 C 0.84230 0.62719 0.81914
 C556 C 0.87254 0.65656 0.82055
 N557 N 0.88119 0.67050 0.82699
 C558 C 0.87325 0.67542 0.84201
 C559 C 0.84341 0.67448 0.87211
 N560 N 0.82866 0.66891 0.87998
 C561 C 0.82280 0.65492 0.87094
 H562 H 0.81127 0.62245 0.84709
 H563 H 0.84947 0.62442 0.80738
 H564 H 0.87543 0.64997 0.80846
 H565 H 0.87710 0.68613 0.85023
 H566 H 0.85114 0.68542 0.87619
 H567 H 0.81097 0.64793 0.87361
 C568 C 0.83708 0.13944 0.34570
 C569 C 0.83753 0.15193 0.35899
 C570 C 0.84963 0.16506 0.35848
 C571 C 0.86150 0.16587 0.34473
 C572 C 0.86099 0.15361 0.33164
 C573 C 0.84870 0.14033 0.33212
 C574 C 0.82633 0.12562 0.34242
 N575 N 0.83114 0.11810 0.32714
 C576 C 0.84485 0.12709 0.32080
 C577 C 0.87359 0.15783 0.31981
 N578 N 0.88188 0.17233 0.32541
 C579 C 0.87447 0.17732 0.34068
 C580 C 0.84643 0.17579 0.37241
 N581 N 0.83265 0.16955 0.38141
 C582 C 0.82722 0.15486 0.37326
 H583 H 0.81577 0.12143 0.35060
 H584 H 0.85127 0.12458 0.30856
 H585 H 0.87622 0.15095 0.30783
 H586 H 0.87830 0.18837 0.34846
 H587 H 0.85323 0.18768 0.37528
 H588 H 0.81642 0.14692 0.37723
 C589 C 0.67193 0.35240 0.34549
 C590 C 0.67194 0.33974 0.35833
 C591 C 0.65876 0.32768 0.35894
 C592 C 0.64541 0.32806 0.34659
 C593 C 0.64545 0.34054 0.33392
 C594 C 0.65878 0.35283 0.33341
 C595 C 0.68309 0.36570 0.34181
 N596 N 0.67701 0.37432 0.32780
 C597 C 0.66210 0.36644 0.32259
 C598 C 0.63138 0.33752 0.32343
 N599 N 0.62269 0.32349 0.32935
 C600 C 0.63122 0.31767 0.34358
 C601 C 0.66228 0.31696 0.37261
 N602 N 0.67728 0.32221 0.38032
 C603 C 0.68322 0.33616 0.37157
 H604 H 0.69490 0.36867 0.34877
 H605 H 0.65402 0.37042 0.31190
 H606 H 0.62810 0.34474 0.31197
 H607 H 0.62748 0.30667 0.35124
 H608 H 0.65435 0.30623 0.37668
 H609 H 0.69511 0.34305 0.37433
 C610 C 0.66809 0.85518 0.84561
 C611 C 0.66856 0.84207 0.85801
 C612 C 0.65664 0.82878 0.85723
 C613 C 0.64405 0.82842 0.84416
 C614 C 0.64354 0.84134 0.83200
 C615 C 0.65568 0.85479 0.83270
 C616 C 0.67837 0.86938 0.84276
 N617 N 0.67260 0.87759 0.82836
 C618 C 0.65867 0.86869 0.82220
 C619 C 0.63004 0.83763 0.82092
 N620 N 0.62233 0.82273 0.82605
 C621 C 0.63095 0.81703 0.84026
 C622 C 0.66031 0.81775 0.87054
 N623 N 0.67418 0.82397 0.87951
 C624 C 0.67930 0.83887 0.87186
 H625 H 0.68929 0.87333 0.85064
 H626 H 0.65151 0.87168 0.81056
 H627 H 0.62603 0.84544 0.81010
 H628 H 0.62813 0.80531 0.84720
 H629 H 0.65355 0.80585 0.87321
 H630 H 0.68997 0.84693 0.87608
 C631 C 0.17098 0.35724 0.84272
 C632 C 0.17066 0.34481 0.85577
 C633 C 0.15738 0.33290 0.85638
 C634 C 0.14425 0.33317 0.84380
 C635 C 0.14461 0.34537 0.83087
 C636 C 0.15805 0.35756 0.83037
 C637 C 0.18235 0.37034 0.83902
 N638 N 0.17662 0.37878 0.82475
 C639 C 0.16174 0.37095 0.81938
 C640 C 0.13075 0.34211 0.82014
 N641 N 0.12190 0.32822 0.82619
 C642 C 0.13011 0.32277 0.84076
 C643 C 0.16063 0.32230 0.87021
 N644 N 0.17560 0.32747 0.87801
 C645 C 0.18177 0.34127 0.86917
 H646 H 0.19406 0.37329 0.84614
 H647 H 0.15392 0.37482 0.80846
 H648 H 0.12776 0.34906 0.80843
 H649 H 0.12624 0.31197 0.84863
 H650 H 0.15257 0.31166 0.87427
 H651 H 0.19372 0.34805 0.87195
 C652 C 0.16701 0.85859 0.34242
 C653 C 0.16713 0.84512 0.35443
 C654 C 0.15464 0.83237 0.35353
 C655 C 0.14182 0.83292 0.34070
 C656 C 0.14161 0.84625 0.32897
 C657 C 0.15432 0.85916 0.32982
 C658 C 0.17805 0.87220 0.33956
 N659 N 0.17241 0.88106 0.32551
 C660 C 0.15780 0.87314 0.31957
 C661 C 0.12810 0.84317 0.31773
 N662 N 0.12009 0.82825 0.32231
 C663 C 0.12847 0.82194 0.33640
 C664 C 0.15809 0.82085 0.36649
 N665 N 0.17233 0.82629 0.37538
 C666 C 0.17794 0.84115 0.36799
 H667 H 0.18972 0.87498 0.34684
 H668 H 0.15023 0.87710 0.30851
 H669 H 0.12445 0.85127 0.30701
 H670 H 0.12550 0.80995 0.34279
 H671 H 0.15085 0.80919 0.36901
 H672 H 0.18893 0.84874 0.37226
 O673 O 0.25048 1.01838 0.22793
 O674 O 0.22799 0.98396 0.25151
 O675 O 0.22654 1.01755 0.25160
 O676 O 0.25164 0.98495 0.22752
 O677 O 0.27158 0.98525 0.24798
 O678 O 0.24690 1.01884 0.27161
 O679 O 0.24782 0.98526 0.27204
 O680 O 0.27089 1.01901 0.24791
 Cu681 Cu 0.23713 1.00112 0.23764
 Cu682 Cu 0.26134 1.00216 0.26191
 C683 C 0.26454 1.02459 0.23386
 C684 C 0.23402 0.97875 0.26584
 C685 C 0.23245 1.02392 0.26562
 C686 C 0.26583 0.97942 0.23365
 O687 O 0.22878 0.48360 0.75098
 O688 O 0.25089 0.51791 0.72687
 O689 O 0.25238 0.48436 0.72715
 O690 O 0.22720 0.51724 0.75099
 O691 O 0.24748 0.51846 0.77107
 O692 O 0.27286 0.48583 0.74704
 O693 O 0.27105 0.51942 0.74708
 O694 O 0.24906 0.48489 0.77107
 Cu695 Cu 0.23777 0.50069 0.73699
 Cu696 Cu 0.26215 0.50226 0.76108
 C697 C 0.23520 0.47828 0.76510
 C698 C 0.26471 0.52458 0.73286
 C699 C 0.26691 0.47943 0.73304
 C700 C 0.23303 0.52351 0.76509
 O701 O 0.77328 0.01637 0.25033
 O702 O 0.74804 -0.01649 0.22664
 O703 O 0.74951 0.01715 0.22631
 O704 O 0.77174 -0.01714 0.25036
 O705 O 0.75140 -0.01594 0.27044
 O706 O 0.72943 0.01868 0.24663
 O707 O 0.72757 -0.01493 0.24658
 O708 O 0.75300 0.01765 0.27049
 Cu709 Cu 0.76266 -0.00011 0.23637
 Cu710 Cu 0.73831 0.00147 0.26055
 C711 C 0.76747 0.02264 0.26446
 C712 C 0.73353 -0.02141 0.23261
 C713 C 0.73575 0.02388 0.23241
 C714 C 0.76532 -0.02249 0.26448
 O715 O 0.74737 0.48284 0.72363
 O716 O 0.77235 0.51541 0.74795
 O717 O 0.77076 0.48181 0.74789
 O718 O 0.74886 0.51629 0.72373
 O719 O 0.72828 0.51729 0.74359
 O720 O 0.75040 0.48320 0.76793
 O721 O 0.75164 0.51683 0.76765
 O722 O 0.72700 0.48362 0.74372
 Cu723 Cu 0.76191 0.49897 0.73382
 Cu724 Cu 0.73727 0.50032 0.75772
 C725 C 0.73296 0.47758 0.72954
 C726 C 0.76620 0.52183 0.76186
 C727 C 0.76431 0.47658 0.76206
 C728 C 0.73483 0.52271 0.72955
 O729 O 0.25522 0.48424 0.27265
 O730 O 0.23276 0.51792 0.24804
 O731 O 0.23141 0.48444 0.24869
 O732 O 0.25635 0.51781 0.27183
 O733 O 0.27677 0.51629 0.25183
 O734 O 0.25177 0.48281 0.22864
 O735 O 0.25292 0.51638 0.22779
 O736 O 0.27543 0.48265 0.25245
 Cu737 Cu 0.24192 0.50121 0.26233
 Cu738 Cu 0.26628 0.49942 0.23816
 C739 C 0.26912 0.47761 0.26674
 C740 C 0.23899 0.52294 0.23371
 C741 C 0.23730 0.47789 0.23473
 C742 C 0.27077 0.52285 0.26576
 O743 O 0.75014 1.01480 0.72999
 O744 O 0.72601 0.98181 0.75400
 O745 O 0.72574 1.01531 0.75328
 O746 O 0.75035 0.98123 0.73065
 O747 O 0.77049 0.98255 0.75087
 O748 O 0.74522 1.01580 0.77416
 O749 O 0.74613 0.98207 0.77429
 O750 O 0.76955 1.01614 0.75093
 Cu751 Cu 0.73608 0.99820 0.73991
 Cu752 Cu 0.75982 0.99919 0.76465
 C753 C 0.76387 1.02126 0.73642
 C754 C 0.73202 0.97617 0.76818
 C755 C 0.73124 1.02141 0.76758
 C756 C 0.76469 0.97612 0.73683
 O757 O 0.74779 0.51583 0.23054
 O758 O 0.72641 0.48072 0.25425
 O759 O 0.72434 0.51434 0.25486
 O760 O 0.74943 0.48242 0.22977
 O761 O 0.76986 0.48286 0.24976
 O762 O 0.74523 0.51574 0.27432
 O763 O 0.74673 0.48215 0.27429
 O764 O 0.76857 0.51658 0.25014
 Cu765 Cu 0.73490 0.49826 0.24040
 Cu766 Cu 0.75968 0.49941 0.26410
 C767 C 0.76187 0.52218 0.23626
 C768 C 0.73294 0.47541 0.26833
 C769 C 0.73055 0.52065 0.26878
 C770 C 0.76385 0.47705 0.23552
 O771 O 0.25066 -0.01802 0.72768
 O772 O 0.27475 0.01500 0.75225
 O773 O 0.27396 -0.01859 0.75189
 O774 O 0.25148 0.01554 0.72772
 O775 O 0.23086 0.01620 0.74754
 O776 O 0.25333 -0.01780 0.77170
 O777 O 0.25397 0.01584 0.77190
 O778 O 0.22997 -0.01746 0.74742
 Cu779 Cu 0.26479 -0.00154 0.73791
 Cu780 Cu 0.23995 -0.00075 0.76161
 C781 C 0.23625 -0.02349 0.73338
 C782 C 0.26847 0.02112 0.76624
 C783 C 0.26744 -0.02409 0.76591
 C784 C 0.23734 0.02174 0.73352
 O785 O 0.22774 0.25393 1.01627
 O786 O 0.25230 0.22951 0.98318
 O787 O 0.25121 0.22977 1.01690
 O788 O 0.22886 0.25352 0.98240
 O789 O 0.24953 0.27318 0.98293
 O790 O 0.27138 0.24991 1.01808
 O791 O 0.27307 0.24904 0.98434
 O792 O 0.24802 0.27400 1.01648
 Cu793 Cu 0.23796 0.23970 0.99964
 Cu794 Cu 0.26257 0.26350 1.00051
 C795 C 0.23366 0.26819 1.02197
 C796 C 0.26693 0.23508 0.97815
 C797 C 0.26505 0.23583 1.02348
 C798 C 0.23543 0.26737 0.97670
 O799 O 0.24461 0.77208 0.48074
 O800 O 0.26727 0.74974 0.51608
 O801 O 0.26836 0.74851 0.48222
 O802 O 0.24346 0.77354 0.51442
 O803 O 0.22353 0.75315 0.51496
 O804 O 0.24804 0.72849 0.48202
 O805 O 0.24729 0.72939 0.51561
 O806 O 0.22411 0.75225 0.48118
 Cu807 Cu 0.25797 0.76297 0.49840
 Cu808 Cu 0.23370 0.73882 0.49843
 C809 C 0.23044 0.76599 0.47495
 C810 C 0.26118 0.73567 0.52182
 C811 C 0.26241 0.73428 0.47650
 C812 C 0.22930 0.76761 0.52029
 O813 O 0.27301 0.75185 -0.01687
 O814 O 0.25019 0.72855 0.01780
 O815 O 0.24937 0.72805 -0.01609
 O816 O 0.27421 0.75215 0.01688
 O817 O 0.25367 0.77194 0.01801
 O818 O 0.22927 0.74831 -0.01560
 O819 O 0.22972 0.74845 0.01796
 O820 O 0.25305 0.77223 -0.01575
 Cu821 Cu 0.26372 0.73812 0.00038
 Cu822 Cu 0.23942 0.76227 0.00119
 C823 C 0.26693 0.76608 -0.02219
 C824 C 0.23599 0.73451 0.02376
 C825 C 0.23511 0.73411 -0.02156
 C826 C 0.26813 0.76609 0.02319
 O827 O 0.26882 0.25129 0.48244
 O828 O 0.24655 0.22872 0.51790
 O829 O 0.24510 0.22753 0.48416
 O830 O 0.27035 0.25238 0.51613
 O831 O 0.24967 0.27202 0.51737
 O832 O 0.22533 0.24810 0.48379
 O833 O 0.22581 0.24832 0.51760
 O834 O 0.24909 0.27188 0.48363
 Cu835 Cu 0.25973 0.23795 0.50011
 Cu836 Cu 0.23543 0.26209 0.50064
 C837 C 0.26283 0.26554 0.47707
 C838 C 0.23230 0.23462 0.52375
 C839 C 0.23102 0.23366 0.47830
 C840 C 0.26427 0.26634 0.52238
 O841 O 0.74919 0.76885 0.98261
 O842 O 0.77241 0.74538 1.01691
 O843 O 0.77258 0.74478 0.98301
 O844 O 0.74922 0.76987 1.01633
 O845 O 0.72888 0.74989 1.01712
 O846 O 0.75183 0.72522 0.98309
 O847 O 0.75197 0.72548 1.01667
 O848 O 0.72833 0.74942 0.98339
 Cu849 Cu 0.76294 0.75918 0.99971
 Cu850 Cu 0.73817 0.73555 1.00008
 C851 C 0.73471 0.76314 0.97720
 C852 C 0.76616 0.73135 1.02259
 C853 C 0.76616 0.73078 0.97725
 C854 C 0.73510 0.76415 1.02249
 O855 O 0.75182 0.26824 0.48513
 O856 O 0.77444 0.24435 0.51938
 O857 O 0.77595 0.24458 0.48562
 O858 O 0.75055 0.26781 0.51888
 O859 O 0.73040 0.24767 0.51745
 O860 O 0.75578 0.22446 0.48421
 O861 O 0.75448 0.22402 0.51794
 O862 O 0.73185 0.24791 0.48372
 Cu863 Cu 0.76520 0.25827 0.50234
 Cu864 Cu 0.74112 0.23398 0.50073
 C865 C 0.73799 0.26215 0.47853
 C866 C 0.76828 0.23012 0.52457
 C867 C 0.77018 0.23058 0.47918
 C868 C 0.73616 0.26167 0.52391
 O869 O 0.77154 0.25358 -0.01884
 O870 O 0.74872 0.22978 0.01534
 O871 O 0.74809 0.22948 -0.01823
 O872 O 0.77218 0.25387 0.01507
 O873 O 0.75171 0.27376 0.01535
 O874 O 0.72765 0.24940 -0.01798
 O875 O 0.72825 0.24967 0.01593
 O876 O 0.75110 0.27349 -0.01824
 Cu877 Cu 0.76222 0.23972 -0.00171
 Cu878 Cu 0.73759 0.26354 -0.00119
 C879 C 0.76520 0.26760 -0.02442
 C880 C 0.73460 0.23565 0.02150
 C881 C 0.73377 0.23528 -0.02383
 C882 C 0.76605 0.26798 0.02094
 O883 O 0.73014 0.75093 0.48236
 O884 O 0.75462 0.77412 0.51618
 O885 O 0.75425 0.77451 0.48242
 O886 O 0.73044 0.75084 0.51588
 O887 O 0.75071 0.73074 0.51576
 O888 O 0.77396 0.75389 0.48128
 O889 O 0.77497 0.75413 0.51504
 O890 O 0.74998 0.73042 0.48191
 Cu891 Cu 0.74039 0.76466 0.49925
 Cu892 Cu 0.76442 0.74025 0.49845
 C893 C 0.73580 0.73666 0.47642
 C894 C 0.76900 0.76810 0.52139
 C895 C 0.76808 0.76822 0.47600
 C896 C 0.73653 0.73679 0.52163
 O897 O 1.01705 0.27428 0.24782
 O898 O 0.98264 0.25012 0.27000
 O899 O 1.01649 0.24991 0.27076
 O900 O 0.98339 0.27459 0.24716
 O901 O 0.98336 0.25482 0.22640
 O902 O 1.01692 0.23055 0.24963
 O903 O 0.98331 0.23037 0.24923
 O904 O 1.01720 0.25491 0.22670
 Cu905 Cu 0.99986 0.26418 0.26105
 Cu906 Cu 1.00023 0.24073 0.23587
 C907 C 1.02300 0.26876 0.23344
 C908 C 0.97714 0.23606 0.26344
 C909 C 1.02242 0.23602 0.26419
 C910 C 0.97765 0.26889 0.23279
 O911 O 0.51569 0.27187 0.74742
 O912 O 0.48187 0.24818 0.77120
 O913 O 0.51576 0.24824 0.77121
 O914 O 0.48177 0.27181 0.74756
 O915 O 0.48189 0.25156 0.72726
 O916 O 0.51577 0.22816 0.75076
 O917 O 0.48217 0.22790 0.75093
 O918 O 0.51545 0.25174 0.72702
 Cu919 Cu 0.49878 0.26207 0.76139
 Cu920 Cu 0.49883 0.23782 0.73697
 C921 C 0.52131 0.26585 0.73310
 C922 C 0.47626 0.23395 0.76511
 C923 C 0.52157 0.23413 0.76499
 C924 C 0.47601 0.26567 0.73336
 O925 O 0.01710 0.25272 0.77368
 O926 O -0.01639 0.22728 0.75109
 O927 O 0.01743 0.22746 0.75146
 O928 O -0.01678 0.25272 0.77336
 O929 O -0.01659 0.27132 0.75193
 O930 O 0.01748 0.24597 0.72995
 O931 O -0.01634 0.24590 0.72969
 O932 O 0.01718 0.27142 0.75233
 Cu933 Cu 0.00030 0.23819 0.76455
 Cu934 Cu 0.00046 0.26051 0.73883
 C935 C 0.02295 0.26637 0.76683
 C936 C -0.02216 0.23225 0.73656
 C937 C 0.02337 0.23244 0.73699
 C938 C -0.02259 0.26632 0.76637
 O939 O 0.51804 0.25005 0.27327
 O940 O 0.48328 0.22731 0.24950
 O941 O 0.51710 0.22650 0.24898
 O942 O 0.48424 0.25067 0.27391
 O943 O 0.48359 0.27051 0.25364
 O944 O 0.51796 0.24731 0.22972
 O945 O 0.48417 0.24715 0.22923
 O946 O 0.51736 0.27085 0.25400
 Cu947 Cu 0.50066 0.23659 0.26339
 Cu948 Cu 0.50079 0.26099 0.23967
 C949 C 0.52353 0.26444 0.26776
 C950 C 0.47786 0.23331 0.23523
 C951 C 0.52332 0.23286 0.23520
 C952 C 0.47811 0.26461 0.26793
 O953 O 0.98374 0.75242 0.73006
 O954 O 1.01809 0.72939 0.75371
 O955 O 0.98440 0.72829 0.75329
 O956 O 1.01762 0.75321 0.73029
 O957 O 1.01696 0.77308 0.75094
 O958 O 0.98318 0.74841 0.77367
 O959 O 1.01698 0.74919 0.77441
 O960 O 0.98338 0.77252 0.75051
 Cu961 Cu 1.00103 0.73884 0.73975
 Cu962 Cu 1.00005 0.76277 0.76447
 C963 C 0.97775 0.76648 0.73624
 C964 C 1.02339 0.73537 0.76815
 C965 C 0.97803 0.73410 0.76737
 C966 C 1.02305 0.76736 0.73669
 O967 O 0.51740 0.73015 0.25301
 O968 O 0.48355 0.75411 0.22965
 O969 O 0.51731 0.75322 0.22877
 O970 O 0.48355 0.73087 0.25357
 O971 O 0.48427 0.75146 0.27349
 O972 O 0.51848 0.77362 0.24885
 O973 O 0.48476 0.77483 0.24942
 O974 O 0.51789 0.75057 0.27313
 Cu975 Cu 0.50038 0.74002 0.23925
 Cu976 Cu 0.50143 0.76469 0.26321
 C977 C 0.52337 0.73626 0.26714
 C978 C 0.47839 0.76860 0.23555
 C979 C 0.52373 0.76720 0.23456
 C980 C 0.47807 0.73735 0.26773
 O981 O 0.01655 0.74450 0.22558
 O982 O -0.01717 0.77021 0.24782
 O983 O 0.01665 0.77016 0.24749
 O984 O -0.01730 0.74476 0.22569
 O985 O -0.01685 0.72596 0.24695
 O986 O 0.01628 0.75214 0.26941
 O987 O -0.01748 0.75150 0.26915
 O988 O 0.01699 0.72649 0.24751
 Cu989 Cu -0.00033 0.75924 0.23447
 Cu990 Cu -0.00028 0.73717 0.26041
 C991 C 0.02271 0.73121 0.23286
 C992 C -0.02321 0.76517 0.26224
 C993 C 0.02227 0.76554 0.26218
 C994 C -0.02290 0.73103 0.23255
 O995 O 0.48233 0.72736 0.74573
 O996 O 0.51683 0.74953 0.77021
 O997 O 0.48317 0.75038 0.77034
 O998 O 0.51612 0.72620 0.74567
 O999 O 0.51712 0.74695 0.72634
 O1000 O 0.48341 0.77082 0.75067
 O1001 O 0.51733 0.77015 0.75073
 O1002 O 0.48329 0.74763 0.72591
 Cu1003 Cu 0.49957 0.73630 0.75992
 Cu1004 Cu 0.50031 0.76096 0.73645
 C1005 C 0.47689 0.73371 0.73163
 C1006 C 0.52301 0.76362 0.76465
 C1007 C 0.47754 0.76466 0.76472
 C1008 C 0.52241 0.73249 0.73189
 C1009 C 0.42292 0.30030 0.30511
 C1010 C 0.41291 0.31220 0.29559
 C1011 C 0.39876 0.32062 0.30342
 C1012 C 0.39444 0.31762 0.32083
 C1013 C 0.40475 0.30620 0.33036
 C1014 C 0.41875 0.29764 0.32265
 C1015 C 0.43749 0.29106 0.29603
 C1016 C 0.44751 0.27817 0.30400
 C1017 C 0.46070 0.26970 0.29488
 C1018 C 0.46437 0.27392 0.27764
 C1019 C 0.45453 0.28680 0.26961
 C1020 C 0.44104 0.29520 0.27856
 C1021 C 0.41705 0.31563 0.27829
 C1022 C 0.43091 0.30746 0.27002
 H1023 H 0.40946 0.32484 0.27102
 H1024 H 0.43359 0.31060 0.25663
 H1025 H 0.39093 0.32928 0.29578
 H1026 H 0.40209 0.30390 0.34390
 H1027 H 0.46807 0.25979 0.30139
 H1028 H 0.45712 0.29004 0.25622
 H1029 H 0.42615 0.28906 0.33070
 H1030 H 0.44526 0.27426 0.31718
 C1031 C 0.42258 0.80007 0.80256
 C1032 C 0.41453 0.81418 0.79438
 C1033 C 0.40052 0.82273 0.80241
 C1034 C 0.39414 0.81750 0.81872
 C1035 C 0.40267 0.80366 0.82686
 C1036 C 0.41656 0.79514 0.81898
 C1037 C 0.43711 0.79093 0.79333
 C1038 C 0.44553 0.77637 0.80015
 C1039 C 0.45869 0.76805 0.79089
 C1040 C 0.46392 0.77401 0.77460
 C1041 C 0.45576 0.78863 0.76775
 C1042 C 0.44237 0.79702 0.77691
 C1043 C 0.42041 0.81963 0.77814
 C1044 C 0.43406 0.81129 0.76963
 H1045 H 0.41432 0.83049 0.77184
 H1046 H 0.43806 0.81598 0.75707
 H1047 H 0.39453 0.83324 0.79556
 H1048 H 0.39891 0.79923 0.83952
 H1049 H 0.46475 0.75683 0.79652
 H1050 H 0.45961 0.79333 0.75513
 H1051 H 0.42237 0.78470 0.82603
 H1052 H 0.44208 0.77104 0.81252
 C1053 C -0.07902 0.30420 0.79933
 C1054 C -0.08629 0.29701 0.81443
 C1055 C -0.10048 0.30501 0.82265
 C1056 C -0.10790 0.32030 0.81612
 C1057 C -0.10024 0.32746 0.80120
 C1058 C -0.08613 0.31959 0.79299
 C1059 C -0.06415 0.29500 0.79070
 C1060 C -0.05625 0.30090 0.77538
 C1061 C -0.04271 0.29166 0.76765
 C1062 C -0.03660 0.27632 0.77497
 C1063 C -0.04424 0.27044 0.79033
 C1064 C -0.05794 0.27958 0.79817
 C1065 C -0.07944 0.28176 0.82123
 C1066 C -0.06556 0.27326 0.81330
 H1067 H -0.08494 0.27624 0.83285
 H1068 H -0.06081 0.26147 0.81905
 H1069 H -0.10571 0.29893 0.83403
 H1070 H -0.10493 0.33926 0.79561
 H1071 H -0.03707 0.29653 0.75582
 H1072 H -0.03968 0.25859 0.79612
 H1073 H -0.08104 0.32582 0.78165
 H1074 H -0.06040 0.31252 0.76905
 C1075 C -0.07897 0.80317 0.29625
 C1076 C -0.08565 0.79619 0.31172
 C1077 C -0.09953 0.80430 0.32036
 C1078 C -0.10722 0.81949 0.31390
 C1079 C -0.10019 0.82641 0.29856
 C1080 C -0.08638 0.81843 0.28992
 C1081 C -0.06434 0.79391 0.28725
 C1082 C -0.05694 0.79963 0.27162
 C1083 C -0.04355 0.79037 0.26362
 C1084 C -0.03713 0.77518 0.27098
 C1085 C -0.04431 0.76946 0.28662
 C1086 C -0.05782 0.77863 0.29474
 C1087 C -0.07851 0.78107 0.31849
 C1088 C -0.06490 0.77250 0.31021
 H1089 H -0.08358 0.77571 0.33038
 H1090 H -0.05991 0.76082 0.31596
 H1091 H -0.10426 0.79842 0.33205
 H1092 H -0.10516 0.83807 0.29292
 H1093 H -0.03827 0.79511 0.25157
 H1094 H -0.03950 0.75774 0.29246
 H1095 H -0.08176 0.82446 0.27828
 H1096 H -0.06134 0.81115 0.26526
 C1097 C 0.57727 0.69978 0.30439
 C1098 C 0.58726 0.68762 0.29488
 C1099 C 0.60108 0.67899 0.30288
 C1100 C 0.60502 0.68205 0.32042
 C1101 C 0.59467 0.69368 0.32991
 C1102 C 0.58104 0.70244 0.32206
 C1103 C 0.56310 0.70924 0.29521
 C1104 C 0.55327 0.72243 0.30320
 C1105 C 0.54041 0.73108 0.29405
 C1106 C 0.53686 0.72676 0.27673
 C1107 C 0.54652 0.71360 0.26863
 C1108 C 0.55973 0.70502 0.27765
 C1109 C 0.58338 0.68415 0.27746
 C1110 C 0.56979 0.69251 0.26909
 H1111 H 0.59093 0.67475 0.27020
 H1112 H 0.56728 0.68930 0.25563
 H1113 H 0.60892 0.67010 0.29532
 H1114 H 0.59699 0.69597 0.34356
 H1115 H 0.53317 0.74120 0.30060
 H1116 H 0.54403 0.71031 0.25518
 H1117 H 0.57359 0.71114 0.33011
 H1118 H 0.55543 0.72646 0.31643
 C1119 C 0.57580 0.19671 0.80096
 C1120 C 0.58378 0.20504 0.81522
 C1121 C 0.59751 0.19699 0.82401
 C1122 C 0.60363 0.18053 0.81887
 C1123 C 0.59512 0.17223 0.80492
 C1124 C 0.58152 0.18013 0.79616
 C1125 C 0.56159 0.20593 0.79155
 C1126 C 0.55334 0.19897 0.77678
 C1127 C 0.54038 0.20815 0.76831
 C1128 C 0.53521 0.22450 0.77430
 C1129 C 0.54330 0.23155 0.78905
 C1130 C 0.55648 0.22247 0.79761
 C1131 C 0.57811 0.22143 0.82058
 C1132 C 0.56470 0.22991 0.81203
 H1133 H 0.58415 0.22784 0.83156
 H1134 H 0.56082 0.24257 0.81669
 H1135 H 0.60352 0.20395 0.83460
 H1136 H 0.59864 0.15941 0.80062
 H1137 H 0.53440 0.20237 0.75697
 H1138 H 0.53949 0.24422 0.79376
 H1139 H 0.57569 0.17293 0.78567
 H1140 H 0.55675 0.18654 0.77143
 C1141 C 1.07857 0.70030 0.80506
 C1142 C 1.08634 0.68595 0.79672
 C1143 C 1.10013 0.67719 0.80465
 C1144 C 1.10657 0.68244 0.82101
 C1145 C 1.09845 0.69665 0.82924
 C1146 C 1.08477 0.70539 0.82144
 C1147 C 1.06410 0.70950 0.79601
 C1148 C 1.05576 0.72413 0.80309
 C1149 C 1.04254 0.73238 0.79406
 C1150 C 1.03721 0.72629 0.77774
 C1151 C 1.04536 0.71165 0.77061
 C1152 C 1.05874 0.70329 0.77956
 C1153 C 1.08038 0.68042 0.78044
 C1154 C 1.06687 0.68888 0.77207
 H1155 H 1.08629 0.66939 0.77402
 H1156 H 1.06278 0.68411 0.75947
 H1157 H 1.10588 0.66648 0.79769
 H1158 H 1.10236 0.70117 0.84190
 H1159 H 1.03649 0.74364 0.79990
 H1160 H 1.04140 0.70683 0.75799
 H1161 H 1.07925 0.71609 0.82856
 H1162 H 1.05926 0.72952 0.81553
 C1163 C 1.07595 0.19766 0.30021
 C1164 C 1.08343 0.20552 0.31501
 C1165 C 1.09695 0.19727 0.32391
 C1166 C 1.10339 0.18106 0.31836
 C1167 C 1.09539 0.17321 0.30385
 C1168 C 1.08199 0.18132 0.29497
 C1169 C 1.06193 0.20711 0.29075
 C1170 C 1.05415 0.20063 0.27551
 C1171 C 1.04135 0.21002 0.26702
 C1172 C 1.03587 0.22610 0.27347
 C1173 C 1.04348 0.23266 0.28869
 C1174 C 1.05649 0.22336 0.29728
 C1175 C 1.07744 0.22165 0.32081
 C1176 C 1.06421 0.23033 0.31220
 H1177 H 1.08308 0.22770 0.33220
 H1178 H 1.06008 0.24278 0.31721
 H1179 H 1.10254 0.20388 0.33494
 H1180 H 1.09919 0.16061 0.29916
 H1181 H 1.03573 0.20463 0.25531
 H1182 H 1.03944 0.24511 0.29378
 H1183 H 1.07657 0.17448 0.28403
 H1184 H 1.05782 0.18842 0.26980
 C1185 C 0.57533 0.30171 0.69532
 C1186 C 0.58542 0.31384 0.70471
 C1187 C 0.59936 0.32222 0.69662
 C1188 C 0.60336 0.31889 0.67913
 C1189 C 0.59291 0.30731 0.66975
 C1190 C 0.57913 0.29883 0.67768
 C1191 C 0.56108 0.29246 0.70462
 C1192 C 0.55111 0.27933 0.69674
 C1193 C 0.53822 0.27083 0.70603
 C1194 C 0.53480 0.27523 0.72336
 C1195 C 0.54458 0.28835 0.73133
 C1196 C 0.55780 0.29680 0.72218
 C1197 C 0.58158 0.31749 0.72211
 C1198 C 0.56795 0.30929 0.73060
 H1199 H 0.58921 0.32686 0.72928
 H1200 H 0.56550 0.31259 0.74406
 H1201 H 0.60730 0.33107 0.70410
 H1202 H 0.59531 0.30481 0.65614
 H1203 H 0.53088 0.26076 0.69956
 H1204 H 0.54218 0.29172 0.74479
 H1205 H 0.57161 0.29012 0.66971
 H1206 H 0.55316 0.27525 0.68351
 C1207 C 0.57848 0.80144 0.19614
 C1208 C 0.58612 0.81613 0.20396
 C1209 C 0.59979 0.82474 0.19567
 C1210 C 0.60626 0.81903 0.17945
 C1211 C 0.59824 0.80452 0.17171
 C1212 C 0.58467 0.79591 0.17987
 C1213 C 0.56415 0.79241 0.20559
 C1214 C 0.55595 0.77745 0.19908
 C1215 C 0.54284 0.76940 0.20847
 C1216 C 0.53749 0.77601 0.22460
 C1217 C 0.54550 0.79095 0.23117
 C1218 C 0.55877 0.79912 0.22186
 C1219 C 0.58016 0.82213 0.22009
 C1220 C 0.56676 0.81385 0.22881
 H1221 H 0.58597 0.83342 0.22610
 H1222 H 0.56266 0.81900 0.24126
 H1223 H 0.60540 0.83574 0.20225
 H1224 H 0.60218 0.79960 0.15920
 H1225 H 0.53690 0.75789 0.20306
 H1226 H 0.54153 0.79618 0.24364
 H1227 H 0.57922 0.78494 0.17314
 H1228 H 0.55950 0.77167 0.18682
 C1229 C 1.07802 0.30639 0.19885
 C1230 C 1.08536 0.29867 0.18389
 C1231 C 1.09911 0.30677 0.17520
 C1232 C 1.10594 0.32268 0.18112
 C1233 C 1.09819 0.33034 0.19589
 C1234 C 1.08455 0.32238 0.20456
 C1235 C 1.06363 0.29714 0.20798
 C1236 C 1.05579 0.30354 0.22325
 C1237 C 1.04261 0.29434 0.23140
 C1238 C 1.03683 0.27853 0.22456
 C1239 C 1.04450 0.27207 0.20931
 C1240 C 1.05785 0.28118 0.20106
 C1241 C 1.07900 0.28285 0.17768
 C1242 C 1.06551 0.27433 0.18604
 H1243 H 1.08457 0.27692 0.16618
 H1244 H 1.06110 0.26210 0.18073
 H1245 H 1.10454 0.30027 0.16401
 H1246 H 1.10236 0.34268 0.20093
 H1247 H 1.03694 0.29964 0.24314
 H1248 H 1.04020 0.25984 0.20392
 H1249 H 1.07932 0.32905 0.21572
 H1250 H 1.05967 0.31555 0.22922
 C1251 C 1.07670 0.80535 0.70042
 C1252 C 1.08625 0.79619 0.68765
 C1253 C 1.09978 0.80434 0.67871
 C1254 C 1.10389 0.82172 0.68203
 C1255 C 1.09407 0.83087 0.69440
 C1256 C 1.08071 0.82285 0.70349
 C1257 C 1.06270 0.79600 0.71004
 C1258 C 1.05311 0.80363 0.72366
 C1259 C 1.04030 0.79431 0.73229
 C1260 C 1.03661 0.77720 0.72750
 C1261 C 1.04611 0.76948 0.71398
 C1262 C 1.05919 0.77864 0.70539
 C1263 C 1.08225 0.77895 0.68382
 C1264 C 1.06890 0.77042 0.69237
 H1265 H 1.08950 0.77195 0.67398
 H1266 H 1.06626 0.75711 0.68886
 H1267 H 1.10726 0.79698 0.66934
 H1268 H 1.09659 0.84437 0.69700
 H1269 H 1.03319 0.80057 0.74271
 H1270 H 1.04352 0.75620 0.71029
 H1271 H 1.07364 0.83061 0.71277
 H1272 H 1.05537 0.81670 0.72798
 C1273 C 0.42068 0.69979 0.69454
 C1274 C 0.41048 0.68801 0.70402
 C1275 C 0.39614 0.67995 0.69622
 C1276 C 0.39182 0.68315 0.67886
 C1277 C 0.40230 0.69446 0.66935
 C1278 C 0.41648 0.70269 0.67704
 C1279 C 0.43548 0.70863 0.70358
 C1280 C 0.44573 0.72139 0.69568
 C1281 C 0.45916 0.72945 0.70478
 C1282 C 0.46286 0.72491 0.72192
 C1283 C 0.45279 0.71217 0.72989
 C1284 C 0.43905 0.70420 0.72097
 C1285 C 0.41463 0.68432 0.72125
 C1286 C 0.42871 0.69209 0.72947
 H1287 H 0.40689 0.67521 0.72849
 H1288 H 0.43140 0.68875 0.74280
 H1289 H 0.38819 0.67139 0.70385
 H1290 H 0.39964 0.69692 0.65585
 H1291 H 0.46671 0.73927 0.69833
 H1292 H 0.45538 0.70870 0.74321
 H1293 H 0.42401 0.71119 0.66903
 H1294 H 0.44347 0.72551 0.68257
 C1295 C 0.42188 0.19897 0.19815
 C1296 C 0.41133 0.18760 0.20776
 C1297 C 0.39695 0.17961 0.19992
 C1298 C 0.39295 0.18249 0.18242
 C1299 C 0.40382 0.19335 0.17281
 C1300 C 0.41803 0.20150 0.18052
 C1301 C 0.43668 0.20780 0.20721
 C1302 C 0.44721 0.22021 0.19913
 C1303 C 0.46059 0.22835 0.20824
 C1304 C 0.46395 0.22425 0.22556
 C1305 C 0.45361 0.21183 0.23370
 C1306 C 0.43991 0.20378 0.22476
 C1307 C 0.41516 0.18428 0.22515
 C1308 C 0.42925 0.19204 0.23340
 H1309 H 0.40716 0.17548 0.23249
 H1310 H 0.43167 0.18900 0.24686
 H1311 H 0.38872 0.17137 0.20761
 H1312 H 0.40144 0.19552 0.15921
 H1313 H 0.46834 0.23791 0.20165
 H1314 H 0.45595 0.20871 0.24716
 H1315 H 0.42585 0.20964 0.17241
 H1316 H 0.44522 0.22402 0.18589
 C1317 C -0.07852 0.69312 0.19857
 C1318 C -0.08836 0.70221 0.18619
 C1319 C -0.10255 0.69427 0.17802
 C1320 C -0.10705 0.67711 0.18166
 C1321 C -0.09692 0.66798 0.19358
 C1322 C -0.08290 0.67584 0.20195
 C1323 C -0.06386 0.70235 0.20748
 C1324 C -0.05397 0.69489 0.22082
 C1325 C -0.04066 0.70418 0.22890
 C1326 C -0.03675 0.72104 0.22379
 C1327 C -0.04648 0.72854 0.21049
 C1328 C -0.06007 0.71946 0.20250
 C1329 C -0.08401 0.71920 0.18199
 C1330 C -0.07006 0.72757 0.18983
 H1331 H -0.09148 0.72613 0.17243
 H1332 H -0.06720 0.74069 0.18607
 H1333 H -0.11023 0.70165 0.16902
 H1334 H -0.09972 0.65464 0.19642
 H1335 H -0.03339 0.69810 0.23916
 H1336 H -0.04373 0.74166 0.20659
 H1337 H -0.07562 0.66812 0.21094
 H1338 H -0.05643 0.68202 0.22535
 C1339 C -0.07755 0.19397 0.70245
 C1340 C -0.08452 0.20111 0.68720
 C1341 C -0.09847 0.19301 0.67869
 C1342 C -0.10595 0.17769 0.68509
 C1343 C -0.09855 0.17058 0.70016
 C1344 C -0.08469 0.17854 0.70865
 C1345 C -0.06295 0.20328 0.71139
 C1346 C -0.05538 0.19746 0.72689
 C1347 C -0.04209 0.20679 0.73489
 C1348 C -0.03591 0.22215 0.72769
 C1349 C -0.04323 0.22796 0.71215
 C1350 C -0.05668 0.21872 0.70404
 C1351 C -0.07761 0.21639 0.68052
 C1352 C -0.06399 0.22497 0.68873
 H1353 H -0.08288 0.22186 0.66879
 H1354 H -0.05919 0.23679 0.68307
 H1355 H -0.10344 0.19901 0.66717
 H1356 H -0.10331 0.15878 0.70571
 H1357 H -0.03670 0.20197 0.74685
 H1358 H -0.03862 0.23983 0.70644
 H1359 H -0.07981 0.17235 0.72010
 H1360 H -0.05960 0.18582 0.73314
 C1361 C 0.30269 0.42204 0.30399
 C1362 C 0.31462 0.41172 0.29456
 C1363 C 0.32256 0.39750 0.30244
 C1364 C 0.31903 0.39343 0.31979
 C1365 C 0.30758 0.40404 0.32922
 C1366 C 0.29951 0.41810 0.32148
 C1367 C 0.29399 0.43671 0.29490
 C1368 C 0.28115 0.44710 0.30280
 C1369 C 0.27320 0.46038 0.29366
 C1370 C 0.27789 0.46377 0.27647
 C1371 C 0.29073 0.45357 0.26852
 C1372 C 0.29862 0.44000 0.27749
 C1373 C 0.31854 0.41561 0.27731
 C1374 C 0.31085 0.42954 0.26902
 H1375 H 0.32776 0.40777 0.27011
 H1376 H 0.31436 0.43201 0.25568
 H1377 H 0.33126 0.38944 0.29489
 H1378 H 0.30490 0.40157 0.34273
 H1379 H 0.26331 0.46803 0.30011
 H1380 H 0.29433 0.45594 0.25517
 H1381 H 0.29089 0.42573 0.32946
 H1382 H 0.27690 0.44508 0.31593
 C1383 C 0.30105 -0.08011 0.80253
 C1384 C 0.31554 -0.08795 0.79445
 C1385 C 0.32392 -0.10198 0.80227
 C1386 C 0.31815 -0.10859 0.81828
 C1387 C 0.30382 -0.10039 0.82626
 C1388 C 0.29546 -0.08649 0.81856
 C1389 C 0.29226 -0.06539 0.79360
 C1390 C 0.27751 -0.05698 0.80042
 C1391 C 0.26962 -0.04355 0.79147
 C1392 C 0.27621 -0.03806 0.77551
 C1393 C 0.29099 -0.04624 0.76866
 C1394 C 0.29898 -0.05986 0.77751
 C1395 C 0.32157 -0.08181 0.77852
 C1396 C 0.31350 -0.06805 0.77027
 H1397 H 0.33271 -0.08775 0.77230
 H1398 H 0.31867 -0.06383 0.75796
 H1399 H 0.33477 -0.10775 0.79553
 H1400 H 0.29887 -0.10441 0.83865
 H1401 H 0.25825 -0.03748 0.79709
 H1402 H 0.29619 -0.04217 0.75630
 H1403 H 0.28463 -0.08093 0.82548
 H1404 H 0.27174 -0.06061 0.81257
 C1405 C 0.79763 0.42067 0.79913
 C1406 C 0.81228 0.41293 0.79125
 C1407 C 0.82071 0.39905 0.79925
 C1408 C 0.81487 0.39247 0.81524
 C1409 C 0.80031 0.40049 0.82298
 C1410 C 0.79188 0.41427 0.81511
 C1411 C 0.78886 0.43531 0.79005
 C1412 C 0.77404 0.44372 0.79671
 C1413 C 0.76622 0.45713 0.78766
 C1414 C 0.77294 0.46258 0.77173
 C1415 C 0.78777 0.45437 0.76503
 C1416 C 0.79570 0.44081 0.77400
 C1417 C 0.81843 0.41903 0.77536
 C1418 C 0.81035 0.43268 0.76694
 H1419 H 0.82968 0.41315 0.76929
 H1420 H 0.81561 0.43687 0.75466
 H1421 H 0.83171 0.39339 0.79265
 H1422 H 0.79525 0.39643 0.83531
 H1423 H 0.75480 0.46321 0.79316
 H1424 H 0.79309 0.45842 0.75272
 H1425 H 0.78088 0.41971 0.82184
 H1426 H 0.76819 0.44013 0.80884
 C1427 C 0.79912 -0.07879 0.30050
 C1428 C 0.81376 -0.08631 0.29240
 C1429 C 0.82231 -0.10029 0.30009
 C1430 C 0.81660 -0.10720 0.31598
 C1431 C 0.80206 -0.09937 0.32396
 C1432 C 0.79351 -0.08549 0.31639
 C1433 C 0.79021 -0.06404 0.29173
 C1434 C 0.77536 -0.05583 0.29860
 C1435 C 0.76741 -0.04232 0.28980
 C1436 C 0.77403 -0.03657 0.27394
 C1437 C 0.78888 -0.04458 0.26705
 C1438 C 0.79694 -0.05823 0.27575
 C1439 C 0.81980 -0.07990 0.27659
 C1440 C 0.81159 -0.06615 0.26847
 H1441 H 0.83105 -0.08561 0.27036
 H1442 H 0.81677 -0.06172 0.25624
 H1443 H 0.83334 -0.10572 0.29335
 H1444 H 0.79703 -0.10371 0.33620
 H1445 H 0.75598 -0.03639 0.29544
 H1446 H 0.79413 -0.04031 0.25478
 H1447 H 0.78251 -0.08023 0.32327
 H1448 H 0.76960 -0.05966 0.31069
 C1449 C 0.29846 0.58027 0.69590
 C1450 C 0.31046 0.59046 0.70535
 C1451 C 0.31858 0.60459 0.69748
 C1452 C 0.31516 0.60871 0.68013
 C1453 C 0.30362 0.59824 0.67068
 C1454 C 0.29536 0.58427 0.67841
 C1455 C 0.28963 0.56566 0.70495
 C1456 C 0.27674 0.55540 0.69703
 C1457 C 0.26873 0.54210 0.70610
 C1458 C 0.27342 0.53856 0.72325
 C1459 C 0.28627 0.54868 0.73125
 C1460 C 0.29422 0.56226 0.72234
 C1461 C 0.31431 0.58650 0.72258
 C1462 C 0.30650 0.57260 0.73084
 H1463 H 0.32358 0.59422 0.72980
 H1464 H 0.30998 0.57005 0.74417
 H1465 H 0.32735 0.61254 0.70504
 H1466 H 0.30101 0.60075 0.65718
 H1467 H 0.25883 0.53452 0.69962
 H1468 H 0.28987 0.54620 0.74457
 H1469 H 0.28669 0.57675 0.67042
 H1470 H 0.27249 0.55752 0.68393
 C1471 C 0.29865 1.08054 0.19757
 C1472 C 0.31311 1.08828 0.20574
 C1473 C 0.32155 1.10234 0.19802
 C1474 C 0.31586 1.10908 0.18206
 C1475 C 0.30158 1.10096 0.17397
 C1476 C 0.29316 1.08702 0.18154
 C1477 C 0.28976 1.06583 0.20641
 C1478 C 0.27501 1.05752 0.19950
 C1479 C 0.26701 1.04411 0.20838
 C1480 C 0.27345 1.03854 0.22435
 C1481 C 0.28823 1.04662 0.23129
 C1482 C 0.29634 1.06021 0.22250
 C1483 C 0.31903 1.08204 0.22165
 C1484 C 0.31086 1.06829 0.22982
 H1485 H 0.33015 1.08792 0.22793
 H1486 H 0.31593 1.06400 0.24214
 H1487 H 0.33235 1.10808 0.20485
 H1488 H 0.29675 1.10505 0.16156
 H1489 H 0.25564 1.03813 0.20269
 H1490 H 0.29333 1.04248 0.24365
 H1491 H 0.28238 1.08152 0.17455
 H1492 H 0.26934 1.06122 0.18734
 C1493 C 0.79589 0.57780 0.19945
 C1494 C 0.80792 0.58793 0.20893
 C1495 C 0.81638 0.60182 0.20099
 C1496 C 0.81336 0.60569 0.18350
 C1497 C 0.80172 0.59532 0.17406
 C1498 C 0.79308 0.58163 0.18189
 C1499 C 0.78683 0.56334 0.20853
 C1500 C 0.77388 0.55317 0.20058
 C1501 C 0.76580 0.53988 0.20962
 C1502 C 0.77049 0.53627 0.22675
 C1503 C 0.78331 0.54637 0.23482
 C1504 C 0.79132 0.55995 0.22595
 C1505 C 0.81156 0.58406 0.22624
 C1506 C 0.80359 0.57026 0.23450
 H1507 H 0.82083 0.59175 0.23349
 H1508 H 0.80696 0.56773 0.24786
 H1509 H 0.82520 0.60969 0.20856
 H1510 H 0.79939 0.59760 0.16047
 H1511 H 0.75591 0.53233 0.20311
 H1512 H 0.78687 0.54385 0.24814
 H1513 H 0.78440 0.57413 0.17388
 H1514 H 0.76968 0.55533 0.18747
 C1515 C 0.79983 1.07601 0.70014
 C1516 C 0.81136 1.08636 0.70999
 C1517 C 0.81990 1.10033 0.70228
 C1518 C 0.81738 1.10411 0.68469
 C1519 C 0.80632 1.09347 0.67487
 C1520 C 0.79765 1.07966 0.68244
 C1521 C 0.79049 1.06160 0.70901
 C1522 C 0.77794 1.05126 0.70065
 C1523 C 0.76941 1.03818 0.70956
 C1524 C 0.77321 1.03495 0.72699
 C1525 C 0.78572 1.04513 0.73543
 C1526 C 0.79418 1.05851 0.72668
 C1527 C 0.81432 1.08271 0.72748
 C1528 C 0.80606 1.06898 0.73558
 H1529 H 0.82323 1.09056 0.73501
 H1530 H 0.80885 1.06667 0.74912
 H1531 H 0.82829 1.10842 0.71011
 H1532 H 0.80443 1.09568 0.66119
 H1533 H 0.75979 1.03054 0.70274
 H1534 H 0.78862 1.04289 0.74896
 H1535 H 0.78939 1.07198 0.67416
 H1536 H 0.77437 1.05315 0.68731
 C1537 C 0.69304 0.57492 0.30534
 C1538 C 0.70272 0.58536 0.31694
 C1539 C 0.69485 0.59949 0.32535
 C1540 C 0.67726 0.60336 0.32261
 C1541 C 0.66758 0.59260 0.31155
 C1542 C 0.67531 0.57861 0.30301
 C1543 C 0.70215 0.56047 0.29600
 C1544 C 0.69401 0.55007 0.28333
 C1545 C 0.70322 0.53710 0.27464
 C1546 C 0.72071 0.53402 0.27845
 C1547 C 0.72890 0.54418 0.29117
 C1548 C 0.71986 0.55746 0.29976
 C1549 C 0.72022 0.58172 0.32005
 C1550 C 0.72856 0.56797 0.31178
 H1551 H 0.72761 0.58964 0.32903
 H1552 H 0.74212 0.56570 0.31464
 H1553 H 0.70260 0.60766 0.33373
 H1554 H 0.65391 0.59493 0.30949
 H1555 H 0.69659 0.52946 0.26487
 H1556 H 0.74248 0.54205 0.29408
 H1557 H 0.66715 0.57087 0.29470
 H1558 H 0.68064 0.55189 0.27972
 C1559 C 0.69383 1.07741 0.80158
 C1560 C 0.70179 1.08525 0.81614
 C1561 C 0.69386 1.09938 0.82452
 C1562 C 0.67788 1.10612 0.81870
 C1563 C 0.67000 1.09790 0.80433
 C1564 C 0.67780 1.08388 0.79595
 C1565 C 0.70292 1.06263 0.79273
 C1566 C 0.69628 1.05426 0.77787
 C1567 C 0.70541 1.04082 0.76989
 C1568 C 0.72138 1.03529 0.77650
 C1569 C 0.72803 1.04341 0.79142
 C1570 C 0.71900 1.05703 0.79949
 C1571 C 0.71769 1.07901 0.82223
 C1572 C 0.72608 1.06519 0.81412
 H1573 H 0.72380 1.08495 0.83343
 H1574 H 0.73838 1.06091 0.81931
 H1575 H 0.70051 1.10511 0.83544
 H1576 H 0.65765 1.10203 0.79932
 H1577 H 0.69995 1.03479 0.75842
 H1578 H 0.74039 1.03931 0.79664
 H1579 H 0.67097 1.07833 0.78507
 H1580 H 0.68414 1.05794 0.77208
 C1581 C 0.19509 0.57779 0.80135
 C1582 C 0.20318 0.58535 0.81598
 C1583 C 0.19520 0.59912 0.82489
 C1584 C 0.17905 0.60581 0.81951
 C1585 C 0.17100 0.59783 0.80510
 C1586 C 0.17883 0.58413 0.79621
 C1587 C 0.20429 0.56344 0.79191
 C1588 C 0.19754 0.55534 0.77693
 C1589 C 0.20680 0.54232 0.76838
 C1590 C 0.22302 0.53696 0.77452
 C1591 C 0.22978 0.54481 0.78954
 C1592 C 0.22061 0.55798 0.79818
 C1593 C 0.21931 0.57924 0.82159
 C1594 C 0.22781 0.56584 0.81292
 H1595 H 0.22552 0.58498 0.83285
 H1596 H 0.24030 0.56166 0.81775
 H1597 H 0.20200 0.60473 0.83579
 H1598 H 0.15845 0.60188 0.80051
 H1599 H 0.20126 0.53651 0.75684
 H1600 H 0.24232 0.54082 0.79442
 H1601 H 0.17189 0.57874 0.78533
 H1602 H 0.18521 0.55894 0.77149
 C1603 C 0.19424 1.07868 0.30076
 C1604 C 0.20234 1.08680 0.31509
 C1605 C 0.19418 1.10066 0.32370
 C1606 C 0.17784 1.10686 0.31830
 C1607 C 0.16983 1.09838 0.30416
 C1608 C 0.17784 1.08461 0.29559
 C1609 C 0.20356 1.06421 0.29166
 C1610 C 0.19674 1.05558 0.27703
 C1611 C 0.20608 1.04246 0.26877
 C1612 C 0.22246 1.03750 0.27486
 C1613 C 0.22930 1.04587 0.28955
 C1614 C 0.22004 1.05918 0.29790
 C1615 C 0.21864 1.08112 0.32069
 C1616 C 0.22727 1.06760 0.31232
 H1617 H 0.22487 1.08728 0.33171
 H1618 H 0.23988 1.06376 0.31713
 H1619 H 0.20097 1.10671 0.33437
 H1620 H 0.15716 1.10205 0.29959
 H1621 H 0.20045 1.03623 0.25749
 H1622 H 0.24196 1.04220 0.29437
 H1623 H 0.17088 1.07881 0.28492
 H1624 H 0.18430 1.05882 0.27162
 C1625 C 0.69568 0.42359 0.69250
 C1626 C 0.68368 0.41378 0.70216
 C1627 C 0.67509 0.39973 0.69438
 C1628 C 0.67804 0.39535 0.67691
 C1629 C 0.68945 0.40557 0.66722
 C1630 C 0.69816 0.41945 0.67487
 C1631 C 0.70525 0.43791 0.70154
 C1632 C 0.71841 0.44755 0.69345
 C1633 C 0.72727 0.46044 0.70256
 C1634 C 0.72317 0.46420 0.71989
 C1635 C 0.71000 0.45478 0.72804
 C1636 C 0.70123 0.44155 0.71910
 C1637 C 0.68035 0.41799 0.71954
 C1638 C 0.68878 0.43170 0.72777
 H1639 H 0.67105 0.41058 0.72692
 H1640 H 0.68573 0.43443 0.74123
 H1641 H 0.66640 0.39201 0.70212
 H1642 H 0.69166 0.40288 0.65362
 H1643 H 0.73739 0.46750 0.69597
 H1644 H 0.70687 0.45744 0.74150
 H1645 H 0.70674 0.42676 0.66671
 H1646 H 0.72227 0.44519 0.68021
 C1647 C 0.69594 -0.07636 0.19731
 C1648 C 0.70552 -0.08680 0.18558
 C1649 C 0.69758 -0.10088 0.17722
 C1650 C 0.68000 -0.10470 0.18007
 C1651 C 0.67044 -0.09401 0.19135
 C1652 C 0.67825 -0.08008 0.19988
 C1653 C 0.70509 -0.06181 0.20643
 C1654 C 0.69704 -0.05134 0.21914
 C1655 C 0.70625 -0.03819 0.22752
 C1656 C 0.72365 -0.03501 0.22335
 C1657 C 0.73175 -0.04529 0.21064
 C1658 C 0.72271 -0.05874 0.20236
 C1659 C 0.72298 -0.08313 0.18223
 C1660 C 0.73133 -0.06930 0.19030
 H1661 H 0.73030 -0.09105 0.17317
 H1662 H 0.74484 -0.06698 0.18722
 H1663 H 0.70526 -0.10901 0.16869
 H1664 H 0.65678 -0.09629 0.19353
 H1665 H 0.69971 -0.03047 0.23731
 H1666 H 0.74526 -0.04310 0.20747
 H1667 H 0.67017 -0.07237 0.20833
 H1668 H 0.68374 -0.05321 0.22298
 C1669 C 0.19850 0.42406 0.19905
 C1670 C 0.20774 0.41361 0.18707
 C1671 C 0.19937 0.39989 0.17849
 C1672 C 0.18172 0.39650 0.18141
 C1673 C 0.17250 0.40724 0.19292
 C1674 C 0.18073 0.42079 0.20164
 C1675 C 0.20806 0.43819 0.20839
 C1676 C 0.20034 0.44859 0.22135
 C1677 C 0.20985 0.46143 0.22983
 C1678 C 0.22727 0.46436 0.22555
 C1679 C 0.23510 0.45409 0.21266
 C1680 C 0.22572 0.44094 0.20425
 C1681 C 0.22527 0.41690 0.18369
 C1682 C 0.23401 0.43039 0.19195
 H1683 H 0.23234 0.40897 0.17443
 H1684 H 0.24755 0.43244 0.18882
 H1685 H 0.20675 0.39171 0.16974
 H1686 H 0.15880 0.40530 0.19513
 H1687 H 0.20351 0.46915 0.23975
 H1688 H 0.24862 0.45610 0.20940
 H1689 H 0.17289 0.42858 0.21025
 H1690 H 0.18703 0.44692 0.22529
 C1691 C 0.20017 -0.07830 0.69624
 C1692 C 0.18458 -0.08444 0.70357
 C1693 C 0.17544 -0.09800 0.69552
 C1694 C 0.18153 -0.10586 0.68006
 C1695 C 0.19710 -0.09948 0.67292
 C1696 C 0.20620 -0.08601 0.68082
 C1697 C 0.20962 -0.06392 0.70531
 C1698 C 0.22527 -0.05694 0.69906
 C1699 C 0.23373 -0.04377 0.70812
 C1700 C 0.22686 -0.03713 0.72364
 C1701 C 0.21117 -0.04384 0.72989
 C1702 C 0.20255 -0.05713 0.72088
 C1703 C 0.17820 -0.07706 0.71895
 C1704 C 0.18699 -0.06373 0.72743
 H1705 H 0.16623 -0.08172 0.72460
 H1706 H 0.18154 -0.05853 0.73933
 H1707 H 0.16353 -0.10218 0.70149
 H1708 H 0.20267 -0.10483 0.66123
 H1709 H 0.24579 -0.03884 0.70295
 H1710 H 0.20569 -0.03882 0.74186
 H1711 H 0.21801 -0.08194 0.67461
 H1712 H 0.23129 -0.06149 0.68726
 C1713 C 0.29781 0.30150 0.42133
 C1714 C 0.30947 0.29177 0.41097
 C1715 C 0.31797 0.29949 0.39693
 C1716 C 0.31532 0.31699 0.39312
 C1717 C 0.30407 0.32667 0.40374
 C1718 C 0.29541 0.31908 0.41759
 C1719 C 0.28863 0.29265 0.43590
 C1720 C 0.27602 0.30092 0.44630
 C1721 C 0.26773 0.29208 0.45961
 C1722 C 0.27183 0.27483 0.46303
 C1723 C 0.28436 0.26646 0.45275
 C1724 C 0.29259 0.27515 0.43913
 C1725 C 0.31264 0.27441 0.41472
 C1726 C 0.30453 0.26634 0.42860
 H1727 H 0.32164 0.26696 0.40685
 H1728 H 0.30752 0.25291 0.43101
 H1729 H 0.32650 0.29175 0.38886
 H1730 H 0.30205 0.34027 0.40151
 H1731 H 0.25809 0.29884 0.46732
 H1732 H 0.28749 0.25305 0.45513
 H1733 H 0.28704 0.32727 0.42526
 H1734 H 0.27223 0.31413 0.44430
 C1735 C 0.30176 0.80252 -0.07770
 C1736 C 0.31343 0.79287 -0.08813
 C1737 C 0.32170 0.80061 -0.10229
 C1738 C 0.31878 0.81805 -0.10618
 C1739 C 0.30760 0.82768 -0.09545
 C1740 C 0.29919 0.82007 -0.08146
 C1741 C 0.29271 0.79359 -0.06310
 C1742 C 0.28004 0.80173 -0.05268
 C1743 C 0.27177 0.79278 -0.03943
 C1744 C 0.27598 0.77554 -0.03609
 C1745 C 0.28862 0.76731 -0.04634
 C1746 C 0.29681 0.77611 -0.05990
 C1747 C 0.31680 0.77555 -0.08437
 C1748 C 0.30882 0.76741 -0.07045
 H1749 H 0.32582 0.76817 -0.09227
 H1750 H 0.31192 0.75401 -0.06806
 H1751 H 0.33019 0.79291 -0.11043
 H1752 H 0.30539 0.84124 -0.09776
 H1753 H 0.26204 0.79943 -0.03174
 H1754 H 0.29183 0.75392 -0.04401
 H1755 H 0.29081 0.82821 -0.07373
 H1756 H 0.27615 0.81492 -0.05466
 C1757 C 0.79987 0.30422 -0.07990
 C1758 C 0.81178 0.29470 -0.09017
 C1759 C 0.81998 0.30247 -0.10436
 C1760 C 0.81676 0.31981 -0.10842
 C1761 C 0.80536 0.32934 -0.09782
 C1762 C 0.79701 0.32170 -0.08381
 C1763 C 0.79086 0.29525 -0.06530
 C1764 C 0.77793 0.30323 -0.05508
 C1765 C 0.76971 0.29424 -0.04183
 C1766 C 0.77422 0.27711 -0.03830
 C1767 C 0.78712 0.26904 -0.04835
 C1768 C 0.79527 0.27788 -0.06192
 C1769 C 0.81545 0.27748 -0.08623
 C1770 C 0.80752 0.26932 -0.07230
 H1771 H 0.82466 0.27021 -0.09401
 H1772 H 0.81085 0.25600 -0.06977
 H1773 H 0.82866 0.29486 -0.11239
 H1774 H 0.80292 0.34283 -0.10026
 H1775 H 0.75978 0.30076 -0.03429
 H1776 H 0.79056 0.25573 -0.04588
 H1777 H 0.78846 0.32975 -0.07619
 H1778 H 0.77380 0.31632 -0.05721
 C1779 C 0.80320 0.80448 0.42058
 C1780 C 0.81450 0.79469 0.40988
 C1781 C 0.82261 0.80238 0.39559
 C1782 C 0.81986 0.81987 0.39183
 C1783 C 0.80915 0.82965 0.40290
 C1784 C 0.80091 0.82212 0.41702
 C1785 C 0.79415 0.79561 0.43522
 C1786 C 0.78172 0.80390 0.44581
 C1787 C 0.77338 0.79498 0.45903
 C1788 C 0.77728 0.77763 0.46218
 C1789 C 0.78970 0.76926 0.45177
 C1790 C 0.79795 0.77803 0.43821
 C1791 C 0.81761 0.77729 0.41347
 C1792 C 0.80967 0.76920 0.42745
 H1793 H 0.82636 0.76980 0.40537
 H1794 H 0.81255 0.75572 0.42969
 H1795 H 0.83079 0.79459 0.38721
 H1796 H 0.80714 0.84326 0.40071
 H1797 H 0.76383 0.80174 0.46685
 H1798 H 0.79266 0.75579 0.45395
 H1799 H 0.79288 0.83036 0.42500
 H1800 H 0.77805 0.81717 0.44397
 C1801 C 0.69750 0.29740 0.57809
 C1802 C 0.70672 0.30955 0.58830
 C1803 C 0.69840 0.31828 0.60201
 C1804 C 0.68079 0.31538 0.60562
 C1805 C 0.67159 0.30362 0.59517
 C1806 C 0.67979 0.29473 0.58164
 C1807 C 0.70700 0.28800 0.56389
 C1808 C 0.69929 0.27495 0.55364
 C1809 C 0.70877 0.26646 0.54069
 C1810 C 0.72611 0.27083 0.53751
 C1811 C 0.73391 0.28380 0.54763
 C1812 C 0.72459 0.29223 0.56087
 C1813 C 0.72419 0.31298 0.58476
 C1814 C 0.73288 0.30464 0.57123
 H1815 H 0.73125 0.32236 0.59252
 H1816 H 0.74637 0.30783 0.56897
 H1817 H 0.70578 0.32719 0.60997
 H1818 H 0.65792 0.30137 0.59728
 H1819 H 0.70245 0.25647 0.53310
 H1820 H 0.74738 0.28714 0.54544
 H1821 H 0.67197 0.28594 0.57407
 H1822 H 0.68604 0.27096 0.55550
 C1823 C 0.69912 0.80284 1.07650
 C1824 C 0.68725 0.79360 1.08685
 C1825 C 0.67860 0.80191 1.10060
 C1826 C 0.68126 0.81954 1.10412
 C1827 C 0.69266 0.82876 1.09346
 C1828 C 0.70150 0.82057 1.07989
 C1829 C 0.70857 0.79330 1.06234
 C1830 C 0.72151 0.80100 1.05209
 C1831 C 0.73007 0.79150 1.03921
 C1832 C 0.72588 0.77415 1.03609
 C1833 C 0.71302 0.76636 1.04622
 C1834 C 0.70455 0.77569 1.05942
 C1835 C 0.68402 0.77612 1.08342
 C1836 C 0.69233 0.76742 1.06987
 H1837 H 0.67484 0.76906 1.09127
 H1838 H 0.68930 0.75392 1.06770
 H1839 H 0.66998 0.79449 1.10870
 H1840 H 0.69471 0.84243 1.09548
 H1841 H 0.73997 0.79782 1.03160
 H1842 H 0.70984 0.75288 1.04407
 H1843 H 0.71002 0.82839 1.07216
 H1844 H 0.72537 0.81426 1.05391
 C1845 C 0.19664 0.30641 1.07554
 C1846 C 0.18491 0.29701 1.08592
 C1847 C 0.17643 0.30513 1.09990
 C1848 C 0.17920 0.32270 1.10365
 C1849 C 0.19033 0.33210 1.09288
 C1850 C 0.19895 0.32412 1.07906
 C1851 C 0.20612 0.29704 1.06131
 C1852 C 0.21903 0.30490 1.05116
 C1853 C 0.22783 0.29552 1.03838
 C1854 C 0.22389 0.27811 1.03523
 C1855 C 0.21096 0.27018 1.04515
 C1856 C 0.20226 0.27941 1.05830
 C1857 C 0.18175 0.27954 1.08232
 C1858 C 0.19007 0.27099 1.06868
 H1859 H 0.17266 0.27236 1.09017
 H1860 H 0.18716 0.25748 1.06643
 H1861 H 0.16795 0.29761 1.10806
 H1862 H 0.19239 0.34575 1.09506
 H1863 H 0.23777 0.30194 1.03092
 H1864 H 0.20797 0.25666 1.04297
 H1865 H 0.20730 0.33208 1.07130
 H1866 H 0.22276 0.31819 1.05304
 C1867 C 0.19235 0.80600 0.57379
 C1868 C 0.18074 0.79661 0.58431
 C1869 C 0.17238 0.80476 0.59836
 C1870 C 0.17521 0.82232 0.60206
 C1871 C 0.18615 0.83173 0.59110
 C1872 C 0.19462 0.82374 0.57721
 C1873 C 0.20179 0.79660 0.55956
 C1874 C 0.21463 0.80445 0.54930
 C1875 C 0.22342 0.79503 0.53654
 C1876 C 0.21957 0.77758 0.53353
 C1877 C 0.20671 0.76966 0.54357
 C1878 C 0.19801 0.77894 0.55668
 C1879 C 0.17762 0.77912 0.58082
 C1880 C 0.18591 0.77053 0.56718
 H1881 H 0.16861 0.77194 0.58876
 H1882 H 0.18304 0.75699 0.56502
 H1883 H 0.16401 0.79725 0.60665
 H1884 H 0.18822 0.84538 0.59326
 H1885 H 0.23330 0.80145 0.52899
 H1886 H 0.20378 0.75612 0.54150
 H1887 H 0.20286 0.83170 0.56932
 H1888 H 0.21830 0.81777 0.55107
 C1889 C 0.29594 0.70000 0.57780
 C1890 C 0.30761 0.70973 0.58810
 C1891 C 0.31594 0.70208 0.60228
 C1892 C 0.31308 0.68465 0.60627
 C1893 C 0.30186 0.67496 0.59568
 C1894 C 0.29339 0.68248 0.58170
 C1895 C 0.28689 0.70878 0.56313
 C1896 C 0.27424 0.70052 0.55284
 C1897 C 0.26601 0.70930 0.53947
 C1898 C 0.27023 0.72649 0.53589
 C1899 C 0.28283 0.73485 0.54603
 C1900 C 0.29099 0.72622 0.55973
 C1901 C 0.31096 0.72702 0.58417
 C1902 C 0.30298 0.73502 0.57018
 H1903 H 0.31997 0.73446 0.59198
 H1904 H 0.30607 0.74839 0.56764
 H1905 H 0.32448 0.70981 0.61031
 H1906 H 0.29971 0.66141 0.59803
 H1907 H 0.25632 0.70254 0.53187
 H1908 H 0.28603 0.74821 0.54351
 H1909 H 0.28502 0.67428 0.57406
 H1910 H 0.27034 0.68737 0.55498
 C1911 C 0.29903 0.19951 1.07954
 C1912 C 0.31068 0.20912 1.08998
 C1913 C 0.31886 0.20135 1.10418
 C1914 C 0.31588 0.18392 1.10806
 C1915 C 0.30470 0.17434 1.09732
 C1916 C 0.29637 0.18197 1.08332
 C1917 C 0.29011 0.20843 1.06488
 C1918 C 0.27745 0.20034 1.05445
 C1919 C 0.26938 0.20926 1.04106
 C1920 C 0.27378 0.22643 1.03761
 C1921 C 0.28636 0.23463 1.04792
 C1922 C 0.29435 0.22586 1.06161
 C1923 C 0.31416 0.22640 1.08618
 C1924 C 0.30632 0.23453 1.07219
 H1925 H 0.32316 0.23375 1.09410
 H1926 H 0.30952 0.24790 1.06975
 H1927 H 0.32737 0.20900 1.11232
 H1928 H 0.30246 0.16078 1.09960
 H1929 H 0.25969 0.20264 1.03334
 H1930 H 0.28971 0.24797 1.04551
 H1931 H 0.28802 0.17387 1.07556
 H1932 H 0.27343 0.18720 1.05649
 C1933 C 0.80067 0.69415 1.07770
 C1934 C 0.81273 0.70346 1.08794
 C1935 C 0.82076 0.69555 1.10213
 C1936 C 0.81717 0.67830 1.10625
 C1937 C 0.80561 0.66898 1.09571
 C1938 C 0.79746 0.67674 1.08167
 C1939 C 0.79183 0.70326 1.06311
 C1940 C 0.77884 0.69546 1.05289
 C1941 C 0.77069 0.70460 1.03974
 C1942 C 0.77532 0.72171 1.03627
 C1943 C 0.78835 0.72959 1.04626
 C1944 C 0.79644 0.72059 1.05976
 C1945 C 0.81666 0.72062 1.08399
 C1946 C 0.80883 0.72894 1.07011
 H1947 H 0.82598 0.72774 1.09175
 H1948 H 0.81234 0.74222 1.06759
 H1949 H 0.82957 0.70300 1.11014
 H1950 H 0.80289 0.65555 1.09822
 H1951 H 0.76068 0.69820 1.03223
 H1952 H 0.79190 0.74287 1.04382
 H1953 H 0.78875 0.66884 1.07410
 H1954 H 0.77459 0.68240 1.05496
 C1955 C 0.80248 0.19381 0.58051
 C1956 C 0.81404 0.20348 0.59100
 C1957 C 0.82215 0.19578 0.60527
 C1958 C 0.81917 0.17837 0.60921
 C1959 C 0.80811 0.16871 0.59841
 C1960 C 0.79986 0.17627 0.58431
 C1961 C 0.79357 0.20268 0.56580
 C1962 C 0.78100 0.19452 0.55531
 C1963 C 0.77288 0.20344 0.54195
 C1964 C 0.77715 0.22066 0.53857
 C1965 C 0.78968 0.22889 0.54891
 C1966 C 0.79772 0.22014 0.56257
 C1967 C 0.81745 0.22078 0.58720
 C1968 C 0.80962 0.22887 0.57319
 H1969 H 0.82639 0.22817 0.59515
 H1970 H 0.81275 0.24225 0.57077
 H1971 H 0.83057 0.20349 0.61346
 H1972 H 0.80588 0.15516 0.60074
 H1973 H 0.76323 0.19679 0.53420
 H1974 H 0.79293 0.24227 0.54656
 H1975 H 0.79158 0.16812 0.57653
 H1976 H 0.77708 0.18135 0.55731
 C1977 C 0.69698 0.69989 0.42321
 C1978 C 0.70609 0.68739 0.41328
 C1979 C 0.69772 0.67855 0.39969
 C1980 C 0.68019 0.68174 0.39592
 C1981 C 0.67108 0.69372 0.40622
 C1982 C 0.67931 0.70269 0.41963
 C1983 C 0.70657 0.70956 0.43714
 C1984 C 0.69901 0.72305 0.44692
 C1985 C 0.70854 0.73180 0.45960
 C1986 C 0.72580 0.72727 0.46298
 C1987 C 0.73347 0.71386 0.45331
 C1988 C 0.72409 0.70516 0.44031
 C1989 C 0.72349 0.68379 0.41696
 C1990 C 0.73223 0.69233 0.43031
 H1991 H 0.73045 0.67413 0.40945
 H1992 H 0.74567 0.68901 0.43268
 H1993 H 0.70501 0.66942 0.39188
 H1994 H 0.65746 0.69615 0.40400
 H1995 H 0.70231 0.74211 0.46686
 H1996 H 0.74688 0.71039 0.45566
 H1997 H 0.67155 0.71167 0.42706
 H1998 H 0.68583 0.72720 0.44489
 C1999 C 0.69703 0.19761 -0.07790
 C2000 C 0.68519 0.20707 -0.08808
 C2001 C 0.67654 0.19902 -0.10197
 C2002 C 0.67921 0.18145 -0.10580
 C2003 C 0.69049 0.17199 -0.09524
 C2004 C 0.69930 0.17992 -0.08154
 C2005 C 0.70658 0.20686 -0.06367
 C2006 C 0.71957 0.19894 -0.05368
 C2007 C 0.72830 0.20819 -0.04078
 C2008 C 0.72424 0.22552 -0.03736
 C2009 C 0.71130 0.23354 -0.04719
 C2010 C 0.70266 0.22445 -0.06044
 C2011 C 0.68204 0.22452 -0.08433
 C2012 C 0.69041 0.23295 -0.07067
 H2013 H 0.67288 0.23175 -0.09202
 H2014 H 0.68746 0.24643 -0.06827
 H2015 H 0.66795 0.20658 -0.10996
 H2016 H 0.69249 0.15834 -0.09745
 H2017 H 0.73826 0.20171 -0.03340
 H2018 H 0.70822 0.24701 -0.04481
 H2019 H 0.70773 0.17191 -0.07392
 H2020 H 0.72337 0.18569 -0.05575
 C2021 C 0.19701 0.69752 -0.07542
 C2022 C 0.20647 0.68572 -0.08587
 C2023 C 0.19834 0.67719 -0.09980
 C2024 C 0.18071 0.68000 -0.10341
 C2025 C 0.17124 0.69119 -0.09254
 C2026 C 0.17923 0.69985 -0.07879
 C2027 C 0.20637 0.70702 -0.06122
 C2028 C 0.19846 0.71999 -0.05100
 C2029 C 0.20782 0.72870 -0.03816
 C2030 C 0.22524 0.72463 -0.03504
 C2031 C 0.23325 0.71171 -0.04510
 C2032 C 0.22405 0.70309 -0.05829
 C2033 C 0.22400 0.68253 -0.08238
 C2034 C 0.23253 0.69086 -0.06875
 H2035 H 0.23123 0.67339 -0.09028
 H2036 H 0.24608 0.68789 -0.06657
 H2037 H 0.20588 0.66863 -0.10802
 H2038 H 0.15754 0.69326 -0.09459
 H2039 H 0.20135 0.73864 -0.03061
 H2040 H 0.24678 0.70863 -0.04296
 H2041 H 0.17122 0.70823 -0.07094
 H2042 H 0.18515 0.72379 -0.05284
 C2043 C 0.19450 0.19646 0.42376
 C2044 C 0.18302 0.20612 0.41336
 C2045 C 0.17461 0.19823 0.39922
 C2046 C 0.17722 0.18067 0.39531
 C2047 C 0.18815 0.17103 0.40607
 C2048 C 0.19669 0.17877 0.42005
 C2049 C 0.20384 0.20555 0.43825
 C2050 C 0.21645 0.19740 0.44854
 C2051 C 0.22512 0.20654 0.46157
 C2052 C 0.22136 0.22397 0.46483
 C2053 C 0.20872 0.23217 0.45477
 C2054 C 0.20015 0.22320 0.44139
 C2055 C 0.18002 0.22358 0.41710
 C2056 C 0.18824 0.23188 0.43093
 H2057 H 0.17113 0.23096 0.40923
 H2058 H 0.18545 0.24541 0.43329
 H2059 H 0.16630 0.20593 0.39107
 H2060 H 0.19009 0.15739 0.40377
 H2061 H 0.23483 0.19990 0.46913
 H2062 H 0.20586 0.24571 0.45703
 H2063 H 0.20488 0.17063 0.42779
 H2064 H 0.22003 0.18408 0.44659
 C2065 C 0.30486 0.42527 0.69671
 C2066 C 0.29536 0.41507 0.68475
 C2067 C 0.30336 0.40112 0.67618
 C2068 C 0.32090 0.39720 0.67908
 C2069 C 0.33041 0.40771 0.69054
 C2070 C 0.32254 0.42152 0.69925
 C2071 C 0.29561 0.43959 0.70614
 C2072 C 0.30354 0.44978 0.71912
 C2073 C 0.29424 0.46272 0.72777
 C2074 C 0.27686 0.46596 0.72362
 C2075 C 0.26887 0.45596 0.71065
 C2076 C 0.27800 0.44272 0.70208
 C2077 C 0.27792 0.41879 0.68141
 C2078 C 0.26948 0.43243 0.68975
 H2079 H 0.27067 0.41105 0.67216
 H2080 H 0.25598 0.43479 0.68669
 H2081 H 0.29574 0.39313 0.66750
 H2082 H 0.34404 0.40534 0.69276
 H2083 H 0.30071 0.47023 0.73775
 H2084 H 0.25537 0.45820 0.70747
 H2085 H 0.33056 0.42909 0.70787
 H2086 H 0.31683 0.44784 0.72297
 C2087 C 0.30278 0.92525 0.19639
 C2088 C 0.31435 0.91499 0.20607
 C2089 C 0.32294 0.90100 0.19814
 C2090 C 0.32046 0.89715 0.18047
 C2091 C 0.30941 0.90774 0.17081
 C2092 C 0.30067 0.92155 0.17861
 C2093 C 0.29330 0.93959 0.20552
 C2094 C 0.28061 0.94973 0.19734
 C2095 C 0.27185 0.96267 0.20650
 C2096 C 0.27559 0.96599 0.22399
 C2097 C 0.28829 0.95607 0.23225
 C2098 C 0.29696 0.94278 0.22324
 C2099 C 0.31730 0.91873 0.22362
 C2100 C 0.30894 0.93244 0.23196
 H2101 H 0.32625 0.91096 0.23103
 H2102 H 0.31171 0.93481 0.24554
 H2103 H 0.33133 0.89297 0.20588
 H2104 H 0.30754 0.90547 0.15709
 H2105 H 0.26209 0.97013 0.19982
 H2106 H 0.29112 0.95838 0.24583
 H2107 H 0.29241 0.92918 0.17044
 H2108 H 0.27705 0.94775 0.18397
 C2109 C 0.80050 0.42341 0.19723
 C2110 C 0.81239 0.41322 0.20661
 C2111 C 0.82095 0.39937 0.19841
 C2112 C 0.81812 0.39559 0.18079
 C2113 C 0.80673 0.40610 0.17143
 C2114 C 0.79801 0.41977 0.17949
 C2115 C 0.79109 0.43763 0.20662
 C2116 C 0.77813 0.44769 0.19876
 C2117 C 0.76946 0.46052 0.20816
 C2118 C 0.77355 0.46380 0.22558
 C2119 C 0.78653 0.45396 0.23351
 C2120 C 0.79512 0.44078 0.22427
 C2121 C 0.81569 0.41692 0.22410
 C2122 C 0.80739 0.43052 0.23268
 H2123 H 0.82489 0.40920 0.23127
 H2124 H 0.81043 0.43287 0.24620
 H2125 H 0.82963 0.39139 0.20589
 H2126 H 0.80459 0.40391 0.15775
 H2127 H 0.75948 0.46791 0.20173
 H2128 H 0.78963 0.45624 0.24704
 H2129 H 0.78950 0.42736 0.17155
 H2130 H 0.77429 0.44573 0.18547
 C2131 C 0.80329 0.92224 0.70078
 C2132 C 0.79411 0.91222 0.68842
 C2133 C 0.80240 0.89852 0.67971
 C2134 C 0.81992 0.89470 0.68288
 C2135 C 0.82909 0.90505 0.69476
 C2136 C 0.82094 0.91858 0.70360
 C2137 C 0.79378 0.93635 0.71027
 C2138 C 0.80142 0.94634 0.72358
 C2139 C 0.79195 0.95919 0.73216
 C2140 C 0.77468 0.96253 0.72764
 C2141 C 0.76694 0.95265 0.71442
 C2142 C 0.77626 0.93951 0.70589
 C2143 C 0.77671 0.91591 0.68481
 C2144 C 0.76804 0.92937 0.69322
 H2145 H 0.76970 0.90831 0.67527
 H2146 H 0.75460 0.93174 0.68990
 H2147 H 0.79506 0.89065 0.67067
 H2148 H 0.84271 0.90278 0.69718
 H2149 H 0.79822 0.96660 0.74233
 H2150 H 0.75353 0.95497 0.71095
 H2151 H 0.82874 0.92604 0.71251
 H2152 H 0.81461 0.94435 0.72771
 C2153 C 0.70087 0.57851 0.69301
 C2154 C 0.68898 0.58871 0.70263
 C2155 C 0.68073 0.60280 0.69488
 C2156 C 0.68380 0.60685 0.67744
 C2157 C 0.69526 0.59640 0.66782
 C2158 C 0.70370 0.58248 0.67546
 C2159 C 0.70981 0.56389 0.70195
 C2160 C 0.72264 0.55362 0.69387
 C2161 C 0.73071 0.54029 0.70284
 C2162 C 0.72612 0.53672 0.72002
 C2163 C 0.71336 0.54685 0.72817
 C2164 C 0.70537 0.56048 0.71938
 C2165 C 0.68534 0.58477 0.71992
 C2166 C 0.69321 0.57085 0.72806
 H2167 H 0.67617 0.59251 0.72728
 H2168 H 0.68988 0.56829 0.74143
 H2169 H 0.67207 0.61074 0.70260
 H2170 H 0.69763 0.59885 0.65426
 H2171 H 0.74055 0.53269 0.69626
 H2172 H 0.70987 0.54436 0.74153
 H2173 H 0.71228 0.57494 0.66735
 H2174 H 0.72678 0.55577 0.68073
 C2175 C 0.70218 0.08022 0.19631
 C2176 C 0.69044 0.09051 0.20603
 C2177 C 0.68224 0.10468 0.19835
 C2178 C 0.68525 0.10872 0.18089
 C2179 C 0.69660 0.09822 0.17121
 C2180 C 0.70497 0.08422 0.17877
 C2181 C 0.71100 0.06546 0.20514
 C2182 C 0.72361 0.05503 0.19692
 C2183 C 0.73157 0.04156 0.20578
 C2184 C 0.72710 0.03801 0.22299
 C2185 C 0.71455 0.04830 0.23129
 C2186 C 0.70666 0.06206 0.22260
 C2187 C 0.68689 0.08656 0.22334
 C2188 C 0.69468 0.07254 0.23139
 H2189 H 0.67784 0.09438 0.23077
 H2190 H 0.69141 0.06999 0.24478
 H2191 H 0.67366 0.11267 0.20610
 H2192 H 0.69892 0.10066 0.15764
 H2193 H 0.74124 0.03385 0.19908
 H2194 H 0.71114 0.04583 0.24466
 H2195 H 0.71345 0.07664 0.17060
 H2196 H 0.72765 0.05715 0.18374
 C2197 C 0.20327 0.57703 0.19622
 C2198 C 0.19111 0.58702 0.20571
 C2199 C 0.18237 0.60070 0.19774
 C2200 C 0.18526 0.60455 0.18022
 C2201 C 0.19700 0.59430 0.17073
 C2202 C 0.20590 0.58077 0.17858
 C2203 C 0.21274 0.56289 0.20541
 C2204 C 0.22583 0.55285 0.19747
 C2205 C 0.23435 0.53993 0.20667
 C2206 C 0.22996 0.53660 0.22395
 C2207 C 0.21698 0.54655 0.23197
 C2208 C 0.20852 0.55972 0.22294
 C2209 C 0.18769 0.58333 0.22310
 C2210 C 0.19607 0.56986 0.23147
 H2211 H 0.17831 0.59092 0.23034
 H2212 H 0.19290 0.56748 0.24492
 H2213 H 0.17352 0.60852 0.20536
 H2214 H 0.19926 0.59663 0.15713
 H2215 H 0.24435 0.53247 0.20018
 H2216 H 0.21362 0.54424 0.24539
 H2217 H 0.21470 0.57337 0.17058
 H2218 H 0.22980 0.55484 0.18425
 C2219 C 0.20213 0.07685 0.69702
 C2220 C 0.19003 0.08675 0.70668
 C2221 C 0.18145 0.10067 0.69898
 C2222 C 0.18439 0.10484 0.68154
 C2223 C 0.19606 0.09468 0.67188
 C2224 C 0.20484 0.08092 0.67947
 C2225 C 0.21144 0.06243 0.70594
 C2226 C 0.22451 0.05248 0.69786
 C2227 C 0.23290 0.03931 0.70682
 C2228 C 0.22839 0.03561 0.72399
 C2229 C 0.21541 0.04546 0.73215
 C2230 C 0.20710 0.05890 0.72338
 C2231 C 0.18650 0.08270 0.72397
 C2232 C 0.19471 0.06896 0.73207
 H2233 H 0.17716 0.09022 0.73134
 H2234 H 0.19144 0.06632 0.74544
 H2235 H 0.17265 0.10840 0.70675
 H2236 H 0.19837 0.09723 0.65832
 H2237 H 0.24291 0.03194 0.70024
 H2238 H 0.21196 0.04287 0.74550
 H2239 H 0.21359 0.07360 0.67135
 H2240 H 0.22859 0.05474 0.68471
 C2241 C 0.30794 0.57764 0.30178
 C2242 C 0.29824 0.58784 0.31363
 C2243 C 0.30610 0.60171 0.32239
 C2244 C 0.32373 0.60554 0.31987
 C2245 C 0.33341 0.59510 0.30845
 C2246 C 0.32566 0.58139 0.29950
 C2247 C 0.29886 0.56327 0.29229
 C2248 C 0.30701 0.55301 0.27947
 C2249 C 0.29790 0.53991 0.27088
 C2250 C 0.28050 0.53660 0.27495
 C2251 C 0.27228 0.54673 0.28769
 C2252 C 0.28122 0.56010 0.29619
 C2253 C 0.28075 0.58414 0.31672
 C2254 C 0.27248 0.57046 0.30833
 H2255 H 0.27334 0.59188 0.32586
 H2256 H 0.25894 0.56808 0.31126
 H2257 H 0.29833 0.60966 0.33099
 H2258 H 0.34709 0.59741 0.30648
 H2259 H 0.30453 0.53231 0.26106
 H2260 H 0.25877 0.54444 0.29078
 H2261 H 0.33381 0.57384 0.29096
 H2262 H 0.32033 0.55499 0.27574
 C2263 C 0.30548 0.07530 0.80331
 C2264 C 0.29578 0.08549 0.81517
 C2265 C 0.30363 0.09949 0.82380
 C2266 C 0.32117 0.10347 0.82099
 C2267 C 0.33087 0.09291 0.80970
 C2268 C 0.32318 0.07906 0.80097
 C2269 C 0.29643 0.06098 0.79375
 C2270 C 0.30461 0.05089 0.78082
 C2271 C 0.29552 0.03796 0.77201
 C2272 C 0.27809 0.03462 0.77592
 C2273 C 0.26984 0.04452 0.78883
 C2274 C 0.27878 0.05777 0.79758
 C2275 C 0.27831 0.08169 0.81830
 C2276 C 0.27005 0.06802 0.80983
 H2277 H 0.27090 0.08940 0.82746
 H2278 H 0.25652 0.06561 0.81273
 H2279 H 0.29591 0.10750 0.83241
 H2280 H 0.34453 0.09529 0.80762
 H2281 H 0.30220 0.03053 0.76209
 H2282 H 0.25630 0.04219 0.79182
 H2283 H 0.33136 0.07147 0.79251
 H2284 H 0.31793 0.05290 0.77713
 C2285 C 0.80365 0.57639 0.79791
 C2286 C 0.79406 0.58670 0.80975
 C2287 C 0.80205 0.60060 0.81840
 C2288 C 0.81967 0.60433 0.81571
 C2289 C 0.82922 0.59379 0.80428
 C2290 C 0.82137 0.58006 0.79548
 C2291 C 0.79449 0.56200 0.78855
 C2292 C 0.80259 0.55163 0.77580
 C2293 C 0.79341 0.53858 0.76725
 C2294 C 0.77597 0.53540 0.77127
 C2295 C 0.76781 0.54559 0.78401
 C2296 C 0.77683 0.55894 0.79249
 C2297 C 0.77657 0.58308 0.81293
 C2298 C 0.76819 0.56940 0.80462
 H2299 H 0.76923 0.59090 0.82207
 H2300 H 0.75465 0.56710 0.80759
 H2301 H 0.79441 0.60862 0.82705
 H2302 H 0.84291 0.59601 0.80221
 H2303 H 0.80001 0.53093 0.75745
 H2304 H 0.75427 0.54339 0.78708
 H2305 H 0.82945 0.57245 0.78694
 H2306 H 0.81592 0.55349 0.77206
 C2307 C 0.80625 0.07600 0.30091
 C2308 C 0.79710 0.08595 0.31338
 C2309 C 0.80537 0.09967 0.32205
 C2310 C 0.82283 0.10360 0.31870
 C2311 C 0.83199 0.09332 0.30672
 C2312 C 0.82387 0.07975 0.29794
 C2313 C 0.79675 0.06192 0.29143
 C2314 C 0.80436 0.05199 0.27804
 C2315 C 0.79486 0.03925 0.26938
 C2316 C 0.77757 0.03596 0.27389
 C2317 C 0.76988 0.04572 0.28726
 C2318 C 0.77923 0.05875 0.29587
 C2319 C 0.77974 0.08221 0.31710
 C2320 C 0.77105 0.06879 0.30866
 H2321 H 0.77274 0.08975 0.32673
 H2322 H 0.75763 0.06641 0.31204
 H2323 H 0.79804 0.10749 0.33117
 H2324 H 0.84557 0.09570 0.30416
 H2325 H 0.80110 0.03192 0.25910
 H2326 H 0.75646 0.04342 0.29074
 H2327 H 0.83165 0.07236 0.28893
 H2328 H 0.81756 0.05396 0.27389
 C2329 C 0.70092 0.41824 0.30450
 C2330 C 0.68923 0.40782 0.29491
 C2331 C 0.68150 0.39338 0.30260
 C2332 C 0.68495 0.38920 0.31993
 C2333 C 0.69625 0.39982 0.32949
 C2334 C 0.70415 0.41408 0.32192
 C2335 C 0.70925 0.43326 0.29566
 C2336 C 0.72178 0.44384 0.30375
 C2337 C 0.72935 0.45752 0.29487
 C2338 C 0.72455 0.46113 0.27777
 C2339 C 0.71204 0.45073 0.26962
 C2340 C 0.70454 0.43676 0.27833
 C2341 C 0.68526 0.41189 0.27773
 C2342 C 0.69262 0.42614 0.26968
 H2343 H 0.67624 0.40398 0.27040
 H2344 H 0.68906 0.42877 0.25638
 H2345 H 0.67293 0.38531 0.29494
 H2346 H 0.69890 0.39726 0.34297
 H2347 H 0.73900 0.46531 0.30146
 H2348 H 0.70838 0.45328 0.25633
 H2349 H 0.71262 0.42173 0.33001
 H2350 H 0.72609 0.44168 0.31683
 C2351 C 0.69561 0.92118 0.80362
 C2352 C 0.70539 0.91110 0.81527
 C2353 C 0.69774 0.89689 0.82346
 C2354 C 0.68027 0.89261 0.82049
 C2355 C 0.67048 0.90307 0.80942
 C2356 C 0.67799 0.91710 0.80109
 C2357 C 0.70449 0.93573 0.79451
 C2358 C 0.69627 0.94569 0.78174
 C2359 C 0.70522 0.95882 0.77332
 C2360 C 0.72253 0.96251 0.77749
 C2361 C 0.73081 0.95274 0.79027
 C2362 C 0.72203 0.93927 0.79859
 C2363 C 0.72275 0.91522 0.81865
 C2364 C 0.73082 0.92912 0.81065
 H2365 H 0.73021 0.90760 0.82767
 H2366 H 0.74427 0.93178 0.81374
 H2367 H 0.70557 0.88899 0.83188
 H2368 H 0.65688 0.90048 0.80720
 H2369 H 0.69853 0.96614 0.76349
 H2370 H 0.74425 0.95533 0.79345
 H2371 H 0.66975 0.92460 0.79277
 H2372 H 0.68305 0.94342 0.77785
 C2373 C 0.20169 0.42200 0.80135
 C2374 C 0.18998 0.41168 0.79168
 C2375 C 0.18185 0.39748 0.79940
 C2376 C 0.18490 0.39346 0.81685
 C2377 C 0.19618 0.40404 0.82649
 C2378 C 0.20449 0.41805 0.81889
 C2379 C 0.21049 0.43674 0.79247
 C2380 C 0.22312 0.44715 0.80063
 C2381 C 0.23107 0.46061 0.79174
 C2382 C 0.22656 0.46416 0.77455
 C2383 C 0.21400 0.45388 0.76630
 C2384 C 0.20613 0.44014 0.77503
 C2385 C 0.18640 0.41561 0.77437
 C2386 C 0.19415 0.42963 0.76629
 H2387 H 0.17737 0.40777 0.76698
 H2388 H 0.19087 0.43218 0.75291
 H2389 H 0.17328 0.38945 0.79169
 H2390 H 0.19851 0.40165 0.84006
 H2391 H 0.24077 0.46830 0.79838
 H2392 H 0.21057 0.45636 0.75294
 H2393 H 0.21292 0.42568 0.82704
 H2394 H 0.22720 0.44503 0.81379
 C2395 C 0.19857 0.92375 0.30229
 C2396 C 0.18676 0.91363 0.29254
 C2397 C 0.17822 0.89968 0.30025
 C2398 C 0.18094 0.89569 0.31776
 C2399 C 0.19231 0.90608 0.32750
 C2400 C 0.20103 0.91987 0.31991
 C2401 C 0.20788 0.93817 0.29338
 C2402 C 0.22067 0.94834 0.30159
 C2403 C 0.22911 0.96147 0.29263
 C2404 C 0.22495 0.96492 0.27533
 C2405 C 0.21223 0.95488 0.26704
 C2406 C 0.20387 0.94147 0.27582
 C2407 C 0.18352 0.91747 0.27515
 C2408 C 0.19174 0.93119 0.26704
 H2409 H 0.17440 0.90978 0.26771
 H2410 H 0.18871 0.93367 0.25358
 H2411 H 0.16965 0.89178 0.29242
 H2412 H 0.19442 0.90365 0.34110
 H2413 H 0.23890 0.96900 0.29933
 H2414 H 0.20905 0.95728 0.25360
 H2415 H 0.20954 0.92736 0.32811
 H2416 H 0.22449 0.94627 0.31483
 C2417 C 0.42140 0.30132 0.69629
 C2418 C 0.41121 0.31324 0.70586
 C2419 C 0.39731 0.32178 0.69788
 C2420 C 0.39350 0.31888 0.68029
 C2421 C 0.40400 0.30742 0.67074
 C2422 C 0.41770 0.29875 0.67858
 C2423 C 0.43573 0.29203 0.70542
 C2424 C 0.44583 0.27911 0.69734
 C2425 C 0.45887 0.27066 0.70645
 C2426 C 0.46230 0.27492 0.72381
 C2427 C 0.45234 0.28779 0.73199
 C2428 C 0.43897 0.29617 0.72303
 C2429 C 0.41497 0.31662 0.72332
 C2430 C 0.42867 0.30842 0.73166
 H2431 H 0.40725 0.32583 0.73065
 H2432 H 0.43109 0.31156 0.74516
 H2433 H 0.38934 0.33049 0.70550
 H2434 H 0.40177 0.30523 0.65707
 H2435 H 0.46634 0.26076 0.69983
 H2436 H 0.45474 0.29103 0.74548
 H2437 H 0.42528 0.29019 0.67049
 H2438 H 0.44379 0.27516 0.68407
 C2439 C 0.42407 0.80592 0.19972
 C2440 C 0.41357 0.79631 0.18812
 C2441 C 0.39972 0.80429 0.17956
 C2442 C 0.39622 0.82194 0.18208
 C2443 C 0.40699 0.83152 0.19323
 C2444 C 0.42068 0.82366 0.20195
 C2445 C 0.43836 0.79676 0.20906
 C2446 C 0.44881 0.80488 0.22168
 C2447 C 0.46178 0.79571 0.23020
 C2448 C 0.46479 0.77827 0.22627
 C2449 C 0.45449 0.77005 0.21370
 C2450 C 0.44121 0.77907 0.20527
 C2451 C 0.41696 0.77878 0.18509
 C2452 C 0.43060 0.77040 0.19333
 H2453 H 0.40899 0.77143 0.17612
 H2454 H 0.43272 0.75685 0.19047
 H2455 H 0.39151 0.79662 0.17113
 H2456 H 0.40497 0.84521 0.19515
 H2457 H 0.46953 0.80235 0.23987
 H2458 H 0.45656 0.75651 0.21072
 H2459 H 0.42849 0.83176 0.21027
 H2460 H 0.44709 0.81823 0.22534
 C2461 C 0.92389 0.30659 0.19650
 C2462 C 0.91391 0.29720 0.18427
 C2463 C 0.90008 0.30521 0.17568
 C2464 C 0.89611 0.32267 0.17880
 C2465 C 0.90649 0.33208 0.19046
 C2466 C 0.92015 0.32419 0.19921
 C2467 C 0.93803 0.29734 0.20598
 C2468 C 0.94784 0.30515 0.21931
 C2469 C 0.96066 0.29589 0.22796
 C2470 C 0.96416 0.27867 0.22346
 C2471 C 0.95449 0.27077 0.21020
 C2472 C 0.94135 0.27986 0.20164
 C2473 C 0.91775 0.27987 0.18069
 C2474 C 0.93131 0.27145 0.18903
 H2475 H 0.91020 0.27270 0.17123
 H2476 H 0.93379 0.25805 0.18574
 H2477 H 0.89222 0.29767 0.16681
 H2478 H 0.90414 0.34565 0.19283
 H2479 H 0.96791 0.30228 0.23817
 H2480 H 0.95694 0.25739 0.20677
 H2481 H 0.92762 0.33215 0.20797
 H2482 H 0.94569 0.31831 0.22343
 C2483 C 0.92309 0.80333 0.70050
 C2484 C 0.91294 0.79381 0.68852
 C2485 C 0.89895 0.80173 0.68007
 C2486 C 0.89501 0.81921 0.68314
 C2487 C 0.90549 0.82870 0.69463
 C2488 C 0.91929 0.82092 0.70321
 C2489 C 0.93747 0.79425 0.70975
 C2490 C 0.94751 0.80228 0.72277
 C2491 C 0.96056 0.79321 0.73122
 C2492 C 0.96408 0.77596 0.72688
 C2493 C 0.95422 0.76783 0.71390
 C2494 C 0.94083 0.77675 0.70550
 C2495 C 0.91682 0.77647 0.68501
 C2496 C 0.93058 0.76818 0.69317
 H2497 H 0.90914 0.76919 0.67574
 H2498 H 0.93308 0.75477 0.68995
 H2499 H 0.89100 0.79416 0.67130
 H2500 H 0.90316 0.84229 0.69693
 H2501 H 0.96795 0.79979 0.74121
 H2502 H 0.95670 0.75443 0.71060
 H2503 H 0.92684 0.82897 0.71180
 H2504 H 0.94538 0.81546 0.72680
 C2505 C 0.57882 0.30054 0.30418
 C2506 C 0.58930 0.29067 0.31539
 C2507 C 0.60358 0.29830 0.32377
 C2508 C 0.60755 0.31582 0.32138
 C2509 C 0.59669 0.32568 0.31076
 C2510 C 0.58257 0.31820 0.30227
 C2511 C 0.56420 0.29172 0.29483
 C2512 C 0.55384 0.30008 0.28245
 C2513 C 0.54065 0.29120 0.27379
 C2514 C 0.53731 0.27381 0.27732
 C2515 C 0.54748 0.26537 0.28969
 C2516 C 0.56101 0.27410 0.29826
 C2517 C 0.58551 0.27324 0.31814
 C2518 C 0.57156 0.26519 0.30991
 H2519 H 0.59344 0.26569 0.32682
 H2520 H 0.56917 0.25169 0.31251
 H2521 H 0.61180 0.29044 0.33186
 H2522 H 0.59904 0.33930 0.30902
 H2523 H 0.53301 0.29802 0.26429
 H2524 H 0.54516 0.25186 0.29237
 H2525 H 0.57476 0.32650 0.29431
 H2526 H 0.55582 0.31338 0.27906
 C2527 C 0.57913 0.79747 0.80191
 C2528 C 0.58929 0.80937 0.79254
 C2529 C 0.60349 0.81757 0.80050
 C2530 C 0.60765 0.81439 0.81791
 C2531 C 0.59721 0.80291 0.82726
 C2532 C 0.58321 0.79455 0.81942
 C2533 C 0.56441 0.78860 0.79278
 C2534 C 0.55420 0.77577 0.80060
 C2535 C 0.54078 0.76774 0.79146
 C2536 C 0.53706 0.77238 0.77436
 C2537 C 0.54712 0.78517 0.76645
 C2538 C 0.56085 0.79311 0.77541
 C2539 C 0.58521 0.81310 0.77530
 C2540 C 0.57118 0.80529 0.76699
 H2541 H 0.59292 0.82228 0.76814
 H2542 H 0.56852 0.80869 0.75367
 H2543 H 0.61140 0.82627 0.79300
 H2544 H 0.59971 0.80047 0.84080
 H2545 H 0.53324 0.75788 0.79786
 H2546 H 0.54452 0.78870 0.75314
 H2547 H 0.57569 0.78596 0.82735
 H2548 H 0.55646 0.77157 0.81368
 C2549 C 0.07842 0.30420 0.80118
 C2550 C 0.08840 0.29504 0.81340
 C2551 C 0.10260 0.30299 0.82157
 C2552 C 0.10697 0.32022 0.81809
 C2553 C 0.09665 0.32943 0.80638
 C2554 C 0.08264 0.32157 0.79801
 C2555 C 0.06380 0.29498 0.79221
 C2556 C 0.05387 0.30250 0.77895
 C2557 C 0.04061 0.29323 0.77079
 C2558 C 0.03677 0.27630 0.77573
 C2559 C 0.04653 0.26872 0.78896
 C2560 C 0.06011 0.27779 0.79702
 C2561 C 0.08416 0.27798 0.81743
 C2562 C 0.07020 0.26962 0.80958
 H2563 H 0.09172 0.27098 0.82688
 H2564 H 0.06743 0.25643 0.81321
 H2565 H 0.11039 0.29556 0.83045
 H2566 H 0.09930 0.34283 0.80369
 H2567 H 0.03330 0.29937 0.76058
 H2568 H 0.04385 0.25555 0.79273
 H2569 H 0.07523 0.32935 0.78920
 H2570 H 0.05627 0.31543 0.77451
 C2571 C 0.07799 0.80371 0.29565
 C2572 C 0.08131 0.80005 0.31325
 C2573 C 0.09493 0.80840 0.32201
 C2574 C 0.10570 0.82017 0.31342
 C2575 C 0.10242 0.82365 0.29591
 C2576 C 0.08877 0.81561 0.28715
 C2577 C 0.06335 0.79447 0.28676
 C2578 C 0.05857 0.79764 0.26946
 C2579 C 0.04511 0.78841 0.26165
 C2580 C 0.03608 0.77571 0.27081
 C2581 C 0.04051 0.77267 0.28814
 C2582 C 0.05392 0.78201 0.29619
 C2583 C 0.07120 0.78789 0.32197
 C2584 C 0.05792 0.77895 0.31358
 H2585 H 0.07375 0.78505 0.33545
 H2586 H 0.05063 0.76950 0.32084
 H2587 H 0.09709 0.80568 0.33556
 H2588 H 0.11064 0.83237 0.28877
 H2589 H 0.04193 0.79108 0.24828
 H2590 H 0.03349 0.76303 0.29542
 H2591 H 0.08709 0.81872 0.27368
 H2592 H 0.06504 0.80718 0.26172
 C2593 C 0.57803 0.69621 0.69600
 C2594 C 0.58860 0.70607 0.68485
 C2595 C 0.60290 0.69843 0.67649
 C2596 C 0.60681 0.68089 0.67879
 C2597 C 0.59596 0.67105 0.68946
 C2598 C 0.58182 0.67857 0.69797
 C2599 C 0.56329 0.70505 0.70520
 C2600 C 0.55272 0.69669 0.71743
 C2601 C 0.53942 0.70559 0.72594
 C2602 C 0.53617 0.72300 0.72240
 C2603 C 0.54652 0.73142 0.71014
 C2604 C 0.56014 0.72267 0.70174
 C2605 C 0.58485 0.72351 0.68208
 C2606 C 0.57083 0.73158 0.69019
 H2607 H 0.59287 0.73105 0.67345
 H2608 H 0.56847 0.74508 0.68758
 H2609 H 0.61113 0.70630 0.66842
 H2610 H 0.59828 0.65742 0.69119
 H2611 H 0.53164 0.69880 0.73537
 H2612 H 0.54427 0.74493 0.70746
 H2613 H 0.57400 0.67029 0.70595
 H2614 H 0.55464 0.68337 0.72081
 C2615 C 0.57828 0.19650 0.19832
 C2616 C 0.58847 0.20627 0.18674
 C2617 C 0.60262 0.19861 0.17814
 C2618 C 0.60675 0.18115 0.18065
 C2619 C 0.59621 0.17138 0.19170
 C2620 C 0.58222 0.17891 0.20042
 C2621 C 0.56376 0.20538 0.20784
 C2622 C 0.55361 0.19712 0.22048
 C2623 C 0.54049 0.20605 0.22925
 C2624 C 0.53701 0.22339 0.22557
 C2625 C 0.54698 0.23171 0.21293
 C2626 C 0.56041 0.22294 0.20424
 C2627 C 0.58453 0.22365 0.18385
 C2628 C 0.57070 0.23174 0.19227
 H2629 H 0.59225 0.23111 0.17490
 H2630 H 0.56818 0.24520 0.18955
 H2631 H 0.61061 0.20641 0.16976
 H2632 H 0.59872 0.15781 0.19359
 H2633 H 0.53302 0.19932 0.23896
 H2634 H 0.54455 0.24517 0.21012
 H2635 H 0.57466 0.17069 0.20870
 H2636 H 0.55570 0.18386 0.22398
 C2637 C 0.07998 0.69439 0.20027
 C2638 C 0.08365 0.69825 0.18276
 C2639 C 0.09766 0.69025 0.17425
 C2640 C 0.10848 0.67862 0.18298
 C2641 C 0.10487 0.67498 0.20041
 C2642 C 0.09084 0.68268 0.20892
 C2643 C 0.06491 0.70324 0.20890
 C2644 C 0.05979 0.69981 0.22605
 C2645 C 0.04594 0.70871 0.23364
 C2646 C 0.03686 0.72130 0.22440
 C2647 C 0.04163 0.72457 0.20719
 C2648 C 0.05544 0.71557 0.19936
 C2649 C 0.07347 0.71026 0.17392
 C2650 C 0.05979 0.71886 0.18209
 H2651 H 0.07628 0.71326 0.16052
 H2652 H 0.05247 0.72821 0.17474
 H2653 H 0.10009 0.69310 0.16076
 H2654 H 0.11310 0.66640 0.20767
 H2655 H 0.04251 0.70586 0.24692
 H2656 H 0.03459 0.73414 0.19984
 H2657 H 0.08892 0.67946 0.22234
 H2658 H 0.06627 0.69034 0.23386
 C2659 C 0.08007 0.19542 0.70364
 C2660 C 0.08353 0.19932 0.68610
 C2661 C 0.09736 0.19124 0.67737
 C2662 C 0.10822 0.17951 0.68591
 C2663 C 0.10482 0.17582 0.70336
 C2664 C 0.09096 0.18359 0.71210
 C2665 C 0.06518 0.20434 0.71249
 C2666 C 0.06022 0.20087 0.72969
 C2667 C 0.04652 0.20982 0.73748
 C2668 C 0.03742 0.22252 0.72840
 C2669 C 0.04204 0.22585 0.71116
 C2670 C 0.05569 0.21679 0.70313
 C2671 C 0.07335 0.21145 0.67744
 C2672 C 0.05985 0.22012 0.68582
 H2673 H 0.07601 0.21448 0.66402
 H2674 H 0.05251 0.22956 0.67860
 H2675 H 0.09962 0.19413 0.66386
 H2676 H 0.11308 0.16714 0.71048
 H2677 H 0.04319 0.20694 0.75077
 H2678 H 0.03498 0.23549 0.70393
 H2679 H 0.08918 0.18033 0.72552
 H2680 H 0.06673 0.19131 0.73738
 C2681 C 0.42387 0.70165 0.30549
 C2682 C 0.41389 0.68950 0.29602
 C2683 C 0.40030 0.68065 0.30413
 C2684 C 0.39658 0.68336 0.32178
 C2685 C 0.40682 0.69511 0.33122
 C2686 C 0.42023 0.70416 0.32322
 C2687 C 0.43797 0.71118 0.29619
 C2688 C 0.44795 0.72429 0.30411
 C2689 C 0.46089 0.73280 0.29484
 C2690 C 0.46432 0.72839 0.27751
 C2691 C 0.45440 0.71542 0.26948
 C2692 C 0.44118 0.70698 0.27858
 C2693 C 0.41756 0.68616 0.27854
 C2694 C 0.43104 0.69456 0.27006
 H2695 H 0.40998 0.67678 0.27130
 H2696 H 0.43343 0.69141 0.25655
 H2697 H 0.39250 0.67178 0.29654
 H2698 H 0.40462 0.69725 0.34491
 H2699 H 0.46832 0.74280 0.30132
 H2700 H 0.45677 0.71206 0.25602
 H2701 H 0.42765 0.71293 0.33121
 H2702 H 0.44590 0.72828 0.31737
 C2703 C 0.42221 0.19659 0.80131
 C2704 C 0.41185 0.20611 0.81316
 C2705 C 0.39804 0.19806 0.82178
 C2706 C 0.39448 0.18046 0.81906
 C2707 C 0.40517 0.17098 0.80771
 C2708 C 0.41879 0.17889 0.79894
 C2709 C 0.43641 0.20580 0.79189
 C2710 C 0.44663 0.19778 0.77898
 C2711 C 0.45953 0.20696 0.77039
 C2712 C 0.46271 0.22432 0.77450
 C2713 C 0.45263 0.23246 0.78735
 C2714 C 0.43940 0.22342 0.79586
 C2715 C 0.41535 0.22358 0.81637
 C2716 C 0.42895 0.23199 0.80806
 H2717 H 0.40750 0.23086 0.82552
 H2718 H 0.43117 0.24550 0.81106
 H2719 H 0.38993 0.20564 0.83042
 H2720 H 0.40315 0.15731 0.80567
 H2721 H 0.46710 0.20038 0.76050
 H2722 H 0.45484 0.24595 0.79046
 H2723 H 0.42653 0.17085 0.79047
 H2724 H 0.44477 0.18450 0.77515
 C2725 C 0.92379 0.69549 0.80203
 C2726 C 0.91342 0.70461 0.81418
 C2727 C 0.89951 0.69632 0.82241
 C2728 C 0.89581 0.67888 0.81894
 C2729 C 0.90649 0.66976 0.80728
 C2730 C 0.92024 0.67791 0.79892
 C2731 C 0.93808 0.70499 0.79302
 C2732 C 0.94839 0.69739 0.77993
 C2733 C 0.96134 0.70686 0.77171
 C2734 C 0.96447 0.72411 0.77639
 C2735 C 0.95433 0.73179 0.78946
 C2736 C 0.94107 0.72246 0.79762
 C2737 C 0.91698 0.72194 0.81806
 C2738 C 0.93061 0.73062 0.81009
 H2739 H 0.90912 0.72891 0.82744
 H2740 H 0.93284 0.74401 0.81358
 H2741 H 0.89140 0.70362 0.83128
 H2742 H 0.90431 0.65621 0.80464
 H2743 H 0.96895 0.70062 0.76165
 H2744 H 0.95650 0.74518 0.79305
 H2745 H 0.92794 0.67016 0.79016
 H2746 H 0.94657 0.68424 0.77567
 C2747 C 0.92316 0.19767 0.29869
 C2748 C 0.91305 0.20678 0.31105
 C2749 C 0.89947 0.19843 0.31974
 C2750 C 0.89593 0.18089 0.31659
 C2751 C 0.90634 0.17181 0.30466
 C2752 C 0.91971 0.18004 0.29581
 C2753 C 0.93720 0.20719 0.28933
 C2754 C 0.94724 0.19959 0.27602
 C2755 C 0.96011 0.20902 0.26765
 C2756 C 0.96344 0.22621 0.27237
 C2757 C 0.95347 0.23394 0.28555
 C2758 C 0.94029 0.22466 0.29388
 C2759 C 0.91659 0.22415 0.31476
 C2760 C 0.93004 0.23284 0.30651
 H2761 H 0.90892 0.23112 0.32430
 H2762 H 0.93233 0.24623 0.30993
 H2763 H 0.89156 0.20571 0.32880
 H2764 H 0.90432 0.15820 0.30225
 H2765 H 0.96758 0.20276 0.25748
 H2766 H 0.95578 0.24729 0.28916
 H2767 H 0.92726 0.17230 0.28690
 H2768 H 0.94528 0.18646 0.27174
 C2769 C 0.30268 0.30297 0.57601
 C2770 C 0.29335 0.31503 0.58628
 C2771 C 0.30156 0.32361 0.60014
 C2772 C 0.31911 0.32055 0.60390
 C2773 C 0.32843 0.30900 0.59330
 C2774 C 0.32038 0.30032 0.57959
 C2775 C 0.29326 0.29353 0.56181
 C2776 C 0.30108 0.28049 0.55161
 C2777 C 0.29165 0.27180 0.53881
 C2778 C 0.27424 0.27593 0.53572
 C2779 C 0.26634 0.28897 0.54572
 C2780 C 0.27563 0.29761 0.55883
 C2781 C 0.27589 0.31843 0.58270
 C2782 C 0.26727 0.31003 0.56917
 H2783 H 0.26876 0.32774 0.59047
 H2784 H 0.25376 0.31314 0.56693
 H2785 H 0.29411 0.33241 0.60820
 H2786 H 0.34207 0.30669 0.59553
 H2787 H 0.29807 0.26179 0.53130
 H2788 H 0.25283 0.29215 0.54356
 H2789 H 0.32829 0.29165 0.57196
 H2790 H 0.31437 0.27663 0.55343
 C2791 C 0.30564 0.80247 0.07762
 C2792 C 0.29603 0.81425 0.08796
 C2793 C 0.30401 0.82293 0.10187
 C2794 C 0.32165 0.82036 0.10558
 C2795 C 0.33124 0.80905 0.09495
 C2796 C 0.32339 0.80021 0.08121
 C2797 C 0.29645 0.79299 0.06330
 C2798 C 0.30453 0.78018 0.05300
 C2799 C 0.29533 0.77153 0.04000
 C2800 C 0.27789 0.77549 0.03680
 C2801 C 0.26973 0.78825 0.04694
 C2802 C 0.27877 0.79682 0.06025
 C2803 C 0.27850 0.81732 0.08437
 C2804 C 0.27012 0.80894 0.07070
 H2805 H 0.27116 0.82642 0.09221
 H2806 H 0.25657 0.81183 0.06842
 H2807 H 0.29633 0.83149 0.10995
 H2808 H 0.34495 0.80708 0.09713
 H2809 H 0.30193 0.76171 0.03239
 H2810 H 0.25619 0.79127 0.04473
 H2811 H 0.33149 0.79176 0.07353
 H2812 H 0.31787 0.77649 0.05489
 C2813 C 0.80246 0.30561 0.07526
 C2814 C 0.81456 0.29624 0.08522
 C2815 C 0.82308 0.30425 0.09923
 C2816 C 0.81996 0.32167 0.10342
 C2817 C 0.80841 0.33104 0.09307
 C2818 C 0.79977 0.32318 0.07924
 C2819 C 0.79304 0.29638 0.06093
 C2820 C 0.77986 0.30421 0.05110
 C2821 C 0.77122 0.29497 0.03814
 C2822 C 0.77555 0.27775 0.03448
 C2823 C 0.78871 0.26984 0.04412
 C2824 C 0.79728 0.27892 0.05742
 C2825 C 0.81807 0.27893 0.08117
 C2826 C 0.80977 0.27052 0.06745
 H2827 H 0.82744 0.27177 0.08870
 H2828 H 0.81298 0.25714 0.06483
 H2829 H 0.83190 0.29676 0.10705
 H2830 H 0.80607 0.34459 0.09559
 H2831 H 0.76109 0.30137 0.03092
 H2832 H 0.79202 0.25646 0.04155
 H2833 H 0.79110 0.33112 0.07182
 H2834 H 0.77584 0.31736 0.05336
 C2835 C 0.80647 0.80380 0.57629
 C2836 C 0.79688 0.81557 0.58665
 C2837 C 0.80478 0.82396 0.60078
 C2838 C 0.82233 0.82107 0.60472
 C2839 C 0.83193 0.80984 0.59402
 C2840 C 0.82416 0.80130 0.58004
 C2841 C 0.79733 0.79454 0.56179
 C2842 C 0.80535 0.78169 0.55150
 C2843 C 0.79615 0.77320 0.53839
 C2844 C 0.77878 0.77736 0.53508
 C2845 C 0.77069 0.79018 0.54520
 C2846 C 0.77972 0.79859 0.55862
 C2847 C 0.77944 0.81890 0.58289
 C2848 C 0.77111 0.81074 0.56906
 H2849 H 0.77212 0.82801 0.59074
 H2850 H 0.75761 0.81380 0.56667
 H2851 H 0.79709 0.83247 0.60890
 H2852 H 0.84557 0.80765 0.59637
 H2853 H 0.80269 0.76333 0.53080
 H2854 H 0.75720 0.79336 0.54290
 H2855 H 0.83225 0.79286 0.57234
 H2856 H 0.81863 0.77784 0.55348
 C2857 C 0.30080 0.69662 0.42348
 C2858 C 0.31278 0.70618 0.41353
 C2859 C 0.32198 0.69815 0.39997
 C2860 C 0.31979 0.68049 0.39626
 C2861 C 0.30832 0.67095 0.40657
 C2862 C 0.29893 0.67886 0.41993
 C2863 C 0.29073 0.70585 0.43740
 C2864 C 0.27761 0.69784 0.44717
 C2865 C 0.26845 0.70708 0.45983
 C2866 C 0.27223 0.72448 0.46320
 C2867 C 0.28527 0.73258 0.45355
 C2868 C 0.29432 0.72351 0.44056
 C2869 C 0.31554 0.72369 0.41718
 C2870 C 0.30668 0.73211 0.43055
 H2871 H 0.32480 0.73100 0.40965
 H2872 H 0.30937 0.74565 0.43291
 H2873 H 0.33065 0.70581 0.39216
 H2874 H 0.30663 0.65725 0.40442
 H2875 H 0.25841 0.70055 0.46706
 H2876 H 0.28812 0.74610 0.45587
 H2877 H 0.29039 0.67080 0.42738
 H2878 H 0.27406 0.68453 0.44512
 C2879 C 0.30507 0.19750 0.92486
 C2880 C 0.29558 0.18555 0.91465
 C2881 C 0.30368 0.17675 0.90085
 C2882 C 0.32130 0.17945 0.89710
 C2883 C 0.33080 0.19086 0.90767
 C2884 C 0.32284 0.19977 0.92133
 C2885 C 0.29574 0.20723 0.93895
 C2886 C 0.30370 0.22023 0.94905
 C2887 C 0.29433 0.22918 0.96177
 C2888 C 0.27685 0.22533 0.96487
 C2889 C 0.26882 0.21234 0.95495
 C2890 C 0.27803 0.20346 0.94192
 C2891 C 0.27804 0.18250 0.91820
 C2892 C 0.26951 0.19112 0.93166
 H2893 H 0.27079 0.17326 0.91047
 H2894 H 0.25594 0.18826 0.93389
 H2895 H 0.29610 0.16809 0.89281
 H2896 H 0.34449 0.19290 0.90545
 H2897 H 0.30085 0.23915 0.96922
 H2898 H 0.25525 0.20939 0.95709
 H2899 H 0.33087 0.20833 0.92894
 H2900 H 0.31705 0.22387 0.94722
 C2901 C 0.80229 0.69303 0.92268
 C2902 C 0.81452 0.70238 0.91283
 C2903 C 0.82317 0.69437 0.89890
 C2904 C 0.82014 0.67695 0.89468
 C2905 C 0.80843 0.66759 0.90487
 C2906 C 0.79960 0.67548 0.91863
 C2907 C 0.79280 0.70228 0.93700
 C2908 C 0.77953 0.69453 0.94678
 C2909 C 0.77092 0.70379 0.95981
 C2910 C 0.77541 0.72095 0.96355
 C2911 C 0.78861 0.72879 0.95389
 C2912 C 0.79713 0.71970 0.94056
 C2913 C 0.81805 0.71966 0.91691
 C2914 C 0.80970 0.72807 0.93061
 H2915 H 0.82750 0.72679 0.90945
 H2916 H 0.81297 0.74143 0.93328
 H2917 H 0.83205 0.70189 0.89118
 H2918 H 0.80609 0.65405 0.90231
 H2919 H 0.76075 0.69745 0.96704
 H2920 H 0.79203 0.74213 0.95651
 H2921 H 0.79080 0.66757 0.92596
 H2922 H 0.77544 0.68141 0.94447
 C2923 C 0.80841 0.19503 0.42456
 C2924 C 0.79906 0.18296 0.41437
 C2925 C 0.80712 0.17455 0.40033
 C2926 C 0.82459 0.17772 0.39629
 C2927 C 0.83397 0.18928 0.40680
 C2928 C 0.82604 0.19784 0.42070
 C2929 C 0.79908 0.20429 0.43898
 C2930 C 0.80686 0.21735 0.44916
 C2931 C 0.79748 0.22581 0.46221
 C2932 C 0.78018 0.22139 0.46556
 C2933 C 0.77235 0.20835 0.45555
 C2934 C 0.78155 0.19997 0.44222
 C2935 C 0.78168 0.17937 0.41820
 C2936 C 0.77318 0.18755 0.43193
 H2937 H 0.77454 0.17004 0.41047
 H2938 H 0.75974 0.18428 0.43437
 H2939 H 0.79959 0.16579 0.39234
 H2940 H 0.84756 0.19171 0.40434
 H2941 H 0.80383 0.23585 0.46971
 H2942 H 0.75892 0.20496 0.45789
 H2943 H 0.83395 0.20655 0.42826
 H2944 H 0.82007 0.22139 0.44714
 C2945 C 0.70302 0.29870 0.42319
 C2946 C 0.69107 0.28914 0.41304
 C2947 C 0.68262 0.29693 0.39902
 C2948 C 0.68565 0.31431 0.39499
 C2949 C 0.69714 0.32385 0.40544
 C2950 C 0.70573 0.31620 0.41929
 C2951 C 0.71221 0.28974 0.43768
 C2952 C 0.72510 0.29778 0.44788
 C2953 C 0.73341 0.28881 0.46109
 C2954 C 0.72904 0.27165 0.46460
 C2955 C 0.71622 0.26351 0.45453
 C2956 C 0.70797 0.27233 0.44103
 C2957 C 0.68759 0.27188 0.41693
 C2958 C 0.69572 0.26371 0.43073
 H2959 H 0.67837 0.26457 0.40923
 H2960 H 0.69252 0.25036 0.43324
 H2961 H 0.67388 0.28931 0.39109
 H2962 H 0.69944 0.33737 0.40303
 H2963 H 0.74328 0.29539 0.46863
 H2964 H 0.71287 0.25018 0.45698
 H2965 H 0.71433 0.32426 0.42681
 H2966 H 0.72910 0.31091 0.44577
 C2967 C 0.69786 0.79875 0.92251
 C2968 C 0.70750 0.81048 0.91239
 C2969 C 0.69964 0.81884 0.89836
 C2970 C 0.68213 0.81588 0.89429
 C2971 C 0.67250 0.80467 0.90474
 C2972 C 0.68021 0.79621 0.91861
 C2973 C 0.70690 0.78955 0.93692
 C2974 C 0.69875 0.77684 0.94699
 C2975 C 0.70781 0.76839 0.96004
 C2976 C 0.72518 0.77244 0.96352
 C2977 C 0.73342 0.78513 0.95362
 C2978 C 0.72451 0.79353 0.94026
 C2979 C 0.72493 0.81377 0.91631
 C2980 C 0.73319 0.80561 0.93004
 H2981 H 0.73230 0.82283 0.90865
 H2982 H 0.74668 0.80863 0.93255
 H2983 H 0.70730 0.82739 0.89043
 H2984 H 0.65888 0.80246 0.90228
 H2985 H 0.70113 0.75864 0.96746
 H2986 H 0.74691 0.78824 0.95607
 H2987 H 0.67207 0.78780 0.92611
 H2988 H 0.68547 0.77305 0.94490
 C2989 C 0.20095 0.30391 0.92108
 C2990 C 0.18884 0.29446 0.91101
 C2991 C 0.18052 0.30227 0.89693
 C2992 C 0.18381 0.31957 0.89278
 C2993 C 0.19541 0.32902 0.90317
 C2994 C 0.20389 0.32135 0.91707
 C2995 C 0.21004 0.29492 0.93561
 C2996 C 0.22312 0.30283 0.94564
 C2997 C 0.23132 0.29385 0.95891
 C2998 C 0.22662 0.27682 0.96265
 C2999 C 0.21362 0.26881 0.95272
 C3000 C 0.20549 0.27762 0.93914
 C3001 C 0.18509 0.27730 0.91507
 C3002 C 0.19308 0.26912 0.92894
 H3003 H 0.17574 0.27007 0.90744
 H3004 H 0.18965 0.25585 0.93159
 H3005 H 0.17168 0.29471 0.88905
 H3006 H 0.19791 0.34250 0.90067
 H3007 H 0.24133 0.30032 0.96634
 H3008 H 0.21004 0.25557 0.95534
 H3009 H 0.21260 0.32934 0.92454
 H3010 H 0.22737 0.31585 0.94337
 C3011 C 0.19514 0.80048 0.41854
 C3012 C 0.20504 0.81212 0.40859
 C3013 C 0.19752 0.82051 0.39440
 C3014 C 0.18004 0.81775 0.39004
 C3015 C 0.17017 0.80651 0.40025
 C3016 C 0.17757 0.79797 0.41424
 C3017 C 0.20379 0.79142 0.43328
 C3018 C 0.19538 0.77884 0.44332
 C3019 C 0.20405 0.77066 0.45680
 C3020 C 0.22129 0.77487 0.46075
 C3021 C 0.22980 0.78737 0.45084
 C3022 C 0.22129 0.79548 0.43707
 C3023 C 0.22238 0.81540 0.41288
 C3024 C 0.23027 0.80741 0.42692
 H3025 H 0.22996 0.82439 0.40533
 H3026 H 0.24368 0.81047 0.42975
 H3027 H 0.20540 0.82903 0.38665
 H3028 H 0.15657 0.80441 0.39758
 H3029 H 0.19719 0.76103 0.46421
 H3030 H 0.24320 0.79057 0.45364
 H3031 H 0.16925 0.78959 0.42159
 H3032 H 0.18217 0.77499 0.44089
 C3033 C 0.69936 0.70107 0.57607
 C3034 C 0.70899 0.68948 0.58632
 C3035 C 0.70101 0.68098 0.60020
 C3036 C 0.68334 0.68353 0.60393
 C3037 C 0.67373 0.69464 0.59336
 C3038 C 0.68158 0.70331 0.57968
 C3039 C 0.70851 0.71037 0.56178
 C3040 C 0.70039 0.72304 0.55165
 C3041 C 0.70953 0.73152 0.53866
 C3042 C 0.72695 0.72752 0.53529
 C3043 C 0.73518 0.71490 0.54527
 C3044 C 0.72619 0.70651 0.55861
 C3045 C 0.72652 0.68639 0.58265
 C3046 C 0.73487 0.69456 0.56896
 H3047 H 0.73389 0.67743 0.59041
 H3048 H 0.74843 0.69166 0.56661
 H3049 H 0.70871 0.67255 0.60821
 H3050 H 0.66001 0.69657 0.59551
 H3051 H 0.70287 0.74122 0.53116
 H3052 H 0.74871 0.71188 0.54293
 H3053 H 0.67345 0.71160 0.57203
 H3054 H 0.68707 0.72677 0.55365
 C3055 C 0.69998 0.19874 0.07682
 C3056 C 0.68800 0.20816 0.08709
 C3057 C 0.67981 0.20030 0.10124
 C3058 C 0.68314 0.18297 0.10526
 C3059 C 0.69459 0.17354 0.09464
 C3060 C 0.70291 0.18126 0.08067
 C3061 C 0.70897 0.20780 0.06227
 C3062 C 0.72195 0.19990 0.05205
 C3063 C 0.73016 0.20897 0.03885
 C3064 C 0.72559 0.22609 0.03535
 C3065 C 0.71264 0.23407 0.04541
 C3066 C 0.70450 0.22516 0.05893
 C3067 C 0.68426 0.22538 0.08320
 C3068 C 0.69218 0.23363 0.06931
 H3069 H 0.67500 0.23259 0.09099
 H3070 H 0.68879 0.24694 0.06682
 H3071 H 0.67107 0.20783 0.10929
 H3072 H 0.69710 0.16004 0.09703
 H3073 H 0.74013 0.20250 0.03131
 H3074 H 0.70915 0.24738 0.04296
 H3075 H 0.71151 0.17328 0.07303
 H3076 H 0.72613 0.18682 0.05414
 C3077 C 0.19994 0.69938 0.07933
 C3078 C 0.20976 0.68783 0.08946
 C3079 C 0.20205 0.67944 0.10356
 C3080 C 0.18447 0.68209 0.10765
 C3081 C 0.17470 0.69323 0.09726
 C3082 C 0.18228 0.70178 0.08336
 C3083 C 0.20879 0.70848 0.06473
 C3084 C 0.20045 0.72101 0.05459
 C3085 C 0.20932 0.72932 0.04131
 C3086 C 0.22667 0.72530 0.03764
 C3087 C 0.23510 0.71279 0.04759
 C3088 C 0.22639 0.70456 0.06121
 C3089 C 0.22719 0.68465 0.08542
 C3090 C 0.23527 0.69269 0.07149
 H3091 H 0.23471 0.67572 0.09310
 H3092 H 0.24876 0.68972 0.06887
 H3093 H 0.20987 0.67099 0.11144
 H3094 H 0.16104 0.69525 0.09972
 H3095 H 0.20250 0.73894 0.03384
 H3096 H 0.24859 0.70974 0.04501
 H3097 H 0.17402 0.71008 0.07587
 H3098 H 0.18717 0.72476 0.05681
 C3099 C 0.19748 0.19994 0.58041
 C3100 C 0.20754 0.18843 0.59036
 C3101 C 0.20015 0.18007 0.60465
 C3102 C 0.18267 0.18272 0.60913
 C3103 C 0.17266 0.19382 0.59893
 C3104 C 0.17992 0.20234 0.58483
 C3105 C 0.20599 0.20898 0.56556
 C3106 C 0.19741 0.22142 0.55550
 C3107 C 0.20597 0.22964 0.54195
 C3108 C 0.22325 0.22560 0.53794
 C3109 C 0.23191 0.21320 0.54784
 C3110 C 0.22351 0.20505 0.56169
 C3111 C 0.22489 0.18526 0.58597
 C3112 C 0.23264 0.19325 0.57184
 H3113 H 0.23258 0.17637 0.59352
 H3114 H 0.24608 0.19030 0.56894
 H3115 H 0.20815 0.17165 0.61239
 H3116 H 0.15906 0.19584 0.60169
 H3117 H 0.19899 0.23919 0.53455
 H3118 H 0.24534 0.21013 0.54500
 H3119 H 0.17149 0.21062 0.57751
 H3120 H 0.18417 0.22516 0.55798
   
