data_POSCAR
  _audit_creation_date              2014-09-24
  _audit_creation_method            'ToBaCCo'
  _symmetry_space_group_name_H-M    'P1'
  _symmetry_Int_Tables_number       1
  _symmetry_cell_setting            triclinic
  loop_
  _symmetry_equiv_pos_as_xyz
 x,y,z
_cell_length_a 42.0566
_cell_length_b 43.0206
_cell_length_c 42.5492
_cell_angle_alpha 89.351900
_cell_angle_beta 88.959300
_cell_angle_gamma 89.864200
loop_
  _atom_site_label
  _atom_site_type_symbol
  _atom_site_fract_x
  _atom_site_fract_y
  _atom_site_fract_z
C1 C 0.73723 0.63161 1.03676
 C2 C 0.75477 0.64288 1.01081
 C3 C 0.78402 0.65759 1.01532
 C4 C 0.79528 0.66234 1.04587
 C5 C 0.77769 0.64995 1.07160
 C6 C 0.74832 0.63500 1.06751
 C7 C 0.74170 0.64009 0.97904
 C8 C 0.71167 0.65268 0.97262
 C9 C 0.69901 0.65052 0.94250
 C10 C 0.71589 0.63440 0.91908
 C11 C 0.74581 0.62152 0.92529
 C12 C 0.75879 0.62464 0.95526
 H13 H 0.71543 0.61900 1.03269
 H14 H 0.79704 0.66682 0.99508
 H15 H 0.69843 0.66475 0.99089
 H16 H 0.78182 0.61453 0.96020
 H17 H 0.78687 0.65223 1.09509
 H18 H 0.70597 0.63230 0.89586
 C19 C 0.74740 0.40520 0.45686
 C20 C 0.76028 0.38864 0.48216
 C21 C 0.78780 0.37070 0.47756
 C22 C 0.80134 0.36769 0.44739
 C23 C 0.78834 0.38440 0.42220
 C24 C 0.76182 0.40380 0.42688
 C25 C 0.74364 0.38775 0.51285
 C26 C 0.71427 0.37254 0.51591
 C27 C 0.70021 0.36770 0.54573
 C28 C 0.71472 0.38004 0.57226
 C29 C 0.74366 0.39598 0.56921
 C30 C 0.75824 0.39951 0.53954
 H31 H 0.72611 0.41905 0.46048
 H32 H 0.79771 0.35782 0.49713
 H33 H 0.70319 0.36304 0.49532
 H34 H 0.78112 0.41095 0.53728
 H35 H 0.79854 0.38188 0.39878
 H36 H 0.70397 0.37655 0.59538
 C37 C 0.24938 -0.09775 -0.03902
 C38 C 0.26487 -0.11355 -0.01478
 C39 C 0.29532 -0.12603 -0.02009
 C40 C 0.31060 -0.12299 -0.04974
 C41 C 0.29421 -0.10754 -0.07402
 C42 C 0.26409 -0.09429 -0.06864
 C43 C 0.24921 -0.11687 0.01629
 C44 C 0.22151 -0.13475 0.01994
 C45 C 0.20680 -0.13874 0.04975
 C46 C 0.21928 -0.12253 0.07538
 C47 C 0.24653 -0.10411 0.07166
 C48 C 0.26180 -0.10185 0.04223
 H49 H 0.22595 -0.08796 -0.03474
 H50 H 0.30715 -0.13778 -0.00089
 H51 H 0.21141 -0.14542 -0.00056
 H52 H 0.28316 -0.08795 0.03942
 H53 H 0.30431 -0.10669 -0.09763
 H54 H 0.20841 -0.12488 0.09859
 C55 C 0.23843 0.12293 0.54551
 C56 C 0.25255 0.13736 0.51912
 C57 C 0.28204 0.15222 0.52182
 C58 C 0.29708 0.15293 0.55098
 C59 C 0.28304 0.13789 0.57713
 C60 C 0.25388 0.12261 0.57435
 C61 C 0.23728 0.13472 0.48844
 C62 C 0.20664 0.14670 0.48392
 C63 C 0.19147 0.14254 0.45520
 C64 C 0.20627 0.12460 0.43177
 C65 C 0.23655 0.11178 0.43644
 C66 C 0.25242 0.11801 0.46440
 H67 H 0.21603 0.11078 0.54330
 H68 H 0.29319 0.16320 0.50141
 H69 H 0.19482 0.15960 0.50252
 H70 H 0.27609 0.10872 0.46797
 H71 H 0.29491 0.13780 0.59953
 H72 H 0.19419 0.12065 0.40988
 C73 C 0.11226 0.52697 0.23726
 C74 C 0.12414 0.50136 0.25405
 C75 C 0.13699 0.50567 0.28383
 C76 C 0.13864 0.53555 0.29648
 C77 C 0.12606 0.56092 0.27982
 C78 C 0.11338 0.55716 0.24969
 C79 C 0.12471 0.47043 0.23944
 C80 C 0.13990 0.46653 0.21010
 C81 C 0.14087 0.43728 0.19613
 C82 C 0.12567 0.41203 0.21096
 C83 C 0.11107 0.41538 0.24067
 C84 C 0.11063 0.44475 0.25481
 H85 H 0.10307 0.52336 0.21395
 H86 H 0.14680 0.48606 0.29663
 H87 H 0.15182 0.48600 0.19862
 H88 H 0.09922 0.44765 0.27763
 H89 H 0.12618 0.58366 0.29055
 H90 H 0.12609 0.38952 0.19976
 C91 C -0.11097 -0.05918 0.23827
 C92 C -0.12370 -0.03377 0.25455
 C93 C -0.13458 -0.03787 0.28577
 C94 C -0.13249 -0.06709 0.30107
 C95 C -0.12013 -0.09238 0.28384
 C96 C -0.10926 -0.08849 0.25274
 C97 C -0.12449 -0.00270 0.23922
 C98 C -0.13611 0.00097 0.20858
 C99 C -0.13565 0.03027 0.19329
 C100 C -0.12440 0.05602 0.21001
 C101 C -0.11264 0.05251 0.24038
 C102 C -0.11260 0.02320 0.25487
 H103 H -0.10180 -0.05610 0.21447
 H104 H -0.14394 -0.01799 0.29834
 H105 H -0.14475 -0.01925 0.19644
 H106 H -0.10305 0.02056 0.27824
 H107 H -0.11975 -0.11551 0.29417
 H108 H -0.12539 0.07919 0.19979
 C109 C 0.38442 0.46088 0.73734
 C110 C 0.37074 0.48544 0.75417
 C111 C 0.36134 0.48084 0.78573
 C112 C 0.36570 0.45183 0.80086
 C113 C 0.37923 0.42738 0.78326
 C114 C 0.38873 0.43185 0.75182
 C115 C 0.36718 0.51627 0.73911
 C116 C 0.35001 0.51977 0.71126
 C117 C 0.34609 0.54933 0.69754
 C118 C 0.36059 0.57518 0.71110
 C119 C 0.37792 0.57179 0.73873
 C120 C 0.38104 0.54237 0.75272
 H121 H 0.39217 0.46446 0.71313
 H122 H 0.35121 0.50019 0.79860
 H123 H 0.33905 0.49971 0.70076
 H124 H 0.39447 0.53978 0.77411
 H125 H 0.38140 0.40432 0.79351
 H126 H 0.35819 0.59798 0.70028
 C127 C 0.61324 1.04308 0.74137
 C128 C 0.62954 1.01797 0.75469
 C129 C 0.64477 1.02151 0.78350
 C130 C 0.64470 1.05048 0.79872
 C131 C 0.62690 1.07507 0.78550
 C132 C 0.61096 1.07138 0.75715
 C133 C 0.62870 0.98760 0.73918
 C134 C 0.64388 0.98340 0.70991
 C135 C 0.64159 0.95485 0.69454
 C136 C 0.62250 0.93120 0.70768
 C137 C 0.60678 0.93534 0.73673
 C138 C 0.61097 0.96329 0.75287
 H139 H 0.60132 1.04024 0.71920
 H140 H 0.65628 1.00154 0.79417
 H141 H 0.65790 1.00204 0.69942
 H142 H 0.59968 0.96650 0.77571
 H143 H 0.62593 1.09750 0.79684
 H144 H 0.62026 0.90937 0.69543
 C145 C -0.03891 0.23708 -0.10476
 C146 C -0.01542 0.25346 -0.12160
 C147 C -0.02160 0.28375 -0.13242
 C148 C -0.05096 0.29850 -0.12583
 C149 C -0.07423 0.28149 -0.10858
 C150 C -0.06825 0.25109 -0.09803
 C151 C 0.01606 0.23930 -0.12720
 C152 C 0.01930 0.21188 -0.14457
 C153 C 0.04967 0.19916 -0.15099
 C154 C 0.07635 0.21330 -0.13751
 C155 C 0.07305 0.24031 -0.11976
 C156 C 0.04300 0.25347 -0.11500
 H157 H -0.03425 0.21359 -0.09655
 H158 H -0.00377 0.29513 -0.14718
 H159 H -0.00173 0.20149 -0.15437
 H160 H 0.04053 0.27451 -0.10136
 H161 H -0.09693 0.29201 -0.10253
 H162 H 0.09977 0.20298 -0.14018
 C163 C 0.54251 0.23913 0.11945
 C164 C 0.51743 0.25491 0.13445
 C165 C 0.52290 0.28392 0.14809
 C166 C 0.55352 0.29676 0.14733
 C167 C 0.57835 0.28112 0.13167
 C168 C 0.57283 0.25245 0.11749
 C169 C 0.48555 0.24094 0.13588
 C170 C 0.48049 0.21278 0.15214
 C171 C 0.45003 0.19972 0.15389
 C172 C 0.42484 0.21429 0.13830
 C173 C 0.42980 0.24228 0.12178
 C174 C 0.46016 0.25563 0.12077
 H175 H 0.53828 0.21682 0.10870
 H176 H 0.50364 0.29601 0.16006
 H177 H 0.50003 0.20148 0.16404
 H178 H 0.46410 0.27727 0.10799
 H179 H 0.60197 0.29116 0.13069
 H180 H 0.40135 0.20396 0.13920
 C181 C 1.04064 0.73832 0.62175
 C182 C 1.01638 0.75448 0.63762
 C183 C 1.02218 0.78437 0.64903
 C184 C 1.05214 0.79852 0.64456
 C185 C 1.07629 0.78173 0.62875
 C186 C 1.07042 0.75212 0.61682
 C187 C 0.98449 0.74066 0.64111
 C188 C 0.98006 0.71268 0.65787
 C189 C 0.94959 0.69972 0.66117
 C190 C 0.92377 0.71425 0.64651
 C191 C 0.92807 0.74208 0.62952
 C192 C 0.95843 0.75531 0.62708
 H193 H 1.03601 0.71551 0.61230
 H194 H 1.00352 0.79615 0.66220
 H195 H 1.00016 0.70130 0.66874
 H196 H 0.96187 0.77675 0.61382
 H197 H 1.09941 0.79218 0.62440
 H198 H 0.90035 0.70382 0.64819
 C199 C 0.45743 0.73656 0.38228
 C200 C 0.48397 0.75288 0.37045
 C201 C 0.48017 0.78328 0.35873
 C202 C 0.44999 0.79722 0.35859
 C203 C 0.42360 0.78070 0.37044
 C204 C 0.42725 0.75045 0.38243
 C205 C 0.51565 0.73813 0.37019
 C206 C 0.52089 0.71037 0.35382
 C207 C 0.55134 0.69699 0.35246
 C208 C 0.57621 0.71077 0.36888
 C209 C 0.57111 0.73841 0.38530
 C210 C 0.54090 0.75216 0.38575
 H211 H 0.46028 0.71318 0.39158
 H212 H 0.50055 0.79588 0.34926
 H213 H 0.50157 0.69977 0.34129
 H214 H 0.53705 0.77373 0.39820
 H215 H 0.40025 0.79142 0.37046
 H216 H 0.59971 0.70037 0.36829
 C217 C 0.38434 -0.03906 0.30828
 H218 H 0.36732 -0.02576 0.32182
 C219 C 0.39921 -0.06450 0.32242
 H220 H 0.39318 -0.07074 0.34653
 C221 C 0.41215 -0.04819 0.26036
 H222 H 0.41747 -0.04165 0.23631
 C223 C 0.42740 -0.07402 0.27355
 H224 H 0.44380 -0.08759 0.25934
 N225 N 0.39006 -0.03203 0.27740
 C226 C 0.36963 0.04984 0.21996
 H227 H 0.34465 0.04502 0.21690
 C228 C 0.38285 0.07673 0.20698
 H229 H 0.36810 0.09260 0.19367
 C230 C 0.41892 0.03575 0.24248
 H231 H 0.43248 0.02000 0.25704
 C232 C 0.43321 0.06263 0.22982
 H233 H 0.45791 0.06757 0.23444
 Zn234 Zn 0.36377 -0.00151 0.25775
 N235 N 0.38750 0.03033 0.23778
 C236 C 0.34497 0.04683 0.29785
 N237 N 0.33745 0.01747 0.28900
 C238 C 0.31325 0.00157 0.30347
 C239 C 0.29530 0.01537 0.32752
 C240 C 0.32811 0.06119 0.32218
 C241 C 0.35536 -0.03338 0.20157
 C242 C 0.33918 -0.04674 0.17684
 C243 C 0.28955 -0.03174 0.20183
 C244 C 0.30672 -0.01875 0.22624
 N245 N 0.33910 -0.02020 0.22598
 H246 H 0.36466 0.05894 0.28667
 H247 H 0.30818 -0.02203 0.29667
 H248 H 0.27588 0.00264 0.33863
 H249 H 0.33479 0.08434 0.32931
 H250 H 0.38096 -0.03285 0.20076
 H251 H 0.35242 -0.05708 0.15754
 H252 H 0.26383 -0.03043 0.20213
 H253 H 0.29405 -0.00692 0.24484
 C254 C 0.41471 0.08369 0.21254
 C255 C 0.42040 -0.08270 0.30474
 C256 C 0.30597 -0.04588 0.17687
 C257 C 0.30324 0.04528 0.33759
 C258 C 0.09656 1.03171 0.79889
 H259 H 0.10755 1.01490 0.81430
 C260 C 0.08301 1.05853 0.81164
 H261 H 0.08411 1.06244 0.83670
 C262 C 0.08338 1.04833 0.74748
 H263 H 0.08440 1.04485 0.72243
 C264 C 0.06928 1.07531 0.75925
 H265 H 0.05967 1.09247 0.74318
 N266 N 0.09847 1.02820 0.76714
 C267 C 0.12580 0.95384 0.70465
 H268 H 0.14864 0.96323 0.69746
 C269 C 0.11409 0.92777 0.68968
 H270 H 0.12777 0.91745 0.67066
 C271 C 0.08092 0.95487 0.73922
 H272 H 0.06854 0.96533 0.75895
 C273 C 0.06846 0.92843 0.72506
 H274 H 0.04640 0.91844 0.73390
 Zn275 Zn 0.12883 1.00016 0.74952
 N276 N 0.10915 0.96691 0.72882
 C277 C 0.16014 0.95246 0.78323
 N278 N 0.15525 0.98370 0.78146
 C279 C 0.16901 1.00328 0.80209
 C280 C 0.18805 0.99155 0.82599
 C281 C 0.17967 0.93983 0.80631
 C282 C 0.14112 1.02906 0.69118
 C283 C 0.15850 1.04516 0.66807
 C284 C 0.20260 1.04765 0.70354
 C285 C 0.18443 1.03129 0.72597
 N286 N 0.15417 1.02249 0.71954
 H287 H 0.14906 0.93724 0.76666
 H288 H 0.16485 1.02805 0.80022
 H289 H 0.19806 1.00734 0.84280
 H290 H 0.18353 0.91494 0.80732
 H291 H 0.11737 1.02120 0.68622
 H292 H 0.14793 1.05002 0.64551
 H293 H 0.22658 1.05473 0.70890
 H294 H 0.19463 1.02569 0.74841
 C295 C 0.08519 0.91471 0.69992
 C296 C 0.07093 1.08140 0.79145
 C297 C 0.18965 1.05441 0.67413
 C298 C 0.19403 0.95950 0.82792
 C299 C 0.60612 0.53207 0.29359
 H300 H 0.61828 0.51499 0.30780
 C301 C 0.59280 0.55822 0.30787
 H302 H 0.59493 0.56120 0.33298
 C303 C 0.59051 0.55034 0.24338
 H304 H 0.59108 0.54782 0.21811
 C305 C 0.57651 0.57666 0.25676
 H306 H 0.56585 0.59417 0.24177
 N307 N 0.60620 0.52950 0.26174
 C308 C 0.63318 0.44927 0.20493
 H309 H 0.65824 0.45428 0.20182
 C310 C 0.62081 0.42197 0.19298
 H311 H 0.63630 0.40606 0.18039
 C312 C 0.58282 0.46305 0.22669
 H313 H 0.56840 0.47889 0.24046
 C314 C 0.56940 0.43579 0.21508
 H315 H 0.54457 0.43063 0.21981
 Zn316 Zn 0.63526 0.50238 0.24150
 N317 N 0.61436 0.46888 0.22195
 C318 C 0.66526 0.45418 0.27623
 N319 N 0.66378 0.48559 0.27197
 C320 C 0.68039 0.50494 0.29075
 C321 C 0.69896 0.49291 0.31495
 C322 C 0.68402 0.44121 0.29968
 C323 C 0.65380 0.52064 0.17937
 C324 C 0.66800 0.53971 0.15642
 C325 C 0.68878 0.57164 0.19754
 C326 C 0.67412 0.55200 0.21974
 N327 N 0.65734 0.52678 0.21046
 H328 H 0.65119 0.43893 0.26223
 H329 H 0.67798 0.52978 0.28822
 H330 H 0.71093 0.50863 0.33050
 H331 H 0.68462 0.41620 0.30289
 H332 H 0.63920 0.50154 0.17213
 H333 H 0.66495 0.53465 0.13178
 H334 H 0.70191 0.59173 0.20520
 H335 H 0.67542 0.55755 0.24431
 C336 C 0.58882 0.41468 0.19872
 C337 C 0.57936 0.58158 0.28912
 C338 C 0.68551 0.56562 0.16552
 C339 C 0.70106 0.46064 0.31944
 C340 C 0.90562 0.46580 0.80197
 H341 H 0.90586 0.48894 0.81154
 C342 C 0.91880 0.44114 0.81915
 H343 H 0.92913 0.44556 0.84179
 C344 C 0.88876 0.43110 0.76285
 H345 H 0.87591 0.42664 0.74174
 C346 C 0.90240 0.40607 0.77872
 H347 H 0.90030 0.38293 0.76922
 N348 N 0.89030 0.46035 0.77462
 C349 C 0.88776 0.53509 0.70773
 H350 H 0.87102 0.52327 0.69319
 C351 C 0.90135 0.56265 0.69655
 H352 H 0.89548 0.57129 0.67334
 C353 C 0.91308 0.54060 0.75667
 H354 H 0.91643 0.53269 0.78054
 C355 C 0.92722 0.56839 0.74635
 H356 H 0.94180 0.58152 0.76215
 Zn357 Zn 0.86673 0.49289 0.75460
 N358 N 0.89327 0.52484 0.73754
 C359 C 0.82804 0.54092 0.77632
 N360 N 0.83970 0.51248 0.78446
 C361 C 0.83468 0.50029 0.81378
 C362 C 0.81882 0.51769 0.83678
 C363 C 0.81202 0.55903 0.79855
 C364 C 0.85803 0.46329 0.69690
 C365 C 0.84132 0.44950 0.67279
 C366 C 0.79218 0.46253 0.69996
 C367 C 0.80989 0.47595 0.72376
 N368 N 0.84223 0.47587 0.72192
 H369 H 0.83228 0.55003 0.75282
 H370 H 0.84365 0.47744 0.81963
 H371 H 0.81577 0.50823 0.86034
 H372 H 0.80361 0.58200 0.79207
 H373 H 0.88375 0.46371 0.69591
 H374 H 0.85413 0.43928 0.65314
 H375 H 0.76645 0.46241 0.70164
 H376 H 0.79782 0.48611 0.74382
 C377 C 0.92042 0.58007 0.71631
 C378 C 0.91716 0.41079 0.80751
 C379 C 0.80807 0.44880 0.67443
 C380 C 0.80822 0.54776 0.82941
 C381 C 0.29644 0.40275 -0.02920
 H382 H 0.30419 0.40493 -0.00531
 C383 C 0.31300 0.41846 -0.05334
 H384 H 0.33343 0.43257 -0.04790
 C385 C 0.26095 0.38165 -0.06588
 H386 H 0.24062 0.36744 -0.07091
 C387 C 0.27697 0.39665 -0.09065
 H388 H 0.26909 0.39349 -0.11450
 N389 N 0.27164 0.38379 -0.03596
 C390 C 0.22311 0.35918 0.05215
 H391 H 0.22609 0.33429 0.05026
 C392 C 0.20937 0.37161 0.07916
 H393 H 0.20159 0.35625 0.09812
 C394 C 0.23006 0.40955 0.02976
 H395 H 0.23849 0.42405 0.01044
 C396 C 0.21635 0.42307 0.05662
 H397 H 0.21415 0.44810 0.05805
 Zn398 Zn 0.25351 0.35657 -0.00483
 N399 N 0.23326 0.37810 0.02825
 C400 C 0.30477 0.34901 0.03445
 N401 N 0.28604 0.33289 0.01463
 C402 C 0.28896 0.30149 0.01188
 C403 C 0.31174 0.28527 0.02919
 C404 C 0.32767 0.33376 0.05218
 C405 C 0.19173 0.33537 -0.01693
 C406 C 0.16826 0.31948 -0.03289
 C407 C 0.20940 0.29363 -0.06321
 C408 C 0.23217 0.31020 -0.04677
 N409 N 0.22303 0.33072 -0.02417
 H410 H 0.30108 0.37363 0.03752
 H411 H 0.27323 0.28878 -0.00301
 H412 H 0.31377 0.26027 0.02712
 H413 H 0.34217 0.34685 0.06810
 H414 H 0.18476 0.35228 0.00046
 H415 H 0.14343 0.32393 -0.02737
 H416 H 0.21684 0.27765 -0.08142
 H417 H 0.25711 0.30753 -0.05283
 C418 C 0.20641 0.40388 0.08181
 C419 C 0.30404 0.41428 -0.08459
 C420 C 0.17703 0.29881 -0.05670
 C421 C 0.33101 0.30151 0.04988
 C422 C 0.79074 0.07367 1.02655
 H423 H 0.79976 0.07357 1.00266
 C424 C 0.80766 0.05819 1.05002
 H425 H 0.82959 0.04622 1.04404
 C426 C 0.75214 0.09027 1.06398
 H427 H 0.73054 0.10281 1.06950
 C428 C 0.76854 0.07555 1.08819
 H429 H 0.75970 0.07731 1.11217
 N430 N 0.76441 0.09067 1.03414
 C431 C 0.72340 0.12070 0.94533
 H432 H 0.72816 0.14527 0.94756
 C433 C 0.71014 0.10959 0.91794
 H434 H 0.70466 0.12564 0.89899
 C435 C 0.72477 0.06984 0.96743
 H436 H 0.73058 0.05461 0.98690
 C437 C 0.71137 0.05766 0.94027
 H438 H 0.70673 0.03298 0.93877
 Zn439 Zn 0.74822 0.12008 1.00463
 N440 N 0.73025 0.10093 0.96942
 C441 C 0.80278 0.13162 0.96789
 N442 N 0.78238 0.14501 0.98896
 C443 C 0.78565 0.17536 0.99709
 C444 C 0.81073 0.19308 0.98464
 C445 C 0.82801 0.14857 0.95469
 C446 C 0.68695 0.14671 1.01332
 C447 C 0.66382 0.16536 1.02764
 C448 C 0.70241 0.18063 1.06588
 C449 C 0.72489 0.16186 1.05071
 N450 N 0.71696 0.14552 1.02476
 H451 H 0.79904 0.10791 0.96073
 H452 H 0.76880 0.18610 1.01296
 H453 H 0.81321 0.21718 0.99126
 H454 H 0.84402 0.13773 0.93784
 H455 H 0.68078 0.13313 0.99316
 H456 H 0.64003 0.16622 1.01833
 H457 H 0.70894 0.19354 1.08648
 H458 H 0.74872 0.16014 1.05975
 C459 C 0.70404 0.07778 0.91521
 C460 C 0.79750 0.06074 1.08147
 C461 C 0.67164 0.18268 1.05405
 C462 C 0.83223 0.17953 0.96334
 C463 C 0.29319 0.60605 0.53149
 H464 H 0.30778 0.62117 0.51689
 C465 C 0.30581 0.59335 0.55887
 H466 H 0.33013 0.59851 0.56493
 C467 C 0.24303 0.58320 0.54320
 H468 H 0.21822 0.58048 0.53755
 C469 C 0.25480 0.56986 0.57079
 H470 H 0.23914 0.55648 0.58620
 N471 N 0.26208 0.60148 0.52462
 C472 C 0.21351 0.62059 0.43669
 H473 H 0.21583 0.64562 0.43698
 C474 C 0.19958 0.60631 0.41121
 H475 H 0.19114 0.62035 0.39176
 C476 C 0.22228 0.57171 0.46148
 H477 H 0.23151 0.55843 0.48102
 C478 C 0.20851 0.55638 0.43624
 H479 H 0.20703 0.53125 0.43633
 Zn480 Zn 0.24340 0.62658 0.49316
 N481 N 0.22430 0.60330 0.46124
 C482 C 0.29643 0.63609 0.45448
 N483 N 0.27505 0.65135 0.47311
 C484 C 0.27612 0.68278 0.47628
 C485 C 0.29987 0.70003 0.46073
 C486 C 0.32035 0.65245 0.43836
 C487 C 0.22141 0.66844 0.53877
 C488 C 0.19910 0.68615 0.55551
 C489 C 0.15852 0.66844 0.52047
 C490 C 0.18152 0.65096 0.50451
 N491 N 0.21238 0.65156 0.51360
 H492 H 0.29484 0.61113 0.45221
 H493 H 0.25863 0.69451 0.49081
 H494 H 0.30077 0.72501 0.46348
 H495 H 0.33735 0.64009 0.42368
 H496 H 0.24595 0.66792 0.54596
 H497 H 0.20648 0.69955 0.57549
 H498 H 0.13402 0.66784 0.51307
 H499 H 0.17452 0.63666 0.48516
 C500 C 0.19710 0.57392 0.41083
 C501 C 0.28619 0.57603 0.57937
 C502 C 0.16736 0.68641 0.54611
 C503 C 0.32212 0.68475 0.44144
 C504 C 0.79717 0.89504 0.47357
 H505 H 0.80604 0.89753 0.49703
 C506 C 0.81434 0.90789 0.44813
 H507 H 0.83626 0.92026 0.45218
 C508 C 0.75843 0.87561 0.43923
 H509 H 0.73657 0.86317 0.43565
 C510 C 0.77497 0.88777 0.41320
 H511 H 0.76593 0.88421 0.38984
 N512 N 0.77034 0.87825 0.46864
 C513 C 0.72129 0.86422 0.55888
 H514 H 0.72408 0.83924 0.56027
 C515 C 0.70771 0.88014 0.58404
 H516 H 0.69995 0.86743 0.60491
 C517 C 0.72858 0.91133 0.53011
 H518 H 0.73706 0.92322 0.50906
 C519 C 0.71484 0.92827 0.55485
 H520 H 0.71268 0.95330 0.55295
 Zn521 Zn 0.75090 0.85449 0.50192
 N522 N 0.73147 0.87988 0.53267
 C523 C 0.80150 0.84760 0.54248
 N524 N 0.78242 0.83106 0.52334
 C525 C 0.78475 0.79952 0.52183
 C526 C 0.80744 0.78359 0.53953
 C527 C 0.82428 0.83263 0.56064
 C528 C 0.68825 0.83385 0.49160
 C529 C 0.66437 0.81816 0.47592
 C530 C 0.70491 0.79050 0.44650
 C531 C 0.72807 0.80686 0.46262
 N532 N 0.71944 0.82836 0.48445
 H533 H 0.79842 0.87245 0.54437
 H534 H 0.76884 0.78654 0.50736
 H535 H 0.80918 0.75851 0.53822
 H536 H 0.83923 0.84609 0.57584
 H537 H 0.68173 0.85139 0.50850
 H538 H 0.63965 0.82346 0.48112
 H539 H 0.71200 0.77400 0.42866
 H540 H 0.75293 0.80346 0.45666
 C541 C 0.70451 0.91246 0.58217
 C542 C 0.80388 0.90306 0.41745
 C543 C 0.67267 0.79682 0.45255
 C544 C 0.82724 0.80027 0.55938
 C545 C -0.03606 0.27904 0.40398
 H546 H -0.01141 0.28412 0.40857
 C547 C -0.06022 0.29578 0.41929
 H548 H -0.05413 0.31356 0.43596
 C549 C -0.07416 0.25095 0.37543
 H550 H -0.07961 0.23437 0.35746
 C551 C -0.09892 0.26722 0.38996
 H552 H -0.12320 0.26281 0.38322
 N553 N -0.04342 0.25687 0.38274
 C554 C 0.04196 0.20078 0.36918
 H555 H 0.04026 0.19916 0.34391
 C556 C 0.06789 0.18778 0.38432
 H557 H 0.08623 0.17603 0.37072
 C558 C 0.02076 0.21936 0.41753
 H559 H 0.00244 0.23192 0.43022
 C560 C 0.04658 0.20673 0.43370
 H561 H 0.04826 0.20971 0.45885
 Zn562 Zn -0.01062 0.23653 0.35977
 N563 N 0.01948 0.21682 0.38570
 C564 C 0.04021 0.27625 0.34508
 N565 N 0.01112 0.26710 0.33520
 C566 C -0.00264 0.28092 0.30992
 C567 C 0.01382 0.30368 0.29243
 C568 C 0.05708 0.29931 0.32878
 C569 C -0.04426 0.18219 0.35161
 C570 C -0.05881 0.15788 0.33602
 C571 C -0.03875 0.17920 0.28675
 C572 C -0.02473 0.20334 0.30331
 N573 N -0.02826 0.20469 0.33514
 H574 H 0.05018 0.26614 0.36606
 H575 H -0.02633 0.27419 0.30327
 H576 H 0.00291 0.31414 0.27201
 H577 H 0.07994 0.30666 0.33732
 H578 H -0.04610 0.18350 0.37696
 H579 H -0.07194 0.14038 0.34932
 H580 H -0.03614 0.17834 0.26141
 H581 H -0.01096 0.22076 0.29073
 C582 C 0.07072 0.19136 0.41675
 C583 C -0.09210 0.28975 0.41238
 C584 C -0.05638 0.15650 0.30323
 C585 C 0.04433 0.31271 0.30159
 C586 C 1.03807 0.78314 0.08345
 H587 H 1.01421 0.79147 0.07982
 C588 C 1.06368 0.79927 0.06964
 H589 H 1.05934 0.81965 0.05516
 C590 C 1.07339 0.74829 0.10861
 H591 H 1.07748 0.72936 0.12486
 C592 C 1.09953 0.76350 0.09509
 H593 H 1.12333 0.75588 0.10080
 N594 N 1.04327 0.75826 0.10281
 C595 C 0.96661 0.69473 0.10150
 H596 H 0.97996 0.67795 0.11489
 C597 C 0.93806 0.68555 0.08826
 H598 H 0.93002 0.66177 0.09121
 C599 C 0.95841 0.74667 0.08429
 H600 H 0.96529 0.77080 0.08448
 C601 C 0.92973 0.73843 0.07061
 H602 H 0.91511 0.75615 0.05974
 Zn603 Zn 1.00908 0.73918 0.12603
 N604 N 0.97597 0.72501 0.09989
 C605 C 0.96176 0.76099 0.16694
 N606 N 0.99010 0.76871 0.15305
 C607 C 1.00296 0.79744 0.15642
 C608 C 0.98657 0.82014 0.17348
 C609 C 0.94460 0.78298 0.18419
 C610 C 1.03910 0.68130 0.13440
 C611 C 1.05344 0.65704 0.15091
 C612 C 1.03950 0.68277 0.19948
 C613 C 1.02527 0.70656 0.18202
 N614 N 1.02551 0.70551 0.15005
 H615 H 0.95207 0.73799 0.16377
 H616 H 1.02561 0.80299 0.14537
 H617 H 0.99660 0.84318 0.17546
 H618 H 0.92173 0.77687 0.19459
 H619 H 1.03935 0.68124 0.10897
 H620 H 1.06459 0.63811 0.13823
 H621 H 1.03968 0.68394 0.22489
 H622 H 1.01467 0.72615 0.19398
 C623 C 0.91887 0.70778 0.07361
 C624 C 1.09481 0.78944 0.07558
 C625 C 1.05406 0.65793 0.18376
 C626 C 0.95673 0.81312 0.18689
 C627 C 0.53058 0.29153 0.58591
 H628 H 0.50656 0.29997 0.58297
 C629 C 0.55581 0.30639 0.57001
 H630 H 0.55104 0.32585 0.55442
 C631 C 0.56651 0.25773 0.61170
 H632 H 0.57088 0.23950 0.62872
 C633 C 0.59230 0.27197 0.59647
 H634 H 0.61620 0.26451 0.60197
 N635 N 0.53635 0.26788 0.60660
 C636 C 0.45130 0.21288 0.62660
 H637 H 0.45697 0.20711 0.65065
 C638 C 0.42436 0.20013 0.61337
 H639 H 0.40922 0.18483 0.62738
 C640 C 0.46394 0.23990 0.57916
 H641 H 0.47933 0.25547 0.56595
 C642 C 0.43709 0.22749 0.56489
 H643 H 0.43188 0.23358 0.54076
 Zn644 Zn 0.50324 0.25131 0.63286
 N645 N 0.47008 0.23296 0.60978
 C646 C 0.45855 0.27736 0.67515
 N647 N 0.48529 0.28356 0.65771
 C648 C 0.49794 0.31268 0.65651
 C649 C 0.48268 0.33719 0.67192
 C650 C 0.44251 0.30119 0.69082
 C651 C 0.52773 0.19240 0.64503
 C652 C 0.54073 0.16812 0.66257
 C653 C 0.53888 0.20094 0.70835
 C654 C 0.52559 0.22460 0.68995
 N655 N 0.52043 0.21990 0.65889
 H656 H 0.44915 0.25407 0.67637
 H657 H 0.51959 0.31711 0.64321
 H658 H 0.49249 0.36042 0.67022
 H659 H 0.42082 0.29616 0.70400
 H660 H 0.52347 0.18943 0.62025
 H661 H 0.54651 0.14630 0.65134
 H662 H 0.54317 0.20478 0.73302
 H663 H 0.51972 0.24675 0.70034
 C664 C 0.41664 0.20798 0.58246
 C665 C 0.58713 0.29673 0.57548
 C666 C 0.54637 0.17236 0.69455
 C667 C 0.45423 0.33158 0.68858
 C668 C 0.47273 0.79202 0.89956
 H669 H 0.49779 0.79673 0.90222
 C670 C 0.45009 0.81028 0.91526
 H671 H 0.45770 0.82883 0.93037
 C672 C 0.43201 0.76358 0.87502
 H673 H 0.42491 0.74631 0.85835
 C674 C 0.40867 0.78132 0.89010
 H675 H 0.38383 0.77722 0.88534
 N676 N 0.46337 0.76936 0.87969
 C677 C 0.54804 0.71416 0.85854
 H678 H 0.54501 0.71349 0.83337
 C679 C 0.57469 0.70051 0.87186
 H680 H 0.59227 0.68924 0.85693
 C681 C 0.52930 0.73073 0.90858
 H682 H 0.51160 0.74272 0.92265
 C683 C 0.55582 0.71737 0.92294
 H684 H 0.55865 0.71917 0.94810
 Zn685 Zn 0.49433 0.74975 0.85380
 N686 N 0.52639 0.72946 0.87680
 C687 C 0.54330 0.79101 0.83667
 N688 N 0.51356 0.78163 0.82905
 C689 C 0.49673 0.79685 0.80659
 C690 C 0.51019 0.82207 0.79018
 C691 C 0.55723 0.81656 0.82151
 C692 C 0.46024 0.69568 0.84583
 C693 C 0.44389 0.67246 0.83032
 C694 C 0.45942 0.69642 0.78073
 C695 C 0.47533 0.71942 0.79725
 N696 N 0.47481 0.71899 0.82926
 H697 H 0.55591 0.77936 0.85531
 H698 H 0.47276 0.78960 0.80162
 H699 H 0.49683 0.83361 0.77190
 H700 H 0.58067 0.82407 0.82830
 H701 H 0.46077 0.69559 0.87124
 H702 H 0.43177 0.65438 0.84376
 H703 H 0.45949 0.69706 0.75528
 H704 H 0.48799 0.73750 0.78448
 C705 C 0.57909 0.70266 0.90426
 C706 C 0.41770 0.80545 0.90981
 C707 C 0.44303 0.67304 0.79746
 C708 C 0.54051 0.83266 0.79821
 C709 C 0.45727 -0.14411 0.35906
 C710 C 0.44552 -0.17135 0.34489
 C711 C 0.42814 -0.16884 0.31723
 C712 C 0.42164 -0.13993 0.30386
 C713 C 0.43210 -0.11257 0.31783
 C714 C 0.45065 -0.11446 0.34530
 C715 C 0.47483 -0.14558 0.38700
 C716 C 0.48634 -0.11856 0.40055
 C717 C 0.48050 -0.08968 0.38669
 C718 C 0.46282 -0.08753 0.35933
 H719 H 0.47976 -0.16749 0.39865
 H720 H 0.49990 -0.12004 0.42189
 H721 H 0.48967 -0.06883 0.39723
 H722 H 0.45899 -0.06468 0.34918
 H723 H 0.41909 -0.18950 0.30616
 H724 H 0.40729 -0.13884 0.28297
 C725 C 0.96493 0.35287 0.85803
 C726 C 0.94201 0.32847 0.86149
 C727 C 0.91144 0.33363 0.84949
 C728 C 0.90417 0.36050 0.83276
 C729 C 0.92707 0.38341 0.82667
 C730 C 0.95787 0.37972 0.83925
 C731 C 0.99404 0.35217 0.87417
 C732 C 1.01694 0.37512 0.86899
 C733 C 1.01119 0.39955 0.84817
 C734 C 0.98192 0.40202 0.83351
 H735 H 0.99919 0.33427 0.89139
 H736 H 1.03930 0.37391 0.88117
 H737 H 1.02927 0.41703 0.84385
 H738 H 0.97840 0.42154 0.81774
 H739 H 0.89317 0.31597 0.85120
 H740 H 0.88035 0.36308 0.82377
 C741 C 0.07884 1.16814 0.80851
 C742 C 0.05337 1.17198 0.83077
 C743 C 0.03257 1.14684 0.83646
 C744 C 0.03827 1.11788 0.82311
 C745 C 0.06466 1.11305 0.80335
 C746 C 0.08523 1.13823 0.79577
 C747 C 0.09719 1.19365 0.79735
 C748 C 0.12305 1.18931 0.77693
 C749 C 0.13091 1.15966 0.76672
 C750 C 0.11220 1.13433 0.77585
 H751 H 0.09140 1.21726 0.80378
 H752 H 0.13706 1.20907 0.76900
 H753 H 0.15127 1.15633 0.75117
 H754 H 0.11909 1.11180 0.76699
 H755 H 0.01285 1.14884 0.85306
 H756 H 0.02239 1.09878 0.82894
 C757 C 0.58063 0.66829 0.30885
 C758 C 0.55748 0.66880 0.33353
 C759 C 0.54107 0.64148 0.34163
 C760 C 0.54799 0.61362 0.32654
 C761 C 0.57160 0.61220 0.30296
 C762 C 0.58844 0.63963 0.29409
 C763 C 0.59619 0.69572 0.29847
 C764 C 0.62010 0.69469 0.27541
 C765 C 0.62899 0.66647 0.26225
 C766 C 0.61346 0.63916 0.27144
 H767 H 0.58990 0.71820 0.30786
 H768 H 0.63195 0.71588 0.26788
 H769 H 0.64793 0.66573 0.24470
 H770 H 0.62153 0.61782 0.26075
 H771 H 0.52329 0.64156 0.36038
 H772 H 0.53517 0.59283 0.33368
 C773 C 0.57939 0.32696 0.19059
 C774 C 0.56008 0.32614 0.16367
 C775 C 0.54803 0.35391 0.15112
 C776 C 0.55633 0.38250 0.16372
 C777 C 0.57682 0.38399 0.18921
 C778 C 0.58781 0.35612 0.20349
 C779 C 0.59039 0.29937 0.20510
 C780 C 0.60942 0.30054 0.23156
 C781 C 0.61766 0.32906 0.24417
 C782 C 0.60694 0.35664 0.23043
 H783 H 0.58415 0.27670 0.19637
 H784 H 0.61766 0.27921 0.24244
 H785 H 0.63228 0.32981 0.26482
 H786 H 0.61348 0.37827 0.24129
 H787 H 0.53306 0.35349 0.13067
 H788 H 0.54775 0.40366 0.15270
 C789 C 0.03778 0.85436 0.65404
 C790 C 0.05866 0.82823 0.65691
 C791 C 0.08724 0.83197 0.67308
 C792 C 0.09474 0.85983 0.68721
 C793 C 0.07426 0.88540 0.68564
 C794 C 0.04555 0.88297 0.66890
 C795 C 0.01082 0.85373 0.63460
 C796 C -0.00902 0.87956 0.63173
 C797 C -0.00203 0.90691 0.64720
 C798 C 0.02519 0.90886 0.66524
 H799 H 0.00524 0.83379 0.62056
 H800 H -0.02966 0.87850 0.61695
 H801 H -0.01736 0.92699 0.64458
 H802 H 0.03034 0.93102 0.67572
 H803 H 0.10363 0.81271 0.67595
 H804 H 0.11689 0.86142 0.69973
 C805 C 0.92385 0.66840 0.70564
 C806 C 0.94461 0.67033 0.67904
 C807 C 0.95907 0.64329 0.66756
 C808 C 0.95199 0.61436 0.68087
 C809 C 0.93038 0.61162 0.70617
 C810 C 0.91628 0.63877 0.71904
 C811 C 0.91033 0.69532 0.71911
 C812 C 0.88899 0.69305 0.74449
 C813 C 0.88071 0.66406 0.75690
 C814 C 0.89408 0.63712 0.74434
 H815 H 0.91630 0.71831 0.71035
 H816 H 0.87873 0.71390 0.75450
 H817 H 0.86391 0.66242 0.77643
 H818 H 0.88675 0.61515 0.75466
 H819 H 0.97499 0.64446 0.64727
 H820 H 0.96268 0.59376 0.67071
 C821 C 0.42450 0.17100 0.19992
 C822 C 0.44405 0.17101 0.17245
 C823 C 0.45659 0.14293 0.16131
 C824 C 0.44834 0.11476 0.17573
 C825 C 0.42740 0.11401 0.20167
 C826 C 0.41608 0.14225 0.21464
 C827 C 0.41317 0.19898 0.21312
 C828 C 0.39369 0.19858 0.23999
 C829 C 0.38537 0.17045 0.25434
 C830 C 0.39648 0.14250 0.24195
 H831 H 0.41955 0.22135 0.20305
 H832 H 0.38517 0.22021 0.24984
 H833 H 0.37039 0.17029 0.27530
 H834 H 0.38987 0.12119 0.25413
 H835 H 0.47176 0.14275 0.14045
 H836 H 0.45711 0.09329 0.16567
 C837 C 0.37076 0.42710 -0.14597
 C838 C 0.35444 0.44648 -0.16788
 C839 C 0.32433 0.45823 -0.15908
 C840 C 0.30909 0.44846 -0.13141
 C841 C 0.32334 0.42686 -0.11128
 C842 C 0.35463 0.41626 -0.11817
 C843 C 0.40320 0.41924 -0.15037
 C844 C 0.41832 0.39882 -0.12980
 C845 C 0.40168 0.38614 -0.10423
 C846 C 0.37019 0.39475 -0.09831
 H847 H 0.41732 0.42915 -0.16946
 H848 H 0.44304 0.39275 -0.13378
 H849 H 0.41339 0.36993 -0.08858
 H850 H 0.35839 0.38444 -0.07800
 H851 H 0.31108 0.47314 -0.17483
 H852 H 0.28525 0.45685 -0.12631
 C853 C 0.87049 0.90858 0.35469
 C854 C 0.85554 0.92848 0.33225
 C855 C 0.82621 0.94222 0.34065
 C856 C 0.81047 0.93435 0.36868
 C857 C 0.82339 0.91266 0.38960
 C858 C 0.85375 0.89964 0.38284
 C859 C 0.90233 0.89848 0.35057
 C860 C 0.91600 0.87762 0.37169
 C861 C 0.89856 0.86673 0.39757
 C862 C 0.86778 0.87763 0.40326
 H863 H 0.91715 0.90699 0.33131
 H864 H 0.94024 0.86981 0.36789
 H865 H 0.90912 0.85016 0.41365
 H866 H 0.85531 0.86865 0.42383
 H867 H 0.81397 0.95752 0.32447
 H868 H 0.78736 0.94455 0.37362
 C869 C 0.86568 0.05525 1.13997
 C870 C 0.85192 0.03438 1.16270
 C871 C 0.82312 0.01967 1.15545
 C872 C 0.80652 0.02773 1.12851
 C873 C 0.81806 0.05057 1.10764
 C874 C 0.84800 0.06447 1.11312
 C875 C 0.89719 0.06625 1.14263
 C876 C 0.90959 0.08824 1.12150
 C877 C 0.89113 0.09946 1.09708
 C878 C 0.86068 0.08773 1.09278
 H879 H 0.91269 0.05765 1.16079
 H880 H 0.93358 0.09673 1.12419
 H881 H 0.90064 0.11696 1.08106
 H882 H 0.84740 0.09713 1.07336
 H883 H 0.81187 0.00353 1.17188
 H884 H 0.78374 0.01688 1.12453
 C885 C 0.30018 0.57348 0.66807
 C886 C 0.32709 0.55357 0.66881
 C887 C 0.33791 0.53960 0.64104
 C888 C 0.32358 0.54628 0.61246
 C889 C 0.29800 0.56711 0.61081
 C890 C 0.28595 0.58090 0.63877
 C891 C 0.28721 0.58635 0.69588
 C892 C 0.26180 0.60716 0.69475
 C893 C 0.24883 0.61553 0.66602
 C894 C 0.26072 0.60266 0.63826
 H895 H 0.29639 0.58026 0.71871
 H896 H 0.25224 0.61696 0.71627
 H897 H 0.22936 0.63201 0.66525
 H898 H 0.25000 0.61012 0.61655
 H899 H 0.35843 0.52433 0.64129
 H900 H 0.33313 0.53579 0.59126
 C901 C 0.18798 0.53785 0.32993
 C902 C 0.15457 0.54095 0.32668
 C903 C 0.13612 0.55216 0.35183
 C904 C 0.15021 0.56114 0.37963
 C905 C 0.18316 0.55903 0.38318
 C906 C 0.20234 0.54681 0.35854
 C907 C 0.20766 0.52735 0.30495
 C908 C 0.24050 0.52502 0.30836
 C909 C 0.25443 0.53344 0.33642
 C910 C 0.23566 0.54443 0.36127
 H911 H 0.19804 0.52109 0.28251
 H912 H 0.25524 0.51681 0.28904
 H913 H 0.27995 0.53170 0.33886
 H914 H 0.24749 0.55110 0.38252
 H915 H 0.11064 0.55490 0.34953
 H916 H 0.13540 0.57087 0.39819
 C917 C 0.69253 0.04471 0.83289
 C918 C 0.66061 0.05479 0.82746
 C919 C 0.64421 0.07053 0.85166
 C920 C 0.65824 0.07625 0.88028
 C921 C 0.68925 0.06648 0.88617
 C922 C 0.70658 0.05016 0.86272
 C923 C 0.71197 0.03198 0.80871
 C924 C 0.74311 0.02263 0.81443
 C925 C 0.75607 0.02662 0.84391
 C926 C 0.73825 0.04064 0.86775
 H927 H 0.70396 0.02999 0.78488
 H928 H 0.75745 0.01268 0.79568
 H929 H 0.78035 0.01951 0.84811
 H930 H 0.74968 0.04426 0.88996
 H931 H 0.61987 0.07820 0.84868
 H932 H 0.64488 0.08902 0.89794
 C933 C 0.69319 0.94404 0.66491
 C934 C 0.65981 0.94890 0.66514
 C935 C 0.64288 0.94502 0.63741
 C936 C 0.65822 0.93528 0.60993
 C937 C 0.69088 0.92904 0.60947
 C938 C 0.70884 0.93416 0.63677
 C939 C 0.71124 0.94757 0.69232
 C940 C 0.74396 0.94219 0.69176
 C941 C 0.75928 0.93296 0.66412
 C942 C 0.74197 0.92883 0.63685
 H943 H 0.70033 0.95437 0.71440
 H944 H 0.75749 0.94511 0.71292
 H945 H 0.78468 0.92881 0.66386
 H946 H 0.75472 0.92155 0.61585
 H947 H 0.61735 0.94847 0.63738
 H948 H 0.64422 0.93106 0.58928
 C949 C 0.19109 0.41897 0.16891
 C950 C 0.16027 0.43216 0.16742
 C951 C 0.14710 0.43908 0.13819
 C952 C 0.16330 0.43150 0.11044
 C953 C 0.19305 0.41683 0.11128
 C954 C 0.20772 0.41142 0.14061
 C955 C 0.20568 0.41294 0.19801
 C956 C 0.23601 0.39987 0.19912
 C957 C 0.25243 0.39277 0.17141
 C958 C 0.23859 0.39856 0.14239
 H959 H 0.19390 0.41848 0.22008
 H960 H 0.24690 0.39539 0.22158
 H961 H 0.27607 0.38284 0.17241
 H962 H 0.25238 0.39316 0.12143
 H963 H 0.12360 0.44933 0.13691
 H964 H 0.15187 0.43570 0.08817
 C965 C -0.17263 0.31413 0.44778
 C966 C -0.17123 0.34665 0.44169
 C967 C -0.14332 0.35959 0.42879
 C968 C -0.11734 0.34096 0.42100
 C969 C -0.11830 0.30875 0.42606
 C970 C -0.14561 0.29521 0.44071
 C971 C -0.20054 0.29976 0.45987
 C972 C -0.20114 0.26797 0.46659
 C973 C -0.17419 0.24984 0.46124
 C974 C -0.14666 0.26321 0.44838
 H975 H -0.22222 0.31271 0.46403
 H976 H -0.22262 0.25737 0.47610
 H977 H -0.17469 0.22524 0.46684
 H978 H -0.12620 0.24831 0.44474
 H979 H -0.14192 0.38435 0.42401
 H980 H -0.09674 0.35167 0.40975
 C981 C 0.36438 0.87635 0.92421
 C982 C 0.34041 0.86257 0.94401
 C983 C 0.34535 0.83204 0.95524
 C984 C 0.37110 0.81439 0.94467
 C985 C 0.39308 0.82656 0.92281
 C986 C 0.39013 0.85788 0.91259
 C987 C 0.36419 0.90847 0.91684
 C988 C 0.38659 0.92131 0.89597
 C989 C 0.41005 0.90263 0.88251
 C990 C 0.41202 0.87126 0.89079
 H991 H 0.34716 0.92401 0.92767
 H992 H 0.38575 0.94588 0.89026
 H993 H 0.42719 0.91262 0.86603
 H994 H 0.43092 0.85777 0.88005
 H995 H 0.32790 0.82064 0.97040
 H996 H 0.37322 0.79050 0.95273
 C997 C 1.17642 0.81205 0.04121
 C998 C 1.17937 0.84250 0.05398
 C999 C 1.15376 0.85457 0.07182
 C1000 C 1.12599 0.83770 0.07692
 C1001 C 1.12260 0.80796 0.06463
 C1002 C 1.14746 0.79519 0.04591
 C1003 C 1.20223 0.79674 0.02609
 C1004 C 1.19860 0.76727 0.01335
 C1005 C 1.16958 0.75199 0.01598
 C1006 C 1.14427 0.76560 0.03233
 H1007 H 1.22571 0.80678 0.02462
 H1008 H 1.21852 0.75613 0.00155
 H1009 H 1.16686 0.72919 0.00587
 H1010 H 1.12223 0.75273 0.03430
 H1011 H 1.15490 0.87768 0.08159
 H1012 H 1.10725 0.84763 0.09150
 C1013 C 0.66947 0.31704 0.54129
 C1014 C 0.67087 0.34890 0.54961
 C1015 C 0.64407 0.36310 0.56322
 C1016 C 0.61651 0.34621 0.56968
 C1017 C 0.61472 0.31455 0.56257
 C1018 C 0.64085 0.30001 0.54706
 C1019 C 0.69610 0.30137 0.52827
 C1020 C 0.69400 0.27034 0.51945
 C1021 C 0.66556 0.25423 0.52360
 C1022 C 0.63920 0.26880 0.53731
 H1023 H 0.71884 0.31270 0.52495
 H1024 H 0.71454 0.25875 0.50926
 H1025 H 0.66398 0.23024 0.51639
 H1026 H 0.61750 0.25550 0.53999
 H1027 H 0.64481 0.38738 0.56969
 H1028 H 0.59686 0.35767 0.58166
 C1029 C 0.33040 0.20157 0.55604
 C1030 C 0.32792 0.16878 0.55445
 C1031 C 0.35484 0.15029 0.55928
 C1032 C 0.38381 0.16365 0.56659
 C1033 C 0.38676 0.19591 0.56945
 C1034 C 0.36005 0.21529 0.56378
 C1035 C 0.30373 0.22095 0.55139
 C1036 C 0.30621 0.25311 0.55417
 C1037 C 0.33505 0.26651 0.56199
 C1038 C 0.36171 0.24789 0.56698
 H1039 H 0.28074 0.21149 0.54577
 H1040 H 0.28557 0.26770 0.55050
 H1041 H 0.33672 0.29147 0.56443
 H1042 H 0.38342 0.25931 0.57353
 H1043 H 0.35311 0.12518 0.55833
 H1044 H 0.40392 0.14859 0.57122
 C1045 C 0.82829 0.69978 0.07547
 C1046 C 0.82435 0.67799 0.05078
 C1047 C 0.85106 0.67001 0.03213
 C1048 C 0.88135 0.68044 0.03945
 C1049 C 0.88598 0.69964 0.06523
 C1050 C 0.85940 0.70982 0.08333
 C1051 C 0.80192 0.71309 0.09155
 C1052 C 0.80618 0.73335 0.11644
 C1053 C 0.83665 0.74120 0.12561
 C1054 C 0.86307 0.72970 0.10925
 H1055 H 0.77777 0.70847 0.08467
 H1056 H 0.78571 0.74303 0.12866
 H1057 H 0.83984 0.75671 0.14516
 H1058 H 0.88626 0.73677 0.11704
 H1059 H 0.84901 0.65374 0.01303
 H1060 H 0.90154 0.67269 0.02540
 C1061 C 0.66377 0.69802 0.93519
 C1062 C 0.66813 0.66528 0.93524
 C1063 C 0.64294 0.64600 0.92691
 C1064 C 0.61382 0.65853 0.91822
 C1065 C 0.60893 0.69072 0.91773
 C1066 C 0.63386 0.71083 0.92646
 C1067 C 0.68885 0.71840 0.94237
 C1068 C 0.68437 0.75051 0.94162
 C1069 C 0.65512 0.76299 0.93330
 C1070 C 0.63011 0.74346 0.92556
 H1071 H 0.71221 0.70985 0.94826
 H1072 H 0.70379 0.76582 0.94727
 H1073 H 0.65187 0.78795 0.93255
 H1074 H 0.60800 0.75422 0.91870
 H1075 H 0.64605 0.62099 0.92668
 H1076 H 0.59508 0.64300 0.91112
 C1077 C 0.15564 0.18940 0.44670
 C1078 C 0.16001 0.15675 0.44936
 C1079 C 0.13437 0.13686 0.44408
 C1080 C 0.10495 0.14865 0.43535
 C1081 C 0.10021 0.18068 0.43181
 C1082 C 0.12541 0.20145 0.43800
 C1083 C 0.18098 0.21032 0.45109
 C1084 C 0.17644 0.24229 0.44771
 C1085 C 0.14685 0.25404 0.43948
 C1086 C 0.12157 0.23392 0.43443
 H1087 H 0.20456 0.20231 0.45684
 H1088 H 0.19606 0.25803 0.45125
 H1089 H 0.14354 0.27888 0.43671
 H1090 H 0.09913 0.24404 0.42762
 H1091 H 0.13747 0.11190 0.44586
 H1092 H 0.08599 0.13258 0.43017
 C1093 C 0.55945 0.09473 0.73708
 C1094 C 0.59232 0.09740 0.74361
 C1095 C 0.60825 0.12517 0.73621
 C1096 C 0.59263 0.14960 0.72127
 C1097 C 0.56069 0.14692 0.71314
 C1098 C 0.54361 0.11960 0.72141
 C1099 C 0.54181 0.06812 0.74625
 C1100 C 0.50962 0.06576 0.73936
 C1101 C 0.49430 0.08987 0.72359
 C1102 C 0.51099 0.11664 0.71479
 H1103 H 0.55251 0.04912 0.75915
 H1104 H 0.49644 0.04519 0.74646
 H1105 H 0.46928 0.08794 0.71843
 H1106 H 0.49806 0.13508 0.70310
 H1107 H 0.63328 0.12762 0.74124
 H1108 H 0.60585 0.17045 0.71509
 C1109 C 1.11628 0.61237 0.23029
 C1110 C 1.10093 0.58278 0.23258
 C1111 C 1.07166 0.57896 0.21755
 C1112 C 1.05688 0.60360 0.20225
 C1113 C 1.07060 0.63310 0.20137
 C1114 C 1.10055 0.63779 0.21522
 C1115 C 1.14789 0.61681 0.24020
 C1116 C 1.16240 0.64586 0.23786
 C1117 C 1.14629 0.67093 0.22473
 C1118 C 1.11584 0.66696 0.21311
 H1119 H 1.16221 0.59781 0.24891
 H1120 H 1.18648 0.64882 0.24585
 H1121 H 1.15776 0.69339 0.22280
 H1122 H 1.10470 0.68682 0.20199
 H1123 H 1.05920 0.55695 0.21871
 H1124 H 1.03419 0.59970 0.19129
 C1125 C 0.89240 0.87304 0.20784
 C1126 C 0.90534 0.88510 0.23571
 C1127 C 0.93381 0.87281 0.24713
 C1128 C 0.94998 0.84945 0.23103
 C1129 C 0.93807 0.83751 0.20315
 C1130 C 0.90907 0.84927 0.19122
 C1131 C 0.86311 0.88392 0.19624
 C1132 C 0.85100 0.87232 0.16845
 C1133 C 0.86773 0.84978 0.15171
 C1134 C 0.89652 0.83835 0.16283
 H1135 H 0.84923 0.90127 0.20860
 H1136 H 0.82855 0.88093 0.15979
 H1137 H 0.85832 0.84105 0.13000
 H1138 H 0.90880 0.82104 0.14890
 H1139 H 0.94394 0.88185 0.26839
 H1140 H 0.97210 0.84066 0.24035
 C1141 C 0.39004 0.39194 0.70826
 C1142 C 0.40415 0.40613 0.73447
 C1143 C 0.43388 0.39579 0.74466
 C1144 C 0.44988 0.37190 0.72924
 C1145 C 0.43651 0.35747 0.70332
 C1146 C 0.40651 0.36758 0.69237
 C1147 C 0.35973 0.40110 0.69777
 C1148 C 0.34638 0.38720 0.67168
 C1149 C 0.36283 0.36399 0.65563
 C1150 C 0.39261 0.35420 0.66576
 H1151 H 0.34602 0.41888 0.70966
 H1152 H 0.32317 0.39452 0.66384
 H1153 H 0.35243 0.35344 0.63527
 H1154 H 0.40462 0.33622 0.65249
 H1155 H 0.44485 0.40645 0.76470
 H1156 H 0.47278 0.36436 0.73779
 C1157 C 0.37518 0.62254 0.76836
 C1158 C 0.39306 0.59902 0.75303
 C1159 C 0.42628 0.60105 0.75154
 C1160 C 0.44201 0.62577 0.76519
 C1161 C 0.42496 0.64903 0.78091
 C1162 C 0.39127 0.64788 0.78225
 C1163 C 0.34169 0.62114 0.77073
 C1164 C 0.32443 0.64459 0.78570
 C1165 C 0.34012 0.66970 0.79869
 C1166 C 0.37322 0.67142 0.79708
 H1167 H 0.32858 0.60192 0.76125
 H1168 H 0.29875 0.64327 0.78722
 H1169 H 0.32658 0.68789 0.81016
 H1170 H 0.38448 0.69137 0.80739
 H1171 H 0.44015 0.58317 0.73986
 H1172 H 0.46776 0.62640 0.76414
 C1173 C -0.11960 0.10346 0.26904
 C1174 C -0.09976 0.07968 0.25677
 C1175 C -0.06672 0.08199 0.25937
 C1176 C -0.05308 0.10741 0.27390
 C1177 C -0.07212 0.13110 0.28643
 C1178 C -0.10565 0.12946 0.28393
 C1179 C -0.15302 0.10180 0.26714
 C1180 C -0.17222 0.12548 0.27917
 C1181 C -0.15857 0.15113 0.29329
 C1182 C -0.12562 0.15322 0.29570
 H1183 H -0.16458 0.08221 0.25647
 H1184 H -0.19782 0.12395 0.27750
 H1185 H -0.17360 0.16950 0.30246
 H1186 H -0.11598 0.17362 0.30668
 H1187 H -0.05137 0.06398 0.24993
 H1188 H -0.02745 0.10842 0.27578
 C1189 C 0.11162 0.35958 0.26161
 C1190 C 0.09562 0.38829 0.25658
 C1191 C 0.06353 0.39102 0.26559
 C1192 C 0.04721 0.36611 0.27935
 C1193 C 0.06221 0.33737 0.28409
 C1194 C 0.09445 0.33361 0.27421
 C1195 C 0.14448 0.35618 0.25491
 C1196 C 0.15944 0.32742 0.25821
 C1197 C 0.14212 0.30157 0.26832
 C1198 C 0.10996 0.30451 0.27626
 H1199 H 0.15901 0.37566 0.24739
 H1200 H 0.18456 0.32514 0.25267
 H1201 H 0.15373 0.27917 0.27028
 H1202 H 0.09741 0.28372 0.28370
 H1203 H 0.05091 0.41270 0.26186
 H1204 H 0.02269 0.36948 0.28682
 C1205 C 0.55604 0.91421 0.76309
 C1206 C 0.58743 0.90975 0.75097
 C1207 C 0.60164 0.88039 0.75373
 C1208 C 0.58580 0.85588 0.76862
 C1209 C 0.55541 0.85991 0.78202
 C1210 C 0.54045 0.88951 0.77988
 C1211 C 0.53963 0.94258 0.75869
 C1212 C 0.50974 0.94736 0.77251
 C1213 C 0.49559 0.92408 0.79085
 C1214 C 0.51070 0.89543 0.79460
 H1215 H 0.54952 0.96122 0.74437
 H1216 H 0.49762 0.96935 0.76918
 H1217 H 0.47266 0.92815 0.80205
 H1218 H 0.49892 0.87825 0.80938
 H1219 H 0.62554 0.87646 0.74469
 H1220 H 0.59759 0.83350 0.76999
 C1221 C 0.69763 0.62315 0.09694
 C1222 C 0.73146 0.62175 0.09350
 C1223 C 0.74873 0.60489 0.11609
 C1224 C 0.73339 0.58757 0.13956
 C1225 C 0.70024 0.58643 0.14153
 C1226 C 0.68199 0.60487 0.12075
 C1227 C 0.67909 0.64388 0.07877
 C1228 C 0.64609 0.64483 0.08231
 C1229 C 0.63084 0.62592 0.10457
 C1230 C 0.64853 0.60638 0.12391
 H1231 H 0.68986 0.66019 0.06229
 H1232 H 0.63231 0.66065 0.06800
 H1233 H 0.60523 0.62694 0.10738
 H1234 H 0.63578 0.59304 0.14175
 H1235 H 0.77441 0.60321 0.11446
 H1236 H 0.74756 0.57390 0.15566
 C1237 C 0.25216 1.07584 0.61095
 C1238 C 0.23989 1.10502 0.60114
 C1239 C 0.21238 1.11687 0.61559
 C1240 C 0.19685 1.10031 0.63953
 C1241 C 0.20829 1.07135 0.64964
 C1242 C 0.23613 1.05874 0.63533
 C1243 C 0.27943 1.06281 0.59634
 C1244 C 0.29070 1.03368 0.60562
 C1245 C 0.27490 1.01685 0.62923
 C1246 C 0.24777 1.02906 0.64386
 H1247 H 0.29213 1.07481 0.57752
 H1248 H 0.31164 1.02399 0.59423
 H1249 H 0.28358 0.99410 0.63608
 H1250 H 0.23591 1.01484 0.66157
 H1251 H 0.20266 1.13901 0.60800
 H1252 H 0.17549 1.11006 0.65013
 C1253 C 0.26085 0.94582 0.88691
 C1254 C 0.24706 0.92144 0.90532
 C1255 C 0.21683 0.91046 0.89785
 C1256 C 0.20033 0.92292 0.87263
 C1257 C 0.21374 0.94634 0.85348
 C1258 C 0.24471 0.95739 0.86001
 C1259 C 0.29013 0.95932 0.89490
 C1260 C 0.30449 0.98170 0.87547
 C1261 C 0.28988 0.99127 0.84793
 C1262 C 0.26027 0.97934 0.84018
 H1263 H 0.30191 0.95306 0.91639
 H1264 H 0.32714 0.99155 0.88175
 H1265 H 0.30139 1.00826 0.83263
 H1266 H 0.24996 0.98727 0.81842
 H1267 H 0.20593 0.89184 0.91158
 H1268 H 0.17671 0.91424 0.86809
 C1269 C 0.76540 0.44055 0.37946
 C1270 C 0.74759 0.42051 0.39984
 C1271 C 0.71558 0.41480 0.39357
 C1272 C 0.70121 0.42804 0.36751
 C1273 C 0.71839 0.44716 0.34646
 C1274 C 0.75095 0.45326 0.35207
 C1275 C 0.79718 0.44855 0.38585
 C1276 C 0.81483 0.46706 0.36489
 C1277 C 0.80126 0.47800 0.33730
 C1278 C 0.76967 0.47121 0.33083
 H1279 H 0.80860 0.44085 0.40713
 H1280 H 0.83923 0.47281 0.37000
 H1281 H 0.81525 0.49197 0.32090
 H1282 H 0.76026 0.47994 0.30896
 H1283 H 0.70163 0.39952 0.40880
 H1284 H 0.67630 0.42326 0.36370
 C1285 C 0.77572 0.38811 0.61843
 C1286 C 0.75943 0.40793 0.59729
 C1287 C 0.75839 0.43996 0.60261
 C1288 C 0.77346 0.45266 0.62832
 C1289 C 0.79020 0.43370 0.64926
 C1290 C 0.79112 0.40110 0.64474
 C1291 C 0.77741 0.35571 0.61374
 C1292 C 0.79342 0.33651 0.63485
 C1293 C 0.80800 0.34913 0.66088
 C1294 C 0.80692 0.38110 0.66590
 H1295 H 0.76648 0.34496 0.59377
 H1296 H 0.79446 0.31169 0.63102
 H1297 H 0.82025 0.33408 0.67726
 H1298 H 0.81839 0.38993 0.68652
 H1299 H 0.74597 0.45526 0.58655
 H1300 H 0.77270 0.47761 0.63153
 C1301 C 0.25993 -0.05490 0.10083
 C1302 C 0.25967 -0.08778 0.09887
 C1303 C 0.27315 -0.10575 0.12283
 C1304 C 0.28761 -0.09169 0.14814
 C1305 C 0.28874 -0.05929 0.15035
 C1306 C 0.27477 -0.04052 0.12673
 C1307 C 0.24562 -0.03600 0.07770
 C1308 C 0.24654 -0.00368 0.07970
 C1309 C 0.26162 0.01038 0.10467
 C1310 C 0.27565 -0.00775 0.12802
 H1311 H 0.23349 -0.04597 0.05801
 H1312 H 0.23554 0.01053 0.06176
 H1313 H 0.26237 0.03548 0.10599
 H1314 H 0.28717 0.00413 0.14697
 H1315 H 0.27306 -0.13089 0.12156
 H1316 H 0.29833 -0.10622 0.16603
 C1317 C 0.26446 0.06239 0.41805
 C1318 C 0.25199 0.09251 0.41176
 C1319 C 0.25557 0.10541 0.38156
 C1320 C 0.27182 0.08952 0.35795
 C1321 C 0.28554 0.06036 0.36380
 C1322 C 0.28239 0.04670 0.39426
 C1323 C 0.25933 0.04737 0.44741
 C1324 C 0.27333 0.01868 0.45392
 C1325 C 0.29260 0.00437 0.43143
 C1326 C 0.29720 0.01815 0.40190
 H1327 H 0.24429 0.05746 0.46549
 H1328 H 0.26940 0.00760 0.47663
 H1329 H 0.30389 -0.01765 0.43683
 H1330 H 0.31267 0.00630 0.38538
 H1331 H 0.24616 0.12832 0.37632
 H1332 H 0.27401 0.10027 0.33486
 C1333 C 0.79220 0.61422 0.88696
 C1334 C 0.76301 0.60391 0.90057
 C1335 C 0.74967 0.57596 0.89068
 C1336 C 0.76482 0.55802 0.86786
 C1337 C 0.79369 0.56757 0.85405
 C1338 C 0.80787 0.59572 0.86377
 C1339 C 0.80597 0.64270 0.89561
 C1340 C 0.83496 0.65230 0.88241
 C1341 C 0.85076 0.63381 0.86049
 C1342 C 0.83751 0.60574 0.85125
 H1343 H 0.79446 0.65785 0.91246
 H1344 H 0.84527 0.67416 0.88933
 H1345 H 0.87339 0.64127 0.85053
 H1346 H 0.85082 0.59201 0.83442
 H1347 H 0.72736 0.56787 0.90091
 H1348 H 0.75378 0.53656 0.86069
 C1349 C 0.10317 0.74639 0.56672
 C1350 C 0.09510 0.73629 0.59768
 C1351 C 0.11104 0.71091 0.61094
 C1352 C 0.13484 0.69546 0.59408
 C1353 C 0.14318 0.70484 0.56340
 C1354 C 0.12759 0.73067 0.54952
 C1355 C 0.08725 0.77160 0.55234
 C1356 C 0.09573 0.78152 0.52203
 C1357 C 0.12010 0.76661 0.50551
 C1358 C 0.13597 0.74145 0.51901
 H1359 H 0.06810 0.78378 0.56429
 H1360 H 0.08339 0.80093 0.51134
 H1361 H 0.12672 0.77457 0.48207
 H1362 H 0.15491 0.73069 0.50543
 H1363 H 0.10504 0.70306 0.63459
 H1364 H 0.14657 0.67571 0.60488
 C1365 C 0.61051 0.24666 1.07081
 C1366 C 0.59878 0.23622 1.10052
 C1367 C 0.61155 0.20942 1.11435
 C1368 C 0.63562 0.19278 1.09919
 C1369 C 0.64738 0.20234 1.06966
 C1370 C 0.63516 0.22964 1.05531
 C1371 C 0.59796 0.27339 1.05594
 C1372 C 0.60993 0.28347 1.02680
 C1373 C 0.63446 0.26718 1.01194
 C1374 C 0.64705 0.24052 1.02596
 H1375 H 0.57882 0.28666 1.06661
 H1376 H 0.60016 0.30405 1.01572
 H1377 H 0.64376 0.27523 0.98941
 H1378 H 0.66620 0.22865 1.01370
 H1379 H 0.60269 0.20127 1.13704
 H1380 H 0.64481 0.17193 1.11035
 C1381 C 0.90981 0.22478 0.95144
 C1382 C 0.90681 0.23354 0.91940
 C1383 C 0.87975 0.22479 0.90303
 C1384 C 0.85597 0.20717 0.91768
 C1385 C 0.85842 0.19802 0.94920
 C1386 C 0.88545 0.20671 0.96643
 C1387 C 0.93633 0.23384 0.96901
 C1388 C 0.93908 0.22470 1.00040
 C1389 C 0.91557 0.20652 1.01486
 C1390 C 0.88896 0.19756 0.99815
 H1391 H 0.95502 0.24813 0.95875
 H1392 H 0.95958 0.23174 1.01357
 H1393 H 0.91794 0.19939 1.03919
 H1394 H 0.87127 0.18338 1.01024
 H1395 H 0.87724 0.23135 0.87853
 H1396 H 0.83537 0.20065 0.90433
 C1397 C 0.37471 0.72229 0.37724
 C1398 C 0.39957 0.73361 0.39599
 C1399 C 0.39810 0.72923 0.42864
 C1400 C 0.37246 0.71392 0.44294
 C1401 C 0.34770 0.70231 0.42498
 C1402 C 0.34847 0.70658 0.39189
 C1403 C 0.37553 0.72586 0.34422
 C1404 C 0.35078 0.71474 0.32612
 C1405 C 0.32489 0.69987 0.34048
 C1406 C 0.32363 0.69577 0.37304
 H1407 H 0.39528 0.73713 0.33212
 H1408 H 0.35168 0.71770 0.30083
 H1409 H 0.30569 0.69141 0.32630
 H1410 H 0.30302 0.68423 0.38327
 H1411 H 0.41696 0.73786 0.44318
 H1412 H 0.37214 0.71070 0.46824
 C1413 C 0.61977 0.77284 0.38449
 C1414 C 0.59777 0.75362 0.40110
 C1415 C 0.60074 0.74911 0.43351
 C1416 C 0.62528 0.76313 0.44965
 C1417 C 0.64754 0.78211 0.43385
 C1418 C 0.64472 0.78746 0.40101
 C1419 C 0.61707 0.77832 0.35187
 C1420 C 0.63836 0.79792 0.33590
 C1421 C 0.66240 0.81266 0.35208
 C1422 C 0.66553 0.80771 0.38433
 H1423 H 0.59840 0.76775 0.33851
 H1424 H 0.63600 0.80194 0.31089
 H1425 H 0.67860 0.82816 0.33961
 H1426 H 0.68415 0.82018 0.39597
 H1427 H 0.58389 0.73458 0.44640
 H1428 H 0.62698 0.75910 0.47475
 C1429 C 0.12226 0.27401 -0.12296
 C1430 C 0.10106 0.25466 -0.10551
 C1431 C 0.10566 0.24972 -0.07338
 C1432 C 0.13082 0.26372 -0.05826
 C1433 C 0.15206 0.28319 -0.07478
 C1434 C 0.14787 0.28866 -0.10744
 C1435 C 0.11801 0.27977 -0.15533
 C1436 C 0.13847 0.29962 -0.17205
 C1437 C 0.16318 0.31434 -0.15685
 C1438 C 0.16782 0.30915 -0.12483
 H1439 H 0.09877 0.26921 -0.16791
 H1440 H 0.13493 0.30385 -0.19688
 H1441 H 0.17874 0.33003 -0.16988
 H1442 H 0.18692 0.32161 -0.11394
 H1443 H 0.08942 0.23507 -0.05985
 H1444 H 0.13359 0.25957 -0.03329
 C1445 C 0.37655 0.27015 0.12061
 C1446 C 0.40337 0.25725 0.10481
 C1447 C 0.40517 0.25823 0.07192
 C1448 C 0.38103 0.27183 0.05452
 C1449 C 0.35445 0.28502 0.06951
 C1450 C 0.35172 0.28387 0.10279
 C1451 C 0.37411 0.27023 0.15375
 C1452 C 0.34738 0.28265 0.16893
 C1453 C 0.32272 0.29528 0.15150
 C1454 C 0.32474 0.29592 0.11875
 H1455 H 0.39282 0.26093 0.16821
 H1456 H 0.34578 0.28244 0.19435
 H1457 H 0.30194 0.30470 0.16342
 H1458 H 0.30493 0.30576 0.10613
 H1459 H 0.42553 0.24836 0.05961
 H1460 H 0.38339 0.27266 0.02912
 C1461 C 0.87471 0.76992 0.62938
 C1462 C 0.90109 0.75674 0.61309
 C1463 C 0.90198 0.75727 0.58017
 C1464 C 0.87739 0.77068 0.56322
 C1465 C 0.85124 0.78415 0.57869
 C1466 C 0.84944 0.78351 0.61202
 C1467 C 0.87313 0.77040 0.66254
 C1468 C 0.84686 0.78312 0.67822
 C1469 C 0.82180 0.79566 0.66127
 C1470 C 0.82297 0.79592 0.62850
 H1471 H 0.89218 0.76116 0.67662
 H1472 H 0.84591 0.78321 0.70366
 H1473 H 0.80139 0.80533 0.67359
 H1474 H 0.80291 0.80574 0.61625
 H1475 H 0.92199 0.74721 0.56747
 H1476 H 0.87906 0.77111 0.53778
   
