data_POSCAR
  _audit_creation_date              2014-09-24
  _audit_creation_method            'ToBaCCo'
  _symmetry_space_group_name_H-M    'P1'
  _symmetry_Int_Tables_number       1
  _symmetry_cell_setting            triclinic
  loop_
  _symmetry_equiv_pos_as_xyz
 x,y,z
_cell_length_a 94.2914
_cell_length_b 94.3224
_cell_length_c 94.7078
_cell_angle_alpha 89.957400
_cell_angle_beta 89.994000
_cell_angle_gamma 89.950500
loop_
  _atom_site_label
  _atom_site_type_symbol
  _atom_site_fract_x
  _atom_site_fract_y
  _atom_site_fract_z
N1 N 0.35936 0.32032 0.33001
 N2 N 0.35875 0.32978 0.31982
 C3 C 0.36959 0.32755 0.31080
 C4 C 0.37737 0.31613 0.31566
 C5 C 0.37062 0.31182 0.32788
 H6 H 0.37164 0.33367 0.30136
 H7 H 0.37354 0.30297 0.33455
 Cu8 Cu 0.34368 0.34388 0.31926
 Cu9 Cu 0.34508 0.31923 0.34485
 Cu10 Cu 0.31778 0.34388 0.34362
 N11 N 0.32873 0.35810 0.31909
 N12 N 0.31846 0.35783 0.32849
 C13 C 0.30945 0.36861 0.32594
 C14 C 0.31438 0.37606 0.31439
 C15 C 0.32663 0.36915 0.31030
 H16 H 0.30010 0.37097 0.33213
 H17 H 0.33346 0.37197 0.30156
 N18 N 0.31903 0.32899 0.35816
 N19 N 0.32959 0.31981 0.35884
 C20 C 0.32758 0.31126 0.37006
 C21 C 0.31515 0.31522 0.37668
 C22 C 0.30999 0.32647 0.36889
 H23 H 0.33455 0.30270 0.37317
 H24 H 0.30039 0.33239 0.37096
 H25 H 0.32880 0.32805 0.33322
 H26 H 0.33941 0.34039 0.34441
 N27 N 0.35839 0.81868 -0.17193
 N28 N 0.35831 0.82865 -0.18165
 C29 C 0.36916 0.82642 -0.19064
 C30 C 0.37640 0.81443 -0.18627
 C31 C 0.36927 0.80977 -0.17438
 H32 H 0.37170 0.83304 -0.19961
 H33 H 0.37188 0.80067 -0.16793
 Cu34 Cu 0.34416 0.84369 -0.18136
 Cu35 Cu 0.34459 0.81814 -0.15663
 Cu36 Cu 0.31960 0.84515 -0.15569
 N37 N 0.32975 0.85847 -0.18109
 N38 N 0.32041 0.85918 -0.17079
 C39 C 0.31185 0.87041 -0.17295
 C40 C 0.31600 0.87703 -0.18531
 C41 C 0.32738 0.86919 -0.19022
 H42 H 0.30314 0.87342 -0.16615
 H43 H 0.33346 0.87117 -0.19970
 N44 N 0.32047 0.82990 -0.14145
 N45 N 0.32980 0.81946 -0.14198
 C46 C 0.32737 0.81050 -0.13116
 C47 C 0.31603 0.81558 -0.12346
 C48 C 0.31192 0.82789 -0.13022
 H49 H 0.33337 0.80097 -0.12901
 H50 H 0.30321 0.83474 -0.12726
 H51 H 0.32858 0.82880 -0.16715
 H52 H 0.34082 0.83970 -0.15613
 N53 N 0.85856 0.31993 -0.17077
 N54 N 0.85831 0.32986 -0.18052
 C55 C 0.86913 0.32768 -0.18958
 C56 C 0.87653 0.31583 -0.18517
 C57 C 0.86957 0.31119 -0.17320
 H58 H 0.87151 0.33422 -0.19866
 H59 H 0.87227 0.30207 -0.16681
 Cu60 Cu 0.84396 0.34470 -0.18031
 Cu61 Cu 0.84449 0.31890 -0.15577
 Cu62 Cu 0.81833 0.34473 -0.15559
 N63 N 0.82906 0.35899 -0.18018
 N64 N 0.81897 0.35882 -0.17059
 C65 C 0.80995 0.36962 -0.17303
 C66 C 0.81470 0.37699 -0.18473
 C67 C 0.82685 0.36998 -0.18901
 H68 H 0.80068 0.37199 -0.16672
 H69 H 0.83350 0.37266 -0.19792
 N70 N 0.81947 0.32958 -0.14131
 N71 N 0.82934 0.31963 -0.14147
 C72 C 0.82712 0.31072 -0.13057
 C73 C 0.81537 0.31533 -0.12320
 C74 C 0.81079 0.32731 -0.13024
 H75 H 0.83357 0.30156 -0.12812
 H76 H 0.80173 0.33379 -0.12753
 H77 H 0.82851 0.32897 -0.16689
 H78 H 0.83979 0.34030 -0.15526
 N79 N 0.85795 0.81890 0.32856
 N80 N 0.85735 0.82844 0.31843
 C81 C 0.86804 0.82611 0.30927
 C82 C 0.87572 0.81455 0.31397
 C83 C 0.86905 0.81024 0.32623
 H84 H 0.87022 0.83242 0.29999
 H85 H 0.87208 0.80147 0.33294
 Cu86 Cu 0.84295 0.84319 0.31869
 Cu87 Cu 0.84433 0.81839 0.34403
 Cu88 Cu 0.81890 0.84504 0.34472
 N89 N 0.82859 0.85800 0.31895
 N90 N 0.81943 0.85885 0.32939
 C91 C 0.81090 0.87011 0.32727
 C92 C 0.81491 0.87661 0.31480
 C93 C 0.82616 0.86866 0.30978
 H94 H 0.80235 0.87325 0.33421
 H95 H 0.83214 0.87057 0.30022
 N96 N 0.82011 0.83001 0.35918
 N97 N 0.82962 0.81973 0.35878
 C98 C 0.82733 0.81084 0.36968
 C99 C 0.81587 0.81580 0.37730
 C100 C 0.81157 0.82796 0.37041
 H101 H 0.83345 0.80141 0.37190
 H102 H 0.80270 0.83466 0.37325
 H103 H 0.82790 0.82849 0.33361
 H104 H 0.84017 0.83988 0.34407
 N105 N 0.64191 0.68168 0.32936
 N106 N 0.64116 0.67093 0.32057
 C107 C 0.63007 0.67291 0.31182
 C108 C 0.62358 0.68556 0.31534
 C109 C 0.63136 0.69087 0.32649
 H110 H 0.62694 0.66573 0.30348
 H111 H 0.62939 0.70062 0.33217
 Cu112 Cu 0.65482 0.65544 0.32114
 Cu113 Cu 0.65616 0.68277 0.34412
 Cu114 Cu 0.68149 0.65625 0.34491
 N115 N 0.66992 0.64135 0.32117
 N116 N 0.68038 0.64182 0.33034
 C117 C 0.68944 0.63109 0.32774
 C118 C 0.68436 0.62349 0.31636
 C119 C 0.67196 0.63025 0.31245
 H120 H 0.69902 0.62897 0.33365
 H121 H 0.66506 0.62738 0.30380
 N122 N 0.68088 0.67176 0.35878
 N123 N 0.67137 0.68202 0.35833
 C124 C 0.67378 0.69105 0.36908
 C125 C 0.68530 0.68618 0.37666
 C126 C 0.68954 0.67394 0.36988
 H127 H 0.66754 0.70040 0.37137
 H128 H 0.69830 0.66715 0.37284
 H129 H 0.67125 0.67148 0.33290
 H130 H 0.66012 0.66125 0.34570
 N131 N 0.64235 0.18165 -0.17085
 N132 N 0.64206 0.17137 -0.18023
 C133 C 0.63097 0.17342 -0.18896
 C134 C 0.62404 0.18565 -0.18485
 C135 C 0.63153 0.19062 -0.17335
 H136 H 0.62812 0.16659 -0.19767
 H137 H 0.62917 0.19997 -0.16717
 Cu138 Cu 0.65633 0.15647 -0.18011
 Cu139 Cu 0.65638 0.18238 -0.15580
 Cu140 Cu 0.68111 0.15514 -0.15466
 N141 N 0.67047 0.14145 -0.17963
 N142 N 0.67996 0.14085 -0.16947
 C143 C 0.68846 0.12958 -0.17161
 C144 C 0.68413 0.12284 -0.18383
 C145 C 0.67268 0.13063 -0.18866
 H146 H 0.69731 0.12667 -0.16493
 H147 H 0.66651 0.12860 -0.19807
 N148 N 0.68056 0.17065 -0.14070
 N149 N 0.67135 0.18119 -0.14135
 C150 C 0.67392 0.19026 -0.13067
 C151 C 0.68522 0.18515 -0.12293
 C152 C 0.68918 0.17271 -0.12954
 H153 H 0.66798 0.19985 -0.12859
 H154 H 0.69778 0.16578 -0.12647
 H155 H 0.67220 0.17140 -0.16627
 H156 H 0.65992 0.16079 -0.15499
 N157 N 0.14235 0.68199 -0.17113
 N158 N 0.14108 0.67086 -0.17939
 C159 C 0.12948 0.67248 -0.18755
 C160 C 0.12323 0.68531 -0.18421
 C161 C 0.13165 0.69107 -0.17377
 H162 H 0.12594 0.66502 -0.19546
 H163 H 0.13015 0.70115 -0.16853
 Cu164 Cu 0.15501 0.65561 -0.17911
 Cu165 Cu 0.15790 0.68405 -0.15782
 Cu166 Cu 0.18129 0.65592 -0.15499
 N167 N 0.16998 0.64138 -0.17914
 N168 N 0.18020 0.64158 -0.16971
 C169 C 0.18920 0.63079 -0.17226
 C170 C 0.18431 0.62342 -0.18387
 C171 C 0.17209 0.63039 -0.18798
 H172 H 0.19862 0.62849 -0.16616
 H173 H 0.16536 0.62772 -0.19683
 N174 N 0.18073 0.67161 -0.14133
 N175 N 0.17206 0.68253 -0.14261
 C176 C 0.17444 0.69163 -0.13191
 C177 C 0.18510 0.68614 -0.12354
 C178 C 0.18884 0.67346 -0.12978
 H179 H 0.16877 0.70147 -0.13025
 H180 H 0.19696 0.66619 -0.12621
 H181 H 0.17258 0.67089 -0.16799
 H182 H 0.16019 0.66249 -0.15497
 N183 N 0.14131 0.18077 0.33045
 N184 N 0.14110 0.17060 0.32096
 C185 C 0.12995 0.17262 0.31229
 C186 C 0.12290 0.18473 0.31655
 C187 C 0.13037 0.18964 0.32809
 H188 H 0.12726 0.16596 0.30340
 H189 H 0.12806 0.19901 0.33426
 Cu190 Cu 0.15578 0.15609 0.32054
 Cu191 Cu 0.15583 0.18187 0.34502
 Cu192 Cu 0.18229 0.15632 0.34428
 N193 N 0.17058 0.14171 0.32035
 N194 N 0.18104 0.14201 0.32953
 C195 C 0.18991 0.13113 0.32694
 C196 C 0.18471 0.12361 0.31556
 C197 C 0.17244 0.13058 0.31162
 H198 H 0.19942 0.12881 0.33291
 H199 H 0.16547 0.12777 0.30300
 N200 N 0.18165 0.17163 0.35841
 N201 N 0.17143 0.18120 0.35884
 C202 C 0.17371 0.18990 0.36988
 C203 C 0.18595 0.18563 0.37665
 C204 C 0.19074 0.17405 0.36912
 H205 H 0.16698 0.19871 0.37283
 H206 H 0.20007 0.16778 0.37141
 H207 H 0.17154 0.17199 0.33341
 H208 H 0.16081 0.16050 0.34540
 N209 N 0.64191 0.31878 0.67081
 N210 N 0.64144 0.32932 0.67988
 C211 C 0.63028 0.32744 0.68858
 C212 C 0.62349 0.31504 0.68475
 C213 C 0.63114 0.30981 0.67346
 H214 H 0.62736 0.33444 0.69714
 H215 H 0.62898 0.30022 0.66759
 Cu216 Cu 0.65584 0.34409 0.67956
 Cu217 Cu 0.65628 0.31751 0.65608
 Cu218 Cu 0.68177 0.34405 0.65534
 N219 N 0.67027 0.35882 0.67934
 N220 N 0.68053 0.35858 0.66993
 C221 C 0.68941 0.36947 0.67236
 C222 C 0.68443 0.37695 0.68387
 C223 C 0.67226 0.36994 0.68805
 H224 H 0.69885 0.37174 0.66627
 H225 H 0.66554 0.37264 0.69691
 N226 N 0.68119 0.32842 0.64154
 N227 N 0.67165 0.31818 0.64197
 C228 C 0.67410 0.30910 0.63127
 C229 C 0.68566 0.31391 0.62373
 C230 C 0.68990 0.32616 0.63049
 H231 H 0.66785 0.29978 0.62898
 H232 H 0.69868 0.33290 0.62753
 H233 H 0.67190 0.32834 0.66689
 H234 H 0.66046 0.33896 0.65478
 N235 N 0.64177 0.81889 1.16996
 N236 N 0.64179 0.82879 1.17973
 C237 C 0.63074 0.82666 1.18850
 C238 C 0.62351 0.81475 1.18401
 C239 C 0.63078 0.81007 1.17224
 H240 H 0.62818 0.83317 1.19754
 H241 H 0.62824 0.80094 1.16581
 Cu242 Cu 0.65645 0.84328 1.18018
 Cu243 Cu 0.65592 0.81818 1.15501
 Cu244 Cu 0.68182 0.84427 1.15526
 N245 N 0.67095 0.85794 1.18014
 N246 N 0.68073 0.85834 1.17025
 C247 C 0.68933 0.86947 1.17258
 C248 C 0.68473 0.87636 1.18460
 C249 C 0.67305 0.86879 1.18916
 H250 H 0.69834 0.87230 1.16609
 H251 H 0.66661 0.87106 1.19832
 N252 N 0.68111 0.82910 1.14098
 N253 N 0.67115 0.81927 1.14079
 C254 C 0.67346 0.81057 1.12975
 C255 C 0.68547 0.81510 1.12276
 C256 C 0.69008 0.82684 1.13013
 H257 H 0.66697 0.80153 1.12703
 H258 H 0.69926 0.83326 1.12771
 H259 H 0.67194 0.82807 1.16617
 H260 H 0.66041 0.83963 1.15501
 N261 N 0.14125 0.31960 1.17012
 N262 N 0.14108 0.32981 1.17958
 C263 C 0.12997 0.32781 1.18831
 C264 C 0.12290 0.31570 1.18410
 C265 C 0.13033 0.31075 1.17254
 H266 H 0.12732 0.33450 1.19720
 H267 H 0.12799 0.30138 1.16641
 Cu268 Cu 0.15584 0.34422 1.17976
 Cu269 Cu 0.15573 0.31839 1.15547
 Cu270 Cu 0.18230 0.34385 1.15610
 N271 N 0.17061 0.35862 1.18001
 N272 N 0.18110 0.35819 1.17086
 C273 C 0.19005 0.36898 1.17343
 C274 C 0.18488 0.37660 1.18477
 C275 C 0.17253 0.36977 1.18870
 H276 H 0.19958 0.37119 1.16747
 H277 H 0.16557 0.37267 1.19730
 N278 N 0.18156 0.32852 1.14198
 N279 N 0.17131 0.31899 1.14159
 C280 C 0.17354 0.31027 1.13055
 C281 C 0.18578 0.31449 1.12375
 C282 C 0.19061 0.32605 1.13126
 H283 H 0.16679 0.30149 1.12763
 H284 H 0.19995 0.33228 1.12893
 H285 H 0.17153 0.32821 1.16694
 H286 H 0.16084 0.33969 1.15494
 N287 N 0.14183 0.81926 0.66982
 N288 N 0.14186 0.82917 0.67958
 C289 C 0.13082 0.82704 0.68836
 C290 C 0.12359 0.81513 0.68389
 C291 C 0.13085 0.81044 0.67211
 H292 H 0.12826 0.83355 0.69740
 H293 H 0.12830 0.80131 0.66569
 Cu294 Cu 0.15651 0.84367 0.68001
 Cu295 Cu 0.15597 0.81856 0.65485
 Cu296 Cu 0.18185 0.84467 0.65507
 N297 N 0.17100 0.85834 0.67996
 N298 N 0.18077 0.85874 0.67006
 C299 C 0.18937 0.86988 0.67239
 C300 C 0.18478 0.87676 0.68442
 C301 C 0.17311 0.86918 0.68898
 H302 H 0.19837 0.87271 0.66590
 H303 H 0.16667 0.87144 0.69816
 N304 N 0.18114 0.82950 0.64079
 N305 N 0.17118 0.81966 0.64061
 C306 C 0.17348 0.81096 0.62957
 C307 C 0.18548 0.81550 0.62255
 C308 C 0.19009 0.82725 0.62993
 H309 H 0.16700 0.80192 0.62686
 H310 H 0.19926 0.83367 0.62749
 H311 H 0.17198 0.82846 0.66599
 H312 H 0.16043 0.84001 0.65484
 N313 N 0.35865 0.68005 0.67001
 N314 N 0.35877 0.66984 0.67947
 C315 C 0.36972 0.67193 0.68838
 C316 C 0.37676 0.68410 0.68427
 C317 C 0.36947 0.68899 0.67259
 H318 H 0.37233 0.66520 0.69726
 H319 H 0.37181 0.69840 0.66649
 Cu320 Cu 0.34455 0.65489 0.67935
 Cu321 Cu 0.34433 0.68120 0.65525
 Cu322 Cu 0.31623 0.65777 0.65789
 N323 N 0.32935 0.64093 0.67952
 N324 N 0.31826 0.64219 0.67119
 C325 C 0.30919 0.63149 0.67378
 C326 C 0.31492 0.62307 0.68427
 C327 C 0.32772 0.62933 0.68767
 H328 H 0.29913 0.62999 0.66850
 H329 H 0.33514 0.62580 0.69564
 N330 N 0.31777 0.67198 0.64273
 N331 N 0.32866 0.68067 0.64152
 C332 C 0.32685 0.68880 0.62996
 C333 C 0.31421 0.68504 0.62363
 C334 C 0.30872 0.67435 0.63197
 H335 H 0.33412 0.69692 0.62642
 H336 H 0.29893 0.66865 0.63023
 H337 H 0.32929 0.67246 0.66812
 H338 H 0.33781 0.66011 0.65516
 N339 N 0.35894 0.17948 1.17040
 N340 N 0.35807 0.17032 1.18085
 C341 C 0.36870 0.17276 1.19004
 C342 C 0.37662 0.18401 1.18504
 C343 C 0.37017 0.18800 1.17256
 H344 H 0.37058 0.16683 1.19964
 H345 H 0.37331 0.19659 1.16566
 Cu346 Cu 0.34330 0.15597 1.18102
 Cu347 Cu 0.34504 0.18022 1.15515
 Cu348 Cu 0.31638 0.15728 1.15807
 N349 N 0.32847 0.14167 1.18120
 N350 N 0.31800 0.14219 1.17203
 C351 C 0.30916 0.13124 1.17436
 C352 C 0.31440 0.12344 1.18556
 C353 C 0.32666 0.13033 1.18966
 H354 H 0.29963 0.12913 1.16838
 H355 H 0.33366 0.12730 1.19819
 N356 N 0.31851 0.17092 1.14244
 N357 N 0.32959 0.17936 1.14111
 C358 C 0.32796 0.18732 1.12940
 C359 C 0.31525 0.18372 1.12312
 C360 C 0.30954 0.17328 1.13162
 H361 H 0.33531 0.19535 1.12583
 H362 H 0.29955 0.16787 1.13004
 H363 H 0.32901 0.17277 1.16753
 H364 H 0.33802 0.15933 1.15617
 N365 N 0.85894 0.67922 1.16976
 N366 N 0.85827 0.66981 1.18000
 C367 C 0.86894 0.67218 1.18917
 C368 C 0.87668 0.68364 1.18436
 C369 C 0.87007 0.68784 1.17202
 H370 H 0.87095 0.66608 1.19863
 H371 H 0.87301 0.69665 1.16533
 Cu372 Cu 0.84366 0.65530 1.18010
 Cu373 Cu 0.84487 0.68018 1.15471
 Cu374 Cu 0.81595 0.65768 1.15802
 N375 N 0.82858 0.64126 1.18027
 N376 N 0.81772 0.64231 1.17162
 C377 C 0.80868 0.63155 1.17408
 C378 C 0.81423 0.62330 1.18480
 C379 C 0.82686 0.62972 1.18848
 H380 H 0.79881 0.62987 1.16852
 H381 H 0.83414 0.62631 1.19663
 N382 N 0.81801 0.67136 1.14243
 N383 N 0.82922 0.67960 1.14093
 C384 C 0.82759 0.68753 1.12920
 C385 C 0.81475 0.68410 1.12308
 C386 C 0.80896 0.67381 1.13170
 H387 H 0.83506 0.69538 1.12547
 H388 H 0.79890 0.66851 1.13023
 H389 H 0.82920 0.67267 1.16753
 H390 H 0.83757 0.65934 1.15553
 N391 N 0.85774 0.18115 0.67174
 N392 N 0.85819 0.17073 0.68097
 C393 C 0.86955 0.17250 0.68941
 C394 C 0.87656 0.18464 0.68519
 C395 C 0.86880 0.18987 0.67395
 H396 H 0.87248 0.16555 0.69802
 H397 H 0.87091 0.19942 0.66798
 Cu398 Cu 0.84375 0.15605 0.68103
 Cu399 Cu 0.84228 0.18310 0.65823
 Cu400 Cu 0.82183 0.15286 0.65345
 N401 N 0.82849 0.14221 0.68110
 N402 N 0.82007 0.14083 0.67012
 C403 C 0.81116 0.12992 0.67237
 C404 C 0.81412 0.12423 0.68551
 C405 C 0.82515 0.13229 0.69078
 H406 H 0.80327 0.12627 0.66493
 H407 H 0.83056 0.13076 0.70074
 N408 N 0.82140 0.16917 0.64041
 N409 N 0.82895 0.18078 0.64239
 C410 C 0.82601 0.19009 0.63201
 C411 C 0.81609 0.18407 0.62313
 C412 C 0.81340 0.17081 0.62873
 H413 H 0.83071 0.20050 0.63098
 H414 H 0.80600 0.16304 0.62472
 H415 H 0.82703 0.16914 0.66638
 H416 H 0.84206 0.16176 0.65590
 N417 N 0.31961 0.35919 0.67057
 N418 N 0.32894 0.35850 0.68088
 C419 C 0.32651 0.36919 0.69001
 C420 C 0.31511 0.37697 0.68509
 C421 C 0.31099 0.37036 0.67275
 H422 H 0.33257 0.37123 0.69948
 H423 H 0.30230 0.37339 0.66593
 Cu424 Cu 0.34343 0.34382 0.68113
 Cu425 Cu 0.31902 0.34530 0.65535
 Cu426 Cu 0.34450 0.31875 0.65603
 N427 N 0.35777 0.32899 0.68138
 N428 N 0.35823 0.31935 0.67137
 C429 C 0.36928 0.31064 0.67373
 C430 C 0.37606 0.31503 0.68589
 C431 C 0.36849 0.32668 0.69051
 H432 H 0.37221 0.30177 0.66710
 H433 H 0.37076 0.33305 0.69972
 N434 N 0.32971 0.31997 0.64139
 N435 N 0.32016 0.33022 0.64098
 C436 C 0.31158 0.32812 0.62980
 C437 C 0.31590 0.31595 0.62294
 C438 C 0.32739 0.31104 0.63053
 H439 H 0.30270 0.33479 0.62696
 H440 H 0.33355 0.30163 0.62831
 H441 H 0.32822 0.32892 0.66659
 H442 H 0.34032 0.34023 0.65582
 N443 N 0.31801 0.85784 0.17148
 N444 N 0.32857 0.85846 0.18051
 C445 C 0.32697 0.87004 0.18868
 C446 C 0.31472 0.87694 0.18457
 C447 C 0.30928 0.86893 0.17363
 H448 H 0.33404 0.87311 0.19713
 H449 H 0.29963 0.87094 0.16779
 Cu450 Cu 0.34304 0.84378 0.18123
 Cu451 Cu 0.31609 0.84243 0.15801
 Cu452 Cu 0.34502 0.81995 0.15478
 N453 N 0.35814 0.82976 0.18034
 N454 N 0.35910 0.82078 0.16978
 C455 C 0.37049 0.81240 0.17175
 C456 C 0.37696 0.81633 0.18424
 C457 C 0.36888 0.82738 0.18942
 H458 H 0.37368 0.80388 0.16480
 H459 H 0.37068 0.83318 0.19910
 N460 N 0.32946 0.82060 0.14092
 N461 N 0.31824 0.82884 0.14240
 C462 C 0.30921 0.82641 0.13165
 C463 C 0.31503 0.81613 0.12304
 C464 C 0.32786 0.81269 0.12919
 H465 H 0.29914 0.83170 0.13017
 H466 H 0.33533 0.80481 0.12550
 H467 H 0.32894 0.82697 0.16738
 H468 H 0.33778 0.84077 0.15629
 N469 N 0.81885 0.35866 0.17134
 N470 N 0.82846 0.35814 0.18139
 C471 C 0.82614 0.36884 0.19053
 C472 C 0.81452 0.37646 0.18588
 C473 C 0.81016 0.36973 0.17368
 H474 H 0.83248 0.37106 0.19978
 H475 H 0.80132 0.37270 0.16702
 Cu476 Cu 0.84325 0.34375 0.18116
 Cu477 Cu 0.81825 0.34495 0.15597
 Cu478 Cu 0.84479 0.31942 0.15536
 N479 N 0.85796 0.32930 0.18093
 N480 N 0.85867 0.32000 0.17061
 C481 C 0.86987 0.31141 0.17277
 C482 C 0.87648 0.31552 0.18512
 C483 C 0.86867 0.32688 0.19005
 H484 H 0.87293 0.30275 0.16593
 H485 H 0.87071 0.33293 0.19953
 N486 N 0.82972 0.32059 0.14096
 N487 N 0.81949 0.33015 0.14132
 C488 C 0.81058 0.32785 0.13044
 C489 C 0.81548 0.31634 0.12287
 C490 C 0.82763 0.31201 0.12978
 H491 H 0.80118 0.33402 0.12818
 H492 H 0.83429 0.30311 0.12696
 H493 H 0.82836 0.32861 0.16654
 H494 H 0.83974 0.34072 0.15584
 N495 N 0.81822 0.85858 0.67139
 N496 N 0.82852 0.85891 0.68075
 C497 C 0.82638 0.86993 0.68954
 C498 C 0.81407 0.87678 0.68548
 C499 C 0.80915 0.86931 0.67395
 H500 H 0.83321 0.87280 0.69825
 H501 H 0.79977 0.87162 0.66779
 Cu502 Cu 0.84362 0.84484 0.68056
 Cu503 Cu 0.81758 0.84463 0.65628
 Cu504 Cu 0.84488 0.82003 0.65509
 N505 N 0.85858 0.83062 0.68007
 N506 N 0.85915 0.82113 0.66992
 C507 C 0.87039 0.81260 0.67207
 C508 C 0.87717 0.81693 0.68426
 C509 C 0.86941 0.82838 0.68908
 H510 H 0.87330 0.80374 0.66543
 H511 H 0.87149 0.83453 0.69849
 N512 N 0.82942 0.82058 0.64111
 N513 N 0.81884 0.82974 0.64176
 C514 C 0.80980 0.82719 0.63105
 C515 C 0.81497 0.81593 0.62329
 C516 C 0.82741 0.81200 0.62992
 H517 H 0.80019 0.83309 0.62897
 H518 H 0.83439 0.80344 0.62685
 H519 H 0.82868 0.82891 0.66680
 H520 H 0.83922 0.84120 0.65545
 N521 N 0.68125 0.64202 0.67124
 N522 N 0.67109 0.64197 0.68075
 C523 C 0.67291 0.63078 0.68941
 C524 C 0.68481 0.62344 0.68503
 C525 C 0.68984 0.63083 0.67347
 H526 H 0.66614 0.62812 0.69824
 H527 H 0.69915 0.62837 0.66727
 Cu528 Cu 0.65646 0.65655 0.68072
 Cu529 Cu 0.68301 0.65701 0.65721
 Cu530 Cu 0.65537 0.68121 0.65508
 N531 N 0.64194 0.67121 0.68049
 N532 N 0.64145 0.68069 0.67031
 C533 C 0.63039 0.68944 0.67254
 C534 C 0.62359 0.68519 0.68476
 C535 C 0.63117 0.67360 0.68953
 H536 H 0.62752 0.69827 0.66583
 H537 H 0.62896 0.66740 0.69889
 N538 N 0.67065 0.68003 0.64089
 N539 N 0.68133 0.67101 0.64185
 C540 C 0.69027 0.67320 0.63097
 C541 C 0.68495 0.68411 0.62281
 C542 C 0.67251 0.68818 0.62935
 H543 H 0.69997 0.66736 0.62912
 H544 H 0.66550 0.69663 0.62606
 H545 H 0.67125 0.67286 0.66717
 H546 H 0.66142 0.66004 0.65579
 N547 N 0.68111 0.14139 0.17053
 N548 N 0.67052 0.14085 0.17955
 C549 C 0.67241 0.12966 0.18821
 C550 C 0.68486 0.12293 0.18440
 C551 C 0.69012 0.13064 0.17316
 H552 H 0.66539 0.12668 0.19673
 H553 H 0.69975 0.12854 0.16733
 Cu554 Cu 0.65571 0.15522 0.17922
 Cu555 Cu 0.68241 0.15586 0.15588
 Cu556 Cu 0.65580 0.18133 0.15521
 N557 N 0.64095 0.16966 0.17909
 N558 N 0.64121 0.17998 0.16975
 C559 C 0.63031 0.18886 0.17222
 C560 C 0.62281 0.18382 0.18369
 C561 C 0.62980 0.17161 0.18780
 H562 H 0.62806 0.19835 0.16619
 H563 H 0.62709 0.16484 0.19661
 N564 N 0.67149 0.18084 0.14145
 N565 N 0.68175 0.17131 0.14186
 C566 C 0.69086 0.17383 0.13119
 C567 C 0.68605 0.18544 0.12371
 C568 C 0.67377 0.18962 0.13046
 H569 H 0.70021 0.16760 0.12887
 H570 H 0.66701 0.19841 0.12753
 H571 H 0.67150 0.17138 0.16675
 H572 H 0.66096 0.16004 0.15451
 N573 N 0.18045 0.64147 0.16996
 N574 N 0.17067 0.64189 0.17986
 C575 C 0.17276 0.63103 0.18887
 C576 C 0.18441 0.62341 0.18430
 C577 C 0.18902 0.63029 0.17228
 H578 H 0.16632 0.62877 0.19805
 H579 H 0.19801 0.62744 0.16578
 Cu580 Cu 0.15620 0.65660 0.17991
 Cu581 Cu 0.18157 0.65557 0.15499
 Cu582 Cu 0.15572 0.68175 0.15474
 N583 N 0.14156 0.67113 0.17944
 N584 N 0.14155 0.68105 0.16968
 C585 C 0.13055 0.68988 0.17194
 C586 C 0.12327 0.68519 0.18369
 C587 C 0.13049 0.67326 0.18819
 H588 H 0.12801 0.69901 0.16550
 H589 H 0.12791 0.66674 0.19723
 N590 N 0.17096 0.68064 0.14054
 N591 N 0.18090 0.67078 0.14073
 C592 C 0.18989 0.67304 0.12990
 C593 C 0.18532 0.68483 0.12254
 C594 C 0.17331 0.68938 0.12953
 H595 H 0.19907 0.66661 0.12748
 H596 H 0.16685 0.69845 0.12682
 H597 H 0.17172 0.67178 0.16591
 H598 H 0.16016 0.66028 0.15475
 N599 N 0.18045 0.14100 0.66992
 N600 N 0.17014 0.14069 0.67927
 C601 C 0.17211 0.12952 0.68794
 C602 C 0.18434 0.12257 0.68382
 C603 C 0.18936 0.13011 0.67236
 H604 H 0.16535 0.12678 0.69675
 H605 H 0.19884 0.12790 0.66633
 Cu606 Cu 0.15566 0.15542 0.67943
 Cu607 Cu 0.18174 0.15561 0.65539
 Cu608 Cu 0.15619 0.18214 0.65610
 N609 N 0.14125 0.17020 0.67980
 N610 N 0.14176 0.18080 0.67077
 C611 C 0.13098 0.18977 0.67343
 C612 C 0.12330 0.18450 0.68468
 C613 C 0.13007 0.17206 0.68848
 H614 H 0.12885 0.19941 0.66760
 H615 H 0.12713 0.16503 0.69700
 N616 N 0.17162 0.18154 0.64206
 N617 N 0.18119 0.17131 0.64164
 C618 C 0.18994 0.17362 0.63063
 C619 C 0.18570 0.18588 0.62388
 C620 C 0.17409 0.19066 0.63138
 H621 H 0.19874 0.16689 0.62769
 H622 H 0.16782 0.19998 0.62907
 H623 H 0.17176 0.17126 0.66694
 H624 H 0.16043 0.16071 0.65471
 N625 N 0.32011 0.64091 0.32982
 N626 N 0.32859 0.64225 0.31888
 C627 C 0.32528 0.63230 0.30923
 C628 C 0.31423 0.62426 0.31449
 C629 C 0.31120 0.62999 0.32758
 H630 H 0.33074 0.63074 0.29931
 H631 H 0.30328 0.62637 0.33501
 Cu632 Cu 0.34386 0.65607 0.31895
 Cu633 Cu 0.32180 0.65299 0.34645
 Cu634 Cu 0.34227 0.68322 0.34160
 N635 N 0.35829 0.67077 0.31899
 N636 N 0.35778 0.68123 0.32815
 C637 C 0.36883 0.68997 0.32592
 C638 C 0.37663 0.68471 0.31474
 C639 C 0.36966 0.67253 0.31057
 H640 H 0.37088 0.69956 0.33184
 H641 H 0.37264 0.66556 0.30201
 N642 N 0.32888 0.68095 0.35740
 N643 N 0.32132 0.66935 0.35942
 C644 C 0.31330 0.67103 0.37107
 C645 C 0.31598 0.68430 0.37663
 C646 C 0.32592 0.69030 0.36773
 H647 H 0.30590 0.66326 0.37511
 H648 H 0.33063 0.70070 0.36874
 H649 H 0.32705 0.66922 0.33345
 H650 H 0.34204 0.66189 0.34404
 N651 N 0.31914 0.14131 0.82960
 N652 N 0.32926 0.14113 0.82004
 C653 C 0.32707 0.13014 0.81123
 C654 C 0.31492 0.12316 0.81549
 C655 C 0.31015 0.13052 0.82716
 H656 H 0.33373 0.12743 0.80233
 H657 H 0.30086 0.12814 0.83343
 Cu658 Cu 0.34419 0.15537 0.81993
 Cu659 Cu 0.31846 0.15541 0.84457
 Cu660 Cu 0.34458 0.18122 0.84441
 N661 N 0.35848 0.17024 0.81971
 N662 N 0.35868 0.18018 0.82944
 C663 C 0.36966 0.18895 0.82698
 C664 C 0.37666 0.18429 0.81504
 C665 C 0.36930 0.17242 0.81066
 H666 H 0.37232 0.19808 0.83335
 H667 H 0.37171 0.16587 0.80161
 N668 N 0.32941 0.18049 0.85868
 N669 N 0.31956 0.17055 0.85883
 C670 C 0.31086 0.17282 0.86989
 C671 C 0.31542 0.18478 0.87694
 C672 C 0.32717 0.18940 0.86957
 H673 H 0.30180 0.16634 0.87259
 H674 H 0.33362 0.19854 0.87203
 H675 H 0.32867 0.17114 0.83324
 H676 H 0.33992 0.15982 0.84495
 N677 N 0.82012 0.64084 0.82940
 N678 N 0.82942 0.64156 0.81906
 C679 C 0.82702 0.63086 0.80995
 C680 C 0.81568 0.62304 0.81490
 C681 C 0.81156 0.62964 0.82725
 H682 H 0.83308 0.62883 0.80047
 H683 H 0.80290 0.62658 0.83409
 Cu684 Cu 0.84385 0.65629 0.81872
 Cu685 Cu 0.81950 0.65472 0.84461
 Cu686 Cu 0.84493 0.68125 0.84400
 N687 N 0.85819 0.67111 0.81861
 N688 N 0.85867 0.68069 0.82867
 C689 C 0.86972 0.68940 0.82635
 C690 C 0.87648 0.68508 0.81416
 C691 C 0.86891 0.67346 0.80948
 H692 H 0.87264 0.69823 0.83302
 H693 H 0.87117 0.66714 0.80023
 N694 N 0.83013 0.68002 0.85863
 N695 N 0.82058 0.66978 0.85900
 C696 C 0.81197 0.67188 0.87016
 C697 C 0.81627 0.68404 0.87706
 C698 C 0.82778 0.68893 0.86949
 H699 H 0.80308 0.66522 0.87298
 H700 H 0.83393 0.69834 0.87174
 H701 H 0.82866 0.67114 0.83338
 H702 H 0.84081 0.65975 0.84406
 N703 N 0.81847 0.14179 0.32854
 N704 N 0.82881 0.14142 0.31924
 C705 C 0.82668 0.13042 0.31042
 C706 C 0.81434 0.12362 0.31443
 C707 C 0.80938 0.13111 0.32593
 H708 H 0.83357 0.12751 0.30177
 H709 H 0.79999 0.12882 0.33207
 Cu710 Cu 0.84404 0.15532 0.31960
 Cu711 Cu 0.81783 0.15569 0.34370
 Cu712 Cu 0.84506 0.18034 0.34489
 N713 N 0.85876 0.16977 0.31990
 N714 N 0.85926 0.17932 0.33000
 C715 C 0.87041 0.18794 0.32776
 C716 C 0.87719 0.18362 0.31557
 C717 C 0.86954 0.17207 0.31083
 H718 H 0.87325 0.19684 0.33437
 H719 H 0.87166 0.16588 0.30146
 N720 N 0.82964 0.17969 0.35894
 N721 N 0.81909 0.17051 0.35827
 C722 C 0.81006 0.17302 0.36902
 C723 C 0.81521 0.18425 0.37680
 C724 C 0.82763 0.18822 0.37017
 H725 H 0.80047 0.16710 0.37109
 H726 H 0.83458 0.19679 0.37324
 H727 H 0.82895 0.17133 0.33313
 H728 H 0.83944 0.15915 0.34467
 N729 N 0.68020 0.35838 0.32974
 N730 N 0.67036 0.35804 0.31991
 C731 C 0.67241 0.36894 0.31093
 C732 C 0.68411 0.37650 0.31546
 C733 C 0.68878 0.36954 0.32742
 H734 H 0.66593 0.37126 0.30180
 H735 H 0.69782 0.37232 0.33387
 Cu736 Cu 0.65591 0.34333 0.31989
 Cu737 Cu 0.68140 0.34420 0.34465
 Cu738 Cu 0.65562 0.31799 0.34483
 N739 N 0.64133 0.32874 0.32023
 N740 N 0.64141 0.31873 0.32991
 C741 C 0.63050 0.30985 0.32758
 C742 C 0.62317 0.31458 0.31587
 C743 C 0.63029 0.32660 0.31147
 H744 H 0.62805 0.30063 0.33393
 H745 H 0.62766 0.33317 0.30248
 N746 N 0.67088 0.31905 0.35902
 N747 N 0.68080 0.32893 0.35885
 C748 C 0.68978 0.32665 0.36969
 C749 C 0.68524 0.31484 0.37702
 C750 C 0.67324 0.31030 0.37002
 H751 H 0.69893 0.33310 0.37213
 H752 H 0.66679 0.30122 0.37272
 H753 H 0.67154 0.32806 0.33368
 H754 H 0.66002 0.33945 0.34500
 N755 N 0.68024 0.85855 0.82986
 N756 N 0.66983 0.85905 0.82064
 C757 C 0.67189 0.87018 0.81195
 C758 C 0.68426 0.87693 0.81594
 C759 C 0.68929 0.86928 0.82733
 H760 H 0.66502 0.87310 0.80328
 H761 H 0.69884 0.87138 0.83330
 Cu762 Cu 0.65476 0.84493 0.82054
 Cu763 Cu 0.68128 0.84408 0.84444
 Cu764 Cu 0.65586 0.81769 0.84366
 N765 N 0.64099 0.82955 0.81999
 N766 N 0.64160 0.81886 0.82888
 C767 C 0.63097 0.80977 0.82606
 C768 C 0.62330 0.81506 0.81481
 C769 C 0.62992 0.82762 0.81119
 H770 H 0.62891 0.80008 0.83181
 H771 H 0.62690 0.83475 0.80277
 N772 N 0.67108 0.81834 0.85788
 N773 N 0.68062 0.82855 0.85831
 C774 C 0.68929 0.82632 0.86940
 C775 C 0.68502 0.81410 0.87619
 C776 C 0.67347 0.80928 0.86863
 H777 H 0.69808 0.83306 0.87235
 H778 H 0.66721 0.79996 0.87092
 H779 H 0.67105 0.82882 0.83248
 H780 H 0.65989 0.83916 0.84515
 N781 N 0.17947 0.35924 0.83067
 N782 N 0.17005 0.35859 0.82045
 C783 C 0.17241 0.36926 0.81128
 C784 C 0.18388 0.37700 0.81607
 C785 C 0.18809 0.37038 0.82839
 H786 H 0.16629 0.37128 0.80183
 H787 H 0.19692 0.37331 0.83506
 Cu788 Cu 0.15553 0.34397 0.82036
 Cu789 Cu 0.18045 0.34514 0.84571
 Cu790 Cu 0.15800 0.31619 0.84235
 N791 N 0.14148 0.32889 0.82020
 N792 N 0.14257 0.31800 0.82881
 C793 C 0.13181 0.30896 0.82636
 C794 C 0.12351 0.31454 0.81569
 C795 C 0.12992 0.32719 0.81203
 H796 H 0.13016 0.29907 0.83190
 H797 H 0.12646 0.33450 0.80392
 N798 N 0.17169 0.31821 0.85791
 N799 N 0.17992 0.32943 0.85945
 C800 C 0.18786 0.32775 0.87116
 C801 C 0.18447 0.31487 0.87722
 C802 C 0.17417 0.30911 0.86860
 H803 H 0.19571 0.33520 0.87490
 H804 H 0.16889 0.29904 0.87003
 H805 H 0.17297 0.32952 0.83287
 H806 H 0.15963 0.33781 0.84491
 N807 N 0.17972 0.85862 0.32983
 N808 N 0.16971 0.85860 0.32016
 C809 C 0.17186 0.86955 0.31127
 C810 C 0.18383 0.87676 0.31564
 C811 C 0.18855 0.86956 0.32744
 H812 H 0.16532 0.87205 0.30223
 H813 H 0.19779 0.87204 0.33373
 Cu814 Cu 0.15499 0.84415 0.31994
 Cu815 Cu 0.18078 0.84428 0.34456
 Cu816 Cu 0.15579 0.81743 0.34356
 N817 N 0.14116 0.82885 0.31951
 N818 N 0.14170 0.81831 0.32860
 C819 C 0.13108 0.80919 0.32588
 C820 C 0.12346 0.81432 0.31452
 C821 C 0.13012 0.82679 0.31072
 H822 H 0.12894 0.79963 0.33181
 H823 H 0.12712 0.83381 0.30218
 N824 N 0.17082 0.81841 0.35795
 N825 N 0.18016 0.82881 0.35851
 C826 C 0.18877 0.82670 0.36966
 C827 C 0.18467 0.81437 0.37637
 C828 C 0.17329 0.80936 0.36869
 H829 H 0.19743 0.83356 0.37268
 H830 H 0.16722 0.79989 0.37087
 H831 H 0.17121 0.82859 0.33269
 H832 H 0.15950 0.83899 0.34479
 C833 C 0.24392 0.99992 0.25508
 C834 C 0.25495 0.99989 0.24592
 C835 C 0.26077 1.01323 0.24020
 C836 C 0.26085 0.98654 0.24022
 C837 C 0.23808 0.98656 0.26078
 C838 C 0.23802 1.01329 0.26074
 C839 C 0.25398 1.01999 0.22890
 C840 C 0.25969 1.03235 0.22308
 C841 C 0.27232 1.03815 0.22849
 C842 C 0.27899 1.03138 0.23996
 C843 C 0.27326 1.01901 0.24574
 C844 C 0.25289 0.97835 0.23077
 C845 C 0.25867 0.96606 0.22487
 C846 C 0.27254 0.96177 0.22831
 C847 C 0.28043 0.96999 0.23789
 C848 C 0.27463 0.98229 0.24376
 C849 C 0.24492 0.97972 0.27200
 C850 C 0.23925 0.96729 0.27772
 C851 C 0.22664 0.96149 0.27227
 C852 C 0.21994 0.96834 0.26086
 C853 C 0.22561 0.98079 0.25519
 C854 C 0.24598 1.02152 0.27016
 C855 C 0.24027 1.03392 0.27588
 C856 C 0.22646 1.03830 0.27230
 C857 C 0.21856 1.03003 0.26277
 C858 C 0.22429 1.01761 0.25708
 H859 H 0.24431 1.01561 0.22452
 H860 H 0.25426 1.03728 0.21428
 H861 H 0.28868 1.03556 0.24442
 H862 H 0.27856 1.01396 0.25455
 H863 H 0.24227 0.98158 0.22782
 H864 H 0.25228 0.95998 0.21756
 H865 H 0.28092 0.98847 0.25106
 H866 H 0.25458 0.98409 0.27640
 H867 H 0.24472 0.96229 0.28646
 H868 H 0.21026 0.96416 0.25637
 H869 H 0.22029 0.98589 0.24642
 H870 H 0.25657 1.01824 0.27318
 H871 H 0.24667 1.04003 0.28316
 H872 H 0.20790 1.03306 0.25979
 H873 H 0.21800 1.01141 0.24979
 H874 H 0.29114 0.96703 0.24077
 C875 C 0.24437 0.50013 0.75553
 C876 C 0.25461 0.50014 0.74542
 C877 C 0.26047 0.51349 0.73955
 C878 C 0.26053 0.48680 0.73962
 C879 C 0.23843 0.48676 0.76129
 C880 C 0.23856 0.51347 0.76145
 C881 C 0.25177 0.52325 0.73246
 C882 C 0.25761 0.53555 0.72658
 C883 C 0.27224 0.53828 0.72770
 C884 C 0.28087 0.52846 0.73485
 C885 C 0.27505 0.51615 0.74063
 C886 C 0.25939 0.48408 0.72512
 C887 C 0.26512 0.47173 0.71936
 C888 C 0.27231 0.46193 0.72797
 C889 C 0.27353 0.46474 0.74251
 C890 C 0.26768 0.47707 0.74829
 C891 C 0.23957 0.48397 0.77578
 C892 C 0.23390 0.47157 0.78149
 C893 C 0.22676 0.46178 0.77284
 C894 C 0.22553 0.46467 0.75831
 C895 C 0.23133 0.47705 0.75258
 C896 C 0.24730 0.52313 0.76859
 C897 C 0.24155 0.53551 0.77439
 C898 C 0.22696 0.53844 0.77310
 C899 C 0.21828 0.52870 0.76593
 C900 C 0.22402 0.51630 0.76026
 H901 H 0.24052 0.52126 0.73135
 H902 H 0.25066 0.54288 0.72114
 H903 H 0.29218 0.53018 0.73586
 H904 H 0.28193 0.50868 0.74599
 H905 H 0.25398 0.49153 0.71826
 H906 H 0.26406 0.46996 0.70811
 H907 H 0.26882 0.47910 0.75948
 H908 H 0.24495 0.49139 0.78266
 H909 H 0.23497 0.46974 0.79273
 H910 H 0.22011 0.45735 0.75136
 H911 H 0.23019 0.47913 0.74139
 H912 H 0.25853 0.52102 0.76977
 H913 H 0.24852 0.54278 0.77985
 H914 H 0.20700 0.53056 0.76482
 H915 H 0.21711 0.50891 0.75485
 H916 H 0.27900 0.45741 0.74943
 C917 C 0.74505 -0.00047 0.24477
 C918 C 0.75526 -0.00049 0.25489
 C919 C 0.76117 -0.01386 0.26067
 C920 C 0.76105 0.01283 0.26083
 C921 C 0.73920 0.01288 0.23890
 C922 C 0.73912 -0.01380 0.23900
 C923 C 0.75982 -0.01671 0.27513
 C924 C 0.76550 -0.02911 0.28086
 C925 C 0.77285 -0.03880 0.27227
 C926 C 0.77428 -0.03585 0.25777
 C927 C 0.76846 -0.02348 0.25201
 C928 C 0.75228 0.02247 0.26797
 C929 C 0.75800 0.03484 0.27378
 C930 C 0.77257 0.03777 0.27251
 C931 C 0.78129 0.02804 0.26535
 C932 C 0.77559 0.01564 0.25966
 C933 C 0.74790 0.02264 0.23184
 C934 C 0.74210 0.03501 0.22607
 C935 C 0.72748 0.03782 0.22728
 C936 C 0.71883 0.02798 0.23437
 C937 C 0.72463 0.01560 0.24003
 C938 C 0.74037 -0.01663 0.22454
 C939 C 0.73461 -0.02897 0.21882
 C940 C 0.72728 -0.03864 0.22744
 C941 C 0.72594 -0.03573 0.24195
 C942 C 0.73183 -0.02341 0.24769
 H943 H 0.75429 -0.00935 0.28196
 H944 H 0.76428 -0.03100 0.29207
 H945 H 0.77986 -0.04310 0.25087
 H946 H 0.76974 -0.02134 0.24085
 H947 H 0.74105 0.02036 0.26914
 H948 H 0.75100 0.04211 0.27923
 H949 H 0.78251 0.00826 0.25426
 H950 H 0.75915 0.02062 0.23070
 H951 H 0.74905 0.04236 0.22068
 H952 H 0.70753 0.02976 0.23542
 H953 H 0.71774 0.00813 0.24537
 H954 H 0.74589 -0.00927 0.21768
 H955 H 0.73576 -0.03084 0.20759
 H956 H 0.72036 -0.04296 0.24887
 H957 H 0.73061 -0.02129 0.25886
 H958 H 0.79257 0.02991 0.26426
 C959 C 0.74501 0.49971 0.74478
 C960 C 0.75525 0.49974 0.75487
 C961 C 0.76102 0.48639 0.76082
 C962 C 0.76119 0.51308 0.76063
 C963 C 0.73901 0.51304 0.73900
 C964 C 0.73917 0.48634 0.73896
 C965 C 0.75231 0.47694 0.76828
 C966 C 0.75803 0.46458 0.77415
 C967 C 0.77254 0.46146 0.77260
 C968 C 0.78119 0.47098 0.76509
 C969 C 0.77550 0.48337 0.75936
 C970 C 0.76014 0.51581 0.77514
 C971 C 0.76588 0.52817 0.78086
 C972 C 0.77298 0.53798 0.77219
 C973 C 0.77412 0.53517 0.75764
 C974 C 0.76825 0.52282 0.75191
 C975 C 0.74009 0.51580 0.72450
 C976 C 0.73429 0.52815 0.71878
 C977 C 0.72709 0.53790 0.72743
 C978 C 0.72591 0.53504 0.74197
 C979 C 0.73185 0.52271 0.74771
 C980 C 0.74787 0.47662 0.73183
 C981 C 0.74208 0.46425 0.72608
 C982 C 0.72749 0.46139 0.72740
 C983 C 0.71885 0.47117 0.73460
 C984 C 0.72463 0.48356 0.74022
 H985 H 0.74113 0.47920 0.76964
 H986 H 0.75109 0.45747 0.77987
 H987 H 0.79242 0.46895 0.76378
 H988 H 0.78237 0.49061 0.75370
 H989 H 0.75480 0.50836 0.78203
 H990 H 0.76488 0.52994 0.79211
 H991 H 0.76933 0.52079 0.74071
 H992 H 0.74550 0.50839 0.71762
 H993 H 0.73531 0.52997 0.70754
 H994 H 0.72045 0.54233 0.74892
 H995 H 0.73076 0.52065 0.75891
 H996 H 0.75910 0.47869 0.73060
 H997 H 0.74902 0.45695 0.72061
 H998 H 0.70757 0.46935 0.73574
 H999 H 0.71775 0.49099 0.74563
 H1000 H 0.77951 0.54250 0.75068
 C1001 C 0.24479 0.50018 0.24468
 C1002 C 0.25506 0.50020 0.25476
 C1003 C 0.26085 0.48684 0.26067
 C1004 C 0.26099 0.51355 0.26051
 C1005 C 0.23881 0.51350 0.23889
 C1006 C 0.23894 0.48682 0.23885
 C1007 C 0.25210 0.47722 0.26786
 C1008 C 0.25782 0.46480 0.27360
 C1009 C 0.27238 0.46181 0.27223
 C1010 C 0.28108 0.47152 0.26503
 C1011 C 0.27537 0.48396 0.25940
 C1012 C 0.25998 0.51627 0.27502
 C1013 C 0.26559 0.52870 0.28071
 C1014 C 0.27252 0.53861 0.27201
 C1015 C 0.27366 0.53578 0.25746
 C1016 C 0.26794 0.52335 0.25176
 C1017 C 0.23992 0.51623 0.22439
 C1018 C 0.23413 0.52856 0.21864
 C1019 C 0.22692 0.53832 0.22727
 C1020 C 0.22572 0.53550 0.24181
 C1021 C 0.23164 0.52318 0.24758
 C1022 C 0.24762 0.47713 0.23167
 C1023 C 0.24182 0.46478 0.22591
 C1024 C 0.22724 0.46190 0.22727
 C1025 C 0.21861 0.47166 0.23450
 C1026 C 0.22440 0.48404 0.24013
 H1027 H 0.24089 0.47938 0.26910
 H1028 H 0.25083 0.45755 0.27908
 H1029 H 0.29234 0.46960 0.26386
 H1030 H 0.28228 0.49133 0.25396
 H1031 H 0.25473 0.50877 0.28193
 H1032 H 0.26459 0.53048 0.29196
 H1033 H 0.26900 0.52133 0.24055
 H1034 H 0.24534 0.50881 0.21753
 H1035 H 0.23516 0.53036 0.20740
 H1036 H 0.22025 0.54280 0.24874
 H1037 H 0.23054 0.52114 0.25878
 H1038 H 0.25885 0.47921 0.23042
 H1039 H 0.24876 0.45748 0.22041
 H1040 H 0.20734 0.46983 0.23566
 H1041 H 0.21753 0.49146 0.24557
 H1042 H 0.27894 0.54317 0.25047
 C1043 C 0.74439 1.00048 0.75587
 C1044 C 0.75458 1.00050 0.74571
 C1045 C 0.76048 1.01385 0.73990
 C1046 C 0.76037 0.98715 0.73977
 C1047 C 0.73858 0.98712 0.76175
 C1048 C 0.73846 1.01382 0.76165
 C1049 C 0.75939 1.01657 0.72540
 C1050 C 0.76504 1.02897 0.71965
 C1051 C 0.77207 1.03884 0.72829
 C1052 C 0.77327 1.03602 0.74284
 C1053 C 0.76751 1.02362 0.74860
 C1054 C 0.75162 0.97752 0.73262
 C1055 C 0.75736 0.96516 0.72678
 C1056 C 0.77194 0.96224 0.72802
 C1057 C 0.78065 0.97196 0.73519
 C1058 C 0.77492 0.98434 0.74091
 C1059 C 0.74732 0.97739 0.76885
 C1060 C 0.74157 0.96499 0.77459
 C1061 C 0.72698 0.96209 0.77329
 C1062 C 0.71830 0.97189 0.76616
 C1063 C 0.72404 0.98432 0.76055
 C1064 C 0.73985 1.01670 0.77610
 C1065 C 0.73418 1.02911 0.78182
 C1066 C 0.72679 1.03878 0.77323
 C1067 C 0.72532 1.03581 0.75874
 C1068 C 0.73114 1.02344 0.75300
 H1069 H 0.75408 1.00909 0.71852
 H1070 H 0.76400 1.03075 0.70840
 H1071 H 0.77863 1.04338 0.74979
 H1072 H 0.76864 1.02159 0.75980
 H1073 H 0.74039 0.97963 0.73147
 H1074 H 0.75037 0.95790 0.72132
 H1075 H 0.78184 0.99172 0.74631
 H1076 H 0.75855 0.97948 0.77004
 H1077 H 0.74854 0.95767 0.78001
 H1078 H 0.70703 0.97005 0.76504
 H1079 H 0.71713 0.99175 0.75517
 H1080 H 0.74541 1.00935 0.78293
 H1081 H 0.73543 1.03101 0.79302
 H1082 H 0.71971 1.04305 0.75184
 H1083 H 0.72984 1.02130 0.74184
 H1084 H 0.79193 0.97009 0.73625
 C1085 C 0.74422 0.50012 0.25575
 C1086 C 0.75447 0.50010 0.24566
 C1087 C 0.76029 0.51343 0.23975
 C1088 C 0.76041 0.48675 0.23990
 C1089 C 0.73822 0.48678 0.26146
 C1090 C 0.73844 0.51349 0.26165
 C1091 C 0.75157 0.52308 0.23255
 C1092 C 0.75735 0.53538 0.22664
 C1093 C 0.77195 0.53822 0.22785
 C1094 C 0.78061 0.52850 0.23511
 C1095 C 0.77484 0.51619 0.24091
 C1096 C 0.75935 0.48402 0.22540
 C1097 C 0.76514 0.47168 0.21968
 C1098 C 0.77231 0.46191 0.22833
 C1099 C 0.77347 0.46474 0.24287
 C1100 C 0.76755 0.47706 0.24861
 C1101 C 0.73937 0.48393 0.27594
 C1102 C 0.73363 0.47153 0.28159
 C1103 C 0.72643 0.46184 0.27291
 C1104 C 0.72518 0.46479 0.25839
 C1105 C 0.73105 0.47716 0.25271
 C1106 C 0.74719 0.52314 0.26878
 C1107 C 0.74147 0.53553 0.27456
 C1108 C 0.72689 0.53849 0.27326
 C1109 C 0.71819 0.52877 0.26609
 C1110 C 0.72390 0.51635 0.26044
 H1111 H 0.74033 0.52101 0.23139
 H1112 H 0.75039 0.54264 0.22112
 H1113 H 0.79190 0.53031 0.23619
 H1114 H 0.78173 0.50879 0.24637
 H1115 H 0.75396 0.49146 0.21851
 H1116 H 0.76413 0.46989 0.20843
 H1117 H 0.76865 0.47911 0.25981
 H1118 H 0.74480 0.49129 0.28285
 H1119 H 0.73471 0.46964 0.29282
 H1120 H 0.71971 0.45754 0.25142
 H1121 H 0.72991 0.47930 0.24153
 H1122 H 0.75841 0.52100 0.26998
 H1123 H 0.74846 0.54280 0.28001
 H1124 H 0.70692 0.53066 0.26497
 H1125 H 0.71698 0.50897 0.25503
 H1126 H 0.77893 0.45743 0.24982
 C1127 C 0.24524 -0.00023 0.74482
 C1128 C 0.25547 -0.00029 0.75493
 C1129 C 0.26142 -0.01367 0.76065
 C1130 C 0.26123 0.01303 0.76092
 C1131 C 0.23938 0.01315 0.73900
 C1132 C 0.23930 -0.01354 0.73902
 C1133 C 0.26018 -0.01656 0.77511
 C1134 C 0.26596 -0.02894 0.78081
 C1135 C 0.27332 -0.03859 0.77218
 C1136 C 0.27463 -0.03561 0.75767
 C1137 C 0.26871 -0.02327 0.75195
 C1138 C 0.25245 0.02262 0.76813
 C1139 C 0.25815 0.03497 0.77399
 C1140 C 0.27272 0.03794 0.77271
 C1141 C 0.28144 0.02827 0.76548
 C1142 C 0.27576 0.01589 0.75974
 C1143 C 0.24806 0.02293 0.73194
 C1144 C 0.24223 0.03529 0.72615
 C1145 C 0.22761 0.03807 0.72737
 C1146 C 0.21899 0.02824 0.73449
 C1147 C 0.22480 0.01586 0.74015
 C1148 C 0.24050 -0.01631 0.72454
 C1149 C 0.23470 -0.02862 0.71879
 C1150 C 0.22740 -0.03834 0.72739
 C1151 C 0.22613 -0.03548 0.74192
 C1152 C 0.23205 -0.02319 0.74769
 H1153 H 0.25466 -0.00923 0.78199
 H1154 H 0.26481 -0.03084 0.79203
 H1155 H 0.28022 -0.04283 0.75073
 H1156 H 0.26993 -0.02111 0.74078
 H1157 H 0.24123 0.02047 0.76930
 H1158 H 0.25115 0.04220 0.77949
 H1159 H 0.28270 0.00855 0.75428
 H1160 H 0.25931 0.02092 0.73078
 H1161 H 0.24916 0.04264 0.72074
 H1162 H 0.20769 0.02999 0.73554
 H1163 H 0.21793 0.00838 0.74549
 H1164 H 0.24598 -0.00892 0.71769
 H1165 H 0.23580 -0.03044 0.70755
 H1166 H 0.22057 -0.04274 0.74884
 H1167 H 0.23087 -0.02111 0.75888
 H1168 H 0.29271 0.03017 0.76438
 C1169 C 0.25523 0.24444 1.00015
 C1170 C 0.24504 0.25465 1.00017
 C1171 C 0.23929 0.26059 1.01348
 C1172 C 0.23908 0.26049 0.98689
 C1173 C 0.26116 0.23869 0.98684
 C1174 C 0.26106 0.23848 1.01343
 C1175 C 0.22475 0.25947 1.01630
 C1176 C 0.21907 0.26518 1.02866
 C1177 C 0.22781 0.27231 1.03836
 C1178 C 0.24239 0.27353 1.03543
 C1179 C 0.24809 0.26770 1.02309
 C1180 C 0.23199 0.25178 0.97718
 C1181 C 0.22610 0.25759 0.96491
 C1182 C 0.22721 0.27221 0.96215
 C1183 C 0.23434 0.28086 0.97193
 C1184 C 0.24012 0.27507 0.98421
 C1185 C 0.26835 0.24745 0.97725
 C1186 C 0.27419 0.24174 0.96492
 C1187 C 0.27289 0.22718 0.96198
 C1188 C 0.26566 0.21847 0.97165
 C1189 C 0.25995 0.22417 0.98400
 C1190 C 0.27564 0.23950 1.01611
 C1191 C 0.28142 0.23373 1.02840
 C1192 C 0.27274 0.22663 1.03820
 C1193 C 0.25811 0.22555 1.03544
 C1194 C 0.25232 0.23143 1.02316
 H1195 H 0.21780 0.25410 1.00894
 H1196 H 0.20779 0.26413 1.03053
 H1197 H 0.24941 0.27895 1.04268
 H1198 H 0.25932 0.26883 1.02097
 H1199 H 0.23091 0.24053 0.97919
 H1200 H 0.22068 0.25063 0.95761
 H1201 H 0.24549 0.28196 0.99163
 H1202 H 0.26954 0.25867 0.97938
 H1203 H 0.27969 0.24873 0.95769
 H1204 H 0.26454 0.20721 0.96976
 H1205 H 0.25450 0.21724 0.99134
 H1206 H 0.28255 0.24484 1.00867
 H1207 H 0.29272 0.23470 1.03015
 H1208 H 0.25113 0.22016 1.04276
 H1209 H 0.24106 0.23037 1.02116
 H1210 H 0.23534 0.29216 0.97018
 C1211 C 0.25543 0.74460 0.49953
 C1212 C 0.24527 0.75484 0.49955
 C1213 C 0.23954 0.76083 0.51285
 C1214 C 0.23927 0.76061 0.48627
 C1215 C 0.26133 0.73876 0.48622
 C1216 C 0.26116 0.73860 0.51284
 C1217 C 0.22499 0.75974 0.51568
 C1218 C 0.21930 0.76553 0.52800
 C1219 C 0.22803 0.77272 0.53766
 C1220 C 0.24262 0.77391 0.53474
 C1221 C 0.24833 0.76799 0.52245
 C1222 C 0.23210 0.75185 0.47668
 C1223 C 0.22619 0.75757 0.46438
 C1224 C 0.22738 0.77216 0.46148
 C1225 C 0.23457 0.78087 0.47115
 C1226 C 0.24036 0.77516 0.48347
 C1227 C 0.26831 0.74750 0.47644
 C1228 C 0.27410 0.74172 0.46412
 C1229 C 0.27301 0.72710 0.46137
 C1230 C 0.26600 0.71842 0.47123
 C1231 C 0.26031 0.72419 0.48356
 C1232 C 0.27572 0.73963 0.51564
 C1233 C 0.28138 0.73389 0.52800
 C1234 C 0.27261 0.72681 0.53773
 C1235 C 0.25802 0.72569 0.53482
 C1236 C 0.25234 0.73155 0.52248
 H1237 H 0.21804 0.75433 0.50834
 H1238 H 0.20802 0.76450 0.52987
 H1239 H 0.24963 0.77938 0.54197
 H1240 H 0.25956 0.76909 0.52033
 H1241 H 0.23099 0.74061 0.47878
 H1242 H 0.22072 0.75057 0.45715
 H1243 H 0.24578 0.78209 0.49082
 H1244 H 0.26938 0.75876 0.47843
 H1245 H 0.27944 0.74871 0.45676
 H1246 H 0.26501 0.70712 0.46950
 H1247 H 0.25502 0.71728 0.49103
 H1248 H 0.28269 0.74497 0.50826
 H1249 H 0.29267 0.73489 0.52986
 H1250 H 0.25097 0.72031 0.54209
 H1251 H 0.24110 0.73048 0.52038
 H1252 H 0.23561 0.79215 0.46930
 C1253 C 0.24553 0.74548 -0.00025
 C1254 C 0.25573 0.75566 -0.00028
 C1255 C 0.26164 0.76146 -0.01360
 C1256 C 0.26152 0.76162 0.01301
 C1257 C 0.23977 0.73953 0.01305
 C1258 C 0.23951 0.73972 -0.01353
 C1259 C 0.26867 0.75270 -0.02331
 C1260 C 0.27445 0.75844 -0.03566
 C1261 C 0.27325 0.77304 -0.03851
 C1262 C 0.26618 0.78174 -0.02873
 C1263 C 0.26053 0.77602 -0.01635
 C1264 C 0.27609 0.76057 0.01576
 C1265 C 0.28181 0.76634 0.02807
 C1266 C 0.27309 0.77347 0.03781
 C1267 C 0.25847 0.77458 0.03497
 C1268 C 0.25274 0.76870 0.02268
 C1269 C 0.22522 0.74070 0.01586
 C1270 C 0.21950 0.73494 0.02818
 C1271 C 0.22819 0.72769 0.03785
 C1272 C 0.24278 0.72643 0.03496
 C1273 C 0.24852 0.73232 0.02266
 C1274 C 0.23240 0.74851 -0.02317
 C1275 C 0.22645 0.74280 -0.03544
 C1276 C 0.22754 0.72819 -0.03827
 C1277 C 0.23468 0.71945 -0.02855
 C1278 C 0.24052 0.72516 -0.01627
 H1279 H 0.26979 0.74145 -0.02126
 H1280 H 0.27982 0.75145 -0.04298
 H1281 H 0.26514 0.79303 -0.03053
 H1282 H 0.25520 0.78294 -0.00893
 H1283 H 0.28302 0.75520 0.00837
 H1284 H 0.29310 0.76534 0.02987
 H1285 H 0.24149 0.76978 0.02063
 H1286 H 0.21830 0.74615 0.00851
 H1287 H 0.20822 0.73603 0.03003
 H1288 H 0.24976 0.72092 0.04219
 H1289 H 0.25975 0.73116 0.02056
 H1290 H 0.23134 0.75976 -0.02111
 H1291 H 0.22102 0.74982 -0.04269
 H1292 H 0.23565 0.70816 -0.03035
 H1293 H 0.24589 0.71821 -0.00889
 H1294 H 0.25146 0.77999 0.04224
 C1295 C 0.24526 0.24538 0.50023
 C1296 C 0.25545 0.25557 0.50023
 C1297 C 0.26126 0.26149 0.48693
 C1298 C 0.26135 0.26138 0.51352
 C1299 C 0.23930 0.23961 0.51352
 C1300 C 0.23952 0.23940 0.48693
 C1301 C 0.27582 0.26036 0.48418
 C1302 C 0.28155 0.26601 0.47181
 C1303 C 0.27285 0.27310 0.46203
 C1304 C 0.25825 0.27434 0.46488
 C1305 C 0.25250 0.26857 0.47723
 C1306 C 0.26849 0.25265 0.52320
 C1307 C 0.27428 0.25841 0.53552
 C1308 C 0.27300 0.27300 0.53837
 C1309 C 0.26582 0.28167 0.52863
 C1310 C 0.26015 0.27593 0.51628
 C1311 C 0.23213 0.24838 0.52313
 C1312 C 0.22631 0.24266 0.53547
 C1313 C 0.22759 0.22809 0.53840
 C1314 C 0.23476 0.21937 0.52870
 C1315 C 0.24046 0.22507 0.51634
 C1316 C 0.22497 0.24054 0.48411
 C1317 C 0.21929 0.23481 0.47176
 C1318 C 0.22803 0.22765 0.46208
 C1319 C 0.24261 0.22641 0.46500
 C1320 C 0.24831 0.23225 0.47733
 H1321 H 0.28273 0.25500 0.49160
 H1322 H 0.29284 0.26494 0.47000
 H1323 H 0.25126 0.27974 0.45757
 H1324 H 0.24126 0.26971 0.47928
 H1325 H 0.26966 0.24142 0.52114
 H1326 H 0.27973 0.25145 0.54282
 H1327 H 0.25475 0.28282 0.50888
 H1328 H 0.23096 0.25960 0.52101
 H1329 H 0.22085 0.24966 0.54271
 H1330 H 0.23586 0.20810 0.53057
 H1331 H 0.24588 0.21814 0.50898
 H1332 H 0.21803 0.24594 0.49146
 H1333 H 0.20801 0.23588 0.46989
 H1334 H 0.24963 0.22095 0.45776
 H1335 H 0.25954 0.23111 0.47945
 H1336 H 0.26471 0.29295 0.53044
 C1337 C 0.75542 0.74447 0.99965
 C1338 C 0.74526 0.75471 0.99965
 C1339 C 0.73952 0.76069 1.01295
 C1340 C 0.73927 0.76047 0.98636
 C1341 C 0.76133 0.73865 0.98635
 C1342 C 0.76120 0.73849 1.01294
 C1343 C 0.72498 0.75957 1.01578
 C1344 C 0.71929 0.76531 1.02813
 C1345 C 0.72803 0.77247 1.03781
 C1346 C 0.74261 0.77368 1.03488
 C1347 C 0.74831 0.76782 1.02256
 C1348 C 0.73210 0.75170 0.97677
 C1349 C 0.72620 0.75742 0.96447
 C1350 C 0.72741 0.77200 0.96154
 C1351 C 0.73461 0.78071 0.97121
 C1352 C 0.74039 0.77501 0.98354
 C1353 C 0.76850 0.74737 0.97669
 C1354 C 0.77434 0.74159 0.96439
 C1355 C 0.77307 0.72701 0.96153
 C1356 C 0.76586 0.71835 0.97126
 C1357 C 0.76014 0.72411 0.98358
 C1358 C 0.77577 0.73948 1.01567
 C1359 C 0.78148 0.73371 1.02800
 C1360 C 0.77274 0.72665 1.03777
 C1361 C 0.75813 0.72559 1.03495
 C1362 C 0.75240 0.73146 1.02263
 H1363 H 0.71803 0.75418 1.00843
 H1364 H 0.70802 0.76426 1.03000
 H1365 H 0.74962 0.77913 1.04213
 H1366 H 0.75954 0.76893 1.02045
 H1367 H 0.73097 0.74047 0.97889
 H1368 H 0.72073 0.75042 0.95724
 H1369 H 0.74581 0.78194 0.99088
 H1370 H 0.76967 0.75860 0.97875
 H1371 H 0.77983 0.74855 0.95712
 H1372 H 0.76476 0.70707 0.96944
 H1373 H 0.75471 0.71722 0.99097
 H1374 H 0.78272 0.74480 1.00826
 H1375 H 0.79278 0.73467 1.02979
 H1376 H 0.75110 0.72022 1.04224
 H1377 H 0.74115 0.73043 1.02059
 H1378 H 0.73566 0.79199 0.96934
 C1379 C 0.75539 0.24417 0.50014
 C1380 C 0.74521 0.25439 0.50010
 C1381 C 0.73922 0.26018 0.51337
 C1382 C 0.73946 0.26035 0.48679
 C1383 C 0.76120 0.23823 0.48685
 C1384 C 0.76130 0.23835 0.51345
 C1385 C 0.73206 0.25143 0.52300
 C1386 C 0.72621 0.25717 0.53531
 C1387 C 0.72746 0.27175 0.53820
 C1388 C 0.73463 0.28045 0.52848
 C1389 C 0.74036 0.27472 0.51615
 C1390 C 0.72492 0.25920 0.48396
 C1391 C 0.71922 0.26494 0.47161
 C1392 C 0.72793 0.27215 0.46193
 C1393 C 0.74251 0.27340 0.46486
 C1394 C 0.74823 0.26752 0.47718
 C1395 C 0.77576 0.23934 0.48409
 C1396 C 0.78149 0.23369 0.47173
 C1397 C 0.77279 0.22662 0.46195
 C1398 C 0.75819 0.22540 0.46481
 C1399 C 0.75245 0.23117 0.47715
 C1400 C 0.76830 0.24709 0.52319
 C1401 C 0.77412 0.24132 0.53552
 C1402 C 0.77303 0.22669 0.53831
 C1403 C 0.76599 0.21801 0.52849
 C1404 C 0.76027 0.22377 0.51616
 H1405 H 0.73091 0.24020 0.52092
 H1406 H 0.72075 0.25018 0.54258
 H1407 H 0.73571 0.29172 0.53032
 H1408 H 0.74578 0.28164 0.50877
 H1409 H 0.71799 0.25377 0.49131
 H1410 H 0.70795 0.26386 0.46974
 H1411 H 0.75946 0.26867 0.47930
 H1412 H 0.78268 0.24468 0.49151
 H1413 H 0.79278 0.23474 0.46992
 H1414 H 0.75120 0.22002 0.45750
 H1415 H 0.74120 0.23005 0.47921
 H1416 H 0.76937 0.25834 0.52118
 H1417 H 0.77947 0.24830 0.54284
 H1418 H 0.76500 0.20671 0.53025
 H1419 H 0.75497 0.21686 0.50871
 H1420 H 0.74951 0.27888 0.45762
 C1421 C 0.74523 0.24538 0.00011
 C1422 C 0.75538 0.25560 0.00012
 C1423 C 0.76134 0.26138 -0.01317
 C1424 C 0.76115 0.26155 0.01343
 C1425 C 0.73948 0.23939 0.01340
 C1426 C 0.73934 0.23954 -0.01319
 C1427 C 0.76855 0.25262 -0.02276
 C1428 C 0.77437 0.25834 -0.03509
 C1429 C 0.77303 0.27290 -0.03805
 C1430 C 0.76580 0.28161 -0.02838
 C1431 C 0.76011 0.27591 -0.01602
 C1432 C 0.77570 0.26041 0.01622
 C1433 C 0.78141 0.26612 0.02856
 C1434 C 0.77270 0.27327 0.03828
 C1435 C 0.75811 0.27449 0.03540
 C1436 C 0.75238 0.26866 0.02308
 C1437 C 0.72493 0.24050 0.01621
 C1438 C 0.71926 0.23477 0.02857
 C1439 C 0.72801 0.22762 0.03826
 C1440 C 0.74259 0.22640 0.03534
 C1441 C 0.74828 0.23225 0.02301
 C1442 C 0.73223 0.24826 -0.02290
 C1443 C 0.72645 0.24247 -0.03522
 C1444 C 0.72771 0.22787 -0.03804
 C1445 C 0.73484 0.21922 -0.02824
 C1446 C 0.74050 0.22499 -0.01591
 H1447 H 0.76975 0.24140 -0.02062
 H1448 H 0.77986 0.25135 -0.04232
 H1449 H 0.76466 0.29287 -0.03028
 H1450 H 0.75465 0.28282 -0.00868
 H1451 H 0.78263 0.25503 0.00884
 H1452 H 0.79270 0.26505 0.03039
 H1453 H 0.74114 0.26978 0.02100
 H1454 H 0.71798 0.24590 0.00885
 H1455 H 0.70798 0.23582 0.03044
 H1456 H 0.74962 0.22096 0.04258
 H1457 H 0.75951 0.23113 0.02089
 H1458 H 0.73106 0.25950 -0.02088
 H1459 H 0.72103 0.24943 -0.04254
 H1460 H 0.73593 0.20793 -0.03002
 H1461 H 0.74588 0.21810 -0.00848
 H1462 H 0.75111 0.27992 0.04267
 C1463 C 0.74511 0.74539 0.50022
 C1464 C 0.75530 0.75558 0.50018
 C1465 C 0.76120 0.76137 0.48686
 C1466 C 0.76110 0.76153 0.51346
 C1467 C 0.73934 0.73942 0.51352
 C1468 C 0.73913 0.73963 0.48694
 C1469 C 0.76831 0.75263 0.47718
 C1470 C 0.77409 0.75838 0.46484
 C1471 C 0.77283 0.77297 0.46196
 C1472 C 0.76567 0.78165 0.47170
 C1473 C 0.76001 0.77592 0.48407
 C1474 C 0.77566 0.76045 0.51619
 C1475 C 0.78139 0.76617 0.52852
 C1476 C 0.77268 0.77327 0.53828
 C1477 C 0.75808 0.77445 0.53544
 C1478 C 0.75233 0.76862 0.52313
 C1479 C 0.72477 0.74048 0.51627
 C1480 C 0.71903 0.73463 0.52854
 C1481 C 0.72772 0.72741 0.53823
 C1482 C 0.74233 0.72630 0.53542
 C1483 C 0.74810 0.73227 0.52316
 C1484 C 0.73195 0.74840 0.47734
 C1485 C 0.72609 0.74270 0.46502
 C1486 C 0.72735 0.72812 0.46211
 C1487 C 0.73454 0.71940 0.47180
 C1488 C 0.74028 0.72509 0.48413
 H1489 H 0.76948 0.74140 0.47926
 H1490 H 0.77953 0.75140 0.45756
 H1491 H 0.76458 0.79293 0.46986
 H1492 H 0.75462 0.78283 0.49146
 H1493 H 0.78259 0.75509 0.50879
 H1494 H 0.79269 0.76514 0.53032
 H1495 H 0.74109 0.76972 0.52108
 H1496 H 0.71785 0.74590 0.50889
 H1497 H 0.70773 0.73563 0.53032
 H1498 H 0.74932 0.72082 0.54267
 H1499 H 0.75935 0.73118 0.52111
 H1500 H 0.73079 0.75963 0.47944
 H1501 H 0.72062 0.74970 0.45778
 H1502 H 0.73562 0.70812 0.46994
 H1503 H 0.74571 0.71815 0.49149
 H1504 H 0.75108 0.77985 0.54273
 C1505 C 1.00001 0.25525 0.24517
 C1506 C 1.00001 0.24498 0.25526
 C1507 C 1.01337 0.23918 0.26116
 C1508 C 0.98666 0.23899 0.26100
 C1509 C 0.98666 0.26119 0.23938
 C1510 C 1.01337 0.26110 0.23931
 C1511 C 1.01621 0.22465 0.25992
 C1512 C 1.02859 0.21890 0.26565
 C1513 C 1.03827 0.22756 0.27293
 C1514 C 1.03533 0.24213 0.27424
 C1515 C 1.02299 0.24789 0.26839
 C1516 C 0.97697 0.23189 0.25227
 C1517 C 0.96464 0.22595 0.25799
 C1518 C 0.96179 0.22706 0.27254
 C1519 C 0.97155 0.23421 0.28121
 C1520 C 0.98390 0.24002 0.27550
 C1521 C 0.97690 0.26824 0.24809
 C1522 C 0.96454 0.27408 0.24234
 C1523 C 0.96173 0.27293 0.22779
 C1524 C 0.97156 0.26585 0.21914
 C1525 C 0.98395 0.26013 0.22488
 C1526 C 1.01614 0.27564 0.24055
 C1527 C 1.02850 0.28144 0.23485
 C1528 C 1.03825 0.27282 0.22759
 C1529 C 1.03539 0.25823 0.22629
 C1530 C 1.02306 0.25242 0.23212
 H1531 H 1.00885 0.21777 0.25445
 H1532 H 1.03046 0.20764 0.26452
 H1533 H 1.04257 0.24908 0.27977
 H1534 H 1.02086 0.25911 0.26960
 H1535 H 0.97902 0.23083 0.24107
 H1536 H 0.95734 0.22052 0.25103
 H1537 H 0.99131 0.24539 0.28241
 H1538 H 0.97893 0.26932 0.25930
 H1539 H 0.95718 0.27946 0.24930
 H1540 H 0.96979 0.26485 0.20789
 H1541 H 0.99142 0.25480 0.21799
 H1542 H 1.00872 0.28251 0.24599
 H1543 H 1.03031 0.29271 0.23597
 H1544 H 1.04268 0.25130 0.22077
 H1545 H 1.02099 0.24120 0.23090
 H1546 H 0.96975 0.23519 0.29246
 C1547 C 0.50005 0.25517 0.74518
 C1548 C 0.50002 0.24489 0.75525
 C1549 C 0.51335 0.23909 0.76120
 C1550 C 0.48666 0.23892 0.76095
 C1551 C 0.48672 0.26116 0.73945
 C1552 C 0.51342 0.26100 0.73933
 C1553 C 0.51618 0.22455 0.76003
 C1554 C 0.52857 0.21883 0.76574
 C1555 C 0.53829 0.22753 0.77292
 C1556 C 0.53535 0.24211 0.77418
 C1557 C 0.52299 0.24784 0.76836
 C1558 C 0.47704 0.23174 0.75220
 C1559 C 0.46470 0.22582 0.75789
 C1560 C 0.46176 0.22703 0.77241
 C1561 C 0.47144 0.23426 0.78109
 C1562 C 0.48382 0.24004 0.77543
 C1563 C 0.47707 0.26830 0.74820
 C1564 C 0.46470 0.27418 0.74251
 C1565 C 0.46177 0.27297 0.72799
 C1566 C 0.47151 0.26580 0.71930
 C1567 C 0.48390 0.26005 0.72497
 C1568 C 0.51617 0.27555 0.74050
 C1569 C 0.52856 0.28131 0.73486
 C1570 C 0.53838 0.27265 0.72774
 C1571 C 0.53554 0.25806 0.72650
 C1572 C 0.52316 0.25228 0.73225
 H1573 H 0.50880 0.21764 0.75461
 H1574 H 0.53045 0.20756 0.76466
 H1575 H 0.54262 0.24909 0.77964
 H1576 H 0.52087 0.25906 0.76952
 H1577 H 0.47918 0.23062 0.74102
 H1578 H 0.45745 0.22033 0.75092
 H1579 H 0.49118 0.24548 0.78234
 H1580 H 0.47918 0.26942 0.75938
 H1581 H 0.45742 0.27963 0.74949
 H1582 H 0.46964 0.26475 0.70807
 H1583 H 0.49129 0.25464 0.71806
 H1584 H 0.50871 0.28244 0.74585
 H1585 H 0.53037 0.29260 0.73594
 H1586 H 0.54287 0.25110 0.72109
 H1587 H 0.52111 0.24105 0.73108
 H1588 H 0.46957 0.23531 0.79232
 C1589 C -0.00000 0.24478 0.74513
 C1590 C -0.00003 0.25505 0.75520
 C1591 C -0.01340 0.26105 0.76087
 C1592 C 0.01330 0.26083 0.76115
 C1593 C 0.01336 0.23889 0.73931
 C1594 C -0.01334 0.23888 0.73933
 C1595 C -0.02301 0.26824 0.75211
 C1596 C -0.03536 0.27420 0.75778
 C1597 C -0.03830 0.27301 0.77230
 C1598 C -0.02862 0.26577 0.78100
 C1599 C -0.01625 0.25995 0.77535
 C1600 C 0.01606 0.27538 0.76004
 C1601 C 0.02839 0.28112 0.76584
 C1602 C 0.03813 0.27243 0.77304
 C1603 C 0.03527 0.25784 0.77422
 C1604 C 0.02296 0.25208 0.76832
 C1605 C 0.01606 0.22433 0.74049
 C1606 C 0.02843 0.21850 0.73483
 C1607 C 0.03826 0.22712 0.72769
 C1608 C 0.03547 0.24173 0.72645
 C1609 C 0.02312 0.24757 0.73222
 C1610 C -0.02302 0.23168 0.74800
 C1611 C -0.03534 0.22581 0.74223
 C1612 C -0.03819 0.22710 0.72770
 C1613 C -0.02845 0.23436 0.71909
 C1614 C -0.01610 0.24008 0.72484
 H1615 H -0.02088 0.26935 0.74093
 H1616 H -0.04260 0.27970 0.75079
 H1617 H -0.03049 0.26474 0.79224
 H1618 H -0.00889 0.25451 0.78228
 H1619 H 0.00867 0.28230 0.75462
 H1620 H 0.03021 0.29241 0.76479
 H1621 H 0.02088 0.24085 0.76945
 H1622 H 0.00859 0.21747 0.74586
 H1623 H 0.03019 0.20721 0.73591
 H1624 H 0.04281 0.24866 0.72101
 H1625 H 0.02110 0.25881 0.73104
 H1626 H -0.02096 0.23051 0.75919
 H1627 H -0.04264 0.22031 0.74914
 H1628 H -0.03027 0.23546 0.70785
 H1629 H -0.00868 0.24553 0.71799
 H1630 H 0.04254 0.25085 0.77969
 C1631 C 0.50003 0.24439 0.24495
 C1632 C 0.50001 0.25467 0.25501
 C1633 C 0.48665 0.26063 0.26076
 C1634 C 0.51336 0.26046 0.26092
 C1635 C 0.51340 0.23854 0.23910
 C1636 C 0.48669 0.23841 0.23921
 C1637 C 0.47692 0.26773 0.25205
 C1638 C 0.46459 0.27364 0.25779
 C1639 C 0.46177 0.27251 0.27234
 C1640 C 0.47156 0.26535 0.28099
 C1641 C 0.48392 0.25958 0.27527
 C1642 C 0.51619 0.27499 0.25968
 C1643 C 0.52856 0.28073 0.26542
 C1644 C 0.53825 0.27206 0.27270
 C1645 C 0.53532 0.25749 0.27401
 C1646 C 0.52299 0.25173 0.26815
 C1647 C 0.51620 0.22400 0.24034
 C1648 C 0.52858 0.21822 0.23467
 C1649 C 0.53834 0.22685 0.22744
 C1650 C 0.53546 0.24144 0.22614
 C1651 C 0.52310 0.24724 0.23193
 C1652 C 0.47694 0.23140 0.24797
 C1653 C 0.46458 0.22554 0.24227
 C1654 C 0.46175 0.22662 0.22771
 C1655 C 0.47158 0.23365 0.21901
 C1656 C 0.48396 0.23939 0.22470
 H1657 H 0.47896 0.26880 0.24084
 H1658 H 0.45726 0.27907 0.25084
 H1659 H 0.46979 0.26436 0.29225
 H1660 H 0.49136 0.25421 0.28216
 H1661 H 0.50882 0.28189 0.25421
 H1662 H 0.53042 0.29199 0.26429
 H1663 H 0.52087 0.24052 0.26937
 H1664 H 0.50878 0.21713 0.24577
 H1665 H 0.53041 0.20694 0.23580
 H1666 H 0.54275 0.24838 0.22065
 H1667 H 0.52102 0.25847 0.23072
 H1668 H 0.47898 0.23037 0.25918
 H1669 H 0.45723 0.22020 0.24926
 H1670 H 0.46980 0.23460 0.20776
 H1671 H 0.49142 0.24468 0.21778
 H1672 H 0.54257 0.25052 0.27955
 C1673 C 1.00010 0.75576 0.74465
 C1674 C 1.00010 0.74550 0.75474
 C1675 C 1.01345 0.73963 0.76063
 C1676 C 0.98675 0.73953 0.76046
 C1677 C 0.98675 0.76175 0.73890
 C1678 C 1.01346 0.76151 0.73872
 C1679 C 1.01615 0.72506 0.75954
 C1680 C 1.02846 0.71924 0.76533
 C1681 C 1.03824 0.72786 0.77251
 C1682 C 1.03547 0.74249 0.77364
 C1683 C 1.02317 0.74832 0.76775
 C1684 C 0.97711 0.73240 0.75172
 C1685 C 0.96477 0.72647 0.75742
 C1686 C 0.96188 0.72762 0.77195
 C1687 C 0.97160 0.73480 0.78064
 C1688 C 0.98396 0.74060 0.77496
 C1689 C 0.97703 0.76884 0.74762
 C1690 C 0.96469 0.77475 0.74189
 C1691 C 0.96185 0.77362 0.72734
 C1692 C 0.97164 0.76648 0.71869
 C1693 C 0.98400 0.76070 0.72440
 C1694 C 1.01636 0.77602 0.73997
 C1695 C 1.02875 0.78171 0.73424
 C1696 C 1.03840 0.77301 0.72694
 C1697 C 1.03540 0.75845 0.72562
 C1698 C 1.02304 0.75275 0.73148
 H1699 H 1.00871 0.71819 0.75415
 H1700 H 1.03021 0.70794 0.76432
 H1701 H 1.04278 0.74943 0.77910
 H1702 H 1.02116 0.75957 0.76886
 H1703 H 0.97920 0.73131 0.74053
 H1704 H 0.95750 0.72102 0.75044
 H1705 H 0.99135 0.74599 0.78186
 H1706 H 0.97908 0.76990 0.75882
 H1707 H 0.95737 0.78017 0.74885
 H1708 H 0.96984 0.76548 0.70744
 H1709 H 0.99143 0.75532 0.71750
 H1710 H 1.00902 0.78294 0.74545
 H1711 H 1.03068 0.79296 0.73538
 H1712 H 1.04262 0.75147 0.72007
 H1713 H 1.02087 0.74154 0.73026
 H1714 H 0.96976 0.73580 0.79188
 C1715 C 0.49997 0.75545 0.24473
 C1716 C 0.49997 0.74525 0.25487
 C1717 C 0.51333 0.73943 0.26077
 C1718 C 0.48663 0.73931 0.26065
 C1719 C 0.48662 0.76139 0.23894
 C1720 C 0.51333 0.76118 0.23878
 C1721 C 0.51612 0.72488 0.25963
 C1722 C 0.52851 0.71914 0.26532
 C1723 C 0.53829 0.72782 0.27245
 C1724 C 0.53540 0.74241 0.27367
 C1725 C 0.52303 0.74817 0.26787
 C1726 C 0.47700 0.73207 0.25197
 C1727 C 0.46469 0.72615 0.25773
 C1728 C 0.46180 0.72743 0.27225
 C1729 C 0.47149 0.73474 0.28086
 C1730 C 0.48383 0.74052 0.27513
 C1731 C 0.47687 0.76847 0.24763
 C1732 C 0.46451 0.77432 0.24187
 C1733 C 0.46171 0.77317 0.22732
 C1734 C 0.47155 0.76606 0.21868
 C1735 C 0.48391 0.76033 0.22443
 C1736 C 0.51623 0.77570 0.24000
 C1737 C 0.52864 0.78136 0.23428
 C1738 C 0.53830 0.77264 0.22703
 C1739 C 0.53530 0.75809 0.22573
 C1740 C 0.52292 0.75240 0.23158
 H1741 H 0.50870 0.71798 0.25426
 H1742 H 0.53035 0.70786 0.26425
 H1743 H 0.54270 0.74939 0.27909
 H1744 H 0.52094 0.75940 0.26902
 H1745 H 0.47910 0.73089 0.24079
 H1746 H 0.45743 0.72061 0.25081
 H1747 H 0.49120 0.74600 0.28199
 H1748 H 0.47889 0.76957 0.25883
 H1749 H 0.45716 0.77973 0.24881
 H1750 H 0.46978 0.76505 0.20743
 H1751 H 0.49138 0.75498 0.21755
 H1752 H 0.50889 0.78263 0.24546
 H1753 H 0.53057 0.79262 0.23540
 H1754 H 0.54252 0.75108 0.22022
 H1755 H 0.52075 0.74119 0.23039
 H1756 H 0.46964 0.73584 0.29209
 C1757 C -0.00030 0.74452 0.24446
 C1758 C -0.00029 0.75478 0.25453
 C1759 C -0.01363 0.76077 0.26027
 C1760 C 0.01306 0.76059 0.26041
 C1761 C 0.01306 0.73878 0.23851
 C1762 C -0.01365 0.73854 0.23875
 C1763 C -0.02333 0.76786 0.25152
 C1764 C -0.03568 0.77377 0.25721
 C1765 C -0.03854 0.77263 0.27175
 C1766 C -0.02877 0.76551 0.28045
 C1767 C -0.01640 0.75973 0.27477
 C1768 C 0.01586 0.77513 0.25920
 C1769 C 0.02825 0.78087 0.26487
 C1770 C 0.03801 0.77219 0.27205
 C1771 C 0.03511 0.75761 0.27334
 C1772 C 0.02275 0.75186 0.26756
 C1773 C 0.01598 0.72426 0.23974
 C1774 C 0.02837 0.71858 0.23399
 C1775 C 0.03800 0.72730 0.22669
 C1776 C 0.03498 0.74185 0.22537
 C1777 C 0.02262 0.74755 0.23125
 C1778 C -0.02333 0.73145 0.24751
 C1779 C -0.03569 0.72557 0.24183
 C1780 C -0.03858 0.72673 0.22729
 C1781 C -0.02882 0.73385 0.21859
 C1782 C -0.01644 0.73960 0.22426
 H1783 H -0.02125 0.76893 0.24032
 H1784 H -0.04299 0.77918 0.25023
 H1785 H -0.03059 0.76452 0.29170
 H1786 H -0.00897 0.75437 0.28169
 H1787 H 0.00844 0.78203 0.25379
 H1788 H 0.03009 0.79214 0.26376
 H1789 H 0.02066 0.74063 0.26875
 H1790 H 0.00867 0.71733 0.24523
 H1791 H 0.03032 0.70733 0.23513
 H1792 H 0.04217 0.74885 0.21983
 H1793 H 0.02043 0.75876 0.23004
 H1794 H -0.02124 0.73036 0.25871
 H1795 H -0.04299 0.72015 0.24881
 H1796 H -0.03066 0.73487 0.20735
 H1797 H -0.00903 0.74497 0.21734
 H1798 H 0.04241 0.75064 0.27881
 C1799 C 0.49976 0.74440 0.74511
 C1800 C 0.49981 0.75543 0.75426
 C1801 C 0.48647 0.76129 0.75999
 C1802 C 0.51320 0.76134 0.75990
 C1803 C 0.51312 0.73860 0.73934
 C1804 C 0.48637 0.73847 0.73951
 C1805 C 0.48062 0.77372 0.75434
 C1806 C 0.46820 0.77942 0.76005
 C1807 C 0.46145 0.77281 0.77156
 C1808 C 0.46734 0.76026 0.77709
 C1809 C 0.47974 0.75456 0.77134
 C1810 C 0.51740 0.77514 0.75635
 C1811 C 0.52979 0.78089 0.76206
 C1812 C 0.53817 0.77297 0.77150
 C1813 C 0.53392 0.75910 0.77498
 C1814 C 0.52153 0.75336 0.76924
 C1815 C 0.51903 0.72619 0.74495
 C1816 C 0.53152 0.72060 0.73926
 C1817 C 0.53827 0.72732 0.72781
 C1818 C 0.53231 0.73985 0.72231
 C1819 C 0.51984 0.74544 0.72805
 C1820 C 0.48216 0.72470 0.74314
 C1821 C 0.46976 0.71892 0.73747
 C1822 C 0.46138 0.72680 0.72798
 C1823 C 0.46564 0.74065 0.72444
 C1824 C 0.47803 0.74641 0.73014
 H1825 H 0.48564 0.77897 0.74549
 H1826 H 0.46395 0.78906 0.75550
 H1827 H 0.46242 0.75487 0.78591
 H1828 H 0.48417 0.74495 0.77580
 H1829 H 0.51112 0.78145 0.74914
 H1830 H 0.53272 0.79160 0.75917
 H1831 H 0.51835 0.74274 0.77220
 H1832 H 0.51401 0.72086 0.75376
 H1833 H 0.53581 0.71097 0.74378
 H1834 H 0.53722 0.74533 0.71354
 H1835 H 0.51537 0.75505 0.72364
 H1836 H 0.48845 0.71842 0.75038
 H1837 H 0.46682 0.70823 0.74042
 H1838 H 0.45945 0.74703 0.71719
 H1839 H 0.48122 0.75702 0.72712
 H1840 H 0.54010 0.75269 0.78219
 C1841 C 0.41293 0.29747 0.29686
 N1842 N 0.40579 0.30804 0.29019
 N1843 N 0.39450 0.31404 0.29619
 C1844 C 0.38990 0.30964 0.30906
 N1845 N 0.39703 0.29907 0.31572
 N1846 N 0.40835 0.29312 0.30974
 C1847 C 0.42546 0.29090 0.29036
 N1848 N 0.43337 0.28142 0.29773
 N1849 N 0.44484 0.27556 0.29197
 C1850 C 0.44884 0.27888 0.27858
 N1851 N 0.44085 0.28832 0.27119
 N1852 N 0.42940 0.29424 0.27698
 C1853 C 0.41197 0.79682 0.79581
 N1854 N 0.40597 0.80862 0.79017
 N1855 N 0.39442 0.81432 0.79595
 C1856 C 0.38843 0.80842 0.80761
 N1857 N 0.39444 0.79661 0.81324
 N1858 N 0.40599 0.79092 0.80745
 C1859 C 0.42474 0.79056 0.78947
 N1860 N 0.43066 0.77870 0.79506
 N1861 N 0.44227 0.77305 0.78935
 C1862 C 0.44844 0.77903 0.77783
 N1863 N 0.44248 0.79091 0.77226
 N1864 N 0.43086 0.79657 0.77796
 C1865 C -0.08754 0.29762 0.79634
 N1866 N -0.09451 0.30837 0.78978
 N1867 N -0.10594 0.31421 0.79567
 C1868 C -0.11085 0.30946 0.80829
 N1869 N -0.10390 0.29870 0.81482
 N1870 N -0.09244 0.29291 0.80897
 C1871 C -0.07486 0.29121 0.78998
 N1872 N -0.06708 0.28162 0.79734
 N1873 N -0.05551 0.27585 0.79170
 C1874 C -0.05129 0.27936 0.77844
 N1875 N -0.05913 0.28892 0.77105
 N1876 N -0.07068 0.29476 0.77672
 C1877 C -0.08804 0.79676 0.29571
 N1878 N -0.09533 0.80715 0.28892
 N1879 N -0.10687 0.81285 0.29474
 C1880 C -0.11158 0.80830 0.30751
 N1881 N -0.10431 0.79789 0.31427
 N1882 N -0.09274 0.79225 0.30849
 C1883 C -0.07527 0.79050 0.28940
 N1884 N -0.06726 0.78120 0.29689
 N1885 N -0.05562 0.77554 0.29126
 C1886 C -0.05156 0.77889 0.27790
 N1887 N -0.05964 0.78817 0.27041
 N1888 N -0.07125 0.79389 0.27606
 C1889 C 0.58767 0.70374 0.29676
 N1890 N 0.59505 0.71083 0.30682
 N1891 N 0.60650 0.70504 0.31273
 C1892 C 0.61101 0.69197 0.30875
 N1893 N 0.60365 0.68489 0.29866
 N1894 N 0.59218 0.69066 0.29279
 C1895 C 0.57497 0.71005 0.29035
 N1896 N 0.56685 0.70244 0.28128
 N1897 N 0.55524 0.70811 0.27558
 C1898 C 0.55131 0.72162 0.27868
 N1899 N 0.55949 0.72923 0.28772
 N1900 N 0.57108 0.72355 0.29347
 C1901 C 0.58781 0.20362 0.79704
 N1902 N 0.59495 0.21052 0.80740
 N1903 N 0.60649 0.20478 0.81318
 C1904 C 0.61133 0.19197 0.80877
 N1905 N 0.60420 0.18508 0.79838
 N1906 N 0.59263 0.19079 0.79265
 C1907 C 0.57504 0.20988 0.79073
 N1908 N 0.56709 0.20235 0.78145
 N1909 N 0.55544 0.20797 0.77579
 C1910 C 0.55132 0.22136 0.77914
 N1911 N 0.55933 0.22889 0.78840
 N1912 N 0.57095 0.22325 0.79411
 C1913 C 1.08720 0.70345 0.79737
 N1914 N 1.09486 0.71072 0.80711
 N1915 N 1.10630 0.70491 0.81301
 C1916 C 1.11053 0.69165 0.80937
 N1917 N 1.10288 0.68438 0.79962
 N1918 N 1.09141 0.69017 0.79375
 C1919 C 1.07458 0.70983 0.79087
 N1920 N 1.06634 0.70218 0.78194
 N1921 N 1.05485 0.70793 0.77610
 C1922 C 1.05115 0.72157 0.77890
 N1923 N 1.05944 0.72922 0.78781
 N1924 N 1.07092 0.72346 0.79370
 C1925 C 1.08723 0.20319 0.29779
 N1926 N 1.09418 0.20992 0.30840
 N1927 N 1.10552 0.20402 0.31441
 C1928 C 1.11034 0.19120 0.31000
 N1929 N 1.10341 0.18448 0.29937
 N1930 N 1.09204 0.19036 0.29340
 C1931 C 1.07466 0.20961 0.29123
 N1932 N 1.06687 0.20221 0.28172
 N1933 N 1.05536 0.20794 0.27588
 C1934 C 1.05122 0.22132 0.27927
 N1935 N 1.05909 0.22874 0.28874
 N1936 N 1.07057 0.22298 0.29463
 C1937 C 0.58763 0.29686 0.70337
 N1938 N 0.59488 0.28987 0.69313
 N1939 N 0.60630 0.29568 0.68720
 C1940 C 0.61090 0.30867 0.69131
 N1941 N 0.60367 0.31565 0.70157
 N1942 N 0.59222 0.30987 0.70747
 C1943 C 0.57497 0.29051 0.70981
 N1944 N 0.56689 0.29806 0.71898
 N1945 N 0.55532 0.29237 0.72469
 C1946 C 0.55138 0.27888 0.72152
 N1947 N 0.55953 0.27133 0.71239
 N1948 N 0.57108 0.27704 0.70662
 C1949 C 0.58757 0.79659 0.20247
 N1950 N 0.59261 0.80923 0.20710
 N1951 N 0.60407 0.81500 0.20124
 C1952 C 0.61087 0.80837 0.19047
 N1953 N 0.60582 0.79574 0.18581
 N1954 N 0.59439 0.78994 0.19172
 C1955 C 0.57490 0.79028 0.20893
 N1956 N 0.57063 0.77702 0.20535
 N1957 N 0.55907 0.77136 0.21117
 C1958 C 0.55130 0.77877 0.22074
 N1959 N 0.55561 0.79204 0.22429
 N1960 N 0.56720 0.79767 0.21853
 C1961 C 1.08721 0.29727 0.20285
 N1962 N 1.09204 0.31008 0.20728
 N1963 N 1.10342 0.31594 0.20133
 C1964 C 1.11034 0.30924 0.19068
 N1965 N 1.10550 0.29645 0.18623
 N1966 N 1.09416 0.29056 0.19222
 C1967 C 1.07463 0.29084 0.20938
 N1968 N 1.07056 0.27748 0.20593
 N1969 N 1.05908 0.27171 0.21178
 C1970 C 1.05119 0.27909 0.22127
 N1971 N 1.05530 0.29246 0.22471
 N1972 N 1.06681 0.29820 0.21891
 C1973 C 1.08764 0.79699 0.70235
 N1974 N 1.09268 0.80963 0.70698
 N1975 N 1.10416 0.81539 0.70112
 C1976 C 1.11095 0.80875 0.69035
 N1977 N 1.10589 0.79613 0.68569
 N1978 N 1.09445 0.79033 0.69160
 C1979 C 1.07496 0.79068 0.70880
 N1980 N 1.07070 0.77742 0.70522
 N1981 N 1.05915 0.77176 0.71105
 C1982 C 1.05139 0.77916 0.72063
 N1983 N 1.05569 0.79243 0.72419
 N1984 N 1.06727 0.79807 0.71842
 C1985 C 0.41238 0.70244 0.70320
 N1986 N 0.40580 0.70893 0.69219
 N1987 N 0.39446 0.70308 0.68616
 C1988 C 0.38926 0.69055 0.69094
 N1989 N 0.39581 0.68407 0.70196
 N1990 N 0.40718 0.68990 0.70797
 C1991 C 0.42497 0.70883 0.70975
 N1992 N 0.43209 0.70193 0.72014
 N1993 N 0.44361 0.70765 0.72596
 C1994 C 0.44843 0.72053 0.72166
 N1995 N 0.44124 0.72743 0.71129
 N1996 N 0.42975 0.72170 0.70544
 C1997 C 0.41246 0.20230 0.20358
 N1998 N 0.40504 0.19209 0.21048
 N1999 N 0.39363 0.18623 0.20457
 C2000 C 0.38920 0.19042 0.19158
 N2001 N 0.39660 0.20064 0.18470
 N2002 N 0.40804 0.20645 0.19057
 C2003 C 0.42512 0.20868 0.20996
 N2004 N 0.43326 0.21781 0.20242
 N2005 N 0.44484 0.22351 0.20809
 C2006 C 0.44874 0.22037 0.22154
 N2007 N 0.44054 0.21127 0.22911
 N2008 N 0.42897 0.20551 0.22342
 C2009 C -0.08772 0.70217 0.20309
 N2010 N -0.09228 0.70651 0.19020
 N2011 N -0.10364 0.70062 0.18426
 C2012 C -0.11082 0.69013 0.19097
 N2013 N -0.10626 0.68576 0.20386
 N2014 N -0.09492 0.69170 0.20983
 C2015 C -0.07511 0.70863 0.20951
 N2016 N -0.07114 0.70529 0.22289
 N2017 N -0.05961 0.71111 0.22860
 C2018 C -0.05158 0.72044 0.22113
 N2019 N -0.05561 0.72376 0.20776
 N2020 N -0.06716 0.71800 0.20207
 C2021 C -0.08729 0.20262 0.70338
 N2022 N -0.09256 0.20774 0.69105
 N2023 N -0.10408 0.20201 0.68526
 C2024 C -0.11069 0.19089 0.69154
 N2025 N -0.10538 0.18573 0.70384
 N2026 N -0.09391 0.19151 0.70968
 C2027 C -0.07463 0.20900 0.70977
 N2028 N -0.07032 0.20516 0.72290
 N2029 N -0.05881 0.21097 0.72865
 C2030 C -0.05113 0.22080 0.72146
 N2031 N -0.05548 0.22461 0.70832
 N2032 N -0.06702 0.21886 0.70260
 C2033 C 0.29630 0.41219 0.29619
 N2034 N 0.30913 0.40738 0.29178
 N2035 N 0.31487 0.39583 0.29754
 C2036 C 0.30801 0.38872 0.30796
 N2037 N 0.29519 0.39354 0.31239
 N2038 N 0.28943 0.40506 0.30658
 C2039 C 0.29002 0.42496 0.28988
 N2040 N 0.27665 0.42906 0.29331
 N2041 N 0.27101 0.44071 0.28765
 C2042 C 0.27853 0.44873 0.27837
 N2043 N 0.29190 0.44458 0.27496
 N2044 N 0.29753 0.43291 0.28057
 C2045 C 0.29799 -0.08774 0.79645
 N2046 N 0.30886 -0.09460 0.78999
 N2047 N 0.31474 -0.10600 0.79591
 C2048 C 0.30991 -0.11101 0.80848
 N2049 N 0.29901 -0.10416 0.81490
 N2050 N 0.29319 -0.09272 0.80902
 C2051 C 0.29154 -0.07509 0.79003
 N2052 N 0.28189 -0.06733 0.79733
 N2053 N 0.27611 -0.05578 0.79163
 C2054 C 0.27967 -0.05156 0.77837
 N2055 N 0.28928 -0.05939 0.77105
 N2056 N 0.29513 -0.07092 0.77678
 C2057 C 0.79665 0.41221 0.79712
 N2058 N 0.80897 0.40681 0.79202
 N2059 N 0.81480 0.39536 0.79788
 C2060 C 0.80856 0.38893 0.80911
 N2061 N 0.79624 0.39436 0.81422
 N2062 N 0.79037 0.40577 0.80831
 C2063 C 0.79029 0.42488 0.79068
 N2064 N 0.77723 0.42943 0.79466
 N2065 N 0.77154 0.44098 0.78885
 C2066 C 0.77871 0.44847 0.77889
 N2067 N 0.79179 0.44388 0.77493
 N2068 N 0.79745 0.43230 0.78068
 C2069 C 0.79708 -0.08808 0.29660
 N2070 N 0.80783 -0.09507 0.29008
 N2071 N 0.81364 -0.10651 0.29599
 C2072 C 0.80887 -0.11142 0.30862
 N2073 N 0.79809 -0.10444 0.31511
 N2074 N 0.79233 -0.09297 0.30923
 C2075 C 0.79073 -0.07541 0.29019
 N2076 N 0.78112 -0.06758 0.29746
 N2077 N 0.77543 -0.05599 0.29174
 C2078 C 0.77907 -0.05181 0.27849
 N2079 N 0.78865 -0.05970 0.27120
 N2080 N 0.79440 -0.07126 0.27695
 C2081 C 0.29670 0.58715 0.70276
 N2082 N 0.31000 0.59131 0.70637
 N2083 N 0.31581 0.60274 0.70047
 C2084 C 0.30855 0.61040 0.69071
 N2085 N 0.29527 0.60622 0.68707
 N2086 N 0.28945 0.59481 0.69300
 C2087 C 0.29030 0.57455 0.70929
 N2088 N 0.27665 0.57095 0.70650
 N2089 N 0.27088 0.55950 0.71240
 C2090 C 0.27854 0.55117 0.72130
 N2091 N 0.29220 0.55482 0.72407
 N2092 N 0.29796 0.56629 0.71821
 C2093 C 0.29656 1.08720 0.20374
 N2094 N 0.30877 1.09276 0.20893
 N2095 N 0.31447 1.10428 0.20311
 C2096 C 0.30818 1.11066 0.19189
 N2097 N 0.29599 1.10509 0.18668
 N2098 N 0.29029 1.09356 0.19249
 C2099 C 0.29025 1.07453 0.21018
 N2100 N 0.27806 1.06895 0.20498
 N2101 N 0.27235 1.05744 0.21082
 C2102 C 0.27859 1.05106 0.22210
 N2103 N 0.29079 1.05668 0.22728
 N2104 N 0.29651 1.06819 0.22144
 C2105 C 0.79619 0.58719 0.20302
 N2106 N 0.80932 0.59158 0.20691
 N2107 N 0.81508 0.60308 0.20109
 C2108 C 0.80792 0.61057 0.19113
 N2109 N 0.79480 0.60616 0.18720
 N2110 N 0.78903 0.59468 0.19306
 C2111 C 0.78985 0.57455 0.20949
 N2112 N 0.77630 0.57075 0.20647
 N2113 N 0.77059 0.55926 0.21235
 C2114 C 0.77820 0.55111 0.22145
 N2115 N 0.79175 0.55496 0.22445
 N2116 N 0.79746 0.56647 0.21860
 C2117 C 0.79576 1.08846 0.70412
 N2118 N 0.79199 1.09255 0.69089
 N2119 N 0.79775 1.10402 0.68501
 C2120 C 0.80753 1.11178 0.69212
 N2121 N 0.81129 1.10769 0.70535
 N2122 N 0.80550 1.09625 0.71126
 C2123 C 0.78952 1.07570 0.71049
 N2124 N 0.79253 1.07203 0.72403
 N2125 N 0.78695 1.06038 0.72972
 C2126 C 0.77817 1.05192 0.72208
 N2127 N 0.77518 1.05563 0.70854
 N2128 N 0.78072 1.06730 0.70286
 C2129 C 0.70275 0.58777 0.29766
 N2130 N 0.68980 0.59244 0.29344
 N2131 N 0.68396 0.60385 0.29936
 C2132 C 0.69083 0.61096 0.30977
 N2133 N 0.70377 0.60628 0.31401
 N2134 N 0.70964 0.59491 0.30804
 C2135 C 0.70912 0.57512 0.29120
 N2136 N 0.72253 0.57109 0.29453
 N2137 N 0.72823 0.55953 0.28876
 C2138 C 0.72071 0.55152 0.27948
 N2139 N 0.70729 0.55560 0.27617
 N2140 N 0.70162 0.56719 0.28189
 C2141 C 0.70223 1.08781 0.79772
 N2142 N 0.70717 1.09284 0.81021
 N2143 N 0.70130 1.10420 0.81618
 C2144 C 0.69022 1.11093 0.80992
 N2145 N 0.68525 1.10587 0.79744
 N2146 N 0.69117 1.09454 0.79143
 C2147 C 0.70871 1.07524 0.79122
 N2148 N 0.70491 1.07101 0.77806
 N2149 N 0.71074 1.05951 0.77227
 C2150 C 0.72053 1.05177 0.77946
 N2151 N 0.72430 1.05605 0.79263
 N2152 N 0.71854 1.06757 0.79838
 C2153 C 0.20275 0.58771 0.79745
 N2154 N 0.20950 0.59470 0.80801
 N2155 N 0.20362 0.60607 0.81397
 C2156 C 0.19080 0.61090 0.80953
 N2157 N 0.18407 0.60394 0.79894
 N2158 N 0.18993 0.59253 0.79302
 C2159 C 0.20914 0.57506 0.79100
 N2160 N 0.20171 0.56720 0.78157
 N2161 N 0.20740 0.55561 0.77587
 C2162 C 0.22076 0.55145 0.77932
 N2163 N 0.22820 0.55939 0.78871
 N2164 N 0.22249 0.57095 0.79447
 C2165 C 0.20252 1.08755 0.29696
 N2166 N 0.20924 1.09427 0.30771
 N2167 N 0.20356 1.10575 0.31365
 C2168 C 0.19096 1.11094 0.30902
 N2169 N 0.18424 1.10424 0.29825
 N2170 N 0.18991 1.09274 0.29234
 C2171 C 0.20877 1.07487 0.29047
 N2172 N 0.20172 1.06769 0.28023
 N2173 N 0.20735 1.05612 0.27444
 C2174 C 0.22027 1.05128 0.27862
 N2175 N 0.22731 1.05852 0.28885
 N2176 N 0.22167 1.07007 0.29467
 C2177 C 0.70298 0.41247 0.70272
 N2178 N 0.69009 0.40777 0.70704
 N2179 N 0.68418 0.39644 0.70105
 C2180 C 0.69092 0.38945 0.69048
 N2181 N 0.70381 0.39417 0.68614
 N2182 N 0.70974 0.40546 0.69217
 C2183 C 0.70945 0.42501 0.70927
 N2184 N 0.72286 0.42899 0.70591
 N2185 N 0.72865 0.44046 0.71175
 C2186 C 0.72122 0.44844 0.72114
 N2187 N 0.70780 0.44441 0.72449
 N2188 N 0.70204 0.43291 0.71870
 C2189 C 0.70280 -0.08774 0.20316
 N2190 N 0.69210 -0.09477 0.20972
 N2191 N 0.68630 -0.10619 0.20379
 C2192 C 0.69103 -0.11102 0.19113
 N2193 N 0.70174 -0.10400 0.18460
 N2194 N 0.70749 -0.09255 0.19049
 C2195 C 0.70918 -0.07510 0.20957
 N2196 N 0.71879 -0.06730 0.20226
 N2197 N 0.72454 -0.05577 0.20797
 C2198 C 0.72097 -0.05159 0.22123
 N2199 N 0.71139 -0.05946 0.22855
 N2200 N 0.70558 -0.07097 0.22282
 C2201 C 0.20301 0.41260 0.20310
 N2202 N 0.19010 0.40789 0.20740
 N2203 N 0.18433 0.39640 0.20160
 C2204 C 0.19123 0.38924 0.19123
 N2205 N 0.20412 0.39396 0.18691
 N2206 N 0.20991 0.40542 0.19275
 C2207 C 0.20935 0.42529 0.20946
 N2208 N 0.22275 0.42930 0.20606
 N2209 N 0.22847 0.44086 0.21178
 C2210 C 0.22099 0.44891 0.22107
 N2211 N 0.20758 0.44486 0.22444
 N2212 N 0.20188 0.43327 0.21878
 C2213 C 0.20287 -0.08737 0.70302
 N2214 N 0.20754 -0.09215 0.69033
 N2215 N 0.20178 -0.10359 0.68443
 C2216 C 0.19108 -0.11062 0.69097
 N2217 N 0.18637 -0.10582 0.70364
 N2218 N 0.19218 -0.09441 0.70958
 C2219 C 0.20926 -0.07474 0.70945
 N2220 N 0.20569 -0.07065 0.72273
 N2221 N 0.21151 -0.05915 0.72848
 C2222 C 0.22107 -0.05126 0.72116
 N2223 N 0.22460 -0.05539 0.70787
 N2224 N 0.21884 -0.06691 0.70215
 C2225 C 0.29694 0.29710 0.41268
 N2226 N 0.30993 0.29288 0.40814
 N2227 N 0.31572 0.29862 0.39665
 C2228 C 0.30874 0.30885 0.38932
 N2229 N 0.29576 0.31309 0.39386
 N2230 N 0.28995 0.30730 0.40532
 C2231 C 0.29061 0.29080 0.42538
 N2232 N 0.27714 0.29407 0.42928
 N2233 N 0.27146 0.28839 0.44086
 C2234 C 0.27904 0.27927 0.44902
 N2235 N 0.29252 0.27603 0.44508
 N2236 N 0.29818 0.28165 0.43348
 C2237 C 0.29758 0.79724 -0.08767
 N2238 N 0.30792 0.79033 -0.09490
 N2239 N 0.31383 0.79619 -0.10627
 C2240 C 0.30957 0.80915 -0.11087
 N2241 N 0.29920 0.81604 -0.10367
 N2242 N 0.29334 0.81021 -0.09226
 C2243 C 0.29116 0.79086 -0.07504
 N2244 N 0.28193 0.79840 -0.06701
 N2245 N 0.27622 0.79271 -0.05546
 C2246 C 0.27946 0.77924 -0.05150
 N2247 N 0.28865 0.77169 -0.05961
 N2248 N 0.29441 0.77740 -0.07114
 C2249 C 0.79724 0.29699 -0.08728
 N2250 N 0.80796 0.29036 -0.09422
 N2251 N 0.81377 0.29621 -0.10564
 C2252 C 0.80902 0.30888 -0.11058
 N2253 N 0.79828 0.31548 -0.10366
 N2254 N 0.79252 0.30966 -0.09220
 C2255 C 0.79089 0.29064 -0.07461
 N2256 N 0.78132 0.29802 -0.06684
 N2257 N 0.77564 0.29236 -0.05527
 C2258 C 0.77925 0.27907 -0.05103
 N2259 N 0.78879 0.27167 -0.05887
 N2260 N 0.79452 0.27735 -0.07043
 C2261 C 0.79735 0.79730 0.41296
 N2262 N 0.80788 0.79052 0.40588
 N2263 N 0.81382 0.79644 0.39455
 C2264 C 0.80941 0.80931 0.38986
 N2265 N 0.79886 0.81607 0.39692
 N2266 N 0.79297 0.81019 0.40829
 C2267 C 0.79087 0.79087 0.42554
 N2268 N 0.78146 0.79832 0.43344
 N2269 N 0.77571 0.79260 0.44495
 C2270 C 0.77908 0.77919 0.44900
 N2271 N 0.78846 0.77173 0.44102
 N2272 N 0.79426 0.77747 0.42953
 C2273 C 0.70354 0.29574 0.58761
 N2274 N 0.70807 0.30854 0.59236
 N2275 N 0.70241 0.31430 0.60390
 C2276 C 0.69197 0.30750 0.61107
 N2277 N 0.68743 0.29471 0.60632
 N2278 N 0.69313 0.28892 0.59481
 C2279 C 0.70978 0.28945 0.57486
 N2280 N 0.70631 0.27609 0.57082
 N2281 N 0.71197 0.27043 0.55922
 C2282 C 0.72127 0.27793 0.55119
 N2283 N 0.72470 0.29130 0.55528
 N2284 N 0.71910 0.29694 0.56689
 C2285 C 0.70391 0.79687 1.08694
 N2286 N 0.69120 0.79222 1.09182
 N2287 N 0.68535 0.79801 1.10325
 C2288 C 0.69197 0.80872 1.11017
 N2289 N 0.70467 0.81340 1.10529
 N2290 N 0.71055 0.80755 1.09389
 C2291 C 0.71028 0.79048 1.07430
 N2292 N 0.72360 0.79402 1.07015
 N2293 N 0.72929 0.78823 1.05863
 C2294 C 0.72186 0.77874 1.05078
 N2295 N 0.70854 0.77523 1.05497
 N2296 N 0.70287 0.78095 1.06652
 C2297 C 0.20393 0.29641 1.08773
 N2298 N 0.19112 0.29194 1.09250
 N2299 N 0.18536 0.29767 1.10401
 C2300 C 0.19218 0.30813 1.11112
 N2301 N 0.20499 0.31262 1.10633
 N2302 N 0.21077 0.30684 1.09486
 C2303 C 0.21021 0.29010 1.07501
 N2304 N 0.22357 0.29353 1.07092
 N2305 N 0.22921 0.28782 1.05934
 C2306 C 0.22167 0.27852 1.05136
 N2307 N 0.20830 0.27513 1.05549
 N2308 N 0.20269 0.28078 1.06710
 C2309 C 0.20390 0.79726 0.58672
 N2310 N 0.19119 0.79261 0.59161
 N2311 N 0.18535 0.79841 0.60304
 C2312 C 0.19197 0.80912 0.60996
 N2313 N 0.20467 0.81380 0.60506
 N2314 N 0.21054 0.80795 0.59366
 C2315 C 0.21026 0.79085 0.57409
 N2316 N 0.22359 0.79437 0.56994
 N2317 N 0.22929 0.78855 0.55844
 C2318 C 0.22186 0.77904 0.55060
 N2319 N 0.20853 0.77556 0.55479
 N2320 N 0.20286 0.78131 0.56632
 C2321 C 0.29635 0.70270 0.58722
 N2322 N 0.30948 0.70664 0.59160
 N2323 N 0.31515 0.70101 0.60320
 C2324 C 0.30794 0.69118 0.61081
 N2325 N 0.29483 0.68721 0.60642
 N2326 N 0.28913 0.69288 0.59484
 C2327 C 0.29013 0.70897 0.57444
 N2328 N 0.27659 0.70595 0.57060
 N2329 N 0.27099 0.71166 0.55899
 C2330 C 0.27873 0.72057 0.55074
 N2331 N 0.29227 0.72355 0.55462
 N2332 N 0.29785 0.71789 0.56625
 C2333 C 0.29708 0.20191 1.08712
 N2334 N 0.28983 0.19216 1.09480
 N2335 N 0.29565 0.18630 1.10623
 C2336 C 0.30891 0.19001 1.11040
 N2337 N 0.31615 0.19977 1.10273
 N2338 N 0.31035 0.20559 1.09128
 C2339 C 0.29069 0.20838 1.07451
 N2340 N 0.29837 0.21728 1.06625
 N2341 N 0.29265 0.22309 1.05477
 C2342 C 0.27900 0.22029 1.05111
 N2343 N 0.27132 0.21141 1.05943
 N2344 N 0.27705 0.20556 1.07090
 C2345 C 0.79675 0.70212 1.08692
 N2346 N 0.78940 0.69252 1.09470
 N2347 N 0.79516 0.68673 1.10619
 C2348 C 0.80846 0.69034 1.11032
 N2349 N 0.81580 0.69994 1.10255
 N2350 N 0.81007 0.70570 1.09104
 C2351 C 0.79045 0.70852 1.07425
 N2352 N 0.79822 0.71731 1.06595
 N2353 N 0.79257 0.72307 1.05441
 C2354 C 0.77892 0.72033 1.05072
 N2355 N 0.77115 0.71157 1.05908
 N2356 N 0.77681 0.70576 1.07061
 C2357 C 0.79759 0.20240 0.58735
 N2358 N 0.80689 0.20986 0.59536
 N2359 N 0.81281 0.20401 0.60674
 C2360 C 0.80961 0.19050 0.61054
 N2361 N 0.80030 0.18305 0.60253
 N2362 N 0.79441 0.18888 0.59113
 C2363 C 0.79112 0.20879 0.57474
 N2364 N 0.78253 0.20100 0.56627
 N2365 N 0.77676 0.20671 0.55476
 C2366 C 0.77931 0.22045 0.55126
 N2367 N 0.78788 0.22824 0.55978
 N2368 N 0.79369 0.22252 0.57129
 C2369 C 0.70324 0.70424 0.41277
 N2370 N 0.70772 0.69142 0.40801
 N2371 N 0.70203 0.68569 0.39648
 C2372 C 0.69160 0.69254 0.38933
 N2373 N 0.68710 0.70535 0.39410
 N2374 N 0.69283 0.71111 0.40560
 C2375 C 0.70953 0.71050 0.42550
 N2376 N 0.70610 0.72387 0.42956
 N2377 N 0.71181 0.72951 0.44113
 C2378 C 0.72111 0.72197 0.44913
 N2379 N 0.72451 0.70859 0.44503
 N2380 N 0.71886 0.70298 0.43343
 C2381 C 0.70352 0.20355 -0.08715
 N2382 N 0.70774 0.19054 -0.09164
 N2383 N 0.70194 0.18469 -0.10306
 C2384 C 0.69166 0.19161 -0.11037
 N2385 N 0.68743 0.20461 -0.10587
 N2386 N 0.69327 0.21048 -0.09448
 C2387 C 0.70989 0.20994 -0.07452
 N2388 N 0.70663 0.22342 -0.07068
 N2389 N 0.71235 0.22916 -0.05916
 C2390 C 0.72151 0.22163 -0.05099
 N2391 N 0.72474 0.20814 -0.05487
 N2392 N 0.71907 0.20242 -0.06642
 C2393 C 0.20298 0.70419 -0.08737
 N2394 N 0.20685 0.69101 -0.09165
 N2395 N 0.20114 0.68527 -0.10316
 C2396 C 0.19131 0.69248 -0.11079
 N2397 N 0.18740 0.70565 -0.10650
 N2398 N 0.19315 0.71141 -0.09500
 C2399 C 0.20936 0.71049 -0.07469
 N2400 N 0.20642 0.72407 -0.07095
 N2401 N 0.21224 0.72973 -0.05943
 C2402 C 0.22118 0.72201 -0.05119
 N2403 N 0.22408 0.70843 -0.05498
 N2404 N 0.21831 0.70279 -0.06651
 C2405 C 0.20413 0.20360 0.41270
 N2406 N 0.19132 0.20811 0.40794
 N2407 N 0.18556 0.20241 0.39642
 C2408 C 0.19237 0.19195 0.38929
 N2409 N 0.20517 0.18742 0.39407
 N2410 N 0.21097 0.19316 0.40555
 C2411 C 0.21041 0.20987 0.42543
 N2412 N 0.22378 0.20643 0.42951
 N2413 N 0.22942 0.21212 0.44109
 C2414 C 0.22189 0.22144 0.44908
 N2415 N 0.20851 0.22485 0.44496
 N2416 N 0.20289 0.21921 0.43335
 C2417 C 0.29677 0.41279 0.70361
 N2418 N 0.29245 0.40825 0.69071
 N2419 N 0.29828 0.39682 0.68483
 C2420 C 0.30868 0.38955 0.69161
 N2421 N 0.31302 0.39410 0.70450
 N2422 N 0.30715 0.40551 0.71041
 C2423 C 0.29035 0.42543 0.71003
 N2424 N 0.29367 0.42933 0.72342
 N2425 N 0.28788 0.44086 0.72917
 C2426 C 0.27859 0.44896 0.72173
 N2427 N 0.27529 0.44502 0.70833
 N2428 N 0.28103 0.43347 0.70260
 C2429 C 0.29688 0.91309 0.20293
 N2430 N 0.30963 0.90810 0.20739
 N2431 N 0.31533 0.89662 0.20149
 C2432 C 0.30852 0.88974 0.19089
 N2433 N 0.29580 0.89475 0.18640
 N2434 N 0.29008 0.90622 0.19232
 C2435 C 0.29055 0.92568 0.20953
 N2436 N 0.27751 0.93030 0.20555
 N2437 N 0.27177 0.94171 0.21156
 C2438 C 0.27884 0.94895 0.22177
 N2439 N 0.29189 0.94429 0.22572
 N2440 N 0.29762 0.93286 0.21974
 C2441 C 0.79660 0.41258 0.20422
 N2442 N 0.79204 0.40785 0.19147
 N2443 N 0.79773 0.39632 0.18566
 C2444 C 0.80823 0.38913 0.19236
 N2445 N 0.81283 0.39387 0.20509
 N2446 N 0.80709 0.40537 0.21094
 C2447 C 0.79029 0.42531 0.21056
 N2448 N 0.79374 0.42934 0.22388
 N2449 N 0.78798 0.44092 0.22957
 C2450 C 0.77861 0.44893 0.22214
 N2451 N 0.77520 0.44486 0.20881
 N2452 N 0.78090 0.43327 0.20314
 C2453 C 0.79593 0.91283 0.70375
 N2454 N 0.78905 0.90570 0.69336
 N2455 N 0.79484 0.89422 0.68753
 C2456 C 0.80768 0.88942 0.69192
 N2457 N 0.81454 0.89653 0.70233
 N2458 N 0.80878 0.90805 0.70812
 C2459 C 0.78963 0.92556 0.71011
 N2460 N 0.79715 0.93348 0.71942
 N2461 N 0.79151 0.94510 0.72510
 C2462 C 0.77811 0.94922 0.72177
 N2463 N 0.77058 0.94123 0.71249
 N2464 N 0.77624 0.92964 0.70675
 C2465 C 0.70264 0.58718 0.70328
 N2466 N 0.70757 0.59225 0.69079
 N2467 N 0.70189 0.60380 0.68499
 C2468 C 0.69101 0.61066 0.69142
 N2469 N 0.68603 0.60556 0.70389
 N2470 N 0.69177 0.59405 0.70973
 C2471 C 0.70899 0.57446 0.70963
 N2472 N 0.70532 0.57023 0.72284
 N2473 N 0.71112 0.55868 0.72855
 C2474 C 0.72076 0.55087 0.72124
 N2475 N 0.72439 0.55514 0.70802
 N2476 N 0.71866 0.56672 0.70234
 C2477 C 0.70314 0.08705 0.20293
 N2478 N 0.69010 0.09159 0.20703
 N2479 N 0.68428 0.10304 0.20115
 C2480 C 0.69127 0.11032 0.19093
 N2481 N 0.70429 0.10577 0.18682
 N2482 N 0.71013 0.09435 0.19273
 C2483 C 0.70952 0.07439 0.20936
 N2484 N 0.72302 0.07053 0.20618
 N2485 N 0.72877 0.05898 0.21194
 C2486 C 0.72122 0.05081 0.22106
 N2487 N 0.70771 0.05471 0.22422
 N2488 N 0.70198 0.06628 0.21851
 C2489 C 0.20243 0.58744 0.20289
 N2490 N 0.19179 0.59455 0.20948
 N2491 N 0.18600 0.60599 0.20354
 C2492 C 0.19068 0.61075 0.19084
 N2493 N 0.20133 0.60366 0.18427
 N2494 N 0.20707 0.59219 0.19017
 C2495 C 0.20880 0.57479 0.20932
 N2496 N 0.21832 0.56690 0.20198
 N2497 N 0.22407 0.55536 0.20771
 C2498 C 0.22060 0.55127 0.22103
 N2499 N 0.21111 0.55922 0.22839
 N2500 N 0.20530 0.57075 0.22263
 C2501 C 0.20295 0.08699 0.70264
 N2502 N 0.20973 0.09407 0.69214
 N2503 N 0.20378 0.10538 0.68612
 C2504 C 0.19085 0.11004 0.69041
 N2505 N 0.18409 0.10298 0.70093
 N2506 N 0.19001 0.09164 0.70691
 C2507 C 0.20945 0.07444 0.70919
 N2508 N 0.20204 0.06648 0.71857
 N2509 N 0.20784 0.05499 0.72437
 C2510 C 0.22130 0.05102 0.72108
 N2511 N 0.22873 0.05906 0.71174
 N2512 N 0.22291 0.07053 0.70589
 C2513 C 0.29598 0.58840 0.29598
 N2514 N 0.29218 0.59252 0.30919
 N2515 N 0.29790 0.60401 0.31503
 C2516 C 0.30767 0.61178 0.30791
 N2517 N 0.31147 0.60767 0.29470
 N2518 N 0.30571 0.59620 0.28883
 C2519 C 0.28979 0.57560 0.28966
 N2520 N 0.29282 0.57192 0.27613
 N2521 N 0.28728 0.56022 0.27049
 C2522 C 0.27856 0.55173 0.27816
 N2523 N 0.27556 0.55546 0.29170
 N2524 N 0.28105 0.56717 0.29732
 C2525 C 0.29668 0.08726 0.79708
 N2526 N 0.30942 0.09216 0.79255
 N2527 N 0.31521 0.10363 0.79838
 C2528 C 0.30849 0.11057 0.80901
 N2529 N 0.29575 0.10566 0.81356
 N2530 N 0.28994 0.09422 0.80768
 C2531 C 0.29037 0.07457 0.79068
 N2532 N 0.27705 0.07038 0.79419
 N2533 N 0.27140 0.05881 0.78843
 C2534 C 0.27886 0.05095 0.77897
 N2535 N 0.29219 0.05518 0.77549
 N2536 N 0.29781 0.06677 0.78120
 C2537 C 0.79741 0.58716 0.79643
 N2538 N 0.79313 0.59169 0.80936
 N2539 N 0.79894 0.60313 0.81521
 C2540 C 0.80928 0.61043 0.80840
 N2541 N 0.81359 0.60589 0.79549
 N2542 N 0.80774 0.59448 0.78960
 C2543 C 0.79101 0.57451 0.79004
 N2544 N 0.79427 0.57062 0.77663
 N2545 N 0.78848 0.55909 0.77091
 C2546 C 0.77926 0.55096 0.77840
 N2547 N 0.77602 0.55489 0.79182
 N2548 N 0.78175 0.56645 0.79752
 C2549 C 0.79638 0.08739 0.29640
 N2550 N 0.80921 0.09219 0.29199
 N2551 N 0.81490 0.10378 0.29768
 C2552 C 0.80800 0.11094 0.30804
 N2553 N 0.79519 0.10613 0.31247
 N2554 N 0.78947 0.09458 0.30673
 C2555 C 0.79015 0.07459 0.29015
 N2556 N 0.77679 0.07049 0.29358
 N2557 N 0.77117 0.05885 0.28793
 C2558 C 0.77872 0.05082 0.27868
 N2559 N 0.79210 0.05495 0.27529
 N2560 N 0.79769 0.06662 0.28089
 C2561 C 0.70212 0.41250 0.29697
 N2562 N 0.69141 0.40549 0.29041
 N2563 N 0.68563 0.39404 0.29631
 C2564 C 0.69038 0.38916 0.30894
 N2565 N 0.70110 0.39615 0.31548
 N2566 N 0.70684 0.40763 0.30962
 C2567 C 0.70847 0.42520 0.29060
 N2568 N 0.71804 0.43299 0.29795
 N2569 N 0.72374 0.44459 0.29229
 C2570 C 0.72017 0.44882 0.27905
 N2571 N 0.71063 0.44095 0.27168
 N2572 N 0.70487 0.42938 0.27736
 C2573 C 0.70273 0.91273 0.79744
 N2574 N 0.68979 0.90811 0.79317
 N2575 N 0.68392 0.89668 0.79902
 C2576 C 0.69076 0.88950 0.80942
 N2577 N 0.70369 0.89412 0.81372
 N2578 N 0.70958 0.90552 0.80782
 C2579 C 0.70913 0.92540 0.79105
 N2580 N 0.72255 0.92937 0.79441
 N2581 N 0.72827 0.94095 0.78869
 C2582 C 0.72077 0.94904 0.77945
 N2583 N 0.70735 0.94502 0.77611
 N2584 N 0.70165 0.93342 0.78176
 C2585 C 0.20238 0.41260 0.79723
 N2586 N 0.20675 0.40805 0.81012
 N2587 N 0.20087 0.39669 0.81609
 C2588 C 0.19037 0.38950 0.80942
 N2589 N 0.18598 0.39405 0.79653
 N2590 N 0.19189 0.40539 0.79053
 C2591 C 0.20882 0.42521 0.79076
 N2592 N 0.20543 0.42917 0.77739
 N2593 N 0.21121 0.44070 0.77164
 C2594 C 0.22054 0.44877 0.77905
 N2595 N 0.22390 0.44475 0.79242
 N2596 N 0.21819 0.43320 0.79815
 C2597 C 0.20228 0.91242 0.29690
 N2598 N 0.19031 0.90662 0.29141
 N2599 N 0.18444 0.89526 0.29738
 C2600 C 0.19030 0.88929 0.30905
 N2601 N 0.20227 0.89509 0.31452
 N2602 N 0.20815 0.90645 0.30856
 C2603 C 0.20870 0.92501 0.29039
 N2604 N 0.22070 0.93077 0.29584
 N2605 N 0.22643 0.94229 0.29004
 C2606 C 0.22041 0.94851 0.27856
 N2607 N 0.20842 0.94269 0.27312
 N2608 N 0.20268 0.93117 0.27891
 C2609 C 0.41224 0.29710 0.70413
 N2610 N 0.40509 0.30762 0.71084
 N2611 N 0.39356 0.31336 0.70503
 C2612 C 0.38874 0.30873 0.69234
 N2613 N 0.39587 0.29819 0.68565
 N2614 N 0.40743 0.29250 0.69143
 C2615 C 0.42501 0.29081 0.71041
 N2616 N 0.43292 0.28140 0.70298
 N2617 N 0.44457 0.27574 0.70858
 C2618 C 0.44874 0.27920 0.72187
 N2619 N 0.44076 0.28859 0.72932
 N2620 N 0.42913 0.29431 0.72369
 C2621 C 0.41266 0.79779 0.20288
 N2622 N 0.40828 0.79370 0.18985
 N2623 N 0.39691 0.79960 0.18392
 C2624 C 0.38953 0.80987 0.19078
 N2625 N 0.39392 0.81398 0.20380
 N2626 N 0.40527 0.80804 0.20975
 C2627 C 0.42525 0.79130 0.20934
 N2628 N 0.42906 0.79449 0.22279
 N2629 N 0.44057 0.78865 0.22856
 C2630 C 0.44874 0.77946 0.22108
 N2631 N 0.44487 0.77629 0.20763
 N2632 N 0.43334 0.78206 0.20188
 C2633 C 0.91243 0.29728 0.20357
 N2634 N 0.90789 0.29299 0.19066
 N2635 N 0.89642 0.29878 0.18480
 C2636 C 0.88911 0.30912 0.19161
 N2637 N 0.89366 0.31344 0.20451
 N2638 N 0.90510 0.30760 0.21040
 C2639 C 0.92511 0.29089 0.20995
 N2640 N 0.92901 0.29417 0.22336
 N2641 N 0.94058 0.28840 0.22907
 C2642 C 0.94872 0.27918 0.22159
 N2643 N 0.94477 0.27594 0.20818
 N2644 N 0.93319 0.28165 0.20248
 C2645 C 0.91285 0.79840 0.70294
 N2646 N 0.90825 0.79404 0.69008
 N2647 N 0.89688 0.79994 0.68414
 C2648 C 0.88973 0.81047 0.69083
 N2649 N 0.89433 0.81486 0.70368
 N2650 N 0.90568 0.80892 0.70965
 C2651 C 0.92544 0.79189 0.70940
 N2652 N 0.92937 0.79521 0.72279
 N2653 N 0.94086 0.78933 0.72855
 C2654 C 0.94889 0.77997 0.72112
 N2655 N 0.94490 0.77667 0.70774
 N2656 N 0.93339 0.78249 0.70200
 C2657 C 0.58734 0.29626 0.29735
 N2658 N 0.59424 0.28958 0.30804
 N2659 N 0.60564 0.29543 0.31396
 C2660 C 0.61057 0.30815 0.30938
 N2661 N 0.60369 0.31481 0.29868
 N2662 N 0.59226 0.30899 0.29279
 C2663 C 0.57471 0.28989 0.29087
 N2664 N 0.56694 0.29728 0.28131
 N2665 N 0.55540 0.29159 0.27553
 C2666 C 0.55120 0.27826 0.27902
 N2667 N 0.55905 0.27086 0.28854
 N2668 N 0.57056 0.27657 0.29438
 C2669 C 0.58737 0.79705 0.79614
 N2670 N 0.59432 0.79022 0.80670
 N2671 N 0.60576 0.79596 0.81264
 C2672 C 0.61070 0.80873 0.80821
 N2673 N 0.60378 0.81555 0.79763
 N2674 N 0.59231 0.80983 0.79171
 C2675 C 0.57470 0.79076 0.78966
 N2676 N 0.56734 0.79789 0.77959
 N2677 N 0.55578 0.79223 0.77380
 C2678 C 0.55113 0.77920 0.77783
 N2679 N 0.55854 0.77208 0.78790
 N2680 N 0.57009 0.77775 0.79371
 C2681 C 0.08730 0.29654 0.79763
 N2682 N 0.09165 0.30970 0.79377
 N2683 N 0.10319 0.31543 0.79953
 C2684 C 0.11075 0.30824 0.80941
 N2685 N 0.10637 0.29510 0.81330
 N2686 N 0.09486 0.28934 0.80751
 C2687 C 0.07461 0.29023 0.79123
 N2688 N 0.07082 0.27667 0.79421
 N2689 N 0.05929 0.27098 0.78838
 C2690 C 0.05107 0.27864 0.77938
 N2691 N 0.05490 0.29221 0.77643
 N2692 N 0.06645 0.29788 0.78221
 C2693 C 0.08744 0.79621 0.29618
 N2694 N 0.09210 0.80915 0.29195
 N2695 N 0.10361 0.81490 0.29774
 C2696 C 0.11085 0.80794 0.30802
 N2697 N 0.10618 0.79501 0.31227
 N2698 N 0.09470 0.78923 0.30644
 C2699 C 0.07471 0.78992 0.28984
 N2700 N 0.07071 0.77650 0.29317
 N2701 N 0.05911 0.77083 0.28746
 C2702 C 0.05102 0.77838 0.27826
 N2703 N 0.05506 0.79181 0.27496
 N2704 N 0.06668 0.79746 0.28062
 C2705 C 0.58768 0.70340 0.70333
 N2706 N 0.59336 0.70903 0.69140
 N2707 N 0.60481 0.70324 0.68549
 C2708 C 0.61099 0.69161 0.69129
 N2709 N 0.60533 0.68600 0.70323
 N2710 N 0.59388 0.69178 0.70913
 C2711 C 0.57499 0.70971 0.70978
 N2712 N 0.56905 0.70382 0.72144
 N2713 N 0.55745 0.70944 0.72719
 C2714 C 0.55132 0.72120 0.72153
 N2715 N 0.55733 0.72709 0.70988
 N2716 N 0.56893 0.72147 0.70412
 C2717 C 0.58726 0.20235 0.20262
 N2718 N 0.59427 0.20913 0.19208
 N2719 N 0.60557 0.20320 0.18602
 C2720 C 0.61029 0.19030 0.19032
 N2721 N 0.60330 0.18353 0.20088
 N2722 N 0.59197 0.18943 0.20690
 C2723 C 0.57471 0.20880 0.20920
 N2724 N 0.56683 0.20139 0.21864
 N2725 N 0.55533 0.20715 0.22447
 C2726 C 0.55129 0.22058 0.22114
 N2727 N 0.55925 0.22801 0.21174
 N2728 N 0.57072 0.22223 0.20586
 C2729 C 0.08727 0.70334 0.20209
 N2730 N 0.09409 0.71000 0.19135
 N2731 N 0.10554 0.70420 0.18546
 C2732 C 0.11061 0.69156 0.19013
 N2733 N 0.10380 0.68492 0.20089
 N2734 N 0.09232 0.69068 0.20674
 C2735 C 0.07459 0.70964 0.20855
 N2736 N 0.06690 0.70225 0.21816
 N2737 N 0.05532 0.70788 0.22393
 C2738 C 0.05100 0.72116 0.22038
 N2739 N 0.05875 0.72857 0.21080
 N2740 N 0.07031 0.72291 0.20497
 C2741 C 0.08742 0.20272 0.70326
 N2742 N 0.09470 0.20972 0.69304
 N2743 N 0.10611 0.20389 0.68711
 C2744 C 0.11070 0.19088 0.69123
 N2745 N 0.10345 0.18390 0.70147
 N2746 N 0.09200 0.18970 0.70736
 C2747 C 0.07477 0.20911 0.70970
 N2748 N 0.06669 0.20158 0.71889
 N2749 N 0.05513 0.20732 0.72461
 C2750 C 0.05123 0.22083 0.72144
 N2751 N 0.05938 0.22836 0.71229
 N2752 N 0.07091 0.22260 0.70651
 C2753 C 0.41277 0.70276 0.29654
 N2754 N 0.40621 0.69160 0.29028
 N2755 N 0.39474 0.68579 0.29613
 C2756 C 0.38938 0.69097 0.30839
 N2757 N 0.39593 0.70214 0.31463
 N2758 N 0.40744 0.70789 0.30884
 C2759 C 0.42541 0.70918 0.29016
 N2760 N 0.43295 0.71909 0.29731
 N2761 N 0.44448 0.72489 0.29159
 C2762 C 0.44888 0.72108 0.27847
 N2763 N 0.44127 0.71119 0.27130
 N2764 N 0.42978 0.70533 0.27705
 C2765 C 0.41254 0.20251 0.79650
 N2766 N 0.40561 0.19173 0.78998
 N2767 N 0.39418 0.18589 0.79589
 C2768 C 0.38925 0.19066 0.80849
 N2769 N 0.39616 0.20146 0.81498
 N2770 N 0.40761 0.20725 0.80911
 C2771 C 0.42521 0.20891 0.79013
 N2772 N 0.43297 0.21851 0.79746
 N2773 N 0.44454 0.22426 0.79180
 C2774 C 0.44878 0.22071 0.77856
 N2775 N 0.44095 0.21113 0.77121
 N2776 N 0.42940 0.20532 0.77689
 C2777 C 0.91256 0.70317 0.79590
 N2778 N 0.90544 0.69266 0.78916
 N2779 N 0.89395 0.68687 0.79498
 C2780 C 0.88914 0.69142 0.80771
 N2781 N 0.89625 0.70195 0.81442
 N2782 N 0.90777 0.70769 0.80864
 C2783 C 0.92528 0.70953 0.78960
 N2784 N 0.93317 0.71895 0.79704
 N2785 N 0.94476 0.72469 0.79142
 C2786 C 0.94890 0.72130 0.77810
 N2787 N 0.94096 0.71190 0.77064
 N2788 N 0.92939 0.70611 0.77629
 C2789 C 0.91282 0.20220 0.29687
 N2790 N 0.90819 0.20657 0.30973
 N2791 N 0.89683 0.20065 0.31566
 C2792 C 0.88972 0.19010 0.30898
 N2793 N 0.89435 0.18571 0.29613
 N2794 N 0.90569 0.19167 0.29017
 C2795 C 0.92540 0.20873 0.29043
 N2796 N 0.92936 0.20543 0.27704
 N2797 N 0.94085 0.21132 0.27131
 C2798 C 0.94884 0.22069 0.27875
 N2799 N 0.94483 0.22396 0.29213
 N2800 N 0.93332 0.21813 0.29785
 C2801 C 0.29743 0.29739 0.58732
 N2802 N 0.29300 0.31026 0.59198
 N2803 N 0.29887 0.31616 0.60334
 C2804 C 0.30944 0.30944 0.61041
 N2805 N 0.31390 0.29658 0.60574
 N2806 N 0.30798 0.29065 0.59441
 C2807 C 0.29099 0.29095 0.57476
 N2808 N 0.29442 0.27755 0.57078
 N2809 N 0.28863 0.27180 0.55930
 C2810 C 0.27923 0.27924 0.55132
 N2811 N 0.27582 0.29263 0.55534
 N2812 N 0.28155 0.29837 0.56685
 C2813 C 0.29710 0.79808 0.08689
 N2814 N 0.31041 0.79449 0.09104
 N2815 N 0.31612 0.80026 0.10254
 C2816 C 0.30876 0.80987 0.11028
 N2817 N 0.29546 0.81350 0.10612
 N2818 N 0.28973 0.80769 0.09464
 C2819 C 0.29081 0.79166 0.07422
 N2820 N 0.27716 0.79444 0.07057
 N2821 N 0.27150 0.78861 0.05906
 C2822 C 0.27928 0.77981 0.05073
 N2823 N 0.29293 0.77706 0.05443
 N2824 N 0.29858 0.78284 0.06596
 C2825 C 0.79698 0.29784 0.08724
 N2826 N 0.79022 0.30839 0.09429
 N2827 N 0.79613 0.31432 0.10562
 C2828 C 0.80899 0.30988 0.11033
 N2829 N 0.81573 0.29931 0.10329
 N2830 N 0.80985 0.29342 0.09193
 C2831 C 0.79056 0.29136 0.07467
 N2832 N 0.79802 0.28194 0.06678
 N2833 N 0.79232 0.27618 0.05528
 C2834 C 0.77890 0.27955 0.05123
 N2835 N 0.77143 0.28893 0.05918
 N2836 N 0.77716 0.29475 0.07066
 C2837 C 0.79676 0.79759 0.58744
 N2838 N 0.78975 0.80780 0.59474
 N2839 N 0.79557 0.81366 0.60615
 C2840 C 0.80857 0.80949 0.61070
 N2841 N 0.81556 0.79925 0.60342
 N2842 N 0.80977 0.79343 0.59198
 C2843 C 0.79043 0.79120 0.57479
 N2844 N 0.79803 0.78204 0.56673
 N2845 N 0.79237 0.77634 0.55517
 C2846 C 0.77887 0.77952 0.55124
 N2847 N 0.77127 0.78865 0.55936
 N2848 N 0.77695 0.79440 0.57089
 C2849 C 0.29747 0.70273 0.41234
 N2850 N 0.30678 0.71017 0.40429
 N2851 N 0.31269 0.70429 0.39293
 C2852 C 0.30950 0.69077 0.38919
 N2853 N 0.30018 0.68334 0.39723
 N2854 N 0.29430 0.68920 0.40860
 C2855 C 0.29102 0.70914 0.42494
 N2856 N 0.28245 0.70137 0.43345
 N2857 N 0.27671 0.70710 0.44496
 C2858 C 0.27927 0.72084 0.44842
 N2859 N 0.28781 0.72862 0.43984
 N2860 N 0.29359 0.72288 0.42834
 C2861 C 0.29723 0.20310 0.91282
 N2862 N 0.29254 0.19043 0.90791
 N2863 N 0.29832 0.18462 0.89646
 C2864 C 0.30905 0.19123 0.88955
 N2865 N 0.31377 0.20388 0.89448
 N2866 N 0.30795 0.20973 0.90590
 C2867 C 0.29085 0.20945 0.92547
 N2868 N 0.29445 0.22273 0.92965
 N2869 N 0.28868 0.22841 0.94118
 C2870 C 0.27914 0.22101 0.94901
 N2871 N 0.27557 0.20772 0.94480
 N2872 N 0.28128 0.20206 0.93324
 C2873 C 0.79770 0.70259 0.91265
 N2874 N 0.80827 0.70932 0.90559
 N2875 N 0.81421 0.70340 0.89428
 C2876 C 0.80978 0.69054 0.88958
 N2877 N 0.79919 0.68383 0.89662
 N2878 N 0.79329 0.68973 0.90797
 C2879 C 0.79121 0.70903 0.92521
 N2880 N 0.78176 0.70162 0.93310
 N2881 N 0.77599 0.70736 0.94458
 C2882 C 0.77937 0.72076 0.94861
 N2883 N 0.78878 0.72819 0.94066
 N2884 N 0.79462 0.72243 0.92919
 C2885 C 0.79693 0.20249 0.41270
 N2886 N 0.78996 0.19228 0.40538
 N2887 N 0.79580 0.18645 0.39396
 C2888 C 0.80879 0.19066 0.38941
 N2889 N 0.81574 0.20090 0.39671
 N2890 N 0.80993 0.20668 0.40816
 C2891 C 0.79058 0.20885 0.42536
 N2892 N 0.79814 0.21800 0.43344
 N2893 N 0.79246 0.22365 0.44501
 C2894 C 0.77899 0.22044 0.44896
 N2895 N 0.77142 0.21131 0.44081
 N2896 N 0.77711 0.20561 0.42926
 C2897 C 0.70375 0.29657 0.41281
 N2898 N 0.69106 0.29187 0.40792
 N2899 N 0.68520 0.29768 0.39650
 C2900 C 0.69177 0.30844 0.38959
 N2901 N 0.70444 0.31316 0.39449
 N2902 N 0.71035 0.30731 0.40588
 C2903 C 0.71014 0.29017 0.42545
 N2904 N 0.72344 0.29375 0.42961
 N2905 N 0.72915 0.28797 0.44113
 C2906 C 0.72175 0.27842 0.44897
 N2907 N 0.70844 0.27487 0.44477
 N2908 N 0.70276 0.28060 0.43322
 C2909 C 0.70307 0.79596 0.91228
 N2910 N 0.69264 0.78911 0.90513
 N2911 N 0.68686 0.79489 0.89365
 C2912 C 0.69135 0.80770 0.88886
 N2913 N 0.70180 0.81453 0.89599
 N2914 N 0.70753 0.80877 0.90750
 C2915 C 0.70941 0.78966 0.92498
 N2916 N 0.71876 0.79718 0.93288
 N2917 N 0.72447 0.79155 0.94446
 C2918 C 0.72112 0.77816 0.94858
 N2919 N 0.71180 0.77063 0.94061
 N2920 N 0.70603 0.77628 0.92906
 C2921 C 0.20256 0.29662 0.91324
 N2922 N 0.19294 0.28933 0.90543
 N2923 N 0.18713 0.29517 0.89399
 C2924 C 0.19074 0.30849 0.88993
 N2925 N 0.20035 0.31578 0.89774
 N2926 N 0.20613 0.30996 0.90919
 C2927 C 0.20899 0.29022 0.92585
 N2928 N 0.21781 0.29791 0.93417
 N2929 N 0.22360 0.29216 0.94565
 C2930 C 0.22086 0.27849 0.94926
 N2931 N 0.21206 0.27080 0.94088
 N2932 N 0.20622 0.27655 0.92941
 C2933 C 0.20291 0.79618 0.41232
 N2934 N 0.19257 0.78926 0.40512
 N2935 N 0.18674 0.79507 0.39367
 C2936 C 0.19107 0.80797 0.38900
 N2937 N 0.20142 0.81487 0.39619
 N2938 N 0.20721 0.80909 0.40766
 C2939 C 0.20931 0.78986 0.42499
 N2940 N 0.21860 0.79740 0.43293
 N2941 N 0.22434 0.79176 0.44448
 C2942 C 0.22107 0.77833 0.44853
 N2943 N 0.21181 0.77078 0.44052
 N2944 N 0.20602 0.77644 0.42899
 C2945 C 0.70332 0.70237 0.58694
 N2946 N 0.69024 0.70643 0.59135
 N2947 N 0.68438 0.70059 0.60275
 C2948 C 0.69137 0.69042 0.61013
 N2949 N 0.70444 0.68631 0.60571
 N2950 N 0.71033 0.69220 0.59433
 C2951 C 0.70975 0.70889 0.57439
 N2952 N 0.72329 0.70581 0.57058
 N2953 N 0.72904 0.71175 0.55916
 C2954 C 0.72147 0.72096 0.55109
 N2955 N 0.70792 0.72401 0.55494
 N2956 N 0.70219 0.71812 0.56637
 C2957 C 0.70419 0.20353 0.08768
 N2958 N 0.69137 0.20801 0.09245
 N2959 N 0.68563 0.20228 0.10397
 C2960 C 0.69246 0.19182 0.11109
 N2961 N 0.70527 0.18732 0.10631
 N2962 N 0.71104 0.19309 0.09482
 C2963 C 0.71045 0.20983 0.07494
 N2964 N 0.72382 0.20639 0.07085
 N2965 N 0.72944 0.21210 0.05926
 C2966 C 0.72188 0.22140 0.05127
 N2967 N 0.70851 0.22480 0.05540
 N2968 N 0.70291 0.21915 0.06702
 C2969 C 0.20389 0.70315 0.08683
 N2970 N 0.19118 0.70782 0.09169
 N2971 N 0.18529 0.70200 0.10308
 C2972 C 0.19186 0.69124 0.10999
 N2973 N 0.20456 0.68653 0.10512
 N2974 N 0.21049 0.69240 0.09376
 C2975 C 0.21030 0.70957 0.07423
 N2976 N 0.22362 0.70600 0.07010
 N2977 N 0.22936 0.71181 0.05861
 C2978 C 0.22198 0.72138 0.05078
 N2979 N 0.20865 0.72493 0.05495
 N2980 N 0.20294 0.71917 0.06646
 C2981 C 0.20366 0.20412 0.58783
 N2982 N 0.19321 0.21094 0.59500
 N2983 N 0.18748 0.20513 0.60648
 C2984 C 0.19204 0.19233 0.61125
 N2985 N 0.20251 0.18554 0.60411
 N2986 N 0.20820 0.19132 0.59259
 C2987 C 0.20992 0.21043 0.57509
 N2988 N 0.21925 0.20293 0.56715
 N2989 N 0.22486 0.20856 0.55552
 C2990 C 0.22141 0.22193 0.55141
 N2991 N 0.21210 0.22944 0.55942
 N2992 N 0.20643 0.22378 0.57102
   
