data_POSCAR
  _audit_creation_date              2014-09-24
  _audit_creation_method            'ToBaCCo'
  _symmetry_space_group_name_H-M    'P1'
  _symmetry_Int_Tables_number       1
  _symmetry_cell_setting            triclinic
  loop_
  _symmetry_equiv_pos_as_xyz
 x,y,z
_cell_length_a 54.7931
_cell_length_b 54.7535
_cell_length_c 56.6269
_cell_angle_alpha 90.396800
_cell_angle_beta 89.419100
_cell_angle_gamma 90.033900
loop_
  _atom_site_label
  _atom_site_type_symbol
  _atom_site_fract_x
  _atom_site_fract_y
  _atom_site_fract_z
C1 C 0.42385 0.01873 0.28285
 H2 H 0.42522 0.03344 0.27025
 C3 C 0.43853 0.01892 0.30300
 H4 H 0.45109 0.03389 0.30598
 C5 C 0.40577 -0.01862 0.29463
 H6 H 0.39284 -0.03315 0.29162
 C7 C 0.42005 -0.01912 0.31491
 H8 H 0.41801 -0.03404 0.32726
 N9 N 0.40814 -0.00012 0.27880
 C10 C 0.40006 -0.00705 0.20213
 H11 H 0.38046 -0.00913 0.20115
 C12 C 0.41414 -0.00682 0.18141
 H13 H 0.40534 -0.00888 0.16447
 C14 C 0.43540 -0.00126 0.22531
 H15 H 0.44369 0.00090 0.24240
 C16 C 0.45017 -0.00091 0.20497
 H17 H 0.46970 0.00161 0.20653
 Zn18 Zn 0.38943 -0.00123 0.25039
 N19 N 0.41072 -0.00370 0.22352
 C20 C 0.37523 0.04341 0.22905
 N21 N 0.37059 0.02844 0.24773
 C22 C 0.35387 0.03497 0.26460
 C23 C 0.34085 0.05700 0.26277
 C24 C 0.36267 0.06547 0.22657
 C25 C 0.38160 -0.05177 0.24888
 C26 C 0.36915 -0.07398 0.25099
 C27 C 0.33158 -0.05153 0.25654
 C28 C 0.34480 -0.02965 0.25431
 N29 N 0.36946 -0.03013 0.25094
 H30 H 0.38902 0.03859 0.21611
 H31 H 0.35076 0.02320 0.27960
 H32 H 0.32767 0.06201 0.27633
 H33 H 0.36673 0.07713 0.21165
 H34 H 0.40117 -0.05173 0.24616
 H35 H 0.37927 -0.09095 0.24964
 H36 H 0.31202 -0.05084 0.25954
 H37 H 0.33537 -0.01238 0.25572
 C38 C 0.43939 -0.00335 0.18279
 C39 C 0.43677 -0.00034 0.31909
 C40 C 0.34390 -0.07399 0.25514
 C41 C 0.34527 0.07244 0.24352
 C42 C 0.07504 0.01638 0.71611
 H43 H 0.07349 0.03157 0.72835
 C44 C 0.06035 0.01555 0.69598
 H45 H 0.04761 0.03022 0.69264
 C46 C 0.09361 -0.02116 0.70520
 H47 H 0.10674 -0.03536 0.70853
 C48 C 0.07933 -0.02268 0.68496
 H49 H 0.08158 -0.03803 0.67295
 N50 N 0.09099 -0.00207 0.72058
 C51 C 0.09941 -0.00612 0.79728
 H52 H 0.11901 -0.00817 0.79818
 C53 C 0.08548 -0.00498 0.81805
 H54 H 0.09438 -0.00635 0.83499
 C55 C 0.06393 -0.00117 0.77418
 H56 H 0.05554 0.00037 0.75710
 C57 C 0.04930 0.00009 0.79458
 H58 H 0.02978 0.00263 0.79309
 Zn59 Zn 0.10973 -0.00176 0.74894
 N60 N 0.08861 -0.00359 0.77589
 C61 C 0.12356 0.04360 0.76953
 N62 N 0.12806 0.02822 0.75094
 C63 C 0.14459 0.03439 0.73384
 C64 C 0.15769 0.05639 0.73544
 C65 C 0.13621 0.06566 0.77178
 C66 C 0.11892 -0.05202 0.75130
 C67 C 0.13208 -0.07384 0.74933
 C68 C 0.16887 -0.05031 0.74342
 C69 C 0.15500 -0.02885 0.74550
 N70 N 0.13037 -0.03006 0.74891
 H71 H 0.10991 0.03905 0.78263
 H72 H 0.14756 0.02227 0.71892
 H73 H 0.17081 0.06109 0.72177
 H74 H 0.13235 0.07762 0.78667
 H75 H 0.09937 -0.05256 0.75406
 H76 H 0.12262 -0.09115 0.75082
 H77 H 0.18837 -0.04917 0.74031
 H78 H 0.16389 -0.01133 0.74390
 C79 C 0.06024 -0.00142 0.81674
 C80 C 0.06237 -0.00432 0.68037
 C81 C 0.15726 -0.07306 0.74504
 C82 C 0.15352 0.07217 0.75467
 C83 C 0.57548 0.51506 0.21594
 H84 H 0.57386 0.53024 0.22819
 C85 C 0.56089 0.51423 0.19574
 H86 H 0.54815 0.52888 0.19236
 C87 C 0.59417 0.47756 0.20507
 H88 H 0.60730 0.46338 0.20845
 C89 C 0.57999 0.47604 0.18477
 H90 H 0.58231 0.46070 0.17276
 N91 N 0.59144 0.49663 0.22047
 C92 C 0.59940 0.49242 0.29716
 H93 H 0.61900 0.49035 0.29814
 C94 C 0.58539 0.49355 0.31788
 H95 H 0.59421 0.49215 0.33485
 C96 C 0.56404 0.49747 0.27392
 H97 H 0.55573 0.49906 0.25681
 C98 C 0.54932 0.49872 0.29426
 H99 H 0.52981 0.50131 0.29269
 Zn100 Zn 0.60999 0.49693 0.24893
 N101 N 0.58870 0.49502 0.27574
 C102 C 0.62352 0.54227 0.26969
 N103 N 0.62825 0.52692 0.25113
 C104 C 0.64494 0.53314 0.23419
 C105 C 0.65799 0.55516 0.23595
 C106 C 0.63612 0.56434 0.27210
 C107 C 0.61918 0.44670 0.25130
 C108 C 0.63235 0.42489 0.24948
 C109 C 0.66920 0.44842 0.24393
 C110 C 0.65530 0.46988 0.24585
 N111 N 0.63064 0.46866 0.24903
 H112 H 0.60975 0.53767 0.28265
 H113 H 0.64809 0.52105 0.21929
 H114 H 0.67124 0.55990 0.22242
 H115 H 0.63208 0.57627 0.28697
 H116 H 0.59959 0.44615 0.25389
 H117 H 0.62289 0.40757 0.25090
 H118 H 0.68873 0.44958 0.24102
 H119 H 0.66420 0.48741 0.24434
 C120 C 0.56017 0.49716 0.31646
 C121 C 0.56302 0.49437 0.18012
 C122 C 0.65757 0.42567 0.24546
 C123 C 0.65360 0.57090 0.25517
 C124 C 0.92579 0.51987 0.78371
 H125 H 0.92722 0.53453 0.77106
 C126 C 0.94033 0.52018 0.80397
 H127 H 0.95284 0.53520 0.80691
 C128 C 0.90760 0.48260 0.79557
 H129 H 0.89467 0.46808 0.79256
 C130 C 0.92174 0.48219 0.81596
 H131 H 0.91954 0.46733 0.82834
 N132 N 0.91007 0.50103 0.77967
 C133 C 0.90140 0.49395 0.70302
 H134 H 0.88180 0.49171 0.70228
 C135 C 0.91521 0.49417 0.68214
 H136 H 0.90622 0.49194 0.66531
 C137 C 0.93698 0.50015 0.72576
 H138 H 0.94545 0.50251 0.74274
 C139 C 0.95150 0.50050 0.70524
 H140 H 0.97103 0.50319 0.70655
 Zn141 Zn 0.89123 0.49991 0.75131
 N142 N 0.91230 0.49748 0.72427
 C143 C 0.87678 0.54450 0.73003
 N144 N 0.87233 0.52955 0.74876
 C145 C 0.85571 0.53605 0.76574
 C146 C 0.84260 0.55802 0.76397
 C147 C 0.86412 0.56651 0.72760
 C148 C 0.88334 0.44936 0.74988
 C149 C 0.87083 0.42718 0.75198
 C150 C 0.83333 0.44969 0.75747
 C151 C 0.84658 0.47155 0.75527
 N152 N 0.87125 0.47103 0.75193
 H153 H 0.89047 0.53969 0.71700
 H154 H 0.85275 0.52429 0.78078
 H155 H 0.82949 0.56300 0.77761
 H156 H 0.86801 0.57815 0.71263
 H157 H 0.90292 0.44935 0.74718
 H158 H 0.88081 0.41014 0.75066
 H159 H 0.81379 0.45030 0.76045
 H160 H 0.83718 0.48883 0.75666
 C161 C 0.94046 0.49783 0.68319
 C162 C 0.93843 0.50102 0.82018
 C163 C 0.84561 0.42724 0.75608
 C164 C 0.84682 0.57344 0.74466
 C165 C 0.21654 0.39622 0.97995
 H166 H 0.23052 0.39681 0.96633
 C167 C 0.19480 0.40931 0.97713
 H168 H 0.19223 0.42021 0.96146
 C169 C 0.20241 0.38057 1.01652
 H170 H 0.20512 0.36887 1.03155
 C171 C 0.18039 0.39339 1.01438
 H172 H 0.16646 0.39175 1.02798
 N173 N 0.21997 0.38214 0.99938
 C174 C 0.29915 0.36803 1.00217
 H175 H 0.29867 0.34828 1.00230
 C176 C 0.32147 0.38023 1.00437
 H177 H 0.33817 0.36980 1.00592
 C178 C 0.27794 0.40568 1.00062
 H179 H 0.26089 0.41553 0.99962
 C180 C 0.29993 0.41862 1.00280
 H181 H 0.29974 0.43840 1.00314
 Zn182 Zn 0.24852 0.36195 1.00002
 N183 N 0.27794 0.38079 1.00029
 C184 C 0.26507 0.34173 0.95595
 N185 N 0.24710 0.34155 0.97272
 C186 C 0.22665 0.32771 0.96994
 C187 C 0.22368 0.31328 0.94969
 C188 C 0.26283 0.32754 0.93544
 C189 C 0.25131 0.35420 1.04883
 C190 C 0.25476 0.34101 1.06958
 C191 C 0.25421 0.30367 1.04663
 C192 C 0.25076 0.31758 1.02626
 N193 N 0.24938 0.34240 1.02770
 H194 H 0.28094 0.35320 0.95821
 H195 H 0.21248 0.32816 0.98338
 H196 H 0.20720 0.30259 0.94753
 H197 H 0.27707 0.32806 0.92204
 H198 H 0.25069 0.37394 1.04946
 H199 H 0.25646 0.35062 1.08627
 H200 H 0.25551 0.28397 1.04529
 H201 H 0.24988 0.30852 1.00928
 C202 C 0.32194 0.40577 1.00482
 C203 C 0.17641 0.40775 0.99440
 C204 C 0.25644 0.31551 1.06848
 C205 C 0.24190 0.31325 0.93221
 C206 C 0.78265 0.10285 0.97948
 H207 H 0.76925 0.10211 0.96559
 C208 C 0.80447 0.08968 0.97708
 H209 H 0.80765 0.07860 0.96142
 C210 C 0.79526 0.11893 1.01635
 H211 H 0.79193 0.13083 1.03134
 C212 C 0.81731 0.10607 1.01466
 H213 H 0.83063 0.10790 1.02859
 N214 N 0.77844 0.11717 0.99887
 C215 C 0.69908 0.13047 1.00055
 H216 H 0.69914 0.15023 1.00043
 C217 C 0.67695 0.11785 1.00280
 H218 H 0.65999 0.12794 1.00410
 C219 C 0.72112 0.09325 0.99976
 H220 H 0.73839 0.08374 0.99911
 C221 C 0.69936 0.07991 1.00199
 H222 H 0.69998 0.06015 1.00269
 Zn223 Zn 0.74988 0.13727 0.99916
 N224 N 0.72062 0.11812 0.99907
 C225 C 0.73516 0.15676 0.95466
 N226 N 0.75233 0.15738 0.97186
 C227 C 0.77295 0.17108 0.96935
 C228 C 0.77699 0.18479 0.94890
 C229 C 0.73848 0.17023 0.93393
 C230 C 0.74550 0.14481 1.04792
 C231 C 0.74248 0.15780 1.06908
 C232 C 0.74502 0.19542 1.04718
 C233 C 0.74799 0.18170 1.02636
 N234 N 0.74829 0.15682 1.02711
 H235 H 0.71916 0.14540 0.95671
 H236 H 0.78652 0.17096 0.98310
 H237 H 0.79362 0.19532 0.94697
 H238 H 0.72489 0.16931 0.92020
 H239 H 0.74536 0.12505 1.04801
 H240 H 0.74029 0.14799 1.08552
 H241 H 0.74478 0.21518 1.04643
 H242 H 0.74965 0.19094 1.00963
 C243 C 0.67703 0.09231 1.00369
 C244 C 0.82211 0.09143 0.99475
 C245 C 0.74215 0.18335 1.06875
 C246 C 0.75966 0.18427 0.93093
 C247 C 0.28191 0.60359 0.47866
 H248 H 0.26855 0.60289 0.46474
 C249 C 0.30365 0.59028 0.47636
 H250 H 0.30688 0.57915 0.46076
 C251 C 0.29448 0.61964 0.51556
 H252 H 0.29118 0.63156 0.53053
 C253 C 0.31646 0.60663 0.51395
 H254 H 0.32977 0.60835 0.52787
 N255 N 0.27771 0.61795 0.49802
 C256 C 0.19837 0.63137 0.49962
 H257 H 0.19844 0.65113 0.49948
 C258 C 0.17624 0.61876 0.50184
 H259 H 0.15928 0.62885 0.50312
 C260 C 0.22040 0.59415 0.49888
 H261 H 0.23767 0.58463 0.49826
 C262 C 0.19864 0.58081 0.50109
 H263 H 0.19925 0.56106 0.50181
 Zn264 Zn 0.24920 0.63813 0.49825
 N265 N 0.21991 0.61902 0.49817
 C266 C 0.23450 0.65760 0.45373
 N267 N 0.25169 0.65819 0.47092
 C268 C 0.27234 0.67185 0.46837
 C269 C 0.27636 0.68558 0.44793
 C270 C 0.23781 0.67107 0.43301
 C271 C 0.24479 0.64578 0.54701
 C272 C 0.24181 0.65883 0.56814
 C273 C 0.24448 0.69640 0.54616
 C274 C 0.24741 0.68262 0.52537
 N275 N 0.24763 0.65774 0.52617
 H276 H 0.21848 0.64627 0.45580
 H277 H 0.28592 0.67172 0.48211
 H278 H 0.29300 0.69609 0.44598
 H279 H 0.22419 0.67019 0.41930
 H280 H 0.24459 0.62602 0.54714
 H281 H 0.23959 0.64907 0.58460
 H282 H 0.24431 0.71616 0.54537
 H283 H 0.24911 0.69182 0.50862
 C284 C 0.17631 0.59321 0.50275
 C285 C 0.32122 0.59194 0.49409
 C286 C 0.24156 0.68438 0.56776
 C287 C 0.25900 0.68509 0.42998
 C288 C 0.71647 0.89532 0.48024
 H289 H 0.73044 0.89589 0.46661
 C290 C 0.69468 0.90831 0.47734
 H291 H 0.69206 0.91909 0.46160
 C292 C 0.70241 0.87987 0.51691
 H293 H 0.70518 0.86828 0.53201
 C294 C 0.68035 0.89258 0.51469
 H295 H 0.66642 0.89098 0.52831
 N296 N 0.71996 0.88139 0.49976
 C297 C 0.79924 0.86781 0.50258
 H298 H 0.79890 0.84805 0.50278
 C299 C 0.82147 0.88017 0.50472
 H300 H 0.83825 0.86988 0.50630
 C301 C 0.77775 0.90529 0.50090
 H302 H 0.76064 0.91501 0.49987
 C303 C 0.79966 0.91840 0.50301
 H304 H 0.79932 0.93818 0.50328
 Zn305 Zn 0.74863 0.86137 0.50052
 N306 N 0.77793 0.88040 0.50067
 C307 C 0.76523 0.84103 0.45649
 N308 N 0.74730 0.84079 0.47331
 C309 C 0.72693 0.82682 0.47061
 C310 C 0.72397 0.81234 0.45039
 C311 C 0.76300 0.82679 0.43600
 C312 C 0.75147 0.85397 0.54938
 C313 C 0.75498 0.84095 0.57023
 C314 C 0.75462 0.80344 0.54754
 C315 C 0.75110 0.81718 0.52707
 N316 N 0.74961 0.84200 0.52833
 H317 H 0.78103 0.85260 0.45868
 H318 H 0.71278 0.82723 0.48408
 H319 H 0.70754 0.80156 0.44829
 H320 H 0.77719 0.82737 0.42256
 H321 H 0.75076 0.87371 0.54988
 H322 H 0.75663 0.85070 0.58685
 H323 H 0.75601 0.78374 0.54633
 H324 H 0.75026 0.80799 0.51015
 C325 C 0.82176 0.90572 0.50507
 C326 C 0.67629 0.90679 0.49462
 C327 C 0.75678 0.81545 0.56931
 C328 C 0.74213 0.81239 0.43285
 C329 C 0.01689 0.28180 0.39818
 H330 H 0.03315 0.27060 0.39858
 C331 C 0.01583 0.30349 0.41098
 H332 H 0.03130 0.30923 0.42144
 C333 C -0.02303 0.28841 0.38345
 H334 H -0.03786 0.28266 0.37230
 C335 C -0.02484 0.31028 0.39599
 H336 H -0.04115 0.32136 0.39469
 N337 N -0.00244 0.27468 0.38496
 C338 C 0.00483 0.19731 0.37671
 H339 H 0.00445 0.19607 0.35764
 C340 C 0.00587 0.17626 0.39014
 H341 H 0.00633 0.15855 0.38146
 C342 C 0.00398 0.22202 0.41140
 H343 H 0.00269 0.23988 0.41952
 C344 C 0.00497 0.20139 0.42556
 H345 H 0.00466 0.20331 0.44462
 Zn346 Zn 0.00140 0.24609 0.36759
 N347 N 0.00414 0.21953 0.38749
 C348 C 0.04845 0.23398 0.35273
 N349 N 0.02954 0.24958 0.34943
 C350 C 0.03146 0.26922 0.33496
 C351 C 0.05329 0.27376 0.32294
 C352 C 0.07047 0.23779 0.34107
 C353 C -0.04642 0.23487 0.36134
 C354 C -0.06804 0.23086 0.34942
 C355 C -0.04638 0.23723 0.31245
 C356 C -0.02503 0.24102 0.32512
 N357 N -0.02571 0.24036 0.34912
 H358 H 0.04682 0.21901 0.36493
 H359 H 0.01621 0.28160 0.33324
 H360 H 0.05501 0.28954 0.31161
 H361 H 0.08562 0.22549 0.34396
 H362 H -0.04613 0.23416 0.38043
 H363 H -0.08472 0.22730 0.35926
 H364 H -0.04616 0.23860 0.29338
 H365 H -0.00815 0.24489 0.31588
 C366 C 0.00590 0.17841 0.41471
 C367 C -0.00520 0.31775 0.40978
 C368 C -0.06800 0.23241 0.32486
 C369 C 0.07288 0.25791 0.32627
 C370 C 0.02121 0.71919 0.10930
 H371 H 0.03683 0.73121 0.11059
 C372 C 0.02283 0.69765 0.09622
 H373 H 0.03973 0.69287 0.08725
 C374 C -0.02006 0.71057 0.11959
 H375 H -0.03658 0.71552 0.12898
 C376 C -0.01922 0.68887 0.10672
 H377 H -0.03517 0.67719 0.10600
 N378 N -0.00013 0.72535 0.12025
 C379 C -0.00036 0.80333 0.12653
 H380 H -0.00388 0.80512 0.14530
 C381 C 0.00090 0.82396 0.11249
 H382 H -0.00158 0.84191 0.12034
 C383 C 0.00645 0.77763 0.09310
 H384 H 0.00803 0.75951 0.08562
 C385 C 0.00782 0.79783 0.07838
 H386 H 0.01070 0.79537 0.05955
 Zn387 Zn -0.00090 0.75460 0.13707
 N388 N 0.00266 0.78083 0.11670
 C389 C 0.04192 0.77149 0.15778
 N390 N 0.02448 0.75386 0.15851
 C391 C 0.02647 0.73396 0.17260
 C392 C 0.04720 0.73086 0.18630
 C393 C 0.06275 0.76920 0.17127
 C394 C -0.05009 0.76231 0.13773
 C395 C -0.07334 0.76509 0.14728
 C396 C -0.05618 0.76101 0.18637
 C397 C -0.03318 0.75834 0.17602
 N398 N -0.03079 0.75854 0.15212
 H399 H 0.04032 0.78676 0.14598
 H400 H 0.01245 0.72004 0.17235
 H401 H 0.04932 0.71455 0.19680
 H402 H 0.07703 0.78285 0.17000
 H403 H -0.04735 0.76270 0.11879
 H404 H -0.08877 0.76744 0.13565
 H405 H -0.05819 0.76021 0.20542
 H406 H -0.01739 0.75582 0.18700
 C407 C 0.00500 0.82107 0.08828
 C408 C 0.00234 0.68257 0.09487
 C409 C -0.07637 0.76415 0.17177
 C410 C 0.06556 0.74851 0.18520
 C411 C 0.52275 0.21834 0.60791
 H412 H 0.53860 0.23003 0.60932
 C413 C 0.52396 0.19690 0.59464
 H414 H 0.54078 0.19186 0.58565
 C415 C 0.48132 0.21041 0.61812
 H416 H 0.46490 0.21559 0.62757
 C417 C 0.48175 0.18883 0.60506
 H418 H 0.46559 0.17745 0.60425
 N419 N 0.50154 0.22478 0.61894
 C420 C 0.50279 0.30266 0.62608
 H421 H 0.49940 0.30427 0.64488
 C422 C 0.50415 0.32343 0.61225
 H423 H 0.50186 0.34131 0.62031
 C424 C 0.50905 0.27726 0.59234
 H425 H 0.51033 0.25922 0.58465
 C426 C 0.51049 0.29762 0.57782
 H427 H 0.51310 0.29534 0.55894
 Zn428 Zn 0.50134 0.25385 0.63605
 N429 N 0.50543 0.28023 0.61598
 C430 C 0.54439 0.26971 0.65698
 N431 N 0.52664 0.25239 0.65754
 C432 C 0.52816 0.23242 0.67160
 C433 C 0.54867 0.22898 0.68553
 C434 C 0.56501 0.26708 0.67070
 C435 C 0.45232 0.26257 0.63671
 C436 C 0.42914 0.26589 0.64626
 C437 C 0.44613 0.26123 0.68532
 C438 C 0.46908 0.25802 0.67500
 N439 N 0.47152 0.25828 0.65110
 H440 H 0.54317 0.28503 0.64519
 H441 H 0.51390 0.21876 0.67121
 H442 H 0.55039 0.21264 0.69608
 H443 H 0.57950 0.28052 0.66962
 H444 H 0.45509 0.26300 0.61777
 H445 H 0.41373 0.26865 0.63474
 H446 H 0.44395 0.26038 0.70433
 H447 H 0.48479 0.25508 0.68599
 C448 C 0.50794 0.32078 0.58798
 C449 C 0.50319 0.18222 0.59316
 C450 C 0.42610 0.26495 0.67071
 C451 C 0.56730 0.24636 0.68468
 C452 C 0.51640 0.78287 0.89677
 H453 H 0.53260 0.77161 0.89738
 C454 C 0.51535 0.80467 0.90940
 H455 H 0.53075 0.81042 0.91993
 C456 C 0.47658 0.78949 0.88179
 H457 H 0.46178 0.78366 0.87064
 C458 C 0.47478 0.81146 0.89415
 H459 H 0.45850 0.82256 0.89273
 N460 N 0.49711 0.77569 0.88354
 C461 C 0.50393 0.69817 0.87664
 H462 H 0.50372 0.69656 0.85759
 C463 C 0.50478 0.67739 0.89046
 H464 H 0.50526 0.65950 0.88217
 C465 C 0.50289 0.72354 0.91089
 H466 H 0.50160 0.74154 0.91868
 C467 C 0.50368 0.70317 0.92542
 H468 H 0.50325 0.70539 0.94444
 Zn469 Zn 0.50090 0.74681 0.86664
 N470 N 0.50326 0.72059 0.88702
 C471 C 0.54805 0.73419 0.85242
 N472 N 0.52925 0.74983 0.84872
 C473 C 0.53147 0.76933 0.83410
 C474 C 0.55351 0.77372 0.82241
 C475 C 0.57027 0.73786 0.84109
 C476 C 0.45312 0.73573 0.86014
 C477 C 0.43157 0.73173 0.84811
 C478 C 0.45354 0.73760 0.81123
 C479 C 0.47481 0.74138 0.82401
 N480 N 0.47395 0.74097 0.84801
 H481 H 0.54616 0.71934 0.86471
 H482 H 0.51631 0.78176 0.83207
 H483 H 0.55548 0.78942 0.81102
 H484 H 0.58534 0.72555 0.84432
 H485 H 0.45325 0.73524 0.87924
 H486 H 0.41479 0.72840 0.85787
 H487 H 0.45389 0.73880 0.79214
 H488 H 0.49179 0.74507 0.81485
 C489 C 0.50463 0.68002 0.91498
 C490 C 0.49435 0.81897 0.90801
 C491 C 0.43180 0.73305 0.82353
 C492 C 0.57300 0.75787 0.82621
 C493 C -0.23155 0.67627 0.96834
 H494 H -0.21706 0.67769 0.98112
 C495 C -0.23130 0.69127 0.94835
 H496 H -0.21650 0.70410 0.94566
 C497 C -0.26842 0.65778 0.95599
 H498 H -0.28278 0.64458 0.95872
 C499 C -0.26886 0.67236 0.93586
 H500 H -0.28355 0.67027 0.92334
 N501 N -0.25019 0.66021 0.97203
 C502 C -0.25818 0.65120 1.04849
 H503 H -0.25989 0.63154 1.04934
 C504 C -0.25843 0.66510 1.06928
 H505 H -0.26050 0.65605 1.08615
 C506 C -0.25278 0.68688 1.02554
 H507 H -0.25058 0.69536 1.00851
 C508 C -0.25292 0.70149 1.04594
 H509 H -0.25072 0.72109 1.04444
 Zn510 Zn -0.25141 0.64115 1.00026
 N511 N -0.25477 0.66213 1.02719
 C512 C -0.20686 0.62772 1.02206
 N513 N -0.22143 0.62294 1.00317
 C514 C -0.21429 0.60653 0.98627
 C515 C -0.19205 0.59395 0.98828
 C516 C -0.18461 0.61559 1.02472
 C517 C -0.30174 0.63217 1.00107
 C518 C -0.32360 0.61922 0.99862
 C519 C -0.30025 0.58222 0.99315
 C520 C -0.27872 0.59591 0.99571
 N521 N -0.27982 0.62055 0.99920
 H522 H -0.21217 0.64129 1.03501
 H523 H -0.22574 0.60332 0.97111
 H524 H -0.18656 0.58099 0.97471
 H525 H -0.17328 0.61974 1.03981
 H526 H -0.30221 0.65173 1.00390
 H527 H -0.34084 0.62883 0.99979
 H528 H -0.29917 0.56271 0.99005
 H529 H -0.26123 0.58688 0.99447
 C530 C -0.25538 0.69046 1.06806
 C531 C -0.25030 0.68944 0.93207
 C532 C -0.32294 0.59403 0.99435
 C533 C -0.17703 0.59850 1.00775
 C534 C -0.23334 0.32449 0.53442
 H535 H -0.21796 0.32297 0.52237
 C536 C -0.23432 0.31062 0.55389
 H537 H -0.21968 0.29796 0.55754
 C538 C -0.27116 0.34398 0.54395
 H539 H -0.28541 0.35696 0.54037
 C540 C -0.27293 0.32920 0.56560
 H541 H -0.28844 0.33176 0.57742
 N542 N -0.25279 0.34131 0.52932
 C543 C -0.25600 0.34928 0.45242
 H544 H -0.25841 0.36885 0.45140
 C545 C -0.25444 0.33532 0.43171
 H546 H -0.25587 0.34417 0.41472
 C547 C -0.25052 0.31394 0.47571
 H548 H -0.24891 0.30563 0.49285
 C549 C -0.24884 0.29928 0.45538
 H550 H -0.24594 0.27980 0.45698
 Zn551 Zn -0.25222 0.35987 0.50071
 N552 N -0.25343 0.33857 0.47387
 C553 C -0.20679 0.37411 0.48037
 N554 N -0.22241 0.37853 0.49882
 C555 C -0.21660 0.39523 0.51583
 C556 C -0.19475 0.40860 0.51426
 C557 C -0.18488 0.38702 0.47815
 C558 C -0.30250 0.36861 0.49768
 C559 C -0.32446 0.38154 0.49941
 C560 C -0.30139 0.41861 0.50542
 C561 C -0.27978 0.40493 0.50358
 N562 N -0.28071 0.38027 0.50023
 H563 H -0.21106 0.36034 0.46734
 H564 H -0.22889 0.39815 0.53064
 H565 H -0.19035 0.42186 0.52785
 H566 H -0.17274 0.38323 0.46335
 H567 H -0.30281 0.34903 0.49499
 H568 H -0.34162 0.37184 0.49779
 H569 H -0.30041 0.43814 0.50850
 H570 H -0.26239 0.41400 0.50533
 C571 C -0.25043 0.31014 0.43315
 C572 C -0.25540 0.31296 0.57034
 C573 C -0.32401 0.40676 0.50365
 C574 C -0.17874 0.40452 0.49515
 C575 C 0.26647 -0.17472 0.03357
 H576 H 0.28189 -0.17628 0.02157
 C577 C 0.26538 -0.18859 0.05304
 H578 H 0.27997 -0.20130 0.05674
 C579 C 0.22868 -0.15513 0.04298
 H580 H 0.21448 -0.14211 0.03936
 C581 C 0.22678 -0.16990 0.06462
 H582 H 0.21124 -0.16729 0.07638
 N583 N 0.24708 -0.15785 0.02840
 C584 C 0.24398 -0.14974 -0.04849
 H585 H 0.24153 -0.13017 -0.04945
 C586 C 0.24554 -0.16365 -0.06923
 H587 H 0.24408 -0.15476 -0.08619
 C588 C 0.24956 -0.18514 -0.02528
 H589 H 0.25120 -0.19348 -0.00817
 C590 C 0.25124 -0.19974 -0.04566
 H591 H 0.25419 -0.21922 -0.04411
 Zn592 Zn 0.24774 -0.13926 -0.00018
 N593 N 0.24659 -0.16050 -0.02706
 C594 C 0.29314 -0.12489 -0.02046
 N595 N 0.27752 -0.12056 -0.00199
 C596 C 0.28331 -0.10391 0.01507
 C597 C 0.30515 -0.09051 0.01355
 C598 C 0.31504 -0.11194 -0.02263
 C599 C 0.19748 -0.13066 -0.00341
 C600 C 0.17546 -0.11785 -0.00153
 C601 C 0.19835 -0.08077 0.00504
 C602 C 0.22002 -0.09432 0.00303
 N603 N 0.21921 -0.11893 -0.00066
 H604 H 0.28888 -0.13860 -0.03354
 H605 H 0.27102 -0.10106 0.02990
 H606 H 0.30953 -0.07731 0.02719
 H607 H 0.32718 -0.11567 -0.03744
 H608 H 0.19726 -0.15020 -0.00634
 H609 H 0.15835 -0.12761 -0.00329
 H610 H 0.19923 -0.06128 0.00841
 H611 H 0.23737 -0.08520 0.00496
 C612 C 0.24960 -0.18882 -0.06786
 C613 C 0.24424 -0.18619 0.06942
 C614 C 0.17579 -0.09270 0.00308
 C615 C 0.32116 -0.09450 -0.00557
 C616 C 0.26845 1.17557 0.46700
 H617 H 0.28299 1.17703 0.47971
 C618 C 0.26858 1.19053 0.44699
 H619 H 0.28336 1.20338 0.44422
 C620 C 0.23151 1.15704 0.45485
 H621 H 0.21716 1.14386 0.45769
 C622 C 0.23096 1.17159 0.43471
 H623 H 0.21620 1.16949 0.42226
 N624 N 0.24982 1.15952 0.47081
 C625 C 0.24215 1.15117 0.54735
 H626 H 0.24054 1.13152 0.54843
 C627 C 0.24195 1.16531 0.56799
 H628 H 0.24003 1.15651 0.58499
 C629 C 0.24723 1.18662 0.52400
 H630 H 0.24928 1.19493 0.50688
 C631 C 0.24713 1.20145 0.54425
 H632 H 0.24921 1.22104 0.54260
 Zn633 Zn 0.24869 1.14066 0.49916
 N634 N 0.24539 1.16187 0.52592
 C635 C 0.29331 1.12742 0.52093
 N636 N 0.27868 1.12249 0.50213
 C637 C 0.28575 1.10591 0.48534
 C638 C 0.30796 1.09330 0.48741
 C639 C 0.31555 1.11527 0.52364
 C640 C 0.19836 1.13163 0.50014
 C641 C 0.17652 1.11862 0.49786
 C642 C 0.19992 1.08161 0.49271
 C643 C 0.22142 1.09536 0.49509
 N644 N 0.22030 1.12003 0.49834
 H645 H 0.28807 1.14111 0.53378
 H646 H 0.27424 1.10259 0.47024
 H647 H 0.31338 1.08021 0.47393
 H648 H 0.32693 1.11953 0.53866
 H649 H 0.19787 1.15122 0.50278
 H650 H 0.15926 1.12822 0.49897
 H651 H 0.20101 1.06207 0.48981
 H652 H 0.23892 1.08634 0.49392
 C653 C 0.24485 1.19065 0.56648
 C654 C 0.24949 1.18869 0.43081
 C655 C 0.17721 1.09339 0.49384
 C656 C 0.32304 1.09800 0.50680
 C657 C 0.14542 0.46823 0.26871
 H658 H 0.14567 0.48211 0.28239
 C659 C 0.15883 0.44665 0.27151
 H660 H 0.16959 0.44412 0.28724
 C661 C 0.13040 0.45416 0.23197
 H662 H 0.11884 0.45683 0.21686
 C663 C 0.14354 0.43231 0.23408
 H664 H 0.14227 0.41846 0.22039
 N665 N 0.13150 0.47161 0.24920
 C666 C 0.11681 0.55083 0.24655
 H667 H 0.09707 0.55025 0.24634
 C668 C 0.12891 0.57324 0.24447
 H669 H 0.11844 0.58991 0.24292
 C670 C 0.15451 0.52976 0.24817
 H671 H 0.16443 0.51275 0.24914
 C672 C 0.16735 0.55185 0.24611
 H673 H 0.18712 0.55174 0.24584
 Zn674 Zn 0.11101 0.50001 0.24850
 N675 N 0.12964 0.52963 0.24840
 C676 C 0.09047 0.51609 0.29265
 N677 N 0.09040 0.49826 0.27578
 C678 C 0.07669 0.47768 0.27853
 C679 C 0.06234 0.47443 0.29886
 C680 C 0.07637 0.51356 0.31324
 C681 C 0.10380 0.50304 0.19961
 C682 C 0.09088 0.50640 0.17871
 C683 C 0.05324 0.50521 0.20129
 C684 C 0.06691 0.50185 0.22180
 N685 N 0.09175 0.50084 0.22062
 H686 H 0.10184 0.53206 0.29043
 H687 H 0.07723 0.46361 0.26503
 H688 H 0.05179 0.45784 0.30099
 H689 H 0.07683 0.52769 0.32671
 H690 H 0.12354 0.50269 0.19919
 H691 H 0.10082 0.50829 0.16216
 H692 H 0.03351 0.50618 0.20254
 H693 H 0.05765 0.50073 0.23869
 C694 C 0.15445 0.57384 0.24412
 C695 C 0.15776 0.42837 0.25413
 C696 C 0.06533 0.50770 0.17950
 C697 C 0.06225 0.49248 0.31646
 C698 C -0.14487 1.03033 0.27016
 H699 H -0.14566 1.01678 0.28396
 C700 C -0.15783 1.05225 0.27280
 H701 H -0.16881 1.05542 0.28853
 C702 C -0.12887 1.04319 0.23325
 H703 H -0.11709 1.03992 0.21815
 C704 C -0.14154 1.06535 0.23520
 H705 H -0.13971 1.07884 0.22139
 N706 N -0.13070 1.02620 0.25063
 C707 C -0.11824 0.94670 0.24837
 H708 H -0.09849 0.94655 0.24835
 C709 C -0.13110 0.92472 0.24612
 H710 H -0.12121 0.90765 0.24466
 C711 C -0.15519 0.96916 0.24956
 H712 H -0.16450 0.98654 0.25038
 C713 C -0.16877 0.94755 0.24732
 H714 H -0.18850 0.94839 0.24679
 Zn715 Zn -0.11091 0.99743 0.25003
 N716 N -0.13034 0.96837 0.25006
 C717 C -0.09140 0.98201 0.29425
 N718 N -0.09072 0.99938 0.27717
 C719 C -0.07683 1.01986 0.27970
 C720 C -0.06297 1.02354 0.30004
 C721 C -0.07779 0.98498 0.31487
 C722 C -0.10347 0.99347 0.20122
 C723 C -0.09052 0.99042 0.18002
 C724 C -0.05289 0.99215 0.20186
 C725 C -0.06659 0.99518 0.22271
 N726 N -0.09144 0.99588 0.22201
 H727 H -0.10292 0.96613 0.29219
 H728 H -0.07690 1.03358 0.26604
 H729 H -0.05229 1.04008 0.30200
 H730 H -0.07876 0.97124 0.32852
 H731 H -0.12321 0.99364 0.20118
 H732 H -0.10038 0.98852 0.16361
 H733 H -0.03314 0.99159 0.20262
 H734 H -0.05735 0.99652 0.23943
 C735 C -0.15662 0.92509 0.24543
 C736 C -0.15602 1.07005 0.25524
 C737 C -0.06497 0.98965 0.18029
 C738 C -0.06355 1.00602 0.31788
 C739 C 0.35410 0.53136 -0.22981
 H740 H 0.35315 0.51792 -0.21591
 C741 C 0.34122 0.55335 -0.22743
 H742 H 0.33014 0.55669 -0.21178
 C743 C 0.37039 0.54385 -0.26673
 H744 H 0.38227 0.54042 -0.28173
 C745 C 0.35781 0.56607 -0.26503
 H746 H 0.35979 0.57945 -0.27892
 N747 N 0.36838 0.52700 -0.24922
 C748 C 0.38146 0.44620 -0.25095
 H749 H 0.40120 0.44608 -0.25045
 C750 C 0.36920 0.42516 -0.25342
 H751 H 0.37909 0.40807 -0.25474
 C752 C 0.34486 0.46985 -0.25016
 H753 H 0.33551 0.48722 -0.24979
 C754 C 0.33054 0.44699 -0.25266
 H755 H 0.31080 0.44797 -0.25334
 Zn756 Zn 0.38809 0.49817 -0.24949
 N757 N 0.36864 0.46912 -0.24937
 C758 C 0.40749 0.48300 -0.20513
 N759 N 0.40815 0.50031 -0.22227
 C760 C 0.42200 0.52083 -0.21980
 C761 C 0.43587 0.52460 -0.19949
 C762 C 0.42111 0.48606 -0.18453
 C763 C 0.39589 0.49385 -0.29823
 C764 C 0.40902 0.49071 -0.31932
 C765 C 0.44645 0.49261 -0.29722
 C766 C 0.43260 0.49572 -0.27648
 N767 N 0.40776 0.49639 -0.27737
 H768 H 0.39602 0.46708 -0.20716
 H769 H 0.42191 0.53449 -0.23351
 H770 H 0.44654 0.54114 -0.19760
 H771 H 0.42020 0.47236 -0.17084
 H772 H 0.37615 0.49400 -0.29842
 H773 H 0.39935 0.48872 -0.33581
 H774 H 0.46619 0.49208 -0.29636
 H775 H 0.44171 0.49717 -0.25970
 C776 C 0.34223 0.42548 -0.25447
 C777 C 0.34322 0.57100 -0.24511
 C778 C 0.43454 0.49000 -0.31884
 C779 C 0.43534 0.50712 -0.18160
 C780 C 0.64813 -0.03201 -0.22939
 H781 H 0.64874 -0.01794 -0.21590
 C782 C 0.66070 -0.05282 -0.22662
 H783 H 0.67155 -0.05540 -0.21094
 C784 C 0.63219 -0.04511 -0.26646
 H785 H 0.62039 -0.04257 -0.28140
 C786 C 0.64595 -0.06829 -0.26422
 H787 H 0.64448 -0.08204 -0.27799
 N788 N 0.63338 -0.02837 -0.25000
 C789 C 0.61882 0.05084 -0.25263
 H790 H 0.59909 0.05031 -0.25282
 C791 C 0.63097 0.07322 -0.25475
 H792 H 0.62048 0.08990 -0.25631
 C793 C 0.65647 0.02968 -0.25099
 H794 H 0.66633 0.01264 -0.24999
 C795 C 0.66938 0.05173 -0.25310
 H796 H 0.68916 0.05151 -0.25337
 Zn797 Zn 0.61292 0.00005 -0.25060
 N798 N 0.63160 0.02962 -0.25075
 C799 C 0.59230 0.01625 -0.20653
 N800 N 0.59237 -0.00168 -0.22331
 C801 C 0.57866 -0.02225 -0.22056
 C802 C 0.56412 -0.02539 -0.20035
 C803 C 0.57799 0.01383 -0.18605
 C804 C 0.60544 0.00317 -0.29948
 C805 C 0.59234 0.00656 -0.32028
 C806 C 0.55490 0.00536 -0.29745
 C807 C 0.56871 0.00199 -0.27704
 N808 N 0.59354 0.00096 -0.27839
 H809 H 0.60365 0.03222 -0.20876
 H810 H 0.57929 -0.03639 -0.23400
 H811 H 0.55353 -0.04196 -0.19823
 H812 H 0.57831 0.02805 -0.17266
 H813 H 0.62518 0.00282 -0.30005
 H814 H 0.60205 0.00847 -0.33693
 H815 H 0.53519 0.00635 -0.29618
 H816 H 0.55955 0.00086 -0.26010
 C817 C 0.65653 0.07376 -0.25513
 C818 C 0.65945 -0.07219 -0.24494
 C819 C 0.56684 0.00786 -0.31927
 C820 C 0.56383 -0.00722 -0.18287
 C821 C 0.03258 0.26893 0.85655
 H822 H 0.02075 0.28471 0.85589
 C823 C 0.05464 0.26882 0.84424
 H824 H 0.06001 0.28455 0.83390
 C825 C 0.04020 0.22903 0.87104
 H826 H 0.03459 0.21376 0.88178
 C827 C 0.06243 0.22817 0.85900
 H828 H 0.07392 0.21214 0.86022
 N829 N 0.02572 0.24908 0.86926
 C830 C -0.05222 0.25184 0.87281
 H831 H -0.05474 0.25112 0.89176
 C832 C -0.07229 0.25192 0.85810
 H833 H -0.09054 0.25136 0.86561
 C834 C -0.02521 0.25287 0.83969
 H835 H -0.00683 0.25269 0.83267
 C836 C -0.04485 0.25294 0.82429
 H837 H -0.04169 0.25313 0.80537
 Zn838 Zn -0.00410 0.25107 0.88495
 N839 N -0.02933 0.25258 0.86342
 C840 C -0.01977 0.29723 0.89956
 N841 N -0.00341 0.27911 0.90350
 C842 C 0.01541 0.28196 0.91874
 C843 C 0.01850 0.30407 0.93064
 C844 C -0.01740 0.31951 0.91110
 C845 C -0.01321 0.20263 0.89004
 C846 C -0.01701 0.18063 0.90146
 C847 C -0.01404 0.20191 0.93899
 C848 C -0.01039 0.22365 0.92680
 N849 N -0.00952 0.22337 0.90280
 H850 H -0.03408 0.29486 0.88681
 H851 H 0.02843 0.26733 0.92098
 H852 H 0.03380 0.30662 0.94237
 H853 H -0.03014 0.33414 0.90753
 H854 H -0.01271 0.20323 0.87095
 H855 H -0.01920 0.16398 0.89124
 H856 H -0.01396 0.20184 0.95812
 H857 H -0.00791 0.24054 0.93644
 C858 C -0.06847 0.25248 0.83372
 C859 C 0.06950 0.24820 0.84544
 C860 C -0.01710 0.18031 0.92607
 C861 C 0.00205 0.32297 0.92645
 C862 C 0.46950 0.26883 0.14618
 H863 H 0.48085 0.28500 0.14559
 C864 C 0.44775 0.26902 0.15901
 H865 H 0.44213 0.28536 0.16849
 C866 C 0.46261 0.22777 0.13406
 H867 H 0.46827 0.21195 0.12394
 C868 C 0.44071 0.22718 0.14666
 H869 H 0.42955 0.21083 0.14646
 N870 N 0.47654 0.24832 0.13430
 C871 C 0.55415 0.25330 0.12645
 H872 H 0.55566 0.25116 0.10748
 C873 C 0.57501 0.25474 0.14005
 H874 H 0.59285 0.25377 0.13166
 C875 C 0.52896 0.25626 0.16079
 H876 H 0.51098 0.25621 0.16875
 C877 C 0.54941 0.25771 0.17509
 H878 H 0.54728 0.25900 0.19410
 Zn879 Zn 0.50544 0.25009 0.11703
 N880 N 0.53178 0.25423 0.13696
 C881 C 0.51901 0.29506 0.09822
 N882 N 0.50274 0.27639 0.09674
 C883 C 0.48299 0.27741 0.08241
 C884 C 0.47889 0.29810 0.06885
 C885 C 0.51567 0.31593 0.08495
 C886 C 0.51569 0.20142 0.11407
 C887 C 0.51934 0.17878 0.10347
 C888 C 0.51417 0.19764 0.06527
 C889 C 0.51066 0.22001 0.07661
 N890 N 0.51090 0.22124 0.10059
 H891 H 0.53410 0.29420 0.11026
 H892 H 0.47012 0.26241 0.08210
 H893 H 0.46288 0.29923 0.05785
 H894 H 0.52840 0.33101 0.08654
 H895 H 0.51610 0.20322 0.13310
 H896 H 0.52232 0.16282 0.11428
 H897 H 0.51315 0.19639 0.04620
 H898 H 0.50737 0.23621 0.06634
 C899 C 0.57251 0.25686 0.16451
 C900 C 0.43336 0.24799 0.15920
 C901 C 0.51821 0.17693 0.07894
 C902 C 0.49534 0.31751 0.07043
 C903 C -0.03142 0.76959 0.64768
 H904 H -0.01999 0.78570 0.64695
 C905 C -0.05207 0.76982 0.66028
 H906 H -0.05752 0.78614 0.66988
 C907 C -0.03764 0.72828 0.63489
 H908 H -0.03226 0.71249 0.62460
 C909 C -0.06054 0.72767 0.64856
 H910 H -0.07164 0.71127 0.64840
 N911 N -0.02426 0.74793 0.63495
 C912 C 0.05318 0.75312 0.62593
 H913 H 0.05444 0.75110 0.60694
 C914 C 0.07421 0.75469 0.63928
 H915 H 0.09195 0.75391 0.63067
 C916 C 0.02843 0.75577 0.66059
 H917 H 0.01055 0.75559 0.66877
 C918 C 0.04905 0.75736 0.67464
 H919 H 0.04716 0.75860 0.69368
 Zn920 Zn 0.00429 0.74992 0.61717
 N921 N 0.03095 0.75387 0.63673
 C922 C 0.01743 0.79521 0.59889
 N923 N 0.00118 0.77654 0.59734
 C924 C -0.01879 0.77775 0.58331
 C925 C -0.02309 0.79865 0.57009
 C926 C 0.01389 0.81628 0.58596
 C927 C 0.01469 0.70135 0.61339
 C928 C 0.01828 0.67888 0.60244
 C929 C 0.01224 0.69822 0.56459
 C930 C 0.00882 0.72042 0.57628
 N931 N 0.00953 0.72132 0.60026
 H932 H 0.03270 0.79419 0.61071
 H933 H -0.03164 0.76275 0.58295
 H934 H -0.03923 0.79991 0.55928
 H935 H 0.02664 0.83132 0.58758
 H936 H 0.01547 0.70289 0.63242
 H937 H 0.02159 0.66280 0.61299
 H938 H 0.01088 0.69722 0.54553
 H939 H 0.00523 0.73674 0.56629
 C940 C 0.07202 0.75675 0.66377
 C941 C -0.06736 0.74764 0.66068
 C942 C 0.01670 0.67735 0.57792
 C943 C -0.00663 0.81804 0.57172
 C944 C 0.53179 0.76806 0.35595
 H945 H 0.52006 0.78391 0.35521
 C946 C 0.55400 0.76790 0.34390
 H947 H 0.55958 0.78364 0.33368
 C948 C 0.53904 0.72808 0.37041
 H949 H 0.53325 0.71281 0.38105
 C950 C 0.56142 0.72716 0.35863
 H951 H 0.57284 0.71108 0.35995
 N952 N 0.52468 0.74821 0.36853
 C953 C 0.44674 0.75153 0.37173
 H954 H 0.44414 0.75070 0.39067
 C955 C 0.42673 0.75183 0.35695
 H956 H 0.40844 0.75134 0.36440
 C957 C 0.47388 0.75259 0.33871
 H958 H 0.49229 0.75234 0.33177
 C959 C 0.45430 0.75289 0.32324
 H960 H 0.45754 0.75317 0.30434
 Zn961 Zn 0.49478 0.75033 0.38407
 N962 N 0.46967 0.75217 0.36243
 C963 C 0.47934 0.79650 0.39898
 N964 N 0.49559 0.77824 0.40280
 C965 C 0.51436 0.78083 0.41815
 C966 C 0.51749 0.80279 0.43029
 C967 C 0.48175 0.81863 0.41078
 C968 C 0.48535 0.70188 0.38892
 C969 C 0.48155 0.67984 0.40026
 C970 C 0.48450 0.70098 0.43786
 C971 C 0.48816 0.72276 0.42575
 N972 N 0.48908 0.72257 0.40175
 H973 H 0.46507 0.79433 0.38616
 H974 H 0.52729 0.76611 0.42029
 H975 H 0.53275 0.80512 0.44211
 H976 H 0.46910 0.83336 0.40732
 H977 H 0.48589 0.70255 0.36983
 H978 H 0.47939 0.66322 0.38998
 H979 H 0.48461 0.70084 0.45699
 H980 H 0.49067 0.73961 0.43546
 C981 C 0.43064 0.75252 0.33258
 C982 C 0.56877 0.74721 0.34523
 C983 C 0.48148 0.67942 0.42487
 C984 C 0.50115 0.82181 0.42626
 Zr985 Zr 0.01853 -0.02102 1.03060
 O986 O 0.04273 -0.00832 1.05690
 O987 O 0.01505 -0.05789 1.03923
 O988 O 0.00251 -0.02234 1.06490
 O989 O 0.06321 -0.02811 0.98711
 O990 O -0.03457 -0.00399 1.06034
 O991 O 0.05426 -0.03543 1.02593
 O992 O -0.01236 -0.07265 1.01251
 O993 O -0.01854 -0.02789 1.02440
 O994 O 0.01650 -0.03741 0.99720
 O995 O 0.00113 0.01318 1.03276
 O996 O 0.03532 0.00372 1.00704
 Zr997 Zr -0.02281 0.01495 0.96772
 Zr998 Zr -0.03552 0.00634 1.02476
 Zr999 Zr 0.03128 -0.01236 0.97356
 Zr1000 Zr -0.02033 -0.04299 0.99050
 O1001 O 0.06180 0.00915 0.96381
 O1002 O -0.05395 -0.05626 1.00414
 O1003 O -0.00534 -0.01934 0.96519
 O1004 O -0.03916 -0.00978 0.99133
 O1005 O -0.02090 0.03161 1.00105
 O1006 O 0.01418 0.02166 0.97410
 C1007 C 0.00187 -0.07486 1.03022
 C1008 C 0.06857 -0.03621 1.00766
 C1009 C -0.01829 -0.01457 1.07278
 O1010 O -0.06755 -0.01385 1.03237
 O1011 O -0.06588 0.02561 1.01205
 O1012 O -0.05758 0.03135 0.97286
 C1013 C -0.07118 0.03371 0.99148
 O1014 O 0.04289 0.04157 1.03431
 Zr1015 Zr 0.01610 0.03691 1.00777
 O1016 O -0.02017 0.05207 0.95965
 O1017 O -0.04176 0.03732 1.04655
 O1018 O 0.00273 0.06347 1.03208
 O1019 O 0.04782 0.05275 0.99251
 O1020 O 0.00440 0.06736 0.98859
 C1021 C -0.00942 0.06956 0.97057
 O1022 O -0.04820 0.00254 0.94236
 O1023 O 0.03935 -0.04435 0.95378
 O1024 O -0.00784 0.01421 0.93298
 O1025 O 0.02851 -0.00565 0.93728
 O1026 O -0.00608 -0.07138 0.96875
 O1027 O -0.04340 -0.04890 0.96105
 C1028 C 0.01217 0.00483 0.92482
 H1029 H 0.02550 -0.05305 0.99606
 H1030 H -0.05650 -0.01262 0.98741
 H1031 H 0.02164 0.03267 0.96226
 H1032 H 0.00290 0.02052 1.04867
 H1033 H -0.05463 -0.07402 1.00073
 H1034 H -0.07709 -0.00414 1.04406
 H1035 H -0.05773 0.03482 1.05455
 H1036 H 0.01178 0.07885 1.02915
 H1037 H -0.01578 -0.08630 0.97198
 H1038 H 0.05525 -0.04156 0.94574
 H1039 H 0.07136 -0.00056 0.95214
 H1040 H 0.04769 0.07035 0.99669
 H1041 H -0.05040 -0.06555 0.96183
 H1042 H -0.05233 0.01671 0.93233
 H1043 H 0.04702 -0.02255 1.06678
 H1044 H 0.04731 0.05907 1.03561
 Zr1045 Zr 0.51896 0.47902 0.53044
 O1046 O 0.54314 0.49212 0.55657
 O1047 O 0.51577 0.44220 0.53933
 O1048 O 0.50301 0.47782 0.56477
 O1049 O 0.56356 0.47170 0.48690
 O1050 O 0.46582 0.49595 0.56016
 O1051 O 0.55473 0.46470 0.52580
 O1052 O 0.48840 0.42705 0.51277
 O1053 O 0.48191 0.47190 0.52438
 O1054 O 0.51692 0.46234 0.49716
 O1055 O 0.50139 0.51314 0.53237
 O1056 O 0.53558 0.50364 0.50665
 Zr1057 Zr 0.47728 0.51422 0.46738
 Zr1058 Zr 0.46475 0.50605 0.52451
 Zr1059 Zr 0.53154 0.48725 0.47331
 Zr1060 Zr 0.48011 0.45651 0.49062
 O1061 O 0.56194 0.50884 0.46335
 O1062 O 0.44663 0.44317 0.50455
 O1063 O 0.49492 0.48001 0.46509
 O1064 O 0.46111 0.48962 0.49123
 O1065 O 0.47920 0.53117 0.50057
 O1066 O 0.51426 0.52118 0.47362
 C1067 C 0.50273 0.42506 0.53044
 C1068 C 0.56899 0.46378 0.50751
 C1069 C 0.48218 0.48552 0.57263
 O1070 O 0.43280 0.48582 0.53231
 O1071 O 0.43432 0.52515 0.51173
 O1072 O 0.44249 0.53056 0.47247
 C1073 C 0.42894 0.53307 0.49111
 O1074 O 0.54303 0.54177 0.53359
 Zr1075 Zr 0.51618 0.53673 0.50716
 O1076 O 0.47972 0.55126 0.45897
 O1077 O 0.45845 0.53714 0.54613
 O1078 O 0.50274 0.56343 0.53129
 O1079 O 0.54777 0.55262 0.49168
 O1080 O 0.50425 0.56695 0.48775
 C1081 C 0.49037 0.56890 0.46974
 O1082 O 0.45188 0.50143 0.44222
 O1083 O 0.53972 0.45516 0.45372
 O1084 O 0.49215 0.51326 0.43262
 O1085 O 0.52863 0.49366 0.43698
 O1086 O 0.49438 0.42802 0.46899
 O1087 O 0.45693 0.45023 0.46132
 C1088 C 0.51220 0.50393 0.42449
 H1089 H 0.52600 0.44674 0.49611
 H1090 H 0.44377 0.48667 0.48737
 H1091 H 0.52164 0.53213 0.46167
 H1092 H 0.50317 0.52061 0.54823
 H1093 H 0.44604 0.42538 0.50129
 H1094 H 0.42326 0.49557 0.54396
 H1095 H 0.44250 0.53464 0.55418
 H1096 H 0.51169 0.57883 0.52820
 H1097 H 0.48476 0.41309 0.47236
 H1098 H 0.55559 0.45797 0.44562
 H1099 H 0.57151 0.49908 0.45173
 H1100 H 0.54755 0.57026 0.49572
 H1101 H 0.44996 0.43357 0.46230
 H1102 H 0.44763 0.51548 0.43207
 H1103 H 0.54754 0.47800 0.56656
 H1104 H 0.54735 0.55930 0.53473
 Zr1105 Zr 0.48200 1.02523 0.53230
 O1106 O 0.45698 1.01375 0.55871
 O1107 O 0.48781 1.06163 0.54202
 O1108 O 0.49792 1.02508 0.56641
 O1109 O 0.43801 1.03502 0.48949
 O1110 O 0.53401 1.00487 0.56070
 O1111 O 0.44689 1.04134 0.52840
 O1112 O 0.51652 1.07497 0.51552
 O1113 O 0.51942 1.03006 0.52560
 O1114 O 0.48512 1.04196 0.49928
 O1115 O 0.49751 0.99011 0.53333
 O1116 O 0.46411 1.00175 0.50833
 Zr1117 Zr 0.52174 0.98769 0.46781
 Zr1118 Zr 0.53452 0.99498 0.52486
 Zr1119 Zr 0.46924 1.01799 0.47518
 Zr1120 Zr 0.52224 1.04549 0.49209
 O1121 O 0.43756 0.99846 0.46528
 O1122 O 0.55676 1.05661 0.50495
 O1123 O 0.50623 1.02297 0.46637
 O1124 O 0.53920 1.01127 0.49178
 O1125 O 0.51871 0.97079 0.50079
 O1126 O 0.48440 0.98306 0.47470
 C1127 C 0.50244 1.07774 0.53360
 C1128 C 0.43274 1.04293 0.51033
 C1129 C 0.51829 1.01612 0.57371
 O1130 O 0.56748 1.01342 0.53254
 O1131 O 0.56399 0.97448 0.51128
 O1132 O 0.55576 0.96962 0.47206
 C1133 C 0.56913 0.96645 0.49045
 O1134 O 0.45436 0.96401 0.53492
 Zr1135 Zr 0.48143 0.96755 0.50801
 O1136 O 0.51714 0.95081 0.45898
 O1137 O 0.53895 0.96339 0.54570
 O1138 O 0.49334 0.93996 0.53135
 O1139 O 0.44884 0.95378 0.49302
 O1140 O 0.49126 0.93678 0.48776
 C1141 C 0.50508 0.93393 0.46953
 O1142 O 0.54769 0.99901 0.44218
 O1143 O 0.46336 1.05069 0.45635
 O1144 O 0.50666 0.98923 0.43339
 O1145 O 0.47160 1.01129 0.43871
 O1146 O 0.50937 1.07512 0.47175
 O1147 O 0.54539 1.05062 0.46218
 C1148 C 0.48714 0.99968 0.42578
 H1149 H 0.47700 1.05809 0.49880
 H1150 H 0.55669 1.01325 0.48765
 H1151 H 0.47633 0.97259 0.46278
 H1152 H 0.49527 0.98266 0.54908
 H1153 H 0.55845 1.07434 0.50195
 H1154 H 0.57646 1.00308 0.54382
 H1155 H 0.55497 0.96492 0.55356
 H1156 H 0.48348 0.92514 0.52820
 H1157 H 0.51982 1.08943 0.47531
 H1158 H 0.44737 1.04901 0.44847
 H1159 H 0.42866 1.00885 0.45399
 H1160 H 0.44793 0.93615 0.49677
 H1161 H 0.55297 1.06702 0.46301
 H1162 H 0.55110 0.98472 0.43180
 H1163 H 0.45350 1.02813 0.56897
 H1164 H 0.44912 0.94674 0.53598
 Zr1165 Zr -0.01792 0.52588 1.03289
 O1166 O -0.04299 0.51411 1.05914
 O1167 O -0.01214 0.56217 1.04301
 O1168 O -0.00207 0.52534 1.06705
 O1169 O -0.06182 0.53611 0.99007
 O1170 O 0.03405 0.50522 1.06120
 O1171 O -0.05304 0.54199 1.02907
 O1172 O 0.01663 0.57581 1.01672
 O1173 O 0.01951 0.53081 1.02633
 O1174 O -0.01473 0.54297 1.00005
 O1175 O -0.00238 0.49076 1.03360
 O1176 O -0.03573 0.50265 1.00863
 Zr1177 Zr 0.02199 0.48907 0.96810
 Zr1178 Zr 0.03464 0.49574 1.02526
 Zr1179 Zr -0.03054 0.51926 0.97566
 Zr1180 Zr 0.02240 0.54661 0.99298
 O1181 O -0.06219 0.49983 0.96550
 O1182 O 0.05689 0.55760 1.00600
 O1183 O 0.00646 0.52436 0.96699
 O1184 O 0.03938 0.51240 0.99236
 O1185 O 0.01890 0.47181 1.00091
 O1186 O -0.01536 0.48434 0.97487
 C1187 C 0.00251 0.57837 1.03479
 C1188 C -0.06714 0.54376 1.01099
 C1189 C 0.01829 0.51631 1.07430
 O1190 O 0.06757 0.51412 1.03320
 O1191 O 0.06415 0.47541 1.01152
 O1192 O 0.05602 0.47098 0.97224
 C1193 C 0.06934 0.46761 0.99062
 O1194 O -0.04555 0.46465 1.03480
 Zr1195 Zr -0.01839 0.46847 1.00801
 O1196 O 0.01748 0.45227 0.95892
 O1197 O 0.03905 0.46391 1.04577
 O1198 O -0.00655 0.44064 1.03111
 O1199 O -0.05092 0.45482 0.99280
 O1200 O -0.00845 0.43793 0.98750
 C1201 C 0.00544 0.43527 0.96930
 O1202 O 0.04797 0.50073 0.94265
 O1203 O -0.03637 0.55217 0.95715
 O1204 O 0.00696 0.49090 0.93367
 O1205 O -0.02812 0.51290 0.93912
 O1206 O 0.00954 0.57646 0.97295
 O1207 O 0.04560 0.55208 0.96317
 C1208 C -0.01255 0.50140 0.92612
 H1209 H -0.02287 0.55910 0.99972
 H1210 H 0.05687 0.51444 0.98828
 H1211 H -0.02339 0.47398 0.96283
 H1212 H -0.00466 0.48313 1.04927
 H1213 H 0.05857 0.57537 1.00319
 H1214 H 0.07654 0.50366 1.04438
 H1215 H 0.05505 0.46537 1.05368
 H1216 H -0.01640 0.42585 1.02779
 H1217 H 0.01998 0.59074 0.97668
 H1218 H -0.05234 0.55057 0.94922
 H1219 H -0.07107 0.51035 0.95430
 H1220 H -0.05182 0.43714 0.99637
 H1221 H 0.05315 0.56848 0.96417
 H1222 H 0.05143 0.48655 0.93212
 H1223 H -0.04649 0.52837 1.06953
 H1224 H -0.05079 0.44737 1.03568
 Zr1225 Zr -0.02065 0.47817 0.46781
 O1226 O -0.04556 0.49168 0.44273
 O1227 O -0.01716 0.44172 0.45725
 O1228 O -0.00534 0.47805 0.43315
 O1229 O -0.06411 0.46899 0.51207
 O1230 O 0.03174 0.49652 0.43778
 O1231 O -0.05619 0.46327 0.47271
 O1232 O 0.01119 0.42639 0.48250
 O1233 O 0.01662 0.47146 0.47287
 O1234 O -0.01764 0.46061 0.50037
 O1235 O -0.00355 0.51257 0.46685
 O1236 O -0.03701 0.50188 0.49293
 Zr1237 Zr 0.02200 0.51226 0.53138
 Zr1238 Zr 0.03334 0.50582 0.47373
 Zr1239 Zr -0.03200 0.48466 0.52553
 Zr1240 Zr 0.01938 0.45516 0.50593
 O1241 O -0.06259 0.50539 0.53684
 O1242 O 0.05284 0.44275 0.49102
 O1243 O 0.00488 0.47774 0.53273
 O1244 O 0.03794 0.48856 0.50626
 O1245 O 0.01912 0.53008 0.49892
 O1246 O -0.01519 0.51882 0.52611
 C1247 C -0.00349 0.42464 0.46503
 C1248 C -0.06998 0.46164 0.49129
 C1249 C 0.01530 0.48614 0.42522
 O1250 O 0.06543 0.48630 0.46459
 O1251 O 0.06378 0.52506 0.48657
 O1252 O 0.05650 0.52926 0.52618
 C1253 C 0.06955 0.53250 0.50735
 O1254 O -0.04550 0.54068 0.46757
 Zr1255 Zr -0.01807 0.53525 0.49328
 O1256 O 0.01931 0.54899 0.54129
 O1257 O 0.03871 0.53752 0.45313
 O1258 O -0.00537 0.56279 0.47002
 O1259 O -0.04960 0.55024 0.50987
 O1260 O -0.00622 0.56505 0.51377
 C1261 C 0.00806 0.56673 0.53153
 O1262 O 0.04802 0.49903 0.55554
 O1263 O -0.03905 0.45194 0.54409
 O1264 O 0.00771 0.51059 0.56635
 O1265 O -0.02857 0.49051 0.56201
 O1266 O 0.00586 0.42577 0.52648
 O1267 O 0.04316 0.44831 0.53457
 C1268 C -0.01214 0.50096 0.57453
 H1269 H -0.02647 0.44485 0.50095
 H1270 H 0.05540 0.48576 0.50965
 H1271 H -0.02250 0.52937 0.53857
 H1272 H -0.00576 0.52042 0.45133
 H1273 H 0.05369 0.42487 0.49349
 H1274 H 0.07459 0.49649 0.45313
 H1275 H 0.05452 0.53548 0.44469
 H1276 H -0.01440 0.57799 0.47392
 H1277 H 0.01555 0.41108 0.52221
 H1278 H -0.05479 0.45421 0.55261
 H1279 H -0.07174 0.49519 0.54829
 H1280 H -0.04968 0.56798 0.50655
 H1281 H 0.05020 0.43173 0.53286
 H1282 H 0.05236 0.51285 0.56611
 H1283 H -0.05000 0.47778 0.43228
 H1284 H -0.04994 0.55820 0.46709
 Zr1285 Zr 0.47952 -0.02117 -0.03222
 O1286 O 0.45481 -0.00709 -0.05718
 O1287 O 0.48271 -0.05751 -0.04321
 O1288 O 0.49495 -0.02112 -0.06683
 O1289 O 0.43592 -0.03054 0.01185
 O1290 O 0.53218 -0.00305 -0.06191
 O1291 O 0.44386 -0.03586 -0.02755
 O1292 O 0.51091 -0.07339 -0.01811
 O1293 O 0.51672 -0.02828 -0.02716
 O1294 O 0.48231 -0.03915 0.00014
 O1295 O 0.49694 0.01308 -0.03278
 O1296 O 0.46332 0.00240 -0.00689
 Zr1297 Zr 0.52234 0.01178 0.03180
 Zr1298 Zr 0.53375 0.00592 -0.02590
 Zr1299 Zr 0.46811 -0.01527 0.02552
 Zr1300 Zr 0.51927 -0.04500 0.00571
 O1301 O 0.43767 0.00559 0.03697
 O1302 O 0.55266 -0.05753 -0.00925
 O1303 O 0.50491 -0.02261 0.03273
 O1304 O 0.53813 -0.01177 0.00644
 O1305 O 0.51970 0.03001 -0.00048
 O1306 O 0.48522 0.01874 0.02651
 C1307 C 0.49625 -0.07479 -0.03562
 C1308 C 0.43003 -0.03761 -0.00902
 C1309 C 0.51570 -0.01318 -0.07461
 O1310 O 0.56572 -0.01374 -0.03514
 O1311 O 0.56429 0.02478 -0.01281
 O1312 O 0.55699 0.02856 0.02684
 C1313 C 0.57009 0.03194 0.00806
 O1314 O 0.45525 0.04160 -0.03183
 Zr1315 Zr 0.48257 0.03559 -0.00614
 O1316 O 0.51997 0.04840 0.04213
 O1317 O 0.53941 0.03778 -0.04619
 O1318 O 0.49559 0.06328 -0.02905
 O1319 O 0.45114 0.05067 0.01055
 O1320 O 0.49465 0.06502 0.01473
 C1321 C 0.50890 0.06635 0.03254
 O1322 O 0.54819 -0.00200 0.05584
 O1323 O 0.46075 -0.04814 0.04374
 O1324 O 0.50794 0.00985 0.06671
 O1325 O 0.47149 -0.00985 0.06205
 O1326 O 0.50543 -0.07453 0.02587
 O1327 O 0.54290 -0.05242 0.03432
 C1328 C 0.48797 0.00032 0.07473
 H1329 H 0.47335 -0.05485 0.00053
 H1330 H 0.55556 -0.01476 0.00984
 H1331 H 0.47798 0.02920 0.03907
 H1332 H 0.49485 0.02112 -0.04823
 H1333 H 0.55334 -0.07544 -0.00700
 H1334 H 0.57499 -0.00352 -0.04649
 H1335 H 0.55522 0.03569 -0.05462
 H1336 H 0.48671 0.07853 -0.02499
 H1337 H 0.51500 -0.08925 0.02143
 H1338 H 0.44501 -0.04582 0.05225
 H1339 H 0.42840 -0.00466 0.04829
 H1340 H 0.45124 0.06846 0.00743
 H1341 H 0.54980 -0.06904 0.03244
 H1342 H 0.55263 0.01165 0.06658
 H1343 H 0.45026 -0.02081 -0.06780
 H1344 H 0.45100 0.05917 -0.03213
 Zr1345 Zr 0.51886 0.52075 -0.03216
 O1346 O 0.54306 0.50924 -0.05942
 O1347 O 0.51476 0.55780 -0.03971
 O1348 O 0.50260 0.52245 -0.06605
 O1349 O 0.56388 0.52716 0.01029
 O1350 O 0.46573 0.50359 -0.06085
 O1351 O 0.55451 0.53550 -0.02805
 O1352 O 0.48756 0.57149 -0.01176
 O1353 O 0.48179 0.52701 -0.02472
 O1354 O 0.51696 0.53618 0.00172
 O1355 O 0.50180 0.48640 -0.03464
 O1356 O 0.53611 0.49555 -0.00971
 Zr1357 Zr 0.47845 0.48252 0.03099
 Zr1358 Zr 0.46516 0.49258 -0.02545
 Zr1359 Zr 0.53223 0.51066 0.02428
 Zr1360 Zr 0.48015 0.54111 0.00962
 O1361 O 0.56304 0.48922 0.03259
 O1362 O 0.44626 0.55437 -0.00269
 O1363 O 0.49561 0.51694 0.03387
 O1364 O 0.46167 0.50772 0.00847
 O1365 O 0.48023 0.46683 -0.00283
 O1366 O 0.51546 0.47646 0.02337
 C1367 C 0.50154 0.57436 -0.02983
 C1368 C 0.56899 0.53592 -0.01017
 C1369 C 0.48185 0.51450 -0.07355
 O1370 O 0.43299 0.51276 -0.03178
 O1371 O 0.43502 0.47283 -0.01240
 O1372 O 0.44370 0.46602 0.02637
 C1373 C 0.42992 0.46413 0.00808
 O1374 O 0.54381 0.45854 -0.03811
 Zr1375 Zr 0.51722 0.46217 -0.01072
 O1376 O 0.48154 0.44520 0.03797
 O1377 O 0.45895 0.46202 -0.04768
 O1378 O 0.50392 0.43611 -0.03532
 O1379 O 0.54925 0.44631 0.00325
 O1380 O 0.50602 0.43107 0.00796
 C1381 C 0.49243 0.42817 0.02630
 O1382 O 0.45323 0.49385 0.05743
 O1383 O 0.54014 0.54221 0.04464
 O1384 O 0.49382 0.48258 0.06531
 O1385 O 0.52991 0.50299 0.06044
 O1386 O 0.49434 0.56903 0.03173
 O1387 O 0.45732 0.54592 0.03987
 C1388 C 0.51383 0.49199 0.07311
 H1389 H 0.52581 0.55189 0.00302
 H1390 H 0.44434 0.51029 0.01295
 H1391 H 0.52315 0.46522 0.03472
 H1392 H 0.50352 0.47946 -0.05076
 H1393 H 0.44542 0.57202 0.00124
 H1394 H 0.42339 0.50325 -0.04340
 H1395 H 0.44290 0.46455 -0.05520
 H1396 H 0.51317 0.42077 -0.03306
 H1397 H 0.48445 0.58392 0.02920
 H1398 H 0.55615 0.53941 0.05215
 H1399 H 0.57262 0.49871 0.04423
 H1400 H 0.54927 0.42882 -0.00136
 H1401 H 0.45015 0.56251 0.03974
 H1402 H 0.44937 0.47933 0.06718
 H1403 H 0.54704 0.52382 -0.06903
 H1404 H 0.54843 0.44114 -0.03995
 Zr1405 Zr 0.01905 1.02006 0.46775
 O1406 O 0.04333 1.00792 0.44082
 O1407 O 0.01531 1.05702 0.45963
 O1408 O 0.00301 1.02145 0.43375
 O1409 O 0.06382 1.02686 0.51038
 O1410 O -0.03403 1.00293 0.43897
 O1411 O 0.05475 1.03466 0.47186
 O1412 O -0.01199 1.07130 0.48722
 O1413 O -0.01803 1.02670 0.47487
 O1414 O 0.01703 1.03601 0.50141
 O1415 O 0.00175 0.98581 0.46563
 O1416 O 0.03597 0.99509 0.49066
 Zr1417 Zr -0.02204 0.98309 0.53118
 Zr1418 Zr -0.03490 0.99239 0.47451
 Zr1419 Zr 0.03198 1.01074 0.52441
 Zr1420 Zr -0.01979 1.04132 0.50900
 O1421 O 0.06260 0.98922 0.53317
 O1422 O -0.05349 1.05462 0.49627
 O1423 O -0.00465 1.01742 0.53369
 O1424 O -0.03851 1.00805 0.50820
 O1425 O -0.02015 0.96689 0.49759
 O1426 O 0.01496 0.97665 0.52387
 C1427 C 0.00215 1.07381 0.46921
 C1428 C 0.06910 1.03529 0.48983
 C1429 C -0.01775 1.01357 0.42623
 O1430 O -0.06692 1.01264 0.46775
 O1431 O -0.06522 0.97295 0.48764
 O1432 O -0.05684 0.96669 0.52657
 C1433 C -0.07049 0.96456 0.50821
 O1434 O 0.04361 0.95760 0.46284
 Zr1435 Zr 0.01684 0.96184 0.48999
 O1436 O -0.01932 0.94587 0.53872
 O1437 O -0.04116 0.96158 0.45262
 O1438 O 0.00353 0.93552 0.46565
 O1439 O 0.04862 0.94592 0.50441
 O1440 O 0.00521 0.93111 0.50902
 C1441 C -0.00853 0.92859 0.52732
 O1442 O -0.04735 0.99504 0.55729
 O1443 O 0.03997 1.04251 0.54441
 O1444 O -0.00687 0.98349 0.56559
 O1445 O 0.02940 1.00357 0.56066
 O1446 O -0.00557 1.06948 0.53079
 O1447 O -0.04279 1.04675 0.53903
 C1448 C 0.01317 0.99285 0.57338
 H1449 H 0.02598 1.05168 0.50254
 H1450 H -0.05585 1.01079 0.51254
 H1451 H 0.02249 0.96551 0.53542
 H1452 H 0.00352 0.97863 0.44961
 H1453 H -0.05422 1.07234 0.49992
 H1454 H -0.07649 1.00304 0.45619
 H1455 H -0.05714 0.96411 0.44496
 H1456 H 0.01264 0.92014 0.46820
 H1457 H -0.01533 1.08440 0.52798
 H1458 H 0.05591 1.03971 0.55205
 H1459 H 0.07218 0.99881 0.54473
 H1460 H 0.04851 0.92836 0.50005
 H1461 H -0.04986 1.06337 0.53861
 H1462 H -0.05139 0.98071 0.56723
 H1463 H 0.04749 1.02231 0.43102
 H1464 H 0.04810 0.94015 0.46127
 Zr1465 Zr 0.73148 0.26779 0.21935
 O1466 O 0.74421 0.29187 0.19284
 O1467 O 0.69461 0.26435 0.21090
 O1468 O 0.73016 0.25159 0.18518
 O1469 O 0.72428 0.31271 0.26249
 O1470 O 0.74856 0.21453 0.18996
 O1471 O 0.71702 0.30353 0.22376
 O1472 O 0.67981 0.23715 0.23795
 O1473 O 0.72458 0.23074 0.22585
 O1474 O 0.71508 0.26592 0.25282
 O1475 O 0.76565 0.25039 0.21727
 O1476 O 0.75617 0.28473 0.24273
 Zr1477 Zr 0.76735 0.22676 0.28250
 Zr1478 Zr 0.75881 0.21376 0.22556
 Zr1479 Zr 0.74007 0.28087 0.27628
 Zr1480 Zr 0.70949 0.22912 0.25981
 O1481 O 0.76158 0.31146 0.28571
 O1482 O 0.69621 0.19547 0.24631
 O1483 O 0.73308 0.24426 0.28495
 O1484 O 0.74267 0.21029 0.25905
 O1485 O 0.78402 0.22852 0.24911
 O1486 O 0.77406 0.26375 0.27582
 C1487 C 0.67761 0.25135 0.22016
 C1488 C 0.71617 0.31793 0.24191
 C1489 C 0.73797 0.23075 0.17742
 O1490 O 0.73865 0.18167 0.21823
 O1491 O 0.77804 0.18347 0.23846
 O1492 O 0.78374 0.19195 0.27758
 C1493 C 0.78612 0.17826 0.25904
 O1494 O 0.79403 0.29219 0.21535
 Zr1495 Zr 0.78934 0.26550 0.24209
 O1496 O 0.80442 0.22948 0.29048
 O1497 O 0.78980 0.20742 0.20376
 O1498 O 0.81591 0.25200 0.21784
 O1499 O 0.80515 0.29732 0.25709
 O1500 O 0.81975 0.25389 0.26130
 C1501 C 0.82191 0.24017 0.27943
 O1502 O 0.75496 0.20146 0.30808
 O1503 O 0.70810 0.28907 0.29609
 O1504 O 0.76647 0.24191 0.31716
 O1505 O 0.74669 0.27829 0.31259
 O1506 O 0.68115 0.24340 0.28163
 O1507 O 0.70357 0.20607 0.28937
 C1508 C 0.75709 0.26198 0.32518
 H1509 H 0.69946 0.27494 0.25396
 H1510 H 0.73983 0.19295 0.26311
 H1511 H 0.78505 0.27128 0.28759
 H1512 H 0.77300 0.25209 0.20132
 H1513 H 0.67846 0.19482 0.24976
 H1514 H 0.74836 0.17208 0.20659
 H1515 H 0.78732 0.19140 0.19589
 H1516 H 0.83127 0.26108 0.22066
 H1517 H 0.66624 0.23367 0.27853
 H1518 H 0.71088 0.30503 0.30397
 H1519 H 0.75186 0.32109 0.29731
 H1520 H 0.82274 0.29717 0.25287
 H1521 H 0.68696 0.19900 0.28863
 H1522 H 0.76912 0.19740 0.31811
 H1523 H 0.73001 0.29611 0.18295
 H1524 H 0.81151 0.29659 0.21397
 Zr1525 Zr 0.77432 0.73231 0.71875
 O1526 O 0.76163 0.70726 0.69301
 O1527 O 0.81081 0.73655 0.70856
 O1528 O 0.77437 0.74771 0.68437
 O1529 O 0.78327 0.68867 0.76220
 O1530 O 0.75553 0.78460 0.68969
 O1531 O 0.78949 0.69684 0.72307
 O1532 O 0.82546 0.76496 0.73457
 O1533 O 0.78052 0.76967 0.72470
 O1534 O 0.79141 0.73537 0.75153
 O1535 O 0.73977 0.74904 0.71788
 O1536 O 0.75046 0.71555 0.74328
 Zr1537 Zr 0.73886 0.77429 0.78297
 Zr1538 Zr 0.74600 0.78600 0.72562
 Zr1539 Zr 0.76718 0.72061 0.77614
 Zr1540 Zr 0.79632 0.77246 0.75799
 O1541 O 0.74664 0.68971 0.78663
 O1542 O 0.80853 0.80624 0.74408
 O1543 O 0.77354 0.75755 0.78425
 O1544 O 0.76274 0.79063 0.75842
 O1545 O 0.72157 0.77136 0.75025
 O1546 O 0.73283 0.73702 0.77680
 C1547 C 0.82758 0.75047 0.71675
 C1548 C 0.79093 0.68293 0.74137
 C1549 C 0.76604 0.76826 0.67682
 O1550 O 0.76541 0.81827 0.71723
 O1551 O 0.72643 0.81626 0.73891
 O1552 O 0.72171 0.80875 0.77833
 C1553 C 0.71866 0.82190 0.75973
 O1554 O 0.71218 0.70669 0.71743
 Zr1555 Zr 0.71692 0.73412 0.74373
 O1556 O 0.70199 0.77122 0.79235
 O1557 O 0.71446 0.79120 0.70498
 O1558 O 0.68960 0.74653 0.72042
 O1559 O 0.70204 0.70235 0.75958
 O1560 O 0.68673 0.74561 0.76407
 C1561 C 0.68457 0.75979 0.78210
 O1562 O 0.75144 0.80026 0.80791
 O1563 O 0.79973 0.71386 0.79483
 O1564 O 0.74018 0.75967 0.81763
 O1565 O 0.76084 0.72371 0.81262
 O1566 O 0.82556 0.75905 0.77845
 O1567 O 0.80252 0.79607 0.78728
 C1568 C 0.74996 0.73986 0.82542
 H1569 H 0.80725 0.72672 0.75204
 H1570 H 0.76533 0.80811 0.76221
 H1571 H 0.72219 0.72951 0.78898
 H1572 H 0.73210 0.74681 0.70225
 H1573 H 0.82634 0.80733 0.74678
 H1574 H 0.75529 0.82742 0.70590
 H1575 H 0.71646 0.80706 0.69685
 H1576 H 0.67446 0.73727 0.72397
 H1577 H 0.84020 0.76894 0.77454
 H1578 H 0.79754 0.69804 0.80299
 H1579 H 0.75678 0.68060 0.79798
 H1580 H 0.68436 0.70209 0.75608
 H1581 H 0.81907 0.80324 0.78596
 H1582 H 0.73741 0.80436 0.81843
 H1583 H 0.77574 0.70311 0.68261
 H1584 H 0.69475 0.70198 0.71673
 Zr1585 Zr 0.22709 0.23046 0.78133
 O1586 O 0.24086 0.20523 0.80602
 O1587 O 0.19100 0.23445 0.79286
 O1588 O 0.22771 0.24555 0.81598
 O1589 O 0.21654 0.18740 0.73718
 O1590 O 0.24650 0.28247 0.81108
 O1591 O 0.21177 0.19507 0.77668
 O1592 O 0.17558 0.26344 0.76829
 O1593 O 0.22076 0.26787 0.77653
 O1594 O 0.20883 0.23393 0.74925
 O1595 O 0.26169 0.24714 0.78160
 O1596 O 0.25004 0.21400 0.75564
 Zr1597 Zr 0.26035 0.27320 0.71718
 Zr1598 Zr 0.25526 0.28419 0.77499
 Zr1599 Zr 0.23217 0.21948 0.72349
 Zr1600 Zr 0.20377 0.27110 0.74391
 O1601 O 0.25219 0.18868 0.71152
 O1602 O 0.19214 0.30477 0.75894
 O1603 O 0.22559 0.25652 0.71655
 O1604 O 0.23737 0.28925 0.74289
 O1605 O 0.27881 0.26986 0.74921
 O1606 O 0.26651 0.23586 0.72220
 C1607 C 0.17406 0.24867 0.78576
 C1608 C 0.20965 0.18141 0.75811
 C1609 C 0.23609 0.26609 0.82377
 O1610 O 0.23638 0.31651 0.78464
 O1611 O 0.27459 0.31449 0.76184
 O1612 O 0.27785 0.30748 0.72212
 C1613 C 0.28164 0.32035 0.74093
 O1614 O 0.28930 0.20490 0.78015
 Zr1615 Zr 0.28361 0.23253 0.75461
 O1616 O 0.29678 0.27010 0.70635
 O1617 O 0.28738 0.28897 0.79495
 O1618 O 0.31179 0.24486 0.77717
 O1619 O 0.29780 0.20083 0.73769
 O1620 O 0.31303 0.24401 0.73332
 C1621 C 0.31453 0.25841 0.71558
 O1622 O 0.24689 0.29954 0.69343
 O1623 O 0.19896 0.21304 0.70571
 O1624 O 0.25791 0.25911 0.68225
 O1625 O 0.23738 0.22308 0.68693
 O1626 O 0.17369 0.25793 0.72427
 O1627 O 0.19658 0.29499 0.71539
 C1628 C 0.24790 0.23941 0.67425
 H1629 H 0.19296 0.22529 0.74907
 H1630 H 0.23473 0.30678 0.73961
 H1631 H 0.27669 0.22847 0.70951
 H1632 H 0.26981 0.24474 0.79694
 H1633 H 0.17424 0.30588 0.75688
 H1634 H 0.24689 0.32545 0.79593
 H1635 H 0.28569 0.30475 0.80350
 H1636 H 0.32681 0.23571 0.77287
 H1637 H 0.15924 0.26778 0.72897
 H1638 H 0.20083 0.19734 0.69707
 H1639 H 0.24161 0.17975 0.70029
 H1640 H 0.31560 0.20049 0.74059
 H1641 H 0.18007 0.30210 0.71738
 H1642 H 0.26053 0.30381 0.68255
 H1643 H 0.22715 0.20087 0.81678
 H1644 H 0.30679 0.20035 0.78028
 Zr1645 Zr 0.27274 0.76902 0.28039
 O1646 O 0.26252 0.79308 0.30821
 O1647 O 0.30988 0.76404 0.28690
 O1648 O 0.27476 0.75231 0.31413
 O1649 O 0.27883 0.81457 0.23821
 O1650 O 0.25500 0.71590 0.30912
 O1651 O 0.28786 0.80456 0.27625
 O1652 O 0.32235 0.73690 0.25840
 O1653 O 0.27805 0.73189 0.27251
 O1654 O 0.28733 0.76725 0.24613
 O1655 O 0.23812 0.75265 0.28358
 O1656 O 0.24742 0.78708 0.25871
 Zr1657 Zr 0.23220 0.73017 0.21791
 Zr1658 Zr 0.24331 0.71597 0.27396
 Zr1659 Zr 0.26162 0.78330 0.22433
 Zr1660 Zr 0.29130 0.73040 0.23781
 O1661 O 0.24058 0.81459 0.21661
 O1662 O 0.30414 0.69607 0.24953
 O1663 O 0.26689 0.74665 0.21432
 O1664 O 0.25758 0.71259 0.23965
 O1665 O 0.21737 0.73188 0.25212
 O1666 O 0.22711 0.76724 0.22594
 C1667 C 0.32593 0.75061 0.27649
 C1668 C 0.28804 0.81930 0.25852
 C1669 C 0.26648 0.73166 0.32169
 O1670 O 0.26301 0.68333 0.27959
 O1671 O 0.22274 0.68631 0.26117
 O1672 O 0.21517 0.69563 0.22268
 C1673 C 0.21349 0.68163 0.24088
 O1674 O 0.21135 0.79527 0.28806
 Zr1675 Zr 0.21370 0.76890 0.26041
 O1676 O 0.19477 0.73417 0.21197
 O1677 O 0.21309 0.71010 0.29680
 O1678 O 0.18795 0.75593 0.28558
 O1679 O 0.19825 0.80144 0.24703
 O1680 O 0.18193 0.75858 0.24254
 C1681 C 0.17828 0.74526 0.22421
 O1682 O 0.24223 0.70498 0.19098
 O1683 O 0.29292 0.79091 0.20341
 O1684 O 0.23199 0.74591 0.18368
 O1685 O 0.25331 0.78149 0.18830
 O1686 O 0.31891 0.74433 0.21508
 O1687 O 0.29491 0.70780 0.20731
 C1688 C 0.24177 0.76575 0.17577
 H1689 H 0.30316 0.77583 0.24454
 H1690 H 0.25969 0.69526 0.23498
 H1691 H 0.21580 0.77529 0.21492
 H1692 H 0.23157 0.75432 0.29987
 H1693 H 0.32164 0.69488 0.24512
 H1694 H 0.25358 0.67377 0.29135
 H1695 H 0.21546 0.69390 0.30416
 H1696 H 0.17280 0.76561 0.28382
 H1697 H 0.33366 0.73412 0.21711
 H1698 H 0.29028 0.80708 0.19609
 H1699 H 0.25003 0.82413 0.20484
 H1700 H 0.18089 0.80181 0.25211
 H1701 H 0.31136 0.70033 0.20693
 H1702 H 0.22740 0.70161 0.18159
 H1703 H 0.27743 0.79662 0.31743
 H1704 H 0.19413 0.80033 0.29033
 Zr1705 Zr 0.23122 0.76909 0.71827
 O1706 O 0.24392 0.79318 0.69176
 O1707 O 0.19436 0.76560 0.70983
 O1708 O 0.22987 0.75288 0.68410
 O1709 O 0.22406 0.81400 0.76144
 O1710 O 0.24826 0.71581 0.68886
 O1711 O 0.21673 0.80482 0.72272
 O1712 O 0.17962 0.73837 0.73687
 O1713 O 0.22434 0.73203 0.72479
 O1714 O 0.21487 0.76722 0.75177
 O1715 O 0.26539 0.75168 0.71614
 O1716 O 0.25595 0.78603 0.74162
 Zr1717 Zr 0.26718 0.72806 0.78138
 Zr1718 Zr 0.25856 0.71505 0.72444
 Zr1719 Zr 0.23990 0.78216 0.77519
 Zr1720 Zr 0.20929 0.73041 0.75876
 O1721 O 0.26142 0.81275 0.78458
 O1722 O 0.19601 0.69673 0.74535
 O1723 O 0.23292 0.74555 0.78387
 O1724 O 0.24247 0.71158 0.75796
 O1725 O 0.28381 0.72981 0.74796
 O1726 O 0.27390 0.76505 0.77468
 C1727 C 0.17740 0.75255 0.71908
 C1728 C 0.21590 0.81922 0.74088
 C1729 C 0.23766 0.73204 0.67633
 O1730 O 0.23838 0.68297 0.71713
 O1731 O 0.27778 0.68473 0.73734
 O1732 O 0.28351 0.69322 0.77645
 C1733 C 0.28584 0.67951 0.75793
 O1734 O 0.29374 0.79351 0.71420
 Zr1735 Zr 0.28911 0.76679 0.74093
 O1736 O 0.30428 0.73074 0.78926
 O1737 O 0.28954 0.70870 0.70264
 O1738 O 0.31564 0.75334 0.71660
 O1739 O 0.30497 0.79858 0.75593
 O1740 O 0.31957 0.75513 0.76004
 C1741 C 0.32176 0.74139 0.77815
 O1742 O 0.25483 0.70279 0.80700
 O1743 O 0.20796 0.79036 0.79505
 O1744 O 0.26639 0.74321 0.81602
 O1745 O 0.24658 0.77958 0.81149
 O1746 O 0.18095 0.74472 0.78056
 O1747 O 0.20341 0.70743 0.78838
 C1748 C 0.25700 0.76328 0.82406
 H1749 H 0.19924 0.77623 0.75291
 H1750 H 0.23962 0.69425 0.76203
 H1751 H 0.28490 0.77256 0.78643
 H1752 H 0.27272 0.75338 0.70018
 H1753 H 0.17826 0.69608 0.74883
 H1754 H 0.24808 0.67337 0.70548
 H1755 H 0.28704 0.69268 0.69476
 H1756 H 0.33100 0.76243 0.71940
 H1757 H 0.16604 0.73499 0.77747
 H1758 H 0.21075 0.80632 0.80294
 H1759 H 0.25172 0.82239 0.79620
 H1760 H 0.32256 0.79843 0.75168
 H1761 H 0.18680 0.70036 0.78768
 H1762 H 0.26900 0.69872 0.81701
 H1763 H 0.22970 0.79742 0.68189
 H1764 H 0.31121 0.79795 0.71281
 Zr1765 Zr 0.27355 0.23171 0.21759
 O1766 O 0.26078 0.20672 0.19182
 O1767 O 0.31005 0.23586 0.20735
 O1768 O 0.27366 0.24713 0.18322
 O1769 O 0.28237 0.18801 0.26100
 O1770 O 0.25495 0.28408 0.18858
 O1771 O 0.28861 0.19617 0.22188
 O1772 O 0.32476 0.26426 0.23336
 O1773 O 0.27985 0.26904 0.22356
 O1774 O 0.29067 0.23470 0.25035
 O1775 O 0.23905 0.24853 0.21673
 O1776 O 0.24965 0.21500 0.24211
 Zr1777 Zr 0.23823 0.27375 0.28184
 Zr1778 Zr 0.24538 0.28547 0.22449
 Zr1779 Zr 0.26640 0.21999 0.27496
 Zr1780 Zr 0.29568 0.27177 0.25684
 O1781 O 0.24577 0.18916 0.28546
 O1782 O 0.30796 0.30555 0.24298
 O1783 O 0.27287 0.25691 0.28309
 O1784 O 0.26215 0.29004 0.25729
 O1785 O 0.22092 0.27089 0.24912
 O1786 O 0.23210 0.23649 0.27565
 C1787 C 0.32684 0.24978 0.21552
 C1788 C 0.29000 0.18224 0.24017
 C1789 C 0.26541 0.26773 0.17569
 O1790 O 0.26485 0.31772 0.21616
 O1791 O 0.22584 0.31575 0.23780
 O1792 O 0.22113 0.30823 0.27721
 C1793 C 0.21807 0.32139 0.25862
 O1794 O 0.21133 0.20625 0.21628
 Zr1795 Zr 0.21616 0.23366 0.24259
 O1796 O 0.20137 0.27078 0.29123
 O1797 O 0.21387 0.29075 0.20383
 O1798 O 0.18887 0.24615 0.21927
 O1799 O 0.20118 0.20195 0.25845
 O1800 O 0.18600 0.24527 0.26292
 C1801 C 0.18390 0.25945 0.28096
 O1802 O 0.25089 0.29968 0.30677
 O1803 O 0.29895 0.21312 0.29362
 O1804 O 0.23955 0.25910 0.31649
 O1805 O 0.26011 0.22309 0.31144
 O1806 O 0.32492 0.25826 0.27723
 O1807 O 0.30196 0.29531 0.28616
 C1808 C 0.24929 0.23927 0.32426
 H1809 H 0.30648 0.22600 0.25084
 H1810 H 0.26477 0.30752 0.26109
 H1811 H 0.22144 0.22902 0.28783
 H1812 H 0.23138 0.24634 0.20111
 H1813 H 0.32578 0.30659 0.24567
 H1814 H 0.25476 0.32690 0.20483
 H1815 H 0.21591 0.30661 0.19571
 H1816 H 0.17371 0.23694 0.22282
 H1817 H 0.33957 0.26811 0.27332
 H1818 H 0.29672 0.19731 0.30178
 H1819 H 0.25589 0.18001 0.29680
 H1820 H 0.18350 0.20175 0.25496
 H1821 H 0.31853 0.30243 0.28485
 H1822 H 0.23688 0.30381 0.31730
 H1823 H 0.27487 0.20252 0.18143
 H1824 H 0.19389 0.20157 0.21561
 Zr1825 Zr 0.72695 0.72930 0.28210
 O1826 O 0.74069 0.70411 0.30684
 O1827 O 0.69087 0.73336 0.29366
 O1828 O 0.72765 0.74449 0.31672
 O1829 O 0.71629 0.68618 0.23804
 O1830 O 0.74653 0.78135 0.31171
 O1831 O 0.71159 0.69391 0.27753
 O1832 O 0.67547 0.76232 0.26904
 O1833 O 0.72069 0.76671 0.27724
 O1834 O 0.70865 0.73274 0.25003
 O1835 O 0.76158 0.74591 0.28228
 O1836 O 0.74982 0.71275 0.25639
 Zr1837 Zr 0.76019 0.77184 0.21781
 Zr1838 Zr 0.75522 0.78296 0.27560
 Zr1839 Zr 0.73192 0.71820 0.22426
 Zr1840 Zr 0.70365 0.76991 0.24464
 O1841 O 0.75186 0.68734 0.21229
 O1842 O 0.69211 0.80362 0.25964
 O1843 O 0.72540 0.75524 0.21726
 O1844 O 0.73729 0.78799 0.24352
 O1845 O 0.77870 0.76853 0.24982
 O1846 O 0.76629 0.73449 0.22289
 C1847 C 0.67393 0.74759 0.28654
 C1848 C 0.70945 0.68022 0.25899
 C1849 C 0.73611 0.76502 0.32446
 O1850 O 0.73643 0.81534 0.28522
 O1851 O 0.77459 0.81319 0.26235
 O1852 O 0.77777 0.80608 0.22264
 C1853 C 0.78161 0.81899 0.24141
 O1854 O 0.78910 0.70362 0.28088
 Zr1855 Zr 0.78343 0.73120 0.25529
 O1856 O 0.79660 0.76862 0.20693
 O1857 O 0.78739 0.78772 0.29549
 O1858 O 0.81168 0.74353 0.27777
 O1859 O 0.79751 0.69942 0.23842
 O1860 O 0.81285 0.74254 0.23392
 C1861 C 0.81434 0.75690 0.21614
 O1862 O 0.74675 0.79816 0.19403
 O1863 O 0.69866 0.71178 0.20656
 O1864 O 0.75766 0.75769 0.18291
 O1865 O 0.73706 0.72172 0.18767
 O1866 O 0.67352 0.75677 0.22504
 O1867 O 0.69646 0.79378 0.21610
 C1868 C 0.74760 0.73800 0.17495
 H1869 H 0.69276 0.72413 0.24989
 H1870 H 0.73467 0.80552 0.24021
 H1871 H 0.77643 0.72706 0.21019
 H1872 H 0.76972 0.74353 0.29762
 H1873 H 0.67421 0.80476 0.25761
 H1874 H 0.74698 0.82429 0.29646
 H1875 H 0.78575 0.80353 0.30400
 H1876 H 0.82667 0.73433 0.27347
 H1877 H 0.65910 0.76665 0.22974
 H1878 H 0.70048 0.69606 0.19795
 H1879 H 0.74124 0.67842 0.20110
 H1880 H 0.81531 0.69905 0.24129
 H1881 H 0.67996 0.80093 0.21811
 H1882 H 0.76038 0.80237 0.18312
 H1883 H 0.72698 0.69980 0.31762
 H1884 H 0.80658 0.69904 0.28100
 Zr1885 Zr 0.77356 0.26798 0.78128
 O1886 O 0.76311 0.29200 0.80905
 O1887 O 0.81071 0.26320 0.78789
 O1888 O 0.77559 0.25130 0.81503
 O1889 O 0.77953 0.31356 0.73912
 O1890 O 0.75610 0.21475 0.80996
 O1891 O 0.78854 0.30358 0.77717
 O1892 O 0.82343 0.23616 0.75941
 O1893 O 0.77914 0.23089 0.77340
 O1894 O 0.78825 0.26631 0.74705
 O1895 O 0.73905 0.25138 0.78439
 O1896 O 0.74818 0.28588 0.75955
 Zr1897 Zr 0.73345 0.22889 0.71870
 Zr1898 Zr 0.74451 0.21474 0.77477
 Zr1899 Zr 0.76250 0.28221 0.72520
 Zr1900 Zr 0.79248 0.22949 0.73873
 O1901 O 0.74129 0.31339 0.71750
 O1902 O 0.80550 0.19523 0.75044
 O1903 O 0.76803 0.24560 0.71518
 O1904 O 0.75887 0.21146 0.74049
 O1905 O 0.71853 0.23049 0.75288
 O1906 O 0.72809 0.26592 0.72673
 C1907 C 0.82686 0.24987 0.77753
 C1908 C 0.78869 0.31833 0.75945
 C1909 C 0.76742 0.23060 0.82257
 O1910 O 0.76440 0.18223 0.78043
 O1911 O 0.72413 0.18498 0.76193
 O1912 O 0.71661 0.19426 0.72341
 C1913 C 0.71494 0.18025 0.74162
 O1914 O 0.71200 0.29387 0.78878
 Zr1915 Zr 0.71458 0.26748 0.76116
 O1916 O 0.69600 0.23258 0.71270
 O1917 O 0.71428 0.20866 0.79755
 O1918 O 0.68887 0.25438 0.78632
 O1919 O 0.69889 0.29987 0.74772
 O1920 O 0.68291 0.25685 0.74328
 C1921 C 0.67940 0.24350 0.72494
 O1922 O 0.74375 0.20380 0.69177
 O1923 O 0.79377 0.29001 0.70431
 O1924 O 0.73313 0.24468 0.68448
 O1925 O 0.75420 0.28040 0.68916
 O1926 O 0.82008 0.24361 0.71609
 O1927 O 0.79630 0.20695 0.70820
 C1928 C 0.74276 0.26461 0.67660
 H1929 H 0.80403 0.27498 0.74549
 H1930 H 0.76111 0.19415 0.73582
 H1931 H 0.71673 0.27389 0.71569
 H1932 H 0.73245 0.25301 0.80066
 H1933 H 0.82303 0.19416 0.74606
 H1934 H 0.75500 0.17260 0.79216
 H1935 H 0.71674 0.19248 0.80491
 H1936 H 0.67367 0.26396 0.78452
 H1937 H 0.83487 0.23347 0.71815
 H1938 H 0.79104 0.30616 0.69699
 H1939 H 0.75069 0.32300 0.70576
 H1940 H 0.68151 0.30011 0.75276
 H1941 H 0.81280 0.19958 0.70785
 H1942 H 0.72896 0.20031 0.68235
 H1943 H 0.77798 0.29563 0.81832
 H1944 H 0.69476 0.29883 0.79101
 C1945 C 0.45121 0.99935 0.34033
 C1946 C 0.46224 0.99873 0.35872
 C1947 C 0.47352 0.99811 0.38114
 C1948 C 0.48119 0.99822 0.40109
 C1949 C -0.04813 0.50092 0.84044
 C1950 C -0.03723 0.50045 0.85891
 C1951 C -0.02608 0.49994 0.88141
 C1952 C -0.01849 0.50005 0.90140
 C1953 C 0.04602 0.00120 0.83821
 C1954 C 0.03534 0.00330 0.85689
 C1955 C 0.02464 0.00520 0.87968
 C1956 C 0.01753 0.00583 0.89994
 C1957 C 0.54588 0.49983 0.33787
 C1958 C 0.53519 0.50201 0.35653
 C1959 C 0.52452 0.50401 0.37932
 C1960 C 0.51746 0.50476 0.39959
 C1961 C 0.54878 0.49309 0.15881
 C1962 C 0.53795 0.49178 0.14034
 C1963 C 0.52694 0.49057 0.11783
 C1964 C 0.51952 0.49042 0.09781
 C1965 C 0.04805 0.99439 0.65910
 C1966 C 0.03718 0.99306 0.64066
 C1967 C 0.02615 0.99176 0.61815
 C1968 C 0.01876 0.99150 0.59812
 C1969 C -0.04543 0.49940 0.66154
 C1970 C -0.03488 0.50068 0.64273
 C1971 C -0.02431 0.50178 0.61981
 C1972 C -0.01733 0.50200 0.59950
 C1973 C 0.45379 -0.00173 0.16134
 C1974 C 0.46462 -0.00038 0.14268
 C1975 C 0.47548 0.00084 0.11990
 C1976 C 0.48266 0.00118 0.09966
 C1977 C 0.34496 0.41857 0.00730
 C1978 C 0.36441 0.42896 0.00904
 C1979 C 0.38735 0.44104 0.01028
 C1980 C 0.40689 0.45143 0.01019
 C1981 C -0.15531 0.91871 0.50750
 C1982 C -0.13593 0.92924 0.50921
 C1983 C -0.11305 0.94144 0.51043
 C1984 C -0.09354 0.95189 0.51032
 C1985 C -0.15603 0.07942 0.99245
 C1986 C -0.13658 0.06898 0.99076
 C1987 C -0.11369 0.05680 0.98957
 C1988 C -0.09421 0.04635 0.98961
 C1989 C 0.34426 0.57909 0.49175
 C1990 C 0.36365 0.56854 0.49017
 C1991 C 0.38648 0.55624 0.48909
 C1992 C 0.40593 0.54572 0.48921
 C1993 C 0.15354 0.57992 0.50545
 C1994 C 0.13437 0.56902 0.50741
 C1995 C 0.11175 0.55633 0.50895
 C1996 C 0.09244 0.54550 0.50913
 C1997 C 0.65426 0.07902 0.00640
 C1998 C 0.63507 0.06815 0.00836
 C1999 C 0.61240 0.05553 0.00987
 C2000 C 0.59305 0.04479 0.00998
 C2001 C 0.65323 0.91940 0.49166
 C2002 C 0.63387 0.92987 0.48959
 C2003 C 0.61112 0.94227 0.48809
 C2004 C 0.59181 0.95310 0.48812
 C2005 C 0.15339 0.42045 0.99151
 C2006 C 0.13406 0.43099 0.98951
 C2007 C 0.11132 0.44344 0.98809
 C2008 C 0.09203 0.45428 0.98820
 C2009 C -0.00611 0.34053 0.42198
 C2010 C -0.00623 0.35978 0.43204
 C2011 C -0.00570 0.38233 0.44361
 C2012 C -0.00482 0.40169 0.45343
 C2013 C 0.49338 -0.15829 -0.07973
 C2014 C 0.49325 -0.13914 -0.06951
 C2015 C 0.49383 -0.11675 -0.05765
 C2016 C 0.49479 -0.09755 -0.04755
 C2017 C 0.00534 -0.15789 1.07373
 C2018 C 0.00508 -0.13956 1.06242
 C2019 C 0.00423 -0.11750 1.05035
 C2020 C 0.00321 -0.09815 1.04082
 C2021 C 0.50794 0.34194 0.57361
 C2022 C 0.50728 0.36035 0.56245
 C2023 C 0.50591 0.38246 0.55051
 C2024 C 0.50447 0.40181 0.54104
 C2025 C 0.50382 1.16025 0.57961
 C2026 C 0.50392 1.14164 0.56846
 C2027 C 0.50363 1.11967 0.55583
 C2028 C 0.50314 1.10062 0.54542
 C2029 C 0.00332 0.66058 1.08136
 C2030 C 0.00365 0.64199 1.07016
 C2031 C 0.00354 0.62010 1.05741
 C2032 C 0.00315 0.60113 1.04685
 C2033 C 0.50458 0.65873 -0.07086
 C2034 C 0.50418 0.64010 -0.06003
 C2035 C 0.50340 0.61766 -0.04864
 C2036 C 0.50257 0.59798 -0.03973
 C2037 C 0.00586 1.15800 0.42781
 C2038 C 0.00542 1.13931 0.43855
 C2039 C 0.00448 1.11689 0.44997
 C2040 C 0.00346 1.09729 0.45902
 C2041 C 0.74948 0.70415 0.91096
 C2042 C 0.74893 0.71533 0.89263
 C2043 C 0.74838 0.72668 0.87021
 C2044 C 0.74851 0.73424 0.85020
 C2045 C 0.24912 0.20343 0.40972
 C2046 C 0.24847 0.21465 0.39142
 C2047 C 0.24782 0.22604 0.36903
 C2048 C 0.24789 0.23364 0.34904
 C2049 C 0.75254 0.29591 0.41172
 C2050 C 0.75491 0.28525 0.39307
 C2051 C 0.75708 0.27455 0.37029
 C2052 C 0.75791 0.26741 0.35006
 C2053 C 0.25257 0.79702 0.91068
 C2054 C 0.25492 0.78641 0.89200
 C2055 C 0.25706 0.77578 0.86919
 C2056 C 0.25786 0.76868 0.84894
 C2057 C 0.24297 0.80058 0.08980
 C2058 C 0.24159 0.78988 0.10839
 C2059 C 0.24027 0.77899 0.13101
 C2060 C 0.24009 0.77158 0.15108
 C2061 C 0.74344 0.29970 0.59072
 C2062 C 0.74219 0.28895 0.60929
 C2063 C 0.74104 0.27798 0.63189
 C2064 C 0.74099 0.27050 0.65193
 C2065 C 0.24617 0.20514 0.58784
 C2066 C 0.24734 0.21604 0.60642
 C2067 C 0.24843 0.22697 0.62912
 C2068 C 0.24873 0.23416 0.64933
 C2069 C 0.74583 0.70395 0.08842
 C2070 C 0.74698 0.71476 0.10705
 C2071 C 0.74806 0.72559 0.12980
 C2072 C 0.74837 0.73274 0.15003
 C2073 C 0.16720 0.59694 0.24172
 C2074 C 0.17762 0.61640 0.24003
 C2075 C 0.18983 0.63931 0.23880
 C2076 C 0.20043 0.65876 0.23886
 C2077 C 0.66865 0.09557 0.74258
 C2078 C 0.67913 0.11501 0.74084
 C2079 C 0.69136 0.13790 0.73957
 C2080 C 0.70194 0.15735 0.73960
 C2081 C 0.83147 0.09324 0.25791
 C2082 C 0.82117 0.11274 0.25974
 C2083 C 0.80910 0.13569 0.26104
 C2084 C 0.79872 0.15521 0.26101
 C2085 C 0.33082 0.59427 0.75732
 C2086 C 0.32060 0.61384 0.75896
 C2087 C 0.30865 0.63685 0.76008
 C2088 C 0.29835 0.65642 0.75994
 C2089 C 0.32957 0.40403 0.74283
 C2090 C 0.31857 0.38493 0.74075
 C2091 C 0.30575 0.36239 0.73914
 C2092 C 0.29479 0.34315 0.73898
 C2093 C 0.82984 0.90249 0.24275
 C2094 C 0.81874 0.88343 0.24084
 C2095 C 0.80583 0.86094 0.23940
 C2096 C 0.79481 0.84174 0.23937
 C2097 C 0.67164 0.90613 0.75792
 C2098 C 0.68230 0.88686 0.76006
 C2099 C 0.69482 0.86414 0.76168
 C2100 C 0.70560 0.84479 0.76180
 C2101 C 0.17078 0.40549 0.25702
 C2102 C 0.18153 0.38626 0.25906
 C2103 C 0.19413 0.36358 0.26061
 C2104 C 0.20497 0.34426 0.26069
 C2105 C 0.09199 0.24767 0.83269
 C2106 C 0.11082 0.24751 0.82186
 C2107 C 0.13277 0.24765 0.80917
 C2108 C 0.15161 0.24802 0.79838
 C2109 C 0.59145 0.74664 0.33280
 C2110 C 0.61043 0.74646 0.32221
 C2111 C 0.63252 0.74658 0.30976
 C2112 C 0.65145 0.74694 0.29909
 C2113 C 0.59384 0.25674 0.17856
 C2114 C 0.61241 0.25598 0.18937
 C2115 C 0.63472 0.25452 0.20085
 C2116 C 0.65422 0.25306 0.20994
 C2117 C 0.09351 0.75693 0.67757
 C2118 C 0.11217 0.75646 0.68826
 C2119 C 0.13452 0.75534 0.69969
 C2120 C 0.15403 0.75409 0.70879
 C2121 C 0.91133 0.74792 0.67278
 C2122 C 0.89229 0.74834 0.68326
 C2123 C 0.86990 0.74901 0.69517
 C2124 C 0.85059 0.74967 0.70515
 C2125 C 0.41074 0.24798 0.17175
 C2126 C 0.39161 0.24815 0.18208
 C2127 C 0.36916 0.24855 0.19390
 C2128 C 0.34983 0.24905 0.20386
 C2129 C 0.41008 0.75232 0.31751
 C2130 C 0.39181 0.75198 0.30620
 C2131 C 0.36950 0.75146 0.29462
 C2132 C 0.34977 0.75102 0.28588
 C2133 C 0.91092 0.25209 0.81870
 C2134 C 0.89265 0.25161 0.80740
 C2135 C 0.87037 0.25095 0.79579
 C2136 C 0.85066 0.25040 0.78700
 C2137 C 0.55321 1.01178 0.65934
 C2138 C 0.54275 1.01467 0.64085
 C2139 C 0.53192 1.01708 0.61834
 C2140 C 0.52441 1.01774 0.59835
 C2141 C 0.05309 0.51126 1.16000
 C2142 C 0.04263 0.51424 1.14151
 C2143 C 0.03184 0.51682 1.11899
 C2144 C 0.02437 0.51766 1.09898
 C2145 C -0.05223 -0.01326 1.15957
 C2146 C -0.04195 -0.01540 1.14067
 C2147 C -0.03145 -0.01691 1.11773
 C2148 C -0.02422 -0.01685 1.09749
 C2149 C 0.44817 0.48687 0.65936
 C2150 C 0.45849 0.48474 0.64049
 C2151 C 0.46903 0.48324 0.61757
 C2152 C 0.47627 0.48329 0.59734
 C2153 C 0.44830 0.51120 -0.15979
 C2154 C 0.45828 0.51408 -0.14102
 C2155 C 0.46864 0.51632 -0.11826
 C2156 C 0.47587 0.51667 -0.09815
 C2157 C -0.05070 1.01004 0.33975
 C2158 C -0.04084 1.01289 0.35859
 C2159 C -0.03065 1.01514 0.38142
 C2160 C -0.02357 1.01556 0.40158
 C2161 C 0.04887 0.48896 0.33833
 C2162 C 0.03865 0.48652 0.35720
 C2163 C 0.02815 0.48466 0.38012
 C2164 C 0.02097 0.48436 0.40038
 C2165 C 0.55016 -0.01057 -0.16115
 C2166 C 0.53967 -0.01289 -0.14240
 C2167 C 0.52889 -0.01466 -0.11961
 C2168 C 0.52152 -0.01491 -0.09942
 C2169 C 0.65444 0.58059 -0.00869
 C2170 C 0.63516 0.56993 -0.01081
 C2171 C 0.61222 0.55784 -0.01240
 C2172 C 0.59250 0.54775 -0.01244
 C2173 C 0.15460 1.07989 0.49097
 C2174 C 0.13534 1.06918 0.48897
 C2175 C 0.11240 1.05707 0.48750
 C2176 C 0.09267 1.04701 0.48753
 C2177 C 0.15427 -0.08016 1.00575
 C2178 C 0.13493 -0.06958 1.00783
 C2179 C 0.11194 -0.05762 1.00947
 C2180 C 0.09217 -0.04771 1.00964
 C2181 C 0.65453 0.41946 0.50610
 C2182 C 0.63526 0.43018 0.50801
 C2183 C 0.61232 0.44228 0.50947
 C2184 C 0.59259 0.45227 0.50953
 C2185 C -0.15580 0.41764 0.49310
 C2186 C -0.13639 0.42814 0.49129
 C2187 C -0.11337 0.44009 0.48967
 C2188 C -0.09360 0.45004 0.48941
 C2189 C 0.34410 -0.08137 -0.00756
 C2190 C 0.36352 -0.07088 -0.00932
 C2191 C 0.38656 -0.05896 -0.01087
 C2192 C 0.40636 -0.04907 -0.01104
 C2193 C 0.34640 1.08579 0.50922
 C2194 C 0.36610 1.07594 0.51119
 C2195 C 0.38938 1.06454 0.51281
 C2196 C 0.40925 1.05477 0.51284
 C2197 C -0.15363 0.58635 1.01011
 C2198 C -0.13390 0.57655 1.01204
 C2199 C -0.11058 0.56522 1.01359
 C2200 C -0.09068 0.55552 1.01357
 C2201 C 0.01729 0.65398 0.56688
 C2202 C 0.01653 0.63398 0.55835
 C2203 C 0.01435 0.61049 0.54899
 C2204 C 0.01170 0.59038 0.54112
 C2205 C 0.51877 0.15341 0.06818
 C2206 C 0.51792 0.13337 0.05976
 C2207 C 0.51558 0.10990 0.05038
 C2208 C 0.51275 0.08987 0.04238
 C2209 C -0.01802 0.15736 0.93763
 C2210 C -0.01750 0.13746 0.94613
 C2211 C -0.01555 0.11385 0.95494
 C2212 C -0.01302 0.09353 0.96206
 C2213 C 0.48078 0.65643 0.43637
 C2214 C 0.48152 0.63656 0.44490
 C2215 C 0.48378 0.61301 0.45382
 C2216 C 0.48655 0.59278 0.46106
 C2217 C 0.50472 0.84520 0.43672
 C2218 C 0.50661 0.86542 0.44456
 C2219 C 0.50739 0.88936 0.45305
 C2220 C 0.50687 0.90988 0.46033
 C2221 C 0.00555 0.34649 0.93665
 C2222 C 0.00736 0.36678 0.94431
 C2223 C 0.00801 0.39077 0.95269
 C2224 C 0.00737 0.41129 0.95997
 C2225 C 0.49098 0.33991 0.05868
 C2226 C 0.48894 0.35968 0.05014
 C2227 C 0.48853 0.38342 0.04142
 C2228 C 0.48969 0.40395 0.03450
 C2229 C -0.01100 0.84053 0.56012
 C2230 C -0.01292 0.86032 0.55162
 C2231 C -0.01306 0.88403 0.54283
 C2232 C -0.01162 0.90449 0.53577
 C2233 C 0.26051 0.30181 0.08982
 C2234 C 0.26354 0.29136 0.10830
 C2235 C 0.26611 0.28067 0.13086
 C2236 C 0.26689 0.27341 0.15094
 C2237 C 0.76092 0.80193 0.59075
 C2238 C 0.76399 0.79163 0.60930
 C2239 C 0.76663 0.78108 0.63193
 C2240 C 0.76746 0.77389 0.65204
 C2241 C 0.23861 0.69792 0.58962
 C2242 C 0.23660 0.70818 0.60853
 C2243 C 0.23522 0.71870 0.63146
 C2244 C 0.23534 0.72598 0.65166
 C2245 C 0.73913 0.19682 0.09064
 C2246 C 0.73707 0.20703 0.10957
 C2247 C 0.73563 0.21748 0.13252
 C2248 C 0.73571 0.22472 0.15274
 C2249 C 0.76399 0.19705 0.90899
 C2250 C 0.76702 0.20690 0.89012
 C2251 C 0.76936 0.21718 0.86728
 C2252 C 0.76972 0.22443 0.84714
 C2253 C 0.26329 0.69791 0.40806
 C2254 C 0.26627 0.70780 0.38920
 C2255 C 0.26855 0.71814 0.36637
 C2256 C 0.26885 0.72544 0.34625
 C2257 C 0.73889 0.79888 0.41109
 C2258 C 0.73661 0.78855 0.39230
 C2259 C 0.73485 0.77797 0.36948
 C2260 C 0.73453 0.77074 0.34927
 C2261 C 0.23867 0.29977 0.91044
 C2262 C 0.23643 0.28947 0.89164
 C2263 C 0.23471 0.27893 0.86881
 C2264 C 0.23445 0.27175 0.84859
 C2265 C 0.83262 0.40428 0.75874
 C2266 C 0.82226 0.38479 0.76060
 C2267 C 0.81046 0.36165 0.76191
 C2268 C 0.80052 0.34184 0.76179
 C2269 C 0.33212 0.90518 0.25757
 C2270 C 0.32173 0.88570 0.25950
 C2271 C 0.30990 0.86258 0.26090
 C2272 C 0.29993 0.84279 0.26083
 C2273 C 0.17088 0.90439 0.74229
 C2274 C 0.18175 0.88520 0.74031
 C2275 C 0.19403 0.86237 0.73882
 C2276 C 0.20419 0.84272 0.73878
 C2277 C 0.67123 0.40313 0.24288
 C2278 C 0.68210 0.38394 0.24104
 C2279 C 0.69437 0.36110 0.23970
 C2280 C 0.70450 0.34144 0.23975
 C2281 C 0.66635 0.59401 0.25738
 C2282 C 0.67656 0.61355 0.25929
 C2283 C 0.68821 0.63670 0.26093
 C2284 C 0.69797 0.65657 0.26111
 C2285 C 0.16634 0.09526 0.75673
 C2286 C 0.17662 0.11479 0.75852
 C2287 C 0.18834 0.13792 0.76006
 C2288 C 0.19815 0.15776 0.76020
 C2289 C 0.33272 0.09568 0.24137
 C2290 C 0.32267 0.11532 0.23954
 C2291 C 0.31117 0.13859 0.23801
 C2292 C 0.30149 0.15852 0.23791
 C2293 C 0.83413 0.59661 0.74254
 C2294 C 0.82396 0.61619 0.74074
 C2295 C 0.81233 0.63939 0.73922
 C2296 C 0.80254 0.65926 0.73913
 C2297 C 0.90182 0.76456 0.18076
 C2298 C 0.88155 0.76404 0.18872
 C2299 C 0.85791 0.76231 0.19787
 C2300 C 0.83782 0.76008 0.20595
 C2301 C 0.40214 0.26587 0.68052
 C2302 C 0.38183 0.26551 0.68838
 C2303 C 0.35814 0.26387 0.69743
 C2304 C 0.33802 0.26165 0.70544
 C2305 C 0.40916 0.73230 0.81152
 C2306 C 0.38944 0.73297 0.80274
 C2307 C 0.36597 0.73510 0.79374
 C2308 C 0.34571 0.73774 0.78659
 C2309 C 0.90930 0.23155 0.31297
 C2310 C 0.88956 0.23211 0.30422
 C2311 C 0.86609 0.23409 0.29519
 C2312 C 0.84584 0.23662 0.28797
 C2313 C 0.09591 0.26217 0.31530
 C2314 C 0.11593 0.26399 0.30697
 C2315 C 0.13969 0.26403 0.29795
 C2316 C 0.16005 0.26254 0.29035
 C2317 C 0.59625 0.76209 0.81566
 C2318 C 0.61641 0.76397 0.80765
 C2319 C 0.64027 0.76414 0.79892
 C2320 C 0.66069 0.76277 0.79146
 C2321 C 0.58998 0.24227 0.69594
 C2322 C 0.61004 0.24033 0.70378
 C2323 C 0.63411 0.23991 0.71149
 C2324 C 0.65490 0.24097 0.71756
 C2325 C 0.08851 0.74462 0.19603
 C2326 C 0.10871 0.74269 0.20354
 C2327 C 0.13289 0.74213 0.21095
 C2328 C 0.15374 0.74298 0.21688
   
