data_POSCAR
  _audit_creation_date              2014-09-24
  _audit_creation_method            'ToBaCCo'
  _symmetry_space_group_name_H-M    'P1'
  _symmetry_Int_Tables_number       1
  _symmetry_cell_setting            triclinic
  loop_
  _symmetry_equiv_pos_as_xyz
 x,y,z
_cell_length_a 79.9629
_cell_length_b 79.1726
_cell_length_c 81.0292
_cell_angle_alpha 90.055600
_cell_angle_beta 90.325000
_cell_angle_gamma 89.893100
loop_
  _atom_site_label
  _atom_site_type_symbol
  _atom_site_fract_x
  _atom_site_fract_y
  _atom_site_fract_z
N1 N 0.17967 0.22044 0.22476
 N2 N 0.18363 0.20675 0.23308
 C3 C 0.17225 0.20432 0.24501
 C4 C 0.16055 0.21719 0.24420
 C5 C 0.16570 0.22725 0.23120
 H6 H 0.17251 0.19400 0.25373
 H7 H 0.15954 0.23845 0.22654
 Cu8 Cu 0.20321 0.19339 0.22758
 Cu9 Cu 0.19252 0.22785 0.20571
 Cu10 Cu 0.22710 0.20360 0.19518
 N11 N 0.22259 0.17993 0.22159
 N12 N 0.23201 0.18408 0.20901
 C13 C 0.24456 0.17282 0.20766
 C14 C 0.24288 0.16089 0.22004
 C15 C 0.22878 0.16583 0.22863
 H16 H 0.25405 0.17317 0.19822
 H17 H 0.22352 0.15972 0.23932
 N18 N 0.22010 0.22380 0.18273
 N19 N 0.20709 0.23316 0.18682
 C20 C 0.20545 0.24580 0.17580
 C21 C 0.21798 0.24428 0.16415
 C22 C 0.22702 0.23019 0.16899
 H23 H 0.19560 0.25515 0.17597
 H24 H 0.23786 0.22496 0.16292
 H25 H 0.20159 0.20424 0.19949
 H26 H 0.21506 0.21754 0.21314
 N27 N 0.68243 0.72331 0.72351
 N28 N 0.68609 0.70974 0.73215
 C29 C 0.67510 0.70830 0.74460
 C30 C 0.66401 0.72172 0.74377
 C31 C 0.66907 0.73100 0.73022
 H32 H 0.67527 0.69834 0.75372
 H33 H 0.66331 0.74235 0.72541
 Cu34 Cu 0.70505 0.69553 0.72642
 Cu35 Cu 0.69493 0.72974 0.70393
 Cu36 Cu 0.72832 0.70407 0.69310
 N37 N 0.72381 0.68122 0.72025
 N38 N 0.73296 0.68478 0.70730
 C39 C 0.74526 0.67326 0.70597
 C40 C 0.74378 0.66179 0.71877
 C41 C 0.72998 0.66724 0.72758
 H42 H 0.75453 0.67320 0.69631
 H43 H 0.72498 0.66162 0.73865
 N44 N 0.72164 0.72415 0.68032
 N45 N 0.70906 0.73403 0.68452
 C46 C 0.70760 0.74652 0.67332
 C47 C 0.71981 0.74437 0.66145
 C48 C 0.72848 0.73005 0.66633
 H49 H 0.69812 0.75626 0.67358
 H50 H 0.73903 0.72438 0.66016
 H51 H 0.70301 0.70569 0.69810
 H52 H 0.71730 0.71886 0.71106
 N53 N 0.32058 0.78149 0.72476
 N54 N 0.31570 0.79530 0.73236
 C55 C 0.32630 0.79851 0.74497
 C56 C 0.33837 0.78594 0.74536
 C57 C 0.33432 0.77537 0.73234
 H58 H 0.32514 0.80899 0.75345
 H59 H 0.34093 0.76410 0.72856
 Cu60 Cu 0.29562 0.80726 0.72527
 Cu61 Cu 0.30885 0.77242 0.70560
 Cu62 Cu 0.27293 0.79348 0.69297
 N63 N 0.27569 0.81926 0.71786
 N64 N 0.26665 0.81354 0.70549
 C65 C 0.25345 0.82382 0.70311
 C66 C 0.25421 0.83688 0.71456
 C67 C 0.26861 0.83350 0.72369
 H68 H 0.24417 0.82194 0.69355
 H69 H 0.27353 0.84070 0.73394
 N70 N 0.28143 0.77303 0.68188
 N71 N 0.29527 0.76522 0.68651
 C72 C 0.29817 0.75226 0.67612
 C73 C 0.28553 0.75185 0.66440
 C74 C 0.27511 0.76518 0.66847
 H75 H 0.30869 0.74373 0.67702
 H76 H 0.26400 0.76914 0.66187
 H77 H 0.29826 0.79497 0.69784
 H78 H 0.28555 0.78156 0.71193
 N79 N 0.81655 0.27779 0.22459
 N80 N 0.81407 0.29224 0.23212
 C81 C 0.82533 0.29387 0.24444
 C82 C 0.83543 0.27956 0.24477
 C83 C 0.82939 0.26966 0.23188
 H84 H 0.82584 0.30457 0.25269
 H85 H 0.83404 0.25752 0.22787
 Cu86 Cu 0.79608 0.30746 0.22559
 Cu87 Cu 0.80316 0.27069 0.20571
 Cu88 Cu 0.76911 0.29565 0.19552
 N89 N 0.77594 0.32039 0.22058
 N90 N 0.76537 0.31563 0.20902
 C91 C 0.75260 0.32670 0.20834
 C92 C 0.75525 0.33912 0.22014
 C93 C 0.77024 0.33467 0.22765
 H94 H 0.74226 0.32587 0.19974
 H95 H 0.77643 0.34121 0.23766
 N96 N 0.77503 0.27501 0.18326
 N97 N 0.78817 0.26564 0.18700
 C98 C 0.78927 0.25286 0.17607
 C99 C 0.77611 0.25417 0.16497
 C100 C 0.76733 0.26836 0.16994
 H101 H 0.79888 0.24325 0.17624
 H102 H 0.75637 0.27366 0.16404
 H103 H 0.79482 0.29423 0.19839
 H104 H 0.78190 0.28290 0.21408
 N105 N 0.81870 0.72036 0.27346
 N106 N 0.81366 0.70708 0.26508
 C107 C 0.82386 0.70473 0.25211
 C108 C 0.83599 0.71719 0.25236
 C109 C 0.83232 0.72687 0.26613
 H110 H 0.82264 0.69462 0.24323
 H111 H 0.83890 0.73798 0.27039
 Cu112 Cu 0.79430 0.69411 0.27193
 Cu113 Cu 0.80695 0.72836 0.29299
 Cu114 Cu 0.77237 0.70528 0.30551
 N115 N 0.77519 0.68105 0.27925
 N116 N 0.76652 0.68550 0.29229
 C117 C 0.75398 0.67439 0.29444
 C118 C 0.75490 0.66225 0.28213
 C119 C 0.76852 0.66693 0.27273
 H120 H 0.74500 0.67499 0.30435
 H121 H 0.77311 0.66063 0.26182
 N122 N 0.78033 0.72567 0.31721
 N123 N 0.79344 0.73445 0.31240
 C124 C 0.79562 0.74761 0.32272
 C125 C 0.78332 0.74713 0.33467
 C126 C 0.77386 0.73302 0.33077
 H127 H 0.80554 0.75678 0.32171
 H128 H 0.76296 0.72853 0.33723
 H129 H 0.79751 0.70511 0.29988
 H130 H 0.78370 0.71868 0.28679
 N131 N 0.32036 0.22358 -0.22253
 N132 N 0.31552 0.21096 -0.23192
 C133 C 0.32643 0.20914 -0.24441
 C134 C 0.33890 0.22127 -0.24276
 C135 C 0.33453 0.23016 -0.22864
 H136 H 0.32539 0.19957 -0.25387
 H137 H 0.34095 0.24081 -0.22322
 Cu138 Cu 0.29555 0.19799 -0.22675
 Cu139 Cu 0.30774 0.23089 -0.20337
 Cu140 Cu 0.27249 0.20781 -0.19330
 N141 N 0.27616 0.18470 -0.22042
 N142 N 0.26714 0.18862 -0.20746
 C143 C 0.25460 0.17739 -0.20601
 C144 C 0.25585 0.16573 -0.21871
 C145 C 0.26971 0.17079 -0.22759
 H146 H 0.24541 0.17758 -0.19628
 H147 H 0.27467 0.16487 -0.23855
 N148 N 0.28000 0.22768 -0.18054
 N149 N 0.29341 0.23645 -0.18446
 C150 C 0.29517 0.24931 -0.17373
 C151 C 0.28226 0.24867 -0.16244
 C152 C 0.27291 0.23473 -0.16713
 H153 H 0.30518 0.25845 -0.17405
 H154 H 0.26161 0.23022 -0.16136
 H155 H 0.29777 0.20733 -0.19813
 H156 H 0.28463 0.22183 -0.21097
 N157 N 0.68131 0.27938 -0.22281
 N158 N 0.68597 0.29322 -0.23041
 C159 C 0.67518 0.29643 -0.24285
 C160 C 0.66312 0.28380 -0.24322
 C161 C 0.66753 0.27320 -0.23023
 H162 H 0.67629 0.30699 -0.25119
 H163 H 0.66115 0.26192 -0.22625
 Cu164 Cu 0.70602 0.30533 -0.22362
 Cu165 Cu 0.69324 0.27053 -0.20364
 Cu166 Cu 0.72904 0.29188 -0.19136
 N167 N 0.72612 0.31721 -0.21659
 N168 N 0.73518 0.31174 -0.20411
 C169 C 0.74846 0.32194 -0.20205
 C170 C 0.74772 0.33457 -0.21385
 C171 C 0.73332 0.33115 -0.22285
 H172 H 0.75787 0.32035 -0.19255
 H173 H 0.72861 0.33813 -0.23335
 N174 N 0.72073 0.27159 -0.18000
 N175 N 0.70699 0.26359 -0.18455
 C176 C 0.70428 0.25074 -0.17402
 C177 C 0.71695 0.25058 -0.16231
 C178 C 0.72717 0.26397 -0.16654
 H179 H 0.69384 0.24212 -0.17479
 H180 H 0.73824 0.26812 -0.16000
 H181 H 0.70363 0.29318 -0.19611
 H182 H 0.71639 0.27977 -0.21024
 N183 N 0.18024 0.77704 0.27380
 N184 N 0.18535 0.78948 0.26438
 C185 C 0.17488 0.79097 0.25138
 C186 C 0.16263 0.77871 0.25267
 C187 C 0.16646 0.77008 0.26705
 H188 H 0.17614 0.80016 0.24162
 H189 H 0.15958 0.75971 0.27237
 Cu190 Cu 0.20522 0.80247 0.26994
 Cu191 Cu 0.19157 0.77103 0.29425
 Cu192 Cu 0.22623 0.79477 0.30532
 N193 N 0.22451 0.81584 0.27653
 N194 N 0.23243 0.81307 0.29050
 C195 C 0.24487 0.82439 0.29216
 C196 C 0.24488 0.83484 0.27838
 C197 C 0.23171 0.82892 0.26874
 H198 H 0.25336 0.82475 0.30257
 H199 H 0.22743 0.83390 0.25705
 N200 N 0.21797 0.77570 0.31863
 N201 N 0.20464 0.76684 0.31447
 C202 C 0.20206 0.75488 0.32597
 C203 C 0.21440 0.75617 0.33792
 C204 C 0.22431 0.76950 0.33284
 H205 H 0.19210 0.74568 0.32554
 H206 H 0.23524 0.77438 0.33912
 H207 H 0.20125 0.79487 0.29880
 H208 H 0.21509 0.77963 0.28772
 N209 N 0.47070 0.42779 0.47664
 N210 N 0.45795 0.43308 0.48542
 C211 C 0.45545 0.42226 0.49797
 C212 C 0.46733 0.40957 0.49709
 C213 C 0.47684 0.41352 0.48340
 H214 H 0.44582 0.42360 0.50719
 H215 H 0.48726 0.40638 0.47856
 Cu216 Cu 0.44593 0.45363 0.47969
 Cu217 Cu 0.47802 0.43957 0.45686
 Cu218 Cu 0.45613 0.47580 0.44583
 N219 N 0.43373 0.47387 0.47335
 N220 N 0.43754 0.48236 0.45996
 C221 C 0.42690 0.49548 0.45833
 C222 C 0.41590 0.49526 0.47148
 C223 C 0.42064 0.48136 0.48075
 H224 H 0.42725 0.50459 0.44841
 H225 H 0.41477 0.47688 0.49189
 N226 N 0.47533 0.46707 0.43317
 N227 N 0.48351 0.45319 0.43729
 C228 C 0.49567 0.45039 0.42619
 C229 C 0.49523 0.46316 0.41455
 C230 C 0.48219 0.47354 0.41940
 H231 H 0.50437 0.43994 0.42663
 H232 H 0.47787 0.48483 0.41321
 H233 H 0.46983 0.46336 0.46376
 H234 H 0.45505 0.45032 0.45122
 N235 N -0.02580 -0.06733 0.97152
 N236 N -0.03923 -0.06328 0.97993
 C237 C -0.04109 -0.07436 0.99240
 C238 C -0.02805 -0.08589 0.99184
 C239 C -0.01859 -0.08100 0.97841
 H240 H -0.05105 -0.07395 1.00136
 H241 H -0.00741 -0.08706 0.97385
 Cu242 Cu -0.05284 -0.04379 0.97392
 Cu243 Cu -0.01870 -0.05474 0.95217
 Cu244 Cu -0.04317 -0.02059 0.94056
 N245 N -0.06666 -0.02478 0.96692
 N246 N -0.06288 -0.01595 0.95375
 C247 C -0.07447 -0.00383 0.95148
 C248 C -0.08617 -0.00504 0.96393
 C249 C -0.08079 -0.01847 0.97355
 H250 H -0.07427 0.00533 0.94160
 H251 H -0.08683 -0.02341 0.98442
 N252 N -0.02277 -0.02725 0.92874
 N253 N -0.01358 -0.04043 0.93296
 C254 C -0.00076 -0.04186 0.92232
 C255 C -0.00187 -0.02888 0.91094
 C256 C -0.01597 -0.01987 0.91542
 H257 H 0.00881 -0.05150 0.92293
 H258 H -0.02102 -0.00888 0.90925
 H259 H -0.02916 -0.03196 0.95901
 H260 H -0.04228 -0.04616 0.94585
 N261 N 1.02619 0.56832 0.97574
 N262 N 1.04061 0.56505 0.98293
 C263 C 1.04256 0.57550 0.99594
 C264 C 1.02855 0.58578 0.99699
 C265 C 1.01845 0.58083 0.98395
 H266 H 1.05325 0.57548 1.00417
 H267 H 1.00647 0.58613 0.98050
 Cu268 Cu 1.05536 0.54725 0.97485
 Cu269 Cu 1.01865 0.55659 0.95604
 Cu270 Cu 1.04281 0.52327 0.94250
 N271 N 1.06762 0.52715 0.96797
 N272 N 1.06259 0.51784 0.95547
 C273 C 1.07306 0.50466 0.95367
 C274 C 1.08539 0.50569 0.96568
 C275 C 1.08155 0.52018 0.97453
 H276 H 1.07178 0.49508 0.94425
 H277 H 1.08817 0.52509 0.98515
 N278 N 1.02235 0.53067 0.93099
 N279 N 1.01304 0.54331 0.93627
 C280 C 0.99991 0.54525 0.92598
 C281 C 1.00098 0.53326 0.91357
 C282 C 1.01541 0.52425 0.91717
 H283 H 0.99038 0.55484 0.92731
 H284 H 1.02040 0.51368 0.91034
 H285 H 1.03079 0.53432 0.96230
 H286 H 1.04189 0.54882 0.94776
 N287 N 0.53183 0.07038 0.47329
 N288 N 0.54448 0.06498 0.48227
 C289 C 0.54676 0.07563 0.49508
 C290 C 0.53494 0.08843 0.49396
 C291 C 0.52570 0.08463 0.47997
 H292 H 0.55637 0.07428 0.50442
 H293 H 0.51509 0.09155 0.47514
 Cu294 Cu 0.55672 0.04466 0.47608
 Cu295 Cu 0.52381 0.05843 0.45385
 Cu296 Cu 0.54426 0.02135 0.44349
 N297 N 0.56822 0.02387 0.46999
 N298 N 0.56310 0.01474 0.45738
 C299 C 0.57322 0.00127 0.45569
 C300 C 0.58544 0.00196 0.46785
 C301 C 0.58185 0.01650 0.47671
 H302 H 0.57203 -0.00807 0.44603
 H303 H 0.58867 0.02136 0.48724
 N304 N 0.52499 0.03022 0.43093
 N305 N 0.51746 0.04455 0.43469
 C306 C 0.50519 0.04748 0.42362
 C307 C 0.50491 0.03434 0.41236
 C308 C 0.51763 0.02361 0.41740
 H309 H 0.49691 0.05828 0.42384
 H310 H 0.52143 0.01200 0.41147
 H311 H 0.53184 0.03483 0.46149
 H312 H 0.54625 0.04693 0.44783
 N313 N -0.02859 0.07007 0.52301
 N314 N -0.04179 0.06499 0.51467
 C315 C -0.04395 0.07503 0.50143
 C316 C -0.03144 0.08710 0.50145
 C317 C -0.02193 0.08356 0.51538
 H318 H -0.05397 0.07375 0.49252
 H319 H -0.01080 0.09010 0.51951
 Cu320 Cu -0.05507 0.04599 0.52218
 Cu321 Cu -0.02065 0.05835 0.54273
 Cu322 Cu -0.04158 0.02152 0.55329
 N323 N -0.06794 0.02668 0.52961
 N324 N -0.06263 0.01706 0.54178
 C325 C -0.07366 0.00444 0.54409
 C326 C -0.08664 0.00631 0.53281
 C327 C -0.08254 0.02059 0.52385
 H328 H -0.07231 -0.00533 0.55332
 H329 H -0.08949 0.02593 0.51363
 N330 N -0.02237 0.03040 0.56603
 N331 N -0.01455 0.04448 0.56207
 C332 C -0.00204 0.04714 0.57295
 C333 C -0.00196 0.03415 0.58438
 C334 C -0.01510 0.02381 0.57963
 H335 H 0.00638 0.05778 0.57259
 H336 H -0.01896 0.01222 0.58550
 H337 H -0.02945 0.03541 0.53508
 H338 H -0.04309 0.04720 0.54976
 N339 N 0.46957 0.56992 0.02458
 N340 N 0.45536 0.56618 0.01725
 C341 C 0.45255 0.57728 0.00497
 C342 C 0.46573 0.58858 0.00453
 C343 C 0.47633 0.58348 0.01716
 H344 H 0.44181 0.57705 -0.00318
 H345 H 0.48794 0.58937 0.02088
 Cu346 Cu 0.44190 0.54710 0.02428
 Cu347 Cu 0.47793 0.55722 0.04348
 Cu348 Cu 0.45457 0.52275 0.05607
 N349 N 0.42942 0.52725 0.03103
 N350 N 0.43442 0.51768 0.04334
 C351 C 0.42359 0.50480 0.04514
 C352 C 0.41108 0.50641 0.03332
 C353 C 0.41525 0.52082 0.02460
 H354 H 0.42468 0.49508 0.05445
 H355 H 0.40860 0.52610 0.01416
 N356 N 0.47533 0.52992 0.06733
 N357 N 0.48431 0.54291 0.06237
 C358 C 0.49757 0.54471 0.07253
 C359 C 0.49692 0.53230 0.08454
 C360 C 0.48262 0.52316 0.08083
 H361 H 0.50680 0.55459 0.07152
 H362 H 0.47789 0.51237 0.08747
 H363 H 0.46675 0.53459 0.03688
 H364 H 0.45501 0.54842 0.05151
 N365 N 0.52886 -0.07048 0.02623
 N366 N 0.54208 -0.06557 0.01796
 C367 C 0.54470 -0.07643 0.00540
 C368 C 0.53252 -0.08886 0.00596
 C369 C 0.52271 -0.08462 0.01934
 H370 H 0.55481 -0.07552 -0.00334
 H371 H 0.51174 -0.09120 0.02364
 Cu372 Cu 0.55459 -0.04559 0.02469
 Cu373 Cu 0.52039 -0.05822 0.04520
 Cu374 Cu 0.54175 -0.02215 0.05699
 N375 N 0.56623 -0.02504 0.03126
 N376 N 0.56106 -0.01592 0.04380
 C377 C 0.57113 -0.00245 0.04561
 C378 C 0.58336 -0.00313 0.03360
 C379 C 0.57984 -0.01768 0.02471
 H380 H 0.56977 0.00703 0.05512
 H381 H 0.58659 -0.02245 0.01416
 N382 N 0.52192 -0.03056 0.06873
 N383 N 0.51369 -0.04420 0.06408
 C384 C 0.50070 -0.04658 0.07430
 C385 C 0.50075 -0.03388 0.08602
 C386 C 0.51441 -0.02396 0.08212
 H387 H 0.49197 -0.05695 0.07344
 H388 H 0.51847 -0.01266 0.08847
 H389 H 0.52958 -0.03486 0.03824
 H390 H 0.54299 -0.04774 0.05241
 N391 N 1.02816 0.43264 0.52562
 N392 N 1.04179 0.43599 0.51726
 C393 C 1.04306 0.42497 0.50466
 C394 C 1.02947 0.41417 0.50510
 C395 C 1.02027 0.41945 0.51859
 H396 H 1.05301 0.42496 0.49568
 H397 H 1.00877 0.41401 0.52307
 Cu398 Cu 1.05652 0.45444 0.52358
 Cu399 Cu 1.02163 0.44559 0.54496
 Cu400 Cu 1.04491 0.48137 0.55358
 N401 N 1.07016 0.47384 0.52962
 N402 N 1.06554 0.48438 0.54128
 C403 C 1.07688 0.49687 0.54250
 C404 C 1.08934 0.49401 0.53101
 C405 C 1.08463 0.47924 0.52308
 H406 H 1.07607 0.50726 0.55113
 H407 H 1.09105 0.47311 0.51301
 N408 N 1.02589 0.47410 0.56721
 N409 N 1.01706 0.46044 0.56390
 C410 C 1.00510 0.45872 0.57539
 C411 C 1.00648 0.47188 0.58656
 C412 C 1.01985 0.48137 0.58099
 H413 H 0.99620 0.44848 0.57574
 H414 H 1.02479 0.49275 0.58653
 H415 H 1.03183 0.46732 0.53587
 H416 H 1.04492 0.45543 0.55119
 C417 C 0.40168 0.00631 0.22890
 H418 H 0.40227 0.01754 0.23650
 C419 C 0.41279 0.00428 0.21585
 H420 H 0.42173 0.01418 0.21333
 C421 C 0.38906 -0.02009 0.22299
 H422 H 0.37993 -0.02964 0.22598
 C423 C 0.40000 -0.02269 0.20983
 H424 H 0.39921 -0.03431 0.20283
 N425 N 0.39005 -0.00572 0.23213
 C426 C 0.35066 0.02131 0.25822
 H427 H 0.34984 0.01407 0.26950
 C428 C 0.34015 0.03521 0.25576
 H429 H 0.33146 0.03876 0.26536
 C430 C 0.36309 0.02549 0.23208
 H431 H 0.37180 0.02150 0.22272
 C432 C 0.35281 0.03941 0.22908
 H433 H 0.35376 0.04596 0.21740
 Zn434 Zn 0.37612 -0.00194 0.25051
 N435 N 0.36206 0.01693 0.24658
 C436 C 0.38860 0.01548 0.27891
 N437 N 0.39040 0.00187 0.26883
 C438 C 0.40291 -0.00952 0.27126
 C439 C 0.41398 -0.00772 0.28450
 C440 C 0.39933 0.01772 0.29239
 C441 C 0.34968 -0.02418 0.24377
 C442 C 0.33873 -0.03757 0.24667
 C443 C 0.35431 -0.04414 0.27148
 C444 C 0.36480 -0.03051 0.26822
 N445 N 0.36239 -0.02091 0.25451
 H446 H 0.37880 0.02459 0.27663
 H447 H 0.40424 -0.02008 0.26288
 H448 H 0.42393 -0.01688 0.28609
 H449 H 0.39741 0.02840 0.30052
 H450 H 0.34790 -0.01619 0.23308
 H451 H 0.32844 -0.03967 0.23817
 H452 H 0.35671 -0.05178 0.28230
 H453 H 0.37482 -0.02762 0.27673
 C454 C 0.34124 0.04455 0.24106
 C455 C 0.41209 -0.01040 0.20613
 C456 C 0.34094 -0.04778 0.26072
 C457 C 0.41220 0.00597 0.29538
 C458 C 0.10098 -0.00862 0.72573
 H459 H 0.10186 -0.02039 0.73245
 C460 C 0.08966 -0.00705 0.71264
 H461 H 0.08206 -0.01780 0.70919
 C462 C 0.10996 0.01962 0.72210
 H463 H 0.11764 0.03010 0.72605
 C464 C 0.09876 0.02177 0.70898
 H465 H 0.09798 0.03396 0.70296
 N466 N 0.11098 0.00454 0.73008
 C467 C 0.15269 -0.01936 0.75615
 H468 H 0.15252 -0.01224 0.76755
 C469 C 0.16445 -0.03221 0.75395
 H470 H 0.17310 -0.03506 0.76389
 C471 C 0.14130 -0.02437 0.72954
 H472 H 0.13245 -0.02110 0.71995
 C473 C 0.15294 -0.03723 0.72677
 H474 H 0.15288 -0.04370 0.71499
 Zn475 Zn 0.12550 0.00148 0.74839
 N476 N 0.14120 -0.01593 0.74417
 C477 C 0.11448 -0.01853 0.77549
 N478 N 0.11197 -0.00411 0.76670
 C479 C 0.09927 0.00665 0.77041
 C480 C 0.08869 0.00329 0.78365
 C481 C 0.10429 -0.02231 0.78892
 C482 C 0.14857 0.02691 0.74105
 C483 C 0.15850 0.04111 0.74388
 C484 C 0.14636 0.04361 0.77101
 C485 C 0.13661 0.02938 0.76763
 N486 N 0.13781 0.02141 0.75281
 H487 H 0.12435 -0.02716 0.77215
 H488 H 0.09736 0.01787 0.76302
 H489 H 0.07854 0.01194 0.78623
 H490 H 0.10680 -0.03365 0.79599
 H491 H 0.14943 0.02019 0.72945
 H492 H 0.16680 0.04541 0.73425
 H493 H 0.14544 0.04958 0.78300
 H494 H 0.12832 0.02458 0.77699
 C495 C 0.16462 -0.04144 0.73913
 C496 C 0.08842 0.00832 0.70405
 C497 C 0.15752 0.04966 0.75906
 C498 C 0.09119 -0.01132 0.79320
 C499 C 0.59519 0.49193 0.22942
 H500 H 0.59506 0.48049 0.23672
 C501 C 0.58412 0.49375 0.21617
 H502 H 0.57567 0.48351 0.21320
 C503 C 0.60658 0.51904 0.22443
 H504 H 0.61514 0.52898 0.22787
 C505 C 0.59567 0.52142 0.21109
 H506 H 0.59597 0.53325 0.20441
 N507 N 0.60628 0.50438 0.23316
 C508 C 0.64643 0.47774 0.25923
 H509 H 0.64704 0.48479 0.27067
 C510 C 0.65723 0.46408 0.25670
 H511 H 0.66594 0.46055 0.26637
 C512 C 0.63418 0.47373 0.23284
 H513 H 0.62541 0.47767 0.22343
 C514 C 0.64474 0.46006 0.22978
 H515 H 0.64395 0.45367 0.21798
 Zn516 Zn 0.62060 0.50071 0.25154
 N517 N 0.63500 0.48211 0.24749
 C518 C 0.60846 0.48264 0.27958
 N519 N 0.60668 0.49658 0.26993
 C520 C 0.59451 0.50818 0.27291
 C521 C 0.58375 0.50622 0.28626
 C522 C 0.59805 0.48026 0.29318
 C523 C 0.64525 0.52473 0.24396
 C524 C 0.65565 0.53864 0.24666
 C525 C 0.64330 0.54207 0.27360
 C526 C 0.63312 0.52814 0.27036
 N527 N 0.63414 0.51989 0.25567
 H528 H 0.61797 0.47338 0.27686
 H529 H 0.59320 0.51902 0.26488
 H530 H 0.57405 0.51554 0.28826
 H531 H 0.59999 0.46932 0.30096
 H532 H 0.64598 0.51779 0.23248
 H533 H 0.66418 0.54248 0.23704
 H534 H 0.64243 0.54829 0.28546
 H535 H 0.62457 0.52382 0.27971
 C536 C 0.65638 0.45495 0.24183
 C537 C 0.58426 0.50865 0.20677
 C538 C 0.65474 0.54754 0.26165
 C539 C 0.58553 0.49219 0.29674
 C540 C 0.90148 0.50579 0.72516
 H541 H 0.90219 0.51747 0.73207
 C542 C 0.91189 0.50324 0.71162
 H543 H 0.92042 0.51316 0.70804
 C544 C 0.88918 0.47886 0.72136
 H545 H 0.88051 0.46927 0.72536
 C546 C 0.89943 0.47572 0.70780
 H547 H 0.89852 0.46369 0.70151
 N548 N 0.89021 0.49381 0.72958
 C549 C 0.85253 0.52282 0.75610
 H550 H 0.85223 0.51597 0.76764
 C551 C 0.84213 0.53680 0.75376
 H552 H 0.83403 0.54080 0.76369
 C553 C 0.86358 0.52590 0.72920
 H554 H 0.87167 0.52140 0.71952
 C555 C 0.85336 0.53990 0.72631
 H556 H 0.85376 0.54604 0.71439
 Zn557 Zn 0.87655 0.49850 0.74802
 N558 N 0.86315 0.51780 0.74399
 C559 C 0.89129 0.51716 0.77437
 N560 N 0.89099 0.50211 0.76626
 C561 C 0.90156 0.48935 0.77051
 C562 C 0.91273 0.49129 0.78367
 C563 C 0.90227 0.51965 0.78760
 C564 C 0.85048 0.47646 0.74019
 C565 C 0.83894 0.46351 0.74260
 C566 C 0.85055 0.45911 0.76985
 C567 C 0.86191 0.47213 0.76690
 N568 N 0.86179 0.48037 0.75218
 H569 H 0.88318 0.52734 0.77049
 H570 H 0.90123 0.47761 0.76367
 H571 H 0.92080 0.48085 0.78706
 H572 H 0.90245 0.53178 0.79378
 H573 H 0.85049 0.48342 0.72871
 H574 H 0.83026 0.46039 0.73276
 H575 H 0.85069 0.45286 0.78173
 H576 H 0.87062 0.47577 0.77648
 C577 C 0.84249 0.54558 0.73871
 C578 C 0.91090 0.48806 0.70267
 C579 C 0.83887 0.45462 0.75759
 C580 C 0.91316 0.50660 0.79244
 C581 C 0.22749 0.40194 0.01015
 H582 H 0.23453 0.40169 0.02158
 C583 C 0.21486 0.41392 0.00786
 H584 H 0.21209 0.42270 0.01773
 C585 C 0.22247 0.39057 -0.01647
 H586 H 0.22566 0.38164 -0.02604
 C587 C 0.20976 0.40236 -0.01930
 H588 H 0.20331 0.40235 -0.03108
 N589 N 0.23087 0.39041 -0.00183
 C590 C 0.25407 0.34900 0.02539
 H591 H 0.26562 0.34767 0.01862
 C592 C 0.25098 0.33867 0.03898
 H593 H 0.26037 0.32957 0.04272
 C594 C 0.22801 0.36281 0.02883
 H595 H 0.21896 0.37203 0.02468
 C596 C 0.22437 0.35268 0.04244
 H597 H 0.21249 0.35425 0.04861
 Zn598 Zn 0.24820 0.37465 0.00242
 N599 N 0.24279 0.36099 0.02079
 C600 C 0.27577 0.38625 0.02168
 N601 N 0.26788 0.38724 0.00680
 C602 C 0.27332 0.39795 -0.00512
 C603 C 0.28745 0.40794 -0.00243
 C604 C 0.28994 0.39602 0.02490
 C605 C 0.23826 0.34990 -0.02026
 C606 C 0.23981 0.33863 -0.03344
 C607 C 0.26827 0.34805 -0.03706
 C608 C 0.26616 0.35916 -0.02383
 N609 N 0.25126 0.36003 -0.01586
 H610 H 0.27097 0.37810 0.03122
 H611 H 0.26665 0.39870 -0.01675
 H612 H 0.29172 0.41618 -0.01219
 H613 H 0.29589 0.39523 0.03691
 H614 H 0.22663 0.35066 -0.01354
 H615 H 0.22919 0.33094 -0.03694
 H616 H 0.28029 0.34741 -0.04311
 H617 H 0.27652 0.36692 -0.01985
 C618 C 0.23600 0.34050 0.04778
 C619 C 0.20573 0.41419 -0.00700
 C620 C 0.25497 0.33761 -0.04207
 C621 C 0.29597 0.40706 0.01276
 C622 C 0.72789 0.09761 -0.00703
 H623 H 0.73593 0.09680 -0.01770
 C624 C 0.71453 0.08644 -0.00538
 H625 H 0.71220 0.07726 -0.01503
 C626 C 0.72126 0.11066 0.01844
 H627 H 0.72412 0.11994 0.02782
 C628 C 0.70781 0.09968 0.02063
 H629 H 0.70047 0.10061 0.03178
 N630 N 0.73092 0.10950 0.00472
 C631 C 0.75854 0.15030 -0.01873
 H632 H 0.76887 0.15158 -0.01014
 C633 C 0.75709 0.16134 -0.03209
 H634 H 0.76630 0.17122 -0.03357
 C635 C 0.73373 0.13616 -0.02681
 H636 H 0.72455 0.12644 -0.02466
 C637 C 0.73187 0.14683 -0.04040
 H638 H 0.72141 0.14489 -0.04873
 Zn639 Zn 0.74987 0.12346 0.00201
 N640 N 0.74704 0.13791 -0.01643
 C641 C 0.77909 0.11123 -0.01399
 N642 N 0.76847 0.10901 -0.00114
 C643 C 0.77050 0.09599 0.00962
 C644 C 0.78378 0.08469 0.00782
 C645 C 0.79261 0.10030 -0.01619
 C646 C 0.74240 0.15000 0.02385
 C647 C 0.74499 0.16094 0.03716
 C648 C 0.76988 0.14516 0.04426
 C649 C 0.76689 0.13463 0.03075
 N650 N 0.75330 0.13716 0.02090
 H651 H 0.77715 0.12150 -0.02255
 H652 H 0.76171 0.09437 0.01959
 H653 H 0.78501 0.07428 0.01639
 H654 H 0.80111 0.10252 -0.02631
 H655 H 0.73181 0.15188 0.01568
 H656 H 0.73636 0.17131 0.03905
 H657 H 0.78064 0.14272 0.05206
 H658 H 0.77554 0.12450 0.02813
 C659 C 0.74366 0.15963 -0.04323
 C660 C 0.70430 0.08732 0.00864
 C661 C 0.75893 0.15864 0.04757
 C662 C 0.79511 0.08679 -0.00521
 C663 C 0.22824 0.60074 0.49096
 H664 H 0.23558 0.59962 0.47984
 C665 C 0.21434 0.59033 0.49328
 H666 H 0.21092 0.58138 0.48374
 C667 C 0.22379 0.61384 0.51687
 H668 H 0.22762 0.62281 0.52618
 C669 C 0.20985 0.60370 0.51969
 H670 H 0.20318 0.60500 0.53121
 N671 N 0.23253 0.61238 0.50259
 C672 C 0.25920 0.65378 0.47909
 H673 H 0.26964 0.65491 0.48757
 C674 C 0.25739 0.66526 0.46615
 H675 H 0.26644 0.67532 0.46489
 C676 C 0.23447 0.63954 0.47091
 H677 H 0.22548 0.62960 0.47287
 C678 C 0.23225 0.65068 0.45772
 H679 H 0.22169 0.64891 0.44948
 Zn680 Zn 0.25148 0.62627 0.49912
 N681 N 0.24791 0.64114 0.48114
 C682 C 0.27956 0.61469 0.48118
 N683 N 0.27011 0.61214 0.49485
 C684 C 0.27340 0.59914 0.50534
 C685 C 0.28678 0.58819 0.50235
 C686 C 0.29310 0.60414 0.47777
 C687 C 0.24420 0.65250 0.52078
 C688 C 0.24595 0.66294 0.53454
 C689 C 0.27063 0.64716 0.54239
 C690 C 0.26847 0.63707 0.52838
 N691 N 0.25528 0.63977 0.51804
 H692 H 0.27664 0.62491 0.47284
 H693 H 0.26551 0.59721 0.51598
 H694 H 0.28901 0.57777 0.51072
 H695 H 0.30062 0.60665 0.46699
 H696 H 0.23394 0.65448 0.51223
 H697 H 0.23706 0.67309 0.53636
 H698 H 0.28096 0.64454 0.55069
 H699 H 0.27723 0.62700 0.52589
 C700 C 0.24383 0.66374 0.45516
 C701 C 0.20488 0.59183 0.50777
 C702 C 0.25922 0.66026 0.54567
 C703 C 0.29686 0.59063 0.48840
 C704 C 0.73075 0.90116 0.50744
 H705 H 0.73794 0.90092 0.51879
 C706 C 0.71790 0.91294 0.50542
 H707 H 0.71513 0.92158 0.51540
 C708 C 0.72550 0.88986 0.48083
 H709 H 0.72866 0.88101 0.47119
 C710 C 0.71256 0.90145 0.47827
 H711 H 0.70589 0.90138 0.46660
 N712 N 0.73410 0.88973 0.49536
 C713 C 0.75719 0.84811 0.52229
 H714 H 0.76877 0.84678 0.51557
 C715 C 0.75403 0.83776 0.53584
 H716 H 0.76338 0.82862 0.53961
 C717 C 0.73115 0.86197 0.52566
 H718 H 0.72213 0.87122 0.52151
 C719 C 0.72744 0.85183 0.53924
 H720 H 0.71555 0.85342 0.54537
 Zn721 Zn 0.75148 0.87400 0.49948
 N722 N 0.74597 0.86016 0.51768
 C723 C 0.77883 0.88543 0.51908
 N724 N 0.77109 0.88659 0.50413
 C725 C 0.77659 0.89752 0.49243
 C726 C 0.79059 0.90761 0.49544
 C727 C 0.79287 0.89527 0.52261
 C728 C 0.74167 0.84937 0.47669
 C729 C 0.74326 0.83814 0.46349
 C730 C 0.77163 0.84779 0.45977
 C731 C 0.76948 0.85887 0.47303
 N732 N 0.75462 0.85958 0.48108
 H733 H 0.77398 0.87711 0.52845
 H734 H 0.77004 0.89841 0.48075
 H735 H 0.79489 0.91607 0.48589
 H736 H 0.79868 0.89435 0.53468
 H737 H 0.73006 0.85002 0.48345
 H738 H 0.73268 0.83037 0.46002
 H739 H 0.78362 0.84726 0.45367
 H740 H 0.77978 0.86671 0.47698
 C741 C 0.73903 0.83964 0.54461
 C742 C 0.70850 0.91310 0.49072
 C743 C 0.75840 0.83723 0.45482
 C744 C 0.79892 0.90657 0.51072
 C745 C 0.00951 0.22967 0.39801
 H746 H 0.02049 0.23763 0.39817
 C747 C 0.00819 0.21634 0.40918
 H748 H 0.01839 0.21393 0.41769
 C749 C -0.01712 0.22328 0.38668
 H750 H -0.02708 0.22623 0.37807
 C751 C -0.01900 0.20986 0.39769
 H752 H -0.03049 0.20265 0.39747
 N753 N -0.00300 0.23283 0.38701
 C754 C 0.01832 0.26041 0.34563
 H755 H 0.00953 0.27079 0.34481
 C756 C 0.03114 0.25896 0.33409
 H757 H 0.03203 0.26823 0.32432
 C758 C 0.02739 0.23547 0.35911
 H759 H 0.02583 0.22625 0.36878
 C760 C 0.04047 0.23359 0.34791
 H761 H 0.04902 0.22308 0.34937
 Zn762 Zn -0.00084 0.25190 0.37317
 N763 N 0.01680 0.24887 0.35794
 C764 C 0.01688 0.28096 0.38395
 N765 N 0.00364 0.27067 0.38694
 C766 C -0.00627 0.27304 0.40032
 C767 C -0.00312 0.28629 0.41128
 C768 C 0.02043 0.29441 0.39453
 C769 C -0.02400 0.24478 0.34817
 C770 C -0.03785 0.24747 0.33793
 C771 C -0.04502 0.27185 0.35440
 C772 C -0.03091 0.26882 0.36419
 N773 N -0.02073 0.25547 0.36092
 H774 H 0.02476 0.27876 0.37339
 H775 H -0.01655 0.26449 0.40256
 H776 H -0.01100 0.28777 0.42201
 H777 H 0.03086 0.30261 0.39176
 H778 H -0.01558 0.23437 0.34574
 H779 H -0.03986 0.23911 0.32753
 H780 H -0.05303 0.28244 0.35738
 H781 H -0.02806 0.27724 0.37431
 C782 C 0.04253 0.24546 0.33519
 C783 C -0.00627 0.20628 0.40920
 C784 C -0.04855 0.26124 0.34090
 C785 C 0.01041 0.29720 0.40846
 C786 C -0.00835 0.72743 0.09983
 H787 H -0.01965 0.73476 0.09805
 C788 C -0.00512 0.71353 0.08969
 H789 H -0.01398 0.71034 0.08004
 C790 C 0.01726 0.72328 0.11410
 H791 H 0.02608 0.72723 0.12347
 C792 C 0.02094 0.70924 0.10434
 H793 H 0.03243 0.70235 0.10660
 N794 N 0.00279 0.73201 0.11174
 C795 C -0.02324 0.76034 0.14997
 H796 H -0.01593 0.77183 0.15000
 C797 C -0.03605 0.75824 0.16140
 H798 H -0.03872 0.76836 0.16999
 C799 C -0.02855 0.73328 0.13859
 H800 H -0.02539 0.72348 0.12986
 C801 C -0.04144 0.73062 0.14986
 H802 H -0.04807 0.71871 0.14968
 Zn803 Zn -0.00171 0.75165 0.12432
 N804 N -0.01984 0.74802 0.13877
 C805 C -0.02066 0.77899 0.11120
 N806 N -0.00659 0.76949 0.10948
 C807 C 0.00419 0.77223 0.09684
 C808 C 0.00118 0.78518 0.08551
 C809 C -0.02408 0.79215 0.10024
 C810 C 0.02014 0.74695 0.15078
 C811 C 0.03370 0.75017 0.16121
 C812 C 0.04071 0.77422 0.14429
 C813 C 0.02691 0.77061 0.13425
 N814 N 0.01708 0.75704 0.13755
 H815 H -0.02925 0.77646 0.12111
 H816 H 0.01513 0.76429 0.09557
 H817 H 0.00984 0.78700 0.07545
 H818 H -0.03513 0.79981 0.10214
 H819 H 0.01198 0.73638 0.15324
 H820 H 0.03573 0.74210 0.17181
 H821 H 0.04861 0.78484 0.14122
 H822 H 0.02416 0.77861 0.12379
 C823 C -0.04534 0.74321 0.16148
 C824 C 0.00974 0.70423 0.09185
 C825 C 0.04429 0.76390 0.15797
 C826 C -0.01307 0.79545 0.08718
 C827 C 0.49477 0.22385 0.60321
 H828 H 0.48350 0.23125 0.60152
 C829 C 0.49794 0.21008 0.59293
 H830 H 0.48888 0.20679 0.58348
 C831 C 0.52019 0.21919 0.61770
 H832 H 0.52895 0.22295 0.62720
 C833 C 0.52389 0.20535 0.60766
 H834 H 0.53555 0.19864 0.60952
 N835 N 0.50578 0.22805 0.61537
 C836 C 0.47678 0.25599 0.65183
 H837 H 0.48388 0.26758 0.65267
 C838 C 0.46275 0.25371 0.66177
 H839 H 0.45896 0.26379 0.66998
 C840 C 0.47317 0.22885 0.64005
 H841 H 0.47744 0.21903 0.63183
 C842 C 0.45915 0.22598 0.64984
 H843 H 0.45285 0.21392 0.64901
 Zn844 Zn 0.50105 0.24734 0.62831
 N845 N 0.48157 0.24374 0.64107
 C846 C 0.48452 0.27598 0.61435
 N847 N 0.49819 0.26576 0.61363
 C848 C 0.51009 0.26801 0.60192
 C849 C 0.50866 0.28112 0.59049
 C850 C 0.48267 0.28936 0.60326
 C851 C 0.52069 0.24075 0.65608
 C852 C 0.53380 0.24281 0.66734
 C853 C 0.54320 0.26687 0.65162
 C854 C 0.52977 0.26447 0.64077
 N855 N 0.51899 0.25143 0.64306
 H856 H 0.47502 0.27384 0.62350
 H857 H 0.52068 0.25951 0.60142
 H858 H 0.51817 0.28248 0.58113
 H859 H 0.47190 0.29757 0.60435
 H860 H 0.51183 0.23058 0.65768
 H861 H 0.53473 0.23427 0.67773
 H862 H 0.55191 0.27701 0.64926
 H863 H 0.52814 0.27291 0.63043
 C864 C 0.45371 0.23852 0.66086
 C865 C 0.51270 0.20064 0.59504
 C866 C 0.54541 0.25591 0.66512
 C867 C 0.49483 0.29209 0.59110
 C868 C 0.50994 0.72979 0.90064
 H869 H 0.52036 0.73843 0.90166
 C870 C 0.50821 0.71672 0.91205
 H871 H 0.51729 0.71553 0.92194
 C872 C 0.48520 0.72130 0.88675
 H873 H 0.47621 0.72318 0.87693
 C874 C 0.48304 0.70799 0.89782
 H875 H 0.47251 0.69957 0.89616
 N876 N 0.49859 0.73176 0.88823
 C877 C 0.52280 0.75565 0.84643
 H878 H 0.51458 0.76634 0.84448
 C879 C 0.53593 0.75260 0.83554
 H880 H 0.53762 0.76096 0.82512
 C881 C 0.53008 0.73145 0.86210
 H882 H 0.52769 0.72315 0.87239
 C883 C 0.54343 0.72800 0.85160
 H884 H 0.55136 0.71721 0.85416
 Zn885 Zn 0.50187 0.74985 0.87338
 N886 N 0.52018 0.74517 0.85944
 C887 C 0.52050 0.77842 0.88384
 N888 N 0.50620 0.76945 0.88605
 C889 C 0.49507 0.77375 0.89796
 C890 C 0.49798 0.78774 0.90806
 C891 C 0.52396 0.79246 0.89371
 C892 C 0.47961 0.74106 0.84806
 C893 C 0.46595 0.74281 0.83739
 C894 C 0.45894 0.76898 0.85105
 C895 C 0.47283 0.76681 0.86136
 N896 N 0.48273 0.75292 0.85981
 H897 H 0.52939 0.77457 0.87458
 H898 H 0.48391 0.76624 0.89963
 H899 H 0.48882 0.79108 0.91729
 H900 H 0.53556 0.79923 0.89194
 H901 H 0.48786 0.73028 0.84690
 H902 H 0.46389 0.73335 0.82794
 H903 H 0.45103 0.77995 0.85276
 H904 H 0.47563 0.77626 0.87057
 C905 C 0.54651 0.73863 0.83807
 C906 C 0.49466 0.70552 0.91068
 C907 C 0.45534 0.75690 0.83883
 C908 C 0.51263 0.79728 0.90605
 C909 C 0.13903 0.20555 0.26338
 C910 C 0.12517 0.20759 0.27359
 C911 C 0.11781 0.22347 0.27559
 C912 C 0.12433 0.23739 0.26702
 C913 C 0.13812 0.23534 0.25664
 C914 C 0.14570 0.21941 0.25482
 N915 N 0.10382 0.22506 0.28643
 N916 N 0.09743 0.23927 0.29020
 C917 C 0.08347 0.24057 0.30113
 C918 C 0.07823 0.25654 0.30639
 C919 C 0.06492 0.25818 0.31740
 C920 C 0.05650 0.24380 0.32325
 C921 C 0.06166 0.22777 0.31772
 C922 C 0.07505 0.22616 0.30683
 H923 H 0.14441 0.19307 0.26209
 H924 H 0.12022 0.19676 0.28008
 H925 H 0.11880 0.24981 0.26835
 H926 H 0.14302 0.24628 0.25029
 H927 H 0.08465 0.26774 0.30212
 H928 H 0.06145 0.27069 0.32157
 H929 H 0.05528 0.21646 0.32172
 H930 H 0.07877 0.21366 0.30284
 C931 C 0.64304 0.74168 0.75596
 C932 C 0.62965 0.74504 0.76649
 C933 C 0.62266 0.73213 0.77596
 C934 C 0.62930 0.71572 0.77489
 C935 C 0.64278 0.71237 0.76449
 C936 C 0.64978 0.72530 0.75487
 N937 N 0.60893 0.73600 0.78660
 N938 N 0.60103 0.72457 0.79435
 C939 C 0.58743 0.72841 0.80515
 C940 C 0.57824 0.71513 0.81191
 C941 C 0.56490 0.71841 0.82251
 C942 C 0.56060 0.73513 0.82667
 C943 C 0.56993 0.74845 0.81988
 C944 C 0.58318 0.74514 0.80917
 H945 H 0.64823 0.75196 0.74886
 H946 H 0.62467 0.75775 0.76726
 H947 H 0.62412 0.70552 0.78212
 H948 H 0.64757 0.69959 0.76384
 H949 H 0.58137 0.70219 0.80887
 H950 H 0.55783 0.70786 0.82729
 H951 H 0.56715 0.76144 0.82302
 H952 H 0.59019 0.75562 0.80418
 C953 C 0.35844 0.79799 0.76616
 C954 C 0.37182 0.79614 0.77720
 C955 C 0.37924 0.78032 0.77968
 C956 C 0.37317 0.76629 0.77088
 C957 C 0.35992 0.76815 0.75971
 C958 C 0.35239 0.78402 0.75724
 N959 N 0.39299 0.77886 0.79100
 N960 N 0.39908 0.76459 0.79508
 C961 C 0.41303 0.76303 0.80614
 C962 C 0.41775 0.74696 0.81162
 C963 C 0.43138 0.74496 0.82230
 C964 C 0.44070 0.75904 0.82758
 C965 C 0.43594 0.77519 0.82198
 C966 C 0.42220 0.77718 0.81141
 H967 H 0.35301 0.81040 0.76444
 H968 H 0.37642 0.80706 0.78388
 H969 H 0.37871 0.75392 0.77256
 H970 H 0.35547 0.75710 0.75317
 H971 H 0.41076 0.73596 0.80765
 H972 H 0.43449 0.73238 0.82658
 H973 H 0.44299 0.78628 0.82553
 H974 H 0.41888 0.78973 0.80722
 C975 C -0.14304 0.26008 0.25523
 C976 C -0.12978 0.25649 0.26598
 C977 C -0.12420 0.26858 0.27729
 C978 C -0.13219 0.28436 0.27788
 C979 C -0.14560 0.28794 0.26730
 C980 C -0.15121 0.27590 0.25568
 N981 N -0.11053 0.26451 0.28810
 N982 N -0.10355 0.27562 0.29716
 C983 C -0.09001 0.27166 0.30815
 C984 C -0.08121 0.28488 0.31560
 C985 C -0.06776 0.28152 0.32619
 C986 C -0.06301 0.26478 0.32974
 C987 C -0.07208 0.25150 0.32238
 C988 C -0.08540 0.25490 0.31162
 H989 H -0.14688 0.25029 0.24673
 H990 H -0.12376 0.24423 0.26545
 H991 H -0.12815 0.29390 0.28661
 H992 H -0.15134 0.30027 0.26824
 H993 H -0.08465 0.29785 0.31301
 H994 H -0.06093 0.29208 0.33137
 H995 H -0.06901 0.23846 0.32507
 H996 H -0.09214 0.24445 0.30613
 C997 C -0.15094 0.71191 0.22476
 C998 C -0.13801 0.71418 0.21346
 C999 C -0.12413 0.72407 0.21755
 C1000 C -0.12333 0.73182 0.23315
 C1001 C -0.13632 0.72965 0.24445
 C1002 C -0.15026 0.71962 0.24039
 N1003 N -0.11110 0.72604 0.20565
 N1004 N -0.09768 0.73405 0.20883
 C1005 C -0.08475 0.73607 0.19683
 C1006 C -0.06995 0.74425 0.20143
 C1007 C -0.05712 0.74650 0.19000
 C1008 C -0.05892 0.74065 0.17368
 C1009 C -0.07381 0.73241 0.16911
 C1010 C -0.08661 0.73012 0.18058
 H1011 H -0.16153 0.70426 0.22112
 H1012 H -0.13879 0.70819 0.20146
 H1013 H -0.11272 0.73955 0.23660
 H1014 H -0.13532 0.73567 0.25641
 H1015 H -0.06834 0.74884 0.21393
 H1016 H -0.04572 0.75265 0.19401
 H1017 H -0.07569 0.72796 0.15660
 H1018 H -0.09797 0.72381 0.17670
 C1019 C 0.36497 0.23625 0.75099
 C1020 C 0.37869 0.23903 0.74076
 C1021 C 0.38055 0.22989 0.72614
 C1022 C 0.36855 0.21771 0.72187
 C1023 C 0.35488 0.21476 0.73216
 C1024 C 0.35279 0.22404 0.74689
 N1025 N 0.39476 0.23319 0.71596
 N1026 N 0.39645 0.22663 0.70172
 C1027 C 0.41081 0.22987 0.69171
 C1028 C 0.41111 0.22370 0.67554
 C1029 C 0.42495 0.22661 0.66547
 C1030 C 0.43885 0.23566 0.67148
 C1031 C 0.43849 0.24180 0.68778
 C1032 C 0.42459 0.23899 0.69778
 H1033 H 0.36416 0.24367 0.76216
 H1034 H 0.38791 0.24842 0.74421
 H1035 H 0.36976 0.21042 0.71063
 H1036 H 0.34594 0.20528 0.72835
 H1037 H 0.40055 0.21670 0.67070
 H1038 H 0.42467 0.22192 0.65292
 H1039 H 0.44907 0.24855 0.69292
 H1040 H 0.42470 0.24380 0.71029
 C1041 C 0.64575 0.29485 0.73410
 C1042 C 0.63225 0.29312 0.72319
 C1043 C 0.62240 0.27857 0.72337
 C1044 C 0.62605 0.26575 0.73479
 C1045 C 0.63937 0.26753 0.74589
 C1046 C 0.64953 0.28209 0.74570
 N1047 N 0.60875 0.27715 0.71194
 N1048 N 0.60099 0.26330 0.70974
 C1049 C 0.58716 0.26182 0.69854
 C1050 C 0.58110 0.24575 0.69467
 C1051 C 0.56765 0.24381 0.68377
 C1052 C 0.55979 0.25801 0.67669
 C1053 C 0.56586 0.27419 0.68073
 C1054 C 0.57947 0.27608 0.69149
 H1055 H 0.65298 0.30634 0.73346
 H1056 H 0.62952 0.30312 0.71447
 H1057 H 0.61855 0.25439 0.73521
 H1058 H 0.64171 0.25729 0.75442
 H1059 H 0.58695 0.23466 0.70001
 H1060 H 0.56356 0.23115 0.68072
 H1061 H 0.55996 0.28542 0.67578
 H1062 H 0.58385 0.28867 0.69442
 C1063 C 0.14071 0.75965 0.24074
 C1064 C 0.12733 0.75667 0.22997
 C1065 C 0.12135 0.76953 0.21969
 C1066 C 0.12903 0.78547 0.22014
 C1067 C 0.14255 0.78842 0.23077
 C1068 C 0.14847 0.77556 0.24124
 N1069 N 0.10752 0.76606 0.20894
 N1070 N 0.10020 0.77757 0.20064
 C1071 C 0.08644 0.77390 0.18984
 C1072 C 0.07741 0.78727 0.18284
 C1073 C 0.06373 0.78408 0.17249
 C1074 C 0.05895 0.76738 0.16882
 C1075 C 0.06824 0.75399 0.17570
 C1076 C 0.08180 0.75721 0.18616
 H1077 H 0.14508 0.74943 0.24851
 H1078 H 0.12154 0.74432 0.22968
 H1079 H 0.12464 0.79561 0.21227
 H1080 H 0.14817 0.80084 0.23096
 H1081 H 0.08086 0.80019 0.18561
 H1082 H 0.05673 0.79469 0.16761
 H1083 H 0.06514 0.74100 0.17287
 H1084 H 0.08870 0.74665 0.19129
 C1085 C 0.24801 0.13269 0.23324
 C1086 C 0.25826 0.11875 0.23644
 C1087 C 0.27440 0.11794 0.22996
 C1088 C 0.28022 0.13126 0.22009
 C1089 C 0.26996 0.14518 0.21680
 C1090 C 0.25374 0.14608 0.22338
 N1091 N 0.28457 0.10347 0.23352
 N1092 N 0.29966 0.10237 0.22875
 C1093 C 0.30982 0.08786 0.23217
 C1094 C 0.32653 0.08790 0.22720
 C1095 C 0.33676 0.07391 0.23019
 C1096 C 0.33040 0.05953 0.23817
 C1097 C 0.31359 0.05955 0.24321
 C1098 C 0.30338 0.07360 0.24026
 H1099 H 0.23555 0.13285 0.23836
 H1100 H 0.25361 0.10853 0.24401
 H1101 H 0.29267 0.13091 0.21492
 H1102 H 0.27483 0.15530 0.20927
 H1103 H 0.33163 0.09884 0.22101
 H1104 H 0.34971 0.07441 0.22638
 H1105 H 0.30825 0.04861 0.24918
 H1106 H 0.29047 0.07324 0.24416
 C1107 C 0.74929 0.63407 0.73283
 C1108 C 0.75958 0.62015 0.73606
 C1109 C 0.77544 0.61900 0.72895
 C1110 C 0.78094 0.63197 0.71848
 C1111 C 0.77063 0.64584 0.71517
 C1112 C 0.75469 0.64706 0.72231
 N1113 N 0.78567 0.60456 0.73245
 N1114 N 0.80048 0.60320 0.72695
 C1115 C 0.81076 0.58874 0.73022
 C1116 C 0.82715 0.58853 0.72432
 C1117 C 0.83749 0.57458 0.72713
 C1118 C 0.83155 0.56050 0.73589
 C1119 C 0.81505 0.56076 0.74183
 C1120 C 0.80474 0.57476 0.73905
 H1121 H 0.73704 0.63451 0.73843
 H1122 H 0.75519 0.61021 0.74411
 H1123 H 0.79316 0.63138 0.71283
 H1124 H 0.77528 0.65567 0.70716
 H1125 H 0.83194 0.59926 0.71755
 H1126 H 0.85020 0.57489 0.72260
 H1127 H 0.81001 0.55003 0.74840
 H1128 H 0.79207 0.57460 0.74367
 C1129 C 0.77579 0.34796 0.79083
 C1130 C 0.78716 0.36109 0.78834
 C1131 C 0.78274 0.37506 0.77871
 C1132 C 0.76673 0.37579 0.77151
 C1133 C 0.75536 0.36264 0.77393
 C1134 C 0.75975 0.34856 0.78362
 N1135 N 0.79474 0.38823 0.77638
 N1136 N 0.79134 0.40157 0.76826
 C1137 C 0.80340 0.41468 0.76584
 C1138 C 0.79859 0.42929 0.75736
 C1139 C 0.81007 0.44229 0.75470
 C1140 C 0.82664 0.44085 0.76047
 C1141 C 0.83142 0.42612 0.76900
 C1142 C 0.81992 0.41316 0.77167
 H1143 H 0.77968 0.33728 0.79823
 H1144 H 0.79948 0.36036 0.79392
 H1145 H 0.76301 0.38647 0.76401
 H1146 H 0.74309 0.36363 0.76831
 H1147 H 0.78588 0.43063 0.75284
 H1148 H 0.80590 0.45355 0.74832
 H1149 H 0.84414 0.42451 0.77339
 H1150 H 0.82396 0.40194 0.77820
 C1151 C 0.25515 -0.14331 0.25950
 C1152 C 0.26590 -0.12988 0.25608
 C1153 C 0.27724 -0.12418 0.26799
 C1154 C 0.27794 -0.13223 0.28341
 C1155 C 0.26739 -0.14584 0.28680
 C1156 C 0.25572 -0.15157 0.27493
 N1157 N 0.28796 -0.11029 0.26409
 N1158 N 0.29661 -0.10276 0.27507
 C1159 C 0.30752 -0.08904 0.27115
 C1160 C 0.31441 -0.07950 0.28401
 C1161 C 0.32510 -0.06602 0.28064
 C1162 C 0.32933 -0.06198 0.26426
 C1163 C 0.32243 -0.07169 0.25136
 C1164 C 0.31156 -0.08504 0.25476
 H1165 H 0.24662 -0.14722 0.24985
 H1166 H 0.26531 -0.12380 0.24413
 H1167 H 0.28669 -0.12808 0.29280
 H1168 H 0.26833 -0.15162 0.29885
 H1169 H 0.31135 -0.08243 0.29668
 H1170 H 0.32987 -0.05864 0.29088
 H1171 H 0.32562 -0.06915 0.23864
 H1172 H 0.30649 -0.09234 0.24461
 C1173 C 0.22818 -0.14850 0.70685
 C1174 C 0.21701 -0.13506 0.70878
 C1175 C 0.22032 -0.12221 0.72015
 C1176 C 0.23494 -0.12300 0.72977
 C1177 C 0.24607 -0.13651 0.72801
 C1178 C 0.24293 -0.14950 0.71646
 N1179 N 0.20859 -0.10862 0.72176
 N1180 N 0.21161 -0.09567 0.73060
 C1181 C 0.19975 -0.08221 0.73238
 C1182 C 0.20450 -0.06763 0.74094
 C1183 C 0.19319 -0.05431 0.74301
 C1184 C 0.17681 -0.05543 0.73664
 C1185 C 0.17210 -0.07015 0.72805
 C1186 C 0.18346 -0.08339 0.72589
 H1187 H 0.22502 -0.15811 0.69789
 H1188 H 0.20573 -0.13463 0.70133
 H1189 H 0.23773 -0.11323 0.73872
 H1190 H 0.25717 -0.13655 0.73568
 H1191 H 0.21703 -0.06655 0.74596
 H1192 H 0.19734 -0.04309 0.74947
 H1193 H 0.15952 -0.07158 0.72325
 H1194 H 0.17946 -0.09459 0.71931
 C1195 C 0.75046 0.36747 0.23340
 C1196 C 0.74027 0.38146 0.23665
 C1197 C 0.72389 0.38213 0.23055
 C1198 C 0.71775 0.36859 0.22108
 C1199 C 0.72793 0.35463 0.21777
 C1200 C 0.74442 0.35390 0.22385
 N1201 N 0.71375 0.39661 0.23414
 N1202 N 0.69855 0.39760 0.22949
 C1203 C 0.68829 0.41203 0.23292
 C1204 C 0.67160 0.41190 0.22769
 C1205 C 0.66124 0.42580 0.23064
 C1206 C 0.66744 0.44015 0.23887
 C1207 C 0.68422 0.44022 0.24418
 C1208 C 0.69457 0.42627 0.24124
 H1209 H 0.76309 0.36744 0.23824
 H1210 H 0.74515 0.39182 0.24395
 H1211 H 0.70511 0.36876 0.21625
 H1212 H 0.72278 0.34438 0.21055
 H1213 H 0.66659 0.40098 0.22133
 H1214 H 0.64832 0.42520 0.22664
 H1215 H 0.68943 0.45114 0.25039
 H1216 H 0.70747 0.42668 0.24535
 C1217 C 0.74909 0.63392 0.26951
 C1218 C 0.73858 0.62014 0.26665
 C1219 C 0.72260 0.61966 0.27351
 C1220 C 0.71725 0.63311 0.28353
 C1221 C 0.72780 0.64688 0.28650
 C1222 C 0.74381 0.64750 0.27942
 N1223 N 0.71211 0.60543 0.27004
 N1224 N 0.69707 0.60452 0.27502
 C1225 C 0.68672 0.59019 0.27147
 C1226 C 0.67009 0.59028 0.27673
 C1227 C 0.65967 0.57650 0.27348
 C1228 C 0.66574 0.56230 0.26491
 C1229 C 0.68247 0.56228 0.25963
 C1230 C 0.69286 0.57609 0.26285
 H1231 H 0.76140 0.63383 0.26403
 H1232 H 0.74288 0.60982 0.25897
 H1233 H 0.70493 0.63300 0.28901
 H1234 H 0.72330 0.65715 0.29411
 H1235 H 0.66519 0.60109 0.28333
 H1236 H 0.64680 0.57703 0.27754
 H1237 H 0.68762 0.55146 0.25324
 H1238 H 0.70570 0.57568 0.25870
 C1239 C 0.25022 0.13790 0.76747
 C1240 C 0.23988 0.12406 0.76426
 C1241 C 0.22401 0.12304 0.77134
 C1242 C 0.21857 0.13606 0.78183
 C1243 C 0.22893 0.14989 0.78513
 C1244 C 0.24487 0.15100 0.77794
 N1245 N 0.21376 0.10867 0.76768
 N1246 N 0.19888 0.10725 0.77299
 C1247 C 0.18876 0.09279 0.76931
 C1248 C 0.17223 0.09238 0.77486
 C1249 C 0.16205 0.07844 0.77149
 C1250 C 0.16827 0.06458 0.76252
 C1251 C 0.18491 0.06504 0.75697
 C1252 C 0.19505 0.07901 0.76031
 H1253 H 0.26245 0.13821 0.76185
 H1254 H 0.24424 0.11408 0.75620
 H1255 H 0.20634 0.13555 0.78746
 H1256 H 0.22435 0.15978 0.79315
 H1257 H 0.16722 0.10293 0.78177
 H1258 H 0.14924 0.07860 0.77576
 H1259 H 0.19019 0.05448 0.75027
 H1260 H 0.20782 0.07897 0.75594
 C1261 C 0.23061 0.24905 0.13628
 C1262 C 0.23315 0.25905 0.12232
 C1263 C 0.22605 0.27516 0.12124
 C1264 C 0.21625 0.28122 0.13433
 C1265 C 0.21361 0.27118 0.14827
 C1266 C 0.22078 0.25499 0.14942
 N1267 N 0.22899 0.28504 0.10675
 N1268 N 0.22368 0.30013 0.10525
 C1269 C 0.22667 0.30989 0.09069
 C1270 C 0.22162 0.32681 0.09032
 C1271 C 0.22458 0.33675 0.07639
 C1272 C 0.23259 0.32987 0.06249
 C1273 C 0.23750 0.31280 0.06286
 C1274 C 0.23461 0.30291 0.07683
 H1275 H 0.23618 0.23660 0.13662
 H1276 H 0.24069 0.25424 0.11230
 H1277 H 0.21063 0.29365 0.13378
 H1278 H 0.20609 0.27621 0.15820
 H1279 H 0.21553 0.33235 0.10093
 H1280 H 0.22085 0.34990 0.07662
 H1281 H 0.24344 0.30703 0.05228
 H1282 H 0.23854 0.28981 0.07676
 C1283 C 0.73227 0.74853 0.63340
 C1284 C 0.73496 0.75836 0.61935
 C1285 C 0.72831 0.77466 0.61824
 C1286 C 0.71881 0.78108 0.63138
 C1287 C 0.71603 0.77123 0.64541
 C1288 C 0.72275 0.75484 0.64659
 N1289 N 0.73139 0.78439 0.60369
 N1290 N 0.72639 0.79957 0.60217
 C1291 C 0.72949 0.80925 0.58758
 C1292 C 0.72459 0.82621 0.58717
 C1293 C 0.72763 0.83607 0.57322
 C1294 C 0.73557 0.82908 0.55934
 C1295 C 0.74036 0.81197 0.55976
 C1296 C 0.73738 0.80215 0.57375
 H1297 H 0.73750 0.73592 0.63378
 H1298 H 0.74227 0.75327 0.60929
 H1299 H 0.71354 0.79367 0.63080
 H1300 H 0.70877 0.77656 0.65537
 H1301 H 0.71855 0.83183 0.59777
 H1302 H 0.72401 0.84925 0.57341
 H1303 H 0.74627 0.80613 0.54920
 H1304 H 0.74120 0.78903 0.57374
 C1305 C 0.78886 0.77495 0.34858
 C1306 C 0.78668 0.78620 0.36170
 C1307 C 0.77656 0.78191 0.37506
 C1308 C 0.76849 0.76615 0.37513
 C1309 C 0.77061 0.75489 0.36198
 C1310 C 0.78087 0.75913 0.34856
 N1311 N 0.77471 0.79374 0.38832
 N1312 N 0.76617 0.79048 0.40113
 C1313 C 0.76437 0.80238 0.41434
 C1314 C 0.75534 0.79770 0.42834
 C1315 C 0.75339 0.80897 0.44148
 C1316 C 0.76044 0.82523 0.44083
 C1317 C 0.76948 0.82991 0.42671
 C1318 C 0.77144 0.81860 0.41359
 H1319 H 0.79670 0.77877 0.33841
 H1320 H 0.79292 0.79833 0.36147
 H1321 H 0.76059 0.76253 0.38533
 H1322 H 0.76435 0.74280 0.36247
 H1323 H 0.74986 0.78522 0.42910
 H1324 H 0.74658 0.80487 0.45226
 H1325 H 0.77486 0.84241 0.42570
 H1326 H 0.77842 0.82256 0.40287
 C1327 C 0.28705 0.27635 -0.14811
 C1328 C 0.28437 0.28743 -0.13497
 C1329 C 0.27388 0.28291 -0.12197
 C1330 C 0.26590 0.26711 -0.12230
 C1331 C 0.26851 0.25600 -0.13551
 C1332 C 0.27919 0.26047 -0.14853
 N1333 N 0.27167 0.29457 -0.10863
 N1334 N 0.26291 0.29118 -0.09600
 C1335 C 0.26093 0.30302 -0.08275
 C1336 C 0.25178 0.29828 -0.06885
 C1337 C 0.24980 0.30948 -0.05564
 C1338 C 0.25695 0.32571 -0.05614
 C1339 C 0.26605 0.33045 -0.07019
 C1340 C 0.26805 0.31923 -0.08336
 H1341 H 0.29518 0.28034 -0.15798
 H1342 H 0.29054 0.29960 -0.13487
 H1343 H 0.25772 0.26333 -0.11238
 H1344 H 0.26234 0.24385 -0.13537
 H1345 H 0.24627 0.28582 -0.06820
 H1346 H 0.24291 0.30534 -0.04492
 H1347 H 0.27149 0.34293 -0.07109
 H1348 H 0.27511 0.32324 -0.09401
 C1349 C 0.70503 0.23008 -0.14196
 C1350 C 0.70677 0.21948 -0.12827
 C1351 C 0.72232 0.21747 -0.12054
 C1352 C 0.73622 0.22627 -0.12663
 C1353 C 0.73448 0.23700 -0.14023
 C1354 C 0.71886 0.23903 -0.14804
 N1355 N 0.72361 0.20659 -0.10647
 N1356 N 0.73759 0.20299 -0.09976
 C1357 C 0.73880 0.19227 -0.08557
 C1358 C 0.75461 0.18717 -0.08001
 C1359 C 0.75622 0.17660 -0.06628
 C1360 C 0.74197 0.17105 -0.05773
 C1361 C 0.72610 0.17638 -0.06326
 C1362 C 0.72452 0.18682 -0.07708
 H1363 H 0.69279 0.23146 -0.14757
 H1364 H 0.69595 0.21280 -0.12366
 H1365 H 0.74839 0.22494 -0.12084
 H1366 H 0.74541 0.24359 -0.14468
 H1367 H 0.76571 0.19127 -0.08646
 H1368 H 0.76861 0.17256 -0.06255
 H1369 H 0.71489 0.17263 -0.05681
 H1370 H 0.71215 0.19072 -0.08106
 C1371 C 0.20290 0.73647 0.35916
 C1372 C 0.20495 0.72602 0.37290
 C1373 C 0.22067 0.72414 0.38033
 C1374 C 0.23437 0.73311 0.37402
 C1375 C 0.23230 0.74372 0.36037
 C1376 C 0.21657 0.74540 0.35271
 N1377 N 0.22234 0.71300 0.39415
 N1378 N 0.23649 0.70919 0.40039
 C1379 C 0.23803 0.69802 0.41421
 C1380 C 0.25396 0.69278 0.41927
 C1381 C 0.25587 0.68165 0.43253
 C1382 C 0.24181 0.67567 0.44110
 C1383 C 0.22582 0.68112 0.43607
 C1384 C 0.22393 0.69214 0.42272
 H1385 H 0.19058 0.73763 0.35368
 H1386 H 0.19429 0.71923 0.37770
 H1387 H 0.24664 0.73189 0.37960
 H1388 H 0.24308 0.75035 0.35564
 H1389 H 0.26491 0.69718 0.41277
 H1390 H 0.26835 0.67752 0.43588
 H1391 H 0.21475 0.67702 0.44256
 H1392 H 0.21147 0.69611 0.41912
 C1393 C 0.29780 0.73120 0.64432
 C1394 C 0.29623 0.72029 0.63083
 C1395 C 0.28069 0.71789 0.62318
 C1396 C 0.26665 0.72662 0.62914
 C1397 C 0.26822 0.73766 0.64254
 C1398 C 0.28382 0.74006 0.65029
 N1399 N 0.27955 0.70674 0.60929
 N1400 N 0.26559 0.70288 0.60271
 C1401 C 0.26438 0.69198 0.58864
 C1402 C 0.24854 0.68707 0.58306
 C1403 C 0.24687 0.67665 0.56923
 C1404 C 0.26107 0.67106 0.56060
 C1405 C 0.27699 0.67599 0.56628
 C1406 C 0.27864 0.68633 0.58020
 H1407 H 0.31002 0.73288 0.64987
 H1408 H 0.30715 0.71368 0.62630
 H1409 H 0.25450 0.72501 0.62341
 H1410 H 0.25719 0.74418 0.64690
 H1411 H 0.23746 0.69130 0.58949
 H1412 H 0.23444 0.67285 0.56539
 H1413 H 0.28817 0.67213 0.55980
 H1414 H 0.29103 0.69006 0.58423
 C1415 C 0.75611 0.24224 0.14408
 C1416 C 0.75255 0.23158 0.13075
 C1417 C 0.76515 0.22163 0.12378
 C1418 C 0.78141 0.22233 0.13042
 C1419 C 0.78495 0.23285 0.14384
 C1420 C 0.77235 0.24297 0.15079
 N1421 N 0.76114 0.21094 0.11004
 N1422 N 0.77242 0.20313 0.10204
 C1423 C 0.76865 0.19223 0.08841
 C1424 C 0.78185 0.18561 0.07919
 C1425 C 0.77870 0.17483 0.06588
 C1426 C 0.76221 0.17030 0.06164
 C1427 C 0.74895 0.17699 0.07096
 C1428 C 0.75213 0.18791 0.08420
 H1429 H 0.74609 0.24974 0.14924
 H1430 H 0.73996 0.23112 0.12578
 H1431 H 0.79137 0.21473 0.12526
 H1432 H 0.79761 0.23321 0.14861
 H1433 H 0.79462 0.18890 0.08229
 H1434 H 0.78920 0.17021 0.05880
 H1435 H 0.73613 0.17360 0.06820
 H1436 H 0.74171 0.19281 0.09122
 C1437 C 0.45563 0.38915 0.51756
 C1438 C 0.45746 0.37544 0.52827
 C1439 C 0.47297 0.36746 0.53013
 C1440 C 0.48668 0.37318 0.52092
 C1441 C 0.48481 0.38676 0.51003
 C1442 C 0.46929 0.39496 0.50833
 N1443 N 0.47442 0.35363 0.54143
 N1444 N 0.48847 0.34722 0.54543
 C1445 C 0.48978 0.33333 0.55668
 C1446 C 0.50557 0.32848 0.56247
 C1447 C 0.50725 0.31514 0.57366
 C1448 C 0.49309 0.30625 0.57913
 C1449 C 0.47724 0.31106 0.57309
 C1450 C 0.47558 0.32451 0.56205
 H1451 H 0.44347 0.39506 0.51640
 H1452 H 0.44679 0.37110 0.53524
 H1453 H 0.49879 0.36715 0.52211
 H1454 H 0.49559 0.39101 0.50316
 H1455 H 0.51660 0.33521 0.55846
 H1456 H 0.51961 0.31199 0.57822
 H1457 H 0.46610 0.30431 0.57675
 H1458 H 0.46323 0.32793 0.55763
 C1459 C -0.00869 0.89283 0.00461
 C1460 C -0.00563 0.87929 0.01527
 C1461 C -0.01863 0.87229 0.02447
 C1462 C -0.03482 0.87911 0.02302
 C1463 C -0.03786 0.89278 0.01250
 C1464 C -0.02484 0.89974 0.00312
 N1465 N -0.01503 0.85840 0.03524
 N1466 N -0.02648 0.85027 0.04262
 C1467 C -0.02281 0.83653 0.05356
 C1468 C -0.03601 0.82693 0.05979
 C1469 C -0.03287 0.81350 0.07056
 C1470 C -0.01641 0.80953 0.07545
 C1471 C -0.00318 0.81925 0.06918
 C1472 C -0.00633 0.83259 0.05829
 H1473 H 0.00165 0.89800 -0.00229
 H1474 H 0.00690 0.87419 0.01633
 H1475 H -0.04507 0.87393 0.03006
 H1476 H -0.05046 0.89772 0.01155
 H1477 H -0.04876 0.82982 0.05620
 H1478 H -0.04334 0.80613 0.07492
 H1479 H 0.00961 0.81675 0.07290
 H1480 H 0.00408 0.83991 0.05374
 C1481 C 0.00849 0.60456 0.01198
 C1482 C 0.00511 0.61758 0.02312
 C1483 C 0.01813 0.62568 0.03152
 C1484 C 0.03470 0.62038 0.02890
 C1485 C 0.03810 0.60721 0.01787
 C1486 C 0.02503 0.59927 0.00917
 N1487 N 0.01416 0.63931 0.04246
 N1488 N 0.02534 0.64849 0.04916
 C1489 C 0.02118 0.66215 0.06001
 C1490 C 0.03389 0.67290 0.06553
 C1491 C 0.03020 0.68655 0.07585
 C1492 C 0.01367 0.68961 0.08097
 C1493 C 0.00095 0.67866 0.07551
 C1494 C 0.00465 0.66509 0.06509
 H1495 H -0.00188 0.59859 0.00565
 H1496 H -0.00771 0.62150 0.02509
 H1497 H 0.04498 0.62643 0.03531
 H1498 H 0.05097 0.60349 0.01592
 H1499 H 0.04666 0.67080 0.06165
 H1500 H 0.04027 0.69486 0.07958
 H1501 H -0.01185 0.68047 0.07942
 H1502 H -0.00540 0.65689 0.06106
 C1503 C 0.52343 0.11722 0.49991
 C1504 C 0.52067 0.13078 0.51058
 C1505 C 0.52675 0.13034 0.52677
 C1506 C 0.53590 0.11620 0.53219
 C1507 C 0.53878 0.10263 0.52148
 C1508 C 0.53245 0.10295 0.50525
 N1509 N 0.52331 0.14436 0.53739
 N1510 N 0.52744 0.14454 0.55258
 C1511 C 0.52377 0.15872 0.56296
 C1512 C 0.52772 0.15786 0.57978
 C1513 C 0.52412 0.17144 0.59024
 C1514 C 0.51652 0.18617 0.58399
 C1515 C 0.51266 0.18701 0.56706
 C1516 C 0.51622 0.17342 0.55665
 H1517 H 0.51857 0.11800 0.48745
 H1518 H 0.51367 0.14164 0.50625
 H1519 H 0.54075 0.11560 0.54468
 H1520 H 0.54569 0.09181 0.52601
 H1521 H 0.53350 0.14659 0.58481
 H1522 H 0.52707 0.17031 0.60325
 H1523 H 0.50708 0.19827 0.56180
 H1524 H 0.51312 0.17444 0.54366
 C1525 C -0.03638 0.09979 0.47348
 C1526 C -0.03398 0.11263 0.46192
 C1527 C -0.02412 0.12665 0.46582
 C1528 C -0.01650 0.12766 0.48146
 C1529 C -0.01880 0.11477 0.49301
 C1530 C -0.02882 0.10071 0.48917
 N1531 N -0.02213 0.13967 0.45373
 N1532 N -0.01417 0.15323 0.45676
 C1533 C -0.01220 0.16621 0.44462
 C1534 C -0.00432 0.18128 0.44915
 C1535 C -0.00236 0.19428 0.43768
 C1536 C -0.00819 0.19237 0.42136
 C1537 C -0.01599 0.17713 0.41682
 C1538 C -0.01802 0.16418 0.42834
 H1539 H -0.04402 0.08908 0.47001
 H1540 H -0.03988 0.11170 0.44989
 H1541 H -0.00881 0.13839 0.48477
 H1542 H -0.01288 0.11594 0.50500
 H1543 H 0.00018 0.18301 0.46167
 H1544 H 0.00346 0.20593 0.44167
 H1545 H -0.02040 0.17515 0.40431
 H1546 H -0.02407 0.15259 0.42451
 C1547 C 0.45404 0.60979 0.98459
 C1548 C 0.45602 0.62340 0.97383
 C1549 C 0.47183 0.63041 0.97125
 C1550 C 0.48572 0.62373 0.97973
 C1551 C 0.48373 0.61019 0.99062
 C1552 C 0.46787 0.60303 0.99312
 N1553 N 0.47339 0.64426 0.96001
 N1554 N 0.48752 0.65032 0.95600
 C1555 C 0.48900 0.66422 0.94479
 C1556 C 0.50490 0.66915 0.93960
 C1557 C 0.50676 0.68253 0.92853
 C1558 C 0.49269 0.69135 0.92254
 C1559 C 0.47672 0.68643 0.92792
 C1560 C 0.47487 0.67297 0.93890
 H1561 H 0.44162 0.60472 0.98635
 H1562 H 0.44522 0.62848 0.96740
 H1563 H 0.49808 0.62896 0.97796
 H1564 H 0.49466 0.60522 0.99690
 H1565 H 0.51587 0.66248 0.94403
 H1566 H 0.51922 0.68579 0.92447
 H1567 H 0.46564 0.69312 0.92379
 H1568 H 0.46244 0.66947 0.94282
 C1569 C 0.52096 0.88242 0.99996
 C1570 C 0.51847 0.86870 0.98941
 C1571 C 0.52513 0.86877 0.97351
 C1572 C 0.53460 0.88269 0.96827
 C1573 C 0.53722 0.89641 0.97888
 C1574 C 0.53030 0.89647 0.99480
 N1575 N 0.52194 0.85459 0.96299
 N1576 N 0.52642 0.85414 0.94795
 C1577 C 0.52300 0.83978 0.93770
 C1578 C 0.52714 0.84038 0.92097
 C1579 C 0.52376 0.82662 0.91064
 C1580 C 0.51622 0.81195 0.91695
 C1581 C 0.51218 0.81137 0.93381
 C1582 C 0.51550 0.82515 0.94408
 H1583 H 0.51564 0.88193 1.01220
 H1584 H 0.51122 0.85801 0.99360
 H1585 H 0.53991 0.88299 0.95601
 H1586 H 0.54440 0.90707 0.97451
 H1587 H 0.53287 0.85160 0.91589
 H1588 H 0.52684 0.82756 0.89768
 H1589 H 0.50666 0.80017 0.93913
 H1590 H 0.51226 0.82432 0.95701
 C1591 C 0.00929 0.39362 0.49244
 C1592 C 0.00568 0.38032 0.48163
 C1593 C 0.01831 0.37314 0.47202
 C1594 C 0.03467 0.37949 0.47323
 C1595 C 0.03827 0.39286 0.48393
 C1596 C 0.02563 0.40006 0.49369
 N1597 N 0.01420 0.35950 0.46111
 N1598 N 0.02533 0.35156 0.45303
 C1599 C 0.02128 0.33802 0.44200
 C1600 C 0.03427 0.32892 0.43467
 C1601 C 0.03078 0.31563 0.42384
 C1602 C 0.01414 0.31129 0.42004
 C1603 C 0.00110 0.32052 0.42740
 C1604 C 0.00463 0.33374 0.43831
 H1605 H -0.00078 0.39895 0.49964
 H1606 H -0.00698 0.37557 0.48076
 H1607 H 0.04465 0.37415 0.46591
 H1608 H 0.05100 0.39741 0.48469
 H1609 H 0.04716 0.33208 0.43745
 H1610 H 0.04111 0.30862 0.41861
 H1611 H -0.01184 0.31768 0.42455
 H1612 H -0.00564 0.34067 0.44375
 C1613 C 0.39568 0.50870 0.49102
 C1614 C 0.38232 0.51957 0.49428
 C1615 C 0.37485 0.52884 0.48154
 C1616 C 0.38110 0.52735 0.46542
 C1617 C 0.39461 0.51661 0.46217
 C1618 C 0.40195 0.50707 0.47492
 N1619 N 0.36096 0.53959 0.48533
 N1620 N 0.35240 0.54697 0.47417
 C1621 C 0.33856 0.55776 0.47805
 C1622 C 0.32865 0.56408 0.46519
 C1623 C 0.31504 0.57462 0.46853
 C1624 C 0.31117 0.57917 0.48487
 C1625 C 0.32119 0.57278 0.49778
 C1626 C 0.33473 0.56215 0.49441
 H1627 H 0.40117 0.50170 0.50116
 H1628 H 0.37766 0.52066 0.50676
 H1629 H 0.37556 0.53445 0.45537
 H1630 H 0.39909 0.51557 0.44963
 H1631 H 0.33144 0.56074 0.45253
 H1632 H 0.30744 0.57904 0.45831
 H1633 H 0.31874 0.57622 0.51047
 H1634 H 0.34227 0.55749 0.50458
 C1635 C 0.89214 0.01499 -0.04693
 C1636 C 0.87824 0.02542 -0.04465
 C1637 C 0.87097 0.02701 -0.02908
 C1638 C 0.87762 0.01781 -0.01573
 C1639 C 0.89144 0.00722 -0.01803
 C1640 C 0.89892 0.00580 -0.03363
 N1641 N 0.85694 0.03811 -0.02718
 N1642 N 0.85068 0.04150 -0.01316
 C1643 C 0.83666 0.05265 -0.01146
 C1644 C 0.83146 0.05731 0.00436
 C1645 C 0.81801 0.06840 0.00643
 C1646 C 0.80939 0.07493 -0.00736
 C1647 C 0.81456 0.07007 -0.02324
 C1648 C 0.82809 0.05908 -0.02528
 H1649 H 0.89746 0.01403 -0.05914
 H1650 H 0.87318 0.03240 -0.05503
 H1651 H 0.87217 0.01882 -0.00357
 H1652 H 0.89643 0.00040 -0.00752
 H1653 H 0.83799 0.05248 0.01511
 H1654 H 0.81452 0.07206 0.01882
 H1655 H 0.80804 0.07460 -0.03412
 H1656 H 0.83179 0.05557 -0.03765
 C1657 C 0.59644 0.02534 0.03775
 C1658 C 0.60950 0.03677 0.03536
 C1659 C 0.62357 0.03210 0.02625
 C1660 C 0.62440 0.01582 0.01937
 C1661 C 0.61129 0.00440 0.02166
 C1662 C 0.59718 0.00901 0.03094
 N1663 N 0.63681 0.04408 0.02423
 N1664 N 0.65041 0.04033 0.01702
 C1665 C 0.66364 0.05232 0.01501
 C1666 C 0.67867 0.04698 0.00797
 C1667 C 0.69189 0.05830 0.00593
 C1668 C 0.69024 0.07528 0.01083
 C1669 C 0.67508 0.08062 0.01787
 C1670 C 0.66190 0.06925 0.01997
 H1671 H 0.58572 0.02940 0.04482
 H1672 H 0.60870 0.04929 0.04068
 H1673 H 0.63515 0.01191 0.01225
 H1674 H 0.61234 -0.00810 0.01634
 H1675 H 0.68019 0.03395 0.00416
 H1676 H 0.70347 0.05368 0.00074
 H1677 H 0.67331 0.09364 0.02157
 H1678 H 0.65037 0.07370 0.02539
 C1679 C 0.11770 0.49811 0.51850
 C1680 C 0.13157 0.50820 0.51504
 C1681 C 0.13217 0.52497 0.52043
 C1682 C 0.11872 0.53157 0.52950
 C1683 C 0.10487 0.52147 0.53305
 C1684 C 0.10416 0.50464 0.52753
 N1685 N 0.14653 0.53499 0.51658
 N1686 N 0.14748 0.55053 0.52048
 C1687 C 0.16184 0.56061 0.51681
 C1688 C 0.16172 0.57770 0.52120
 C1689 C 0.17561 0.58786 0.51810
 C1690 C 0.18994 0.58108 0.51057
 C1691 C 0.18996 0.56393 0.50601
 C1692 C 0.17603 0.55377 0.50911
 H1693 H 0.11768 0.48517 0.51420
 H1694 H 0.14189 0.50295 0.50809
 H1695 H 0.11889 0.54451 0.53383
 H1696 H 0.09464 0.52697 0.53991
 H1697 H 0.15084 0.58313 0.52707
 H1698 H 0.17508 0.60108 0.52151
 H1699 H 0.20086 0.55828 0.50037
 H1700 H 0.17642 0.54057 0.50563
 C1701 C 0.09898 0.47744 -0.03852
 C1702 C 0.11217 0.46613 -0.03598
 C1703 C 0.12605 0.47080 -0.02648
 C1704 C 0.12659 0.48700 -0.01939
 C1705 C 0.11335 0.49833 -0.02185
 C1706 C 0.09941 0.49370 -0.03150
 N1707 N 0.13933 0.45884 -0.02426
 N1708 N 0.15271 0.46233 -0.01640
 C1709 C 0.16583 0.45015 -0.01426
 C1710 C 0.18053 0.45494 -0.00609
 C1711 C 0.19354 0.44332 -0.00379
 C1712 C 0.19202 0.42664 -0.00961
 C1713 C 0.17721 0.42188 -0.01782
 C1714 C 0.16425 0.43351 -0.02014
 H1715 H 0.08841 0.47333 -0.04586
 H1716 H 0.11159 0.45366 -0.04146
 H1717 H 0.13721 0.49090 -0.01197
 H1718 H 0.11415 0.51077 -0.01635
 H1719 H 0.18193 0.46772 -0.00154
 H1720 H 0.20486 0.44746 0.00238
 H1721 H 0.17553 0.40908 -0.02222
 H1722 H 0.15297 0.42947 -0.02644
 C1723 C 0.59916 0.97386 0.46318
 C1724 C 0.61259 0.96274 0.46521
 C1725 C 0.62669 0.96756 0.47433
 C1726 C 0.62716 0.98367 0.48162
 C1727 C 0.61368 0.99479 0.47967
 C1728 C 0.59956 0.99005 0.47034
 N1729 N 0.64032 0.95589 0.47592
 N1730 N 0.65390 0.95971 0.48328
 C1731 C 0.66744 0.94792 0.48483
 C1732 C 0.68224 0.95309 0.49260
 C1733 C 0.69564 0.94186 0.49442
 C1734 C 0.69443 0.92519 0.48849
 C1735 C 0.67955 0.92007 0.48064
 C1736 C 0.66618 0.93132 0.47880
 H1737 H 0.58844 0.96970 0.45607
 H1738 H 0.61206 0.95033 0.45960
 H1739 H 0.63794 0.98767 0.48875
 H1740 H 0.61448 1.00718 0.48526
 H1741 H 0.68338 0.96586 0.49725
 H1742 H 0.70699 0.94627 0.50033
 H1743 H 0.67811 0.90726 0.47616
 H1744 H 0.65485 0.92700 0.47279
 C1745 C 0.88463 1.00119 0.52135
 C1746 C 0.87087 0.99073 0.51851
 C1747 C 0.87073 0.97420 0.52453
 C1748 C 0.88450 0.96825 0.53371
 C1749 C 0.89828 0.97875 0.53662
 C1750 C 0.89855 0.99531 0.53035
 N1751 N 0.85655 0.96377 0.52098
 N1752 N 0.85567 0.94839 0.52546
 C1753 C 0.84139 0.93816 0.52164
 C1754 C 0.84119 0.92130 0.52677
 C1755 C 0.82744 0.91099 0.52319
 C1756 C 0.81363 0.91742 0.51437
 C1757 C 0.81389 0.93438 0.50922
 C1758 C 0.82763 0.94465 0.51281
 H1759 H 0.88427 1.01392 0.51650
 H1760 H 0.86029 0.99548 0.51150
 H1761 H 0.88465 0.95550 0.53852
 H1762 H 0.90881 0.97376 0.54351
 H1763 H 0.85173 0.91612 0.53352
 H1764 H 0.82770 0.89794 0.52717
 H1765 H 0.80335 0.93978 0.50263
 H1766 H 0.82745 0.95767 0.50873
 C1767 C 0.38287 0.50084 0.02078
 C1768 C 0.36917 0.49033 0.01786
 C1769 C 0.36873 0.47405 0.02448
 C1770 C 0.38219 0.46835 0.03423
 C1771 C 0.39592 0.47889 0.03721
 C1772 C 0.39645 0.49525 0.03045
 N1773 N 0.35449 0.46365 0.02107
 N1774 N 0.35333 0.44849 0.02614
 C1775 C 0.33894 0.43833 0.02259
 C1776 C 0.33854 0.42162 0.02816
 C1777 C 0.32464 0.41141 0.02493
 C1778 C 0.31085 0.41780 0.01604
 C1779 C 0.31131 0.43460 0.01044
 C1780 C 0.32522 0.44477 0.01367
 H1781 H 0.38270 0.51339 0.01552
 H1782 H 0.35883 0.49488 0.01039
 H1783 H 0.38213 0.45579 0.03949
 H1784 H 0.40618 0.47412 0.04463
 H1785 H 0.34905 0.41649 0.03500
 H1786 H 0.32477 0.39847 0.02923
 H1787 H 0.30080 0.43998 0.00379
 H1788 H 0.32518 0.45767 0.00927
 C1789 C 0.51493 0.45124 0.39357
 C1790 C 0.52540 0.45314 0.37994
 C1791 C 0.52759 0.46900 0.37269
 C1792 C 0.51902 0.48302 0.37915
 C1793 C 0.50840 0.48111 0.39268
 C1794 C 0.50630 0.46520 0.40008
 N1795 N 0.53851 0.47050 0.35882
 N1796 N 0.54247 0.48475 0.35276
 C1797 C 0.55326 0.48625 0.33879
 C1798 C 0.55861 0.50230 0.33398
 C1799 C 0.56916 0.50423 0.32042
 C1800 C 0.57443 0.49008 0.31127
 C1801 C 0.56897 0.47395 0.31613
 C1802 C 0.55853 0.47204 0.32979
 H1803 H 0.51347 0.43879 0.39885
 H1804 H 0.53189 0.44223 0.37503
 H1805 H 0.52049 0.49542 0.37374
 H1806 H 0.50204 0.49214 0.39747
 H1807 H 0.55468 0.51334 0.34084
 H1808 H 0.57335 0.51680 0.31725
 H1809 H 0.57255 0.46281 0.30924
 H1810 H 0.55448 0.45949 0.33321
 C1811 C 0.01046 -0.00902 0.89031
 C1812 C 0.02107 -0.00568 0.87707
 C1813 C 0.03067 -0.01861 0.87013
 C1814 C 0.02975 -0.03499 0.87674
 C1815 C 0.01929 -0.03830 0.89013
 C1816 C 0.00945 -0.02537 0.89698
 N1817 N 0.04121 -0.01476 0.85642
 N1818 N 0.04868 -0.02617 0.84819
 C1819 C 0.05930 -0.02218 0.83457
 C1820 C 0.06537 -0.03529 0.82469
 C1821 C 0.07564 -0.03180 0.81122
 C1822 C 0.08019 -0.01507 0.80749
 C1823 C 0.07415 -0.00194 0.81756
 C1824 C 0.06375 -0.00544 0.83092
 H1825 H 0.00319 0.00126 0.89542
 H1826 H 0.02173 0.00700 0.87212
 H1827 H 0.03711 -0.04518 0.87161
 H1828 H 0.01871 -0.05104 0.89492
 H1829 H 0.06198 -0.04824 0.82735
 H1830 H 0.07982 -0.04220 0.80360
 H1831 H 0.07763 0.01105 0.81526
 H1832 H 0.05931 0.00491 0.83847
 C1833 C 0.02509 0.04059 0.59891
 C1834 C 0.03627 0.03833 0.61203
 C1835 C 0.03247 0.02731 0.62493
 C1836 C 0.01727 0.01843 0.62455
 C1837 C 0.00608 0.02060 0.61136
 C1838 C 0.00985 0.03175 0.59840
 N1839 N 0.04427 0.02537 0.63817
 N1840 N 0.04139 0.01620 0.65073
 C1841 C 0.05335 0.01435 0.66386
 C1842 C 0.04905 0.00487 0.67776
 C1843 C 0.06040 0.00291 0.69081
 C1844 C 0.07635 0.01036 0.69016
 C1845 C 0.08065 0.01981 0.67612
 C1846 C 0.06926 0.02182 0.66310
 H1847 H 0.02854 0.04913 0.58909
 H1848 H 0.04797 0.04520 0.61216
 H1849 H 0.01405 0.00981 0.63439
 H1850 H -0.00557 0.01368 0.61145
 H1851 H 0.03682 -0.00091 0.67851
 H1852 H 0.05658 -0.00424 0.70153
 H1853 H 0.09290 0.02549 0.67509
 H1854 H 0.07293 0.02913 0.65245
 C1855 C 0.52469 0.53715 0.09832
 C1856 C 0.53570 0.53504 0.11162
 C1857 C 0.53096 0.52564 0.12542
 C1858 C 0.51504 0.51815 0.12571
 C1859 C 0.50403 0.52017 0.11237
 C1860 C 0.50870 0.52978 0.09854
 N1861 N 0.54250 0.52395 0.13891
 N1862 N 0.53872 0.51634 0.15220
 C1863 C 0.55030 0.51466 0.16567
 C1864 C 0.54504 0.50674 0.18015
 C1865 C 0.55601 0.50485 0.19352
 C1866 C 0.57254 0.51085 0.19261
 C1867 C 0.57778 0.51884 0.17803
 C1868 C 0.56677 0.52075 0.16468
 H1869 H 0.52880 0.54447 0.08784
 H1870 H 0.54795 0.54082 0.11122
 H1871 H 0.51108 0.51079 0.13624
 H1872 H 0.49180 0.51441 0.11303
 H1873 H 0.53237 0.50205 0.18109
 H1874 H 0.55149 0.49888 0.20464
 H1875 H 0.59048 0.52339 0.17684
 H1876 H 0.57117 0.52687 0.15359
 C1877 C 0.47301 -0.03928 0.09923
 C1878 C 0.46182 -0.03730 0.11228
 C1879 C 0.46627 -0.02773 0.12612
 C1880 C 0.48204 -0.01994 0.12674
 C1881 C 0.49320 -0.02181 0.11363
 C1882 C 0.48883 -0.03158 0.09977
 N1883 N 0.45456 -0.02612 0.13934
 N1884 N 0.45827 -0.01868 0.15279
 C1885 C 0.44655 -0.01696 0.16598
 C1886 C 0.45186 -0.00961 0.18079
 C1887 C 0.44073 -0.00761 0.19388
 C1888 C 0.42399 -0.01286 0.19232
 C1889 C 0.41870 -0.02030 0.17741
 C1890 C 0.42988 -0.02236 0.16435
 H1891 H 0.46915 -0.04673 0.08867
 H1892 H 0.44968 -0.04330 0.11164
 H1893 H 0.48575 -0.01244 0.13731
 H1894 H 0.50532 -0.01580 0.11450
 H1895 H 0.46468 -0.00546 0.18221
 H1896 H 0.44528 -0.00210 0.20527
 H1897 H 0.40586 -0.02427 0.17573
 H1898 H 0.42546 -0.02802 0.15297
 C1899 C 1.00159 0.48558 0.61410
 C1900 C 0.99174 0.48823 0.62808
 C1901 C 0.97613 0.48043 0.62948
 C1902 C 0.97043 0.46988 0.61670
 C1903 C 0.98029 0.46714 0.60277
 C1904 C 0.99600 0.47495 0.60131
 N1905 N 0.96635 0.48336 0.64398
 N1906 N 0.95168 0.47736 0.64552
 C1907 C 0.94183 0.48010 0.65998
 C1908 C 0.92536 0.47420 0.66020
 C1909 C 0.91533 0.47674 0.67404
 C1910 C 0.92166 0.48518 0.68802
 C1911 C 0.93828 0.49100 0.68780
 C1912 C 0.94827 0.48852 0.67389
 H1913 H 1.01366 0.49169 0.61345
 H1914 H 0.99628 0.49637 0.63786
 H1915 H 0.95839 0.46371 0.61748
 H1916 H 0.97549 0.45902 0.59311
 H1917 H 0.92025 0.46772 0.64953
 H1918 H 0.90252 0.47234 0.67369
 H1919 H 0.94364 0.49731 0.69844
 H1920 H 0.96102 0.49310 0.67406
 C1921 C 0.97325 0.53808 0.89964
 C1922 C 0.96223 0.53570 0.88640
 C1923 C 0.96698 0.52597 0.87280
 C1924 C 0.98295 0.51855 0.87257
 C1925 C 0.99397 0.52087 0.88583
 C1926 C 0.98927 0.53070 0.89952
 N1927 N 0.95537 0.52386 0.85943
 N1928 N 0.95902 0.51559 0.84646
 C1929 C 0.94735 0.51349 0.83314
 C1930 C 0.95237 0.50470 0.81903
 C1931 C 0.94131 0.50245 0.80580
 C1932 C 0.92494 0.50897 0.80649
 C1933 C 0.91993 0.51778 0.82071
 C1934 C 0.93102 0.52004 0.83392
 H1935 H 0.96911 0.54559 0.91001
 H1936 H 0.94994 0.54145 0.88673
 H1937 H 0.98691 0.51097 0.86217
 H1938 H 1.00623 0.51511 0.88522
 H1939 H 0.96493 0.49963 0.81827
 H1940 H 0.94563 0.49582 0.79494
 H1941 H 0.90735 0.52275 0.82173
 H1942 H 0.92682 0.52683 0.84473
 C1943 C 0.48518 0.04641 0.39132
 C1944 C 0.47446 0.04455 0.37777
 C1945 C 0.47178 0.02863 0.37077
 C1946 C 0.48009 0.01450 0.37739
 C1947 C 0.49094 0.01637 0.39086
 C1948 C 0.49355 0.03234 0.39800
 N1949 N 0.46062 0.02719 0.35697
 N1950 N 0.45646 0.01295 0.35094
 C1951 C 0.44540 0.01155 0.33705
 C1952 C 0.44008 -0.00448 0.33206
 C1953 C 0.42926 -0.00631 0.31859
 C1954 C 0.42366 0.00794 0.30975
 C1955 C 0.42910 0.02404 0.31478
 C1956 C 0.43983 0.02584 0.32833
 H1957 H 0.48704 0.05892 0.39639
 H1958 H 0.46816 0.05553 0.37273
 H1959 H 0.47823 0.00206 0.37216
 H1960 H 0.49708 0.00526 0.39578
 H1961 H 0.44425 -0.01558 0.33872
 H1962 H 0.42511 -0.01886 0.31523
 H1963 H 0.42525 0.03524 0.30810
 H1964 H 0.44386 0.03838 0.33190
   
