data_POSCAR
  _audit_creation_date              2014-09-24
  _audit_creation_method            'ToBaCCo'
  _symmetry_space_group_name_H-M    'P1'
  _symmetry_Int_Tables_number       1
  _symmetry_cell_setting            triclinic
  loop_
  _symmetry_equiv_pos_as_xyz
 x,y,z
_cell_length_a 95.8479
_cell_length_b 94.6534
_cell_length_c 96.1475
_cell_angle_alpha 89.947300
_cell_angle_beta 90.271200
_cell_angle_gamma 89.949900
loop_
  _atom_site_label
  _atom_site_type_symbol
  _atom_site_fract_x
  _atom_site_fract_y
  _atom_site_fract_z
C1 C 0.31039 0.43509 0.92620
 C2 C 0.31049 0.42415 0.93611
 C3 C 0.32004 0.42447 0.94692
 C4 C 0.32961 0.43557 0.94800
 C5 C 0.32960 0.44624 0.93828
 C6 C 0.31989 0.44605 0.92732
 C7 C 0.30275 0.43739 0.91423
 N8 N 0.30738 0.44946 0.90806
 C9 C 0.31787 0.45478 0.91605
 C10 C 0.34068 0.45495 0.94138
 N11 N 0.34756 0.44980 0.95280
 C12 C 0.34062 0.43792 0.95687
 C13 C 0.31835 0.41234 0.95454
 N14 N 0.30802 0.40451 0.94866
 C15 C 0.30310 0.41170 0.93737
 H16 H 0.29469 0.43054 0.91013
 H17 H 0.32367 0.46433 0.91389
 H18 H 0.34347 0.46421 0.93544
 H19 H 0.34359 0.43087 0.96522
 H20 H 0.32431 0.40944 0.96369
 H21 H 0.29509 0.40797 0.93032
 C22 C 0.44264 0.82106 0.44735
 C23 C 0.43196 0.81107 0.44883
 C24 C 0.43006 0.80078 0.43883
 C25 C 0.43881 0.80033 0.42720
 C26 C 0.44933 0.81020 0.42575
 C27 C 0.45123 0.82067 0.43591
 C28 C 0.44634 0.83269 0.45505
 N29 N 0.45705 0.83958 0.44860
 C30 C 0.46004 0.83210 0.43683
 C31 C 0.45569 0.80765 0.41321
 N32 N 0.44932 0.79645 0.40699
 C33 C 0.43897 0.79193 0.41553
 C34 C 0.41842 0.79317 0.44249
 N35 N 0.41317 0.79860 0.45447
 C36 C 0.42147 0.80955 0.45843
 H37 H 0.44107 0.83598 0.46440
 H38 H 0.46790 0.83465 0.42923
 H39 H 0.46406 0.81383 0.40877
 H40 H 0.43200 0.78319 0.41345
 H41 H 0.41377 0.78471 0.43648
 H42 H 0.41991 0.81612 0.46749
 C43 C 0.93655 0.92796 0.80552
 C44 C 0.92624 0.93849 0.80625
 C45 C 0.92709 0.94881 0.81638
 C46 C 0.93818 0.94874 0.82595
 C47 C 0.94825 0.93840 0.82524
 C48 C 0.94747 0.92796 0.81491
 C49 C 0.93820 0.91629 0.79714
 N50 N 0.94993 0.90909 0.80116
 C51 C 0.95556 0.91635 0.81211
 C52 C 0.95724 0.94048 0.83624
 N53 N 0.95289 0.95188 0.84380
 C54 C 0.94117 0.95695 0.83735
 C55 C 0.91548 0.95724 0.81504
 N56 N 0.90750 0.95231 0.80437
 C57 C 0.91406 0.94083 0.79893
 H58 H 0.93120 0.91346 0.78877
 H59 H 0.96469 0.91339 0.81807
 H60 H 0.96615 0.93386 0.83848
 H61 H 0.93478 0.96568 0.84078
 H62 H 0.91308 0.96629 0.82146
 H63 H 0.91009 0.93432 0.79055
 C64 C 0.43439 -0.07888 0.30897
 C65 C 0.42361 -0.06886 0.30816
 C66 C 0.42251 -0.05846 0.31818
 C67 C 0.43220 -0.05792 0.32916
 C68 C 0.44279 -0.06780 0.32992
 C69 C 0.44386 -0.07836 0.31978
 C70 C 0.43767 -0.09048 0.30104
 N71 N 0.44898 -0.09719 0.30673
 C72 C 0.45276 -0.08964 0.31826
 C73 C 0.45033 -0.06504 0.34181
 N74 N 0.44462 -0.05369 0.34831
 C75 C 0.43349 -0.04928 0.34060
 C76 C 0.41079 -0.05065 0.31509
 N77 N 0.40471 -0.05602 0.30342
 C78 C 0.41256 -0.06717 0.29913
 H79 H 0.43179 -0.09383 0.29202
 H80 H 0.46130 -0.09199 0.32525
 H81 H 0.45911 -0.07115 0.34559
 H82 H 0.42680 -0.04042 0.34307
 H83 H 0.40677 -0.04197 0.32120
 H84 H 0.41043 -0.07366 0.29011
 C85 C 0.80216 0.30730 0.32081
 C86 C 0.80316 0.31771 0.31045
 C87 C 0.81349 0.31681 0.30049
 C88 C 0.82298 0.30552 0.30074
 C89 C 0.82189 0.29523 0.31086
 C90 C 0.81143 0.29612 0.32092
 C91 C 0.79416 0.30617 0.33263
 N92 N 0.79842 0.29459 0.33992
 C93 C 0.80893 0.28837 0.33271
 C94 C 0.83319 0.28641 0.30951
 N95 N 0.84125 0.29113 0.29889
 C96 C 0.83499 0.30281 0.29341
 C97 C 0.81255 0.32874 0.29236
 N98 N 0.80187 0.33687 0.29709
 C99 C 0.79612 0.33018 0.30820
 H100 H 0.78639 0.31369 0.33602
 H101 H 0.81467 0.27907 0.33594
 H102 H 0.83554 0.27748 0.31615
 H103 H 0.83926 0.30941 0.28529
 H104 H 0.81921 0.33127 0.28365
 H105 H 0.78771 0.33426 0.31450
 C106 C -0.18688 0.82331 0.80629
 C107 C -0.17732 0.81209 0.80671
 C108 C -0.17796 0.80225 0.81731
 C109 C -0.18817 0.80350 0.82764
 C110 C -0.19755 0.81455 0.82722
 C111 C -0.19692 0.82452 0.81642
 C112 C -0.18829 0.83476 0.79759
 N113 N -0.19900 0.84307 0.80213
 C114 C -0.20428 0.83669 0.81373
 C115 C -0.20569 0.81355 0.83892
 N116 N -0.20153 0.80213 0.84661
 C117 C -0.19076 0.79597 0.83958
 C118 C -0.16699 0.79305 0.81551
 N119 N -0.15965 0.79709 0.80409
 C120 C -0.16596 0.80875 0.79866
 H121 H -0.18175 0.83670 0.78868
 H122 H -0.21263 0.84061 0.82018
 H123 H -0.21393 0.82087 0.84149
 H124 H -0.18473 0.78693 0.84291
 H125 H -0.16450 0.78416 0.82216
 H126 H -0.16229 0.81474 0.78983
 C127 C 0.94277 0.32757 0.43348
 C128 C 0.94280 0.31778 0.42260
 C129 C 0.93197 0.30830 0.42114
 C130 C 0.92091 0.30850 0.43066
 C131 C 0.92084 0.31824 0.44141
 C132 C 0.93188 0.32793 0.44279
 C133 C 0.95173 0.33832 0.43682
 N134 N 0.94668 0.34550 0.44802
 C135 C 0.93445 0.33908 0.45170
 C136 C 0.90864 0.31619 0.44870
 N137 N 0.90135 0.30545 0.44268
 C138 C 0.90884 0.30073 0.43163
 C139 C 0.93450 0.30063 0.40922
 N140 N 0.94658 0.30532 0.40343
 C141 C 0.95172 0.31577 0.41166
 H142 H 0.96094 0.34092 0.43092
 H143 H 0.92773 0.34214 0.46018
 H144 H 0.90525 0.32231 0.45757
 H145 H 0.90585 0.29217 0.42479
 H146 H 0.92775 0.29261 0.40484
 H147 H 0.96122 0.32163 0.40980
 C148 C 0.44060 0.43422 0.83011
 C149 C 0.44112 0.42354 0.82000
 C150 C 0.43081 0.42271 0.80993
 C151 C 0.41984 0.43252 0.80983
 C152 C 0.41934 0.44301 0.81979
 C153 C 0.42981 0.44384 0.83001
 C154 C 0.44891 0.43733 0.84140
 N155 N 0.44348 0.44869 0.84830
 C156 C 0.43172 0.45265 0.84120
 C157 C 0.40738 0.45070 0.81744
 N158 N 0.40058 0.44516 0.80625
 C159 C 0.40819 0.43402 0.80155
 C160 C 0.43365 0.41107 0.80187
 N161 N 0.44545 0.40477 0.80676
 C162 C 0.45009 0.41239 0.81786
 H163 H 0.45812 0.43141 0.84427
 H164 H 0.42476 0.46121 0.84385
 H165 H 0.40375 0.45946 0.82368
 H166 H 0.40552 0.42746 0.79272
 H167 H 0.42727 0.40726 0.79335
 H168 H 0.45928 0.41001 0.82400
 C169 C 0.80179 0.92832 0.94098
 C170 C 0.80196 0.93825 0.93017
 C171 C 0.81262 0.94802 0.92935
 C172 C 0.82327 0.94803 0.93944
 C173 C 0.82305 0.93826 0.95008
 C174 C 0.81226 0.92828 0.95083
 C175 C 0.79336 0.91691 0.94364
 N176 N 0.79846 0.90971 0.95489
 C177 C 0.81005 0.91682 0.95933
 C178 C 0.83494 0.94017 0.95785
 N179 N 0.84258 0.95096 0.95230
 C180 C 0.83534 0.95576 0.94095
 C181 C 0.81058 0.95559 0.91725
 N182 N 0.79895 0.95061 0.91073
 C183 C 0.79362 0.94002 0.91866
 H184 H 0.78461 0.91386 0.93720
 H185 H 0.81675 0.91392 0.96794
 H186 H 0.83769 0.93381 0.96677
 H187 H 0.83851 0.96408 0.93396
 H188 H 0.81743 0.96370 0.91325
 H189 H 0.78442 0.93388 0.91621
 C190 C 0.30275 0.82479 0.31422
 C191 C 0.30408 0.81487 0.32496
 C192 C 0.31524 0.80561 0.32521
 C193 C 0.32523 0.80612 0.31458
 C194 C 0.32385 0.81591 0.30396
 C195 C 0.31255 0.82532 0.30383
 C196 C 0.29368 0.83583 0.31211
 N197 N 0.29771 0.84329 0.30064
 C198 C 0.30929 0.83668 0.29552
 C199 C 0.33533 0.81462 0.29556
 N200 N 0.34372 0.80429 0.30076
 C201 C 0.33759 0.79903 0.31242
 C202 C 0.31426 0.79791 0.33736
 N203 N 0.30281 0.80234 0.34446
 C204 C 0.29653 0.81268 0.33686
 H205 H 0.28517 0.83839 0.31898
 H206 H 0.31540 0.83996 0.28668
 H207 H 0.33741 0.82083 0.28635
 H208 H 0.34198 0.79096 0.31911
 H209 H 0.32167 0.79008 0.34099
 H210 H 0.28719 0.81836 0.33978
 C211 C 0.80183 0.43182 0.43896
 C212 C 0.80239 0.44129 0.42774
 C213 C 0.81213 0.45207 0.42773
 C214 C 0.82148 0.45352 0.43893
 C215 C 0.82080 0.44428 0.44998
 C216 C 0.81096 0.43337 0.45001
 C217 C 0.79427 0.41969 0.44134
 N218 N 0.79867 0.41384 0.45354
 C219 C 0.80885 0.42223 0.45890
 C220 C 0.83168 0.44736 0.45878
 N221 N 0.83924 0.45825 0.45337
 C222 C 0.83288 0.46208 0.44118
 C223 C 0.81079 0.45908 0.41525
 N224 N 0.80048 0.45285 0.40765
 C225 C 0.79532 0.44192 0.41526
 H226 H 0.78662 0.41513 0.43436
 H227 H 0.81453 0.42029 0.46846
 H228 H 0.83423 0.44132 0.46799
 H229 H 0.83628 0.47028 0.43414
 H230 H 0.81695 0.46805 0.41198
 H231 H 0.78732 0.43464 0.41184
 C232 C 0.93470 0.82812 -0.05738
 C233 C 0.92589 0.81630 -0.05753
 C234 C 0.92716 0.80631 -0.06791
 C235 C 0.93727 0.80798 -0.07828
 C236 C 0.94591 0.81960 -0.07817
 C237 C 0.94465 0.82975 -0.06762
 C238 C 0.93549 0.83979 -0.04889
 N239 N 0.94567 0.84849 -0.05372
 C240 C 0.95130 0.84239 -0.06521
 C241 C 0.95417 0.81879 -0.08980
 N242 N 0.95081 0.80689 -0.09713
 C243 C 0.94040 0.80028 -0.08996
 C244 C 0.91686 0.79643 -0.06590
 N245 N 0.90928 0.80018 -0.05456
 C246 C 0.91480 0.81235 -0.04938
 H247 H 0.92910 0.84173 -0.03984
 H248 H 0.95938 0.84695 -0.07162
 H249 H 0.96197 0.82651 -0.09254
 H250 H 0.93500 0.79076 -0.09302
 H251 H 0.91497 0.78725 -0.07234
 H252 H 0.91073 0.81823 -0.04064
 C253 C 0.30024 0.32421 0.80844
 C254 C 0.29916 0.31361 0.81855
 C255 C 0.30892 0.30288 0.81911
 C256 C 0.31990 0.30260 0.80954
 C257 C 0.32098 0.31305 0.79955
 C258 C 0.31106 0.32397 0.79901
 C259 C 0.29287 0.33647 0.80624
 N260 N 0.29891 0.34374 0.79565
 C261 C 0.31005 0.33610 0.79116
 C262 C 0.33314 0.31064 0.79238
 N263 N 0.33948 0.29896 0.79775
 C264 C 0.33138 0.29399 0.80825
 C265 C 0.30596 0.29482 0.83063
 N266 N 0.29462 0.30040 0.83710
 C267 C 0.29039 0.31188 0.82969
 H268 H 0.28415 0.34009 0.81239
 H269 H 0.31711 0.33921 0.78296
 H270 H 0.33731 0.31728 0.78424
 H271 H 0.33369 0.28486 0.81464
 H272 H 0.31208 0.28598 0.83439
 H273 H 0.28174 0.31872 0.83230
 C274 C 0.16800 0.56950 0.56388
 C275 C 0.17804 0.58020 0.56250
 C276 C 0.18871 0.58131 0.57214
 C277 C 0.18952 0.57180 0.58329
 C278 C 0.17964 0.56128 0.58467
 C279 C 0.16878 0.56013 0.57490
 C280 C 0.15628 0.56607 0.55628
 N281 N 0.14992 0.55483 0.56240
 C282 C 0.15755 0.55115 0.57381
 C283 C 0.18284 0.55389 0.59660
 N284 N 0.19444 0.55966 0.60250
 C285 C 0.19857 0.57063 0.59437
 C286 C 0.19666 0.59279 0.56848
 N287 N 0.19113 0.59872 0.55680
 C288 C 0.17970 0.59104 0.55308
 H289 H 0.15252 0.57159 0.54715
 H290 H 0.15518 0.54253 0.58081
 H291 H 0.17691 0.54517 0.60082
 H292 H 0.20755 0.57729 0.59629
 H293 H 0.20560 0.59672 0.57418
 H294 H 0.17306 0.59313 0.54418
 C295 C 0.58106 0.68493 0.05762
 C296 C 0.56994 0.67534 0.05760
 C297 C 0.55959 0.67643 0.06748
 C298 C 0.56021 0.68713 0.07752
 C299 C 0.57118 0.69660 0.07759
 C300 C 0.58173 0.69549 0.06752
 C301 C 0.59287 0.68591 0.04964
 N302 N 0.60081 0.69678 0.05442
 C303 C 0.59402 0.70271 0.06539
 C304 C 0.56938 0.70529 0.08893
 N305 N 0.55761 0.70129 0.09578
 C306 C 0.55199 0.69015 0.08880
 C307 C 0.55059 0.66530 0.06545
 N308 N 0.55526 0.65740 0.05461
 C309 C 0.56710 0.66353 0.04975
 H310 H 0.59544 0.67912 0.04097
 H311 H 0.59790 0.71136 0.07166
 H312 H 0.57625 0.71381 0.09200
 H313 H 0.54286 0.68427 0.09194
 H314 H 0.54141 0.66310 0.07158
 H315 H 0.57356 0.65943 0.04149
 C316 C 0.67768 0.19325 0.66931
 C317 C 0.66806 0.19227 0.68022
 C318 C 0.66934 0.18163 0.69000
 C319 C 0.68028 0.17182 0.68902
 C320 C 0.68975 0.17278 0.67827
 C321 C 0.68844 0.18358 0.66835
 C322 C 0.67878 0.20225 0.65812
 N323 N 0.68993 0.19827 0.65033
 C324 C 0.69588 0.18682 0.65657
 C325 C 0.69895 0.16170 0.67971
 N326 N 0.69530 0.15400 0.69108
 C327 C 0.68387 0.16016 0.69682
 C328 C 0.65836 0.18299 0.69907
 N329 N 0.65039 0.19418 0.69504
 C330 C 0.65631 0.19991 0.68349
 H331 H 0.67194 0.21107 0.65589
 H332 H 0.70475 0.18099 0.65267
 H333 H 0.70768 0.15948 0.67296
 H334 H 0.67830 0.15628 0.70581
 H335 H 0.65636 0.17627 0.70795
 H336 H 0.65218 0.20873 0.67761
 C337 C 1.07407 0.06303 0.19560
 C338 C 1.06275 0.07242 0.19531
 C339 C 1.05244 0.07092 0.18534
 C340 C 1.05329 0.06002 0.17552
 C341 C 1.06444 0.05082 0.17574
 C342 C 1.07492 0.05230 0.18588
 C343 C 1.08596 0.06239 0.20365
 N344 N 1.09407 0.05157 0.19906
 C345 C 1.08734 0.04536 0.18817
 C346 C 1.06296 0.04196 0.16449
 N347 N 1.05113 0.04553 0.15729
 C348 C 1.04522 0.05663 0.16417
 C349 C 1.04328 0.08199 0.18693
 N350 N 1.04780 0.09025 0.19760
 C351 C 1.05971 0.08441 0.20280
 H352 H 1.08848 0.06939 0.21218
 H353 H 1.09136 0.03671 0.18201
 H354 H 1.07024 0.03368 0.16185
 H355 H 1.03600 0.06241 0.16105
 H356 H 1.03412 0.08395 0.18060
 H357 H 1.06608 0.08886 0.21102
 C358 C 0.06946 0.17930 1.05675
 C359 C 0.07961 0.18992 1.05643
 C360 C 0.07940 0.20058 1.06620
 C361 C 0.06906 0.20076 1.07644
 C362 C 0.05907 0.19029 1.07684
 C363 C 0.05925 0.17942 1.06687
 C364 C 0.06759 0.16731 1.04894
 N365 N 0.05650 0.16002 1.05403
 C366 C 0.05133 0.16740 1.06501
 C367 C 0.05100 0.19278 1.08840
 N368 N 0.05585 0.20452 1.09516
 C369 C 0.06695 0.20938 1.08769
 C370 C 0.09099 0.20883 1.06404
 N371 N 0.09833 0.20338 1.05322
 C372 C 0.09137 0.19181 1.04849
 H373 H 0.07391 0.16417 1.04018
 H374 H 0.04272 0.16409 1.07148
 H375 H 0.04251 0.18609 1.09167
 H376 H 0.07339 0.21839 1.09015
 H377 H 0.09394 0.21797 1.07012
 H378 H 0.09490 0.18484 1.04032
 C379 C 0.17010 0.69771 0.68031
 C380 C 0.18104 0.69640 0.67073
 C381 C 0.19092 0.68587 0.67241
 C382 C 0.19003 0.67650 0.68371
 C383 C 0.17928 0.67783 0.69312
 C384 C 0.16927 0.68850 0.69142
 C385 C 0.15873 0.70659 0.68107
 N386 N 0.15100 0.70295 0.69237
 C387 C 0.15744 0.69186 0.69872
 C388 C 0.18068 0.66709 0.70267
 N389 N 0.19201 0.65918 0.69929
 C390 C 0.19781 0.66492 0.68768
 C391 C 0.19999 0.68684 0.66140
 N392 N 0.19587 0.69767 0.65301
 C393 C 0.18425 0.70355 0.65869
 H394 H 0.15629 0.71505 0.67388
 H395 H 0.15361 0.68631 0.70777
 H396 H 0.17387 0.66522 0.71142
 H397 H 0.20676 0.66075 0.68223
 H398 H 0.20896 0.68012 0.65970
 H399 H 0.17830 0.71218 0.65425
 C400 C 1.18237 0.17583 0.18819
 C401 C 1.17272 0.18694 0.18834
 C402 C 1.17315 0.19723 0.17818
 C403 C 1.18325 0.19653 0.16769
 C404 C 1.19275 0.18558 0.16747
 C405 C 1.19234 0.17510 0.17786
 C406 C 1.18405 0.16418 0.19655
 N407 N 1.19479 0.15629 0.19161
 C408 C 1.19994 0.16293 0.18016
 C409 C 1.20085 0.18740 0.15581
 N410 N 1.19653 0.19922 0.14879
 C411 C 1.18570 0.20478 0.15620
 C412 C 1.16218 0.20630 0.18057
 N413 N 1.15504 0.20172 0.19192
 C414 C 1.16150 0.18986 0.19672
 H415 H 1.17789 0.16172 0.20564
 H416 H 1.20836 0.15905 0.17375
 H417 H 1.20915 0.18034 0.15277
 H418 H 1.17965 0.21403 0.15354
 H419 H 1.15958 0.21548 0.17437
 H420 H 1.15802 0.18345 0.20536
 C421 C 0.67726 1.05779 0.56880
 C422 C 0.68775 1.05799 0.57900
 C423 C 0.69808 1.06810 0.57848
 C424 C 0.69807 1.07817 0.56780
 C425 C 0.68771 1.07810 0.55780
 C426 C 0.67719 1.06776 0.55826
 C427 C 0.66565 1.04949 0.56707
 N428 N 0.65839 1.05412 0.55577
 C429 C 0.66541 1.06532 0.55031
 C430 C 0.69000 1.08963 0.54934
 N431 N 0.70153 1.09678 0.55395
 C432 C 0.70644 1.08962 0.56530
 C433 C 0.70634 1.06636 0.59008
 N434 N 0.70121 1.05548 0.59776
 C435 C 0.68984 1.05027 0.59098
 H436 H 0.66276 1.04068 0.57363
 H437 H 0.66205 1.07153 0.54145
 H438 H 0.68350 1.09247 0.54056
 H439 H 0.71514 1.09263 0.57183
 H440 H 0.71530 1.07275 0.59278
 H441 H 0.68316 1.04190 0.59474
 C442 C 0.55837 0.54874 0.18004
 C443 C 0.56790 0.54731 0.19110
 C444 C 0.56654 0.55573 0.20274
 C445 C 0.55587 0.56578 0.20347
 C446 C 0.54661 0.56736 0.19255
 C447 C 0.54780 0.55870 0.18078
 C448 C 0.55753 0.54260 0.16708
 N449 N 0.54670 0.54854 0.15996
 C450 C 0.54076 0.55844 0.16830
 C451 C 0.53866 0.57915 0.19534
 N452 N 0.54297 0.58479 0.20766
 C453 C 0.55341 0.57651 0.21272
 C454 C 0.57788 0.55328 0.21115
 N455 N 0.58628 0.54364 0.20492
 C456 C 0.58018 0.53983 0.19266
 H457 H 0.56457 0.53469 0.16302
 H458 H 0.53193 0.56501 0.16554
 H459 H 0.53104 0.58384 0.18838
 H460 H 0.55929 0.57843 0.22216
 H461 H 0.58003 0.55856 0.22090
 H462 H 0.58474 0.53284 0.18503
 C463 C 0.67211 0.68215 0.19368
 C464 C 0.68231 0.67146 0.19322
 C465 C 0.69301 0.67229 0.18364
 C466 C 0.69371 0.68373 0.17440
 C467 C 0.68376 0.69425 0.17494
 C468 C 0.67293 0.69346 0.18461
 C469 C 0.65993 0.68379 0.20112
 N470 N 0.65338 0.69577 0.19668
 C471 C 0.66137 0.70173 0.18663
 C472 C 0.68634 0.70343 0.16419
 N473 N 0.69759 0.69871 0.15697
 C474 C 0.70220 0.68666 0.16324
 C475 C 0.70099 0.66032 0.18508
 N476 N 0.69547 0.65214 0.19530
 C477 C 0.68400 0.65891 0.20032
 H478 H 0.65588 0.67648 0.20876
 H479 H 0.65891 0.71133 0.18101
 H480 H 0.68022 0.71270 0.16168
 H481 H 0.71063 0.68006 0.15957
 H482 H 0.71021 0.65783 0.17911
 H483 H 0.67716 0.65487 0.20831
 C484 C 0.17910 0.06106 1.04974
 C485 C 0.19053 0.07030 1.05015
 C486 C 0.20069 0.06868 1.06025
 C487 C 0.19961 0.05780 1.07007
 C488 C 0.18836 0.04868 1.06969
 C489 C 0.17801 0.05033 1.05943
 C490 C 0.16721 0.06076 1.04169
 N491 N 0.15885 0.05014 1.04627
 C492 C 0.16543 0.04371 1.05714
 C493 C 0.18955 0.03989 1.08105
 N494 N 0.20121 0.04350 1.08836
 C495 C 0.20739 0.05447 1.08164
 C496 C 0.20994 0.07967 1.05882
 N497 N 0.20562 0.08800 1.04811
 C498 C 0.19374 0.08229 1.04274
 H499 H 0.16481 0.06791 1.03322
 H500 H 0.16117 0.03521 1.06333
 H501 H 0.18227 0.03166 1.08387
 H502 H 0.21653 0.06013 1.08522
 H503 H 0.21902 0.08153 1.06529
 H504 H 0.18750 0.08685 1.03447
 C505 C 0.57196 0.19837 0.55923
 C506 C 0.56209 0.19962 0.56988
 C507 C 0.55144 0.18986 0.57097
 C508 C 0.55051 0.17869 0.56144
 C509 C 0.56024 0.17747 0.55094
 C510 C 0.57104 0.18737 0.54983
 C511 C 0.58391 0.20576 0.55621
 N512 N 0.59029 0.19955 0.54518
 C513 C 0.58242 0.18829 0.54122
 C514 C 0.55734 0.16522 0.54383
 N515 N 0.54607 0.15892 0.54973
 C516 C 0.54183 0.16715 0.56052
 C517 C 0.54398 0.19318 0.58271
 N518 N 0.54983 0.20474 0.58879
 C519 C 0.56092 0.20874 0.58094
 H520 H 0.58792 0.21468 0.56203
 H521 H 0.58482 0.18114 0.53279
 H522 H 0.56340 0.16094 0.53536
 H523 H 0.53318 0.16487 0.56735
 H524 H 0.53528 0.18723 0.58680
 H525 H 0.56777 0.21754 0.58315
 C526 C 0.07141 0.56349 0.69614
 C527 C 0.06135 0.57426 0.69519
 C528 C 0.05112 0.57360 0.68502
 C529 C 0.05078 0.56228 0.67567
 C530 C 0.06062 0.55167 0.67664
 C531 C 0.07098 0.55227 0.68696
 C532 C 0.08325 0.56185 0.70417
 N533 N 0.09002 0.54993 0.70005
 C534 C 0.08249 0.54401 0.68954
 C535 C 0.05859 0.54281 0.66548
 N536 N 0.04782 0.54786 0.65765
 C537 C 0.04296 0.55976 0.66391
 C538 C 0.04330 0.58571 0.68594
 N539 N 0.04848 0.59381 0.69642
 C540 C 0.05955 0.58686 0.70213
 H541 H 0.08696 0.56918 0.71198
 H542 H 0.08524 0.53450 0.68396
 H543 H 0.06484 0.53363 0.66308
 H544 H 0.03490 0.56662 0.65981
 H545 H 0.03448 0.58839 0.67938
 H546 H 0.06612 0.59083 0.71044
 C547 C 0.68113 0.54958 0.05991
 C548 C 0.69035 0.54838 0.07119
 C549 C 0.70071 0.55834 0.07313
 C550 C 0.70198 0.56965 0.06379
 C551 C 0.69286 0.57083 0.05266
 C552 C 0.68234 0.56071 0.05071
 C553 C 0.66946 0.54204 0.05616
 N554 N 0.66351 0.54829 0.04485
 C555 C 0.67139 0.55973 0.04145
 C556 C 0.69592 0.58326 0.04592
 N557 N 0.70671 0.58969 0.05264
 C558 C 0.71047 0.58136 0.06359
 C559 C 0.70739 0.55507 0.08542
 N560 N 0.70133 0.54337 0.09099
 C561 C 0.69091 0.53922 0.08227
 H562 H 0.66528 0.53307 0.06173
 H563 H 0.66922 0.56701 0.03302
 H564 H 0.69029 0.58754 0.03709
 H565 H 0.71868 0.58366 0.07101
 H566 H 0.71564 0.56117 0.09023
 H567 H 0.68405 0.53031 0.08391
 C568 C 0.07271 0.69407 0.57902
 C569 C 0.08298 0.69495 0.56876
 C570 C 0.08381 0.68474 0.55857
 C571 C 0.07429 0.67350 0.55846
 C572 C 0.06409 0.67261 0.56858
 C573 C 0.06333 0.68299 0.57902
 C574 C 0.07004 0.70220 0.59050
 N575 N 0.05928 0.69637 0.59765
 C576 C 0.05506 0.68461 0.59063
 C577 C 0.05660 0.66046 0.56599
 N578 N 0.06199 0.65399 0.55457
 C579 C 0.07284 0.66194 0.54995
 C580 C 0.09525 0.68790 0.55053
 N581 N 0.10140 0.69978 0.55564
 C582 C 0.09386 0.70416 0.56678
 H583 H 0.07563 0.71168 0.59343
 H584 H 0.04690 0.67749 0.59393
 H585 H 0.04801 0.65652 0.57215
 H586 H 0.07915 0.65959 0.54094
 H587 H 0.09909 0.68164 0.54195
 H588 H 0.09615 0.71331 0.57313
 C589 C 0.56429 1.05349 0.67664
 C590 C 0.57455 1.05304 0.68710
 C591 C 0.57440 1.06290 0.69770
 C592 C 0.56402 1.07335 0.69799
 C593 C 0.55396 1.07375 0.68772
 C594 C 0.55409 1.06374 0.67698
 C595 C 0.56219 1.04573 0.66472
 N596 N 0.55089 1.05099 0.65767
 C597 C 0.54595 1.06207 0.66531
 C598 C 0.54577 1.08539 0.69015
 N599 N 0.55057 1.09230 0.70169
 C600 C 0.56179 1.08479 0.70651
 C601 C 0.58591 1.06038 0.70595
 N602 N 0.59310 1.04924 0.70062
 C603 C 0.58617 1.04471 0.68907
 H604 H 0.56868 1.03698 0.66158
 H605 H 0.53730 1.06887 0.66261
 H606 H 0.53721 1.08862 0.68352
 H607 H 0.56823 1.08738 0.71538
 H608 H 0.58881 1.06632 0.71512
 H609 H 0.58955 1.03627 0.68228
 C610 C 0.44821 0.32664 0.93151
 C611 C 0.44714 0.31717 0.92038
 C612 C 0.43630 0.30757 0.91984
 C613 C 0.42637 0.30730 0.93054
 C614 C 0.42746 0.31668 0.94152
 C615 C 0.43845 0.32646 0.94196
 C616 C 0.45711 0.33770 0.93411
 N617 N 0.45300 0.34449 0.94593
 C618 C 0.44154 0.33749 0.95077
 C619 C 0.41615 0.31451 0.94998
 N620 N 0.40814 0.30405 0.94445
 C621 C 0.41436 0.29959 0.93253
 C622 C 0.43754 0.30031 0.90748
 N623 N 0.44886 0.30532 0.90054
 C624 C 0.45478 0.31561 0.90845
 H625 H 0.46548 0.34082 0.92730
 H626 H 0.43559 0.34014 0.95992
 H627 H 0.41395 0.32019 0.95948
 H628 H 0.41027 0.29162 0.92555
 H629 H 0.43044 0.29231 0.90365
 H630 H 0.46397 0.32164 0.90574
 C631 C 0.94164 0.43327 0.32853
 C632 C 0.94035 0.42210 0.31895
 C633 C 0.92929 0.42194 0.30963
 C634 C 0.91938 0.43285 0.30973
 C635 C 0.92072 0.44380 0.31909
 C636 C 0.93193 0.44403 0.32845
 C637 C 0.95083 0.43610 0.33928
 N638 N 0.94694 0.44837 0.34571
 C639 C 0.93532 0.45317 0.33896
 C640 C 0.90938 0.45252 0.31738
 N641 N 0.90107 0.44711 0.30721
 C642 C 0.90717 0.43508 0.30243
 C643 C 0.93040 0.40984 0.30185
 N644 N 0.94185 0.40252 0.30614
 C645 C 0.94799 0.40997 0.31663
 H646 H 0.95967 0.42956 0.34205
 H647 H 0.92917 0.46232 0.34172
 H648 H 0.90732 0.46205 0.32323
 H649 H 0.90282 0.42814 0.29459
 H650 H 0.92339 0.40672 0.29355
 H651 H 0.95720 0.40672 0.32236
 C652 C 0.31341 0.93355 0.41714
 C653 C 0.31324 0.92260 0.42702
 C654 C 0.32340 0.92201 0.43728
 C655 C 0.33387 0.93237 0.43783
 C656 C 0.33396 0.94312 0.42815
 C657 C 0.32370 0.94369 0.41773
 C658 C 0.30519 0.93660 0.40573
 N659 N 0.31022 0.94840 0.39924
 C660 C 0.32160 0.95272 0.40672
 C661 C 0.34534 0.95145 0.43096
 N662 N 0.35237 0.94614 0.44219
 C663 C 0.34527 0.93436 0.44639
 C664 C 0.32085 0.91012 0.44512
 N665 N 0.30938 0.90345 0.43992
 C666 C 0.30469 0.91107 0.42883
 H667 H 0.29639 0.93031 0.40244
 H668 H 0.32814 0.96171 0.40452
 H669 H 0.34824 0.96055 0.42484
 H670 H 0.34795 0.92760 0.45505
 H671 H 0.32713 0.90645 0.45378
 H672 H 0.29566 0.90852 0.42252
 O673 O 0.20979 0.52381 0.75628
 O674 O 0.21444 0.52225 0.77994
 O675 O 0.24689 0.54266 0.73951
 O676 O 0.26969 0.53794 0.73870
 O677 O 0.22891 0.50572 0.71994
 O678 O 0.22916 0.48130 0.72515
 O679 O 0.28322 0.50392 0.77538
 O680 O 0.27943 0.52797 0.77294
 O681 O 0.24763 0.48653 0.79333
 O682 O 0.22267 0.48786 0.78876
 O683 O 0.26420 0.46785 0.75813
 O684 O 0.26374 0.47265 0.73339
 O685 O 0.28288 0.48661 0.75898
 O686 O 0.27791 0.48842 0.73298
 O687 O 0.24719 0.46778 0.77449
 O688 O 0.22151 0.47392 0.77298
 O689 O 0.26505 0.50278 0.79330
 O690 O 0.26045 0.52859 0.78918
 O691 O 0.20948 0.50672 0.73962
 O692 O 0.21428 0.48144 0.74098
 O693 O 0.24566 0.52270 0.71986
 O694 O 0.27104 0.51982 0.72565
 O695 O 0.22944 0.54289 0.75546
 O696 O 0.23293 0.53747 0.78073
 Zr697 Zr 0.23011 0.52255 0.76449
 O698 O 0.24201 0.50962 0.77792
 Zr699 Zr 0.25448 0.52186 0.74000
 O700 O 0.26768 0.50949 0.75267
 Zr701 Zr 0.22954 0.49753 0.74023
 O702 O 0.24184 0.48378 0.75237
 Zr703 Zr 0.26323 0.51279 0.77379
 O704 O 0.25142 0.52679 0.76116
 Zr705 Zr 0.23849 0.48820 0.77348
 O706 O 0.22514 0.50108 0.76132
 Zr707 Zr 0.26313 0.48809 0.74928
 O708 O 0.25079 0.50043 0.73554
 O709 O 0.23337 0.51883 0.74345
 O710 O 0.25972 0.49137 0.77036
 C711 C 0.20367 0.51672 0.74661
 C712 C 0.23691 0.54883 0.74602
 C713 C 0.23591 0.51553 0.71392
 C714 C 0.28885 0.49355 0.76886
 C715 C 0.25804 0.49280 0.79907
 C716 C 0.25719 0.46184 0.76781
 H717 H 0.23985 0.51193 0.78771
 H718 H 0.23947 0.47391 0.75000
 H719 H 0.22749 0.52494 0.73745
 H720 H 0.27753 0.51177 0.75065
 H721 H 0.27505 0.53697 0.76999
 H722 H 0.27637 0.53627 0.74639
 H723 H 0.22310 0.46722 0.76526
 H724 H 0.20930 0.48258 0.74991
 H725 H 0.26837 0.52792 0.79582
 H726 H 0.22574 0.54496 0.77975
 H727 H 0.25479 0.46747 0.73361
 H728 H 0.23858 0.48106 0.72098
 H729 H 0.21057 0.51255 0.78004
 H730 H 0.22341 0.49668 0.79422
 H731 H 0.26905 0.51134 0.71996
 H732 H 0.28479 0.49591 0.73506
 O733 O 0.21526 0.01946 0.24454
 O734 O 0.21899 0.01806 0.26846
 O735 O 0.25190 0.03899 0.22865
 O736 O 0.27657 0.03399 0.23022
 O737 O 0.23605 0.00185 0.20930
 O738 O 0.23713 -0.02266 0.21451
 O739 O 0.28832 0.00150 0.26677
 O740 O 0.28445 0.02515 0.26380
 O741 O 0.25265 -0.01661 0.28336
 O742 O 0.22782 -0.01595 0.27787
 O743 O 0.27085 -0.03510 0.24881
 O744 O 0.27124 -0.03020 0.22398
 O745 O 0.28909 -0.01585 0.25043
 O746 O 0.28530 -0.01439 0.22440
 O747 O 0.25347 -0.03545 0.26477
 O748 O 0.22766 -0.03007 0.26216
 O749 O 0.26944 0.00029 0.28397
 O750 O 0.26451 0.02596 0.27922
 O751 O 0.21593 0.00193 0.22835
 O752 O 0.22156 -0.02302 0.22966
 O753 O 0.25290 0.01875 0.20954
 O754 O 0.27741 0.01789 0.21602
 O755 O 0.23433 0.03903 0.24445
 O756 O 0.23699 0.03385 0.26986
 Zr757 Zr 0.23524 0.01876 0.25363
 O758 O 0.24697 0.00624 0.26759
 Zr759 Zr 0.26057 0.01862 0.23013
 O760 O 0.27353 0.00662 0.24333
 Zr761 Zr 0.23631 -0.00643 0.22956
 O762 O 0.24846 -0.01978 0.24226
 Zr763 Zr 0.26825 0.00997 0.26424
 O764 O 0.25654 0.02364 0.25111
 Zr765 Zr 0.24421 -0.01530 0.26320
 O766 O 0.23099 -0.00287 0.25043
 Zr767 Zr 0.26973 -0.01490 0.23993
 O768 O 0.25766 -0.00294 0.22569
 O769 O 0.23942 0.01499 0.23278
 O770 O 0.26544 -0.01158 0.26084
 C771 C 0.20963 0.01192 0.23490
 C772 C 0.24170 0.04500 0.23496
 C773 C 0.24334 0.01151 0.20338
 C774 C 0.29447 -0.00875 0.26054
 C775 C 0.26257 -0.00993 0.28950
 C776 C 0.26375 -0.04121 0.25836
 H777 H 0.24439 0.00857 0.27727
 H778 H 0.24643 -0.02973 0.23988
 H779 H 0.23358 0.02081 0.22649
 H780 H 0.28338 0.00921 0.24166
 H781 H 0.28015 0.03421 0.26094
 H782 H 0.27535 0.03968 0.23875
 H783 H 0.22980 -0.03687 0.25466
 H784 H 0.21636 -0.02223 0.23849
 H785 H 0.27220 0.02560 0.28614
 H786 H 0.22962 0.04110 0.26857
 H787 H 0.26250 -0.03575 0.22401
 H788 H 0.24664 -0.02241 0.21055
 H789 H 0.21533 0.00828 0.26840
 H790 H 0.22812 -0.00707 0.28326
 H791 H 0.27693 0.00859 0.21135
 H792 H 0.29168 -0.00646 0.22651
 O793 O 0.53415 0.72742 0.24950
 O794 O 0.52985 0.72921 0.27299
 O795 O 0.49668 0.70959 0.23247
 O796 O 0.47321 0.71584 0.23108
 O797 O 0.51593 0.74592 0.21319
 O798 O 0.51582 0.77042 0.21815
 O799 O 0.46141 0.74880 0.26818
 O800 O 0.46434 0.72511 0.26566
 O801 O 0.49756 0.76518 0.28642
 O802 O 0.52231 0.76398 0.28166
 O803 O 0.48089 0.78464 0.25088
 O804 O 0.48087 0.78022 0.22662
 O805 O 0.46176 0.76605 0.25169
 O806 O 0.46705 0.76402 0.22548
 O807 O 0.49744 0.78418 0.26785
 O808 O 0.52323 0.77808 0.26596
 O809 O 0.47982 0.74928 0.28630
 O810 O 0.48378 0.72347 0.28176
 O811 O 0.53503 0.74472 0.23304
 O812 O 0.53054 0.77023 0.23443
 O813 O 0.49854 0.72962 0.21274
 O814 O 0.47330 0.73278 0.21809
 O815 O 0.51376 0.70882 0.24893
 O816 O 0.51103 0.71463 0.27407
 Zr817 Zr 0.51396 0.72928 0.25761
 O818 O 0.50240 0.74244 0.27092
 Zr819 Zr 0.48965 0.73059 0.23280
 O820 O 0.47672 0.74306 0.24547
 Zr821 Zr 0.51510 0.75431 0.23337
 O822 O 0.50295 0.76828 0.24534
 Zr823 Zr 0.48115 0.73959 0.26661
 O824 O 0.49259 0.72544 0.25400
 Zr825 Zr 0.50625 0.76380 0.26648
 O826 O 0.51938 0.75065 0.25450
 Zr827 Zr 0.48156 0.76438 0.24214
 O828 O 0.49377 0.75195 0.22846
 O829 O 0.51082 0.73307 0.23653
 O830 O 0.48496 0.76099 0.26325
 C831 C 0.54052 0.73445 0.24000
 C832 C 0.50615 0.70306 0.23945
 C833 C 0.50868 0.73638 0.20703
 C834 C 0.45578 0.75914 0.26157
 C835 C 0.48722 0.75891 0.29220
 C836 C 0.48766 0.79037 0.26095
 H837 H 0.50460 0.74005 0.28070
 H838 H 0.50543 0.77813 0.24301
 H839 H 0.51654 0.72677 0.23066
 H840 H 0.46685 0.74088 0.24335
 H841 H 0.46835 0.71583 0.26314
 H842 H 0.47174 0.71198 0.24051
 H843 H 0.52140 0.78505 0.25849
 H844 H 0.53551 0.76891 0.24339
 H845 H 0.47592 0.72417 0.28841
 H846 H 0.51795 0.70689 0.27312
 H847 H 0.49036 0.78425 0.22592
 H848 H 0.50648 0.77066 0.21371
 H849 H 0.53396 0.73880 0.27306
 H850 H 0.52175 0.75500 0.28688
 H851 H 0.47538 0.74131 0.21251
 H852 H 0.45974 0.75702 0.22775
 O853 O -0.02419 0.78780 0.74617
 O854 O -0.02211 0.78222 0.72262
 O855 O -0.04140 0.75100 0.76489
 O856 O -0.03645 0.72790 0.76607
 O857 O -0.00560 0.77083 0.78326
 O858 O 0.01873 0.77068 0.77797
 O859 O -0.00199 0.71337 0.73056
 O860 O -0.02600 0.71629 0.73334
 O861 O 0.01357 0.74856 0.71080
 O862 O 0.01127 0.77440 0.71418
 O863 O 0.03286 0.73446 0.74678
 O864 O 0.02813 0.73625 0.77168
 O865 O 0.01474 0.71488 0.74736
 O866 O 0.01341 0.72120 0.77276
 O867 O 0.03208 0.75045 0.72917
 O868 O 0.02577 0.77625 0.72942
 O869 O -0.00241 0.73088 0.71172
 O870 O -0.02774 0.73470 0.71605
 O871 O -0.00697 0.78945 0.76249
 O872 O 0.01792 0.78534 0.76159
 O873 O -0.02144 0.75301 0.78420
 O874 O -0.01848 0.72749 0.77972
 O875 O -0.04233 0.76720 0.74743
 O876 O -0.03680 0.76319 0.72253
 Zr877 Zr -0.02217 0.76697 0.73875
 O878 O -0.00925 0.75455 0.72596
 Zr879 Zr -0.02076 0.74349 0.76446
 O880 O -0.00813 0.72991 0.75262
 Zr881 Zr 0.00257 0.76938 0.76300
 O882 O 0.01645 0.75683 0.75138
 Zr883 Zr -0.01173 0.73322 0.73132
 O884 O -0.02580 0.74547 0.74320
 Zr885 Zr 0.01182 0.75894 0.73010
 O886 O -0.00111 0.77269 0.74167
 Zr887 Zr 0.01289 0.73537 0.75570
 O888 O 0.00031 0.74805 0.76876
 O889 O -0.01836 0.76476 0.75994
 O890 O 0.00934 0.73758 0.73447
 C891 C -0.01721 0.79467 0.75543
 C892 C -0.04789 0.76027 0.75750
 C893 C -0.01482 0.76344 0.78966
 C894 C 0.00825 0.70823 0.73763
 C895 C 0.00734 0.73775 0.70559
 C896 C 0.03836 0.74096 0.73644
 H897 H -0.01169 0.75616 0.71608
 H898 H 0.02615 0.75964 0.75354
 H899 H -0.02453 0.77078 0.76566
 H900 H -0.01003 0.71998 0.75519
 H901 H -0.03505 0.72052 0.73602
 H902 H -0.03390 0.72021 0.75961
 H903 H 0.03229 0.77534 0.73737
 H904 H 0.01704 0.78948 0.75217
 H905 H -0.02707 0.72628 0.70995
 H906 H -0.04428 0.77042 0.72305
 H907 H 0.03326 0.74525 0.77063
 H908 H 0.01895 0.76146 0.78283
 H909 H -0.01270 0.78651 0.72257
 H910 H 0.00287 0.77266 0.70842
 H911 H -0.00984 0.72962 0.78498
 H912 H 0.00583 0.71424 0.77143
 O913 O -0.00095 0.04160 0.01989
 O914 O -0.02470 0.03750 0.01683
 O915 O 0.01505 0.00335 0.03726
 O916 O 0.01511 -0.01967 0.03190
 O917 O 0.03592 0.02265 0.00267
 O918 O 0.03147 0.02344 -0.02170
 O919 O -0.02012 -0.03134 -0.00409
 O920 O -0.01818 -0.02896 0.01985
 O921 O -0.03732 0.00569 -0.01983
 O922 O -0.03229 0.03099 -0.01713
 O923 O -0.00163 -0.01083 -0.03777
 O924 O 0.02330 -0.01050 -0.03214
 O925 O -0.00261 -0.03061 -0.01998
 O926 O 0.02314 -0.02575 -0.01758
 O927 O -0.01801 0.00650 -0.03754
 O928 O -0.01637 0.03213 -0.03072
 O929 O -0.03793 -0.01250 -0.00442
 O930 O -0.03431 -0.00951 0.02113
 O931 O 0.01632 0.04251 0.00373
 O932 O 0.01583 0.03900 -0.02132
 O933 O 0.03529 0.00453 0.01819
 O934 O 0.02930 -0.02060 0.01460
 O935 O -0.00146 0.02061 0.03766
 O936 O -0.02642 0.01821 0.03099
 Zr937 Zr -0.00944 0.02130 0.01722
 O938 O -0.02251 0.00999 0.00354
 Zr939 Zr 0.01495 -0.00370 0.01651
 O940 O 0.00270 -0.01626 0.00317
 Zr941 Zr 0.01584 0.02268 -0.00629
 O942 O 0.00398 0.01112 -0.02087
 Zr943 Zr -0.01855 -0.01168 0.00585
 O944 O -0.00639 -0.00050 0.02062
 Zr945 Zr -0.01733 0.01453 -0.01716
 O946 O -0.00542 0.02727 -0.00349
 Zr947 Zr 0.00683 -0.01065 -0.01754
 O948 O 0.02023 0.00098 -0.00422
 O949 O 0.01178 0.01785 0.01434
 O950 O -0.01441 -0.00713 -0.01492
 C951 C 0.00907 0.04798 0.01362
 C952 C 0.00796 0.01294 0.04354
 C953 C 0.04160 0.01469 0.01196
 C954 C -0.01294 -0.03679 -0.01400
 C955 C -0.04341 -0.00490 -0.01408
 C956 C -0.01130 -0.00348 -0.04361
 H957 H -0.03238 0.01220 0.00557
 H958 H 0.00665 0.01395 -0.03038
 H959 H 0.01764 0.02337 0.02085
 H960 H 0.00461 -0.02636 0.00501
 H961 H -0.01549 -0.02509 0.02904
 H962 H 0.00813 -0.02678 0.02903
 H963 H -0.00826 0.03080 -0.03692
 H964 H 0.00671 0.04385 -0.02057
 H965 H -0.04097 -0.01744 0.01996
 H966 H -0.02573 0.02520 0.03865
 H967 H 0.02290 -0.00140 -0.03718
 H968 H 0.03559 0.01385 -0.02211
 H969 H -0.02415 0.04202 0.00756
 H970 H -0.03828 0.02969 -0.00888
 H971 H 0.03502 -0.01863 0.00628
 H972 H 0.02116 -0.03276 -0.01021
 O973 O -0.02215 0.46630 0.49990
 O974 O -0.02174 0.47218 0.52321
 O975 O -0.03689 0.50302 0.47891
 O976 O -0.02978 0.52707 0.47738
 O977 O -0.00046 0.48145 0.46417
 O978 O 0.02324 0.48100 0.47108
 O979 O 0.00053 0.54021 0.51585
 O980 O -0.02263 0.53824 0.51128
 O981 O 0.01391 0.50478 0.53726
 O982 O 0.01200 0.47938 0.53415
 O983 O 0.03622 0.51804 0.50231
 O984 O 0.03329 0.51657 0.47770
 O985 O 0.01875 0.53805 0.50092
 O986 O 0.01815 0.53133 0.47489
 O987 O 0.03384 0.50284 0.52042
 O988 O 0.02709 0.47683 0.51972
 O989 O -0.00162 0.52279 0.53496
 O990 O -0.02676 0.51968 0.52811
 O991 O -0.00384 0.46355 0.48514
 O992 O 0.02132 0.46736 0.48821
 O993 O -0.01581 0.49954 0.46131
 O994 O -0.01257 0.52508 0.46508
 O995 O -0.03959 0.48746 0.49672
 O996 O -0.03553 0.49173 0.52199
 Zr997 Zr -0.02005 0.48716 0.50692
 O998 O -0.00765 0.49937 0.52043
 Zr999 Zr -0.01611 0.50986 0.48078
 O1000 O -0.00424 0.52342 0.49350
 Zr1001 Zr 0.00630 0.48340 0.48488
 O1002 O 0.01964 0.49608 0.49709
 Zr1003 Zr -0.00939 0.52061 0.51453
 O1004 O -0.02285 0.50859 0.50163
 Zr1005 Zr 0.01358 0.49446 0.51797
 O1006 O 0.00101 0.48076 0.50588
 Zr1007 Zr 0.01680 0.51758 0.49222
 O1008 O 0.00509 0.50468 0.47845
 O1009 O -0.01466 0.48867 0.48607
 O1010 O 0.01177 0.51579 0.51315
 C1011 C -0.01475 0.45890 0.49148
 C1012 C -0.04422 0.49435 0.48611
 C1013 C -0.00911 0.48868 0.45681
 C1014 C 0.01155 0.54497 0.50993
 C1015 C 0.00742 0.51564 0.54195
 C1016 C 0.04084 0.51187 0.51329
 H1017 H -0.01081 0.49794 0.53011
 H1018 H 0.02941 0.49307 0.49570
 H1019 H -0.02061 0.48266 0.48007
 H1020 H -0.00584 0.53332 0.49063
 H1021 H -0.03165 0.53450 0.50788
 H1022 H -0.03546 0.52804 0.48587
 H1023 H 0.03455 0.47791 0.51273
 H1024 H 0.01922 0.46308 0.49736
 H1025 H -0.02628 0.52799 0.53437
 H1026 H -0.04331 0.48492 0.52090
 H1027 H 0.03725 0.50693 0.47823
 H1028 H 0.02421 0.49012 0.46614
 H1029 H -0.01245 0.46771 0.52425
 H1030 H 0.00283 0.48071 0.53864
 H1031 H -0.00349 0.52273 0.46079
 H1032 H 0.01149 0.53918 0.47632
 O1033 O 0.50532 0.03480 0.51856
 O1034 O 0.48171 0.02930 0.51792
 O1035 O 0.52474 -0.00123 0.53707
 O1036 O 0.52543 -0.02618 0.53172
 O1037 O 0.54158 0.01676 0.49993
 O1038 O 0.53548 0.01515 0.47591
 O1039 O 0.48845 -0.04055 0.50140
 O1040 O 0.49214 -0.03653 0.52456
 O1041 O 0.46805 -0.00581 0.48454
 O1042 O 0.47175 0.01988 0.48511
 O1043 O 0.50319 -0.02142 0.46470
 O1044 O 0.52823 -0.01985 0.46842
 O1045 O 0.50417 -0.04011 0.48375
 O1046 O 0.52988 -0.03404 0.48401
 O1047 O 0.48567 -0.00527 0.46530
 O1048 O 0.48650 0.02091 0.47026
 O1049 O 0.46962 -0.02292 0.50105
 O1050 O 0.47506 -0.01763 0.52607
 O1051 O 0.52075 0.03549 0.50063
 O1052 O 0.51906 0.02974 0.47613
 O1053 O 0.54316 0.00001 0.51682
 O1054 O 0.53913 -0.02535 0.51541
 O1055 O 0.50747 0.01521 0.53780
 O1056 O 0.48219 0.01101 0.53340
 Zr1057 Zr 0.49780 0.01395 0.51808
 O1058 O 0.48431 0.00104 0.50629
 Zr1059 Zr 0.52341 -0.00975 0.51693
 O1060 O 0.51082 -0.02382 0.50554
 Zr1061 Zr 0.52100 0.01483 0.49242
 O1062 O 0.50867 0.00166 0.47970
 Zr1063 Zr 0.48965 -0.02016 0.50972
 O1064 O 0.50234 -0.00735 0.52270
 Zr1065 Zr 0.48758 0.00427 0.48497
 O1066 O 0.49983 0.01854 0.49671
 Zr1067 Zr 0.51295 -0.01965 0.48423
 O1068 O 0.52673 -0.00642 0.49556
 O1069 O 0.51883 0.01140 0.51360
 O1070 O 0.49186 -0.01698 0.48841
 C1071 C 0.51412 0.04128 0.51075
 C1072 C 0.51770 0.00839 0.54334
 C1073 C 0.54831 0.01014 0.50953
 C1074 C 0.49481 -0.04631 0.49113
 C1075 C 0.46304 -0.01635 0.49131
 C1076 C 0.49263 -0.01509 0.45926
 H1077 H 0.47453 0.00287 0.50897
 H1078 H 0.51042 0.00393 0.46983
 H1079 H 0.52477 0.01777 0.51922
 H1080 H 0.51344 -0.03363 0.50797
 H1081 H 0.49488 -0.03197 0.53342
 H1082 H 0.51703 -0.02583 0.53764
 H1083 H 0.49396 0.01938 0.46335
 H1084 H 0.50973 0.03411 0.47710
 H1085 H 0.46882 -0.02598 0.52600
 H1086 H 0.48314 0.01853 0.54052
 H1087 H 0.52736 -0.01089 0.46317
 H1088 H 0.54030 0.00589 0.47609
 H1089 H 0.48112 0.03301 0.50831
 H1090 H 0.46648 0.01884 0.49387
 H1091 H 0.54346 -0.02420 0.50615
 H1092 H 0.52882 -0.04049 0.49204
 O1093 O 0.50739 0.53812 0.01724
 O1094 O 0.48343 0.53511 0.01543
 O1095 O 0.52188 0.50027 0.03694
 O1096 O 0.52161 0.47709 0.03303
 O1097 O 0.54249 0.51638 0.00029
 O1098 O 0.53742 0.51533 -0.02385
 O1099 O 0.48382 0.46475 -0.00030
 O1100 O 0.48661 0.46895 0.02320
 O1101 O 0.46796 0.50141 -0.01843
 O1102 O 0.47424 0.52631 -0.01817
 O1103 O 0.50230 0.48153 -0.03618
 O1104 O 0.52685 0.48051 -0.03161
 O1105 O 0.50063 0.46327 -0.01686
 O1106 O 0.52701 0.46712 -0.01527
 O1107 O 0.48650 0.49941 -0.03678
 O1108 O 0.48997 0.52560 -0.03206
 O1109 O 0.46690 0.48446 -0.00173
 O1110 O 0.47162 0.48934 0.02344
 O1111 O 0.52376 0.53714 0.00018
 O1112 O 0.52232 0.53137 -0.02448
 O1113 O 0.54172 0.49953 0.01712
 O1114 O 0.53434 0.47422 0.01537
 O1115 O 0.50666 0.51869 0.03657
 O1116 O 0.48130 0.51698 0.03094
 Zr1117 Zr 0.49786 0.51818 0.01641
 O1118 O 0.48376 0.50663 0.00400
 Zr1119 Zr 0.52102 0.49201 0.01668
 O1120 O 0.50757 0.47910 0.00491
 Zr1121 Zr 0.52220 0.51651 -0.00805
 O1122 O 0.50938 0.50435 -0.02126
 Zr1123 Zr 0.48668 0.48504 0.00789
 O1124 O 0.50001 0.49659 0.02132
 Zr1125 Zr 0.48843 0.50918 -0.01717
 O1126 O 0.50132 0.52234 -0.00485
 Zr1127 Zr 0.51125 0.48279 -0.01627
 O1128 O 0.52571 0.49482 -0.00449
 O1129 O 0.51876 0.51348 0.01303
 O1130 O 0.49033 0.48765 -0.01330
 C1131 C 0.51723 0.54362 0.00997
 C1132 C 0.51567 0.51074 0.04274
 C1133 C 0.54817 0.50897 0.00998
 C1134 C 0.49027 0.45816 -0.01002
 C1135 C 0.46151 0.49165 -0.01176
 C1136 C 0.49268 0.48873 -0.04226
 H1137 H 0.47410 0.50955 0.00615
 H1138 H 0.51185 0.50623 -0.03106
 H1139 H 0.52507 0.51921 0.01894
 H1140 H 0.50905 0.46910 0.00751
 H1141 H 0.48984 0.47337 0.03197
 H1142 H 0.51336 0.47096 0.03179
 H1143 H 0.49736 0.52299 -0.03874
 H1144 H 0.51354 0.53683 -0.02376
 H1145 H 0.46448 0.48177 0.02306
 H1146 H 0.48265 0.52442 0.03809
 H1147 H 0.52764 0.48965 -0.03652
 H1148 H 0.54117 0.50559 -0.02357
 H1149 H 0.48374 0.53883 0.00581
 H1150 H 0.46882 0.52633 -0.00944
 H1151 H 0.54027 0.47560 0.00707
 H1152 H 0.52449 0.46039 -0.00782
 O1153 O 0.76381 0.29226 0.49836
 O1154 O 0.76233 0.28700 0.52208
 O1155 O 0.78309 0.25622 0.48023
 O1156 O 0.77948 0.23271 0.48002
 O1157 O 0.74600 0.27333 0.46174
 O1158 O 0.72182 0.27202 0.46723
 O1159 O 0.74589 0.21700 0.51579
 O1160 O 0.76965 0.22114 0.51283
 O1161 O 0.72853 0.25189 0.53483
 O1162 O 0.72954 0.27763 0.53098
 O1163 O 0.70987 0.23594 0.49948
 O1164 O 0.71458 0.23766 0.47422
 O1165 O 0.72885 0.21742 0.49924
 O1166 O 0.72965 0.22287 0.47385
 O1167 O 0.70980 0.25280 0.51626
 O1168 O 0.71511 0.27870 0.51574
 O1169 O 0.74549 0.23512 0.53428
 O1170 O 0.77058 0.24000 0.52962
 O1171 O 0.74643 0.29256 0.48212
 O1172 O 0.72190 0.28707 0.48312
 O1173 O 0.76295 0.25653 0.46116
 O1174 O 0.76149 0.23106 0.46617
 O1175 O 0.78317 0.27276 0.49738
 O1176 O 0.77811 0.26887 0.52237
 Zr1177 Zr 0.76314 0.27151 0.50623
 O1178 O 0.75100 0.25868 0.51939
 Zr1179 Zr 0.76291 0.24743 0.48111
 O1180 O 0.75103 0.23345 0.49333
 Zr1181 Zr 0.73813 0.27197 0.48210
 O1182 O 0.72503 0.25904 0.49414
 Zr1183 Zr 0.75454 0.23738 0.51453
 O1184 O 0.76790 0.25012 0.50229
 Zr1185 Zr 0.72972 0.26193 0.51531
 O1186 O 0.74179 0.27604 0.50330
 Zr1187 Zr 0.72971 0.23770 0.49032
 O1188 O 0.74157 0.25068 0.47687
 O1189 O 0.75931 0.26862 0.48512
 O1190 O 0.73325 0.24061 0.51147
 C1191 C 0.75632 0.29852 0.48905
 C1192 C 0.78906 0.26601 0.48739
 C1193 C 0.75563 0.26638 0.45547
 C1194 C 0.73576 0.21126 0.50902
 C1195 C 0.73542 0.24163 0.54031
 C1196 C 0.70399 0.24274 0.50941
 H1197 H 0.75342 0.26064 0.52921
 H1198 H 0.71519 0.26132 0.49197
 H1199 H 0.76507 0.27488 0.47922
 H1200 H 0.75342 0.22358 0.49099
 H1201 H 0.77843 0.22575 0.50991
 H1202 H 0.77711 0.22482 0.48632
 H1203 H 0.70866 0.27745 0.50778
 H1204 H 0.72263 0.29160 0.49238
 H1205 H 0.77035 0.23173 0.53595
 H1206 H 0.78514 0.27653 0.52166
 H1207 H 0.70851 0.24601 0.47553
 H1208 H 0.72203 0.26265 0.46266
 H1209 H 0.75271 0.29082 0.52207
 H1210 H 0.73811 0.27649 0.53665
 H1211 H 0.75256 0.23242 0.46114
 H1212 H 0.73787 0.21666 0.47506
 O1213 O 0.77625 0.78576 0.00455
 O1214 O 0.77470 0.78051 0.02813
 O1215 O 0.79366 0.74872 -0.01381
 O1216 O 0.78881 0.72549 -0.01428
 O1217 O 0.75761 0.76798 -0.03220
 O1218 O 0.73336 0.76776 -0.02677
 O1219 O 0.75487 0.71152 0.02178
 O1220 O 0.77869 0.71448 0.01876
 O1221 O 0.73935 0.74734 0.04094
 O1222 O 0.74149 0.77306 0.03687
 O1223 O 0.71972 0.73202 0.00589
 O1224 O 0.72395 0.73359 -0.01930
 O1225 O 0.73804 0.71259 0.00504
 O1226 O 0.73869 0.71855 -0.02036
 O1227 O 0.72050 0.74897 0.02257
 O1228 O 0.72683 0.77453 0.02192
 O1229 O 0.75536 0.72965 0.04030
 O1230 O 0.78061 0.73329 0.03551
 O1231 O 0.75891 0.78706 -0.01169
 O1232 O 0.73409 0.78273 -0.01075
 O1233 O 0.77352 0.75019 -0.03291
 O1234 O 0.77073 0.72480 -0.02789
 O1235 O 0.79461 0.76525 0.00332
 O1236 O 0.78946 0.76157 0.02831
 Zr1237 Zr 0.77459 0.76504 0.01223
 O1238 O 0.76188 0.75288 0.02541
 Zr1239 Zr 0.77306 0.74107 -0.01297
 O1240 O 0.76059 0.72771 -0.00068
 Zr1241 Zr 0.74960 0.76688 -0.01185
 O1242 O 0.73591 0.75457 0.00022
 Zr1243 Zr 0.76439 0.73144 0.02051
 O1244 O 0.77829 0.74347 0.00820
 Zr1245 Zr 0.74079 0.75719 0.02137
 O1246 O 0.75350 0.77068 0.00935
 Zr1247 Zr 0.73948 0.73301 -0.00359
 O1248 O 0.75189 0.74542 -0.01709
 O1249 O 0.77059 0.76243 -0.00889
 O1250 O 0.74325 0.73571 0.01755
 C1251 C 0.76906 0.79248 -0.00467
 C1252 C 0.80012 0.75818 -0.00666
 C1253 C 0.76681 0.76049 -0.03854
 C1254 C 0.74470 0.70613 0.01481
 C1255 C 0.74575 0.73674 0.04640
 C1256 C 0.71423 0.73907 0.01590
 H1257 H 0.76444 0.75473 0.03522
 H1258 H 0.72617 0.75732 -0.00188
 H1259 H 0.77664 0.76841 -0.01477
 H1260 H 0.76251 0.71775 -0.00308
 H1261 H 0.78767 0.71865 0.01580
 H1262 H 0.78623 0.71784 -0.00777
 H1263 H 0.72037 0.77364 0.01391
 H1264 H 0.73501 0.78714 -0.00147
 H1265 H 0.78003 0.72505 0.04185
 H1266 H 0.79691 0.76882 0.02758
 H1267 H 0.71863 0.74247 -0.01819
 H1268 H 0.73301 0.75833 -0.03121
 H1269 H 0.76528 0.78480 0.02823
 H1270 H 0.74987 0.77138 0.04268
 H1271 H 0.76198 0.72676 -0.03306
 H1272 H 0.74653 0.71185 -0.01922
 O1273 O 1.00175 0.21152 0.23266
 O1274 O 0.97779 0.21615 0.23443
 O1275 O 1.01865 0.24871 0.21414
 O1276 O 1.01884 0.27203 0.21857
 O1277 O 1.03800 0.23079 0.25058
 O1278 O 1.03263 0.23167 0.27488
 O1279 O 0.98219 0.28570 0.25263
 O1280 O 0.98570 0.28262 0.22878
 O1281 O 0.96401 0.24976 0.26831
 O1282 O 0.96901 0.22415 0.26701
 O1283 O 0.99902 0.26657 0.28769
 O1284 O 1.02457 0.26533 0.28313
 O1285 O 0.99927 0.28555 0.26914
 O1286 O 1.02470 0.28055 0.26853
 O1287 O 0.98253 0.24937 0.28725
 O1288 O 0.98388 0.22370 0.28181
 O1289 O 0.96425 0.26700 0.25186
 O1290 O 0.96944 0.26325 0.22689
 O1291 O 1.01797 0.21114 0.25004
 O1292 O 1.01712 0.21610 0.27456
 O1293 O 1.03810 0.24790 0.23398
 O1294 O 1.03271 0.27327 0.23651
 O1295 O 1.00211 0.23151 0.21391
 O1296 O 0.97707 0.23453 0.21900
 Zr1297 Zr 0.99333 0.23203 0.23388
 O1298 O 0.97986 0.24425 0.24621
 Zr1299 Zr 1.01796 0.25673 0.23459
 O1300 O 1.00541 0.27011 0.24680
 Zr1301 Zr 1.01762 0.23157 0.25870
 O1302 O 1.00518 0.24385 0.27207
 Zr1303 Zr 0.98425 0.26576 0.24319
 O1304 O 0.99678 0.25362 0.22960
 Zr1305 Zr 0.98401 0.24056 0.26731
 O1306 O 0.99645 0.22705 0.25502
 Zr1307 Zr 1.00849 0.26539 0.26796
 O1308 O 1.02231 0.25308 0.25579
 O1309 O 1.01444 0.23536 0.23768
 O1310 O 0.98734 0.26205 0.26433
 C1311 C 1.01117 0.20527 0.24002
 C1312 C 1.01172 0.23881 0.20805
 C1313 C 1.04403 0.23795 0.24095
 C1314 C 0.98906 0.29148 0.26265
 C1315 C 0.95822 0.25990 0.26149
 C1316 C 0.98905 0.25951 0.29328
 H1317 H 0.97009 0.24206 0.24368
 H1318 H 1.00737 0.24141 0.28184
 H1319 H 1.02042 0.22937 0.23173
 H1320 H 1.00752 0.28010 0.24468
 H1321 H 0.98882 0.27843 0.21988
 H1322 H 1.01241 0.27974 0.22119
 H1323 H 0.99195 0.22496 0.28814
 H1324 H 1.00783 0.21157 0.27399
 H1325 H 0.96289 0.27136 0.22722
 H1326 H 0.97791 0.22698 0.21190
 H1327 H 1.02329 0.25690 0.28906
 H1328 H 1.03700 0.24115 0.27476
 H1329 H 0.97821 0.21181 0.24380
 H1330 H 0.96322 0.22536 0.25856
 H1331 H 1.03790 0.27161 0.24529
 H1332 H 1.02367 0.28668 0.26025
 O1333 O 0.76703 0.96389 0.75527
 O1334 O 0.76389 0.96747 0.73143
 O1335 O 0.78811 1.00075 0.76957
 O1336 O 0.78487 1.02422 0.76876
 O1337 O 0.75232 0.98552 0.79139
 O1338 O 0.72776 0.98721 0.78748
 O1339 O 0.74907 1.03806 0.73370
 O1340 O 0.77297 1.03366 0.73563
 O1341 O 0.73015 1.00206 0.71817
 O1342 O 0.73047 0.97692 0.72409
 O1343 O 0.71418 1.02149 0.75350
 O1344 O 0.72035 1.02138 0.77838
 O1345 O 0.73356 1.03942 0.75149
 O1346 O 0.73605 1.03543 0.77722
 O1347 O 0.71258 1.00374 0.73772
 O1348 O 0.71712 0.97760 0.74021
 O1349 O 0.74703 1.01883 0.71678
 O1350 O 0.77236 1.01361 0.72018
 O1351 O 0.75080 0.96507 0.77246
 O1352 O 0.72630 0.97114 0.77257
 O1353 O 0.76941 1.00209 0.78998
 O1354 O 0.76791 1.02725 0.78326
 O1355 O 0.78669 0.98303 0.75366
 O1356 O 0.77983 0.98522 0.72885
 Zr1357 Zr 0.76607 0.98405 0.74605
 O1358 O 0.75321 0.99620 0.73283
 Zr1359 Zr 0.76805 1.00982 0.76948
 O1360 O 0.75563 1.02321 0.75703
 Zr1361 Zr 0.74287 0.98582 0.77160
 O1362 O 0.72916 0.99828 0.75957
 Zr1363 Zr 0.75751 1.01770 0.73599
 O1364 O 0.77147 1.00554 0.74826
 Zr1365 Zr 0.73222 0.99381 0.73841
 O1366 O 0.74490 0.98024 0.75056
 Zr1367 Zr 0.73452 1.01971 0.76163
 O1368 O 0.74702 1.00735 0.77520
 O1369 O 0.76384 0.98848 0.76710
 O1370 O 0.73644 1.01524 0.74056
 C1371 C 0.76012 0.95843 0.76540
 C1372 C 0.79340 0.99038 0.76273
 C1373 C 0.76245 0.99267 0.79665
 C1374 C 0.73971 1.04460 0.74077
 C1375 C 0.73669 1.01190 0.71168
 C1376 C 0.70752 1.01443 0.74420
 H1377 H 0.75489 0.99348 0.72305
 H1378 H 0.71944 0.99646 0.76246
 H1379 H 0.76993 0.98251 0.77301
 H1380 H 0.75837 1.03316 0.75853
 H1381 H 0.78187 1.02905 0.73829
 H1382 H 0.78240 1.03150 0.76178
 H1383 H 0.71107 0.97989 0.74820
 H1384 H 0.72622 0.96605 0.76358
 H1385 H 0.77179 1.02141 0.71330
 H1386 H 0.78680 0.97750 0.72965
 H1387 H 0.71434 1.01290 0.77823
 H1388 H 0.72848 0.99687 0.79136
 H1389 H 0.75430 0.96376 0.73240
 H1390 H 0.73884 0.97707 0.71813
 H1391 H 0.75948 1.02630 0.78908
 H1392 H 0.74410 1.04153 0.77495
 O1393 O 0.70808 0.51163 0.24821
 O1394 O 0.71200 0.50936 0.27216
 O1395 O 0.74430 0.53237 0.23285
 O1396 O 0.76756 0.52910 0.23403
 O1397 O 0.72906 0.49551 0.21226
 O1398 O 0.73067 0.47070 0.21704
 O1399 O 0.78170 0.49402 0.26936
 O1400 O 0.77724 0.51812 0.26697
 O1401 O 0.74623 0.47547 0.28609
 O1402 O 0.72112 0.47609 0.28043
 O1403 O 0.76456 0.45790 0.25117
 O1404 O 0.76400 0.46337 0.22595
 O1405 O 0.78251 0.47754 0.25218
 O1406 O 0.77829 0.47884 0.22668
 O1407 O 0.74704 0.45702 0.26697
 O1408 O 0.72145 0.46185 0.26496
 O1409 O 0.76298 0.49243 0.28670
 O1410 O 0.75781 0.51794 0.28278
 O1411 O 0.70898 0.49465 0.23148
 O1412 O 0.71477 0.46999 0.23187
 O1413 O 0.74566 0.51262 0.21314
 O1414 O 0.77034 0.51154 0.21970
 O1415 O 0.72704 0.53157 0.24898
 O1416 O 0.72955 0.52561 0.27395
 Zr1417 Zr 0.72813 0.51100 0.25726
 O1418 O 0.74027 0.49843 0.27078
 Zr1419 Zr 0.75330 0.51206 0.23364
 O1420 O 0.76658 0.49974 0.24624
 Zr1421 Zr 0.72945 0.48663 0.23237
 O1422 O 0.74171 0.47309 0.24481
 Zr1423 Zr 0.76150 0.50246 0.26727
 O1424 O 0.74935 0.51626 0.25475
 Zr1425 Zr 0.73764 0.47702 0.26591
 O1426 O 0.72420 0.48946 0.25341
 Zr1427 Zr 0.76288 0.47821 0.24237
 O1428 O 0.75068 0.49059 0.22855
 O1429 O 0.73223 0.50800 0.23624
 O1430 O 0.75882 0.48097 0.26341
 C1431 C 0.70253 0.50428 0.23837
 C1432 C 0.73415 0.53800 0.23961
 C1433 C 0.73632 0.50542 0.20667
 C1434 C 0.78796 0.48427 0.26246
 C1435 C 0.75616 0.48219 0.29221
 C1436 C 0.75746 0.45153 0.26060
 H1437 H 0.73776 0.50051 0.28053
 H1438 H 0.73976 0.46318 0.24225
 H1439 H 0.72628 0.51395 0.23016
 H1440 H 0.77640 0.50238 0.24452
 H1441 H 0.77263 0.52706 0.26417
 H1442 H 0.77506 0.52653 0.24066
 H1443 H 0.72326 0.45564 0.25690
 H1444 H 0.71000 0.47007 0.24098
 H1445 H 0.76566 0.51757 0.28953
 H1446 H 0.72189 0.53261 0.27302
 H1447 H 0.75579 0.45709 0.22665
 H1448 H 0.74012 0.47136 0.21298
 H1449 H 0.70827 0.49964 0.27150
 H1450 H 0.72174 0.48457 0.28641
 H1451 H 0.76955 0.50263 0.21437
 H1452 H 0.78415 0.48728 0.22832
 O1453 O 0.49658 0.21390 0.72598
 O1454 O 0.47281 0.21852 0.72750
 O1455 O 0.51399 0.25118 0.70800
 O1456 O 0.51436 0.27440 0.71259
 O1457 O 0.53281 0.23257 0.74421
 O1458 O 0.52742 0.23341 0.76849
 O1459 O 0.47758 0.28809 0.74591
 O1460 O 0.48077 0.28478 0.72226
 O1461 O 0.45902 0.25221 0.76202
 O1462 O 0.46367 0.22654 0.76039
 O1463 O 0.49406 0.26844 0.78147
 O1464 O 0.51920 0.26762 0.77720
 O1465 O 0.49392 0.28752 0.76314
 O1466 O 0.51982 0.28243 0.76212
 O1467 O 0.47744 0.25137 0.78089
 O1468 O 0.47866 0.22569 0.77510
 O1469 O 0.45940 0.26955 0.74566
 O1470 O 0.46444 0.26556 0.72056
 O1471 O 0.51280 0.21325 0.74336
 O1472 O 0.51160 0.21802 0.76805
 O1473 O 0.53329 0.25018 0.72812
 O1474 O 0.52777 0.27559 0.73068
 O1475 O 0.49716 0.23426 0.70734
 O1476 O 0.47205 0.23717 0.71250
 Zr1477 Zr 0.48832 0.23444 0.72732
 O1478 O 0.47482 0.24656 0.73972
 Zr1479 Zr 0.51313 0.25900 0.72848
 O1480 O 0.50047 0.27232 0.74060
 Zr1481 Zr 0.51244 0.23358 0.75229
 O1482 O 0.50004 0.24589 0.76568
 Zr1483 Zr 0.47932 0.26804 0.73680
 O1484 O 0.49196 0.25602 0.72325
 Zr1485 Zr 0.47888 0.24274 0.76084
 O1486 O 0.49126 0.22925 0.74845
 Zr1487 Zr 0.50342 0.26747 0.76173
 O1488 O 0.51728 0.25510 0.74965
 O1489 O 0.50943 0.23761 0.73128
 O1490 O 0.48230 0.26423 0.75795
 C1491 C 0.50599 0.20752 0.73326
 C1492 C 0.50693 0.24154 0.70168
 C1493 C 0.53904 0.23997 0.73488
 C1494 C 0.48407 0.29366 0.75627
 C1495 C 0.45336 0.26254 0.75536
 C1496 C 0.48406 0.26140 0.78701
 H1497 H 0.46503 0.24446 0.73717
 H1498 H 0.50220 0.24338 0.77543
 H1499 H 0.51541 0.23167 0.72530
 H1500 H 0.50263 0.28232 0.73853
 H1501 H 0.48393 0.28053 0.71341
 H1502 H 0.50753 0.28186 0.71490
 H1503 H 0.48667 0.22688 0.78152
 H1504 H 0.50239 0.21337 0.76716
 H1505 H 0.45787 0.27364 0.72099
 H1506 H 0.47296 0.22982 0.70520
 H1507 H 0.51859 0.25861 0.78238
 H1508 H 0.53191 0.24282 0.76842
 H1509 H 0.47280 0.21442 0.73698
 H1510 H 0.45788 0.22789 0.75195
 H1511 H 0.53297 0.27382 0.73943
 H1512 H 0.51818 0.28925 0.75448
 O1513 O 0.29351 0.74802 0.48493
 O1514 O 0.28807 0.72428 0.48730
 O1515 O 0.25846 0.76560 0.46320
 O1516 O 0.23533 0.76724 0.46611
 O1517 O 0.27482 0.78642 0.49952
 O1518 O 0.27255 0.78236 0.52386
 O1519 O 0.21852 0.73222 0.50015
 O1520 O 0.22376 0.73365 0.47674
 O1521 O 0.25249 0.71334 0.52013
 O1522 O 0.27776 0.71749 0.52054
 O1523 O 0.23585 0.75065 0.53624
 O1524 O 0.23732 0.77539 0.53059
 O1525 O 0.21833 0.74956 0.51653
 O1526 O 0.22436 0.77582 0.51391
 O1527 O 0.25174 0.73291 0.53782
 O1528 O 0.27784 0.73368 0.53416
 O1529 O 0.23598 0.71342 0.50310
 O1530 O 0.24221 0.71645 0.47796
 O1531 O 0.29346 0.76563 0.50106
 O1532 O 0.28700 0.76572 0.52552
 O1533 O 0.25896 0.78629 0.48188
 O1534 O 0.23335 0.78160 0.48324
 O1535 O 0.27497 0.74840 0.46474
 O1536 O 0.27060 0.72330 0.47111
 Zr1537 Zr 0.27293 0.74045 0.48514
 O1538 O 0.25981 0.72787 0.49752
 Zr1539 Zr 0.24944 0.76626 0.48305
 O1540 O 0.23509 0.75449 0.49484
 Zr1541 Zr 0.27282 0.76628 0.50862
 O1542 O 0.25931 0.75496 0.52181
 Zr1543 Zr 0.23900 0.73277 0.49273
 O1544 O 0.25208 0.74448 0.47931
 Zr1545 Zr 0.26215 0.73321 0.51858
 O1546 O 0.27667 0.74453 0.50639
 Zr1547 Zr 0.23843 0.75868 0.51603
 O1548 O 0.25195 0.77164 0.50415
 O1549 O 0.27019 0.76209 0.48761
 O1550 O 0.24130 0.73704 0.51386
 C1551 C 0.29956 0.75787 0.49191
 C1552 C 0.26837 0.75811 0.45804
 C1553 C 0.26858 0.79228 0.48914
 C1554 C 0.21249 0.73944 0.50971
 C1555 C 0.24230 0.70764 0.51346
 C1556 C 0.24176 0.74042 0.54279
 H1557 H 0.26179 0.71777 0.49580
 H1558 H 0.26111 0.75767 0.53158
 H1559 H 0.27664 0.76763 0.48174
 H1560 H 0.22547 0.75681 0.49186
 H1561 H 0.22876 0.73611 0.46808
 H1562 H 0.22802 0.76014 0.46792
 H1563 H 0.27596 0.74184 0.54029
 H1564 H 0.29141 0.75626 0.52540
 H1565 H 0.23403 0.71005 0.47830
 H1566 H 0.27830 0.72362 0.46426
 H1567 H 0.24616 0.77539 0.53594
 H1568 H 0.26338 0.78712 0.52298
 H1569 H 0.29146 0.72464 0.49703
 H1570 H 0.27718 0.71135 0.51225
 H1571 H 0.23496 0.78762 0.49150
 H1572 H 0.21772 0.77351 0.50635
 O1573 O 0.25367 0.26392 0.95756
 O1574 O 0.22997 0.26200 0.96269
 O1575 O 0.27173 0.28315 0.99346
 O1576 O 0.27263 0.27891 1.01648
 O1577 O 0.29066 0.24629 0.97570
 O1578 O 0.28565 0.22166 0.97688
 O1579 O 0.23672 0.24437 1.03127
 O1580 O 0.23953 0.26848 1.02760
 O1581 O 0.21758 0.22740 0.99634
 O1582 O 0.22163 0.22843 0.97124
 O1583 O 0.25346 0.20837 1.01220
 O1584 O 0.27858 0.21340 1.01083
 O1585 O 0.25341 0.22730 1.03076
 O1586 O 0.27906 0.22874 1.02535
 O1587 O 0.23641 0.20845 0.99572
 O1588 O 0.23697 0.21403 0.97025
 O1589 O 0.21821 0.24396 1.01342
 O1590 O 0.22267 0.26956 1.00899
 O1591 O 0.27002 0.24645 0.95691
 O1592 O 0.26950 0.22147 0.96217
 O1593 O 0.29125 0.26323 0.99243
 O1594 O 0.28650 0.26082 1.01765
 O1595 O 0.25455 0.28319 0.97706
 O1596 O 0.22963 0.27766 0.98078
 Zr1597 Zr 0.24596 0.26277 0.97796
 O1598 O 0.23296 0.25011 0.99037
 Zr1599 Zr 0.27136 0.26249 1.00164
 O1600 O 0.25923 0.25012 1.01524
 Zr1601 Zr 0.27042 0.23782 0.97712
 O1602 O 0.25856 0.22420 0.98971
 Zr1603 Zr 0.23791 0.25345 1.01138
 O1604 O 0.25003 0.26731 0.99906
 Zr1605 Zr 0.23727 0.22869 0.98686
 O1606 O 0.24911 0.24129 0.97316
 Zr1607 Zr 0.26240 0.22863 1.01081
 O1608 O 0.27574 0.24099 0.99815
 O1609 O 0.26718 0.25917 0.98072
 O1610 O 0.24114 0.23197 1.00792
 C1611 C 0.26293 0.25649 0.95122
 C1612 C 0.26444 0.28923 0.98389
 C1613 C 0.29688 0.25615 0.98251
 C1614 C 0.24352 0.23408 1.03684
 C1615 C 0.21209 0.23406 1.00660
 C1616 C 0.24343 0.20245 1.00548
 H1617 H 0.22308 0.25248 0.98843
 H1618 H 0.26082 0.21430 0.98735
 H1619 H 0.27293 0.26522 0.97461
 H1620 H 0.26158 0.25243 1.02500
 H1621 H 0.24245 0.27747 1.02322
 H1622 H 0.26613 0.27647 1.02406
 H1623 H 0.24495 0.20751 0.97153
 H1624 H 0.26020 0.22211 0.95771
 H1625 H 0.21630 0.26907 1.01708
 H1626 H 0.23019 0.28490 0.97333
 H1627 H 0.27764 0.20777 1.00222
 H1628 H 0.29029 0.22186 0.98610
 H1629 H 0.23019 0.25240 0.95863
 H1630 H 0.21603 0.23715 0.97221
 H1631 H 0.29176 0.25198 1.01596
 H1632 H 0.27760 0.23677 1.03176
 C1633 C 0.30438 0.36664 0.78439
 C1634 C 0.30045 0.38026 0.78034
 C1635 C 0.28689 0.38513 0.78272
 C1636 C 0.27712 0.37607 0.78891
 C1637 C 0.28099 0.36240 0.79286
 C1638 C 0.29473 0.35756 0.79082
 N1639 N 0.28336 0.39932 0.77894
 N1640 N 0.27175 0.40490 0.78221
 C1641 C 0.26827 0.41912 0.77844
 C1642 C 0.25586 0.42502 0.78339
 C1643 C 0.25224 0.43893 0.78001
 C1644 C 0.26096 0.44712 0.77149
 C1645 C 0.27340 0.44112 0.76650
 C1646 C 0.27705 0.42727 0.76997
 H1647 H 0.31507 0.36339 0.78279
 H1648 H 0.30806 0.38716 0.77557
 H1649 H 0.26652 0.37954 0.79073
 H1650 H 0.27320 0.35565 0.79750
 H1651 H 0.24902 0.41884 0.78994
 H1652 H 0.24258 0.44322 0.78400
 H1653 H 0.28040 0.44715 0.75998
 H1654 H 0.28670 0.42294 0.76601
 C1655 C 0.27983 -0.13846 0.30207
 C1656 C 0.27440 -0.12551 0.29763
 C1657 C 0.28063 -0.11813 0.28674
 C1658 C 0.29220 -0.12404 0.28002
 C1659 C 0.29767 -0.13697 0.28440
 C1660 C 0.29180 -0.14439 0.29573
 N1661 N 0.27532 -0.10450 0.28296
 N1662 N 0.28095 -0.09718 0.27341
 C1663 C 0.27612 -0.08339 0.26966
 C1664 C 0.28304 -0.07615 0.25908
 C1665 C 0.27896 -0.06250 0.25537
 C1666 C 0.26781 -0.05582 0.26220
 C1667 C 0.26079 -0.06318 0.27280
 C1668 C 0.26491 -0.07686 0.27650
 H1669 H 0.27456 -0.14359 0.31058
 H1670 H 0.26540 -0.12110 0.30283
 H1671 H 0.29717 -0.11856 0.27149
 H1672 H 0.30668 -0.14083 0.27890
 H1673 H 0.29172 -0.08107 0.25377
 H1674 H 0.28463 -0.05718 0.24718
 H1675 H 0.25218 -0.05834 0.27829
 H1676 H 0.25943 -0.08227 0.28475
 C1677 C 0.80378 0.86187 0.78504
 C1678 C 0.79953 0.87484 0.77948
 C1679 C 0.78806 0.88199 0.78494
 C1680 C 0.78069 0.87592 0.79600
 C1681 C 0.78487 0.86296 0.80161
 C1682 C 0.79662 0.85566 0.79636
 N1683 N 0.78431 0.89549 0.77930
 N1684 N 0.77409 0.90259 0.78400
 C1685 C 0.77044 0.91625 0.77869
 C1686 C 0.75932 0.92351 0.78474
 C1687 C 0.75582 0.93711 0.78028
 C1688 C 0.76341 0.94371 0.76959
 C1689 C 0.77444 0.93627 0.76335
 C1690 C 0.77795 0.92266 0.76787
 H1691 H 0.81284 0.85702 0.78046
 H1692 H 0.80532 0.87942 0.77095
 H1693 H 0.77172 0.88122 0.80038
 H1694 H 0.77872 0.85883 0.81005
 H1695 H 0.75346 0.91868 0.79309
 H1696 H 0.74725 0.94249 0.78532
 H1697 H 0.78053 0.94102 0.75512
 H1698 H 0.78660 0.91724 0.76302
 C1699 C 0.46578 0.88371 0.30971
 C1700 C 0.47166 0.87105 0.30508
 C1701 C 0.46718 0.86487 0.29267
 C1702 C 0.45682 0.87163 0.28475
 C1703 C 0.45088 0.88428 0.28932
 C1704 C 0.45512 0.89057 0.30200
 N1705 N 0.47304 0.85161 0.28851
 N1706 N 0.46916 0.84544 0.27739
 C1707 C 0.47456 0.83200 0.27320
 C1708 C 0.46932 0.82584 0.26106
 C1709 C 0.47378 0.81245 0.25695
 C1710 C 0.48365 0.80494 0.26494
 C1711 C 0.48912 0.81128 0.27702
 C1712 C 0.48460 0.82471 0.28114
 H1713 H 0.46954 0.88777 0.31951
 H1714 H 0.47965 0.86592 0.31130
 H1715 H 0.45321 0.86710 0.27505
 H1716 H 0.44303 0.88899 0.28271
 H1717 H 0.46158 0.83137 0.25487
 H1718 H 0.46934 0.80793 0.24759
 H1719 H 0.49669 0.80578 0.28344
 H1720 H 0.48880 0.82927 0.29059
 C1721 C -0.03214 0.89093 0.79994
 C1722 C -0.02723 0.87818 0.79453
 C1723 C -0.03492 0.87083 0.78455
 C1724 C -0.04762 0.87646 0.77983
 C1725 C -0.05261 0.88924 0.78520
 C1726 C -0.04504 0.89672 0.79552
 N1727 N -0.02971 0.85752 0.77973
 N1728 N -0.03602 0.85009 0.77064
 C1729 C -0.03074 0.83661 0.76634
 C1730 C -0.03818 0.82875 0.75647
 C1731 C -0.03364 0.81525 0.75263
 C1732 C -0.02154 0.80936 0.75866
 C1733 C -0.01395 0.81744 0.76836
 C1734 C -0.01849 0.83092 0.77216
 H1735 H -0.02560 0.89610 0.80754
 H1736 H -0.01737 0.87396 0.79822
 H1737 H -0.05377 0.87093 0.77210
 H1738 H -0.06255 0.89293 0.78133
 H1739 H -0.04764 0.83301 0.75191
 H1740 H -0.03976 0.80933 0.74515
 H1741 H -0.00458 0.81329 0.77321
 H1742 H -0.01252 0.83677 0.77980
 C1743 C -0.05996 -0.13006 -0.04006
 C1744 C -0.05620 -0.11689 -0.03465
 C1745 C -0.04290 -0.11137 -0.03704
 C1746 C -0.03327 -0.11926 -0.04480
 C1747 C -0.03698 -0.13246 -0.05016
 C1748 C -0.05041 -0.13801 -0.04792
 N1749 N -0.03946 -0.09772 -0.03158
 N1750 N -0.02789 -0.09173 -0.03423
 C1751 C -0.02435 -0.07808 -0.02887
 C1752 C -0.01185 -0.07182 -0.03307
 C1753 C -0.00812 -0.05843 -0.02822
 C1754 C -0.01683 -0.05108 -0.01897
 C1755 C -0.02935 -0.05746 -0.01468
 C1756 C -0.03310 -0.07083 -0.01962
 H1757 H -0.07044 -0.13388 -0.03828
 H1758 H -0.06373 -0.11089 -0.02871
 H1759 H -0.02288 -0.11526 -0.04672
 H1760 H -0.02928 -0.13836 -0.05594
 H1761 H -0.00501 -0.07731 -0.04019
 H1762 H 0.00161 -0.05386 -0.03172
 H1763 H -0.03633 -0.05207 -0.00762
 H1764 H -0.04283 -0.07547 -0.01621
 C1765 C -0.03380 0.36174 0.45017
 C1766 C -0.02806 0.37415 0.45549
 C1767 C -0.03554 0.38250 0.46477
 C1768 C -0.04883 0.37809 0.46904
 C1769 C -0.05466 0.36562 0.46375
 C1770 C -0.04737 0.35730 0.45395
 N1771 N -0.02957 0.39561 0.46923
 N1772 N -0.03565 0.40386 0.47771
 C1773 C -0.02975 0.41720 0.48161
 C1774 C -0.03689 0.42568 0.49110
 C1775 C -0.03185 0.43908 0.49455
 C1776 C -0.01952 0.44429 0.48851
 C1777 C -0.01220 0.43561 0.47917
 C1778 C -0.01726 0.42218 0.47576
 H1779 H -0.02738 0.35570 0.44316
 H1780 H -0.01775 0.37739 0.45221
 H1781 H -0.05483 0.38440 0.47625
 H1782 H -0.06506 0.36291 0.46709
 H1783 H -0.04653 0.42198 0.49567
 H1784 H -0.03778 0.44545 0.50178
 H1785 H -0.00269 0.43926 0.47432
 H1786 H -0.01154 0.41582 0.46837
 C1787 C 0.47312 -0.14093 0.44453
 C1788 C 0.47890 -0.12804 0.44870
 C1789 C 0.47506 -0.12187 0.46129
 C1790 C 0.46552 -0.12889 0.46988
 C1791 C 0.45972 -0.14176 0.46579
 C1792 C 0.46322 -0.14802 0.45290
 N1793 N 0.48066 -0.10834 0.46498
 N1794 N 0.47706 -0.10208 0.47611
 C1795 C 0.48219 -0.08841 0.47989
 C1796 C 0.47718 -0.08212 0.49202
 C1797 C 0.48144 -0.06855 0.49578
 C1798 C 0.49088 -0.06099 0.48744
 C1799 C 0.49609 -0.06744 0.47534
 C1800 C 0.49177 -0.08103 0.47157
 H1801 H 0.47633 -0.14500 0.43457
 H1802 H 0.48627 -0.12273 0.44198
 H1803 H 0.46245 -0.12438 0.47975
 H1804 H 0.45253 -0.14664 0.47291
 H1805 H 0.46979 -0.08771 0.49850
 H1806 H 0.47721 -0.06394 0.50517
 H1807 H 0.50333 -0.06191 0.46865
 H1808 H 0.49578 -0.08569 0.46212
 C1809 C 0.47157 0.36197 -0.05382
 C1810 C 0.47711 0.37463 -0.04883
 C1811 C 0.47026 0.38224 -0.03849
 C1812 C 0.45787 0.37686 -0.03287
 C1813 C 0.45228 0.36417 -0.03781
 C1814 C 0.45887 0.35655 -0.04860
 N1815 N 0.47589 0.39556 -0.03422
 N1816 N 0.47005 0.40323 -0.02506
 C1817 C 0.47556 0.41672 -0.02115
 C1818 C 0.46867 0.42459 -0.01097
 C1819 C 0.47351 0.43799 -0.00724
 C1820 C 0.48537 0.44378 -0.01368
 C1821 C 0.49232 0.43577 -0.02384
 C1822 C 0.48748 0.42237 -0.02754
 H1823 H 0.47743 0.35655 -0.06174
 H1824 H 0.48675 0.37863 -0.05316
 H1825 H 0.45239 0.38257 -0.02482
 H1826 H 0.44255 0.36074 -0.03333
 H1827 H 0.45945 0.42036 -0.00601
 H1828 H 0.46786 0.44385 0.00060
 H1829 H 0.50148 0.43988 -0.02902
 H1830 H 0.49297 0.41649 -0.03547
 C1831 C 0.80309 0.39253 0.46782
 C1832 C 0.79881 0.37954 0.47318
 C1833 C 0.78553 0.37427 0.47014
 C1834 C 0.77643 0.38226 0.46173
 C1835 C 0.78068 0.39529 0.45637
 C1836 C 0.79410 0.40056 0.45931
 N1837 N 0.78174 0.36067 0.47540
 N1838 N 0.77009 0.35492 0.47251
 C1839 C 0.76650 0.34115 0.47750
 C1840 C 0.75402 0.33502 0.47300
 C1841 C 0.75057 0.32127 0.47697
 C1842 C 0.75957 0.31341 0.48563
 C1843 C 0.77195 0.31975 0.49045
 C1844 C 0.77541 0.33348 0.48639
 H1845 H 0.81356 0.39610 0.47011
 H1846 H 0.80594 0.37344 0.47958
 H1847 H 0.76608 0.37840 0.45925
 H1848 H 0.77345 0.40128 0.45001
 H1849 H 0.74706 0.34083 0.46616
 H1850 H 0.74092 0.31676 0.47312
 H1851 H 0.77912 0.31399 0.49710
 H1852 H 0.78513 0.33802 0.49003
 C1853 C 0.78064 0.89143 -0.04476
 C1854 C 0.77591 0.87834 -0.04003
 C1855 C 0.78359 0.87067 -0.03025
 C1856 C 0.79598 0.87640 -0.02490
 C1857 C 0.80078 0.88951 -0.02958
 C1858 C 0.79335 0.89722 -0.03984
 N1859 N 0.77883 0.85691 -0.02631
 N1860 N 0.78543 0.84922 -0.01764
 C1861 C 0.78083 0.83528 -0.01413
 C1862 C 0.78853 0.82738 -0.00447
 C1863 C 0.78463 0.81354 -0.00124
 C1864 C 0.77293 0.80733 -0.00768
 C1865 C 0.76513 0.81538 -0.01727
 C1866 C 0.76903 0.82922 -0.02046
 H1867 H 0.77418 0.89685 -0.05227
 H1868 H 0.76626 0.87406 -0.04415
 H1869 H 0.80211 0.87066 -0.01728
 H1870 H 0.81054 0.89320 -0.02532
 H1871 H 0.79766 0.83193 0.00045
 H1872 H 0.79089 0.80766 0.00617
 H1873 H 0.75605 0.81096 -0.02241
 H1874 H 0.76291 0.83510 -0.02798
 C1875 C 0.80232 0.28251 0.36242
 C1876 C 0.79780 0.27856 0.37563
 C1877 C 0.78457 0.28245 0.38027
 C1878 C 0.77573 0.29028 0.37147
 C1879 C 0.78020 0.29418 0.35817
 C1880 C 0.79359 0.29036 0.35349
 N1881 N 0.78053 0.27835 0.39399
 N1882 N 0.76916 0.28225 0.39958
 C1883 C 0.76566 0.27791 0.41341
 C1884 C 0.75375 0.28346 0.41975
 C1885 C 0.75038 0.27969 0.43341
 C1886 C 0.75886 0.27018 0.44089
 C1887 C 0.77071 0.26449 0.43439
 C1888 C 0.77410 0.26833 0.42081
 H1889 H 0.81278 0.27961 0.35937
 H1890 H 0.80472 0.27258 0.38236
 H1891 H 0.76541 0.29335 0.37486
 H1892 H 0.77316 0.30008 0.35153
 H1893 H 0.74716 0.29085 0.41415
 H1894 H 0.74117 0.28425 0.43810
 H1895 H 0.77751 0.25718 0.43983
 H1896 H 0.78335 0.26384 0.41615
 C1897 C 0.78299 0.80605 -0.13372
 C1898 C 0.77801 0.80197 -0.12067
 C1899 C 0.78296 0.78972 -0.11424
 C1900 C 0.79285 0.78138 -0.12113
 C1901 C 0.79786 0.78538 -0.13417
 C1902 C 0.79317 0.79792 -0.14074
 N1903 N 0.77803 0.78612 -0.10064
 N1904 N 0.78242 0.77521 -0.09422
 C1905 C 0.77789 0.77155 -0.08051
 C1906 C 0.78357 0.75955 -0.07417
 C1907 C 0.77984 0.75587 -0.06062
 C1908 C 0.77027 0.76416 -0.05313
 C1909 C 0.76441 0.77613 -0.05961
 C1910 C 0.76820 0.77981 -0.07319
 H1911 H 0.77890 0.81575 -0.13800
 H1912 H 0.77037 0.80851 -0.11546
 H1913 H 0.79679 0.77177 -0.11641
 H1914 H 0.80539 0.77846 -0.13895
 H1915 H 0.79105 0.75311 -0.07970
 H1916 H 0.78456 0.74658 -0.05600
 H1917 H 0.75704 0.78276 -0.05415
 H1918 H 0.76367 0.78915 -0.07789
 C1919 C 0.31108 0.46396 0.88694
 C1920 C 0.30620 0.46984 0.87450
 C1921 C 0.29256 0.46731 0.86995
 C1922 C 0.28376 0.45877 0.87804
 C1923 C 0.28861 0.45290 0.89053
 C1924 C 0.30234 0.45543 0.89515
 N1925 N 0.28799 0.47343 0.85707
 N1926 N 0.27591 0.47115 0.85200
 C1927 C 0.27144 0.47719 0.83904
 C1928 C 0.25847 0.47330 0.83357
 C1929 C 0.25400 0.47854 0.82070
 C1930 C 0.26243 0.48792 0.81309
 C1931 C 0.27536 0.49205 0.81877
 C1932 C 0.27985 0.48670 0.83160
 H1933 H 0.32176 0.46596 0.89001
 H1934 H 0.31311 0.47634 0.86832
 H1935 H 0.27315 0.45667 0.87476
 H1936 H 0.28156 0.44654 0.89665
 H1937 H 0.25188 0.46599 0.83920
 H1938 H 0.24398 0.47516 0.81667
 H1939 H 0.28215 0.49918 0.81316
 H1940 H 0.28992 0.48991 0.83564
 C1941 C 0.31186 -0.03374 0.38105
 C1942 C 0.30681 -0.02769 0.36875
 C1943 C 0.29487 -0.03299 0.36227
 C1944 C 0.28786 -0.04443 0.36833
 C1945 C 0.29286 -0.05055 0.38065
 C1946 C 0.30507 -0.04542 0.38727
 N1947 N 0.29029 -0.02676 0.34944
 N1948 N 0.27949 -0.03107 0.34296
 C1949 C 0.27509 -0.02506 0.32996
 C1950 C 0.26330 -0.03061 0.32334
 C1951 C 0.25906 -0.02549 0.31035
 C1952 C 0.26656 -0.01464 0.30371
 C1953 C 0.27828 -0.00889 0.31053
 C1954 C 0.28252 -0.01406 0.32353
 H1955 H 0.32122 -0.02919 0.38539
 H1956 H 0.31233 -0.01887 0.36417
 H1957 H 0.27855 -0.04872 0.36352
 H1958 H 0.28699 -0.05930 0.38481
 H1959 H 0.25749 -0.03909 0.32817
 H1960 H 0.24999 -0.03019 0.30544
 H1961 H 0.28434 -0.00058 0.30572
 H1962 H 0.29169 -0.00959 0.32845
 C1963 C -0.02983 -0.05009 -0.13763
 C1964 C -0.02427 -0.04528 -0.12503
 C1965 C -0.02978 -0.03337 -0.11851
 C1966 C -0.04081 -0.02606 -0.12489
 C1967 C -0.04642 -0.03080 -0.13749
 C1968 C -0.04119 -0.04307 -0.14409
 N1969 N -0.02426 -0.02915 -0.10526
 N1970 N -0.02905 -0.01857 -0.09866
 C1971 C -0.02389 -0.01455 -0.08523
 C1972 C -0.03000 -0.00304 -0.07848
 C1973 C -0.02573 0.00075 -0.06508
 C1974 C -0.01521 -0.00695 -0.05816
 C1975 C -0.00890 -0.01836 -0.06510
 C1976 C -0.01320 -0.02214 -0.07851
 H1977 H -0.02523 -0.05948 -0.14199
 H1978 H -0.01573 -0.05101 -0.12021
 H1979 H -0.04522 -0.01674 -0.12008
 H1980 H -0.05487 -0.02469 -0.14187
 H1981 H -0.03825 0.00288 -0.08355
 H1982 H -0.03084 0.00958 -0.06007
 H1983 H -0.00079 -0.02454 -0.06010
 H1984 H -0.00832 -0.03110 -0.08352
 C1985 C -0.05091 0.46827 0.36151
 C1986 C -0.04544 0.47423 0.37361
 C1987 C -0.03583 0.46683 0.38174
 C1988 C -0.03136 0.45342 0.37741
 C1989 C -0.03680 0.44737 0.36524
 C1990 C -0.04695 0.45455 0.35717
 N1991 N -0.03129 0.47301 0.39458
 N1992 N -0.02261 0.46700 0.40271
 C1993 C -0.01870 0.47313 0.41578
 C1994 C -0.00906 0.46606 0.42423
 C1995 C -0.00567 0.47130 0.43741
 C1996 C -0.01194 0.48375 0.44242
 C1997 C -0.02141 0.49100 0.43376
 C1998 C -0.02476 0.48576 0.42057
 H1999 H -0.05818 0.47463 0.35562
 H2000 H -0.04886 0.48465 0.37678
 H2001 H -0.02390 0.44748 0.38356
 H2002 H -0.03332 0.43687 0.36257
 H2003 H -0.00433 0.45632 0.42068
 H2004 H 0.00166 0.46541 0.44376
 H2005 H -0.02644 0.50061 0.43727
 H2006 H -0.03227 0.49143 0.41424
 C2007 C 0.44012 -0.04022 0.36994
 C2008 C 0.44469 -0.03477 0.38269
 C2009 C 0.45850 -0.03670 0.38706
 C2010 C 0.46783 -0.04398 0.37840
 C2011 C 0.46331 -0.04936 0.36563
 C2012 C 0.44937 -0.04767 0.36128
 N2013 N 0.46274 -0.03139 0.40037
 N2014 N 0.47482 -0.03385 0.40536
 C2015 C 0.47915 -0.02872 0.41870
 C2016 C 0.49214 -0.03291 0.42396
 C2017 C 0.49658 -0.02842 0.43709
 C2018 C 0.48810 -0.01953 0.44517
 C2019 C 0.47511 -0.01519 0.43978
 C2020 C 0.47065 -0.01978 0.42667
 H2021 H 0.42929 -0.03886 0.36703
 H2022 H 0.43739 -0.02920 0.38928
 H2023 H 0.47859 -0.04552 0.38150
 H2024 H 0.47078 -0.05479 0.35915
 H2025 H 0.49879 -0.03979 0.41790
 H2026 H 0.50665 -0.03194 0.44091
 H2027 H 0.46828 -0.00841 0.44575
 H2028 H 0.46056 -0.01640 0.42281
 C2029 C 0.44180 0.46629 -0.13329
 C2030 C 0.44691 0.47222 -0.12097
 C2031 C 0.45900 0.46695 -0.11470
 C2032 C 0.46608 0.45569 -0.12099
 C2033 C 0.46103 0.44971 -0.13331
 C2034 C 0.44868 0.45478 -0.13973
 N2035 N 0.46370 0.47301 -0.10185
 N2036 N 0.47455 0.46852 -0.09557
 C2037 C 0.47919 0.47426 -0.08257
 C2038 C 0.49098 0.46838 -0.07618
 C2039 C 0.49550 0.47325 -0.06322
 C2040 C 0.48830 0.48418 -0.05638
 C2041 C 0.47659 0.49025 -0.06295
 C2042 C 0.47205 0.48532 -0.07593
 H2043 H 0.43236 0.47082 -0.13751
 H2044 H 0.44135 0.48092 -0.11622
 H2045 H 0.47550 0.45143 -0.11635
 H2046 H 0.46696 0.44107 -0.13760
 H2047 H 0.49656 0.45986 -0.08120
 H2048 H 0.50456 0.46833 -0.05850
 H2049 H 0.47076 0.49863 -0.05797
 H2050 H 0.46290 0.49003 -0.08067
 C2051 C 0.44256 0.78351 0.38559
 C2052 C 0.44580 0.77819 0.37244
 C2053 C 0.45916 0.77999 0.36692
 C2054 C 0.46936 0.78705 0.37482
 C2055 C 0.46616 0.79231 0.38799
 C2056 C 0.45270 0.79070 0.39352
 N2057 N 0.46206 0.77478 0.35325
 N2058 N 0.47370 0.77709 0.34737
 C2059 C 0.47685 0.77212 0.33368
 C2060 C 0.48948 0.77614 0.32768
 C2061 C 0.49286 0.77180 0.31425
 C2062 C 0.48365 0.76320 0.30657
 C2063 C 0.47101 0.75902 0.31270
 C2064 C 0.46760 0.76348 0.32614
 H2065 H 0.43204 0.78222 0.38941
 H2066 H 0.43784 0.77280 0.36644
 H2067 H 0.47980 0.78851 0.37083
 H2068 H 0.47429 0.79756 0.39388
 H2069 H 0.49669 0.78278 0.33340
 H2070 H 0.50271 0.77518 0.30989
 H2071 H 0.46367 0.75246 0.30705
 H2072 H 0.45776 0.76023 0.33060
 C2073 C -0.03387 0.81115 0.88316
 C2074 C -0.02854 0.80696 0.87029
 C2075 C -0.03261 0.79418 0.86430
 C2076 C -0.04195 0.78544 0.87146
 C2077 C -0.04731 0.78956 0.88431
 C2078 C -0.04353 0.80261 0.89042
 N2079 N -0.02740 0.79043 0.85085
 N2080 N -0.03114 0.77908 0.84482
 C2081 C -0.02639 0.77520 0.83126
 C2082 C -0.03150 0.76277 0.82530
 C2083 C -0.02760 0.75887 0.81188
 C2084 C -0.01842 0.76736 0.80413
 C2085 C -0.01310 0.77976 0.81024
 C2086 C -0.01707 0.78367 0.82369
 H2087 H -0.03049 0.82126 0.88709
 H2088 H -0.02132 0.81380 0.86487
 H2089 H -0.04521 0.77542 0.86709
 H2090 H -0.05438 0.78231 0.88930
 H2091 H -0.03869 0.75617 0.83104
 H2092 H -0.03188 0.74924 0.80755
 H2093 H -0.00604 0.78655 0.80457
 H2094 H -0.01298 0.79334 0.82810
 C2095 C 0.36500 0.80945 0.28715
 C2096 C 0.37783 0.80529 0.28164
 C2097 C 0.38293 0.79165 0.28399
 C2098 C 0.37500 0.78213 0.29193
 C2099 C 0.36215 0.78627 0.29742
 C2100 C 0.35699 0.79999 0.29510
 N2101 N 0.39622 0.78779 0.27837
 N2102 N 0.40165 0.77575 0.28068
 C2103 C 0.41497 0.77173 0.27529
 C2104 C 0.42057 0.75870 0.27926
 C2105 C 0.43373 0.75456 0.27465
 C2106 C 0.44155 0.76339 0.26584
 C2107 C 0.43579 0.77639 0.26164
 C2108 C 0.42262 0.78057 0.26636
 H2109 H 0.36148 0.82016 0.28534
 H2110 H 0.38386 0.81274 0.27561
 H2111 H 0.37871 0.77150 0.29387
 H2112 H 0.35619 0.77867 0.30333
 H2113 H 0.41477 0.75180 0.28611
 H2114 H 0.43780 0.74445 0.27805
 H2115 H 0.44156 0.78346 0.25492
 H2116 H 0.41847 0.79070 0.26314
 C2117 C -0.13821 0.78295 0.80809
 C2118 C -0.12562 0.77731 0.80335
 C2119 C -0.12146 0.77933 0.78958
 C2120 C -0.13021 0.78684 0.78043
 C2121 C -0.14285 0.79242 0.78512
 C2122 C -0.14695 0.79069 0.79907
 N2123 N -0.10814 0.77406 0.78529
 N2124 N -0.10317 0.77662 0.77330
 C2125 C -0.08968 0.77167 0.76917
 C2126 C -0.08422 0.77618 0.75646
 C2127 C -0.07074 0.77227 0.75250
 C2128 C -0.06251 0.76363 0.76120
 C2129 C -0.06820 0.75879 0.77380
 C2130 C -0.08163 0.76281 0.77778
 H2131 H -0.14088 0.78155 0.81892
 H2132 H -0.11894 0.77158 0.81052
 H2133 H -0.12726 0.78847 0.76969
 H2134 H -0.14940 0.79808 0.77782
 H2135 H -0.09032 0.78300 0.74973
 H2136 H -0.06672 0.77615 0.74272
 H2137 H -0.06215 0.75217 0.78077
 H2138 H -0.08564 0.75915 0.78766
 C2139 C 0.87911 0.29305 0.43763
 C2140 C 0.86625 0.28767 0.44191
 C2141 C 0.86189 0.28921 0.45568
 C2142 C 0.87062 0.29623 0.46522
 C2143 C 0.88354 0.30157 0.46097
 C2144 C 0.88797 0.30005 0.44710
 N2145 N 0.84857 0.28363 0.45964
 N2146 N 0.84352 0.28541 0.47174
 C2147 C 0.83015 0.27991 0.47564
 C2148 C 0.82461 0.28362 0.48856
 C2149 C 0.81137 0.27893 0.49248
 C2150 C 0.80345 0.27026 0.48356
 C2151 C 0.80919 0.26626 0.47070
 C2152 C 0.82239 0.27109 0.46674
 H2153 H 0.88200 0.29187 0.42684
 H2154 H 0.85960 0.28235 0.43444
 H2155 H 0.86750 0.29752 0.47595
 H2156 H 0.89012 0.30671 0.46860
 H2157 H 0.83049 0.29038 0.49552
 H2158 H 0.80731 0.28218 0.50247
 H2159 H 0.80335 0.25967 0.46355
 H2160 H 0.82647 0.26802 0.45671
 C2161 C 0.88873 0.78477 -0.05835
 C2162 C 0.87656 0.77835 -0.05350
 C2163 C 0.87242 0.78008 -0.03968
 C2164 C 0.88078 0.78811 -0.03062
 C2165 C 0.89299 0.79449 -0.03544
 C2166 C 0.89704 0.79303 -0.04941
 N2167 N 0.85947 0.77405 -0.03528
 N2168 N 0.85464 0.77610 -0.02314
 C2169 C 0.84145 0.77054 -0.01884
 C2170 C 0.83620 0.77449 -0.00587
 C2171 C 0.82292 0.77018 -0.00175
 C2172 C 0.81466 0.76169 -0.01053
 C2173 C 0.82016 0.75733 -0.02337
 C2174 C 0.83342 0.76176 -0.02752
 H2175 H 0.89139 0.78356 -0.06920
 H2176 H 0.87018 0.77224 -0.06060
 H2177 H 0.87784 0.78956 -0.01986
 H2178 H 0.89924 0.80057 -0.02821
 H2179 H 0.84230 0.78124 0.00092
 H2180 H 0.81904 0.77368 0.00823
 H2181 H 0.81406 0.75085 -0.03040
 H2182 H 0.83728 0.75854 -0.03760
 C2183 C -0.13814 -0.05037 -0.03117
 C2184 C -0.12515 -0.04565 -0.02649
 C2185 C -0.11829 -0.03468 -0.03329
 C2186 C -0.12461 -0.02831 -0.04488
 C2187 C -0.13763 -0.03298 -0.04964
 C2188 C -0.14470 -0.04421 -0.04293
 N2189 N -0.10486 -0.03040 -0.02826
 N2190 N -0.09789 -0.02043 -0.03377
 C2191 C -0.08440 -0.01652 -0.02857
 C2192 C -0.07721 -0.00538 -0.03488
 C2193 C -0.06394 -0.00148 -0.03014
 C2194 C -0.05761 -0.00872 -0.01897
 C2195 C -0.06491 -0.01989 -0.01264
 C2196 C -0.07816 -0.02374 -0.01738
 H2197 H -0.14281 -0.05890 -0.02541
 H2198 H -0.12037 -0.05063 -0.01751
 H2199 H -0.11948 -0.01976 -0.05031
 H2200 H -0.14196 -0.02768 -0.05861
 H2201 H -0.08190 0.00025 -0.04353
 H2202 H -0.05861 0.00713 -0.03529
 H2203 H -0.06037 -0.02572 -0.00404
 H2204 H -0.08348 -0.03241 -0.01232
 C2205 C -0.14385 0.45966 0.47223
 C2206 C -0.13093 0.46414 0.47730
 C2207 C -0.12232 0.47267 0.46923
 C2208 C -0.12697 0.47714 0.45608
 C2209 C -0.13992 0.47271 0.45094
 C2210 C -0.14852 0.46356 0.45877
 N2211 N -0.10874 0.47616 0.47443
 N2212 N -0.10019 0.48371 0.46760
 C2213 C -0.08644 0.48665 0.47271
 C2214 C -0.07767 0.49534 0.46488
 C2215 C -0.06401 0.49798 0.46929
 C2216 C -0.05884 0.49189 0.48165
 C2217 C -0.06773 0.48325 0.48956
 C2218 C -0.08141 0.48066 0.48515
 H2219 H -0.15006 0.45315 0.47902
 H2220 H -0.12751 0.46075 0.48753
 H2221 H -0.12047 0.48381 0.44965
 H2222 H -0.14278 0.47613 0.44060
 H2223 H -0.08141 0.49997 0.45525
 H2224 H -0.05747 0.50466 0.46292
 H2225 H -0.06412 0.47840 0.49913
 H2226 H -0.08798 0.47387 0.49137
 C2227 C 0.37010 -0.03551 0.44330
 C2228 C 0.38249 -0.03019 0.44891
 C2229 C 0.38961 -0.03752 0.45933
 C2230 C 0.38412 -0.05029 0.46428
 C2231 C 0.37169 -0.05569 0.45870
 C2232 C 0.36443 -0.04847 0.44797
 N2233 N 0.40250 -0.03184 0.46444
 N2234 N 0.40970 -0.03775 0.47397
 C2235 C 0.42272 -0.03192 0.47861
 C2236 C 0.43028 -0.03886 0.48907
 C2237 C 0.44327 -0.03369 0.49342
 C2238 C 0.44893 -0.02144 0.48735
 C2239 C 0.44118 -0.01439 0.47698
 C2240 C 0.42822 -0.01956 0.47266
 H2241 H 0.36509 -0.02921 0.43537
 H2242 H 0.38660 -0.02029 0.44504
 H2243 H 0.38948 -0.05617 0.47235
 H2244 H 0.36808 -0.06566 0.46277
 H2245 H 0.42618 -0.04840 0.49373
 H2246 H 0.44895 -0.03942 0.50139
 H2247 H 0.44519 -0.00495 0.47204
 H2248 H 0.42260 -0.01399 0.46455
 C2249 C 0.36508 0.44938 -0.02882
 C2250 C 0.37777 0.45410 -0.02335
 C2251 C 0.38536 0.46461 -0.03010
 C2252 C 0.37994 0.47069 -0.04229
 C2253 C 0.36724 0.46602 -0.04782
 C2254 C 0.35963 0.45505 -0.04135
 N2255 N 0.39871 0.46856 -0.02461
 N2256 N 0.40627 0.47790 -0.03038
 C2257 C 0.41981 0.48152 -0.02516
 C2258 C 0.42747 0.49195 -0.03202
 C2259 C 0.44094 0.49537 -0.02756
 C2260 C 0.44702 0.48837 -0.01612
 C2261 C 0.43922 0.47797 -0.00915
 C2262 C 0.42573 0.47458 -0.01362
 H2263 H 0.35969 0.44130 -0.02305
 H2264 H 0.38179 0.44941 -0.01386
 H2265 H 0.38563 0.47889 -0.04769
 H2266 H 0.36378 0.47086 -0.05740
 H2267 H 0.42303 0.49734 -0.04094
 H2268 H 0.44663 0.50340 -0.03321
 H2269 H 0.44357 0.47236 -0.00032
 H2270 H 0.42001 0.46644 -0.00816
 C2271 C 0.37870 0.44084 0.79307
 C2272 C 0.36589 0.44554 0.78782
 C2273 C 0.36150 0.45944 0.79004
 C2274 C 0.37019 0.46873 0.79747
 C2275 C 0.38304 0.46408 0.80266
 C2276 C 0.38744 0.45005 0.80061
 N2277 N 0.34815 0.46379 0.78481
 N2278 N 0.34308 0.47593 0.78743
 C2279 C 0.32969 0.48028 0.78231
 C2280 C 0.32423 0.49322 0.78671
 C2281 C 0.31102 0.49761 0.78225
 C2282 C 0.30307 0.48915 0.77317
 C2283 C 0.30870 0.47623 0.76860
 C2284 C 0.32187 0.47181 0.77316
 H2285 H 0.38162 0.42993 0.79144
 H2286 H 0.35926 0.43826 0.78214
 H2287 H 0.36706 0.47957 0.79925
 H2288 H 0.38957 0.47154 0.80819
 H2289 H 0.33016 0.49984 0.79375
 H2290 H 0.30702 0.50762 0.78597
 H2291 H 0.30283 0.46942 0.76167
 H2292 H 0.32589 0.46176 0.76959
 C2293 C 0.38369 -0.06027 0.28890
 C2294 C 0.37116 -0.05560 0.28299
 C2295 C 0.36652 -0.04177 0.28516
 C2296 C 0.37469 -0.03253 0.29321
 C2297 C 0.38727 -0.03715 0.29907
 C2298 C 0.39191 -0.05112 0.29706
 N2299 N 0.35344 -0.03748 0.27925
 N2300 N 0.34804 -0.02546 0.28173
 C2301 C 0.33488 -0.02127 0.27592
 C2302 C 0.32892 -0.00850 0.28016
 C2303 C 0.31586 -0.00433 0.27507
 C2304 C 0.30858 -0.01285 0.26550
 C2305 C 0.31472 -0.02558 0.26108
 C2306 C 0.32773 -0.02978 0.26627
 H2307 H 0.38677 -0.07113 0.28728
 H2308 H 0.36494 -0.06284 0.27684
 H2309 H 0.37136 -0.02175 0.29497
 H2310 H 0.39340 -0.02974 0.30508
 H2311 H 0.33433 -0.00186 0.28759
 H2312 H 0.31146 0.00553 0.27868
 H2313 H 0.30938 -0.03244 0.25378
 H2314 H 0.33214 -0.03970 0.26281
 C2315 C 0.11193 0.53648 0.69676
 C2316 C 0.12484 0.53174 0.70164
 C2317 C 0.12951 0.53537 0.71495
 C2318 C 0.12101 0.54377 0.72348
 C2319 C 0.10801 0.54847 0.71864
 C2320 C 0.10331 0.54491 0.70520
 N2321 N 0.14296 0.53051 0.71939
 N2322 N 0.14845 0.53412 0.73092
 C2323 C 0.16201 0.52920 0.73500
 C2324 C 0.16820 0.53461 0.74707
 C2325 C 0.18166 0.53044 0.75098
 C2326 C 0.18914 0.52066 0.74289
 C2327 C 0.18276 0.51503 0.73091
 C2328 C 0.16936 0.51928 0.72698
 H2329 H 0.10885 0.53373 0.68628
 H2330 H 0.13134 0.52533 0.69495
 H2331 H 0.12439 0.54667 0.73385
 H2332 H 0.10160 0.55478 0.72548
 H2333 H 0.16264 0.54225 0.75335
 H2334 H 0.18624 0.53497 0.76028
 H2335 H 0.18821 0.50752 0.72442
 H2336 H 0.16479 0.51490 0.71761
 C2337 C 0.11595 0.05764 0.21151
 C2338 C 0.12917 0.05394 0.21653
 C2339 C 0.13439 0.04030 0.21452
 C2340 C 0.12615 0.03027 0.20754
 C2341 C 0.11289 0.03393 0.20259
 C2342 C 0.10764 0.04769 0.20444
 N2343 N 0.14812 0.03699 0.21952
 N2344 N 0.15394 0.02516 0.21709
 C2345 C 0.16771 0.02191 0.22201
 C2346 C 0.17397 0.00927 0.21782
 C2347 C 0.18755 0.00595 0.22208
 C2348 C 0.19507 0.01521 0.23075
 C2349 C 0.18865 0.02781 0.23513
 C2350 C 0.17511 0.03116 0.23076
 H2351 H 0.11240 0.06838 0.21297
 H2352 H 0.13545 0.06178 0.22185
 H2353 H 0.12993 0.01962 0.20593
 H2354 H 0.10672 0.02593 0.19741
 H2355 H 0.16836 0.00205 0.21109
 H2356 H 0.19215 -0.00385 0.21855
 H2357 H 0.19416 0.03521 0.24176
 H2358 H 0.17048 0.04099 0.23417
 C2359 C 0.63169 0.70922 0.19218
 C2360 C 0.61883 0.71448 0.19652
 C2361 C 0.61390 0.71158 0.20986
 C2362 C 0.62202 0.70324 0.21892
 C2363 C 0.63496 0.69797 0.21460
 C2364 C 0.63998 0.70096 0.20118
 N2365 N 0.60063 0.71718 0.21383
 N2366 N 0.59507 0.71454 0.22554
 C2367 C 0.58171 0.72017 0.22924
 C2368 C 0.57551 0.71577 0.24164
 C2369 C 0.56223 0.72059 0.24526
 C2370 C 0.55493 0.73003 0.23655
 C2371 C 0.56132 0.73469 0.22423
 C2372 C 0.57457 0.72977 0.22058
 H2373 H 0.63504 0.71149 0.18169
 H2374 H 0.61262 0.72081 0.18942
 H2375 H 0.61841 0.70085 0.22931
 H2376 H 0.64112 0.69176 0.22182
 H2377 H 0.58091 0.70841 0.24841
 H2378 H 0.55765 0.71682 0.25485
 H2379 H 0.55597 0.74190 0.21726
 H2380 H 0.57916 0.73337 0.21094
 C2381 C 0.12929 0.71619 0.68697
 C2382 C 0.11642 0.72175 0.69108
 C2383 C 0.11198 0.72048 0.70486
 C2384 C 0.12074 0.71384 0.71464
 C2385 C 0.13363 0.70835 0.71058
 C2386 C 0.13801 0.70929 0.69666
 N2387 N 0.09847 0.72569 0.70862
 N2388 N 0.09340 0.72365 0.72067
 C2389 C 0.07982 0.72857 0.72453
 C2390 C 0.07452 0.72470 0.73752
 C2391 C 0.06112 0.72884 0.74147
 C2392 C 0.05279 0.73707 0.73249
 C2393 C 0.05825 0.74115 0.71953
 C2394 C 0.07163 0.73690 0.71556
 H2395 H 0.13222 0.71699 0.67615
 H2396 H 0.10976 0.72683 0.68344
 H2397 H 0.11761 0.71283 0.72540
 H2398 H 0.14016 0.70339 0.71838
 H2399 H 0.08074 0.71829 0.74453
 H2400 H 0.05726 0.72554 0.75153
 H2401 H 0.05209 0.74742 0.71234
 H2402 H 0.07551 0.74002 0.70546
 C2403 C 0.61191 0.19389 0.53227
 C2404 C 0.62490 0.19787 0.52701
 C2405 C 0.62975 0.21169 0.52872
 C2406 C 0.62131 0.22164 0.53551
 C2407 C 0.60828 0.21771 0.54069
 C2408 C 0.60347 0.20375 0.53927
 N2409 N 0.64336 0.21529 0.52375
 N2410 N 0.64884 0.22725 0.52629
 C2411 C 0.66250 0.23098 0.52159
 C2412 C 0.66825 0.24378 0.52600
 C2413 C 0.68170 0.24763 0.52200
 C2414 C 0.68961 0.23875 0.51335
 C2415 C 0.68372 0.22596 0.50875
 C2416 C 0.67029 0.22207 0.51288
 H2417 H 0.60867 0.18302 0.53113
 H2418 H 0.63133 0.19010 0.52182
 H2419 H 0.62478 0.23244 0.53687
 H2420 H 0.60198 0.22564 0.54578
 H2421 H 0.66234 0.25073 0.53271
 H2422 H 0.68589 0.25757 0.52568
 H2423 H 0.68956 0.21885 0.50214
 H2424 H 0.66603 0.21211 0.50933
 C2425 C 0.62260 0.69118 0.04180
 C2426 C 0.63556 0.69519 0.03651
 C2427 C 0.64051 0.70893 0.03842
 C2428 C 0.63229 0.71874 0.04568
 C2429 C 0.61926 0.71478 0.05091
 C2430 C 0.61424 0.70093 0.04905
 N2431 N 0.65393 0.71258 0.03297
 N2432 N 0.65953 0.72456 0.03514
 C2433 C 0.67299 0.72815 0.02977
 C2434 C 0.67913 0.74089 0.03383
 C2435 C 0.69244 0.74452 0.02919
 C2436 C 0.69985 0.73548 0.02025
 C2437 C 0.69354 0.72278 0.01596
 C2438 C 0.68025 0.71911 0.02072
 H2439 H 0.61925 0.68038 0.04036
 H2440 H 0.64183 0.68751 0.03100
 H2441 H 0.63588 0.72947 0.04724
 H2442 H 0.61307 0.72261 0.05627
 H2443 H 0.67363 0.74795 0.04077
 H2444 H 0.69696 0.75440 0.03267
 H2445 H 0.69898 0.71555 0.00914
 H2446 H 0.67570 0.70920 0.01740
 C2447 C 0.13701 0.05710 0.03415
 C2448 C 0.12360 0.05393 0.02933
 C2449 C 0.11795 0.04048 0.03135
 C2450 C 0.12597 0.03009 0.03813
 C2451 C 0.13942 0.03321 0.04289
 C2452 C 0.14510 0.04679 0.04103
 N2453 N 0.10404 0.03772 0.02659
 N2454 N 0.09788 0.02608 0.02904
 C2455 C 0.08392 0.02336 0.02437
 C2456 C 0.07741 0.01083 0.02847
 C2457 C 0.06369 0.00797 0.02440
 C2458 C 0.05625 0.01760 0.01601
 C2459 C 0.06290 0.03012 0.01176
 C2460 C 0.07660 0.03300 0.01594
 H2461 H 0.14090 0.06772 0.03271
 H2462 H 0.11751 0.06203 0.02416
 H2463 H 0.12185 0.01957 0.03975
 H2464 H 0.14540 0.02496 0.04793
 H2465 H 0.08296 0.00331 0.03496
 H2466 H 0.05892 -0.00179 0.02782
 H2467 H 0.05746 0.03779 0.00536
 H2468 H 0.08143 0.04276 0.01262
 C2469 C 0.12841 0.54118 0.56720
 C2470 C 0.11594 0.53499 0.56269
 C2471 C 0.11198 0.53568 0.54868
 C2472 C 0.12078 0.54251 0.53914
 C2473 C 0.13325 0.54868 0.54363
 C2474 C 0.13719 0.54817 0.55773
 N2475 N 0.09890 0.52968 0.54444
 N2476 N 0.09457 0.53062 0.53194
 C2477 C 0.08141 0.52506 0.52743
 C2478 C 0.07712 0.52763 0.51376
 C2479 C 0.06407 0.52309 0.50911
 C2480 C 0.05505 0.51573 0.51806
 C2481 C 0.05953 0.51281 0.53173
 C2482 C 0.07260 0.51749 0.53641
 H2483 H 0.13101 0.54073 0.57815
 H2484 H 0.10924 0.52981 0.57015
 H2485 H 0.11800 0.54315 0.52824
 H2486 H 0.13985 0.55375 0.53602
 H2487 H 0.08383 0.53343 0.50675
 H2488 H 0.06099 0.52547 0.49851
 H2489 H 0.05280 0.50725 0.53890
 H2490 H 0.07572 0.51536 0.54704
 C2491 C 0.63656 0.04080 0.55983
 C2492 C 0.62408 0.03494 0.55502
 C2493 C 0.62002 0.03654 0.54114
 C2494 C 0.62864 0.04413 0.53200
 C2495 C 0.64121 0.04994 0.53678
 C2496 C 0.64535 0.04832 0.55077
 N2497 N 0.60710 0.03038 0.53671
 N2498 N 0.60202 0.03215 0.52458
 C2499 C 0.58899 0.02589 0.52058
 C2500 C 0.58280 0.02978 0.50793
 C2501 C 0.56971 0.02444 0.50415
 C2502 C 0.56264 0.01496 0.51292
 C2503 C 0.56910 0.01074 0.52543
 C2504 C 0.58211 0.01619 0.52925
 H2505 H 0.63920 0.03956 0.57071
 H2506 H 0.61749 0.02919 0.56218
 H2507 H 0.62571 0.04547 0.52119
 H2508 H 0.64777 0.05551 0.52948
 H2509 H 0.58800 0.03721 0.50114
 H2510 H 0.56505 0.02789 0.49443
 H2511 H 0.56395 0.00352 0.53247
 H2512 H 0.58669 0.01295 0.53905
 C2513 C 0.64224 0.55397 0.03117
 C2514 C 0.62925 0.55007 0.02574
 C2515 C 0.62423 0.53633 0.02755
 C2516 C 0.63256 0.52632 0.03447
 C2517 C 0.64560 0.53015 0.03978
 C2518 C 0.65052 0.54409 0.03842
 N2519 N 0.61048 0.53296 0.02270
 N2520 N 0.60463 0.52126 0.02556
 C2521 C 0.59075 0.51804 0.02100
 C2522 C 0.58431 0.50577 0.02591
 C2523 C 0.57052 0.50270 0.02224
 C2524 C 0.56297 0.51184 0.01344
 C2525 C 0.56960 0.52401 0.00828
 C2526 C 0.58334 0.52712 0.01206
 H2527 H 0.64556 0.56482 0.03002
 H2528 H 0.62290 0.55788 0.02044
 H2529 H 0.62895 0.51558 0.03587
 H2530 H 0.65179 0.52219 0.04503
 H2531 H 0.58993 0.49870 0.03281
 H2532 H 0.56575 0.49322 0.02635
 H2533 H 0.56408 0.53130 0.00151
 H2534 H 0.58811 0.53666 0.00810
 C2535 C 0.05433 0.02928 0.13792
 C2536 C 0.04978 0.02381 0.12518
 C2537 C 0.03723 0.02833 0.11924
 C2538 C 0.02903 0.03819 0.12637
 C2539 C 0.03349 0.04368 0.13911
 C2540 C 0.04639 0.03955 0.14510
 N2541 N 0.03330 0.02319 0.10577
 N2542 N 0.02227 0.02746 0.09964
 C2543 C 0.01842 0.02287 0.08597
 C2544 C 0.00656 0.02875 0.07972
 C2545 C 0.00297 0.02529 0.06604
 C2546 C 0.01120 0.01579 0.05837
 C2547 C 0.02291 0.00959 0.06483
 C2548 C 0.02652 0.01313 0.07851
 H2549 H 0.06425 0.02557 0.14180
 H2550 H 0.05621 0.01618 0.11977
 H2551 H 0.01919 0.04178 0.12205
 H2552 H 0.02666 0.05117 0.14409
 H2553 H 0.00024 0.03628 0.08537
 H2554 H -0.00613 0.03023 0.06143
 H2555 H 0.02949 0.00226 0.05923
 H2556 H 0.03574 0.00844 0.08314
 C2557 C 0.05230 0.53422 0.63614
 C2558 C 0.04818 0.52966 0.62294
 C2559 C 0.03510 0.53334 0.61758
 C2560 C 0.02593 0.54137 0.62573
 C2561 C 0.02997 0.54584 0.63901
 C2562 C 0.04329 0.54248 0.64432
 N2563 N 0.03153 0.52894 0.60379
 N2564 N 0.02054 0.53313 0.59755
 C2565 C 0.01730 0.52859 0.58370
 C2566 C 0.00577 0.53442 0.57678
 C2567 C 0.00252 0.53030 0.56317
 C2568 C 0.01073 0.52015 0.55633
 C2569 C 0.02227 0.51429 0.56336
 C2570 C 0.02554 0.51849 0.57689
 H2571 H 0.06268 0.53157 0.63971
 H2572 H 0.05533 0.52347 0.61673
 H2573 H 0.01569 0.54423 0.62184
 H2574 H 0.02266 0.55195 0.64508
 H2575 H -0.00065 0.54223 0.58193
 H2576 H -0.00644 0.53500 0.55806
 H2577 H 0.02887 0.50652 0.55839
 H2578 H 0.03452 0.51382 0.58200
 C2579 C 0.53353 0.05233 0.63915
 C2580 C 0.52849 0.04783 0.62623
 C2581 C 0.53534 0.03721 0.61888
 C2582 C 0.54729 0.03095 0.62468
 C2583 C 0.55239 0.03539 0.63759
 C2584 C 0.54570 0.04630 0.64511
 N2585 N 0.53010 0.03318 0.60548
 N2586 N 0.53586 0.02358 0.59825
 C2587 C 0.53082 0.01970 0.58474
 C2588 C 0.53775 0.00906 0.57744
 C2589 C 0.53340 0.00526 0.56408
 C2590 C 0.52197 0.01210 0.55773
 C2591 C 0.51492 0.02271 0.56517
 C2592 C 0.51931 0.02648 0.57856
 H2593 H 0.52768 0.06053 0.64428
 H2594 H 0.51922 0.05271 0.62188
 H2595 H 0.55279 0.02268 0.61917
 H2596 H 0.56171 0.03027 0.64141
 H2597 H 0.54665 0.00377 0.58210
 H2598 H 0.53909 -0.00294 0.55868
 H2599 H 0.50610 0.02820 0.56061
 H2600 H 0.51378 0.03477 0.58400
 C2601 C 0.53535 0.55516 0.13767
 C2602 C 0.53107 0.55181 0.12416
 C2603 C 0.53377 0.53845 0.11860
 C2604 C 0.54084 0.52838 0.12676
 C2605 C 0.54510 0.53169 0.14031
 C2606 C 0.54240 0.54513 0.14594
 N2607 N 0.52925 0.53540 0.10470
 N2608 N 0.53190 0.52367 0.09881
 C2609 C 0.52743 0.52058 0.08490
 C2610 C 0.53161 0.50787 0.07882
 C2611 C 0.52771 0.50462 0.06517
 C2612 C 0.51943 0.51404 0.05736
 C2613 C 0.51508 0.52675 0.06358
 C2614 C 0.51908 0.53002 0.07722
 H2615 H 0.53329 0.56567 0.14156
 H2616 H 0.52568 0.55968 0.11796
 H2617 H 0.54301 0.51794 0.12272
 H2618 H 0.55031 0.52365 0.14642
 H2619 H 0.53803 0.50050 0.08464
 H2620 H 0.53122 0.49472 0.06075
 H2621 H 0.50875 0.53426 0.05786
 H2622 H 0.51569 0.53991 0.08171
 C2623 C 0.20882 0.56474 0.62338
 C2624 C 0.21492 0.56046 0.63593
 C2625 C 0.21327 0.54661 0.64072
 C2626 C 0.20556 0.53696 0.63268
 C2627 C 0.19951 0.54120 0.62009
 C2628 C 0.20098 0.55517 0.61532
 N2629 N 0.21918 0.54274 0.65389
 N2630 N 0.21724 0.53059 0.65922
 C2631 C 0.22280 0.52673 0.67254
 C2632 C 0.21895 0.51376 0.67831
 C2633 C 0.22345 0.50998 0.69164
 C2634 C 0.23204 0.51911 0.69941
 C2635 C 0.23625 0.53197 0.69342
 C2636 C 0.23162 0.53579 0.68011
 H2637 H 0.21003 0.57562 0.62016
 H2638 H 0.22078 0.56802 0.64206
 H2639 H 0.20418 0.52616 0.63612
 H2640 H 0.19375 0.53350 0.61407
 H2641 H 0.21217 0.50668 0.67256
 H2642 H 0.22006 0.49997 0.69591
 H2643 H 0.24281 0.53926 0.69915
 H2644 H 0.23478 0.54587 0.67583
 C2645 C 0.19618 0.03076 0.11032
 C2646 C 0.20042 0.02579 0.12336
 C2647 C 0.21418 0.02765 0.12790
 C2648 C 0.22384 0.03416 0.11904
 C2649 C 0.21967 0.03901 0.10594
 C2650 C 0.20572 0.03758 0.10148
 N2651 N 0.21793 0.02319 0.14164
 N2652 N 0.22969 0.02618 0.14710
 C2653 C 0.23324 0.02191 0.16096
 C2654 C 0.24552 0.02703 0.16705
 C2655 C 0.24893 0.02358 0.18080
 C2656 C 0.24012 0.01479 0.18864
 C2657 C 0.22793 0.00943 0.18237
 C2658 C 0.22449 0.01300 0.16869
 H2659 H 0.18535 0.02959 0.10737
 H2660 H 0.19287 0.02079 0.13011
 H2661 H 0.23458 0.03558 0.12227
 H2662 H 0.22738 0.04391 0.09934
 H2663 H 0.25235 0.03391 0.16118
 H2664 H 0.25841 0.02784 0.18529
 H2665 H 0.22089 0.00268 0.18811
 H2666 H 0.21495 0.00887 0.16420
 C2667 C 0.68506 0.21252 0.62920
 C2668 C 0.68940 0.21855 0.61667
 C2669 C 0.70314 0.21690 0.61214
 C2670 C 0.71263 0.20928 0.62043
 C2671 C 0.70834 0.20331 0.63300
 C2672 C 0.69446 0.20476 0.63752
 N2673 N 0.70714 0.22286 0.59904
 N2674 N 0.71912 0.22067 0.59380
 C2675 C 0.72314 0.22646 0.58064
 C2676 C 0.73591 0.22237 0.57492
 C2677 C 0.73998 0.22740 0.56188
 C2678 C 0.73136 0.23677 0.55438
 C2679 C 0.71864 0.24106 0.56028
 C2680 C 0.71453 0.23591 0.57328
 H2681 H 0.67426 0.21372 0.63220
 H2682 H 0.68197 0.22437 0.61035
 H2683 H 0.72336 0.20792 0.61720
 H2684 H 0.71594 0.19765 0.63922
 H2685 H 0.74264 0.21511 0.58050
 H2686 H 0.74985 0.22391 0.55767
 H2687 H 0.71172 0.24820 0.55476
 H2688 H 0.70462 0.23925 0.57751
 C2689 C 0.69432 0.71323 0.13576
 C2690 C 0.69930 0.71870 0.12325
 C2691 C 0.71287 0.71572 0.11888
 C2692 C 0.72158 0.70737 0.12733
 C2693 C 0.71666 0.70197 0.13993
 C2694 C 0.70291 0.70474 0.14426
 N2695 N 0.71737 0.72107 0.10573
 N2696 N 0.72903 0.71770 0.10040
 C2697 C 0.73328 0.72298 0.08712
 C2698 C 0.74549 0.71772 0.08114
 C2699 C 0.74963 0.72226 0.06795
 C2700 C 0.74164 0.73228 0.06057
 C2701 C 0.72949 0.73772 0.06673
 C2702 C 0.72532 0.73308 0.07987
 H2703 H 0.68363 0.71542 0.13856
 H2704 H 0.69248 0.72509 0.11679
 H2705 H 0.73216 0.70499 0.12419
 H2706 H 0.72363 0.69567 0.14627
 H2707 H 0.75171 0.70994 0.08663
 H2708 H 0.75906 0.71788 0.06353
 H2709 H 0.72306 0.74539 0.06132
 H2710 H 0.71584 0.73732 0.08429
 C2711 C 0.56127 0.71443 0.11782
 C2712 C 0.55627 0.71956 0.13049
 C2713 C 0.54234 0.71749 0.13426
 C2714 C 0.53331 0.71049 0.12503
 C2715 C 0.53825 0.70546 0.11230
 C2716 C 0.55235 0.70719 0.10859
 N2717 N 0.53775 0.72235 0.14758
 N2718 N 0.52568 0.71956 0.15233
 C2719 C 0.52130 0.72433 0.16577
 C2720 C 0.50858 0.71959 0.17114
 C2721 C 0.50433 0.72360 0.18447
 C2722 C 0.51271 0.73257 0.19263
 C2723 C 0.52536 0.73754 0.18707
 C2724 C 0.52963 0.73343 0.17381
 H2725 H 0.57219 0.71584 0.11545
 H2726 H 0.56334 0.72493 0.13752
 H2727 H 0.52245 0.70887 0.12766
 H2728 H 0.53099 0.70021 0.10539
 H2729 H 0.50205 0.71258 0.16504
 H2730 H 0.49453 0.71960 0.18842
 H2731 H 0.53212 0.74441 0.19306
 H2732 H 0.53950 0.73728 0.16990
 C2733 C 0.06221 0.70979 0.61954
 C2734 C 0.05689 0.71518 0.63193
 C2735 C 0.04313 0.71243 0.63580
 C2736 C 0.03466 0.70410 0.62709
 C2737 C 0.03996 0.69873 0.61460
 C2738 C 0.05379 0.70158 0.61063
 N2739 N 0.03812 0.71828 0.64857
 N2740 N 0.02604 0.71566 0.65334
 C2741 C 0.02132 0.72169 0.66616
 C2742 C 0.00864 0.71717 0.67176
 C2743 C 0.00398 0.72251 0.68447
 C2744 C 0.01190 0.73263 0.69176
 C2745 C 0.02451 0.73735 0.68597
 C2746 C 0.02921 0.73190 0.67332
 H2747 H 0.07298 0.71196 0.61702
 H2748 H 0.06355 0.72150 0.63860
 H2749 H 0.02396 0.70185 0.62987
 H2750 H 0.03316 0.69257 0.60796
 H2751 H 0.00245 0.70933 0.66634
 H2752 H -0.00578 0.71865 0.68862
 H2753 H 0.03091 0.74506 0.69134
 H2754 H 0.03903 0.73561 0.66919
 C2755 C 0.54762 0.60592 0.22210
 C2756 C 0.54373 0.61917 0.22709
 C2757 C 0.53085 0.62501 0.22344
 C2758 C 0.52165 0.61729 0.21495
 C2759 C 0.52548 0.60394 0.21001
 C2760 C 0.53859 0.59815 0.21340
 N2761 N 0.52766 0.63898 0.22811
 N2762 N 0.51670 0.64553 0.22429
 C2763 C 0.51391 0.65968 0.22875
 C2764 C 0.50228 0.66673 0.22332
 C2765 C 0.49966 0.68078 0.22690
 C2766 C 0.50865 0.68801 0.23607
 C2767 C 0.52018 0.68079 0.24173
 C2768 C 0.52281 0.66676 0.23807
 H2769 H 0.55789 0.60201 0.22476
 H2770 H 0.55093 0.62507 0.23358
 H2771 H 0.51158 0.62159 0.21204
 H2772 H 0.51821 0.59820 0.20350
 H2773 H 0.49535 0.66139 0.21613
 H2774 H 0.49065 0.68599 0.22240
 H2775 H 0.52731 0.68603 0.24880
 H2776 H 0.53188 0.66151 0.24242
 C2777 C 0.03601 0.61602 0.69082
 C2778 C 0.03073 0.62916 0.69474
 C2779 C 0.03268 0.63414 0.70828
 C2780 C 0.04003 0.62581 0.71795
 C2781 C 0.04528 0.61260 0.71406
 C2782 C 0.04329 0.60752 0.70044
 N2783 N 0.02706 0.64766 0.71188
 N2784 N 0.02911 0.65331 0.72372
 C2785 C 0.02342 0.66684 0.72717
 C2786 C 0.02728 0.67317 0.73975
 C2787 C 0.02225 0.68655 0.74323
 C2788 C 0.01311 0.69380 0.73421
 C2789 C 0.00906 0.68731 0.72168
 C2790 C 0.01420 0.67397 0.71816
 H2791 H 0.03451 0.61260 0.68019
 H2792 H 0.02514 0.63553 0.68718
 H2793 H 0.04163 0.62944 0.72851
 H2794 H 0.05068 0.60628 0.72177
 H2795 H 0.03436 0.66777 0.74678
 H2796 H 0.02555 0.69124 0.75298
 H2797 H 0.00211 0.69263 0.71447
 H2798 H 0.01103 0.66927 0.70838
 C2799 C 0.06049 0.13751 0.04159
 C2800 C 0.05565 0.12467 0.03633
 C2801 C 0.04180 0.12058 0.03827
 C2802 C 0.03274 0.12952 0.04562
 C2803 C 0.03755 0.14244 0.05085
 C2804 C 0.05149 0.14662 0.04885
 N2805 N 0.03731 0.10733 0.03265
 N2806 N 0.02518 0.10229 0.03467
 C2807 C 0.02106 0.08897 0.02887
 C2808 C 0.00829 0.08305 0.03276
 C2809 C 0.00426 0.06981 0.02768
 C2810 C 0.01292 0.06233 0.01847
 C2811 C 0.02561 0.06847 0.01436
 C2812 C 0.02967 0.08163 0.01954
 H2813 H 0.07134 0.14019 0.04008
 H2814 H 0.06275 0.11783 0.03075
 H2815 H 0.02195 0.12658 0.04722
 H2816 H 0.03030 0.14924 0.05625
 H2817 H 0.00155 0.08861 0.03992
 H2818 H -0.00559 0.06541 0.03103
 H2819 H 0.03257 0.06299 0.00734
 H2820 H 0.03957 0.08600 0.01632
 C2821 C 0.06632 0.63228 0.54087
 C2822 C 0.06158 0.61978 0.53472
 C2823 C 0.04762 0.61571 0.53594
 C2824 C 0.03838 0.62433 0.54346
 C2825 C 0.04310 0.63684 0.54962
 C2826 C 0.05713 0.64099 0.54838
 N2827 N 0.04314 0.60276 0.52962
 N2828 N 0.03060 0.59845 0.53050
 C2829 C 0.02596 0.58542 0.52448
 C2830 C 0.01223 0.58110 0.52683
 C2831 C 0.00748 0.56814 0.52180
 C2832 C 0.01638 0.55922 0.51419
 C2833 C 0.03008 0.56376 0.51148
 C2834 C 0.03486 0.57674 0.51663
 H2835 H 0.07722 0.63503 0.53987
 H2836 H 0.06883 0.61321 0.52902
 H2837 H 0.02752 0.62143 0.54456
 H2838 H 0.03572 0.64336 0.55517
 H2839 H 0.00527 0.58771 0.53284
 H2840 H -0.00315 0.56502 0.52404
 H2841 H 0.03722 0.55711 0.50573
 H2842 H 0.04552 0.57988 0.51465
 C2843 C 0.53319 0.13701 0.55551
 C2844 C 0.52819 0.12366 0.55180
 C2845 C 0.53022 0.11845 0.53835
 C2846 C 0.53703 0.12691 0.52848
 C2847 C 0.54197 0.14029 0.53215
 C2848 C 0.54027 0.14545 0.54576
 N2849 N 0.52566 0.10442 0.53511
 N2850 N 0.52828 0.09866 0.52346
 C2851 C 0.52405 0.08452 0.52026
 C2852 C 0.52840 0.07849 0.50774
 C2853 C 0.52505 0.06450 0.50456
 C2854 C 0.51716 0.05630 0.51386
 C2855 C 0.51255 0.06250 0.52632
 C2856 C 0.51601 0.07647 0.52953
 H2857 H 0.53183 0.14053 0.56611
 H2858 H 0.52299 0.11722 0.55950
 H2859 H 0.53864 0.12315 0.51798
 H2860 H 0.54712 0.14658 0.52431
 H2861 H 0.53460 0.08460 0.50052
 H2862 H 0.52871 0.06010 0.49485
 H2863 H 0.50650 0.05648 0.53373
 H2864 H 0.51251 0.08091 0.53928
 C2865 C 0.54090 0.63601 0.05849
 C2866 C 0.53546 0.62315 0.05388
 C2867 C 0.53829 0.61829 0.04046
 C2868 C 0.54645 0.62659 0.03153
 C2869 C 0.55183 0.63951 0.03609
 C2870 C 0.54923 0.64434 0.04969
 N2871 N 0.53297 0.60480 0.03632
 N2872 N 0.53611 0.59908 0.02477
 C2873 C 0.53084 0.58547 0.02093
 C2874 C 0.53573 0.57904 0.00879
 C2875 C 0.53122 0.56550 0.00509
 C2876 C 0.52162 0.55820 0.01347
 C2877 C 0.51654 0.56482 0.02553
 C2878 C 0.52113 0.57830 0.02924
 H2879 H 0.53883 0.63923 0.06907
 H2880 H 0.52921 0.61682 0.06086
 H2881 H 0.54870 0.62308 0.02107
 H2882 H 0.55798 0.64573 0.02895
 H2883 H 0.54322 0.58447 0.00229
 H2884 H 0.53532 0.56073 -0.00427
 H2885 H 0.50918 0.55951 0.03225
 H2886 H 0.51716 0.58305 0.03867
 C2887 C 0.71963 0.11479 0.55374
 C2888 C 0.72482 0.12760 0.54877
 C2889 C 0.71764 0.13514 0.53854
 C2890 C 0.70521 0.12958 0.53307
 C2891 C 0.69994 0.11674 0.53800
 C2892 C 0.70694 0.10912 0.54861
 N2893 N 0.72304 0.14853 0.53417
 N2894 N 0.71713 0.15595 0.52480
 C2895 C 0.72236 0.16950 0.52072
 C2896 C 0.71542 0.17693 0.51019
 C2897 C 0.71991 0.19037 0.50626
 C2898 C 0.73148 0.19670 0.51283
 C2899 C 0.73855 0.18914 0.52332
 C2900 C 0.73404 0.17565 0.52723
 H2901 H 0.72579 0.10946 0.56155
 H2902 H 0.73448 0.13174 0.55301
 H2903 H 0.69945 0.13524 0.52510
 H2904 H 0.69020 0.11313 0.53359
 H2905 H 0.70639 0.17232 0.50512
 H2906 H 0.71416 0.19587 0.49817
 H2907 H 0.74747 0.19369 0.52862
 H2908 H 0.73958 0.17012 0.53542
 C2909 C 0.71949 0.61146 0.05929
 C2910 C 0.72485 0.62477 0.05596
 C2911 C 0.72338 0.63020 0.04250
 C2912 C 0.71668 0.62202 0.03227
 C2913 C 0.71142 0.60868 0.03555
 C2914 C 0.71263 0.60326 0.04914
 N2915 N 0.72855 0.64407 0.03954
 N2916 N 0.72621 0.65012 0.02793
 C2917 C 0.73122 0.66402 0.02483
 C2918 C 0.72696 0.67045 0.01243
 C2919 C 0.73136 0.68411 0.00916
 C2920 C 0.74027 0.69155 0.01822
 C2921 C 0.74468 0.68499 0.03062
 C2922 C 0.74015 0.67135 0.03394
 H2923 H 0.72048 0.60777 0.06990
 H2924 H 0.72996 0.63098 0.06394
 H2925 H 0.71551 0.62594 0.02175
 H2926 H 0.70645 0.60259 0.02740
 H2927 H 0.72009 0.66490 0.00533
 H2928 H 0.72780 0.68882 -0.00050
 H2929 H 0.75148 0.69045 0.03786
 H2930 H 0.74360 0.66657 0.04359
 C2931 C 0.18730 0.63842 0.71426
 C2932 C 0.19176 0.62611 0.72097
 C2933 C 0.20563 0.62166 0.71998
 C2934 C 0.21512 0.62981 0.71228
 C2935 C 0.21069 0.64217 0.70560
 C2936 C 0.19670 0.64660 0.70644
 N2937 N 0.20967 0.60868 0.72653
 N2938 N 0.22188 0.60354 0.72531
 C2939 C 0.22580 0.59035 0.73153
 C2940 C 0.23885 0.58460 0.72840
 C2941 C 0.24263 0.57127 0.73342
 C2942 C 0.23342 0.56349 0.74183
 C2943 C 0.22050 0.56952 0.74537
 C2944 C 0.21669 0.58282 0.74022
 H2945 H 0.17642 0.64134 0.71498
 H2946 H 0.18433 0.61988 0.72681
 H2947 H 0.22592 0.62661 0.71139
 H2948 H 0.21825 0.64829 0.69986
 H2949 H 0.24597 0.59031 0.72173
 H2950 H 0.25268 0.56698 0.73053
 H2951 H 0.21315 0.56379 0.75176
 H2952 H 0.20655 0.58707 0.74283
 C2953 C 0.19048 0.13449 0.20516
 C2954 C 0.19513 0.12183 0.21104
 C2955 C 0.20893 0.11743 0.20932
 C2956 C 0.21812 0.12587 0.20156
 C2957 C 0.21348 0.13859 0.19568
 C2958 C 0.19960 0.14308 0.19745
 N2959 N 0.21325 0.10432 0.21546
 N2960 N 0.22548 0.09932 0.21394
 C2961 C 0.22961 0.08611 0.21999
 C2962 C 0.24271 0.08054 0.21673
 C2963 C 0.24678 0.06733 0.22185
 C2964 C 0.23782 0.05948 0.23046
 C2965 C 0.22481 0.06529 0.23404
 C2966 C 0.22071 0.07846 0.22881
 H2967 H 0.17967 0.13744 0.20653
 H2968 H 0.18793 0.11537 0.21692
 H2969 H 0.22886 0.12269 0.20009
 H2970 H 0.22082 0.14500 0.18994
 H2971 H 0.24967 0.08634 0.20998
 H2972 H 0.25688 0.06320 0.21892
 H2973 H 0.21763 0.05950 0.24058
 H2974 H 0.21054 0.08257 0.23153
 C2975 C 0.70962 1.13262 0.68682
 C2976 C 0.71595 1.12019 0.69156
 C2977 C 0.71489 1.11618 0.70552
 C2978 C 0.70755 1.12489 0.71479
 C2979 C 0.70126 1.13735 0.71008
 C2980 C 0.70213 1.14133 0.69601
 N2981 N 0.72104 1.10311 0.70995
 N2982 N 0.71969 1.09855 0.72233
 C2983 C 0.72550 1.08537 0.72688
 C2984 C 0.72245 1.08062 0.74029
 C2985 C 0.72730 1.06750 0.74490
 C2986 C 0.73542 1.05891 0.73616
 C2987 C 0.73876 1.06386 0.72278
 C2988 C 0.73379 1.07697 0.71815
 H2989 H 0.71036 1.13524 0.67589
 H2990 H 0.72152 1.11354 0.68430
 H2991 H 0.70663 1.12206 0.72566
 H2992 H 0.69580 1.14389 0.71749
 H2993 H 0.71608 1.08701 0.74712
 H2994 H 0.72456 1.06404 0.75527
 H2995 H 0.74491 1.05747 0.71576
 H2996 H 0.73630 1.08044 0.70773
 C2997 C 0.70879 0.63021 0.19073
 C2998 C 0.71416 0.61721 0.19511
 C2999 C 0.71160 0.61225 0.20855
 C3000 C 0.70356 0.62049 0.21766
 C3001 C 0.69822 0.63355 0.21332
 C3002 C 0.70079 0.63859 0.19979
 N3003 N 0.71722 0.59882 0.21260
 N3004 N 0.71473 0.59325 0.22438
 C3005 C 0.72029 0.57975 0.22829
 C3006 C 0.71587 0.57355 0.24071
 C3007 C 0.72057 0.56010 0.24453
 C3008 C 0.72993 0.55264 0.23601
 C3009 C 0.73464 0.55906 0.22369
 C3010 C 0.72982 0.57247 0.21983
 H3011 H 0.71079 0.63359 0.18018
 H3012 H 0.72027 0.61093 0.18796
 H3013 H 0.70146 0.61689 0.22813
 H3014 H 0.69226 0.63978 0.22062
 H3015 H 0.70856 0.57905 0.24733
 H3016 H 0.71676 0.55550 0.25410
 H3017 H 0.74179 0.55360 0.21686
 H3018 H 0.73344 0.57707 0.21018
 C3019 C 0.55191 0.11144 0.71856
 C3020 C 0.54704 0.12440 0.72356
 C3021 C 0.53562 0.13104 0.71733
 C3022 C 0.52885 0.12445 0.70614
 C3023 C 0.53364 0.11150 0.70109
 C3024 C 0.54544 0.10475 0.70705
 N3025 N 0.53134 0.14463 0.72230
 N3026 N 0.52125 0.15141 0.71680
 C3027 C 0.51721 0.16516 0.72150
 C3028 C 0.50628 0.17215 0.71469
 C3029 C 0.50246 0.18583 0.71862
 C3030 C 0.50956 0.19277 0.72949
 C3031 C 0.52040 0.18560 0.73646
 C3032 C 0.52420 0.17193 0.73250
 H3033 H 0.56089 0.10697 0.72374
 H3034 H 0.55234 0.12938 0.73224
 H3035 H 0.51991 0.12935 0.70118
 H3036 H 0.52797 0.10700 0.69246
 H3037 H 0.50082 0.16704 0.70619
 H3038 H 0.49406 0.19101 0.71303
 H3039 H 0.52611 0.19060 0.74486
 H3040 H 0.53270 0.16674 0.73793
 C3041 C 1.03355 0.11156 0.19274
 C3042 C 1.02802 0.12456 0.19688
 C3043 C 1.03047 0.12968 0.21030
 C3044 C 1.03832 0.12151 0.21971
 C3045 C 1.04381 0.10848 0.21561
 C3046 C 1.04161 0.10340 0.20203
 N3047 N 1.02522 0.14335 0.21397
 N3048 N 1.02792 0.14902 0.22567
 C3049 C 1.02301 0.16282 0.22929
 C3050 C 1.02739 0.16878 0.24186
 C3051 C 1.02339 0.18248 0.24544
 C3052 C 1.01480 0.19048 0.23650
 C3053 C 1.01015 0.18434 0.22399
 C3054 C 1.01425 0.17064 0.22038
 H3055 H 1.03179 0.10812 0.18216
 H3056 H 1.02203 0.13078 0.18952
 H3057 H 1.04030 0.12521 0.23018
 H3058 H 1.04975 0.10239 0.22310
 H3059 H 1.03413 0.16285 0.24881
 H3060 H 1.02712 0.18684 0.25518
 H3061 H 1.00356 0.19021 0.21685
 H3062 H 1.01070 0.16624 0.21060
 C3063 C 0.18733 0.61980 0.54190
 C3064 C 0.19227 0.63220 0.53571
 C3065 C 0.20618 0.63631 0.53746
 C3066 C 0.21524 0.62769 0.54527
 C3067 C 0.21035 0.61527 0.55138
 C3068 C 0.19629 0.61123 0.54992
 N3069 N 0.21080 0.64938 0.53151
 N3070 N 0.22294 0.65427 0.53393
 C3071 C 0.22770 0.66740 0.52826
 C3072 C 0.24064 0.67265 0.53259
 C3073 C 0.24545 0.68565 0.52769
 C3074 C 0.23742 0.69360 0.51822
 C3075 C 0.22450 0.68817 0.51370
 C3076 C 0.21965 0.67521 0.51872
 H3077 H 0.17642 0.61714 0.54066
 H3078 H 0.18518 0.63876 0.52973
 H3079 H 0.22608 0.63057 0.54669
 H3080 H 0.21762 0.60882 0.55723
 H3081 H 0.24694 0.66671 0.53993
 H3082 H 0.25545 0.68948 0.53136
 H3083 H 0.21802 0.69406 0.50648
 H3084 H 0.20960 0.67134 0.51522
 C3085 C 0.21995 0.10917 1.05318
 C3086 C 0.22562 0.12212 1.04912
 C3087 C 0.22339 0.12728 1.03567
 C3088 C 0.21562 0.11918 1.02615
 C3089 C 0.20999 0.10620 1.03017
 C3090 C 0.21197 0.10109 1.04378
 N3091 N 0.22875 0.14090 1.03205
 N3092 N 0.22605 0.14661 1.02036
 C3093 C 0.23105 0.16035 1.01668
 C3094 C 0.22659 0.16632 1.00414
 C3095 C 0.23072 0.17994 1.00044
 C3096 C 0.23954 0.18782 1.00923
 C3097 C 0.24424 0.18168 1.02174
 C3098 C 0.23999 0.16807 1.02547
 H3099 H 0.22153 0.10569 1.06379
 H3100 H 0.23156 0.12828 1.05656
 H3101 H 0.21381 0.12291 1.01565
 H3102 H 0.20412 0.10017 1.02260
 H3103 H 0.21971 0.16046 0.99729
 H3104 H 0.22696 0.18431 0.99070
 H3105 H 0.25098 0.18749 1.02876
 H3106 H 0.24358 0.16364 1.03524
 C3107 C 0.21055 0.69233 0.63251
 C3108 C 0.21676 0.69642 0.62001
 C3109 C 0.21495 0.71012 0.61485
 C3110 C 0.20692 0.71981 0.62246
 C3111 C 0.20076 0.71577 0.63501
 C3112 C 0.20244 0.70194 0.64018
 N3113 N 0.22123 0.71384 0.60185
 N3114 N 0.21920 0.72578 0.59608
 C3115 C 0.22538 0.72944 0.58301
 C3116 C 0.22162 0.74219 0.57665
 C3117 C 0.22707 0.74586 0.56367
 C3118 C 0.23652 0.73686 0.55686
 C3119 C 0.24047 0.72416 0.56341
 C3120 C 0.23493 0.72045 0.57634
 H3121 H 0.21193 0.68155 0.63600
 H3122 H 0.22289 0.68883 0.61422
 H3123 H 0.20542 0.73051 0.61873
 H3124 H 0.19479 0.72352 0.64070
 H3125 H 0.21429 0.74920 0.58168
 H3126 H 0.22380 0.75572 0.55895
 H3127 H 0.24766 0.71694 0.55844
 H3128 H 0.23802 0.71054 0.58106
 C3129 C 0.19637 0.21687 1.13032
 C3130 C 0.20148 0.22194 1.11769
 C3131 C 0.21217 0.21487 1.11078
 C3132 C 0.21786 0.20260 1.11675
 C3133 C 0.21277 0.19745 1.12940
 C3134 C 0.20180 0.20441 1.13647
 N3135 N 0.21685 0.22027 1.09767
 N3136 N 0.22663 0.21453 1.09077
 C3137 C 0.23101 0.21992 1.07755
 C3138 C 0.24185 0.21313 1.07052
 C3139 C 0.24609 0.21785 1.05741
 C3140 C 0.23951 0.22952 1.05106
 C3141 C 0.22871 0.23642 1.05824
 C3142 C 0.22450 0.23168 1.07135
 H3143 H 0.18811 0.22289 1.13505
 H3144 H 0.19703 0.23144 1.11321
 H3145 H 0.22617 0.19693 1.11159
 H3146 H 0.21750 0.18793 1.13341
 H3147 H 0.24694 0.20405 1.07516
 H3148 H 0.25440 0.21223 1.05219
 H3149 H 0.22338 0.24540 1.05367
 H3150 H 0.21608 0.23712 1.07656
 C3151 C 0.69467 0.52939 0.11171
 C3152 C 0.69786 0.52367 0.12475
 C3153 C 0.71111 0.52553 0.13060
 C3154 C 0.72129 0.53299 0.12312
 C3155 C 0.71815 0.53866 0.11005
 C3156 C 0.70475 0.53704 0.10423
 N3157 N 0.71382 0.52013 0.14426
 N3158 N 0.72527 0.52253 0.15056
 C3159 C 0.72803 0.51750 0.16434
 C3160 C 0.74029 0.52181 0.17099
 C3161 C 0.74305 0.51774 0.18468
 C3162 C 0.73359 0.50913 0.19195
 C3163 C 0.72141 0.50452 0.18513
 C3164 C 0.71861 0.50873 0.17144
 H3165 H 0.68420 0.52810 0.10769
 H3166 H 0.68991 0.51799 0.13043
 H3167 H 0.73165 0.53451 0.12740
 H3168 H 0.72622 0.54428 0.10451
 H3169 H 0.74762 0.52856 0.16562
 H3170 H 0.75257 0.52141 0.18959
 H3171 H 0.71391 0.49792 0.19045
 H3172 H 0.70906 0.50524 0.16647
 C3173 C 0.71413 1.06016 0.61965
 C3174 C 0.71891 1.05584 0.63271
 C3175 C 0.71598 1.04229 0.63765
 C3176 C 0.70830 1.03293 0.62926
 C3177 C 0.70358 1.03719 0.61612
 C3178 C 0.70638 1.05090 0.61116
 N3179 N 0.72086 1.03839 0.65121
 N3180 N 0.71764 1.02673 0.65695
 C3181 C 0.72265 1.02308 0.67055
 C3182 C 0.71779 1.01074 0.67691
 C3183 C 0.72233 1.00705 0.69028
 C3184 C 0.73195 1.01562 0.69746
 C3185 C 0.73689 1.02796 0.69096
 C3186 C 0.73226 1.03167 0.67766
 H3187 H 0.71630 1.07085 0.61635
 H3188 H 0.72479 1.06316 0.63911
 H3189 H 0.70598 1.02234 0.63283
 H3190 H 0.69784 1.02971 0.60982
 H3191 H 0.71039 1.00403 0.67153
 H3192 H 0.71834 0.99747 0.69497
 H3193 H 0.74424 1.03484 0.69621
 H3194 H 0.73620 1.04127 0.67297
 C3195 C 0.55504 0.21858 0.61006
 C3196 C 0.55092 0.22425 0.62281
 C3197 C 0.53724 0.22253 0.62750
 C3198 C 0.52756 0.21529 0.61911
 C3199 C 0.53164 0.20968 0.60632
 C3200 C 0.54547 0.21111 0.60169
 N3201 N 0.53355 0.22781 0.64095
 N3202 N 0.52163 0.22548 0.64624
 C3203 C 0.51791 0.23035 0.65982
 C3204 C 0.50516 0.22606 0.66541
 C3205 C 0.50150 0.22989 0.67893
 C3206 C 0.51051 0.23823 0.68708
 C3207 C 0.52317 0.24284 0.68130
 C3208 C 0.52688 0.23888 0.66779
 H3209 H 0.56580 0.21974 0.60695
 H3210 H 0.55848 0.22977 0.62921
 H3211 H 0.51689 0.21389 0.62247
 H3212 H 0.52394 0.20423 0.60007
 H3213 H 0.49817 0.21949 0.65935
 H3214 H 0.49164 0.22621 0.68302
 H3215 H 0.53037 0.24923 0.68731
 H3216 H 0.53679 0.24235 0.66366
 C3217 C 1.05753 0.22181 0.11384
 C3218 C 1.05282 0.22716 0.12651
 C3219 C 1.04137 0.22114 0.13315
 C3220 C 1.03447 0.20973 0.12686
 C3221 C 1.03914 0.20430 0.11418
 C3222 C 1.05091 0.21012 0.10742
 N3223 N 1.03722 0.22657 0.14641
 N3224 N 1.02685 0.22159 0.15299
 C3225 C 1.02289 0.22668 0.16643
 C3226 C 1.01144 0.22052 0.17300
 C3227 C 1.00765 0.22468 0.18638
 C3228 C 1.01530 0.23513 0.19350
 C3229 C 1.02668 0.24152 0.18676
 C3230 C 1.03045 0.23732 0.17333
 H3231 H 1.06652 0.22690 0.10939
 H3232 H 1.05822 0.23598 0.13126
 H3233 H 1.02553 0.20491 0.13179
 H3234 H 1.03341 0.19552 0.10987
 H3235 H 1.00554 0.21231 0.16779
 H3236 H 0.99883 0.21953 0.19121
 H3237 H 1.03281 0.24957 0.19193
 H3238 H 1.03937 0.24224 0.16845
 C3239 C 0.62939 0.18942 0.70924
 C3240 C 0.61683 0.19388 0.71515
 C3241 C 0.61223 0.20780 0.71344
 C3242 C 0.62049 0.21736 0.70590
 C3243 C 0.63308 0.21293 0.70003
 C3244 C 0.63764 0.19887 0.70152
 N3245 N 0.59902 0.21186 0.71911
 N3246 N 0.59384 0.22408 0.71710
 C3247 C 0.58048 0.22813 0.72242
 C3248 C 0.57495 0.24125 0.71858
 C3249 C 0.56161 0.24523 0.72287
 C3250 C 0.55357 0.23616 0.73121
 C3251 C 0.55932 0.22313 0.73539
 C3252 C 0.57264 0.21912 0.73098
 H3253 H 0.63244 0.17849 0.71046
 H3254 H 0.61054 0.18640 0.72089
 H3255 H 0.61720 0.22821 0.70449
 H3256 H 0.63925 0.22056 0.69438
 H3257 H 0.58090 0.24829 0.71200
 H3258 H 0.55754 0.25535 0.71950
 H3259 H 0.55339 0.21588 0.74175
 H3260 H 0.57672 0.20893 0.73411
 C3261 C 1.13363 0.21615 0.18899
 C3262 C 1.12112 0.22155 0.19418
 C3263 C 1.11704 0.21867 0.20783
 C3264 C 1.12581 0.21054 0.21642
 C3265 C 1.13838 0.20521 0.21129
 C3266 C 1.14239 0.20781 0.19744
 N3267 N 1.10384 0.22385 0.21255
 N3268 N 1.09878 0.22053 0.22433
 C3269 C 1.08542 0.22559 0.22874
 C3270 C 1.07962 0.22027 0.24101
 C3271 C 1.06626 0.22444 0.24517
 C3272 C 1.05852 0.23413 0.23713
 C3273 C 1.06456 0.23971 0.22500
 C3274 C 1.07784 0.23546 0.22082
 H3275 H 1.13621 0.21825 0.17825
 H3276 H 1.11443 0.22779 0.18745
 H3277 H 1.12292 0.20825 0.22706
 H3278 H 1.14495 0.19907 0.21819
 H3279 H 1.08537 0.21267 0.24722
 H3280 H 1.06195 0.21996 0.25457
 H3281 H 1.05890 0.24716 0.21852
 H3282 H 1.08211 0.23976 0.21131
 C3283 C 0.12253 0.71431 0.55962
 C3284 C 0.13502 0.72017 0.55494
 C3285 C 0.13944 0.71792 0.54129
 C3286 C 0.13109 0.70989 0.53222
 C3287 C 0.11853 0.70409 0.53687
 C3288 C 0.11413 0.70613 0.55067
 N3289 N 0.15259 0.72361 0.53706
 N3290 N 0.15782 0.72103 0.52519
 C3291 C 0.17113 0.72647 0.52114
 C3292 C 0.17697 0.72189 0.50864
 C3293 C 0.19030 0.72632 0.50477
 C3294 C 0.19799 0.73555 0.51333
 C3295 C 0.19193 0.74044 0.52573
 C3296 C 0.17863 0.73589 0.52963
 H3297 H 0.11965 0.71594 0.57036
 H3298 H 0.14140 0.72628 0.56203
 H3299 H 0.13427 0.70807 0.52159
 H3300 H 0.11225 0.69805 0.52963
 H3301 H 0.17129 0.71464 0.50201
 H3302 H 0.19464 0.72238 0.49514
 H3303 H 0.19759 0.74748 0.53259
 H3304 H 0.17432 0.73960 0.53935
 C3305 C 0.12060 0.21606 1.05713
 C3306 C 0.13369 0.22045 1.05252
 C3307 C 0.13817 0.21716 1.03910
 C3308 C 0.12928 0.20959 1.03016
 C3309 C 0.11613 0.20526 1.03472
 C3310 C 0.11167 0.20834 1.04831
 N3311 N 0.15182 0.22148 1.03490
 N3312 N 0.15705 0.21786 1.02330
 C3313 C 0.17076 0.22217 1.01924
 C3314 C 0.17629 0.21701 1.00681
 C3315 C 0.18973 0.22085 1.00267
 C3316 C 0.19783 0.23003 1.01090
 C3317 C 0.19218 0.23525 1.02336
 C3318 C 0.17878 0.23134 1.02751
 H3319 H 0.11766 0.21845 1.06771
 H3320 H 0.14048 0.22626 1.05951
 H3321 H 0.13249 0.20700 1.01969
 H3322 H 0.10946 0.19954 1.02758
 H3323 H 0.17020 0.20993 1.00036
 H3324 H 0.19374 0.21665 0.99301
 H3325 H 0.19814 0.24229 1.02998
 H3326 H 0.17473 0.23547 1.03718
 C3327 C 0.60769 0.54841 0.21857
 C3328 C 0.62089 0.54444 0.22332
 C3329 C 0.62663 0.53148 0.21946
 C3330 C 0.61897 0.52239 0.21075
 C3331 C 0.60569 0.52633 0.20601
 C3332 C 0.59989 0.53940 0.20987
 N3333 N 0.64032 0.52798 0.22439
 N3334 N 0.64662 0.51673 0.22083
 C3335 C 0.66039 0.51355 0.22577
 C3336 C 0.66720 0.50159 0.22067
 C3337 C 0.68083 0.49848 0.22488
 C3338 C 0.68788 0.50729 0.23437
 C3339 C 0.68091 0.51919 0.23968
 C3340 C 0.66729 0.52232 0.23539
 H3341 H 0.60375 0.55868 0.22152
 H3342 H 0.62674 0.55156 0.22995
 H3343 H 0.62322 0.51228 0.20764
 H3344 H 0.59992 0.51911 0.19943
 H3345 H 0.66199 0.49475 0.21327
 H3346 H 0.68586 0.48920 0.22062
 H3347 H 0.68603 0.52621 0.24697
 H3348 H 0.66223 0.53163 0.23951
 C3349 C 0.61006 1.02961 0.70307
 C3350 C 0.62280 1.02430 0.70795
 C3351 C 0.63177 1.03281 0.71581
 C3352 C 0.62783 1.04678 0.71881
 C3353 C 0.61514 1.05213 0.71389
 C3354 C 0.60609 1.04363 0.70592
 N3355 N 0.64489 1.02716 0.72036
 N3356 N 0.65317 1.03412 0.72816
 C3357 C 0.66646 1.02868 0.73245
 C3358 C 0.67469 1.03670 0.74153
 C3359 C 0.68792 1.03196 0.74557
 C3360 C 0.69320 1.01910 0.74050
 C3361 C 0.68484 1.01099 0.73146
 C3362 C 0.67157 1.01572 0.72750
 H3363 H 0.60330 1.02269 0.69716
 H3364 H 0.62571 1.01351 0.70558
 H3365 H 0.63463 1.05361 0.72479
 H3366 H 0.61257 1.06302 0.71611
 H3367 H 0.67087 1.04672 0.74540
 H3368 H 0.69408 1.03852 0.75248
 H3369 H 0.68856 1.00104 0.72736
 H3370 H 0.66541 1.00934 0.72044
 C3371 C 0.87972 0.46100 0.31192
 C3372 C 0.86679 0.46638 0.30771
 C3373 C 0.86167 0.46365 0.29435
 C3374 C 0.86971 0.45552 0.28513
 C3375 C 0.88266 0.45016 0.28932
 C3376 C 0.88781 0.45281 0.30278
 N3377 N 0.84823 0.46902 0.29048
 N3378 N 0.84278 0.46637 0.27869
 C3379 C 0.82927 0.47148 0.27474
 C3380 C 0.82373 0.46729 0.26193
 C3381 C 0.81039 0.47159 0.25790
 C3382 C 0.80234 0.48029 0.26660
 C3383 C 0.80803 0.48471 0.27939
 C3384 C 0.82138 0.48030 0.28346
 H3385 H 0.88323 0.46306 0.32243
 H3386 H 0.86067 0.47256 0.31492
 H3387 H 0.86599 0.45330 0.27471
 H3388 H 0.88869 0.44406 0.28197
 H3389 H 0.82972 0.46050 0.25513
 H3390 H 0.80637 0.46803 0.24795
 H3391 H 0.80207 0.49134 0.28636
 H3392 H 0.82547 0.48368 0.29343
 C3393 C 0.88597 0.96592 0.80926
 C3394 C 0.87305 0.97134 0.80509
 C3395 C 0.86798 0.96886 0.79166
 C3396 C 0.87607 0.96096 0.78232
 C3397 C 0.88906 0.95560 0.78644
 C3398 C 0.89417 0.95798 0.80000
 N3399 N 0.85454 0.97433 0.78791
 N3400 N 0.84870 0.97156 0.77631
 C3401 C 0.83517 0.97696 0.77276
 C3402 C 0.82859 0.97213 0.76065
 C3403 C 0.81511 0.97665 0.75725
 C3404 C 0.80800 0.98624 0.76588
 C3405 C 0.81479 0.99135 0.77786
 C3406 C 0.82823 0.98671 0.78131
 H3407 H 0.88939 0.96779 0.81983
 H3408 H 0.86688 0.97736 0.81240
 H3409 H 0.87238 0.95895 0.77185
 H3410 H 0.89514 0.94972 0.77897
 H3411 H 0.83384 0.96463 0.75397
 H3412 H 0.81022 0.97253 0.74793
 H3413 H 0.80961 0.99870 0.78476
 H3414 H 0.83311 0.99064 0.79071
 C3415 C 0.36100 0.28534 0.80286
 C3416 C 0.37401 0.28011 0.79884
 C3417 C 0.37912 0.28278 0.78551
 C3418 C 0.37096 0.29061 0.77608
 C3419 C 0.35790 0.29578 0.78004
 C3420 C 0.35279 0.29329 0.79352
 N3421 N 0.39267 0.27761 0.78188
 N3422 N 0.39837 0.28066 0.77033
 C3423 C 0.41197 0.27565 0.76668
 C3424 C 0.41802 0.28052 0.75438
 C3425 C 0.43143 0.27620 0.75066
 C3426 C 0.43899 0.26678 0.75916
 C3427 C 0.43279 0.26174 0.77143
 C3428 C 0.41941 0.26618 0.77520
 H3429 H 0.35754 0.28338 0.81337
 H3430 H 0.38023 0.27413 0.80622
 H3431 H 0.37465 0.29274 0.76566
 H3432 H 0.35180 0.30164 0.77251
 H3433 H 0.41238 0.28782 0.74773
 H3434 H 0.43585 0.28025 0.74111
 H3435 H 0.43835 0.25454 0.77824
 H3436 H 0.41492 0.26225 0.78476
 C3437 C 0.86285 0.27794 0.30470
 C3438 C 0.87619 0.27321 0.30122
 C3439 C 0.88175 0.27616 0.28814
 C3440 C 0.87369 0.28365 0.27836
 C3441 C 0.86029 0.28830 0.28179
 C3442 C 0.85476 0.28565 0.29506
 N3443 N 0.89571 0.27174 0.28517
 N3444 N 0.90191 0.27544 0.27408
 C3445 C 0.91591 0.27121 0.27111
 C3446 C 0.92240 0.27670 0.25931
 C3447 C 0.93615 0.27306 0.25621
 C3448 C 0.94364 0.26371 0.26485
 C3449 C 0.93705 0.25811 0.27668
 C3450 C 0.92330 0.26187 0.27982
 H3451 H 0.85910 0.27587 0.31509
 H3452 H 0.88233 0.26748 0.30884
 H3453 H 0.87774 0.28597 0.26812
 H3454 H 0.85430 0.29398 0.27403
 H3455 H 0.91680 0.28392 0.25254
 H3456 H 0.94087 0.27753 0.24700
 H3457 H 0.94253 0.25093 0.28357
 H3458 H 0.91848 0.25748 0.28902
 C3459 C 0.39267 0.80376 0.46923
 C3460 C 0.38000 0.79968 0.47512
 C3461 C 0.37484 0.78603 0.47307
 C3462 C 0.38269 0.77631 0.46530
 C3463 C 0.39539 0.78035 0.45945
 C3464 C 0.40047 0.79419 0.46119
 N3465 N 0.36140 0.78249 0.47848
 N3466 N 0.35565 0.77063 0.47605
 C3467 C 0.34199 0.76724 0.48100
 C3468 C 0.33584 0.75456 0.47677
 C3469 C 0.32216 0.75136 0.48056
 C3470 C 0.31440 0.76079 0.48878
 C3471 C 0.32077 0.77334 0.49338
 C3472 C 0.33444 0.77657 0.48949
 H3473 H 0.39613 0.81454 0.47064
 H3474 H 0.37402 0.80727 0.48104
 H3475 H 0.37895 0.76566 0.46363
 H3476 H 0.40122 0.77265 0.45354
 H3477 H 0.34157 0.74729 0.47024
 H3478 H 0.31760 0.74158 0.47689
 H3479 H 0.31508 0.78085 0.49968
 H3480 H 0.33899 0.78644 0.49291
 C3481 C 0.38691 0.30760 0.95861
 C3482 C 0.37429 0.30269 0.96398
 C3483 C 0.36957 0.28909 0.96085
 C3484 C 0.37769 0.28033 0.95230
 C3485 C 0.39037 0.28520 0.94697
 C3486 C 0.39513 0.29892 0.95003
 N3487 N 0.35644 0.28456 0.96634
 N3488 N 0.35105 0.27265 0.96335
 C3489 C 0.33782 0.26837 0.96880
 C3490 C 0.33181 0.25578 0.96407
 C3491 C 0.31862 0.25164 0.96870
 C3492 C 0.31123 0.26002 0.97825
 C3493 C 0.31745 0.27251 0.98322
 C3494 C 0.33060 0.27667 0.97851
 H3495 H 0.39009 0.31828 0.96102
 H3496 H 0.36809 0.30956 0.97049
 H3497 H 0.37427 0.26974 0.94977
 H3498 H 0.39649 0.27817 0.94056
 H3499 H 0.33728 0.24928 0.95660
 H3500 H 0.31416 0.24196 0.96468
 H3501 H 0.31205 0.27925 0.99053
 H3502 H 0.33503 0.28644 0.98236
 C3503 C 0.80514 0.46419 0.38490
 C3504 C 0.80087 0.46803 0.37150
 C3505 C 0.78753 0.46456 0.36668
 C3506 C 0.77838 0.45721 0.37547
 C3507 C 0.78260 0.45343 0.38892
 C3508 C 0.79606 0.45684 0.39381
 N3509 N 0.78355 0.46869 0.35289
 N3510 N 0.77199 0.46510 0.34737
 C3511 C 0.76817 0.46948 0.33359
 C3512 C 0.75585 0.46431 0.32761
 C3513 C 0.75190 0.46839 0.31416
 C3514 C 0.76020 0.47783 0.30649
 C3515 C 0.77256 0.48302 0.31257
 C3516 C 0.77652 0.47886 0.32596
 H3517 H 0.81563 0.46681 0.38817
 H3518 H 0.80802 0.47366 0.36481
 H3519 H 0.76797 0.45449 0.37200
 H3520 H 0.77525 0.44798 0.39553
 H3521 H 0.74932 0.45708 0.33338
 H3522 H 0.74232 0.46420 0.30980
 H3523 H 0.77925 0.49023 0.30696
 H3524 H 0.78610 0.48302 0.33034
 C3525 C 0.78551 0.94591 0.88917
 C3526 C 0.78041 0.95020 0.87622
 C3527 C 0.78335 0.96368 0.87112
 C3528 C 0.79143 0.97299 0.87920
 C3529 C 0.79649 0.96874 0.89223
 C3530 C 0.79361 0.95512 0.89737
 N3531 N 0.77813 0.96753 0.85767
 N3532 N 0.78119 0.97916 0.85179
 C3533 C 0.77594 0.98268 0.83825
 C3534 C 0.78086 0.99483 0.83161
 C3535 C 0.77637 0.99821 0.81815
 C3536 C 0.76673 0.98951 0.81115
 C3537 C 0.76158 0.97746 0.81798
 C3538 C 0.76617 0.97404 0.83138
 H3539 H 0.78329 0.93527 0.89260
 H3540 H 0.77425 0.94292 0.87005
 H3541 H 0.79379 0.98351 0.87548
 H3542 H 0.80252 0.97617 0.89832
 H3543 H 0.78837 1.00157 0.83679
 H3544 H 0.78051 1.00758 0.81321
 H3545 H 0.75420 0.97050 0.81289
 H3546 H 0.76217 0.96461 0.83631
 C3547 C 0.29051 0.80645 0.36664
 C3548 C 0.28598 0.80180 0.37962
 C3549 C 0.28927 0.78824 0.38431
 C3550 C 0.29724 0.77925 0.37585
 C3551 C 0.30175 0.78387 0.36277
 C3552 C 0.29837 0.79752 0.35798
 N3553 N 0.28432 0.78397 0.39769
 N3554 N 0.28741 0.77219 0.40329
 C3555 C 0.28216 0.76846 0.41674
 C3556 C 0.28704 0.75621 0.42332
 C3557 C 0.28245 0.75267 0.43667
 C3558 C 0.27276 0.76132 0.44362
 C3559 C 0.26768 0.77345 0.43683
 C3560 C 0.27235 0.77701 0.42356
 H3561 H 0.28795 0.81711 0.36348
 H3562 H 0.27991 0.80884 0.38610
 H3563 H 0.29989 0.76868 0.37928
 H3564 H 0.30767 0.77669 0.35634
 H3565 H 0.29459 0.74952 0.41817
 H3566 H 0.28657 0.74324 0.44159
 H3567 H 0.26026 0.78039 0.44186
 H3568 H 0.26835 0.78651 0.41869
 C3569 C 0.28157 0.30508 0.85879
 C3570 C 0.27657 0.30066 0.87169
 C3571 C 0.27880 0.28682 0.87626
 C3572 C 0.28584 0.27726 0.86759
 C3573 C 0.29078 0.28163 0.85463
 C3574 C 0.28886 0.29566 0.85013
 N3575 N 0.27423 0.28291 0.88987
 N3576 N 0.27712 0.27095 0.89521
 C3577 C 0.27284 0.26723 0.90897
 C3578 C 0.27762 0.25455 0.91475
 C3579 C 0.27426 0.25095 0.92842
 C3580 C 0.26595 0.25998 0.93654
 C3581 C 0.26090 0.27258 0.93058
 C3582 C 0.26436 0.27621 0.91694
 H3583 H 0.28005 0.31600 0.85582
 H3584 H 0.27119 0.30813 0.87831
 H3585 H 0.28762 0.26646 0.87087
 H3586 H 0.29611 0.27403 0.84816
 H3587 H 0.28416 0.24755 0.90870
 H3588 H 0.27827 0.24114 0.93266
 H3589 H 0.25451 0.27979 0.93654
 H3590 H 0.26052 0.28607 0.91268
 C3591 C 0.46122 0.31025 0.87852
 C3592 C 0.46595 0.30600 0.86547
 C3593 C 0.46308 0.29244 0.86053
 C3594 C 0.45536 0.28306 0.86883
 C3595 C 0.45066 0.28728 0.88194
 C3596 C 0.45356 0.30093 0.88697
 N3597 N 0.46813 0.28851 0.84708
 N3598 N 0.46534 0.27664 0.84153
 C3599 C 0.47046 0.27288 0.82806
 C3600 C 0.46599 0.26024 0.82200
 C3601 C 0.47050 0.25643 0.80872
 C3602 C 0.47970 0.26519 0.80129
 C3603 C 0.48434 0.27780 0.80750
 C3604 C 0.47973 0.28164 0.82075
 H3605 H 0.46343 0.32092 0.88190
 H3606 H 0.47182 0.31334 0.85914
 H3607 H 0.45305 0.27249 0.86523
 H3608 H 0.44494 0.27979 0.88822
 H3609 H 0.45886 0.25339 0.82753
 H3610 H 0.46674 0.24663 0.80427
 H3611 H 0.49135 0.28483 0.80205
 H3612 H 0.48336 0.29147 0.82523
 C3613 C 0.96106 0.30976 0.38264
 C3614 C 0.96695 0.30526 0.37015
 C3615 C 0.96450 0.29161 0.36522
 C3616 C 0.95606 0.28239 0.37298
 C3617 C 0.95017 0.28687 0.38552
 C3618 C 0.95261 0.30062 0.39051
 N3619 N 0.97056 0.28748 0.35225
 N3620 N 0.96833 0.27543 0.34683
 C3621 C 0.97423 0.27142 0.33376
 C3622 C 0.97036 0.25850 0.32790
 C3623 C 0.97538 0.25452 0.31487
 C3624 C 0.98449 0.26340 0.30747
 C3625 C 0.98864 0.27626 0.31353
 C3626 C 0.98352 0.28026 0.32655
 H3627 H 0.96296 0.32049 0.38599
 H3628 H 0.97336 0.31248 0.36423
 H3629 H 0.95403 0.27175 0.36937
 H3630 H 0.94386 0.27952 0.39138
 H3631 H 0.96323 0.25159 0.33336
 H3632 H 0.97200 0.24452 0.31054
 H3633 H 0.99558 0.28336 0.30809
 H3634 H 0.98669 0.29031 0.33090
 C3635 C 0.45979 0.38319 0.81007
 C3636 C 0.46532 0.37054 0.80501
 C3637 C 0.46274 0.36631 0.79131
 C3638 C 0.45470 0.37504 0.78257
 C3639 C 0.44922 0.38774 0.78758
 C3640 C 0.45158 0.39193 0.80144
 N3641 N 0.46815 0.35303 0.78663
 N3642 N 0.46529 0.34806 0.77465
 C3643 C 0.47054 0.33469 0.77004
 C3644 C 0.46600 0.32934 0.75724
 C3645 C 0.47050 0.31609 0.75266
 C3646 C 0.47975 0.30798 0.76080
 C3647 C 0.48448 0.31351 0.77357
 C3648 C 0.47988 0.32671 0.77817
 H3649 H 0.46169 0.38594 0.82082
 H3650 H 0.47147 0.36388 0.81186
 H3651 H 0.45263 0.37205 0.77189
 H3652 H 0.44318 0.39429 0.78056
 H3653 H 0.45879 0.33539 0.75088
 H3654 H 0.46666 0.31218 0.74278
 H3655 H 0.49154 0.30752 0.78014
 H3656 H 0.48356 0.33063 0.78811
 C3657 C 0.93703 0.38005 0.29381
 C3658 C 0.94154 0.36730 0.28804
 C3659 C 0.95556 0.36332 0.28890
 C3660 C 0.96510 0.37228 0.29567
 C3661 C 0.96062 0.38509 0.30140
 C3662 C 0.94651 0.38917 0.30051
 N3663 N 0.95976 0.35015 0.28285
 N3664 N 0.97215 0.34541 0.28397
 C3665 C 0.97631 0.33220 0.27797
 C3666 C 0.98958 0.32688 0.28107
 C3667 C 0.99380 0.31378 0.27590
 C3668 C 0.98485 0.30577 0.26735
 C3669 C 0.97162 0.31130 0.26397
 C3670 C 0.96736 0.32437 0.26928
 H3671 H 0.92606 0.38266 0.29313
 H3672 H 0.93406 0.36046 0.28293
 H3673 H 0.97602 0.36944 0.29645
 H3674 H 0.96824 0.39189 0.30632
 H3675 H 0.99659 0.33282 0.28772
 H3676 H 1.00407 0.30987 0.27868
 H3677 H 0.96445 0.30537 0.25749
 H3678 H 0.95705 0.32828 0.26670
 C3679 C 0.29546 0.88167 0.43625
 C3680 C 0.28985 0.86900 0.44117
 C3681 C 0.29212 0.86473 0.45493
 C3682 C 0.30003 0.87340 0.46382
 C3683 C 0.30560 0.88613 0.45893
 C3684 C 0.30344 0.89042 0.44505
 N3685 N 0.28642 0.85153 0.45951
 N3686 N 0.28880 0.84651 0.47158
 C3687 C 0.28317 0.83322 0.47601
 C3688 C 0.28727 0.82767 0.48889
 C3689 C 0.28239 0.81448 0.49329
 C3690 C 0.27318 0.80662 0.48488
 C3691 C 0.26886 0.81237 0.47205
 C3692 C 0.27383 0.82551 0.46764
 H3693 H 0.29374 0.88447 0.42547
 H3694 H 0.28382 0.86239 0.43420
 H3695 H 0.30188 0.87037 0.47453
 H3696 H 0.31148 0.89266 0.46608
 H3697 H 0.29444 0.83350 0.49546
 H3698 H 0.28592 0.81039 0.50322
 H3699 H 0.26184 0.80660 0.46527
 H3700 H 0.27047 0.82958 0.45764
 C3701 C 0.31282 0.38198 0.96083
 C3702 C 0.30851 0.36880 0.96569
 C3703 C 0.29495 0.36404 0.96315
 C3704 C 0.28565 0.37265 0.95559
 C3705 C 0.28994 0.38591 0.95075
 C3706 C 0.30357 0.39076 0.95337
 N3707 N 0.29099 0.35044 0.96832
 N3708 N 0.27905 0.34505 0.96597
 C3709 C 0.27534 0.33136 0.97114
 C3710 C 0.26263 0.32542 0.96702
 C3711 C 0.25896 0.31183 0.97136
 C3712 C 0.26794 0.30397 0.98005
 C3713 C 0.28056 0.31012 0.98445
 C3714 C 0.28426 0.32367 0.98000
 H3715 H 0.32346 0.38521 0.96281
 H3716 H 0.31579 0.36222 0.97141
 H3717 H 0.27508 0.36918 0.95351
 H3718 H 0.28253 0.39244 0.94515
 H3719 H 0.25565 0.33125 0.96023
 H3720 H 0.24914 0.30745 0.96781
 H3721 H 0.28774 0.30434 0.99107
 H3722 H 0.29413 0.32806 0.98337
 C3723 C 0.80717 0.35899 0.28436
 C3724 C 0.80307 0.37215 0.27915
 C3725 C 0.78943 0.37700 0.28106
 C3726 C 0.77982 0.36845 0.28816
 C3727 C 0.78389 0.35527 0.29332
 C3728 C 0.79763 0.35039 0.29155
 N3729 N 0.78564 0.39069 0.27590
 N3730 N 0.77366 0.39599 0.27812
 C3731 C 0.76973 0.40971 0.27318
 C3732 C 0.75678 0.41518 0.27708
 C3733 C 0.75275 0.42870 0.27288
 C3734 C 0.76159 0.43699 0.26456
 C3735 C 0.77453 0.43136 0.26045
 C3736 C 0.77859 0.41785 0.26477
 H3737 H 0.81787 0.35568 0.28296
 H3738 H 0.81058 0.37867 0.27374
 H3739 H 0.76919 0.37193 0.28971
 H3740 H 0.77622 0.34885 0.29859
 H3741 H 0.74987 0.40899 0.28355
 H3742 H 0.74270 0.43267 0.27619
 H3743 H 0.78161 0.43749 0.25411
 H3744 H 0.78866 0.41381 0.26161
   
