data_POSCAR
  _audit_creation_date              2014-09-24
  _audit_creation_method            'ToBaCCo'
  _symmetry_space_group_name_H-M    'P1'
  _symmetry_Int_Tables_number       1
  _symmetry_cell_setting            triclinic
  loop_
  _symmetry_equiv_pos_as_xyz
 x,y,z
_cell_length_a 43.5736
_cell_length_b 43.5935
_cell_length_c 37.0816
_cell_angle_alpha 90.281600
_cell_angle_beta 90.205400
_cell_angle_gamma 90.604300
loop_
  _atom_site_label
  _atom_site_type_symbol
  _atom_site_fract_x
  _atom_site_fract_y
  _atom_site_fract_z
C1 C 0.37029 0.03914 0.30416
 H2 H 0.35178 0.05463 0.29828
 C3 C 0.38945 0.04498 0.33384
 H4 H 0.38550 0.06482 0.35081
 C5 C 0.39757 -0.00617 0.29030
 H6 H 0.40018 -0.02646 0.27373
 C7 C 0.41773 -0.00070 0.31876
 H8 H 0.43572 -0.01707 0.32401
 N9 N 0.37448 0.01368 0.28334
 C10 C 0.35771 -0.02042 0.17404
 H11 H 0.33325 -0.02447 0.17399
 C12 C 0.37504 -0.02948 0.14423
 H13 H 0.36366 -0.04017 0.12132
 C14 C 0.40222 -0.00051 0.20301
 H15 H 0.41271 0.01187 0.22517
 C16 C 0.42043 -0.00978 0.17426
 H17 H 0.44475 -0.00443 0.17491
 Zn18 Zn 0.34795 0.00404 0.24416
 N19 N 0.37151 -0.00648 0.20287
 C20 C 0.33193 0.05773 0.20764
 N21 N 0.32351 0.03810 0.23425
 C22 C 0.29969 0.04423 0.25658
 C23 C 0.28428 0.07198 0.25387
 C24 C 0.31716 0.08578 0.20397
 C25 C 0.33067 -0.04803 0.28455
 C26 C 0.31576 -0.07607 0.28966
 C27 C 0.28246 -0.06441 0.23939
 C28 C 0.29826 -0.03669 0.23515
 N29 N 0.32280 -0.02977 0.25648
 H30 H 0.35115 0.05232 0.19046
 H31 H 0.29371 0.02821 0.27766
 H32 H 0.26626 0.07700 0.27297
 H33 H 0.32512 0.10174 0.18368
 H34 H 0.34947 -0.04171 0.30212
 H35 H 0.32374 -0.09073 0.31118
 H36 H 0.26396 -0.06983 0.22076
 H37 H 0.29171 -0.02119 0.21386
 C38 C 0.40687 -0.02442 0.14433
 C39 C 0.41358 0.02492 0.34116
 C40 C 0.29228 -0.08548 0.26570
 C41 C 0.29367 0.09361 0.22808
 C42 C 0.11122 0.03260 0.71120
 H43 H 0.10520 0.04050 0.73793
 C44 C 0.09387 0.04177 0.68143
 H45 H 0.07410 0.05623 0.68545
 C46 C 0.14395 0.00367 0.67353
 H47 H 0.16359 -0.01104 0.67055
 C48 C 0.12782 0.01291 0.64301
 H49 H 0.13479 0.00438 0.61684
 N50 N 0.13474 0.01263 0.70690
 C51 C 0.14244 -0.02161 0.81718
 H52 H 0.16713 -0.02040 0.82024
 C53 C 0.12413 -0.02979 0.84648
 H54 H 0.13496 -0.03435 0.87220
 C55 C 0.09855 -0.01644 0.77993
 H56 H 0.08869 -0.01200 0.75376
 C57 C 0.07935 -0.02440 0.80853
 H58 H 0.05477 -0.02503 0.80417
 Zn59 Zn 0.15631 -0.00188 0.74771
 N60 N 0.12940 -0.01407 0.78509
 C61 C 0.17491 0.04788 0.79202
 N62 N 0.18214 0.03047 0.76280
 C63 C 0.20516 0.03873 0.74011
 C64 C 0.22134 0.06608 0.74566
 C65 C 0.19028 0.07565 0.79836
 C66 C 0.16204 -0.05985 0.71949
 C67 C 0.17519 -0.08823 0.71290
 C68 C 0.22253 -0.06924 0.73941
 C69 C 0.20851 -0.04091 0.74502
 N70 N 0.17867 -0.03699 0.73540
 H71 H 0.15591 0.04130 0.80906
 H72 H 0.20983 0.02480 0.71658
 H73 H 0.23861 0.07286 0.72626
 H74 H 0.18319 0.08999 0.82069
 H75 H 0.13815 -0.05620 0.71286
 H76 H 0.16111 -0.10628 0.70107
 H77 H 0.24594 -0.07243 0.74843
 H78 H 0.22101 -0.02262 0.75854
 C79 C 0.09205 -0.03042 0.84262
 C80 C 0.10178 0.03133 0.64687
 C81 C 0.20558 -0.09350 0.72373
 C82 C 0.21316 0.08549 0.77432
 C83 C 0.60023 0.51709 0.22242
 H84 H 0.59077 0.51204 0.24861
 C85 C 0.58060 0.52514 0.19427
 H86 H 0.55609 0.52532 0.19899
 C87 C 0.64354 0.52340 0.18466
 H88 H 0.66816 0.52250 0.18119
 C89 C 0.62477 0.53173 0.15578
 H90 H 0.63518 0.53677 0.12998
 N91 N 0.63098 0.51525 0.21678
 C92 C 0.64397 0.49404 0.32733
 H93 H 0.66297 0.50970 0.33200
 C94 C 0.62736 0.48268 0.35653
 H95 H 0.63323 0.49055 0.38345
 C96 C 0.61329 0.46484 0.28664
 H97 H 0.60825 0.45773 0.25925
 C98 C 0.59544 0.45361 0.31500
 H99 H 0.57626 0.43834 0.30928
 Zn100 Zn 0.65800 0.50233 0.25371
 N101 N 0.63602 0.48583 0.29313
 C102 C 0.66414 0.55980 0.28425
 N103 N 0.68068 0.53741 0.26808
 C104 C 0.71074 0.54180 0.25956
 C105 C 0.72507 0.57010 0.26655
 C106 C 0.67755 0.58820 0.29201
 C107 C 0.67452 0.45304 0.20855
 C108 C 0.68861 0.42494 0.20198
 C109 C 0.72164 0.43434 0.25347
 C110 C 0.70661 0.46197 0.25937
 N111 N 0.68327 0.47052 0.23735
 H112 H 0.64012 0.55583 0.29008
 H113 H 0.72321 0.52396 0.24579
 H114 H 0.74864 0.57362 0.25828
 H115 H 0.66353 0.60589 0.30393
 H116 H 0.65515 0.45975 0.19221
 H117 H 0.68028 0.41053 0.18011
 H118 H 0.73915 0.42732 0.27241
 H119 H 0.71230 0.47574 0.28285
 C120 C 0.60212 0.46301 0.35040
 C121 C 0.59275 0.53182 0.16013
 C122 C 0.71185 0.41489 0.22531
 C123 C 0.70819 0.59398 0.28227
 C124 C 0.85606 0.51884 0.82809
 H125 H 0.83147 0.51765 0.83107
 C126 C 0.87419 0.52810 0.85746
 H127 H 0.86303 0.53388 0.88261
 C128 C 0.90027 0.51096 0.79259
 H129 H 0.91077 0.50305 0.76808
 C130 C 0.91920 0.52076 0.82082
 H131 H 0.94380 0.52042 0.81681
 N132 N 0.86923 0.51052 0.79633
 C133 C 0.86526 0.45944 0.70020
 H134 H 0.84844 0.44308 0.70985
 C135 C 0.88423 0.45147 0.67128
 H136 H 0.88186 0.42914 0.65860
 C137 C 0.88889 0.50857 0.70430
 H138 H 0.89046 0.53091 0.71708
 C139 C 0.90886 0.50122 0.67649
 H140 H 0.92561 0.51813 0.66772
 Zn141 Zn 0.84361 0.49811 0.75677
 N142 N 0.86807 0.48756 0.71624
 C143 C 0.82144 0.54718 0.71433
 N144 N 0.81718 0.53079 0.74507
 C145 C 0.79552 0.53893 0.76951
 C146 C 0.77931 0.56609 0.76530
 C147 C 0.80588 0.57460 0.70912
 C148 C 0.83228 0.44363 0.79408
 C149 C 0.81835 0.41510 0.79952
 C150 C 0.77914 0.42870 0.75632
 C151 C 0.79388 0.45697 0.75166
 N152 N 0.82028 0.46351 0.76986
 H153 H 0.83785 0.53987 0.69448
 H154 H 0.79152 0.52486 0.79294
 H155 H 0.76340 0.57295 0.78612
 H156 H 0.81087 0.58816 0.68543
 H157 H 0.85356 0.44929 0.80779
 H158 H 0.82904 0.39906 0.81776
 H159 H 0.75894 0.42334 0.74031
 H160 H 0.78515 0.47309 0.73216
 C161 C 0.90673 0.47236 0.65982
 C162 C 0.90636 0.52898 0.85421
 C163 C 0.79199 0.40693 0.77961
 C164 C 0.78546 0.58498 0.73557
 C165 C 0.19288 0.41040 0.96999
 H166 H 0.19569 0.38636 0.96354
 C167 C 0.16487 0.42444 0.96370
 H168 H 0.14624 0.41089 0.95227
 C169 C 0.21352 0.45643 0.99486
 H170 H 0.23231 0.46842 1.00804
 C171 C 0.18565 0.47133 0.98949
 H172 H 0.18332 0.49490 0.99835
 N173 N 0.21638 0.42639 0.98550
 C174 C 0.30166 0.42489 1.04034
 H175 H 0.29522 0.40748 1.05961
 C176 C 0.32941 0.44087 1.04458
 H177 H 0.34389 0.43583 1.06754
 C178 C 0.29202 0.45056 0.98528
 H179 H 0.27778 0.45332 0.96159
 C180 C 0.31937 0.46712 0.98854
 H181 H 0.32581 0.48279 0.96723
 Zn182 Zn 0.25103 0.40357 0.99825
 N183 N 0.28400 0.42960 1.01063
 C184 C 0.25682 0.38933 0.92472
 N185 N 0.26467 0.38025 0.95849
 C186 C 0.28373 0.35614 0.96383
 C187 C 0.29325 0.33827 0.93464
 C188 C 0.26656 0.37272 0.89476
 C189 C 0.23274 0.39248 1.06900
 C190 C 0.22377 0.37537 1.09895
 C191 C 0.22530 0.32955 1.06214
 C192 C 0.23422 0.34758 1.03287
 N193 N 0.23879 0.37831 1.03712
 H194 H 0.24281 0.40939 0.92100
 H195 H 0.29084 0.35028 0.99089
 H196 H 0.30706 0.31816 0.93936
 H197 H 0.25907 0.37967 0.86817
 H198 H 0.23550 0.41711 1.07131
 H199 H 0.22022 0.38707 1.12439
 H200 H 0.22284 0.30499 1.05844
 H201 H 0.23744 0.33693 1.00683
 C202 C 0.33899 0.46160 1.01785
 C203 C 0.16070 0.45507 0.97438
 C204 C 0.22064 0.34333 1.09597
 C205 C 0.28426 0.34634 0.89965
 C206 C 0.79409 0.04800 1.01368
 H207 H 0.77878 0.04278 1.03576
 C208 C 0.82157 0.03212 1.01018
 H209 H 0.82684 0.01451 1.02969
 C210 C 0.80642 0.07896 0.96333
 H211 H 0.80106 0.09816 0.94619
 C212 C 0.83416 0.06376 0.95884
 H213 H 0.84943 0.07129 0.93759
 N214 N 0.78730 0.07118 0.99073
 C215 C 0.69763 0.08957 1.03445
 H216 H 0.70215 0.11285 1.04334
 C217 C 0.66887 0.07632 1.04015
 H218 H 0.65154 0.08961 1.05383
 C219 C 0.71429 0.04514 1.00335
 H220 H 0.73176 0.03368 0.98781
 C221 C 0.68566 0.03104 1.00820
 H222 H 0.68146 0.00855 0.99657
 Zn223 Zn 0.75428 0.09685 1.00244
 N224 N 0.71947 0.07405 1.01602
 C225 C 0.73907 0.10501 0.93000
 N226 N 0.74166 0.12015 0.96203
 C227 C 0.73285 0.14988 0.96530
 C228 C 0.72349 0.16626 0.93495
 C229 C 0.72986 0.12046 0.89898
 C230 C 0.76461 0.10923 1.07525
 C231 C 0.77314 0.12612 1.10575
 C232 C 0.78984 0.16733 1.06692
 C233 C 0.78142 0.14936 1.03706
 N234 N 0.76775 0.12146 1.04180
 H235 H 0.74477 0.08095 0.92843
 H236 H 0.73300 0.16097 0.99141
 H237 H 0.71770 0.19023 0.93795
 H238 H 0.72923 0.10817 0.87353
 H239 H 0.75480 0.08650 1.07828
 H240 H 0.76915 0.11631 1.13211
 H241 H 0.79933 0.19008 1.06271
 H242 H 0.78533 0.15794 1.01014
 C243 C 0.66224 0.04706 1.02595
 C244 C 0.84266 0.04067 0.98326
 C245 C 0.78503 0.15600 1.10188
 C246 C 0.72267 0.15176 0.90100
 C247 C 0.28709 0.54782 0.45779
 H248 H 0.26673 0.54521 0.44124
 C249 C 0.31366 0.53142 0.44928
 H250 H 0.31378 0.51591 0.42639
 C251 C 0.31278 0.57241 0.50665
 H252 H 0.31307 0.58906 0.52820
 C253 C 0.33953 0.55671 0.49912
 H254 H 0.35987 0.56102 0.51537
 N255 N 0.28713 0.56774 0.48625
 C256 C 0.19504 0.58712 0.52390
 H257 H 0.19922 0.61108 0.53006
 C258 C 0.16639 0.57413 0.53074
 H259 H 0.14870 0.58841 0.54219
 C260 C 0.21297 0.54010 0.49997
 H261 H 0.23117 0.52708 0.48774
 C262 C 0.18433 0.52622 0.50585
 H263 H 0.18069 0.50252 0.49791
 Zn264 Zn 0.25305 0.59284 0.49670
 N265 N 0.21742 0.57026 0.50824
 C266 C 0.21683 0.61688 0.43941
 N267 N 0.24480 0.61743 0.45600
 C268 C 0.26783 0.63600 0.44421
 C269 C 0.26257 0.65662 0.41639
 C270 C 0.21083 0.63662 0.41060
 C271 C 0.26640 0.60355 0.56958
 C272 C 0.27433 0.62036 0.60042
 C273 C 0.27430 0.66646 0.56454
 C274 C 0.26627 0.64879 0.53445
 N275 N 0.26280 0.61786 0.53734
 H276 H 0.19901 0.60145 0.44871
 H277 H 0.29004 0.63544 0.45732
 H278 H 0.28098 0.67184 0.40797
 H279 H 0.18842 0.63636 0.39786
 H280 H 0.26326 0.57894 0.57121
 H281 H 0.27674 0.60851 0.62585
 H282 H 0.27649 0.69109 0.56163
 H283 H 0.26252 0.66001 0.50900
 C284 C 0.16045 0.54352 0.52082
 C285 C 0.34014 0.53620 0.47015
 C286 C 0.27826 0.65231 0.59816
 C287 C 0.23369 0.65731 0.39957
 C288 C 0.71136 0.95480 0.50468
 H289 H 0.72928 0.96624 0.52003
 C290 C 0.68254 0.96827 0.50162
 H291 H 0.67861 0.99033 0.51421
 C292 C 0.69375 0.91087 0.47244
 H293 H 0.69801 0.88794 0.46252
 C294 C 0.66488 0.92367 0.46815
 H295 H 0.64708 0.91041 0.45461
 N296 N 0.71620 0.92645 0.49051
 C297 C 0.80026 0.92222 0.54756
 H298 H 0.79408 0.90222 0.56317
 C299 C 0.82734 0.93828 0.55553
 H300 H 0.84168 0.93061 0.57755
 C301 C 0.79071 0.95462 0.49767
 H302 H 0.77689 0.95998 0.47428
 C303 C 0.81732 0.97156 0.50494
 H304 H 0.82376 0.98996 0.48688
 Zn305 Zn 0.75162 0.90423 0.50126
 N306 N 0.78308 0.93016 0.51847
 C307 C 0.75797 0.89549 0.42645
 N308 N 0.76682 0.88484 0.45923
 C309 C 0.78711 0.86145 0.46209
 C310 C 0.79670 0.84566 0.43127
 C311 C 0.76751 0.88088 0.39498
 C312 C 0.73020 0.88804 0.56879
 C313 C 0.72062 0.86907 0.59686
 C314 C 0.72845 0.82517 0.55808
 C315 C 0.73772 0.84504 0.53066
 N316 N 0.73936 0.87579 0.53686
 H317 H 0.74305 0.91508 0.42468
 H318 H 0.79496 0.85432 0.48842
 H319 H 0.81142 0.82595 0.43413
 H320 H 0.75898 0.88896 0.36930
 H321 H 0.73089 0.91265 0.57262
 H322 H 0.71454 0.87935 0.62246
 H323 H 0.72826 0.80069 0.55298
 H324 H 0.74355 0.83580 0.50454
 C325 C 0.83666 0.96264 0.53329
 C326 C 0.65876 0.95235 0.48370
 C327 C 0.72033 0.83711 0.59197
 C328 C 0.78621 0.85490 0.39722
 C329 C 0.01266 0.29006 0.43701
 H330 H 0.03167 0.27503 0.44263
 C331 C 0.00935 0.31722 0.45699
 H332 H 0.02593 0.32274 0.47791
 C333 C -0.03095 0.30190 0.40171
 H334 H -0.04628 0.29636 0.37961
 C335 C -0.03508 0.32918 0.42092
 H336 H -0.05377 0.34403 0.41334
 N337 N -0.00699 0.28320 0.40940
 C338 C 0.01534 0.18725 0.38410
 H339 H 0.01817 0.18924 0.35536
 C340 C 0.01954 0.15882 0.40029
 H341 H 0.02585 0.13967 0.38326
 C342 C 0.00253 0.20967 0.44017
 H343 H -0.00471 0.22943 0.45551
 C344 C 0.00608 0.18135 0.45757
 H345 H 0.00172 0.17994 0.48625
 Zn346 Zn -0.00024 0.24900 0.37764
 N347 N 0.00702 0.21206 0.40393
 C348 C 0.03983 0.23986 0.31732
 N349 N 0.03436 0.25739 0.34714
 C350 C 0.05456 0.27979 0.35740
 C351 C 0.08226 0.28380 0.33918
 C352 C 0.06732 0.24321 0.29811
 C353 C -0.06048 0.23009 0.36824
 C354 C -0.08919 0.22686 0.35191
 C355 C -0.06827 0.24896 0.29758
 C356 C -0.03976 0.25179 0.31507
 N357 N -0.03655 0.24265 0.34994
 H358 H 0.02322 0.22272 0.30879
 H359 H 0.04989 0.29395 0.38060
 H360 H 0.09838 0.30107 0.34885
 H361 H 0.07176 0.22819 0.27543
 H362 H -0.05741 0.22328 0.39602
 H363 H -0.10794 0.21732 0.36748
 H364 H -0.07066 0.25713 0.27020
 H365 H -0.02058 0.26226 0.30120
 C366 C 0.01441 0.15520 0.43751
 C367 C -0.01439 0.33761 0.44845
 C368 C -0.09362 0.23681 0.31630
 C369 C 0.08941 0.26478 0.30975
 C370 C 0.00558 0.71325 0.06543
 H371 H 0.01661 0.73216 0.05164
 C372 C 0.00223 0.68476 0.04796
 H373 H 0.01066 0.68208 0.02071
 C374 C -0.01744 0.69332 0.11824
 H375 H -0.02466 0.69669 0.14584
 C376 C -0.02126 0.66466 0.10191
 H377 H -0.03160 0.64627 0.11735
 N378 N -0.00399 0.71685 0.10011
 C379 C -0.00697 0.79285 0.06692
 H380 H -0.02472 0.77654 0.05945
 C381 C -0.00319 0.81960 0.04659
 H382 H -0.01864 0.82376 0.02426
 C383 C 0.03465 0.80715 0.10471
 H384 H 0.04942 0.80251 0.12736
 C385 C 0.03924 0.83414 0.08514
 H386 H 0.05738 0.84983 0.09343
 Zn387 Zn 0.00214 0.75350 0.12742
 N388 N 0.01114 0.78756 0.09624
 C389 C 0.04326 0.76832 0.18587
 N390 N 0.03574 0.74719 0.16004
 C391 C 0.05336 0.72196 0.15486
 C392 C 0.08036 0.71802 0.17463
 C393 C 0.07025 0.76534 0.20621
 C394 C -0.06039 0.76631 0.13225
 C395 C -0.08917 0.76996 0.14782
 C396 C -0.06632 0.76208 0.20637
 C397 C -0.03768 0.75895 0.18947
 N398 N -0.03527 0.76093 0.15293
 H399 H 0.02899 0.78824 0.18961
 H400 H 0.04725 0.70539 0.13425
 H401 H 0.09444 0.69828 0.16889
 H402 H 0.07643 0.78311 0.22547
 H403 H -0.05840 0.76695 0.10333
 H404 H -0.10844 0.77387 0.12995
 H405 H -0.06754 0.75975 0.23540
 H406 H -0.01764 0.75400 0.20557
 C407 C 0.01960 0.84117 0.05627
 C408 C -0.01098 0.65984 0.06646
 C409 C -0.09291 0.76732 0.18548
 C410 C 0.08967 0.74029 0.20002
 C411 C 0.51561 0.20077 0.56910
 H412 H 0.53558 0.21530 0.56507
 C413 C 0.51230 0.17342 0.54939
 H414 H 0.52994 0.16715 0.53032
 C415 C 0.46920 0.19071 0.60008
 H416 H 0.45280 0.19700 0.62052
 C417 C 0.46502 0.16323 0.58107
 H418 H 0.44521 0.14897 0.58706
 N419 N 0.49432 0.20877 0.59411
 C420 C 0.51177 0.30596 0.61535
 H421 H 0.51389 0.30427 0.64435
 C422 C 0.51502 0.33437 0.59874
 H423 H 0.51956 0.35434 0.61547
 C424 C 0.50273 0.28165 0.55899
 H425 H 0.49761 0.26101 0.54375
 C426 C 0.50555 0.30990 0.54114
 H427 H 0.50262 0.31070 0.51216
 Zn428 Zn 0.50122 0.24415 0.62363
 N429 N 0.50582 0.28031 0.59552
 C430 C 0.56374 0.25153 0.63498
 N431 N 0.53847 0.23848 0.65022
 C432 C 0.54099 0.22123 0.68067
 C433 C 0.56960 0.21803 0.69789
 C434 C 0.59258 0.24825 0.65061
 C435 C 0.44085 0.25823 0.63290
 C436 C 0.41267 0.26331 0.64930
 C437 C 0.43634 0.25440 0.70720
 C438 C 0.46444 0.24988 0.68955
 N439 N 0.46595 0.25108 0.65287
 H440 H 0.56170 0.26410 0.61008
 H441 H 0.52103 0.20962 0.69143
 H442 H 0.57134 0.20445 0.72217
 H443 H 0.61224 0.25893 0.63778
 H444 H 0.44270 0.25948 0.60385
 H445 H 0.39307 0.26829 0.63238
 H446 H 0.43531 0.25265 0.73628
 H447 H 0.48474 0.24527 0.70526
 C448 C 0.51170 0.33680 0.56115
 C449 C 0.48697 0.15393 0.55571
 C450 C 0.40989 0.26093 0.68690
 C451 C 0.59584 0.23153 0.68257
 C452 C 0.50086 0.79110 0.93656
 H453 H 0.51057 0.77234 0.95161
 C454 C 0.49804 0.82006 0.95287
 H455 H 0.50555 0.82325 0.98051
 C456 C 0.48056 0.81012 0.88183
 H457 H 0.47417 0.80617 0.85396
 C458 C 0.47735 0.83924 0.89696
 H459 H 0.46831 0.85742 0.88036
 N460 N 0.49246 0.78684 0.90146
 C461 C 0.53178 0.69807 0.90071
 H462 H 0.54697 0.70341 0.87868
 C463 C 0.53690 0.67157 0.92085
 H464 H 0.55583 0.65691 0.91357
 C465 C 0.48874 0.71023 0.93646
 H466 H 0.47024 0.72553 0.94298
 C467 C 0.49303 0.68391 0.95734
 H468 H 0.47720 0.67904 0.97906
 Zn469 Zn 0.49810 0.74951 0.87558
 N470 N 0.50732 0.71630 0.90783
 C471 C 0.53859 0.73373 0.81753
 N472 N 0.53162 0.75538 0.84275
 C473 C 0.54982 0.78067 0.84732
 C474 C 0.57676 0.78429 0.82741
 C475 C 0.56542 0.73644 0.79698
 C476 C 0.43506 0.73639 0.87084
 C477 C 0.40632 0.73175 0.85496
 C478 C 0.42962 0.73730 0.79645
 C479 C 0.45820 0.74148 0.81356
 N480 N 0.46043 0.74097 0.85025
 H481 H 0.52400 0.71365 0.81446
 H482 H 0.54424 0.79758 0.86759
 H483 H 0.59129 0.80413 0.83261
 H484 H 0.57109 0.71834 0.77814
 H485 H 0.43684 0.73720 0.89980
 H486 H 0.38661 0.72862 0.87230
 H487 H 0.42825 0.73834 0.76733
 H488 H 0.47833 0.74602 0.79747
 C489 C 0.51684 0.66362 0.94895
 C490 C 0.48657 0.84476 0.93280
 C491 C 0.40312 0.73245 0.81727
 C492 C 0.58536 0.76164 0.80245
 C493 C -0.23012 0.65398 0.97404
 H494 H -0.23277 0.66394 1.00053
 C495 C -0.22280 0.67292 0.94501
 H496 H -0.22098 0.69746 0.94934
 C497 C -0.22849 0.61000 0.93638
 H498 H -0.23090 0.58540 0.93330
 C499 C -0.22088 0.62803 0.90665
 H500 H -0.21798 0.61709 0.88063
 N501 N -0.23426 0.62330 0.96887
 C502 C -0.25577 0.60716 1.08037
 H503 H -0.24335 0.58595 1.08300
 C504 C -0.26564 0.62255 1.11116
 H505 H -0.25985 0.61309 1.13724
 C506 C -0.27869 0.64438 1.04295
 H507 H -0.28461 0.65213 1.01619
 C508 C -0.28802 0.66124 1.07305
 H509 H -0.30029 0.68243 1.06897
 Zn510 Zn -0.24686 0.59698 1.00662
 N511 N -0.26130 0.61890 1.04715
 C512 C -0.18957 0.58935 1.03696
 N513 N -0.21233 0.57395 1.01926
 C514 C -0.20876 0.54451 1.00787
 C515 C -0.18086 0.52969 1.01333
 C516 C -0.16153 0.57536 1.04335
 C517 C -0.29738 0.57872 0.96331
 C518 C -0.32555 0.56384 0.95793
 C519 C -0.31575 0.53340 1.01101
 C520 C -0.28792 0.54896 1.01546
 N521 N -0.27962 0.57150 0.99219
 H522 H -0.19293 0.61295 1.04507
 H523 H -0.22699 0.53304 0.99305
 H524 H -0.17796 0.50668 1.00286
 H525 H -0.14345 0.58848 1.05654
 H526 H -0.29077 0.59741 0.94585
 H527 H -0.34009 0.57095 0.93584
 H528 H -0.32251 0.51652 1.03086
 H529 H -0.27365 0.54427 1.03867
 C530 C -0.28072 0.65085 1.10787
 C531 C -0.21900 0.66006 0.91054
 C532 C -0.33551 0.54163 0.98275
 C533 C -0.15658 0.54543 1.03059
 C534 C -0.22960 0.34818 0.53619
 H535 H -0.22906 0.33892 0.50911
 C536 C -0.21949 0.33126 0.56374
 H537 H -0.21152 0.30822 0.55854
 C538 C -0.23826 0.39155 0.57407
 H539 H -0.24530 0.41506 0.57781
 C540 C -0.22716 0.37389 0.60523
 H541 H -0.22755 0.38481 0.63153
 N542 N -0.24055 0.37877 0.54238
 C543 C -0.26846 0.39475 0.43122
 H544 H -0.26036 0.41821 0.42914
 C545 C -0.27768 0.37882 0.40024
 H546 H -0.27590 0.39011 0.37438
 C547 C -0.28046 0.35184 0.46762
 H548 H -0.28238 0.34179 0.49410
 C549 C -0.28970 0.33492 0.43728
 H550 H -0.29765 0.31150 0.44068
 Zn551 Zn -0.25450 0.40375 0.50412
 N552 N -0.26862 0.38065 0.46383
 C553 C -0.20056 0.41750 0.46660
 N554 N -0.22054 0.42840 0.49151
 C555 C -0.21355 0.45340 0.51212
 C556 C -0.18512 0.46810 0.50860
 C557 C -0.17196 0.43155 0.46208
 C558 C -0.30930 0.41414 0.54039
 C559 C -0.33776 0.42780 0.54552
 C560 C -0.32132 0.46961 0.50731
 C561 C -0.29318 0.45503 0.50286
 N562 N -0.28797 0.42759 0.51885
 H563 H -0.20610 0.39681 0.45165
 H564 H -0.22940 0.46092 0.53263
 H565 H -0.17955 0.48723 0.52625
 H566 H -0.15600 0.42173 0.44304
 H567 H -0.30484 0.39189 0.55197
 H568 H -0.35471 0.41585 0.56165
 H569 H -0.32529 0.49081 0.49301
 H570 H -0.27617 0.46477 0.48496
 C571 C -0.28750 0.34811 0.40287
 C572 C -0.21911 0.34430 0.60090
 C573 C -0.34464 0.45535 0.52767
 C574 C -0.16355 0.45662 0.48404
 C575 C 0.26475 -0.15115 0.02377
 H576 H 0.25986 -0.16129 -0.00227
 C577 C 0.27218 -0.16920 0.05142
 H578 H 0.27259 -0.19381 0.04734
 C579 C 0.27280 -0.10556 0.05852
 H580 H 0.27267 -0.08084 0.06108
 C581 C 0.28128 -0.12452 0.08978
 H582 H 0.28653 -0.11300 0.11504
 N583 N 0.26381 -0.11842 0.02849
 C584 C 0.24352 -0.10750 -0.08265
 H585 H 0.25895 -0.08835 -0.08718
 C586 C 0.23271 -0.12474 -0.11188
 H587 H 0.24074 -0.11922 -0.13871
 C588 C 0.21437 -0.13795 -0.04227
 H589 H 0.20701 -0.14261 -0.01499
 C590 C 0.20379 -0.15649 -0.07063
 H591 H 0.18881 -0.17587 -0.06506
 Zn592 Zn 0.25109 -0.09228 -0.00913
 N593 N 0.23510 -0.11503 -0.04855
 C594 C 0.30884 -0.08596 -0.03857
 N595 N 0.28610 -0.06964 -0.02284
 C596 C 0.29010 -0.03960 -0.01376
 C597 C 0.31836 -0.02504 -0.01967
 C598 C 0.33723 -0.07229 -0.04532
 C599 C 0.20220 -0.07371 0.03542
 C600 C 0.17440 -0.05894 0.04147
 C601 C 0.18348 -0.02851 -0.01188
 C602 C 0.21078 -0.04420 -0.01716
 N603 N 0.21927 -0.06663 0.00596
 H604 H 0.30517 -0.11001 -0.04475
 H605 H 0.27198 -0.02734 -0.00029
 H606 H 0.32157 -0.00147 -0.01099
 H607 H 0.35524 -0.08611 -0.05686
 H608 H 0.20904 -0.09222 0.05289
 H609 H 0.16047 -0.06607 0.06413
 H610 H 0.17681 -0.01159 -0.03163
 H611 H 0.22448 -0.03962 -0.04085
 C612 C 0.21343 -0.15020 -0.10586
 C613 C 0.27976 -0.15537 0.08715
 C614 C 0.16406 -0.03680 0.01682
 C615 C 0.34258 -0.04166 -0.03494
 C616 C 0.28588 1.11473 0.44092
 H617 H 0.30091 1.09610 0.44778
 C618 C 0.29451 1.13522 0.41372
 H619 H 0.31589 1.13203 0.39946
 C620 C 0.23965 1.14172 0.45056
 H621 H 0.21827 1.14412 0.46499
 C622 C 0.24784 1.16318 0.42461
 H623 H 0.23230 1.18175 0.41870
 N624 N 0.25878 1.11830 0.45866
 C625 C 0.22184 1.10336 0.56667
 H626 H 0.21645 1.07914 0.56656
 C627 C 0.21388 1.12131 0.59656
 H628 H 0.20264 1.11065 0.61936
 C629 C 0.24418 1.14655 0.53808
 H630 H 0.25717 1.15626 0.51614
 C631 C 0.23607 1.16537 0.56686
 H632 H 0.24282 1.18935 0.56629
 Zn633 Zn 0.24709 1.09195 0.49706
 N634 N 0.23659 1.11621 0.53805
 C635 C 0.29876 1.07426 0.53684
 N636 N 0.28039 1.06673 0.50840
 C637 C 0.28753 1.04352 0.48543
 C638 C 0.31515 1.02800 0.48938
 C639 C 0.32660 1.05934 0.54181
 C640 C 0.19503 1.07550 0.45481
 C641 C 0.16717 1.06037 0.44830
 C642 C 0.17783 1.02700 0.49853
 C643 C 0.20536 1.04298 0.50428
 N644 N 0.21283 1.06746 0.48338
 H645 H 0.29262 1.09298 0.55454
 H646 H 0.27250 1.03823 0.46291
 H647 H 0.32107 1.01056 0.46979
 H648 H 0.34157 1.06665 0.56365
 H649 H 0.20161 1.09448 0.43789
 H650 H 0.15256 1.06816 0.42659
 H651 H 0.17156 1.00863 0.51670
 H652 H 0.22026 1.03657 0.52631
 C653 C 0.22088 1.15281 0.59672
 C654 C 0.27553 1.16005 0.40587
 C655 C 0.15779 1.03648 0.47111
 C656 C 0.33558 1.03659 0.51715
 C657 C 0.20516 0.46714 0.27701
 H658 H 0.21996 0.48693 0.27905
 C659 C 0.21775 0.43797 0.28167
 H660 H 0.24228 0.43570 0.28532
 C661 C 0.15529 0.44556 0.27209
 H662 H 0.13093 0.44852 0.26834
 C663 C 0.16664 0.41635 0.27723
 H664 H 0.15059 0.39722 0.27712
 N665 N 0.17460 0.47009 0.26987
 C666 C 0.15917 0.56400 0.23139
 H667 H 0.13446 0.56209 0.23248
 C668 C 0.17283 0.59224 0.22406
 H669 H 0.15846 0.61207 0.21999
 C670 C 0.20783 0.54065 0.23600
 H671 H 0.22149 0.52045 0.23854
 C672 C 0.22254 0.56880 0.23007
 H673 H 0.24738 0.57018 0.22993
 Zn674 Zn 0.15278 0.50500 0.25381
 N675 N 0.17667 0.53914 0.23865
 C676 C 0.13959 0.51612 0.32605
 N677 N 0.12775 0.51861 0.29226
 C678 C 0.09943 0.53064 0.28665
 C679 C 0.08082 0.53824 0.31590
 C680 C 0.12207 0.52407 0.35600
 C681 C 0.14293 0.49029 0.18141
 C682 C 0.12692 0.48058 0.15068
 C683 C 0.08221 0.47175 0.18774
 C684 C 0.09925 0.48135 0.21774
 N685 N 0.12871 0.49143 0.21390
 H686 H 0.16245 0.50720 0.32978
 H687 H 0.09090 0.53371 0.25953
 H688 H 0.05778 0.54637 0.31105
 H689 H 0.13150 0.52063 0.38272
 H690 H 0.16672 0.49738 0.17928
 H691 H 0.13883 0.48089 0.12509
 H692 H 0.05852 0.46481 0.19172
 H693 H 0.08884 0.48065 0.24411
 C694 C 0.20484 0.59502 0.22478
 C695 C 0.19841 0.41204 0.28021
 C696 C 0.09562 0.47213 0.15318
 C697 C 0.09192 0.53437 0.35111
 C698 C -0.20700 1.03988 0.27707
 H699 H -0.21752 1.01923 0.28734
 C700 C -0.22156 1.06811 0.28249
 H701 H -0.24366 1.06888 0.29569
 C702 C -0.16456 1.06500 0.24999
 H703 H -0.14205 1.06418 0.23808
 C704 C -0.17770 1.09342 0.25585
 H705 H -0.16544 1.11393 0.24753
 N706 N -0.17941 1.03874 0.25981
 C707 C -0.16302 0.94667 0.21575
 H708 H -0.13882 0.95064 0.21120
 C709 C -0.17584 0.91812 0.20748
 H710 H -0.16114 0.90040 0.19683
 C711 C -0.21088 0.96469 0.23651
 H712 H -0.22457 0.98265 0.24789
 C713 C -0.22465 0.93621 0.22904
 H714 H -0.24868 0.93271 0.23532
 Zn715 Zn -0.15664 1.00243 0.24971
 N716 N -0.18021 0.96889 0.23138
 C717 C -0.14402 1.00185 0.32438
 N718 N -0.13645 0.98896 0.29221
 C719 C -0.11488 0.96663 0.29019
 C720 C -0.09863 0.95784 0.32097
 C721 C -0.12899 0.99313 0.35592
 C722 C -0.13950 1.02081 0.18110
 C723 C -0.12016 1.02903 0.15280
 C724 C -0.07662 1.02108 0.19212
 C725 C -0.09690 1.01366 0.21991
 N726 N -0.12766 1.01294 0.21368
 H727 H -0.16142 1.01928 0.32560
 H728 H -0.10936 0.95642 0.26445
 H729 H -0.08058 0.94106 0.31864
 H730 H -0.13474 1.00441 0.38105
 H731 H -0.16411 1.02054 0.17713
 H732 H -0.13035 1.03456 0.12698
 H733 H -0.05219 1.02063 0.19756
 H734 H -0.08796 1.00842 0.24633
 C735 C -0.20672 0.91210 0.21572
 C736 C -0.20662 1.09518 0.27181
 C737 C -0.08811 1.02841 0.15769
 C738 C -0.10544 0.97140 0.35430
 C739 C 0.32426 0.54947 -0.21187
 H740 H 0.34236 0.54259 -0.19386
 C741 C 0.30850 0.57645 -0.20457
 H742 H 0.31503 0.59014 -0.18127
 C743 C 0.29424 0.54064 -0.26432
 H744 H 0.28877 0.52656 -0.28757
 C745 C 0.27763 0.56731 -0.25784
 H746 H 0.25996 0.57389 -0.27680
 N747 N 0.31790 0.53292 -0.24226
 C748 C 0.33496 0.44221 -0.28936
 H749 H 0.35669 0.44744 -0.30208
 C750 C 0.32191 0.41464 -0.29395
 H751 H 0.33333 0.39785 -0.31066
 C752 C 0.29418 0.45964 -0.25187
 H753 H 0.28437 0.47672 -0.23424
 C754 C 0.27885 0.42946 -0.25616
 H755 H 0.25766 0.42534 -0.24168
 Zn756 Zn 0.34391 0.50019 -0.25587
 N757 N 0.32066 0.46480 -0.26692
 C758 C 0.36769 0.46441 -0.19802
 N759 N 0.37080 0.49100 -0.21692
 C760 C 0.39283 0.51205 -0.20815
 C761 C 0.41338 0.50644 -0.18024
 C762 C 0.38730 0.45828 -0.16895
 C763 C 0.35231 0.52101 -0.32794
 C764 C 0.36891 0.52876 -0.35892
 C765 C 0.41566 0.51757 -0.32677
 C766 C 0.39822 0.50943 -0.29683
 N767 N 0.36709 0.51164 -0.29754
 H768 H 0.34977 0.44811 -0.20511
 H769 H 0.39448 0.53328 -0.22304
 H770 H 0.43072 0.52361 -0.17378
 H771 H 0.38440 0.43730 -0.15375
 H772 H 0.32759 0.52187 -0.32855
 H773 H 0.35672 0.53547 -0.38308
 H774 H 0.44033 0.51495 -0.32558
 H775 H 0.40977 0.50041 -0.27350
 C776 C 0.29262 0.40711 -0.27530
 C777 C 0.28559 0.58621 -0.22840
 C778 C 0.40105 0.52711 -0.35850
 C779 C 0.41069 0.47936 -0.16017
 C780 C 0.70683 -0.04163 -0.25928
 H781 H 0.71526 -0.02543 -0.27900
 C782 C 0.71995 -0.06908 -0.25626
 H783 H 0.73924 -0.07456 -0.27338
 C784 C 0.66980 -0.05319 -0.21392
 H785 H 0.64877 -0.04802 -0.19988
 C786 C 0.68399 -0.08338 -0.20895
 H787 H 0.67352 -0.09901 -0.18987
 N788 N 0.68072 -0.03405 -0.23755
 C789 C 0.66870 0.05194 -0.29214
 H790 H 0.64624 0.04726 -0.30351
 C791 C 0.68347 0.07981 -0.29924
 H792 H 0.67216 0.09608 -0.31665
 C793 C 0.70904 0.03732 -0.25300
 H794 H 0.71808 0.02127 -0.23362
 C795 C 0.72477 0.06472 -0.25957
 H796 H 0.74617 0.06905 -0.24540
 Zn797 Zn 0.65677 -0.00018 -0.25061
 N798 N 0.68134 0.03174 -0.26877
 C799 C 0.64719 0.01326 -0.17679
 N800 N 0.63571 0.01666 -0.21065
 C801 C 0.60997 0.03333 -0.21665
 C802 C 0.59264 0.04407 -0.18769
 C803 C 0.63094 0.02411 -0.14708
 C804 C 0.64035 -0.02035 -0.31966
 C805 C 0.62092 -0.03060 -0.34729
 C806 C 0.57889 -0.03109 -0.30496
 C807 C 0.59924 -0.02128 -0.27803
 N808 N 0.62905 -0.01492 -0.28614
 H809 H 0.66862 0.00147 -0.17275
 H810 H 0.60224 0.03730 -0.24396
 H811 H 0.57120 0.05559 -0.19291
 H812 H 0.63968 0.01964 -0.12026
 H813 H 0.66437 -0.01596 -0.32511
 H814 H 0.63011 -0.03341 -0.37419
 H815 H 0.55494 -0.03475 -0.29837
 H816 H 0.59107 -0.01849 -0.25076
 C817 C 0.71132 0.08714 -0.28162
 C818 C 0.70735 -0.09191 -0.23040
 C819 C 0.58954 -0.03521 -0.34030
 C820 C 0.60264 0.03863 -0.15232
 C821 C 0.04415 0.25650 0.81924
 H822 H 0.02790 0.27354 0.81062
 C823 C 0.07151 0.25283 0.80001
 H824 H 0.07615 0.26754 0.77719
 C825 C 0.05800 0.21698 0.85940
 H826 H 0.05297 0.20300 0.88257
 C827 C 0.08566 0.21271 0.84119
 H828 H 0.10141 0.19553 0.85086
 N829 N 0.03821 0.23925 0.84902
 C830 C -0.05620 0.26778 0.86720
 H831 H -0.05330 0.27529 0.89486
 C832 C -0.08429 0.27185 0.84986
 H833 H -0.10270 0.28262 0.86460
 C834 C -0.03570 0.24386 0.81525
 H835 H -0.01683 0.23242 0.80218
 C836 C -0.06364 0.24737 0.79681
 H837 H -0.06592 0.23864 0.76954
 Zn838 Zn 0.00314 0.24789 0.87860
 N839 N -0.03265 0.25385 0.84995
 C840 C 0.00619 0.28766 0.94121
 N841 N 0.01027 0.28518 0.90487
 C842 C 0.01763 0.31019 0.88486
 C843 C 0.02118 0.33893 0.90100
 C844 C 0.00930 0.31624 0.95856
 C845 C -0.02907 0.19565 0.90341
 C846 C -0.03360 0.16864 0.92289
 C847 C 0.01153 0.18102 0.95817
 C848 C 0.01523 0.20786 0.93795
 N849 N -0.00453 0.21430 0.91054
 H850 H -0.00047 0.26775 0.95668
 H851 H 0.02002 0.30807 0.85604
 H852 H 0.02663 0.35837 0.88404
 H853 H 0.00533 0.31788 0.98731
 H854 H -0.04453 0.20098 0.88154
 H855 H -0.05269 0.15369 0.91571
 H856 H 0.02826 0.17577 0.97883
 H857 H 0.03465 0.22292 0.94315
 C858 C -0.08856 0.26122 0.81433
 C859 C 0.09313 0.23126 0.81157
 C860 C -0.01271 0.16054 0.95008
 C861 C 0.01665 0.34247 0.93829
 C862 C 0.45639 0.27216 0.17911
 H863 H 0.47112 0.29216 0.18196
 C864 C 0.42977 0.26962 0.20003
 H865 H 0.42436 0.28781 0.21887
 C866 C 0.44489 0.22502 0.14989
 H867 H 0.45041 0.20792 0.12981
 C868 C 0.41815 0.22154 0.17025
 H869 H 0.40361 0.20162 0.16552
 N870 N 0.46314 0.25032 0.15405
 C871 C 0.56022 0.26710 0.12803
 H872 H 0.55889 0.26667 0.09904
 C873 C 0.58880 0.27066 0.14457
 H874 H 0.60885 0.27344 0.12769
 C875 C 0.53605 0.26195 0.18472
 H876 H 0.51555 0.25780 0.20030
 C877 C 0.56445 0.26503 0.20249
 H878 H 0.56535 0.26358 0.23161
 Zn879 Zn 0.49702 0.25590 0.12173
 N880 N 0.53442 0.26304 0.14801
 C881 C 0.50851 0.29588 0.06219
 N882 N 0.48921 0.28993 0.09019
 C883 C 0.46514 0.30875 0.09704
 C884 C 0.46121 0.33571 0.07734
 C885 C 0.50543 0.32262 0.04180
 C886 C 0.51473 0.19542 0.11335
 C887 C 0.51939 0.16716 0.09660
 C888 C 0.49888 0.18791 0.04139
 C889 C 0.49471 0.21601 0.05928
 N890 N 0.50248 0.21912 0.09472
 H891 H 0.52663 0.28012 0.05578
 H892 H 0.44935 0.30350 0.11851
 H893 H 0.44259 0.35082 0.08441
 H894 H 0.52182 0.32733 0.02060
 H895 H 0.52068 0.19846 0.14149
 H896 H 0.52890 0.14867 0.11234
 H897 H 0.49209 0.18567 0.01338
 H898 H 0.48480 0.23508 0.04500
 C899 C 0.59137 0.26937 0.18230
 C900 C 0.40984 0.24434 0.19521
 C901 C 0.51121 0.16290 0.06019
 C902 C 0.48208 0.34347 0.04998
 C903 C -0.04753 0.76194 0.68870
 H904 H -0.03198 0.78079 0.69482
 C905 C -0.07330 0.75829 0.70796
 H906 H -0.07813 0.77432 0.72955
 C907 C -0.05851 0.71793 0.65235
 H908 H -0.05345 0.70289 0.62996
 C909 C -0.08714 0.71295 0.67285
 H910 H -0.10200 0.69405 0.66478
 N911 N -0.04073 0.74145 0.65927
 C912 C 0.05454 0.76623 0.63308
 H913 H 0.05197 0.76944 0.60441
 C914 C 0.08343 0.76994 0.64886
 H915 H 0.10258 0.77629 0.63185
 C916 C 0.03289 0.75266 0.68930
 H917 H 0.01330 0.74507 0.70478
 C918 C 0.06160 0.75594 0.70626
 H919 H 0.06364 0.75113 0.73478
 Zn920 Zn -0.00724 0.74969 0.62717
 N921 N 0.02995 0.75760 0.65319
 C922 C -0.00019 0.79019 0.56711
 N923 N -0.01618 0.78480 0.59800
 C924 C -0.03665 0.80566 0.61048
 C925 C -0.04032 0.83375 0.59312
 C926 C -0.00338 0.81799 0.54864
 C927 C 0.01617 0.69181 0.61482
 C928 C 0.02130 0.66386 0.59761
 C929 C -0.00778 0.68169 0.54645
 C930 C -0.01221 0.70962 0.56469
 N931 N -0.00041 0.71401 0.59842
 H932 H 0.01578 0.77330 0.55729
 H933 H -0.04942 0.80118 0.63473
 H934 H -0.05597 0.85033 0.60443
 H935 H 0.01042 0.82224 0.52493
 H936 H 0.02500 0.69562 0.64178
 H937 H 0.03422 0.64656 0.61176
 H938 H -0.01791 0.67831 0.52001
 H939 H -0.02571 0.72742 0.55231
 C940 C 0.08748 0.76431 0.68585
 C941 C -0.09525 0.73294 0.69894
 C942 C 0.00895 0.65819 0.56312
 C943 C -0.02301 0.84060 0.56228
 C944 C 0.53906 0.75018 0.31045
 H945 H 0.51997 0.75925 0.29531
 C946 C 0.56794 0.74759 0.29411
 H947 H 0.57077 0.75475 0.26640
 C948 C 0.55888 0.73090 0.36530
 H949 H 0.55523 0.72471 0.39319
 C950 C 0.58795 0.72799 0.35016
 H951 H 0.60643 0.71945 0.36679
 N952 N 0.53524 0.74222 0.34563
 C953 C 0.44757 0.78192 0.34441
 H954 H 0.45378 0.79777 0.36569
 C955 C 0.42127 0.78749 0.32381
 H956 H 0.40756 0.80738 0.33006
 C957 C 0.45749 0.73691 0.31080
 H958 H 0.47175 0.71740 0.30533
 C959 C 0.43136 0.74163 0.28950
 H960 H 0.42566 0.72516 0.26852
 Zn961 Zn 0.49777 0.74703 0.37117
 N962 N 0.46459 0.75634 0.33857
 C963 C 0.48047 0.78711 0.42922
 N964 N 0.50300 0.78006 0.40527
 C965 C 0.52885 0.79775 0.40306
 C966 C 0.53228 0.82415 0.42426
 C967 C 0.48293 0.81346 0.45092
 C968 C 0.48892 0.68345 0.37361
 C969 C 0.48505 0.65431 0.38835
 C970 C 0.48390 0.67724 0.44762
 C971 C 0.48748 0.70620 0.43159
 N972 N 0.48983 0.70881 0.39506
 H973 H 0.45994 0.77298 0.43038
 H974 H 0.54645 0.79219 0.38374
 H975 H 0.55266 0.83827 0.42096
 H976 H 0.46418 0.81921 0.46871
 H977 H 0.49230 0.68561 0.34496
 H978 H 0.48484 0.63466 0.37038
 H979 H 0.48250 0.67562 0.47669
 H980 H 0.48914 0.72639 0.44850
 C981 C 0.41230 0.76674 0.29654
 C982 C 0.59300 0.73678 0.31423
 C983 C 0.48273 0.65074 0.42587
 C984 C 0.50883 0.83282 0.44802
 B985 B -0.01457 0.01571 1.03480
 B986 B -0.03231 0.00696 0.99568
 B987 B -0.00601 0.03546 0.99755
 B988 B 0.02223 0.02540 1.02632
 B989 B 0.01297 -0.01021 1.04228
 B990 B -0.02121 -0.02135 1.02343
 B991 B 0.02040 -0.01473 0.96932
 B992 B 0.03816 -0.00595 1.00840
 B993 B 0.01190 -0.03447 1.00663
 B994 B -0.01638 -0.02443 0.97783
 B995 B -0.00711 0.01122 0.96188
 B996 B 0.02702 0.02234 0.98069
 B997 B 0.47604 0.51097 0.51894
 B998 B 0.46302 0.49850 0.47880
 B999 B 0.48902 0.52722 0.48107
 B1000 B 0.51361 0.52030 0.51524
 B1001 B 0.50238 0.48634 0.53414
 B1002 B 0.47069 0.47301 0.51156
 B1003 B 0.51827 0.47500 0.46421
 B1004 B 0.53127 0.48753 0.50439
 B1005 B 0.50530 0.45881 0.50211
 B1006 B 0.48070 0.46568 0.46784
 B1007 B 0.49191 0.49967 0.44896
 B1008 B 0.52362 0.51297 0.47157
 B1009 B 0.51350 0.97725 0.53683
 B1010 B 0.53200 0.98475 0.49816
 B1011 B 0.50440 0.95743 0.49949
 B1012 B 0.47635 0.96921 0.52750
 B1013 B 0.48709 1.00458 0.54354
 B1014 B 0.52193 1.01386 0.52552
 B1015 B 0.48083 1.00857 0.47040
 B1016 B 0.46215 1.00115 0.50895
 B1017 B 0.48978 1.02835 0.50779
 B1018 B 0.51782 1.01658 0.47983
 B1019 B 0.50711 0.98119 0.46383
 B1020 B 0.47226 0.97198 0.48173
 B1021 B 0.02221 0.48319 1.03218
 B1022 B 0.03666 0.49412 0.99236
 B1023 B 0.00987 0.46615 0.99419
 B1024 B -0.01547 0.47472 1.02695
 B1025 B -0.00387 0.50898 1.04534
 B1026 B 0.02880 0.52079 1.02394
 B1027 B -0.01741 0.51856 0.97435
 B1028 B -0.03191 0.50763 1.01415
 B1029 B -0.00510 0.53560 1.01236
 B1030 B 0.02024 0.52702 0.97960
 B1031 B 0.00866 0.49279 0.96127
 B1032 B -0.02402 0.48099 0.98259
 B1033 B 0.01663 0.51478 0.47356
 B1034 B 0.03394 0.50596 0.51257
 B1035 B 0.00701 0.53331 0.51146
 B1036 B -0.02051 0.52269 0.48163
 B1037 B -0.01021 0.48782 0.46436
 B1038 B 0.02390 0.47775 0.48350
 B1039 B -0.01861 0.48139 0.53698
 B1040 B -0.03599 0.49021 0.49793
 B1041 B -0.00910 0.46280 0.49909
 B1042 B 0.01852 0.47348 0.52884
 B1043 B 0.00828 0.50829 0.54598
 B1044 B -0.02586 0.51837 0.52698
 B1045 B 0.52215 0.02289 -0.03489
 B1046 B 0.53616 0.01204 0.00519
 B1047 B 0.50956 0.03964 0.00291
 B1048 B 0.48448 0.03073 -0.03050
 B1049 B 0.49603 -0.00330 -0.04877
 B1050 B 0.52841 -0.01464 -0.02669
 B1051 B 0.48178 -0.01321 0.02193
 B1052 B 0.46771 -0.00246 -0.01814
 B1053 B 0.49434 -0.03000 -0.01584
 B1054 B 0.51940 -0.02109 0.01747
 B1055 B 0.50787 0.01294 0.03571
 B1056 B 0.47547 0.02427 0.01366
 B1057 B 0.48354 0.48939 -0.03326
 B1058 B 0.46592 0.49673 0.00601
 B1059 B 0.49184 0.46854 0.00321
 B1060 B 0.52021 0.47977 -0.02485
 B1061 B 0.51140 0.51582 -0.03921
 B1062 B 0.47735 0.52601 -0.02027
 B1063 B 0.51895 0.51810 0.03380
 B1064 B 0.53651 0.51071 -0.00548
 B1065 B 0.51058 0.53894 -0.00263
 B1066 B 0.48222 0.52769 0.02547
 B1067 B 0.49110 0.49166 0.03990
 B1068 B 0.52509 0.48144 0.02089
 B1069 B -0.02513 0.98279 0.47393
 B1070 B -0.03715 0.99442 0.51471
 B1071 B -0.01253 0.96511 0.51107
 B1072 B 0.01202 0.97248 0.47697
 B1073 B 0.00218 1.00719 0.45952
 B1074 B -0.02863 1.02062 0.48289
 B1075 B 0.01922 1.01609 0.52982
 B1076 B 0.03130 1.00445 0.48910
 B1077 B 0.00667 1.03370 0.49264
 B1078 B -0.01787 1.02639 0.52678
 B1079 B -0.00804 0.99157 0.54427
 B1080 B 0.02279 0.97823 0.52090
 B1081 B 0.76648 0.23380 0.22247
 B1082 B 0.75439 0.21907 0.26173
 B1083 B 0.78265 0.24565 0.26118
 B1084 B 0.77521 0.27130 0.22853
 B1085 B 0.74135 0.26027 0.20880
 B1086 B 0.72862 0.22752 0.22934
 B1087 B 0.73007 0.27326 0.27967
 B1088 B 0.74221 0.28800 0.24043
 B1089 B 0.71389 0.26156 0.24090
 B1090 B 0.72132 0.23576 0.27359
 B1091 B 0.75524 0.24680 0.29330
 B1092 B 0.76792 0.27950 0.27279
 B1093 B 0.73066 0.76413 0.71750
 B1094 B 0.73870 0.78234 0.75652
 B1095 B 0.71070 0.75547 0.75466
 B1096 B 0.72164 0.72724 0.72629
 B1097 B 0.75725 0.73707 0.71063
 B1098 B 0.76750 0.77159 0.72921
 B1099 B 0.76129 0.73038 0.78365
 B1100 B 0.75318 0.71213 0.74471
 B1101 B 0.78118 0.73897 0.74649
 B1102 B 0.77027 0.76723 0.77486
 B1103 B 0.73467 0.75737 0.79058
 B1104 B 0.72442 0.72289 0.77201
 B1105 B 0.26946 0.26702 0.78028
 B1106 B 0.25843 0.28201 0.74076
 B1107 B 0.28667 0.25611 0.74212
 B1108 B 0.27833 0.22982 0.77399
 B1109 B 0.24386 0.23986 0.79237
 B1110 B 0.23180 0.27260 0.77178
 B1111 B 0.23462 0.22758 0.72077
 B1112 B 0.24567 0.21255 0.76028
 B1113 B 0.21735 0.23844 0.75894
 B1114 B 0.22578 0.26479 0.72710
 B1115 B 0.26014 0.25474 0.70881
 B1116 B 0.27225 0.22204 0.72928
 B1117 B 0.23832 0.73661 0.27873
 B1118 B 0.24403 0.71997 0.23841
 B1119 B 0.21638 0.74636 0.24349
 B1120 B 0.22911 0.77368 0.27240
 B1121 B 0.26541 0.76389 0.28505
 B1122 B 0.27435 0.73019 0.26418
 B1123 B 0.26557 0.77319 0.21237
 B1124 B 0.25969 0.78993 0.25264
 B1125 B 0.28736 0.76360 0.24770
 B1126 B 0.27469 0.73617 0.21873
 B1127 B 0.23835 0.74608 0.20594
 B1128 B 0.22944 0.77971 0.22682
 B1129 B 0.26333 0.72656 0.72201
 B1130 B 0.25108 0.71197 0.76125
 B1131 B 0.27979 0.73799 0.76071
 B1132 B 0.27267 0.76386 0.72807
 B1133 B 0.23856 0.75337 0.70845
 B1134 B 0.22540 0.72088 0.72898
 B1135 B 0.22766 0.76656 0.77926
 B1136 B 0.23997 0.78102 0.73995
 B1137 B 0.21124 0.75503 0.74062
 B1138 B 0.21832 0.72919 0.77328
 B1139 B 0.25242 0.73967 0.79292
 B1140 B 0.26560 0.77221 0.77232
 B1141 B 0.23312 0.27152 0.22225
 B1142 B 0.24115 0.28841 0.26195
 B1143 B 0.21465 0.26008 0.25959
 B1144 B 0.22615 0.23387 0.22907
 B1145 B 0.26088 0.24624 0.21284
 B1146 B 0.26983 0.28047 0.23316
 B1147 B 0.26717 0.23666 0.28522
 B1148 B 0.25892 0.21966 0.24550
 B1149 B 0.28566 0.24784 0.24802
 B1150 B 0.27407 0.27434 0.27837
 B1151 B 0.23949 0.26197 0.29451
 B1152 B 0.23044 0.22779 0.27436
 B1153 B 0.77008 0.77479 0.27846
 B1154 B 0.75836 0.78663 0.23776
 B1155 B 0.78654 0.76078 0.24123
 B1156 B 0.77871 0.73717 0.27608
 B1157 B 0.74466 0.74888 0.29407
 B1158 B 0.73229 0.77988 0.27030
 B1159 B 0.73398 0.73101 0.22442
 B1160 B 0.74568 0.71916 0.26512
 B1161 B 0.71751 0.74505 0.26159
 B1162 B 0.72536 0.76862 0.22677
 B1163 B 0.75932 0.75690 0.20881
 B1164 B 0.77176 0.72594 0.23258
 B1165 B 0.73616 0.22507 0.77633
 B1166 B 0.74759 0.21118 0.73632
 B1167 B 0.71916 0.23676 0.73832
 B1168 B 0.72702 0.26235 0.77148
 B1169 B 0.76139 0.25210 0.79001
 B1170 B 0.77392 0.21999 0.76824
 B1171 B 0.77119 0.26629 0.71929
 B1172 B 0.75969 0.28016 0.75927
 B1173 B 0.78821 0.25452 0.75728
 B1174 B 0.78031 0.22896 0.72405
 B1175 B 0.74604 0.23924 0.70559
 B1176 B 0.73344 0.27128 0.72735
 N1177 N 0.42108 1.03753 0.40542
 C1178 C 0.43311 1.02852 0.37335
 N1179 N 0.46214 1.01773 0.37270
 N1180 N 0.47797 1.01447 0.40306
 C1181 C 0.46542 1.02175 0.43537
 N1182 N 0.43696 1.03413 0.43594
 N1183 N -0.08643 0.53632 0.91807
 C1184 C -0.07457 0.53459 0.88427
 N1185 N -0.04355 0.53450 0.88068
 N1186 N -0.02534 0.53360 0.90950
 C1187 C -0.03730 0.53293 0.94321
 N1188 N -0.06817 0.53523 0.94692
 N1189 N 0.08406 -0.03970 0.90761
 C1190 C 0.07200 -0.03362 0.87459
 N1191 N 0.04191 -0.02613 0.87235
 N1192 N 0.02507 -0.02309 0.90198
 C1193 C 0.03753 -0.02763 0.93511
 N1194 N 0.06713 -0.03679 0.93727
 N1195 N 0.55007 0.45454 0.37375
 C1196 C 0.58075 0.45626 0.38016
 N1197 N 0.59071 0.45780 0.41482
 N1198 N 0.57079 0.45959 0.44181
 C1199 C 0.54014 0.46002 0.43536
 N1200 N 0.53015 0.45655 0.40083
 N1201 N 0.54216 0.52670 0.13093
 C1202 C 0.57215 0.53519 0.12856
 N1203 N 0.58356 0.54264 0.09566
 N1204 N 0.56612 0.54018 0.06618
 C1205 C 0.53662 0.53012 0.06839
 N1206 N 0.52481 0.52410 0.10145
 N1207 N 0.05047 1.03890 0.62067
 C1208 C 0.08117 1.03594 0.61570
 N1209 N 0.09176 1.03179 0.58169
 N1210 N 0.07236 1.02898 0.55408
 C1211 C 0.04161 1.03019 0.55922
 N1212 N 0.03105 1.03593 0.59298
 N1213 N -0.08340 0.45648 0.59723
 C1214 C -0.07236 0.46546 0.62996
 N1215 N -0.04243 0.47385 0.63291
 N1216 N -0.02463 0.47498 0.60394
 C1217 C -0.03602 0.46798 0.57076
 N1218 N -0.06554 0.45785 0.56811
 N1219 N 0.41283 -0.02966 0.07869
 C1220 C 0.42559 -0.03072 0.11209
 N1221 N 0.45658 -0.03249 0.11498
 N1222 N 0.47420 -0.03113 0.08582
 C1223 C 0.46157 -0.02798 0.05255
 N1224 N 0.43051 -0.02812 0.04952
 N1225 N 0.38035 0.49246 -0.00953
 C1226 C 0.37058 0.47435 0.01793
 N1227 N 0.39133 0.46537 0.04305
 N1228 N 0.42080 0.47328 0.04010
 C1229 C 0.43071 0.49018 0.01173
 N1230 N 0.40981 0.50036 -0.01246
 N1231 N -0.10943 0.95847 0.55181
 C1232 C -0.13170 0.97499 0.53549
 N1233 N -0.12335 1.00011 0.51618
 N1234 N -0.09387 1.00750 0.51196
 C1235 C -0.07159 0.98986 0.52655
 N1236 N -0.07997 0.96579 0.54741
 N1237 N -0.10614 0.03971 0.95954
 C1238 C -0.12746 0.02881 0.98303
 N1239 N -0.11833 0.00841 1.00843
 N1240 N -0.08899 0.00050 1.01132
 C1241 C -0.06753 0.01291 0.98917
 N1242 N -0.07683 0.03184 0.96251
 N1243 N 0.37666 0.49482 0.47765
 C1244 C 0.36940 0.52181 0.46187
 N1245 N 0.39222 0.53940 0.44787
 N1246 N 0.42132 0.53076 0.45037
 C1247 C 0.42876 0.50438 0.46733
 N1248 N 0.40582 0.48616 0.48013
 N1249 N 0.10676 0.54741 0.54019
 C1250 C 0.12881 0.53111 0.52314
 N1251 N 0.12045 0.50509 0.50516
 N1252 N 0.09107 0.49638 0.50334
 C1253 C 0.06896 0.51338 0.51940
 N1254 N 0.07747 0.53868 0.53838
 N1255 N 0.62267 0.00889 0.00819
 C1256 C 0.63026 0.03533 0.02576
 N1257 N 0.60737 0.05272 0.03946
 N1258 N 0.57812 0.04462 0.03473
 C1259 C 0.57053 0.01880 0.01615
 N1260 N 0.59336 0.00076 0.00353
 N1261 N 0.61817 0.98421 0.50996
 C1262 C 0.62702 0.96366 0.48449
 N1263 N 0.60540 0.95132 0.46217
 N1264 N 0.57600 0.95855 0.46580
 C1265 C 0.56699 0.97793 0.49228
 N1266 N 0.58871 0.99132 0.51367
 N1267 N 0.10604 0.45242 0.95826
 C1268 C 0.12964 0.46836 0.97360
 N1269 N 0.12334 0.49460 0.99196
 N1270 N 0.09447 0.50378 0.99600
 C1271 C 0.07085 0.48700 0.98190
 N1272 N 0.07728 0.46159 0.96232
 N1273 N 0.00349 0.37710 0.49252
 C1274 C -0.01608 0.36854 0.46555
 N1275 N -0.03543 0.38992 0.45212
 N1276 N -0.03466 0.41872 0.46430
 C1277 C -0.01486 0.42741 0.49083
 N1278 N 0.00414 0.40593 0.50481
 N1279 N 0.49340 -0.11724 -0.01732
 C1280 C 0.48584 -0.12350 -0.05227
 N1281 N 0.47932 -0.09967 -0.07432
 N1282 N 0.48074 -0.07090 -0.06231
 C1283 C 0.48835 -0.06457 -0.02754
 N1284 N 0.49469 -0.08833 -0.00520
 N1285 N 0.00114 -0.12048 1.01221
 C1286 C 0.02119 -0.12820 1.03877
 N1287 N 0.04055 -0.10614 1.05178
 N1288 N 0.03921 -0.07747 1.03970
 C1289 C 0.01878 -0.06957 1.01376
 N1290 N -0.00012 -0.09176 1.00006
 N1291 N 0.50648 0.37178 0.50851
 C1292 C 0.51327 0.36757 0.54401
 N1293 N 0.51972 0.39264 0.56460
 N1294 N 0.51876 0.42066 0.55075
 C1295 C 0.51170 0.42502 0.51551
 N1296 N 0.50557 0.39999 0.49456
 N1297 N 0.46305 1.10252 0.54962
 C1298 C 0.48476 1.12301 0.53865
 N1299 N 0.50602 1.11351 0.51441
 N1300 N 0.50611 1.08456 0.50260
 C1301 C 0.48483 1.06391 0.51431
 N1302 N 0.46324 1.07359 0.53789
 N1303 N -0.00344 0.62279 1.01593
 C1304 C -0.01237 0.62848 1.05046
 N1305 N -0.02082 0.60435 1.07128
 N1306 N -0.01989 0.57583 1.05856
 C1307 C -0.01093 0.57003 1.02422
 N1308 N -0.00265 0.59411 1.00308
 N1309 N 0.53943 0.61213 -0.04518
 C1310 C 0.51904 0.63318 -0.03321
 N1311 N 0.49846 0.62444 -0.00766
 N1312 N 0.49762 0.59564 0.00434
 C1313 C 0.51746 0.57438 -0.00847
 N1314 N 0.53851 0.58337 -0.03324
 N1315 N 0.00857 1.12077 0.48835
 C1316 C 0.01602 1.12576 0.45318
 N1317 N 0.02325 1.10112 0.43246
 N1318 N 0.02217 1.07287 0.44571
 C1319 C 0.01421 1.06777 0.48050
 N1320 N 0.00748 1.09233 0.50168
 N1321 N 0.77428 0.70973 0.88065
 C1322 C 0.78295 0.67997 0.87841
 N1323 N 0.78890 0.66792 0.84534
 N1324 N 0.78489 0.68453 0.81567
 C1325 C 0.77464 0.71374 0.81786
 N1326 N 0.77011 0.72623 0.85099
 N1327 N 0.29239 0.17178 0.34417
 C1328 C 0.28280 0.18185 0.37693
 N1329 N 0.27435 0.21152 0.38055
 N1330 N 0.27348 0.22986 0.35208
 C1331 C 0.28087 0.21931 0.31878
 N1332 N 0.29132 0.19018 0.31557
 N1333 N 0.71205 0.34184 0.33680
 C1334 C 0.70852 0.32910 0.36990
 N1335 N 0.70640 0.29806 0.37222
 N1336 N 0.70960 0.28050 0.34301
 C1337 C 0.71484 0.29324 0.31023
 N1338 N 0.71523 0.32426 0.30764
 N1339 N 0.20717 0.83781 0.82990
 C1340 C 0.20738 0.82792 0.86451
 N1341 N 0.20823 0.79727 0.87078
 N1342 N 0.21094 0.77746 0.84353
 C1343 C 0.21255 0.78752 0.80898
 N1344 N 0.20960 0.81797 0.80274
 N1345 N 0.28806 0.83816 0.15091
 C1346 C 0.28233 0.82590 0.11774
 N1347 N 0.27580 0.79541 0.11536
 N1348 N 0.27310 0.77842 0.14493
 C1349 C 0.27722 0.79109 0.17811
 N1350 N 0.28556 0.82108 0.18045
 N1351 N 0.78544 0.33692 0.66492
 C1352 C 0.78650 0.32541 0.63083
 N1353 N 0.78924 0.29456 0.62659
 N1354 N 0.78835 0.27596 0.65500
 C1355 C 0.78519 0.28745 0.68888
 N1356 N 0.78469 0.31833 0.69325
 N1357 N 0.21505 0.15944 0.66239
 C1358 C 0.21583 0.17210 0.62902
 N1359 N 0.21681 0.20313 0.62630
 N1360 N 0.21895 0.22071 0.65563
 C1361 C 0.22013 0.20803 0.68894
 N1362 N 0.21731 0.17709 0.69175
 N1363 N 0.70786 0.69970 0.13499
 C1364 C 0.71481 0.66949 0.13841
 N1365 N 0.72178 0.65881 0.17173
 N1366 N 0.72397 0.67780 0.19975
 C1367 C 0.71923 0.70828 0.19589
 N1368 N 0.71033 0.71878 0.16310
 N1369 N 0.20680 0.64761 0.20233
 C1370 C 0.21897 0.62566 0.22365
 N1371 N 0.24114 0.63372 0.24782
 N1372 N 0.24989 0.66294 0.25150
 C1373 C 0.23671 0.68508 0.23121
 N1374 N 0.21583 0.67670 0.20575
 N1375 N 0.70777 0.13996 0.70090
 C1376 C 0.72341 0.11715 0.71749
 N1377 N 0.74902 0.12479 0.73673
 N1378 N 0.75771 0.15398 0.74067
 C1379 C 0.74109 0.17675 0.72561
 N1380 N 0.71640 0.16915 0.70497
 N1381 N 0.75173 0.13224 0.26336
 C1382 C 0.77994 0.12564 0.27678
 N1383 N 0.79814 0.14895 0.28878
 N1384 N 0.78898 0.17781 0.28647
 C1385 C 0.76142 0.18470 0.27181
 N1386 N 0.74263 0.16131 0.26088
 N1387 N 0.24800 0.62570 0.75530
 C1388 C 0.27305 0.61746 0.77470
 N1389 N 0.28888 0.63955 0.79312
 N1390 N 0.28084 0.66885 0.79092
 C1391 C 0.25657 0.67720 0.77037
 N1392 N 0.23985 0.65499 0.75331
 N1393 N 0.29754 0.35424 0.70802
 C1394 C 0.28145 0.37673 0.72464
 N1395 N 0.25596 0.36861 0.74358
 N1396 N 0.24777 0.33923 0.74694
 C1397 C 0.26474 0.31678 0.73153
 N1398 N 0.28940 0.32492 0.71146
 N1399 N 0.79972 0.85703 0.20362
 C1400 C 0.78142 0.88015 0.21496
 N1401 N 0.75406 0.87283 0.23032
 N1402 N 0.74592 0.84360 0.23530
 C1403 C 0.76484 0.82058 0.22516
 N1404 N 0.79159 0.82788 0.20863
 N1405 N 0.70542 0.85633 0.79162
 C1406 C 0.71775 0.87770 0.76921
 N1407 N 0.73866 0.86842 0.74443
 N1408 N 0.74588 0.83893 0.74121
 C1409 C 0.73237 0.81751 0.76250
 N1410 N 0.71273 0.82689 0.78845
 N1411 N 0.19050 0.35687 0.27415
 C1412 C 0.21048 0.38051 0.27890
 N1413 N 0.24109 0.37454 0.27907
 N1414 N 0.25108 0.34588 0.27465
 C1415 C 0.23076 0.32233 0.26976
 N1416 N 0.20044 0.32854 0.26958
 N1417 N 0.14727 0.21535 0.81252
 C1418 C 0.12413 0.22973 0.79502
 N1419 N 0.13078 0.24482 0.76393
 N1420 N 0.15943 0.24586 0.75132
 C1421 C 0.18260 0.23176 0.76917
 N1422 N 0.17586 0.21658 0.80005
 N1423 N 0.63027 0.74253 0.26387
 C1424 C 0.62461 0.73626 0.29918
 N1425 N 0.64886 0.73116 0.32134
 N1426 N 0.67746 0.73269 0.30906
 C1427 C 0.68320 0.73898 0.27391
 N1428 N 0.65902 0.74391 0.25149
 N1429 N 0.64721 0.27768 0.17914
 C1430 C 0.62228 0.27078 0.19948
 N1431 N 0.62677 0.26312 0.23466
 N1432 N 0.65509 0.26174 0.24851
 C1433 C 0.67998 0.26825 0.22777
 N1434 N 0.67535 0.27631 0.19291
 N1435 N 0.14344 0.77089 0.68030
 C1436 C 0.11890 0.76517 0.70176
 N1437 N 0.12413 0.75817 0.73698
 N1438 N 0.15273 0.75648 0.74989
 C1439 C 0.17721 0.76190 0.72811
 N1440 N 0.17189 0.76912 0.69311
 N1441 N 0.85431 0.71012 0.70438
 C1442 C 0.87547 0.73145 0.71515
 N1443 N 0.86673 0.75296 0.73964
 N1444 N 0.83791 0.75381 0.75163
 C1445 C 0.81660 0.73303 0.73992
 N1446 N 0.82552 0.71106 0.71627
 N1447 N 0.35918 0.21998 0.20555
 C1448 C 0.37947 0.24291 0.21349
 N1449 N 0.37018 0.26587 0.23576
 N1450 N 0.34161 0.26627 0.24859
 C1451 C 0.32115 0.24364 0.23991
 N1452 N 0.33066 0.22045 0.21832
 N1453 N 0.36183 0.79138 0.28915
 C1454 C 0.38198 0.76968 0.27825
 N1455 N 0.37234 0.74860 0.25342
 N1456 N 0.34350 0.74852 0.24120
 C1457 C 0.32309 0.76963 0.25306
 N1458 N 0.33302 0.79121 0.27700
 N1459 N 0.85635 0.27298 0.81674
 C1460 C 0.88054 0.26287 0.79723
 N1461 N 0.87519 0.25236 0.76312
 N1462 N 0.84674 0.25150 0.74953
 C1463 C 0.82256 0.26135 0.76939
 N1464 N 0.82804 0.27200 0.80326
 N1465 N 0.53809 0.96886 0.63308
 C1466 C 0.56768 0.95990 0.62962
 N1467 N 0.57777 0.95128 0.59652
 N1468 N 0.55955 0.95330 0.56775
 C1469 C 0.53061 0.96414 0.57087
 N1470 N 0.51998 0.97109 0.60426
 N1471 N 0.04753 0.46291 1.12532
 C1472 C 0.07846 0.46714 1.12315
 N1473 N 0.09112 0.46978 1.08985
 N1474 N 0.07352 0.47082 1.06051
 C1475 C 0.04253 0.46894 1.06300
 N1476 N 0.02993 0.46405 1.09592
 N1477 N -0.07951 0.03894 1.09494
 C1478 C -0.06827 0.03221 1.12818
 N1479 N -0.03795 0.02571 1.13130
 N1480 N -0.02031 0.02364 1.10217
 C1481 C -0.03210 0.02847 1.06876
 N1482 N -0.06178 0.03714 1.06587
 N1483 N 0.40643 0.52599 0.57538
 C1484 C 0.41927 0.53135 0.60827
 N1485 N 0.45012 0.53575 0.61038
 N1486 N 0.46762 0.53304 0.58122
 C1487 C 0.45502 0.52588 0.54870
 N1488 N 0.42400 0.52312 0.54625
 N1489 N 0.46021 0.48701 -0.13037
 C1490 C 0.43153 0.47477 -0.12931
 N1491 N 0.42128 0.46262 -0.09780
 N1492 N 0.43853 0.46438 -0.06799
 C1493 C 0.46663 0.47816 -0.06876
 N1494 N 0.47737 0.48862 -0.10076
 N1495 N -0.05572 0.95996 0.38279
 C1496 C -0.08609 0.96600 0.38640
 N1497 N -0.09715 0.97199 0.41980
 N1498 N -0.07835 0.97361 0.44808
 C1499 C -0.04775 0.96933 0.44430
 N1500 N -0.03688 0.96179 0.41116
 N1501 N 0.08307 0.53991 0.41624
 C1502 C 0.07129 0.53714 0.38244
 N1503 N 0.04067 0.53195 0.37855
 N1504 N 0.02288 0.52791 0.40732
 C1505 C 0.03497 0.52922 0.44109
 N1506 N 0.06524 0.53606 0.44494
 N1507 N 0.55110 0.04434 -0.12642
 C1508 C 0.58199 0.04377 -0.12137
 N1509 N 0.59300 0.04219 -0.08717
 N1510 N 0.57395 0.03939 -0.05941
 C1511 C 0.54314 0.03806 -0.06460
 N1512 N 0.53205 0.04140 -0.09860
 N1513 N 0.61152 0.54276 -0.04053
 C1514 C 0.63242 0.53029 -0.01780
 N1515 N 0.62246 0.50995 0.00731
 N1516 N 0.59275 0.50313 0.01033
 C1517 C 0.57179 0.51669 -0.01134
 N1518 N 0.58180 0.53594 -0.03747
 N1519 N 0.11758 0.99921 0.48837
 C1520 C 0.12594 1.02456 0.46952
 N1521 N 0.10367 1.04128 0.45341
 N1522 N 0.07420 1.03380 0.45741
 C1523 C 0.06580 1.00928 0.47755
 N1524 N 0.08808 0.99164 0.49218
 N1525 N 0.12368 -0.00558 0.99330
 C1526 C 0.13392 -0.02574 1.01835
 N1527 N 0.11344 -0.03729 1.04244
 N1528 N 0.08383 -0.03023 1.04037
 C1529 C 0.07350 -0.01143 1.01408
 N1530 N 0.09413 0.00156 0.99135
 N1531 N 0.61783 0.49164 0.50743
 C1532 C 0.62513 0.46640 0.52696
 N1533 N 0.60197 0.45017 0.54257
 N1534 N 0.57282 0.45785 0.53735
 C1535 C 0.56555 0.48216 0.51649
 N1536 N 0.58864 0.49938 0.50234
 N1537 N -0.11015 0.45568 0.46226
 C1538 C -0.13149 0.46821 0.48434
 N1539 N -0.12213 0.48930 0.50922
 N1540 N -0.09257 0.49684 0.51257
 C1541 C -0.07116 0.48339 0.49140
 N1542 N -0.08060 0.46325 0.46561
 N1543 N 0.38110 -0.00181 -0.01919
 C1544 C 0.37407 -0.02869 -0.03615
 N1545 N 0.39723 -0.04532 -0.05047
 N1546 N 0.42626 -0.03612 -0.04680
 C1547 C 0.43338 -0.00993 -0.02868
 N1548 N 0.41020 0.00740 -0.01553
 N1549 N 0.38798 1.03518 0.54244
 C1550 C 0.36716 1.02446 0.51796
 N1551 N 0.37678 1.00476 0.49199
 N1552 N 0.40613 0.99682 0.48995
 C1553 C 0.42709 1.00851 0.51357
 N1554 N 0.41734 1.02723 0.54039
 N1555 N -0.11854 0.50674 1.01257
 C1556 C -0.12536 0.53248 1.03159
 N1557 N -0.10213 0.54824 1.04797
 N1558 N -0.07321 0.53938 1.04431
 C1559 C -0.06628 0.51445 1.02412
 N1560 N -0.08954 0.49787 1.00893
 N1561 N 0.02650 0.60471 0.56481
 C1562 C 0.01194 0.62719 0.54649
 N1563 N -0.00174 0.61982 0.51449
 N1564 N -0.00143 0.59102 0.50196
 C1565 C 0.01282 0.56850 0.52073
 N1566 N 0.02669 0.57605 0.55240
 N1567 N 0.50472 0.12645 0.00868
 C1568 C 0.51412 0.13207 0.04316
 N1569 N 0.52446 0.10820 0.06298
 N1570 N 0.52472 0.07992 0.04940
 C1571 C 0.51511 0.07415 0.01518
 N1572 N 0.50506 0.09803 -0.00499
 N1573 N -0.03411 0.10801 0.95371
 C1574 C -0.01447 0.12970 0.96699
 N1575 N 0.00565 0.12142 0.99322
 N1576 N 0.00664 0.09253 1.00482
 C1577 C -0.01254 0.07071 0.99084
 N1578 N -0.03300 0.07915 0.96520
 N1579 N 0.47753 0.59468 0.41933
 C1580 C 0.48090 0.61935 0.44150
 N1581 N 0.48464 0.61431 0.47747
 N1582 N 0.48566 0.58577 0.49043
 C1583 C 0.48273 0.56117 0.46794
 N1584 N 0.47854 0.56630 0.43221
 N1585 N 0.53349 0.88324 0.45966
 C1586 C 0.51022 0.86316 0.46665
 N1587 N 0.48683 0.87277 0.48793
 N1588 N 0.48629 0.90147 0.50059
 C1589 C 0.50918 0.92177 0.49270
 N1590 N 0.53286 0.91190 0.47222
 N1591 N 0.01113 0.37884 0.99004
 C1592 C 0.01784 0.37370 0.95467
 N1593 N 0.02383 0.39825 0.93342
 N1594 N 0.02264 0.42661 0.94653
 C1595 C 0.01578 0.43190 0.98165
 N1596 N 0.01002 0.40741 1.00327
 N1597 N 0.50285 0.38285 0.00838
 C1598 C 0.48113 0.37418 0.03264
 N1599 N 0.46062 0.39543 0.04380
 N1600 N 0.46244 0.42429 0.03230
 C1601 C 0.48460 0.43317 0.00884
 N1602 N 0.50461 0.41175 -0.00317
 N1603 N -0.03389 0.89580 0.56689
 C1604 C -0.02358 0.87198 0.54675
 N1605 N -0.01162 0.87807 0.51367
 N1606 N -0.00984 0.90683 0.50151
 C1607 C -0.01997 0.93065 0.52190
 N1608 N -0.03184 0.92447 0.55488
 N1609 N 0.21660 0.29321 0.12650
 C1610 C 0.21598 0.32434 0.12859
 N1611 N 0.21552 0.33769 0.16171
 N1612 N 0.21741 0.32079 0.19139
 C1613 C 0.21948 0.28980 0.18932
 N1614 N 0.21843 0.27630 0.15625
 N1615 N 0.70752 0.82803 0.65585
 C1616 C 0.71520 0.81647 0.62304
 N1617 N 0.72256 0.78637 0.62058
 N1618 N 0.72412 0.76909 0.65000
 C1619 C 0.71816 0.78110 0.68306
 N1620 N 0.70899 0.81067 0.68526
 N1621 N 0.28482 0.70217 0.62891
 C1622 C 0.28274 0.67114 0.63112
 N1623 N 0.28035 0.65821 0.66424
 N1624 N 0.27799 0.67567 0.69362
 C1625 C 0.27819 0.70670 0.69119
 N1626 N 0.28249 0.71959 0.65832
 N1627 N 0.78582 0.16429 0.16757
 C1628 C 0.78862 0.17613 0.13394
 N1629 N 0.78967 0.20712 0.13029
 N1630 N 0.78617 0.22543 0.15884
 C1631 C 0.78176 0.21350 0.19222
 N1632 N 0.78239 0.18259 0.19605
 N1633 N 0.71404 0.20062 0.86935
 C1634 C 0.71788 0.16977 0.86765
 N1635 N 0.72193 0.15656 0.83479
 N1636 N 0.72401 0.17366 0.80523
 C1637 C 0.72186 0.20464 0.80718
 N1638 N 0.71609 0.21770 0.83976
 N1639 N 0.21377 0.67166 0.33954
 C1640 C 0.22831 0.67973 0.37073
 N1641 N 0.24143 0.70795 0.37336
 N1642 N 0.24145 0.72682 0.34538
 C1643 C 0.22846 0.71832 0.31351
 N1644 N 0.21402 0.69058 0.31131
 N1645 N 0.78433 0.84667 0.33164
 C1646 C 0.79091 0.83555 0.36487
 N1647 N 0.79632 0.80506 0.36828
 N1648 N 0.79330 0.78622 0.34003
 C1649 C 0.78505 0.79718 0.30721
 N1650 N 0.78142 0.82786 0.30347
 N1651 N 0.28947 0.33691 0.83476
 C1652 C 0.28965 0.32568 0.86880
 N1653 N 0.28898 0.29480 0.87342
 N1654 N 0.28617 0.27600 0.84514
 C1655 C 0.28424 0.28735 0.81118
 N1656 N 0.28688 0.31809 0.80656
 N1657 N 0.79725 0.35249 0.79535
 C1658 C 0.78053 0.37487 0.77956
 N1659 N 0.75532 0.36661 0.76001
 N1660 N 0.74781 0.33715 0.75543
 C1661 C 0.76534 0.31480 0.77002
 N1662 N 0.78979 0.32307 0.79066
 N1663 N 0.26001 0.87585 0.24148
 C1664 C 0.28140 0.88540 0.26597
 N1665 N 0.29359 0.86415 0.28849
 N1666 N 0.28609 0.83459 0.28529
 C1667 C 0.26616 0.82503 0.25939
 N1668 N 0.25242 0.84632 0.23842
 N1669 N 0.20128 0.85219 0.70633
 C1670 C 0.21782 0.87502 0.72242
 N1671 N 0.24359 0.86756 0.74102
 N1672 N 0.25170 0.83834 0.74458
 C1673 C 0.23432 0.81551 0.72969
 N1674 N 0.20937 0.82306 0.70989
 N1675 N 0.70539 0.36078 0.20724
 C1676 C 0.72265 0.38289 0.22375
 N1677 N 0.74772 0.37433 0.24291
 N1678 N 0.75470 0.34484 0.24632
 C1679 C 0.73676 0.32271 0.23095
 N1680 N 0.71230 0.33127 0.21080
 N1681 N 0.74856 0.63279 0.26995
 C1682 C 0.72081 0.62563 0.28444
 N1683 N 0.70303 0.64879 0.29676
 N1684 N 0.71191 0.67788 0.29324
 C1685 C 0.73898 0.68512 0.27740
 N1686 N 0.75748 0.66198 0.26650
 N1687 N 0.21041 0.13902 0.79536
 C1688 C 0.22517 0.11731 0.77582
 N1689 N 0.24847 0.12627 0.75391
 N1690 N 0.25590 0.15580 0.75066
 C1691 C 0.24014 0.17758 0.76891
 N1692 N 0.21780 0.16857 0.79200
 N1693 N 0.26176 0.13364 0.25544
 C1694 C 0.28161 0.12517 0.22917
 N1695 N 0.29259 0.14705 0.20650
 N1696 N 0.28483 0.17631 0.21071
 C1697 C 0.26617 0.18488 0.23806
 N1698 N 0.25406 0.16287 0.25966
 N1699 N 0.75369 0.62659 0.75985
 C1700 C 0.77359 0.61659 0.73440
 N1701 N 0.78520 0.63720 0.71056
 N1702 N 0.77805 0.66675 0.71289
 C1703 C 0.75926 0.67688 0.73934
 N1704 N 0.74650 0.65612 0.76211
 N1705 N 0.87382 0.76411 0.23626
 C1706 C 0.87862 0.76849 0.20029
 N1707 N 0.85365 0.77268 0.17888
 N1708 N 0.82543 0.77170 0.19229
 C1709 C 0.82062 0.76686 0.22791
 N1710 N 0.84540 0.76314 0.24977
 N1711 N 0.35497 0.27288 0.68340
 C1712 C 0.37912 0.26378 0.70374
 N1713 N 0.37372 0.25489 0.73832
 N1714 N 0.34520 0.25436 0.75148
 C1715 C 0.32104 0.26301 0.73069
 N1716 N 0.32663 0.27233 0.69648
 N1717 N 0.34741 0.72305 0.82161
 C1718 C 0.37199 0.73006 0.80070
 N1719 N 0.36692 0.73707 0.76545
 N1720 N 0.33841 0.73780 0.75208
 C1721 C 0.31387 0.73126 0.77335
 N1722 N 0.31905 0.72378 0.80830
 N1723 N 0.86984 0.24383 0.26527
 C1724 C 0.87502 0.23641 0.30037
 N1725 N 0.85048 0.23038 0.32170
 N1726 N 0.82205 0.23212 0.30883
 C1727 C 0.81678 0.23955 0.27389
 N1728 N 0.84126 0.24542 0.25227
 N1729 N 0.14389 0.27914 0.31316
 C1730 C 0.12071 0.26586 0.29404
 N1731 N 0.12753 0.25182 0.26219
 N1732 N 0.15642 0.25116 0.25014
 C1733 C 0.17954 0.26454 0.26949
 N1734 N 0.17260 0.27821 0.30135
 N1735 N 0.63718 0.78440 0.79589
 C1736 C 0.61617 0.76294 0.78522
 N1737 N 0.62513 0.74100 0.76141
 N1738 N 0.65403 0.74010 0.74967
 C1739 C 0.67519 0.76118 0.76109
 N1740 N 0.66604 0.78339 0.78428
 N1741 N 0.65143 0.22752 0.67595
 C1742 C 0.62691 0.22818 0.69830
 N1743 N 0.63202 0.22882 0.73457
 N1744 N 0.66066 0.22982 0.74773
 C1745 C 0.68515 0.22981 0.72506
 N1746 N 0.67983 0.22830 0.68903
 N1747 N 0.13107 0.76130 0.23947
 C1748 C 0.12073 0.73885 0.21678
 N1749 N 0.14069 0.71680 0.20643
 N1750 N 0.16990 0.71778 0.21710
 C1751 C 0.18048 0.74056 0.23897
 N1752 N 0.16033 0.76218 0.25024
   
