data_POSCAR
  _audit_creation_date              2014-09-24
  _audit_creation_method            'ToBaCCo'
  _symmetry_space_group_name_H-M    'P1'
  _symmetry_Int_Tables_number       1
  _symmetry_cell_setting            triclinic
  loop_
  _symmetry_equiv_pos_as_xyz
 x,y,z
_cell_length_a 32.2506
_cell_length_b 32.9187
_cell_length_c 38.6119
_cell_angle_alpha 89.980900
_cell_angle_beta 89.982000
_cell_angle_gamma 90.057500
loop_
  _atom_site_label
  _atom_site_type_symbol
  _atom_site_fract_x
  _atom_site_fract_y
  _atom_site_fract_z
Zr1 Zr 0.24779 0.24808 0.31096
 O2 O 0.27973 0.27944 0.35072
 O3 O 0.20764 0.21083 0.33967
 O4 O 0.20769 0.28703 0.33890
 O5 O 0.32469 0.17684 0.29780
 O6 O 0.17652 0.32470 0.29669
 O7 O 0.28714 0.20906 0.33966
 O8 O 0.16846 0.18071 0.29774
 O9 O 0.19367 0.25103 0.28102
 O10 O 0.24668 0.19524 0.28092
 O11 O 0.25292 0.30179 0.28159
 O12 O 0.30360 0.24855 0.28227
 Zr13 Zr 0.25211 0.25134 0.18945
 Zr14 Zr 0.20035 0.30271 0.24982
 Zr15 Zr 0.29997 0.19702 0.25050
 Zr16 Zr 0.19414 0.19920 0.25000
 O17 O 0.36559 0.19912 0.24979
 O18 O 0.12969 0.21179 0.24827
 O19 O 0.24737 0.19707 0.21850
 O20 O 0.19692 0.25093 0.21855
 O21 O 0.25363 0.30470 0.21902
 O22 O 0.30580 0.24870 0.21983
 C23 C 0.17807 0.18740 0.32963
 C24 C 0.31582 0.18437 0.32966
 C25 C 0.18302 0.31541 0.32859
 O26 O 0.13490 0.30014 0.24681
 O27 O 0.18155 0.32867 0.20259
 O28 O 0.21490 0.29231 0.16076
 C29 C 0.18980 0.32049 0.17072
 O30 O 0.33371 0.32246 0.29678
 Zr31 Zr 0.30595 0.30037 0.25053
 O32 O 0.29204 0.28902 0.16084
 O33 O 0.20809 0.36648 0.25256
 O34 O 0.29804 0.36431 0.25100
 O35 O 0.37080 0.28973 0.24976
 O36 O 0.32833 0.32242 0.20285
 C37 C 0.31964 0.31463 0.17098
 O38 O 0.21853 0.22141 0.14981
 O39 O 0.29205 0.13322 0.25144
 O40 O 0.28970 0.21037 0.16122
 O41 O 0.32095 0.17269 0.20343
 O42 O 0.19914 0.13501 0.25220
 O43 O 0.17080 0.17301 0.20361
 C44 C 0.31449 0.18211 0.17153
 H45 H 0.24617 0.17010 0.29499
 H46 H 0.17226 0.25159 0.20330
 H47 H 0.33161 0.24742 0.20600
 H48 H 0.25423 0.32601 0.29673
 H49 H 0.11483 0.18641 0.25436
 H50 H 0.12484 0.32855 0.24776
 H51 H 0.18005 0.37868 0.25113
 H52 H 0.32504 0.37673 0.24477
 H53 H 0.17130 0.12411 0.25790
 H54 H 0.32018 0.12123 0.25276
 H55 H 0.37552 0.17064 0.24915
 H56 H 0.38456 0.31574 0.24380
 H57 H 0.14657 0.15564 0.20907
 H58 H 0.22961 0.23123 0.12733
 H59 H 0.26870 0.26936 0.37313
 H60 H 0.35333 0.34463 0.29106
 Zr61 Zr 0.75210 0.75149 0.31043
 O62 O 0.72020 0.71996 0.35015
 O63 O 0.79213 0.78879 0.33918
 O64 O 0.79230 0.71271 0.33839
 O65 O 0.67499 0.82247 0.29732
 O66 O 0.82362 0.67512 0.29621
 O67 O 0.71265 0.79033 0.33915
 O68 O 0.83128 0.81906 0.29728
 O69 O 0.80627 0.74875 0.28050
 O70 O 0.75308 0.80438 0.28042
 O71 O 0.74720 0.69779 0.28105
 O72 O 0.69632 0.75087 0.28175
 Zr73 Zr 0.74791 0.74833 0.18891
 Zr74 Zr 0.79980 0.69708 0.24930
 Zr75 Zr 0.69982 0.80245 0.25001
 Zr76 Zr 0.80566 0.80061 0.24951
 O77 O 0.63421 0.80014 0.24927
 O78 O 0.87015 0.78825 0.24773
 O79 O 0.75245 0.80259 0.21800
 O80 O 0.80306 0.74891 0.21805
 O81 O 0.74656 0.69494 0.21848
 O82 O 0.69420 0.75079 0.21931
 C83 C 0.82167 0.81227 0.32916
 C84 C 0.68389 0.81493 0.32918
 C85 C 0.81706 0.68441 0.32810
 O86 O 0.86524 0.69987 0.24635
 O87 O 0.81881 0.67128 0.20208
 O88 O 0.78538 0.70755 0.16022
 C89 C 0.81061 0.67948 0.17020
 O90 O 0.66650 0.67681 0.29623
 Zr91 Zr 0.69419 0.69908 0.24999
 O92 O 0.70806 0.71056 0.16030
 O93 O 0.79228 0.63328 0.25199
 O94 O 0.70233 0.63516 0.25040
 O95 O 0.62930 0.70952 0.24927
 O96 O 0.67183 0.67706 0.20232
 C97 C 0.68050 0.68491 0.17046
 O98 O 0.78137 0.77839 0.14924
 O99 O 0.70753 0.86627 0.25098
 O100 O 0.71021 0.78929 0.16072
 O101 O 0.67883 0.82680 0.20297
 O102 O 0.80043 0.86478 0.25176
 O103 O 0.82893 0.82696 0.20313
 C104 C 0.68534 0.81749 0.17106
 H105 H 0.75350 0.82949 0.29452
 H106 H 0.82774 0.74835 0.20280
 H107 H 0.66839 0.75201 0.20548
 H108 H 0.74595 0.67355 0.29620
 H109 H 0.88492 0.81367 0.25384
 H110 H 0.87540 0.67150 0.24732
 H111 H 0.82036 0.62118 0.25060
 H112 H 0.67539 0.62266 0.24417
 H113 H 0.82822 0.87576 0.25749
 H114 H 0.67936 0.87816 0.25233
 H115 H 0.62419 0.82859 0.24867
 H116 H 0.61562 0.68347 0.24333
 H117 H 0.85306 0.84444 0.20860
 H118 H 0.77031 0.76855 0.12677
 H119 H 0.73116 0.73002 0.37258
 H120 H 0.64698 0.65456 0.29051
 Zr121 Zr 0.75234 0.24844 -0.31099
 O122 O 0.72066 0.27988 -0.35083
 O123 O 0.79243 0.21113 -0.33965
 O124 O 0.79264 0.28737 -0.33885
 O125 O 0.67508 0.17743 -0.29791
 O126 O 0.82383 0.32496 -0.29658
 O127 O 0.71283 0.20959 -0.33973
 O128 O 0.83142 0.18094 -0.29767
 O129 O 0.80640 0.25130 -0.28097
 O130 O 0.75320 0.19557 -0.28095
 O131 O 0.74731 0.30213 -0.28161
 O132 O 0.69648 0.24898 -0.28238
 Zr133 Zr 0.74775 0.25163 -0.18946
 Zr134 Zr 0.79981 0.30296 -0.24977
 Zr135 Zr 0.69986 0.19743 -0.25060
 Zr136 Zr 0.80570 0.19945 -0.24996
 O137 O 0.63425 0.19958 -0.24992
 O138 O 0.87018 0.21197 -0.24813
 O139 O 0.75240 0.19738 -0.21852
 O140 O 0.80300 0.25115 -0.21850
 O141 O 0.74648 0.30501 -0.21904
 O142 O 0.69413 0.24908 -0.21993
 C143 C 0.82191 0.18767 -0.32957
 C144 C 0.68400 0.18501 -0.32976
 C145 C 0.81736 0.31570 -0.32848
 O146 O 0.86524 0.30029 -0.24662
 O147 O 0.81853 0.32892 -0.20255
 O148 O 0.78500 0.29259 -0.16073
 C149 C 0.81018 0.32077 -0.17068
 O150 O 0.66663 0.32297 -0.29691
 Zr151 Zr 0.69421 0.30077 -0.25063
 O152 O 0.70784 0.28932 -0.16092
 O153 O 0.79230 0.36674 -0.25256
 O154 O 0.70236 0.36470 -0.25107
 O155 O 0.62933 0.29017 -0.24999
 O156 O 0.67176 0.32280 -0.20298
 C157 C 0.68034 0.31496 -0.17110
 O158 O 0.78115 0.22168 -0.14976
 O159 O 0.70757 0.13362 -0.25160
 O160 O 0.70998 0.21063 -0.16132
 O161 O 0.67875 0.17302 -0.20360
 O162 O 0.80044 0.13527 -0.25215
 O163 O 0.82888 0.17320 -0.20355
 C164 C 0.68516 0.18238 -0.17169
 H165 H 0.75364 0.17045 -0.29504
 H166 H 0.82762 0.25179 -0.20320
 H167 H 0.66828 0.24781 -0.20614
 H168 H 0.74612 0.32637 -0.29676
 H169 H 0.88497 0.18658 -0.25420
 H170 H 0.87540 0.32869 -0.24757
 H171 H 0.82037 0.37891 -0.25107
 H172 H 0.67540 0.37716 -0.24487
 H173 H 0.82824 0.12432 -0.25783
 H174 H 0.67941 0.12167 -0.25298
 H175 H 0.62423 0.17111 -0.24932
 H176 H 0.61562 0.31618 -0.24403
 H177 H 0.85303 0.15577 -0.20898
 H178 H 0.77003 0.23149 -0.12730
 H179 H 0.73171 0.26979 -0.37321
 H180 H 0.64706 0.34515 -0.29120
 Zr181 Zr 0.24692 0.75524 -0.31049
 O182 O 0.27898 0.72570 -0.35116
 O183 O 0.20694 0.79382 -0.33816
 O184 O 0.20703 0.71676 -0.33943
 O185 O 0.32413 0.82538 -0.29526
 O186 O 0.17594 0.67768 -0.29804
 O187 O 0.28623 0.79575 -0.33803
 O188 O 0.16744 0.82145 -0.29550
 O189 O 0.19275 0.75109 -0.28066
 O190 O 0.24586 0.80687 -0.27899
 O191 O 0.25201 0.70054 -0.28237
 O192 O 0.30264 0.75352 -0.28167
 Zr193 Zr 0.25080 0.74758 -0.18881
 Zr194 Zr 0.19940 0.69840 -0.25069
 Zr195 Zr 0.29903 0.80382 -0.24857
 Zr196 Zr 0.19325 0.80174 -0.24827
 O197 O 0.36464 0.80162 -0.24778
 O198 O 0.12877 0.78914 -0.24666
 O199 O 0.24635 0.80278 -0.21662
 O200 O 0.19582 0.74903 -0.21814
 O201 O 0.25241 0.69524 -0.21972
 O202 O 0.30460 0.75120 -0.21907
 C203 C 0.17712 0.81676 -0.32767
 C204 C 0.31521 0.81997 -0.32748
 C205 C 0.18260 0.68779 -0.32973
 O206 O 0.13393 0.70075 -0.24789
 O207 O 0.18044 0.67081 -0.20422
 O208 O 0.21211 0.70648 -0.16129
 C209 C 0.18710 0.67839 -0.17193
 O210 O 0.33288 0.67988 -0.29764
 Zr211 Zr 0.30483 0.70067 -0.25108
 O212 O 0.29037 0.70865 -0.16116
 O213 O 0.20709 0.63475 -0.25495
 O214 O 0.29666 0.63679 -0.25326
 O215 O 0.36965 0.71157 -0.24991
 O216 O 0.32695 0.67690 -0.20390
 C217 C 0.31806 0.68347 -0.17185
 O218 O 0.21780 0.77634 -0.14824
 O219 O 0.29137 0.86765 -0.24795
 O220 O 0.28865 0.78768 -0.15965
 O221 O 0.32010 0.82656 -0.20103
 O222 O 0.19822 0.86599 -0.24912
 O223 O 0.17009 0.82650 -0.20126
 C224 C 0.31365 0.81616 -0.16937
 H225 H 0.24543 0.83254 -0.29236
 H226 H 0.17101 0.74789 -0.20307
 H227 H 0.33037 0.75197 -0.20517
 H228 H 0.25340 0.67683 -0.29809
 H229 H 0.11395 0.81472 -0.25209
 H230 H 0.12388 0.67235 -0.24940
 H231 H 0.17907 0.62243 -0.25374
 H232 H 0.32351 0.62408 -0.24711
 H233 H 0.17037 0.87698 -0.25458
 H234 H 0.31953 0.87962 -0.24916
 H235 H 0.37469 0.83005 -0.24650
 H236 H 0.38345 0.68549 -0.24431
 H237 H 0.14591 0.84407 -0.20626
 H238 H 0.22884 0.76555 -0.12608
 H239 H 0.26791 0.73667 -0.37324
 H240 H 0.35265 0.65776 -0.29226
 Zr241 Zr 1.25183 1.25238 0.81076
 O242 O 1.21905 1.22144 0.85033
 O243 O 1.29200 1.28937 0.83955
 O244 O 1.29126 1.21354 0.83953
 O245 O 1.17772 1.32618 0.79651
 O246 O 1.32500 1.17744 0.79773
 O247 O 1.21240 1.29168 0.83881
 O248 O 1.33211 1.31874 0.79776
 O249 O 1.30629 1.24914 0.78130
 O250 O 1.25397 1.30504 0.78038
 O251 O 1.24684 1.19846 0.78183
 O252 O 1.19637 1.25253 0.78164
 Zr253 Zr 1.24859 1.24812 0.68929
 Zr254 Zr 1.29980 1.19730 0.75054
 Zr255 Zr 1.20109 1.30380 0.74951
 Zr256 Zr 1.30669 1.30056 0.74985
 O257 O 1.13552 1.30203 0.74839
 O258 O 1.37102 1.28731 0.74843
 O259 O 1.25393 1.30268 0.71787
 O260 O 1.30355 1.24868 0.71877
 O261 O 1.24672 1.19514 0.71937
 O262 O 1.19473 1.25177 0.71930
 C263 C 1.32206 1.31226 0.82960
 C264 C 1.18589 1.31834 0.82845
 C265 C 1.31798 1.18683 0.82955
 O266 O 1.36534 1.19911 0.74765
 O267 O 1.32036 1.17214 0.70374
 O268 O 1.28559 1.20633 0.66135
 C269 C 1.31219 1.17977 0.67179
 O270 O 1.16584 1.17941 0.79691
 Zr271 Zr 1.19401 1.20029 0.75041
 O272 O 1.20862 1.21039 0.66077
 O273 O 1.29139 1.13369 0.75388
 O274 O 1.20117 1.13627 0.75146
 O275 O 1.12920 1.21108 0.74906
 O276 O 1.17175 1.17779 0.70286
 C277 C 1.18077 1.18507 0.67097
 O278 O 1.28272 1.27714 0.64947
 O279 O 1.20938 1.36760 0.75005
 O280 O 1.21149 1.28910 0.66047
 O281 O 1.18256 1.32930 0.70209
 O282 O 1.30193 1.36478 0.75175
 O283 O 1.33101 1.32647 0.70367
 C284 C 1.18885 1.31932 0.67029
 H285 H 1.25481 1.33029 0.79428
 H286 H 1.32835 1.24794 0.70367
 H287 H 1.16912 1.25333 0.70523
 H288 H 1.24551 1.17439 0.79717
 H289 H 1.38609 1.31249 0.75473
 H290 H 1.37527 1.17068 0.74924
 H291 H 1.31940 1.12138 0.75299
 H292 H 1.17399 1.12409 0.74548
 H293 H 1.32964 1.37555 0.75803
 H294 H 1.18135 1.37990 0.75078
 H295 H 1.12593 1.33059 0.74714
 H296 H 1.11541 1.18491 0.74369
 H297 H 1.35505 1.34395 0.70939
 H298 H 1.27168 1.26707 0.62707
 H299 H 1.22973 1.23159 0.87283
 H300 H 1.14632 1.15705 0.79153
 Zr301 Zr 0.74805 0.74716 0.81120
 O302 O 0.78064 0.77806 0.85088
 O303 O 0.70785 0.71003 0.83987
 O304 O 0.70849 0.78585 0.83999
 O305 O 0.82242 0.67360 0.79695
 O306 O 0.67467 0.82192 0.79822
 O307 O 0.78757 0.70794 0.83925
 O308 O 0.66792 0.68070 0.79798
 O309 O 0.69366 0.75031 0.78168
 O310 O 0.74614 0.69457 0.78076
 O311 O 0.75293 0.80118 0.78236
 O312 O 0.80357 0.74725 0.78216
 Zr313 Zr 0.75155 0.75175 0.68976
 Zr314 Zr 0.70004 0.80226 0.75101
 Zr315 Zr 0.79909 0.69605 0.74995
 Zr316 Zr 0.69349 0.69898 0.75015
 O317 O 0.86467 0.69799 0.74894
 O318 O 0.62912 0.71198 0.74858
 O319 O 0.74634 0.69709 0.71824
 O320 O 0.69653 0.75096 0.71917
 O321 O 0.75319 0.80466 0.71991
 O322 O 0.80535 0.74819 0.71983
 C323 C 0.67784 0.68715 0.82984
 C324 C 0.81419 0.68139 0.82889
 C325 C 0.68170 0.81248 0.83002
 O326 O 0.63452 0.80024 0.74806
 O327 O 0.67951 0.82748 0.70423
 O328 O 0.71445 0.79348 0.66183
 C329 C 0.68775 0.81994 0.67228
 O330 O 0.83381 0.82042 0.79759
 Zr331 Zr 0.80583 0.79959 0.75101
 O332 O 0.79150 0.78963 0.66135
 O333 O 0.70823 0.86589 0.75445
 O334 O 0.79846 0.86358 0.75213
 O335 O 0.87068 0.78902 0.74974
 O336 O 0.82815 0.82225 0.70353
 C337 C 0.81926 0.81499 0.67162
 O338 O 0.71763 0.72271 0.64986
 O339 O 0.79098 0.63223 0.75037
 O340 O 0.78890 0.71101 0.66091
 O341 O 0.81789 0.67081 0.70251
 O342 O 0.69843 0.63477 0.75207
 O343 O 0.66948 0.67309 0.70388
 C344 C 0.81167 0.68088 0.67071
 H345 H 0.74534 0.66929 0.79464
 H346 H 0.67176 0.75166 0.70404
 H347 H 0.83101 0.74674 0.70581
 H348 H 0.75415 0.82521 0.79774
 H349 H 0.61412 0.68672 0.75480
 H350 H 0.62448 0.82863 0.74968
 H351 H 0.68019 0.87811 0.75355
 H352 H 0.82562 0.87586 0.74619
 H353 H 0.67072 0.62392 0.75826
 H354 H 0.81903 0.61999 0.75111
 H355 H 0.87434 0.66947 0.74766
 H356 H 0.88440 0.81526 0.74444
 H357 H 0.64550 0.65547 0.70953
 H358 H 0.72869 0.73289 0.62749
 H359 H 0.76993 0.76782 0.87334
 H360 H 0.85324 0.84288 0.79226
 Zr361 Zr 1.25234 0.74729 0.18894
 O362 O 1.21978 0.77829 0.14933
 O363 O 1.29246 0.71023 0.16020
 O364 O 1.29197 0.78602 0.16025
 O365 O 1.17797 0.67358 0.20298
 O366 O 1.32575 0.82208 0.20207
 O367 O 1.21296 0.70806 0.16079
 O368 O 1.33230 0.68074 0.20205
 O369 O 1.30672 0.75045 0.21848
 O370 O 1.25419 0.69462 0.21929
 O371 O 1.24746 0.80123 0.21784
 O372 O 1.19677 0.74724 0.21792
 Zr373 Zr 1.24871 0.75157 0.31032
 Zr374 Zr 1.30033 0.80230 0.24923
 Zr375 Zr 1.20119 0.69596 0.25004
 Zr376 Zr 1.30683 0.69902 0.24991
 O377 O 1.13562 0.69782 0.25100
 O378 O 1.37119 0.71217 0.25142
 O379 O 1.25393 0.69699 0.28177
 O380 O 1.30378 0.75091 0.28097
 O381 O 1.24713 0.80456 0.28027
 O382 O 1.19492 0.74801 0.28023
 C383 C 1.32237 0.68725 0.17019
 C384 C 1.18633 0.68143 0.17106
 C385 C 1.31874 0.81268 0.17026
 O386 O 1.36584 0.80041 0.25226
 O387 O 1.32078 0.82740 0.29609
 O388 O 1.28570 0.79324 0.33836
 C389 C 1.31244 0.81975 0.32801
 O390 O 1.16660 0.82045 0.20258
 Zr391 Zr 1.19451 0.79950 0.24914
 O392 O 1.20876 0.78931 0.33880
 O393 O 1.29219 0.86593 0.24585
 O394 O 1.20193 0.86350 0.24813
 O395 O 1.12965 0.78884 0.25036
 O396 O 1.17215 0.82201 0.29667
 C397 C 1.18102 0.81467 0.32858
 O398 O 1.28262 0.72244 0.35016
 O399 O 1.20920 0.63214 0.24955
 O400 O 1.21138 0.71076 0.33908
 O401 O 1.18242 0.67057 0.29745
 O402 O 1.30185 0.63480 0.24803
 O403 O 1.33088 0.67309 0.29615
 C404 C 1.18865 0.68060 0.32925
 H405 H 1.25498 0.66937 0.20540
 H406 H 1.32852 0.75160 0.29613
 H407 H 1.16926 0.74649 0.29424
 H408 H 1.24627 0.82530 0.20249
 H409 H 1.38620 0.68696 0.24515
 H410 H 1.37588 0.82883 0.25068
 H411 H 1.32025 0.87818 0.24682
 H412 H 1.17478 0.87573 0.25408
 H413 H 1.32954 0.62398 0.24182
 H414 H 1.18112 0.61990 0.24878
 H415 H 1.12593 0.66929 0.25226
 H416 H 1.11595 0.81504 0.25570
 H417 H 1.35491 0.65560 0.29048
 H418 H 1.27157 0.73251 0.37256
 H419 H 1.23049 0.76815 0.12684
 H420 H 1.14716 0.84285 0.20793
 Zr421 Zr 0.74846 1.25292 0.18895
 O422 O 0.78102 1.22241 0.14907
 O423 O 0.70825 1.29024 0.16051
 O424 O 0.70894 1.21431 0.15998
 O425 O 0.82298 1.32644 0.20357
 O426 O 0.67511 1.17789 0.20159
 O427 O 0.78803 1.29243 0.16112
 O428 O 0.66845 1.31932 0.20258
 O429 O 0.69406 1.24945 0.21850
 O430 O 0.74660 1.30528 0.21969
 O431 O 0.75331 1.19871 0.21753
 O432 O 0.80398 1.25268 0.21798
 Zr433 Zr 0.75200 1.24739 0.31041
 Zr434 Zr 0.70042 1.19729 0.24891
 Zr435 Zr 0.79956 1.30363 0.25046
 Zr436 Zr 0.69395 1.30056 0.25030
 O437 O 0.86513 1.30176 0.25147
 O438 O 0.62958 1.28742 0.25175
 O439 O 0.74680 1.30225 0.28220
 O440 O 0.69697 1.24836 0.28102
 O441 O 0.75359 1.19472 0.27996
 O442 O 0.80579 1.25128 0.28031
 C443 C 0.67832 1.31311 0.17067
 C444 C 0.81474 1.31890 0.17159
 C445 C 0.68217 1.18752 0.16982
 O446 O 0.63490 1.19922 0.25188
 O447 O 0.67981 1.17168 0.29558
 O448 O 0.71483 1.20537 0.33812
 C449 C 0.68808 1.17895 0.32757
 O450 O 0.83416 1.17964 0.20214
 Zr451 Zr 0.80623 1.20011 0.24885
 O452 O 0.79201 1.20935 0.33856
 O453 O 0.70858 1.13370 0.24516
 O454 O 0.79881 1.13612 0.24739
 O455 O 0.87108 1.21081 0.25011
 O456 O 0.82861 1.17710 0.29617
 C457 C 0.81976 1.18410 0.32813
 O458 O 0.71812 1.27604 0.35052
 O459 O 0.79149 1.36744 0.25037
 O460 O 0.78935 1.28801 0.33947
 O461 O 0.81830 1.32858 0.29805
 O462 O 0.69898 1.36479 0.24884
 O463 O 0.66987 1.32603 0.29671
 C464 C 0.81207 1.31829 0.32981
 H465 H 0.74584 1.33066 0.20595
 H466 H 0.67221 1.24751 0.29616
 H467 H 0.83145 1.25266 0.29433
 H468 H 0.75453 1.17478 0.20203
 H469 H 0.61458 1.31269 0.24567
 H470 H 0.62484 1.17083 0.25009
 H471 H 0.68053 1.12143 0.24599
 H472 H 0.82597 1.12383 0.25322
 H473 H 0.67130 1.37569 0.24271
 H474 H 0.81955 1.37971 0.24969
 H475 H 0.87482 1.33028 0.25293
 H476 H 0.88481 1.18456 0.25524
 H477 H 0.64588 1.34363 0.29115
 H478 H 0.72918 1.26568 0.37282
 H479 H 0.77032 1.23284 0.12667
 H480 H 0.85362 1.15720 0.20733
 N481 N 0.57424 1.04311 0.03720
 N482 N 0.60321 1.07002 0.04536
 N483 N 0.54476 0.95782 0.06096
 N484 N 0.55334 0.93200 0.08598
 N485 N 0.57419 0.95759 0.03745
 N486 N 0.60364 0.93150 0.04602
 N487 N 0.54466 1.04312 0.06059
 N488 N 0.55259 1.06990 0.08504
 C489 C 0.58890 1.08691 0.07515
 C490 C 0.58982 0.91533 0.07621
 N491 N 0.42588 0.95749 0.03786
 N492 N 0.39715 0.93039 0.04610
 N493 N 0.45551 1.04295 0.06080
 N494 N 0.44691 1.06875 0.08582
 N495 N 0.42594 1.04298 0.03741
 N496 N 0.39636 1.06888 0.04611
 N497 N 0.45557 0.95768 0.06113
 N498 N 0.44794 0.93086 0.08562
 Mn499 Mn 0.50012 1.00039 0.06103
 C500 C 0.41171 0.91363 0.07584
 C501 C 0.41027 1.08519 0.07620
 N502 N 0.57388 0.95692 -0.03759
 N503 N 0.60279 0.93003 -0.04581
 N504 N 0.54446 1.04209 -0.06133
 N505 N 0.55298 1.06789 -0.08640
 N506 N 0.57396 1.04242 -0.03789
 N507 N 0.60340 1.06853 -0.04657
 N508 N 0.54417 0.95681 -0.06086
 N509 N 0.55197 0.92999 -0.08529
 Mn510 Mn 0.57455 1.00002 -0.00022
 C511 C 0.58832 0.91305 -0.07550
 C512 C 0.58950 1.08462 -0.07674
 N513 N 0.42573 1.04268 -0.03767
 N514 N 0.39690 1.06962 -0.04594
 N515 N 0.45490 0.95699 -0.06062
 N516 N 0.44636 0.93051 -0.08516
 N517 N 0.42549 0.95716 -0.03709
 N518 N 0.39609 0.93075 -0.04517
 N519 N 0.45523 1.04233 -0.06113
 N520 N 0.44737 1.06891 -0.08575
 Mn521 Mn 0.42529 1.00010 0.00013
 Mn522 Mn 0.49969 0.99955 -0.06116
 Cl523 Cl 0.49992 1.00003 -0.00006
 C524 C 0.41120 1.08616 -0.07588
 C525 C 0.40990 0.91392 -0.07507
 N526 N 0.95620 0.54374 0.43904
 N527 N 0.93003 0.55242 0.41393
 N528 N 1.04329 0.57303 0.46199
 N529 N 1.07056 0.60150 0.45371
 N530 N 1.04329 0.54399 0.43867
 N531 N 1.07050 0.55184 0.41410
 N532 N 0.95615 0.57261 0.46251
 N533 N 0.92994 0.60175 0.45380
 C534 C 0.91338 0.58835 0.42364
 C535 C 1.08772 0.58752 0.42391
 N536 N 1.04411 0.54496 0.56056
 N537 N 1.07046 0.55420 0.58541
 N538 N 0.95651 0.57297 0.53753
 N539 N 0.92925 0.60141 0.54583
 N540 N 0.95693 0.54421 0.56112
 N541 N 0.93001 0.55222 0.58587
 N542 N 1.04365 0.57362 0.53689
 N543 N 1.06965 0.60315 0.54518
 Mn544 Mn 0.99988 0.57345 0.49972
 C545 C 1.08667 0.59027 0.57533
 C546 C 0.91250 0.58769 0.57590
 N547 N 1.04347 0.45646 0.43891
 N548 N 1.06952 0.44764 0.41375
 N549 N 0.95656 0.42741 0.46282
 N550 N 0.92964 0.39857 0.45462
 N551 N 0.95633 0.45625 0.43930
 N552 N 0.92929 0.44791 0.41473
 N553 N 1.04374 0.42780 0.46257
 N554 N 1.06999 0.39866 0.45397
 Mn555 Mn 0.99983 0.50012 0.43879
 C556 C 1.08634 0.41182 0.42363
 C557 C 0.91238 0.41214 0.42471
 N558 N 0.95756 0.45664 0.56138
 N559 N 0.93138 0.44790 0.58650
 N560 N 1.04450 0.42820 0.53751
 N561 N 1.07156 0.39959 0.54580
 N562 N 1.04467 0.45723 0.56086
 N563 N 1.07180 0.44919 0.58544
 N564 N 0.95736 0.42786 0.53783
 N565 N 0.93106 0.39873 0.54646
 Mn566 Mn 1.00084 0.50076 0.56118
 Mn567 Mn 1.00053 0.42742 0.50020
 Cl568 Cl 1.00027 0.50043 0.49999
 C569 C 0.91461 0.41201 0.57670
 C570 C 1.08882 0.41344 0.57560
 N571 N 0.95724 0.54397 -0.06122
 N572 N 0.93035 0.55207 -0.08589
 N573 N 1.04496 0.57263 -0.03838
 N574 N 1.07183 0.60128 -0.04739
 N575 N 1.04426 0.54365 -0.06177
 N576 N 1.07032 0.55184 -0.08712
 N577 N 0.95753 0.57304 -0.03794
 N578 N 0.93072 0.60180 -0.04635
 C579 C 0.91358 0.58792 -0.07617
 C580 C 1.08786 0.58750 -0.07774
 N581 N 1.04456 0.54379 0.06028
 N582 N 1.07120 0.55190 0.08514
 N583 N 0.95754 0.57323 0.03719
 N584 N 0.93026 0.60168 0.04552
 N585 N 0.95750 0.54421 0.06055
 N586 N 0.93033 0.55204 0.08514
 N587 N 1.04484 0.57269 0.03683
 N588 N 1.07173 0.60137 0.04534
 Mn589 Mn 1.00124 0.57338 -0.00057
 C590 C 1.08838 0.58757 0.07538
 C591 C 0.91309 0.58769 0.07538
 N592 N 1.04362 0.45626 -0.06135
 N593 N 1.07024 0.44801 -0.08620
 N594 N 0.95643 0.42762 -0.03773
 N595 N 0.92901 0.39924 -0.04600
 N596 N 0.95654 0.45661 -0.06111
 N597 N 0.92932 0.44882 -0.08567
 N598 N 1.04371 0.42738 -0.03787
 N599 N 1.07047 0.39860 -0.04635
 Mn600 Mn 1.00041 0.50011 -0.06151
 C601 C 1.08721 0.41229 -0.07641
 C602 C 0.91190 0.41324 -0.07584
 N603 N 0.95718 0.45680 0.06072
 N604 N 0.93073 0.44863 0.08575
 N605 N 1.04421 0.42745 0.03728
 N606 N 1.07135 0.39891 0.04570
 N607 N 1.04427 0.45650 0.06058
 N608 N 1.07133 0.44863 0.08522
 N609 N 0.95690 0.42780 0.03737
 N610 N 0.93015 0.39905 0.04609
 Mn611 Mn 1.00086 0.50033 0.06068
 Mn612 Mn 1.00032 0.42709 -0.00024
 Cl613 Cl 1.00072 0.50024 -0.00041
 C614 C 0.91362 0.41286 0.07617
 C615 C 1.08849 0.41292 0.07555
 N616 N 0.57392 1.04243 0.53758
 N617 N 0.60315 1.06899 0.54583
 N618 N 0.54464 0.95716 0.56134
 N619 N 0.55379 0.93187 0.58663
 N620 N 0.57402 0.95705 0.53776
 N621 N 0.60398 0.93164 0.54659
 N622 N 0.54437 1.04247 0.56100
 N623 N 0.55263 1.06899 0.58559
 C624 C 0.58907 1.08577 0.57570
 C625 C 0.59054 0.91568 0.57695
 N626 N 0.42570 0.95628 0.53815
 N627 N 0.39580 0.93082 0.54740
 N628 N 0.45500 1.04203 0.56116
 N629 N 0.44594 1.06757 0.58628
 N630 N 0.42547 1.04178 0.53775
 N631 N 0.39550 1.06722 0.54649
 N632 N 0.45517 0.95678 0.56164
 N633 N 0.44605 0.93195 0.58731
 Mn634 Mn 0.49981 0.99962 0.56144
 C635 C 0.40932 0.91539 0.57798
 C636 C 0.40909 1.08356 0.57664
 N637 N 0.57394 0.95661 0.46272
 N638 N 0.60327 0.93029 0.45425
 N639 N 0.54450 1.04191 0.43912
 N640 N 0.55375 1.06698 0.41367
 N641 N 0.57397 1.04203 0.46260
 N642 N 0.60406 1.06726 0.45355
 N643 N 0.54437 0.95659 0.43934
 N644 N 0.55267 0.93031 0.41458
 Mn645 Mn 0.57437 0.99952 0.50017
 C646 C 0.58919 0.91366 0.42430
 C647 C 0.59064 1.08310 0.42315
 N648 N 0.42548 1.04177 0.46274
 N649 N 0.39620 1.06818 0.45435
 N650 N 0.45511 0.95657 0.43949
 N651 N 0.44607 0.93122 0.41424
 N652 N 0.42569 0.95638 0.46303
 N653 N 0.39578 0.93088 0.45418
 N654 N 0.45506 1.04186 0.43935
 N655 N 0.44677 1.06823 0.41464
 Mn656 Mn 0.42517 0.99903 0.50041
 Mn657 Mn 0.49975 0.99925 0.43917
 Cl658 Cl 0.49977 0.99934 0.50030
 C659 C 0.41027 1.08489 0.42442
 C660 C 0.40933 0.91493 0.42387
 N661 N 1.07445 1.04207 0.53750
 N662 N 1.10348 1.06878 0.54584
 N663 N 1.04406 0.95729 0.56121
 N664 N 1.05164 0.93152 0.58641
 N665 N 1.07391 0.95657 0.53808
 N666 N 1.10277 0.93002 0.54719
 N667 N 1.04457 1.04234 0.56058
 N668 N 1.05224 1.06914 0.58499
 C669 C 1.08875 1.08582 0.57539
 C670 C 1.08797 0.91427 0.57730
 N671 N 0.92577 0.95733 0.53768
 N672 N 0.89686 0.93054 0.54611
 N673 N 0.95591 1.04276 0.56042
 N674 N 0.94877 1.06994 0.58463
 N675 N 0.92609 1.04275 0.53730
 N676 N 0.89760 1.07008 0.54543
 N677 N 0.95541 0.95763 0.56096
 N678 N 0.94771 0.93112 0.58560
 Mn679 Mn 0.99998 1.00002 0.56093
 C680 C 0.91142 0.91405 0.57594
 C681 C 0.91262 1.08716 0.57490
 N682 N 1.07419 0.95622 0.46292
 N683 N 1.10317 0.92957 0.45444
 N684 N 1.04474 1.04151 0.43932
 N685 N 1.05178 1.06876 0.41514
 N686 N 1.07453 1.04165 0.46248
 N687 N 1.10290 1.06917 0.45440
 N688 N 1.04452 0.95639 0.43966
 N689 N 1.05227 0.92992 0.41502
 Mn690 Mn 1.07487 0.99910 0.50024
 C691 C 1.08860 0.91298 0.42464
 C692 C 1.08785 1.08616 0.42490
 N693 N 0.92625 1.04208 0.46229
 N694 N 0.89738 1.06876 0.45367
 N695 N 0.95589 0.95661 0.43954
 N696 N 0.94871 0.92947 0.41531
 N697 N 0.92599 0.95667 0.46262
 N698 N 0.89740 0.92943 0.45441
 N699 N 0.95602 1.04174 0.43910
 N700 N 0.94838 1.06809 0.41430
 Mn701 Mn 0.92543 0.99970 0.49997
 Mn702 Mn 1.00030 0.99907 0.43924
 Cl703 Cl 1.00015 0.99946 0.50009
 C704 C 0.91204 1.08514 0.42382
 C705 C 0.91245 0.91235 0.42496
 N706 N 0.57395 0.54238 0.03723
 N707 N 0.60276 0.56936 0.04542
 N708 N 0.54402 0.45722 0.06061
 N709 N 0.55108 0.43012 0.08490
 N710 N 0.57380 0.45702 0.03745
 N711 N 0.60219 0.42965 0.04561
 N712 N 0.54425 0.54231 0.06046
 N713 N 0.55180 0.56916 0.08485
 C714 C 0.58806 0.58620 0.07505
 C715 C 0.58715 0.41277 0.07515
 N716 N 0.42574 0.45713 0.03739
 N717 N 0.39700 0.43011 0.04566
 N718 N 0.45569 0.54239 0.06043
 N719 N 0.44882 0.56978 0.08450
 N720 N 0.42588 0.54250 0.03730
 N721 N 0.39764 0.57010 0.04529
 N722 N 0.45544 0.45732 0.06060
 N723 N 0.44796 0.43051 0.08505
 Mn724 Mn 0.49984 0.49981 0.06071
 C725 C 0.41174 0.41338 0.07532
 C726 C 0.41283 0.58721 0.07467
 N727 N 0.57386 0.45699 -0.03749
 N728 N 0.60266 0.43009 -0.04578
 N729 N 0.54404 0.54218 -0.06079
 N730 N 0.55090 0.56964 -0.08483
 N731 N 0.57382 0.54234 -0.03764
 N732 N 0.60202 0.57004 -0.04555
 N733 N 0.54417 0.45710 -0.06072
 N734 N 0.55172 0.43036 -0.08519
 Mn735 Mn 0.57447 0.49968 -0.00012
 C736 C 0.58797 0.41334 -0.07545
 C737 C 0.58686 0.58715 -0.07493
 N738 N 0.42571 0.54224 -0.03768
 N739 N 0.39656 0.56860 -0.04634
 N740 N 0.45562 0.45700 -0.06068
 N741 N 0.44873 0.42958 -0.08473
 N742 N 0.42581 0.45688 -0.03754
 N743 N 0.39754 0.42925 -0.04549
 N744 N 0.45542 0.54207 -0.06092
 N745 N 0.44748 0.56823 -0.08578
 Mn746 Mn 0.42517 0.49969 -0.00013
 Mn747 Mn 0.49982 0.49959 -0.06096
 Cl748 Cl 0.49982 0.49970 -0.00012
 C749 C 0.41102 0.58498 -0.07626
 C750 C 0.41272 0.41213 -0.07487
 C751 C 0.37749 1.14326 0.15551
 C752 C 0.33902 1.15947 0.14562
 C753 C 0.32486 1.15316 0.11160
 C754 C 0.34820 1.12952 0.08842
 C755 C 0.38625 1.11263 0.09885
 C756 C 0.40088 1.12042 0.13241
 H757 H 0.38960 1.14814 0.18135
 H758 H 0.29537 1.16549 0.10331
 H759 H 0.33630 1.12402 0.06262
 H760 H 0.43013 1.10803 0.14123
 C761 C 0.84662 0.61670 0.65281
 C762 C 0.83336 0.65609 0.64422
 C763 C 0.84364 0.67187 0.61145
 C764 C 0.86843 0.64933 0.58850
 C765 C 0.88293 0.61056 0.59789
 C766 C 0.87089 0.59422 0.62993
 H767 H 0.83888 0.60341 0.67766
 H768 H 0.83393 0.70217 0.60414
 H769 H 0.87715 0.66263 0.56390
 H770 H 0.88123 0.56434 0.63787
 C771 C 0.62232 0.85638 0.15516
 C772 C 0.66080 0.84021 0.14520
 C773 C 0.67502 0.84680 0.11123
 C774 C 0.65175 0.87069 0.08818
 C775 C 0.61372 0.88758 0.09870
 C776 C 0.59902 0.87949 0.13219
 H777 H 0.61016 0.85128 0.18096
 H778 H 0.70452 0.83453 0.10289
 H779 H 0.66371 0.87641 0.06243
 H780 H 0.56978 0.89185 0.14107
 C781 C 1.15457 0.38386 0.65241
 C782 C 1.16741 0.34434 0.64383
 C783 C 1.15695 0.32867 0.61107
 C784 C 1.13236 0.35145 0.58816
 C785 C 1.11825 0.39036 0.59754
 C786 C 1.13051 0.40659 0.62956
 H787 H 1.16247 0.39706 0.67725
 H788 H 1.16633 0.29827 0.60377
 H789 H 1.12346 0.33823 0.56358
 H790 H 1.12047 0.43656 0.63750
 C791 C 0.62217 1.14327 -0.15585
 C792 C 0.66057 1.15963 -0.14585
 C793 C 0.67467 1.15327 -0.11182
 C794 C 0.65136 1.12941 -0.08875
 C795 C 0.61340 1.11233 -0.09930
 C796 C 0.59881 1.12018 -0.13284
 H797 H 0.61011 1.14819 -0.18169
 H798 H 0.70410 1.16570 -0.10345
 H799 H 0.66323 1.12386 -0.06295
 H800 H 0.56963 1.10766 -0.14174
 C801 C 1.15652 0.67173 0.38837
 C802 C 1.16702 0.65580 0.35572
 C803 C 1.15402 0.61628 0.34724
 C804 C 1.12973 0.59380 0.37012
 C805 C 1.11741 0.61030 0.40201
 C806 C 1.13170 0.64919 0.41130
 H807 H 1.16604 0.70213 0.39556
 H808 H 1.16197 0.60292 0.32249
 H809 H 1.11955 0.56382 0.36229
 H810 H 1.12275 0.66259 0.43579
 C811 C 0.32370 0.84606 -0.10969
 C812 C 0.33860 0.83794 -0.14319
 C813 C 0.37800 0.85232 -0.15270
 C814 C 0.40146 0.87554 -0.12989
 C815 C 0.38601 0.88551 -0.09703
 C816 C 0.34717 0.87006 -0.08681
 H817 H 0.29347 0.83518 -0.10174
 H818 H 0.39064 0.84595 -0.17812
 H819 H 0.43135 0.88666 -0.13851
 H820 H 0.33462 0.87720 -0.06152
 C821 C 0.84444 0.32713 0.38897
 C822 C 0.83364 0.34309 0.35639
 C823 C 0.84623 0.38279 0.34804
 C824 C 0.87036 0.40542 0.37094
 C825 C 0.88295 0.38895 0.40278
 C826 C 0.86911 0.34983 0.41195
 H827 H 0.83525 0.29659 0.39609
 H828 H 0.83807 0.39622 0.32336
 H829 H 0.88015 0.43555 0.36316
 H830 H 0.87827 0.33641 0.43638
 C831 C 1.15311 0.38390 0.15327
 C832 C 1.16796 0.34522 0.14427
 C833 C 1.15909 0.32993 0.11104
 C834 C 1.13407 0.35218 0.08802
 C835 C 1.11807 0.39025 0.09774
 C836 C 1.12874 0.40617 0.13029
 H837 H 1.15972 0.39678 0.17849
 H838 H 1.17006 0.30017 0.10341
 H839 H 1.12647 0.33922 0.06305
 H840 H 1.11723 0.43550 0.13855
 C841 C 0.62410 0.85776 0.65613
 C842 C 0.66315 0.84269 0.64644
 C843 C 0.67760 0.84991 0.61263
 C844 C 0.65384 0.87314 0.58944
 C845 C 0.61513 0.88878 0.59967
 C846 C 0.60036 0.88026 0.63304
 H847 H 0.61172 0.85217 0.68178
 H848 H 0.70754 0.83852 0.60447
 H849 H 0.66590 0.87927 0.56379
 H850 H 0.57064 0.89170 0.64170
 C851 C 1.16622 0.66459 -0.11248
 C852 C 1.16565 0.65582 -0.14839
 C853 C 1.14049 0.62316 -0.15961
 C854 C 1.11655 0.60088 -0.13634
 C855 C 1.11587 0.61069 -0.10103
 C856 C 1.14105 0.64267 -0.08920
 H857 H 1.18500 0.68918 -0.10238
 H858 H 1.13891 0.61447 -0.18664
 H859 H 1.09756 0.57640 -0.14636
 H860 H 1.14127 0.65070 -0.06200
 C861 C 0.62470 1.14025 0.34354
 C862 C 0.66350 1.15592 0.35336
 C863 C 0.67768 1.14913 0.38732
 C864 C 0.65388 1.12590 0.41054
 C865 C 0.61537 1.10978 0.40024
 C866 C 0.60091 1.11774 0.36668
 H867 H 0.61251 1.14543 0.31778
 H868 H 0.70741 1.16095 0.39560
 H869 H 0.66573 1.12020 0.43632
 H870 H 0.57138 1.10590 0.35793
 C871 C 0.84766 0.61625 0.15278
 C872 C 0.83271 0.65490 0.14378
 C873 C 0.84182 0.67033 0.11063
 C874 C 0.86714 0.64826 0.08770
 C875 C 0.88324 0.61022 0.09744
 C876 C 0.87233 0.59416 0.12990
 H877 H 0.84088 0.60326 0.17794
 H878 H 0.83079 0.70008 0.10299
 H879 H 0.87491 0.66132 0.06279
 H880 H 0.88389 0.56485 0.13818
 C881 C 0.37591 1.14217 0.65554
 C882 C 0.33674 1.15700 0.64595
 C883 C 0.32209 1.14944 0.61227
 C884 C 0.34577 1.12608 0.58912
 C885 C 0.38459 1.11064 0.59926
 C886 C 0.39957 1.11954 0.63249
 H887 H 0.38843 1.14802 0.68109
 H888 H 0.29205 1.16065 0.60419
 H889 H 0.33355 1.11966 0.56359
 H890 H 0.42939 1.10827 0.64108
 C891 C 0.84098 0.33026 -0.11105
 C892 C 0.83200 0.34556 -0.14425
 C893 C 0.84679 0.38429 -0.15329
 C894 C 0.87126 0.40658 -0.13038
 C895 C 0.88210 0.39063 -0.09789
 C896 C 0.86610 0.35254 -0.08811
 H897 H 0.83005 0.30046 -0.10340
 H898 H 0.84007 0.39717 -0.17849
 H899 H 0.88276 0.43593 -0.13868
 H900 H 0.87383 0.33956 -0.06316
 C901 C 0.32227 0.84951 0.38771
 C902 C 0.33693 0.84237 0.35396
 C903 C 0.37613 0.85731 0.34448
 C904 C 0.39982 0.87964 0.36774
 C905 C 0.38483 0.88810 0.40105
 C906 C 0.34597 0.87256 0.41106
 H907 H 0.29221 0.83818 0.39569
 H908 H 0.38866 0.85176 0.31889
 H909 H 0.42966 0.89100 0.35925
 H910 H 0.33375 0.87867 0.43665
 C911 C 1.17110 1.15563 0.38854
 C912 C 1.15382 1.16555 0.35616
 C913 C 1.11369 1.15206 0.34822
 C914 C 1.09186 1.12780 0.37143
 C915 C 1.10980 1.11599 0.40301
 C916 C 1.14930 1.13077 0.41176
 H917 H 1.20208 1.16563 0.39525
 H918 H 1.09938 1.15964 0.32367
 H919 H 1.06132 1.11721 0.36404
 H920 H 1.16375 1.12219 0.43599
 C921 C 0.67060 0.65569 -0.11128
 C922 C 0.65335 0.66575 -0.14361
 C923 C 0.61296 0.65293 -0.15145
 C924 C 0.59088 0.62902 -0.12818
 C925 C 0.60884 0.61696 -0.09670
 C926 C 0.64853 0.63121 -0.08800
 H927 H 0.70175 0.66525 -0.10465
 H928 H 0.59868 0.66071 -0.17596
 H929 H 0.56016 0.61883 -0.13548
 H930 H 0.66297 0.62240 -0.06383
 C931 C 0.88631 1.15235 0.65191
 C932 C 0.84622 1.16586 0.64390
 C933 C 0.82909 1.15612 0.61142
 C934 C 0.85101 1.13147 0.58814
 C935 C 0.89049 1.11672 0.59693
 C936 C 0.90825 1.12830 0.62864
 H937 H 0.90051 1.15977 0.67654
 H938 H 0.79816 1.16614 0.60464
 H939 H 0.83668 1.12305 0.56382
 H940 H 0.93876 1.11773 0.63608
 C941 C 0.38705 0.65285 0.15134
 C942 C 0.34670 0.66577 0.14359
 C943 C 0.32932 0.65575 0.11128
 C944 C 0.35124 0.63125 0.08794
 C945 C 0.39092 0.61694 0.09654
 C946 C 0.40898 0.62893 0.12801
 H947 H 0.40142 0.66057 0.17583
 H948 H 0.29819 0.66538 0.10471
 H949 H 0.33671 0.62250 0.06379
 H950 H 0.43969 0.61870 0.13525
 C951 C 1.12054 0.86133 0.65916
 C952 C 1.15502 0.83803 0.64862
 C953 C 1.16614 0.83878 0.61313
 C954 C 1.14452 0.86341 0.58956
 C955 C 1.11072 0.88676 0.60073
 C956 C 1.09865 0.88486 0.63557
 H957 H 1.11014 0.86175 0.68585
 H958 H 1.19227 0.82139 0.60360
 H959 H 1.15426 0.86427 0.56273
 H960 H 1.07267 0.90250 0.64501
 C961 C 0.61370 0.34799 0.15225
 C962 C 0.65387 0.33474 0.14421
 C963 C 0.67091 0.34442 0.11169
 C964 C 0.64882 0.36880 0.08837
 C965 C 0.60929 0.38334 0.09718
 C966 C 0.59159 0.37180 0.12894
 H967 H 0.59956 0.34056 0.17691
 H968 H 0.70188 0.33455 0.10488
 H969 H 0.66307 0.37720 0.06400
 H970 H 0.56102 0.38224 0.13636
 C971 C 0.82874 0.84371 0.38819
 C972 C 0.84596 0.83398 0.35574
 C973 C 0.88614 0.84737 0.34784
 C974 C 0.90811 0.87130 0.37119
 C975 C 0.89027 0.88289 0.40287
 C976 C 0.85068 0.86826 0.41155
 H977 H 0.79773 0.83378 0.39488
 H978 H 0.90041 0.83994 0.32324
 H979 H 0.93871 0.88179 0.36383
 H980 H 0.83630 0.87668 0.43584
 C981 C 0.32901 0.34374 -0.11150
 C982 C 0.34643 0.33365 -0.14377
 C983 C 0.38687 0.34642 -0.15148
 C984 C 0.40886 0.37029 -0.12813
 C985 C 0.39076 0.38238 -0.09671
 C986 C 0.35099 0.36819 -0.08815
 H987 H 0.29781 0.33423 -0.10497
 H988 H 0.40128 0.33863 -0.17594
 H989 H 0.43964 0.38043 -0.13533
 H990 H 0.33643 0.37702 -0.06403
 C991 C 1.14861 0.38131 -0.15491
 C992 C 1.16354 0.34281 -0.14551
 C993 C 1.15570 0.32818 -0.11192
 C994 C 1.13161 0.35104 -0.08876
 C995 C 1.11570 0.38902 -0.09880
 C996 C 1.12524 0.40419 -0.13181
 H997 H 1.15470 0.39372 -0.18040
 H998 H 1.16699 0.29862 -0.10402
 H999 H 1.12477 0.33873 -0.06338
 H1000 H 1.11369 0.43343 -0.14027
 C1001 C 0.61919 0.85057 0.34672
 C1002 C 0.65901 0.83676 0.35553
 C1003 C 0.67490 0.84602 0.38854
 C1004 C 0.65197 0.87026 0.41159
 C1005 C 0.61267 0.88508 0.40208
 C1006 C 0.59629 0.87419 0.36971
 H1007 H 0.60583 0.84357 0.32169
 H1008 H 0.70554 0.83581 0.39599
 H1009 H 0.66530 0.87813 0.43643
 H1010 H 0.56604 0.88484 0.36163
 C1011 C 0.85140 0.61842 -0.15437
 C1012 C 0.83663 0.65700 -0.14507
 C1013 C 0.84480 0.67185 -0.11161
 C1014 C 0.86909 0.64912 -0.08851
 C1015 C 0.88486 0.61106 -0.09845
 C1016 C 0.87496 0.59567 -0.13131
 H1017 H 0.84506 0.60587 -0.17975
 H1018 H 0.83364 0.70148 -0.10380
 H1019 H 0.87620 0.66159 -0.06325
 H1020 H 0.88639 0.56635 -0.13970
 C1021 C 0.38045 1.14857 0.34712
 C1022 C 0.34064 1.16240 0.35597
 C1023 C 0.32470 1.15294 0.38893
 C1024 C 0.34757 1.12849 0.41188
 C1025 C 0.38685 1.11365 0.40232
 C1026 C 0.40328 1.12475 0.37001
 H1027 H 0.39386 1.15572 0.32212
 H1028 H 0.29407 1.16314 0.39641
 H1029 H 0.33419 1.12047 0.43669
 H1030 H 0.43352 1.11410 0.36188
 C1031 C 1.14920 0.61843 0.15419
 C1032 C 1.16415 0.65698 0.14492
 C1033 C 1.15658 0.67168 0.11132
 C1034 C 1.13271 0.64882 0.08800
 C1035 C 1.11677 0.61078 0.09789
 C1036 C 1.12606 0.59554 0.13092
 H1037 H 1.15511 0.60597 0.17969
 H1038 H 1.16791 0.70129 0.10352
 H1039 H 1.12605 0.66118 0.06262
 H1040 H 1.11447 0.56624 0.13927
 C1041 C 0.67495 1.15360 0.61102
 C1042 C 0.65902 1.16323 0.64393
 C1043 C 0.61907 1.14970 0.65276
 C1044 C 0.59610 1.12593 0.62991
 C1045 C 0.61254 1.11462 0.59768
 C1046 C 0.65194 1.12923 0.58811
 H1047 H 0.70570 1.16359 0.60357
 H1048 H 0.60567 1.15700 0.67772
 H1049 H 0.56576 1.11547 0.63802
 H1050 H 0.66533 1.12103 0.56337
 C1051 C 0.84449 0.32910 0.11181
 C1052 C 0.83730 0.34341 0.14560
 C1053 C 0.85304 0.38156 0.15519
 C1054 C 0.87646 0.40444 0.13203
 C1055 C 0.88524 0.38960 0.09877
 C1056 C 0.86862 0.35194 0.08861
 H1057 H 0.83261 0.29982 0.10374
 H1058 H 0.84752 0.39373 0.18084
 H1059 H 0.88860 0.43342 0.14061
 H1060 H 0.87487 0.33987 0.06305
 C1061 C 0.32834 0.84135 0.61317
 C1062 C 0.33768 0.84155 0.64900
 C1063 C 0.37145 0.86570 0.66012
 C1064 C 0.39468 0.88852 0.63677
 C1065 C 0.38475 0.88905 0.60147
 C1066 C 0.35130 0.86533 0.58978
 H1067 H 0.30281 0.82345 0.60317
 H1068 H 0.38053 0.86710 0.68712
 H1069 H 0.42016 0.90655 0.64668
 H1070 H 0.34304 0.86520 0.56260
 C1071 C 0.32737 1.15663 -0.11080
 C1072 C 0.34278 1.16483 -0.14418
 C1073 C 0.38183 1.14950 -0.15350
 C1074 C 0.40436 1.12535 -0.13065
 C1075 C 0.38831 1.11538 -0.09794
 C1076 C 0.34986 1.13179 -0.08791
 H1077 H 0.29732 1.16806 -0.10297
 H1078 H 0.39482 1.15568 -0.17884
 H1079 H 0.43398 1.11350 -0.13914
 H1080 H 0.33683 1.12470 -0.06277
 C1081 C 0.85288 0.62063 0.34499
 C1082 C 0.83921 0.65969 0.35416
 C1083 C 0.84777 0.67439 0.38759
 C1084 C 0.87112 0.65092 0.41084
 C1085 C 0.88567 0.61231 0.40106
 C1086 C 0.87560 0.59721 0.36817
 H1087 H 0.84624 0.60812 0.31964
 H1088 H 0.83749 0.70435 0.39534
 H1089 H 0.87844 0.66323 0.43611
 H1090 H 0.88614 0.56753 0.35991
 C1091 C 0.61809 1.15069 0.15256
 C1092 C 0.65737 1.16568 0.14343
 C1093 C 0.67304 1.15715 0.11021
 C1094 C 0.65054 1.13229 0.08728
 C1095 C 0.61185 1.11620 0.09714
 C1096 C 0.59556 1.12655 0.12968
 H1097 H 0.60493 1.15712 0.17778
 H1098 H 0.70328 1.16829 0.10253
 H1099 H 0.66377 1.12492 0.06229
 H1100 H 0.56575 1.11497 0.13804
 C1101 C 1.14939 0.62296 0.65264
 C1102 C 1.16107 0.66284 0.64394
 C1103 C 1.15075 0.67797 0.61101
 C1104 C 1.12740 0.65411 0.58794
 C1105 C 1.11460 0.61473 0.59743
 C1106 C 1.12665 0.59923 0.62969
 H1107 H 1.15748 0.61007 0.67755
 H1108 H 1.15949 0.70854 0.60361
 H1109 H 1.11857 0.66675 0.56313
 H1110 H 1.11761 0.56895 0.63770
 C1111 C 0.61763 0.84937 -0.15291
 C1112 C 0.65684 0.83438 -0.14368
 C1113 C 0.67238 0.84286 -0.11042
 C1114 C 0.64984 0.86769 -0.08754
 C1115 C 0.61124 0.88379 -0.09748
 C1116 C 0.59505 0.87350 -0.13007
 H1117 H 0.60456 0.84297 -0.17817
 H1118 H 0.70256 0.83170 -0.10267
 H1119 H 0.66298 0.87502 -0.06251
 H1120 H 0.56531 0.88511 -0.13849
 C1121 C 1.14723 0.37928 0.34526
 C1122 C 1.16086 0.34024 0.35457
 C1123 C 1.15217 0.32568 0.38803
 C1124 C 1.12871 0.34923 0.41114
 C1125 C 1.11415 0.38779 0.40120
 C1126 C 1.12438 0.40278 0.36829
 H1127 H 1.15396 0.39171 0.31989
 H1128 H 1.16242 0.29574 0.39590
 H1129 H 1.12128 0.33701 0.43644
 H1130 H 1.11386 0.43243 0.35990
 C1131 C 0.32801 0.84299 0.11072
 C1132 C 0.34356 0.83463 0.14399
 C1133 C 0.38272 0.84982 0.15324
 C1134 C 0.40521 0.87404 0.13040
 C1135 C 0.38898 0.88422 0.09781
 C1136 C 0.35046 0.86790 0.08784
 H1137 H 0.29787 0.83166 0.10297
 H1138 H 0.39578 0.84349 0.17852
 H1139 H 0.43491 0.88583 0.13881
 H1140 H 0.33731 0.87516 0.06280
 C1141 C 0.84843 0.32595 0.61218
 C1142 C 0.83965 0.34054 0.64559
 C1143 C 0.85332 0.37957 0.65491
 C1144 C 0.87632 0.40305 0.63193
 C1145 C 0.88665 0.38804 0.59908
 C1146 C 0.87204 0.34948 0.58912
 H1147 H 0.83816 0.29601 0.60431
 H1148 H 0.84650 0.39201 0.68025
 H1149 H 0.88688 0.43271 0.64032
 H1150 H 0.87955 0.33724 0.56386
 C1151 C 1.17342 1.15349 0.61197
 C1152 C 1.15668 1.16281 0.64465
 C1153 C 1.11667 1.14921 0.65293
 C1154 C 1.09430 1.12565 0.62964
 C1155 C 1.11155 1.11461 0.59762
 C1156 C 1.15106 1.12925 0.58864
 H1157 H 1.20426 1.16370 0.60500
 H1158 H 1.10273 1.15642 0.67770
 H1159 H 1.06380 1.11512 0.63724
 H1160 H 1.16499 1.12121 0.56406
 C1161 C 0.67281 0.65380 0.11138
 C1162 C 0.65622 0.66297 0.14413
 C1163 C 0.61618 0.64952 0.15248
 C1164 C 0.59367 0.62609 0.12921
 C1165 C 0.61082 0.61509 0.09716
 C1166 C 0.65030 0.62970 0.08807
 H1167 H 0.70365 0.66393 0.10437
 H1168 H 0.60237 0.65669 0.17732
 H1169 H 0.56317 0.61559 0.13687
 H1170 H 0.66412 0.62168 0.06344
 C1171 C 1.17328 0.84557 0.38783
 C1172 C 1.15686 0.83686 0.35491
 C1173 C 1.11706 0.85085 0.34648
 C1174 C 1.09459 0.87414 0.36989
 C1175 C 1.11151 0.88452 0.40219
 C1176 C 1.15082 0.86954 0.41128
 H1177 H 1.20394 0.83506 0.39493
 H1178 H 1.10335 0.84411 0.32152
 H1179 H 1.06426 0.88496 0.36218
 H1180 H 1.16450 0.87708 0.43607
 C1181 C 0.61616 0.35053 -0.15316
 C1182 C 0.65609 0.33691 -0.14477
 C1183 C 0.67259 0.34586 -0.11194
 C1184 C 0.65010 0.36986 -0.08858
 C1185 C 0.61072 0.38461 -0.09768
 C1186 C 0.59365 0.37385 -0.12983
 H1187 H 0.60241 0.34354 -0.17805
 H1188 H 0.70336 0.33560 -0.10490
 H1189 H 0.66386 0.37769 -0.06388
 H1190 H 0.56324 0.38447 -0.13750
 C1191 C 0.88349 1.14718 0.34559
 C1192 C 0.84392 1.16162 0.35428
 C1193 C 0.82772 1.15313 0.38733
 C1194 C 0.85015 1.12901 0.41066
 C1195 C 0.88922 1.11363 0.40134
 C1196 C 0.90594 1.12370 0.36889
 H1197 H 0.89704 1.15371 0.32052
 H1198 H 0.79725 1.16397 0.39464
 H1199 H 0.83664 1.12171 0.43558
 H1200 H 0.93608 1.11254 0.36101
 C1201 C 0.38164 0.64610 -0.15477
 C1202 C 0.34220 0.66069 -0.14590
 C1203 C 0.32625 0.65242 -0.11272
 C1204 C 0.34887 0.62848 -0.08939
 C1205 C 0.38788 0.61308 -0.09884
 C1206 C 0.40428 0.62282 -0.13147
 H1207 H 0.39501 0.65247 -0.17994
 H1208 H 0.29589 0.66339 -0.10526
 H1209 H 0.33560 0.62142 -0.06433
 H1210 H 0.43436 0.61160 -0.13947
 C1211 C 0.82692 0.84615 0.61248
 C1212 C 0.84339 0.83730 0.64535
 C1213 C 0.88319 0.85132 0.65382
 C1214 C 0.90561 0.87483 0.63050
 C1215 C 0.88862 0.88536 0.59827
 C1216 C 0.84934 0.87031 0.58913
 H1217 H 0.79626 0.83561 0.60537
 H1218 H 0.89693 0.84447 0.67874
 H1219 H 0.93593 0.88570 0.63823
 H1220 H 0.83562 0.87797 0.56438
 C1221 C 0.32721 0.34567 0.11186
 C1222 C 0.34385 0.33660 0.14462
 C1223 C 0.38384 0.35018 0.15292
 C1224 C 0.40628 0.37361 0.12957
 C1225 C 0.38908 0.38449 0.09751
 C1226 C 0.34964 0.36976 0.08848
 H1227 H 0.29639 0.33544 0.10490
 H1228 H 0.39768 0.34309 0.17775
 H1229 H 0.43675 0.38420 0.13718
 H1230 H 0.33578 0.37770 0.06385
   
