data_POSCAR
  _audit_creation_date              2014-09-24
  _audit_creation_method            'ToBaCCo'
  _symmetry_space_group_name_H-M    'P1'
  _symmetry_Int_Tables_number       1
  _symmetry_cell_setting            triclinic
  loop_
  _symmetry_equiv_pos_as_xyz
 x,y,z
_cell_length_a 83.6046
_cell_length_b 83.6245
_cell_length_c 83.6668
_cell_angle_alpha 90.213000
_cell_angle_beta 89.358600
_cell_angle_gamma 89.253200
loop_
  _atom_site_label
  _atom_site_type_symbol
  _atom_site_fract_x
  _atom_site_fract_y
  _atom_site_fract_z
C1 C 0.09925 0.01577 0.22939
 H2 H 0.09702 0.02420 0.23902
 C3 C 0.09027 0.01672 0.21541
 H4 H 0.08088 0.02570 0.21461
 C5 C 0.11422 -0.00615 0.21885
 H6 H 0.12385 -0.01478 0.22002
 C7 C 0.10577 -0.00544 0.20461
 H8 H 0.10912 -0.01360 0.19504
 N9 N 0.11073 0.00423 0.23098
 C10 C 0.11889 -0.00010 0.28221
 H11 H 0.13183 -0.00037 0.28178
 C12 C 0.11089 -0.00194 0.29676
 H13 H 0.11777 -0.00338 0.30756
 C14 C 0.09429 0.00207 0.26854
 H15 H 0.08786 0.00321 0.25747
 C16 C 0.08577 0.00036 0.28291
 H17 H 0.07282 0.00033 0.28277
 Zn18 Zn 0.12326 0.00324 0.24969
 N19 N 0.11057 0.00196 0.26849
 C20 C 0.13427 0.03247 0.26237
 N21 N 0.13598 0.02177 0.25018
 C22 C 0.14582 0.02469 0.23750
 C23 C 0.15435 0.03893 0.23669
 C24 C 0.14259 0.04682 0.26206
 C25 C 0.12734 -0.02936 0.24942
 C26 C 0.13507 -0.04419 0.24945
 C27 C 0.16039 -0.03062 0.24954
 C28 C 0.15205 -0.01599 0.24939
 N29 N 0.13583 -0.01567 0.24923
 H30 H 0.12615 0.03012 0.27218
 H31 H 0.14673 0.01609 0.22782
 H32 H 0.16178 0.04123 0.22629
 H33 H 0.14105 0.05517 0.27190
 H34 H 0.11440 -0.02871 0.24969
 H35 H 0.12750 -0.05450 0.25040
 H36 H 0.17328 -0.03011 0.24897
 H37 H 0.15858 -0.00491 0.24940
 C38 C 0.09411 -0.00175 0.29724
 C39 C 0.09346 0.00598 0.20275
 C40 C 0.15201 -0.04529 0.24946
 C41 C 0.15263 0.05032 0.24900
 C42 C 0.39745 0.01316 0.76880
 H43 H 0.39731 0.02324 0.76074
 C44 C 0.40623 0.01388 0.78291
 H45 H 0.41302 0.02449 0.78555
 C46 C 0.38841 -0.01276 0.77538
 H47 H 0.38110 -0.02295 0.77269
 C48 C 0.39710 -0.01261 0.78951
 H49 H 0.39639 -0.02273 0.79751
 N50 N 0.38874 -0.00001 0.76534
 C51 C 0.37956 -0.00111 0.71424
 H52 H 0.36671 -0.00246 0.71478
 C53 C 0.38745 -0.00116 0.69950
 H54 H 0.38058 -0.00271 0.68872
 C55 C 0.40406 0.00205 0.72780
 H56 H 0.41046 0.00320 0.73888
 C57 C 0.41248 0.00207 0.71325
 H58 H 0.42534 0.00347 0.71326
 Zn59 Zn 0.37558 0.00036 0.74708
 N60 N 0.38787 0.00065 0.72799
 C61 C 0.36359 0.03021 0.73664
 N62 N 0.36257 0.01905 0.74839
 C63 C 0.35339 0.02168 0.76169
 C64 C 0.34482 0.03605 0.76359
 C65 C 0.35525 0.04469 0.73805
 C66 C 0.37149 -0.03217 0.74318
 C67 C 0.36356 -0.04668 0.74224
 C68 C 0.33862 -0.03262 0.74759
 C69 C 0.34706 -0.01830 0.74837
 N70 N 0.36323 -0.01839 0.74635
 H71 H 0.37118 0.02810 0.72632
 H72 H 0.35304 0.01275 0.77101
 H73 H 0.33788 0.03811 0.77442
 H74 H 0.35626 0.05340 0.72855
 H75 H 0.38433 -0.03186 0.74149
 H76 H 0.37043 -0.05755 0.74002
 H77 H 0.32575 -0.03238 0.74919
 H78 H 0.34069 -0.00718 0.75058
 C79 C 0.40413 0.00055 0.69883
 C80 C 0.40604 0.00089 0.79350
 C81 C 0.34691 -0.04705 0.74449
 C82 C 0.34588 0.04787 0.75174
 C83 C 0.89746 0.51253 0.27303
 H84 H 0.89721 0.52264 0.26500
 C85 C 0.90652 0.51315 0.28697
 H86 H 0.91355 0.52371 0.28904
 C87 C 0.88865 0.48658 0.27952
 H88 H 0.88126 0.47643 0.27693
 C89 C 0.89766 0.48657 0.29344
 H90 H 0.89661 0.47635 0.30124
 N91 N 0.88873 0.49939 0.26960
 C92 C 0.87899 0.49776 0.21861
 H93 H 0.86616 0.49632 0.21930
 C94 C 0.88673 0.49765 0.20377
 H95 H 0.87975 0.49595 0.19309
 C96 C 0.90362 0.50127 0.23186
 H97 H 0.91012 0.50260 0.24286
 C98 C 0.91187 0.50123 0.21721
 H99 H 0.92471 0.50277 0.21707
 Zn100 Zn 0.87534 0.49966 0.25146
 N101 N 0.88744 0.49973 0.23224
 C102 C 0.86340 0.52938 0.24073
 N103 N 0.86239 0.51841 0.25266
 C104 C 0.85327 0.52129 0.26596
 C105 C 0.84477 0.53574 0.26765
 C106 C 0.85513 0.54392 0.24193
 C107 C 0.87123 0.46711 0.24792
 C108 C 0.86338 0.45254 0.24751
 C109 C 0.83846 0.46655 0.25303
 C110 C 0.84683 0.48094 0.25335
 N111 N 0.86296 0.48090 0.25105
 H112 H 0.87093 0.52709 0.23040
 H113 H 0.85292 0.51252 0.27542
 H114 H 0.83788 0.53800 0.27848
 H115 H 0.85613 0.55245 0.23228
 H116 H 0.88401 0.46748 0.24587
 H117 H 0.87022 0.44172 0.24496
 H118 H 0.82567 0.46671 0.25522
 H119 H 0.84045 0.49206 0.25555
 C120 C 0.90338 0.49952 0.20291
 C121 C 0.90676 0.50005 0.29759
 C122 C 0.84680 0.45208 0.25024
 C123 C 0.84583 0.54736 0.25561
 C124 C 0.60040 0.51331 0.73114
 H125 H 0.59770 0.52164 0.74075
 C126 C 0.59167 0.51401 0.71699
 H127 H 0.58199 0.52265 0.71606
 C128 C 0.61637 0.49202 0.72078
 H129 H 0.62632 0.48378 0.72209
 C130 C 0.60819 0.49249 0.70637
 H131 H 0.61204 0.48453 0.69681
 N132 N 0.61225 0.50219 0.73290
 C133 C 0.61966 0.50007 0.78442
 H134 H 0.63260 0.49991 0.78411
 C135 C 0.61155 0.49951 0.79903
 H136 H 0.61837 0.49876 0.80993
 C137 C 0.59517 0.50074 0.77043
 H138 H 0.58884 0.50095 0.75926
 C139 C 0.58654 0.50019 0.78484
 H140 H 0.57359 0.50036 0.78461
 Zn141 Zn 0.62441 0.50181 0.75187
 N142 N 0.61144 0.50098 0.77052
 C143 C 0.63446 0.53178 0.76365
 N144 N 0.63685 0.52052 0.75206
 C145 C 0.64728 0.52293 0.73974
 C146 C 0.65579 0.53717 0.73872
 C147 C 0.64274 0.54615 0.76311
 C148 C 0.62947 0.46913 0.75121
 C149 C 0.63776 0.45463 0.75206
 C150 C 0.66222 0.46921 0.75572
 C151 C 0.65345 0.48351 0.75448
 N152 N 0.63737 0.48318 0.75226
 H153 H 0.62586 0.52985 0.77314
 H154 H 0.64873 0.51389 0.73054
 H155 H 0.66374 0.53903 0.72861
 H156 H 0.64069 0.55492 0.77248
 H157 H 0.61664 0.46925 0.74963
 H158 H 0.63118 0.44366 0.75071
 H159 H 0.67493 0.46973 0.75793
 H160 H 0.65942 0.49484 0.75570
 C161 C 0.59476 0.49974 0.79940
 C162 C 0.59552 0.50348 0.70432
 C163 C 0.65436 0.45447 0.75455
 C164 C 0.65344 0.54908 0.75043
 C165 C 0.26615 0.09942 0.98605
 H166 H 0.25749 0.09902 0.97655
 C167 C 0.27996 0.08985 0.98511
 H168 H 0.28171 0.08189 0.97498
 C169 C 0.27466 0.11066 1.01051
 H170 H 0.27284 0.11908 1.02019
 C171 C 0.28856 0.10126 1.01008
 H172 H 0.29725 0.10259 1.01948
 N173 N 0.26378 0.10965 0.99858
 C174 C 0.21274 0.12094 1.00254
 H175 H 0.21344 0.13358 1.00504
 C176 C 0.19799 0.11342 1.00359
 H177 H 0.18738 0.12052 1.00632
 C178 C 0.22579 0.09628 0.99664
 H179 H 0.23666 0.08953 0.99435
 C180 C 0.21123 0.08827 0.99752
 H181 H 0.21110 0.07543 0.99582
 Zn182 Zn 0.24576 0.12386 0.99894
 N183 N 0.22628 0.11239 0.99897
 C184 C 0.23471 0.14835 0.97812
 N185 N 0.24678 0.13765 0.98085
 C186 C 0.25950 0.13640 0.97061
 C187 C 0.26005 0.14551 0.95668
 C188 C 0.23485 0.15781 0.96438
 C189 C 0.24301 0.12764 1.03174
 C190 C 0.24286 0.13540 1.04650
 C191 C 0.24823 0.16020 1.03289
 C192 C 0.24839 0.15185 1.01837
 N193 N 0.24587 0.13586 1.01810
 H194 H 0.22491 0.14956 0.98654
 H195 H 0.26923 0.12822 0.97308
 H196 H 0.27003 0.14379 0.94846
 H197 H 0.22512 0.16623 0.96248
 H198 H 0.24076 0.11494 1.03111
 H199 H 0.23977 0.12823 1.05675
 H200 H 0.25107 0.17275 1.03238
 H201 H 0.25075 0.15813 1.00734
 C202 C 0.19708 0.09686 1.00109
 C203 C 0.29144 0.09080 0.99719
 C204 C 0.24557 0.15208 1.04754
 C205 C 0.24752 0.15627 0.95328
 C206 C 0.73128 0.39662 0.98650
 H207 H 0.73956 0.39705 0.97649
 C208 C 0.71657 0.40475 0.98575
 H209 H 0.71361 0.41142 0.97509
 C210 C 0.72467 0.38661 1.01216
 H211 H 0.72761 0.37922 1.02228
 C212 C 0.70991 0.39452 1.01191
 H213 H 0.70188 0.39342 1.02208
 N214 N 0.73501 0.38773 0.99956
 C215 C 0.78667 0.37971 1.00031
 H216 H 0.78668 0.36689 1.00202
 C217 C 0.80108 0.38788 1.00001
 H218 H 0.81215 0.38125 1.00165
 C219 C 0.77207 0.40387 0.99665
 H220 H 0.76071 0.41004 0.99548
 C221 C 0.78626 0.41256 0.99629
 H222 H 0.78570 0.42539 0.99459
 Zn223 Zn 0.75400 0.37506 0.99936
 N224 N 0.77257 0.38771 0.99846
 C225 C 0.76531 0.36157 0.97016
 N226 N 0.75327 0.36148 0.98123
 C227 C 0.73993 0.35264 0.97899
 C228 C 0.73828 0.34349 0.96510
 C229 C 0.76424 0.35247 0.95621
 C230 C 0.75738 0.37174 1.03204
 C231 C 0.75797 0.36421 1.04683
 C232 C 0.75475 0.33886 1.03344
 C233 C 0.75412 0.34699 1.01887
 N234 N 0.75517 0.36316 1.01849
 H235 H 0.77563 0.36896 0.97191
 H236 H 0.73042 0.35297 0.98787
 H237 H 0.72754 0.33661 0.96343
 H238 H 0.77380 0.35295 0.94740
 H239 H 0.75861 0.38459 1.03132
 H240 H 0.76038 0.37174 1.05702
 H241 H 0.75297 0.32610 1.03301
 H242 H 0.75255 0.34036 1.00790
 C243 C 0.80103 0.40453 0.99789
 C244 C 0.70556 0.40354 0.99850
 C245 C 0.75641 0.34739 1.04803
 C246 C 0.75053 0.34340 0.95348
 C247 C 0.23203 0.89651 0.48810
 H248 H 0.24036 0.89662 0.47811
 C249 C 0.21731 0.90456 0.48701
 H250 H 0.21441 0.91086 0.47612
 C251 C 0.22528 0.88727 0.51402
 H252 H 0.22818 0.88019 0.52437
 C253 C 0.21049 0.89513 0.51344
 H254 H 0.20239 0.89431 0.52358
 N255 N 0.23567 0.88799 0.50142
 C256 C 0.28720 0.87940 0.50260
 H257 H 0.28705 0.86661 0.50450
 C258 C 0.30171 0.88740 0.50221
 H259 H 0.31269 0.88067 0.50398
 C260 C 0.27289 0.90366 0.49847
 H261 H 0.26161 0.90992 0.49712
 C262 C 0.28719 0.91218 0.49800
 H263 H 0.28679 0.92497 0.49605
 Zn264 Zn 0.25448 0.87511 0.50141
 N265 N 0.27320 0.88753 0.50055
 C266 C 0.26579 0.86149 0.47228
 N267 N 0.25366 0.86156 0.48325
 C268 C 0.24012 0.85308 0.48081
 C269 C 0.23833 0.84420 0.46677
 C270 C 0.26456 0.85266 0.45818
 C271 C 0.25802 0.87174 0.53410
 C272 C 0.25857 0.86414 0.54888
 C273 C 0.25408 0.83894 0.53553
 C274 C 0.25362 0.84706 0.52094
 N275 N 0.25535 0.86321 0.52056
 H276 H 0.27627 0.86861 0.47418
 H277 H 0.23055 0.85355 0.48961
 H278 H 0.22742 0.83764 0.46492
 H279 H 0.27419 0.85305 0.44942
 H280 H 0.25958 0.88454 0.53339
 H281 H 0.26074 0.87118 0.55950
 H282 H 0.25231 0.82614 0.53569
 H283 H 0.25172 0.84049 0.51000
 C284 C 0.30186 0.90400 0.49977
 C285 C 0.20621 0.90369 0.49970
 C286 C 0.25642 0.84754 0.54976
 C287 C 0.25063 0.84401 0.45520
 C288 C 0.77156 0.59898 0.48313
 H289 H 0.76291 0.59912 0.47361
 C290 C 0.78534 0.58943 0.48170
 H291 H 0.78710 0.58205 0.47115
 C292 C 0.78004 0.60882 0.50820
 H293 H 0.77817 0.61667 0.51835
 C294 C 0.79389 0.59937 0.50732
 H295 H 0.80254 0.60007 0.51683
 N296 N 0.76923 0.60856 0.49617
 C297 C 0.71834 0.61967 0.50128
 H298 H 0.71907 0.63220 0.50430
 C299 C 0.70362 0.61210 0.50229
 H300 H 0.69305 0.61906 0.50553
 C301 C 0.73129 0.59531 0.49405
 H302 H 0.74212 0.58869 0.49122
 C303 C 0.71676 0.58724 0.49487
 H304 H 0.71660 0.57449 0.49260
 Zn305 Zn 0.75127 0.62278 0.49713
 N306 N 0.73180 0.61130 0.49708
 C307 C 0.73976 0.64770 0.47721
 N308 N 0.75198 0.63705 0.47942
 C309 C 0.76455 0.63625 0.46896
 C310 C 0.76474 0.64574 0.45528
 C311 C 0.73954 0.65754 0.46375
 C312 C 0.74818 0.62608 0.53005
 C313 C 0.74768 0.63383 0.54482
 C314 C 0.75434 0.65852 0.53153
 C315 C 0.75468 0.65028 0.51696
 N316 N 0.75160 0.63436 0.51652
 H317 H 0.73009 0.64856 0.48582
 H318 H 0.77442 0.62813 0.47105
 H319 H 0.77458 0.64436 0.44685
 H320 H 0.72968 0.66589 0.46226
 H321 H 0.74578 0.61342 0.52931
 H322 H 0.74508 0.62697 0.55548
 H323 H 0.75662 0.67123 0.53169
 H324 H 0.75736 0.65660 0.50602
 C325 C 0.70268 0.59566 0.49910
 C326 C 0.79677 0.58966 0.49385
 C327 C 0.75072 0.65027 0.54570
 C328 C 0.75201 0.65643 0.45239
 C329 C 0.01314 0.22873 0.10183
 H330 H 0.02346 0.23628 0.10102
 C331 C 0.01314 0.21427 0.09342
 H332 H 0.02363 0.21077 0.08648
 C333 C -0.01287 0.22387 0.11201
 H334 H -0.02310 0.22767 0.11910
 C335 C -0.01338 0.20933 0.10381
 H336 H -0.02401 0.20212 0.10474
 N337 N 0.00042 0.23308 0.11125
 C338 C 0.00482 0.28421 0.11956
 H339 H 0.00645 0.28402 0.13237
 C340 C 0.00540 0.29865 0.11136
 H341 H 0.00698 0.30938 0.11838
 C342 C -0.00031 0.27013 0.09562
 H343 H -0.00247 0.25892 0.08959
 C344 C 0.00013 0.28435 0.08688
 H345 H -0.00125 0.28355 0.07407
 Zn346 Zn 0.00130 0.25178 0.12430
 N347 N 0.00195 0.27037 0.11166
 C348 C 0.03425 0.25373 0.12842
 N349 N 0.02031 0.25147 0.13658
 C350 C 0.02015 0.24992 0.15277
 C351 C 0.03445 0.25002 0.16127
 C352 C 0.04879 0.25385 0.13641
 C353 C -0.02811 0.26475 0.13553
 C354 C -0.04240 0.26513 0.14429
 C355 C -0.03407 0.24088 0.15759
 C356 C -0.01997 0.24090 0.14847
 N357 N -0.01724 0.25273 0.13769
 H358 H 0.03410 0.25578 0.11569
 H359 H 0.00898 0.24879 0.15921
 H360 H 0.03406 0.24890 0.17415
 H361 H 0.05973 0.25534 0.12956
 H362 H -0.02599 0.27382 0.12663
 H363 H -0.05107 0.27453 0.14195
 H364 H -0.03595 0.23139 0.16613
 H365 H -0.01134 0.23125 0.14972
 C366 C 0.00304 0.29907 0.09467
 C367 C -0.00012 0.20420 0.09463
 C368 C -0.04560 0.25305 0.15545
 C369 C 0.04905 0.25194 0.15306
 C370 C 0.00942 0.76690 0.39808
 H371 H 0.01927 0.75839 0.39748
 C372 C 0.01063 0.78069 0.40745
 H373 H 0.02138 0.78260 0.41427
 C374 C -0.01640 0.77491 0.38958
 H375 H -0.02675 0.77285 0.38228
 C376 C -0.01572 0.78881 0.39881
 H377 H -0.02560 0.79729 0.39848
 N378 N -0.00392 0.76431 0.38934
 C379 C -0.00607 0.71358 0.37774
 H380 H -0.00746 0.71451 0.36494
 C381 C -0.00628 0.69862 0.38501
 H382 H -0.00799 0.68807 0.37771
 C383 C -0.00261 0.72635 0.40278
 H384 H -0.00129 0.73721 0.40964
 C385 C -0.00276 0.71158 0.41057
 H386 H -0.00130 0.71120 0.42341
 Zn387 Zn -0.00411 0.74655 0.37527
 N388 N -0.00406 0.72703 0.38662
 C389 C 0.02540 0.73548 0.36241
 N390 N 0.01449 0.74768 0.36218
 C391 C 0.01740 0.76133 0.35391
 C392 C 0.03183 0.76313 0.34553
 C393 C 0.03994 0.73677 0.35423
 C394 C -0.03664 0.74324 0.37119
 C395 C -0.05125 0.74281 0.36338
 C396 C -0.03773 0.75043 0.33899
 C397 C -0.02329 0.75045 0.34730
 N398 N -0.02305 0.74702 0.36313
 H399 H 0.02309 0.72486 0.36931
 H400 H 0.00869 0.77101 0.35422
 H401 H 0.03413 0.77425 0.33938
 H402 H 0.04846 0.72693 0.35464
 H403 H -0.03610 0.74063 0.38383
 H404 H -0.06167 0.74046 0.37072
 H405 H -0.03707 0.75266 0.32629
 H406 H -0.01229 0.75310 0.34102
 C407 C -0.00451 0.69745 0.40164
 C408 C -0.00200 0.79193 0.40778
 C409 C -0.05225 0.74644 0.34689
 C410 C 0.04342 0.75083 0.34584
 C411 C 0.51178 0.26808 0.89664
 H412 H 0.52159 0.25956 0.89560
 C413 C 0.51342 0.28184 0.90598
 H414 H 0.52447 0.28374 0.91230
 C415 C 0.48560 0.27615 0.88931
 H416 H 0.47494 0.27415 0.88246
 C417 C 0.48669 0.28999 0.89858
 H418 H 0.47680 0.29848 0.89876
 N419 N 0.49806 0.26554 0.88849
 C420 C 0.49511 0.21479 0.87726
 H421 H 0.49340 0.21561 0.86448
 C422 C 0.49483 0.19992 0.88471
 H423 H 0.49277 0.18932 0.87758
 C424 C 0.49934 0.22777 0.90205
 H425 H 0.50097 0.23869 0.90875
 C426 C 0.49913 0.21310 0.91002
 H427 H 0.50086 0.21285 0.92282
 Zn428 Zn 0.49732 0.24776 0.87449
 N429 N 0.49751 0.22830 0.88593
 C430 C 0.52609 0.23625 0.86009
 N431 N 0.51552 0.24875 0.86086
 C432 C 0.51842 0.26265 0.85302
 C433 C 0.53248 0.26442 0.84404
 C434 C 0.54020 0.23745 0.85115
 C435 C 0.46449 0.24529 0.87111
 C436 C 0.44981 0.24495 0.86340
 C437 C 0.46343 0.25085 0.83852
 C438 C 0.47792 0.25097 0.84672
 N439 N 0.47814 0.24832 0.86275
 H440 H 0.52384 0.22546 0.86673
 H441 H 0.50994 0.27250 0.85405
 H442 H 0.53467 0.27560 0.83796
 H443 H 0.54863 0.22750 0.85099
 H444 H 0.46506 0.24310 0.88383
 H445 H 0.43905 0.24268 0.87031
 H446 H 0.46342 0.25286 0.82574
 H447 H 0.48894 0.25309 0.84026
 C448 C 0.49693 0.19892 0.90130
 C449 C 0.50080 0.29306 0.90693
 C450 C 0.44914 0.24774 0.84689
 C451 C 0.54362 0.25173 0.84312
 C452 C 0.51455 0.73128 0.60348
 H453 H 0.52454 0.73935 0.60277
 C454 C 0.51519 0.71669 0.59527
 H455 H 0.52575 0.71359 0.58826
 C456 C 0.48901 0.72517 0.61420
 H457 H 0.47895 0.72833 0.62182
 C458 C 0.48915 0.71050 0.60622
 H459 H 0.47898 0.70271 0.60754
 N460 N 0.50160 0.73521 0.61274
 C461 C 0.50038 0.78683 0.61973
 H462 H 0.49907 0.78707 0.63261
 C463 C 0.50041 0.80109 0.61119
 H464 H 0.49895 0.81230 0.61760
 C465 C 0.50345 0.77179 0.59580
 H466 H 0.50454 0.76032 0.58987
 C467 C 0.50354 0.78582 0.58675
 H468 H 0.50495 0.78503 0.57389
 Zn469 Zn 0.50198 0.75421 0.62508
 N470 N 0.50211 0.77258 0.61200
 C471 C 0.53160 0.76539 0.63631
 N472 N 0.52071 0.75352 0.63761
 C473 C 0.52349 0.74053 0.64697
 C474 C 0.53768 0.73919 0.65559
 C475 C 0.54587 0.76458 0.64476
 C476 C 0.46943 0.75877 0.63023
 C477 C 0.45503 0.76016 0.63870
 C478 C 0.46942 0.75534 0.66314
 C479 C 0.48362 0.75418 0.65419
 N480 N 0.48332 0.75571 0.63801
 H481 H 0.52945 0.77539 0.62847
 H482 H 0.51476 0.73111 0.64757
 H483 H 0.53969 0.72880 0.66302
 H484 H 0.55450 0.77402 0.64330
 H485 H 0.46958 0.76004 0.61736
 H486 H 0.44406 0.76232 0.63224
 H487 H 0.46980 0.75406 0.67601
 H488 H 0.49481 0.75203 0.66018
 C489 C 0.50215 0.80073 0.59449
 C490 C 0.50243 0.70600 0.59674
 C491 C 0.45489 0.75836 0.65536
 C492 C 0.54909 0.75133 0.65451
 C493 C 0.89744 0.98701 0.72988
 H494 H 0.89756 0.97667 0.73762
 C495 C 0.90629 0.98702 0.71643
 H496 H 0.91380 0.97668 0.71392
 C497 C 0.88781 1.01353 0.72543
 H498 H 0.88052 1.02377 0.72882
 C499 C 0.89729 1.01410 0.71052
 H500 H 0.89585 1.02469 0.70330
 N501 N 0.88784 1.00075 0.73422
 C502 C 0.87778 1.00289 0.78630
 H503 H 0.86486 1.00389 0.78614
 C504 C 0.88544 1.00308 0.80020
 H505 H 0.87829 1.00376 0.81103
 C506 C 0.90199 0.99960 0.77128
 H507 H 0.90835 0.99824 0.76004
 C508 C 0.91101 0.99969 0.78638
 H509 H 0.92391 0.99898 0.78547
 Zn510 Zn 0.87430 1.00015 0.75250
 N511 N 0.88647 1.00094 0.77151
 C512 C 0.86221 0.97140 0.76531
 N513 N 0.86264 0.98077 0.75206
 C514 C 0.85579 0.97594 0.73821
 C515 C 0.84812 0.96119 0.73735
 C516 C 0.85459 0.95668 0.76503
 C517 C 0.86407 1.03112 0.76124
 C518 C 0.85542 1.04540 0.76000
 C519 C 0.83916 1.03317 0.73978
 C520 C 0.84809 1.01903 0.74149
 N521 N 0.86037 1.01829 0.75202
 H522 H 0.86795 0.97512 0.77614
 H523 H 0.85671 0.98331 0.72766
 H524 H 0.84311 0.95738 0.72611
 H525 H 0.85427 0.94958 0.77582
 H526 H 0.87415 1.03053 0.76919
 H527 H 0.85864 1.05545 0.76745
 H528 H 0.82980 1.03369 0.73095
 H529 H 0.84555 1.00885 0.73401
 C530 C 0.90324 1.00135 0.80058
 C531 C 0.90621 1.00131 0.70570
 C532 C 0.84296 1.04669 0.74894
 C533 C 0.84756 0.95128 0.75088
 C534 C 0.39540 0.48836 0.23194
 H535 H 0.39595 0.47822 0.23991
 C536 C 0.40363 0.48786 0.21728
 H537 H 0.41044 0.47721 0.21405
 C538 C 0.38508 0.51417 0.22610
 H539 H 0.37761 0.52431 0.22932
 C540 C 0.39322 0.51424 0.21148
 H541 H 0.39217 0.52467 0.20392
 N542 N 0.38628 0.50137 0.23602
 C543 C 0.37922 0.50414 0.28764
 H544 H 0.36633 0.50552 0.28791
 C545 C 0.38773 0.50445 0.30185
 H546 H 0.38123 0.50588 0.31304
 C547 C 0.40315 0.50011 0.27263
 H548 H 0.40907 0.49850 0.26118
 C549 C 0.41217 0.50040 0.28661
 H550 H 0.42506 0.49910 0.28577
 Zn551 Zn 0.37387 0.50113 0.25515
 N552 N 0.38695 0.50177 0.27344
 C553 C 0.36290 0.47204 0.26805
 N554 N 0.36175 0.48209 0.25536
 C555 C 0.35298 0.47817 0.24236
 C556 C 0.34507 0.46353 0.24173
 C557 C 0.35509 0.45743 0.26799
 C558 C 0.36816 0.53363 0.25844
 C559 C 0.35965 0.54805 0.25847
 C560 C 0.33539 0.53335 0.25403
 C561 C 0.34443 0.51914 0.25403
 N562 N 0.36056 0.51959 0.25596
 H563 H 0.37011 0.47514 0.27818
 H564 H 0.35247 0.48625 0.23230
 H565 H 0.33856 0.46043 0.23107
 H566 H 0.35610 0.44974 0.27833
 H567 H 0.38099 0.53361 0.26000
 H568 H 0.36611 0.55908 0.25987
 H569 H 0.32258 0.53281 0.25242
 H570 H 0.33860 0.50782 0.25229
 C571 C 0.40444 0.50252 0.30150
 C572 C 0.40246 0.50088 0.20674
 C573 C 0.34303 0.54808 0.25614
 C574 C 0.34622 0.45284 0.25462
 C575 C 0.60431 0.99095 0.26761
 H576 H 0.60309 0.98076 0.25972
 C577 C 0.59706 0.99106 0.28199
 H578 H 0.59038 0.98063 0.28543
 C579 C 0.61617 1.01626 0.27214
 H580 H 0.62392 1.02585 0.26862
 C581 C 0.60828 1.01705 0.28793
 H582 H 0.60985 1.02791 0.29473
 N583 N 0.61412 1.00407 0.26273
 C584 C 0.61843 1.00401 0.21078
 H585 H 0.63131 1.00473 0.20982
 C586 C 0.60922 1.00386 0.19702
 H587 H 0.61518 1.00428 0.18547
 C588 C 0.59519 1.00214 0.22713
 H589 H 0.58982 1.00158 0.23891
 C590 C 0.58548 1.00197 0.21361
 H591 H 0.57262 1.00137 0.21512
 Zn592 Zn 0.62545 1.00302 0.24297
 N593 N 0.61136 1.00298 0.22544
 C594 C 0.63486 0.97263 0.23133
 N595 N 0.63793 0.98389 0.24262
 C596 C 0.64906 0.98119 0.25408
 C597 C 0.65789 0.96686 0.25420
 C598 C 0.64332 0.95816 0.23105
 C599 C 0.62998 1.03538 0.23859
 C600 C 0.63790 1.04992 0.23814
 C601 C 0.66288 1.03560 0.24160
 C602 C 0.65440 1.02128 0.24191
 N603 N 0.63820 1.02149 0.24083
 H604 H 0.62560 0.97465 0.22266
 H605 H 0.65102 0.99016 0.26318
 H606 H 0.66685 0.96504 0.26328
 H607 H 0.64039 0.94929 0.22213
 H608 H 0.61708 1.03519 0.23775
 H609 H 0.63061 1.06064 0.23736
 H610 H 0.67577 1.03487 0.24230
 H611 H 0.66079 1.01007 0.24325
 C612 C 0.59251 1.00281 0.19829
 C613 C 0.59909 1.00490 0.29315
 C614 C 0.65467 1.05040 0.23997
 C615 C 0.65507 0.95510 0.24254
 C616 C 0.10463 0.49160 0.77120
 H617 H 0.10348 0.48162 0.76304
 C618 C 0.09691 0.49133 0.78613
 H619 H 0.08991 0.48102 0.78938
 C620 C 0.11589 0.51673 0.77717
 H621 H 0.12356 0.52648 0.77391
 C622 C 0.10827 0.51705 0.79205
 H623 H 0.10987 0.52733 0.79974
 N624 N 0.11393 0.50418 0.76703
 C625 C 0.11885 0.50579 0.71514
 H626 H 0.13175 0.50636 0.71436
 C627 C 0.10982 0.50619 0.70126
 H628 H 0.11592 0.50689 0.68980
 C629 C 0.09539 0.50370 0.73112
 H630 H 0.08986 0.50282 0.74281
 C631 C 0.08584 0.50408 0.71748
 H632 H 0.07297 0.50356 0.71881
 Zn633 Zn 0.12544 0.50362 0.74734
 N634 N 0.11159 0.50438 0.72966
 C635 C 0.13465 0.47346 0.73491
 N636 N 0.13766 0.48436 0.74656
 C637 C 0.14858 0.48125 0.75811
 C638 C 0.15727 0.46684 0.75797
 C639 C 0.14297 0.45891 0.73437
 C640 C 0.13066 0.53610 0.74469
 C641 C 0.13900 0.55040 0.74515
 C642 C 0.16368 0.53520 0.74700
 C643 C 0.15482 0.52113 0.74662
 N644 N 0.13857 0.52187 0.74596
 H645 H 0.12555 0.47583 0.72615
 H646 H 0.15050 0.48996 0.76746
 H647 H 0.16609 0.46470 0.76712
 H648 H 0.14010 0.45032 0.72517
 H649 H 0.11775 0.53632 0.74391
 H650 H 0.13244 0.56163 0.74452
 H651 H 0.17656 0.53449 0.74810
 H652 H 0.16092 0.50969 0.74725
 C653 C 0.09308 0.50530 0.70229
 C654 C 0.09878 0.50416 0.79685
 C655 C 0.15569 0.55007 0.74667
 C656 C 0.15451 0.45543 0.74596
 C657 C 0.76990 0.89424 0.01127
 H658 H 0.76158 0.89470 0.02126
 C659 C 0.78426 0.90261 0.01197
 H660 H 0.78692 0.90941 0.02263
 C661 C 0.77689 0.88405 -0.01436
 H662 H 0.77425 0.87654 -0.02447
 C663 C 0.79126 0.89231 -0.01422
 H664 H 0.79920 0.89135 -0.02450
 N665 N 0.76651 0.88516 -0.00176
 C666 C 0.71500 0.87782 -0.00203
 H667 H 0.71519 0.86495 -0.00336
 C668 C 0.70045 0.88603 -0.00073
 H669 H 0.68942 0.87942 -0.00126
 C670 C 0.72927 0.90203 0.00030
 H671 H 0.74055 0.90815 0.00077
 C672 C 0.71490 0.91078 0.00148
 H673 H 0.71521 0.92364 0.00298
 Zn674 Zn 0.74766 0.87279 -0.00163
 N675 N 0.72901 0.88582 -0.00112
 C676 C 0.73647 0.86229 0.02837
 N677 N 0.74792 0.85978 0.01692
 C678 C 0.75985 0.84879 0.01902
 C679 C 0.76025 0.83944 0.03286
 C680 C 0.73646 0.85331 0.04236
 C681 C 0.74514 0.86879 -0.03441
 C682 C 0.74504 0.86089 -0.04910
 C683 C 0.74749 0.83574 -0.03517
 C684 C 0.74761 0.84416 -0.02070
 N685 N 0.74678 0.86042 -0.02061
 H686 H 0.72746 0.87150 0.02689
 H687 H 0.76905 0.84728 0.00993
 H688 H 0.76967 0.83056 0.03419
 H689 H 0.72738 0.85578 0.05139
 H690 H 0.74431 0.88170 -0.03397
 H691 H 0.74432 0.86789 -0.05993
 H692 H 0.74820 0.82281 -0.03503
 H693 H 0.74845 0.83768 -0.00959
 C694 C 0.70028 0.90269 0.00127
 C695 C 0.79524 0.90160 -0.00086
 C696 C 0.74636 0.84414 -0.04965
 C697 C 0.74838 0.84161 0.04474
 C698 C 0.27483 0.39603 0.51168
 H699 H 0.26583 0.39789 0.52091
 C700 C 0.28917 0.40445 0.51222
 H701 H 0.29111 0.41289 0.52182
 C702 C 0.28360 0.38229 0.48829
 H703 H 0.28158 0.37344 0.47914
 C704 C 0.29814 0.39023 0.48852
 H705 H 0.30703 0.38765 0.47932
 N706 N 0.27220 0.38540 0.49966
 C707 C 0.22071 0.37948 0.49534
 H708 H 0.22099 0.36676 0.49288
 C709 C 0.20615 0.38774 0.49565
 H710 H 0.19534 0.38129 0.49303
 C711 C 0.23465 0.40317 0.50143
 H712 H 0.24576 0.40915 0.50367
 C713 C 0.22025 0.41190 0.50214
 H714 H 0.22052 0.42447 0.50522
 Zn715 Zn 0.25291 0.37368 0.49927
 N716 N 0.23455 0.38717 0.49847
 C717 C 0.23997 0.36476 0.52900
 N718 N 0.25179 0.36130 0.51817
 C719 C 0.26324 0.35006 0.52128
 C720 C 0.26295 0.34166 0.53573
 C721 C 0.23936 0.35684 0.54361
 C722 C 0.25212 0.36903 0.46660
 C723 C 0.25190 0.36090 0.45205
 C724 C 0.25221 0.33592 0.46647
 C725 C 0.25245 0.34457 0.48082
 N726 N 0.25259 0.36084 0.48059
 H727 H 0.23117 0.37396 0.52653
 H728 H 0.27272 0.34777 0.51263
 H729 H 0.27221 0.33285 0.53814
 H730 H 0.22991 0.35984 0.55211
 H731 H 0.25211 0.38197 0.46679
 H732 H 0.25193 0.36771 0.44107
 H733 H 0.25200 0.32298 0.46683
 H734 H 0.25246 0.33829 0.49207
 C735 C 0.20568 0.40411 0.49950
 C736 C 0.30104 0.40151 0.50054
 C737 C 0.25195 0.34411 0.45182
 C738 C 0.25099 0.34520 0.54716
 C739 C 0.22805 0.60434 0.01151
 H740 H 0.23596 0.60278 0.02155
 C741 C 0.21347 0.59633 0.01119
 H742 H 0.21045 0.58903 0.02139
 C743 C 0.22235 0.61688 -0.01307
 H744 H 0.22567 0.62507 -0.02244
 C745 C 0.20774 0.60909 -0.01396
 H746 H 0.20074 0.61107 -0.02455
 N747 N 0.23223 0.61434 -0.00054
 C748 C 0.28408 0.61870 0.00163
 H749 H 0.28475 0.63161 0.00164
 C750 C 0.29803 0.60949 0.00275
 H751 H 0.30946 0.61538 0.00345
 C752 C 0.26829 0.59538 0.00071
 H753 H 0.25665 0.58997 -0.00006
 C754 C 0.28201 0.58567 0.00162
 H755 H 0.28084 0.57278 0.00169
 Zn756 Zn 0.25168 0.62567 0.00085
 N757 N 0.26958 0.61158 0.00101
 C758 C 0.26124 0.63306 0.03210
 N759 N 0.25116 0.63759 0.02024
 C760 C 0.24028 0.64965 0.02255
 C761 C 0.23965 0.65802 0.03708
 C762 C 0.26087 0.64092 0.04681
 C763 C 0.25584 0.63089 -0.03152
 C764 C 0.25681 0.63924 -0.04586
 C765 C 0.25511 0.66399 -0.03094
 C766 C 0.25414 0.65512 -0.01681
 N767 N 0.25414 0.63885 -0.01740
 H768 H 0.26941 0.62310 0.03035
 H769 H 0.23202 0.65271 0.01314
 H770 H 0.23094 0.66760 0.03878
 H771 H 0.26906 0.63716 0.05604
 H772 H 0.25598 0.61795 -0.03163
 H773 H 0.25750 0.63257 -0.05697
 H774 H 0.25496 0.67692 -0.03028
 H775 H 0.25325 0.66126 -0.00545
 C776 C 0.29708 0.59276 0.00294
 C777 C 0.20283 0.59863 -0.00167
 C778 C 0.25627 0.65603 -0.04575
 C779 C 0.25001 0.65358 0.04944
 C780 C 0.72871 0.10387 0.50866
 H781 H 0.73570 0.10340 0.51946
 C782 C 0.71452 0.09526 0.50769
 H783 H 0.71063 0.08838 0.51792
 C784 C 0.72499 0.11399 0.48255
 H785 H 0.72907 0.12125 0.47271
 C786 C 0.71089 0.10545 0.48101
 H787 H 0.70441 0.10618 0.46990
 N788 N 0.73343 0.11339 0.49636
 C789 C 0.78497 0.12143 0.49895
 H790 H 0.78537 0.13418 0.49716
 C791 C 0.79927 0.11276 0.49988
 H792 H 0.81047 0.11911 0.49943
 C793 C 0.76999 0.09771 0.50115
 H794 H 0.75857 0.09183 0.50143
 C795 C 0.78406 0.08852 0.50209
 H796 H 0.78327 0.07565 0.50301
 Zn797 Zn 0.75168 0.12668 0.49825
 N798 N 0.77066 0.11390 0.49971
 C799 C 0.76173 0.15019 0.52031
 N800 N 0.74963 0.14010 0.51673
 C801 C 0.73645 0.13924 0.52638
 C802 C 0.73565 0.14777 0.54076
 C803 C 0.76145 0.15893 0.53458
 C804 C 0.76315 0.13557 0.46768
 C805 C 0.76271 0.14381 0.45322
 C806 C 0.74125 0.16040 0.46396
 C807 C 0.74218 0.15190 0.47827
 N808 N 0.75287 0.13962 0.47978
 H809 H 0.77179 0.15134 0.51227
 H810 H 0.72654 0.13184 0.52310
 H811 H 0.72517 0.14669 0.54837
 H812 H 0.77156 0.16631 0.53747
 H813 H 0.77131 0.12555 0.46899
 H814 H 0.77093 0.14032 0.44371
 H815 H 0.73223 0.16971 0.46278
 H816 H 0.73395 0.15467 0.48799
 C817 C 0.79897 0.09606 0.50143
 C818 C 0.70523 0.09622 0.49382
 C819 C 0.75143 0.15621 0.45108
 C820 C 0.74845 0.15748 0.54522
 C821 C 0.98931 0.72805 0.89884
 H822 H 0.98037 0.73702 0.90199
 C823 C 0.98963 0.71403 0.90654
 H824 H 0.98066 0.71190 0.91567
 C825 C 1.01097 0.72030 0.88163
 H826 H 1.01905 0.72258 0.87178
 C827 C 1.01159 0.70461 0.88952
 H828 H 1.02089 0.69632 0.88563
 N829 N 1.00068 0.73121 0.88627
 C830 C 1.00117 0.78397 0.88106
 H831 H 1.00107 0.78434 0.86813
 C832 C 1.00148 0.79755 0.88946
 H833 H 1.00114 0.80867 0.88293
 C834 C 1.00060 0.76790 0.90451
 H835 H 1.00060 0.75639 0.91031
 C836 C 1.00082 0.78262 0.91435
 H837 H 1.00127 0.78120 0.92718
 Zn838 Zn 1.00007 0.75091 0.87510
 N839 N 1.00053 0.76881 0.88899
 C840 C 0.96970 0.76292 0.86636
 N841 N 0.98108 0.75160 0.86299
 C842 C 0.97874 0.74030 0.85155
 C843 C 0.96467 0.74037 0.84268
 C844 C 0.95546 0.76339 0.85785
 C845 C 1.03262 0.75250 0.86984
 C846 C 1.04707 0.75322 0.86145
 C847 C 1.03230 0.75408 0.83680
 C848 C 1.01807 0.75333 0.84571
 N849 N 1.01852 0.75235 0.86192
 H850 H 0.97149 0.77147 0.87585
 H851 H 0.98786 0.73124 0.84930
 H852 H 0.96317 0.73145 0.83342
 H853 H 0.94647 0.77235 0.86096
 H854 H 1.03260 0.75180 0.88275
 H855 H 1.05815 0.75289 0.86802
 H856 H 1.03177 0.75489 0.82390
 H857 H 1.00672 0.75355 0.83966
 C858 C 1.00130 0.79716 0.90730
 C859 C 1.00146 0.70131 0.90172
 C860 C 1.04706 0.75397 0.84469
 C861 C 0.95279 0.75207 0.84577
 C862 C 0.48921 0.23085 0.39844
 H863 H 0.48007 0.23967 0.40142
 C864 C 0.48953 0.21615 0.40638
 H865 H 0.48063 0.21372 0.41552
 C866 C 0.51156 0.22298 0.38247
 H867 H 0.51992 0.22550 0.37291
 C868 C 0.51218 0.20811 0.38991
 H869 H 0.52127 0.19946 0.38624
 N870 N 0.50026 0.23405 0.38687
 C871 C 0.49849 0.28601 0.38175
 H872 H 0.49827 0.28644 0.36883
 C873 C 0.49768 0.30014 0.39059
 H874 H 0.49698 0.31147 0.38440
 C875 C 0.49981 0.27062 0.40545
 H876 H 0.50075 0.25909 0.41116
 C877 C 0.49921 0.28454 0.41479
 H878 H 0.49945 0.28361 0.42770
 Zn879 Zn 0.49913 0.25358 0.37549
 N880 N 0.49912 0.27162 0.38923
 C881 C 0.46823 0.26442 0.36706
 N882 N 0.48002 0.25357 0.36352
 C883 C 0.47805 0.24226 0.35201
 C884 C 0.46400 0.24197 0.34310
 C885 C 0.45400 0.26450 0.35853
 C886 C 0.53163 0.25580 0.36986
 C887 C 0.54596 0.25644 0.36124
 C888 C 0.53085 0.25670 0.33679
 C889 C 0.51675 0.25603 0.34591
 N890 N 0.51743 0.25531 0.36214
 H891 H 0.46967 0.27288 0.37668
 H892 H 0.48746 0.23353 0.34968
 H893 H 0.46281 0.23310 0.33375
 H894 H 0.44472 0.27312 0.36172
 H895 H 0.53179 0.25533 0.38278
 H896 H 0.55713 0.25629 0.36766
 H897 H 0.53013 0.25723 0.32389
 H898 H 0.50533 0.25605 0.34001
 C899 C 0.49785 0.29951 0.40733
 C900 C 0.50107 0.20455 0.40202
 C901 C 0.54572 0.25678 0.34447
 C902 C 0.45177 0.25327 0.34627
 C903 C 0.98636 0.27647 0.61444
 H904 H 0.97647 0.27391 0.62239
 C905 C 0.98661 0.29102 0.60636
 H906 H 0.97635 0.29891 0.60786
 C907 C 1.01125 0.26884 0.60288
 H908 H 1.02102 0.26026 0.60194
 C909 C 1.01200 0.28325 0.59450
 H910 H 1.02266 0.28544 0.58746
 N911 N 0.99859 0.26575 0.61265
 C912 C 0.99751 0.21435 0.62082
 H913 H 0.99662 0.21463 0.63373
 C914 C 0.99727 0.19976 0.61274
 H915 H 0.99602 0.18885 0.61956
 C916 C 0.99976 0.22838 0.59636
 H917 H 1.00062 0.23960 0.59005
 C918 C 0.99956 0.21399 0.58776
 H919 H 1.00052 0.21425 0.57485
 Zn920 Zn 0.99906 0.24702 0.62530
 N921 N 0.99895 0.22825 0.61260
 C922 C 0.96661 0.24364 0.63062
 N923 N 0.98051 0.24626 0.63843
 C924 C 0.98084 0.24754 0.65464
 C925 C 0.96666 0.24641 0.66361
 C926 C 0.95225 0.24230 0.63909
 C927 C 1.02926 0.23575 0.63538
 C928 C 1.04391 0.23653 0.64309
 C929 C 1.03531 0.26147 0.65522
 C930 C 1.02079 0.26020 0.64717
 N931 N 1.01804 0.24748 0.63748
 H932 H 0.96673 0.24254 0.61773
 H933 H 0.99205 0.24932 0.66064
 H934 H 0.96707 0.24738 0.67651
 H935 H 0.94130 0.24038 0.63261
 H936 H 1.02702 0.22583 0.62745
 H937 H 1.05219 0.22662 0.64138
 H938 H 1.03719 0.27213 0.66226
 H939 H 1.01184 0.26960 0.64833
 C940 C 0.99843 0.19942 0.59600
 C941 C 0.99967 0.29489 0.59630
 C942 C 1.04740 0.24964 0.65311
 C943 C 0.95215 0.24368 0.65581
 C944 C 0.48450 0.77588 0.11250
 H945 H 0.47445 0.77267 0.11998
 C946 C 0.48400 0.79033 0.10420
 H947 H 0.47354 0.79803 0.10541
 C948 C 0.51004 0.76969 0.10150
 H949 H 0.52017 0.76165 0.10038
 C950 C 0.51005 0.78404 0.09298
 H951 H 0.52038 0.78694 0.08568
 N952 N 0.49756 0.76604 0.11135
 C953 C 0.50224 0.71474 0.11960
 H954 H 0.50410 0.71495 0.13238
 C955 C 0.50235 0.70020 0.11141
 H956 H 0.50414 0.68926 0.11806
 C957 C 0.49695 0.72885 0.09568
 H958 H 0.49473 0.74008 0.08968
 C959 C 0.49703 0.71453 0.08697
 H960 H 0.49510 0.71489 0.07420
 Zn961 Zn 0.49866 0.74739 0.12442
 N962 N 0.49942 0.72865 0.11172
 C963 C 0.46948 0.73473 0.13561
 N964 N 0.48011 0.74669 0.13791
 C965 C 0.47714 0.75843 0.14890
 C966 C 0.46311 0.75835 0.15816
 C967 C 0.45530 0.73424 0.14452
 C968 C 0.53172 0.74516 0.12827
 C969 C 0.54639 0.74546 0.13603
 C970 C 0.53230 0.75009 0.16098
 C971 C 0.51785 0.74976 0.15270
 N972 N 0.51781 0.74765 0.13656
 H973 H 0.47172 0.72575 0.12654
 H974 H 0.48553 0.76806 0.15026
 H975 H 0.46106 0.76775 0.16690
 H976 H 0.44686 0.72485 0.14209
 H977 H 0.53145 0.74273 0.11560
 H978 H 0.55726 0.74385 0.12903
 H979 H 0.53206 0.75172 0.17382
 H980 H 0.50674 0.75112 0.15926
 C981 C 0.49967 0.69992 0.09486
 C982 C 0.49703 0.79473 0.09451
 C983 C 0.54685 0.74803 0.15260
 C984 C 0.45190 0.74616 0.15597
 O985 O -0.01178 0.98825 0.95765
 O986 O 0.01436 0.99653 0.95652
 O987 O -0.01210 0.95385 0.99598
 O988 O -0.00671 0.95331 1.02192
 O989 O -0.04889 0.99080 0.99365
 O990 O -0.04956 1.01837 1.00065
 O991 O 0.02779 0.99774 1.03716
 O992 O 0.03031 0.97272 1.02618
 O993 O 0.03102 1.03042 0.99910
 O994 O 0.01753 1.03346 0.97340
 O995 O -0.00627 1.03558 1.03255
 O996 O -0.03146 1.02238 1.03747
 O997 O 0.00584 1.01128 1.04661
 O998 O -0.02295 1.00254 1.04799
 O999 O 0.00594 1.04467 1.01006
 O1000 O -0.00258 1.04405 0.98152
 O1001 O 0.04100 1.00899 1.01246
 O1002 O 0.04132 0.98139 1.00116
 O1003 O -0.03386 1.00149 0.96721
 O1004 O -0.03804 1.02694 0.98025
 O1005 O -0.03894 0.96928 1.00691
 O1006 O -0.02483 0.96781 1.03271
 O1007 O -0.00043 0.96296 0.97317
 O1008 O 0.02566 0.97651 0.97102
 Zr1009 Zr 0.00342 0.98741 0.97748
 O1010 O 0.01840 1.00256 0.99055
 Zr1011 Zr -0.01465 0.97438 1.01044
 O1012 O -0.00003 0.98859 1.02489
 Zr1013 Zr -0.02918 1.00607 0.99148
 O1014 O -0.01558 1.02179 1.00544
 Zr1015 Zr 0.02191 0.99287 1.01335
 O1016 O 0.00813 0.97679 0.99978
 Zr1017 Zr 0.00703 1.02470 0.99473
 O1018 O -0.00722 1.01029 0.97989
 Zr1019 Zr -0.01062 1.01136 1.02769
 O1020 O -0.02617 0.99657 1.01453
 O1021 O -0.01894 0.98359 0.98787
 O1022 O 0.01167 1.01544 1.01729
 C1023 C -0.02571 0.99468 0.95588
 C1024 C -0.00618 0.95172 0.98186
 C1025 C -0.05045 0.97710 1.00036
 C1026 C 0.01994 1.00521 1.04824
 C1027 C 0.04240 1.02290 1.00618
 C1028 C 0.00030 1.04667 1.02428
 H1029 H 0.02870 1.00371 0.98475
 H1030 H -0.02144 1.03207 1.00662
 H1031 H -0.02566 0.97651 0.98131
 H1032 H 0.00163 0.98319 1.03524
 H1033 H 0.02792 0.96320 1.01960
 H1034 H 0.00311 0.95609 1.02771
 H1035 H -0.01230 1.04799 0.98721
 H1036 H -0.02959 1.03044 0.97271
 H1037 H 0.05093 0.98225 1.00793
 H1038 H 0.02421 0.96997 0.96124
 H1039 H -0.03560 1.02999 1.02944
 H1040 H -0.05102 1.01471 1.01180
 H1041 H 0.01062 1.00775 0.95546
 H1042 H 0.02619 1.02592 0.97013
 H1043 H -0.03338 0.97575 1.03522
 H1044 H -0.01678 0.99331 1.05216
 O1045 O 0.49732 0.53788 0.53323
 O1046 O 0.47252 0.52610 0.53642
 O1047 O 0.53033 0.49813 0.53800
 O1048 O 0.53623 0.47530 0.52553
 O1049 O 0.53553 0.53207 0.49868
 O1050 O 0.52215 0.53539 0.47404
 O1051 O 0.48931 0.45678 0.49558
 O1052 O 0.49863 0.45646 0.52136
 O1053 O 0.45500 0.49379 0.49322
 O1054 O 0.45424 0.52191 0.50024
 O1055 O 0.49125 0.49076 0.45817
 O1056 O 0.51899 0.49745 0.45663
 O1057 O 0.50187 0.46575 0.47315
 O1058 O 0.52846 0.47931 0.46901
 O1059 O 0.46936 0.50416 0.46775
 O1060 O 0.46611 0.53071 0.48147
 O1061 O 0.46489 0.47140 0.50505
 O1062 O 0.47665 0.47192 0.53229
 O1063 O 0.50945 0.54707 0.51064
 O1064 O 0.50160 0.54688 0.48289
 O1065 O 0.54524 0.51017 0.51148
 O1066 O 0.54455 0.48167 0.50273
 O1067 O 0.50898 0.51252 0.54751
 O1068 O 0.48113 0.50262 0.54748
 Zr1069 Zr 0.49323 0.51367 0.52809
 O1070 O 0.47777 0.49942 0.51456
 Zr1071 Zr 0.52553 0.49484 0.51358
 O1072 O 0.51138 0.47944 0.49991
 Zr1073 Zr 0.51124 0.52704 0.49528
 O1074 O 0.49684 0.51303 0.48039
 Zr1075 Zr 0.48865 0.47703 0.51043
 O1076 O 0.50358 0.49068 0.52536
 Zr1077 Zr 0.47470 0.50919 0.49174
 O1078 O 0.48854 0.52462 0.50596
 Zr1079 Zr 0.50693 0.49000 0.47764
 O1080 O 0.52252 0.50481 0.49074
 O1081 O 0.51557 0.51736 0.51764
 O1082 O 0.48442 0.48644 0.48779
 C1083 C 0.50357 0.54907 0.52481
 C1084 C 0.52260 0.50549 0.54924
 C1085 C 0.54696 0.52399 0.50505
 C1086 C 0.49513 0.45472 0.48143
 C1087 C 0.45352 0.47952 0.49865
 C1088 C 0.47726 0.49702 0.45650
 H1089 H 0.46748 0.49831 0.52037
 H1090 H 0.49563 0.51851 0.47002
 H1091 H 0.52247 0.52417 0.52429
 H1092 H 0.51688 0.46894 0.49889
 H1093 H 0.50354 0.46010 0.53143
 H1094 H 0.52892 0.46620 0.52431
 H1095 H 0.47297 0.53312 0.47210
 H1096 H 0.49091 0.54911 0.48766
 H1097 H 0.47143 0.46141 0.53114
 H1098 H 0.48255 0.50920 0.55724
 H1099 H 0.51526 0.50844 0.45425
 H1100 H 0.52916 0.52658 0.47005
 H1101 H 0.46859 0.53263 0.52740
 H1102 H 0.45157 0.51777 0.51099
 H1103 H 0.54744 0.48730 0.49274
 H1104 H 0.53084 0.46990 0.47575
 O1105 O 0.46789 -0.02924 0.49288
 O1106 O 0.48049 -0.03178 0.46823
 O1107 O 0.50630 -0.03385 0.52641
 O1108 O 0.52881 -0.02146 0.53230
 O1109 O 0.47125 0.00478 0.53144
 O1110 O 0.46756 0.02961 0.51821
 O1111 O 0.54795 0.00993 0.48586
 O1112 O 0.54900 -0.01585 0.49522
 O1113 O 0.51218 0.01220 0.45147
 O1114 O 0.48415 0.00475 0.45046
 O1115 O 0.51254 0.04676 0.48822
 O1116 O 0.50517 0.04760 0.51581
 O1117 O 0.53785 0.03193 0.49869
 O1118 O 0.52334 0.03527 0.52525
 O1119 O 0.50096 0.03720 0.46576
 O1120 O 0.47467 0.02356 0.46225
 O1121 O 0.53434 -0.00014 0.46123
 O1122 O 0.53452 -0.02717 0.47335
 O1123 O 0.45754 -0.00696 0.50506
 O1124 O 0.45711 0.02089 0.49748
 O1125 O 0.49325 -0.00784 0.54125
 O1126 O 0.52144 0.00131 0.54095
 O1127 O 0.49367 -0.04342 0.50452
 O1128 O 0.50404 -0.04260 0.47671
 Zr1129 Zr 0.49206 -0.02364 0.48908
 O1130 O 0.50640 -0.00961 0.47394
 Zr1131 Zr 0.50927 -0.00940 0.52169
 O1132 O 0.52474 0.00474 0.50786
 Zr1133 Zr 0.47700 0.00867 0.50724
 O1134 O 0.49105 0.02404 0.49317
 Zr1135 Zr 0.52829 -0.00537 0.48508
 O1136 O 0.51459 -0.02075 0.49971
 Zr1137 Zr 0.49607 0.01316 0.47098
 O1138 O 0.48061 -0.00156 0.48449
 Zr1139 Zr 0.51362 0.02693 0.50355
 O1140 O 0.49868 0.01335 0.51882
 O1141 O 0.48725 -0.01364 0.51145
 O1142 O 0.51834 0.01724 0.48100
 C1143 C 0.45620 -0.02108 0.49906
 C1144 C 0.49997 -0.04522 0.51836
 C1145 C 0.47916 -0.00166 0.54288
 C1146 C 0.54935 0.02401 0.49186
 C1147 C 0.52647 0.00651 0.44990
 C1148 C 0.50718 0.04848 0.47399
 H1149 H 0.50802 -0.01526 0.46363
 H1150 H 0.48531 0.03437 0.49200
 H1151 H 0.48042 -0.02053 0.51819
 H1152 H 0.53502 0.00585 0.51346
 H1153 H 0.54560 -0.02600 0.50020
 H1154 H 0.53826 -0.01941 0.52545
 H1155 H 0.47185 0.03283 0.46915
 H1156 H 0.45557 0.01642 0.48665
 H1157 H 0.54518 -0.02589 0.46823
 H1158 H 0.49778 -0.05252 0.47801
 H1159 H 0.49414 0.04978 0.51218
 H1160 H 0.47593 0.03356 0.52546
 H1161 H 0.47390 -0.02273 0.46429
 H1162 H 0.48887 -0.00579 0.44758
 H1163 H 0.51543 0.01121 0.54384
 H1164 H 0.53298 0.02874 0.52755
 O1165 O -0.03263 0.47043 0.99631
 O1166 O -0.01961 0.46799 0.97189
 O1167 O 0.00543 0.46566 1.03040
 O1168 O 0.02779 0.47812 1.03667
 O1169 O -0.02983 0.50417 1.03521
 O1170 O -0.03336 0.52911 1.02207
 O1171 O 0.04743 0.50988 0.99063
 O1172 O 0.04849 0.48410 0.99999
 O1173 O 0.01215 0.51207 0.95579
 O1174 O -0.01596 0.50447 0.95448
 O1175 O 0.01174 0.54657 0.99273
 O1176 O 0.00403 0.54711 1.02033
 O1177 O 0.03702 0.53181 1.00334
 O1178 O 0.02232 0.53497 1.02976
 O1179 O 0.00085 0.53692 0.96995
 O1180 O -0.02542 0.52345 0.96605
 O1181 O 0.03415 0.49959 0.96577
 O1182 O 0.03435 0.47265 0.97795
 O1183 O -0.04317 0.49262 1.00848
 O1184 O -0.04358 0.52047 1.00121
 O1185 O -0.00792 0.49158 1.04522
 O1186 O 0.02019 0.50082 1.04537
 O1187 O -0.00697 0.45621 1.00832
 O1188 O 0.00380 0.45717 0.98069
 Zr1189 Zr -0.00839 0.47606 0.99296
 O1190 O 0.00614 0.49018 0.97810
 Zr1191 Zr 0.00836 0.49016 1.02588
 O1192 O 0.02394 0.50446 1.01233
 Zr1193 Zr -0.02376 0.50824 1.01110
 O1194 O -0.00961 0.52371 0.99725
 Zr1195 Zr 0.02786 0.49445 0.98957
 O1196 O 0.01400 0.47895 1.00391
 Zr1197 Zr -0.00423 0.51292 0.97509
 O1198 O -0.01982 0.49813 0.98834
 Zr1199 Zr 0.01279 0.52663 1.00796
 O1200 O -0.00226 0.51291 1.02298
 O1201 O -0.01353 0.48592 1.01532
 O1202 O 0.01788 0.51703 0.98543
 C1203 C -0.04442 0.47857 1.00231
 C1204 C -0.00078 0.45433 1.02219
 C1205 C -0.02203 0.49770 1.04672
 C1206 C 0.04866 0.52398 0.99665
 C1207 C 0.02641 0.50628 0.95436
 C1208 C 0.00679 0.54822 0.97835
 H1209 H 0.00791 0.48456 0.96780
 H1210 H -0.01536 0.53402 0.99604
 H1211 H -0.02045 0.47898 1.02192
 H1212 H 0.03414 0.50560 1.01806
 H1213 H 0.04509 0.47392 1.00491
 H1214 H 0.03736 0.48037 1.03006
 H1215 H -0.02834 0.53269 0.97295
 H1216 H -0.04481 0.51624 0.99023
 H1217 H 0.04509 0.47395 0.97301
 H1218 H -0.00247 0.44723 0.98184
 H1219 H -0.00689 0.54937 1.01644
 H1220 H -0.02513 0.53298 1.02952
 H1221 H -0.02616 0.47703 0.96788
 H1222 H -0.01097 0.49409 0.95144
 H1223 H 0.01417 0.51074 1.04815
 H1224 H 0.03189 0.52838 1.03218
 O1225 O 0.01243 0.45170 0.50962
 O1226 O 0.00555 0.45000 0.48306
 O1227 O 0.04608 0.49068 0.51013
 O1228 O 0.04628 0.51660 0.50491
 O1229 O 0.00725 0.48861 0.54556
 O1230 O -0.02040 0.49502 0.54459
 O1231 O 0.00318 0.53023 0.46725
 O1232 O 0.02869 0.51960 0.46647
 O1233 O -0.02856 0.49225 0.46370
 O1234 O -0.03153 0.46648 0.47737
 O1235 O -0.03585 0.52609 0.49936
 O1236 O -0.02439 0.53169 0.52505
 O1237 O -0.01086 0.54024 0.48856
 O1238 O -0.00401 0.54192 0.51786
 O1239 O -0.04409 0.50300 0.48794
 O1240 O -0.04310 0.47457 0.49695
 O1241 O -0.00672 0.50526 0.45432
 O1242 O 0.02100 0.49420 0.45568
 O1243 O -0.00189 0.46159 0.53082
 O1244 O -0.02792 0.47432 0.53312
 O1245 O 0.02914 0.50162 0.53629
 O1246 O 0.03065 0.52737 0.52153
 O1247 O 0.03790 0.46714 0.49949
 O1248 O 0.02596 0.46457 0.47255
 Zr1249 Zr 0.01368 0.47125 0.49395
 O1250 O -0.00097 0.48383 0.47783
 Zr1251 Zr 0.02510 0.50477 0.51170
 O1252 O 0.01141 0.51873 0.49594
 Zr1253 Zr -0.00686 0.48568 0.52513
 O1254 O -0.02211 0.49922 0.51037
 Zr1255 Zr 0.00842 0.50667 0.47416
 O1256 O 0.02405 0.49360 0.48913
 Zr1257 Zr -0.02371 0.48800 0.48796
 O1258 O -0.00974 0.47359 0.50331
 Zr1259 Zr -0.01186 0.52150 0.50532
 O1260 O 0.00233 0.50880 0.52198
 O1261 O 0.01617 0.48216 0.51617
 O1262 O -0.01467 0.51058 0.48316
 C1263 C 0.00551 0.45017 0.52333
 C1264 C 0.04869 0.47630 0.50520
 C1265 C 0.02078 0.49541 0.54761
 C1266 C -0.00445 0.54157 0.47457
 C1267 C -0.02061 0.49915 0.45250
 C1268 C -0.04654 0.51741 0.49282
 H1269 H -0.00153 0.47783 0.46765
 H1270 H -0.03268 0.50041 0.51568
 H1271 H 0.02304 0.47586 0.52344
 H1272 H 0.01673 0.52910 0.49426
 H1273 H 0.03820 0.51311 0.46939
 H1274 H 0.04425 0.52139 0.49434
 H1275 H -0.04755 0.48028 0.50641
 H1276 H -0.03062 0.46634 0.52485
 H1277 H 0.02057 0.50082 0.44587
 H1278 H 0.03257 0.45487 0.47463
 H1279 H -0.03185 0.52356 0.52916
 H1280 H -0.01724 0.50632 0.54580
 H1281 H -0.00587 0.44898 0.48608
 H1282 H -0.02358 0.46327 0.46907
 H1283 H 0.02251 0.52973 0.52993
 H1284 H 0.00546 0.54611 0.51214
 O1285 O 0.46012 1.02764 -0.00064
 O1286 O 0.47126 1.03082 0.02432
 O1287 O 0.50015 1.03175 -0.03305
 O1288 O 0.52346 1.01941 -0.03776
 O1289 O 0.46651 0.99318 -0.03827
 O1290 O 0.46323 0.96829 -0.02487
 O1291 O 0.54097 0.98924 0.00979
 O1292 O 0.54168 1.01477 -0.00002
 O1293 O 0.50337 0.98740 0.04314
 O1294 O 0.47506 0.99476 0.04302
 O1295 O 0.50699 0.95209 0.00734
 O1296 O 0.50104 0.95046 -0.02037
 O1297 O 0.53226 0.96684 -0.00275
 O1298 O 0.51926 0.96278 -0.02970
 O1299 O 0.49356 0.96201 0.02899
 O1300 O 0.46682 0.97566 0.03142
 O1301 O 0.52563 0.99968 0.03376
 O1302 O 0.52565 1.02644 0.02107
 O1303 O 0.45111 1.00494 -0.01241
 O1304 O 0.45122 0.97720 -0.00464
 O1305 O 0.48884 1.00535 -0.04763
 O1306 O 0.51723 0.99640 -0.04625
 O1307 O 0.48611 1.04172 -0.01176
 O1308 O 0.49492 1.04158 0.01639
 Zr1309 Zr 0.48424 1.02228 0.00407
 O1310 O 0.49816 1.00869 0.01997
 Zr1311 Zr 0.50370 1.00745 -0.02762
 O1312 O 0.51880 0.99369 -0.01298
 Zr1313 Zr 0.47122 0.98950 -0.01387
 O1314 O 0.48493 0.97453 0.00103
 Zr1315 Zr 0.52077 1.00435 0.00964
 O1316 O 0.50742 1.01932 -0.00576
 Zr1317 Zr 0.48837 0.98594 0.02312
 O1318 O 0.47323 1.00023 0.00876
 Zr1319 Zr 0.50815 0.97154 -0.00849
 O1320 O 0.49368 0.98469 -0.02459
 O1321 O 0.48099 1.01177 -0.01820
 O1322 O 0.51131 0.98178 0.01396
 C1323 C 0.44900 1.01919 -0.00681
 C1324 C 0.49306 1.04324 -0.02545
 C1325 C 0.47492 0.99935 -0.04957
 C1326 C 0.54315 0.97503 0.00419
 C1327 C 0.51737 0.99327 0.04501
 C1328 C 0.50074 0.95061 0.02135
 H1329 H 0.49903 1.01457 0.03019
 H1330 H 0.47946 0.96420 0.00226
 H1331 H 0.47430 1.01849 -0.02528
 H1332 H 0.52941 0.99252 -0.01821
 H1333 H 0.53824 1.02476 -0.00536
 H1334 H 0.53262 1.01739 -0.03066
 H1335 H 0.46461 0.96626 0.02462
 H1336 H 0.44896 0.98176 0.00610
 H1337 H 0.53604 1.02534 0.02659
 H1338 H 0.48843 1.05143 0.01465
 H1339 H 0.48980 0.94849 -0.01728
 H1340 H 0.47210 0.96445 -0.03189
 H1341 H 0.46477 1.02181 0.02827
 H1342 H 0.47935 1.00535 0.04586
 H1343 H 0.51172 0.98639 -0.04907
 H1344 H 0.52884 0.96928 -0.03182
 O1345 O 0.49814 0.45999 -0.02790
 O1346 O 0.47286 0.47139 -0.03022
 O1347 O 0.52976 0.49989 -0.03264
 O1348 O 0.53457 0.52277 -0.02012
 O1349 O 0.53600 0.46554 0.00580
 O1350 O 0.52286 0.46191 0.03084
 O1351 O 0.48711 0.54047 0.01118
 O1352 O 0.49642 0.54135 -0.01460
 O1353 O 0.45416 0.50314 0.01388
 O1354 O 0.45440 0.47507 0.00625
 O1355 O 0.49012 0.50607 0.04803
 O1356 O 0.51793 0.49958 0.04907
 O1357 O 0.50015 0.53132 0.03311
 O1358 O 0.52711 0.51770 0.03657
 O1359 O 0.46882 0.49244 0.03872
 O1360 O 0.46648 0.46614 0.02471
 O1361 O 0.46301 0.52546 0.00138
 O1362 O 0.47540 0.52569 -0.02571
 O1363 O 0.51026 0.45054 -0.00555
 O1364 O 0.50269 0.45032 0.02240
 O1365 O 0.54495 0.48778 -0.00676
 O1366 O 0.54330 0.51606 0.00251
 O1367 O 0.50862 0.48607 -0.04208
 O1368 O 0.48036 0.49510 -0.04115
 Zr1369 Zr 0.49307 0.48405 -0.02224
 O1370 O 0.47712 0.49796 -0.00817
 Zr1371 Zr 0.52470 0.50295 -0.00814
 O1372 O 0.50998 0.51801 0.00605
 Zr1373 Zr 0.51155 0.47039 0.00999
 O1374 O 0.49663 0.48404 0.02539
 Zr1375 Zr 0.48718 0.52041 -0.00397
 O1376 O 0.50261 0.50709 -0.01939
 Zr1377 Zr 0.47437 0.48786 0.01457
 O1378 O 0.48877 0.47277 -0.00016
 Zr1379 Zr 0.50586 0.50713 0.02826
 O1380 O 0.52202 0.49265 0.01463
 O1381 O 0.51553 0.48041 -0.01234
 O1382 O 0.48323 0.51067 0.01864
 C1383 C 0.50459 0.44870 -0.01967
 C1384 C 0.52212 0.49302 -0.04396
 C1385 C 0.54714 0.47382 -0.00072
 C1386 C 0.49306 0.54243 0.02514
 C1387 C 0.45199 0.51722 0.00812
 C1388 C 0.47636 0.49961 0.04989
 H1389 H 0.46681 0.49903 -0.01377
 H1390 H 0.49558 0.47842 0.03571
 H1391 H 0.52264 0.47377 -0.01928
 H1392 H 0.51513 0.52853 0.00711
 H1393 H 0.50171 0.53796 -0.02473
 H1394 H 0.52720 0.53192 -0.01815
 H1395 H 0.47345 0.46362 0.03387
 H1396 H 0.49203 0.44808 0.01793
 H1397 H 0.46973 0.53612 -0.02442
 H1398 H 0.48202 0.48868 -0.05105
 H1399 H 0.51493 0.48837 0.05109
 H1400 H 0.52963 0.47071 0.03471
 H1401 H 0.46919 0.46474 -0.02116
 H1402 H 0.45152 0.47944 -0.00432
 H1403 H 0.54639 0.51028 0.01233
 H1404 H 0.52921 0.52724 0.02994
 O1405 O -0.00248 -0.03984 0.47101
 O1406 O -0.02739 -0.02773 0.46894
 O1407 O 0.03029 -0.00093 0.46537
 O1408 O 0.03572 0.02203 0.47745
 O1409 O 0.03632 -0.03499 0.50393
 O1410 O 0.02345 -0.03819 0.52921
 O1411 O -0.01065 0.04109 0.50964
 O1412 O -0.00167 0.04160 0.48369
 O1413 O -0.04451 0.00471 0.51307
 O1414 O -0.04496 -0.02354 0.50577
 O1415 O -0.00754 0.00656 0.54674
 O1416 O 0.02019 -0.00029 0.54705
 O1417 O 0.00230 0.03169 0.53152
 O1418 O 0.02923 0.01775 0.53438
 O1419 O -0.02977 -0.00578 0.53781
 O1420 O -0.03290 -0.03234 0.52438
 O1421 O -0.03519 0.02674 0.50041
 O1422 O -0.02336 0.02647 0.47308
 O1423 O 0.00997 -0.04944 0.49311
 O1424 O 0.00287 -0.04931 0.52113
 O1425 O 0.04556 -0.01303 0.49108
 O1426 O 0.04478 0.01531 0.50005
 O1427 O 0.00858 -0.01418 0.45640
 O1428 O -0.01945 -0.00430 0.45778
 Zr1429 Zr -0.00671 -0.01559 0.47652
 O1430 O -0.02204 -0.00119 0.49079
 Zr1431 Zr 0.02566 0.00257 0.48988
 O1432 O 0.01162 0.01809 0.50424
 Zr1433 Zr 0.01203 -0.02954 0.50848
 O1434 O -0.00225 -0.01540 0.52407
 Zr1435 Zr -0.01129 0.02099 0.49461
 O1436 O 0.00349 0.00720 0.47900
 Zr1437 Zr -0.02464 -0.01104 0.51367
 O1438 O -0.01089 -0.02659 0.49878
 Zr1439 Zr 0.00766 0.00743 0.52658
 O1440 O 0.02317 -0.00753 0.51276
 O1441 O 0.01584 -0.01975 0.48603
 O1442 O -0.01505 0.01152 0.51737
 C1443 C 0.00388 -0.05124 0.47916
 C1444 C 0.02228 -0.00768 0.45424
 C1445 C 0.04755 -0.02698 0.49720
 C1446 C -0.00466 0.04292 0.52360
 C1447 C -0.04637 0.01884 0.50731
 C1448 C -0.02161 0.00091 0.54885
 H1449 H -0.03242 0.00011 0.48537
 H1450 H -0.00324 -0.02091 0.53445
 H1451 H 0.02266 -0.02664 0.47903
 H1452 H 0.01703 0.02850 0.50515
 H1453 H 0.00331 0.03802 0.47347
 H1454 H 0.02877 0.03143 0.47971
 H1455 H -0.02583 -0.03488 0.53345
 H1456 H -0.00802 -0.05112 0.51703
 H1457 H -0.02870 0.03706 0.47441
 H1458 H -0.01809 -0.01077 0.44788
 H1459 H 0.01691 -0.01139 0.54929
 H1460 H 0.03063 -0.02961 0.53283
 H1461 H -0.03116 -0.03414 0.47812
 H1462 H -0.04808 -0.01904 0.49532
 H1463 H 0.04782 0.00963 0.50994
 H1464 H 0.03128 0.02729 0.52774
 O1465 O 0.78076 0.28568 0.25268
 O1466 O 0.78250 0.27353 0.27741
 O1467 O 0.78556 0.24703 0.21909
 O1468 O 0.77330 0.22411 0.21380
 O1469 O 0.74775 0.28213 0.21386
 O1470 O 0.72256 0.28630 0.22666
 O1471 O 0.74038 0.20624 0.25926
 O1472 O 0.76644 0.20485 0.25063
 O1473 O 0.73765 0.24292 0.29386
 O1474 O 0.74544 0.27069 0.29490
 O1475 O 0.70399 0.24208 0.25696
 O1476 O 0.70392 0.24922 0.22923
 O1477 O 0.71868 0.21652 0.24654
 O1478 O 0.71603 0.23055 0.22002
 O1479 O 0.71311 0.25455 0.27914
 O1480 O 0.72737 0.28044 0.28280
 O1481 O 0.74944 0.22020 0.28421
 O1482 O 0.77704 0.21951 0.27270
 O1483 O 0.75888 0.29610 0.24034
 O1484 O 0.73079 0.29707 0.24747
 O1485 O 0.75992 0.25962 0.20414
 O1486 O 0.75075 0.23163 0.20447
 O1487 O 0.79484 0.25935 0.24134
 O1488 O 0.79314 0.24965 0.26918
 Zr1489 Zr 0.77470 0.26167 0.25654
 O1490 O 0.76008 0.24784 0.27158
 Zr1491 Zr 0.76103 0.24406 0.22383
 O1492 O 0.74628 0.22910 0.23760
 Zr1493 Zr 0.74305 0.27683 0.23799
 O1494 O 0.72712 0.26333 0.25197
 Zr1495 Zr 0.75575 0.22581 0.26049
 O1496 O 0.77173 0.23900 0.24597
 Zr1497 Zr 0.73742 0.25862 0.27426
 O1498 O 0.75269 0.27356 0.26084
 Zr1499 Zr 0.72413 0.24059 0.24170
 O1500 O 0.73833 0.25500 0.22647
 O1501 O 0.76532 0.26620 0.23406
 O1502 O 0.73320 0.23620 0.26435
 C1503 C 0.77287 0.29737 0.24646
 C1504 C 0.79683 0.25312 0.22738
 C1505 C 0.75416 0.27384 0.20245
 C1506 C 0.72639 0.20495 0.25320
 C1507 C 0.74281 0.22849 0.29548
 C1508 C 0.70195 0.24812 0.27099
 H1509 H 0.76542 0.24632 0.28197
 H1510 H 0.71686 0.26926 0.25303
 H1511 H 0.77245 0.27283 0.22736
 H1512 H 0.74515 0.21875 0.23200
 H1513 H 0.77675 0.20809 0.24577
 H1514 H 0.77045 0.21476 0.22038
 H1515 H 0.71832 0.28335 0.27581
 H1516 H 0.73508 0.29887 0.25830
 H1517 H 0.77539 0.20902 0.27791
 H1518 H 0.80320 0.25573 0.26798
 H1519 H 0.70168 0.26026 0.23300
 H1520 H 0.71866 0.27780 0.21947
 H1521 H 0.77347 0.28037 0.28121
 H1522 H 0.75594 0.26601 0.29778
 H1523 H 0.74082 0.23750 0.20165
 H1524 H 0.72264 0.22090 0.21768
 O1525 O 0.75534 0.71718 0.71270
 O1526 O 0.77995 0.71435 0.72486
 O1527 O 0.72147 0.71440 0.75151
 O1528 O 0.71625 0.72724 0.77443
 O1529 O 0.71716 0.75205 0.71657
 O1530 O 0.73061 0.77657 0.71250
 O1531 O 0.76248 0.75811 0.79229
 O1532 O 0.75317 0.73246 0.79356
 O1533 O 0.79727 0.75883 0.75563
 O1534 O 0.79827 0.75053 0.72777
 O1535 O 0.76127 0.79410 0.75683
 O1536 O 0.73357 0.79553 0.74960
 O1537 O 0.75014 0.78022 0.78223
 O1538 O 0.72386 0.78406 0.76815
 O1539 O 0.78322 0.78385 0.74406
 O1540 O 0.78669 0.76910 0.71816
 O1541 O 0.78719 0.74777 0.77830
 O1542 O 0.77515 0.72070 0.77883
 O1543 O 0.74349 0.73950 0.70247
 O1544 O 0.75126 0.76722 0.70161
 O1545 O 0.70715 0.74044 0.73898
 O1546 O 0.70752 0.75008 0.76699
 O1547 O 0.74340 0.70395 0.73880
 O1548 O 0.77122 0.70436 0.74867
 Zr1549 Zr 0.75917 0.72329 0.73674
 O1550 O 0.77451 0.73734 0.75060
 Zr1551 Zr 0.72672 0.73873 0.75452
 O1552 O 0.74075 0.75299 0.76950
 Zr1553 Zr 0.74141 0.75565 0.72181
 O1554 O 0.75574 0.77104 0.73535
 Zr1555 Zr 0.76340 0.74245 0.77266
 O1556 O 0.74857 0.72702 0.75945
 Zr1557 Zr 0.77778 0.75973 0.73993
 O1558 O 0.76404 0.74495 0.72496
 Zr1559 Zr 0.74543 0.77479 0.75811
 O1560 O 0.72992 0.76116 0.74369
 O1561 O 0.73693 0.73371 0.73233
 O1562 O 0.76785 0.76467 0.76239
 C1563 C 0.74933 0.72523 0.70109
 C1564 C 0.72940 0.70268 0.74515
 C1565 C 0.70562 0.74615 0.72483
 C1566 C 0.75663 0.77234 0.79371
 C1567 C 0.79866 0.75383 0.77007
 C1568 C 0.77536 0.79541 0.75071
 H1569 H 0.78476 0.73153 0.75208
 H1570 H 0.75708 0.78118 0.72947
 H1571 H 0.73010 0.72683 0.72568
 H1572 H 0.73513 0.75449 0.77986
 H1573 H 0.74814 0.72232 0.79027
 H1574 H 0.72291 0.72981 0.78376
 H1575 H 0.77988 0.77838 0.71527
 H1576 H 0.76200 0.76239 0.69975
 H1577 H 0.78030 0.72224 0.78933
 H1578 H 0.76979 0.69431 0.74253
 H1579 H 0.73750 0.79747 0.73859
 H1580 H 0.72351 0.78093 0.72106
 H1581 H 0.78404 0.72312 0.71811
 H1582 H 0.80098 0.74005 0.73254
 H1583 H 0.70490 0.76001 0.76110
 H1584 H 0.72123 0.77762 0.77770
 O1585 O 0.27910 0.21476 0.74861
 O1586 O 0.28247 0.22606 0.72352
 O1587 O 0.28253 0.25449 0.78094
 O1588 O 0.26997 0.27768 0.78561
 O1589 O 0.24384 0.22065 0.78580
 O1590 O 0.21931 0.21727 0.77216
 O1591 O 0.24055 0.29560 0.73834
 O1592 O 0.26612 0.29607 0.74774
 O1593 O 0.23940 0.25798 0.70443
 O1594 O 0.24661 0.22985 0.70454
 O1595 O 0.20341 0.26140 0.73996
 O1596 O 0.20147 0.25499 0.76782
 O1597 O 0.21778 0.28653 0.75013
 O1598 O 0.21340 0.27341 0.77705
 O1599 O 0.21367 0.24809 0.71841
 O1600 O 0.22753 0.22135 0.71614
 O1601 O 0.25058 0.28063 0.71406
 O1602 O 0.27761 0.28038 0.72640
 O1603 O 0.25630 0.20554 0.76026
 O1604 O 0.22868 0.20553 0.75194
 O1605 O 0.25574 0.24295 0.79538
 O1606 O 0.24693 0.27136 0.79390
 O1607 O 0.29280 0.24063 0.75970
 O1608 O 0.29304 0.24973 0.73158
 Zr1609 Zr 0.27362 0.23884 0.74374
 O1610 O 0.26018 0.25283 0.72775
 Zr1611 Zr 0.25825 0.25796 0.77537
 O1612 O 0.24463 0.27312 0.76063
 Zr1613 Zr 0.24064 0.22551 0.76140
 O1614 O 0.22581 0.23928 0.74644
 Zr1615 Zr 0.25557 0.27534 0.73807
 O1616 O 0.27039 0.26193 0.75356
 Zr1617 Zr 0.23754 0.24293 0.72445
 O1618 O 0.25172 0.22774 0.73887
 Zr1619 Zr 0.22258 0.26242 0.75597
 O1620 O 0.23558 0.24786 0.77212
 O1621 O 0.26280 0.23537 0.76594
 O1622 O 0.23312 0.26578 0.73360
 C1623 C 0.27068 0.20358 0.75487
 C1624 C 0.29414 0.24747 0.77339
 C1625 C 0.24971 0.22900 0.79720
 C1626 C 0.22616 0.29760 0.74361
 C1627 C 0.24466 0.27225 0.70272
 C1628 C 0.20215 0.25524 0.72595
 H1629 H 0.26619 0.25383 0.71755
 H1630 H 0.21552 0.23378 0.74512
 H1631 H 0.26942 0.22869 0.77310
 H1632 H 0.24335 0.28367 0.76590
 H1633 H 0.27608 0.29250 0.75301
 H1634 H 0.26827 0.28681 0.77834
 H1635 H 0.21796 0.21912 0.72279
 H1636 H 0.23360 0.20328 0.74134
 H1637 H 0.27641 0.29078 0.72085
 H1638 H 0.30289 0.24325 0.73334
 H1639 H 0.19931 0.24394 0.76429
 H1640 H 0.21517 0.22612 0.77900
 H1641 H 0.27363 0.21934 0.71968
 H1642 H 0.25740 0.23392 0.70204
 H1643 H 0.23683 0.26587 0.79658
 H1644 H 0.21991 0.28295 0.77926
 O1645 O 0.21159 0.74943 0.28178
 O1646 O 0.22348 0.72439 0.28429
 O1647 O 0.25016 0.78220 0.28676
 O1648 O 0.27359 0.78699 0.27487
 O1649 O 0.21692 0.78750 0.24780
 O1650 O 0.21388 0.77416 0.22290
 O1651 O 0.29296 0.74056 0.24361
 O1652 O 0.29313 0.74975 0.26937
 O1653 O 0.25651 0.70657 0.24075
 O1654 O 0.22821 0.70621 0.24800
 O1655 O 0.25863 0.74300 0.20618
 O1656 O 0.25181 0.77101 0.20555
 O1657 O 0.28370 0.75270 0.22118
 O1658 O 0.27025 0.77965 0.21768
 O1659 O 0.24634 0.72087 0.21569
 O1660 O 0.21959 0.71801 0.22909
 O1661 O 0.27845 0.71603 0.25325
 O1662 O 0.27787 0.72826 0.28035
 O1663 O 0.20226 0.76153 0.25935
 O1664 O 0.20263 0.75376 0.23153
 O1665 O 0.23877 0.79698 0.26044
 O1666 O 0.26715 0.79601 0.25193
 O1667 O 0.23725 0.76036 0.29619
 O1668 O 0.24684 0.73230 0.29541
 Zr1669 Zr 0.23585 0.74489 0.27637
 O1670 O 0.25041 0.72935 0.26252
 Zr1671 Zr 0.25423 0.77704 0.26240
 O1672 O 0.26988 0.76276 0.24837
 Zr1673 Zr 0.22232 0.76314 0.24394
 O1674 O 0.23659 0.74861 0.22872
 Zr1675 Zr 0.27265 0.74001 0.25853
 O1676 O 0.25869 0.75502 0.27377
 Zr1677 Zr 0.24080 0.72640 0.23967
 O1678 O 0.22509 0.74038 0.25419
 Zr1679 Zr 0.25947 0.75845 0.22606
 O1680 O 0.24441 0.77418 0.23952
 O1681 O 0.23185 0.76730 0.26635
 O1682 O 0.26342 0.73590 0.23583
 C1683 C 0.20031 0.75577 0.27348
 C1684 C 0.24350 0.77420 0.29806
 C1685 C 0.22490 0.79885 0.25419
 C1686 C 0.29488 0.74605 0.22939
 C1687 C 0.27059 0.70478 0.24655
 C1688 C 0.25305 0.72887 0.20445
 H1689 H 0.25164 0.71905 0.26817
 H1690 H 0.23117 0.74747 0.21835
 H1691 H 0.22492 0.77427 0.27315
 H1692 H 0.28030 0.76812 0.24734
 H1693 H 0.28942 0.75492 0.27943
 H1694 H 0.28310 0.78028 0.27233
 H1695 H 0.21716 0.72493 0.21984
 H1696 H 0.20072 0.74298 0.23596
 H1697 H 0.28845 0.72285 0.27916
 H1698 H 0.24024 0.73377 0.30525
 H1699 H 0.24097 0.76726 0.20298
 H1700 H 0.22253 0.78122 0.21908
 H1701 H 0.21705 0.72061 0.27519
 H1702 H 0.23252 0.70334 0.25858
 H1703 H 0.26186 0.79862 0.24172
 H1704 H 0.27960 0.78183 0.22445
 O1705 O 0.24429 0.70573 0.76126
 O1706 O 0.27074 0.70532 0.75293
 O1707 O 0.24203 0.74283 0.79696
 O1708 O 0.24697 0.76881 0.79865
 O1709 O 0.20662 0.74135 0.75939
 O1710 O 0.20686 0.74888 0.73212
 O1711 O 0.28271 0.78621 0.75478
 O1712 O 0.28435 0.77471 0.77971
 O1713 O 0.28779 0.74929 0.72113
 O1714 O 0.27506 0.72362 0.71678
 O1715 O 0.24985 0.78225 0.71688
 O1716 O 0.22401 0.78615 0.73014
 O1717 O 0.26072 0.79583 0.74207
 O1718 O 0.23177 0.79639 0.75018
 O1719 O 0.26284 0.76029 0.70701
 O1720 O 0.25496 0.73148 0.70650
 O1721 O 0.29668 0.76223 0.74316
 O1722 O 0.29629 0.75009 0.77027
 O1723 O 0.22255 0.71536 0.74809
 O1724 O 0.21911 0.72900 0.72306
 O1725 O 0.21553 0.75384 0.78166
 O1726 O 0.22906 0.77980 0.78444
 O1727 O 0.25475 0.72066 0.78713
 O1728 O 0.28118 0.71932 0.77364
 Zr1729 Zr 0.25915 0.72578 0.76287
 O1730 O 0.27436 0.73966 0.74845
 Zr1731 Zr 0.23994 0.75796 0.77703
 O1732 O 0.25470 0.77319 0.76358
 Zr1733 Zr 0.22695 0.73981 0.74441
 O1734 O 0.24076 0.75454 0.72944
 Zr1735 Zr 0.27702 0.76223 0.75904
 O1736 O 0.26302 0.74784 0.77440
 Zr1737 Zr 0.26368 0.74434 0.72636
 O1738 O 0.24928 0.72875 0.74000
 Zr1739 Zr 0.24482 0.77653 0.74085
 O1740 O 0.22909 0.76257 0.75492
 O1741 O 0.23645 0.73563 0.76686
 O1742 O 0.26746 0.76670 0.73655
 C1743 C 0.23060 0.70397 0.75465
 C1744 C 0.24834 0.72883 0.79862
 C1745 C 0.20441 0.74755 0.77332
 C1746 C 0.27477 0.79748 0.74793
 C1747 C 0.29872 0.75639 0.72905
 C1748 C 0.25688 0.77443 0.70551
 H1749 H 0.28481 0.73411 0.74718
 H1750 H 0.23521 0.75593 0.71917
 H1751 H 0.22961 0.72876 0.77361
 H1752 H 0.25597 0.78340 0.76939
 H1753 H 0.28190 0.76776 0.78895
 H1754 H 0.25666 0.77502 0.79618
 H1755 H 0.24530 0.73715 0.70263
 H1756 H 0.22780 0.72164 0.71945
 H1757 H 0.30575 0.75712 0.76985
 H1758 H 0.27975 0.70924 0.77969
 H1759 H 0.22058 0.77851 0.72185
 H1760 H 0.20506 0.75995 0.73605
 H1761 H 0.26721 0.70447 0.74172
 H1762 H 0.28321 0.72001 0.72450
 H1763 H 0.22076 0.78245 0.77649
 H1764 H 0.23725 0.80011 0.75990
 O1765 O 0.25341 0.21950 0.21264
 O1766 O 0.27830 0.21631 0.22428
 O1767 O 0.22018 0.21593 0.25171
 O1768 O 0.21520 0.22825 0.27495
 O1769 O 0.21572 0.25486 0.21792
 O1770 O 0.22944 0.27916 0.21416
 O1771 O 0.26198 0.25820 0.29315
 O1772 O 0.25246 0.23260 0.29381
 O1773 O 0.29630 0.25977 0.25617
 O1774 O 0.29707 0.25232 0.22822
 O1775 O 0.26057 0.29519 0.25879
 O1776 O 0.23271 0.29697 0.25185
 O1777 O 0.24970 0.28068 0.28387
 O1778 O 0.22325 0.28510 0.27027
 O1779 O 0.28227 0.28522 0.24538
 O1780 O 0.28530 0.27102 0.21903
 O1781 O 0.28641 0.24810 0.27860
 O1782 O 0.27418 0.22110 0.27849
 O1783 O 0.24177 0.24224 0.20307
 O1784 O 0.24987 0.26992 0.20291
 O1785 O 0.20590 0.24237 0.23993
 O1786 O 0.20662 0.25135 0.26820
 O1787 O 0.24190 0.20569 0.23849
 O1788 O 0.26987 0.20568 0.24793
 Zr1789 Zr 0.25775 0.22500 0.23671
 O1790 O 0.27334 0.23856 0.25077
 Zr1791 Zr 0.22560 0.24016 0.25525
 O1792 O 0.23990 0.25388 0.27048
 Zr1793 Zr 0.24010 0.25790 0.22287
 O1794 O 0.25465 0.27282 0.23670
 Zr1795 Zr 0.26252 0.24310 0.27309
 O1796 O 0.24742 0.22816 0.25963
 Zr1797 Zr 0.27666 0.26122 0.24071
 O1798 O 0.26267 0.24694 0.22549
 Zr1799 Zr 0.24461 0.27596 0.25967
 O1800 O 0.22887 0.26286 0.24502
 O1801 O 0.23554 0.23571 0.23283
 O1802 O 0.26701 0.26558 0.26340
 C1803 C 0.24734 0.22790 0.20131
 C1804 C 0.22798 0.20434 0.24498
 C1805 C 0.20424 0.24869 0.22606
 C1806 C 0.25630 0.27245 0.29503
 C1807 C 0.29782 0.25434 0.27043
 C1808 C 0.27456 0.29662 0.25250
 H1809 H 0.28358 0.23264 0.25198
 H1810 H 0.25599 0.28310 0.23110
 H1811 H 0.22855 0.22907 0.22609
 H1812 H 0.23441 0.25512 0.28095
 H1813 H 0.24731 0.22260 0.29030
 H1814 H 0.22204 0.23041 0.28425
 H1815 H 0.27861 0.28050 0.21653
 H1816 H 0.26049 0.26495 0.20072
 H1817 H 0.27947 0.22229 0.28897
 H1818 H 0.26832 0.19582 0.24152
 H1819 H 0.23675 0.29937 0.24098
 H1820 H 0.22264 0.28349 0.22297
 H1821 H 0.28227 0.22522 0.21763
 H1822 H 0.29952 0.24152 0.23239
 H1823 H 0.20400 0.26143 0.26258
 H1824 H 0.22068 0.27839 0.27964
 O1825 O 0.74450 0.72076 0.28541
 O1826 O 0.71987 0.71814 0.27312
 O1827 O 0.77882 0.71403 0.24770
 O1828 O 0.78460 0.72495 0.22407
 O1829 O 0.78295 0.75430 0.27999
 O1830 O 0.76945 0.77932 0.28242
 O1831 O 0.73914 0.75605 0.20325
 O1832 O 0.74816 0.73016 0.20379
 O1833 O 0.70364 0.76078 0.23898
 O1834 O 0.70199 0.75459 0.26730
 O1835 O 0.74029 0.79470 0.23671
 O1836 O 0.76799 0.79529 0.24399
 O1837 O 0.75104 0.77864 0.21221
 O1838 O 0.77740 0.78231 0.22608
 O1839 O 0.71768 0.78606 0.24901
 O1840 O 0.71362 0.77349 0.27589
 O1841 O 0.71389 0.74727 0.21753
 O1842 O 0.72600 0.72004 0.21891
 O1843 O 0.75616 0.74345 0.29452
 O1844 O 0.74861 0.77139 0.29340
 O1845 O 0.79315 0.74033 0.25878
 O1846 O 0.79345 0.74806 0.23023
 O1847 O 0.75653 0.70532 0.26059
 O1848 O 0.72891 0.70600 0.25019
 Zr1849 Zr 0.74097 0.72535 0.26104
 O1850 O 0.72607 0.73888 0.24596
 Zr1851 Zr 0.77390 0.73826 0.24296
 O1852 O 0.76032 0.75187 0.22679
 Zr1853 Zr 0.75876 0.75810 0.27419
 O1854 O 0.74489 0.77296 0.25934
 Zr1855 Zr 0.73764 0.74190 0.22384
 O1856 O 0.75204 0.72698 0.23835
 Zr1857 Zr 0.72282 0.76214 0.25501
 O1858 O 0.73609 0.74800 0.27123
 Zr1859 Zr 0.75569 0.77462 0.23661
 O1860 O 0.77073 0.76154 0.25223
 O1861 O 0.76321 0.73529 0.26522
 O1862 O 0.73325 0.76501 0.23250
 C1863 C 0.75034 0.72942 0.29661
 C1864 C 0.77065 0.70310 0.25468
 C1865 C 0.79452 0.74723 0.27244
 C1866 C 0.74482 0.77011 0.20111
 C1867 C 0.70237 0.75444 0.22504
 C1868 C 0.72601 0.79693 0.24216
 H1869 H 0.71579 0.73331 0.24468
 H1870 H 0.74358 0.78355 0.26451
 H1871 H 0.76987 0.72870 0.27244
 H1872 H 0.76613 0.75243 0.21645
 H1873 H 0.75317 0.72019 0.20782
 H1874 H 0.77831 0.72724 0.21440
 H1875 H 0.72045 0.78276 0.27824
 H1876 H 0.73776 0.76712 0.29526
 H1877 H 0.72103 0.72091 0.20823
 H1878 H 0.73005 0.69642 0.25706
 H1879 H 0.76379 0.79834 0.25468
 H1880 H 0.77678 0.78285 0.27378
 H1881 H 0.71591 0.72750 0.27934
 H1882 H 0.69936 0.74381 0.26331
 H1883 H 0.79597 0.75834 0.23546
 H1884 H 0.77998 0.77513 0.21697
 O1885 O 0.71225 0.24849 0.78065
 O1886 O 0.72320 0.22298 0.78255
 O1887 O 0.75207 0.27965 0.78597
 O1888 O 0.77580 0.28346 0.77421
 O1889 O 0.71870 0.28708 0.74803
 O1890 O 0.71532 0.27496 0.72249
 O1891 O 0.79292 0.23712 0.74153
 O1892 O 0.79361 0.24557 0.76767
 O1893 O 0.75488 0.20490 0.73815
 O1894 O 0.72674 0.20555 0.74557
 O1895 O 0.75878 0.24188 0.70462
 O1896 O 0.75292 0.26993 0.70433
 O1897 O 0.78419 0.25068 0.71972
 O1898 O 0.77135 0.27810 0.71687
 O1899 O 0.74516 0.22033 0.71357
 O1900 O 0.71833 0.21838 0.72726
 O1901 O 0.77759 0.21317 0.75012
 O1902 O 0.77758 0.22421 0.77785
 O1903 O 0.70325 0.26129 0.75846
 O1904 O 0.70322 0.25470 0.73035
 O1905 O 0.74145 0.29545 0.75993
 O1906 O 0.76979 0.29336 0.75157
 O1907 O 0.73844 0.25811 0.79508
 O1908 O 0.74702 0.22969 0.79355
 Zr1909 Zr 0.73631 0.24314 0.77494
 O1910 O 0.75004 0.22732 0.76055
 Zr1911 Zr 0.75596 0.27478 0.76154
 O1912 O 0.77088 0.26020 0.74705
 Zr1913 Zr 0.72330 0.26277 0.74307
 O1914 O 0.73682 0.24806 0.72736
 Zr1915 Zr 0.77271 0.23707 0.75658
 O1916 O 0.75955 0.25231 0.77233
 Zr1917 Zr 0.74008 0.22544 0.73773
 O1918 O 0.72514 0.23969 0.75275
 Zr1919 Zr 0.76011 0.25695 0.72474
 O1920 O 0.74582 0.27296 0.73871
 O1921 O 0.73320 0.26591 0.76547
 O1922 O 0.76308 0.23401 0.73390
 C1923 C 0.70115 0.25530 0.77247
 C1924 C 0.74515 0.27170 0.79716
 C1925 C 0.72740 0.29794 0.75429
 C1926 C 0.79509 0.24319 0.72759
 C1927 C 0.76912 0.20246 0.74331
 C1928 C 0.75242 0.22813 0.70253
 H1929 H 0.75088 0.21681 0.76589
 H1930 H 0.73128 0.24741 0.71700
 H1931 H 0.72658 0.27296 0.77249
 H1932 H 0.78152 0.26514 0.74610
 H1933 H 0.79015 0.25043 0.77797
 H1934 H 0.78494 0.27627 0.77159
 H1935 H 0.71631 0.22541 0.71799
 H1936 H 0.70081 0.24389 0.73445
 H1937 H 0.78791 0.21841 0.77632
 H1938 H 0.74060 0.23122 0.80350
 H1939 H 0.74168 0.26715 0.70218
 H1940 H 0.72424 0.28181 0.71895
 H1941 H 0.71657 0.21965 0.77342
 H1942 H 0.73090 0.20229 0.75610
 H1943 H 0.76457 0.29659 0.74150
 H1944 H 0.78093 0.27971 0.72350
 C1945 C 0.06818 1.00797 1.15797
 C1946 C 0.07076 1.02200 1.16686
 C1947 C 0.07881 1.02139 1.18143
 C1948 C 0.08429 1.00671 1.18759
 C1949 C 0.08130 0.99266 1.17890
 C1950 C 0.07353 0.99329 1.16424
 C1951 C 0.06031 1.00856 1.14207
 C1952 C 0.05085 0.99579 1.13686
 C1953 C 0.04441 0.99577 1.12154
 C1954 C 0.04696 1.00867 1.11122
 C1955 C 0.05588 1.02171 1.11649
 C1956 C 0.06264 1.02160 1.13171
 C1957 C 0.04057 1.00827 1.09486
 C1958 C 0.03026 1.02043 1.08950
 C1959 C 0.02359 1.01952 1.07426
 C1960 C 0.02747 1.00662 1.06404
 C1961 C 0.03817 0.99472 1.06929
 C1962 C 0.04452 0.99545 1.08463
 H1963 H 0.06659 1.03350 1.16259
 H1964 H 0.08101 1.03250 1.18767
 H1965 H 0.08501 0.98108 1.18338
 H1966 H 0.07205 0.98224 1.15770
 H1967 H 0.04839 0.98575 1.14459
 H1968 H 0.03737 0.98569 1.11773
 H1969 H 0.05802 1.03174 1.10863
 H1970 H 0.07004 1.03152 1.13514
 H1971 H 0.02707 1.03040 1.09725
 H1972 H 0.01542 1.02888 1.07047
 H1973 H 0.04129 0.98462 1.06168
 H1974 H 0.05252 0.98599 1.08856
 C1975 C 0.57103 0.50520 0.65908
 C1976 C 0.57685 0.49062 0.66520
 C1977 C 0.58440 0.49005 0.67998
 C1978 C 0.58668 0.50407 0.68896
 C1979 C 0.58077 0.51865 0.68291
 C1980 C 0.57294 0.51918 0.66823
 C1981 C 0.56332 0.50578 0.64311
 C1982 C 0.56522 0.51912 0.63306
 C1983 C 0.55838 0.51942 0.61788
 C1984 C 0.54978 0.50628 0.61232
 C1985 C 0.54776 0.49300 0.62228
 C1986 C 0.55430 0.49281 0.63757
 C1987 C 0.54307 0.50629 0.59607
 C1988 C 0.54659 0.49364 0.58549
 C1989 C 0.54019 0.49355 0.57014
 C1990 C 0.52987 0.50593 0.56524
 C1991 C 0.52632 0.51858 0.57587
 C1992 C 0.53302 0.51884 0.59110
 H1993 H 0.57586 0.47962 0.65845
 H1994 H 0.58847 0.47855 0.68434
 H1995 H 0.58244 0.52974 0.68934
 H1996 H 0.56840 0.53059 0.66408
 H1997 H 0.57231 0.52920 0.63672
 H1998 H 0.56016 0.52974 0.61031
 H1999 H 0.54098 0.48282 0.61827
 H2000 H 0.55221 0.48251 0.64505
 H2001 H 0.55439 0.48389 0.58909
 H2002 H 0.54306 0.48363 0.56221
 H2003 H 0.51845 0.52831 0.57236
 H2004 H 0.53013 0.52869 0.59912
 C2005 C 0.42787 -0.00023 0.65283
 C2006 C 0.43491 -0.00782 0.66601
 C2007 C 0.42736 -0.00739 0.68102
 C2008 C 0.41263 0.00067 0.68315
 C2009 C 0.40579 0.00855 0.67003
 C2010 C 0.41330 0.00808 0.65505
 C2011 C 0.43551 -0.00109 0.63675
 C2012 C 0.42618 -0.00356 0.62312
 C2013 C 0.43325 -0.00408 0.60792
 C2014 C 0.44983 -0.00212 0.60599
 C2015 C 0.45920 0.00019 0.61965
 C2016 C 0.45212 0.00067 0.63487
 C2017 C 0.45725 -0.00225 0.58977
 C2018 C 0.47216 -0.00977 0.58700
 C2019 C 0.47922 -0.00969 0.57178
 C2020 C 0.47152 -0.00209 0.55895
 C2021 C 0.45654 0.00532 0.56172
 C2022 C 0.44951 0.00526 0.57694
 H2023 H 0.44606 -0.01444 0.66462
 H2024 H 0.43285 -0.01372 0.69085
 H2025 H 0.39462 0.01515 0.67135
 H2026 H 0.40775 0.01433 0.64520
 H2027 H 0.41340 -0.00525 0.62422
 H2028 H 0.42575 -0.00617 0.59768
 H2029 H 0.47197 0.00196 0.61854
 H2030 H 0.45959 0.00276 0.64514
 H2031 H 0.47832 -0.01585 0.59659
 H2032 H 0.49073 -0.01558 0.57009
 H2033 H 0.45029 0.01135 0.55215
 H2034 H 0.43812 0.01135 0.57872
 C2035 C -0.07333 0.49887 1.15668
 C2036 C -0.06610 0.49135 1.16980
 C2037 C -0.07352 0.49173 1.18488
 C2038 C -0.08831 0.49965 1.18713
 C2039 C -0.09536 0.50742 1.17405
 C2040 C -0.08798 0.50701 1.15901
 C2041 C -0.06577 0.49813 1.14055
 C2042 C -0.07515 0.49564 1.12695
 C2043 C -0.06813 0.49517 1.11172
 C2044 C -0.05157 0.49720 1.10973
 C2045 C -0.04217 0.49957 1.12335
 C2046 C -0.04919 0.50001 1.13860
 C2047 C -0.04416 0.49702 1.09351
 C2048 C -0.02924 0.48952 1.09078
 C2049 C -0.02214 0.48960 1.07558
 C2050 C -0.02981 0.49718 1.06273
 C2051 C -0.04482 0.50454 1.06543
 C2052 C -0.05190 0.50447 1.08064
 H2053 H -0.05489 0.48485 1.16833
 H2054 H -0.06788 0.48548 1.19467
 H2055 H -0.10659 0.51390 1.17547
 H2056 H -0.09368 0.51319 1.14921
 H2057 H -0.08792 0.49386 1.12809
 H2058 H -0.07566 0.49304 1.10150
 H2059 H -0.02941 0.50142 1.12221
 H2060 H -0.04169 0.50214 1.14884
 H2061 H -0.02309 0.48347 1.10039
 H2062 H -0.01061 0.48375 1.07394
 H2063 H -0.05105 0.51055 1.05583
 H2064 H -0.06331 0.51053 1.08239
 C2065 C -0.06930 0.50106 0.34235
 C2066 C -0.07183 0.48654 0.33438
 C2067 C -0.07939 0.48623 0.31959
 C2068 C -0.08464 0.50048 0.31216
 C2069 C -0.08145 0.51509 0.31998
 C2070 C -0.07399 0.51535 0.33487
 C2071 C -0.06216 0.50121 0.35856
 C2072 C -0.05144 0.51319 0.36306
 C2073 C -0.04483 0.51326 0.37836
 C2074 C -0.04877 0.50134 0.38949
 C2075 C -0.05948 0.48937 0.38496
 C2076 C -0.06613 0.48934 0.36973
 C2077 C -0.04166 0.50124 0.40571
 C2078 C -0.05081 0.49669 0.41911
 C2079 C -0.04401 0.49607 0.43428
 C2080 C -0.02790 0.50009 0.43645
 C2081 C -0.01881 0.50489 0.42311
 C2082 C -0.02559 0.50541 0.40792
 H2083 H -0.06788 0.47533 0.33955
 H2084 H -0.08065 0.47470 0.31388
 H2085 H -0.08550 0.52641 0.31520
 H2086 H -0.07242 0.52675 0.34077
 H2087 H -0.04801 0.52243 0.35471
 H2088 H -0.03676 0.52276 0.38151
 H2089 H -0.06261 0.47988 0.39314
 H2090 H -0.07453 0.48008 0.36676
 H2091 H -0.06330 0.49370 0.41790
 H2092 H -0.05141 0.49248 0.44431
 H2093 H -0.00635 0.50802 0.42434
 H2094 H -0.01814 0.50876 0.39784
 C2095 C 0.42883 1.00213 -0.16063
 C2096 C 0.42057 1.01564 -0.16636
 C2097 C 0.41353 1.01539 -0.18144
 C2098 C 0.41450 1.00158 -0.19103
 C2099 C 0.42298 0.98816 -0.18540
 C2100 C 0.43012 0.98845 -0.17038
 C2101 C 0.43574 1.00213 -0.14437
 C2102 C 0.45100 0.99551 -0.14170
 C2103 C 0.45735 0.99521 -0.12633
 C2104 C 0.44852 1.00141 -0.11327
 C2105 C 0.43326 1.00805 -0.11594
 C2106 C 0.42696 1.00845 -0.13134
 C2107 C 0.45521 1.00094 -0.09693
 C2108 C 0.44565 0.99647 -0.08381
 C2109 C 0.45203 0.99589 -0.06843
 C2110 C 0.46809 0.99988 -0.06584
 C2111 C 0.47760 1.00444 -0.07899
 C2112 C 0.47125 1.00491 -0.09435
 H2113 H 0.41953 1.02640 -0.15915
 H2114 H 0.40695 1.02586 -0.18541
 H2115 H 0.42402 0.97740 -0.19259
 H2116 H 0.43631 0.97782 -0.16623
 H2117 H 0.45807 0.99065 -0.15154
 H2118 H 0.46909 0.98990 -0.12460
 H2119 H 0.42625 1.01304 -0.10612
 H2120 H 0.41510 1.01348 -0.13301
 H2121 H 0.43329 0.99320 -0.08547
 H2122 H 0.44436 0.99235 -0.05858
 H2123 H 0.49001 1.00759 -0.07745
 H2124 H 0.47884 1.00856 -0.10422
 C2125 C 0.57033 0.49841 -0.15499
 C2126 C 0.56452 0.48969 -0.16806
 C2127 C 0.57228 0.49027 -0.18294
 C2128 C 0.58604 0.49955 -0.18505
 C2129 C 0.59169 0.50844 -0.17204
 C2130 C 0.58396 0.50785 -0.15720
 C2131 C 0.56249 0.49749 -0.13901
 C2132 C 0.56098 0.51120 -0.12930
 C2133 C 0.55436 0.51022 -0.11395
 C2134 C 0.54902 0.49553 -0.10797
 C2135 C 0.55022 0.48187 -0.11777
 C2136 C 0.55691 0.48283 -0.13312
 C2137 C 0.54235 0.49448 -0.09151
 C2138 C 0.52862 0.48548 -0.08833
 C2139 C 0.52215 0.48486 -0.07287
 C2140 C 0.52932 0.49317 -0.06023
 C2141 C 0.54321 0.50196 -0.06340
 C2142 C 0.54963 0.50263 -0.07886
 H2143 H 0.55395 0.48244 -0.16677
 H2144 H 0.56771 0.48321 -0.19271
 H2145 H 0.60212 0.51587 -0.17333
 H2146 H 0.58885 0.51457 -0.14735
 H2147 H 0.56489 0.52272 -0.13360
 H2148 H 0.55330 0.52100 -0.10679
 H2149 H 0.54635 0.47036 -0.11341
 H2150 H 0.55810 0.47202 -0.14021
 H2151 H 0.52270 0.47918 -0.09787
 H2152 H 0.51144 0.47796 -0.07087
 H2153 H 0.54907 0.50847 -0.05396
 H2154 H 0.56036 0.50947 -0.08092
 C2155 C 0.07043 -0.00655 0.34291
 C2156 C 0.08343 -0.01657 0.33868
 C2157 C 0.09089 -0.01520 0.32375
 C2158 C 0.08550 -0.00381 0.31267
 C2159 C 0.07220 0.00590 0.31668
 C2160 C 0.06476 0.00457 0.33167
 C2161 C 0.06318 -0.00736 0.35918
 C2162 C 0.04656 -0.00579 0.36149
 C2163 C 0.03987 -0.00621 0.37687
 C2164 C 0.04967 -0.00820 0.39029
 C2165 C 0.06628 -0.00991 0.38795
 C2166 C 0.07295 -0.00947 0.37260
 C2167 C 0.04268 -0.00824 0.40669
 C2168 C 0.05044 -0.00041 0.41925
 C2169 C 0.04388 -0.00034 0.43467
 C2170 C 0.02937 -0.00806 0.43792
 C2171 C 0.02162 -0.01593 0.42535
 C2172 C 0.02821 -0.01602 0.40992
 H2173 H 0.08786 -0.02549 0.34693
 H2174 H 0.10092 -0.02306 0.32086
 H2175 H 0.06789 0.01487 0.30842
 H2176 H 0.05489 0.01258 0.33463
 H2177 H 0.03870 -0.00430 0.35138
 H2178 H 0.02705 -0.00471 0.37829
 H2179 H 0.07414 -0.01165 0.39801
 H2180 H 0.08582 -0.01051 0.37126
 H2181 H 0.06148 0.00590 0.41711
 H2182 H 0.05015 0.00591 0.44402
 H2183 H 0.01045 -0.02205 0.42742
 H2184 H 0.02205 -0.02234 0.40054
 C2185 C 0.15139 1.07375 1.00465
 C2186 C 0.16250 1.06919 0.99269
 C2187 C 0.17740 1.07655 0.99162
 C2188 C 0.18149 1.08865 1.00248
 C2189 C 0.17046 1.09304 1.01457
 C2190 C 0.15559 1.08568 1.01564
 C2191 C 0.13538 1.06629 1.00553
 C2192 C 0.12166 1.07567 1.00892
 C2193 C 0.10656 1.06873 1.00956
 C2194 C 0.10481 1.05226 1.00683
 C2195 C 0.11853 1.04286 1.00354
 C2196 C 0.13364 1.04980 1.00288
 C2197 C 0.08871 1.04495 1.00716
 C2198 C 0.08637 1.02990 1.01415
 C2199 C 0.07131 1.02285 1.01406
 C2200 C 0.05822 1.03068 1.00694
 C2201 C 0.06053 1.04585 1.00014
 C2202 C 0.07559 1.05289 1.00025
 H2203 H 0.15953 1.06019 0.98391
 H2204 H 0.18557 1.07304 0.98206
 H2205 H 0.17339 1.10209 1.02331
 H2206 H 0.14742 1.08924 1.02518
 H2207 H 0.12258 1.08843 1.01084
 H2208 H 0.09624 1.07626 1.01228
 H2209 H 0.11755 1.03017 1.00122
 H2210 H 0.14399 1.04224 1.00040
 H2211 H 0.09619 1.02359 1.01977
 H2212 H 0.06996 1.01119 1.01946
 H2213 H 0.05075 1.05223 0.99453
 H2214 H 0.07705 1.06442 0.99461
 C2215 C 0.65698 0.57258 0.50243
 C2216 C 0.66147 0.58393 0.51391
 C2217 C 0.67636 0.59124 0.51292
 C2218 C 0.68713 0.58739 0.50043
 C2219 C 0.68278 0.57582 0.48911
 C2220 C 0.66786 0.56850 0.49009
 C2221 C 0.64089 0.56531 0.50318
 C2222 C 0.63888 0.54897 0.49985
 C2223 C 0.62368 0.54222 0.50045
 C2224 C 0.61014 0.55168 0.50432
 C2225 C 0.61217 0.56799 0.50769
 C2226 C 0.62736 0.57473 0.50713
 C2227 C 0.59395 0.54461 0.50468
 C2228 C 0.58083 0.55303 0.49835
 C2229 C 0.56559 0.54638 0.49856
 C2230 C 0.56309 0.53115 0.50512
 C2231 C 0.57622 0.52276 0.51153
 C2232 C 0.59147 0.52941 0.51129
 H2233 H 0.65348 0.58709 0.52373
 H2234 H 0.67949 0.59986 0.52201
 H2235 H 0.69075 0.57273 0.47925
 H2236 H 0.66467 0.55994 0.48096
 H2237 H 0.64910 0.54138 0.49691
 H2238 H 0.62248 0.52965 0.49764
 H2239 H 0.60200 0.57555 0.51088
 H2240 H 0.62848 0.58738 0.50958
 H2241 H 0.58240 0.56468 0.49298
 H2242 H 0.55579 0.55318 0.49347
 H2243 H 0.57474 0.51101 0.51670
 H2244 H 0.60131 0.52272 0.51644
 C2245 C 0.65861 0.42544 -0.00290
 C2246 C 0.66080 0.40995 0.00319
 C2247 C 0.67598 0.40285 0.00347
 C2248 C 0.68940 0.41108 -0.00231
 C2249 C 0.68721 0.42647 -0.00868
 C2250 C 0.67196 0.43359 -0.00897
 C2251 C 0.64245 0.43303 -0.00271
 C2252 C 0.63699 0.44193 -0.01583
 C2253 C 0.62157 0.44865 -0.01572
 C2254 C 0.61130 0.44662 -0.00248
 C2255 C 0.61686 0.43791 0.01071
 C2256 C 0.63223 0.43119 0.01060
 C2257 C 0.59481 0.45349 -0.00238
 C2258 C 0.58200 0.44479 0.00405
 C2259 C 0.56654 0.45133 0.00449
 C2260 C 0.56350 0.46675 -0.00149
 C2261 C 0.57630 0.47540 -0.00807
 C2262 C 0.59177 0.46884 -0.00851
 H2263 H 0.65070 0.40322 0.00762
 H2264 H 0.67720 0.39083 0.00810
 H2265 H 0.69734 0.43315 -0.01312
 H2266 H 0.67067 0.44560 -0.01362
 H2267 H 0.64452 0.44340 -0.02632
 H2268 H 0.61758 0.45515 -0.02614
 H2269 H 0.60936 0.43641 0.02123
 H2270 H 0.63620 0.42467 0.02102
 H2271 H 0.58391 0.43283 0.00863
 H2272 H 0.55698 0.44429 0.00957
 H2273 H 0.57441 0.48731 -0.01277
 H2274 H 0.60141 0.47591 -0.01338
 C2275 C 0.15897 -0.07534 0.49620
 C2276 C 0.16126 -0.09045 0.50315
 C2277 C 0.17656 -0.09720 0.50424
 C2278 C 0.18998 -0.08900 0.49843
 C2279 C 0.18772 -0.07393 0.49138
 C2280 C 0.17238 -0.06714 0.49031
 C2281 C 0.14266 -0.06814 0.49533
 C2282 C 0.14010 -0.05180 0.49860
 C2283 C 0.12467 -0.04519 0.49840
 C2284 C 0.11144 -0.05476 0.49492
 C2285 C 0.11402 -0.07104 0.49143
 C2286 C 0.12945 -0.07765 0.49162
 C2287 C 0.09499 -0.04782 0.49515
 C2288 C 0.08221 -0.05631 0.50193
 C2289 C 0.06680 -0.04963 0.50250
 C2290 C 0.06380 -0.03430 0.49627
 C2291 C 0.07657 -0.02589 0.48933
 C2292 C 0.09197 -0.03257 0.48880
 H2293 H 0.15121 -0.09699 0.50797
 H2294 H 0.17785 -0.10894 0.50951
 H2295 H 0.19784 -0.06729 0.48687
 H2296 H 0.17099 -0.05554 0.48475
 H2297 H 0.14999 -0.04421 0.50173
 H2298 H 0.12304 -0.03265 0.50135
 H2299 H 0.10411 -0.07866 0.48844
 H2300 H 0.13106 -0.09021 0.48877
 H2301 H 0.08419 -0.06801 0.50710
 H2302 H 0.05727 -0.05644 0.50795
 H2303 H 0.07472 -0.01408 0.48436
 H2304 H 0.10153 -0.02582 0.48330
 C2305 C 0.34720 -0.07202 0.49919
 C2306 C 0.33375 -0.06481 0.50659
 C2307 C 0.31894 -0.07243 0.50658
 C2308 C 0.31730 -0.08742 0.49915
 C2309 C 0.33068 -0.09443 0.49143
 C2310 C 0.34545 -0.08683 0.49147
 C2311 C 0.36309 -0.06433 0.49968
 C2312 C 0.37695 -0.07358 0.50240
 C2313 C 0.39197 -0.06648 0.50259
 C2314 C 0.39352 -0.04997 0.50004
 C2315 C 0.37964 -0.04068 0.49749
 C2316 C 0.36458 -0.04778 0.49734
 C2317 C 0.40957 -0.04255 0.49987
 C2318 C 0.41192 -0.02750 0.50693
 C2319 C 0.42704 -0.02054 0.50671
 C2320 C 0.44017 -0.02849 0.49944
 C2321 C 0.43780 -0.04356 0.49241
 C2322 C 0.42269 -0.05049 0.49261
 H2323 H 0.33477 -0.05346 0.51275
 H2324 H 0.30890 -0.06681 0.51276
 H2325 H 0.32973 -0.10580 0.48531
 H2326 H 0.35551 -0.09253 0.48538
 H2327 H 0.37615 -0.08630 0.50456
 H2328 H 0.40238 -0.07392 0.50491
 H2329 H 0.38045 -0.02797 0.49528
 H2330 H 0.35414 -0.04039 0.49504
 H2331 H 0.40211 -0.02117 0.51279
 H2332 H 0.42843 -0.00895 0.51229
 H2333 H 0.44760 -0.05000 0.48663
 H2334 H 0.42123 -0.06199 0.48686
 C2335 C -0.15398 0.42917 0.99781
 C2336 C -0.16752 0.43597 1.00545
 C2337 C -0.18221 0.42814 1.00526
 C2338 C -0.18365 0.41332 0.99747
 C2339 C -0.17017 0.40666 0.98962
 C2340 C -0.15552 0.41448 0.98980
 C2341 C -0.13820 0.43711 0.99844
 C2342 C -0.12794 0.43701 0.98502
 C2343 C -0.11280 0.44383 0.98581
 C2344 C -0.10759 0.45096 1.00003
 C2345 C -0.11793 0.45131 1.01338
 C2346 C -0.13306 0.44444 1.01261
 C2347 C -0.09136 0.45790 1.00092
 C2348 C -0.08896 0.47256 1.00873
 C2349 C -0.07372 0.47920 1.00931
 C2350 C -0.06051 0.47130 1.00214
 C2351 C -0.06290 0.45652 0.99450
 C2352 C -0.07815 0.44992 0.99388
 H2353 H -0.16676 0.44737 1.01156
 H2354 H -0.19234 0.43352 1.01152
 H2355 H -0.17093 0.39536 0.98333
 H2356 H -0.14530 0.40882 0.98395
 H2357 H -0.13164 0.43172 0.97385
 H2358 H -0.10522 0.44365 0.97523
 H2359 H -0.11417 0.45655 1.02456
 H2360 H -0.14058 0.44451 1.02323
 H2361 H -0.09894 0.47905 1.01414
 H2362 H -0.07234 0.49060 1.01528
 H2363 H -0.05302 0.45008 0.98888
 H2364 H -0.07959 0.43849 0.98798
 C2365 C -0.15796 0.56481 0.48979
 C2366 C -0.16683 0.56442 0.50415
 C2367 C -0.18168 0.57222 0.50537
 C2368 C -0.18802 0.58046 0.49223
 C2369 C -0.17935 0.58048 0.47775
 C2370 C -0.16444 0.57280 0.47656
 C2371 C -0.14177 0.55741 0.48884
 C2372 C -0.12906 0.56563 0.48160
 C2373 C -0.11361 0.55906 0.48143
 C2374 C -0.11056 0.54408 0.48839
 C2375 C -0.12333 0.53571 0.49534
 C2376 C -0.13876 0.54234 0.49562
 C2377 C -0.09406 0.53738 0.48881
 C2378 C -0.09112 0.52112 0.48552
 C2379 C -0.07565 0.51470 0.48653
 C2380 C -0.06280 0.52439 0.49099
 C2381 C -0.06573 0.54071 0.49407
 C2382 C -0.08119 0.54714 0.49294
 H2383 H -0.16207 0.55847 0.51457
 H2384 H -0.18816 0.57191 0.51664
 H2385 H -0.18389 0.58686 0.46747
 H2386 H -0.15792 0.57316 0.46531
 H2387 H -0.13101 0.57733 0.47642
 H2388 H -0.10402 0.56570 0.47588
 H2389 H -0.12130 0.52420 0.50091
 H2390 H -0.14835 0.53569 0.50117
 H2391 H -0.10081 0.51337 0.48215
 H2392 H -0.07383 0.50209 0.48405
 H2393 H -0.05611 0.54852 0.49748
 H2394 H -0.08313 0.55969 0.49569
 C2395 C 0.33700 1.06623 -0.00545
 C2396 C 0.33017 1.07285 -0.01925
 C2397 C 0.31517 1.08042 -0.01849
 C2398 C 0.30670 1.08157 -0.00392
 C2399 C 0.31333 1.07455 0.00977
 C2400 C 0.32829 1.06695 0.00901
 C2401 C 0.35338 1.05912 -0.00599
 C2402 C 0.36408 1.06193 0.00652
 C2403 C 0.37959 1.05555 0.00596
 C2404 C 0.38482 1.04624 -0.00715
 C2405 C 0.37412 1.04337 -0.01965
 C2406 C 0.35858 1.04976 -0.01909
 C2407 C 0.40135 1.03950 -0.00767
 C2408 C 0.40430 1.02385 -0.01323
 C2409 C 0.41979 1.01734 -0.01318
 C2410 C 0.43269 1.02632 -0.00754
 C2411 C 0.42975 1.04207 -0.00222
 C2412 C 0.41427 1.04858 -0.00230
 H2413 H 0.33665 1.07267 -0.03053
 H2414 H 0.31046 1.08590 -0.02920
 H2415 H 0.30696 1.07502 0.02111
 H2416 H 0.33308 1.06168 0.01977
 H2417 H 0.36053 1.06926 0.01668
 H2418 H 0.38746 1.05781 0.01589
 H2419 H 0.37783 1.03636 -0.02998
 H2420 H 0.35059 1.04728 -0.02886
 H2421 H 0.39458 1.01649 -0.01729
 H2422 H 0.42159 1.00516 -0.01734
 H2423 H 0.43939 1.04938 0.00211
 H2424 H 0.41243 1.06076 0.00181
 C2425 C 0.00127 1.15742 1.07280
 C2426 C 0.00734 1.17070 1.06457
 C2427 C 0.00679 1.18591 1.07156
 C2428 C 0.00010 1.18818 1.08690
 C2429 C -0.00608 1.17492 1.09506
 C2430 C -0.00550 1.15973 1.08809
 C2431 C 0.00199 1.14120 1.06554
 C2432 C 0.00592 1.12781 1.07489
 C2433 C 0.00620 1.11248 1.06820
 C2434 C 0.00256 1.11018 1.05201
 C2435 C -0.00118 1.12359 1.04260
 C2436 C -0.00145 1.13893 1.04929
 C2437 C 0.00237 1.09383 1.04504
 C2438 C 0.00850 1.09089 1.02959
 C2439 C 0.00799 1.07556 1.02291
 C2440 C 0.00129 1.06282 1.03153
 C2441 C -0.00469 1.06576 1.04705
 C2442 C -0.00415 1.08108 1.05372
 H2443 H 0.01273 1.16927 1.05281
 H2444 H 0.01154 1.19592 1.06493
 H2445 H -0.01112 1.17623 1.10697
 H2446 H -0.01046 1.14978 1.09465
 H2447 H 0.00891 1.12921 1.08737
 H2448 H 0.00939 1.10243 1.07569
 H2449 H -0.00425 1.12218 1.03014
 H2450 H -0.00472 1.14899 1.04184
 H2451 H 0.01381 1.10042 1.02269
 H2452 H 0.01277 1.07373 1.01095
 H2453 H -0.00993 1.05626 1.05404
 H2454 H -0.00915 1.08301 1.06558
 C2455 C 0.50390 0.65957 0.57415
 C2456 C 0.49786 0.66149 0.58978
 C2457 C 0.49748 0.67652 0.59708
 C2458 C 0.50312 0.69002 0.58893
 C2459 C 0.50936 0.68810 0.57336
 C2460 C 0.50975 0.67302 0.56604
 C2461 C 0.50398 0.64357 0.56639
 C2462 C 0.51717 0.63825 0.55717
 C2463 C 0.51734 0.62297 0.55028
 C2464 C 0.50431 0.61271 0.55247
 C2465 C 0.49104 0.61814 0.56150
 C2466 C 0.49088 0.63338 0.56838
 C2467 C 0.50453 0.59636 0.54547
 C2468 C 0.49851 0.58342 0.55424
 C2469 C 0.49833 0.56809 0.54759
 C2470 C 0.50417 0.56530 0.53199
 C2471 C 0.51038 0.57822 0.52328
 C2472 C 0.51056 0.59358 0.52995
 H2473 H 0.49358 0.65131 0.59646
 H2474 H 0.49293 0.67753 0.60922
 H2475 H 0.51366 0.69830 0.56673
 H2476 H 0.51433 0.67194 0.55392
 H2477 H 0.52752 0.64576 0.55557
 H2478 H 0.52781 0.61906 0.54353
 H2479 H 0.48068 0.61065 0.56314
 H2480 H 0.48040 0.63725 0.57515
 H2481 H 0.49403 0.58513 0.56633
 H2482 H 0.49355 0.55842 0.55470
 H2483 H 0.51497 0.57653 0.51123
 H2484 H 0.51514 0.60333 0.52284
 C2485 C -0.00495 0.65105 0.42392
 C2486 C 0.00315 0.65337 0.40933
 C2487 C 0.00339 0.66844 0.40221
 C2488 C -0.00448 0.68156 0.40949
 C2489 C -0.01248 0.67928 0.42416
 C2490 C -0.01274 0.66418 0.43128
 C2491 C -0.00531 0.63494 0.43134
 C2492 C -0.01938 0.62927 0.43857
 C2493 C -0.01975 0.61399 0.44530
 C2494 C -0.00606 0.60406 0.44493
 C2495 C 0.00802 0.60977 0.43777
 C2496 C 0.00840 0.62503 0.43106
 C2497 C -0.00635 0.58787 0.45214
 C2498 C 0.00146 0.57490 0.44452
 C2499 C 0.00179 0.55981 0.45162
 C2500 C -0.00566 0.55733 0.46655
 C2501 C -0.01377 0.57023 0.47400
 C2502 C -0.01411 0.58532 0.46688
 H2503 H 0.00913 0.64347 0.40327
 H2504 H 0.00983 0.66984 0.39101
 H2505 H -0.01877 0.68913 0.42999
 H2506 H -0.01894 0.66281 0.44261
 H2507 H -0.03020 0.63652 0.43876
 H2508 H -0.03083 0.60985 0.45057
 H2509 H 0.01885 0.60252 0.43757
 H2510 H 0.01950 0.62916 0.42583
 H2511 H 0.00733 0.57644 0.43304
 H2512 H 0.00807 0.55014 0.44549
 H2513 H -0.01964 0.56877 0.48550
 H2514 H -0.02011 0.59510 0.47311
 C2515 C 0.49545 1.15280 -0.07591
 C2516 C 0.50347 1.15474 -0.09061
 C2517 C 0.50410 1.16973 -0.09787
 C2518 C 0.49671 1.18314 -0.09062
 C2519 C 0.48888 1.18126 -0.07581
 C2520 C 0.48826 1.16625 -0.06853
 C2521 C 0.49452 1.13677 -0.06842
 C2522 C 0.49642 1.13493 -0.05186
 C2523 C 0.49580 1.11977 -0.04491
 C2524 C 0.49324 1.10613 -0.05436
 C2525 C 0.49119 1.10800 -0.07090
 C2526 C 0.49181 1.12314 -0.07784
 C2527 C 0.49294 1.08997 -0.04705
 C2528 C 0.50039 1.07689 -0.05482
 C2529 C 0.50033 1.06173 -0.04788
 C2530 C 0.49280 1.05927 -0.03299
 C2531 C 0.48524 1.07235 -0.02527
 C2532 C 0.48532 1.08752 -0.03222
 H2533 H 0.50940 1.14468 -0.09644
 H2534 H 0.51049 1.17084 -0.10913
 H2535 H 0.48290 1.19132 -0.07002
 H2536 H 0.48184 1.16509 -0.05729
 H2537 H 0.49872 1.14518 -0.04432
 H2538 H 0.49765 1.11869 -0.03217
 H2539 H 0.48892 1.09775 -0.07846
 H2540 H 0.49001 1.12420 -0.09059
 H2541 H 0.50654 1.07844 -0.06615
 H2542 H 0.50630 1.05196 -0.05415
 H2543 H 0.47928 1.07090 -0.01382
 H2544 H 0.47930 1.09732 -0.02605
 C2545 C 0.50507 0.33815 -0.06857
 C2546 C 0.51792 0.33188 -0.07768
 C2547 C 0.51668 0.31705 -0.08530
 C2548 C 0.50252 0.30824 -0.08406
 C2549 C 0.48978 0.31439 -0.07473
 C2550 C 0.49106 0.32917 -0.06702
 C2551 C 0.50606 0.35423 -0.06113
 C2552 C 0.50015 0.35698 -0.04556
 C2553 C 0.50058 0.37227 -0.03878
 C2554 C 0.50683 0.38516 -0.04747
 C2555 C 0.51287 0.38238 -0.06299
 C2556 C 0.51254 0.36707 -0.06972
 C2557 C 0.50674 0.40149 -0.04049
 C2558 C 0.50213 0.41474 -0.04972
 C2559 C 0.50154 0.43007 -0.04301
 C2560 C 0.50565 0.43251 -0.02694
 C2561 C 0.51049 0.41927 -0.01779
 C2562 C 0.51098 0.40393 -0.02447
 H2563 H 0.52892 0.33847 -0.07895
 H2564 H 0.52665 0.31268 -0.09253
 H2565 H 0.47877 0.30780 -0.07346
 H2566 H 0.48091 0.33376 -0.06019
 H2567 H 0.49521 0.34728 -0.03861
 H2568 H 0.49572 0.37408 -0.02685
 H2569 H 0.51789 0.39206 -0.06991
 H2570 H 0.51704 0.36535 -0.08180
 H2571 H 0.49864 0.41319 -0.06205
 H2572 H 0.49777 0.43999 -0.05042
 H2573 H 0.51375 0.42070 -0.00538
 H2574 H 0.51475 0.39396 -0.01713
 C2575 C 0.00117 -0.16262 0.43194
 C2576 C -0.01305 -0.17139 0.43256
 C2577 C -0.01396 -0.18630 0.42506
 C2578 C -0.00067 -0.19280 0.41677
 C2579 C 0.01368 -0.18422 0.41650
 C2580 C 0.01459 -0.16930 0.42399
 C2581 C 0.00184 -0.14635 0.43909
 C2582 C 0.01549 -0.14131 0.44728
 C2583 C 0.01616 -0.12588 0.45371
 C2584 C 0.00322 -0.11513 0.45205
 C2585 C -0.01043 -0.12020 0.44390
 C2586 C -0.01111 -0.13562 0.43751
 C2587 C 0.00389 -0.09869 0.45879
 C2588 C -0.00229 -0.08561 0.45024
 C2589 C -0.00211 -0.07021 0.45675
 C2590 C 0.00426 -0.06750 0.47200
 C2591 C 0.01066 -0.08056 0.48046
 C2592 C 0.01048 -0.09597 0.47392
 H2593 H -0.02350 -0.16671 0.43885
 H2594 H -0.02510 -0.19274 0.42570
 H2595 H 0.02405 -0.18880 0.41001
 H2596 H 0.02565 -0.16275 0.42312
 H2597 H 0.02561 -0.14935 0.44882
 H2598 H 0.02690 -0.12228 0.45981
 H2599 H -0.02068 -0.11227 0.44259
 H2600 H -0.02171 -0.13906 0.43109
 H2601 H -0.00721 -0.08728 0.43844
 H2602 H -0.00707 -0.06044 0.44985
 H2603 H 0.01564 -0.07894 0.49223
 H2604 H 0.01518 -0.10582 0.48088
 C2605 C 0.50262 -0.15481 0.56860
 C2606 C 0.49455 -0.16809 0.56245
 C2607 C 0.49455 -0.18261 0.57071
 C2608 C 0.50257 -0.18411 0.58532
 C2609 C 0.51080 -0.17088 0.59133
 C2610 C 0.51081 -0.15641 0.58309
 C2611 C 0.50230 -0.13921 0.56018
 C2612 C 0.51603 -0.12969 0.55957
 C2613 C 0.51553 -0.11462 0.55247
 C2614 C 0.50131 -0.10871 0.54577
 C2615 C 0.48767 -0.11836 0.54603
 C2616 C 0.48815 -0.13344 0.55318
 C2617 C 0.50068 -0.09243 0.53882
 C2618 C 0.49273 -0.08953 0.52440
 C2619 C 0.49239 -0.07419 0.51779
 C2620 C 0.49994 -0.06141 0.52551
 C2621 C 0.50771 -0.06432 0.54006
 C2622 C 0.50810 -0.07964 0.54661
 H2623 H 0.48827 -0.16727 0.55123
 H2624 H 0.48800 -0.19256 0.56584
 H2625 H 0.51727 -0.17172 0.60244
 H2626 H 0.51698 -0.14636 0.58825
 H2627 H 0.52719 -0.13392 0.56457
 H2628 H 0.52631 -0.10758 0.55216
 H2629 H 0.47650 -0.11405 0.54110
 H2630 H 0.47732 -0.14039 0.55364
 H2631 H 0.48701 -0.09918 0.51807
 H2632 H 0.48629 -0.07239 0.50658
 H2633 H 0.51361 -0.05477 0.54637
 H2634 H 0.51410 -0.08147 0.55787
 C2635 C 0.00314 0.34368 1.07004
 C2636 C -0.00491 0.33052 1.06369
 C2637 C -0.00476 0.31579 1.07158
 C2638 C 0.00339 0.31379 1.08618
 C2639 C 0.01171 0.32709 1.09223
 C2640 C 0.01153 0.34174 1.08432
 C2641 C 0.00257 0.35950 1.06205
 C2642 C 0.01620 0.36915 1.06149
 C2643 C 0.01547 0.38442 1.05483
 C2644 C 0.00109 0.39038 1.04850
 C2645 C -0.01246 0.38062 1.04871
 C2646 C -0.01174 0.36535 1.05544
 C2647 C 0.00025 0.40681 1.04192
 C2648 C -0.00788 0.40993 1.02764
 C2649 C -0.00835 0.42538 1.02130
 C2650 C -0.00078 0.43806 1.02917
 C2651 C 0.00714 0.43494 1.04359
 C2652 C 0.00767 0.41950 1.04986
 H2653 H -0.01140 0.33161 1.05261
 H2654 H -0.01172 0.30630 1.06644
 H2655 H 0.01883 0.32627 1.10290
 H2656 H 0.01783 0.35166 1.08957
 H2657 H 0.02748 0.36488 1.06620
 H2658 H 0.02618 0.39155 1.05455
 H2659 H -0.02374 0.38497 1.04406
 H2660 H -0.02251 0.35830 1.05588
 H2661 H -0.01361 0.40036 1.02120
 H2662 H -0.01457 0.42733 1.01018
 H2663 H 0.01308 0.44441 1.04998
 H2664 H 0.01382 0.41749 1.06101
 C2665 C 0.75612 0.32431 0.09292
 C2666 C 0.75284 0.34072 0.09177
 C2667 C 0.75301 0.34835 0.07697
 C2668 C 0.75641 0.33984 0.06259
 C2669 C 0.75966 0.32320 0.06402
 C2670 C 0.75960 0.31565 0.07892
 C2671 C 0.75583 0.31636 0.10873
 C2672 C 0.76790 0.30538 0.11296
 C2673 C 0.76788 0.29838 0.12812
 C2674 C 0.75573 0.30215 0.13933
 C2675 C 0.74353 0.31294 0.13496
 C2676 C 0.74360 0.31999 0.11986
 C2677 C 0.75577 0.29497 0.15555
 C2678 C 0.75115 0.30414 0.16898
 C2679 C 0.75076 0.29733 0.18419
 C2680 C 0.75506 0.28118 0.18637
 C2681 C 0.75992 0.27206 0.17298
 C2682 C 0.76025 0.27887 0.15774
 H2683 H 0.75014 0.34773 0.10239
 H2684 H 0.74956 0.36084 0.07709
 H2685 H 0.76304 0.31584 0.05387
 H2686 H 0.76218 0.30294 0.07948
 H2687 H 0.77757 0.30250 0.10468
 H2688 H 0.77756 0.29026 0.13117
 H2689 H 0.73381 0.31584 0.14317
 H2690 H 0.73399 0.32820 0.11682
 H2691 H 0.74793 0.31665 0.16776
 H2692 H 0.74708 0.30474 0.19425
 H2693 H 0.76326 0.25957 0.17420
 H2694 H 0.76369 0.27143 0.14763
 C2695 C 0.25683 0.82442 0.59575
 C2696 C 0.24919 0.83933 0.59377
 C2697 C 0.24897 0.84671 0.57884
 C2698 C 0.25643 0.83940 0.56551
 C2699 C 0.26399 0.82443 0.56744
 C2700 C 0.26422 0.81703 0.58241
 C2701 C 0.25715 0.81673 0.61172
 C2702 C 0.27106 0.80896 0.61716
 C2703 C 0.27145 0.80216 0.63241
 C2704 C 0.25794 0.80302 0.64254
 C2705 C 0.24399 0.81064 0.63703
 C2706 C 0.24359 0.81740 0.62180
 C2707 C 0.25831 0.79598 0.65880
 C2708 C 0.25107 0.80407 0.67179
 C2709 C 0.25087 0.79722 0.68699
 C2710 C 0.25789 0.78208 0.68957
 C2711 C 0.26541 0.77413 0.67662
 C2712 C 0.26563 0.78101 0.66141
 H2713 H 0.24354 0.84542 0.60383
 H2714 H 0.24286 0.85814 0.57771
 H2715 H 0.26995 0.81856 0.55742
 H2716 H 0.27007 0.80547 0.58352
 H2717 H 0.28177 0.80843 0.60976
 H2718 H 0.28242 0.79652 0.63639
 H2719 H 0.23329 0.81121 0.64444
 H2720 H 0.23260 0.82304 0.61785
 H2721 H 0.24556 0.81574 0.67020
 H2722 H 0.24504 0.80373 0.69669
 H2723 H 0.27093 0.76246 0.67815
 H2724 H 0.27119 0.77444 0.65161
 C2725 C 0.74933 0.67382 0.59160
 C2726 C 0.73770 0.66256 0.58757
 C2727 C 0.73807 0.65508 0.57262
 C2728 C 0.75006 0.65869 0.56135
 C2729 C 0.76155 0.67014 0.56526
 C2730 C 0.76119 0.67762 0.58024
 C2731 C 0.74918 0.68139 0.60768
 C2732 C 0.75252 0.69772 0.60950
 C2733 C 0.75238 0.70480 0.62466
 C2734 C 0.74893 0.69569 0.63834
 C2735 C 0.74560 0.67937 0.63651
 C2736 C 0.74572 0.67230 0.62136
 C2737 C 0.74886 0.70318 0.65446
 C2738 C 0.75546 0.69504 0.66754
 C2739 C 0.75552 0.70214 0.68269
 C2740 C 0.74897 0.71755 0.68510
 C2741 C 0.74228 0.72564 0.67201
 C2742 C 0.74223 0.71854 0.65687
 H2743 H 0.72823 0.65961 0.59594
 H2744 H 0.72887 0.64654 0.56984
 H2745 H 0.77104 0.67302 0.55689
 H2746 H 0.77043 0.68610 0.58307
 H2747 H 0.75508 0.70507 0.59918
 H2748 H 0.75516 0.71736 0.62570
 H2749 H 0.74274 0.67208 0.64680
 H2750 H 0.74328 0.65965 0.62037
 H2751 H 0.76083 0.68328 0.66602
 H2752 H 0.76082 0.69557 0.69247
 H2753 H 0.73708 0.73749 0.67343
 H2754 H 0.73685 0.72501 0.64708
 C2755 C 0.24503 0.17586 0.09226
 C2756 C 0.24762 0.15931 0.09127
 C2757 C 0.24786 0.15146 0.07653
 C2758 C 0.24557 0.15989 0.06202
 C2759 C 0.24326 0.17670 0.06324
 C2760 C 0.24294 0.18447 0.07808
 C2761 C 0.24458 0.18402 0.10808
 C2762 C 0.25155 0.19910 0.11012
 C2763 C 0.25156 0.20646 0.12516
 C2764 C 0.24467 0.19887 0.13847
 C2765 C 0.23750 0.18393 0.13638
 C2766 C 0.23741 0.17662 0.12136
 C2767 C 0.24522 0.20634 0.15455
 C2768 C 0.24912 0.19709 0.16796
 C2769 C 0.24981 0.20408 0.18312
 C2770 C 0.24651 0.22049 0.18523
 C2771 C 0.24251 0.22973 0.17180
 C2772 C 0.24194 0.22274 0.15662
 H2773 H 0.24981 0.15237 0.10195
 H2774 H 0.25073 0.13884 0.07679
 H2775 H 0.24075 0.18404 0.05295
 H2776 H 0.24063 0.19724 0.07845
 H2777 H 0.25735 0.20503 0.10019
 H2778 H 0.25732 0.21791 0.12647
 H2779 H 0.23186 0.17794 0.14638
 H2780 H 0.23163 0.16517 0.12013
 H2781 H 0.25188 0.18445 0.16669
 H2782 H 0.25292 0.19660 0.19319
 H2783 H 0.23992 0.24241 0.17299
 H2784 H 0.23876 0.23013 0.14650
 C2785 C 0.24759 0.18095 0.90803
 C2786 C 0.23317 0.17586 0.91505
 C2787 C 0.23312 0.16812 0.92982
 C2788 C 0.24748 0.16539 0.93804
 C2789 C 0.26184 0.17088 0.93123
 C2790 C 0.26190 0.17849 0.91639
 C2791 C 0.24775 0.18838 0.89189
 C2792 C 0.25838 0.20076 0.88818
 C2793 C 0.25882 0.20737 0.87286
 C2794 C 0.24855 0.20187 0.86089
 C2795 C 0.23780 0.18962 0.86466
 C2796 C 0.23745 0.18291 0.87992
 C2797 C 0.24906 0.20881 0.84454
 C2798 C 0.24682 0.19908 0.83102
 C2799 C 0.24703 0.20562 0.81567
 C2800 C 0.24967 0.22203 0.81345
 C2801 C 0.25211 0.23174 0.82693
 C2802 C 0.25174 0.22523 0.84229
 H2803 H 0.22189 0.17780 0.90909
 H2804 H 0.22186 0.16392 0.93460
 H2805 H 0.27309 0.16922 0.93732
 H2806 H 0.27325 0.18210 0.91130
 H2807 H 0.26634 0.20540 0.89714
 H2808 H 0.26738 0.21666 0.87035
 H2809 H 0.22954 0.18525 0.85583
 H2810 H 0.22927 0.17325 0.88226
 H2811 H 0.24505 0.18634 0.83226
 H2812 H 0.24526 0.19778 0.80553
 H2813 H 0.25406 0.24445 0.82564
 H2814 H 0.25326 0.23313 0.85243
 C2815 C 0.75069 0.68190 0.40762
 C2816 C 0.73651 0.67653 0.41489
 C2817 C 0.73692 0.66855 0.42952
 C2818 C 0.75150 0.66586 0.43735
 C2819 C 0.76562 0.67167 0.43032
 C2820 C 0.76524 0.67952 0.41561
 C2821 C 0.75038 0.68942 0.39153
 C2822 C 0.76074 0.70197 0.38764
 C2823 C 0.76079 0.70861 0.37233
 C2824 C 0.75039 0.70293 0.36055
 C2825 C 0.73987 0.69054 0.36452
 C2826 C 0.73992 0.68383 0.37978
 C2827 C 0.75058 0.70975 0.34415
 C2828 C 0.74835 0.69985 0.33076
 C2829 C 0.74826 0.70624 0.31536
 C2830 C 0.75058 0.72267 0.31295
 C2831 C 0.75302 0.73256 0.32629
 C2832 C 0.75295 0.72619 0.34172
 H2833 H 0.72506 0.67839 0.40922
 H2834 H 0.72582 0.66411 0.43447
 H2835 H 0.77704 0.67005 0.43612
 H2836 H 0.77641 0.68336 0.41030
 H2837 H 0.76882 0.70671 0.39645
 H2838 H 0.76916 0.71802 0.36965
 H2839 H 0.73152 0.68604 0.35585
 H2840 H 0.73194 0.67403 0.38225
 H2841 H 0.74683 0.68709 0.33214
 H2842 H 0.74652 0.69825 0.30533
 H2843 H 0.75474 0.74529 0.32485
 H2844 H 0.75448 0.73421 0.35177
 C2845 C 0.24586 0.82107 0.40938
 C2846 C 0.26005 0.81936 0.41808
 C2847 C 0.26150 0.82656 0.43308
 C2848 C 0.24873 0.83551 0.43976
 C2849 C 0.23440 0.83690 0.43123
 C2850 C 0.23300 0.82982 0.41616
 C2851 C 0.24464 0.81408 0.39313
 C2852 C 0.23801 0.82305 0.38061
 C2853 C 0.23738 0.81668 0.36515
 C2854 C 0.24324 0.80117 0.36194
 C2855 C 0.24969 0.79213 0.37450
 C2856 C 0.25045 0.79854 0.38992
 C2857 C 0.24282 0.79447 0.34551
 C2858 C 0.23814 0.77861 0.34295
 C2859 C 0.23813 0.77213 0.32753
 C2860 C 0.24294 0.78133 0.31432
 C2861 C 0.24749 0.79726 0.31689
 C2862 C 0.24737 0.80377 0.33231
 H2863 H 0.27019 0.81278 0.41310
 H2864 H 0.27264 0.82521 0.43945
 H2865 H 0.22442 0.84386 0.43603
 H2866 H 0.22188 0.83120 0.40978
 H2867 H 0.23359 0.83511 0.38271
 H2868 H 0.23224 0.82386 0.35572
 H2869 H 0.25442 0.78019 0.37234
 H2870 H 0.25552 0.79133 0.39937
 H2871 H 0.23440 0.77122 0.35288
 H2872 H 0.23454 0.75983 0.32602
 H2873 H 0.25123 0.80469 0.30699
 H2874 H 0.25117 0.81599 0.33396
 C2875 C 0.74626 0.31932 0.90820
 C2876 C 0.73321 0.32792 0.91479
 C2877 C 0.73445 0.33537 0.92971
 C2878 C 0.74881 0.33450 0.93824
 C2879 C 0.76177 0.32569 0.93176
 C2880 C 0.76048 0.31811 0.91692
 C2881 C 0.74524 0.31205 0.89205
 C2882 C 0.75135 0.29658 0.88908
 C2883 C 0.75084 0.28995 0.87373
 C2884 C 0.74436 0.29873 0.86101
 C2885 C 0.73816 0.31416 0.86399
 C2886 C 0.73853 0.32073 0.87937
 C2887 C 0.74428 0.29189 0.84463
 C2888 C 0.74886 0.30120 0.83145
 C2889 C 0.74914 0.29467 0.81604
 C2890 C 0.74471 0.27871 0.81346
 C2891 C 0.73995 0.26946 0.82666
 C2892 C 0.73982 0.27596 0.84207
 H2893 H 0.72207 0.32892 0.90838
 H2894 H 0.72433 0.34220 0.93436
 H2895 H 0.77294 0.32474 0.93814
 H2896 H 0.77076 0.31166 0.91207
 H2897 H 0.75649 0.28959 0.89866
 H2898 H 0.75581 0.27808 0.87174
 H2899 H 0.73297 0.32114 0.85443
 H2900 H 0.73387 0.33273 0.88129
 H2901 H 0.75250 0.31348 0.83309
 H2902 H 0.75283 0.30214 0.80615
 H2903 H 0.73647 0.25713 0.82511
 H2904 H 0.73609 0.26857 0.85200
 C2905 C 0.82338 0.40649 0.24903
 C2906 C 0.83818 0.40817 0.25659
 C2907 C 0.84560 0.42301 0.25718
 C2908 C 0.83842 0.43653 0.25021
 C2909 C 0.82345 0.43495 0.24292
 C2910 C 0.81601 0.42007 0.24234
 C2911 C 0.81583 0.39055 0.24800
 C2912 C 0.79928 0.38887 0.25048
 C2913 C 0.79231 0.37377 0.24985
 C2914 C 0.80173 0.36004 0.24672
 C2915 C 0.81824 0.36176 0.24405
 C2916 C 0.82520 0.37683 0.24469
 C2917 C 0.79442 0.34394 0.24642
 C2918 C 0.80235 0.33077 0.25328
 C2919 C 0.79543 0.31565 0.25319
 C2920 C 0.78039 0.31334 0.24623
 C2921 C 0.77252 0.32651 0.23927
 C2922 C 0.77945 0.34163 0.23937
 H2923 H 0.84399 0.39801 0.26216
 H2924 H 0.85696 0.42391 0.26318
 H2925 H 0.81770 0.44512 0.23731
 H2926 H 0.80467 0.41911 0.23630
 H2927 H 0.79178 0.39919 0.25324
 H2928 H 0.77959 0.37281 0.25217
 H2929 H 0.82577 0.35146 0.24131
 H2930 H 0.83793 0.37778 0.24243
 H2931 H 0.81380 0.33221 0.25900
 H2932 H 0.80182 0.30582 0.25871
 H2933 H 0.76095 0.32517 0.23375
 H2934 H 0.77315 0.35149 0.23379
 C2935 C 0.32361 0.90731 0.74352
 C2936 C 0.33539 0.91106 0.73206
 C2937 C 0.34269 0.92597 0.73219
 C2938 C 0.33839 0.93751 0.74378
 C2939 C 0.32634 0.93393 0.75500
 C2940 C 0.31904 0.91898 0.75488
 C2941 C 0.31642 0.89117 0.74381
 C2942 C 0.30001 0.88931 0.74696
 C2943 C 0.29333 0.87408 0.74739
 C2944 C 0.30292 0.86037 0.74471
 C2945 C 0.31932 0.86224 0.74154
 C2946 C 0.32599 0.87746 0.74109
 C2947 C 0.29585 0.84418 0.74530
 C2948 C 0.30406 0.83143 0.75259
 C2949 C 0.29731 0.81625 0.75333
 C2950 C 0.28216 0.81347 0.74681
 C2951 C 0.27402 0.82621 0.73939
 C2952 C 0.28078 0.84137 0.73865
 H2953 H 0.33894 0.90245 0.72295
 H2954 H 0.35173 0.92850 0.72321
 H2955 H 0.32291 0.94252 0.76418
 H2956 H 0.31014 0.91640 0.76398
 H2957 H 0.29230 0.89964 0.74897
 H2958 H 0.28068 0.87302 0.75004
 H2959 H 0.32699 0.85193 0.73926
 H2960 H 0.33872 0.87848 0.73883
 H2961 H 0.31561 0.83326 0.75798
 H2962 H 0.30391 0.80673 0.75916
 H2963 H 0.26237 0.82450 0.73416
 H2964 H 0.27427 0.85089 0.73273
 C2965 C 0.17517 0.90950 0.25123
 C2966 C 0.18333 0.92337 0.25554
 C2967 C 0.17584 0.93841 0.25470
 C2968 C 0.15977 0.94012 0.24962
 C2969 C 0.15194 0.92594 0.24487
 C2970 C 0.15949 0.91101 0.24568
 C2971 C 0.18282 0.89344 0.25255
 C2972 C 0.17389 0.88035 0.25795
 C2973 C 0.18081 0.86509 0.25867
 C2974 C 0.19685 0.86256 0.25405
 C2975 C 0.20589 0.87568 0.24893
 C2976 C 0.19895 0.89096 0.24817
 C2977 C 0.20399 0.84623 0.25432
 C2978 C 0.21959 0.84366 0.25990
 C2979 C 0.22632 0.82827 0.26001
 C2980 C 0.21762 0.81511 0.25446
 C2981 C 0.20198 0.81771 0.24893
 C2982 C 0.19524 0.83308 0.24889
 H2983 H 0.19541 0.92257 0.26005
 H2984 H 0.18261 0.94841 0.25906
 H2985 H 0.14015 0.92611 0.23973
 H2986 H 0.15306 0.90059 0.24170
 H2987 H 0.16154 0.88192 0.26173
 H2988 H 0.17363 0.85527 0.26294
 H2989 H 0.21823 0.87405 0.24513
 H2990 H 0.20609 0.90076 0.24379
 H2991 H 0.22654 0.85354 0.26432
 H2992 H 0.23839 0.82672 0.26436
 H2993 H 0.19494 0.80787 0.24455
 H2994 H 0.18326 0.83472 0.24434
 C2995 C 0.67943 0.40906 0.75775
 C2996 C 0.68705 0.42247 0.75117
 C2997 C 0.67902 0.43722 0.75022
 C2998 C 0.66325 0.43899 0.75603
 C2999 C 0.65583 0.42570 0.76303
 C3000 C 0.66372 0.41092 0.76371
 C3001 C 0.68755 0.39309 0.75800
 C3002 C 0.68440 0.38218 0.77040
 C3003 C 0.69113 0.36680 0.77006
 C3004 C 0.70145 0.36212 0.75754
 C3005 C 0.70507 0.37307 0.74542
 C3006 C 0.69807 0.38834 0.74555
 C3007 C 0.70813 0.34571 0.75693
 C3008 C 0.72470 0.34312 0.75556
 C3009 C 0.73099 0.32756 0.75494
 C3010 C 0.72076 0.31435 0.75529
 C3011 C 0.70417 0.31698 0.75653
 C3012 C 0.69792 0.33253 0.75752
 H3013 H 0.69923 0.42161 0.74671
 H3014 H 0.68510 0.44712 0.74464
 H3015 H 0.64384 0.42664 0.76799
 H3016 H 0.65732 0.40089 0.76864
 H3017 H 0.67671 0.38548 0.78040
 H3018 H 0.68835 0.35857 0.77963
 H3019 H 0.71293 0.36962 0.73559
 H3020 H 0.70059 0.39624 0.73565
 H3021 H 0.73276 0.35315 0.75512
 H3022 H 0.74382 0.32585 0.75392
 H3023 H 0.69604 0.30700 0.75691
 H3024 H 0.68509 0.33431 0.75850
 C3025 C 0.67700 0.59453 0.74681
 C3026 C 0.66101 0.59367 0.75203
 C3027 C 0.65341 0.57895 0.75317
 C3028 C 0.66164 0.56469 0.74919
 C3029 C 0.67763 0.56552 0.74394
 C3030 C 0.68524 0.58028 0.74277
 C3031 C 0.68503 0.61024 0.74571
 C3032 C 0.70099 0.61192 0.75049
 C3033 C 0.70832 0.62684 0.74998
 C3034 C 0.69983 0.64042 0.74471
 C3035 C 0.68396 0.63870 0.73973
 C3036 C 0.67665 0.62378 0.74019
 C3037 C 0.70740 0.65636 0.74468
 C3038 C 0.69879 0.66993 0.75003
 C3039 C 0.70592 0.68494 0.75019
 C3040 C 0.72182 0.68675 0.74492
 C3041 C 0.73041 0.67317 0.73949
 C3042 C 0.72329 0.65814 0.73941
 H3043 H 0.65438 0.60439 0.75542
 H3044 H 0.64101 0.57876 0.75703
 H3045 H 0.68433 0.55475 0.74090
 H3046 H 0.69753 0.58056 0.73857
 H3047 H 0.70769 0.60177 0.75501
 H3048 H 0.72050 0.62784 0.75407
 H3049 H 0.67722 0.64890 0.73535
 H3050 H 0.66445 0.62284 0.73613
 H3051 H 0.68658 0.66889 0.75434
 H3052 H 0.69894 0.69512 0.75445
 H3053 H 0.74267 0.67412 0.73533
 H3054 H 0.73016 0.64792 0.73507
 C3055 C 0.17589 0.09597 0.24590
 C3056 C 0.18395 0.08192 0.24095
 C3057 C 0.17646 0.06709 0.24197
 C3058 C 0.16075 0.06599 0.24799
 C3059 C 0.15270 0.08006 0.25292
 C3060 C 0.16018 0.09485 0.25191
 C3061 C 0.18378 0.11177 0.24490
 C3062 C 0.17507 0.12543 0.24022
 C3063 C 0.18230 0.14039 0.23981
 C3064 C 0.19842 0.14204 0.24402
 C3065 C 0.20721 0.12835 0.24846
 C3066 C 0.19996 0.11338 0.24891
 C3067 C 0.20594 0.15802 0.24404
 C3068 C 0.22159 0.15998 0.23816
 C3069 C 0.22871 0.17501 0.23836
 C3070 C 0.22035 0.18843 0.24452
 C3071 C 0.20466 0.18645 0.25035
 C3072 C 0.19754 0.17143 0.25009
 H3073 H 0.19601 0.08240 0.23613
 H3074 H 0.18302 0.05646 0.23819
 H3075 H 0.14051 0.07968 0.25740
 H3076 H 0.15371 0.10542 0.25601
 H3077 H 0.16267 0.12455 0.23676
 H3078 H 0.17530 0.15068 0.23607
 H3079 H 0.21959 0.12928 0.25196
 H3080 H 0.20693 0.10313 0.25278
 H3081 H 0.22829 0.14990 0.23326
 H3082 H 0.24080 0.17609 0.23374
 H3083 H 0.19786 0.19650 0.25518
 H3084 H 0.18553 0.17026 0.25488
 C3085 C 0.32245 0.09385 0.75713
 C3086 C 0.33812 0.09261 0.75095
 C3087 C 0.34568 0.07772 0.74933
 C3088 C 0.33778 0.06367 0.75381
 C3089 C 0.32217 0.06489 0.76016
 C3090 C 0.31456 0.07983 0.76175
 C3091 C 0.31437 0.10974 0.75837
 C3092 C 0.29827 0.11168 0.75403
 C3093 C 0.29100 0.12684 0.75423
 C3094 C 0.29967 0.14038 0.75877
 C3095 C 0.31564 0.13836 0.76351
 C3096 C 0.32290 0.12323 0.76333
 C3097 C 0.29228 0.15660 0.75810
 C3098 C 0.30105 0.16954 0.75213
 C3099 C 0.29406 0.18476 0.75114
 C3100 C 0.27813 0.18744 0.75612
 C3101 C 0.26938 0.17450 0.76221
 C3102 C 0.27637 0.15925 0.76315
 H3103 H 0.34445 0.10316 0.74711
 H3104 H 0.35780 0.07721 0.74462
 H3105 H 0.31575 0.05427 0.76364
 H3106 H 0.30253 0.08042 0.76667
 H3107 H 0.29144 0.10156 0.74997
 H3108 H 0.27873 0.12803 0.75034
 H3109 H 0.32253 0.14852 0.76737
 H3110 H 0.33522 0.12207 0.76704
 H3111 H 0.31325 0.16784 0.74793
 H3112 H 0.30117 0.19442 0.74638
 H3113 H 0.25710 0.17612 0.76619
 H3114 H 0.26937 0.14955 0.76797
 C3115 C 0.82249 0.59350 0.25996
 C3116 C 0.83814 0.59208 0.25380
 C3117 C 0.84570 0.57715 0.25256
 C3118 C 0.83779 0.56322 0.25742
 C3119 C 0.82220 0.56462 0.26379
 C3120 C 0.81461 0.57961 0.26500
 C3121 C 0.81439 0.60941 0.26072
 C3122 C 0.79826 0.61119 0.25642
 C3123 C 0.79097 0.62633 0.25612
 C3124 C 0.79967 0.64003 0.26011
 C3125 C 0.81567 0.63821 0.26480
 C3126 C 0.82294 0.62308 0.26512
 C3127 C 0.79224 0.65621 0.25895
 C3128 C 0.80092 0.66895 0.25241
 C3129 C 0.79392 0.68413 0.25104
 C3130 C 0.77807 0.68697 0.25620
 C3131 C 0.76942 0.67424 0.26283
 C3132 C 0.77641 0.65903 0.26415
 H3133 H 0.84448 0.60251 0.24963
 H3134 H 0.85780 0.57651 0.24783
 H3135 H 0.81578 0.55410 0.26756
 H3136 H 0.80259 0.58033 0.26994
 H3137 H 0.79141 0.60092 0.25277
 H3138 H 0.77867 0.62738 0.25230
 H3139 H 0.82258 0.64850 0.26824
 H3140 H 0.83529 0.62208 0.26879
 H3141 H 0.81307 0.66710 0.24810
 H3142 H 0.80096 0.69364 0.24588
 H3143 H 0.75720 0.67599 0.26697
 H3144 H 0.76949 0.64949 0.26939
 C3145 C 0.90841 0.25257 0.17938
 C3146 C 0.91607 0.23819 0.17475
 C3147 C 0.93107 0.23833 0.16723
 C3148 C 0.93885 0.25284 0.16426
 C3149 C 0.93136 0.26719 0.16924
 C3150 C 0.91630 0.26706 0.17664
 C3151 C 0.89211 0.25249 0.18669
 C3152 C 0.88781 0.26344 0.19884
 C3153 C 0.87237 0.26361 0.20540
 C3154 C 0.86087 0.25274 0.20008
 C3155 C 0.86521 0.24170 0.18803
 C3156 C 0.88061 0.24162 0.18138
 C3157 C 0.84442 0.25292 0.20705
 C3158 C 0.83109 0.25000 0.19740
 C3159 C 0.81566 0.25003 0.20398
 C3160 C 0.81317 0.25314 0.22035
 C3161 C 0.82646 0.25618 0.22997
 C3162 C 0.84190 0.25600 0.22342
 H3163 H 0.91046 0.22679 0.17690
 H3164 H 0.93639 0.22706 0.16340
 H3165 H 0.93710 0.27857 0.16735
 H3166 H 0.91069 0.27838 0.17988
 H3167 H 0.89641 0.27185 0.20335
 H3168 H 0.86939 0.27240 0.21452
 H3169 H 0.85674 0.23301 0.18380
 H3170 H 0.88342 0.23317 0.17189
 H3171 H 0.83256 0.24788 0.18469
 H3172 H 0.80566 0.24777 0.19621
 H3173 H 0.82498 0.25850 0.24265
 H3174 H 0.85190 0.25803 0.23126
 C3175 C 0.40955 0.75998 0.68023
 C3176 C 0.42113 0.74832 0.68408
 C3177 C 0.43602 0.74805 0.67631
 C3178 C 0.43957 0.75933 0.66443
 C3179 C 0.42810 0.77117 0.66081
 C3180 C 0.41327 0.77153 0.66867
 C3181 C 0.39343 0.75976 0.68780
 C3182 C 0.38591 0.77403 0.69295
 C3183 C 0.37051 0.77381 0.69964
 C3184 C 0.36228 0.75934 0.70116
 C3185 C 0.36984 0.74508 0.69607
 C3186 C 0.38527 0.74528 0.68951
 C3187 C 0.34585 0.75907 0.70799
 C3188 C 0.33403 0.74971 0.70088
 C3189 C 0.31865 0.74908 0.70754
 C3190 C 0.31478 0.75771 0.72154
 C3191 C 0.32657 0.76725 0.72853
 C3192 C 0.34192 0.76797 0.72179
 H3193 H 0.41863 0.73937 0.69306
 H3194 H 0.44460 0.73873 0.67926
 H3195 H 0.43059 0.78011 0.65182
 H3196 H 0.40454 0.78057 0.66538
 H3197 H 0.39197 0.78534 0.69187
 H3198 H 0.36493 0.78499 0.70338
 H3199 H 0.36384 0.73374 0.69726
 H3200 H 0.39071 0.73413 0.68549
 H3201 H 0.33667 0.74290 0.69012
 H3202 H 0.30987 0.74163 0.70183
 H3203 H 0.32399 0.77409 0.73929
 H3204 H 0.35083 0.77520 0.72758
 C3205 C 0.40354 0.24702 0.82346
 C3206 C 0.41474 0.25888 0.81972
 C3207 C 0.42965 0.25898 0.82713
 C3208 C 0.43360 0.24732 0.83852
 C3209 C 0.42245 0.23540 0.84214
 C3210 C 0.40761 0.23523 0.83467
 C3211 C 0.38758 0.24705 0.81588
 C3212 C 0.38084 0.23270 0.81057
 C3213 C 0.36568 0.23269 0.80371
 C3214 C 0.35688 0.24701 0.80211
 C3215 C 0.36362 0.26137 0.80740
 C3216 C 0.37884 0.26140 0.81417
 C3217 C 0.34075 0.24698 0.79490
 C3218 C 0.32818 0.25617 0.80164
 C3219 C 0.31301 0.25621 0.79478
 C3220 C 0.31010 0.24713 0.78095
 C3221 C 0.32268 0.23790 0.77426
 C3222 C 0.33781 0.23779 0.78119
 H3223 H 0.41198 0.26803 0.81102
 H3224 H 0.43797 0.26837 0.82419
 H3225 H 0.42524 0.22616 0.85075
 H3226 H 0.39918 0.22602 0.83788
 H3227 H 0.38736 0.22148 0.81162
 H3228 H 0.36073 0.22142 0.79986
 H3229 H 0.35719 0.27261 0.80617
 H3230 H 0.38366 0.27262 0.81830
 H3231 H 0.33005 0.26322 0.81232
 H3232 H 0.30360 0.26345 0.80025
 H3233 H 0.32088 0.23075 0.76363
 H3234 H 0.34730 0.23071 0.77564
 C3235 C 0.90340 0.74596 0.32321
 C3236 C 0.90561 0.73726 0.33728
 C3237 C 0.92026 0.73739 0.34511
 C3238 C 0.93342 0.74614 0.33904
 C3239 C 0.93101 0.75461 0.32458
 C3240 C 0.91622 0.75462 0.31693
 C3241 C 0.88765 0.74608 0.31526
 C3242 C 0.88059 0.76056 0.31036
 C3243 C 0.86544 0.76073 0.30345
 C3244 C 0.85718 0.74639 0.30111
 C3245 C 0.86436 0.73190 0.30579
 C3246 C 0.87940 0.73176 0.31289
 C3247 C 0.84110 0.74655 0.29386
 C3248 C 0.83739 0.73563 0.28171
 C3249 C 0.82227 0.73585 0.27476
 C3250 C 0.81046 0.74687 0.27998
 C3251 C 0.81412 0.75768 0.29227
 C3252 C 0.82933 0.75759 0.29907
 H3253 H 0.89589 0.73042 0.34235
 H3254 H 0.92120 0.72987 0.35553
 H3255 H 0.94013 0.76209 0.31939
 H3256 H 0.91479 0.76144 0.30605
 H3257 H 0.88666 0.77177 0.31217
 H3258 H 0.86021 0.77204 0.29982
 H3259 H 0.85820 0.72070 0.30420
 H3260 H 0.88464 0.72043 0.31648
 H3261 H 0.84629 0.72707 0.27741
 H3262 H 0.81981 0.72733 0.26535
 H3263 H 0.80531 0.76634 0.29652
 H3264 H 0.83185 0.76603 0.30852
 C3265 C 0.08977 0.75618 0.32350
 C3266 C 0.07590 0.76162 0.31575
 C3267 C 0.06084 0.76000 0.32300
 C3268 C 0.05934 0.75280 0.33809
 C3269 C 0.07323 0.74746 0.34584
 C3270 C 0.08825 0.74912 0.33864
 C3271 C 0.10580 0.75757 0.31582
 C3272 C 0.11914 0.76176 0.32493
 C3273 C 0.13439 0.76216 0.31797
 C3274 C 0.13666 0.75839 0.30171
 C3275 C 0.12327 0.75457 0.29250
 C3276 C 0.10800 0.75417 0.29947
 C3277 C 0.15300 0.75802 0.29453
 C3278 C 0.15580 0.76395 0.27908
 C3279 C 0.17115 0.76332 0.27228
 C3280 C 0.18406 0.75669 0.28077
 C3281 C 0.18124 0.75082 0.29626
 C3282 C 0.16590 0.75148 0.30305
 H3283 H 0.07671 0.76724 0.30413
 H3284 H 0.05034 0.76416 0.31670
 H3285 H 0.07251 0.74208 0.35758
 H3286 H 0.09867 0.74463 0.34484
 H3287 H 0.11779 0.76474 0.33749
 H3288 H 0.14442 0.76546 0.32531
 H3289 H 0.12466 0.75142 0.27999
 H3290 H 0.09799 0.75071 0.29218
 H3291 H 0.14613 0.76922 0.27229
 H3292 H 0.17288 0.76800 0.26034
 H3293 H 0.19086 0.74561 0.30314
 H3294 H 0.16410 0.74660 0.31489
 C3295 C 0.58949 0.25601 0.81972
 C3296 C 0.58032 0.24221 0.81763
 C3297 C 0.56530 0.24095 0.82497
 C3298 C 0.55908 0.25350 0.83446
 C3299 C 0.56807 0.26747 0.83624
 C3300 C 0.58316 0.26868 0.82900
 C3301 C 0.60579 0.25696 0.81262
 C3302 C 0.61853 0.26286 0.82164
 C3303 C 0.63402 0.26313 0.81521
 C3304 C 0.63708 0.25763 0.79957
 C3305 C 0.62431 0.25195 0.79047
 C3306 C 0.60884 0.25156 0.79695
 C3307 C 0.65358 0.25755 0.79283
 C3308 C 0.65642 0.26239 0.77701
 C3309 C 0.67188 0.26188 0.77050
 C3310 C 0.68486 0.25640 0.77963
 C3311 C 0.68203 0.25171 0.79553
 C3312 C 0.66656 0.25233 0.80207
 H3313 H 0.58495 0.23221 0.81065
 H3314 H 0.55857 0.23010 0.82330
 H3315 H 0.56364 0.27727 0.84360
 H3316 H 0.58990 0.27951 0.83069
 H3317 H 0.61656 0.26695 0.83381
 H3318 H 0.64362 0.26770 0.82244
 H3319 H 0.62633 0.24749 0.77843
 H3320 H 0.59923 0.24707 0.78968
 H3321 H 0.64667 0.26664 0.76968
 H3322 H 0.67360 0.26560 0.75823
 H3323 H 0.69173 0.24746 0.80291
 H3324 H 0.66470 0.24838 0.81425
 C3325 C 0.59493 0.74824 0.67741
 C3326 C 0.58814 0.73459 0.67052
 C3327 C 0.57309 0.73549 0.66341
 C3328 C 0.56454 0.75006 0.66303
 C3329 C 0.57116 0.76360 0.67026
 C3330 C 0.58617 0.76270 0.67738
 C3331 C 0.61124 0.74753 0.68426
 C3332 C 0.62193 0.76014 0.68176
 C3333 C 0.63730 0.75954 0.68812
 C3334 C 0.64237 0.74630 0.69712
 C3335 C 0.63170 0.73366 0.69960
 C3336 C 0.61632 0.73426 0.69323
 C3337 C 0.65866 0.74580 0.70403
 C3338 C 0.66108 0.74000 0.71957
 C3339 C 0.67633 0.73997 0.72625
 C3340 C 0.68953 0.74576 0.71755
 C3341 C 0.68712 0.75139 0.70193
 C3342 C 0.67187 0.75140 0.69526
 H3343 H 0.59466 0.72332 0.67018
 H3344 H 0.56838 0.72490 0.65776
 H3345 H 0.56473 0.77493 0.67039
 H3346 H 0.59093 0.77334 0.68288
 H3347 H 0.61847 0.77044 0.67472
 H3348 H 0.64515 0.76955 0.68615
 H3349 H 0.63531 0.72322 0.70636
 H3350 H 0.60832 0.72441 0.69547
 H3351 H 0.65112 0.73579 0.72671
 H3352 H 0.67771 0.73557 0.73832
 H3353 H 0.69701 0.75585 0.69485
 H3354 H 0.67043 0.75572 0.68317
 C3355 C 0.09427 0.25168 0.17741
 C3356 C 0.09144 0.26221 0.16467
 C3357 C 0.07672 0.26247 0.15698
 C3358 C 0.06446 0.25210 0.16174
 C3359 C 0.06720 0.24168 0.17460
 C3360 C 0.08192 0.24149 0.18236
 C3361 C 0.11013 0.25115 0.18525
 C3362 C 0.11701 0.23649 0.18996
 C3363 C 0.13218 0.23597 0.19680
 C3364 C 0.14084 0.25007 0.19898
 C3365 C 0.13393 0.26473 0.19445
 C3366 C 0.11872 0.26528 0.18772
 C3367 C 0.15712 0.24951 0.20581
 C3368 C 0.16947 0.25852 0.19896
 C3369 C 0.18481 0.25810 0.20542
 C3370 C 0.18809 0.24876 0.21896
 C3371 C 0.17572 0.23970 0.22577
 C3372 C 0.16042 0.24001 0.21921
 H3373 H 0.10073 0.27009 0.16042
 H3374 H 0.07493 0.27082 0.14728
 H3375 H 0.05806 0.23346 0.17848
 H3376 H 0.08364 0.23337 0.19226
 H3377 H 0.11083 0.22537 0.18800
 H3378 H 0.13731 0.22449 0.20004
 H3379 H 0.14024 0.27581 0.19624
 H3380 H 0.11366 0.27680 0.18452
 H3381 H 0.16730 0.26579 0.18850
 H3382 H 0.19404 0.26524 0.19988
 H3383 H 0.17785 0.23235 0.23618
 H3384 H 0.15108 0.23304 0.22479
 C3385 C -0.07306 1.00012 0.84548
 C3386 C -0.06585 0.99312 0.83190
 C3387 C -0.07341 0.99372 0.81707
 C3388 C -0.08855 1.00128 0.81540
 C3389 C -0.09551 1.00851 0.82914
 C3390 C -0.08791 1.00791 0.84389
 C3391 C -0.06534 0.99912 0.86135
 C3392 C -0.06583 1.01230 0.87182
 C3393 C -0.05931 1.01117 0.88707
 C3394 C -0.05212 0.99683 0.89221
 C3395 C -0.05133 0.98373 0.88165
 C3396 C -0.05789 0.98486 0.86638
 C3397 C -0.04562 0.99559 0.90860
 C3398 C -0.03090 0.98785 0.91135
 C3399 C -0.02455 0.98727 0.92674
 C3400 C -0.03283 0.99437 0.93972
 C3401 C -0.04774 1.00177 0.93699
 C3402 C -0.05405 1.00238 0.92162
 H3403 H -0.05434 0.98711 0.83273
 H3404 H -0.06756 0.98756 0.80720
 H3405 H -0.10668 1.01512 0.82864
 H3406 H -0.09382 1.01339 0.85415
 H3407 H -0.07121 1.02355 0.86819
 H3408 H -0.05980 1.02157 0.89482
 H3409 H -0.04600 0.97249 0.88533
 H3410 H -0.05751 0.97444 0.85866
 H3411 H -0.02408 0.98260 0.90153
 H3412 H -0.01303 0.98148 0.92839
 H3413 H -0.05450 1.00731 0.94669
 H3414 H -0.06556 1.00818 0.91992
 C3415 C 0.42959 0.50124 0.34623
 C3416 C 0.41693 0.51216 0.34385
 C3417 C 0.40907 0.51282 0.32924
 C3418 C 0.41357 0.50249 0.31664
 C3419 C 0.42642 0.49175 0.31889
 C3420 C 0.43435 0.49113 0.33352
 C3421 C 0.43746 0.50018 0.36206
 C3422 C 0.44198 0.48527 0.36845
 C3423 C 0.44859 0.48427 0.38371
 C3424 C 0.45070 0.49814 0.39293
 C3425 C 0.44647 0.51304 0.38644
 C3426 C 0.43999 0.51407 0.37117
 C3427 C 0.45709 0.49713 0.40936
 C3428 C 0.44997 0.50616 0.42177
 C3429 C 0.45626 0.50576 0.43715
 C3430 C 0.46992 0.49641 0.44046
 C3431 C 0.47687 0.48713 0.42809
 C3432 C 0.47047 0.48743 0.41272
 H3433 H 0.41282 0.51999 0.35342
 H3434 H 0.39938 0.52140 0.32784
 H3435 H 0.43011 0.48353 0.30947
 H3436 H 0.44419 0.48272 0.33488
 H3437 H 0.44000 0.47433 0.36186
 H3438 H 0.45165 0.47262 0.38848
 H3439 H 0.44826 0.52395 0.39318
 H3440 H 0.43697 0.52576 0.36649
 H3441 H 0.43950 0.51356 0.41957
 H3442 H 0.45059 0.51306 0.44637
 H3443 H 0.48738 0.47977 0.43024
 H3444 H 0.47623 0.48040 0.40334
 C3445 C 0.57724 0.00581 0.33960
 C3446 C 0.57117 -0.00391 0.32743
 C3447 C 0.57830 -0.00422 0.31221
 C3448 C 0.59177 0.00523 0.30863
 C3449 C 0.59777 0.01491 0.32107
 C3450 C 0.59059 0.01522 0.33619
 C3451 C 0.56980 0.00612 0.35583
 C3452 C 0.57939 0.00704 0.36949
 C3453 C 0.57246 0.00759 0.38475
 C3454 C 0.55576 0.00711 0.38677
 C3455 C 0.54616 0.00614 0.37311
 C3456 C 0.55309 0.00566 0.35782
 C3457 C 0.54844 0.00741 0.40305
 C3458 C 0.53409 0.01588 0.40613
 C3459 C 0.52706 0.01581 0.42137
 C3460 C 0.53426 0.00731 0.43392
 C3461 C 0.54875 -0.00094 0.43089
 C3462 C 0.55572 -0.00094 0.41565
 H3463 H 0.56093 -0.01141 0.32969
 H3464 H 0.57274 -0.01154 0.30323
 H3465 H 0.60843 0.02193 0.31954
 H3466 H 0.59552 0.02295 0.34526
 H3467 H 0.59230 0.00720 0.36841
 H3468 H 0.58021 0.00853 0.39498
 H3469 H 0.53326 0.00554 0.37424
 H3470 H 0.54535 0.00512 0.34755
 H3471 H 0.52832 0.02265 0.39676
 H3472 H 0.51595 0.02237 0.42330
 H3473 H 0.55459 -0.00770 0.44023
 H3474 H 0.56664 -0.00778 0.41366
 C3475 C 0.07710 0.50456 0.84398
 C3476 C 0.09234 0.51100 0.84135
 C3477 C 0.09939 0.51063 0.82616
 C3478 C 0.09131 0.50404 0.81308
 C3479 C 0.07607 0.49756 0.81568
 C3480 C 0.06907 0.49778 0.83096
 C3481 C 0.06968 0.50500 0.86024
 C3482 C 0.05313 0.50762 0.86231
 C3483 C 0.04626 0.50821 0.87763
 C3484 C 0.05579 0.50634 0.89127
 C3485 C 0.07234 0.50380 0.88918
 C3486 C 0.07917 0.50303 0.87389
 C3487 C 0.04850 0.50676 0.90759
 C3488 C 0.05438 0.49667 0.91965
 C3489 C 0.04745 0.49684 0.93491
 C3490 C 0.03432 0.50694 0.93846
 C3491 C 0.02847 0.51712 0.92648
 C3492 C 0.03554 0.51710 0.91124
 H3493 H 0.09881 0.51653 0.85100
 H3494 H 0.11127 0.51545 0.82471
 H3495 H 0.06944 0.49251 0.80588
 H3496 H 0.05740 0.49251 0.83258
 H3497 H 0.04548 0.50940 0.85210
 H3498 H 0.03345 0.50995 0.87875
 H3499 H 0.08009 0.50252 0.89938
 H3500 H 0.09191 0.50076 0.87278
 H3501 H 0.06413 0.48834 0.91722
 H3502 H 0.05214 0.48872 0.94381
 H3503 H 0.01843 0.52513 0.92888
 H3504 H 0.03089 0.52524 0.90235
 C3505 C 0.06651 0.50405 0.65843
 C3506 C 0.06194 0.49450 0.67147
 C3507 C 0.07029 0.49517 0.68586
 C3508 C 0.08340 0.50539 0.68750
 C3509 C 0.08767 0.51523 0.67460
 C3510 C 0.07937 0.51453 0.66024
 C3511 C 0.05836 0.50273 0.64278
 C3512 C 0.05574 0.51638 0.63335
 C3513 C 0.04920 0.51502 0.61813
 C3514 C 0.04503 0.50000 0.61201
 C3515 C 0.04717 0.48640 0.62159
 C3516 C 0.05381 0.48774 0.63680
 C3517 C 0.03890 0.49853 0.59551
 C3518 C 0.02585 0.48871 0.59215
 C3519 C 0.02000 0.48758 0.57659
 C3520 C 0.02720 0.49614 0.56403
 C3521 C 0.04042 0.50577 0.56740
 C3522 C 0.04616 0.50699 0.58296
 H3523 H 0.05196 0.48644 0.67052
 H3524 H 0.06677 0.48736 0.69553
 H3525 H 0.09756 0.52340 0.67556
 H3526 H 0.08334 0.52192 0.65041
 H3527 H 0.05880 0.52814 0.63773
 H3528 H 0.04741 0.52574 0.61112
 H3529 H 0.04419 0.47465 0.61711
 H3530 H 0.05586 0.47696 0.64365
 H3531 H 0.01998 0.48213 0.60162
 H3532 H 0.00982 0.48004 0.57441
 H3533 H 0.04625 0.51254 0.55805
 H3534 H 0.05638 0.51447 0.58517
 C3535 C 0.56520 1.00061 0.15492
 C3536 C 0.56089 0.99129 0.16820
 C3537 C 0.56950 0.99223 0.18242
 C3538 C 0.58263 1.00249 0.18364
 C3539 C 0.58669 1.01205 0.17047
 C3540 C 0.57813 1.01108 0.15629
 C3541 C 0.55666 0.99917 0.13949
 C3542 C 0.55397 1.01275 0.12998
 C3543 C 0.54721 1.01130 0.11488
 C3544 C 0.54282 0.99626 0.10897
 C3545 C 0.54491 0.98274 0.11867
 C3546 C 0.55181 0.98417 0.13376
 C3547 C 0.53660 0.99475 0.09252
 C3548 C 0.52311 0.98548 0.08932
 C3549 C 0.51696 0.98473 0.07384
 C3550 C 0.52432 0.99310 0.06124
 C3551 C 0.53810 1.00197 0.06444
 C3552 C 0.54412 1.00283 0.07989
 H3553 H 0.55088 0.98323 0.16760
 H3554 H 0.56615 0.98462 0.19232
 H3555 H 0.59658 1.02025 0.17108
 H3556 H 0.58193 1.01829 0.14624
 H3557 H 0.55721 1.02452 0.13417
 H3558 H 0.54543 1.02196 0.10777
 H3559 H 0.54171 0.97099 0.11435
 H3560 H 0.55387 0.97345 0.14070
 H3561 H 0.51708 0.97915 0.09887
 H3562 H 0.50635 0.97775 0.07178
 H3563 H 0.54410 1.00855 0.05505
 H3564 H 0.55469 1.00986 0.08198
 C3565 C 0.42518 0.50012 0.16010
 C3566 C 0.43280 0.49305 0.17326
 C3567 C 0.42548 0.49324 0.18840
 C3568 C 0.41034 0.50046 0.19070
 C3569 C 0.40270 0.50740 0.17749
 C3570 C 0.41005 0.50732 0.16244
 C3571 C 0.43285 0.49999 0.14395
 C3572 C 0.42355 0.49812 0.13019
 C3573 C 0.43060 0.49837 0.11500
 C3574 C 0.44720 0.50031 0.11313
 C3575 C 0.45654 0.50208 0.12689
 C3576 C 0.44945 0.50197 0.14211
 C3577 C 0.45467 0.50031 0.09689
 C3578 C 0.46754 0.51041 0.09326
 C3579 C 0.47456 0.51028 0.07799
 C3580 C 0.46878 0.50015 0.06598
 C3581 C 0.45585 0.49016 0.06959
 C3582 C 0.44895 0.49018 0.08486
 H3583 H 0.44438 0.48722 0.17185
 H3584 H 0.43177 0.48790 0.19833
 H3585 H 0.39091 0.51281 0.17872
 H3586 H 0.40390 0.51308 0.15265
 H3587 H 0.41077 0.49633 0.13114
 H3588 H 0.42299 0.49719 0.10469
 H3589 H 0.46938 0.50339 0.12591
 H3590 H 0.45695 0.50363 0.15243
 H3591 H 0.47209 0.51855 0.10216
 H3592 H 0.48445 0.51818 0.07558
 H3593 H 0.45120 0.48208 0.06068
 H3594 H 0.43928 0.48202 0.08729
 C3595 C -0.06966 0.00109 0.66038
 C3596 C -0.07346 0.01555 0.66816
 C3597 C -0.08102 0.01567 0.68312
 C3598 C -0.08525 0.00126 0.69085
 C3599 C -0.08097 -0.01323 0.68307
 C3600 C -0.07333 -0.01329 0.66811
 C3601 C -0.06224 0.00107 0.64413
 C3602 C -0.06687 -0.01016 0.63257
 C3603 C -0.06028 -0.00989 0.61715
 C3604 C -0.04896 0.00166 0.61285
 C3605 C -0.04426 0.01283 0.62444
 C3606 C -0.05078 0.01251 0.63989
 C3607 C -0.04207 0.00202 0.59638
 C3608 C -0.02586 0.00563 0.59381
 C3609 C -0.01932 0.00560 0.57836
 C3610 C -0.02878 0.00184 0.56511
 C3611 C -0.04503 -0.00157 0.56766
 C3612 C -0.05160 -0.00142 0.58309
 H3613 H -0.07084 0.02689 0.66255
 H3614 H -0.08314 0.02722 0.68863
 H3615 H -0.08412 -0.02470 0.68800
 H3616 H -0.07037 -0.02468 0.66254
 H3617 H -0.07581 -0.01901 0.63535
 H3618 H -0.06399 -0.01883 0.60862
 H3619 H -0.03569 0.02199 0.62151
 H3620 H -0.04679 0.02121 0.64854
 H3621 H -0.01812 0.00812 0.60377
 H3622 H -0.00673 0.00819 0.57685
 H3623 H -0.05270 -0.00438 0.55771
 H3624 H -0.06420 -0.00394 0.58460
 C3625 C -0.15904 0.92502 1.00065
 C3626 C -0.17275 0.93242 1.00739
 C3627 C -0.18759 0.92487 1.00693
 C3628 C -0.18904 0.90972 0.99978
 C3629 C -0.17529 0.90231 0.99316
 C3630 C -0.16053 0.90989 0.99350
 C3631 C -0.14322 0.93297 1.00103
 C3632 C -0.12914 0.92391 1.00325
 C3633 C -0.11422 0.93121 1.00316
 C3634 C -0.11296 0.94782 1.00103
 C3635 C -0.12705 0.95693 0.99898
 C3636 C -0.14199 0.94959 0.99894
 C3637 C -0.09701 0.95553 1.00094
 C3638 C -0.09369 0.96832 0.99059
 C3639 C -0.07862 0.97538 0.99042
 C3640 C -0.06646 0.96973 1.00049
 C3641 C -0.06978 0.95697 1.01084
 C3642 C -0.08488 0.95002 1.01112
 H3643 H -0.17201 0.94399 1.01316
 H3644 H -0.19795 0.93098 1.01202
 H3645 H -0.17587 0.89053 0.98780
 H3646 H -0.15029 0.90392 0.98799
 H3647 H -0.12962 0.91112 1.00515
 H3648 H -0.10363 0.92378 1.00456
 H3649 H -0.12655 0.96977 0.99752
 H3650 H -0.15256 0.95691 0.99702
 H3651 H -0.10266 0.97271 0.98241
 H3652 H -0.07642 0.98515 0.98224
 H3653 H -0.06075 0.95243 1.01889
 H3654 H -0.08708 0.94042 1.01948
 C3655 C 0.34603 0.42601 0.49992
 C3656 C 0.33157 0.43458 0.50220
 C3657 C 0.31696 0.42661 0.50278
 C3658 C 0.31650 0.40994 0.50089
 C3659 C 0.33090 0.40134 0.49884
 C3660 C 0.34550 0.40925 0.49847
 C3661 C 0.36160 0.43442 0.49893
 C3662 C 0.37384 0.42879 0.48860
 C3663 C 0.38864 0.43634 0.48798
 C3664 C 0.39148 0.44983 0.49751
 C3665 C 0.37920 0.45570 0.50759
 C3666 C 0.36445 0.44803 0.50837
 C3667 C 0.40736 0.45747 0.49724
 C3668 C 0.40866 0.47416 0.49614
 C3669 C 0.42368 0.48132 0.49621
 C3670 C 0.43767 0.47195 0.49766
 C3671 C 0.43634 0.45524 0.49866
 C3672 C 0.42135 0.44807 0.49834
 H3673 H 0.33148 0.44749 0.50315
 H3674 H 0.30599 0.43351 0.50424
 H3675 H 0.33087 0.38844 0.49760
 H3676 H 0.35638 0.40220 0.49712
 H3677 H 0.37198 0.41859 0.48087
 H3678 H 0.39785 0.43171 0.47996
 H3679 H 0.38117 0.46599 0.51519
 H3680 H 0.35541 0.45257 0.51663
 H3681 H 0.39805 0.48164 0.49516
 H3682 H 0.42433 0.49423 0.49547
 H3683 H 0.44689 0.44769 0.49972
 H3684 H 0.42065 0.43519 0.49931
 C3685 C 0.34081 0.56545 0.00696
 C3686 C 0.32927 0.56109 -0.00429
 C3687 C 0.31484 0.56968 -0.00534
 C3688 C 0.31182 0.58291 0.00468
 C3689 C 0.32324 0.58707 0.01611
 C3690 C 0.33755 0.57838 0.01729
 C3691 C 0.35655 0.55710 0.00745
 C3692 C 0.36347 0.55294 0.02213
 C3693 C 0.37878 0.54603 0.02258
 C3694 C 0.38754 0.54334 0.00838
 C3695 C 0.38051 0.54724 -0.00630
 C3696 C 0.36514 0.55398 -0.00676
 C3697 C 0.40412 0.53689 0.00883
 C3698 C 0.41618 0.54391 -0.00049
 C3699 C 0.43178 0.53775 -0.00039
 C3700 C 0.43565 0.52430 0.00891
 C3701 C 0.42361 0.51739 0.01840
 C3702 C 0.40802 0.52369 0.01844
 H3703 H 0.33146 0.55110 -0.01232
 H3704 H 0.30625 0.56627 -0.01429
 H3705 H 0.32112 0.59712 0.02409
 H3706 H 0.34628 0.58209 0.02597
 H3707 H 0.35705 0.55514 0.03325
 H3708 H 0.38395 0.54318 0.03405
 H3709 H 0.38694 0.54514 -0.01743
 H3710 H 0.36016 0.55720 -0.01822
 H3711 H 0.41355 0.55423 -0.00783
 H3712 H 0.44073 0.54337 -0.00786
 H3713 H 0.42620 0.50704 0.02573
 H3714 H 0.39891 0.51803 0.02569
 C3715 C -0.15645 0.06958 0.50374
 C3716 C -0.16966 0.06502 0.51315
 C3717 C -0.18420 0.07347 0.51231
 C3718 C -0.18582 0.08667 0.50205
 C3719 C -0.17266 0.09106 0.49251
 C3720 C -0.15817 0.08268 0.49340
 C3721 C -0.14082 0.06095 0.50477
 C3722 C -0.13135 0.05849 0.49097
 C3723 C -0.11618 0.05143 0.49198
 C3724 C -0.11015 0.04653 0.50680
 C3725 C -0.11979 0.04845 0.52055
 C3726 C -0.13496 0.05565 0.51956
 C3727 C -0.09370 0.03981 0.50781
 C3728 C -0.09047 0.02597 0.51674
 C3729 C -0.07503 0.01927 0.51688
 C3730 C -0.06250 0.02640 0.50821
 C3731 C -0.06570 0.04054 0.49971
 C3732 C -0.08111 0.04712 0.49947
 H3733 H -0.16879 0.05489 0.52112
 H3734 H -0.19407 0.06986 0.51990
 H3735 H -0.17356 0.10100 0.48430
 H3736 H -0.14820 0.08667 0.48614
 H3737 H -0.13565 0.06207 0.47934
 H3738 H -0.10914 0.04979 0.48115
 H3739 H -0.11538 0.04484 0.53213
 H3740 H -0.14187 0.05751 0.53044
 H3741 H -0.09998 0.02009 0.52324
 H3742 H -0.07297 0.00840 0.52358
 H3743 H -0.05637 0.04639 0.49293
 H3744 H -0.08322 0.05794 0.49270
 C3745 C 0.65906 0.07372 0.49163
 C3746 C 0.67185 0.06617 0.49952
 C3747 C 0.68687 0.07333 0.50010
 C3748 C 0.68944 0.08824 0.49288
 C3749 C 0.67665 0.09573 0.48493
 C3750 C 0.66171 0.08853 0.48424
 C3751 C 0.64294 0.06638 0.49129
 C3752 C 0.62906 0.07603 0.49248
 C3753 C 0.61391 0.06923 0.49212
 C3754 C 0.61219 0.05259 0.49072
 C3755 C 0.62605 0.04292 0.48954
 C3756 C 0.64124 0.04974 0.48978
 C3757 C 0.59601 0.04537 0.49073
 C3758 C 0.59272 0.03205 0.48105
 C3759 C 0.57756 0.02517 0.48130
 C3760 C 0.56529 0.03153 0.49115
 C3761 C 0.56853 0.04495 0.50069
 C3762 C 0.58370 0.05173 0.50054
 H3763 H 0.67019 0.05484 0.50550
 H3764 H 0.69648 0.06713 0.50617
 H3765 H 0.67808 0.10734 0.47945
 H3766 H 0.65223 0.09459 0.47784
 H3767 H 0.62989 0.08886 0.49389
 H3768 H 0.60351 0.07707 0.49284
 H3769 H 0.62519 0.03004 0.48865
 H3770 H 0.65165 0.04197 0.48865
 H3771 H 0.60183 0.02701 0.47316
 H3772 H 0.57544 0.01490 0.47373
 H3773 H 0.55941 0.05006 0.50853
 H3774 H 0.58587 0.06179 0.50837
 C3775 C 0.15737 0.57582 0.99691
 C3776 C 0.16019 0.58977 0.98813
 C3777 C 0.17502 0.59723 0.98861
 C3778 C 0.18771 0.59094 0.99784
 C3779 C 0.18473 0.57681 1.00657
 C3780 C 0.16982 0.56941 1.00611
 C3781 C 0.14142 0.56813 0.99657
 C3782 C 0.14009 0.55138 0.99642
 C3783 C 0.12507 0.54422 0.99611
 C3784 C 0.11101 0.55364 0.99590
 C3785 C 0.11236 0.57038 0.99595
 C3786 C 0.12736 0.57753 0.99634
 C3787 C 0.09499 0.54609 0.99584
 C3788 C 0.08223 0.55286 1.00474
 C3789 C 0.06719 0.54579 1.00482
 C3790 C 0.06453 0.53169 0.99609
 C3791 C 0.07727 0.52491 0.98715
 C3792 C 0.09232 0.53206 0.98700
 H3793 H 0.15091 0.59498 0.98080
 H3794 H 0.17608 0.60832 0.98213
 H3795 H 0.19396 0.57097 1.01345
 H3796 H 0.16802 0.55871 1.01311
 H3797 H 0.15068 0.54379 0.99640
 H3798 H 0.12446 0.53130 0.99627
 H3799 H 0.10180 0.57800 0.99558
 H3800 H 0.12791 0.59045 0.99665
 H3801 H 0.08392 0.56349 1.01191
 H3802 H 0.05770 0.55127 1.01194
 H3803 H 0.07562 0.51411 0.98022
 H3804 H 0.10181 0.52666 0.97983
 C3805 C 0.16007 0.42876 0.50421
 C3806 C 0.16180 0.41263 0.50861
 C3807 C 0.17658 0.40480 0.50727
 C3808 C 0.19005 0.41275 0.50119
 C3809 C 0.18838 0.42891 0.49682
 C3810 C 0.17359 0.43683 0.49838
 C3811 C 0.14414 0.43691 0.50543
 C3812 C 0.13940 0.44830 0.49401
 C3813 C 0.12413 0.45530 0.49472
 C3814 C 0.11318 0.45086 0.50669
 C3815 C 0.11791 0.43971 0.51824
 C3816 C 0.13326 0.43293 0.51772
 C3817 C 0.09669 0.45746 0.50682
 C3818 C 0.08359 0.44715 0.50754
 C3819 C 0.06798 0.45327 0.50704
 C3820 C 0.06518 0.46984 0.50614
 C3821 C 0.07831 0.48017 0.50574
 C3822 C 0.09394 0.47402 0.50591
 H3823 H 0.15166 0.40589 0.51288
 H3824 H 0.17743 0.39248 0.51111
 H3825 H 0.19843 0.43540 0.49197
 H3826 H 0.17279 0.44932 0.49508
 H3827 H 0.14731 0.45149 0.48423
 H3828 H 0.12067 0.46379 0.48561
 H3829 H 0.10971 0.43628 0.52769
 H3830 H 0.13658 0.42454 0.52696
 H3831 H 0.08546 0.43432 0.50815
 H3832 H 0.05808 0.44504 0.50742
 H3833 H 0.07651 0.49299 0.50496
 H3834 H 0.10389 0.48218 0.50540
 C3835 C 0.65450 0.92651 0.00605
 C3836 C 0.65807 0.91276 0.01501
 C3837 C 0.67302 0.90525 0.01363
 C3838 C 0.68483 0.91137 0.00338
 C3839 C 0.68154 0.92543 -0.00517
 C3840 C 0.66650 0.93290 -0.00390
 C3841 C 0.63816 0.93375 0.00668
 C3842 C 0.63587 0.95043 0.00619
 C3843 C 0.62043 0.95709 0.00639
 C3844 C 0.60694 0.94723 0.00712
 C3845 C 0.60926 0.93058 0.00782
 C3846 C 0.62466 0.92393 0.00754
 C3847 C 0.59050 0.95421 0.00678
 C3848 C 0.57844 0.94667 -0.00194
 C3849 C 0.56304 0.95328 -0.00253
 C3850 C 0.55931 0.96768 0.00550
 C3851 C 0.57133 0.97517 0.01433
 C3852 C 0.58674 0.96850 0.01498
 H3853 H 0.64927 0.90774 0.02308
 H3854 H 0.67536 0.89459 0.02059
 H3855 H 0.69042 0.93034 -0.01323
 H3856 H 0.66410 0.94337 -0.01109
 H3857 H 0.64601 0.95834 0.00570
 H3858 H 0.61906 0.96996 0.00568
 H3859 H 0.59915 0.92265 0.00860
 H3860 H 0.62596 0.91103 0.00770
 H3861 H 0.58097 0.93580 -0.00861
 H3862 H 0.55412 0.94723 -0.00954
 H3863 H 0.56886 0.98623 0.02072
 H3864 H 0.59569 0.97448 0.02200
 C3865 C 0.00087 0.84107 0.93344
 C3866 C 0.00748 0.84014 0.91799
 C3867 C 0.00782 0.82571 0.90958
 C3868 C 0.00152 0.81163 0.91631
 C3869 C -0.00480 0.81262 0.93205
 C3870 C -0.00519 0.82714 0.94042
 C3871 C 0.00004 0.85666 0.94198
 C3872 C -0.01384 0.86137 0.95050
 C3873 C -0.01500 0.87657 0.95750
 C3874 C -0.00232 0.88736 0.95611
 C3875 C 0.01173 0.88245 0.94801
 C3876 C 0.01290 0.86728 0.94104
 C3877 C -0.00381 0.90385 0.96264
 C3878 C 0.00193 0.91684 0.95377
 C3879 C 0.00091 0.93235 0.95991
 C3880 C -0.00586 0.93529 0.97512
 C3881 C -0.01183 0.92231 0.98392
 C3882 C -0.01085 0.90676 0.97772
 H3883 H 0.01221 0.85068 0.91224
 H3884 H 0.01351 0.82571 0.89792
 H3885 H -0.01021 0.80244 0.93780
 H3886 H -0.01029 0.82749 0.95238
 H3887 H -0.02401 0.85351 0.95128
 H3888 H -0.02602 0.88007 0.96356
 H3889 H 0.02184 0.89037 0.94704
 H3890 H 0.02387 0.86388 0.93484
 H3891 H 0.00714 0.91501 0.94198
 H3892 H 0.00557 0.94203 0.95275
 H3893 H -0.01711 0.92413 0.99567
 H3894 H -0.01528 0.89696 0.98487
 C3895 C 0.49495 0.34383 0.43355
 C3896 C 0.48439 0.34078 0.42100
 C3897 C 0.48521 0.32629 0.41268
 C3898 C 0.49651 0.31448 0.41681
 C3899 C 0.50679 0.31732 0.42965
 C3900 C 0.50609 0.33192 0.43788
 C3901 C 0.49473 0.35966 0.44159
 C3902 C 0.50909 0.36771 0.44433
 C3903 C 0.50887 0.38308 0.45093
 C3904 C 0.49430 0.39066 0.45507
 C3905 C 0.47996 0.38247 0.45268
 C3906 C 0.48017 0.36715 0.44592
 C3907 C 0.49410 0.40717 0.46159
 C3908 C 0.48439 0.41126 0.47482
 C3909 C 0.48456 0.42675 0.48118
 C3910 C 0.49433 0.43851 0.47431
 C3911 C 0.50378 0.43447 0.46085
 C3912 C 0.50372 0.41895 0.45461
 H3913 H 0.47578 0.34980 0.41733
 H3914 H 0.47703 0.32433 0.40294
 H3915 H 0.51566 0.30844 0.43302
 H3916 H 0.51429 0.33393 0.44759
 H3917 H 0.52048 0.36228 0.44096
 H3918 H 0.52011 0.38907 0.45280
 H3919 H 0.46856 0.38807 0.45569
 H3920 H 0.46893 0.36117 0.44403
 H3921 H 0.47691 0.40238 0.48046
 H3922 H 0.47709 0.42949 0.49152
 H3923 H 0.51146 0.44322 0.45528
 H3924 H 0.51116 0.41617 0.44427
 C3925 C 0.00233 0.34048 0.57361
 C3926 C -0.00684 0.33846 0.58757
 C3927 C -0.00777 0.32354 0.59494
 C3928 C 0.00052 0.31004 0.58863
 C3929 C 0.00981 0.31225 0.57459
 C3930 C 0.01066 0.32722 0.56721
 C3931 C 0.00317 0.35643 0.56585
 C3932 C 0.01765 0.36200 0.55938
 C3933 C 0.01845 0.37720 0.55250
 C3934 C 0.00480 0.38717 0.55198
 C3935 C -0.00971 0.38151 0.55827
 C3936 C -0.01052 0.36633 0.56510
 C3937 C 0.00560 0.40343 0.54495
 C3938 C -0.00249 0.41636 0.55233
 C3939 C -0.00227 0.43156 0.54547
 C3940 C 0.00603 0.43421 0.53102
 C3941 C 0.01437 0.42132 0.52378
 C3942 C 0.01418 0.40611 0.53069
 H3943 H -0.01308 0.34853 0.59306
 H3944 H -0.01447 0.32299 0.60604
 H3945 H 0.01600 0.30237 0.56877
 H3946 H 0.01762 0.32833 0.55629
 H3947 H 0.02845 0.35475 0.55995
 H3948 H 0.02983 0.38130 0.54789
 H3949 H -0.02050 0.38878 0.55776
 H3950 H -0.02193 0.36228 0.56967
 H3951 H -0.00899 0.41472 0.56345
 H3952 H -0.00878 0.44119 0.55142
 H3953 H 0.02089 0.42291 0.51266
 H3954 H 0.02043 0.39636 0.52466
 C3955 C 0.49843 0.84097 0.07183
 C3956 C 0.50432 0.82729 0.06378
 C3957 C 0.50374 0.81226 0.07104
 C3958 C 0.49727 0.81058 0.08652
 C3959 C 0.49135 0.82427 0.09453
 C3960 C 0.49191 0.83927 0.08727
 C3961 C 0.49914 0.85699 0.06424
 C3962 C 0.48628 0.86788 0.06592
 C3963 C 0.48702 0.88307 0.05908
 C3964 C 0.50065 0.88776 0.05039
 C3965 C 0.51347 0.87683 0.04859
 C3966 C 0.51273 0.86162 0.05544
 C3967 C 0.50139 0.90397 0.04320
 C3968 C 0.50795 0.90617 0.02784
 C3969 C 0.50804 0.92135 0.02085
 C3970 C 0.50155 0.93468 0.02908
 C3971 C 0.49530 0.93250 0.04458
 C3972 C 0.49523 0.91734 0.05155
 H3973 H 0.50921 0.82819 0.05178
 H3974 H 0.50822 0.80193 0.06447
 H3975 H 0.48658 0.82345 0.10658
 H3976 H 0.48753 0.84960 0.09390
 H3977 H 0.47553 0.86458 0.07239
 H3978 H 0.47681 0.89107 0.06041
 H3979 H 0.52422 0.88015 0.04213
 H3980 H 0.52292 0.85358 0.05411
 H3981 H 0.51265 0.89609 0.02103
 H3982 H 0.51293 0.92256 0.00889
 H3983 H 0.49031 0.94249 0.05133
 H3984 H 0.49035 0.91610 0.06352
 C3985 C 0.49761 0.65420 0.07084
 C3986 C 0.48734 0.66684 0.06639
 C3987 C 0.48818 0.68176 0.07395
 C3988 C 0.49934 0.68441 0.08610
 C3989 C 0.50983 0.67187 0.09028
 C3990 C 0.50893 0.65696 0.08281
 C3991 C 0.49637 0.63809 0.06334
 C3992 C 0.51019 0.62873 0.06039
 C3993 C 0.50904 0.61324 0.05425
 C3994 C 0.49405 0.60679 0.05075
 C3995 C 0.48024 0.61624 0.05326
 C3996 C 0.48138 0.63171 0.05956
 C3997 C 0.49294 0.59015 0.04471
 C3998 C 0.48321 0.58648 0.03165
 C3999 C 0.48294 0.57090 0.02546
 C4000 C 0.49226 0.55866 0.03235
 C4001 C 0.50157 0.56229 0.04575
 C4002 C 0.50195 0.57786 0.05180
 H4003 H 0.47862 0.66520 0.05708
 H4004 H 0.47982 0.69111 0.07054
 H4005 H 0.51873 0.67354 0.09941
 H4006 H 0.51690 0.64748 0.08670
 H4007 H 0.52195 0.63337 0.06280
 H4008 H 0.51990 0.60632 0.05214
 H4009 H 0.46853 0.61150 0.05075
 H4010 H 0.47047 0.63849 0.06187
 H4011 H 0.47618 0.59575 0.02593
 H4012 H 0.47561 0.56851 0.01516
 H4013 H 0.50890 0.55318 0.05136
 H4014 H 0.50938 0.58032 0.06202
 C4015 C -0.00219 0.15383 0.57174
 C4016 C -0.01038 0.16711 0.56537
 C4017 C -0.01000 0.18199 0.57307
 C4018 C -0.00149 0.18387 0.58733
 C4019 C 0.00686 0.17064 0.59356
 C4020 C 0.00648 0.15581 0.58588
 C4021 C -0.00284 0.13787 0.56391
 C4022 C 0.01081 0.12788 0.56329
 C4023 C 0.01005 0.11255 0.55672
 C4024 C -0.00436 0.10683 0.55055
 C4025 C -0.01794 0.11691 0.55082
 C4026 C -0.01720 0.13226 0.55746
 C4027 C -0.00515 0.09035 0.54398
 C4028 C -0.01331 0.08725 0.52973
 C4029 C -0.01342 0.07180 0.52325
 C4030 C -0.00544 0.05911 0.53093
 C4031 C 0.00236 0.06218 0.54540
 C4032 C 0.00253 0.07761 0.55182
 H4033 H -0.01703 0.16601 0.55440
 H4034 H -0.01665 0.19193 0.56804
 H4035 H 0.01371 0.17174 0.60440
 H4036 H 0.01276 0.14580 0.59122
 H4037 H 0.02212 0.13195 0.56786
 H4038 H 0.02079 0.10517 0.55638
 H4039 H -0.02924 0.11277 0.54627
 H4040 H -0.02797 0.13958 0.55793
 H4041 H -0.01925 0.09684 0.52338
 H4042 H -0.01957 0.06988 0.51210
 H4043 H 0.00859 0.05271 0.55168
 H4044 H 0.00868 0.07959 0.56296
 C4045 C 0.50334 0.15826 0.42434
 C4046 C 0.50389 0.15971 0.40760
 C4047 C 0.50304 0.17473 0.40041
 C4048 C 0.50144 0.18865 0.40975
 C4049 C 0.50054 0.18726 0.42645
 C4050 C 0.50158 0.17223 0.43368
 C4051 C 0.50468 0.14224 0.43196
 C4052 C 0.49588 0.13870 0.44591
 C4053 C 0.49701 0.12357 0.45290
 C4054 C 0.50681 0.11159 0.44600
 C4055 C 0.51565 0.11509 0.43212
 C4056 C 0.51468 0.13026 0.42524
 C4057 C 0.50758 0.09540 0.45310
 C4058 C 0.50621 0.08177 0.44338
 C4059 C 0.50627 0.06650 0.45014
 C4060 C 0.50791 0.06457 0.46672
 C4061 C 0.50965 0.07822 0.47638
 C4062 C 0.50937 0.09348 0.46965
 H4063 H 0.50483 0.14923 0.40001
 H4064 H 0.50351 0.17547 0.38749
 H4065 H 0.49945 0.19784 0.43391
 H4066 H 0.50135 0.17160 0.44660
 H4067 H 0.48787 0.14751 0.45127
 H4068 H 0.48992 0.12111 0.46350
 H4069 H 0.52345 0.10611 0.42669
 H4070 H 0.52190 0.13264 0.41472
 H4071 H 0.50472 0.08294 0.43060
 H4072 H 0.50496 0.05622 0.44237
 H4073 H 0.51088 0.07713 0.48921
 H4074 H 0.51058 0.10381 0.47737
 C4075 C 0.00393 0.65652 0.92586
 C4076 C 0.00844 0.65772 0.90970
 C4077 C 0.00765 0.67236 0.90178
 C4078 C 0.00204 0.68634 0.90968
 C4079 C -0.00292 0.68496 0.92579
 C4080 C -0.00181 0.67032 0.93379
 C4081 C 0.00519 0.64089 0.93430
 C4082 C -0.00607 0.63667 0.94615
 C4083 C -0.00504 0.62184 0.95376
 C4084 C 0.00709 0.61082 0.94952
 C4085 C 0.01840 0.61499 0.93781
 C4086 C 0.01756 0.62992 0.93040
 C4087 C 0.00769 0.59482 0.95697
 C4088 C 0.00865 0.58103 0.94738
 C4089 C 0.00850 0.56587 0.95434
 C4090 C 0.00768 0.56424 0.97103
 C4091 C 0.00713 0.57806 0.98064
 C4092 C 0.00695 0.59322 0.97366
 H4093 H 0.01238 0.64727 0.90300
 H4094 H 0.01087 0.67242 0.88923
 H4095 H -0.00691 0.69530 0.93262
 H4096 H -0.00513 0.66995 0.94632
 H4097 H -0.01591 0.64465 0.94930
 H4098 H -0.01399 0.61878 0.96266
 H4099 H 0.02796 0.60673 0.93449
 H4100 H 0.02669 0.63286 0.92166
 H4101 H 0.00915 0.58199 0.93448
 H4102 H 0.00900 0.55541 0.94665
 H4103 H 0.00641 0.57714 0.99354
 H4104 H 0.00628 0.60372 0.98127
 C4105 C 0.25452 0.68028 0.90891
 C4106 C 0.26479 0.66706 0.91107
 C4107 C 0.26575 0.65955 0.92591
 C4108 C 0.25638 0.66500 0.93893
 C4109 C 0.24647 0.67856 0.93690
 C4110 C 0.24559 0.68614 0.92204
 C4111 C 0.25282 0.68756 0.89285
 C4112 C 0.25247 0.70424 0.89094
 C4113 C 0.25118 0.71096 0.87570
 C4114 C 0.25010 0.70113 0.86208
 C4115 C 0.25014 0.68445 0.86409
 C4116 C 0.25154 0.67775 0.87928
 C4117 C 0.24931 0.70817 0.84579
 C4118 C 0.25752 0.70080 0.83292
 C4119 C 0.25698 0.70739 0.81763
 C4120 C 0.24832 0.72160 0.81479
 C4121 C 0.24005 0.72897 0.82763
 C4122 C 0.24052 0.72231 0.84295
 H4123 H 0.27206 0.66249 0.90124
 H4124 H 0.27376 0.64936 0.92715
 H4125 H 0.23896 0.68296 0.94662
 H4126 H 0.23750 0.69625 0.92069
 H4127 H 0.25355 0.71208 0.90119
 H4128 H 0.25140 0.72385 0.87457
 H4129 H 0.24898 0.67653 0.85392
 H4130 H 0.25146 0.66485 0.88043
 H4131 H 0.26464 0.69007 0.83471
 H4132 H 0.26360 0.70144 0.80807
 H4133 H 0.23322 0.73990 0.82587
 H4134 H 0.23389 0.72817 0.85254
 C4135 C 0.74594 0.17879 0.40511
 C4136 C 0.74434 0.18781 0.41927
 C4137 C 0.74624 0.18056 0.43419
 C4138 C 0.74977 0.16412 0.43528
 C4139 C 0.75138 0.15513 0.42111
 C4140 C 0.74954 0.16237 0.40622
 C4141 C 0.74401 0.18642 0.38920
 C4142 C 0.73648 0.17824 0.37670
 C4143 C 0.73527 0.18511 0.36155
 C4144 C 0.74146 0.20036 0.35858
 C4145 C 0.74870 0.20869 0.37114
 C4146 C 0.75000 0.20178 0.38627
 C4147 C 0.74084 0.20736 0.34233
 C4148 C 0.73692 0.22359 0.34021
 C4149 C 0.73712 0.23035 0.32495
 C4150 C 0.74138 0.22104 0.31148
 C4151 C 0.74498 0.20472 0.31360
 C4152 C 0.74466 0.19795 0.32884
 H4153 H 0.74142 0.20045 0.41884
 H4154 H 0.74504 0.18786 0.44486
 H4155 H 0.75383 0.14239 0.42149
 H4156 H 0.75109 0.15511 0.39557
 H4157 H 0.73145 0.16653 0.37863
 H4158 H 0.72942 0.17852 0.35216
 H4159 H 0.75377 0.22037 0.36914
 H4160 H 0.75607 0.20831 0.39555
 H4161 H 0.73375 0.23108 0.35038
 H4162 H 0.73428 0.24296 0.32377
 H4163 H 0.74828 0.19719 0.30349
 H4164 H 0.74787 0.18543 0.33013
 C4165 C 0.25273 0.31981 0.40624
 C4166 C 0.26171 0.31380 0.41907
 C4167 C 0.26124 0.32148 0.43396
 C4168 C 0.25181 0.33535 0.43634
 C4169 C 0.24262 0.34116 0.42360
 C4170 C 0.24311 0.33352 0.40874
 C4171 C 0.25361 0.31211 0.39021
 C4172 C 0.23986 0.31105 0.38075
 C4173 C 0.24080 0.30463 0.36534
 C4174 C 0.25547 0.29901 0.35903
 C4175 C 0.26916 0.29970 0.36858
 C4176 C 0.26825 0.30623 0.38399
 C4177 C 0.25642 0.29257 0.34250
 C4178 C 0.26516 0.27850 0.33904
 C4179 C 0.26539 0.27210 0.32356
 C4180 C 0.25699 0.27972 0.31119
 C4181 C 0.24862 0.29405 0.31461
 C4182 C 0.24831 0.30037 0.33008
 H4183 H 0.26909 0.30316 0.41759
 H4184 H 0.26855 0.31678 0.44350
 H4185 H 0.23505 0.35167 0.42509
 H4186 H 0.23619 0.33858 0.39909
 H4187 H 0.22834 0.31516 0.38528
 H4188 H 0.22999 0.30395 0.35837
 H4189 H 0.28065 0.29558 0.36397
 H4190 H 0.27910 0.30706 0.39087
 H4191 H 0.27146 0.27220 0.34840
 H4192 H 0.27199 0.26107 0.32135
 H4193 H 0.24204 0.30026 0.30539
 H4194 H 0.24169 0.31137 0.33235
 C4195 C 0.74918 0.82059 0.90439
 C4196 C 0.73864 0.83361 0.90697
 C4197 C 0.73748 0.84099 0.92194
 C4198 C 0.74689 0.83562 0.93471
 C4199 C 0.75725 0.82244 0.93222
 C4200 C 0.75837 0.81500 0.91724
 C4201 C 0.75074 0.81312 0.88828
 C4202 C 0.76578 0.80805 0.88230
 C4203 C 0.76728 0.80152 0.86693
 C4204 C 0.75381 0.80003 0.85718
 C4205 C 0.73878 0.80494 0.86320
 C4206 C 0.73725 0.81135 0.87858
 C4207 C 0.75536 0.79342 0.84075
 C4208 C 0.74715 0.80066 0.82808
 C4209 C 0.74796 0.79408 0.81273
 C4210 C 0.75691 0.78001 0.80971
 C4211 C 0.76542 0.77297 0.82233
 C4212 C 0.76470 0.77964 0.83768
 H4213 H 0.73152 0.83835 0.89731
 H4214 H 0.72921 0.85096 0.92350
 H4215 H 0.76479 0.81809 0.94175
 H4216 H 0.76644 0.80487 0.91573
 H4217 H 0.77645 0.80947 0.88935
 H4218 H 0.77903 0.79796 0.86253
 H4219 H 0.72815 0.80365 0.85605
 H4220 H 0.72546 0.81483 0.88292
 H4221 H 0.74004 0.81142 0.83007
 H4222 H 0.74126 0.79984 0.80330
 H4223 H 0.77247 0.76216 0.82041
 H4224 H 0.77109 0.77378 0.84725
 C4225 C 0.74833 0.81616 0.08951
 C4226 C 0.73395 0.81949 0.08158
 C4227 C 0.73404 0.82731 0.06687
 C4228 C 0.74849 0.83213 0.05974
 C4229 C 0.76292 0.82843 0.06745
 C4230 C 0.76284 0.82051 0.08215
 C4231 C 0.74810 0.80873 0.10565
 C4232 C 0.75875 0.81376 0.11748
 C4233 C 0.75805 0.80735 0.13286
 C4234 C 0.74661 0.79581 0.13686
 C4235 C 0.73607 0.79063 0.12498
 C4236 C 0.73684 0.79697 0.10956
 C4237 C 0.74563 0.78930 0.15337
 C4238 C 0.74219 0.77309 0.15599
 C4239 C 0.74158 0.76694 0.17149
 C4240 C 0.74453 0.77682 0.18475
 C4241 C 0.74776 0.79306 0.18215
 C4242 C 0.74824 0.79923 0.16666
 H4243 H 0.72254 0.81647 0.08694
 H4244 H 0.72272 0.82972 0.06113
 H4245 H 0.77426 0.83207 0.06236
 H4246 H 0.77416 0.81791 0.08781
 H4247 H 0.76743 0.82294 0.11496
 H4248 H 0.76653 0.81142 0.14162
 H4249 H 0.72702 0.78187 0.12767
 H4250 H 0.72859 0.79265 0.10070
 H4251 H 0.74033 0.76505 0.14603
 H4252 H 0.73916 0.75435 0.17306
 H4253 H 0.74995 0.80103 0.19210
 H4254 H 0.75058 0.81184 0.16511
 C4255 C 0.24889 0.32219 0.59310
 C4256 C 0.24778 0.33894 0.59183
 C4257 C 0.24859 0.34634 0.57693
 C4258 C 0.25075 0.33722 0.56293
 C4259 C 0.25229 0.32054 0.56413
 C4260 C 0.25127 0.31308 0.57906
 C4261 C 0.24749 0.31436 0.60901
 C4262 C 0.25664 0.30063 0.61262
 C4263 C 0.25551 0.29353 0.62770
 C4264 C 0.24533 0.30010 0.63954
 C4265 C 0.23609 0.31372 0.63594
 C4266 C 0.23706 0.32069 0.62083
 C4267 C 0.24460 0.29299 0.65572
 C4268 C 0.24554 0.30277 0.66935
 C4269 C 0.24541 0.29606 0.68462
 C4270 C 0.24412 0.27943 0.68658
 C4271 C 0.24284 0.26969 0.67293
 C4272 C 0.24321 0.27639 0.65765
 H4273 H 0.24638 0.34638 0.60237
 H4274 H 0.24764 0.35925 0.57634
 H4275 H 0.25385 0.31325 0.55349
 H4276 H 0.25198 0.30016 0.57954
 H4277 H 0.26497 0.29556 0.60393
 H4278 H 0.26289 0.28313 0.63024
 H4279 H 0.22799 0.31888 0.64480
 H4280 H 0.22954 0.33101 0.61838
 H4281 H 0.24673 0.31559 0.66817
 H4282 H 0.24637 0.30389 0.69490
 H4283 H 0.24189 0.25683 0.67404
 H4284 H 0.24234 0.26862 0.64732
 C4285 C 0.75026 0.17977 0.59174
 C4286 C 0.74379 0.16446 0.58986
 C4287 C 0.74297 0.15738 0.57474
 C4288 C 0.74857 0.16546 0.56112
 C4289 C 0.75482 0.18088 0.56296
 C4290 C 0.75563 0.18796 0.57809
 C4291 C 0.75153 0.18703 0.60791
 C4292 C 0.74811 0.20336 0.61041
 C4293 C 0.74898 0.21005 0.62572
 C4294 C 0.75328 0.20055 0.63886
 C4295 C 0.75691 0.18428 0.63631
 C4296 C 0.75606 0.17761 0.62102
 C4297 C 0.75358 0.20747 0.65523
 C4298 C 0.74741 0.19888 0.66826
 C4299 C 0.74724 0.20550 0.68361
 C4300 C 0.75326 0.22089 0.68633
 C4301 C 0.75966 0.22940 0.67332
 C4302 C 0.75978 0.22278 0.65794
 H4303 H 0.73934 0.15792 0.60009
 H4304 H 0.73827 0.14542 0.57379
 H4305 H 0.75909 0.18747 0.55268
 H4306 H 0.76077 0.19973 0.57916
 H4307 H 0.74440 0.21089 0.60059
 H4308 H 0.74590 0.22257 0.62733
 H4309 H 0.76053 0.17672 0.64615
 H4310 H 0.75908 0.16507 0.61944
 H4311 H 0.74237 0.18714 0.66653
 H4312 H 0.74221 0.19859 0.69332
 H4313 H 0.76442 0.24126 0.67497
 H4314 H 0.76479 0.22961 0.64817
 C4315 C 0.25062 0.67733 0.09519
 C4316 C 0.25023 0.66055 0.09415
 C4317 C 0.24976 0.65291 0.07930
 C4318 C 0.24949 0.66184 0.06514
 C4319 C 0.24937 0.67861 0.06611
 C4320 C 0.25001 0.68628 0.08099
 C4321 C 0.25186 0.68535 0.11105
 C4322 C 0.24375 0.69987 0.11424
 C4323 C 0.24474 0.70717 0.12927
 C4324 C 0.25374 0.70004 0.14146
 C4325 C 0.26197 0.68563 0.13826
 C4326 C 0.26113 0.67842 0.12321
 C4327 C 0.25423 0.70738 0.15760
 C4328 C 0.25207 0.69792 0.17128
 C4329 C 0.25190 0.70486 0.18649
 C4330 C 0.25408 0.72140 0.18838
 C4331 C 0.25661 0.73081 0.17470
 C4332 C 0.25657 0.72388 0.15946
 H4333 H 0.25025 0.65327 0.10482
 H4334 H 0.24960 0.63997 0.07889
 H4335 H 0.24929 0.68576 0.05534
 H4336 H 0.25047 0.69921 0.08132
 H4337 H 0.23634 0.70544 0.10525
 H4338 H 0.23813 0.71820 0.13149
 H4339 H 0.26918 0.68000 0.14738
 H4340 H 0.26785 0.66745 0.12108
 H4341 H 0.25012 0.68518 0.17017
 H4342 H 0.24997 0.69728 0.19678
 H4343 H 0.25827 0.74359 0.17575
 H4344 H 0.25840 0.73141 0.14912
 C4345 C 0.18033 0.59471 0.75138
 C4346 C 0.18659 0.58255 0.74136
 C4347 C 0.17877 0.56791 0.73998
 C4348 C 0.16449 0.56522 0.74850
 C4349 C 0.15845 0.57722 0.75877
 C4350 C 0.16630 0.59176 0.76024
 C4351 C 0.18803 0.61060 0.75229
 C4352 C 0.17858 0.62461 0.75319
 C4353 C 0.18566 0.63960 0.75394
 C4354 C 0.20239 0.64101 0.75367
 C4355 C 0.21189 0.62702 0.75284
 C4356 C 0.20478 0.61197 0.75216
 C4357 C 0.20979 0.65707 0.75395
 C4358 C 0.22369 0.65990 0.76279
 C4359 C 0.23047 0.67511 0.76308
 C4360 C 0.22347 0.68783 0.75457
 C4361 C 0.20960 0.68494 0.74572
 C4362 C 0.20289 0.66976 0.74538
 H4363 H 0.19728 0.58450 0.73425
 H4364 H 0.18363 0.55887 0.73193
 H4365 H 0.14765 0.57533 0.76574
 H4366 H 0.16137 0.60070 0.76836
 H4367 H 0.16566 0.62402 0.75310
 H4368 H 0.17800 0.65011 0.75480
 H4369 H 0.22481 0.62771 0.75246
 H4370 H 0.21240 0.60141 0.75163
 H4371 H 0.22919 0.65041 0.76967
 H4372 H 0.24114 0.67692 0.77005
 H4373 H 0.20396 0.69439 0.73889
 H4374 H 0.19237 0.66793 0.73820
 C4375 C 0.67765 0.09547 0.24418
 C4376 C 0.66339 0.09408 0.23567
 C4377 C 0.65610 0.07927 0.23390
 C4378 C 0.66278 0.06526 0.24069
 C4379 C 0.67750 0.06673 0.24873
 C4380 C 0.68477 0.08161 0.25046
 C4381 C 0.68485 0.11141 0.24670
 C4382 C 0.70145 0.11350 0.24530
 C4383 C 0.70808 0.12865 0.24728
 C4384 C 0.69824 0.14202 0.25076
 C4385 C 0.68167 0.13984 0.25245
 C4386 C 0.67506 0.12473 0.25043
 C4387 C 0.70515 0.15825 0.25213
 C4388 C 0.69720 0.17153 0.24550
 C4389 C 0.70392 0.18671 0.24619
 C4390 C 0.71879 0.18901 0.25349
 C4391 C 0.72660 0.17578 0.26040
 C4392 C 0.71986 0.16057 0.25971
 H4393 H 0.65788 0.10449 0.23025
 H4394 H 0.64539 0.07893 0.22680
 H4395 H 0.68310 0.05665 0.25458
 H4396 H 0.69571 0.08234 0.25722
 H4397 H 0.70928 0.10349 0.24228
 H4398 H 0.72086 0.12996 0.24568
 H4399 H 0.67381 0.14983 0.25542
 H4400 H 0.66225 0.12344 0.25191
 H4401 H 0.68596 0.17012 0.23939
 H4402 H 0.69757 0.19659 0.24070
 H4403 H 0.73804 0.17711 0.26618
 H4404 H 0.72616 0.15062 0.26514
 C4405 C 0.81894 0.09210 0.74218
 C4406 C 0.83549 0.09129 0.74484
 C4407 C 0.84322 0.07657 0.74691
 C4408 C 0.83459 0.06226 0.74651
 C4409 C 0.81804 0.06303 0.74374
 C4410 C 0.81029 0.07779 0.74160
 C4411 C 0.81078 0.10790 0.74041
 C4412 C 0.79570 0.11084 0.74750
 C4413 C 0.78859 0.12604 0.74679
 C4414 C 0.79644 0.13864 0.73904
 C4415 C 0.81130 0.13560 0.73157
 C4416 C 0.81836 0.12039 0.73219
 C4417 C 0.78950 0.15504 0.73936
 C4418 C 0.79920 0.16817 0.74286
 C4419 C 0.79261 0.18357 0.74396
 C4420 C 0.77619 0.18621 0.74147
 C4421 C 0.76655 0.17311 0.73764
 C4422 C 0.77313 0.15767 0.73668
 H4423 H 0.84248 0.10206 0.74558
 H4424 H 0.85602 0.07641 0.74874
 H4425 H 0.81104 0.05223 0.74344
 H4426 H 0.79755 0.07800 0.73942
 H4427 H 0.78964 0.10155 0.75409
 H4428 H 0.77720 0.12810 0.75279
 H4429 H 0.81749 0.14503 0.72530
 H4430 H 0.82982 0.11844 0.72630
 H4431 H 0.81183 0.16646 0.74514
 H4432 H 0.80039 0.19339 0.74687
 H4433 H 0.75385 0.17473 0.73565
 H4434 H 0.76542 0.14778 0.73384
 C4435 C 0.31896 0.59376 0.25224
 C4436 C 0.33088 0.59132 0.26369
 C4437 C 0.33825 0.57636 0.26533
 C4438 C 0.33401 0.56351 0.25544
 C4439 C 0.32170 0.56582 0.24431
 C4440 C 0.31421 0.58080 0.24277
 C4441 C 0.31191 0.60993 0.24995
 C4442 C 0.29530 0.61216 0.24863
 C4443 C 0.28874 0.62756 0.24713
 C4444 C 0.29868 0.64102 0.24678
 C4445 C 0.31533 0.63866 0.24764
 C4446 C 0.32185 0.62332 0.24929
 C4447 C 0.29175 0.65748 0.24610
 C4448 C 0.29861 0.66993 0.25493
 C4449 C 0.29194 0.68531 0.25475
 C4450 C 0.27814 0.68865 0.24586
 C4451 C 0.27135 0.67627 0.23687
 C4452 C 0.27810 0.66087 0.23696
 H4453 H 0.33453 0.60104 0.27137
 H4454 H 0.34740 0.57491 0.27429
 H4455 H 0.31826 0.55623 0.23638
 H4456 H 0.30509 0.58239 0.23380
 H4457 H 0.28738 0.60204 0.24920
 H4458 H 0.27586 0.62895 0.24670
 H4459 H 0.32337 0.64870 0.24703
 H4460 H 0.33472 0.62190 0.24997
 H4461 H 0.30893 0.66771 0.26234
 H4462 H 0.29743 0.69451 0.26191
 H4463 H 0.26077 0.67845 0.22982
 H4464 H 0.27266 0.65162 0.22984
 C4465 C 0.32454 0.40622 0.25337
 C4466 C 0.33947 0.40844 0.26056
 C4467 C 0.34649 0.42348 0.26080
 C4468 C 0.33871 0.43680 0.25403
 C4469 C 0.32379 0.43462 0.24681
 C4470 C 0.31680 0.41950 0.24646
 C4471 C 0.31716 0.39012 0.25315
 C4472 C 0.30055 0.38839 0.25515
 C4473 C 0.29371 0.37321 0.25521
 C4474 C 0.30331 0.35937 0.25337
 C4475 C 0.31992 0.36112 0.25138
 C4476 C 0.32673 0.37628 0.25118
 C4477 C 0.29608 0.34320 0.25342
 C4478 C 0.30215 0.33106 0.24328
 C4479 C 0.29535 0.31590 0.24322
 C4480 C 0.28218 0.31251 0.25317
 C4481 C 0.27611 0.32460 0.26335
 C4482 C 0.28302 0.33974 0.26353
 H4483 H 0.34569 0.39857 0.26619
 H4484 H 0.35813 0.42462 0.26620
 H4485 H 0.31740 0.44463 0.24160
 H4486 H 0.30539 0.41819 0.24064
 H4487 H 0.29283 0.39876 0.25689
 H4488 H 0.28085 0.37234 0.25655
 H4489 H 0.32772 0.35075 0.25013
 H4490 H 0.33953 0.37714 0.24938
 H4491 H 0.31200 0.33335 0.23513
 H4492 H 0.30023 0.30691 0.23511
 H4493 H 0.26603 0.32235 0.27124
 H4494 H 0.27821 0.34869 0.27169
 C4495 C 0.82591 0.90469 0.74976
 C4496 C 0.81907 0.91755 0.74132
 C4497 C 0.82610 0.93264 0.74157
 C4498 C 0.84014 0.93522 0.75025
 C4499 C 0.84705 0.92231 0.75853
 C4500 C 0.83999 0.90728 0.75835
 C4501 C 0.81843 0.88865 0.74972
 C4502 C 0.82799 0.87470 0.74934
 C4503 C 0.82104 0.85961 0.74975
 C4504 C 0.80433 0.85806 0.75041
 C4505 C 0.79474 0.87200 0.75066
 C4506 C 0.80170 0.88712 0.75036
 C4507 C 0.79697 0.84196 0.75072
 C4508 C 0.78322 0.83906 0.76006
 C4509 C 0.77626 0.82394 0.76019
 C4510 C 0.78295 0.81133 0.75105
 C4511 C 0.79678 0.81420 0.74184
 C4512 C 0.80365 0.82932 0.74162
 H4513 H 0.80833 0.91592 0.73442
 H4514 H 0.82041 0.94235 0.73516
 H4515 H 0.85801 0.92377 0.76512
 H4516 H 0.84549 0.89773 0.76515
 H4517 H 0.84090 0.87542 0.74863
 H4518 H 0.82880 0.84915 0.74972
 H4519 H 0.78182 0.87125 0.75095
 H4520 H 0.79398 0.89761 0.75085
 H4521 H 0.77792 0.84844 0.76741
 H4522 H 0.76566 0.82212 0.76748
 H4523 H 0.80217 0.80481 0.73454
 H4524 H 0.81406 0.83118 0.73408
 C4525 C 0.67889 0.90897 0.24217
 C4526 C 0.67556 0.91695 0.22780
 C4527 C 0.66823 0.93205 0.22796
 C4528 C 0.66392 0.93954 0.24249
 C4529 C 0.66754 0.93173 0.25687
 C4530 C 0.67497 0.91664 0.25671
 C4531 C 0.68602 0.89257 0.24193
 C4532 C 0.68099 0.88104 0.25302
 C4533 C 0.68737 0.86551 0.25257
 C4534 C 0.69888 0.86107 0.24094
 C4535 C 0.70395 0.87261 0.22986
 C4536 C 0.69763 0.88817 0.23038
 C4537 C 0.70566 0.84452 0.24049
 C4538 C 0.72194 0.84181 0.23685
 C4539 C 0.72843 0.82632 0.23698
 C4540 C 0.71884 0.81318 0.24086
 C4541 C 0.70251 0.81584 0.24422
 C4542 C 0.69599 0.83132 0.24397
 H4543 H 0.67826 0.91136 0.21638
 H4544 H 0.66585 0.93783 0.21666
 H4545 H 0.66427 0.93708 0.26827
 H4546 H 0.67759 0.91096 0.26801
 H4547 H 0.67191 0.88393 0.26194
 H4548 H 0.68337 0.85702 0.26144
 H4549 H 0.71267 0.86957 0.22064
 H4550 H 0.70193 0.89678 0.22177
 H4551 H 0.72979 0.85170 0.23432
 H4552 H 0.74108 0.82472 0.23443
 H4553 H 0.69475 0.80597 0.24713
 H4554 H 0.68334 0.83293 0.24650
 C4555 C 0.17816 0.40923 0.74483
 C4556 C 0.17501 0.41752 0.73060
 C4557 C 0.16769 0.43263 0.73101
 C4558 C 0.16323 0.43980 0.74565
 C4559 C 0.16664 0.43166 0.75990
 C4560 C 0.17406 0.41657 0.75950
 C4561 C 0.18535 0.39286 0.74434
 C4562 C 0.18024 0.38110 0.75514
 C4563 C 0.18675 0.36564 0.75451
 C4564 C 0.19846 0.36149 0.74297
 C4565 C 0.20359 0.37326 0.73217
 C4566 C 0.19715 0.38876 0.73287
 C4567 C 0.20541 0.34502 0.74236
 C4568 C 0.22176 0.34252 0.73896
 C4569 C 0.22840 0.32710 0.73895
 C4570 C 0.21888 0.31381 0.74249
 C4571 C 0.20247 0.31627 0.74561
 C4572 C 0.19581 0.33168 0.74549
 H4573 H 0.17785 0.41218 0.71910
 H4574 H 0.16547 0.43867 0.71981
 H4575 H 0.16324 0.43675 0.77137
 H4576 H 0.17654 0.41064 0.77069
 H4577 H 0.17102 0.38377 0.76398
 H4578 H 0.18270 0.35696 0.76317
 H4579 H 0.21247 0.37045 0.72303
 H4580 H 0.20150 0.39756 0.72449
 H4581 H 0.22955 0.35252 0.73671
 H4582 H 0.24110 0.32565 0.73658
 H4583 H 0.19476 0.30628 0.74824
 H4584 H 0.18311 0.33313 0.74783
 C4585 C 0.09245 0.75359 0.81971
 C4586 C 0.07949 0.74499 0.81367
 C4587 C 0.06463 0.74539 0.82154
 C4588 C 0.06244 0.75439 0.83564
 C4589 C 0.07530 0.76328 0.84145
 C4590 C 0.09012 0.76286 0.83361
 C4591 C 0.10849 0.75259 0.81191
 C4592 C 0.11821 0.76616 0.81098
 C4593 C 0.13367 0.76503 0.80455
 C4594 C 0.13976 0.75033 0.79883
 C4595 C 0.12994 0.73684 0.79939
 C4596 C 0.11448 0.73794 0.80590
 C4597 C 0.15638 0.74910 0.79253
 C4598 C 0.15990 0.74039 0.77851
 C4599 C 0.17553 0.73967 0.77238
 C4600 C 0.18799 0.74757 0.78020
 C4601 C 0.18448 0.75600 0.79441
 C4602 C 0.16886 0.75679 0.80047
 H4603 H 0.08085 0.73789 0.80288
 H4604 H 0.05500 0.73832 0.81683
 H4605 H 0.07393 0.77051 0.85216
 H4606 H 0.09988 0.76950 0.83870
 H4607 H 0.11385 0.77768 0.81522
 H4608 H 0.14086 0.77570 0.80399
 H4609 H 0.13438 0.72532 0.79519
 H4610 H 0.10740 0.72722 0.80664
 H4611 H 0.15050 0.73443 0.77209
 H4612 H 0.17780 0.73306 0.76141
 H4613 H 0.19376 0.76221 0.80077
 H4614 H 0.16654 0.76339 0.81144
 C4615 C 0.59069 0.25545 0.31875
 C4616 C 0.57755 0.24682 0.31314
 C4617 C 0.56284 0.24753 0.32125
 C4618 C 0.56095 0.25687 0.33517
 C4619 C 0.57398 0.26577 0.34056
 C4620 C 0.58867 0.26504 0.33248
 C4621 C 0.60658 0.25415 0.31069
 C4622 C 0.61639 0.26761 0.30932
 C4623 C 0.63174 0.26622 0.30268
 C4624 C 0.63762 0.25136 0.29717
 C4625 C 0.62769 0.23797 0.29812
 C4626 C 0.61234 0.23934 0.30485
 C4627 C 0.65417 0.24987 0.29075
 C4628 C 0.65749 0.24101 0.27677
 C4629 C 0.67306 0.24017 0.27047
 C4630 C 0.68563 0.24809 0.27810
 C4631 C 0.68232 0.25660 0.29230
 C4632 C 0.66677 0.25751 0.29852
 H4633 H 0.57866 0.23947 0.30249
 H4634 H 0.55307 0.24042 0.31687
 H4635 H 0.57286 0.27325 0.35111
 H4636 H 0.59857 0.27170 0.33724
 H4637 H 0.61220 0.27925 0.31339
 H4638 H 0.63902 0.27680 0.30181
 H4639 H 0.63197 0.22635 0.29408
 H4640 H 0.60518 0.22869 0.30592
 H4641 H 0.64798 0.23505 0.27051
 H4642 H 0.67519 0.23350 0.25952
 H4643 H 0.69169 0.26283 0.29852
 H4644 H 0.66460 0.26421 0.30945
 C4645 C 0.59256 0.75029 0.17604
 C4646 C 0.57979 0.76034 0.18095
 C4647 C 0.56492 0.75949 0.17351
 C4648 C 0.56244 0.74855 0.16100
 C4649 C 0.57515 0.73835 0.15627
 C4650 C 0.59001 0.73925 0.16364
 C4651 C 0.60854 0.75139 0.18362
 C4652 C 0.61785 0.73752 0.18618
 C4653 C 0.63311 0.73856 0.19271
 C4654 C 0.63939 0.75346 0.19696
 C4655 C 0.63002 0.76731 0.19470
 C4656 C 0.61478 0.76629 0.18804
 C4657 C 0.65570 0.75445 0.20369
 C4658 C 0.65868 0.76415 0.21704
 C4659 C 0.67390 0.76441 0.22382
 C4660 C 0.68650 0.75507 0.21729
 C4661 C 0.68358 0.74573 0.20364
 C4662 C 0.66835 0.74538 0.19697
 H4663 H 0.58127 0.76883 0.19060
 H4664 H 0.55545 0.76763 0.17735
 H4665 H 0.57361 0.72961 0.14685
 H4666 H 0.59961 0.73145 0.15940
 H4667 H 0.61331 0.72582 0.18325
 H4668 H 0.63995 0.72765 0.19460
 H4669 H 0.63462 0.77896 0.19774
 H4670 H 0.60804 0.77723 0.18602
 H4671 H 0.64912 0.77120 0.22251
 H4672 H 0.67573 0.77177 0.23430
 H4673 H 0.69299 0.73840 0.19828
 H4674 H 0.66645 0.73797 0.18653
 C4675 C 0.09303 0.25316 0.67523
 C4676 C 0.09121 0.24436 0.66109
 C4677 C 0.07631 0.24324 0.65386
 C4678 C 0.06260 0.25094 0.66050
 C4679 C 0.06463 0.26001 0.67463
 C4680 C 0.07959 0.26105 0.68187
 C4681 C 0.10893 0.25397 0.68298
 C4682 C 0.11429 0.26830 0.68982
 C4683 C 0.12944 0.26905 0.69670
 C4684 C 0.13957 0.25549 0.69686
 C4685 C 0.13412 0.24114 0.69020
 C4686 C 0.11899 0.24038 0.68337
 C4687 C 0.15576 0.25620 0.70395
 C4688 C 0.16882 0.24848 0.69639
 C4689 C 0.18393 0.24846 0.70335
 C4690 C 0.18633 0.25614 0.71810
 C4691 C 0.17332 0.26418 0.72549
 C4692 C 0.15821 0.26424 0.71848
 H4693 H 0.10142 0.23851 0.65540
 H4694 H 0.07588 0.23680 0.64265
 H4695 H 0.05460 0.26580 0.68064
 H4696 H 0.08056 0.26774 0.69292
 H4697 H 0.10690 0.27903 0.68954
 H4698 H 0.13337 0.28031 0.70162
 H4699 H 0.14151 0.23041 0.69044
 H4700 H 0.11511 0.22908 0.67852
 H4701 H 0.16736 0.24241 0.68505
 H4702 H 0.19366 0.24221 0.69727
 H4703 H 0.17474 0.27025 0.73684
 H4704 H 0.14835 0.27020 0.72464
 C4705 C 0.90690 0.24107 0.68068
 C4706 C 0.91100 0.22987 0.66872
 C4707 C 0.92582 0.23055 0.66088
 C4708 C 0.93689 0.24237 0.66490
 C4709 C 0.93299 0.25327 0.67719
 C4710 C 0.91810 0.25268 0.68495
 C4711 C 0.89072 0.24100 0.68817
 C4712 C 0.88210 0.25539 0.69034
 C4713 C 0.86655 0.25532 0.69664
 C4714 C 0.85932 0.24088 0.70100
 C4715 C 0.86804 0.22650 0.69910
 C4716 C 0.88356 0.22656 0.69267
 C4717 C 0.84271 0.24086 0.70742
 C4718 C 0.83867 0.23151 0.72075
 C4719 C 0.82314 0.23204 0.72715
 C4720 C 0.81129 0.24184 0.72028
 C4721 C 0.81527 0.25088 0.70670
 C4722 C 0.83081 0.25044 0.70039
 H4723 H 0.90257 0.22087 0.66509
 H4724 H 0.92858 0.22188 0.65157
 H4725 H 0.94127 0.26255 0.68047
 H4726 H 0.91531 0.26136 0.69424
 H4727 H 0.88724 0.26668 0.68684
 H4728 H 0.86018 0.26659 0.69815
 H4729 H 0.86274 0.21519 0.70228
 H4730 H 0.88998 0.21530 0.69123
 H4731 H 0.84763 0.22408 0.72646
 H4732 H 0.82048 0.22488 0.73759
 H4733 H 0.80645 0.25856 0.70109
 H4734 H 0.83353 0.25759 0.68997
 C4735 C 0.40617 0.74587 0.18051
 C4736 C 0.41459 0.73151 0.17740
 C4737 C 0.42957 0.73164 0.16983
 C4738 C 0.43648 0.74613 0.16505
 C4739 C 0.42822 0.76051 0.16845
 C4740 C 0.41328 0.76039 0.17612
 C4741 C 0.38989 0.74567 0.18791
 C4742 C 0.37796 0.75648 0.18288
 C4743 C 0.36259 0.75613 0.18957
 C4744 C 0.35867 0.74487 0.20138
 C4745 C 0.37059 0.73406 0.20642
 C4746 C 0.38601 0.73449 0.19981
 C4747 C 0.34225 0.74452 0.20844
 C4748 C 0.33989 0.74132 0.22479
 C4749 C 0.32450 0.74146 0.23151
 C4750 C 0.31110 0.74494 0.22208
 C4751 C 0.31341 0.74791 0.20569
 C4752 C 0.32879 0.74763 0.19895
 H4753 H 0.40944 0.72010 0.18046
 H4754 H 0.43570 0.72035 0.16764
 H4755 H 0.43309 0.77188 0.16480
 H4756 H 0.40727 0.77169 0.17857
 H4757 H 0.38043 0.76510 0.17358
 H4758 H 0.35379 0.76480 0.18556
 H4759 H 0.36797 0.72512 0.21537
 H4760 H 0.39494 0.72610 0.20411
 H4761 H 0.34998 0.73909 0.23251
 H4762 H 0.32316 0.73922 0.24419
 H4763 H 0.30334 0.75048 0.19805
 H4764 H 0.33011 0.74980 0.18626
 C4765 C 0.40709 0.25347 0.32097
 C4766 C 0.41445 0.26789 0.32514
 C4767 C 0.42906 0.26779 0.33305
 C4768 C 0.43665 0.25328 0.33710
 C4769 C 0.42944 0.23886 0.33269
 C4770 C 0.41484 0.23895 0.32470
 C4771 C 0.39121 0.25362 0.31315
 C4772 C 0.37957 0.24239 0.31746
 C4773 C 0.36448 0.24279 0.31048
 C4774 C 0.36060 0.25449 0.29907
 C4775 C 0.37226 0.26565 0.29468
 C4776 C 0.38740 0.26520 0.30162
 C4777 C 0.34445 0.25500 0.29182
 C4778 C 0.34258 0.25859 0.27554
 C4779 C 0.32742 0.25869 0.26866
 C4780 C 0.31378 0.25509 0.27788
 C4781 C 0.31563 0.25173 0.29421
 C4782 C 0.33077 0.25173 0.30110
 H4783 H 0.40875 0.27928 0.32260
 H4784 H 0.43441 0.27913 0.33605
 H4785 H 0.43489 0.22747 0.33574
 H4786 H 0.40960 0.22763 0.32147
 H4787 H 0.38203 0.23343 0.32644
 H4788 H 0.35586 0.23387 0.31396
 H4789 H 0.36963 0.27491 0.28605
 H4790 H 0.39614 0.27391 0.29789
 H4791 H 0.35289 0.26098 0.26801
 H4792 H 0.32645 0.26125 0.25603
 H4793 H 0.30536 0.24905 0.30170
 H4794 H 0.33174 0.24924 0.31375
 C4795 C 0.90781 0.75297 0.82094
 C4796 C 0.91553 0.76727 0.82485
 C4797 C 0.93024 0.76695 0.83262
 C4798 C 0.93756 0.75233 0.83676
 C4799 C 0.92997 0.73802 0.83262
 C4800 C 0.91529 0.73834 0.82478
 C4801 C 0.89187 0.75334 0.81323
 C4802 C 0.88006 0.74236 0.81773
 C4803 C 0.86496 0.74288 0.81075
 C4804 C 0.86125 0.75444 0.79916
 C4805 C 0.87307 0.76539 0.79462
 C4806 C 0.88820 0.76482 0.80155
 C4807 C 0.84513 0.75498 0.79181
 C4808 C 0.84338 0.75828 0.77545
 C4809 C 0.82827 0.75825 0.76846
 C4810 C 0.81456 0.75483 0.77764
 C4811 C 0.81628 0.75180 0.79406
 C4812 C 0.83137 0.75192 0.80106
 H4813 H 0.91005 0.77874 0.82221
 H4814 H 0.93586 0.77819 0.83541
 H4815 H 0.93519 0.72656 0.83576
 H4816 H 0.90978 0.72710 0.82174
 H4817 H 0.88240 0.73349 0.82683
 H4818 H 0.85623 0.73411 0.81436
 H4819 H 0.87056 0.77453 0.78584
 H4820 H 0.89707 0.77334 0.79768
 H4821 H 0.85374 0.76049 0.76794
 H4822 H 0.82740 0.76056 0.75577
 H4823 H 0.80596 0.74927 0.80152
 H4824 H 0.83225 0.74966 0.81375
   
