data_POSCAR
  _audit_creation_date              2014-09-24
  _audit_creation_method            'ToBaCCo'
  _symmetry_space_group_name_H-M    'P1'
  _symmetry_Int_Tables_number       1
  _symmetry_cell_setting            triclinic
  loop_
  _symmetry_equiv_pos_as_xyz
 x,y,z
_cell_length_a 50.5069
_cell_length_b 55.8418
_cell_length_c 52.8728
_cell_angle_alpha 90.213400
_cell_angle_beta 89.631400
_cell_angle_gamma 90.125300
loop_
  _atom_site_label
  _atom_site_type_symbol
  _atom_site_fract_x
  _atom_site_fract_y
  _atom_site_fract_z
C1 C 0.33841 0.27026 0.01370
 C2 C 0.35306 0.26552 -0.00813
 C3 C 0.35243 0.28048 -0.02945
 C4 C 0.33563 0.30099 -0.02869
 C5 C 0.31986 0.30553 -0.00674
 C6 C 0.32158 0.29025 0.01461
 C7 C 0.30649 0.29534 0.03636
 C8 C 0.29034 0.31539 0.03746
 C9 C 0.28844 0.33090 0.01673
 C10 C 0.30297 0.32586 -0.00572
 C11 C 0.33576 0.31826 -0.04802
 C12 C 0.31873 0.33783 -0.04726
 C13 C 0.30109 0.34137 -0.02690
 C14 C 0.28321 0.36109 -0.02614
 C15 C 0.26974 0.36589 -0.00329
 C16 C 0.27234 0.35139 0.01791
 H17 H 0.30711 0.28386 0.05280
 H18 H 0.27927 0.31861 0.05474
 H19 H 0.34954 0.31733 -0.06369
 H20 H 0.32027 0.35069 -0.06244
 H21 H 0.36515 0.24948 -0.00838
 H22 H 0.25568 0.38051 -0.00206
 C23 C 0.71557 0.63385 -0.04212
 C24 C 0.73094 0.62709 -0.02147
 C25 C 0.72964 0.63923 0.00165
 C26 C 0.71273 0.65932 0.00418
 C27 C 0.69695 0.66650 -0.01663
 C28 C 0.69811 0.65351 -0.03975
 C29 C 0.68184 0.66054 -0.05979
 C30 C 0.66483 0.67998 -0.05734
 C31 C 0.66446 0.69421 -0.03529
 C32 C 0.68005 0.68677 -0.01435
 C33 C 0.71156 0.67266 0.02675
 C34 C 0.69461 0.69214 0.02920
 C35 C 0.67857 0.69933 0.00901
 C36 C 0.66131 0.71899 0.01147
 C37 C 0.64647 0.72635 -0.00924
 C38 C 0.64779 0.71473 -0.03286
 H39 H 0.68186 0.65094 -0.07759
 H40 H 0.65165 0.68333 -0.07292
 H41 H 0.72386 0.66827 0.04274
 H42 H 0.69438 0.70171 0.04704
 H43 H 0.74381 0.61163 -0.02329
 H44 H 0.63433 0.74222 -0.00691
 C45 C 0.66016 0.27862 1.03221
 C46 C 0.66010 0.26801 1.00820
 C47 C 0.67211 0.27888 0.98733
 C48 C 0.68559 0.30085 0.99049
 C49 C 0.68646 0.31175 1.01479
 C50 C 0.67361 0.30068 1.03573
 C51 C 0.67391 0.31235 1.05932
 C52 C 0.68771 0.33370 1.06266
 C53 C 0.70115 0.34468 1.04240
 C54 C 0.69972 0.33403 1.01802
 C55 C 0.69851 0.31200 0.97010
 C56 C 0.71141 0.33383 0.97326
 C57 C 0.71173 0.34548 0.99691
 C58 C 0.72416 0.36803 1.00018
 C59 C 0.72481 0.37855 1.02425
 C60 C 0.71464 0.36678 1.04562
 H61 H 0.66334 0.30528 1.07547
 H62 H 0.68708 0.34194 1.08122
 H63 H 0.69886 0.30384 0.95149
 H64 H 0.72120 0.34140 0.95690
 H65 H 0.64963 0.25120 1.00548
 H66 H 0.73529 0.39540 1.02660
 C67 C 0.26916 0.64907 0.98464
 C68 C 0.26379 0.63603 1.00655
 C69 C 0.27535 0.64169 1.03002
 C70 C 0.29408 0.66090 1.03076
 C71 C 0.29798 0.67551 1.00905
 C72 C 0.28515 0.66971 0.98604
 C73 C 0.28853 0.68466 0.96498
 C74 C 0.30492 0.70461 0.96615
 C75 C 0.31905 0.71001 0.98823
 C76 C 0.31555 0.69546 1.01001
 C77 C 0.31078 0.66462 1.05160
 C78 C 0.32855 0.68370 1.05232
 C79 C 0.33026 0.70026 1.03237
 C80 C 0.34799 0.72017 1.03301
 C81 C 0.35047 0.73443 1.01124
 C82 C 0.33662 0.72962 0.98908
 H83 H 0.27827 0.68119 0.94743
 H84 H 0.30657 0.71566 0.94944
 H85 H 0.31115 0.65220 1.06723
 H86 H 0.34147 0.68477 1.06847
 H87 H 0.24973 0.62143 1.00505
 H88 H 0.36337 0.75000 1.01147
 C89 C 0.01505 0.30067 0.37449
 C90 C -0.00849 0.28840 0.37966
 C91 C -0.03330 0.29692 0.37180
 C92 C -0.03405 0.31776 0.35629
 C93 C -0.01022 0.33040 0.35079
 C94 C 0.01434 0.32193 0.36011
 C95 C 0.03762 0.33470 0.35445
 C96 C 0.03678 0.35591 0.34086
 C97 C 0.01276 0.36472 0.33148
 C98 C -0.01091 0.35161 0.33591
 C99 C -0.05764 0.32563 0.34499
 C100 C -0.05831 0.34632 0.33039
 C101 C -0.03519 0.35964 0.32548
 C102 C -0.03581 0.38139 0.31150
 C103 C -0.01241 0.39487 0.30911
 C104 C 0.01181 0.38646 0.31798
 H105 H 0.05680 0.32851 0.36055
 H106 H 0.05524 0.36539 0.33783
 H107 H -0.07593 0.31570 0.34703
 H108 H -0.07735 0.35195 0.32337
 H109 H -0.00744 0.27292 0.39195
 H110 H -0.01248 0.41124 0.29810
 C111 C 0.00830 0.61595 0.68860
 C112 C -0.01667 0.60575 0.69220
 C113 C -0.03983 0.61618 0.68272
 C114 C -0.03740 0.63685 0.66718
 C115 C -0.01195 0.64696 0.66249
 C116 C 0.01087 0.63682 0.67378
 C117 C 0.03550 0.64816 0.67052
 C118 C 0.03801 0.66841 0.65554
 C119 C 0.01602 0.67812 0.64317
 C120 C -0.00930 0.66748 0.64673
 C121 C -0.05945 0.64715 0.65538
 C122 C -0.05693 0.66749 0.64049
 C123 C -0.03198 0.67754 0.63498
 C124 C -0.02911 0.69815 0.61932
 C125 C -0.00381 0.70841 0.61663
 C126 C 0.01858 0.69867 0.62794
 H127 H 0.05312 0.64168 0.67973
 H128 H 0.05742 0.67654 0.65396
 H129 H -0.07905 0.63954 0.65732
 H130 H -0.07505 0.67535 0.63373
 H131 H -0.01810 0.59018 0.70435
 H132 H -0.00097 0.72356 0.60410
 C133 C 1.03950 0.72645 0.35325
 C134 C 1.01732 0.74115 0.35632
 C135 C 0.99335 0.73610 0.34443
 C136 C 0.99146 0.71600 0.32827
 C137 C 1.01392 0.70110 0.32442
 C138 C 1.03803 0.70629 0.33701
 C139 C 1.05952 0.69065 0.33383
 C140 C 1.05776 0.67083 0.31782
 C141 C 1.03456 0.66595 0.30401
 C142 C 1.01198 0.68061 0.30848
 C143 C 0.96777 0.71051 0.31576
 C144 C 0.96560 0.69002 0.30098
 C145 C 0.98722 0.67452 0.29766
 C146 C 0.98471 0.65315 0.28360
 C147 C 1.00729 0.63967 0.27817
 C148 C 1.03256 0.64587 0.28732
 H149 H 1.07783 0.69344 0.34396
 H150 H 1.07459 0.65892 0.31712
 H151 H 0.95057 0.72195 0.31740
 H152 H 0.94683 0.68659 0.29188
 H153 H 1.01847 0.75645 0.36899
 H154 H 1.00492 0.62432 0.26579
 C155 C 0.98404 0.35448 0.71326
 C156 C 1.00788 0.36500 0.72071
 C157 C 1.03193 0.35949 0.70880
 C158 C 1.03236 0.34265 0.68875
 C159 C 1.00823 0.33249 0.68019
 C160 C 0.98396 0.33841 0.69251
 C161 C 0.96047 0.32741 0.68439
 C162 C 0.96054 0.31165 0.66404
 C163 C 0.98419 0.30572 0.65141
 C164 C 1.00844 0.31576 0.65982
 C165 C 1.05628 0.33487 0.67788
 C166 C 1.05658 0.31773 0.65867
 C167 C 1.03290 0.30846 0.64859
 C168 C 1.03279 0.29070 0.62910
 C169 C 1.00832 0.28163 0.62089
 C170 C 0.98429 0.28915 0.63127
 H171 H 0.94175 0.33064 0.69380
 H172 H 0.94185 0.30360 0.65878
 H173 H 1.07511 0.34138 0.68477
 H174 H 1.07573 0.31151 0.65233
 H175 H 1.00770 0.37783 0.73618
 H176 H 1.00778 0.26902 0.60523
 C177 C 0.28683 -0.03468 0.35970
 C178 C 0.27441 -0.01258 0.36440
 C179 C 0.28396 0.00891 0.35445
 C180 C 0.30718 0.00876 0.33943
 C181 C 0.31963 -0.01340 0.33344
 C182 C 0.30904 -0.03520 0.34296
 C183 C 0.31938 -0.05689 0.33362
 C184 C 0.34073 -0.05728 0.31683
 C185 C 0.35336 -0.03601 0.30909
 C186 C 0.34212 -0.01379 0.31703
 C187 C 0.31770 0.03004 0.32946
 C188 C 0.34028 0.02976 0.31439
 C189 C 0.35260 0.00809 0.30778
 C190 C 0.37466 0.00779 0.29142
 C191 C 0.38537 -0.01395 0.28348
 C192 C 0.37529 -0.03607 0.29184
 H193 H 0.31025 -0.07387 0.33826
 H194 H 0.34654 -0.07454 0.30944
 H195 H 0.30850 0.04720 0.33298
 H196 H 0.34757 0.04674 0.30734
 H197 H 0.25761 -0.01165 0.37724
 H198 H 0.40252 -0.01346 0.27102
 C199 C 0.73039 0.01190 0.65461
 C200 C 0.73580 -0.00987 0.64269
 C201 C 0.72174 -0.03097 0.64828
 C202 C 0.70173 -0.03011 0.66737
 C203 C 0.69571 -0.00792 0.67942
 C204 C 0.71015 0.01311 0.67306
 C205 C 0.70465 0.03458 0.68592
 C206 C 0.68506 0.03561 0.70444
 C207 C 0.67027 0.01517 0.71090
 C208 C 0.67577 -0.00687 0.69851
 C209 C 0.68916 -0.05099 0.67629
 C210 C 0.66960 -0.04993 0.69491
 C211 C 0.66198 -0.02799 0.70575
 C212 C 0.64185 -0.02670 0.72455
 C213 C 0.63669 -0.00472 0.73639
 C214 C 0.65075 0.01600 0.73010
 H215 H 0.71573 0.05078 0.68209
 H216 H 0.68190 0.05259 0.71388
 H217 H 0.69484 -0.06856 0.66958
 H218 H 0.66105 -0.06667 0.70117
 H219 H 0.75054 -0.00992 0.62767
 H220 H 0.62137 -0.00365 0.75083
 C221 C 0.29303 0.99443 0.64590
 C222 C 0.28918 1.01566 0.63252
 C223 C 0.29902 1.03787 0.64100
 C224 C 0.31512 1.03820 0.66303
 C225 C 0.31835 1.01694 0.67740
 C226 C 0.30690 0.99509 0.66900
 C227 C 0.30926 0.97457 0.68411
 C228 C 0.32339 0.97520 0.70659
 C229 C 0.33600 0.99630 0.71469
 C230 C 0.33329 1.01747 0.70013
 C231 C 0.32968 1.05866 0.67009
 C232 C 0.34480 1.05903 0.69200
 C233 C 0.34595 1.03901 0.70795
 C234 C 0.36028 1.03950 0.73097
 C235 C 0.36215 1.01847 0.74522
 C236 C 0.35099 0.99686 0.73715
 H237 H 0.29990 0.95784 0.67888
 H238 H 0.32422 0.95895 0.71763
 H239 H 0.33015 1.07446 0.65832
 H240 H 0.35587 1.07517 0.69600
 H241 H 0.27702 1.01479 0.61573
 H242 H 0.37329 1.01871 0.76270
 C243 C 0.72673 0.98871 0.34398
 C244 C 0.72733 1.01049 0.35692
 C245 C 0.71385 1.03081 0.34817
 C246 C 0.69818 1.02863 0.32602
 C247 C 0.69769 1.00661 0.31247
 C248 C 0.71194 0.98656 0.32158
 C249 C 0.71111 0.96489 0.30805
 C250 C 0.69604 0.96272 0.28628
 C251 C 0.68146 0.98219 0.27709
 C252 C 0.68259 1.00451 0.28993
 C253 C 0.68119 1.04706 0.31829
 C254 C 0.66616 1.04488 0.29645
 C255 C 0.66792 1.02443 0.28085
 C256 C 0.65372 1.02243 0.25763
 C257 C 0.65302 0.99992 0.24556
 C258 C 0.66577 0.97988 0.25532
 H259 H 0.72200 0.94934 0.31427
 H260 H 0.69609 0.94562 0.27656
 H261 H 0.67864 1.06312 0.32954
 H262 H 0.65249 1.05921 0.29253
 H263 H 0.73985 1.01183 0.37347
 H264 H 0.64255 0.99769 0.22788
 O265 O 0.85947 0.82940 0.45672
 O266 O 0.83535 0.86725 0.50834
 O267 O 0.86823 0.83278 0.50484
 O268 O 0.82565 0.86428 0.46011
 O269 O 0.79331 0.83860 0.46756
 O270 O 0.83638 0.80652 0.51236
 O271 O 0.80285 0.84176 0.51617
 O272 O 0.82774 0.80310 0.46423
 Cu273 Cu 0.85027 0.85105 0.48154
 Cu274 Cu 0.81167 0.81993 0.49066
 C275 C 0.84827 0.80955 0.45197
 C276 C 0.81547 0.86085 0.52146
 C277 C 0.85959 0.81444 0.51640
 C278 C 0.80217 0.85704 0.45627
 O279 O 0.14401 0.16651 0.45921
 O280 O 0.18462 0.13274 0.50317
 O281 O 0.14427 0.16380 0.51008
 O282 O 0.18319 0.13918 0.45719
 O283 O 0.21160 0.16906 0.46134
 O284 O 0.17086 0.19500 0.51292
 O285 O 0.21040 0.16418 0.50976
 O286 O 0.17009 0.19803 0.46357
 Cu287 Cu 0.16054 0.14817 0.48310
 Cu288 Cu 0.19333 0.18484 0.48727
 C289 C 0.15022 0.18782 0.45342
 C290 C 0.20499 0.14214 0.51303
 C291 C 0.15054 0.18359 0.52037
 C292 C 0.20475 0.14941 0.45099
 O293 O 0.12516 0.84220 0.54549
 O294 O 0.15088 0.87153 0.48862
 O295 O 0.12301 0.83312 0.49806
 O296 O 0.15326 0.87986 0.53716
 O297 O 0.18939 0.85810 0.54084
 O298 O 0.16031 0.81247 0.49799
 O299 O 0.18832 0.85152 0.49155
 O300 O 0.16048 0.81896 0.54652
 Cu301 Cu 0.13457 0.85896 0.51693
 Cu302 Cu 0.17848 0.83325 0.51949
 C303 C 0.13791 0.82503 0.55520
 C304 C 0.17398 0.86687 0.48043
 C305 C 0.13625 0.81478 0.49159
 C306 C 0.17620 0.87685 0.54624
 O307 O 0.86157 0.15834 0.52851
 O308 O 0.81624 0.12854 0.48553
 O309 O 0.85747 0.15886 0.47800
 O310 O 0.82147 0.13269 0.53190
 O311 O 0.79417 0.16357 0.53186
 O312 O 0.83201 0.19080 0.47928
 O313 O 0.79123 0.16092 0.48321
 O314 O 0.83643 0.19063 0.52866
 Cu315 Cu 0.84237 0.14207 0.50477
 Cu316 Cu 0.81097 0.17983 0.50560
 C317 C 0.85651 0.17922 0.53664
 C318 C 0.79554 0.13902 0.47796
 C319 C 0.85144 0.17948 0.46979
 C320 C 0.80128 0.14347 0.54076
 O321 O 0.45745 0.86374 0.83271
 O322 O 0.50004 0.82968 0.87527
 O323 O 0.50763 0.86539 0.84432
 O324 O 0.45093 0.82830 0.86372
 O325 O 0.46094 0.80196 0.83396
 O326 O 0.51571 0.84089 0.81233
 O327 O 0.51105 0.80510 0.84412
 O328 O 0.46562 0.83795 0.80193
 Cu329 Cu 0.47818 0.84946 0.85697
 Cu330 Cu 0.48919 0.81895 0.81990
 C331 C 0.45411 0.85670 0.81010
 C332 C 0.51248 0.81143 0.86720
 C333 C 0.52109 0.85973 0.82483
 C334 C 0.44683 0.80836 0.85281
 O335 O 0.45554 0.12893 0.14978
 O336 O 0.50419 0.16226 0.11284
 O337 O 0.50700 0.12300 0.14331
 O338 O 0.45624 0.16620 0.12470
 O339 O 0.46633 0.18865 0.15776
 O340 O 0.51781 0.14538 0.17614
 O341 O 0.51622 0.18308 0.14648
 O342 O 0.46705 0.14886 0.18420
 Cu343 Cu 0.48097 0.14238 0.12957
 Cu344 Cu 0.49297 0.16869 0.16954
 C345 C 0.45280 0.13314 0.17322
 C346 C 0.51770 0.17891 0.12286
 C347 C 0.52043 0.12634 0.16325
 C348 C 0.45254 0.18482 0.13812
 O349 O 0.55760 0.15390 0.82762
 O350 O 0.50978 0.18036 0.87147
 O351 O 0.50924 0.14516 0.83797
 O352 O 0.55880 0.18815 0.86007
 O353 O 0.54591 0.21414 0.83132
 O354 O 0.49586 0.17045 0.80870
 O355 O 0.49634 0.20556 0.84219
 O356 O 0.54504 0.17878 0.79768
 Cu357 Cu 0.53484 0.16442 0.85237
 Cu358 Cu 0.51951 0.19489 0.81705
 C359 C 0.55917 0.16131 0.80502
 C360 C 0.49540 0.19778 0.86473
 C361 C 0.49496 0.14992 0.81898
 C362 C 0.56078 0.20852 0.84970
 O363 O 0.50335 0.81901 0.13201
 O364 O 0.55018 0.84905 0.17367
 O365 O 0.55244 0.81416 0.14198
 O366 O 0.49998 0.85448 0.16438
 O367 O 0.49037 0.82986 0.19566
 O368 O 0.54146 0.78800 0.17146
 O369 O 0.54072 0.82367 0.20434
 O370 O 0.49147 0.79428 0.16256
 Cu371 Cu 0.52730 0.83687 0.15008
 Cu372 Cu 0.51493 0.80646 0.18667
 C373 C 0.49000 0.80118 0.13972
 C374 C 0.55381 0.84148 0.19594
 C375 C 0.55550 0.79392 0.15240
 C376 C 0.48651 0.84940 0.18403
 O377 O 0.85017 0.49684 0.79862
 O378 O 0.81143 0.46326 0.84550
 O379 O 0.84125 0.45274 0.80662
 O380 O 0.82216 0.50860 0.83804
 O381 O 0.78550 0.51025 0.81560
 O382 O 0.80788 0.45657 0.78019
 O383 O 0.77681 0.46417 0.82034
 O384 O 0.81438 0.50187 0.77533
 Cu385 Cu 0.83454 0.48012 0.82493
 Cu386 Cu 0.79233 0.48332 0.79564
 C387 C 0.83902 0.50474 0.77889
 C388 C 0.78755 0.45770 0.84088
 C389 C 0.82899 0.44604 0.78696
 C390 C 0.80064 0.51891 0.83244
 O391 O 0.17718 0.46026 0.14932
 O392 O 0.13406 0.50499 0.17891
 O393 O 0.16928 0.50344 0.13936
 O394 O 0.14376 0.45888 0.18357
 O395 O 0.17266 0.47081 0.21228
 O396 O 0.19970 0.51500 0.16668
 O397 O 0.16583 0.51627 0.20486
 O398 O 0.20887 0.46993 0.17608
 Cu399 Cu 0.15236 0.48203 0.16045
 Cu400 Cu 0.18997 0.49411 0.19268
 C401 C 0.20040 0.45728 0.15776
 C402 C 0.14207 0.51756 0.19740
 C403 C 0.18948 0.51595 0.14480
 C404 C 0.15367 0.45727 0.20545
 O405 O 0.81257 0.53009 0.14729
 O406 O 0.84566 0.48977 0.19266
 O407 O 0.80616 0.48577 0.16072
 O408 O 0.85327 0.53328 0.17654
 O409 O 0.82690 0.54629 0.20705
 O410 O 0.77842 0.49916 0.18999
 O411 O 0.81871 0.50283 0.22273
 O412 O 0.78596 0.54276 0.17782
 Cu413 Cu 0.83209 0.50825 0.16641
 Cu414 Cu 0.79989 0.52370 0.20271
 C415 C 0.79345 0.54316 0.15488
 C416 C 0.83826 0.49019 0.21568
 C417 C 0.78376 0.48520 0.17159
 C418 C 0.84827 0.54797 0.19429
 O419 O 0.14308 0.52979 0.87731
 O420 O 0.12455 0.47334 0.84718
 O421 O 0.15922 0.48656 0.88105
 O422 O 0.11068 0.51829 0.84237
 O423 O 0.14137 0.52489 0.81330
 O424 O 0.18906 0.48987 0.85048
 O425 O 0.15328 0.47951 0.81625
 O426 O 0.17513 0.53486 0.84923
 Cu427 Cu 0.13124 0.50114 0.86477
 Cu428 Cu 0.16778 0.50777 0.82927
 C429 C 0.16249 0.54181 0.86885
 C430 C 0.13520 0.46687 0.82648
 C431 C 0.18242 0.48301 0.87248
 C432 C 0.11791 0.52768 0.82158
 C433 C 0.26945 0.37179 0.05985
 C434 C 0.25413 0.38243 0.07907
 C435 C 0.22634 0.37909 0.07926
 C436 C 0.21450 0.36443 0.06093
 C437 C 0.22983 0.35431 0.04165
 C438 C 0.25720 0.35833 0.04075
 C439 C 0.21066 0.39141 0.09691
 C440 C 0.22229 0.40759 0.11387
 C441 C 0.25011 0.41029 0.11442
 C442 C 0.26592 0.39742 0.09721
 C443 C 0.26148 0.42664 0.13145
 C444 C 0.24537 0.44117 0.14669
 C445 C 0.21767 0.43951 0.14514
 C446 C 0.20634 0.42205 0.12933
 H447 H 0.29060 0.37505 0.05887
 H448 H 0.19326 0.36166 0.06087
 H449 H 0.22024 0.34409 0.02685
 H450 H 0.18930 0.38930 0.09662
 H451 H 0.28723 0.39991 0.09717
 H452 H 0.28278 0.42884 0.13227
 H453 H 0.25454 0.45445 0.15879
 H454 H 0.18498 0.42042 0.12822
 C455 C 0.73339 0.62083 0.04467
 C456 C 0.74813 0.60858 0.06293
 C457 C 0.77553 0.60468 0.05897
 C458 C 0.78787 0.61390 0.03727
 C459 C 0.77309 0.62619 0.01927
 C460 C 0.74573 0.62951 0.02265
 C461 C 0.78999 0.59121 0.07646
 C462 C 0.77746 0.58171 0.09797
 C463 C 0.75028 0.58636 0.10235
 C464 C 0.73578 0.59965 0.08477
 C465 C 0.73793 0.57742 0.12416
 C466 C 0.75225 0.56377 0.14135
 C467 C 0.77906 0.55845 0.13688
 C468 C 0.79161 0.56751 0.11512
 H469 H 0.71219 0.62294 0.04711
 H470 H 0.80885 0.61118 0.03395
 H471 H 0.78285 0.63258 0.00228
 H472 H 0.81089 0.58789 0.07318
 H473 H 0.71484 0.60283 0.08795
 H474 H 0.71716 0.58089 0.12787
 H475 H 0.74215 0.55689 0.15794
 H476 H 0.81235 0.56364 0.11166
 C477 C 0.72605 0.38865 0.95788
 C478 C 0.74052 0.40019 0.93863
 C479 C 0.76812 0.40364 0.94142
 C480 C 0.78079 0.39540 0.96320
 C481 C 0.76633 0.38379 0.98208
 C482 C 0.73896 0.38021 0.97956
 C483 C 0.78266 0.41531 0.92246
 C484 C 0.77006 0.42355 0.90063
 C485 C 0.74255 0.41993 0.89761
 C486 C 0.72791 0.40832 0.91667
 C487 C 0.73017 0.42814 0.87561
 C488 C 0.74483 0.44006 0.85694
 C489 C 0.77213 0.44403 0.85995
 C490 C 0.78461 0.43552 0.88184
 H491 H 0.70486 0.38611 0.95604
 H492 H 0.80191 0.39791 0.96562
 H493 H 0.77652 0.37747 0.99873
 H494 H 0.80379 0.41805 0.92474
 H495 H 0.70678 0.40564 0.91442
 H496 H 0.70912 0.42549 0.87291
 H497 H 0.73470 0.44647 0.84030
 H498 H 0.80566 0.43836 0.88442
 C499 C 0.23183 0.63513 0.95743
 C500 C 0.22265 0.62151 0.93694
 C501 C 0.24087 0.61227 0.91897
 C502 C 0.26785 0.61781 0.92121
 C503 C 0.27687 0.63110 0.94190
 C504 C 0.25901 0.63934 0.96042
 C505 C 0.23200 0.59668 0.89990
 C506 C 0.20530 0.58969 0.89906
 C507 C 0.18701 0.59973 0.91649
 C508 C 0.19572 0.61585 0.93503
 C509 C 0.16046 0.59257 0.91596
 C510 C 0.15238 0.57452 0.89946
 C511 C 0.17057 0.56352 0.88289
 C512 C 0.19685 0.57184 0.88207
 H513 H 0.21806 0.64139 0.97181
 H514 H 0.28210 0.61097 0.90760
 H515 H 0.29794 0.63402 0.94410
 H516 H 0.24608 0.58909 0.88653
 H517 H 0.18175 0.62303 0.94875
 H518 H 0.14616 0.60021 0.92904
 H519 H 0.13194 0.56861 0.90022
 H520 H 0.21103 0.56339 0.86943
 C521 C 0.04787 0.26777 0.38069
 C522 C 0.06914 0.25761 0.39376
 C523 C 0.08265 0.27122 0.41227
 C524 C 0.07479 0.29489 0.41712
 C525 C 0.05327 0.30472 0.40432
 C526 C 0.03965 0.29125 0.38605
 C527 C 0.10313 0.26069 0.42621
 C528 C 0.10973 0.23652 0.42238
 C529 C 0.09629 0.22304 0.40369
 C530 C 0.07641 0.23376 0.38926
 C531 C 0.10226 0.19875 0.40036
 C532 C 0.12050 0.18760 0.41610
 C533 C 0.13360 0.20063 0.43506
 C534 C 0.12871 0.22529 0.43766
 H535 H 0.03712 0.25723 0.36685
 H536 H 0.08480 0.30556 0.43131
 H537 H 0.04683 0.32268 0.40905
 H538 H 0.11327 0.27104 0.44060
 H539 H 0.06596 0.22330 0.37515
 H540 H 0.09219 0.18817 0.38612
 H541 H 0.12409 0.16860 0.41372
 H542 H 0.13852 0.23537 0.45246
 C543 C 0.04807 0.73454 0.62739
 C544 C 0.06964 0.74704 0.61705
 C545 C 0.08815 0.73484 0.60152
 C546 C 0.08531 0.71011 0.59750
 C547 C 0.06338 0.69792 0.60740
 C548 C 0.04436 0.71016 0.62194
 C549 C 0.10818 0.74778 0.58906
 C550 C 0.10918 0.77285 0.59110
 C551 C 0.09113 0.78488 0.60730
 C552 C 0.07189 0.77183 0.62062
 C553 C 0.09146 0.80994 0.60864
 C554 C 0.10805 0.82306 0.59267
 C555 C 0.12519 0.81134 0.57570
 C556 C 0.12658 0.78622 0.57581
 H557 H 0.03322 0.74403 0.63841
 H558 H 0.09929 0.70046 0.58567
 H559 H 0.06058 0.67918 0.60276
 H560 H 0.12194 0.73853 0.57661
 H561 H 0.05765 0.78116 0.63251
 H562 H 0.07783 0.81942 0.62100
 H563 H 0.10676 0.84242 0.59283
 H564 H 0.13949 0.77711 0.56244
 C565 C 0.94893 0.74164 0.36473
 C566 C 0.92950 0.75669 0.37519
 C567 C 0.93164 0.78177 0.37197
 C568 C 0.95240 0.79126 0.35738
 C569 C 0.97175 0.77616 0.34724
 C570 C 0.97043 0.75136 0.35123
 C571 C 0.91382 0.79704 0.38440
 C572 C 0.89429 0.78760 0.40049
 C573 C 0.89129 0.76252 0.40279
 C574 C 0.90878 0.74719 0.38990
 C575 C 0.87163 0.75327 0.41891
 C576 C 0.85628 0.76869 0.43387
 C577 C 0.86038 0.79356 0.43287
 C578 C 0.87871 0.80290 0.41539
 H579 H 0.94815 0.72252 0.36817
 H580 H 0.95425 0.81041 0.35465
 H581 H 0.98832 0.78387 0.33700
 H582 H 0.91596 0.81629 0.38253
 H583 H 0.90701 0.72796 0.39222
 H584 H 0.86889 0.73410 0.42075
 H585 H 0.84224 0.76109 0.44718
 H586 H 0.88179 0.82210 0.41429
 C587 C 0.95598 0.25443 0.61913
 C588 C 0.93484 0.24461 0.60556
 C589 C 0.91694 0.25986 0.59296
 C590 C 0.92025 0.28477 0.59468
 C591 C 0.94167 0.29440 0.60793
 C592 C 0.95977 0.27928 0.62001
 C593 C 0.89664 0.24995 0.57820
 C594 C 0.89446 0.22500 0.57542
 C595 C 0.91220 0.20986 0.58840
 C596 C 0.93202 0.21974 0.60361
 C597 C 0.91040 0.18502 0.58536
 C598 C 0.89185 0.17521 0.56891
 C599 C 0.87448 0.19002 0.55543
 C600 C 0.87545 0.21493 0.55922
 H601 H 0.97008 0.24277 0.62831
 H602 H 0.90678 0.29675 0.58515
 H603 H 0.94459 0.31362 0.60821
 H604 H 0.88312 0.26161 0.56825
 H605 H 0.94579 0.20808 0.61327
 H606 H 0.92377 0.17318 0.59523
 H607 H 0.89131 0.15595 0.56653
 H608 H 0.86219 0.22649 0.54885
 C609 C 0.37965 0.03858 0.25789
 C610 C 0.39278 0.05839 0.24747
 C611 C 0.41337 0.06971 0.26110
 C612 C 0.41992 0.06138 0.28527
 C613 C 0.40681 0.04152 0.29544
 C614 C 0.38693 0.02991 0.28165
 C615 C 0.42762 0.08860 0.25001
 C616 C 0.42196 0.09588 0.22525
 C617 C 0.40091 0.08489 0.21195
 C618 C 0.38624 0.06647 0.22327
 C619 C 0.39558 0.09178 0.18708
 C620 C 0.41185 0.10839 0.17494
 C621 C 0.43341 0.11878 0.18760
 C622 C 0.43782 0.11310 0.21309
 H623 H 0.36426 0.02947 0.24733
 H624 H 0.43556 0.06985 0.29603
 H625 H 0.41250 0.03488 0.31384
 H626 H 0.44372 0.09699 0.26026
 H627 H 0.37042 0.05781 0.21287
 H628 H 0.37947 0.08363 0.17667
 H629 H 0.40801 0.11265 0.15533
 H630 H 0.45457 0.12090 0.22289
 C631 C 0.63192 0.05734 0.73404
 C632 C 0.62444 0.07705 0.74902
 C633 C 0.63050 0.07718 0.77514
 C634 C 0.64447 0.05804 0.78566
 C635 C 0.65154 0.03845 0.77070
 C636 C 0.64510 0.03787 0.74496
 C637 C 0.62155 0.09591 0.79058
 C638 C 0.60587 0.11413 0.78049
 C639 C 0.60044 0.11455 0.75431
 C640 C 0.61012 0.09614 0.73862
 C641 C 0.58434 0.13275 0.74456
 C642 C 0.57220 0.14929 0.76087
 C643 C 0.57628 0.14800 0.78710
 C644 C 0.59416 0.13106 0.79656
 H645 H 0.62682 0.05672 0.71416
 H646 H 0.64928 0.05791 0.80561
 H647 H 0.66169 0.02349 0.77927
 H648 H 0.62570 0.09567 0.81068
 H649 H 0.60552 0.09612 0.71861
 H650 H 0.58010 0.13347 0.72452
 H651 H 0.55850 0.16218 0.75313
 H652 H 0.59766 0.13002 0.81674
 C653 C 0.37229 0.95661 0.74116
 C654 C 0.38224 0.93808 0.75624
 C655 C 0.37700 0.93815 0.78257
 C656 C 0.36100 0.95612 0.79314
 C657 C 0.35133 0.97453 0.77802
 C658 C 0.35725 0.97516 0.75206
 C659 C 0.38868 0.92087 0.79805
 C660 C 0.40583 0.90369 0.78762
 C661 C 0.41022 0.90296 0.76120
 C662 C 0.39827 0.92010 0.74564
 C663 C 0.42719 0.88555 0.75091
 C664 C 0.44061 0.86972 0.76674
 C665 C 0.43738 0.87113 0.79312
 C666 C 0.41942 0.88780 0.80336
 H667 H 0.37727 0.95728 0.72119
 H668 H 0.35671 0.95638 0.81325
 H669 H 0.33992 0.98879 0.78671
 H670 H 0.38516 0.92129 0.81831
 H671 H 0.40214 0.91990 0.72543
 H672 H 0.43065 0.88460 0.73068
 H673 H 0.45433 0.85701 0.75842
 H674 H 0.41656 0.88887 0.82368
 C675 C 0.64489 0.93940 0.25598
 C676 C 0.63431 0.91969 0.24293
 C677 C 0.63964 0.91695 0.21677
 C678 C 0.65643 0.93324 0.20443
 C679 C 0.66640 0.95304 0.21745
 C680 C 0.66018 0.95654 0.24309
 C681 C 0.62691 0.89885 0.20304
 C682 C 0.60830 0.88395 0.21495
 C683 C 0.60383 0.88589 0.24129
 C684 C 0.61718 0.90359 0.25521
 C685 C 0.58510 0.87087 0.25298
 C686 C 0.56972 0.85520 0.23844
 C687 C 0.57291 0.85436 0.21205
 C688 C 0.59296 0.86810 0.20060
 H689 H 0.63978 0.94233 0.27570
 H690 H 0.66079 0.93132 0.18443
 H691 H 0.67806 0.96623 0.20730
 H692 H 0.63039 0.89720 0.18284
 H693 H 0.61320 0.90560 0.27529
 H694 H 0.58157 0.87196 0.27319
 H695 H 0.55442 0.84469 0.24764
 H696 H 0.59579 0.86730 0.18026
 C697 C 0.39448 0.26505 0.95434
 C698 C 0.40983 0.25505 0.93496
 C699 C 0.40034 0.25479 0.90992
 C700 C 0.37531 0.26453 0.90489
 C701 C 0.35956 0.27368 0.92462
 C702 C 0.36888 0.27400 0.94972
 C703 C 0.41572 0.24420 0.89062
 C704 C 0.43997 0.23316 0.89639
 C705 C 0.44896 0.23316 0.92170
 C706 C 0.43415 0.24450 0.94063
 C707 C 0.47247 0.22143 0.92787
 C708 C 0.48701 0.20961 0.90924
 C709 C 0.47869 0.20972 0.88394
 C710 C 0.45522 0.22174 0.87751
 H711 H 0.40244 0.26552 0.97335
 H712 H 0.36748 0.26423 0.88586
 H713 H 0.33959 0.27931 0.92035
 H714 H 0.40855 0.24402 0.87133
 H715 H 0.44120 0.24449 0.95998
 H716 H 0.47952 0.22122 0.94719
 H717 H 0.50518 0.20073 0.91457
 H718 H 0.44866 0.22180 0.85803
 C719 C 0.60716 0.73369 0.95194
 C720 C 0.59308 0.74608 0.93342
 C721 C 0.60407 0.74898 0.90901
 C722 C 0.62931 0.73969 0.90378
 C723 C 0.64368 0.72806 0.92269
 C724 C 0.63278 0.72466 0.94706
 C725 C 0.58992 0.76165 0.89054
 C726 C 0.56535 0.77211 0.89657
 C727 C 0.55482 0.76955 0.92130
 C728 C 0.56847 0.75619 0.93934
 C729 C 0.53097 0.78075 0.92782
 C730 C 0.51765 0.79457 0.91013
 C731 C 0.52755 0.79699 0.88540
 C732 C 0.55131 0.78549 0.87855
 H733 H 0.59804 0.73112 0.97036
 H734 H 0.63831 0.74211 0.88531
 H735 H 0.66383 0.72273 0.91846
 H736 H 0.59826 0.76381 0.87173
 H737 H 0.56023 0.75419 0.95822
 H738 H 0.52273 0.77903 0.94671
 H739 H 0.49926 0.80311 0.91569
 H740 H 0.55911 0.78746 0.85952
 C741 C 0.39014 0.73384 0.05019
 C742 C 0.40521 0.74357 0.06978
 C743 C 0.39434 0.74556 0.09435
 C744 C 0.36834 0.73753 0.09876
 C745 C 0.35306 0.72844 0.07882
 C746 C 0.36371 0.72660 0.05416
 C747 C 0.40937 0.75618 0.11375
 C748 C 0.43475 0.76549 0.10849
 C749 C 0.44527 0.76349 0.08367
 C750 C 0.43069 0.75217 0.06471
 C751 C 0.47000 0.77340 0.07791
 C752 C 0.48412 0.78567 0.09635
 C753 C 0.47413 0.78782 0.12110
 C754 C 0.44959 0.77731 0.12730
 H755 H 0.39901 0.73220 0.03152
 H756 H 0.35950 0.73909 0.11741
 H757 H 0.33250 0.72404 0.08250
 H758 H 0.40107 0.75782 0.13264
 H759 H 0.43886 0.75077 0.04572
 H760 H 0.47826 0.77201 0.05899
 H761 H 0.50313 0.79336 0.09130
 H762 H 0.44178 0.77902 0.14636
 C763 C 0.61776 0.26067 0.04715
 C764 C 0.60296 0.24679 0.06409
 C765 C 0.61427 0.23945 0.08717
 C766 C 0.64057 0.24582 0.09255
 C767 C 0.65561 0.25886 0.07497
 C768 C 0.64423 0.26656 0.05223
 C769 C 0.59932 0.22537 0.10406
 C770 C 0.57367 0.21776 0.09757
 C771 C 0.56288 0.22461 0.07403
 C772 C 0.57733 0.23947 0.05776
 C773 C 0.53792 0.21616 0.06685
 C774 C 0.52372 0.20093 0.08273
 C775 C 0.53385 0.19439 0.10636
 C776 C 0.55876 0.20303 0.11389
 H777 H 0.60897 0.26630 0.02948
 H778 H 0.64973 0.24013 0.11000
 H779 H 0.67621 0.26264 0.07893
 H780 H 0.60786 0.21985 0.12188
 H781 H 0.56889 0.24482 0.03983
 H782 H 0.52949 0.22113 0.04882
 H783 H 0.50445 0.19460 0.07673
 H784 H 0.56670 0.19785 0.13207
 C785 C 0.28801 0.05849 0.60150
 C786 C 0.27547 0.07724 0.58881
 C787 C 0.26626 0.09737 0.60246
 C788 C 0.27027 0.09850 0.62866
 C789 C 0.28208 0.07935 0.64134
 C790 C 0.29081 0.05883 0.62803
 C791 C 0.25229 0.11550 0.58985
 C792 C 0.24661 0.11318 0.56395
 C793 C 0.25609 0.09295 0.55042
 C794 C 0.27091 0.07546 0.56279
 C795 C 0.24973 0.08999 0.52488
 C796 C 0.23332 0.10639 0.51299
 C797 C 0.22357 0.12639 0.52616
 C798 C 0.23075 0.13015 0.55150
 H799 H 0.29516 0.04329 0.59064
 H800 H 0.26318 0.11370 0.63952
 H801 H 0.28279 0.08006 0.66179
 H802 H 0.24496 0.13085 0.60036
 H803 H 0.27788 0.05990 0.55238
 H804 H 0.25681 0.07460 0.51430
 H805 H 0.22805 0.10343 0.49338
 H806 H 0.22304 0.14553 0.56169
 C807 C 0.71893 0.05308 0.38769
 C808 C 0.72869 0.07298 0.40080
 C809 C 0.73766 0.09327 0.38734
 C810 C 0.73523 0.09370 0.36092
 C811 C 0.72571 0.07359 0.34789
 C812 C 0.71824 0.05271 0.36108
 C813 C 0.75012 0.11213 0.40038
 C814 C 0.75431 0.11051 0.42658
 C815 C 0.74420 0.09053 0.44002
 C816 C 0.73106 0.07218 0.42712
 C817 C 0.74871 0.08847 0.46600
 C818 C 0.76453 0.10518 0.47833
 C819 C 0.77555 0.12450 0.46507
 C820 C 0.76972 0.12769 0.43938
 H821 H 0.71269 0.03739 0.39823
 H822 H 0.74192 0.10911 0.35023
 H823 H 0.72611 0.07382 0.32741
 H824 H 0.75771 0.12742 0.39000
 H825 H 0.72401 0.05661 0.43741
 H826 H 0.74101 0.07334 0.47654
 H827 H 0.76893 0.10263 0.49818
 H828 H 0.77852 0.14253 0.42915
 C829 C 0.75457 0.94328 0.62783
 C830 C 0.76124 0.92563 0.61012
 C831 C 0.74116 0.91198 0.59844
 C832 C 0.71462 0.91609 0.60516
 C833 C 0.70804 0.93427 0.62241
 C834 C 0.72794 0.94835 0.63377
 C835 C 0.74793 0.89515 0.57964
 C836 C 0.77447 0.89248 0.57192
 C837 C 0.79442 0.90623 0.58386
 C838 C 0.78774 0.92232 0.60316
 C839 C 0.82076 0.90428 0.57581
 C840 C 0.82731 0.88937 0.55560
 C841 C 0.80777 0.87573 0.54337
 C842 C 0.78138 0.87694 0.55194
 H843 H 0.77028 0.95354 0.63668
 H844 H 0.69889 0.90594 0.59628
 H845 H 0.68730 0.93818 0.62565
 H846 H 0.73254 0.88478 0.57046
 H847 H 0.80309 0.93296 0.61208
 H848 H 0.83623 0.91469 0.58479
 H849 H 0.84781 0.88846 0.54952
 H850 H 0.76622 0.86652 0.54250
 C851 C 0.24979 0.94196 0.37694
 C852 C 0.24004 0.92492 0.39398
 C853 C 0.25781 0.91007 0.40716
 C854 C 0.28506 0.91203 0.40228
 C855 C 0.29470 0.92942 0.38555
 C856 C 0.27724 0.94505 0.37306
 C857 C 0.24809 0.89426 0.42568
 C858 C 0.22090 0.89361 0.43150
 C859 C 0.20317 0.90809 0.41773
 C860 C 0.21281 0.92336 0.39885
 C861 C 0.17613 0.90774 0.42364
 C862 C 0.16674 0.89389 0.44365
 C863 C 0.18414 0.87988 0.45802
 C864 C 0.21120 0.87939 0.45144
 H865 H 0.23589 0.95332 0.36707
 H866 H 0.29901 0.90083 0.41223
 H867 H 0.31593 0.93164 0.38377
 H868 H 0.26175 0.88315 0.43614
 H869 H 0.19919 0.93475 0.38864
 H870 H 0.16230 0.91865 0.41318
 H871 H 0.14579 0.89443 0.44812
 H872 H 0.22482 0.86867 0.46237
 C873 C 0.06207 0.37103 0.74391
 C874 C 0.08027 0.38712 0.75446
 C875 C 0.09305 0.40420 0.73889
 C876 C 0.08816 0.40412 0.71277
 C877 C 0.06943 0.38838 0.70251
 C878 C 0.05580 0.37218 0.71813
 C879 C 0.10924 0.42185 0.74988
 C880 C 0.11193 0.42313 0.77630
 C881 C 0.09968 0.40554 0.79167
 C882 C 0.08443 0.38739 0.78061
 C883 C 0.10166 0.40709 0.81802
 C884 C 0.11423 0.42664 0.82918
 C885 C 0.12562 0.44473 0.81423
 C886 C 0.12530 0.44244 0.78773
 H887 H 0.05140 0.35864 0.75601
 H888 H 0.09779 0.41702 0.70050
 H889 H 0.06458 0.38967 0.68263
 H890 H 0.11855 0.43530 0.73803
 H891 H 0.07458 0.37427 0.79251
 H892 H 0.09250 0.39370 0.83004
 H893 H 0.11448 0.42795 0.84963
 H894 H 0.13388 0.45642 0.77608
 C895 C 0.05176 0.60741 0.27403
 C896 C 0.07138 0.59436 0.26131
 C897 C 0.09534 0.60560 0.25424
 C898 C 0.09897 0.62997 0.25976
 C899 C 0.07865 0.64323 0.27127
 C900 C 0.05459 0.63222 0.27856
 C901 C 0.11482 0.59246 0.24109
 C902 C 0.10994 0.56857 0.23392
 C903 C 0.08547 0.55773 0.24043
 C904 C 0.06672 0.57046 0.25464
 C905 C 0.07983 0.53443 0.23223
 C906 C 0.09818 0.52190 0.21761
 C907 C 0.12278 0.53214 0.21153
 C908 C 0.12879 0.55542 0.21993
 H909 H 0.03395 0.59813 0.28007
 H910 H 0.11704 0.63904 0.25413
 H911 H 0.08134 0.66240 0.27312
 H912 H 0.13334 0.60099 0.23579
 H913 H 0.04808 0.56200 0.25972
 H914 H 0.06111 0.52597 0.23694
 H915 H 0.09343 0.50384 0.21155
 H916 H 0.14777 0.56336 0.21515
 C917 C 0.93395 0.41372 0.30032
 C918 C 0.91440 0.42314 0.28452
 C919 C 0.90303 0.40859 0.26553
 C920 C 0.91017 0.38435 0.26391
 C921 C 0.92915 0.37489 0.28027
 C922 C 0.94174 0.38960 0.29827
 C923 C 0.88523 0.41867 0.24822
 C924 C 0.87816 0.44296 0.25015
 C925 C 0.88822 0.45694 0.27033
 C926 C 0.90649 0.44705 0.28713
 C927 C 0.88019 0.48078 0.27318
 C928 C 0.86294 0.49098 0.25582
 C929 C 0.85396 0.47776 0.23495
 C930 C 0.86147 0.45366 0.23218
 H931 H 0.94331 0.42523 0.31424
 H932 H 0.90156 0.37285 0.24960
 H933 H 0.93520 0.35643 0.27772
 H934 H 0.87711 0.40771 0.23316
 H935 H 0.91480 0.45805 0.30208
 H936 H 0.88748 0.49164 0.28868
 H937 H 0.85742 0.50961 0.25812
 H938 H 0.85437 0.44338 0.21616
 C939 C 0.93277 0.58118 0.69228
 C940 C 0.91164 0.57081 0.70553
 C941 C 0.89221 0.58553 0.71694
 C942 C 0.89401 0.61046 0.71420
 C943 C 0.91571 0.62074 0.70165
 C944 C 0.93571 0.60625 0.69091
 C945 C 0.87218 0.57515 0.73191
 C946 C 0.87212 0.55035 0.73640
 C947 C 0.89150 0.53571 0.72461
 C948 C 0.91069 0.54597 0.70880
 C949 C 0.89220 0.51113 0.72970
 C950 C 0.87459 0.50123 0.74714
 C951 C 0.85558 0.51558 0.75920
 C952 C 0.85385 0.54002 0.75338
 H953 H 0.94770 0.56965 0.68385
 H954 H 0.87941 0.62208 0.72296
 H955 H 0.91771 0.64005 0.70199
 H956 H 0.85747 0.58644 0.74101
 H957 H 0.92573 0.53473 0.70012
 H958 H 0.90693 0.49971 0.72084
 H959 H 0.87596 0.48232 0.75149
 H960 H 0.83923 0.55107 0.76294
 C961 C 0.74419 0.61819 0.92320
 C962 C 0.74935 0.60151 0.90397
 C963 C 0.72875 0.58655 0.89508
 C964 C 0.70317 0.58898 0.90534
 C965 C 0.69841 0.60519 0.92509
 C966 C 0.71896 0.61970 0.93431
 C967 C 0.73437 0.56870 0.87704
 C968 C 0.76051 0.56505 0.86862
 C969 C 0.78096 0.58025 0.87743
 C970 C 0.77514 0.59869 0.89458
 C971 C 0.80718 0.57612 0.86985
 C972 C 0.81333 0.55644 0.85466
 C973 C 0.79332 0.54095 0.84616
 C974 C 0.76680 0.54573 0.85255
 H975 H 0.76015 0.62917 0.93056
 H976 H 0.68715 0.57764 0.89884
 H977 H 0.67896 0.60584 0.93381
 H978 H 0.71868 0.55698 0.87047
 H979 H 0.79093 0.61009 0.90156
 H980 H 0.82305 0.58761 0.87642
 H981 H 0.83387 0.55310 0.84979
 H982 H 0.75133 0.53365 0.84624
 C983 C 0.27101 0.39981 0.95558
 C984 C 0.25880 0.41290 0.93642
 C985 C 0.25325 0.40185 0.91299
 C986 C 0.26062 0.37792 0.90905
 C987 C 0.27178 0.36464 0.92869
 C988 C 0.27662 0.37522 0.95250
 C989 C 0.23925 0.41451 0.89446
 C990 C 0.22968 0.43763 0.89967
 C991 C 0.23544 0.44862 0.92319
 C992 C 0.25059 0.43645 0.94107
 C993 C 0.22491 0.47118 0.92899
 C994 C 0.20790 0.48238 0.91212
 C995 C 0.20191 0.47161 0.88888
 C996 C 0.21333 0.44953 0.88235
 H997 H 0.27526 0.40866 0.97340
 H998 H 0.25638 0.36907 0.89125
 H999 H 0.27479 0.34565 0.92566
 H1000 H 0.23468 0.40595 0.87656
 H1001 H 0.25470 0.44483 0.95918
 H1002 H 0.22909 0.47979 0.94694
 H1003 H 0.19920 0.49946 0.91727
 H1004 H 0.20838 0.44114 0.86445
 C1005 C 0.26051 0.60386 0.04934
 C1006 C 0.24901 0.59121 0.06944
 C1007 C 0.24516 0.60255 0.09306
 C1008 C 0.25240 0.62666 0.09589
 C1009 C 0.26271 0.63954 0.07535
 C1010 C 0.26709 0.62837 0.05167
 C1011 C 0.23354 0.58975 0.11318
 C1012 C 0.22472 0.56609 0.10950
 C1013 C 0.22786 0.55517 0.08546
 C1014 C 0.24053 0.56756 0.06585
 C1015 C 0.21790 0.53211 0.08121
 C1016 C 0.20486 0.51988 0.10054
 C1017 C 0.20220 0.53016 0.12468
 C1018 C 0.21238 0.55323 0.12922
 H1019 H 0.26429 0.59439 0.03176
 H1020 H 0.24917 0.63584 0.11374
 H1021 H 0.26603 0.65856 0.07782
 H1022 H 0.23079 0.59837 0.13142
 H1023 H 0.24309 0.55901 0.04753
 H1024 H 0.21999 0.52359 0.06286
 H1025 H 0.19734 0.50204 0.09679
 H1026 H 0.21019 0.56126 0.14782
 C1027 C 0.71568 0.40040 0.07542
 C1028 C 0.72566 0.41085 0.09760
 C1029 C 0.74260 0.39750 0.11335
 C1030 C 0.74691 0.37318 0.10813
 C1031 C 0.73580 0.36255 0.08669
 C1032 C 0.72097 0.37627 0.06958
 C1033 C 0.75570 0.40891 0.13343
 C1034 C 0.75146 0.43334 0.13830
 C1035 C 0.73223 0.44592 0.12426
 C1036 C 0.71969 0.43468 0.10380
 C1037 C 0.72692 0.46994 0.13006
 C1038 C 0.74207 0.48200 0.14809
 C1039 C 0.76300 0.47033 0.16020
 C1040 C 0.76710 0.44578 0.15593
 H1041 H 0.70396 0.41104 0.06255
 H1042 H 0.75950 0.36255 0.12021
 H1043 H 0.74045 0.34401 0.08249
 H1044 H 0.76981 0.39901 0.14468
 H1045 H 0.70601 0.44471 0.09220
 H1046 H 0.71197 0.47974 0.11978
 H1047 H 0.73895 0.50102 0.15093
 H1048 H 0.78339 0.43682 0.16518
 C1049 C 0.94808 0.73383 0.60388
 C1050 C 0.92947 0.74474 0.58819
 C1051 C 0.91171 0.73050 0.57410
 C1052 C 0.91315 0.70549 0.57581
 C1053 C 0.93233 0.69470 0.59096
 C1054 C 0.94994 0.70868 0.60547
 C1055 C 0.89335 0.74151 0.55804
 C1056 C 0.89317 0.76654 0.55538
 C1057 C 0.91129 0.78066 0.56931
 C1058 C 0.92896 0.76972 0.58592
 C1059 C 0.91188 0.80553 0.56601
 C1060 C 0.89500 0.81635 0.54874
 C1061 C 0.87680 0.80259 0.53491
 C1062 C 0.87567 0.77769 0.53856
 H1063 H 0.96127 0.74505 0.61491
 H1064 H 0.90001 0.69425 0.56481
 H1065 H 0.93406 0.67537 0.59042
 H1066 H 0.87970 0.73060 0.54719
 H1067 H 0.94281 0.78061 0.59659
 H1068 H 0.92569 0.81657 0.57648
 H1069 H 0.89603 0.83558 0.54630
 H1070 H 0.86181 0.76698 0.52773
 C1071 C 0.94297 0.26020 0.38390
 C1072 C 0.92258 0.24875 0.39738
 C1073 C 0.90227 0.26250 0.40873
 C1074 C 0.90234 0.28744 0.40575
 C1075 C 0.92295 0.29876 0.39261
 C1076 C 0.94379 0.28538 0.38170
 C1077 C 0.88284 0.25121 0.42366
 C1078 C 0.88386 0.22639 0.42781
 C1079 C 0.90386 0.21261 0.41591
 C1080 C 0.92287 0.22382 0.40053
 C1081 C 0.90511 0.18791 0.42029
 C1082 C 0.88746 0.17707 0.43716
 C1083 C 0.86798 0.19064 0.44977
 C1084 C 0.86587 0.21525 0.44446
 H1085 H 0.95854 0.24944 0.37541
 H1086 H 0.88702 0.29830 0.41447
 H1087 H 0.92335 0.31815 0.39242
 H1088 H 0.86752 0.26183 0.43275
 H1089 H 0.93845 0.21326 0.39177
 H1090 H 0.92023 0.17708 0.41122
 H1091 H 0.88945 0.15808 0.44076
 H1092 H 0.85100 0.22595 0.45409
 C1093 C 0.05773 0.25644 0.61299
 C1094 C 0.07795 0.24674 0.59795
 C1095 C 0.09709 0.26198 0.58689
 C1096 C 0.09587 0.28672 0.59166
 C1097 C 0.07532 0.29634 0.60645
 C1098 C 0.05579 0.28134 0.61715
 C1099 C 0.11648 0.25229 0.57062
 C1100 C 0.11650 0.22764 0.56494
 C1101 C 0.09748 0.21248 0.57643
 C1102 C 0.07860 0.22208 0.59308
 C1103 C 0.09709 0.18802 0.57053
 C1104 C 0.11476 0.17868 0.55272
 C1105 C 0.13347 0.19351 0.54072
 C1106 C 0.13461 0.21797 0.54733
 H1107 H 0.04304 0.24453 0.62121
 H1108 H 0.11024 0.29873 0.58318
 H1109 H 0.07389 0.31562 0.60825
 H1110 H 0.13100 0.26398 0.56182
 H1111 H 0.06384 0.21043 0.60161
 H1112 H 0.08267 0.17619 0.57924
 H1113 H 0.11357 0.15979 0.54812
 H1114 H 0.14886 0.22961 0.53810
 C1115 C 0.05997 0.73383 0.39510
 C1116 C 0.07893 0.74546 0.40997
 C1117 C 0.10188 0.75522 0.39849
 C1118 C 0.10578 0.75232 0.37231
 C1119 C 0.08625 0.74137 0.35747
 C1120 C 0.06295 0.73261 0.36874
 C1121 C 0.11964 0.76881 0.41311
 C1122 C 0.11405 0.77357 0.43875
 C1123 C 0.09124 0.76334 0.45014
 C1124 C 0.07424 0.74892 0.43585
 C1125 C 0.08496 0.76870 0.47537
 C1126 C 0.10032 0.78500 0.48888
 C1127 C 0.12263 0.79563 0.47770
 C1128 C 0.12999 0.78940 0.45287
 H1129 H 0.04184 0.72727 0.40377
 H1130 H 0.12323 0.75964 0.36313
 H1131 H 0.08868 0.74083 0.33711
 H1132 H 0.13700 0.77670 0.40426
 H1133 H 0.05653 0.74150 0.44455
 H1134 H 0.06757 0.76103 0.48433
 H1135 H 0.09452 0.78968 0.50804
 H1136 H 0.14708 0.79788 0.44418
 C1137 C 0.62255 0.94711 0.75834
 C1138 C 0.60489 0.92924 0.76640
 C1139 C 0.59050 0.91588 0.74832
 C1140 C 0.59389 0.92082 0.72250
 C1141 C 0.61091 0.93919 0.71469
 C1142 C 0.62551 0.95239 0.73250
 C1143 C 0.57241 0.89832 0.75639
 C1144 C 0.56782 0.89460 0.78230
 C1145 C 0.58196 0.90826 0.80034
 C1146 C 0.60075 0.92515 0.79228
 C1147 C 0.57654 0.90527 0.82618
 C1148 C 0.55688 0.88930 0.83410
 C1149 C 0.54280 0.87558 0.81639
 C1150 C 0.54869 0.87800 0.79050
 H1151 H 0.63351 0.95742 0.77220
 H1152 H 0.58283 0.91094 0.70839
 H1153 H 0.61235 0.94340 0.69475
 H1154 H 0.56136 0.88808 0.74253
 H1155 H 0.61156 0.93561 0.80613
 H1156 H 0.58711 0.91566 0.84024
 H1157 H 0.55266 0.88765 0.85413
 H1158 H 0.53762 0.86769 0.77671
 C1159 C 0.39458 0.94138 0.25649
 C1160 C 0.40931 0.92208 0.24696
 C1161 C 0.41748 0.90367 0.26335
 C1162 C 0.41038 0.90482 0.28905
 C1163 C 0.39587 0.92430 0.29850
 C1164 C 0.38774 0.94291 0.28237
 C1165 C 0.43314 0.88480 0.25388
 C1166 C 0.44101 0.88441 0.22830
 C1167 C 0.43248 0.90282 0.21196
 C1168 C 0.41650 0.92135 0.22132
 C1169 C 0.44060 0.90276 0.18659
 C1170 C 0.45767 0.88507 0.17754
 C1171 C 0.46671 0.86684 0.19356
 C1172 C 0.45787 0.86635 0.21889
 H1173 H 0.38836 0.95534 0.24363
 H1174 H 0.41668 0.89099 0.30199
 H1175 H 0.39212 0.92533 0.31867
 H1176 H 0.43967 0.87076 0.26650
 H1177 H 0.41020 0.93554 0.20877
 H1178 H 0.43418 0.91672 0.17384
 H1179 H 0.46404 0.88579 0.15795
 H1180 H 0.46485 0.85248 0.23147
 C1181 C 0.61608 0.03766 0.23319
 C1182 C 0.60298 0.05612 0.22058
 C1183 C 0.61321 0.07964 0.22141
 C1184 C 0.63730 0.08393 0.23365
 C1185 C 0.65093 0.06515 0.24520
 C1186 C 0.64018 0.04180 0.24593
 C1187 C 0.59924 0.09836 0.20988
 C1188 C 0.57562 0.09359 0.19685
 C1189 C 0.56636 0.06972 0.19484
 C1190 C 0.57982 0.05125 0.20707
 C1191 C 0.54358 0.06469 0.18081
 C1192 C 0.52956 0.08319 0.16948
 C1193 C 0.53770 0.10708 0.17245
 C1194 C 0.56092 0.11222 0.18597
 H1195 H 0.60692 0.02009 0.23355
 H1196 H 0.64588 0.10173 0.23388
 H1197 H 0.67024 0.06891 0.25307
 H1198 H 0.60673 0.11655 0.21100
 H1199 H 0.57230 0.03306 0.20600
 H1200 H 0.53641 0.04647 0.17889
 H1201 H 0.51161 0.07890 0.15929
 H1202 H 0.56737 0.13064 0.18815
 C1203 C 0.40092 0.05859 0.74876
 C1204 C 0.41407 0.07760 0.76064
 C1205 C 0.40138 0.09998 0.76345
 C1206 C 0.37522 0.10258 0.75505
 C1207 C 0.36174 0.08309 0.74434
 C1208 C 0.37460 0.06101 0.74073
 C1209 C 0.41488 0.11912 0.77508
 C1210 C 0.44044 0.11575 0.78487
 C1211 C 0.45244 0.09291 0.78297
 C1212 C 0.43946 0.07421 0.77041
 C1213 C 0.47722 0.08898 0.79383
 C1214 C 0.49026 0.10751 0.80630
 C1215 C 0.47914 0.13051 0.80758
 C1216 C 0.45420 0.13464 0.79675
 H1217 H 0.41095 0.04158 0.74635
 H1218 H 0.36495 0.11946 0.75739
 H1219 H 0.34118 0.08517 0.73911
 H1220 H 0.40534 0.13643 0.77693
 H1221 H 0.44893 0.05685 0.76870
 H1222 H 0.48656 0.07155 0.79269
 H1223 H 0.50958 0.10405 0.81427
 H1224 H 0.44551 0.15235 0.79781
 C1225 C 0.64246 0.72303 0.05511
 C1226 C 0.63315 0.73790 0.07474
 C1227 C 0.63964 0.76258 0.07461
 C1228 C 0.65650 0.77166 0.05577
 C1229 C 0.66522 0.75685 0.03612
 C1230 C 0.65766 0.73269 0.03527
 C1231 C 0.62792 0.77806 0.09231
 C1232 C 0.60920 0.76935 0.10969
 C1233 C 0.60376 0.74453 0.11081
 C1234 C 0.61604 0.72889 0.09349
 C1235 C 0.58506 0.73599 0.12835
 C1236 C 0.57052 0.75203 0.14333
 C1237 C 0.57448 0.77684 0.14098
 C1238 C 0.59464 0.78528 0.12486
 H1239 H 0.63633 0.70442 0.05423
 H1240 H 0.66177 0.79048 0.05548
 H1241 H 0.67677 0.76452 0.02081
 H1242 H 0.63224 0.79709 0.09163
 H1243 H 0.61119 0.70996 0.09376
 H1244 H 0.58081 0.71700 0.12967
 H1245 H 0.55511 0.74511 0.15565
 H1246 H 0.59803 0.80439 0.12312
 C1247 C 0.35850 0.26235 0.05572
 C1248 C 0.36910 0.24588 0.07287
 C1249 C 0.36343 0.22119 0.06997
 C1250 C 0.34606 0.21357 0.05098
 C1251 C 0.33612 0.23002 0.03368
 C1252 C 0.34293 0.25431 0.03550
 C1253 C 0.37658 0.20438 0.08490
 C1254 C 0.39596 0.21188 0.10206
 C1255 C 0.40058 0.23659 0.10603
 C1256 C 0.38680 0.25348 0.09163
 C1257 C 0.42000 0.24389 0.12331
 C1258 C 0.43598 0.22689 0.13514
 C1259 C 0.43272 0.20242 0.12984
 C1260 C 0.41196 0.19500 0.11409
 H1261 H 0.36404 0.28110 0.05683
 H1262 H 0.34140 0.19475 0.04860
 H1263 H 0.32428 0.22363 0.01801
 H1264 H 0.37291 0.18541 0.08205
 H1265 H 0.39101 0.27241 0.09400
 H1266 H 0.42364 0.26274 0.12679
 H1267 H 0.45183 0.23297 0.14731
 H1268 H 0.40911 0.17609 0.11018
 C1269 C 0.65087 0.27731 0.94478
 C1270 C 0.64116 0.26349 0.92458
 C1271 C 0.64931 0.23937 0.92191
 C1272 C 0.66820 0.22997 0.93843
 C1273 C 0.67734 0.24369 0.95870
 C1274 C 0.66813 0.26711 0.96247
 C1275 C 0.63722 0.22457 0.90390
 C1276 C 0.61653 0.23334 0.88904
 C1277 C 0.60942 0.25777 0.89055
 C1278 C 0.62204 0.27281 0.90813
 C1279 C 0.58875 0.26637 0.87545
 C1280 C 0.57399 0.25056 0.86049
 C1281 C 0.57968 0.22596 0.86046
 C1282 C 0.60170 0.21766 0.87393
 H1283 H 0.64345 0.29529 0.94793
 H1284 H 0.67476 0.21159 0.93654
 H1285 H 0.69049 0.23558 0.97231
 H1286 H 0.64281 0.20586 0.90252
 H1287 H 0.61593 0.29135 0.90998
 H1288 H 0.58320 0.28509 0.87615
 H1289 H 0.55711 0.25733 0.85023
 H1290 H 0.60638 0.19871 0.87379
 C1291 C 0.35628 0.73638 0.94610
 C1292 C 0.36668 0.75215 0.92791
 C1293 C 0.36275 0.77710 0.93078
 C1294 C 0.34733 0.78574 0.95096
 C1295 C 0.33733 0.76997 0.96908
 C1296 C 0.34227 0.74531 0.96713
 C1297 C 0.37547 0.79309 0.91432
 C1298 C 0.39258 0.78451 0.89539
 C1299 C 0.39545 0.75956 0.89163
 C1300 C 0.38224 0.74351 0.90776
 C1301 C 0.41256 0.75114 0.87259
 C1302 C 0.42806 0.76720 0.85863
 C1303 C 0.42667 0.79193 0.86346
 C1304 C 0.40807 0.80049 0.88119
 H1305 H 0.36043 0.71737 0.94479
 H1306 H 0.34400 0.80478 0.95336
 H1307 H 0.32669 0.77708 0.98529
 H1308 H 0.37311 0.81224 0.91706
 H1309 H 0.38509 0.72438 0.90539
 H1310 H 0.41483 0.73209 0.86926
 H1311 H 0.44220 0.76015 0.84505
 H1312 H 0.40664 0.81956 0.88491
 C1313 C 0.73162 0.95019 0.36755
 C1314 C 0.74765 0.93353 0.38009
 C1315 C 0.77555 0.93589 0.37882
 C1316 C 0.78693 0.95436 0.36451
 C1317 C 0.77085 0.97094 0.35235
 C1318 C 0.74321 0.96914 0.35405
 C1319 C 0.79164 0.92027 0.39251
 C1320 C 0.78027 0.90251 0.40779
 C1321 C 0.75246 0.89965 0.40858
 C1322 C 0.73630 0.91510 0.39459
 C1323 C 0.74130 0.88173 0.42387
 C1324 C 0.75749 0.86732 0.43885
 C1325 C 0.78508 0.87065 0.43884
 C1326 C 0.79632 0.88802 0.42285
 H1327 H 0.71024 0.94902 0.36904
 H1328 H 0.80824 0.95639 0.36332
 H1329 H 0.77994 0.98562 0.34212
 H1330 H 0.81300 0.92236 0.39183
 H1331 H 0.71494 0.91319 0.39552
 H1332 H 0.72004 0.87917 0.42463
 H1333 H 0.74835 0.85403 0.45096
 H1334 H 0.81760 0.89061 0.42248
 C1335 C 0.25467 0.97104 0.62917
 C1336 C 0.24427 0.95155 0.61567
 C1337 C 0.26107 0.93256 0.60811
 C1338 C 0.28798 0.93333 0.61456
 C1339 C 0.29828 0.95307 0.62766
 C1340 C 0.28174 0.97212 0.63490
 C1341 C 0.25081 0.91350 0.59369
 C1342 C 0.22409 0.91345 0.58640
 C1343 C 0.20739 0.93244 0.59422
 C1344 C 0.21750 0.95119 0.60896
 C1345 C 0.18085 0.93264 0.58681
 C1346 C 0.17093 0.91446 0.57141
 C1347 C 0.18725 0.89554 0.56319
 C1348 C 0.21385 0.89501 0.57102
 H1349 H 0.24189 0.98581 0.63457
 H1350 H 0.30120 0.91900 0.60890
 H1351 H 0.31929 0.95380 0.63157
 H1352 H 0.26372 0.89902 0.58771
 H1353 H 0.20466 0.96580 0.61474
 H1354 H 0.16780 0.94703 0.59269
 H1355 H 0.15035 0.91530 0.56587
 H1356 H 0.22665 0.88056 0.56483
 C1357 C 0.27938 0.04970 0.37464
 C1358 C 0.26333 0.06875 0.38298
 C1359 C 0.23597 0.06862 0.37735
 C1360 C 0.22543 0.05025 0.36235
 C1361 C 0.24154 0.03158 0.35393
 C1362 C 0.26847 0.03087 0.36034
 C1363 C 0.21936 0.08628 0.38760
 C1364 C 0.22968 0.10404 0.40355
 C1365 C 0.25724 0.10509 0.40799
 C1366 C 0.27393 0.08744 0.39764
 C1367 C 0.26744 0.12320 0.42364
 C1368 C 0.25034 0.13906 0.43612
 C1369 C 0.22280 0.13697 0.43324
 C1370 C 0.21268 0.11998 0.41618
 H1371 H 0.30005 0.04904 0.37998
 H1372 H 0.20456 0.04997 0.35773
 H1373 H 0.23281 0.01716 0.34302
 H1374 H 0.19826 0.08567 0.38394
 H1375 H 0.29495 0.08779 0.40171
 H1376 H 0.28852 0.12445 0.42708
 H1377 H 0.25856 0.15193 0.44930
 H1378 H 0.19145 0.11835 0.41376
 C1379 C 0.73429 0.05192 0.63351
 C1380 C 0.74994 0.06935 0.62143
 C1381 C 0.77787 0.06757 0.62225
 C1382 C 0.78966 0.04924 0.63624
 C1383 C 0.77397 0.03199 0.64810
 C1384 C 0.74627 0.03286 0.64636
 C1385 C 0.79358 0.08343 0.60816
 C1386 C 0.78174 0.10085 0.59297
 C1387 C 0.75390 0.10352 0.59317
 C1388 C 0.73815 0.08781 0.60751
 C1389 C 0.74227 0.12128 0.57820
 C1390 C 0.75793 0.13535 0.56216
 C1391 C 0.78541 0.13174 0.56070
 C1392 C 0.79727 0.11493 0.57672
 H1393 H 0.71291 0.05241 0.63183
 H1394 H 0.81101 0.04771 0.63718
 H1395 H 0.78346 0.01731 0.65782
 H1396 H 0.81496 0.08158 0.60822
 H1397 H 0.71676 0.08937 0.60708
 H1398 H 0.72099 0.12373 0.57826
 H1399 H 0.74840 0.14819 0.54993
 H1400 H 0.81851 0.11222 0.57586
 C1401 C 0.95514 0.63607 0.25017
 C1402 C 0.93262 0.62294 0.24320
 C1403 C 0.91299 0.61755 0.26152
 C1404 C 0.91606 0.62579 0.28642
 C1405 C 0.93892 0.63829 0.29335
 C1406 C 0.95875 0.64331 0.27537
 C1407 C 0.89121 0.60321 0.25491
 C1408 C 0.88928 0.59358 0.23042
 C1409 C 0.90882 0.59924 0.21208
 C1410 C 0.93011 0.61417 0.21847
 C1411 C 0.90729 0.58920 0.18784
 C1412 C 0.88721 0.57295 0.18204
 C1413 C 0.86796 0.56676 0.20020
 C1414 C 0.86872 0.57762 0.22422
 H1415 H 0.97047 0.63977 0.23626
 H1416 H 0.90129 0.62178 0.30075
 H1417 H 0.94157 0.64334 0.31297
 H1418 H 0.87634 0.59882 0.26905
 H1419 H 0.94525 0.61819 0.20447
 H1420 H 0.92204 0.59341 0.17355
 H1421 H 0.88693 0.56498 0.16333
 H1422 H 0.85403 0.57286 0.23840
 C1423 C 0.93832 0.37211 0.71775
 C1424 C 0.91721 0.37997 0.73312
 C1425 C 0.91824 0.37639 0.75958
 C1426 C 0.93955 0.36395 0.77006
 C1427 C 0.96027 0.35602 0.75465
 C1428 C 0.96009 0.36035 0.72851
 C1429 C 0.89859 0.38616 0.77530
 C1430 C 0.87807 0.39977 0.76498
 C1431 C 0.87609 0.40222 0.73846
 C1432 C 0.89562 0.39218 0.72265
 C1433 C 0.85535 0.41577 0.72833
 C1434 C 0.83810 0.42836 0.74435
 C1435 C 0.84134 0.42755 0.77071
 C1436 C 0.86057 0.41228 0.78089
 H1437 H 0.93828 0.37577 0.69763
 H1438 H 0.94055 0.36092 0.79026
 H1439 H 0.97692 0.34702 0.76323
 H1440 H 0.89993 0.38408 0.79565
 H1441 H 0.89459 0.39470 0.70235
 H1442 H 0.85333 0.41766 0.70805
 H1443 H 0.82354 0.44013 0.73606
 H1444 H 0.86313 0.41147 0.80122
 C1445 C 0.02854 0.60199 0.72867
 C1446 C 0.04750 0.58891 0.74191
 C1447 C 0.06949 0.57911 0.72887
 C1448 C 0.07194 0.58253 0.70265
 C1449 C 0.05242 0.59500 0.68944
 C1450 C 0.03063 0.60484 0.70238
 C1451 C 0.08823 0.56562 0.74216
 C1452 C 0.08478 0.56129 0.76814
 C1453 C 0.06249 0.57086 0.78097
 C1454 C 0.04424 0.58487 0.76786
 C1455 C 0.05857 0.56602 0.80668
 C1456 C 0.07649 0.55173 0.81966
 C1457 C 0.09888 0.54230 0.80729
 C1458 C 0.10300 0.54726 0.78149
 H1459 H 0.01157 0.60935 0.73866
 H1460 H 0.08855 0.57502 0.69228
 H1461 H 0.05404 0.59663 0.66908
 H1462 H 0.10516 0.55812 0.73222
 H1463 H 0.02719 0.59222 0.77775
 H1464 H 0.04156 0.57316 0.81673
 H1465 H 0.07298 0.54830 0.83956
 H1466 H 0.12013 0.53994 0.77175
 C1467 C 0.05321 0.39000 0.29235
 C1468 C 0.07391 0.40378 0.28219
 C1469 C 0.07766 0.42763 0.29058
 C1470 C 0.06096 0.43705 0.30945
 C1471 C 0.04004 0.42334 0.31908
 C1472 C 0.03592 0.39986 0.31044
 C1473 C 0.09716 0.44199 0.27915
 C1474 C 0.11217 0.43311 0.25876
 C1475 C 0.10866 0.40912 0.25067
 C1476 C 0.08998 0.39447 0.26281
 C1477 C 0.12276 0.40058 0.22957
 C1478 C 0.13882 0.41608 0.21559
 C1479 C 0.14185 0.44003 0.22308
 C1480 C 0.12931 0.44828 0.24519
 H1481 H 0.04969 0.37199 0.28538
 H1482 H 0.06350 0.45529 0.31608
 H1483 H 0.02666 0.43120 0.33287
 H1484 H 0.09969 0.46042 0.28526
 H1485 H 0.08698 0.37622 0.25630
 H1486 H 0.12026 0.38229 0.22310
 H1487 H 0.14817 0.40963 0.19837
 H1488 H 0.13116 0.46698 0.25056
   
