data_POSCAR
  _audit_creation_date              2014-09-24
  _audit_creation_method            'ToBaCCo'
  _symmetry_space_group_name_H-M    'P1'
  _symmetry_Int_Tables_number       1
  _symmetry_cell_setting            triclinic
  loop_
  _symmetry_equiv_pos_as_xyz
 x,y,z
_cell_length_a 58.9663
_cell_length_b 59.3233
_cell_length_c 59.6035
_cell_angle_alpha 90.428400
_cell_angle_beta 86.482500
_cell_angle_gamma 90.722800
loop_
  _atom_site_label
  _atom_site_type_symbol
  _atom_site_fract_x
  _atom_site_fract_y
  _atom_site_fract_z
C1 C 0.12970 -0.00052 0.24988
 C2 C 0.37034 -0.00126 0.75970
 C3 C 0.87347 0.50048 0.25467
 C4 C 0.63116 0.49294 0.73776
 C5 C 0.25138 0.12628 1.01140
 C6 C 0.74845 0.37087 1.00329
 C7 C 0.24335 0.86810 0.49647
 C8 C 0.75528 0.62823 0.49622
 C9 C 0.01373 0.25175 0.11969
 C10 C -0.00652 0.75288 0.37476
 C11 C 0.49297 0.26182 0.87426
 C12 C 0.49407 0.74152 0.62386
 C13 C 0.88091 0.99508 0.76312
 C14 C 0.38023 0.50145 0.25181
 C15 C 0.61955 0.99722 0.24367
 C16 C 0.11984 0.49584 0.73931
 C17 C 0.74832 0.87290 -0.00246
 C18 C 0.25045 0.37295 0.51242
 C19 C 0.25198 0.62569 -0.00496
 C20 C 0.74585 0.12629 0.50162
 C21 C 0.97823 0.74863 0.87848
 C22 C 0.49811 0.23909 0.37666
 C23 C 1.00726 0.25507 0.62298
 C24 C 0.50798 0.76274 0.11946
 O25 O -0.06321 0.98913 0.99756
 O26 O -0.06024 1.02766 1.00836
 O27 O -0.00932 0.98559 0.94437
 O28 O 0.02819 0.99243 0.94167
 O29 O -0.01673 0.93319 0.99434
 O30 O -0.00707 0.93079 1.03251
 O31 O 0.05476 1.03575 1.00621
 O32 O 0.03965 1.04120 0.97028
 O33 O 0.00072 1.04362 1.05357
 O34 O -0.03807 1.02651 1.05880
 O35 O 0.04309 0.98790 1.05647
 O36 O 0.04561 0.95123 1.03529
 O37 O 0.06556 1.00294 1.02152
 O38 O 0.06379 0.96386 1.00866
 O39 O 0.01266 1.00708 1.07144
 O40 O -0.02808 0.99836 1.07320
 O41 O 0.02051 1.05734 1.02265
 O42 O 0.01090 1.06100 0.98465
 O43 O -0.05238 0.95599 1.01232
 O44 O -0.03495 0.94845 1.04674
 O45 O 0.00255 0.94713 0.96319
 O46 O 0.04082 0.96326 0.95961
 O47 O -0.04014 1.00367 0.96021
 O48 O -0.04211 1.03923 0.97967
 Zr49 Zr -0.03305 1.00839 0.99405
 O50 O -0.01253 1.02771 1.01465
 Zr51 Zr 0.01120 0.98047 0.97164
 O52 O 0.03385 0.99865 0.99130
 Zr53 Zr -0.01758 0.96055 1.01708
 O54 O 0.00368 0.97781 1.03873
 Zr55 Zr 0.02051 1.03047 0.99953
 O56 O -0.00084 1.01344 0.97745
 Zr57 Zr -0.00853 1.01054 1.04475
 O58 O -0.03138 0.99234 1.02527
 Zr59 Zr 0.03599 0.98268 1.02252
 O60 O 0.01543 0.96300 1.00172
 O61 O -0.02135 0.97618 0.98649
 O62 O 0.02433 1.01499 1.03033
 C63 C -0.06741 0.96917 1.00507
 C64 C -0.02889 0.99478 0.94329
 C65 C -0.00801 0.93118 0.97413
 C66 C 0.06957 1.02318 1.01471
 C67 C 0.01176 1.05938 1.04282
 C68 C 0.03201 0.99776 1.07294
 H69 H -0.01958 1.04258 1.01739
 H70 H 0.00440 0.96918 1.05279
 H71 H -0.03162 0.96759 0.97693
 H72 H 0.04885 1.00008 0.98304
 H73 H 0.03074 1.03697 0.95730
 H74 H 0.04099 1.00215 0.94599
 H75 H -0.02236 0.98329 1.07679
 H76 H -0.04446 0.96098 1.05282
 H77 H -0.00469 1.06455 0.99050
 H78 H -0.02948 1.04349 0.96875
 H79 H 0.03517 0.94762 1.04843
 H80 H 0.00849 0.92773 1.02613
 H81 H -0.06352 1.02192 1.02379
 H82 H -0.04052 1.04021 1.04995
 H83 H 0.04345 0.95123 0.97055
 H84 H 0.06889 0.97080 0.99415
 O85 O 0.49363 0.48297 0.43034
 O86 O 0.53346 0.49264 0.42817
 O87 O 0.49086 0.43092 0.48090
 O88 O 0.49933 0.42772 0.51652
 O89 O 0.44165 0.48525 0.48464
 O90 O 0.44358 0.52386 0.49586
 O91 O 0.55026 0.48845 0.54052
 O92 O 0.55153 0.45230 0.52185
 O93 O 0.55872 0.53581 0.48862
 O94 O 0.53950 0.54232 0.45336
 O95 O 0.50538 0.54304 0.53812
 O96 O 0.46760 0.52416 0.54493
 O97 O 0.51965 0.50695 0.55609
 O98 O 0.47958 0.49706 0.55949
 O99 O 0.52376 0.55681 0.50648
 O100 O 0.51326 0.55891 0.46782
 O101 O 0.57135 0.50354 0.50362
 O102 O 0.57106 0.46580 0.49241
 O103 O 0.46304 0.50076 0.44695
 O104 O 0.46018 0.53603 0.46648
 O105 O 0.45410 0.45285 0.49951
 O106 O 0.47306 0.44791 0.53419
 O107 O 0.50838 0.44523 0.44900
 O108 O 0.54453 0.46292 0.44200
 Zr109 Zr 0.51549 0.47904 0.45683
 O110 O 0.53819 0.49799 0.47558
 Zr111 Zr 0.48900 0.45867 0.50321
 O112 O 0.51055 0.47693 0.52395
 Zr113 Zr 0.47100 0.50563 0.48047
 O114 O 0.49169 0.52595 0.50004
 Zr115 Zr 0.54221 0.48275 0.50684
 O116 O 0.52161 0.46214 0.48686
 Zr117 Zr 0.52415 0.52954 0.48378
 O118 O 0.50245 0.51154 0.46276
 Zr119 Zr 0.49743 0.50935 0.53010
 O120 O 0.47444 0.49008 0.51162
 O121 O 0.48353 0.47375 0.47271
 O122 O 0.52973 0.51483 0.51465
 C123 C 0.47392 0.49199 0.42978
 C124 C 0.49924 0.42892 0.46054
 C125 C 0.43831 0.46534 0.49260
 C126 C 0.53926 0.49805 0.55724
 C127 C 0.57446 0.52361 0.49601
 C128 C 0.51534 0.55903 0.52674
 H129 H 0.55279 0.49951 0.46664
 H130 H 0.48422 0.54063 0.50275
 H131 H 0.47336 0.46461 0.46352
 H132 H 0.51226 0.46854 0.53800
 H133 H 0.54565 0.43983 0.51261
 H134 H 0.51076 0.43124 0.52755
 H135 H 0.49834 0.56307 0.47506
 H136 H 0.47246 0.54094 0.45544
 H137 H 0.57323 0.47039 0.47652
 H138 H 0.54934 0.45190 0.45311
 H139 H 0.46415 0.53749 0.53592
 H140 H 0.44078 0.51767 0.51117
 H141 H 0.52789 0.50817 0.42648
 H142 H 0.55173 0.53192 0.44813
 H143 H 0.46230 0.45983 0.53930
 H144 H 0.48553 0.48196 0.56262
 O145 O 0.50102 -0.05661 0.54785
 O146 O 0.53524 -0.03595 0.55205
 O147 O 0.45205 -0.00201 0.55316
 O148 O 0.44660 0.02997 0.53488
 O149 O 0.44687 -0.05306 0.50204
 O150 O 0.46733 -0.06008 0.46692
 O151 O 0.51255 0.05343 0.48628
 O152 O 0.49814 0.05670 0.52424
 O153 O 0.56213 0.00233 0.48740
 O154 O 0.56148 -0.03712 0.49997
 O155 O 0.51239 0.00066 0.43859
 O156 O 0.47197 -0.01079 0.43965
 O157 O 0.49651 0.03707 0.45646
 O158 O 0.45973 0.01767 0.45337
 O159 O 0.54338 -0.01490 0.45275
 O160 O 0.54757 -0.05023 0.47335
 O161 O 0.54762 0.03490 0.50211
 O162 O 0.52846 0.04239 0.53774
 O163 O 0.48388 -0.07239 0.51831
 O164 O 0.49545 -0.07504 0.47963
 O165 O 0.43271 -0.02099 0.51823
 O166 O 0.43377 0.01701 0.50335
 O167 O 0.48271 -0.01846 0.56727
 O168 O 0.52158 -0.00704 0.56628
 Zr169 Zr 0.50573 -0.02245 0.53912
 O170 O 0.52826 -0.00328 0.51801
 Zr171 Zr 0.46081 0.00113 0.51863
 O172 O 0.48143 0.02153 0.49668
 Zr173 Zr 0.48172 -0.04583 0.49548
 O174 O 0.50327 -0.02766 0.47248
 Zr175 Zr 0.51315 0.02729 0.50995
 O176 O 0.49150 0.00923 0.53338
 Zr177 Zr 0.53401 -0.01983 0.48697
 O178 O 0.51349 -0.04038 0.50906
 Zr179 Zr 0.48903 0.00383 0.46651
 O180 O 0.46611 -0.01553 0.48749
 O181 O 0.47453 -0.02984 0.52619
 O182 O 0.52052 0.01129 0.47912
 C183 C 0.49278 -0.07359 0.53739
 C184 C 0.46279 -0.00985 0.56946
 C185 C 0.43039 -0.04115 0.51062
 C186 C 0.50532 0.05404 0.46638
 C187 C 0.56419 0.02285 0.49407
 C188 C 0.53267 -0.00705 0.43645
 H189 H 0.54253 -0.00093 0.52562
 H190 H 0.50567 -0.03661 0.45851
 H191 H 0.46454 -0.03907 0.53656
 H192 H 0.47366 0.03588 0.49418
 H193 H 0.48876 0.05192 0.53777
 H194 H 0.45369 0.04339 0.52745
 H195 H 0.53774 -0.05548 0.46146
 H196 H 0.51107 -0.07644 0.48463
 H197 H 0.53875 0.03130 0.54389
 H198 H 0.51546 0.00840 0.56780
 H199 H 0.47936 -0.02528 0.43567
 H200 H 0.45726 -0.04853 0.46115
 H201 H 0.54160 -0.04667 0.54059
 H202 H 0.56589 -0.02893 0.51359
 H203 H 0.43131 0.00864 0.48925
 H204 H 0.45491 0.03059 0.46303
 O205 O -0.05122 0.45713 1.00077
 O206 O -0.03325 0.44964 0.96501
 O207 O 0.00557 0.45352 1.04333
 O208 O 0.03749 0.47149 1.04849
 O209 O -0.04398 0.50667 1.05085
 O210 O -0.04784 0.54154 1.03168
 O211 O 0.06369 0.51113 0.97853
 O212 O 0.06448 0.47463 0.99248
 O213 O 0.01079 0.51098 0.93383
 O214 O -0.02834 0.50141 0.93590
 O215 O 0.01522 0.56299 0.98245
 O216 O 0.00607 0.56719 1.02096
 O217 O 0.05084 0.54332 0.99546
 O218 O 0.03109 0.54980 1.03435
 O219 O -0.00360 0.54801 0.95365
 O220 O -0.04166 0.52757 0.95317
 O221 O 0.04271 0.49532 0.94608
 O222 O 0.04629 0.45874 0.96553
 O223 O -0.06472 0.48970 1.01645
 O224 O -0.06402 0.52835 1.00410
 O225 O -0.01209 0.49120 1.06346
 O226 O 0.02820 0.50464 1.05885
 O227 O -0.01286 0.43745 1.01475
 O228 O -0.00380 0.43530 0.97500
 Zr229 Zr -0.01668 0.46418 0.99215
 O230 O 0.00337 0.48249 0.96800
 Zr231 Zr 0.00985 0.48739 1.03439
 O232 O 0.03183 0.50579 1.01196
 Zr233 Zr -0.03611 0.51125 1.01635
 O234 O -0.01622 0.53160 0.99382
 Zr235 Zr 0.03521 0.48958 0.98051
 O236 O 0.01595 0.46938 1.00396
 Zr237 Zr -0.01068 0.51433 0.96314
 O238 O -0.03255 0.49472 0.98498
 Zr239 Zr 0.01649 0.53656 1.00539
 O240 O -0.00465 0.51901 1.02963
 O241 O -0.02212 0.48020 1.02307
 O242 O 0.02170 0.52103 0.97404
 C243 C -0.06739 0.46934 1.00949
 C244 C -0.00322 0.43648 1.03351
 C245 C -0.03233 0.49891 1.06651
 C246 C 0.06657 0.53143 0.98546
 C247 C 0.03103 0.50338 0.93057
 C248 C 0.00638 0.56446 0.96340
 H249 H 0.00465 0.47374 0.95383
 H250 H -0.02406 0.54604 0.99201
 H251 H -0.03166 0.47083 1.03371
 H252 H 0.04674 0.50781 1.01851
 H253 H 0.05908 0.46282 1.00325
 H254 H 0.05109 0.47462 1.03842
 H255 H -0.04449 0.54183 0.96152
 H256 H -0.06734 0.52101 0.98968
 H257 H 0.03649 0.45496 0.95311
 H258 H 0.01189 0.43336 0.97963
 H259 H -0.01032 0.56874 1.01881
 H260 H -0.03573 0.54696 1.04125
 H261 H -0.04315 0.46144 0.95941
 H262 H -0.02409 0.48542 0.93384
 H263 H 0.01958 0.51836 1.06323
 H264 H 0.04522 0.54148 1.03647
 O265 O 0.01080 0.48685 0.55510
 O266 O -0.02812 0.49342 0.55472
 O267 O 0.01944 0.43739 0.50041
 O268 O 0.01560 0.43601 0.46405
 O269 O 0.06757 0.49218 0.50741
 O270 O 0.06762 0.53090 0.49724
 O271 O -0.03633 0.49892 0.44222
 O272 O -0.03839 0.46145 0.45531
 O273 O -0.04738 0.54170 0.49478
 O274 O -0.03226 0.54783 0.53107
 O275 O 0.01092 0.55220 0.45043
 O276 O 0.04644 0.53480 0.44365
 O277 O -0.00405 0.51693 0.42886
 O278 O 0.03745 0.50590 0.42898
 O279 O -0.01077 0.56403 0.48098
 O280 O -0.00299 0.56318 0.52190
 O281 O -0.05902 0.50961 0.47769
 O282 O -0.05794 0.46981 0.48702
 O283 O 0.04274 0.50616 0.54306
 O284 O 0.04759 0.54250 0.52510
 O285 O 0.05753 0.46128 0.48730
 O286 O 0.04114 0.45880 0.44976
 O287 O -0.00032 0.44918 0.53221
 O288 O -0.03796 0.46568 0.53619
 Zr289 Zr -0.00762 0.48325 0.52619
 O290 O -0.02833 0.50350 0.50736
 Zr291 Zr 0.02319 0.46655 0.48068
 O292 O 0.00297 0.48524 0.45967
 Zr293 Zr 0.03849 0.51223 0.50880
 O294 O 0.01997 0.53306 0.48837
 Zr295 Zr -0.02971 0.48974 0.47497
 O296 O -0.01065 0.46809 0.49444
 Zr297 Zr -0.01354 0.53562 0.50216
 O298 O 0.00562 0.51640 0.52393
 Zr299 Zr 0.01666 0.51801 0.45661
 O300 O 0.03815 0.49866 0.47605
 O301 O 0.02552 0.47972 0.51291
 O302 O -0.01654 0.52230 0.47003
 C303 C 0.02993 0.49649 0.55846
 C304 C 0.00987 0.43390 0.52005
 C305 C 0.07189 0.47306 0.49799
 C306 C -0.02429 0.50921 0.42676
 C307 C -0.06257 0.52943 0.48585
 C308 C 0.00009 0.56747 0.46191
 H309 H -0.04350 0.50439 0.51530
 H310 H 0.02782 0.54786 0.48724
 H311 H 0.03465 0.47035 0.52257
 H312 H 0.00213 0.47763 0.44493
 H313 H -0.03224 0.44808 0.46258
 H314 H 0.00368 0.43931 0.45362
 H315 H 0.01113 0.56954 0.51452
 H316 H 0.03476 0.54626 0.53591
 H317 H -0.06370 0.47609 0.50166
 H318 H -0.04053 0.45431 0.52434
 H319 H 0.05208 0.54419 0.45596
 H320 H 0.07206 0.52511 0.48199
 H321 H -0.02480 0.50965 0.55701
 H322 H -0.04334 0.53597 0.53604
 H323 H 0.05346 0.47019 0.44750
 H324 H 0.02944 0.49307 0.42215
 O325 O 0.52203 0.94910 0.00484
 O326 O 0.51005 0.94850 -0.03280
 O327 O 0.57224 1.00225 0.00222
 O328 O 0.57427 1.03867 -0.00379
 O329 O 0.51932 0.99888 0.05713
 O330 O 0.48036 1.00912 0.05983
 O331 O 0.51215 1.06265 -0.04844
 O332 O 0.54765 1.04518 -0.05460
 O333 O 0.46405 1.00911 -0.05253
 O334 O 0.45822 0.97291 -0.03356
 O335 O 0.45802 1.05574 0.00074
 O336 O 0.47650 1.06153 0.03549
 O337 O 0.49382 1.07587 -0.01646
 O338 O 0.50541 1.07580 0.02324
 O339 O 0.44382 1.02463 -0.01606
 O340 O 0.44313 0.98449 -0.00498
 O341 O 0.49554 1.02688 -0.06800
 O342 O 0.53432 1.01596 -0.07180
 O343 O 0.50296 0.96188 0.03668
 O344 O 0.46740 0.98076 0.04388
 O345 O 0.55094 1.01638 0.04164
 O346 O 0.55372 1.05347 0.02311
 O347 O 0.55813 0.97049 -0.01363
 O348 O 0.53870 0.96514 -0.04750
 Zr349 Zr 0.52355 0.97709 -0.01667
 O350 O 0.50301 0.99640 -0.03657
 Zr351 Zr 0.54365 1.02272 0.00818
 O352 O 0.52433 1.04403 -0.01103
 Zr353 Zr 0.49763 0.99633 0.03041
 O354 O 0.47616 1.01688 0.01256
 Zr355 Zr 0.51775 1.02851 -0.04174
 O356 O 0.53970 1.00830 -0.02384
 Zr357 Zr 0.47160 1.00259 -0.01920
 O358 O 0.49109 0.98065 -0.00034
 Zr359 Zr 0.49207 1.04813 0.00543
 O360 O 0.51233 1.02864 0.02594
 O361 O 0.52951 0.99098 0.01455
 O362 O 0.48577 1.03446 -0.02596
 C363 C 0.51290 0.94627 0.02477
 C364 C 0.57452 0.98244 -0.00640
 C365 C 0.53933 1.00749 0.05834
 C366 C 0.50278 1.07848 -0.03648
 C367 C 0.47552 1.01832 -0.06913
 C368 C 0.44176 1.04458 -0.00771
 H369 H 0.50106 0.98826 -0.05085
 H370 H 0.46157 1.01866 0.02143
 H371 H 0.53938 0.98144 0.02329
 H372 H 0.53260 1.05850 -0.01335
 H373 H 0.56067 1.03655 -0.04957
 H374 H 0.57049 1.04895 -0.01596
 H375 H 0.43827 0.99186 0.00942
 H376 H 0.46217 0.97041 0.03211
 H377 H 0.52810 1.00077 -0.07484
 H378 H 0.54936 0.97711 -0.05318
 H379 H 0.46519 1.05032 0.04149
 H380 H 0.48606 1.02473 0.06181
 H381 H 0.49464 0.94588 -0.02569
 H382 H 0.46922 0.96782 -0.04568
 H383 H 0.54273 1.05649 0.03598
 H384 H 0.51918 1.08135 0.01458
 O385 O 0.49467 0.52886 0.05964
 O386 O 0.53364 0.51855 0.05896
 O387 O 0.49714 0.57814 0.00572
 O388 O 0.50678 0.57864 -0.03073
 O389 O 0.44372 0.52657 0.00992
 O390 O 0.44285 0.48759 0.00119
 O391 O 0.55419 0.51418 -0.05457
 O392 O 0.55800 0.55101 -0.03798
 O393 O 0.55688 0.46937 -0.00035
 O394 O 0.53603 0.46589 0.03651
 O395 O 0.50527 0.46226 -0.04544
 O396 O 0.46960 0.48189 -0.05078
 O397 O 0.52279 0.49681 -0.06703
 O398 O 0.48296 0.50859 -0.06689
 O399 O 0.52092 0.44940 -0.01420
 O400 O 0.50841 0.45075 0.02584
 O401 O 0.57260 0.49943 -0.01912
 O402 O 0.57546 0.53740 -0.00962
 O403 O 0.46307 0.51165 0.04732
 O404 O 0.45773 0.47583 0.02942
 O405 O 0.45939 0.55697 -0.00840
 O406 O 0.48046 0.55861 -0.04510
 O407 O 0.51092 0.56489 0.03785
 O408 O 0.54687 0.54684 0.04164
 Zr409 Zr 0.51721 0.53063 0.03097
 O410 O 0.53901 0.50906 0.01184
 Zr411 Zr 0.49397 0.54914 -0.01448
 O412 O 0.51497 0.52855 -0.03570
 Zr413 Zr 0.47137 0.50490 0.01301
 O414 O 0.49116 0.48239 -0.00715
 Zr415 Zr 0.54545 0.52199 -0.02067
 O416 O 0.52574 0.54513 -0.00062
 Zr417 Zr 0.52267 0.47796 0.00675
 O418 O 0.50183 0.49857 0.02837
 Zr419 Zr 0.49947 0.49666 -0.03882
 O420 O 0.47725 0.51812 -0.01955
 O421 O 0.48613 0.53643 0.01751
 O422 O 0.53067 0.49032 -0.02553
 C423 C 0.47451 0.52058 0.06289
 C424 C 0.50360 0.58080 0.02579
 C425 C 0.44231 0.54596 0.00066
 C426 C 0.54315 0.50465 -0.07007
 C427 C 0.57384 0.47982 -0.01027
 C428 C 0.51334 0.44645 -0.03376
 H429 H 0.55315 0.50722 0.01966
 H430 H 0.48266 0.46801 -0.00834
 H431 H 0.47619 0.54645 0.02702
 H432 H 0.51788 0.53605 -0.05037
 H433 H 0.55308 0.56425 -0.02878
 H434 H 0.51938 0.57403 -0.04142
 H435 H 0.49406 0.44616 0.01924
 H436 H 0.46920 0.47087 0.03974
 H437 H 0.57563 0.53506 0.00675
 H438 H 0.55192 0.55762 0.02969
 H439 H 0.46412 0.47021 -0.03993
 H440 H 0.44157 0.49241 -0.01455
 H441 H 0.52757 0.50315 0.06188
 H442 H 0.54864 0.47608 0.04036
 H443 H 0.46844 0.54744 -0.04826
 H444 H 0.49092 0.52253 -0.07216
 O445 O -0.06772 0.01628 0.51377
 O446 O -0.06895 -0.02259 0.50545
 O447 O -0.01943 0.01818 0.56612
 O448 O 0.01653 0.01113 0.56968
 O449 O -0.01515 0.06696 0.51108
 O450 O -0.00061 0.06482 0.47322
 O451 O 0.04403 -0.04299 0.50960
 O452 O 0.02426 -0.04376 0.54518
 O453 O -0.00379 -0.04952 0.46207
 O454 O -0.03841 -0.03073 0.45395
 O455 O 0.04550 0.00209 0.45530
 O456 O 0.05131 0.03834 0.47306
 O457 O 0.06122 -0.01328 0.49145
 O458 O 0.06247 0.02767 0.50213
 O459 O 0.01481 -0.01491 0.44097
 O460 O -0.02552 -0.00293 0.43937
 O461 O 0.00947 -0.06227 0.49455
 O462 O -0.00624 -0.06042 0.53328
 O463 O -0.05092 0.04626 0.49560
 O464 O -0.02847 0.04797 0.46021
 O465 O -0.00115 0.05480 0.54346
 O466 O 0.03496 0.03472 0.54842
 O467 O -0.05055 0.00152 0.55216
 O468 O -0.05541 -0.03457 0.53429
 Zr469 Zr -0.04070 -0.00573 0.51832
 O470 O -0.02034 -0.02873 0.49943
 Zr471 Zr 0.00427 0.01996 0.53836
 O472 O 0.02659 -0.00258 0.52096
 Zr473 Zr -0.01644 0.03771 0.49119
 O474 O 0.00549 0.01669 0.47159
 Zr475 Zr 0.01007 -0.03344 0.51523
 O476 O -0.01129 -0.01210 0.53548
 Zr477 Zr -0.01004 -0.01507 0.46797
 O478 O -0.03309 0.00677 0.48570
 Zr479 Zr 0.03488 0.01010 0.48864
 O480 O 0.01428 0.03383 0.50689
 O481 O -0.02586 0.02575 0.52316
 O482 O 0.02007 -0.02143 0.48327
 C483 C -0.06838 0.03570 0.50442
 C484 C -0.03979 0.01016 0.56836
 C485 C -0.00839 0.07038 0.53089
 C486 C 0.06151 -0.03306 0.50010
 C487 C 0.00344 -0.06527 0.47440
 C488 C 0.03530 -0.00719 0.43913
 H489 H -0.02894 -0.04299 0.49784
 H490 H 0.00910 0.02404 0.45696
 H491 H -0.03605 0.03598 0.53214
 H492 H 0.04018 -0.00482 0.52957
 H493 H 0.01511 -0.03673 0.55778
 H494 H 0.02639 -0.00209 0.56700
 H495 H -0.01675 0.01046 0.43387
 H496 H -0.03980 0.03650 0.45597
 H497 H -0.02002 -0.06488 0.52561
 H498 H -0.04478 -0.03934 0.54552
 H499 H 0.04157 0.04364 0.46129
 H500 H 0.01448 0.06708 0.47936
 H501 H -0.06907 -0.01837 0.48942
 H502 H -0.04565 -0.04090 0.46542
 H503 H 0.03971 0.04624 0.53709
 H504 H 0.06626 0.01994 0.51604
 O505 O 0.74557 0.17958 0.25668
 O506 O 0.78477 0.18155 0.24522
 O507 O 0.74321 0.22757 0.31260
 O508 O 0.74896 0.26382 0.31803
 O509 O 0.69177 0.22852 0.26269
 O510 O 0.69236 0.24270 0.22524
 O511 O 0.79914 0.29508 0.25724
 O512 O 0.80180 0.27443 0.29089
 O513 O 0.80785 0.24709 0.20516
 O514 O 0.78841 0.21035 0.19703
 O515 O 0.75344 0.29267 0.20530
 O516 O 0.71713 0.29593 0.22542
 O517 O 0.76814 0.30963 0.24210
 O518 O 0.72683 0.30725 0.25500
 O519 O 0.77175 0.26343 0.18775
 O520 O 0.76236 0.22430 0.18295
 O521 O 0.82031 0.26183 0.23752
 O522 O 0.82100 0.24722 0.27423
 O523 O 0.71390 0.19389 0.24248
 O524 O 0.70975 0.21591 0.20923
 O525 O 0.70514 0.24256 0.29494
 O526 O 0.72284 0.27978 0.30045
 O527 O 0.76034 0.19754 0.29517
 O528 O 0.79633 0.19525 0.27453
 Zr529 Zr 0.76647 0.20798 0.26163
 O530 O 0.78822 0.22993 0.24267
 Zr531 Zr 0.73933 0.25078 0.28682
 O532 O 0.76014 0.27460 0.26921
 Zr533 Zr 0.72071 0.22880 0.23997
 O534 O 0.74059 0.25182 0.22013
 Zr535 Zr 0.79182 0.26049 0.26019
 O536 O 0.77210 0.23756 0.28037
 Zr537 Zr 0.77331 0.23894 0.21299
 O538 O 0.75255 0.21467 0.23068
 Zr539 Zr 0.74624 0.28161 0.23843
 O540 O 0.72388 0.25960 0.25730
 O541 O 0.73427 0.22042 0.27012
 O542 O 0.77867 0.26939 0.22977
 C543 C 0.72581 0.17736 0.24888
 C544 C 0.75182 0.20780 0.31275
 C545 C 0.68911 0.23464 0.28343
 C546 C 0.78783 0.31165 0.25011
 C547 C 0.82351 0.25538 0.21700
 C548 C 0.76309 0.28321 0.18782
 H549 H 0.80293 0.22240 0.23948
 H550 H 0.73279 0.25481 0.20627
 H551 H 0.72473 0.20956 0.27915
 H552 H 0.76172 0.28823 0.27865
 H553 H 0.79596 0.26415 0.30298
 H554 H 0.76105 0.27524 0.31481
 H555 H 0.74680 0.22966 0.18094
 H556 H 0.72206 0.20616 0.20284
 H557 H 0.82444 0.23256 0.26690
 H558 H 0.80102 0.20621 0.28603
 H559 H 0.71163 0.28538 0.21397
 H560 H 0.68955 0.25744 0.23272
 H561 H 0.77962 0.18070 0.22973
 H562 H 0.80142 0.20594 0.20567
 H563 H 0.71082 0.28366 0.29030
 H564 H 0.73442 0.31159 0.26877
 O565 O 0.74883 0.71188 0.69453
 O566 O 0.78318 0.70763 0.71317
 O567 O 0.69839 0.70004 0.74887
 O568 O 0.68954 0.71518 0.78274
 O569 O 0.69136 0.75596 0.70401
 O570 O 0.70914 0.79216 0.70056
 O571 O 0.75027 0.76308 0.81004
 O572 O 0.73901 0.72474 0.80945
 O573 O 0.80228 0.76942 0.75847
 O574 O 0.80535 0.76020 0.71821
 O575 O 0.74879 0.81585 0.76360
 O576 O 0.70896 0.81470 0.75239
 O577 O 0.73278 0.79402 0.79741
 O578 O 0.69626 0.79765 0.77938
 O579 O 0.78176 0.80408 0.74591
 O580 O 0.78905 0.78707 0.70766
 O581 O 0.78738 0.75100 0.78933
 O582 O 0.77097 0.71329 0.79262
 O583 O 0.73110 0.74286 0.68222
 O584 O 0.73918 0.78204 0.68382
 O585 O 0.67719 0.73564 0.73402
 O586 O 0.67465 0.74736 0.77337
 O587 O 0.73126 0.68854 0.73060
 O588 O 0.76962 0.68997 0.74086
 Zr589 Zr 0.75189 0.71783 0.72906
 O590 O 0.77166 0.73772 0.74996
 Zr591 Zr 0.70394 0.73446 0.75561
 O592 O 0.72159 0.75502 0.77789
 Zr593 Zr 0.72533 0.76286 0.71121
 O594 O 0.74393 0.78472 0.73140
 Zr595 Zr 0.75416 0.74217 0.78144
 O596 O 0.73546 0.71993 0.76138
 Zr597 Zr 0.77548 0.77039 0.73687
 O598 O 0.75797 0.74973 0.71445
 Zr599 Zr 0.72749 0.78704 0.76357
 O600 O 0.70741 0.76726 0.74248
 O601 O 0.71998 0.73049 0.72380
 O602 O 0.75961 0.77460 0.76882
 C603 C 0.74092 0.72380 0.67892
 C604 C 0.71101 0.68488 0.73917
 C605 C 0.67525 0.74518 0.71499
 C606 C 0.74176 0.78280 0.81285
 C607 C 0.80373 0.76125 0.77821
 C608 C 0.76947 0.81915 0.75615
 H609 H 0.78651 0.73047 0.75121
 H610 H 0.74564 0.79960 0.72411
 H611 H 0.71137 0.72067 0.71374
 H612 H 0.71289 0.75586 0.79257
 H613 H 0.73078 0.71156 0.80346
 H614 H 0.69524 0.72157 0.79673
 H615 H 0.77923 0.80003 0.70489
 H616 H 0.75536 0.77782 0.68164
 H617 H 0.78363 0.70976 0.78157
 H618 H 0.76325 0.68702 0.75632
 H619 H 0.71705 0.82059 0.73858
 H620 H 0.69818 0.79662 0.71300
 H621 H 0.78874 0.72033 0.70356
 H622 H 0.81021 0.74579 0.72452
 H623 H 0.67139 0.76203 0.76653
 H624 H 0.69182 0.78677 0.79140
 O625 O 0.28942 0.20059 0.75465
 O626 O 0.29492 0.21999 0.72034
 O627 O 0.29089 0.25582 0.80246
 O628 O 0.27106 0.28597 0.81172
 O629 O 0.23993 0.20266 0.81001
 O630 O 0.20543 0.19517 0.79270
 O631 O 0.22661 0.30896 0.74744
 O632 O 0.26366 0.31344 0.75903
 O633 O 0.22968 0.25783 0.69842
 O634 O 0.24175 0.21935 0.69668
 O635 O 0.17830 0.25698 0.75152
 O636 O 0.17635 0.24601 0.79007
 O637 O 0.19581 0.29312 0.76620
 O638 O 0.19196 0.27282 0.80359
 O639 O 0.19408 0.24165 0.71932
 O640 O 0.21558 0.20474 0.71424
 O641 O 0.24436 0.29048 0.71179
 O642 O 0.28042 0.29768 0.72924
 O643 O 0.25827 0.18390 0.77203
 O644 O 0.21915 0.18111 0.76289
 O645 O 0.25512 0.23484 0.82392
 O646 O 0.23856 0.27335 0.82424
 O647 O 0.30719 0.23895 0.77127
 O648 O 0.30768 0.25023 0.73242
 Zr649 Zr 0.27995 0.23419 0.75025
 O650 O 0.25950 0.25265 0.72948
 Zr651 Zr 0.25633 0.25740 0.79665
 O652 O 0.23560 0.27777 0.77782
 Zr653 Zr 0.23462 0.21013 0.77636
 O654 O 0.21212 0.22827 0.75739
 Zr655 Zr 0.25069 0.28324 0.74542
 O656 O 0.27306 0.26572 0.76541
 Zr657 Zr 0.22825 0.23595 0.72598
 O658 O 0.25008 0.21582 0.74412
 Zr659 Zr 0.20546 0.25984 0.77246
 O660 O 0.22533 0.24024 0.79319
 O661 O 0.26511 0.22664 0.78184
 O662 O 0.21982 0.26706 0.74042
 C663 C 0.27859 0.18332 0.76291
 C664 C 0.30817 0.24816 0.79080
 C665 C 0.24784 0.21440 0.82605
 C666 C 0.20622 0.30976 0.75627
 C667 C 0.23650 0.27835 0.69598
 C668 C 0.17718 0.24986 0.73125
 H669 H 0.26785 0.25490 0.71478
 H670 H 0.19803 0.21933 0.75591
 H671 H 0.27531 0.21774 0.79085
 H672 H 0.23274 0.29220 0.78583
 H673 H 0.27621 0.30913 0.76837
 H674 H 0.26608 0.29935 0.80364
 H675 H 0.20128 0.20114 0.72310
 H676 H 0.22580 0.17933 0.74733
 H677 H 0.28556 0.28772 0.71661
 H678 H 0.30916 0.26548 0.73909
 H679 H 0.17441 0.23035 0.78466
 H680 H 0.19872 0.20674 0.80307
 H681 H 0.28352 0.20938 0.71459
 H682 H 0.25698 0.22595 0.69288
 H683 H 0.22541 0.26351 0.82880
 H684 H 0.19985 0.28728 0.80649
 O685 O 0.31714 0.73884 0.23360
 O686 O 0.31394 0.74728 0.27265
 O687 O 0.26549 0.68589 0.22974
 O688 O 0.22848 0.68224 0.23667
 O689 O 0.27045 0.74016 0.18097
 O690 O 0.25828 0.77789 0.18189
 O691 O 0.19815 0.74152 0.28738
 O692 O 0.21679 0.70679 0.29000
 O693 O 0.24902 0.79108 0.29552
 O694 O 0.28722 0.79816 0.27825
 O695 O 0.20649 0.79679 0.24347
 O696 O 0.20420 0.77900 0.20633
 O697 O 0.18671 0.76073 0.25730
 O698 O 0.18928 0.75005 0.21674
 O699 O 0.23669 0.81144 0.26074
 O700 O 0.27812 0.81313 0.25047
 O701 O 0.23155 0.75895 0.30840
 O702 O 0.24476 0.72043 0.30846
 O703 O 0.30503 0.75753 0.20349
 O704 O 0.28462 0.79170 0.19919
 O705 O 0.25274 0.70785 0.19300
 O706 O 0.21441 0.70276 0.21140
 O707 O 0.29563 0.70003 0.24750
 O708 O 0.29742 0.71782 0.28354
 Zr709 Zr 0.28719 0.73395 0.25437
 O710 O 0.26546 0.75303 0.27633
 Zr711 Zr 0.24384 0.71348 0.22736
 O712 O 0.22020 0.73122 0.24857
 Zr713 Zr 0.26979 0.76064 0.20986
 O714 O 0.24710 0.78059 0.22974
 Zr715 Zr 0.23329 0.73730 0.28007
 O716 O 0.25581 0.71685 0.25988
 Zr717 Zr 0.25927 0.78438 0.26190
 O718 O 0.28334 0.76646 0.24123
 Zr719 Zr 0.21585 0.76350 0.23529
 O720 O 0.23766 0.74480 0.21277
 O721 O 0.27567 0.72879 0.22246
 O722 O 0.22731 0.76917 0.26725
 C723 C 0.32075 0.74914 0.21476
 C724 C 0.28482 0.68377 0.23829
 C725 C 0.26258 0.72023 0.17758
 C726 C 0.18292 0.75133 0.27653
 C727 C 0.23864 0.77934 0.31106
 C728 C 0.21692 0.81303 0.25302
 H729 H 0.27243 0.75491 0.29088
 H730 H 0.24542 0.79523 0.22227
 H731 H 0.28648 0.71990 0.21270
 H732 H 0.20579 0.72253 0.25012
 H733 H 0.22636 0.69437 0.28373
 H734 H 0.21687 0.68533 0.24895
 H735 H 0.27129 0.81864 0.23681
 H736 H 0.29426 0.79693 0.21127
 H737 H 0.25906 0.72773 0.31268
 H738 H 0.28503 0.70714 0.28828
 H739 H 0.21485 0.79148 0.20211
 H740 H 0.24284 0.77193 0.17954
 H741 H 0.31568 0.76332 0.26832
 H742 H 0.29108 0.78758 0.29014
 H743 H 0.21145 0.71422 0.19998
 H744 H 0.18398 0.73580 0.22394
 O745 O 0.17129 0.73882 0.76548
 O746 O 0.17051 0.75260 0.72807
 O747 O 0.22218 0.68714 0.75722
 O748 O 0.25865 0.68473 0.74696
 O749 O 0.22382 0.73575 0.81295
 O750 O 0.23549 0.77421 0.81491
 O751 O 0.28457 0.74977 0.70162
 O752 O 0.26566 0.71476 0.69700
 O753 O 0.23305 0.79827 0.70332
 O754 O 0.19665 0.80284 0.72639
 O755 O 0.28139 0.79983 0.75244
 O756 O 0.28695 0.77794 0.78643
 O757 O 0.29980 0.76484 0.73252
 O758 O 0.30090 0.75107 0.77124
 O759 O 0.25018 0.81534 0.73862
 O760 O 0.21068 0.81663 0.75283
 O761 O 0.24977 0.76793 0.68616
 O762 O 0.23611 0.72977 0.68277
 O763 O 0.18646 0.75378 0.79648
 O764 O 0.20679 0.78829 0.80234
 O765 O 0.23910 0.70500 0.79519
 O766 O 0.27530 0.70236 0.77311
 O767 O 0.19060 0.70303 0.74447
 O768 O 0.18520 0.72468 0.71190
 Zr769 Zr 0.19892 0.73740 0.74148
 O770 O 0.21877 0.75873 0.71995
 Zr771 Zr 0.24458 0.71452 0.76138
 O772 O 0.26648 0.73478 0.74061
 Zr773 Zr 0.22100 0.75912 0.78682
 O774 O 0.24191 0.78143 0.76727
 Zr775 Zr 0.25033 0.74383 0.71167
 O776 O 0.22938 0.72119 0.73106
 Zr777 Zr 0.22682 0.78848 0.73710
 O778 O 0.20455 0.76828 0.75794
 Zr779 Zr 0.27254 0.76560 0.75700
 O780 O 0.25267 0.74418 0.77890
 O781 O 0.21348 0.72877 0.77110
 O782 O 0.25813 0.77435 0.72722
 C783 C 0.16963 0.74614 0.78585
 C784 C 0.20202 0.68592 0.75018
 C785 C 0.23166 0.71562 0.81296
 C786 C 0.30134 0.75774 0.71207
 C787 C 0.24202 0.78803 0.68593
 C788 C 0.27042 0.81667 0.74534
 H789 H 0.21036 0.76187 0.70652
 H790 H 0.24451 0.79525 0.77616
 H791 H 0.20366 0.71858 0.78064
 H792 H 0.28064 0.72649 0.73673
 H793 H 0.25634 0.70164 0.70236
 H794 H 0.26945 0.68930 0.73442
 H795 H 0.21764 0.81930 0.76731
 H796 H 0.19636 0.79461 0.79168
 H797 H 0.22144 0.73715 0.68076
 H798 H 0.19693 0.71486 0.70451
 H799 H 0.27704 0.78999 0.79285
 H800 H 0.25099 0.76808 0.81537
 H801 H 0.16892 0.76761 0.73532
 H802 H 0.19184 0.79401 0.71333
 H803 H 0.27976 0.71274 0.78520
 H804 H 0.30473 0.73713 0.76271
 O805 O 0.26444 0.31557 0.27894
 O806 O 0.22666 0.31915 0.26811
 O807 O 0.25715 0.25945 0.32530
 O808 O 0.24431 0.22406 0.32426
 O809 O 0.31280 0.26137 0.27575
 O810 O 0.31638 0.25346 0.23661
 O811 O 0.20122 0.20714 0.25815
 O812 O 0.19515 0.22210 0.29506
 O813 O 0.20495 0.26272 0.21528
 O814 O 0.22682 0.29877 0.21446
 O815 O 0.25314 0.21350 0.20815
 O816 O 0.28759 0.20418 0.22707
 O817 O 0.23352 0.19227 0.24174
 O818 O 0.27268 0.18858 0.25366
 O819 O 0.24064 0.24710 0.19616
 O820 O 0.25546 0.28628 0.19964
 O821 O 0.18595 0.24462 0.24432
 O822 O 0.18121 0.25386 0.28389
 O823 O 0.29641 0.30054 0.26195
 O824 O 0.30356 0.28378 0.22550
 O825 O 0.29440 0.24257 0.30465
 O826 O 0.27193 0.20765 0.30427
 O827 O 0.24304 0.29281 0.31415
 O828 O 0.21003 0.30166 0.29444
 Zr829 Zr 0.24049 0.28876 0.27912
 O830 O 0.21970 0.27255 0.25620
 Zr831 Zr 0.26044 0.24002 0.29583
 O832 O 0.24010 0.22169 0.27410
 Zr833 Zr 0.28720 0.26738 0.25352
 O834 O 0.26846 0.25002 0.22975
 Zr835 Zr 0.21093 0.23998 0.26765
 O836 O 0.22977 0.25710 0.29191
 Zr837 Zr 0.23817 0.26720 0.22541
 O838 O 0.25812 0.28600 0.24737
 Zr839 Zr 0.25779 0.21847 0.24255
 O840 O 0.27916 0.23469 0.26512
 O841 O 0.27034 0.27203 0.28481
 O842 O 0.22793 0.23510 0.23631
 C843 C 0.28526 0.31701 0.27116
 C844 C 0.24990 0.27949 0.32922
 C845 C 0.31243 0.25111 0.29470
 C846 C 0.21252 0.19087 0.24871
 C847 C 0.18699 0.25361 0.22471
 C848 C 0.24654 0.22653 0.19276
 H849 H 0.20615 0.28177 0.25424
 H850 H 0.27783 0.24858 0.21550
 H851 H 0.27974 0.28028 0.29545
 H852 H 0.23606 0.20693 0.28091
 H853 H 0.20013 0.22944 0.30893
 H854 H 0.23245 0.21381 0.31881
 H855 H 0.26925 0.27796 0.19441
 H856 H 0.29300 0.29545 0.22080
 H857 H 0.17947 0.26936 0.27834
 H858 H 0.20278 0.28922 0.30336
 H859 H 0.29436 0.21522 0.21618
 H860 H 0.31641 0.23731 0.24067
 H861 H 0.23325 0.32161 0.25263
 H862 H 0.21312 0.30286 0.22396
 H863 H 0.28472 0.20392 0.29340
 H864 H 0.26347 0.18323 0.26705
 O865 O 0.79222 0.69927 0.24080
 O866 O 0.79959 0.71780 0.20604
 O867 O 0.80013 0.75434 0.28768
 O868 O 0.78367 0.78668 0.29646
 O869 O 0.74360 0.70686 0.29612
 O870 O 0.70846 0.70316 0.27923
 O871 O 0.74211 0.81424 0.23282
 O872 O 0.77929 0.81429 0.24323
 O873 O 0.73951 0.76158 0.18377
 O874 O 0.74706 0.72208 0.18288
 O875 O 0.68809 0.76725 0.23644
 O876 O 0.68491 0.75684 0.27545
 O877 O 0.70941 0.80165 0.25091
 O878 O 0.70308 0.78211 0.28844
 O879 O 0.70181 0.74881 0.20506
 O880 O 0.71956 0.71065 0.20031
 O881 O 0.75684 0.79312 0.19671
 O882 O 0.79370 0.79653 0.21375
 O883 O 0.75986 0.68601 0.25908
 O884 O 0.72060 0.68738 0.24926
 O885 O 0.76141 0.73780 0.30979
 O886 O 0.75016 0.77787 0.30938
 O887 O 0.81408 0.73568 0.25650
 O888 O 0.81571 0.74639 0.21773
 Zr889 Zr 0.78643 0.73365 0.23587
 O890 O 0.76810 0.75403 0.21495
 Zr891 Zr 0.76575 0.75969 0.28200
 O892 O 0.74722 0.78197 0.26287
 Zr893 Zr 0.73903 0.71469 0.26251
 O894 O 0.71857 0.73499 0.24330
 Zr895 Zr 0.76269 0.78561 0.23037
 O896 O 0.78307 0.76592 0.25055
 Zr897 Zr 0.73535 0.74050 0.21176
 O898 O 0.75487 0.71831 0.23015
 Zr899 Zr 0.71530 0.76740 0.25763
 O900 O 0.73305 0.74596 0.27868
 O901 O 0.77109 0.72802 0.26768
 O902 O 0.73028 0.77268 0.22546
 C903 C 0.77990 0.68330 0.24970
 C904 C 0.81637 0.74488 0.27583
 C905 C 0.75233 0.71805 0.31203
 C906 C 0.72188 0.81725 0.24145
 C907 C 0.74834 0.78131 0.18103
 C908 C 0.68598 0.75917 0.21662
 H909 H 0.77666 0.75520 0.20022
 H910 H 0.70362 0.72753 0.24200
 H911 H 0.78029 0.71823 0.27686
 H912 H 0.74599 0.79669 0.27072
 H913 H 0.79119 0.80867 0.25272
 H914 H 0.78017 0.80044 0.28814
 H915 H 0.70562 0.70785 0.21002
 H916 H 0.72759 0.68429 0.23404
 H917 H 0.79749 0.78611 0.20109
 H918 H 0.81867 0.76162 0.22388
 H919 H 0.68119 0.74148 0.27014
 H920 H 0.70298 0.71566 0.28916
 H921 H 0.78732 0.70790 0.20081
 H922 H 0.76288 0.72701 0.17895
 H923 H 0.73562 0.77006 0.31369
 H924 H 0.71274 0.79544 0.29135
 O925 O 0.76111 0.17744 0.74528
 O926 O 0.72166 0.18041 0.75726
 O927 O 0.76732 0.22597 0.69180
 O928 O 0.76439 0.26249 0.68729
 O929 O 0.81718 0.22448 0.74407
 O930 O 0.81598 0.23785 0.78181
 O931 O 0.71398 0.29478 0.74824
 O932 O 0.71100 0.27516 0.71371
 O933 O 0.70058 0.24503 0.79803
 O934 O 0.71762 0.20863 0.80619
 O935 O 0.75701 0.28978 0.80085
 O936 O 0.79531 0.29104 0.78185
 O937 O 0.74585 0.30785 0.76379
 O938 O 0.78664 0.30447 0.75315
 O939 O 0.73627 0.26101 0.81690
 O940 O 0.74460 0.22092 0.82080
 O941 O 0.69066 0.26284 0.76651
 O942 O 0.69007 0.24772 0.72866
 O943 O 0.79232 0.19033 0.76216
 O944 O 0.79656 0.21140 0.79628
 O945 O 0.80611 0.23960 0.71166
 O946 O 0.79043 0.27725 0.70612
 O947 O 0.74737 0.19672 0.70799
 O948 O 0.71131 0.19493 0.72788
 Zr949 Zr 0.74152 0.20653 0.74173
 O950 O 0.72048 0.22890 0.76067
 Zr951 Zr 0.77198 0.24862 0.71851
 O952 O 0.75210 0.27289 0.73629
 Zr953 Zr 0.78751 0.22530 0.76556
 O954 O 0.76848 0.24864 0.78551
 Zr955 Zr 0.71932 0.25999 0.74409
 O956 O 0.73826 0.23667 0.72375
 Zr957 Zr 0.73494 0.23667 0.79113
 O958 O 0.75473 0.21202 0.77335
 Zr959 Zr 0.76538 0.27883 0.76777
 O960 O 0.78686 0.25638 0.74886
 O961 O 0.77463 0.21793 0.73458
 O962 O 0.73211 0.26762 0.77514
 C963 C 0.78026 0.17441 0.75398
 C964 C 0.75703 0.20677 0.69088
 C965 C 0.82118 0.23113 0.72372
 C966 C 0.72634 0.31076 0.75585
 C967 C 0.68628 0.25533 0.78645
 C968 C 0.74578 0.28058 0.81761
 H969 H 0.70528 0.22187 0.76318
 H970 H 0.77589 0.25116 0.79976
 H971 H 0.78385 0.20703 0.72538
 H972 H 0.75166 0.28673 0.72720
 H973 H 0.71662 0.26505 0.70135
 H974 H 0.75250 0.27389 0.69041
 H975 H 0.75955 0.22722 0.82444
 H976 H 0.78335 0.20226 0.80212
 H977 H 0.68425 0.23424 0.73690
 H978 H 0.70687 0.20677 0.71744
 H979 H 0.79822 0.28147 0.79486
 H980 H 0.81960 0.25286 0.77528
 H981 H 0.72731 0.17839 0.77241
 H982 H 0.70589 0.20357 0.79603
 H983 H 0.80221 0.28069 0.71682
 H984 H 0.78071 0.30835 0.73852
 C985 C 0.12866 0.98601 1.20844
 C986 C 0.11862 0.98440 1.18791
 C987 C 0.09734 0.99356 1.18530
 C988 C 0.08598 1.00437 1.20364
 C989 C 0.09595 1.00591 1.22431
 C990 C 0.11745 0.99637 1.22749
 N991 N 0.08812 0.99227 1.16365
 N992 N 0.06923 1.00104 1.15964
 C993 C 0.06034 0.99988 1.13782
 C994 C 0.03951 1.00995 1.13462
 C995 C 0.03037 1.00929 1.11356
 C996 C 0.04196 0.99848 1.09520
 C997 C 0.06295 0.98838 1.09847
 C998 C 0.07207 0.98906 1.11959
 H999 H 0.14548 0.97928 1.20886
 H1000 H 0.12772 0.97633 1.17376
 H1001 H 0.06961 1.01201 1.20192
 H1002 H 0.08706 1.01541 1.23760
 H1003 H 0.03034 1.01836 1.14851
 H1004 H 0.01419 1.01728 1.11172
 H1005 H 0.07233 0.97993 1.08473
 H1006 H 0.08826 0.98117 1.12165
 C1007 C 0.63011 0.47885 0.69672
 C1008 C 0.62083 0.47783 0.67574
 C1009 C 0.60033 0.48825 0.67225
 C1010 C 0.58885 0.49948 0.69029
 C1011 C 0.59802 0.50037 0.71144
 C1012 C 0.61884 0.48979 0.71539
 N1013 N 0.59218 0.48796 0.65004
 N1014 N 0.57456 0.49858 0.64509
 C1015 C 0.56657 0.49850 0.62281
 C1016 C 0.54693 0.51042 0.61894
 C1017 C 0.53837 0.51056 0.59760
 C1018 C 0.54934 0.49871 0.57953
 C1019 C 0.56933 0.48699 0.58338
 C1020 C 0.57787 0.48686 0.60484
 H1021 H 0.64658 0.47144 0.69784
 H1022 H 0.63008 0.46940 0.66190
 H1023 H 0.57312 0.50810 0.68793
 H1024 H 0.58932 0.51060 0.72426
 H1025 H 0.53811 0.51954 0.63258
 H1026 H 0.52299 0.51985 0.59535
 H1027 H 0.57819 0.47767 0.56991
 H1028 H 0.59317 0.47756 0.60739
 C1029 C 0.37852 -0.01352 0.71820
 C1030 C 0.39153 -0.01369 0.69792
 C1031 C 0.41271 -0.00276 0.69599
 C1032 C 0.42063 0.00841 0.71473
 C1033 C 0.40740 0.00891 0.73508
 C1034 C 0.38621 -0.00273 0.73767
 N1035 N 0.42583 -0.00225 0.67493
 N1036 N 0.41665 -0.00723 0.65673
 C1037 C 0.42878 -0.00757 0.63521
 C1038 C 0.41631 -0.00847 0.61600
 C1039 C 0.42738 -0.00904 0.59464
 C1040 C 0.45122 -0.00921 0.59215
 C1041 C 0.46377 -0.00862 0.61148
 C1042 C 0.45262 -0.00760 0.63290
 H1043 H 0.36218 -0.02166 0.71798
 H1044 H 0.38484 -0.02227 0.68360
 H1045 H 0.43671 0.01746 0.71335
 H1046 H 0.41351 0.01931 0.74845
 H1047 H 0.39791 -0.00859 0.61762
 H1048 H 0.41727 -0.00965 0.58006
 H1049 H 0.48217 -0.00866 0.61003
 H1050 H 0.46257 -0.00710 0.64757
 C1051 C -0.09399 0.51740 1.22928
 C1052 C -0.07996 0.51813 1.20950
 C1053 C -0.08172 0.50135 1.19311
 C1054 C -0.09636 0.48292 1.19744
 C1055 C -0.10996 0.48185 1.21739
 C1056 C -0.11018 0.49980 1.23317
 N1057 N -0.06923 0.50357 1.17186
 N1058 N -0.07676 0.49454 1.15432
 C1059 C -0.06509 0.49597 1.13263
 C1060 C -0.07749 0.49225 1.11367
 C1061 C -0.06684 0.49359 1.09216
 C1062 C -0.04340 0.49803 1.08933
 C1063 C -0.03082 0.50134 1.10839
 C1064 C -0.04166 0.50061 1.12995
 H1065 H -0.09285 0.53109 1.24130
 H1066 H -0.06839 0.53226 1.20654
 H1067 H -0.09730 0.46930 1.18533
 H1068 H -0.12023 0.46682 1.21999
 H1069 H -0.09553 0.48855 1.11559
 H1070 H -0.07685 0.49076 1.07774
 H1071 H -0.01271 0.50477 1.10657
 H1072 H -0.03177 0.50334 1.14446
 C1073 C -0.09394 0.48524 0.27667
 C1074 C -0.07922 0.48598 0.29422
 C1075 C -0.08060 0.50344 0.31007
 C1076 C -0.09613 0.52081 0.30753
 C1077 C -0.11055 0.52033 0.28983
 C1078 C -0.11064 0.50193 0.27457
 N1079 N -0.06663 0.50301 0.32892
 N1080 N -0.07138 0.51503 0.34632
 C1081 C -0.05833 0.51486 0.36577
 C1082 C -0.06858 0.52241 0.38618
 C1083 C -0.05719 0.52095 0.40593
 C1084 C -0.03502 0.51258 0.40544
 C1085 C -0.02423 0.50597 0.38483
 C1086 C -0.03595 0.50680 0.36508
 H1087 H -0.09262 0.47132 0.26483
 H1088 H -0.06708 0.47262 0.29575
 H1089 H -0.09700 0.53491 0.31918
 H1090 H -0.12128 0.53475 0.28830
 H1091 H -0.08577 0.52870 0.38688
 H1092 H -0.06578 0.52615 0.42169
 H1093 H -0.00717 0.49933 0.38419
 H1094 H -0.02769 0.50104 0.34940
 C1095 C 0.37157 1.01102 -0.19869
 C1096 C 0.38238 1.01412 -0.17876
 C1097 C 0.40510 1.00857 -0.17751
 C1098 C 0.41684 0.99890 -0.19627
 C1099 C 0.40587 0.99537 -0.21622
 C1100 C 0.38324 1.00254 -0.21840
 N1101 N 0.41531 1.01195 -0.15658
 N1102 N 0.43665 1.01139 -0.15462
 C1103 C 0.44600 1.01430 -0.13315
 C1104 C 0.46947 1.01735 -0.13203
 C1105 C 0.47904 1.01954 -0.11121
 C1106 C 0.46524 1.01830 -0.09113
 C1107 C 0.44165 1.01552 -0.09232
 C1108 C 0.43209 1.01368 -0.11312
 H1109 H 0.35384 1.01512 -0.19814
 H1110 H 0.37292 1.02087 -0.16412
 H1111 H 0.43421 0.99350 -0.19532
 H1112 H 0.41504 0.98636 -0.22967
 H1113 H 0.48036 1.01786 -0.14732
 H1114 H 0.49730 1.02148 -0.11082
 H1115 H 0.43059 1.01454 -0.07716
 H1116 H 0.41389 1.01130 -0.11352
 C1117 C 0.59239 0.48918 -0.23823
 C1118 C 0.57981 0.49022 -0.21748
 C1119 C 0.58967 0.49868 -0.19836
 C1120 C 0.61214 0.50666 -0.20039
 C1121 C 0.62467 0.50564 -0.22095
 C1122 C 0.61522 0.49713 -0.24065
 N1123 N 0.57723 0.49795 -0.17687
 N1124 N 0.58663 0.50375 -0.15898
 C1125 C 0.57536 0.50316 -0.13699
 C1126 C 0.58743 0.51037 -0.11871
 C1127 C 0.57713 0.51045 -0.09697
 C1128 C 0.55443 0.50322 -0.09303
 C1129 C 0.54242 0.49561 -0.11143
 C1130 C 0.55279 0.49560 -0.13324
 H1131 H 0.58456 0.48056 -0.25183
 H1132 H 0.56262 0.48350 -0.21612
 H1133 H 0.62038 0.51307 -0.18586
 H1134 H 0.64220 0.51084 -0.22082
 H1135 H 0.60488 0.51614 -0.12138
 H1136 H 0.58694 0.51639 -0.08328
 H1137 H 0.52491 0.48998 -0.10905
 H1138 H 0.54315 0.48986 -0.14712
 C1139 C 0.09143 -0.01002 0.27265
 C1140 C 0.07835 -0.01157 0.29300
 C1141 C 0.08669 -0.00314 0.31285
 C1142 C 0.10802 0.00759 0.31198
 C1143 C 0.12101 0.00932 0.29172
 C1144 C 0.11313 0.00072 0.27135
 N1145 N 0.07389 -0.00654 0.33383
 N1146 N 0.08255 -0.00210 0.35242
 C1147 C 0.07062 -0.00503 0.37386
 C1148 C 0.08191 0.00044 0.39314
 C1149 C 0.07068 -0.00105 0.41438
 C1150 C 0.04778 -0.00806 0.41676
 C1151 C 0.03663 -0.01424 0.39736
 C1152 C 0.04796 -0.01271 0.37605
 H1153 H 0.08504 -0.01877 0.25834
 H1154 H 0.06209 -0.02031 0.29347
 H1155 H 0.11499 0.01418 0.32712
 H1156 H 0.13768 0.01675 0.29255
 H1157 H 0.09941 0.00627 0.39165
 H1158 H 0.07985 0.00378 0.42890
 H1159 H 0.01900 -0.01965 0.39856
 H1160 H 0.03892 -0.01711 0.36134
 C1161 C 0.20834 1.12501 1.01203
 C1162 C 0.18728 1.11418 1.01352
 C1163 C 0.18566 1.09105 1.01718
 C1164 C 0.20549 1.07880 1.02018
 C1165 C 0.22681 1.08971 1.01874
 C1166 C 0.22866 1.11290 1.01355
 N1167 N 0.16359 1.08077 1.01729
 N1168 N 0.15964 1.05987 1.02046
 C1169 C 0.13697 1.05094 1.01959
 C1170 C 0.13270 1.02809 1.02400
 C1171 C 0.11077 1.01901 1.02266
 C1172 C 0.09275 1.03269 1.01670
 C1173 C 0.09713 1.05565 1.01244
 C1174 C 0.11895 1.06468 1.01390
 H1175 H 0.20884 1.14302 1.00916
 H1176 H 0.17208 1.12386 1.01156
 H1177 H 0.20451 1.06091 1.02359
 H1178 H 0.24163 1.07996 1.02185
 H1179 H 0.14640 1.01729 1.02837
 H1180 H 0.10799 1.00125 1.02604
 H1181 H 0.08369 1.06672 1.00794
 H1182 H 0.12173 1.08241 1.01038
 C1183 C 0.71332 0.62274 0.50865
 C1184 C 0.69247 0.61163 0.50839
 C1185 C 0.69026 0.59175 0.49618
 C1186 C 0.70912 0.58339 0.48331
 C1187 C 0.73010 0.59493 0.48309
 C1188 C 0.73295 0.61417 0.49682
 N1189 N 0.66831 0.58120 0.49665
 N1190 N 0.66483 0.56079 0.49102
 C1191 C 0.64217 0.55164 0.49205
 C1192 C 0.63880 0.52825 0.49209
 C1193 C 0.61678 0.51906 0.49391
 C1194 C 0.59776 0.53321 0.49523
 C1195 C 0.60120 0.55667 0.49490
 C1196 C 0.62317 0.56580 0.49351
 H1197 H 0.71385 0.63842 0.51800
 H1198 H 0.67787 0.61859 0.51781
 H1199 H 0.70747 0.56842 0.47302
 H1200 H 0.74400 0.58888 0.47205
 H1201 H 0.65326 0.51714 0.49100
 H1202 H 0.61462 0.50090 0.49388
 H1203 H 0.58689 0.56798 0.49587
 H1204 H 0.62529 0.58396 0.49342
 C1205 C 0.70638 0.37702 0.01453
 C1206 C 0.68614 0.38875 0.01358
 C1207 C 0.68558 0.40914 0.00214
 C1208 C 0.70575 0.41787 -0.00837
 C1209 C 0.72618 0.40614 -0.00737
 C1210 C 0.72704 0.38575 0.00467
 N1211 N 0.66411 0.41998 0.00097
 N1212 N 0.66139 0.43825 -0.00956
 C1213 C 0.63934 0.44816 -0.01022
 C1214 C 0.63708 0.46882 -0.02104
 C1215 C 0.61579 0.47902 -0.02143
 C1216 C 0.59631 0.46864 -0.01102
 C1217 C 0.59864 0.44770 -0.00052
 C1218 C 0.61988 0.43760 -0.00009
 H1219 H 0.70570 0.36074 0.02260
 H1220 H 0.67062 0.38161 0.02136
 H1221 H 0.70564 0.43343 -0.01772
 H1222 H 0.74119 0.41279 -0.01651
 H1223 H 0.65190 0.47714 -0.02898
 H1224 H 0.61466 0.49513 -0.02969
 H1225 H 0.58408 0.43917 0.00767
 H1226 H 0.62106 0.42157 0.00830
 C1227 C 0.22495 -0.09307 0.48897
 C1228 C 0.20565 -0.07962 0.48808
 C1229 C 0.18398 -0.08855 0.49370
 C1230 C 0.18178 -0.11129 0.49987
 C1231 C 0.20091 -0.12469 0.50074
 C1232 C 0.22298 -0.11573 0.49609
 N1233 N 0.16439 -0.07452 0.49293
 N1234 N 0.14465 -0.08232 0.49848
 C1235 C 0.12431 -0.06944 0.49829
 C1236 C 0.10383 -0.07988 0.50553
 C1237 C 0.08352 -0.06807 0.50601
 C1238 C 0.08326 -0.04543 0.49915
 C1239 C 0.10390 -0.03497 0.49163
 C1240 C 0.12432 -0.04688 0.49125
 H1241 H 0.24123 -0.08572 0.48362
 H1242 H 0.20757 -0.06224 0.48281
 H1243 H 0.16524 -0.11882 0.50395
 H1244 H 0.19852 -0.14224 0.50526
 H1245 H 0.10364 -0.09727 0.51094
 H1246 H 0.06800 -0.07675 0.51178
 H1247 H 0.10431 -0.01758 0.48623
 H1248 H 0.14002 -0.03850 0.48554
 C1249 C 0.28555 -0.12885 0.48212
 C1250 C 0.30729 -0.11953 0.48308
 C1251 C 0.31132 -0.10148 0.49747
 C1252 C 0.29319 -0.09268 0.51104
 C1253 C 0.27133 -0.10200 0.51013
 C1254 C 0.26687 -0.11991 0.49519
 N1255 N 0.33409 -0.09300 0.49835
 N1256 N 0.33940 -0.07655 0.51088
 C1257 C 0.36240 -0.06853 0.51140
 C1258 C 0.36699 -0.04904 0.52374
 C1259 C 0.38914 -0.04034 0.52385
 C1260 C 0.40718 -0.05115 0.51169
 C1261 C 0.40258 -0.07107 0.49977
 C1262 C 0.38040 -0.07964 0.49955
 H1263 H 0.28375 -0.14362 0.47162
 H1264 H 0.32124 -0.12676 0.47289
 H1265 H 0.29598 -0.07894 0.52264
 H1266 H 0.25788 -0.09544 0.52141
 H1267 H 0.35331 -0.04037 0.53301
 H1268 H 0.39208 -0.02503 0.53330
 H1269 H 0.41603 -0.07980 0.49019
 H1270 H 0.37732 -0.09483 0.48997
 C1271 C -0.20889 0.37315 0.99317
 C1272 C -0.18758 0.38341 0.99372
 C1273 C -0.18511 0.40444 1.00387
 C1274 C -0.20437 0.41525 1.01368
 C1275 C -0.22590 0.40497 1.01310
 C1276 C -0.22868 0.38399 1.00214
 N1277 N -0.16269 0.41393 1.00425
 N1278 N -0.15821 0.43279 1.01338
 C1279 C -0.13531 0.44135 1.01308
 C1280 C -0.13108 0.46262 1.02233
 C1281 C -0.10897 0.47160 1.02155
 C1282 C -0.09065 0.45938 1.01151
 C1283 C -0.09495 0.43783 1.00262
 C1284 C -0.11702 0.42892 1.00337
 H1285 H -0.20983 0.35643 0.98587
 H1286 H -0.17280 0.37471 0.98649
 H1287 H -0.20275 0.43139 1.02207
 H1288 H -0.24025 0.41325 1.02164
 H1289 H -0.14497 0.47236 1.02991
 H1290 H -0.10631 0.48823 1.02861
 H1291 H -0.08132 0.42793 0.99476
 H1292 H -0.11978 0.41238 0.99616
 C1293 C -0.20189 0.62772 0.48985
 C1294 C -0.18080 0.61746 0.48841
 C1295 C -0.17911 0.59432 0.49148
 C1296 C -0.19887 0.58146 0.49675
 C1297 C -0.22019 0.59184 0.49857
 C1298 C -0.22216 0.61510 0.49420
 N1299 N -0.15691 0.58479 0.48981
 N1300 N -0.15322 0.56372 0.48904
 C1301 C -0.13042 0.55545 0.48763
 C1302 C -0.12665 0.53249 0.48366
 C1303 C -0.10453 0.52407 0.48246
 C1304 C -0.08582 0.53851 0.48553
 C1305 C -0.08968 0.56158 0.48936
 C1306 C -0.11173 0.56999 0.49030
 H1307 H -0.20245 0.64578 0.48748
 H1308 H -0.16564 0.62761 0.48481
 H1309 H -0.19778 0.56358 0.49994
 H1310 H -0.23484 0.58168 0.50388
 H1311 H -0.14087 0.52110 0.48156
 H1312 H -0.10214 0.50618 0.47962
 H1313 H -0.07567 0.57315 0.49173
 H1314 H -0.11415 0.58782 0.49340
 C1315 C 0.27448 1.09357 -0.00717
 C1316 C 0.29497 1.08211 -0.01164
 C1317 C 0.31480 1.08937 -0.00184
 C1318 C 0.31387 1.10824 0.01247
 C1319 C 0.29354 1.11950 0.01706
 C1320 C 0.27312 1.11195 0.00807
 N1321 N 0.33581 1.07785 -0.00677
 N1322 N 0.35433 1.08607 -0.00018
 C1323 C 0.37599 1.07558 -0.00367
 C1324 C 0.39501 1.08709 0.00364
 C1325 C 0.41638 1.07722 0.00184
 C1326 C 0.41918 1.05542 -0.00729
 C1327 C 0.40006 1.04400 -0.01511
 C1328 C 0.37859 1.05401 -0.01332
 H1329 H 0.25975 1.08820 -0.01587
 H1330 H 0.29549 1.06788 -0.02313
 H1331 H 0.32898 1.11456 0.01997
 H1332 H 0.29411 1.13456 0.02735
 H1333 H 0.39319 1.10372 0.01110
 H1334 H 0.43064 1.08659 0.00798
 H1335 H 0.40160 1.02722 -0.02225
 H1336 H 0.36405 1.04481 -0.01907
 C1337 C 0.02876 1.22532 1.08700
 C1338 C 0.03070 1.20408 1.07678
 C1339 C 0.01982 1.18533 1.08674
 C1340 C 0.00708 1.18798 1.10718
 C1341 C 0.00502 1.20914 1.11733
 C1342 C 0.01513 1.22859 1.10717
 N1343 N 0.02201 1.16374 1.07599
 N1344 N 0.01368 1.14603 1.08536
 C1345 C 0.01491 1.12429 1.07489
 C1346 C 0.00503 1.10589 1.08645
 C1347 C 0.00455 1.08464 1.07629
 C1348 C 0.01398 1.08147 1.05424
 C1349 C 0.02450 1.09991 1.04290
 C1350 C 0.02495 1.12117 1.05313
 H1351 H 0.03871 1.23901 1.07941
 H1352 H 0.04108 1.20217 1.06127
 H1353 H -0.00120 1.17365 1.11547
 H1354 H -0.00437 1.20991 1.13339
 H1355 H -0.00271 1.10813 1.10326
 H1356 H -0.00361 1.07083 1.08556
 H1357 H 0.03196 1.09806 1.02594
 H1358 H 0.03273 1.13520 1.04390
 C1359 C 0.48729 0.69863 0.62358
 C1360 C 0.48947 0.67730 0.61382
 C1361 C 0.49965 0.67472 0.59225
 C1362 C 0.50743 0.69386 0.58024
 C1363 C 0.50513 0.71536 0.58992
 C1364 C 0.49479 0.71824 0.61177
 N1365 N 0.50211 0.65240 0.58324
 N1366 N 0.51243 0.64820 0.56433
 C1367 C 0.51436 0.62560 0.55582
 C1368 C 0.52504 0.62189 0.53454
 C1369 C 0.52606 0.60014 0.52533
 C1370 C 0.51637 0.58168 0.53733
 C1371 C 0.50629 0.58541 0.55902
 C1372 C 0.50527 0.60714 0.56817
 H1373 H 0.48035 0.69972 0.64079
 H1374 H 0.48366 0.66263 0.62334
 H1375 H 0.51553 0.69220 0.56353
 H1376 H 0.51197 0.72957 0.58035
 H1377 H 0.53219 0.63594 0.52489
 H1378 H 0.53398 0.59791 0.50860
 H1379 H 0.49869 0.57163 0.56877
 H1380 H 0.49703 0.60953 0.58474
 C1381 C -0.02878 0.72017 0.39603
 C1382 C -0.02934 0.70057 0.40879
 C1383 C -0.00949 0.69190 0.41654
 C1384 C 0.01098 0.70397 0.41279
 C1385 C 0.01148 0.72422 0.40074
 C1386 C -0.00825 0.73241 0.39121
 N1387 N -0.01064 0.67022 0.42698
 N1388 N 0.00643 0.65733 0.42708
 C1389 C 0.00467 0.63521 0.43661
 C1390 C 0.02174 0.61968 0.43094
 C1391 C 0.01993 0.59756 0.43880
 C1392 C 0.00118 0.59068 0.45295
 C1393 C -0.01578 0.60642 0.45902
 C1394 C -0.01419 0.62845 0.45071
 H1395 H -0.04470 0.72482 0.38963
 H1396 H -0.04525 0.69141 0.41165
 H1397 H 0.02657 0.69767 0.41896
 H1398 H 0.02758 0.73308 0.39805
 H1399 H 0.03630 0.62463 0.42006
 H1400 H 0.03343 0.58592 0.43408
 H1401 H -0.03036 0.60161 0.46996
 H1402 H -0.02761 0.64019 0.45535
 C1403 C 0.47053 1.23025 -0.10281
 C1404 C 0.47005 1.21090 -0.08965
 C1405 C 0.49002 1.20232 -0.08203
 C1406 C 0.51041 1.21443 -0.08596
 C1407 C 0.51082 1.23439 -0.09837
 C1408 C 0.49111 1.24217 -0.10828
 N1409 N 0.48923 1.18066 -0.07161
 N1410 N 0.50626 1.16767 -0.07273
 C1411 C 0.50516 1.14561 -0.06311
 C1412 C 0.52170 1.12994 -0.07009
 C1413 C 0.52056 1.10793 -0.06187
 C1414 C 0.50307 1.10138 -0.04607
 C1415 C 0.48663 1.11723 -0.03882
 C1416 C 0.48752 1.13912 -0.04746
 H1417 H 0.45455 1.23493 -0.10901
 H1418 H 0.45415 1.20179 -0.08647
 H1419 H 0.52603 1.20829 -0.07972
 H1420 H 0.52692 1.24322 -0.10116
 H1421 H 0.53533 1.13472 -0.08218
 H1422 H 0.53362 1.09616 -0.06753
 H1423 H 0.47302 1.11265 -0.02662
 H1424 H 0.47454 1.15098 -0.04181
 C1425 C 0.48777 0.30473 -0.12583
 C1426 C 0.48930 0.32616 -0.11635
 C1427 C 0.49617 0.32896 -0.09455
 C1428 C 0.50083 0.30989 -0.08190
 C1429 C 0.49907 0.28824 -0.09127
 C1430 C 0.49281 0.28518 -0.11364
 N1431 N 0.49875 0.35141 -0.08608
 N1432 N 0.50693 0.35586 -0.06727
 C1433 C 0.50934 0.37867 -0.05956
 C1434 C 0.51815 0.38281 -0.03864
 C1435 C 0.52006 0.40488 -0.03046
 C1436 C 0.51313 0.42323 -0.04314
 C1437 C 0.50475 0.41899 -0.06437
 C1438 C 0.50287 0.39695 -0.07250
 H1439 H 0.48348 0.30349 -0.14321
 H1440 H 0.48573 0.34076 -0.12629
 H1441 H 0.50607 0.31171 -0.06488
 H1442 H 0.50313 0.27419 -0.08093
 H1443 H 0.52329 0.36889 -0.02854
 H1444 H 0.52657 0.40750 -0.01403
 H1445 H 0.49927 0.43266 -0.07461
 H1446 H 0.49612 0.39423 -0.08880
 C1447 C -0.00885 -0.20410 0.37589
 C1448 C -0.00777 -0.18314 0.38636
 C1449 C -0.00310 -0.18141 0.40891
 C1450 C 0.00022 -0.20109 0.42118
 C1451 C -0.00099 -0.22233 0.41074
 C1452 C -0.00530 -0.22427 0.38770
 N1453 N -0.00192 -0.15933 0.41862
 N1454 N 0.00333 -0.15541 0.43867
 C1455 C 0.00404 -0.13274 0.44720
 C1456 C 0.00998 -0.12881 0.46927
 C1457 C 0.01022 -0.10685 0.47806
 C1458 C 0.00444 -0.08843 0.46486
 C1459 C -0.00118 -0.09246 0.44259
 C1460 C -0.00137 -0.11435 0.43385
 H1461 H -0.01203 -0.20461 0.35819
 H1462 H -0.01038 -0.16807 0.37674
 H1463 H 0.00371 -0.20007 0.43878
 H1464 H 0.00157 -0.23698 0.42087
 H1465 H 0.01423 -0.14279 0.47973
 H1466 H 0.01463 -0.10437 0.49528
 H1467 H -0.00567 -0.07873 0.43190
 H1468 H -0.00596 -0.11687 0.41669
 C1469 C 0.47419 -0.23360 0.59520
 C1470 C 0.47322 -0.21410 0.58237
 C1471 C 0.49210 -0.19987 0.57953
 C1472 C 0.51287 -0.20674 0.58724
 C1473 C 0.51403 -0.22667 0.59947
 C1474 C 0.49411 -0.23926 0.60595
 N1475 N 0.48944 -0.17820 0.56976
 N1476 N 0.50285 -0.16182 0.57351
 C1477 C 0.49976 -0.13986 0.56448
 C1478 C 0.51275 -0.12182 0.57213
 C1479 C 0.50993 -0.10009 0.56393
 C1480 C 0.49421 -0.09613 0.54763
 C1481 C 0.48108 -0.11429 0.54005
 C1482 C 0.48372 -0.13595 0.54850
 H1483 H 0.45890 -0.24358 0.59687
 H1484 H 0.45731 -0.20950 0.57557
 H1485 H 0.52808 -0.19656 0.58408
 H1486 H 0.53055 -0.23162 0.60448
 H1487 H 0.52509 -0.12461 0.58452
 H1488 H 0.52047 -0.08652 0.56993
 H1489 H 0.46885 -0.11180 0.52749
 H1490 H 0.47342 -0.14964 0.54238
 C1491 C 0.01018 0.27208 1.08133
 C1492 C 0.00891 0.29180 1.06880
 C1493 C 0.01382 0.31267 1.07835
 C1494 C 0.02127 0.31353 1.10020
 C1495 C 0.02267 0.29390 1.11271
 C1496 C 0.01693 0.27254 1.10381
 N1497 N 0.00954 0.33285 1.06634
 N1498 N 0.01063 0.35204 1.07589
 C1499 C 0.00605 0.37272 1.06498
 C1500 C 0.00855 0.39281 1.07696
 C1501 C 0.00484 0.41345 1.06692
 C1502 C -0.00156 0.41439 1.04459
 C1503 C -0.00471 0.39410 1.03273
 C1504 C -0.00087 0.37337 1.04284
 H1505 H 0.00393 0.25677 1.07380
 H1506 H 0.00281 0.29090 1.05204
 H1507 H 0.02522 0.32952 1.10803
 H1508 H 0.02731 0.29603 1.12977
 H1509 H 0.01370 0.39245 1.09408
 H1510 H 0.00731 0.42872 1.07660
 H1511 H -0.00953 0.39427 1.01549
 H1512 H -0.00306 0.35796 1.03334
 C1513 C 0.76042 0.33519 0.02420
 C1514 C 0.76378 0.32360 0.04410
 C1515 C 0.75767 0.33332 0.06502
 C1516 C 0.74819 0.35490 0.06583
 C1517 C 0.74474 0.36643 0.04604
 C1518 C 0.75002 0.35655 0.02474
 N1519 N 0.76147 0.32121 0.08519
 N1520 N 0.75716 0.32994 0.10454
 C1521 C 0.76029 0.31829 0.12508
 C1522 C 0.75432 0.32917 0.14544
 C1523 C 0.75586 0.31802 0.16584
 C1524 C 0.76350 0.29566 0.16628
 C1525 C 0.77015 0.28497 0.14577
 C1526 C 0.76851 0.29617 0.12533
 H1527 H 0.76643 0.32755 0.00845
 H1528 H 0.77156 0.30715 0.04321
 H1529 H 0.74367 0.36303 0.08177
 H1530 H 0.73818 0.38338 0.04743
 H1531 H 0.74802 0.34624 0.14546
 H1532 H 0.75067 0.32683 0.18126
 H1533 H 0.77606 0.26776 0.14546
 H1534 H 0.77330 0.28743 0.10978
 C1535 C 0.23207 0.86387 0.53883
 C1536 C 0.23390 0.85342 0.55949
 C1537 C 0.24729 0.83421 0.56112
 C1538 C 0.25890 0.82572 0.54178
 C1539 C 0.25720 0.83627 0.52103
 C1540 C 0.24309 0.85512 0.51893
 N1541 N 0.24957 0.82338 0.58227
 N1542 N 0.24083 0.83164 0.60054
 C1543 C 0.24244 0.82098 0.62184
 C1544 C 0.23253 0.83139 0.64110
 C1545 C 0.23284 0.82101 0.66205
 C1546 C 0.24307 0.79988 0.66407
 C1547 C 0.25346 0.78970 0.64470
 C1548 C 0.25316 0.80014 0.62378
 H1549 H 0.22249 0.87928 0.53879
 H1550 H 0.22509 0.86061 0.57427
 H1551 H 0.26963 0.81114 0.54286
 H1552 H 0.26714 0.82981 0.50657
 H1553 H 0.22424 0.84748 0.63980
 H1554 H 0.22468 0.82934 0.67657
 H1555 H 0.26155 0.77347 0.64561
 H1556 H 0.26098 0.79178 0.60913
 C1557 C 0.75445 0.62731 0.53872
 C1558 C 0.75456 0.63713 0.55994
 C1559 C 0.75722 0.66035 0.56227
 C1560 C 0.76130 0.67369 0.54303
 C1561 C 0.76176 0.66375 0.52158
 C1562 C 0.75692 0.64051 0.51906
 N1563 N 0.75524 0.66969 0.58444
 N1564 N 0.75258 0.69060 0.58848
 C1565 C 0.75001 0.69877 0.61116
 C1566 C 0.74378 0.72116 0.61521
 C1567 C 0.74041 0.72926 0.63725
 C1568 C 0.74347 0.71505 0.65561
 C1569 C 0.74986 0.69260 0.65144
 C1570 C 0.75301 0.68451 0.62946
 H1571 H 0.75177 0.60926 0.53759
 H1572 H 0.75187 0.62664 0.57469
 H1573 H 0.76421 0.69167 0.54459
 H1574 H 0.76590 0.67434 0.50721
 H1575 H 0.74135 0.73230 0.60127
 H1576 H 0.73568 0.74670 0.63988
 H1577 H 0.75238 0.68123 0.66518
 H1578 H 0.75782 0.66710 0.62679
 C1579 C 0.25503 0.12702 0.05363
 C1580 C 0.25434 0.13743 0.07465
 C1581 C 0.24904 0.16018 0.07695
 C1582 C 0.24394 0.17249 0.05789
 C1583 C 0.24465 0.16205 0.03666
 C1584 C 0.25110 0.13926 0.03403
 N1585 N 0.24891 0.17002 0.09894
 N1586 N 0.24399 0.19048 0.10325
 C1587 C 0.24445 0.19925 0.12571
 C1588 C 0.23849 0.22169 0.13008
 C1589 C 0.23906 0.23062 0.15186
 C1590 C 0.24569 0.21719 0.16967
 C1591 C 0.25157 0.19464 0.16517
 C1592 C 0.25096 0.18576 0.14347
 H1593 H 0.25885 0.10922 0.05260
 H1594 H 0.25789 0.12767 0.08928
 H1595 H 0.23925 0.19004 0.05942
 H1596 H 0.23972 0.17178 0.02254
 H1597 H 0.23344 0.23227 0.11658
 H1598 H 0.23437 0.24804 0.15471
 H1599 H 0.25671 0.18377 0.17843
 H1600 H 0.25565 0.16835 0.14059
 C1601 C 0.26695 0.16015 0.98775
 C1602 C 0.26871 0.17247 0.96769
 C1603 C 0.25671 0.16554 0.94924
 C1604 C 0.24313 0.14599 0.95102
 C1605 C 0.24127 0.13385 0.97091
 C1606 C 0.25231 0.14115 0.99012
 N1607 N 0.25864 0.17810 0.92869
 N1608 N 0.24913 0.17077 0.91142
 C1609 C 0.24971 0.18212 0.89032
 C1610 C 0.23944 0.17144 0.87253
 C1611 C 0.23901 0.18187 0.85170
 C1612 C 0.24879 0.20340 0.84823
 C1613 C 0.25922 0.21414 0.86616
 C1614 C 0.25972 0.20355 0.88708
 H1615 H 0.27713 0.16543 1.00139
 H1616 H 0.27971 0.18722 0.96642
 H1617 H 0.23405 0.13985 0.93691
 H1618 H 0.23134 0.11840 0.97097
 H1619 H 0.23164 0.15493 0.87490
 H1620 H 0.23079 0.17307 0.83837
 H1621 H 0.26696 0.23070 0.86405
 H1622 H 0.26771 0.21212 0.90068
 C1623 C 0.73984 0.66269 0.47559
 C1624 C 0.73808 0.67556 0.45613
 C1625 C 0.74885 0.66864 0.43569
 C1626 C 0.76118 0.64859 0.43490
 C1627 C 0.76325 0.63603 0.45424
 C1628 C 0.75364 0.64336 0.47533
 N1629 N 0.74692 0.68173 0.41578
 N1630 N 0.75206 0.67309 0.39656
 C1631 C 0.75153 0.68504 0.37587
 C1632 C 0.75244 0.67254 0.35589
 C1633 C 0.75258 0.68334 0.33521
 C1634 C 0.75232 0.70698 0.33413
 C1635 C 0.75176 0.71962 0.35422
 C1636 C 0.75114 0.70869 0.37503
 H1637 H 0.73038 0.66791 0.49082
 H1638 H 0.72793 0.69066 0.45688
 H1639 H 0.76927 0.64252 0.41924
 H1640 H 0.77232 0.62032 0.45248
 H1641 H 0.75296 0.65431 0.35638
 H1642 H 0.75320 0.67318 0.32000
 H1643 H 0.75148 0.73786 0.35382
 H1644 H 0.75069 0.71864 0.39035
 C1645 C 0.23219 0.83044 0.47665
 C1646 C 0.22929 0.81790 0.45696
 C1647 C 0.23362 0.82773 0.43583
 C1648 C 0.24058 0.85043 0.43461
 C1649 C 0.24364 0.86284 0.45412
 C1650 C 0.24031 0.85296 0.47556
 N1651 N 0.23123 0.81458 0.41577
 N1652 N 0.23358 0.82388 0.39658
 C1653 C 0.23258 0.81210 0.37563
 C1654 C 0.23577 0.82463 0.35594
 C1655 C 0.23701 0.81396 0.33503
 C1656 C 0.23503 0.79036 0.33335
 C1657 C 0.23092 0.77776 0.35314
 C1658 C 0.22980 0.78856 0.37422
 H1659 H 0.22769 0.82246 0.49256
 H1660 H 0.22347 0.80054 0.45817
 H1661 H 0.24382 0.85863 0.41855
 H1662 H 0.24892 0.88033 0.45250
 H1663 H 0.23788 0.84277 0.35685
 H1664 H 0.23993 0.82422 0.32015
 H1665 H 0.22935 0.75957 0.35237
 H1666 H 0.22732 0.77856 0.38930
 C1667 C 0.73307 0.33663 0.98133
 C1668 C 0.73020 0.32488 0.96118
 C1669 C 0.73903 0.33365 0.94068
 C1670 C 0.75021 0.35466 0.94049
 C1671 C 0.75315 0.36630 0.96051
 C1672 C 0.74569 0.35703 0.98149
 N1673 N 0.73672 0.32104 0.92028
 N1674 N 0.74441 0.32879 0.90142
 C1675 C 0.74328 0.31673 0.88061
 C1676 C 0.75267 0.32682 0.86100
 C1677 C 0.75309 0.31527 0.84049
 C1678 C 0.74406 0.29326 0.83920
 C1679 C 0.73416 0.28332 0.85890
 C1680 C 0.73380 0.29494 0.87947
 H1681 H 0.72542 0.32969 0.99678
 H1682 H 0.72103 0.30895 0.96154
 H1683 H 0.75675 0.36215 0.92486
 H1684 H 0.76143 0.38267 0.95952
 H1685 H 0.76002 0.34362 0.86169
 H1686 H 0.76078 0.32351 0.82571
 H1687 H 0.72705 0.26641 0.85854
 H1688 H 0.72644 0.28681 0.89445
 C1689 C 0.84149 0.47616 0.23958
 C1690 C 0.82878 0.45618 0.23844
 C1691 C 0.83158 0.43893 0.25379
 C1692 C 0.84587 0.44263 0.27148
 C1693 C 0.85833 0.46275 0.27288
 C1694 C 0.85761 0.47933 0.25602
 N1695 N 0.82064 0.41753 0.25054
 N1696 N 0.82660 0.40001 0.26076
 C1697 C 0.81654 0.37821 0.25756
 C1698 C 0.82598 0.35967 0.26771
 C1699 C 0.81692 0.33806 0.26489
 C1700 C 0.79798 0.33456 0.25197
 C1701 C 0.78849 0.35325 0.24173
 C1702 C 0.79776 0.37491 0.24441
 H1703 H 0.83970 0.48874 0.22675
 H1704 H 0.81749 0.45375 0.22495
 H1705 H 0.84765 0.42983 0.28408
 H1706 H 0.86870 0.46476 0.28706
 H1707 H 0.84048 0.36200 0.27783
 H1708 H 0.82460 0.32414 0.27316
 H1709 H 0.77391 0.35116 0.23169
 H1710 H 0.79020 0.38902 0.23636
 C1711 C 0.36706 0.95708 0.77222
 C1712 C 0.35678 0.93575 0.77213
 C1713 C 0.33657 0.93219 0.76159
 C1714 C 0.32634 0.95041 0.75153
 C1715 C 0.33651 0.97179 0.75168
 C1716 C 0.35713 0.97582 0.76218
 N1717 N 0.32740 0.90979 0.76042
 N1718 N 0.30983 0.90523 0.74979
 C1719 C 0.30077 0.88282 0.74827
 C1720 C 0.28074 0.87935 0.73727
 C1721 C 0.27112 0.85779 0.73590
 C1722 C 0.28149 0.83923 0.74547
 C1723 C 0.30191 0.84271 0.75611
 C1724 C 0.31145 0.86432 0.75754
 H1725 H 0.38320 0.95842 0.77970
 H1726 H 0.36499 0.92174 0.77973
 H1727 H 0.31084 0.94803 0.74291
 H1728 H 0.32880 0.98482 0.74222
 H1729 H 0.27243 0.89346 0.72996
 H1730 H 0.25543 0.85574 0.72753
 H1731 H 0.31030 0.82881 0.76370
 H1732 H 0.32704 0.86658 0.76603
 C1733 C 0.16757 0.97704 0.24351
 C1734 C 0.18004 0.95717 0.24455
 C1735 C 0.16992 0.93761 0.25367
 C1736 C 0.14727 0.93823 0.26212
 C1737 C 0.13493 0.95804 0.26138
 C1738 C 0.14479 0.97826 0.25257
 N1739 N 0.18240 0.91702 0.25324
 N1740 N 0.17228 0.89816 0.25667
 C1741 C 0.18390 0.87713 0.25641
 C1742 C 0.17110 0.85717 0.25559
 C1743 C 0.18180 0.83630 0.25459
 C1744 C 0.20556 0.83507 0.25488
 C1745 C 0.21837 0.85514 0.25630
 C1746 C 0.20764 0.87605 0.25686
 H1747 H 0.17557 0.99105 0.23449
 H1748 H 0.19735 0.95677 0.23736
 H1749 H 0.13889 0.92324 0.26899
 H1750 H 0.11735 0.95692 0.26731
 H1751 H 0.15277 0.85783 0.25533
 H1752 H 0.17149 0.82112 0.25364
 H1753 H 0.23672 0.85469 0.25646
 H1754 H 0.21785 0.89131 0.25764
 C1755 C 0.63085 0.45158 0.75057
 C1756 C 0.64073 0.43070 0.75346
 C1757 C 0.66358 0.42736 0.74736
 C1758 C 0.67651 0.44516 0.73761
 C1759 C 0.66650 0.46615 0.73437
 C1760 C 0.64360 0.47030 0.74185
 N1761 N 0.67258 0.40532 0.75014
 N1762 N 0.69369 0.40097 0.74832
 C1763 C 0.70154 0.37837 0.75081
 C1764 C 0.72471 0.37462 0.75281
 C1765 C 0.73275 0.35268 0.75504
 C1766 C 0.71772 0.33406 0.75489
 C1767 C 0.69446 0.33790 0.75291
 C1768 C 0.68642 0.35982 0.75104
 H1769 H 0.61290 0.45258 0.75483
 H1770 H 0.63036 0.41687 0.76029
 H1771 H 0.69405 0.44262 0.73179
 H1772 H 0.67655 0.47864 0.72500
 H1773 H 0.73655 0.38872 0.75265
 H1774 H 0.75079 0.35027 0.75637
 H1775 H 0.68245 0.32393 0.75280
 H1776 H 0.66842 0.36223 0.74945
 C1777 C 0.66813 0.51669 0.74457
 C1778 C 0.68028 0.53719 0.74402
 C1779 C 0.67120 0.55636 0.73466
 C1780 C 0.65015 0.55457 0.72513
 C1781 C 0.63820 0.53414 0.72535
 C1782 C 0.64684 0.51439 0.73480
 N1783 N 0.68272 0.57774 0.73617
 N1784 N 0.67217 0.59605 0.73353
 C1785 C 0.68254 0.61796 0.73481
 C1786 C 0.66846 0.63678 0.73635
 C1787 C 0.67771 0.65848 0.73790
 C1788 C 0.70137 0.66180 0.73747
 C1789 C 0.71557 0.64288 0.73553
 C1790 C 0.70622 0.62108 0.73443
 H1791 H 0.67489 0.50326 0.75418
 H1792 H 0.69625 0.53843 0.75202
 H1793 H 0.64258 0.56917 0.71793
 H1794 H 0.62167 0.53450 0.71874
 H1795 H 0.65018 0.63457 0.73657
 H1796 H 0.66634 0.67269 0.73919
 H1797 H 0.73386 0.64494 0.73522
 H1798 H 0.71743 0.60676 0.73312
 C1799 C 0.16421 0.02556 0.25872
 C1800 C 0.17553 0.04645 0.25824
 C1801 C 0.16597 0.06509 0.24845
 C1802 C 0.14497 0.06258 0.23894
 C1803 C 0.13384 0.04167 0.23904
 C1804 C 0.14336 0.02230 0.24838
 N1805 N 0.17752 0.08648 0.24888
 N1806 N 0.16762 0.10480 0.24469
 C1807 C 0.17915 0.12621 0.24486
 C1808 C 0.16638 0.14597 0.24561
 C1809 C 0.17713 0.16710 0.24665
 C1810 C 0.20094 0.16875 0.24644
 C1811 C 0.21374 0.14887 0.24503
 C1812 C 0.20295 0.12779 0.24444
 H1813 H 0.17154 0.01225 0.26810
 H1814 H 0.19147 0.04827 0.26621
 H1815 H 0.13703 0.07685 0.23152
 H1816 H 0.11749 0.04126 0.23203
 H1817 H 0.14802 0.14497 0.24584
 H1818 H 0.16684 0.18211 0.24765
 H1819 H 0.23211 0.14958 0.24498
 H1820 H 0.21319 0.11275 0.24369
 C1821 C 0.33213 0.02002 0.76766
 C1822 C 0.31930 0.03969 0.76808
 C1823 C 0.32848 0.05959 0.75889
 C1824 C 0.35051 0.05947 0.74867
 C1825 C 0.36333 0.03987 0.74816
 C1826 C 0.35452 0.01945 0.75747
 N1827 N 0.31577 0.07998 0.76124
 N1828 N 0.32447 0.09882 0.75502
 C1829 C 0.31258 0.11964 0.75747
 C1830 C 0.32370 0.13940 0.75010
 C1831 C 0.31277 0.16010 0.75215
 C1832 C 0.29039 0.16140 0.76168
 C1833 C 0.27930 0.14148 0.76929
 C1834 C 0.29030 0.12074 0.76720
 H1835 H 0.32483 0.00567 0.77669
 H1836 H 0.30246 0.03964 0.77644
 H1837 H 0.35814 0.07472 0.74159
 H1838 H 0.38047 0.04132 0.74098
 H1839 H 0.34090 0.13873 0.74265
 H1840 H 0.32187 0.17504 0.74610
 H1841 H 0.26207 0.14186 0.77667
 H1842 H 0.28141 0.10564 0.77310
 C1843 C 0.84099 0.52430 0.27267
 C1844 C 0.82719 0.54337 0.27381
 C1845 C 0.82885 0.55931 0.25662
 C1846 C 0.84343 0.55518 0.23757
 C1847 C 0.85709 0.53615 0.23634
 C1848 C 0.85725 0.52097 0.25451
 N1849 N 0.81641 0.57992 0.25901
 N1850 N 0.82065 0.59607 0.24539
 C1851 C 0.80953 0.61737 0.24684
 C1852 C 0.81767 0.63440 0.23233
 C1853 C 0.80802 0.65572 0.23338
 C1854 C 0.78973 0.66043 0.24890
 C1855 C 0.78126 0.64317 0.26332
 C1856 C 0.79121 0.62178 0.26241
 H1857 H 0.83972 0.51252 0.28650
 H1858 H 0.81568 0.54606 0.28842
 H1859 H 0.84444 0.56680 0.22362
 H1860 H 0.86744 0.53371 0.22098
 H1861 H 0.83176 0.63117 0.22026
 H1862 H 0.81484 0.66851 0.22188
 H1863 H 0.76722 0.64630 0.27547
 H1864 H 0.78465 0.60879 0.27379
 C1865 C 0.97070 0.25887 0.11816
 C1866 C 0.94852 0.25977 0.12756
 C1867 C 0.94376 0.25479 0.15011
 C1868 C 0.96141 0.24794 0.16314
 C1869 C 0.98367 0.24665 0.15363
 C1870 C 0.98920 0.25337 0.13114
 N1871 N 0.92074 0.25602 0.15901
 N1872 N 0.91541 0.25549 0.17999
 C1873 C 0.89225 0.25636 0.18862
 C1874 C 0.88770 0.25917 0.21172
 C1875 C 0.86533 0.25956 0.22079
 C1876 C 0.84702 0.25681 0.20687
 C1877 C 0.85163 0.25417 0.18359
 C1878 C 0.87407 0.25408 0.17450
 H1879 H 0.97287 0.26217 0.10046
 H1880 H 0.93491 0.26433 0.11712
 H1881 H 0.95791 0.24296 0.18046
 H1882 H 0.99626 0.23953 0.16382
 H1883 H 0.90155 0.26093 0.22274
 H1884 H 0.86242 0.26144 0.23882
 H1885 H 0.83792 0.25199 0.17245
 H1886 H 0.87721 0.25184 0.15654
 C1887 C 0.47017 0.75376 0.66062
 C1888 C 0.44926 0.75673 0.67264
 C1889 C 0.42915 0.74912 0.66384
 C1890 C 0.43022 0.73734 0.64339
 C1891 C 0.45099 0.73418 0.63148
 C1892 C 0.47155 0.74317 0.63917
 N1893 N 0.40783 0.75356 0.67575
 N1894 N 0.38917 0.74963 0.66674
 C1895 C 0.36746 0.75345 0.67804
 C1896 C 0.34800 0.74857 0.66659
 C1897 C 0.32647 0.75073 0.67739
 C1898 C 0.32404 0.75784 0.69997
 C1899 C 0.34366 0.76347 0.71123
 C1900 C 0.36523 0.76127 0.70035
 H1901 H 0.48484 0.76002 0.66861
 H1902 H 0.44872 0.76538 0.68873
 H1903 H 0.41495 0.73069 0.63644
 H1904 H 0.45077 0.72499 0.61575
 H1905 H 0.34956 0.74261 0.64935
 H1906 H 0.31176 0.74633 0.66817
 H1907 H 0.34242 0.76898 0.72862
 H1908 H 0.38009 0.76523 0.70949
 C1909 C 0.47336 0.25207 0.83694
 C1910 C 0.45385 0.25027 0.82474
 C1911 C 0.43282 0.25722 0.83421
 C1912 C 0.43160 0.26684 0.85580
 C1913 C 0.45093 0.26868 0.86796
 C1914 C 0.47224 0.26072 0.85920
 N1915 N 0.41278 0.25389 0.82207
 N1916 N 0.39335 0.25867 0.83118
 C1917 C 0.37253 0.25557 0.82042
 C1918 C 0.35241 0.26152 0.83240
 C1919 C 0.33160 0.25889 0.82281
 C1920 C 0.33047 0.25019 0.80087
 C1921 C 0.35078 0.24402 0.78884
 C1922 C 0.37171 0.24670 0.79855
 H1923 H 0.48902 0.24641 0.82865
 H1924 H 0.45509 0.24309 0.80796
 H1925 H 0.41560 0.27261 0.86352
 H1926 H 0.44904 0.27561 0.88483
 H1927 H 0.35289 0.26829 0.84930
 H1928 H 0.31638 0.26378 0.83266
 H1929 H 0.35050 0.23730 0.77191
 H1930 H 0.38715 0.24193 0.78902
 C1931 C 0.95134 0.76210 0.37212
 C1932 C 0.93107 0.76236 0.36139
 C1933 C 0.93011 0.75425 0.33951
 C1934 C 0.95002 0.74644 0.32802
 C1935 C 0.97060 0.74634 0.33869
 C1936 C 0.97162 0.75368 0.36127
 N1937 N 0.90850 0.75386 0.32982
 N1938 N 0.90510 0.74541 0.31062
 C1939 C 0.88283 0.74528 0.30216
 C1940 C 0.87952 0.73566 0.28110
 C1941 C 0.85792 0.73530 0.27257
 C1942 C 0.83919 0.74460 0.28504
 C1943 C 0.84260 0.75415 0.30626
 C1944 C 0.86416 0.75448 0.31473
 H1945 H 0.95100 0.76783 0.38943
 H1946 H 0.91584 0.76847 0.37041
 H1947 H 0.94965 0.74032 0.31089
 H1948 H 0.98538 0.74031 0.32906
 H1949 H 0.89372 0.72846 0.27126
 H1950 H 0.85594 0.72784 0.25616
 H1951 H 0.82863 0.76147 0.31633
 H1952 H 0.86619 0.76199 0.33110
 C1953 C 0.02081 0.72893 0.34885
 C1954 C 0.04167 0.72534 0.33677
 C1955 C 0.05767 0.74287 0.33395
 C1956 C 0.05255 0.76400 0.34339
 C1957 C 0.03215 0.76747 0.35587
 C1958 C 0.01551 0.75009 0.35895
 N1959 N 0.07943 0.73899 0.32247
 N1960 N 0.09161 0.75554 0.31505
 C1961 C 0.11411 0.75334 0.30484
 C1962 C 0.12316 0.77107 0.29164
 C1963 C 0.14545 0.77027 0.28233
 C1964 C 0.15937 0.75194 0.28661
 C1965 C 0.15039 0.73422 0.30012
 C1966 C 0.12780 0.73478 0.30899
 H1967 H 0.00894 0.71491 0.35090
 H1968 H 0.04540 0.70883 0.32971
 H1969 H 0.06477 0.77776 0.34184
 H1970 H 0.03032 0.78390 0.36348
 H1971 H 0.11286 0.78558 0.28857
 H1972 H 0.15195 0.78420 0.27208
 H1973 H 0.16074 0.71985 0.30357
 H1974 H 0.12121 0.72106 0.31944
 C1975 C 0.52269 0.23777 0.85155
 C1976 C 0.54423 0.23452 0.84091
 C1977 C 0.55930 0.25271 0.83752
 C1978 C 0.55245 0.27426 0.84454
 C1979 C 0.53123 0.27750 0.85557
 C1980 C 0.51579 0.25928 0.85971
 N1981 N 0.58183 0.24896 0.82798
 N1982 N 0.59443 0.26534 0.82096
 C1983 C 0.61746 0.26246 0.81260
 C1984 C 0.62792 0.27941 0.79930
 C1985 C 0.65043 0.27721 0.79093
 C1986 C 0.66300 0.25826 0.79635
 C1987 C 0.65268 0.24154 0.81023
 C1988 C 0.62995 0.24350 0.81811
 H1989 H 0.51154 0.22324 0.85409
 H1990 H 0.54929 0.21775 0.83553
 H1991 H 0.56386 0.28861 0.84221
 H1992 H 0.52771 0.29445 0.86120
 H1993 H 0.61849 0.29420 0.79516
 H1994 H 0.65805 0.29034 0.78030
 H1995 H 0.66200 0.22671 0.81447
 H1996 H 0.62223 0.23036 0.82864
 C1997 C 0.52162 0.76516 0.64724
 C1998 C 0.54173 0.76815 0.65824
 C1999 C 0.55595 0.74994 0.66123
 C2000 C 0.54972 0.72860 0.65333
 C2001 C 0.52994 0.72564 0.64195
 C2002 C 0.51536 0.74391 0.63826
 N2003 N 0.57706 0.75347 0.67146
 N2004 N 0.58823 0.73694 0.67834
 C2005 C 0.60993 0.73964 0.68753
 C2006 C 0.61810 0.72209 0.70019
 C2007 C 0.63935 0.72395 0.70917
 C2008 C 0.65303 0.74322 0.70507
 C2009 C 0.64503 0.76066 0.69196
 C2010 C 0.62348 0.75900 0.68343
 H2011 H 0.51118 0.77978 0.64504
 H2012 H 0.54632 0.78475 0.66428
 H2013 H 0.56052 0.71423 0.65536
 H2014 H 0.52681 0.70884 0.63580
 H2015 H 0.60786 0.70702 0.70326
 H2016 H 0.64520 0.71022 0.71911
 H2017 H 0.65526 0.77570 0.68867
 H2018 H 0.61755 0.77263 0.67343
 C2019 C 0.03138 0.26443 0.15718
 C2020 C 0.04928 0.26520 0.17158
 C2021 C 0.06999 0.25510 0.16531
 C2022 C 0.07259 0.24421 0.14441
 C2023 C 0.05468 0.24310 0.13022
 C2024 C 0.03321 0.25247 0.13643
 N2025 N 0.08841 0.25654 0.17992
 N2026 N 0.10861 0.25215 0.17257
 C2027 C 0.12772 0.25278 0.18626
 C2028 C 0.14948 0.25270 0.17558
 C2029 C 0.16867 0.25315 0.18815
 C2030 C 0.16641 0.25321 0.21175
 C2031 C 0.14451 0.25290 0.22255
 C2032 C 0.12524 0.25292 0.20987
 H2033 H 0.01632 0.27388 0.16215
 H2034 H 0.04721 0.27428 0.18739
 H2035 H 0.08857 0.23654 0.13893
 H2036 H 0.05821 0.23498 0.11422
 H2037 H 0.15157 0.25243 0.15740
 H2038 H 0.18531 0.25314 0.17936
 H2039 H 0.14232 0.25295 0.24072
 H2040 H 0.10852 0.25279 0.21845
 C2041 C -0.08048 0.98766 0.78106
 C2042 C -0.06774 0.98608 0.80011
 C2043 C -0.07812 0.98891 0.82169
 C2044 C -0.10165 0.99232 0.82406
 C2045 C -0.11434 0.99378 0.80519
 C2046 C -0.10390 0.99266 0.78326
 N2047 N -0.06470 0.98851 0.84101
 N2048 N -0.07352 0.99371 0.86036
 C2049 C -0.06152 0.99386 0.88054
 C2050 C -0.07300 1.00142 0.90031
 C2051 C -0.06229 1.00190 0.92051
 C2052 C -0.03974 0.99463 0.92144
 C2053 C -0.02816 0.98698 0.90149
 C2054 C -0.03895 0.98666 0.88113
 H2055 H -0.07190 0.98479 0.76477
 H2056 H -0.04970 0.98281 0.79802
 H2057 H -0.11030 0.99399 0.84052
 H2058 H -0.13246 0.99642 0.80769
 H2059 H -0.09041 1.00699 0.90004
 H2060 H -0.07184 1.00779 0.93546
 H2061 H -0.01081 0.98125 0.90161
 H2062 H -0.02977 0.98071 0.86600
 C2063 C 0.41907 0.49224 0.26851
 C2064 C 0.43227 0.48981 0.28714
 C2065 C 0.42296 0.49396 0.30894
 C2066 C 0.40011 0.50029 0.31191
 C2067 C 0.38700 0.50271 0.29348
 C2068 C 0.39630 0.49945 0.27131
 N2069 N 0.43664 0.49159 0.32791
 N2070 N 0.42818 0.49558 0.34769
 C2071 C 0.44030 0.49392 0.36768
 C2072 C 0.42881 0.49957 0.38807
 C2073 C 0.43973 0.49876 0.40811
 C2074 C 0.46256 0.49215 0.40823
 C2075 C 0.47410 0.48615 0.38768
 C2076 C 0.46305 0.48708 0.36749
 H2077 H 0.42669 0.48797 0.25210
 H2078 H 0.44974 0.48446 0.28460
 H2079 H 0.39226 0.50331 0.32854
 H2080 H 0.36936 0.50733 0.29650
 H2081 H 0.41125 0.50481 0.38840
 H2082 H 0.43020 0.50337 0.42353
 H2083 H 0.49167 0.48099 0.38719
 H2084 H 0.47224 0.48260 0.35185
 C2085 C 0.58275 0.00417 0.26952
 C2086 C 0.57084 0.00382 0.29053
 C2087 C 0.58057 -0.00537 0.30908
 C2088 C 0.60231 -0.01460 0.30633
 C2089 C 0.61421 -0.01436 0.28536
 C2090 C 0.60467 -0.00535 0.26617
 N2091 N 0.56861 -0.00414 0.33070
 N2092 N 0.57751 -0.01068 0.34841
 C2093 C 0.56601 -0.00929 0.37022
 C2094 C 0.57705 -0.01694 0.38875
 C2095 C 0.56637 -0.01596 0.41030
 C2096 C 0.54432 -0.00726 0.41369
 C2097 C 0.53333 0.00062 0.39501
 C2098 C 0.54407 -0.00039 0.37345
 H2099 H 0.57512 0.01322 0.25631
 H2100 H 0.55428 0.01153 0.29254
 H2101 H 0.61041 -0.02154 0.32051
 H2102 H 0.63124 -0.02076 0.28467
 H2103 H 0.59399 -0.02376 0.38646
 H2104 H 0.57535 -0.02218 0.42426
 H2105 H 0.51637 0.00742 0.39699
 H2106 H 0.53522 0.00571 0.35936
 C2107 C 0.08135 0.48911 0.76300
 C2108 C 0.06810 0.49014 0.78336
 C2109 C 0.07687 0.49994 0.80244
 C2110 C 0.09884 0.50917 0.80078
 C2111 C 0.11193 0.50835 0.78061
 C2112 C 0.10355 0.49872 0.76088
 N2113 N 0.06399 0.49943 0.82365
 N2114 N 0.07378 0.50339 0.84175
 C2115 C 0.06240 0.50346 0.86364
 C2116 C 0.07566 0.50394 0.88230
 C2117 C 0.06545 0.50390 0.90403
 C2118 C 0.04167 0.50381 0.90748
 C2119 C 0.02832 0.50373 0.88869
 C2120 C 0.03862 0.50336 0.86687
 H2121 H 0.07454 0.47964 0.74934
 H2122 H 0.05134 0.48240 0.78448
 H2123 H 0.10621 0.51668 0.81531
 H2124 H 0.12896 0.51489 0.78114
 H2125 H 0.09402 0.50414 0.87995
 H2126 H 0.07618 0.50413 0.91815
 H2127 H 0.00995 0.50357 0.89087
 H2128 H 0.02808 0.50314 0.85262
 C2129 C 0.11964 0.48488 0.69735
 C2130 C 0.11019 0.48433 0.67653
 C2131 C 0.08856 0.49264 0.67406
 C2132 C 0.07638 0.50191 0.69278
 C2133 C 0.08599 0.50280 0.71372
 C2134 C 0.10766 0.49354 0.71681
 N2135 N 0.08019 0.49254 0.65204
 N2136 N 0.05960 0.49629 0.64824
 C2137 C 0.05243 0.49645 0.62569
 C2138 C 0.02926 0.49483 0.62205
 C2139 C 0.02193 0.49452 0.60017
 C2140 C 0.03771 0.49634 0.58156
 C2141 C 0.06095 0.49829 0.58527
 C2142 C 0.06827 0.49816 0.60712
 H2143 H 0.13674 0.47893 0.69759
 H2144 H 0.12000 0.47767 0.66206
 H2145 H 0.05987 0.50924 0.69103
 H2146 H 0.07678 0.51184 0.72711
 H2147 H 0.01688 0.49356 0.63619
 H2148 H 0.00390 0.49319 0.59781
 H2149 H 0.07349 0.49967 0.57127
 H2150 H 0.08629 0.49957 0.60950
 C2151 C 0.58367 0.98996 0.22073
 C2152 C 0.57242 0.99073 0.20078
 C2153 C 0.58282 1.00069 0.18162
 C2154 C 0.60465 1.01008 0.18266
 C2155 C 0.61591 1.00938 0.20256
 C2156 C 0.60558 0.99978 0.22239
 N2157 N 0.57139 1.00021 0.16108
 N2158 N 0.58080 1.00790 0.14289
 C2159 C 0.56998 1.00742 0.12204
 C2160 C 0.58175 1.01627 0.10297
 C2161 C 0.57187 1.01613 0.08229
 C2162 C 0.54990 1.00708 0.08028
 C2163 C 0.53813 0.99808 0.09950
 C2164 C 0.54808 0.99824 0.12023
 H2165 H 0.57551 0.98050 0.23446
 H2166 H 0.55580 0.98288 0.20007
 H2167 H 0.61329 1.01757 0.16794
 H2168 H 0.63303 1.01602 0.20196
 H2169 H 0.59866 1.02333 0.10418
 H2170 H 0.58147 1.02321 0.06790
 H2171 H 0.52119 0.99101 0.09858
 H2172 H 0.53867 0.99126 0.13478
 C2173 C 0.38337 0.48880 0.21010
 C2174 C 0.39304 0.49042 0.18822
 C2175 C 0.41161 0.50471 0.18329
 C2176 C 0.42055 0.51752 0.20066
 C2177 C 0.41089 0.51591 0.22268
 C2178 C 0.39246 0.50102 0.22803
 N2179 N 0.42049 0.50620 0.16041
 N2180 N 0.43729 0.51882 0.15419
 C2181 C 0.44571 0.51986 0.13111
 C2182 C 0.46533 0.53260 0.12546
 C2183 C 0.47445 0.53322 0.10324
 C2184 C 0.46398 0.52116 0.08616
 C2185 C 0.44394 0.50882 0.09182
 C2186 C 0.43493 0.50811 0.11408
 H2187 H 0.36824 0.47843 0.21259
 H2188 H 0.38569 0.48083 0.17488
 H2189 H 0.43471 0.52902 0.19718
 H2190 H 0.41762 0.52657 0.23557
 H2191 H 0.47377 0.54180 0.13839
 H2192 H 0.48985 0.54297 0.09950
 H2193 H 0.43546 0.49930 0.07915
 H2194 H 0.41966 0.49821 0.11797
 C2195 C -0.08806 0.01392 0.73701
 C2196 C -0.07747 0.01803 0.71571
 C2197 C -0.08503 0.00697 0.69669
 C2198 C -0.10330 -0.00833 0.69925
 C2199 C -0.11371 -0.01261 0.72043
 C2200 C -0.10586 -0.00217 0.73998
 N2201 N -0.07423 0.01156 0.67493
 N2202 N -0.08248 0.00382 0.65714
 C2203 C -0.07210 0.00721 0.63505
 C2204 C -0.08311 -0.00145 0.61668
 C2205 C -0.07297 0.00014 0.59494
 C2206 C -0.05145 0.01041 0.59116
 C2207 C -0.04067 0.01965 0.60965
 C2208 C -0.05091 0.01808 0.63142
 H2209 H -0.08245 0.02349 0.75122
 H2210 H -0.06366 0.03021 0.71396
 H2211 H -0.10979 -0.01685 0.68480
 H2212 H -0.12842 -0.02370 0.72118
 H2213 H -0.09945 -0.00987 0.61929
 H2214 H -0.08178 -0.00718 0.58118
 H2215 H -0.02411 0.02769 0.60738
 H2216 H -0.04209 0.02491 0.64540
 C2217 C -0.20885 0.87497 0.98780
 C2218 C -0.18758 0.88518 0.98866
 C2219 C -0.18528 0.90627 0.99868
 C2220 C -0.20455 0.91700 1.00850
 C2221 C -0.22597 0.90657 1.00801
 C2222 C -0.22872 0.88581 0.99663
 N2223 N -0.16295 0.91570 0.99940
 N2224 N -0.15897 0.93613 1.00460
 C2225 C -0.13606 0.94426 1.00522
 C2226 C -0.13169 0.96748 1.00527
 C2227 C -0.10932 0.97568 1.00502
 C2228 C -0.09104 0.96067 1.00516
 C2229 C -0.09554 0.93737 1.00552
 C2230 C -0.11781 0.92923 1.00539
 H2231 H -0.20955 0.85822 0.98057
 H2232 H -0.17271 0.87648 0.98163
 H2233 H -0.20296 0.93305 1.01706
 H2234 H -0.24032 0.91463 1.01679
 H2235 H -0.14559 0.97922 1.00517
 H2236 H -0.10635 0.99373 1.00492
 H2237 H -0.08182 0.92541 1.00559
 H2238 H -0.12076 0.91118 1.00549
 C2239 C 0.29333 0.37135 0.51574
 C2240 C 0.31521 0.38057 0.51451
 C2241 C 0.31877 0.40326 0.50936
 C2242 C 0.30001 0.41700 0.50629
 C2243 C 0.27796 0.40785 0.50772
 C2244 C 0.27423 0.38457 0.51161
 N2245 N 0.34162 0.41174 0.50717
 N2246 N 0.34658 0.43164 0.50056
 C2247 C 0.36964 0.43960 0.49834
 C2248 C 0.37418 0.46142 0.49041
 C2249 C 0.39651 0.46970 0.48820
 C2250 C 0.41474 0.45624 0.49398
 C2251 C 0.41009 0.43423 0.50176
 C2252 C 0.38778 0.42598 0.50390
 H2253 H 0.29127 0.35353 0.51929
 H2254 H 0.32953 0.36986 0.51718
 H2255 H 0.30237 0.43478 0.50280
 H2256 H 0.26412 0.41925 0.50574
 H2257 H 0.36036 0.47206 0.48602
 H2258 H 0.39942 0.48674 0.48220
 H2259 H 0.42368 0.42339 0.50636
 H2260 H 0.38473 0.40901 0.51002
 C2261 C 0.27361 0.58841 0.00050
 C2262 C 0.29412 0.57686 0.00160
 C2263 C 0.31489 0.58759 -0.00433
 C2264 C 0.31489 0.60994 -0.01184
 C2265 C 0.29456 0.62144 -0.01294
 C2266 C 0.27342 0.61090 -0.00714
 N2267 N 0.33582 0.57603 -0.00175
 N2268 N 0.35489 0.58596 -0.00587
 C2269 C 0.37638 0.57556 -0.00343
 C2270 C 0.39614 0.58798 -0.00928
 C2271 C 0.41751 0.57852 -0.00758
 C2272 C 0.41956 0.55634 0.00015
 C2273 C 0.39963 0.54398 0.00641
 C2274 C 0.37819 0.55349 0.00459
 H2275 H 0.25809 0.57997 0.00653
 H2276 H 0.29387 0.55973 0.00778
 H2277 H 0.33066 0.61880 -0.01630
 H2278 H 0.29541 0.63901 -0.01776
 H2279 H 0.39493 0.60505 -0.01540
 H2280 H 0.43242 0.58857 -0.01251
 H2281 H 0.40058 0.52683 0.01236
 H2282 H 0.36311 0.54361 0.00930
 C2283 C -0.23235 0.08858 0.49299
 C2284 C -0.21275 0.07546 0.49310
 C2285 C -0.19306 0.08411 0.50201
 C2286 C -0.19328 0.10591 0.51109
 C2287 C -0.21280 0.11884 0.51129
 C2288 C -0.23322 0.11044 0.50285
 N2289 N -0.17271 0.07109 0.50100
 N2290 N -0.15360 0.08058 0.50381
 C2291 C -0.13265 0.06872 0.50357
 C2292 C -0.11239 0.08126 0.50245
 C2293 C -0.09150 0.07049 0.50251
 C2294 C -0.09058 0.04691 0.50415
 C2295 C -0.11098 0.03431 0.50550
 C2296 C -0.13191 0.04513 0.50502
 H2297 H -0.24639 0.08183 0.48413
 H2298 H -0.21265 0.05886 0.48542
 H2299 H -0.17819 0.11318 0.51786
 H2300 H -0.21124 0.13571 0.51775
 H2301 H -0.11281 0.09947 0.50146
 H2302 H -0.07609 0.08066 0.50162
 H2303 H -0.11074 0.01611 0.50670
 H2304 H -0.14744 0.03515 0.50607
 C2305 C 0.70340 0.12547 0.49328
 C2306 C 0.68227 0.11496 0.49202
 C2307 C 0.67907 0.09259 0.49836
 C2308 C 0.69704 0.08102 0.50722
 C2309 C 0.71820 0.09173 0.50894
 C2310 C 0.72241 0.11380 0.50056
 N2311 N 0.65713 0.08251 0.49633
 N2312 N 0.65348 0.06137 0.49753
 C2313 C 0.63111 0.05209 0.49567
 C2314 C 0.62828 0.02873 0.49365
 C2315 C 0.60657 0.01924 0.49230
 C2316 C 0.58726 0.03301 0.49329
 C2317 C 0.59020 0.05649 0.49505
 C2318 C 0.61192 0.06596 0.49610
 H2319 H 0.70436 0.14293 0.48864
 H2320 H 0.66826 0.12435 0.48595
 H2321 H 0.69457 0.06397 0.51332
 H2322 H 0.73097 0.08274 0.51740
 H2323 H 0.64291 0.01787 0.49328
 H2324 H 0.60485 0.00108 0.49114
 H2325 H 0.57569 0.06755 0.49584
 H2326 H 0.61364 0.08408 0.49766
 C2327 C 0.20968 0.62184 1.00696
 C2328 C 0.18829 0.61205 1.00554
 C2329 C 0.18522 0.59333 0.99179
 C2330 C 0.20396 0.58442 0.97917
 C2331 C 0.22561 0.59429 0.98055
 C2332 C 0.22903 0.61276 0.99513
 N2333 N 0.16270 0.58431 0.99091
 N2334 N 0.15755 0.56709 0.97934
 C2335 C 0.13448 0.55909 0.97964
 C2336 C 0.12950 0.53867 0.96902
 C2337 C 0.10732 0.52989 0.97038
 C2338 C 0.08968 0.54151 0.98234
 C2339 C 0.09463 0.56239 0.99233
 C2340 C 0.11678 0.57106 0.99104
 H2341 H 0.21087 0.63697 1.01710
 H2342 H 0.17386 0.61934 1.01497
 H2343 H 0.20183 0.57016 0.96802
 H2344 H 0.23958 0.58772 0.96996
 H2345 H 0.14293 0.52931 0.96010
 H2346 H 0.10409 0.51381 0.96238
 H2347 H 0.08151 0.57183 1.00163
 H2348 H 0.12009 0.58699 0.99928
 C2349 C 0.22932 0.40058 0.48837
 C2350 C 0.21034 0.41332 0.48383
 C2351 C 0.19259 0.41607 0.50020
 C2352 C 0.19404 0.40597 0.52122
 C2353 C 0.21261 0.39277 0.52561
 C2354 C 0.23091 0.38986 0.50936
 N2355 N 0.17256 0.42786 0.49493
 N2356 N 0.15888 0.43535 0.51048
 C2357 C 0.13780 0.44566 0.50621
 C2358 C 0.12728 0.45919 0.52297
 C2359 C 0.10604 0.46846 0.52003
 C2360 C 0.09468 0.46377 0.50046
 C2361 C 0.10518 0.45005 0.48364
 C2362 C 0.12676 0.44125 0.48637
 H2363 H 0.24258 0.39843 0.47516
 H2364 H 0.20934 0.42083 0.46742
 H2365 H 0.18025 0.40742 0.53399
 H2366 H 0.21171 0.38427 0.54157
 H2367 H 0.13554 0.46248 0.53842
 H2368 H 0.09823 0.47882 0.53333
 H2369 H 0.09675 0.44624 0.46839
 H2370 H 0.13452 0.43054 0.47335
 C2371 C 0.70556 0.87679 0.00060
 C2372 C 0.68547 0.88842 -0.00108
 C2373 C 0.68594 0.91078 -0.00801
 C2374 C 0.70683 0.92128 -0.01428
 C2375 C 0.72714 0.90941 -0.01307
 C2376 C 0.72689 0.88725 -0.00453
 N2377 N 0.66476 0.92204 -0.00857
 N2378 N 0.66292 0.94327 -0.01039
 C2379 C 0.64087 0.95312 -0.01042
 C2380 C 0.63856 0.97639 -0.00729
 C2381 C 0.61698 0.98605 -0.00588
 C2382 C 0.59742 0.97251 -0.00793
 C2383 C 0.59990 0.94923 -0.01153
 C2384 C 0.62137 0.93962 -0.01267
 H2385 H 0.70449 0.85947 0.00619
 H2386 H 0.66941 0.88006 0.00336
 H2387 H 0.70740 0.93842 -0.02040
 H2388 H 0.74280 0.91758 -0.01908
 H2389 H 0.65345 0.98697 -0.00551
 H2390 H 0.61561 1.00407 -0.00326
 H2391 H 0.58521 0.93833 -0.01315
 H2392 H 0.62268 0.92158 -0.01519
 C2393 C -0.02718 0.76791 0.91800
 C2394 C -0.02729 0.78744 0.93143
 C2395 C -0.02291 0.80860 0.92173
 C2396 C -0.01919 0.81011 0.89832
 C2397 C -0.01912 0.79081 0.88498
 C2398 C -0.02215 0.76921 0.89455
 N2399 N -0.02207 0.82839 0.93565
 N2400 N -0.01635 0.84732 0.92698
 C2401 C -0.01481 0.86791 0.93942
 C2402 C -0.00698 0.88716 0.92788
 C2403 C -0.00480 0.90764 0.93917
 C2404 C -0.01058 0.90930 0.96236
 C2405 C -0.01870 0.88993 0.97395
 C2406 C -0.02074 0.86931 0.96257
 H2407 H -0.03127 0.75199 0.92606
 H2408 H -0.03072 0.78607 0.94943
 H2409 H -0.01622 0.82625 0.89023
 H2410 H -0.01621 0.79267 0.86697
 H2411 H -0.00242 0.88622 0.91002
 H2412 H 0.00137 0.92219 0.92966
 H2413 H -0.02329 0.89065 0.99182
 H2414 H -0.02688 0.85458 0.97178
 C2415 C 0.48198 0.26402 0.40916
 C2416 C 0.48008 0.28462 0.42069
 C2417 C 0.49295 0.30336 0.41323
 C2418 C 0.50774 0.30126 0.39398
 C2419 C 0.50979 0.28072 0.38257
 C2420 C 0.49756 0.26138 0.39035
 N2421 N 0.49056 0.32443 0.42504
 N2422 N 0.50037 0.34223 0.41732
 C2423 C 0.49898 0.36369 0.42841
 C2424 C 0.50949 0.38221 0.41760
 C2425 C 0.50923 0.40338 0.42792
 C2426 C 0.49850 0.40646 0.44945
 C2427 C 0.48772 0.38781 0.46025
 C2428 C 0.48792 0.36656 0.44978
 H2429 H 0.47119 0.25006 0.41490
 H2430 H 0.46827 0.28608 0.43525
 H2431 H 0.51757 0.31559 0.38753
 H2432 H 0.52063 0.28032 0.36727
 H2433 H 0.51807 0.38016 0.40114
 H2434 H 0.51774 0.41726 0.41906
 H2435 H 0.47929 0.38959 0.47681
 H2436 H 0.47970 0.35242 0.45845
 C2437 C 0.00471 0.29759 0.62134
 C2438 C 0.00518 0.31822 0.61045
 C2439 C 0.00973 0.31935 0.58729
 C2440 C 0.01434 0.29943 0.57499
 C2441 C 0.01380 0.27850 0.58595
 C2442 C 0.00821 0.27719 0.60931
 N2443 N 0.00933 0.34107 0.57706
 N2444 N 0.01409 0.34467 0.55628
 C2445 C 0.01294 0.36702 0.54739
 C2446 C 0.02006 0.37099 0.52494
 C2447 C 0.01916 0.39271 0.51601
 C2448 C 0.01092 0.41085 0.52942
 C2449 C 0.00367 0.40674 0.55194
 C2450 C 0.00472 0.38510 0.56085
 H2451 H 0.00117 0.29743 0.63939
 H2452 H 0.00190 0.33348 0.62013
 H2453 H 0.01833 0.30003 0.55704
 H2454 H 0.01807 0.26362 0.57611
 H2455 H 0.02640 0.35725 0.51436
 H2456 H 0.02482 0.39525 0.49857
 H2457 H -0.00272 0.42026 0.56277
 H2458 H -0.00097 0.38253 0.57827
 C2459 C 0.48759 0.79090 0.09549
 C2460 C 0.48616 0.81128 0.08408
 C2461 C 0.50506 0.82564 0.08139
 C2462 C 0.52570 0.81905 0.08969
 C2463 C 0.52703 0.79890 0.10158
 C2464 C 0.50761 0.78496 0.10584
 N2465 N 0.50274 0.84702 0.07074
 N2466 N 0.51987 0.85851 0.06315
 C2467 C 0.51757 0.88036 0.05348
 C2468 C 0.53519 0.88890 0.03907
 C2469 C 0.53353 0.91022 0.02950
 C2470 C 0.51444 0.92366 0.03477
 C2471 C 0.49694 0.91526 0.04958
 C2472 C 0.49835 0.89365 0.05866
 H2473 H 0.47268 0.78005 0.09707
 H2474 H 0.47024 0.81590 0.07733
 H2475 H 0.54073 0.82964 0.08734
 H2476 H 0.54344 0.79440 0.10716
 H2477 H 0.55016 0.87890 0.03508
 H2478 H 0.54734 0.91638 0.01827
 H2479 H 0.48204 0.92527 0.05386
 H2480 H 0.48464 0.88747 0.06997
 C2481 C 0.52216 0.74115 0.08395
 C2482 C 0.52176 0.72260 0.06933
 C2483 C 0.50431 0.70649 0.07180
 C2484 C 0.48604 0.71034 0.08746
 C2485 C 0.48613 0.72913 0.10169
 C2486 C 0.50520 0.74384 0.10159
 N2487 N 0.50608 0.68571 0.05946
 N2488 N 0.49689 0.66778 0.06759
 C2489 C 0.49840 0.64636 0.05644
 C2490 C 0.50408 0.64435 0.03327
 C2491 C 0.50546 0.62299 0.02311
 C2492 C 0.50181 0.60345 0.03611
 C2493 C 0.49622 0.60562 0.05926
 C2494 C 0.49423 0.62691 0.06922
 H2495 H 0.53651 0.75273 0.08242
 H2496 H 0.53572 0.72013 0.05692
 H2497 H 0.47182 0.69860 0.08891
 H2498 H 0.47132 0.73156 0.11295
 H2499 H 0.50723 0.65922 0.02308
 H2500 H 0.50978 0.62171 0.00522
 H2501 H 0.49309 0.59083 0.06959
 H2502 H 0.48979 0.62829 0.08708
 C2503 C 0.02115 0.21446 0.61595
 C2504 C 0.01996 0.19353 0.60546
 C2505 C 0.00554 0.18988 0.58816
 C2506 C -0.00775 0.20768 0.58111
 C2507 C -0.00655 0.22890 0.59162
 C2508 C 0.00837 0.23293 0.60896
 N2509 N 0.00420 0.16754 0.57915
 N2510 N -0.00819 0.16174 0.56331
 C2511 C -0.00869 0.13874 0.55570
 C2512 C -0.02013 0.13307 0.53654
 C2513 C -0.02026 0.11083 0.52854
 C2514 C -0.00907 0.09379 0.53977
 C2515 C 0.00201 0.09948 0.55927
 C2516 C 0.00226 0.12171 0.56712
 H2517 H 0.03152 0.21560 0.63025
 H2518 H 0.02987 0.17977 0.61137
 H2519 H -0.01942 0.20504 0.56799
 H2520 H -0.01772 0.24205 0.58660
 H2521 H -0.02873 0.14597 0.52763
 H2522 H -0.02906 0.10700 0.51353
 H2523 H 0.01081 0.08683 0.56831
 H2524 H 0.01112 0.12556 0.58208
 C2525 C 0.50627 0.21814 0.41342
 C2526 C 0.50845 0.19816 0.42540
 C2527 C 0.50383 0.17729 0.41550
 C2528 C 0.49702 0.17660 0.39336
 C2529 C 0.49476 0.19649 0.38142
 C2530 C 0.49867 0.21775 0.39137
 N2531 N 0.50642 0.15704 0.42804
 N2532 N 0.50340 0.13772 0.41922
 C2533 C 0.50540 0.11707 0.43118
 C2534 C 0.50098 0.09682 0.42006
 C2535 C 0.50152 0.07634 0.43135
 C2536 C 0.50660 0.07571 0.45410
 C2537 C 0.51169 0.09607 0.46510
 C2538 C 0.51104 0.11662 0.45375
 H2539 H 0.51121 0.23374 0.42135
 H2540 H 0.51417 0.19891 0.44231
 H2541 H 0.49364 0.16068 0.38515
 H2542 H 0.49007 0.19529 0.36416
 H2543 H 0.49669 0.09697 0.40265
 H2544 H 0.49764 0.06102 0.42229
 H2545 H 0.51563 0.09619 0.48261
 H2546 H 0.51460 0.13211 0.46266
 C2547 C -0.03378 0.70680 0.88247
 C2548 C -0.03096 0.68528 0.89095
 C2549 C -0.01504 0.68146 0.90678
 C2550 C -0.00193 0.69958 0.91434
 C2551 C -0.00478 0.72126 0.90593
 C2552 C -0.02118 0.72548 0.89020
 N2553 N -0.01226 0.65890 0.91433
 N2554 N 0.00234 0.65362 0.92815
 C2555 C 0.00449 0.63084 0.93545
 C2556 C 0.01907 0.62628 0.95242
 C2557 C 0.02031 0.60451 0.96099
 C2558 C 0.00702 0.58684 0.95257
 C2559 C -0.00691 0.59131 0.93486
 C2560 C -0.00823 0.61313 0.92642
 H2561 H -0.04531 0.70840 0.86918
 H2562 H -0.04083 0.67133 0.88468
 H2563 H 0.01078 0.69693 0.92637
 H2564 H 0.00622 0.73472 0.91135
 H2565 H 0.02905 0.63976 0.95942
 H2566 H 0.03132 0.60163 0.97455
 H2567 H -0.01738 0.57812 0.92802
 H2568 H -0.01952 0.61620 0.91315
 C2569 C 0.23779 0.66143 0.97608
 C2570 C 0.23406 0.67394 0.95683
 C2571 C 0.24242 0.66650 0.93563
 C2572 C 0.25495 0.64655 0.93394
 C2573 C 0.25883 0.63417 0.95307
 C2574 C 0.25084 0.64157 0.97469
 N2575 N 0.23746 0.67884 0.91593
 N2576 N 0.24216 0.67069 0.89640
 C2577 C 0.23802 0.68207 0.87600
 C2578 C 0.24336 0.67095 0.85565
 C2579 C 0.24067 0.68164 0.83525
 C2580 C 0.23259 0.70383 0.83476
 C2581 C 0.22671 0.71484 0.85529
 C2582 C 0.22940 0.70404 0.87578
 H2583 H 0.22993 0.66700 0.99200
 H2584 H 0.22401 0.68909 0.95837
 H2585 H 0.26138 0.64019 0.91773
 H2586 H 0.26752 0.61830 0.95071
 H2587 H 0.24997 0.65400 0.85564
 H2588 H 0.24535 0.67257 0.81985
 H2589 H 0.22048 0.73194 0.85553
 H2590 H 0.22513 0.71294 0.89136
 C2591 C 0.74101 0.16240 0.47766
 C2592 C 0.74185 0.17357 0.45707
 C2593 C 0.75058 0.16289 0.43756
 C2594 C 0.75899 0.14103 0.43888
 C2595 C 0.75823 0.12985 0.45940
 C2596 C 0.74946 0.14024 0.47953
 N2597 N 0.74958 0.17407 0.41647
 N2598 N 0.75590 0.16456 0.39797
 C2599 C 0.75444 0.17550 0.37681
 C2600 C 0.76236 0.16434 0.35717
 C2601 C 0.76126 0.17463 0.33625
 C2602 C 0.75210 0.19631 0.33470
 C2603 C 0.74389 0.20732 0.35451
 C2604 C 0.74507 0.19703 0.37536
 H2605 H 0.73245 0.17085 0.49184
 H2606 H 0.73485 0.19031 0.45620
 H2607 H 0.76560 0.13227 0.42392
 H2608 H 0.76400 0.11272 0.45895
 H2609 H 0.76953 0.14768 0.35810
 H2610 H 0.76774 0.16568 0.32136
 H2611 H 0.73674 0.22402 0.35397
 H2612 H 0.73872 0.20594 0.39033
 C2613 C 0.22788 0.34471 0.48926
 C2614 C 0.22455 0.33244 0.46953
 C2615 C 0.24222 0.33031 0.45293
 C2616 C 0.26334 0.34032 0.45642
 C2617 C 0.26653 0.35311 0.47568
 C2618 C 0.24886 0.35572 0.49269
 N2619 N 0.23820 0.31948 0.43193
 N2620 N 0.25475 0.31236 0.41920
 C2621 C 0.25214 0.30326 0.39722
 C2622 C 0.26906 0.28919 0.38779
 C2623 C 0.26802 0.28121 0.36580
 C2624 C 0.25036 0.28779 0.35258
 C2625 C 0.23344 0.30211 0.36194
 C2626 C 0.23416 0.30959 0.38426
 H2627 H 0.21368 0.34655 0.50151
 H2628 H 0.20806 0.32494 0.46700
 H2629 H 0.27715 0.33930 0.44363
 H2630 H 0.28269 0.36171 0.47621
 H2631 H 0.28315 0.28446 0.39753
 H2632 H 0.28136 0.27031 0.35892
 H2633 H 0.21964 0.30734 0.35206
 H2634 H 0.22112 0.32079 0.39117
 C2635 C 0.73894 0.83447 0.97819
 C2636 C 0.73774 0.82133 0.95861
 C2637 C 0.74396 0.83055 0.93753
 C2638 C 0.75140 0.85306 0.93621
 C2639 C 0.75284 0.86601 0.95557
 C2640 C 0.74737 0.85687 0.97705
 N2641 N 0.74226 0.81723 0.91752
 N2642 N 0.74388 0.82670 0.89839
 C2643 C 0.74301 0.81495 0.87747
 C2644 C 0.74135 0.82768 0.85805
 C2645 C 0.74084 0.81717 0.83712
 C2646 C 0.74236 0.79361 0.83521
 C2647 C 0.74430 0.78077 0.85474
 C2648 C 0.74446 0.79137 0.87582
 H2649 H 0.73277 0.82716 0.99398
 H2650 H 0.73144 0.80413 0.95983
 H2651 H 0.75610 0.86076 0.92016
 H2652 H 0.75831 0.88344 0.95379
 H2653 H 0.74040 0.84588 0.85917
 H2654 H 0.73955 0.82755 0.82238
 H2655 H 0.74545 0.76258 0.85374
 H2656 H 0.74595 0.78126 0.89069
 C2657 C 0.73775 0.87335 0.03981
 C2658 C 0.73831 0.86461 0.06134
 C2659 C 0.74874 0.84413 0.06476
 C2660 C 0.75948 0.83269 0.04640
 C2661 C 0.75937 0.84171 0.02476
 C2662 C 0.74741 0.86163 0.02086
 N2663 N 0.74837 0.83563 0.08713
 N2664 N 0.75290 0.81527 0.09136
 C2665 C 0.75217 0.80725 0.11395
 C2666 C 0.75140 0.78403 0.11764
 C2667 C 0.74978 0.77568 0.13950
 C2668 C 0.74938 0.79048 0.15807
 C2669 C 0.75060 0.81382 0.15435
 C2670 C 0.75176 0.82217 0.13244
 H2671 H 0.72995 0.88962 0.03816
 H2672 H 0.73051 0.87385 0.07547
 H2673 H 0.76834 0.81711 0.04886
 H2674 H 0.76876 0.83316 0.01113
 H2675 H 0.75173 0.77241 0.10354
 H2676 H 0.74917 0.75759 0.14186
 H2677 H 0.75038 0.82557 0.16836
 H2678 H 0.75246 0.84022 0.12994
 C2679 C 0.25073 0.37540 0.55515
 C2680 C 0.24910 0.36636 0.57671
 C2681 C 0.24477 0.34342 0.57985
 C2682 C 0.24242 0.32939 0.56102
 C2683 C 0.24421 0.33838 0.53929
 C2684 C 0.24789 0.36174 0.53593
 N2685 N 0.24326 0.33488 0.60232
 N2686 N 0.23776 0.31454 0.60686
 C2687 C 0.23667 0.30623 0.62943
 C2688 C 0.22966 0.28394 0.63337
 C2689 C 0.22912 0.27506 0.65505
 C2690 C 0.23574 0.28834 0.67328
 C2691 C 0.24244 0.31088 0.66931
 C2692 C 0.24288 0.31976 0.64760
 H2693 H 0.25398 0.39333 0.55339
 H2694 H 0.25117 0.37733 0.59107
 H2695 H 0.23947 0.31145 0.56306
 H2696 H 0.24296 0.32679 0.52537
 H2697 H 0.22481 0.27335 0.61954
 H2698 H 0.22387 0.25763 0.65742
 H2699 H 0.24761 0.32159 0.68292
 H2700 H 0.24835 0.33708 0.64500
 C2701 C 0.75650 0.16182 0.52506
 C2702 C 0.75803 0.17305 0.54560
 C2703 C 0.74856 0.16354 0.56539
 C2704 C 0.73682 0.14291 0.56436
 C2705 C 0.73510 0.13173 0.54384
 C2706 C 0.74473 0.14091 0.52352
 N2707 N 0.75216 0.17446 0.58641
 N2708 N 0.74619 0.16521 0.60508
 C2709 C 0.74991 0.17566 0.62627
 C2710 C 0.74249 0.16441 0.64593
 C2711 C 0.74533 0.17425 0.66694
 C2712 C 0.75572 0.19563 0.66864
 C2713 C 0.76361 0.20671 0.64882
 C2714 C 0.76071 0.19682 0.62779
 H2715 H 0.76607 0.16891 0.51070
 H2716 H 0.76759 0.18872 0.54623
 H2717 H 0.72949 0.13507 0.57951
 H2718 H 0.72685 0.11540 0.54428
 H2719 H 0.73425 0.14804 0.64495
 H2720 H 0.73906 0.16520 0.68181
 H2721 H 0.77163 0.22320 0.64950
 H2722 H 0.76670 0.20579 0.61278
 C2723 C 0.24966 0.62497 0.03773
 C2724 C 0.25202 0.63446 0.05885
 C2725 C 0.25987 0.65655 0.06097
 C2726 C 0.26609 0.66904 0.04157
 C2727 C 0.26378 0.65948 0.02021
 C2728 C 0.25451 0.63755 0.01794
 N2729 N 0.26091 0.66566 0.08315
 N2730 N 0.26755 0.68564 0.08737
 C2731 C 0.26739 0.69373 0.11010
 C2732 C 0.27446 0.71585 0.11436
 C2733 C 0.27334 0.72441 0.13634
 C2734 C 0.26502 0.71090 0.15444
 C2735 C 0.25834 0.68855 0.15010
 C2736 C 0.25953 0.68004 0.12819
 H2737 H 0.24367 0.60768 0.03685
 H2738 H 0.24756 0.62457 0.07370
 H2739 H 0.27273 0.68606 0.04290
 H2740 H 0.26944 0.66921 0.00561
 H2741 H 0.28055 0.72658 0.10059
 H2742 H 0.27862 0.74171 0.13907
 H2743 H 0.25194 0.67765 0.16361
 H2744 H 0.25397 0.66284 0.12540
 C2745 C 0.15602 0.51948 0.74791
 C2746 C 0.16780 0.53999 0.74881
 C2747 C 0.15881 0.55942 0.74005
 C2748 C 0.13818 0.55801 0.72962
 C2749 C 0.12646 0.53752 0.72852
 C2750 C 0.13507 0.51755 0.73747
 N2751 N 0.17005 0.58061 0.74326
 N2752 N 0.16086 0.59909 0.73845
 C2753 C 0.17145 0.62052 0.74194
 C2754 C 0.15983 0.63994 0.73660
 C2755 C 0.16957 0.66120 0.73969
 C2756 C 0.19125 0.66339 0.74818
 C2757 C 0.20280 0.64379 0.75378
 C2758 C 0.19297 0.62251 0.75070
 H2759 H 0.16267 0.50559 0.75700
 H2760 H 0.18345 0.54098 0.75740
 H2761 H 0.13072 0.57291 0.72288
 H2762 H 0.11015 0.53781 0.72132
 H2763 H 0.14319 0.63858 0.72993
 H2764 H 0.16018 0.67589 0.73516
 H2765 H 0.21951 0.64485 0.76032
 H2766 H 0.20222 0.60767 0.75503
 C2767 C 0.62303 0.03913 0.25479
 C2768 C 0.63439 0.05980 0.25565
 C2769 C 0.65684 0.06202 0.24734
 C2770 C 0.66788 0.04320 0.23762
 C2771 C 0.65636 0.02238 0.23645
 C2772 C 0.63382 0.01950 0.24591
 N2773 N 0.66726 0.08393 0.24808
 N2774 N 0.68841 0.08767 0.24405
 C2775 C 0.69755 0.11020 0.24489
 C2776 C 0.72104 0.11350 0.24555
 C2777 C 0.73024 0.13530 0.24703
 C2778 C 0.71608 0.15425 0.24743
 C2779 C 0.69253 0.15089 0.24637
 C2780 C 0.68334 0.12909 0.24528
 H2781 H 0.60545 0.03911 0.26070
 H2782 H 0.62545 0.07435 0.26260
 H2783 H 0.68506 0.04477 0.23023
 H2784 H 0.66487 0.00897 0.22706
 H2785 H 0.73221 0.09913 0.24522
 H2786 H 0.74847 0.13734 0.24765
 H2787 H 0.68116 0.16511 0.24669
 H2788 H 0.66512 0.12703 0.24466
 C2789 C 0.87386 0.03551 0.77814
 C2790 C 0.86240 0.05590 0.77827
 C2791 C 0.84386 0.05870 0.76520
 C2792 C 0.83675 0.04071 0.75179
 C2793 C 0.84823 0.02015 0.75163
 C2794 C 0.86661 0.01683 0.76538
 N2795 N 0.83349 0.08038 0.76524
 N2796 N 0.81645 0.08497 0.75407
 C2797 C 0.80727 0.10727 0.75449
 C2798 C 0.78786 0.11164 0.74293
 C2799 C 0.77887 0.13339 0.74286
 C2800 C 0.78932 0.15120 0.75428
 C2801 C 0.80879 0.14669 0.76590
 C2802 C 0.81764 0.12499 0.76605
 H2803 H 0.88892 0.03487 0.78756
 H2804 H 0.86841 0.06986 0.78821
 H2805 H 0.82272 0.04269 0.74111
 H2806 H 0.84296 0.00688 0.74046
 H2807 H 0.77971 0.09818 0.73392
 H2808 H 0.76389 0.13628 0.73369
 H2809 H 0.81725 0.15993 0.77493
 H2810 H 0.83269 0.12213 0.77510
 C2811 C 0.37709 0.54338 0.26377
 C2812 C 0.36720 0.56454 0.26274
 C2813 C 0.34840 0.56778 0.25013
 C2814 C 0.33948 0.54947 0.23831
 C2815 C 0.34937 0.52815 0.23934
 C2816 C 0.36795 0.52444 0.25270
 N2817 N 0.33923 0.58999 0.24931
 N2818 N 0.32224 0.59480 0.23815
 C2819 C 0.31359 0.61729 0.23780
 C2820 C 0.29414 0.62145 0.22627
 C2821 C 0.28496 0.64308 0.22615
 C2822 C 0.29519 0.66106 0.23754
 C2823 C 0.31498 0.65688 0.24879
 C2824 C 0.32407 0.63522 0.24896
 H2825 H 0.39238 0.54226 0.27279
 H2826 H 0.37456 0.57865 0.27150
 H2827 H 0.32516 0.55167 0.22806
 H2828 H 0.34262 0.51451 0.22947
 H2829 H 0.28592 0.60783 0.21755
 H2830 H 0.26974 0.64565 0.21725
 H2831 H 0.32329 0.67027 0.25776
 H2832 H 0.33919 0.63249 0.25795
 C2833 C 0.34149 0.48201 0.26442
 C2834 C 0.32841 0.46238 0.26858
 C2835 C 0.33783 0.44106 0.26464
 C2836 C 0.36061 0.43959 0.25651
 C2837 C 0.37359 0.45903 0.25223
 C2838 C 0.36423 0.48069 0.25551
 N2839 N 0.32423 0.42110 0.26888
 N2840 N 0.33308 0.40166 0.26696
 C2841 C 0.32066 0.38090 0.27010
 C2842 C 0.33254 0.36078 0.26708
 C2843 C 0.32110 0.34006 0.26820
 C2844 C 0.29738 0.33902 0.27245
 C2845 C 0.28550 0.35927 0.27631
 C2846 C 0.29705 0.38011 0.27508
 H2847 H 0.33382 0.49802 0.26875
 H2848 H 0.31097 0.46380 0.27522
 H2849 H 0.36848 0.42338 0.25346
 H2850 H 0.39119 0.45719 0.24626
 H2851 H 0.35074 0.36119 0.26330
 H2852 H 0.33085 0.32485 0.26529
 H2853 H 0.26722 0.35906 0.27955
 H2854 H 0.28752 0.39551 0.27750
 C2855 C 0.87814 0.95255 0.75846
 C2856 C 0.86647 0.93202 0.75846
 C2857 C 0.84325 0.93095 0.76443
 C2858 C 0.83182 0.95073 0.77121
 C2859 C 0.84356 0.97147 0.77126
 C2860 C 0.86679 0.97288 0.76389
 N2861 N 0.83195 0.90954 0.76301
 N2862 N 0.81084 0.90635 0.76786
 C2863 C 0.80069 0.88441 0.76537
 C2864 C 0.77758 0.88105 0.77143
 C2865 C 0.76732 0.85984 0.76862
 C2866 C 0.78007 0.84165 0.75955
 C2867 C 0.80330 0.84513 0.75363
 C2868 C 0.81349 0.86621 0.75653
 H2869 H 0.89616 0.95270 0.75366
 H2870 H 0.87553 0.91682 0.75355
 H2871 H 0.81392 0.95018 0.77641
 H2872 H 0.83437 0.98618 0.77726
 H2873 H 0.76748 0.89490 0.77825
 H2874 H 0.74940 0.85775 0.77339
 H2875 H 0.81372 0.83155 0.74672
 H2876 H 0.83139 0.86828 0.75167
 C2877 C 0.62311 0.95542 0.23181
 C2878 C 0.63404 0.93475 0.23060
 C2879 C 0.65575 0.93254 0.23809
 C2880 C 0.66655 0.95145 0.24711
 C2881 C 0.65546 0.97228 0.24863
 C2882 C 0.63361 0.97507 0.24032
 N2883 N 0.66554 0.91055 0.23758
 N2884 N 0.68628 0.90689 0.24089
 C2885 C 0.69488 0.88435 0.24075
 C2886 C 0.71837 0.88103 0.23922
 C2887 C 0.72715 0.85921 0.23901
 C2888 C 0.71252 0.84029 0.24080
 C2889 C 0.68893 0.84367 0.24251
 C2890 C 0.68018 0.86547 0.24230
 H2891 H 0.60601 0.95539 0.22656
 H2892 H 0.62528 0.92015 0.22413
 H2893 H 0.68311 0.94993 0.25382
 H2894 H 0.66362 0.98573 0.25755
 H2895 H 0.72990 0.89538 0.23807
 H2896 H 0.74541 0.85716 0.23785
 H2897 H 0.67723 0.82945 0.24387
 H2898 H 0.66194 0.86757 0.24362
 C2899 C 0.15598 0.47113 0.73259
 C2900 C 0.16743 0.45079 0.73396
 C2901 C 0.15676 0.43220 0.74434
 C2902 C 0.13440 0.43411 0.75341
 C2903 C 0.12292 0.45442 0.75210
 C2904 C 0.13353 0.47377 0.74216
 N2905 N 0.16869 0.41139 0.74481
 N2906 N 0.15954 0.39363 0.75332
 C2907 C 0.17141 0.37278 0.75365
 C2908 C 0.16045 0.35398 0.76356
 C2909 C 0.17165 0.33341 0.76430
 C2910 C 0.19407 0.33135 0.75507
 C2911 C 0.20494 0.35028 0.74496
 C2912 C 0.19373 0.37081 0.74426
 H2913 H 0.16460 0.48454 0.72316
 H2914 H 0.18454 0.44937 0.72642
 H2915 H 0.12560 0.41978 0.76121
 H2916 H 0.10551 0.45445 0.75866
 H2917 H 0.14322 0.35531 0.77080
 H2918 H 0.16275 0.31918 0.77218
 H2919 H 0.22219 0.34932 0.73766
 H2920 H 0.20253 0.38512 0.73645
 C2921 C 0.00205 0.73463 0.84358
 C2922 C 0.02270 0.73264 0.83082
 C2923 C 0.04217 0.74395 0.83744
 C2924 C 0.04072 0.75745 0.85686
 C2925 C 0.02023 0.75955 0.86948
 C2926 C 0.00019 0.74871 0.86283
 N2927 N 0.06343 0.74111 0.82478
 N2928 N 0.08171 0.74909 0.83213
 C2929 C 0.10348 0.74724 0.82038
 C2930 C 0.12242 0.75591 0.83066
 C2931 C 0.14394 0.75519 0.81962
 C2932 C 0.14690 0.74581 0.79791
 C2933 C 0.12782 0.73681 0.78770
 C2934 C 0.10625 0.73749 0.79887
 H2935 H -0.01246 0.72485 0.83862
 H2936 H 0.02365 0.72183 0.81608
 H2937 H 0.05559 0.76609 0.86262
 H2938 H 0.02051 0.76913 0.88496
 H2939 H 0.12043 0.76346 0.84725
 H2940 H 0.15819 0.76230 0.82800
 H2941 H 0.12950 0.72945 0.77101
 H2942 H 0.09179 0.73069 0.79062
 C2943 C 0.52045 0.22937 0.33880
 C2944 C 0.54100 0.22701 0.32595
 C2945 C 0.56171 0.23148 0.33544
 C2946 C 0.56166 0.23802 0.35813
 C2947 C 0.54126 0.24049 0.37089
 C2948 C 0.52016 0.23708 0.36133
 N2949 N 0.58259 0.22943 0.32194
 N2950 N 0.60159 0.23235 0.33065
 C2951 C 0.62312 0.23132 0.31828
 C2952 C 0.64261 0.23497 0.33001
 C2953 C 0.66398 0.23554 0.31869
 C2954 C 0.66633 0.23244 0.29524
 C2955 C 0.64672 0.22815 0.28347
 C2956 C 0.62520 0.22765 0.29492
 H2957 H 0.50494 0.22477 0.33106
 H2958 H 0.54080 0.22147 0.30861
 H2959 H 0.57742 0.24127 0.36607
 H2960 H 0.54191 0.24530 0.38841
 H2961 H 0.64118 0.23777 0.34802
 H2962 H 0.67866 0.23869 0.32838
 H2963 H 0.64795 0.22571 0.26542
 H2964 H 0.61027 0.22480 0.28553
 C2965 C 0.54373 0.74054 0.12968
 C2966 C 0.56395 0.73901 0.14054
 C2967 C 0.57097 0.75644 0.15443
 C2968 C 0.55709 0.77534 0.15799
 C2969 C 0.53685 0.77699 0.14700
 C2970 C 0.53029 0.76013 0.13170
 N2971 N 0.59236 0.75445 0.16438
 N2972 N 0.59947 0.76855 0.17862
 C2973 C 0.62125 0.76615 0.18778
 C2974 C 0.62697 0.77990 0.20581
 C2975 C 0.64799 0.77767 0.21523
 C2976 C 0.66382 0.76182 0.20651
 C2977 C 0.65815 0.74829 0.18816
 C2978 C 0.63704 0.75034 0.17896
 H2979 H 0.53880 0.72606 0.11996
 H2980 H 0.57420 0.72406 0.13817
 H2981 H 0.56198 0.78890 0.16902
 H2982 H 0.52648 0.79178 0.14997
 H2983 H 0.61502 0.79222 0.21271
 H2984 H 0.65189 0.78845 0.22926
 H2985 H 0.66991 0.73588 0.18108
 H2986 H 0.63310 0.73959 0.16493
 C2987 C 0.05003 0.25673 0.62499
 C2988 C 0.06999 0.25723 0.63624
 C2989 C 0.06922 0.25889 0.65958
 C2990 C 0.04813 0.26118 0.67166
 C2991 C 0.02794 0.26077 0.66035
 C2992 C 0.02853 0.25734 0.63684
 N2993 N 0.09017 0.25748 0.67032
 N2994 N 0.09160 0.25843 0.69150
 C2995 C 0.11309 0.25615 0.70120
 C2996 C 0.11446 0.25928 0.72434
 C2997 C 0.13525 0.25712 0.73416
 C2998 C 0.15505 0.25157 0.72095
 C2999 C 0.15355 0.24823 0.69772
 C3000 C 0.13281 0.25056 0.68792
 H3001 H 0.05129 0.25498 0.60686
 H3002 H 0.08616 0.25582 0.62673
 H3003 H 0.04724 0.26308 0.68977
 H3004 H 0.01210 0.26313 0.67012
 H3005 H 0.09940 0.26351 0.73476
 H3006 H 0.13579 0.25978 0.75212
 H3007 H 0.16845 0.24406 0.68704
 H3008 H 0.13220 0.24793 0.66998
 C3009 C 0.96478 0.26421 0.62996
 C3010 C 0.94354 0.26085 0.64089
 C3011 C 0.94063 0.24584 0.65870
 C3012 C 0.95936 0.23380 0.66544
 C3013 C 0.98084 0.23706 0.65434
 C3014 C 0.98422 0.25305 0.63690
 N3015 N 0.91818 0.24296 0.66881
 N3016 N 0.91308 0.23102 0.68607
 C3017 C 0.88986 0.22947 0.69477
 C3018 C 0.88463 0.22002 0.71594
 C3019 C 0.86221 0.21999 0.72528
 C3020 C 0.84464 0.22927 0.71342
 C3021 C 0.84993 0.23795 0.69183
 C3022 C 0.87223 0.23810 0.68264
 H3023 H 0.96556 0.27517 0.61552
 H3024 H 0.92906 0.26975 0.63518
 H3025 H 0.95731 0.22163 0.67888
 H3026 H 0.99480 0.22687 0.65919
 H3027 H 0.89801 0.21324 0.72546
 H3028 H 0.85873 0.21310 0.74193
 H3029 H 0.83691 0.24517 0.68213
 H3030 H 0.87570 0.24530 0.66613
 C3031 C 0.48558 0.74168 0.15133
 C3032 C 0.46634 0.73868 0.16602
 C3033 C 0.45027 0.75575 0.16881
 C3034 C 0.45496 0.77673 0.15873
 C3035 C 0.47430 0.77984 0.14431
 C3036 C 0.48882 0.76163 0.13858
 N3037 N 0.42870 0.75102 0.18038
 N3038 N 0.41176 0.76355 0.17758
 C3039 C 0.38942 0.75948 0.18764
 C3040 C 0.37171 0.77254 0.18055
 C3041 C 0.34947 0.76885 0.18916
 C3042 C 0.34447 0.75212 0.20538
 C3043 C 0.36235 0.73911 0.21275
 C3044 C 0.38469 0.74263 0.20380
 H3045 H 0.49710 0.72772 0.14860
 H3046 H 0.46332 0.72259 0.17419
 H3047 H 0.44336 0.79061 0.16155
 H3048 H 0.47727 0.79643 0.13734
 H3049 H 0.37515 0.78553 0.16810
 H3050 H 0.33622 0.77937 0.18326
 H3051 H 0.35904 0.72614 0.22526
 H3052 H 0.39819 0.73231 0.20950
 C3053 C 0.47519 0.25537 0.34550
 C3054 C 0.45508 0.25810 0.33464
 C3055 C 0.43531 0.24643 0.34199
 C3056 C 0.43586 0.23196 0.36045
 C3057 C 0.45597 0.22910 0.37126
 C3058 C 0.47632 0.24018 0.36355
 N3059 N 0.41481 0.24992 0.33082
 N3060 N 0.39600 0.24097 0.33783
 C3061 C 0.37534 0.24414 0.32688
 C3062 C 0.35530 0.23431 0.33624
 C3063 C 0.33485 0.23676 0.32593
 C3064 C 0.33408 0.24908 0.30591
 C3065 C 0.35427 0.25907 0.29660
 C3066 C 0.37473 0.25665 0.30701
 H3067 H 0.48996 0.26529 0.33988
 H3068 H 0.45479 0.26966 0.32068
 H3069 H 0.42066 0.22309 0.36679
 H3070 H 0.45525 0.21863 0.38605
 H3071 H 0.35557 0.22464 0.35156
 H3072 H 0.31968 0.22882 0.33359
 H3073 H 0.35431 0.26869 0.28123
 H3074 H 0.39003 0.26442 0.29946
 C3075 C 0.93516 0.74791 0.87875
 C3076 C 0.91457 0.75042 0.86890
 C3077 C 0.91414 0.75707 0.84657
 C3078 C 0.93466 0.76179 0.83417
 C3079 C 0.95543 0.75924 0.84402
 C3080 C 0.95606 0.75133 0.86628
 N3081 N 0.89258 0.75844 0.83698
 N3082 N 0.89024 0.76475 0.81692
 C3083 C 0.86829 0.76503 0.80790
 C3084 C 0.86632 0.77226 0.78584
 C3085 C 0.84525 0.77153 0.77628
 C3086 C 0.82579 0.76342 0.78868
 C3087 C 0.82778 0.75662 0.81101
 C3088 C 0.84880 0.75744 0.82054
 H3089 H 0.93486 0.74289 0.89620
 H3090 H 0.89883 0.74707 0.87871
 H3091 H 0.93464 0.76744 0.81695
 H3092 H 0.97079 0.76381 0.83422
 H3093 H 0.88121 0.77814 0.77593
 H3094 H 0.84432 0.77690 0.75904
 H3095 H 0.81315 0.75040 0.82109
 H3096 H 0.84984 0.75178 0.83766
   
