data_POSCAR
  _audit_creation_date              2014-09-24
  _audit_creation_method            'ToBaCCo'
  _symmetry_space_group_name_H-M    'P1'
  _symmetry_Int_Tables_number       1
  _symmetry_cell_setting            triclinic
  loop_
  _symmetry_equiv_pos_as_xyz
 x,y,z
_cell_length_a 70.0455
_cell_length_b 70.0316
_cell_length_c 71.3342
_cell_angle_alpha 90.018200
_cell_angle_beta 89.834900
_cell_angle_gamma 89.995500
loop_
  _atom_site_label
  _atom_site_type_symbol
  _atom_site_fract_x
  _atom_site_fract_y
  _atom_site_fract_z
C1 C 0.41035 0.01432 0.27514
 H2 H 0.41110 0.02585 0.26508
 C3 C 0.42188 0.01471 0.29114
 H4 H 0.43151 0.02658 0.29343
 C5 C 0.39694 -0.01525 0.28456
 H6 H 0.38709 -0.02684 0.28213
 C7 C 0.40817 -0.01540 0.30070
 H8 H 0.40700 -0.02716 0.31050
 N9 N 0.39845 -0.00072 0.27196
 C10 C 0.39203 -0.00457 0.21106
 H11 H 0.37667 -0.00572 0.21004
 C12 C 0.40319 -0.00436 0.19479
 H13 H 0.39641 -0.00539 0.18120
 C14 C 0.41964 -0.00150 0.22997
 H15 H 0.42606 -0.00047 0.24367
 C16 C 0.43133 -0.00124 0.21404
 H17 H 0.44666 0.00012 0.21555
 Zn18 Zn 0.38384 -0.00135 0.24946
 N19 N 0.40032 -0.00269 0.22821
 C20 C 0.37177 0.03376 0.23352
 N21 N 0.36894 0.02151 0.24810
 C22 C 0.35635 0.02582 0.26208
 C23 C 0.34577 0.04280 0.26147
 C24 C 0.36151 0.05082 0.23238
 C25 C 0.37764 -0.04070 0.24804
 C26 C 0.36759 -0.05791 0.24892
 C27 C 0.33825 -0.03997 0.25179
 C28 C 0.34889 -0.02304 0.25085
 N29 N 0.36828 -0.02371 0.24935
 H30 H 0.38220 0.03053 0.22282
 H31 H 0.35461 0.01610 0.27375
 H32 H 0.33579 0.04611 0.27264
 H33 H 0.36396 0.06043 0.22072
 H34 H 0.39303 -0.04084 0.24670
 H35 H 0.37535 -0.07130 0.24817
 H36 H 0.32286 -0.03924 0.25328
 H37 H 0.34166 -0.00944 0.25157
 C38 C 0.42300 -0.00243 0.19628
 C39 C 0.42090 -0.00040 0.30394
 C40 C 0.34771 -0.05761 0.25101
 C41 C 0.34836 0.05542 0.24644
 C42 C 0.08878 0.01418 0.72457
 H43 H 0.08798 0.02573 0.73462
 C44 C 0.07710 0.01439 0.70868
 H45 H 0.06731 0.02614 0.70644
 C46 C 0.10241 -0.01530 0.71514
 H47 H 0.11238 -0.02678 0.71752
 C48 C 0.09103 -0.01563 0.69910
 H49 H 0.09223 -0.02742 0.68933
 N50 N 0.10082 -0.00074 0.72772
 C51 C 0.10708 -0.00439 0.78860
 H52 H 0.12244 -0.00539 0.78973
 C53 C 0.09581 -0.00405 0.80480
 H54 H 0.10251 -0.00484 0.81845
 C55 C 0.07956 -0.00175 0.76949
 H56 H 0.07322 -0.00093 0.75575
 C57 C 0.06777 -0.00136 0.78534
 H58 H 0.05245 -0.00010 0.78371
 Zn59 Zn 0.11541 -0.00122 0.75021
 N60 N 0.09889 -0.00274 0.77139
 C61 C 0.12715 0.03396 0.76622
 N62 N 0.13004 0.02177 0.75159
 C63 C 0.14260 0.02618 0.73763
 C64 C 0.15316 0.04317 0.73833
 C65 C 0.13737 0.05103 0.76745
 C66 C 0.12225 -0.04053 0.75143
 C67 C 0.13263 -0.05753 0.75028
 C68 C 0.16159 -0.03901 0.74760
 C69 C 0.15065 -0.02231 0.74880
 N70 N 0.13128 -0.02335 0.75029
 H71 H 0.11673 0.03066 0.77690
 H72 H 0.14438 0.01651 0.72592
 H73 H 0.16315 0.04653 0.72719
 H74 H 0.13492 0.06058 0.77917
 H75 H 0.10686 -0.04098 0.75277
 H76 H 0.12522 -0.07110 0.75080
 H77 H 0.17695 -0.03806 0.74606
 H78 H 0.15764 -0.00858 0.74824
 C79 C 0.07600 -0.00224 0.80316
 C80 C 0.07811 -0.00078 0.69593
 C81 C 0.15246 -0.05679 0.74812
 C82 C 0.15054 0.05569 0.75343
 C83 C 0.58915 0.51330 0.22456
 H84 H 0.58834 0.52484 0.23461
 C85 C 0.57752 0.51354 0.20863
 H86 H 0.56775 0.52531 0.20638
 C87 C 0.60276 0.48380 0.21514
 H88 H 0.61270 0.47230 0.21755
 C89 C 0.59143 0.48350 0.19907
 H90 H 0.59263 0.47172 0.18930
 N91 N 0.60116 0.49835 0.22773
 C92 C 0.60718 0.49462 0.28862
 H93 H 0.62255 0.49358 0.28979
 C94 C 0.59587 0.49499 0.30479
 H95 H 0.60252 0.49417 0.31845
 C96 C 0.57974 0.49736 0.26943
 H97 H 0.57344 0.49821 0.25567
 C98 C 0.56790 0.49777 0.28525
 H99 H 0.55259 0.49908 0.28358
 Zn100 Zn 0.61566 0.49782 0.25027
 N101 N 0.59905 0.49631 0.27139
 C102 C 0.62740 0.53296 0.26638
 N103 N 0.63034 0.52078 0.25174
 C104 C 0.64297 0.52517 0.23785
 C105 C 0.65358 0.54213 0.23863
 C106 C 0.63767 0.54999 0.26768
 C107 C 0.62241 0.45850 0.25147
 C108 C 0.63277 0.44149 0.25038
 C109 C 0.66178 0.45996 0.24790
 C110 C 0.65086 0.47668 0.24904
 N111 N 0.63148 0.47567 0.25040
 H112 H 0.61692 0.52967 0.27700
 H113 H 0.64479 0.51552 0.22613
 H114 H 0.66364 0.54548 0.22755
 H115 H 0.63519 0.55952 0.27941
 H116 H 0.60702 0.45807 0.25272
 H117 H 0.62535 0.42792 0.25085
 H118 H 0.67715 0.46089 0.24646
 H119 H 0.65788 0.49040 0.24854
 C120 C 0.57607 0.49686 0.30309
 C121 C 0.57853 0.49838 0.19588
 C122 C 0.65262 0.44219 0.24835
 C123 C 0.65093 0.55463 0.25374
 C124 C 0.91182 0.51494 0.77583
 H125 H 0.91264 0.52641 0.76571
 C126 C 0.92332 0.51536 0.79185
 H127 H 0.93300 0.52722 0.79405
 C128 C 0.89819 0.48551 0.78539
 H129 H 0.88827 0.47399 0.78303
 C130 C 0.90939 0.48538 0.80156
 H131 H 0.90807 0.47367 0.81142
 N132 N 0.89982 0.49997 0.77272
 C133 C 0.89304 0.49603 0.71184
 H134 H 0.87767 0.49493 0.71092
 C135 C 0.90409 0.49621 0.69549
 H136 H 0.89721 0.49520 0.68195
 C137 C 0.92079 0.49906 0.73056
 H138 H 0.92730 0.50009 0.74422
 C139 C 0.93237 0.49929 0.71455
 H140 H 0.94771 0.50063 0.71596
 Zn141 Zn 0.88510 0.49940 0.75027
 N142 N 0.90145 0.49790 0.72893
 C143 C 0.87314 0.53455 0.73431
 N144 N 0.87038 0.52237 0.74896
 C145 C 0.85793 0.52679 0.76303
 C146 C 0.84739 0.54380 0.76243
 C147 C 0.86292 0.55164 0.73318
 C148 C 0.87839 0.46006 0.74910
 C149 C 0.86807 0.44302 0.75013
 C150 C 0.83904 0.46142 0.75285
 C151 C 0.84992 0.47818 0.75176
 N152 N 0.86930 0.47721 0.75028
 H153 H 0.88345 0.53124 0.72353
 H154 H 0.85625 0.51712 0.77474
 H155 H 0.83751 0.54717 0.77366
 H156 H 0.86529 0.56119 0.72145
 H157 H 0.89378 0.45966 0.74776
 H158 H 0.87552 0.42947 0.74953
 H159 H 0.82367 0.46231 0.75435
 H160 H 0.84289 0.49188 0.75237
 C161 C 0.92392 0.49811 0.69685
 C162 C 0.92221 0.50034 0.80477
 C163 C 0.84822 0.44367 0.75223
 C164 C 0.84989 0.55633 0.74732
 C165 C 0.22370 0.39275 0.98486
 H166 H 0.23428 0.39310 0.97379
 C167 C 0.20687 0.40334 0.98311
 H168 H 0.20456 0.41198 0.97073
 C169 C 0.21344 0.38052 1.01420
 H170 H 0.21583 0.37127 1.02607
 C171 C 0.19641 0.39089 1.01299
 H172 H 0.18585 0.38975 1.02406
 N173 N 0.22669 0.38162 1.00022
 C174 C 0.28839 0.37124 1.00156
 H175 H 0.28834 0.35579 1.00172
 C176 C 0.30566 0.38114 1.00291
 H177 H 0.31894 0.37329 1.00397
 C178 C 0.27112 0.40034 1.00055
 H179 H 0.25761 0.40776 1.00002
 C180 C 0.28810 0.41081 1.00189
 H181 H 0.28762 0.42626 1.00217
 Zn182 Zn 0.24890 0.36596 1.00034
 N183 N 0.27157 0.38089 1.00035
 C184 C 0.26156 0.35066 0.96528
 N185 N 0.24760 0.35038 0.97860
 C186 C 0.23162 0.33954 0.97641
 C187 C 0.22931 0.32822 0.96044
 C188 C 0.25980 0.33954 0.94908
 C189 C 0.25163 0.35951 1.03901
 C190 C 0.25396 0.34895 1.05546
 C191 C 0.25264 0.31999 1.03709
 C192 C 0.25034 0.33110 1.02096
 N193 N 0.24984 0.35051 1.02220
 H194 H 0.27394 0.35967 0.96705
 H195 H 0.22061 0.33980 0.98708
 H196 H 0.21652 0.31969 0.95881
 H197 H 0.27092 0.33991 0.93850
 H198 H 0.25157 0.37495 1.03956
 H199 H 0.25552 0.35625 1.06876
 H200 H 0.25320 0.30458 1.03596
 H201 H 0.24941 0.32419 1.00746
 C202 C 0.30553 0.40110 1.00316
 C203 C 0.19302 0.40232 0.99725
 C204 C 0.25457 0.32900 1.05448
 C205 C 0.24353 0.32822 0.94664
 C206 C 0.77480 0.10692 0.98417
 H207 H 0.76433 0.10646 0.97306
 C208 C 0.79172 0.09643 0.98253
 H209 H 0.79418 0.08775 0.97017
 C210 C 0.78472 0.11942 1.01346
 H211 H 0.78220 0.12877 1.02525
 C212 C 0.80184 0.10917 1.01238
 H213 H 0.81227 0.11052 1.02349
 N214 N 0.77161 0.11815 0.99945
 C215 C 0.70987 0.12889 1.00054
 H216 H 0.71002 0.14433 1.00072
 C217 C 0.69252 0.11910 1.00177
 H218 H 0.67928 0.12704 1.00277
 C219 C 0.72696 0.09968 0.99954
 H220 H 0.74043 0.09217 0.99904
 C221 C 0.70989 0.08932 1.00077
 H222 H 0.71027 0.07386 1.00100
 Zn223 Zn 0.74946 0.13392 0.99945
 N224 N 0.72665 0.11913 0.99939
 C225 C 0.73730 0.14923 0.96429
 N226 N 0.75111 0.14946 0.97768
 C227 C 0.76723 0.16011 0.97550
 C228 C 0.76986 0.17124 0.95944
 C229 C 0.73938 0.16017 0.94800
 C230 C 0.74654 0.14028 1.03811
 C231 C 0.74477 0.15079 1.05468
 C232 C 0.74693 0.17982 1.03652
 C233 C 0.74867 0.16877 1.02026
 N234 N 0.74855 0.14935 1.02135
 H235 H 0.72480 0.14037 0.96606
 H236 H 0.77812 0.15980 0.98622
 H237 H 0.78278 0.17959 0.95781
 H238 H 0.72839 0.15981 0.93735
 H239 H 0.74615 0.12484 1.03855
 H240 H 0.74314 0.14343 1.06794
 H241 H 0.74698 0.19526 1.03554
 H242 H 0.74980 0.17574 1.00680
 C243 C 0.69250 0.09913 1.00196
 C244 C 0.80546 0.09766 0.99670
 C245 C 0.74493 0.17074 1.05388
 C246 C 0.75583 0.17125 0.94554
 C247 C 0.27445 0.60777 0.48363
 H248 H 0.26405 0.60725 0.47246
 C249 C 0.29139 0.59729 0.48212
 H250 H 0.29397 0.58856 0.46984
 C251 C 0.28421 0.62041 0.51291
 H252 H 0.28163 0.62982 0.52464
 C253 C 0.30133 0.61017 0.51195
 H254 H 0.31174 0.61156 0.52307
 N255 N 0.27117 0.61907 0.49884
 C256 C 0.20942 0.62979 0.49958
 H257 H 0.20955 0.64524 0.49966
 C258 C 0.19207 0.62000 0.50081
 H259 H 0.17882 0.62792 0.50171
 C260 C 0.22654 0.60060 0.49884
 H261 H 0.24002 0.59310 0.49844
 C262 C 0.20948 0.59023 0.50007
 H263 H 0.20987 0.57477 0.50040
 Zn264 Zn 0.24902 0.63484 0.49866
 N265 N 0.22621 0.62005 0.49856
 C266 C 0.23706 0.65000 0.46337
 N267 N 0.25079 0.65029 0.47684
 C268 C 0.26693 0.66092 0.47470
 C269 C 0.26967 0.67196 0.45860
 C270 C 0.23925 0.66085 0.44703
 C271 C 0.24592 0.64134 0.53728
 C272 C 0.24414 0.65190 0.55382
 C273 C 0.24646 0.68088 0.53559
 C274 C 0.24821 0.66978 0.51937
 N275 N 0.24802 0.65036 0.52050
 H276 H 0.22454 0.64116 0.46511
 H277 H 0.27776 0.66065 0.48548
 H278 H 0.28261 0.68028 0.45700
 H279 H 0.22833 0.66045 0.43632
 H280 H 0.24549 0.62591 0.53776
 H281 H 0.24246 0.64458 0.56709
 H282 H 0.24658 0.69631 0.53457
 H283 H 0.24942 0.67671 0.50589
 C284 C 0.19208 0.60003 0.50114
 C285 C 0.30504 0.59861 0.49635
 C286 C 0.24438 0.67185 0.55297
 C287 C 0.25573 0.67191 0.44461
 C288 C 0.72372 0.89202 0.48500
 H289 H 0.73429 0.89235 0.47392
 C290 C 0.70685 0.90254 0.48320
 H291 H 0.70450 0.91111 0.47078
 C292 C 0.71351 0.87991 0.51440
 H293 H 0.71594 0.87072 0.52632
 C294 C 0.69643 0.89020 0.51314
 H295 H 0.68588 0.88908 0.52422
 N296 N 0.72675 0.88098 0.50042
 C297 C 0.78851 0.87095 0.50183
 H298 H 0.78854 0.85550 0.50206
 C299 C 0.80572 0.88095 0.50315
 H300 H 0.81904 0.87317 0.50425
 C301 C 0.77108 0.89995 0.50067
 H302 H 0.75753 0.90729 0.50008
 C303 C 0.78800 0.91051 0.50197
 H304 H 0.78743 0.92597 0.50217
 Zn305 Zn 0.74904 0.86544 0.50062
 N306 N 0.77164 0.88051 0.50056
 C307 C 0.76180 0.85006 0.46563
 N308 N 0.74784 0.84974 0.47895
 C309 C 0.73194 0.83878 0.47680
 C310 C 0.72971 0.82738 0.46088
 C311 C 0.76012 0.83886 0.44947
 C312 C 0.75182 0.85925 0.53932
 C313 C 0.75423 0.84880 0.55583
 C314 C 0.75308 0.81972 0.53764
 C315 C 0.75069 0.83071 0.52145
 N316 N 0.75007 0.85012 0.52256
 H317 H 0.77412 0.85916 0.46736
 H318 H 0.72093 0.83901 0.48747
 H319 H 0.71697 0.81877 0.45928
 H320 H 0.77124 0.83927 0.43889
 H321 H 0.75167 0.87469 0.53978
 H322 H 0.75576 0.85620 0.56908
 H323 H 0.75374 0.80430 0.53661
 H324 H 0.74979 0.82371 0.50799
 C325 C 0.80548 0.90091 0.50330
 C326 C 0.69300 0.90154 0.49734
 C327 C 0.75497 0.82885 0.55498
 C328 C 0.74392 0.82743 0.44707
 C329 C 0.01417 0.27535 0.39413
 H330 H 0.02745 0.26746 0.39373
 C331 C 0.01268 0.29183 0.40497
 H332 H 0.02482 0.29673 0.41302
 C333 C -0.01778 0.27897 0.38366
 H334 H -0.02946 0.27413 0.37503
 C335 C -0.01988 0.29553 0.39430
 H336 H -0.03321 0.30337 0.39398
 N337 N -0.00098 0.26922 0.38388
 C338 C 0.00864 0.20898 0.37475
 H339 H 0.00768 0.20852 0.35962
 C340 C 0.01113 0.19218 0.38486
 H341 H 0.01211 0.17865 0.37753
 C342 C 0.00789 0.22715 0.40286
 H343 H 0.00621 0.24075 0.40980
 C344 C 0.01036 0.21067 0.41354
 H345 H 0.01069 0.21163 0.42870
 Zn346 Zn 0.00275 0.24754 0.36892
 N347 N 0.00721 0.22599 0.38383
 C348 C 0.03954 0.24105 0.35448
 N349 N 0.02387 0.25246 0.35346
 C350 C 0.02359 0.26833 0.34245
 C351 C 0.03955 0.27316 0.33170
 C352 C 0.05573 0.24533 0.34398
 C353 C -0.03488 0.23704 0.36457
 C354 C -0.05186 0.23315 0.35525
 C355 C -0.03587 0.23963 0.32582
 C356 C -0.01913 0.24339 0.33571
 N357 N -0.01910 0.24238 0.35476
 H358 H 0.03970 0.22886 0.36373
 H359 H 0.01104 0.27734 0.34227
 H360 H 0.03937 0.28587 0.32306
 H361 H 0.06823 0.23628 0.34497
 H362 H -0.03428 0.23610 0.37970
 H363 H -0.06452 0.22934 0.36318
 H364 H -0.03602 0.24086 0.31068
 H365 H -0.00629 0.24722 0.32820
 C366 C 0.01195 0.19307 0.40442
 C367 C -0.00449 0.30197 0.40499
 C368 C -0.05236 0.23463 0.33574
 C369 C 0.05573 0.26154 0.33258
 C370 C 0.01191 0.72474 0.10943
 H371 H 0.02499 0.73293 0.11001
 C372 C 0.01108 0.70813 0.09872
 H373 H 0.02354 0.70343 0.09095
 C374 C -0.02026 0.72055 0.11921
 H375 H -0.03230 0.72526 0.12748
 C376 C -0.02169 0.70384 0.10868
 H377 H -0.03488 0.69576 0.10874
 N378 N -0.00367 0.73068 0.11923
 C379 C 0.00397 0.79138 0.12703
 H380 H 0.00257 0.79223 0.14212
 C381 C 0.00635 0.80795 0.11652
 H382 H 0.00680 0.82171 0.12346
 C383 C 0.00452 0.77244 0.09941
 H384 H 0.00339 0.75862 0.09280
 C385 C 0.00689 0.78868 0.08836
 H386 H 0.00773 0.78736 0.07325
 Zn387 Zn -0.00094 0.75280 0.13376
 N388 N 0.00327 0.77409 0.11839
 C389 C 0.03523 0.76074 0.14879
 N390 N 0.01991 0.74886 0.14971
 C391 C 0.01988 0.73312 0.16090
 C392 C 0.03581 0.72884 0.17184
 C393 C 0.05136 0.75702 0.15950
 C394 C -0.03893 0.76237 0.13715
 C395 C -0.05626 0.76599 0.14604
 C396 C -0.04088 0.76050 0.17593
 C397 C -0.02380 0.75700 0.16643
 N398 N -0.02329 0.75765 0.14737
 H399 H 0.03521 0.77283 0.13942
 H400 H 0.00762 0.72373 0.16101
 H401 H 0.03588 0.71616 0.18053
 H402 H 0.06364 0.76640 0.15851
 H403 H -0.03794 0.76304 0.12202
 H404 H -0.06875 0.76932 0.13771
 H405 H -0.04132 0.75955 0.19110
 H406 H -0.01106 0.75364 0.17425
 C407 C 0.00780 0.80653 0.09704
 C408 C -0.00588 0.69765 0.09837
 C409 C -0.05726 0.76487 0.16558
 C410 C 0.05168 0.74089 0.17099
 C411 C 0.51267 0.22410 0.60772
 H412 H 0.52586 0.23212 0.60819
 C413 C 0.51145 0.20763 0.59685
 H414 H 0.52372 0.20286 0.58884
 C415 C 0.48063 0.22020 0.61800
 H416 H 0.46880 0.22495 0.62654
 C417 C 0.47881 0.20363 0.60732
 H418 H 0.46553 0.19569 0.60753
 N419 N 0.49734 0.23010 0.61787
 C420 C 0.50609 0.29055 0.62643
 H421 H 0.50504 0.29118 0.64155
 C422 C 0.50843 0.30725 0.61610
 H423 H 0.50921 0.32089 0.62323
 C424 C 0.50572 0.27202 0.59853
 H425 H 0.50423 0.25833 0.59174
 C426 C 0.50804 0.28840 0.58766
 H427 H 0.50847 0.28731 0.57251
 Zn428 Zn 0.50066 0.25195 0.63267
 N429 N 0.50493 0.27341 0.61754
 C430 C 0.53723 0.25905 0.64715
 N431 N 0.52171 0.24744 0.64821
 C432 C 0.52157 0.23160 0.65926
 C433 C 0.53756 0.22697 0.66997
 C434 C 0.55344 0.25497 0.65762
 C435 C 0.46288 0.26204 0.63681
 C436 C 0.44577 0.26582 0.64603
 C437 C 0.46153 0.25970 0.67558
 C438 C 0.47840 0.25605 0.66578
 N439 N 0.47862 0.25694 0.64672
 H440 H 0.53729 0.27121 0.63788
 H441 H 0.50915 0.22243 0.65947
 H442 H 0.53751 0.21425 0.67861
 H443 H 0.56585 0.26416 0.65657
 H444 H 0.46364 0.26289 0.62168
 H445 H 0.43316 0.26945 0.63803
 H446 H 0.46123 0.25857 0.69072
 H447 H 0.49121 0.25239 0.67336
 C448 C 0.50937 0.30611 0.59658
 C449 C 0.49437 0.19736 0.59669
 C450 C 0.44509 0.26447 0.66554
 C451 C 0.55361 0.23877 0.66902
 C452 C 0.51394 0.77607 0.89236
 H453 H 0.52722 0.76819 0.89201
 C454 C 0.51243 0.79262 0.90309
 H455 H 0.52457 0.79758 0.91112
 C456 C 0.48197 0.77956 0.88190
 H457 H 0.47029 0.77463 0.87333
 C458 C 0.47986 0.79620 0.89244
 H459 H 0.46651 0.80400 0.89210
 N460 N 0.49879 0.76984 0.88219
 C461 C 0.50835 0.70946 0.87395
 H462 H 0.50744 0.70876 0.85883
 C463 C 0.51079 0.69284 0.88435
 H464 H 0.51178 0.67917 0.87728
 C465 C 0.50753 0.72810 0.90177
 H466 H 0.50582 0.74180 0.90849
 C467 C 0.50994 0.71179 0.91271
 H468 H 0.51023 0.71295 0.92785
 Zn469 Zn 0.50252 0.74795 0.86751
 N470 N 0.50690 0.72663 0.88276
 C471 C 0.53934 0.74123 0.85329
 N472 N 0.52369 0.75264 0.85206
 C473 C 0.52349 0.76841 0.84091
 C474 C 0.53956 0.77317 0.83027
 C475 C 0.55563 0.74544 0.84290
 C476 C 0.46491 0.73741 0.86324
 C477 C 0.44793 0.73343 0.85395
 C478 C 0.46394 0.73959 0.82446
 C479 C 0.48068 0.74344 0.83432
 N480 N 0.48069 0.74264 0.85338
 H481 H 0.53944 0.72913 0.86264
 H482 H 0.51096 0.77742 0.84057
 H483 H 0.53946 0.78583 0.82155
 H484 H 0.56813 0.73642 0.84408
 H485 H 0.46550 0.73663 0.87838
 H486 H 0.43526 0.72972 0.86191
 H487 H 0.46379 0.74067 0.80931
 H488 H 0.49353 0.74720 0.82678
 C489 C 0.51155 0.69406 0.90387
 C490 C 0.49524 0.80272 0.90309
 C491 C 0.44744 0.73471 0.83443
 C492 C 0.55574 0.76157 0.83140
 C493 C -0.23606 0.66205 0.97563
 H494 H -0.22465 0.66295 0.98579
 C495 C -0.23572 0.67370 0.95969
 H496 H -0.22401 0.68358 0.95753
 C497 C -0.26526 0.64814 0.96593
 H498 H -0.27668 0.63806 0.96823
 C499 C -0.26546 0.65949 0.94984
 H500 H -0.27708 0.65816 0.93994
 N501 N -0.25090 0.64985 0.97865
 C502 C -0.25523 0.64322 1.03950
 H503 H -0.25607 0.62783 1.04055
 C504 C -0.25536 0.65438 1.05575
 H505 H -0.25633 0.64753 1.06934
 C506 C -0.25260 0.67090 1.02054
 H507 H -0.25163 0.67734 1.00683
 C508 C -0.25269 0.68260 1.03644
 H509 H -0.25162 0.69795 1.03484
 Zn510 Zn -0.25150 0.63515 1.00112
 N511 N -0.25340 0.65155 1.02235
 C512 C -0.21639 0.62355 1.01737
 N513 N -0.22840 0.62068 1.00263
 C514 C -0.22374 0.60829 0.98863
 C515 C -0.20666 0.59788 0.98937
 C516 C -0.19923 0.61347 1.01864
 C517 C -0.29075 0.62801 1.00207
 C518 C -0.30766 0.61750 1.00087
 C519 C -0.28891 0.58868 0.99830
 C520 C -0.27230 0.59975 0.99955
 N521 N -0.27350 0.61911 1.00102
 H522 H -0.21991 0.63383 1.02809
 H523 H -0.23327 0.60652 0.97685
 H524 H -0.20309 0.58803 0.97819
 H525 H -0.18983 0.61591 1.03044
 H526 H -0.29134 0.64339 1.00339
 H527 H -0.32129 0.62481 1.00134
 H528 H -0.28783 0.57332 0.99679
 H529 H -0.25851 0.59286 0.99905
 C530 C -0.25381 0.67425 1.05423
 C531 C -0.25067 0.67253 0.94677
 C532 C -0.30676 0.59767 0.99876
 C533 C -0.19430 0.60048 1.00456
 C534 C -0.23607 0.33826 0.52597
 H535 H -0.22444 0.33742 0.51599
 C536 C -0.23600 0.32718 0.54130
 H537 H -0.22428 0.31740 0.54371
 C538 C -0.26562 0.35288 0.53460
 H539 H -0.27707 0.36286 0.53213
 C540 C -0.26610 0.34101 0.55168
 H541 H -0.27801 0.34243 0.56134
 N542 N -0.25173 0.35111 0.52252
 C543 C -0.25509 0.35699 0.46155
 H544 H -0.25609 0.37235 0.46031
 C545 C -0.25475 0.34563 0.44544
 H546 H -0.25553 0.35226 0.43174
 C547 C -0.25245 0.32958 0.48087
 H548 H -0.25163 0.32332 0.49466
 C549 C -0.25207 0.31770 0.46511
 H550 H -0.25081 0.30238 0.46685
 Zn551 Zn -0.25204 0.36556 0.49987
 N552 N -0.25347 0.34889 0.47882
 C553 C -0.21672 0.37705 0.48385
 N554 N -0.22898 0.38012 0.49841
 C555 C -0.22458 0.39276 0.51227
 C556 C -0.20752 0.40320 0.51153
 C557 C -0.19957 0.38716 0.48259
 C558 C -0.29131 0.37243 0.49836
 C559 C -0.30833 0.38280 0.49937
 C560 C -0.28984 0.41179 0.50203
 C561 C -0.27312 0.40085 0.50097
 N562 N -0.27415 0.38148 0.49955
 H563 H -0.22002 0.36658 0.47326
 H564 H -0.23431 0.39468 0.52393
 H565 H -0.20416 0.41325 0.52259
 H566 H -0.18997 0.38455 0.47093
 H567 H -0.29175 0.35704 0.49710
 H568 H -0.32187 0.37533 0.49880
 H569 H -0.28886 0.42716 0.50352
 H570 H -0.25940 0.40784 0.50159
 C571 C -0.25295 0.32582 0.44722
 C572 C -0.25202 0.32847 0.55481
 C573 C -0.30763 0.40266 0.50145
 C574 C -0.19491 0.40039 0.49650
 C575 C 0.26348 -0.16130 0.02530
 H576 H 0.27514 -0.16222 0.01536
 C577 C 0.26341 -0.17240 0.04062
 H578 H 0.27505 -0.18227 0.04306
 C579 C 0.23401 -0.14646 0.03385
 H580 H 0.22265 -0.13639 0.03135
 C581 C 0.23338 -0.15834 0.05092
 H582 H 0.22145 -0.15683 0.06053
 N583 N 0.24793 -0.14833 0.02181
 C584 C 0.24474 -0.14240 -0.03917
 H585 H 0.24379 -0.12703 -0.04040
 C586 C 0.24507 -0.15374 -0.05529
 H587 H 0.24433 -0.14709 -0.06898
 C588 C 0.24725 -0.16984 -0.01988
 H589 H 0.24802 -0.17612 -0.00609
 C590 C 0.24762 -0.18171 -0.03565
 H591 H 0.24882 -0.19703 -0.03392
 Zn592 Zn 0.24774 -0.13387 -0.00084
 N593 N 0.24630 -0.15052 -0.02191
 C594 C 0.28312 -0.12247 -0.01680
 N595 N 0.27085 -0.11938 -0.00225
 C596 C 0.27526 -0.10674 0.01160
 C597 C 0.29234 -0.09632 0.01087
 C598 C 0.30028 -0.11239 -0.01806
 C599 C 0.20851 -0.12692 -0.00246
 C600 C 0.19150 -0.11653 -0.00140
 C601 C 0.21002 -0.08758 0.00145
 C602 C 0.22673 -0.09854 0.00033
 N603 N 0.22568 -0.11790 -0.00120
 H604 H 0.27981 -0.13294 -0.02740
 H605 H 0.26553 -0.10479 0.02325
 H606 H 0.29570 -0.08627 0.02192
 H607 H 0.30988 -0.11501 -0.02971
 H608 H 0.20805 -0.14230 -0.00380
 H609 H 0.17795 -0.12398 -0.00201
 H610 H 0.21102 -0.07222 0.00304
 H611 H 0.24046 -0.09157 0.00102
 C612 C 0.24679 -0.17356 -0.05353
 C613 C 0.24735 -0.17099 0.05408
 C614 C 0.19222 -0.09669 0.00082
 C615 C 0.30495 -0.09915 -0.00415
 C616 C 0.26400 1.16142 0.47471
 H617 H 0.27544 1.16233 0.48483
 C618 C 0.26428 1.17304 0.45875
 H619 H 0.27598 1.18290 0.45653
 C620 C 0.23473 1.14753 0.46517
 H621 H 0.22331 1.13747 0.46754
 C622 C 0.23447 1.15885 0.44906
 H623 H 0.22280 1.15752 0.43922
 N624 N 0.24915 1.14925 0.47783
 C625 C 0.24502 1.14292 0.53873
 H626 H 0.24416 1.12753 0.53986
 C627 C 0.24499 1.15417 0.55491
 H628 H 0.24407 1.14744 0.56856
 C629 C 0.24760 1.17049 0.51961
 H630 H 0.24853 1.17686 0.50587
 C631 C 0.24762 1.18227 0.53545
 H632 H 0.24871 1.19761 0.53381
 Zn633 Zn 0.24861 1.13465 0.50036
 N634 N 0.24679 1.15115 0.52152
 C635 C 0.28376 1.12311 0.51656
 N636 N 0.27170 1.12017 0.50187
 C637 C 0.27631 1.10768 0.48793
 C638 C 0.29337 1.09725 0.48869
 C639 C 0.30090 1.11301 0.51785
 C640 C 0.20935 1.12752 0.50144
 C641 C 0.19244 1.11701 0.50034
 C642 C 0.21118 1.08817 0.49787
 C643 C 0.22780 1.09924 0.49902
 N644 N 0.22660 1.11861 0.50040
 H645 H 0.28029 1.13347 0.52723
 H646 H 0.26674 1.10586 0.47618
 H647 H 0.29690 1.08732 0.47756
 H648 H 0.31033 1.11551 0.52961
 H649 H 0.20877 1.14291 0.50269
 H650 H 0.17881 1.12432 0.50081
 H651 H 0.21225 1.07281 0.49643
 H652 H 0.24158 1.09235 0.49853
 C653 C 0.24657 1.17401 0.55327
 C654 C 0.24926 1.17187 0.44591
 C655 C 0.19333 1.09717 0.49832
 C656 C 0.30577 1.09992 0.50384
 C657 C 0.14197 0.47451 0.26401
 H658 H 0.14219 0.48502 0.27512
 C659 C 0.15265 0.45773 0.26573
 H660 H 0.16125 0.45540 0.27813
 C661 C 0.12993 0.46433 0.23463
 H662 H 0.12070 0.46671 0.22276
 C663 C 0.14040 0.44734 0.23581
 H664 H 0.13935 0.43684 0.22471
 N665 N 0.13088 0.47751 0.24865
 C666 C 0.11999 0.53919 0.24755
 H667 H 0.10455 0.53902 0.24736
 C668 C 0.12975 0.55656 0.24634
 H669 H 0.12181 0.56979 0.24535
 C670 C 0.14922 0.52214 0.24853
 H671 H 0.15674 0.50869 0.24902
 C672 C 0.15955 0.53923 0.24733
 H673 H 0.17501 0.53887 0.24710
 Zn674 Zn 0.11502 0.49961 0.24858
 N675 N 0.12977 0.52243 0.24867
 C676 C 0.09965 0.51188 0.28375
 N677 N 0.09940 0.49804 0.27034
 C678 C 0.08869 0.48196 0.27252
 C679 C 0.07750 0.47941 0.28858
 C680 C 0.08865 0.50989 0.30003
 C681 C 0.10876 0.50250 0.20990
 C682 C 0.09829 0.50471 0.19339
 C683 C 0.06921 0.50293 0.21165
 C684 C 0.08025 0.50075 0.22783
 N685 N 0.09966 0.50052 0.22668
 H686 H 0.10856 0.52434 0.28199
 H687 H 0.08899 0.47104 0.26179
 H688 H 0.06910 0.46653 0.29021
 H689 H 0.08902 0.52091 0.31069
 H690 H 0.12420 0.50263 0.20942
 H691 H 0.10576 0.50639 0.18016
 H692 H 0.05377 0.50324 0.21280
 H693 H 0.07327 0.49966 0.24130
 C694 C 0.14972 0.55660 0.24615
 C695 C 0.15177 0.44394 0.25156
 C696 C 0.07831 0.50503 0.19426
 C697 C 0.07750 0.49349 0.30249
 C698 C -0.14154 1.02358 0.26576
 H699 H -0.14200 1.01302 0.27682
 C700 C -0.15191 1.04055 0.26757
 H701 H -0.16051 1.04300 0.27998
 C702 C -0.12917 1.03365 0.23641
 H703 H -0.11991 1.03116 0.22452
 C704 C -0.13932 1.05082 0.23768
 H705 H -0.13801 1.06136 0.22663
 N706 N -0.13043 1.02044 0.25036
 C707 C -0.12043 0.95862 0.24892
 H708 H -0.10498 0.95857 0.24867
 C709 C -0.13044 0.94141 0.24767
 H710 H -0.12269 0.92807 0.24658
 C711 C -0.14940 0.97610 0.25011
 H712 H -0.15673 0.98966 0.25069
 C713 C -0.15998 0.95917 0.24887
 H714 H -0.17544 0.95976 0.24871
 Zn715 Zn -0.11491 0.99813 0.25015
 N716 N -0.12996 0.97552 0.25018
 C717 C -0.09966 0.98552 0.28516
 N718 N -0.09930 0.99943 0.27183
 C719 C -0.08848 1.01542 0.27403
 C720 C -0.07729 1.01782 0.29004
 C721 C -0.08866 0.98736 0.30140
 C722 C -0.10864 0.99543 0.21144
 C723 C -0.09817 0.99355 0.19484
 C724 C -0.06909 0.99513 0.21294
 C725 C -0.08012 0.99699 0.22922
 N726 N -0.09953 0.99720 0.22818
 H727 H -0.10865 0.97313 0.28338
 H728 H -0.08870 1.02639 0.26336
 H729 H -0.06881 1.03064 0.29170
 H730 H -0.08911 0.97630 0.31201
 H731 H -0.12407 0.99530 0.21104
 H732 H -0.10560 0.99211 0.18161
 H733 H -0.05366 0.99490 0.21394
 H734 H -0.07314 0.99793 0.24266
 C735 C -0.15041 0.94167 0.24757
 C736 C -0.15069 1.05437 0.25346
 C737 C -0.07820 0.99335 0.19558
 C738 C -0.07740 1.00368 0.30388
 C739 C 0.35762 0.52429 -0.23402
 H740 H 0.35711 0.51383 -0.22287
 C741 C 0.34725 0.54128 -0.23237
 H742 H 0.33861 0.54384 -0.22000
 C743 C 0.37009 0.53413 -0.26340
 H744 H 0.37938 0.53153 -0.27524
 C745 C 0.35995 0.55131 -0.26230
 H746 H 0.36130 0.56176 -0.27342
 N747 N 0.36877 0.52102 -0.24935
 C748 C 0.37944 0.45823 -0.25047
 H749 H 0.39489 0.45826 -0.25047
 C750 C 0.36993 0.44171 -0.25180
 H751 H 0.37772 0.42838 -0.25280
 C752 C 0.35067 0.47653 -0.24946
 H753 H 0.34326 0.49005 -0.24911
 C754 C 0.33956 0.45860 -0.25081
 H755 H 0.32410 0.45924 -0.25105
 Zn756 Zn 0.38429 0.49870 -0.24937
 N757 N 0.36928 0.47606 -0.24926
 C758 C 0.39950 0.48624 -0.21430
 N759 N 0.39982 0.50013 -0.22765
 C760 C 0.41060 0.51615 -0.22548
 C761 C 0.42180 0.51860 -0.20948
 C762 C 0.41051 0.48813 -0.19807
 C763 C 0.39075 0.49575 -0.28803
 C764 C 0.40131 0.49381 -0.30457
 C765 C 0.43028 0.49556 -0.28635
 C766 C 0.41917 0.49747 -0.27013
 N767 N 0.39976 0.49764 -0.27126
 H768 H 0.39055 0.47382 -0.21607
 H769 H 0.41036 0.52710 -0.23617
 H770 H 0.43026 0.53144 -0.20785
 H771 H 0.41010 0.47708 -0.18745
 H772 H 0.37531 0.49559 -0.28851
 H773 H 0.39400 0.49228 -0.31785
 H774 H 0.44570 0.49537 -0.28532
 H775 H 0.42609 0.49851 -0.25666
 C776 C 0.34882 0.44186 -0.25206
 C777 C 0.34853 0.55499 -0.24658
 C778 C 0.42126 0.49366 -0.30372
 C779 C 0.42174 0.50447 -0.19563
 C780 C 0.64448 -0.02550 -0.23460
 H781 H 0.64492 -0.01485 -0.22362
 C782 C 0.65458 -0.04165 -0.23291
 H783 H 0.66325 -0.04400 -0.22058
 C784 C 0.63176 -0.03492 -0.26424
 H785 H 0.62238 -0.03263 -0.27601
 C786 C 0.64276 -0.05291 -0.26301
 H787 H 0.64157 -0.06335 -0.27417
 N788 N 0.63273 -0.02229 -0.25083
 C789 C 0.62192 0.03939 -0.25179
 H790 H 0.60648 0.03926 -0.25193
 C791 C 0.63173 0.05672 -0.25304
 H792 H 0.62378 0.06996 -0.25400
 C793 C 0.65109 0.02224 -0.25089
 H794 H 0.65857 0.00875 -0.25043
 C795 C 0.66149 0.03928 -0.25213
 H796 H 0.67695 0.03882 -0.25241
 Zn797 Zn 0.61687 -0.00020 -0.25079
 N798 N 0.63165 0.02260 -0.25069
 C799 C 0.60148 0.01203 -0.21560
 N800 N 0.60131 -0.00182 -0.22900
 C801 C 0.59062 -0.01792 -0.22685
 C802 C 0.57935 -0.02046 -0.21084
 C803 C 0.59040 0.01005 -0.19937
 C804 C 0.61041 0.00282 -0.28945
 C805 C 0.59983 0.00503 -0.30589
 C806 C 0.57088 0.00316 -0.28749
 C807 C 0.58200 0.00099 -0.27138
 N808 N 0.60141 0.00079 -0.27263
 H809 H 0.61036 0.02452 -0.21735
 H810 H 0.59097 -0.02884 -0.23757
 H811 H 0.57095 -0.03335 -0.20925
 H812 H 0.59068 0.02109 -0.18874
 H813 H 0.62584 0.00299 -0.29002
 H814 H 0.60713 0.00675 -0.31919
 H815 H 0.55546 0.00344 -0.28636
 H816 H 0.57509 -0.00014 -0.25787
 C817 C 0.65171 0.05670 -0.25330
 C818 C 0.65358 -0.05625 -0.24786
 C819 C 0.57988 0.00529 -0.30490
 C820 C 0.57924 -0.00636 -0.19696
 C821 C 0.02688 0.26326 0.85842
 H822 H 0.01893 0.27650 0.85825
 C823 C 0.04373 0.26161 0.84816
 H824 H 0.04886 0.27359 0.83997
 C825 C 0.03019 0.23152 0.86968
 H826 H 0.02503 0.21998 0.87835
 C827 C 0.04713 0.22927 0.85962
 H828 H 0.05496 0.21595 0.86043
 N829 N 0.02040 0.24828 0.86875
 C830 C -0.04026 0.25766 0.87472
 H831 H -0.04153 0.25711 0.88983
 C832 C -0.05649 0.25981 0.86372
 H833 H -0.07041 0.26094 0.87031
 C834 C -0.02061 0.25625 0.84756
 H835 H -0.00667 0.25445 0.84134
 C836 C -0.03651 0.25836 0.83603
 H837 H -0.03479 0.25831 0.82093
 Zn838 Zn -0.00203 0.25218 0.88259
 N839 N -0.02279 0.25608 0.86653
 C840 C -0.00947 0.28931 0.89563
 N841 N 0.00193 0.27374 0.89765
 C842 C 0.01724 0.27387 0.90937
 C843 C 0.02148 0.29018 0.91980
 C844 C -0.00576 0.30585 0.90578
 C845 C -0.01249 0.21460 0.88742
 C846 C -0.01666 0.19778 0.89696
 C847 C -0.01169 0.21446 0.92627
 C848 C -0.00763 0.23103 0.91614
 N849 N -0.00774 0.23064 0.89707
 H850 H -0.02118 0.28914 0.88584
 H851 H 0.02628 0.26139 0.91035
 H852 H 0.03376 0.29034 0.92900
 H853 H -0.01479 0.31827 0.90398
 H854 H -0.01272 0.21486 0.87225
 H855 H -0.01996 0.18491 0.88918
 H856 H -0.01114 0.21464 0.94144
 H857 H -0.00425 0.24406 0.92350
 C858 C -0.05455 0.26013 0.84424
 C859 C 0.05389 0.24446 0.84879
 C860 C -0.01607 0.19771 0.91653
 C861 C 0.00988 0.30628 0.91787
 C862 C 0.47502 0.26083 0.14442
 H863 H 0.48313 0.27398 0.14420
 C864 C 0.45869 0.25939 0.15551
 H865 H 0.45412 0.27144 0.16393
 C866 C 0.47066 0.22920 0.13323
 H867 H 0.47515 0.21764 0.12422
 C868 C 0.45423 0.22715 0.14411
 H869 H 0.44613 0.21398 0.14358
 N870 N 0.48070 0.24582 0.13368
 C871 C 0.54094 0.25471 0.12373
 H872 H 0.54118 0.25415 0.10857
 C873 C 0.55790 0.25676 0.13364
 H874 H 0.57135 0.25781 0.12617
 C875 C 0.52316 0.25347 0.15210
 H876 H 0.50964 0.25178 0.15922
 C877 C 0.53981 0.25549 0.16257
 H878 H 0.53911 0.25550 0.17774
 Zn879 Zn 0.50218 0.24957 0.11841
 N880 N 0.52404 0.25328 0.13304
 C881 C 0.50900 0.28663 0.10484
 N882 N 0.49734 0.27116 0.10364
 C883 C 0.48126 0.27139 0.09298
 C884 C 0.47647 0.28768 0.08276
 C885 C 0.50476 0.30315 0.09486
 C886 C 0.51194 0.21189 0.11283
 C887 C 0.51537 0.19509 0.10297
 C888 C 0.50867 0.21193 0.07411
 C889 C 0.50538 0.22847 0.08453
 N890 N 0.50671 0.22800 0.10355
 H891 H 0.52137 0.28638 0.11381
 H892 H 0.47206 0.25898 0.09265
 H893 H 0.46359 0.28790 0.07439
 H894 H 0.51402 0.31549 0.09598
 H895 H 0.51316 0.21209 0.12794
 H896 H 0.51909 0.18217 0.11047
 H897 H 0.50718 0.21218 0.05900
 H898 H 0.50164 0.24157 0.07745
 C899 C 0.55728 0.25713 0.15321
 C900 C 0.44823 0.24241 0.15528
 C901 C 0.51354 0.19511 0.08349
 C902 C 0.48834 0.30367 0.08382
 C903 C -0.02558 0.76166 0.64541
 H904 H -0.01744 0.77478 0.64510
 C905 C -0.04105 0.76024 0.65627
 H906 H -0.04550 0.77223 0.66482
 C907 C -0.02927 0.72984 0.63370
 H908 H -0.02496 0.71832 0.62458
 C909 C -0.04645 0.72764 0.64546
 H910 H -0.05447 0.71440 0.64493
 N911 N -0.01971 0.74579 0.63397
 C912 C 0.04029 0.75512 0.62316
 H913 H 0.04034 0.75460 0.60800
 C914 C 0.05735 0.75730 0.63288
 H915 H 0.07070 0.75848 0.62525
 C916 C 0.02286 0.75366 0.65174
 H917 H 0.00945 0.75185 0.65901
 C918 C 0.03962 0.75581 0.66201
 H919 H 0.03911 0.75578 0.67719
 Zn920 Zn 0.00147 0.74975 0.61835
 N921 N 0.02352 0.75352 0.63268
 C922 C 0.00784 0.78695 0.60498
 N923 N -0.00374 0.77142 0.60382
 C924 C -0.01997 0.77164 0.59337
 C925 C -0.02498 0.78798 0.58332
 C926 C 0.00338 0.80350 0.59517
 C927 C 0.01146 0.71219 0.61236
 C928 C 0.01487 0.69548 0.60234
 C929 C 0.00750 0.71244 0.57371
 C930 C 0.00425 0.72889 0.58428
 N931 N 0.00592 0.72831 0.60327
 H932 H 0.02033 0.78670 0.61379
 H933 H -0.02911 0.75919 0.59307
 H934 H -0.03795 0.78818 0.57509
 H935 H 0.01261 0.81588 0.59624
 H936 H 0.01295 0.71231 0.62745
 H937 H 0.01886 0.68255 0.60970
 H938 H 0.00575 0.71277 0.55862
 H939 H 0.00026 0.74199 0.57735
 C940 C 0.05696 0.75763 0.65245
 C941 C -0.05209 0.74228 0.65621
 C942 C 0.01270 0.69561 0.58290
 C943 C -0.01317 0.80402 0.58433
 C944 C 0.52659 0.76193 0.35801
 H945 H 0.51868 0.77519 0.35751
 C946 C 0.54365 0.76011 0.34811
 H947 H 0.54898 0.77198 0.33988
 C948 C 0.52957 0.73033 0.36971
 H949 H 0.52421 0.71891 0.37842
 C950 C 0.54673 0.72791 0.36003
 H951 H 0.55449 0.71459 0.36115
 N952 N 0.51985 0.74710 0.36837
 C953 C 0.45914 0.75687 0.37307
 H954 H 0.45758 0.75656 0.38816
 C955 C 0.44314 0.75892 0.36173
 H956 H 0.42911 0.76021 0.36804
 C957 C 0.47930 0.75496 0.34630
 H958 H 0.49335 0.75298 0.34037
 C959 C 0.46364 0.75695 0.33444
 H960 H 0.46564 0.75665 0.31937
 Zn961 Zn 0.49716 0.75125 0.38173
 N962 N 0.47676 0.75508 0.36522
 C963 C 0.48968 0.78855 0.39437
 N964 N 0.50095 0.77292 0.39668
 C965 C 0.51603 0.77302 0.40867
 C966 C 0.52015 0.78935 0.41913
 C967 C 0.49328 0.80510 0.40454
 C968 C 0.48648 0.71375 0.38672
 C969 C 0.48220 0.69701 0.39636
 C970 C 0.48666 0.71398 0.42558
 C971 C 0.49084 0.73045 0.41537
 N972 N 0.49107 0.72988 0.39630
 H973 H 0.47815 0.78838 0.38437
 H974 H 0.52498 0.76050 0.40988
 H975 H 0.53224 0.78946 0.42856
 H976 H 0.48435 0.81757 0.40253
 H977 H 0.48652 0.71386 0.37156
 H978 H 0.47908 0.68406 0.38864
 H979 H 0.48699 0.71429 0.44076
 H980 H 0.49410 0.74356 0.42267
 C981 C 0.44545 0.75892 0.34228
 C982 C 0.55375 0.74295 0.34916
 C983 C 0.48251 0.69712 0.41593
 C984 C 0.50867 0.80550 0.41693
 Zr985 Zr 0.01489 -0.01442 1.02470
 O986 O 0.03331 -0.00364 1.04568
 O987 O 0.01327 -0.04337 1.03184
 O988 O 0.00233 -0.01619 1.05167
 O989 O 0.05014 -0.01891 0.99072
 O990 O -0.02708 -0.00265 1.04786
 O991 O 0.04313 -0.02473 1.02150
 O992 O -0.00781 -0.05561 1.01061
 O993 O -0.01388 -0.02071 1.01959
 O994 O 0.01385 -0.02734 0.99829
 O995 O 0.00048 0.01190 1.02611
 O996 O 0.02746 0.00533 1.00599
 Zr997 Zr -0.01806 0.01263 0.97434
 Zr998 Zr -0.02798 0.00566 1.01956
 Zr999 Zr 0.02485 -0.00741 0.97948
 Zr1000 Zr -0.01478 -0.03263 0.99281
 O1001 O 0.04826 0.01005 0.97184
 O1002 O -0.04077 -0.04376 1.00350
 O1003 O -0.00360 -0.01378 0.97266
 O1004 O -0.03029 -0.00709 0.99311
 O1005 O -0.01713 0.02577 1.00069
 O1006 O 0.01067 0.01878 0.97961
 C1007 C 0.00341 -0.05701 1.02476
 C1008 C 0.05440 -0.02502 1.00718
 C1009 C -0.01413 -0.01074 1.05778
 O1010 O -0.05267 -0.01074 1.02536
 O1011 O -0.05207 0.02008 1.00904
 O1012 O -0.04553 0.02465 0.97797
 C1013 C -0.05627 0.02624 0.99259
 O1014 O 0.03227 0.03531 1.02758
 Zr1015 Zr 0.01164 0.03084 1.00623
 O1016 O -0.01687 0.04169 0.96750
 O1017 O -0.03361 0.02961 1.03681
 O1018 O 0.00022 0.05130 1.02510
 O1019 O 0.03623 0.04388 0.99445
 O1020 O 0.00202 0.05434 0.99042
 C1021 C -0.00880 0.05570 0.97597
 O1022 O -0.03754 0.00212 0.95418
 O1023 O 0.03198 -0.03221 0.96401
 O1024 O -0.00636 0.01250 0.94694
 O1025 O 0.02255 -0.00215 0.95059
 O1026 O -0.00291 -0.05451 0.97583
 O1027 O -0.03264 -0.03790 0.96933
 C1028 C 0.00950 0.00570 0.94060
 H1029 H 0.02128 -0.03934 0.99758
 H1030 H -0.04377 -0.00972 0.98986
 H1031 H 0.01627 0.02755 0.97021
 H1032 H 0.00164 0.01764 1.03874
 H1033 H -0.04083 -0.05768 1.00097
 H1034 H -0.06033 -0.00339 1.03457
 H1035 H -0.04611 0.02729 1.04295
 H1036 H 0.00683 0.06358 1.02271
 H1037 H -0.01009 -0.06641 0.97848
 H1038 H 0.04438 -0.02966 0.95777
 H1039 H 0.05597 0.00265 0.96271
 H1040 H 0.03567 0.05766 0.99760
 H1041 H -0.03768 -0.05109 0.97002
 H1042 H -0.04117 0.01301 0.94604
 H1043 H 0.03706 -0.01457 1.05371
 H1044 H 0.03508 0.04912 1.02864
 Zr1045 Zr 0.51522 0.48548 0.52467
 O1046 O 0.53369 0.49633 0.54557
 O1047 O 0.51358 0.45657 0.53193
 O1048 O 0.50271 0.48382 0.55167
 O1049 O 0.55039 0.48075 0.49064
 O1050 O 0.47330 0.49738 0.54786
 O1051 O 0.54343 0.47509 0.52146
 O1052 O 0.49244 0.44426 0.51079
 O1053 O 0.48643 0.47922 0.51965
 O1054 O 0.51410 0.47245 0.49832
 O1055 O 0.50087 0.51183 0.52601
 O1056 O 0.52779 0.50512 0.50586
 Zr1057 Zr 0.48222 0.51237 0.47428
 Zr1058 Zr 0.47237 0.50561 0.51954
 Zr1059 Zr 0.52511 0.49228 0.47941
 Zr1060 Zr 0.48545 0.46719 0.49292
 O1061 O 0.54854 0.50967 0.47166
 O1062 O 0.45946 0.45615 0.50372
 O1063 O 0.49663 0.48593 0.47267
 O1064 O 0.46998 0.49276 0.49314
 O1065 O 0.48323 0.52562 0.50057
 O1066 O 0.51097 0.51850 0.47946
 C1067 C 0.50369 0.44290 0.52492
 C1068 C 0.55467 0.47471 0.50712
 C1069 C 0.48626 0.48930 0.55778
 O1070 O 0.44764 0.48931 0.52542
 O1071 O 0.44832 0.52009 0.50902
 O1072 O 0.45480 0.52451 0.47792
 C1073 C 0.44411 0.52622 0.49255
 O1074 O 0.53272 0.53518 0.52730
 Zr1075 Zr 0.51202 0.53067 0.50603
 O1076 O 0.48343 0.54140 0.46733
 O1077 O 0.46685 0.52962 0.53674
 O1078 O 0.50071 0.55122 0.52487
 O1079 O 0.53658 0.54363 0.49411
 O1080 O 0.50235 0.55413 0.49018
 C1081 C 0.49149 0.55543 0.47575
 O1082 O 0.46266 0.50180 0.45421
 O1083 O 0.53216 0.46741 0.46401
 O1084 O 0.49386 0.51212 0.44686
 O1085 O 0.52275 0.49743 0.45050
 O1086 O 0.49722 0.44521 0.47600
 O1087 O 0.46752 0.46186 0.46950
 C1088 C 0.50969 0.50527 0.44051
 H1089 H 0.52151 0.46043 0.49763
 H1090 H 0.45649 0.49015 0.48993
 H1091 H 0.51656 0.52722 0.47001
 H1092 H 0.50206 0.51762 0.53862
 H1093 H 0.45938 0.44222 0.50126
 H1094 H 0.44003 0.49671 0.53464
 H1095 H 0.45434 0.52737 0.54289
 H1096 H 0.50734 0.56347 0.52241
 H1097 H 0.49002 0.43334 0.47871
 H1098 H 0.54455 0.46992 0.45774
 H1099 H 0.55620 0.50222 0.46254
 H1100 H 0.53604 0.55742 0.49720
 H1101 H 0.46243 0.44870 0.47027
 H1102 H 0.45903 0.51266 0.44604
 H1103 H 0.53745 0.48543 0.55364
 H1104 H 0.53560 0.54898 0.52827
 Zr1105 Zr 0.48491 1.01785 0.52472
 O1106 O 0.46638 1.00735 0.54584
 O1107 O 0.48709 1.04674 0.53198
 O1108 O 0.49759 1.01926 0.55161
 O1109 O 0.44959 1.02292 0.49106
 O1110 O 0.52681 1.00536 0.54741
 O1111 O 0.45680 1.02857 0.52180
 O1112 O 0.50826 1.05870 0.51056
 O1113 O 0.51375 1.02372 0.51932
 O1114 O 0.48602 1.03081 0.49833
 O1115 O 0.49893 0.99131 0.52591
 O1116 O 0.47197 0.99834 0.50608
 Zr1117 Zr 0.51722 0.99040 0.47394
 Zr1118 Zr 0.52745 0.99715 0.51908
 Zr1119 Zr 0.47466 1.01108 0.47957
 Zr1120 Zr 0.51470 1.03568 0.49256
 O1121 O 0.45092 0.99401 0.47214
 O1122 O 0.54095 1.04639 0.50292
 O1123 O 0.50317 1.01703 0.47246
 O1124 O 0.52983 1.00990 0.49263
 O1125 O 0.51621 0.97725 0.50028
 O1126 O 0.48844 0.98467 0.47951
 C1127 C 0.49717 1.06024 0.52487
 C1128 C 0.44547 1.02903 0.50759
 C1129 C 0.51400 1.01354 0.55752
 O1130 O 0.55240 1.01318 0.52465
 O1131 O 0.55124 0.98235 0.50830
 O1132 O 0.54454 0.97794 0.47728
 C1133 C 0.55528 0.97613 0.49181
 O1134 O 0.46675 0.96844 0.52760
 Zr1135 Zr 0.48740 0.97259 0.50610
 O1136 O 0.51567 0.96134 0.46712
 O1137 O 0.53282 0.97308 0.53621
 O1138 O 0.49853 0.95194 0.52487
 O1139 O 0.46262 0.95989 0.49449
 O1140 O 0.49671 0.94896 0.49023
 C1141 C 0.50748 0.94745 0.47570
 O1142 O 0.53673 1.00069 0.45358
 O1143 O 0.46791 1.03602 0.46420
 O1144 O 0.50531 0.99061 0.44667
 O1145 O 0.47667 1.00574 0.45064
 O1146 O 0.50302 1.05777 0.47581
 O1147 O 0.53250 1.04076 0.46889
 C1148 C 0.48950 0.99761 0.44051
 H1149 H 0.47877 1.04293 0.49774
 H1150 H 0.54333 1.01233 0.48925
 H1151 H 0.48267 0.97598 0.47016
 H1152 H 0.49774 0.98556 0.53854
 H1153 H 0.54120 1.06031 0.50044
 H1154 H 0.56000 1.00571 0.53376
 H1155 H 0.54536 0.97521 0.54224
 H1156 H 0.49170 0.93978 0.52253
 H1157 H 0.51035 1.06957 0.47844
 H1158 H 0.45542 1.03370 0.45811
 H1159 H 0.44329 1.00155 0.46311
 H1160 H 0.46301 0.94611 0.49760
 H1161 H 0.53765 1.05391 0.46951
 H1162 H 0.54016 0.98976 0.44539
 H1163 H 0.46284 1.01833 0.55393
 H1164 H 0.46369 0.95468 0.52864
 Zr1165 Zr -0.01503 0.51857 1.02513
 O1166 O -0.03360 0.50792 1.04614
 O1167 O -0.01283 0.54739 1.03262
 O1168 O -0.00240 0.51975 1.05205
 O1169 O -0.05029 0.52386 0.99145
 O1170 O 0.02683 0.50589 1.04780
 O1171 O -0.04314 0.52930 1.02224
 O1172 O 0.00839 0.55949 1.01133
 O1173 O 0.01381 0.52448 1.01981
 O1174 O -0.01388 0.53172 0.99883
 O1175 O -0.00101 0.49202 1.02616
 O1176 O -0.02793 0.49918 1.00633
 Zr1177 Zr 0.01737 0.49148 0.97420
 Zr1178 Zr 0.02752 0.49791 1.01941
 Zr1179 Zr -0.02521 0.51211 0.97991
 Zr1180 Zr 0.01481 0.53663 0.99313
 O1181 O -0.04894 0.49510 0.97234
 O1182 O 0.04105 0.54728 1.00354
 O1183 O 0.00330 0.51812 0.97288
 O1184 O 0.02994 0.51085 0.99305
 O1185 O 0.01631 0.47815 1.00045
 O1186 O -0.01142 0.48570 0.97969
 C1187 C -0.00270 0.56092 1.02565
 C1188 C -0.05445 0.52985 1.00801
 C1189 C 0.01400 0.51398 1.05795
 O1190 O 0.05245 0.51392 1.02513
 O1191 O 0.05133 0.48320 1.00856
 O1192 O 0.04469 0.47903 0.97749
 C1193 C 0.05541 0.47711 0.99202
 O1194 O -0.03323 0.46915 1.02761
 Zr1195 Zr -0.01250 0.47344 1.00620
 O1196 O 0.01589 0.46246 0.96722
 O1197 O 0.03288 0.47371 1.03636
 O1198 O -0.00145 0.45267 1.02489
 O1199 O -0.03722 0.46079 0.99441
 O1200 O -0.00308 0.44992 0.99024
 C1201 C 0.00774 0.44850 0.97573
 O1202 O 0.03687 0.50196 0.95393
 O1203 O -0.03194 0.53716 0.96470
 O1204 O 0.00547 0.49183 0.94693
 O1205 O -0.02317 0.50695 0.95095
 O1206 O 0.00310 0.55885 0.97656
 O1207 O 0.03260 0.54187 0.96950
 C1208 C -0.01034 0.49886 0.94079
 H1209 H -0.02113 0.54384 0.99832
 H1210 H 0.04345 0.51331 0.98970
 H1211 H -0.01717 0.47707 0.97027
 H1212 H -0.00222 0.48617 1.03873
 H1213 H 0.04130 0.56122 1.00114
 H1214 H 0.06004 0.50638 1.03420
 H1215 H 0.04541 0.47580 1.04244
 H1216 H -0.00827 0.44052 1.02245
 H1217 H 0.01043 0.57063 0.97929
 H1218 H -0.04442 0.53488 0.95858
 H1219 H -0.05656 0.50269 0.96335
 H1220 H -0.03683 0.44698 0.99744
 H1221 H 0.03770 0.55504 0.97018
 H1222 H 0.04033 0.49108 0.94567
 H1223 H -0.03715 0.51884 1.05431
 H1224 H -0.03631 0.45539 1.02854
 Zr1225 Zr -0.01589 0.48263 0.47435
 O1226 O -0.03461 0.49277 0.45333
 O1227 O -0.01348 0.45369 0.46733
 O1228 O -0.00332 0.48109 0.44735
 O1229 O -0.05098 0.47754 0.50843
 O1230 O 0.02574 0.49539 0.45108
 O1231 O -0.04390 0.47171 0.47766
 O1232 O 0.00796 0.44216 0.48859
 O1233 O 0.01304 0.47712 0.47947
 O1234 O -0.01449 0.46990 0.50083
 O1235 O -0.00217 0.50931 0.47279
 O1236 O -0.02892 0.50216 0.49299
 Zr1237 Zr 0.01642 0.51086 0.52454
 Zr1238 Zr 0.02646 0.50384 0.47934
 Zr1239 Zr -0.02595 0.48967 0.51957
 Zr1240 Zr 0.01428 0.46540 0.50632
 O1241 O -0.04980 0.50655 0.52719
 O1242 O 0.04056 0.45485 0.49573
 O1243 O 0.00266 0.48409 0.52639
 O1244 O 0.02912 0.49133 0.50587
 O1245 O 0.01512 0.52380 0.49812
 O1246 O -0.01246 0.51622 0.51926
 C1247 C -0.00321 0.44037 0.47444
 C1248 C -0.05515 0.47129 0.49200
 C1249 C 0.01298 0.48694 0.44120
 O1250 O 0.05153 0.48801 0.47359
 O1251 O 0.05020 0.51890 0.48975
 O1252 O 0.04360 0.52353 0.52080
 C1253 C 0.05429 0.52527 0.50616
 O1254 O -0.03453 0.53186 0.47122
 Zr1255 Zr -0.01378 0.52808 0.49259
 O1256 O 0.01448 0.53994 0.53119
 O1257 O 0.03147 0.52784 0.46199
 O1258 O -0.00290 0.54872 0.47361
 O1259 O -0.03872 0.54051 0.50430
 O1260 O -0.00482 0.55193 0.50827
 C1261 C 0.00599 0.55366 0.52269
 O1262 O 0.03617 0.50099 0.54476
 O1263 O -0.03238 0.46477 0.53516
 O1264 O 0.00472 0.51067 0.55195
 O1265 O -0.02378 0.49521 0.54844
 O1266 O 0.00292 0.44334 0.52339
 O1267 O 0.03228 0.46071 0.52981
 C1268 C -0.01095 0.50353 0.55836
 H1269 H -0.02162 0.45772 0.50160
 H1270 H 0.04267 0.48906 0.50911
 H1271 H -0.01829 0.52490 0.52862
 H1272 H -0.00349 0.51495 0.46014
 H1273 H 0.04097 0.44096 0.49834
 H1274 H 0.05900 0.49549 0.46435
 H1275 H 0.04402 0.52580 0.45584
 H1276 H -0.00984 0.56082 0.47593
 H1277 H 0.01036 0.43159 0.52077
 H1278 H -0.04483 0.46702 0.54141
 H1279 H -0.05730 0.49900 0.53637
 H1280 H -0.03855 0.55428 0.50108
 H1281 H 0.03755 0.44760 0.52925
 H1282 H 0.03952 0.51203 0.55283
 H1283 H -0.03808 0.48168 0.44537
 H1284 H -0.03770 0.54559 0.47008
 Zr1285 Zr 0.48422 -0.01726 -0.02593
 O1286 O 0.46564 -0.00684 -0.04694
 O1287 O 0.48648 -0.04615 -0.03317
 O1288 O 0.49688 -0.01869 -0.05290
 O1289 O 0.44899 -0.02242 0.00800
 O1290 O 0.52602 -0.00461 -0.04896
 O1291 O 0.45614 -0.02805 -0.02279
 O1292 O 0.50779 -0.05797 -0.01194
 O1293 O 0.51310 -0.02297 -0.02076
 O1294 O 0.48545 -0.03020 0.00046
 O1295 O 0.49811 0.00935 -0.02726
 O1296 O 0.47124 0.00221 -0.00720
 Zr1297 Zr 0.51652 0.01039 0.02456
 Zr1298 Zr 0.52668 0.00366 -0.02065
 Zr1299 Zr 0.47404 -0.01050 0.01930
 Zr1300 Zr 0.51417 -0.03492 0.00600
 O1301 O 0.45025 0.00645 0.02695
 O1302 O 0.54044 -0.04553 -0.00456
 O1303 O 0.50260 -0.01630 0.02618
 O1304 O 0.52917 -0.00907 0.00579
 O1305 O 0.51539 0.02354 -0.00177
 O1306 O 0.48770 0.01597 0.01923
 C1307 C 0.49666 -0.05958 -0.02614
 C1308 C 0.44484 -0.02853 -0.00849
 C1309 C 0.51325 -0.01292 -0.05895
 O1310 O 0.55169 -0.01226 -0.02641
 O1311 O 0.55046 0.01852 -0.01006
 O1312 O 0.54379 0.02294 0.02101
 C1313 C 0.55452 0.02474 0.00641
 O1314 O 0.46588 0.03212 -0.02877
 Zr1315 Zr 0.48654 0.02804 -0.00737
 O1316 O 0.51474 0.03943 0.03142
 O1317 O 0.53188 0.02774 -0.03783
 O1318 O 0.49762 0.04875 -0.02615
 O1319 O 0.46163 0.04054 0.00435
 O1320 O 0.49558 0.05171 0.00853
 C1321 C 0.50635 0.05327 0.02300
 O1322 O 0.53614 0.00024 0.04477
 O1323 O 0.46743 -0.03548 0.03470
 O1324 O 0.50472 0.01010 0.05192
 O1325 O 0.47614 -0.00516 0.04822
 O1326 O 0.50263 -0.05705 0.02286
 O1327 O 0.53205 -0.03989 0.02953
 C1328 C 0.48898 0.00301 0.05823
 H1329 H 0.47825 -0.04234 0.00111
 H1330 H 0.54269 -0.01144 0.00907
 H1331 H 0.48188 0.02462 0.02862
 H1332 H 0.49687 0.01509 -0.03988
 H1333 H 0.54076 -0.05944 -0.00205
 H1334 H 0.55923 -0.00476 -0.03559
 H1335 H 0.54443 0.02567 -0.04396
 H1336 H 0.49075 0.06089 -0.02376
 H1337 H 0.51001 -0.06882 0.02017
 H1338 H 0.45497 -0.03320 0.04092
 H1339 H 0.44269 -0.00112 0.03605
 H1340 H 0.46190 0.05433 0.00123
 H1341 H 0.53725 -0.05302 0.02889
 H1342 H 0.53953 0.01120 0.05293
 H1343 H 0.46213 -0.01784 -0.05500
 H1344 H 0.46282 0.04588 -0.02983
 Zr1345 Zr 0.51526 0.51458 -0.02440
 O1346 O 0.53359 0.50343 -0.04537
 O1347 O 0.51403 0.54351 -0.03169
 O1348 O 0.50277 0.51630 -0.05135
 O1349 O 0.55050 0.51888 0.00941
 O1350 O 0.47316 0.50323 -0.04730
 O1351 O 0.54360 0.52460 -0.02137
 O1352 O 0.49316 0.55617 -0.01038
 O1353 O 0.48657 0.52130 -0.01920
 O1354 O 0.51435 0.52766 0.00195
 O1355 O 0.50050 0.48845 -0.02560
 O1356 O 0.52755 0.49477 -0.00564
 Zr1357 Zr 0.48190 0.48827 0.02627
 Zr1358 Zr 0.47212 0.49513 -0.01895
 Zr1359 Zr 0.52508 0.50769 0.02081
 Zr1360 Zr 0.48579 0.53337 0.00753
 O1361 O 0.54827 0.48996 0.02836
 O1362 O 0.45999 0.54480 -0.00315
 O1363 O 0.49671 0.51449 0.02774
 O1364 O 0.46994 0.50804 0.00745
 O1365 O 0.48269 0.47499 -0.00002
 O1366 O 0.51054 0.48169 0.02089
 C1367 C 0.50440 0.55734 -0.02460
 C1368 C 0.55484 0.52487 -0.00710
 C1369 C 0.48625 0.51103 -0.05735
 O1370 O 0.44765 0.51183 -0.02470
 O1371 O 0.44788 0.48102 -0.00826
 O1372 O 0.45430 0.47654 0.02281
 C1373 C 0.44359 0.47496 0.00823
 O1374 O 0.53203 0.46463 -0.02703
 Zr1375 Zr 0.51138 0.46947 -0.00566
 O1376 O 0.48260 0.45923 0.03323
 O1377 O 0.46618 0.47117 -0.03606
 O1378 O 0.49976 0.44908 -0.02443
 O1379 O 0.53571 0.45610 0.00614
 O1380 O 0.50128 0.44619 0.01025
 C1381 C 0.49040 0.44506 0.02474
 O1382 O 0.46255 0.49920 0.04646
 O1383 O 0.53249 0.53245 0.03618
 O1384 O 0.49362 0.48831 0.05361
 O1385 O 0.52273 0.50255 0.04973
 O1386 O 0.49791 0.55517 0.02438
 O1387 O 0.46793 0.53902 0.03103
 C1388 C 0.50959 0.49489 0.05982
 H1389 H 0.52194 0.53956 0.00258
 H1390 H 0.45649 0.51086 0.01075
 H1391 H 0.51601 0.47288 0.03031
 H1392 H 0.50160 0.48262 -0.03820
 H1393 H 0.46013 0.55873 -0.00072
 H1394 H 0.43990 0.50453 -0.03383
 H1395 H 0.45372 0.47363 -0.04215
 H1396 H 0.50620 0.43673 -0.02199
 H1397 H 0.49090 0.56715 0.02170
 H1398 H 0.54486 0.52976 0.04236
 H1399 H 0.55608 0.49729 0.03742
 H1400 H 0.53494 0.44232 0.00306
 H1401 H 0.46305 0.55227 0.03026
 H1402 H 0.45876 0.48840 0.05467
 H1403 H 0.53749 0.51426 -0.05349
 H1404 H 0.53468 0.45078 -0.02802
 Zr1405 Zr 0.01531 1.01415 0.47551
 O1406 O 0.03367 1.00273 0.45471
 O1407 O 0.01425 1.04302 0.46796
 O1408 O 0.00294 1.01571 0.44851
 O1409 O 0.05044 1.01861 0.50942
 O1410 O -0.02675 1.00282 0.45255
 O1411 O 0.04368 1.02408 0.47856
 O1412 O -0.00664 1.05597 0.48908
 O1413 O -0.01336 1.02106 0.48055
 O1414 O 0.01437 1.02747 0.50175
 O1415 O 0.00044 0.98808 0.47448
 O1416 O 0.02743 0.99445 0.49448
 Zr1417 Zr -0.01837 0.98847 0.52628
 Zr1418 Zr -0.02794 0.99496 0.48096
 Zr1419 Zr 0.02493 1.00761 0.52081
 Zr1420 Zr -0.01418 1.03337 0.50717
 O1421 O 0.04801 0.98984 0.52859
 O1422 O -0.03989 1.04482 0.49629
 O1423 O -0.00343 1.01462 0.52758
 O1424 O -0.03016 1.00812 0.50724
 O1425 O -0.01754 0.97495 0.50011
 O1426 O 0.01026 0.98169 0.52107
 C1427 C 0.00466 1.05696 0.47490
 C1428 C 0.05487 1.02443 0.49288
 C1429 C -0.01358 1.01047 0.44249
 O1430 O -0.05231 1.01171 0.47499
 O1431 O -0.05227 0.98103 0.49168
 O1432 O -0.04601 0.97683 0.52282
 C1433 C -0.05665 0.97514 0.50821
 O1434 O 0.03187 0.96410 0.47340
 Zr1435 Zr 0.01114 0.96923 0.49463
 O1436 O -0.01787 0.95949 0.53348
 O1437 O -0.03392 0.97089 0.46402
 O1438 O -0.00048 0.94874 0.47596
 O1439 O 0.03532 0.95582 0.50665
 O1440 O 0.00081 0.94615 0.51067
 C1441 C -0.01014 0.94520 0.52512
 O1442 O -0.03773 0.99969 0.54630
 O1443 O 0.03240 1.03247 0.53601
 O1444 O -0.00674 0.98868 0.55366
 O1445 O 0.02245 1.00273 0.54977
 O1446 O -0.00204 1.05528 0.52386
 O1447 O -0.03209 1.03931 0.53056
 C1448 C 0.00924 0.99522 0.55988
 H1449 H 0.02200 1.03934 0.50230
 H1450 H -0.04361 1.01103 0.51046
 H1451 H 0.01564 0.97293 0.53058
 H1452 H 0.00156 0.98214 0.46194
 H1453 H -0.03970 1.05878 0.49860
 H1454 H -0.06006 1.00437 0.46590
 H1455 H -0.04635 0.97334 0.45787
 H1456 H 0.00588 0.93638 0.47854
 H1457 H -0.00900 1.06726 0.52105
 H1458 H 0.04473 1.02978 0.54226
 H1459 H 0.05583 0.99722 0.53760
 H1460 H 0.03448 0.94201 0.50369
 H1461 H -0.03694 1.05256 0.52965
 H1462 H -0.04161 0.98899 0.55459
 H1463 H 0.03766 1.01346 0.44651
 H1464 H 0.03447 0.95023 0.47255
 Zr1465 Zr 0.73657 0.26428 0.22559
 O1466 O 0.74762 0.28280 0.20476
 O1467 O 0.70779 0.26243 0.21798
 O1468 O 0.73535 0.25173 0.19862
 O1469 O 0.73114 0.29945 0.25945
 O1470 O 0.74904 0.22241 0.20268
 O1471 O 0.72599 0.29244 0.22858
 O1472 O 0.69533 0.24118 0.23902
 O1473 O 0.73042 0.23546 0.23065
 O1474 O 0.72315 0.26310 0.25179
 O1475 O 0.76303 0.25009 0.22459
 O1476 O 0.75585 0.27699 0.24459
 Zr1477 Zr 0.76292 0.23149 0.27641
 Zr1478 Zr 0.75689 0.22157 0.23109
 Zr1479 Zr 0.74263 0.27424 0.27090
 Zr1480 Zr 0.71800 0.23442 0.25723
 O1481 O 0.75972 0.29781 0.27879
 O1482 O 0.70729 0.20832 0.24644
 O1483 O 0.73637 0.24572 0.27767
 O1484 O 0.74367 0.21912 0.25735
 O1485 O 0.77655 0.23256 0.25027
 O1486 O 0.76893 0.26027 0.27118
 C1487 C 0.69411 0.25241 0.22482
 C1488 C 0.72534 0.30369 0.24288
 C1489 C 0.74100 0.23530 0.19262
 O1490 O 0.74083 0.19673 0.22509
 O1491 O 0.77131 0.19760 0.24186
 O1492 O 0.77524 0.20411 0.27300
 C1493 C 0.77719 0.19342 0.25841
 O1494 O 0.78620 0.28205 0.22344
 Zr1495 Zr 0.78149 0.26138 0.24477
 O1496 O 0.79183 0.23292 0.28372
 O1497 O 0.78119 0.21618 0.21420
 O1498 O 0.80240 0.25011 0.22627
 O1499 O 0.79408 0.28609 0.25667
 O1500 O 0.80475 0.25199 0.26101
 C1501 C 0.80592 0.24116 0.27550
 O1502 O 0.75219 0.21190 0.29644
 O1503 O 0.71748 0.28111 0.28598
 O1504 O 0.76224 0.24318 0.30378
 O1505 O 0.74742 0.27198 0.29988
 O1506 O 0.69569 0.24610 0.27381
 O1507 O 0.71245 0.21649 0.28066
 C1508 C 0.75523 0.25900 0.31000
 H1509 H 0.71108 0.27044 0.25230
 H1510 H 0.74110 0.20561 0.26058
 H1511 H 0.77747 0.26595 0.28071
 H1512 H 0.76898 0.25131 0.21205
 H1513 H 0.69333 0.20816 0.24875
 H1514 H 0.74841 0.18914 0.21601
 H1515 H 0.77909 0.20367 0.20804
 H1516 H 0.81457 0.25681 0.22885
 H1517 H 0.68391 0.23882 0.27097
 H1518 H 0.71980 0.29353 0.29223
 H1519 H 0.75207 0.30544 0.28778
 H1520 H 0.80791 0.28566 0.25375
 H1521 H 0.69930 0.21137 0.27980
 H1522 H 0.76296 0.20835 0.30475
 H1523 H 0.73681 0.28649 0.19654
 H1524 H 0.80001 0.28495 0.22258
 Zr1525 Zr 0.76861 0.73568 0.72624
 O1526 O 0.75811 0.71713 0.70520
 O1527 O 0.79761 0.73741 0.71922
 O1528 O 0.77041 0.74814 0.69924
 O1529 O 0.77286 0.70051 0.76024
 O1530 O 0.75686 0.77757 0.70307
 O1531 O 0.77895 0.70746 0.72949
 O1532 O 0.80961 0.75851 0.74059
 O1533 O 0.77480 0.76448 0.73142
 O1534 O 0.78127 0.73680 0.75273
 O1535 O 0.74227 0.75005 0.72472
 O1536 O 0.74871 0.72312 0.74482
 Zr1537 Zr 0.74103 0.76870 0.77651
 Zr1538 Zr 0.74842 0.77854 0.73134
 Zr1539 Zr 0.76118 0.72580 0.77141
 Zr1540 Zr 0.78646 0.76545 0.75829
 O1541 O 0.74369 0.70235 0.77886
 O1542 O 0.79765 0.79146 0.74773
 O1543 O 0.76744 0.75428 0.77832
 O1544 O 0.76090 0.78093 0.75787
 O1545 O 0.72817 0.76768 0.75007
 O1546 O 0.73496 0.73995 0.77115
 C1547 C 0.81116 0.74730 0.72640
 C1548 C 0.77912 0.69622 0.74381
 C1549 C 0.76493 0.76456 0.69312
 O1550 O 0.76486 0.80323 0.72567
 O1551 O 0.73381 0.80260 0.74179
 O1552 O 0.72897 0.79615 0.77283
 C1553 C 0.72744 0.80682 0.75819
 O1554 O 0.71902 0.71809 0.72316
 Zr1555 Zr 0.72318 0.73890 0.74446
 O1556 O 0.71187 0.76764 0.78306
 O1557 O 0.72461 0.78413 0.71399
 O1558 O 0.70291 0.75009 0.72535
 O1559 O 0.70997 0.71443 0.75627
 O1560 O 0.69950 0.74877 0.75996
 C1561 C 0.69796 0.75968 0.77437
 O1562 O 0.75136 0.78819 0.79678
 O1563 O 0.78583 0.71878 0.78707
 O1564 O 0.74079 0.75697 0.80388
 O1565 O 0.75556 0.72809 0.80027
 O1566 O 0.80819 0.75362 0.77537
 O1567 O 0.79150 0.78336 0.78182
 C1568 C 0.74752 0.74110 0.81023
 H1569 H 0.79328 0.72939 0.75350
 H1570 H 0.76347 0.79443 0.76116
 H1571 H 0.72608 0.73437 0.78049
 H1572 H 0.73663 0.74884 0.71206
 H1573 H 0.81154 0.79153 0.75033
 H1574 H 0.75759 0.81086 0.71642
 H1575 H 0.72697 0.79662 0.70786
 H1576 H 0.69064 0.74344 0.72767
 H1577 H 0.82011 0.76079 0.77278
 H1578 H 0.78324 0.70638 0.79326
 H1579 H 0.75101 0.69466 0.78803
 H1580 H 0.69623 0.71500 0.75302
 H1581 H 0.80470 0.78838 0.78123
 H1582 H 0.74037 0.79184 0.80484
 H1583 H 0.76913 0.71340 0.69723
 H1584 H 0.70524 0.71516 0.72206
 Zr1585 Zr 0.23329 0.23432 0.77530
 O1586 O 0.24422 0.21553 0.79590
 O1587 O 0.20454 0.23629 0.78315
 O1588 O 0.23216 0.24663 0.80240
 O1589 O 0.22766 0.19954 0.74112
 O1590 O 0.24598 0.27592 0.79850
 O1591 O 0.22256 0.20625 0.77209
 O1592 O 0.19220 0.25785 0.76242
 O1593 O 0.22731 0.26324 0.77055
 O1594 O 0.21986 0.23584 0.74919
 O1595 O 0.25982 0.24836 0.77628
 O1596 O 0.25248 0.22170 0.75606
 Zr1597 Zr 0.25982 0.26747 0.72464
 Zr1598 Zr 0.25385 0.27698 0.77007
 Zr1599 Zr 0.23928 0.22480 0.72986
 Zr1600 Zr 0.21488 0.26461 0.74405
 O1601 O 0.25622 0.20119 0.72166
 O1602 O 0.20434 0.29069 0.75510
 O1603 O 0.23319 0.25341 0.72340
 O1604 O 0.24064 0.27976 0.74392
 O1605 O 0.27344 0.26606 0.75069
 O1606 O 0.26566 0.23860 0.72957
 C1607 C 0.19093 0.24650 0.77653
 C1608 C 0.22186 0.19515 0.75768
 C1609 C 0.23789 0.26298 0.80850
 O1610 O 0.23795 0.30187 0.77637
 O1611 O 0.26845 0.30095 0.75946
 O1612 O 0.27233 0.29473 0.72824
 C1613 C 0.27437 0.30526 0.74292
 O1614 O 0.28279 0.21624 0.77700
 Zr1615 Zr 0.27821 0.23716 0.75590
 O1616 O 0.28873 0.26596 0.71717
 O1617 O 0.27816 0.28206 0.78690
 O1618 O 0.29919 0.24813 0.77439
 O1619 O 0.29068 0.21249 0.74370
 O1620 O 0.30153 0.24657 0.73962
 C1621 C 0.30276 0.25755 0.72524
 O1622 O 0.24917 0.28730 0.70486
 O1623 O 0.21409 0.21828 0.71484
 O1624 O 0.25917 0.25602 0.69718
 O1625 O 0.24415 0.22728 0.70088
 O1626 O 0.19246 0.25319 0.72757
 O1627 O 0.20938 0.28274 0.72080
 C1628 C 0.25210 0.24029 0.69085
 H1629 H 0.20775 0.22859 0.74870
 H1630 H 0.23815 0.29332 0.74083
 H1631 H 0.27418 0.23296 0.71995
 H1632 H 0.26577 0.24698 0.78878
 H1633 H 0.19038 0.29095 0.75291
 H1634 H 0.24557 0.30932 0.78549
 H1635 H 0.27614 0.29452 0.79318
 H1636 H 0.31132 0.24138 0.77167
 H1637 H 0.18073 0.26050 0.73057
 H1638 H 0.21631 0.20589 0.70848
 H1639 H 0.24852 0.19368 0.71265
 H1640 H 0.30451 0.21281 0.74657
 H1641 H 0.19626 0.28792 0.72179
 H1642 H 0.25996 0.29087 0.69652
 H1643 H 0.23340 0.21184 0.80413
 H1644 H 0.29659 0.21328 0.77779
 Zr1645 Zr 0.26630 0.76512 0.27302
 O1646 O 0.25647 0.78352 0.29455
 O1647 O 0.29545 0.76308 0.27914
 O1648 O 0.26858 0.75234 0.29983
 O1649 O 0.27006 0.80067 0.23934
 O1650 O 0.25464 0.72309 0.29608
 O1651 O 0.27685 0.79328 0.26981
 O1652 O 0.30679 0.74219 0.25715
 O1653 O 0.27212 0.73633 0.26735
 O1654 O 0.27833 0.76421 0.24617
 O1655 O 0.23987 0.75098 0.27510
 O1656 O 0.24609 0.77809 0.25514
 Zr1657 Zr 0.23729 0.73295 0.22316
 Zr1658 Zr 0.24561 0.72251 0.26801
 Zr1659 Zr 0.25792 0.77561 0.22819
 Zr1660 Zr 0.28313 0.73558 0.24015
 O1661 O 0.24044 0.79926 0.22144
 O1662 O 0.29434 0.70939 0.25019
 O1663 O 0.26377 0.74716 0.22080
 O1664 O 0.25746 0.72033 0.24111
 O1665 O 0.22504 0.73376 0.24996
 O1666 O 0.23160 0.76169 0.22899
 C1667 C 0.30877 0.75323 0.27140
 C1668 C 0.27679 0.80469 0.25563
 C1669 C 0.26305 0.73591 0.30593
 O1670 O 0.26198 0.69765 0.27301
 O1671 O 0.23065 0.69866 0.25768
 O1672 O 0.22513 0.70554 0.22686
 C1673 C 0.22391 0.69468 0.24139
 O1674 O 0.21693 0.78308 0.27767
 Zr1675 Zr 0.22043 0.76253 0.25601
 O1676 O 0.20801 0.73439 0.21740
 O1677 O 0.22211 0.71691 0.28589
 O1678 O 0.20049 0.75127 0.27552
 O1679 O 0.20721 0.78727 0.24486
 O1680 O 0.19632 0.75310 0.24104
 C1681 C 0.19437 0.74239 0.22654
 O1682 O 0.24695 0.71358 0.20240
 O1683 O 0.28228 0.78268 0.21198
 O1684 O 0.23670 0.74495 0.19591
 O1685 O 0.25178 0.77366 0.19945
 O1686 O 0.30453 0.74736 0.22253
 O1687 O 0.28745 0.71784 0.21632
 C1688 C 0.24350 0.76080 0.18955
 H1689 H 0.29037 0.77152 0.24513
 H1690 H 0.25985 0.70685 0.23761
 H1691 H 0.22258 0.76745 0.21994
 H1692 H 0.23453 0.75209 0.28792
 H1693 H 0.30816 0.70920 0.24720
 H1694 H 0.25485 0.68996 0.28235
 H1695 H 0.22450 0.70434 0.29183
 H1696 H 0.18823 0.75807 0.27363
 H1697 H 0.31644 0.74004 0.22466
 H1698 H 0.27967 0.79519 0.20603
 H1699 H 0.24762 0.80700 0.21218
 H1700 H 0.19355 0.78680 0.24846
 H1701 H 0.30059 0.71264 0.21653
 H1702 H 0.23576 0.71014 0.19460
 H1703 H 0.26771 0.78706 0.30225
 H1704 H 0.20321 0.78615 0.27916
 Zr1705 Zr 0.23640 0.76534 0.72472
 O1706 O 0.24755 0.78387 0.70395
 O1707 O 0.20764 0.76358 0.71705
 O1708 O 0.23517 0.75284 0.69773
 O1709 O 0.23101 0.80046 0.75864
 O1710 O 0.24876 0.72346 0.70176
 O1711 O 0.22587 0.79352 0.72775
 O1712 O 0.19508 0.74234 0.73803
 O1713 O 0.23015 0.73653 0.72972
 O1714 O 0.22294 0.76416 0.75090
 O1715 O 0.26281 0.75106 0.72374
 O1716 O 0.25569 0.77795 0.74377
 Zr1717 Zr 0.26257 0.73237 0.77552
 Zr1718 Zr 0.25657 0.72255 0.73018
 Zr1719 Zr 0.24243 0.77520 0.77006
 Zr1720 Zr 0.21769 0.73548 0.75629
 O1721 O 0.25959 0.79870 0.77799
 O1722 O 0.20691 0.70944 0.74546
 O1723 O 0.23607 0.74669 0.77677
 O1724 O 0.24331 0.72010 0.75642
 O1725 O 0.27623 0.73344 0.74940
 O1726 O 0.26868 0.76114 0.77035
 C1727 C 0.19392 0.75358 0.72385
 C1728 C 0.22523 0.80474 0.74207
 C1729 C 0.24077 0.73641 0.69171
 O1730 O 0.24044 0.69777 0.72412
 O1731 O 0.27090 0.69851 0.74093
 O1732 O 0.27479 0.70495 0.77209
 C1733 C 0.27673 0.69427 0.75749
 O1734 O 0.28607 0.78297 0.72268
 Zr1735 Zr 0.28128 0.76225 0.74395
 O1736 O 0.29148 0.73367 0.78286
 O1737 O 0.28087 0.71710 0.71331
 O1738 O 0.30217 0.75097 0.72544
 O1739 O 0.29395 0.78689 0.75593
 O1740 O 0.30449 0.75273 0.76019
 C1741 C 0.30560 0.74186 0.77465
 O1742 O 0.25174 0.71279 0.79551
 O1743 O 0.21729 0.78212 0.78513
 O1744 O 0.26190 0.74402 0.80291
 O1745 O 0.24718 0.77288 0.79904
 O1746 O 0.19539 0.74722 0.77284
 O1747 O 0.21203 0.71755 0.77969
 C1748 C 0.25494 0.75985 0.80915
 H1749 H 0.21089 0.77152 0.75140
 H1750 H 0.24068 0.70659 0.75962
 H1751 H 0.27723 0.76677 0.77990
 H1752 H 0.26878 0.75229 0.71120
 H1753 H 0.19295 0.70931 0.74774
 H1754 H 0.24800 0.69018 0.71502
 H1755 H 0.27873 0.70462 0.70711
 H1756 H 0.31436 0.75763 0.72805
 H1757 H 0.18359 0.73999 0.76996
 H1758 H 0.21964 0.79452 0.79141
 H1759 H 0.25196 0.80635 0.78698
 H1760 H 0.30779 0.78641 0.75302
 H1761 H 0.19887 0.71247 0.77880
 H1762 H 0.26248 0.70919 0.80382
 H1763 H 0.23678 0.78760 0.69572
 H1764 H 0.29989 0.78583 0.72184
 Zr1765 Zr 0.26761 0.23505 0.22539
 O1766 O 0.25701 0.21651 0.20440
 O1767 O 0.29659 0.23673 0.21828
 O1768 O 0.26937 0.24750 0.19839
 O1769 O 0.27191 0.19989 0.25939
 O1770 O 0.25587 0.27695 0.20225
 O1771 O 0.27791 0.20680 0.22863
 O1772 O 0.30868 0.25785 0.23958
 O1773 O 0.27386 0.26384 0.23054
 O1774 O 0.28037 0.23616 0.25184
 O1775 O 0.24129 0.24945 0.22395
 O1776 O 0.24775 0.22252 0.24405
 Zr1777 Zr 0.24025 0.26813 0.27573
 Zr1778 Zr 0.24749 0.27794 0.23053
 Zr1779 Zr 0.26032 0.22521 0.27059
 Zr1780 Zr 0.28561 0.26482 0.25737
 O1781 O 0.24283 0.20179 0.27813
 O1782 O 0.29679 0.29081 0.24677
 O1783 O 0.26664 0.25368 0.27747
 O1784 O 0.26006 0.28033 0.25703
 O1785 O 0.22730 0.26711 0.24934
 O1786 O 0.23412 0.23939 0.27041
 C1787 C 0.31018 0.24664 0.22540
 C1788 C 0.27810 0.19557 0.24295
 C1789 C 0.26391 0.26394 0.19229
 O1790 O 0.26393 0.30261 0.22482
 O1791 O 0.23291 0.30200 0.24100
 O1792 O 0.22818 0.29558 0.27207
 C1793 C 0.22660 0.30624 0.25743
 O1794 O 0.21797 0.21753 0.22249
 Zr1795 Zr 0.22224 0.23834 0.24377
 O1796 O 0.21112 0.26710 0.28239
 O1797 O 0.22365 0.28354 0.21323
 O1798 O 0.20193 0.24956 0.22472
 O1799 O 0.20904 0.21389 0.25562
 O1800 O 0.19863 0.24824 0.25934
 C1801 C 0.19716 0.25916 0.27376
 O1802 O 0.25067 0.28763 0.29595
 O1803 O 0.28502 0.21816 0.28616
 O1804 O 0.24010 0.25642 0.30311
 O1805 O 0.25482 0.22752 0.29947
 O1806 O 0.30739 0.25297 0.27436
 O1807 O 0.29075 0.28272 0.28088
 C1808 C 0.24683 0.24055 0.30944
 H1809 H 0.29237 0.22874 0.25257
 H1810 H 0.26265 0.29382 0.26029
 H1811 H 0.22527 0.23382 0.27978
 H1812 H 0.23561 0.24824 0.21131
 H1813 H 0.31069 0.29087 0.24932
 H1814 H 0.25664 0.31025 0.21559
 H1815 H 0.22600 0.29601 0.20709
 H1816 H 0.18965 0.24294 0.22707
 H1817 H 0.31931 0.26013 0.27174
 H1818 H 0.28245 0.20576 0.29236
 H1819 H 0.25017 0.19409 0.28727
 H1820 H 0.19529 0.21448 0.25243
 H1821 H 0.30395 0.28773 0.28025
 H1822 H 0.23972 0.29129 0.30405
 H1823 H 0.26800 0.21275 0.19640
 H1824 H 0.20418 0.21463 0.22144
 Zr1825 Zr 0.73352 0.73330 0.27583
 O1826 O 0.74482 0.71456 0.29626
 O1827 O 0.70485 0.73506 0.28399
 O1828 O 0.73260 0.74557 0.30295
 O1829 O 0.72768 0.69855 0.24164
 O1830 O 0.74619 0.77496 0.29894
 O1831 O 0.72292 0.70517 0.27269
 O1832 O 0.69215 0.75659 0.26345
 O1833 O 0.72731 0.76219 0.27119
 O1834 O 0.71978 0.73478 0.24987
 O1835 O 0.75998 0.74749 0.27653
 O1836 O 0.75256 0.72083 0.25635
 Zr1837 Zr 0.75926 0.76669 0.22493
 Zr1838 Zr 0.75376 0.77609 0.27044
 Zr1839 Zr 0.73903 0.72389 0.23030
 Zr1840 Zr 0.71456 0.76353 0.24484
 O1841 O 0.75600 0.70038 0.22188
 O1842 O 0.70400 0.78952 0.25606
 O1843 O 0.73269 0.75247 0.22396
 O1844 O 0.74023 0.77884 0.24444
 O1845 O 0.77319 0.76531 0.25082
 O1846 O 0.76532 0.73785 0.22974
 C1847 C 0.69110 0.74520 0.27754
 C1848 C 0.72210 0.69410 0.25826
 C1849 C 0.73828 0.76195 0.30900
 O1850 O 0.73781 0.80090 0.27691
 O1851 O 0.76816 0.80014 0.25970
 O1852 O 0.77169 0.79399 0.22843
 C1853 C 0.77388 0.80449 0.24310
 O1854 O 0.78316 0.71553 0.27694
 Zr1855 Zr 0.77819 0.73644 0.25592
 O1856 O 0.78807 0.76536 0.21711
 O1857 O 0.77821 0.78127 0.28704
 O1858 O 0.79932 0.74752 0.27417
 O1859 O 0.79066 0.71186 0.24356
 O1860 O 0.80125 0.74601 0.23937
 C1861 C 0.80225 0.75701 0.22499
 O1862 O 0.74822 0.78649 0.20532
 O1863 O 0.71371 0.71726 0.21555
 O1864 O 0.75837 0.75528 0.19746
 O1865 O 0.74358 0.72644 0.20127
 O1866 O 0.69202 0.75201 0.22858
 O1867 O 0.70867 0.78169 0.22170
 C1868 C 0.75134 0.73951 0.19118
 H1869 H 0.70770 0.72746 0.24951
 H1870 H 0.73763 0.79239 0.24140
 H1871 H 0.77376 0.73227 0.22002
 H1872 H 0.76607 0.74614 0.28896
 H1873 H 0.69001 0.78970 0.25405
 H1874 H 0.74549 0.80838 0.28595
 H1875 H 0.77619 0.79372 0.29335
 H1876 H 0.81147 0.74086 0.27131
 H1877 H 0.68027 0.75923 0.23175
 H1878 H 0.71593 0.70490 0.20914
 H1879 H 0.74824 0.69285 0.21294
 H1880 H 0.80452 0.71226 0.24626
 H1881 H 0.69552 0.78677 0.22285
 H1882 H 0.75888 0.79015 0.19686
 H1883 H 0.73412 0.71078 0.30462
 H1884 H 0.79698 0.71266 0.27758
 Zr1885 Zr 0.76610 0.26489 0.77414
 O1886 O 0.75559 0.28310 0.79551
 O1887 O 0.79518 0.26336 0.78073
 O1888 O 0.76821 0.25214 0.80097
 O1889 O 0.76984 0.30050 0.74052
 O1890 O 0.75483 0.22265 0.79701
 O1891 O 0.77621 0.29322 0.77110
 O1892 O 0.80721 0.24264 0.75894
 O1893 O 0.77250 0.23620 0.76857
 O1894 O 0.77858 0.26418 0.74748
 O1895 O 0.73989 0.25031 0.77581
 O1896 O 0.74598 0.27751 0.75594
 Zr1897 Zr 0.73847 0.23224 0.72384
 Zr1898 Zr 0.74622 0.22194 0.76882
 Zr1899 Zr 0.75829 0.27524 0.72918
 Zr1900 Zr 0.78397 0.23563 0.74155
 O1901 O 0.74054 0.29860 0.72217
 O1902 O 0.79544 0.20963 0.75176
 O1903 O 0.76474 0.24690 0.72188
 O1904 O 0.75854 0.21995 0.74210
 O1905 O 0.72577 0.23285 0.75044
 O1906 O 0.73220 0.26088 0.72957
 C1907 C 0.80878 0.25372 0.77321
 C1908 C 0.77620 0.30463 0.75692
 C1909 C 0.76289 0.23561 0.80699
 O1910 O 0.76289 0.19733 0.77403
 O1911 O 0.73175 0.19788 0.75827
 O1912 O 0.72664 0.20466 0.72737
 C1913 C 0.72531 0.19381 0.74190
 O1914 O 0.71636 0.28202 0.77800
 Zr1915 Zr 0.72057 0.26152 0.75641
 O1916 O 0.70928 0.23320 0.71759
 O1917 O 0.72256 0.21597 0.78638
 O1918 O 0.70051 0.24992 0.77560
 O1919 O 0.70711 0.28604 0.74505
 O1920 O 0.69688 0.25168 0.74104
 C1921 C 0.69536 0.24096 0.72651
 O1922 O 0.74880 0.21302 0.70326
 O1923 O 0.78278 0.28271 0.71334
 O1924 O 0.73810 0.24423 0.69658
 O1925 O 0.75262 0.27320 0.70035
 O1926 O 0.80548 0.24777 0.72429
 O1927 O 0.78897 0.21800 0.71778
 C1928 C 0.74470 0.26020 0.69032
 H1929 H 0.79052 0.27169 0.74663
 H1930 H 0.76120 0.20651 0.73865
 H1931 H 0.72324 0.26649 0.72039
 H1932 H 0.73432 0.25132 0.78855
 H1933 H 0.80931 0.20969 0.74901
 H1934 H 0.75573 0.18952 0.78326
 H1935 H 0.72506 0.20344 0.79234
 H1936 H 0.68817 0.25649 0.77350
 H1937 H 0.81746 0.24063 0.72661
 H1938 H 0.78005 0.29517 0.70734
 H1939 H 0.74774 0.30648 0.71303
 H1940 H 0.69339 0.28532 0.74843
 H1941 H 0.80218 0.21298 0.71821
 H1942 H 0.73780 0.20938 0.69528
 H1943 H 0.76663 0.28684 0.80339
 H1944 H 0.70257 0.28482 0.77929
 C1945 C 0.43281 0.99933 0.32041
 C1946 C 0.44249 0.99869 0.33438
 C1947 C 0.45359 0.99763 0.35135
 C1948 C 0.46222 1.01405 0.35868
 C1949 C 0.47173 1.01327 0.37591
 C1950 C 0.47269 0.99605 0.38589
 C1951 C 0.46445 0.97953 0.37834
 C1952 C 0.45495 0.98031 0.36111
 C1953 C 0.48023 0.99586 0.40469
 C1954 C 0.48530 0.99625 0.42085
 H1955 H 0.46120 1.02754 0.35132
 H1956 H 0.47782 1.02620 0.38170
 H1957 H 0.46487 0.96619 0.38602
 H1958 H 0.44827 0.96753 0.35564
 C1959 C -0.06661 0.50017 0.82041
 C1960 C -0.05698 0.49965 0.83443
 C1961 C -0.04597 0.49873 0.85148
 C1962 C -0.03783 0.51531 0.85900
 C1963 C -0.02842 0.51463 0.87628
 C1964 C -0.02705 0.49735 0.88612
 C1965 C -0.03480 0.48068 0.87838
 C1966 C -0.04421 0.48137 0.86110
 C1967 C -0.01956 0.49718 0.90495
 C1968 C -0.01453 0.49756 0.92112
 H1969 H -0.03917 0.52884 0.85175
 H1970 H -0.02270 0.52767 0.88222
 H1971 H -0.03406 0.46729 0.88594
 H1972 H -0.05051 0.46846 0.85547
 C1973 C 0.06427 -0.00063 0.81972
 C1974 C 0.05476 0.00099 0.83377
 C1975 C 0.04389 0.00306 0.85084
 C1976 C 0.03361 -0.01244 0.85809
 C1977 C 0.02438 -0.01087 0.87545
 C1978 C 0.02536 0.00622 0.88565
 C1979 C 0.03523 0.02188 0.87817
 C1980 C 0.04445 0.02031 0.86081
 C1981 C 0.01818 0.00692 0.90460
 C1982 C 0.01340 0.00683 0.92086
 H1983 H 0.03314 -0.02587 0.85057
 H1984 H 0.01701 -0.02316 0.88119
 H1985 H 0.03631 0.03508 0.88602
 H1986 H 0.05243 0.03237 0.85539
 C1987 C 0.56431 0.49851 0.31962
 C1988 C 0.55478 0.50018 0.33365
 C1989 C 0.54391 0.50231 0.35071
 C1990 C 0.54443 0.51961 0.36059
 C1991 C 0.53523 0.52123 0.37797
 C1992 C 0.52542 0.50558 0.38553
 C1993 C 0.52447 0.48844 0.37541
 C1994 C 0.53368 0.48681 0.35804
 C1995 C 0.51828 0.50635 0.40448
 C1996 C 0.51355 0.50632 0.42076
 H1997 H 0.55237 0.53166 0.35511
 H1998 H 0.53629 0.53447 0.38575
 H1999 H 0.51715 0.47616 0.38122
 H2000 H 0.53325 0.47334 0.35059
 C2001 C 0.56645 0.49789 0.17957
 C2002 C 0.55661 0.49706 0.16572
 C2003 C 0.54534 0.49575 0.14889
 C2004 C 0.54402 0.47833 0.13929
 C2005 C 0.53442 0.47733 0.12214
 C2006 C 0.52603 0.49373 0.11450
 C2007 C 0.52692 0.51104 0.12435
 C2008 C 0.53653 0.51205 0.14150
 C2009 C 0.51854 0.49336 0.09570
 C2010 C 0.51359 0.49364 0.07952
 H2011 H 0.55085 0.46565 0.14482
 H2012 H 0.53407 0.46392 0.11456
 H2013 H 0.52072 0.52388 0.11848
 H2014 H 0.53752 0.52561 0.14874
 C2015 C 0.06598 0.99871 0.67964
 C2016 C 0.05612 0.99784 0.66582
 C2017 C 0.04484 0.99649 0.64899
 C2018 C 0.04335 0.97900 0.63954
 C2019 C 0.03376 0.97794 0.62239
 C2020 C 0.02555 0.99437 0.61460
 C2021 C 0.02660 1.01175 0.62430
 C2022 C 0.03620 1.01281 0.64146
 C2023 C 0.01809 0.99391 0.59579
 C2024 C 0.01317 0.99409 0.57959
 H2025 H 0.05005 0.96630 0.64518
 H2026 H 0.03328 0.96448 0.61492
 H2027 H 0.02053 1.02460 0.61832
 H2028 H 0.03732 1.02643 0.64858
 C2029 C -0.06459 0.49941 0.68008
 C2030 C -0.05531 0.50072 0.66584
 C2031 C -0.04474 0.50240 0.64853
 C2032 C -0.03470 0.48668 0.64138
 C2033 C -0.02573 0.48787 0.62385
 C2034 C -0.02673 0.50478 0.61338
 C2035 C -0.03639 0.52064 0.62075
 C2036 C -0.04534 0.51946 0.63828
 C2037 C -0.01966 0.50516 0.59437
 C2038 C -0.01491 0.50485 0.57809
 H2039 H -0.03420 0.47339 0.64912
 H2040 H -0.01852 0.47543 0.61822
 H2041 H -0.03747 0.53372 0.61271
 H2042 H -0.05314 0.53168 0.64361
 C2043 C 0.43462 -0.00114 0.17960
 C2044 C 0.44400 0.00016 0.16543
 C2045 C 0.45470 0.00180 0.14820
 C2046 C 0.46460 -0.01399 0.14103
 C2047 C 0.47368 -0.01282 0.12356
 C2048 C 0.47295 0.00416 0.11317
 C2049 C 0.46345 0.02010 0.12056
 C2050 C 0.45437 0.01893 0.13804
 C2051 C 0.48011 0.00455 0.09420
 C2052 C 0.48494 0.00427 0.07795
 H2053 H 0.46489 -0.02734 0.14870
 H2054 H 0.48077 -0.02532 0.11790
 H2055 H 0.46257 0.03323 0.11259
 H2056 H 0.44669 0.03121 0.14339
 C2057 C 0.32324 0.41149 0.00505
 C2058 C 0.33821 0.41990 0.00667
 C2059 C 0.35626 0.42969 0.00852
 C2060 C 0.37264 0.41958 0.01387
 C2061 C 0.39028 0.42890 0.01506
 C2062 C 0.39167 0.44843 0.01094
 C2063 C 0.37525 0.45859 0.00580
 C2064 C 0.35760 0.44926 0.00461
 C2065 C 0.41004 0.45780 0.01097
 C2066 C 0.42540 0.46563 0.01024
 H2067 H 0.37181 0.40444 0.01691
 H2068 H 0.40287 0.42084 0.01893
 H2069 H 0.37613 0.47365 0.00245
 H2070 H 0.34507 0.45725 0.00043
 C2071 C -0.17687 0.91140 0.50516
 C2072 C -0.16193 0.91988 0.50676
 C2073 C -0.14393 0.92977 0.50859
 C2074 C -0.12762 0.91984 0.51444
 C2075 C -0.11000 0.92922 0.51560
 C2076 C -0.10858 0.94862 0.51095
 C2077 C -0.12494 0.95860 0.50531
 C2078 C -0.14256 0.94921 0.50414
 C2079 C -0.09023 0.95802 0.51096
 C2080 C -0.07487 0.96585 0.51022
 H2081 H -0.12847 0.90480 0.51789
 H2082 H -0.09746 0.92130 0.51987
 H2083 H -0.12403 0.97356 0.50155
 H2084 H -0.15504 0.95706 0.49957
 C2085 C -0.17750 0.08829 0.99497
 C2086 C -0.16231 0.08023 0.99347
 C2087 C -0.14403 0.07081 0.99180
 C2088 C -0.14275 0.05089 0.99333
 C2089 C -0.12494 0.04185 0.99231
 C2090 C -0.10827 0.05264 0.98974
 C2091 C -0.10957 0.07254 0.98802
 C2092 C -0.12738 0.08159 0.98904
 C2093 C -0.08983 0.04340 0.98985
 C2094 C -0.07445 0.03561 0.99063
 H2095 H -0.15548 0.04239 0.99550
 H2096 H -0.12413 0.02647 0.99378
 H2097 H -0.09681 0.08107 0.98615
 H2098 H -0.12815 0.09699 0.98787
 C2099 C 0.32309 0.58876 0.49465
 C2100 C 0.33835 0.58080 0.49329
 C2101 C 0.35674 0.57156 0.49183
 C2102 C 0.37322 0.58113 0.49779
 C2103 C 0.39104 0.57210 0.49682
 C2104 C 0.39252 0.55343 0.48986
 C2105 C 0.37607 0.54392 0.48373
 C2106 C 0.35823 0.55296 0.48470
 C2107 C 0.41077 0.54381 0.48989
 C2108 C 0.42603 0.53578 0.49062
 H2109 H 0.37228 0.59550 0.50334
 H2110 H 0.40361 0.57959 0.50170
 H2111 H 0.37698 0.52945 0.47842
 H2112 H 0.34562 0.54539 0.48005
 C2113 C 0.17428 0.58974 0.50290
 C2114 C 0.15925 0.58137 0.50443
 C2115 C 0.14117 0.57157 0.50618
 C2116 C 0.12449 0.58188 0.51021
 C2117 C 0.10686 0.57249 0.51138
 C2118 C 0.10579 0.55270 0.50857
 C2119 C 0.12250 0.54236 0.50473
 C2120 C 0.14012 0.55176 0.50356
 C2121 C 0.08750 0.54314 0.50866
 C2122 C 0.07227 0.53505 0.50802
 H2123 H 0.12508 0.59720 0.51225
 H2124 H 0.09406 0.58068 0.51424
 H2125 H 0.12187 0.52709 0.50242
 H2126 H 0.15288 0.54361 0.50042
 C2127 C 0.67470 0.08885 0.00369
 C2128 C 0.65965 0.08051 0.00518
 C2129 C 0.64154 0.07076 0.00688
 C2130 C 0.64050 0.05090 0.00464
 C2131 C 0.62285 0.04156 0.00575
 C2132 C 0.60610 0.05199 0.00914
 C2133 C 0.60716 0.07183 0.01157
 C2134 C 0.62481 0.08117 0.01047
 C2135 C 0.58779 0.04247 0.00913
 C2136 C 0.57254 0.03443 0.00839
 H2137 H 0.65330 0.04268 0.00184
 H2138 H 0.62223 0.02624 0.00371
 H2139 H 0.59433 0.08009 0.01408
 H2140 H 0.62540 0.09653 0.01221
 C2141 C 0.67512 0.91162 0.49538
 C2142 C 0.66008 0.91990 0.49369
 C2143 C 0.64201 0.92966 0.49175
 C2144 C 0.64117 0.94964 0.49278
 C2145 C 0.62358 0.95906 0.49148
 C2146 C 0.60670 0.94858 0.48910
 C2147 C 0.60756 0.92862 0.48787
 C2148 C 0.62516 0.91920 0.48917
 C2149 C 0.58847 0.95823 0.48902
 C2150 C 0.57326 0.96637 0.48975
 H2151 H 0.65408 0.95791 0.49480
 H2152 H 0.62312 0.97448 0.49259
 H2153 H 0.59462 0.92033 0.48616
 H2154 H 0.62559 0.90375 0.48838
 C2155 C 0.17517 0.41246 0.99532
 C2156 C 0.16014 0.42077 0.99366
 C2157 C 0.14210 0.43058 0.99176
 C2158 C 0.14128 0.45055 0.99290
 C2159 C 0.12371 0.46000 0.99163
 C2160 C 0.10681 0.44956 0.98918
 C2161 C 0.10765 0.42960 0.98783
 C2162 C 0.12523 0.42015 0.98910
 C2163 C 0.08859 0.45923 0.98916
 C2164 C 0.07339 0.46737 0.98992
 H2165 H 0.15420 0.45879 0.99497
 H2166 H 0.12326 0.47541 0.99283
 H2167 H 0.09470 0.42134 0.98607
 H2168 H 0.12564 0.40471 0.98822
 C2169 C -0.00596 0.31944 0.41529
 C2170 C -0.00681 0.33430 0.42365
 C2171 C -0.00733 0.35222 0.43326
 C2172 C 0.00421 0.35510 0.44899
 C2173 C 0.00460 0.37295 0.45769
 C2174 C -0.00652 0.38790 0.45062
 C2175 C -0.01824 0.38494 0.43503
 C2176 C -0.01864 0.36709 0.42634
 C2177 C -0.00549 0.40639 0.45905
 C2178 C -0.00448 0.42194 0.46607
 H2179 H 0.01307 0.34367 0.45435
 H2180 H 0.01373 0.37517 0.46973
 H2181 H -0.02685 0.39647 0.42948
 H2182 H -0.02752 0.36497 0.41410
 C2183 C 0.49372 -0.17983 -0.08659
 C2184 C 0.49286 -0.16503 -0.07814
 C2185 C 0.49235 -0.14721 -0.06836
 C2186 C 0.50350 -0.14468 -0.05230
 C2187 C 0.50392 -0.12694 -0.04339
 C2188 C 0.49321 -0.11176 -0.05056
 C2189 C 0.48186 -0.11435 -0.06648
 C2190 C 0.48144 -0.13209 -0.07539
 C2191 C 0.49428 -0.09337 -0.04189
 C2192 C 0.49534 -0.07792 -0.03469
 H2193 H 0.51205 -0.15630 -0.04686
 H2194 H 0.51276 -0.12501 -0.03110
 H2195 H 0.47356 -0.10263 -0.07211
 H2196 H 0.47286 -0.13394 -0.08788
 C2197 C 0.00931 -0.17649 1.08603
 C2198 C 0.01010 -0.16196 1.07714
 C2199 C 0.01044 -0.14434 1.06703
 C2200 C 0.02038 -0.12870 1.07434
 C2201 C 0.01948 -0.11107 1.06529
 C2202 C 0.00862 -0.10910 1.04897
 C2203 C -0.00105 -0.12482 1.04149
 C2204 C -0.00015 -0.14246 1.05053
 C2205 C 0.00687 -0.09079 1.04030
 C2206 C 0.00528 -0.07536 1.03317
 H2207 H 0.02849 -0.13005 1.08718
 H2208 H 0.02696 -0.09893 1.07117
 H2209 H -0.00952 -0.12336 1.02888
 H2210 H -0.00798 -0.15449 1.04489
 C2211 C 0.51071 0.32324 0.58576
 C2212 C 0.51132 0.33786 0.57702
 C2213 C 0.51142 0.35556 0.56705
 C2214 C 0.52093 0.37136 0.57459
 C2215 C 0.51982 0.38902 0.56563
 C2216 C 0.50917 0.39087 0.54916
 C2217 C 0.49992 0.37500 0.54145
 C2218 C 0.50104 0.35734 0.55041
 C2219 C 0.50728 0.40917 0.54050
 C2220 C 0.50560 0.42458 0.53336
 H2221 H 0.52888 0.37009 0.58754
 H2222 H 0.52697 0.40127 0.57168
 H2223 H 0.49163 0.37637 0.52872
 H2224 H 0.49354 0.34518 0.54458
 C2225 C 0.49312 1.18000 0.58619
 C2226 C 0.49246 1.16528 0.57761
 C2227 C 0.49215 1.14754 0.56768
 C2228 C 0.48144 1.13223 0.57468
 C2229 C 0.48205 1.11458 0.56561
 C2230 C 0.49337 1.11225 0.54958
 C2231 C 0.50388 1.12763 0.54244
 C2232 C 0.50327 1.14528 0.55150
 C2233 C 0.49462 1.09395 0.54075
 C2234 C 0.49578 1.07855 0.53346
 H2235 H 0.47288 1.13387 0.58725
 H2236 H 0.47391 1.10271 0.57122
 H2237 H 0.51269 1.12590 0.53005
 H2238 H 0.51166 1.15705 0.54607
 C2239 C -0.00679 0.68024 1.08793
 C2240 C -0.00725 0.66551 1.07934
 C2241 C -0.00740 0.64779 1.06936
 C2242 C 0.00400 0.64557 1.05336
 C2243 C 0.00459 0.62800 1.04415
 C2244 C -0.00622 0.61267 1.05095
 C2245 C -0.01779 0.61496 1.06682
 C2246 C -0.01837 0.63253 1.07604
 C2247 C -0.00508 0.59447 1.04191
 C2248 C -0.00401 0.57915 1.03444
 H2249 H 0.01258 0.65731 1.04817
 H2250 H 0.01359 0.62630 1.03188
 H2251 H -0.02615 0.60313 1.07217
 H2252 H -0.02716 0.63415 1.08846
 C2253 C 0.51290 0.67698 -0.08525
 C2254 C 0.51348 0.66238 -0.07649
 C2255 C 0.51349 0.64468 -0.06652
 C2256 C 0.52254 0.62872 -0.07432
 C2257 C 0.52121 0.61104 -0.06541
 C2258 C 0.51080 0.60935 -0.04872
 C2259 C 0.50203 0.62538 -0.04073
 C2260 C 0.50337 0.64306 -0.04965
 C2261 C 0.50860 0.59104 -0.04012
 C2262 C 0.50664 0.57564 -0.03302
 H2263 H 0.53028 0.62987 -0.08745
 H2264 H 0.52799 0.59867 -0.07166
 H2265 H 0.49393 0.62413 -0.02783
 H2266 H 0.49622 0.65534 -0.04362
 C2267 C 0.01326 1.17673 0.41447
 C2268 C 0.01391 1.16202 0.42306
 C2269 C 0.01397 1.14421 0.43285
 C2270 C 0.02163 1.12797 0.42421
 C2271 C 0.02029 1.11027 0.43307
 C2272 C 0.01127 1.10882 0.45054
 C2273 C 0.00391 1.12512 0.45933
 C2274 C 0.00525 1.14283 0.45047
 C2275 C 0.00903 1.09054 0.45916
 C2276 C 0.00701 1.07517 0.46633
 H2277 H 0.02828 1.12894 0.41051
 H2278 H 0.02599 1.09769 0.42619
 H2279 H -0.00311 1.12407 0.47285
 H2280 H -0.00083 1.15533 0.45716
 C2281 C 0.74899 0.68456 0.93037
 C2282 C 0.74831 0.69434 0.91645
 C2283 C 0.74720 0.70553 0.89951
 C2284 C 0.72994 0.70667 0.88967
 C2285 C 0.72916 0.71619 0.87244
 C2286 C 0.74562 0.72467 0.86496
 C2287 C 0.76277 0.72394 0.87504
 C2288 C 0.76355 0.71442 0.89227
 C2289 C 0.74550 0.73212 0.84612
 C2290 C 0.74599 0.73708 0.82992
 H2291 H 0.71722 0.69978 0.89508
 H2292 H 0.71588 0.71642 0.86468
 H2293 H 0.77566 0.73022 0.86930
 H2294 H 0.77700 0.71357 0.89970
 C2295 C 0.24884 0.18391 0.42951
 C2296 C 0.24809 0.19370 0.41560
 C2297 C 0.24690 0.20490 0.39869
 C2298 C 0.22959 0.20606 0.38892
 C2299 C 0.22873 0.21561 0.37171
 C2300 C 0.24515 0.22411 0.36418
 C2301 C 0.26235 0.22338 0.37418
 C2302 C 0.26321 0.21382 0.39139
 C2303 C 0.24495 0.23158 0.34535
 C2304 C 0.24538 0.23654 0.32914
 H2305 H 0.21690 0.19915 0.39437
 H2306 H 0.21542 0.21585 0.36402
 H2307 H 0.27521 0.22968 0.36840
 H2308 H 0.27669 0.21296 0.39876
 C2309 C 0.74860 0.31401 0.43073
 C2310 C 0.75018 0.30445 0.41672
 C2311 C 0.75220 0.29356 0.39967
 C2312 C 0.76954 0.29382 0.38980
 C2313 C 0.77109 0.28459 0.37246
 C2314 C 0.75533 0.27500 0.36490
 C2315 C 0.73814 0.27431 0.37500
 C2316 C 0.73659 0.28355 0.39235
 C2317 C 0.75610 0.26777 0.34598
 C2318 C 0.75613 0.26295 0.32973
 H2319 H 0.78169 0.30158 0.39527
 H2320 H 0.78437 0.28544 0.36469
 H2321 H 0.72578 0.26716 0.36921
 H2322 H 0.72309 0.28331 0.39979
 C2323 C 0.24834 0.81464 0.92997
 C2324 C 0.24990 0.80510 0.91595
 C2325 C 0.25191 0.79423 0.89889
 C2326 C 0.26927 0.79443 0.88905
 C2327 C 0.27081 0.78523 0.87169
 C2328 C 0.25502 0.77573 0.86408
 C2329 C 0.23781 0.77511 0.87415
 C2330 C 0.23626 0.78431 0.89151
 C2331 C 0.25579 0.76855 0.84515
 C2332 C 0.25583 0.76377 0.82889
 H2333 H 0.28144 0.80212 0.89456
 H2334 H 0.28412 0.78603 0.86395
 H2335 H 0.22542 0.76802 0.86831
 H2336 H 0.22274 0.78413 0.89893
 C2337 C 0.24670 0.81760 0.06957
 C2338 C 0.24571 0.80779 0.08347
 C2339 C 0.24422 0.79658 0.10037
 C2340 C 0.22687 0.79586 0.11021
 C2341 C 0.22574 0.78632 0.12742
 C2342 C 0.24194 0.77740 0.13487
 C2343 C 0.25916 0.77770 0.12480
 C2344 C 0.26029 0.78725 0.10759
 C2345 C 0.24154 0.76992 0.15370
 C2346 C 0.24192 0.76491 0.16989
 H2347 H 0.21437 0.80310 0.10482
 H2348 H 0.21242 0.78642 0.13517
 H2349 H 0.27185 0.77109 0.13052
 H2350 H 0.27380 0.78778 0.10017
 C2351 C 0.74749 0.31708 0.57032
 C2352 C 0.74665 0.30727 0.58422
 C2353 C 0.74534 0.29605 0.60114
 C2354 C 0.72791 0.29470 0.61075
 C2355 C 0.72690 0.28515 0.62796
 C2356 C 0.74332 0.27685 0.63564
 C2357 C 0.76065 0.27778 0.62579
 C2358 C 0.76166 0.28734 0.60858
 C2359 C 0.74293 0.26934 0.65447
 C2360 C 0.74327 0.26433 0.67065
 H2361 H 0.71522 0.30145 0.60518
 H2362 H 0.71348 0.28475 0.63554
 H2363 H 0.77350 0.27165 0.63169
 H2364 H 0.77523 0.28836 0.60134
 C2365 C 0.24770 0.18574 0.56984
 C2366 C 0.24892 0.19524 0.58391
 C2367 C 0.25053 0.20609 0.60102
 C2368 C 0.23458 0.21559 0.60839
 C2369 C 0.23576 0.22478 0.62579
 C2370 C 0.25290 0.22455 0.63589
 C2371 C 0.26898 0.21546 0.62828
 C2372 C 0.26780 0.20628 0.61089
 C2373 C 0.25335 0.23170 0.65483
 C2374 C 0.25317 0.23644 0.67110
 H2375 H 0.22112 0.21548 0.60094
 H2376 H 0.22316 0.23154 0.63161
 H2377 H 0.28224 0.21496 0.63605
 H2378 H 0.28021 0.19890 0.60538
 C2379 C 0.74715 0.68527 0.06997
 C2380 C 0.74825 0.69473 0.08409
 C2381 C 0.74973 0.70552 0.10124
 C2382 C 0.73361 0.71458 0.10880
 C2383 C 0.73471 0.72371 0.12623
 C2384 C 0.75195 0.72385 0.13618
 C2385 C 0.76818 0.71520 0.12840
 C2386 C 0.76708 0.70608 0.11097
 C2387 C 0.75240 0.73096 0.15514
 C2388 C 0.75228 0.73568 0.17142
 H2389 H 0.72010 0.71417 0.10146
 H2390 H 0.72200 0.73013 0.13220
 H2391 H 0.78152 0.71500 0.13605
 H2392 H 0.77961 0.69905 0.10532
 C2393 C 0.15998 0.57442 0.24443
 C2394 C 0.16830 0.58947 0.24294
 C2395 C 0.17804 0.60758 0.24124
 C2396 C 0.19785 0.60868 0.24377
 C2397 C 0.20717 0.62634 0.24265
 C2398 C 0.19677 0.64303 0.23896
 C2399 C 0.17698 0.64190 0.23625
 C2400 C 0.16766 0.62424 0.23737
 C2401 C 0.20625 0.66135 0.23890
 C2402 C 0.21426 0.67663 0.23955
 H2403 H 0.20604 0.59594 0.24680
 H2404 H 0.22245 0.62702 0.24489
 H2405 H 0.16875 0.65468 0.23350
 H2406 H 0.15234 0.62360 0.23540
 C2407 C 0.66148 0.07352 0.74501
 C2408 C 0.66987 0.08853 0.74346
 C2409 C 0.67965 0.10661 0.74168
 C2410 C 0.69941 0.10774 0.74457
 C2411 C 0.70876 0.12539 0.74341
 C2412 C 0.69843 0.14203 0.73932
 C2413 C 0.67871 0.14086 0.73624
 C2414 C 0.66936 0.12321 0.73740
 C2415 C 0.70790 0.16036 0.73928
 C2416 C 0.71584 0.17567 0.73997
 H2417 H 0.70754 0.09504 0.74791
 H2418 H 0.72399 0.12610 0.74594
 H2419 H 0.67053 0.15361 0.73319
 H2420 H 0.65408 0.12255 0.73516
 C2421 C 0.83947 0.07239 0.25545
 C2422 C 0.83146 0.08759 0.25711
 C2423 C 0.82206 0.10586 0.25897
 C2424 C 0.80208 0.10702 0.25866
 C2425 C 0.79302 0.12481 0.25984
 C2426 C 0.80386 0.14157 0.26136
 C2427 C 0.82383 0.14039 0.26188
 C2428 C 0.83290 0.12260 0.26070
 C2429 C 0.79453 0.15997 0.26131
 C2430 C 0.78667 0.17531 0.26050
 H2431 H 0.79353 0.09420 0.25729
 H2432 H 0.77758 0.12552 0.25929
 H2433 H 0.83239 0.15323 0.26293
 H2434 H 0.84835 0.12192 0.26093
 C2435 C 0.33871 0.57304 0.75524
 C2436 C 0.33071 0.58826 0.75676
 C2437 C 0.32133 0.60656 0.75845
 C2438 C 0.30138 0.60780 0.75760
 C2439 C 0.29235 0.62562 0.75864
 C2440 C 0.30320 0.64233 0.76057
 C2441 C 0.32314 0.64107 0.76162
 C2442 C 0.33217 0.62325 0.76058
 C2443 C 0.29394 0.66076 0.76043
 C2444 C 0.28613 0.67613 0.75958
 H2445 H 0.29282 0.59503 0.75593
 H2446 H 0.27693 0.62639 0.75769
 H2447 H 0.33172 0.65387 0.76299
 H2448 H 0.34761 0.62250 0.76123
 C2449 C 0.33904 0.42507 0.74617
 C2450 C 0.33061 0.41009 0.74457
 C2451 C 0.32074 0.39207 0.74275
 C2452 C 0.33100 0.37536 0.73871
 C2453 C 0.32153 0.35778 0.73751
 C2454 C 0.30174 0.35678 0.74031
 C2455 C 0.29146 0.37352 0.74416
 C2456 C 0.30092 0.39110 0.74536
 C2457 C 0.29213 0.33852 0.74026
 C2458 C 0.28405 0.32329 0.74096
 H2459 H 0.34632 0.37589 0.73669
 H2460 H 0.32968 0.34494 0.73466
 H2461 H 0.27618 0.37295 0.74648
 H2462 H 0.29282 0.40389 0.74851
 C2463 C 0.83908 0.92401 0.24580
 C2464 C 0.83055 0.90909 0.24428
 C2465 C 0.82060 0.89110 0.24255
 C2466 C 0.80064 0.89041 0.24386
 C2467 C 0.79109 0.87287 0.24273
 C2468 C 0.80142 0.85590 0.24026
 C2469 C 0.82137 0.85662 0.23875
 C2470 C 0.83092 0.87415 0.23987
 C2471 C 0.79167 0.83772 0.24031
 C2472 C 0.78354 0.82252 0.24108
 H2473 H 0.79249 0.90339 0.24595
 H2474 H 0.77568 0.87252 0.24405
 H2475 H 0.82955 0.84361 0.23696
 H2476 H 0.84635 0.87447 0.23886
 C2477 C 0.66316 0.92685 0.75406
 C2478 C 0.67148 0.91182 0.75579
 C2479 C 0.68126 0.89376 0.75775
 C2480 C 0.67085 0.87699 0.76107
 C2481 C 0.68026 0.85939 0.76240
 C2482 C 0.70016 0.85842 0.76046
 C2483 C 0.71059 0.87522 0.75734
 C2484 C 0.70118 0.89283 0.75601
 C2485 C 0.70976 0.84016 0.76063
 C2486 C 0.71782 0.82490 0.76003
 H2487 H 0.65544 0.87749 0.76242
 H2488 H 0.67200 0.84651 0.76469
 H2489 H 0.72596 0.87468 0.75569
 H2490 H 0.70941 0.90566 0.75342
 C2491 C 0.16199 0.42612 0.25347
 C2492 C 0.17036 0.41111 0.25512
 C2493 C 0.18020 0.39307 0.25702
 C2494 C 0.16986 0.37629 0.26048
 C2495 C 0.17933 0.35871 0.26179
 C2496 C 0.19922 0.35779 0.25969
 C2497 C 0.20958 0.37461 0.25643
 C2498 C 0.20011 0.39218 0.25512
 C2499 C 0.20886 0.33955 0.25987
 C2500 C 0.21695 0.32431 0.25927
 H2501 H 0.15447 0.37676 0.26196
 H2502 H 0.17112 0.34583 0.26419
 H2503 H 0.22494 0.37410 0.25466
 H2504 H 0.20829 0.40503 0.25242
 C2505 C 0.07151 0.24276 0.83876
 C2506 C 0.08640 0.24180 0.83044
 C2507 C 0.10425 0.24124 0.82068
 C2508 C 0.12086 0.23591 0.83022
 C2509 C 0.13845 0.23646 0.82101
 C2510 C 0.13942 0.24236 0.80228
 C2511 C 0.12279 0.24744 0.79268
 C2512 C 0.10519 0.24689 0.80188
 C2513 C 0.15755 0.24370 0.79310
 C2514 C 0.17279 0.24497 0.78549
 H2515 H 0.12023 0.23161 0.84480
 H2516 H 0.15129 0.23254 0.82853
 H2517 H 0.12346 0.25206 0.77819
 H2518 H 0.09240 0.25113 0.79446
 C2519 C 0.57155 0.74109 0.33947
 C2520 C 0.58656 0.74003 0.33138
 C2521 C 0.60452 0.73942 0.32181
 C2522 C 0.62130 0.73611 0.33191
 C2523 C 0.63893 0.73671 0.32277
 C2524 C 0.63976 0.74065 0.30355
 C2525 C 0.62296 0.74370 0.29340
 C2526 C 0.60533 0.74309 0.30254
 C2527 C 0.65786 0.74210 0.29435
 C2528 C 0.67306 0.74350 0.28666
 H2529 H 0.62076 0.73337 0.34685
 H2530 H 0.65189 0.73438 0.33071
 H2531 H 0.62353 0.74678 0.27853
 H2532 H 0.59240 0.74577 0.29467
 C2533 C 0.57465 0.25833 0.16359
 C2534 C 0.58944 0.25891 0.17202
 C2535 C 0.60727 0.25907 0.18172
 C2536 C 0.60834 0.25206 0.20006
 C2537 C 0.62597 0.25113 0.20908
 C2538 C 0.64249 0.25720 0.19974
 C2539 C 0.64137 0.26444 0.18149
 C2540 C 0.62375 0.26536 0.17247
 C2541 C 0.66065 0.25556 0.20868
 C2542 C 0.67594 0.25409 0.21608
 H2543 H 0.59564 0.24707 0.20724
 H2544 H 0.62676 0.24549 0.22320
 H2545 H 0.65412 0.26912 0.17418
 H2546 H 0.62302 0.27070 0.15824
 C2547 C 0.07444 0.75899 0.66265
 C2548 C 0.08928 0.75970 0.67096
 C2549 C 0.10716 0.75999 0.68058
 C2550 C 0.10809 0.75432 0.69937
 C2551 C 0.12571 0.75350 0.70839
 C2552 C 0.14237 0.75834 0.69861
 C2553 C 0.14141 0.76425 0.67990
 C2554 C 0.12379 0.76507 0.67088
 C2555 C 0.16052 0.75675 0.70760
 C2556 C 0.17578 0.75530 0.71504
 H2557 H 0.09526 0.75028 0.70691
 H2558 H 0.12639 0.74888 0.72287
 H2559 H 0.15427 0.76797 0.67225
 H2560 H 0.12316 0.76937 0.65630
 C2561 C 0.93156 0.74115 0.66632
 C2562 C 0.91686 0.74060 0.67501
 C2563 C 0.89911 0.74053 0.68496
 C2564 C 0.89620 0.75337 0.69973
 C2565 C 0.87843 0.75430 0.70857
 C2566 C 0.86358 0.74241 0.70261
 C2567 C 0.86658 0.72935 0.68804
 C2568 C 0.88435 0.72842 0.67919
 C2569 C 0.84512 0.74402 0.71108
 C2570 C 0.82959 0.74551 0.71808
 H2571 H 0.90754 0.76286 0.70418
 H2572 H 0.87618 0.76446 0.71982
 H2573 H 0.85512 0.72014 0.68334
 H2574 H 0.88649 0.71854 0.66769
 C2575 C 0.43085 0.24108 0.16577
 C2576 C 0.41606 0.24043 0.17428
 C2577 C 0.39820 0.24023 0.18405
 C2578 C 0.39548 0.25218 0.19955
 C2579 C 0.37766 0.25300 0.20831
 C2580 C 0.36257 0.24189 0.20153
 C2581 C 0.36537 0.22972 0.18620
 C2582 C 0.38319 0.22890 0.17744
 C2583 C 0.34409 0.24340 0.20998
 C2584 C 0.32857 0.24485 0.21701
 H2585 H 0.40701 0.26107 0.20466
 H2586 H 0.37557 0.26247 0.22015
 H2587 H 0.35373 0.22111 0.18087
 H2588 H 0.38519 0.21971 0.16537
 C2589 C 0.42899 0.75992 0.33053
 C2590 C 0.41478 0.76026 0.32119
 C2591 C 0.39739 0.76008 0.31076
 C2592 C 0.39262 0.74399 0.30012
 C2593 C 0.37484 0.74295 0.29143
 C2594 C 0.36184 0.75800 0.29341
 C2595 C 0.36677 0.77428 0.30371
 C2596 C 0.38455 0.77531 0.31240
 C2597 C 0.34318 0.75639 0.28551
 C2598 C 0.32745 0.75493 0.27906
 H2599 H 0.40244 0.73209 0.29893
 H2600 H 0.37108 0.73030 0.28351
 H2601 H 0.35674 0.78595 0.30531
 H2602 H 0.38811 0.78774 0.32075
 C2603 C 0.92878 0.26124 0.83279
 C2604 C 0.91444 0.26165 0.82364
 C2605 C 0.89697 0.26148 0.81334
 C2606 C 0.88337 0.27581 0.81636
 C2607 C 0.86561 0.27467 0.80762
 C2608 C 0.86148 0.25918 0.79590
 C2609 C 0.87521 0.24506 0.79259
 C2610 C 0.89296 0.24620 0.80132
 C2611 C 0.84291 0.25739 0.78783
 C2612 C 0.82729 0.25572 0.78117
 H2613 H 0.88634 0.28759 0.82576
 H2614 H 0.85501 0.28562 0.81025
 H2615 H 0.87207 0.23302 0.78356
 H2616 H 0.90338 0.23499 0.79905
 C2617 C 0.56876 1.00806 0.67833
 C2618 C 0.55971 1.01040 0.66412
 C2619 C 0.54931 1.01303 0.64689
 C2620 C 0.55423 1.02795 0.63469
 C2621 C 0.54520 1.02963 0.61728
 C2622 C 0.53117 1.01644 0.61198
 C2623 C 0.52592 1.00181 0.62438
 C2624 C 0.53494 1.00013 0.64179
 C2625 C 0.52376 1.01661 0.59313
 C2626 C 0.51860 1.01582 0.57701
 H2627 H 0.56537 1.03797 0.63842
 H2628 H 0.54958 1.04085 0.60773
 H2629 H 0.51527 0.99138 0.62036
 H2630 H 0.53107 0.98849 0.65105
 C2631 C 0.06830 0.50758 1.17897
 C2632 C 0.05931 0.50997 1.16473
 C2633 C 0.04900 0.51271 1.14745
 C2634 C 0.05391 0.52776 1.13542
 C2635 C 0.04496 0.52958 1.11798
 C2636 C 0.03101 0.51638 1.11249
 C2637 C 0.02577 0.50160 1.12472
 C2638 C 0.03472 0.49979 1.14216
 C2639 C 0.02366 0.51672 1.09362
 C2640 C 0.01855 0.51609 1.07748
 H2641 H 0.06498 0.53780 1.13931
 H2642 H 0.04932 0.54092 1.10857
 H2643 H 0.01519 0.49116 1.12055
 H2644 H 0.03085 0.48804 1.15129
 C2645 C -0.06777 -0.00877 1.17952
 C2646 C -0.05882 -0.01062 1.16514
 C2647 C -0.04857 -0.01265 1.14769
 C2648 C -0.05321 -0.02747 1.13531
 C2649 C -0.04438 -0.02856 1.11771
 C2650 C -0.03083 -0.01485 1.11240
 C2651 C -0.02584 -0.00030 1.12497
 C2652 C -0.03467 0.00079 1.14257
 C2653 C -0.02362 -0.01449 1.09344
 C2654 C -0.01861 -0.01334 1.07728
 H2655 H -0.06399 -0.03789 1.13906
 H2656 H -0.04854 -0.03974 1.10804
 H2657 H -0.01557 0.01052 1.12095
 H2658 H -0.03102 0.01237 1.15197
 C2659 C 0.43236 0.49137 0.67937
 C2660 C 0.44137 0.48950 0.66503
 C2661 C 0.45169 0.48745 0.64762
 C2662 C 0.44714 0.47258 0.63527
 C2663 C 0.45602 0.47149 0.61769
 C2664 C 0.46952 0.48524 0.61239
 C2665 C 0.47442 0.49984 0.62493
 C2666 C 0.46554 0.50093 0.64251
 C2667 C 0.47676 0.48560 0.59345
 C2668 C 0.48178 0.48674 0.57728
 H2669 H 0.43639 0.46212 0.63902
 H2670 H 0.45193 0.46027 0.60804
 H2671 H 0.48466 0.51070 0.62091
 H2672 H 0.46911 0.51255 0.65190
 C2673 C 0.43272 0.50700 -0.17873
 C2674 C 0.44165 0.50911 -0.16442
 C2675 C 0.45190 0.51147 -0.14707
 C2676 C 0.44726 0.52652 -0.13493
 C2677 C 0.45611 0.52795 -0.11741
 C2678 C 0.46969 0.51437 -0.11195
 C2679 C 0.47468 0.49959 -0.12429
 C2680 C 0.46583 0.49815 -0.14181
 C2681 C 0.47688 0.51434 -0.09303
 C2682 C 0.48186 0.51342 -0.07687
 H2683 H 0.43645 0.53686 -0.13880
 H2684 H 0.45194 0.53930 -0.10792
 H2685 H 0.48498 0.48886 -0.12015
 H2686 H 0.46949 0.48641 -0.15102
 C2687 C -0.06647 1.00617 0.32081
 C2688 C -0.05760 1.00827 0.33516
 C2689 C -0.04744 1.01062 0.35256
 C2690 C -0.05196 1.02583 0.36456
 C2691 C -0.04322 1.02727 0.38213
 C2692 C -0.02986 1.01355 0.38778
 C2693 C -0.02498 0.99861 0.37558
 C2694 C -0.03373 0.99716 0.35802
 C2695 C -0.02278 1.01358 0.40674
 C2696 C -0.01789 1.01273 0.42294
 H2697 H -0.06260 1.03628 0.36054
 H2698 H -0.04729 1.03875 0.39151
 H2699 H -0.01486 0.98777 0.37987
 H2700 H -0.03017 0.98529 0.34891
 C2701 C 0.06656 0.49087 0.31946
 C2702 C 0.05768 0.48871 0.33384
 C2703 C 0.04748 0.48633 0.35128
 C2704 C 0.05234 0.47144 0.36350
 C2705 C 0.04352 0.47001 0.38108
 C2706 C 0.02975 0.48345 0.38654
 C2707 C 0.02455 0.49806 0.37414
 C2708 C 0.03337 0.49949 0.35656
 C2709 C 0.02254 0.48350 0.40551
 C2710 C 0.01750 0.48447 0.42168
 H2711 H 0.06328 0.46122 0.35962
 H2712 H 0.04785 0.45879 0.39062
 H2713 H 0.01410 0.50868 0.37828
 H2714 H 0.02954 0.51112 0.34729
 C2715 C 0.56813 -0.00893 -0.18010
 C2716 C 0.55907 -0.01106 -0.16582
 C2717 C 0.54863 -0.01341 -0.14850
 C2718 C 0.53467 -0.00008 -0.14329
 C2719 C 0.52562 -0.00150 -0.12582
 C2720 C 0.53045 -0.01630 -0.11347
 C2721 C 0.54408 -0.02990 -0.11888
 C2722 C 0.55312 -0.02847 -0.13635
 C2723 C 0.52304 -0.01626 -0.09458
 C2724 C 0.51787 -0.01533 -0.07844
 H2725 H 0.53113 0.01168 -0.15251
 H2726 H 0.51530 0.00924 -0.12171
 H2727 H 0.54812 -0.04126 -0.10938
 H2728 H 0.56395 -0.03883 -0.14018
 C2729 C 0.67586 0.58677 -0.00329
 C2730 C 0.66109 0.57802 -0.00509
 C2731 C 0.64322 0.56795 -0.00720
 C2732 C 0.62828 0.57619 -0.01745
 C2733 C 0.61064 0.56687 -0.01880
 C2734 C 0.60781 0.54923 -0.00994
 C2735 C 0.62284 0.54087 0.00009
 C2736 C 0.64048 0.55018 0.00145
 C2737 C 0.58921 0.54031 -0.01006
 C2738 C 0.57355 0.53310 -0.00931
 H2739 H 0.63018 0.58993 -0.02416
 H2740 H 0.59912 0.57358 -0.02647
 H2741 H 0.62081 0.52731 0.00714
 H2742 H 0.65187 0.54367 0.00946
 C2743 C 0.17594 1.08625 0.49636
 C2744 C 0.16118 1.07750 0.49463
 C2745 C 0.14330 1.06741 0.49259
 C2746 C 0.14053 1.04975 0.50142
 C2747 C 0.12289 1.04042 0.50013
 C2748 C 0.10789 1.04868 0.48997
 C2749 C 0.11075 1.06622 0.48092
 C2750 C 0.12839 1.07554 0.48222
 C2751 C 0.08928 1.03978 0.48989
 C2752 C 0.07361 1.03259 0.49066
 H2753 H 0.15190 1.04332 0.50953
 H2754 H 0.12083 1.02695 0.50732
 H2755 H 0.09925 1.07285 0.47315
 H2756 H 0.13032 1.08921 0.47536
 C2757 C 0.17568 -0.08650 1.00275
 C2758 C 0.16084 -0.07787 1.00459
 C2759 C 0.14288 -0.06795 1.00678
 C2760 C 0.14030 -0.04979 0.99892
 C2761 C 0.12260 -0.04058 1.00038
 C2762 C 0.10735 -0.04945 1.00973
 C2763 C 0.11001 -0.06750 1.01780
 C2764 C 0.12771 -0.07670 1.01635
 C2765 C 0.08873 -0.04057 1.00996
 C2766 C 0.07307 -0.03334 1.00929
 H2767 H 0.15188 -0.04288 0.99144
 H2768 H 0.12071 -0.02670 0.99394
 H2769 H 0.09832 -0.07458 1.02494
 H2770 H 0.12948 -0.09075 1.02245
 C2771 C 0.67582 0.41285 0.50328
 C2772 C 0.66097 0.42150 0.50501
 C2773 C 0.64299 0.43142 0.50708
 C2774 C 0.64078 0.44996 0.50001
 C2775 C 0.62309 0.45923 0.50137
 C2776 C 0.60750 0.45003 0.50984
 C2777 C 0.60980 0.43159 0.51712
 C2778 C 0.62747 0.42232 0.51576
 C2779 C 0.58894 0.45903 0.50996
 C2780 C 0.57331 0.46633 0.50925
 H2781 H 0.65262 0.45715 0.49324
 H2782 H 0.62149 0.47342 0.49556
 H2783 H 0.59785 0.42425 0.52356
 H2784 H 0.62897 0.40798 0.52124
 C2785 C -0.17706 0.41068 0.49536
 C2786 C -0.16196 0.41895 0.49405
 C2787 C -0.14374 0.42849 0.49230
 C2788 C -0.14123 0.44693 0.49953
 C2789 C -0.12341 0.45595 0.49819
 C2790 C -0.10800 0.44661 0.48957
 C2791 C -0.11057 0.42824 0.48218
 C2792 C -0.12838 0.41923 0.48351
 C2793 C -0.08935 0.45544 0.48931
 C2794 C -0.07372 0.46274 0.48993
 H2795 H -0.15296 0.45426 0.50636
 H2796 H -0.12160 0.47009 0.50409
 H2797 H -0.09875 0.42080 0.47560
 H2798 H -0.13011 0.40498 0.47787
 C2799 C 0.32281 -0.08888 -0.00530
 C2800 C 0.33793 -0.08063 -0.00661
 C2801 C 0.35615 -0.07111 -0.00838
 C2802 C 0.35868 -0.05265 -0.00120
 C2803 C 0.37651 -0.04366 -0.00254
 C2804 C 0.39193 -0.05304 -0.01110
 C2805 C 0.38935 -0.07143 -0.01845
 C2806 C 0.37152 -0.08041 -0.01711
 C2807 C 0.41060 -0.04425 -0.01133
 C2808 C 0.42625 -0.03700 -0.01066
 H2809 H 0.34694 -0.04528 0.00559
 H2810 H 0.37833 -0.02951 0.00332
 H2811 H 0.40116 -0.07891 -0.02497
 H2812 H 0.36978 -0.09469 -0.02272
 C2813 C 0.32361 1.08963 0.50501
 C2814 C 0.33870 1.08135 0.50631
 C2815 C 0.35688 1.07178 0.50803
 C2816 C 0.37237 1.08119 0.51634
 C2817 C 0.39017 1.07216 0.51759
 C2818 C 0.39260 1.05361 0.51058
 C2819 C 0.37706 1.04412 0.50245
 C2820 C 0.35926 1.05316 0.50119
 C2821 C 0.41124 1.04476 0.51067
 C2822 C 0.42688 1.03749 0.50989
 H2823 H 0.37075 1.09559 0.52167
 H2824 H 0.40208 1.07972 0.52378
 H2825 H 0.37877 1.02984 0.49684
 H2826 H 0.34743 1.04571 0.49473
 C2827 C -0.17644 0.59022 1.00570
 C2828 C -0.16134 0.58196 1.00697
 C2829 C -0.14314 0.57239 1.00864
 C2830 C -0.12790 0.58145 1.01773
 C2831 C -0.11008 0.57244 1.01892
 C2832 C -0.10739 0.55428 1.01108
 C2833 C -0.12269 0.54513 1.00216
 C2834 C -0.14051 0.55414 1.00096
 C2835 C -0.08871 0.54550 1.01115
 C2836 C -0.07306 0.53827 1.01034
 H2837 H -0.12972 0.59555 1.02372
 H2838 H -0.09835 0.57973 1.02573
 H2839 H -0.12078 0.53116 0.99591
 H2840 H -0.15215 0.54698 0.99389
 C2841 C 0.01469 0.67814 0.57270
 C2842 C 0.01573 0.66303 0.56482
 C2843 C 0.01614 0.64459 0.55622
 C2844 C 0.00501 0.64105 0.54033
 C2845 C 0.00371 0.62255 0.53318
 C2846 C 0.01351 0.60761 0.54194
 C2847 C 0.02500 0.61122 0.55756
 C2848 C 0.02630 0.62972 0.56471
 C2849 C 0.01113 0.58848 0.53533
 C2850 C 0.00883 0.57249 0.52971
 H2851 H -0.00304 0.65246 0.53381
 H2852 H -0.00524 0.61983 0.52110
 H2853 H 0.03259 0.59970 0.56441
 H2854 H 0.03479 0.63234 0.57712
 C2855 C 0.51554 0.17755 0.07343
 C2856 C 0.51656 0.16240 0.06562
 C2857 C 0.51693 0.14394 0.05705
 C2858 C 0.52631 0.12885 0.06602
 C2859 C 0.52494 0.11038 0.05880
 C2860 C 0.51416 0.10703 0.04264
 C2861 C 0.50515 0.12219 0.03344
 C2862 C 0.50652 0.14066 0.04066
 C2863 C 0.51167 0.08796 0.03591
 C2864 C 0.50929 0.07203 0.03016
 H2865 H 0.53424 0.13128 0.07882
 H2866 H 0.53191 0.09869 0.06600
 H2867 H 0.49675 0.11967 0.02094
 H2868 H 0.49908 0.15225 0.03376
 C2869 C -0.01865 0.18010 0.92634
 C2870 C -0.02003 0.16488 0.93396
 C2871 C -0.02066 0.14633 0.94232
 C2872 C -0.02816 0.13095 0.93218
 C2873 C -0.02671 0.11245 0.93930
 C2874 C -0.01773 0.10935 0.95653
 C2875 C -0.01067 0.12478 0.96689
 C2876 C -0.01212 0.14328 0.95977
 C2877 C -0.01490 0.09030 0.96318
 C2878 C -0.01218 0.07440 0.96886
 H2879 H -0.03461 0.13320 0.91857
 H2880 H -0.03215 0.10056 0.93119
 H2881 H -0.00365 0.12245 0.98021
 H2882 H -0.00611 0.15509 0.96759
 C2883 C 0.48001 0.67956 0.42585
 C2884 C 0.47877 0.66438 0.43356
 C2885 C 0.47840 0.64587 0.44202
 C2886 C 0.47091 0.63038 0.43204
 C2887 C 0.47268 0.61192 0.43919
 C2888 C 0.48198 0.60897 0.45628
 C2889 C 0.48901 0.62451 0.46650
 C2890 C 0.48724 0.64297 0.45935
 C2891 C 0.48509 0.58998 0.46296
 C2892 C 0.48800 0.57412 0.46864
 H2893 H 0.46423 0.63251 0.41852
 H2894 H 0.46724 0.59994 0.43120
 H2895 H 0.49626 0.62231 0.47972
 H2896 H 0.49325 0.65488 0.46704
 C2897 C 0.51275 0.82279 0.42679
 C2898 C 0.51530 0.83785 0.43441
 C2899 C 0.51713 0.85634 0.44273
 C2900 C 0.50939 0.85976 0.46052
 C2901 C 0.50866 0.87835 0.46751
 C2902 C 0.51563 0.89351 0.45668
 C2903 C 0.52393 0.89002 0.43914
 C2904 C 0.52466 0.87142 0.43216
 C2905 C 0.51319 0.91269 0.46312
 C2906 C 0.51068 0.92868 0.46867
 H2907 H 0.50333 0.84818 0.46867
 H2908 H 0.50216 0.88098 0.48107
 H2909 H 0.52928 0.90170 0.43068
 H2910 H 0.53047 0.86889 0.41828
 C2911 C 0.01408 0.32360 0.92765
 C2912 C 0.01664 0.33871 0.93516
 C2913 C 0.01839 0.35728 0.94331
 C2914 C 0.01094 0.36075 0.96120
 C2915 C 0.01000 0.37940 0.96802
 C2916 C 0.01647 0.39457 0.95692
 C2917 C 0.02451 0.39105 0.93927
 C2918 C 0.02545 0.37239 0.93246
 C2919 C 0.01379 0.41377 0.96322
 C2920 C 0.01111 0.42976 0.96870
 H2921 H 0.00524 0.34915 0.96957
 H2922 H 0.00371 0.38205 0.98167
 H2923 H 0.02948 0.40273 0.93059
 H2924 H 0.03102 0.36982 0.91849
 C2925 C 0.48369 0.32094 0.07416
 C2926 C 0.48082 0.33600 0.06665
 C2927 C 0.47880 0.35449 0.05840
 C2928 C 0.47325 0.36995 0.06962
 C2929 C 0.47417 0.38848 0.06251
 C2930 C 0.48066 0.39154 0.04418
 C2931 C 0.48556 0.37603 0.03274
 C2932 C 0.48465 0.35750 0.03986
 C2933 C 0.48363 0.41058 0.03754
 C2934 C 0.48662 0.42643 0.03186
 H2935 H 0.46895 0.36773 0.08406
 H2936 H 0.47045 0.40043 0.07145
 H2937 H 0.49068 0.37832 0.01857
 H2938 H 0.48919 0.34563 0.03119
 C2939 C -0.01795 0.82129 0.57475
 C2940 C -0.02085 0.83637 0.56729
 C2941 C -0.02282 0.85488 0.55906
 C2942 C -0.02778 0.87044 0.57040
 C2943 C -0.02666 0.88896 0.56326
 C2944 C -0.02056 0.89189 0.54479
 C2945 C -0.01628 0.87629 0.53323
 C2946 C -0.01739 0.85777 0.54038
 C2947 C -0.01733 0.91086 0.53808
 C2948 C -0.01413 0.92665 0.53233
 H2949 H -0.03174 0.86832 0.58495
 H2950 H -0.02990 0.90098 0.57229
 H2951 H -0.01147 0.87847 0.51895
 H2952 H -0.01329 0.84582 0.53161
 C2953 C 0.25757 0.31791 0.07125
 C2954 C 0.26011 0.30889 0.08545
 C2955 C 0.26301 0.29854 0.10269
 C2956 C 0.25044 0.28389 0.10788
 C2957 C 0.25232 0.27495 0.12532
 C2958 C 0.26681 0.28056 0.13766
 C2959 C 0.27970 0.29487 0.13226
 C2960 C 0.27782 0.30381 0.11481
 C2961 C 0.26706 0.27331 0.15657
 C2962 C 0.26628 0.26831 0.17275
 H2963 H 0.23888 0.27975 0.09866
 H2964 H 0.24211 0.26409 0.12943
 H2965 H 0.29081 0.29952 0.14176
 H2966 H 0.28758 0.31517 0.11100
 C2967 C 0.75807 0.81788 0.57181
 C2968 C 0.76071 0.80898 0.58606
 C2969 C 0.76372 0.79878 0.60336
 C2970 C 0.77838 0.80437 0.61553
 C2971 C 0.78035 0.79554 0.63302
 C2972 C 0.76771 0.78103 0.63844
 C2973 C 0.75336 0.77510 0.62607
 C2974 C 0.75139 0.78393 0.60857
 C2975 C 0.76802 0.77386 0.65738
 C2976 C 0.76727 0.76891 0.67358
 H2977 H 0.78795 0.81588 0.61170
 H2978 H 0.79134 0.80044 0.64254
 H2979 H 0.74334 0.76408 0.63018
 H2980 H 0.73995 0.77953 0.59934
 C2981 C 0.24233 0.68293 0.56991
 C2982 C 0.24065 0.69189 0.58429
 C2983 C 0.23883 0.70211 0.60176
 C2984 C 0.22376 0.69789 0.61406
 C2985 C 0.22282 0.70667 0.63168
 C2986 C 0.23692 0.71974 0.63709
 C2987 C 0.25173 0.72430 0.62461
 C2988 C 0.25267 0.71553 0.60699
 C2989 C 0.23730 0.72691 0.65604
 C2990 C 0.23839 0.73191 0.67220
 H2991 H 0.21302 0.68748 0.61022
 H2992 H 0.21143 0.70284 0.64127
 H2993 H 0.26284 0.73421 0.62871
 H2994 H 0.26444 0.71884 0.59765
 C2995 C 0.74284 0.18178 0.07084
 C2996 C 0.74113 0.19071 0.08523
 C2997 C 0.73924 0.20091 0.10271
 C2998 C 0.75296 0.21448 0.10791
 C2999 C 0.75196 0.22325 0.12552
 C3000 C 0.73722 0.21855 0.13802
 C3001 C 0.72324 0.20533 0.13265
 C3002 C 0.72424 0.19655 0.11503
 C3003 C 0.73756 0.22575 0.15697
 C3004 C 0.73862 0.23077 0.17312
 H3005 H 0.76467 0.21791 0.09854
 H3006 H 0.76297 0.23328 0.12959
 H3007 H 0.71190 0.20140 0.14226
 H3008 H 0.71360 0.18603 0.11122
 C3009 C 0.75854 0.18214 0.92858
 C3010 C 0.76079 0.19099 0.91421
 C3011 C 0.76328 0.20116 0.89678
 C3012 C 0.77811 0.19611 0.88450
 C3013 C 0.77964 0.20491 0.86694
 C3014 C 0.76638 0.21885 0.86157
 C3015 C 0.75183 0.22423 0.87404
 C3016 C 0.75030 0.21543 0.89160
 C3017 C 0.76638 0.22605 0.84262
 C3018 C 0.76543 0.23108 0.82647
 H3019 H 0.78818 0.18504 0.88830
 H3020 H 0.79080 0.20044 0.85735
 H3021 H 0.74134 0.23481 0.86997
 H3022 H 0.73873 0.21940 0.90092
 C3023 C 0.25856 0.68270 0.42760
 C3024 C 0.26091 0.69147 0.41321
 C3025 C 0.26352 0.70156 0.39575
 C3026 C 0.27803 0.69604 0.38330
 C3027 C 0.27963 0.70479 0.36572
 C3028 C 0.26676 0.71915 0.36050
 C3029 C 0.25256 0.72500 0.37314
 C3030 C 0.25095 0.71625 0.39072
 C3031 C 0.26676 0.72633 0.34154
 C3032 C 0.26574 0.73136 0.32539
 H3033 H 0.28779 0.68464 0.38699
 H3034 H 0.29052 0.69996 0.35600
 H3035 H 0.24237 0.73591 0.36919
 H3036 H 0.23963 0.72060 0.40017
 C3037 C 0.74164 0.81623 0.43026
 C3038 C 0.73975 0.80713 0.41601
 C3039 C 0.73765 0.79668 0.39871
 C3040 C 0.72217 0.80046 0.38686
 C3041 C 0.72093 0.79147 0.36938
 C3042 C 0.73513 0.77861 0.36365
 C3043 C 0.75036 0.77447 0.37570
 C3044 C 0.75160 0.78346 0.39319
 C3045 C 0.73522 0.77134 0.34474
 C3046 C 0.73609 0.76634 0.32856
 H3047 H 0.71134 0.81071 0.39093
 H3048 H 0.70922 0.79498 0.36010
 H3049 H 0.76156 0.76475 0.37135
 H3050 H 0.76368 0.78048 0.40218
 C3051 C 0.24118 0.31709 0.92980
 C3052 C 0.23923 0.30803 0.91553
 C3053 C 0.23708 0.29763 0.89821
 C3054 C 0.22175 0.30167 0.88626
 C3055 C 0.22049 0.29271 0.86876
 C3056 C 0.23452 0.27962 0.86313
 C3057 C 0.24958 0.27522 0.87528
 C3058 C 0.25085 0.28418 0.89278
 C3059 C 0.23464 0.27237 0.84421
 C3060 C 0.23558 0.26737 0.82804
 H3061 H 0.21106 0.31210 0.89026
 H3062 H 0.20891 0.29642 0.85940
 H3063 H 0.26065 0.26532 0.87101
 H3064 H 0.26281 0.28100 0.90185
 C3065 C 0.83750 0.42613 0.75406
 C3066 C 0.82890 0.41124 0.75568
 C3067 C 0.81899 0.39323 0.75756
 C3068 C 0.82745 0.37813 0.76742
 C3069 C 0.81827 0.36039 0.76860
 C3070 C 0.80054 0.35763 0.75994
 C3071 C 0.79196 0.37281 0.75029
 C3072 C 0.80115 0.39055 0.74911
 C3073 C 0.79169 0.33898 0.75994
 C3074 C 0.78449 0.32331 0.75914
 H3075 H 0.84126 0.37998 0.77399
 H3076 H 0.82513 0.34876 0.77598
 H3077 H 0.77833 0.37085 0.74341
 H3078 H 0.79446 0.40207 0.74141
 C3079 C 0.33823 0.92630 0.25242
 C3080 C 0.32992 0.91121 0.25371
 C3081 C 0.32054 0.89287 0.25509
 C3082 C 0.32770 0.87727 0.24497
 C3083 C 0.31877 0.85944 0.24620
 C3084 C 0.30261 0.85701 0.25758
 C3085 C 0.29546 0.87258 0.26779
 C3086 C 0.30441 0.89046 0.26656
 C3087 C 0.29315 0.83867 0.25812
 C3088 C 0.28552 0.82319 0.25763
 H3089 H 0.34016 0.87891 0.23607
 H3090 H 0.32441 0.84756 0.23816
 H3091 H 0.28293 0.87094 0.27657
 H3092 H 0.29874 0.90238 0.27449
 C3093 C 0.16323 0.92573 0.74605
 C3094 C 0.17187 0.91090 0.74421
 C3095 C 0.18182 0.89296 0.74204
 C3096 C 0.17266 0.87739 0.73358
 C3097 C 0.18196 0.85974 0.73216
 C3098 C 0.20050 0.85753 0.73916
 C3099 C 0.20977 0.87316 0.74740
 C3100 C 0.20047 0.89082 0.74882
 C3101 C 0.20952 0.83897 0.73906
 C3102 C 0.21684 0.82336 0.73983
 H3103 H 0.15824 0.87883 0.72832
 H3104 H 0.17457 0.84775 0.72590
 H3105 H 0.22404 0.87162 0.75301
 H3106 H 0.20771 0.90271 0.75543
 C3107 C 0.66339 0.42471 0.24637
 C3108 C 0.67203 0.40988 0.24460
 C3109 C 0.68201 0.39194 0.24254
 C3110 C 0.67326 0.37662 0.23326
 C3111 C 0.68255 0.35895 0.23194
 C3112 C 0.70068 0.35649 0.23985
 C3113 C 0.70954 0.37189 0.24891
 C3114 C 0.70025 0.38955 0.25023
 C3115 C 0.70965 0.33792 0.23979
 C3116 C 0.71695 0.32230 0.24060
 H3117 H 0.65915 0.37825 0.22729
 H3118 H 0.67547 0.34714 0.22503
 H3119 H 0.72348 0.37015 0.25522
 H3120 H 0.70716 0.40125 0.25748
 C3121 C 0.66140 0.57236 0.25494
 C3122 C 0.66980 0.58737 0.25631
 C3123 C 0.67949 0.60548 0.25814
 C3124 C 0.69763 0.60815 0.25022
 C3125 C 0.70673 0.62591 0.25158
 C3126 C 0.69778 0.64112 0.26091
 C3127 C 0.67973 0.63839 0.26901
 C3128 C 0.67063 0.62063 0.26765
 C3129 C 0.70659 0.65976 0.26113
 C3130 C 0.71379 0.67543 0.26044
 H3131 H 0.70463 0.59658 0.24282
 H3132 H 0.72061 0.62786 0.24513
 H3133 H 0.67258 0.65005 0.27613
 H3134 H 0.65661 0.61877 0.27383
 C3135 C 0.16097 0.07345 0.75456
 C3136 C 0.16934 0.08849 0.75586
 C3137 C 0.17900 0.10663 0.75762
 C3138 C 0.19739 0.10910 0.75021
 C3139 C 0.20650 0.12686 0.75153
 C3140 C 0.19729 0.14226 0.76030
 C3141 C 0.17898 0.13973 0.76787
 C3142 C 0.16988 0.12197 0.76656
 C3143 C 0.20617 0.16088 0.76049
 C3144 C 0.21344 0.17652 0.75982
 H3145 H 0.20460 0.09737 0.74326
 H3146 H 0.22059 0.12865 0.74549
 H3147 H 0.17164 0.15154 0.77455
 H3148 H 0.15566 0.12027 0.77233
 C3149 C 0.33800 0.07324 0.24548
 C3150 C 0.32970 0.08834 0.24431
 C3151 C 0.32016 0.10657 0.24270
 C3152 C 0.30239 0.10954 0.25131
 C3153 C 0.29344 0.12739 0.25013
 C3154 C 0.30217 0.14241 0.24032
 C3155 C 0.31985 0.13938 0.23155
 C3156 C 0.32880 0.12152 0.23273
 C3157 C 0.29348 0.16113 0.24016
 C3158 C 0.28637 0.17685 0.24084
 H3159 H 0.29555 0.09813 0.25907
 H3160 H 0.27984 0.12956 0.25708
 H3161 H 0.32683 0.15087 0.22403
 H3162 H 0.34254 0.11944 0.22602
 C3163 C 0.83952 0.57414 0.74634
 C3164 C 0.83119 0.58922 0.74517
 C3165 C 0.82158 0.60742 0.74358
 C3166 C 0.83030 0.62250 0.73387
 C3167 C 0.82127 0.64032 0.73269
 C3168 C 0.80342 0.64317 0.74119
 C3169 C 0.79461 0.62803 0.75073
 C3170 C 0.80364 0.61021 0.75191
 C3171 C 0.79464 0.66185 0.74104
 C3172 C 0.78745 0.67753 0.74172
 H3173 H 0.84416 0.62055 0.72737
 H3174 H 0.82831 0.65191 0.72538
 H3175 H 0.78088 0.63006 0.75748
 H3176 H 0.79674 0.59870 0.75947
 C3177 C 0.92632 0.76684 0.17394
 C3178 C 0.91089 0.76805 0.18121
 C3179 C 0.89221 0.76857 0.18932
 C3180 C 0.88954 0.76302 0.20799
 C3181 C 0.87110 0.76160 0.21531
 C3182 C 0.85536 0.76570 0.20395
 C3183 C 0.85805 0.77167 0.18541
 C3184 C 0.87649 0.77309 0.17809
 C3185 C 0.83647 0.76293 0.21109
 C3186 C 0.82074 0.76029 0.21727
 H3187 H 0.90164 0.75934 0.21670
 H3188 H 0.86910 0.75693 0.22966
 H3189 H 0.84592 0.77481 0.17653
 H3190 H 0.87847 0.77723 0.16358
 C3191 C 0.42721 0.26680 0.67499
 C3192 C 0.41183 0.26805 0.68235
 C3193 C 0.39316 0.26863 0.69049
 C3194 C 0.39025 0.26179 0.70870
 C3195 C 0.37176 0.26046 0.71590
 C3196 C 0.35620 0.26592 0.70486
 C3197 C 0.35914 0.27317 0.68680
 C3198 C 0.37763 0.27451 0.67961
 C3199 C 0.33720 0.26327 0.71178
 C3200 C 0.32137 0.26072 0.71775
 H3201 H 0.40220 0.25706 0.71712
 H3202 H 0.36956 0.25479 0.72987
 H3203 H 0.34714 0.27737 0.67818
 H3204 H 0.37979 0.27965 0.66543
 C3205 C 0.42968 0.73226 0.82491
 C3206 C 0.41438 0.73093 0.81749
 C3207 C 0.39578 0.73032 0.80929
 C3208 C 0.38018 0.72429 0.82009
 C3209 C 0.36173 0.72569 0.81289
 C3210 C 0.35891 0.73314 0.79491
 C3211 C 0.37454 0.73873 0.78394
 C3212 C 0.39299 0.73734 0.79115
 C3213 C 0.33996 0.73591 0.78802
 C3214 C 0.32417 0.73856 0.78208
 H3215 H 0.38224 0.71901 0.83422
 H3216 H 0.34968 0.72139 0.82146
 H3217 H 0.37243 0.74456 0.77004
 H3218 H 0.40499 0.74220 0.78279
 C3219 C 0.92989 0.23221 0.32619
 C3220 C 0.91461 0.23088 0.31873
 C3221 C 0.89605 0.23023 0.31045
 C3222 C 0.89328 0.23747 0.29238
 C3223 C 0.87486 0.23876 0.28510
 C3224 C 0.85923 0.23285 0.29591
 C3225 C 0.86204 0.22519 0.31381
 C3226 C 0.88046 0.22390 0.32109
 C3227 C 0.84029 0.23547 0.28894
 C3228 C 0.82449 0.23800 0.28296
 H3229 H 0.90527 0.24256 0.28415
 H3230 H 0.87276 0.24475 0.27125
 H3231 H 0.84999 0.22065 0.32226
 H3232 H 0.88251 0.21845 0.33515
 C3233 C 0.07272 0.26625 0.32243
 C3234 C 0.08764 0.26911 0.31462
 C3235 C 0.10606 0.27107 0.30614
 C3236 C 0.12124 0.27830 0.31672
 C3237 C 0.13984 0.27724 0.30975
 C3238 C 0.14324 0.26892 0.29222
 C3239 C 0.12799 0.26235 0.28134
 C3240 C 0.10939 0.26340 0.28831
 C3241 C 0.16241 0.26589 0.28593
 C3242 C 0.17838 0.26289 0.28055
 H3243 H 0.11878 0.28401 0.33064
 H3244 H 0.15160 0.28228 0.31826
 H3245 H 0.13055 0.25583 0.26778
 H3246 H 0.09775 0.25754 0.28016
 C3247 C 0.57287 0.76630 0.82148
 C3248 C 0.58790 0.76920 0.81390
 C3249 C 0.60645 0.77124 0.80572
 C3250 C 0.62146 0.77834 0.81662
 C3251 C 0.64017 0.77738 0.80991
 C3252 C 0.64385 0.76929 0.79233
 C3253 C 0.62877 0.76284 0.78115
 C3254 C 0.61006 0.76380 0.78786
 C3255 C 0.66311 0.76635 0.78628
 C3256 C 0.67914 0.76339 0.78105
 H3257 H 0.61879 0.78388 0.83057
 H3258 H 0.65179 0.78232 0.81866
 H3259 H 0.63154 0.75649 0.76756
 H3260 H 0.59855 0.75804 0.77947
 C3261 C 0.57067 0.23417 0.67901
 C3262 C 0.58564 0.23134 0.68667
 C3263 C 0.60411 0.22936 0.69492
 C3264 C 0.60750 0.23677 0.71283
 C3265 C 0.62613 0.23774 0.71964
 C3266 C 0.64135 0.23135 0.70852
 C3267 C 0.63789 0.22331 0.69090
 C3268 C 0.61926 0.22232 0.68409
 C3269 C 0.66054 0.23431 0.71467
 C3270 C 0.67654 0.23726 0.71990
 H3271 H 0.59588 0.24247 0.72118
 H3272 H 0.62873 0.24405 0.73327
 H3273 H 0.64962 0.21841 0.68220
 H3274 H 0.61676 0.21681 0.67012
 C3275 C 0.06877 0.73652 0.18101
 C3276 C 0.08380 0.73381 0.18860
 C3277 C 0.10236 0.73188 0.19668
 C3278 C 0.10625 0.74032 0.21404
 C3279 C 0.12501 0.74117 0.22052
 C3280 C 0.13986 0.73364 0.20961
 C3281 C 0.13589 0.72461 0.19256
 C3282 C 0.11713 0.72375 0.18609
 C3283 C 0.15922 0.73632 0.21536
 C3284 C 0.17537 0.73901 0.22027
 H3285 H 0.09493 0.74686 0.22218
 H3286 H 0.12801 0.74824 0.23370
 H3287 H 0.14733 0.71882 0.18402
 H3288 H 0.11424 0.71743 0.17252
   
