data_POSCAR
  _audit_creation_date              2014-09-24
  _audit_creation_method            'ToBaCCo'
  _symmetry_space_group_name_H-M    'P1'
  _symmetry_Int_Tables_number       1
  _symmetry_cell_setting            triclinic
  loop_
  _symmetry_equiv_pos_as_xyz
 x,y,z
_cell_length_a 39.5786
_cell_length_b 39.2635
_cell_length_c 42.9995
_cell_angle_alpha 88.837100
_cell_angle_beta 90.202400
_cell_angle_gamma 90.563000
loop_
  _atom_site_label
  _atom_site_type_symbol
  _atom_site_fract_x
  _atom_site_fract_y
  _atom_site_fract_z
C1 C 0.42600 0.01050 0.28951
 C2 C 0.40303 0.04195 0.28377
 C3 C 0.38606 0.04217 0.25585
 C4 C 0.39323 0.01036 0.23641
 C5 C 0.40140 -0.01933 0.28589
 C6 C 0.38490 -0.02034 0.25845
 C7 C 0.44886 0.01031 0.26082
 C8 C 0.43224 0.01092 0.23309
 H9 H 0.39922 0.06190 0.30026
 H10 H 0.37926 0.00980 0.21398
 H11 H 0.39751 -0.03874 0.30386
 H12 H 0.47618 0.01025 0.26249
 C13 C 0.07880 0.00223 0.77259
 C14 C 0.10448 -0.02682 0.76992
 C15 C 0.12211 -0.02737 0.74279
 C16 C 0.11113 0.00140 0.71968
 C17 C 0.09771 0.03512 0.76464
 C18 C 0.11599 0.03485 0.73835
 C19 C 0.05652 -0.00191 0.74574
 C20 C 0.07402 -0.00305 0.71639
 H21 H 0.10743 -0.04619 0.78801
 H22 H 0.12484 0.00169 0.69719
 H23 H 0.09799 0.05686 0.77984
 H24 H 0.02938 -0.00448 0.74708
 C25 C 0.57041 0.49371 0.27673
 C26 C 0.59582 0.46462 0.27286
 C27 C 0.61525 0.46662 0.24657
 C28 C 0.60796 0.49917 0.22666
 C29 C 0.59181 0.52648 0.27431
 C30 C 0.61184 0.52942 0.24913
 C31 C 0.55008 0.49468 0.24627
 C32 C 0.56932 0.49650 0.22009
 H33 H 0.59701 0.44318 0.28906
 H34 H 0.62391 0.50234 0.20561
 H35 H 0.58858 0.54839 0.28875
 H36 H 0.52277 0.49282 0.24539
 C37 C 0.93001 0.51001 0.78566
 C38 C 0.90664 0.54065 0.77978
 C39 C 0.88941 0.54028 0.75230
 C40 C 0.89668 0.50866 0.73289
 C41 C 0.90745 0.47851 0.78152
 C42 C 0.88959 0.47760 0.75488
 C43 C 0.95285 0.50862 0.75664
 C44 C 0.93571 0.50953 0.72888
 H45 H 0.90470 0.56145 0.79583
 H46 H 0.88211 0.50814 0.71080
 H47 H 0.90768 0.45677 0.79749
 H48 H 0.97968 0.50379 0.75770
 C49 C 0.28346 0.36117 0.99497
 C50 C 0.27848 0.33747 1.02326
 C51 C 0.24802 0.32151 1.02543
 C52 C 0.22476 0.32936 0.99715
 C53 C 0.27661 0.33816 0.96703
 C54 C 0.24601 0.32180 0.96756
 C55 C 0.25236 0.38479 0.99394
 C56 C 0.22142 0.36875 0.99661
 H57 H 0.29664 0.33646 1.04220
 H58 H 0.20047 0.31510 0.99836
 H59 H 0.29170 0.33862 0.94613
 H60 H 0.25500 0.41170 0.98854
 C61 C 0.79067 0.13733 0.99692
 C62 C 0.78511 0.16001 0.96820
 C63 C 0.75609 0.17807 0.96762
 C64 C 0.73344 0.17024 0.99655
 C65 C 0.78606 0.16065 1.02494
 C66 C 0.75615 0.17779 1.02494
 C67 C 0.76057 0.11550 0.99862
 C68 C 0.72865 0.13294 0.99760
 H69 H 0.80336 0.16159 0.94946
 H70 H 0.71000 0.18544 0.99658
 H71 H 0.80319 0.16063 1.04464
 H72 H 0.76145 0.08984 1.00813
 C73 C 0.27929 0.63112 0.49497
 C74 C 0.27806 0.65722 0.46819
 C75 C 0.25122 0.67845 0.46799
 C76 C 0.22560 0.67016 0.49443
 C77 C 0.27458 0.65162 0.52472
 C78 C 0.24710 0.67241 0.52444
 C79 C 0.24533 0.61168 0.49284
 C80 C 0.21706 0.63150 0.49187
 H81 H 0.29749 0.65871 0.45051
 H82 H 0.20313 0.68686 0.49428
 H83 H 0.29103 0.64899 0.54480
 H84 H 0.24297 0.58443 0.49618
 C85 C 0.77730 0.87321 0.49448
 C86 C 0.77859 0.84616 0.52060
 C87 C 0.75226 0.82385 0.52174
 C88 C 0.72601 0.83022 0.49551
 C89 C 0.77304 0.85278 0.46472
 C90 C 0.74651 0.83042 0.46508
 C91 C 0.74234 0.88980 0.49971
 C92 C 0.71522 0.86768 0.49948
 H93 H 0.79529 0.84856 0.54048
 H94 H 0.70483 0.81149 0.49528
 H95 H 0.78967 0.85590 0.44489
 H96 H 0.73928 0.91673 0.50363
 C97 C -0.02150 0.29021 0.38491
 C98 C 0.01611 0.28052 0.38428
 C99 C 0.02279 0.25275 0.36723
 C100 C -0.00902 0.23529 0.35468
 C101 C -0.03237 0.29150 0.35291
 C102 C -0.02571 0.26146 0.33606
 C103 C -0.03776 0.25824 0.39953
 C104 C -0.03082 0.22925 0.38398
 H105 H 0.03628 0.29538 0.39457
 H106 H -0.00328 0.21180 0.34185
 H107 H -0.04869 0.31149 0.34401
 H108 H -0.04606 0.25731 0.42353
 C109 C -0.01371 0.77256 0.09430
 C110 C -0.04196 0.77004 0.11849
 C111 C -0.03556 0.74744 0.14186
 C112 C -0.00190 0.72935 0.13968
 C113 C 0.01750 0.78130 0.11422
 C114 C 0.02360 0.75859 0.13766
 C115 C -0.00825 0.73636 0.08369
 C116 C -0.00199 0.71417 0.10746
 H117 H -0.06271 0.78756 0.12017
 H118 H 0.00295 0.71041 0.15870
 H119 H 0.03348 0.80353 0.11025
 H120 H -0.01075 0.72863 0.05974
 C121 C 0.48938 0.26128 0.60756
 C122 C 0.47184 0.26493 0.63898
 C123 C 0.48262 0.24244 0.66117
 C124 C 0.51029 0.21876 0.65058
 C125 C 0.52670 0.26570 0.61631
 C126 C 0.53746 0.24304 0.63804
 C127 C 0.48522 0.22400 0.59918
 C128 C 0.49644 0.20190 0.62157
 H129 H 0.45288 0.28368 0.64384
 H130 H 0.51892 0.20062 0.66906
 H131 H 0.54263 0.28667 0.60826
 H132 H 0.47489 0.21583 0.57715
 C133 C 0.50083 0.77808 0.91151
 C134 C 0.52805 0.78580 0.88688
 C135 C 0.52904 0.76292 0.86389
 C136 C 0.50176 0.73531 0.86607
 C137 C 0.46809 0.77745 0.89226
 C138 C 0.46921 0.75578 0.86801
 C139 C 0.50561 0.74326 0.92147
 C140 C 0.50616 0.71950 0.89671
 H141 H 0.54664 0.80614 0.88848
 H142 H 0.50136 0.71757 0.84630
 H143 H 0.44747 0.79501 0.89469
 H144 H 0.50734 0.73571 0.94582
 C145 C -0.24053 0.67455 0.97084
 C146 C -0.21131 0.65005 0.97850
 C147 C -0.21444 0.63191 1.00591
 C148 C -0.24772 0.63948 1.02306
 C149 C -0.27249 0.65227 0.97269
 C150 C -0.27640 0.63315 0.99888
 C151 C -0.24399 0.69675 0.99961
 C152 C -0.24615 0.67878 1.02692
 H153 H -0.18959 0.64771 0.96346
 H154 H -0.25124 0.62480 1.04517
 H155 H -0.29165 0.65228 0.95463
 H156 H -0.24477 0.72426 0.99899
 C157 C -0.24467 0.32407 0.46303
 C158 C -0.28042 0.33961 0.46421
 C159 C -0.28764 0.35628 0.49098
 C160 C -0.25754 0.35696 0.51403
 C161 C -0.22064 0.35404 0.46944
 C162 C -0.22754 0.37201 0.49495
 C163 C -0.24172 0.30326 0.49147
 C164 C -0.24936 0.32073 0.51982
 H165 H -0.29867 0.33696 0.44557
 H166 H -0.26346 0.37176 0.53499
 H167 H -0.19664 0.35833 0.45806
 H168 H -0.23116 0.27792 0.49147
 C169 C 0.25668 -0.17213 -0.03347
 C170 C 0.22589 -0.14903 -0.02977
 C171 C 0.22493 -0.13174 -0.00274
 C172 C 0.25613 -0.13870 0.01847
 C173 C 0.28793 -0.14986 -0.02795
 C174 C 0.28788 -0.13137 -0.00190
 C175 C 0.25567 -0.19427 -0.00552
 C176 C 0.25585 -0.17602 0.02361
 H177 H 0.20499 -0.14887 -0.04612
 H178 H 0.25661 -0.12344 0.03988
 H179 H 0.30942 -0.14963 -0.04354
 H180 H 0.25024 -0.22125 -0.00619
 C181 C 0.25986 1.17808 0.47386
 C182 C 0.28686 1.15046 0.48051
 C183 C 0.28288 1.13266 0.50822
 C184 C 0.25049 1.14314 0.52576
 C185 C 0.22712 1.15712 0.47495
 C186 C 0.22128 1.13907 0.50153
 C187 C 0.25963 1.19978 0.50282
 C188 C 0.25575 1.18212 0.52993
 H189 H 0.30662 1.14449 0.46425
 H190 H 0.24556 1.12872 0.54775
 H191 H 0.21095 1.15414 0.45477
 H192 H 0.26613 1.22667 0.50216
 C193 C 0.11223 0.54040 0.26433
 C194 C 0.09454 0.53422 0.23344
 C195 C 0.07765 0.50428 0.23101
 C196 C 0.07916 0.48207 0.26087
 C197 C 0.08451 0.53575 0.28874
 C198 C 0.06693 0.50568 0.28708
 C199 C 0.13414 0.50816 0.26984
 C200 C 0.11752 0.47760 0.26661
 H201 H 0.09597 0.55246 0.21420
 H202 H 0.06471 0.45780 0.25921
 H203 H 0.08016 0.55409 0.30675
 H204 H 0.16024 0.50866 0.27704
 C205 C -0.11286 1.02839 0.24694
 C206 C -0.08855 1.02572 0.27432
 C207 C -0.06849 0.99781 0.27565
 C208 C -0.07695 0.97274 0.24855
 C209 C -0.09157 1.02302 0.21771
 C210 C -0.07249 0.99425 0.21804
 C211 C -0.13312 0.99718 0.24935
 C212 C -0.11388 0.96629 0.24989
 H213 H -0.08796 1.04502 0.29200
 H214 H -0.06108 0.94987 0.24779
 H215 H -0.09301 1.03998 0.19756
 H216 H -0.16021 0.99619 0.24656
 C217 C 0.38612 0.53377 -0.25554
 C218 C 0.41346 0.53529 -0.23072
 C219 C 0.43333 0.50763 -0.22775
 C220 C 0.42451 0.47964 -0.25127
 C221 C 0.40476 0.52543 -0.28567
 C222 C 0.42512 0.49737 -0.28386
 C223 C 0.36666 0.49999 -0.24810
 C224 C 0.38657 0.47166 -0.24596
 H225 H 0.41452 0.55571 -0.21410
 H226 H 0.44132 0.45728 -0.24891
 H227 H 0.40118 0.54008 -0.30702
 H228 H 0.33949 0.49732 -0.24862
 C229 C 0.62088 0.03601 -0.24375
 C230 C 0.59421 0.03340 -0.26925
 C231 C 0.57357 0.00569 -0.26764
 C232 C 0.58163 -0.01831 -0.23963
 C233 C 0.60126 0.03249 -0.21307
 C234 C 0.58063 0.00455 -0.21090
 C235 C 0.63980 0.00143 -0.24541
 C236 C 0.61945 -0.02708 -0.24326
 H237 H 0.59378 0.05104 -0.28900
 H238 H 0.56462 -0.04088 -0.23748
 H239 H 0.60435 0.05014 -0.19421
 H240 H 0.66686 -0.00103 -0.24670
 C241 C 0.04086 0.26866 0.84800
 C242 C 0.03153 0.29230 0.87424
 C243 C 0.00586 0.28023 0.89250
 C244 C -0.00871 0.24612 0.88257
 C245 C 0.04775 0.23429 0.86448
 C246 C 0.02182 0.22286 0.88243
 C247 C 0.00982 0.26239 0.83093
 C248 C -0.01760 0.25156 0.85010
 H249 H 0.04430 0.31640 0.87815
 H250 H -0.02950 0.23611 0.89758
 H251 H 0.07084 0.22001 0.86192
 H252 H 0.00711 0.26283 0.80595
 C253 C 0.52219 0.25193 0.17056
 C254 C 0.52947 0.22413 0.14691
 C255 C 0.50683 0.22266 0.12351
 C256 C 0.47964 0.24961 0.12434
 C257 C 0.52140 0.28465 0.15022
 C258 C 0.49919 0.28310 0.12612
 C259 C 0.48561 0.24632 0.18052
 C260 C 0.46328 0.24524 0.15634
 H261 H 0.54915 0.20530 0.14961
 H262 H 0.46198 0.24850 0.10427
 H263 H 0.53909 0.30566 0.15197
 H264 H 0.47774 0.24701 0.20460
 C265 C 0.03007 0.77103 0.64184
 C266 C 0.03511 0.74100 0.62037
 C267 C 0.00769 0.73240 0.60392
 C268 C -0.02315 0.75402 0.60990
 C269 C 0.01569 0.79990 0.62199
 C270 C -0.01132 0.79050 0.60480
 C271 C -0.00017 0.75938 0.66220
 C272 C -0.02834 0.75084 0.64519
 H273 H 0.05711 0.72472 0.62151
 H274 H -0.04522 0.74786 0.59503
 H275 H 0.02660 0.82534 0.62084
 H276 H -0.00064 0.76000 0.68726
 C277 C 0.52785 0.75063 0.35212
 C278 C 0.52595 0.77436 0.37990
 C279 C 0.49856 0.76854 0.39862
 C280 C 0.47682 0.73820 0.38881
 C281 C 0.52841 0.71538 0.36798
 C282 C 0.50138 0.70893 0.38625
 C283 C 0.49379 0.75300 0.33599
 C284 C 0.46738 0.74714 0.35521
 H285 H 0.54429 0.79430 0.38433
 H286 H 0.45556 0.73132 0.40448
 H287 H 0.54852 0.69710 0.36564
 H288 H 0.49071 0.76115 0.31191
 Zr289 Zr 0.03075 -0.03162 1.03938
 O290 O 0.06598 -0.02383 1.07583
 O291 O 0.01531 -0.08234 1.04867
 O292 O 0.00896 -0.03086 1.08441
 O293 O 0.09048 -0.04873 0.98274
 O294 O -0.03494 0.00612 1.07907
 O295 O 0.07782 -0.05715 1.03392
 O296 O -0.02775 -0.09208 1.01432
 O297 O -0.02145 -0.03091 1.03078
 O298 O 0.02322 -0.05239 0.99549
 O299 O 0.01662 0.01998 1.04181
 O300 O 0.05926 -0.00034 1.00854
 Zr301 Zr -0.01735 0.03075 0.95606
 Zr302 Zr -0.03513 0.02036 1.03163
 Zr303 Zr 0.04955 -0.02076 0.96475
 Zr304 Zr -0.02846 -0.04932 0.98580
 O305 O 0.09709 0.00053 0.95251
 O306 O -0.07834 -0.05961 1.00153
 O307 O -0.00201 -0.02033 0.95276
 O308 O -0.04535 0.00051 0.98760
 O309 O -0.00981 0.05262 0.99974
 O310 O 0.03486 0.03002 0.96478
 C311 C -0.00849 -0.10070 1.03684
 C312 C 0.09744 -0.06038 1.01013
 C313 C -0.01611 -0.01405 1.09525
 O314 O -0.08288 -0.00105 1.04306
 O315 O -0.07312 0.05293 1.01520
 O316 O -0.06136 0.06083 0.96351
 C317 C -0.07948 0.06565 0.98812
 O318 O 0.07829 0.05245 1.04503
 Zr319 Zr 0.04201 0.05027 1.00853
 O320 O -0.00283 0.08001 0.94359
 O321 O -0.03552 0.06442 1.05917
 O322 O 0.02800 0.09063 1.03770
 O323 O 0.09076 0.06168 0.99056
 O324 O 0.03759 0.09412 0.97929
 C325 C 0.01951 0.10013 0.95485
 O326 O -0.05555 0.02225 0.92246
 O327 O 0.05192 -0.06649 0.93963
 O328 O 0.00244 0.02571 0.91021
 O329 O 0.04728 -0.01000 0.91711
 O330 O -0.01643 -0.09159 0.95809
 O331 O -0.05997 -0.04884 0.94566
 C332 C 0.02821 0.00907 0.90017
 H333 H 0.03169 -0.07596 0.99411
 H334 H -0.06976 0.00081 0.98254
 H335 H 0.04829 0.04288 0.94911
 H336 H 0.02134 0.02912 1.06268
 H337 H -0.08450 -0.08302 0.99526
 H338 H -0.09338 0.01425 1.05824
 H339 H -0.05752 0.06452 1.07012
 H340 H 0.04327 0.11019 1.03298
 H341 H -0.03454 -0.10896 0.96108
 H342 H 0.07417 -0.06653 0.92913
 H343 H 0.10694 -0.01434 0.93661
 H344 H 0.09562 0.08605 0.99439
 H345 H -0.07362 -0.07008 0.94521
 H346 H -0.05685 0.04324 0.90927
 H347 H 0.06779 -0.04559 1.08788
 H348 H 0.08725 0.07602 1.04646
 Zr349 Zr 0.51626 0.45245 0.53490
 O350 O 0.55523 0.46260 0.56742
 O351 O 0.50254 0.40266 0.54877
 O352 O 0.49942 0.45727 0.58159
 O353 O 0.56915 0.43050 0.47386
 O354 O 0.45444 0.49314 0.57756
 O355 O 0.56281 0.42674 0.52639
 O356 O 0.45568 0.38999 0.51981
 O357 O 0.46334 0.45266 0.53127
 O358 O 0.50382 0.42831 0.49341
 O359 O 0.50216 0.50410 0.53547
 O360 O 0.54128 0.48086 0.49954
 Zr361 Zr 0.45927 0.50837 0.45293
 Zr362 Zr 0.44953 0.50399 0.52986
 Zr363 Zr 0.52645 0.45733 0.45826
 Zr364 Zr 0.45132 0.43061 0.48869
 O365 O 0.57118 0.47845 0.43864
 O366 O 0.40382 0.42199 0.51033
 O367 O 0.47384 0.45695 0.45138
 O368 O 0.43462 0.48072 0.48852
 O369 O 0.47163 0.53332 0.49416
 O370 O 0.51210 0.50829 0.45676
 C371 C 0.47779 0.38324 0.54061
 C372 C 0.57949 0.42120 0.50108
 C373 C 0.47525 0.47475 0.59335
 O374 O 0.40276 0.48442 0.54630
 O375 O 0.41105 0.53693 0.51455
 O376 O 0.41641 0.53917 0.46163
 C377 C 0.40187 0.54736 0.48731
 O378 O 0.56506 0.53436 0.53035
 Zr379 Zr 0.52409 0.53137 0.49838
 O380 O 0.47050 0.55770 0.43785
 O381 O 0.45242 0.54980 0.55490
 O382 O 0.51488 0.57345 0.52722
 O383 O 0.56968 0.54264 0.47435
 O384 O 0.51468 0.57370 0.46874
 C385 C 0.49325 0.57887 0.44660
 O386 O 0.41849 0.49605 0.42312
 O387 O 0.52621 0.40953 0.43632
 O388 O 0.47584 0.50254 0.40634
 O389 O 0.51866 0.46402 0.41058
 O390 O 0.46015 0.38627 0.46264
 O391 O 0.41492 0.42752 0.45236
 C392 C 0.49950 0.48412 0.39490
 H393 H 0.51216 0.40464 0.49275
 H394 H 0.40979 0.48095 0.48568
 H395 H 0.52350 0.52053 0.43933
 H396 H 0.50914 0.51482 0.55514
 H397 H 0.39707 0.39801 0.50674
 H398 H 0.39398 0.50113 0.56115
 H399 H 0.43153 0.55109 0.56746
 H400 H 0.52994 0.59235 0.52016
 H401 H 0.44285 0.36902 0.46878
 H402 H 0.54698 0.40868 0.42356
 H403 H 0.57970 0.46184 0.42355
 H404 H 0.57472 0.56719 0.47701
 H405 H 0.40137 0.40635 0.45503
 H406 H 0.41528 0.51592 0.40884
 H407 H 0.55828 0.44164 0.58041
 H408 H 0.57460 0.55777 0.52986
 Zr409 Zr 0.45742 1.00205 0.55919
 O410 O 0.42047 0.98090 0.58947
 O411 O 0.46498 1.04920 0.57867
 O412 O 0.47871 0.99707 0.60485
 O413 O 0.40429 1.03116 0.49978
 O414 O 0.52537 0.96443 0.59744
 O415 O 0.41044 1.02811 0.55233
 O416 O 0.51136 1.06902 0.55219
 O417 O 0.51014 1.00650 0.55506
 O418 O 0.46732 1.03256 0.51967
 O419 O 0.47610 0.95224 0.55653
 O420 O 0.43364 0.97732 0.52191
 Zr421 Zr 0.51697 0.96201 0.47318
 Zr422 Zr 0.52840 0.95723 0.54961
 Zr423 Zr 0.44660 1.00669 0.48226
 Zr424 Zr 0.51945 1.03570 0.51521
 O425 O 0.40210 0.98522 0.46309
 O426 O 0.56674 1.04468 0.53707
 O427 O 0.49888 1.01230 0.47585
 O428 O 0.54008 0.98730 0.51034
 O429 O 0.50728 0.93115 0.51258
 O430 O 0.46439 0.95739 0.47744
 C431 C 0.48906 1.07052 0.57387
 C432 C 0.39416 1.03757 0.52738
 C433 C 0.50593 0.98206 0.61459
 O434 O 0.57503 0.97674 0.56608
 O435 O 0.56908 0.92977 0.53130
 O436 O 0.56305 0.93503 0.47868
 C437 C 0.57893 0.92448 0.50330
 O438 O 0.41434 0.92064 0.54965
 Zr439 Zr 0.45478 0.92891 0.51791
 O440 O 0.50858 0.91322 0.45584
 O441 O 0.52864 0.90872 0.57192
 O442 O 0.46612 0.88435 0.54450
 O443 O 0.41020 0.91647 0.49292
 O444 O 0.46728 0.89064 0.48739
 C445 C 0.48846 0.88924 0.46505
 O446 O 0.55611 0.98043 0.44367
 O447 O 0.44448 1.05635 0.46226
 O448 O 0.50044 0.97399 0.42721
 O449 O 0.45282 1.00508 0.43398
 O450 O 0.50654 1.08323 0.49433
 O451 O 0.55461 1.04881 0.47958
 C452 C 0.47493 0.99108 0.41673
 H453 H 0.45767 1.05565 0.52101
 H454 H 0.56477 0.98963 0.50722
 H455 H 0.45373 0.94650 0.45925
 H456 H 0.47084 0.93893 0.57574
 H457 H 0.57036 1.06968 0.53744
 H458 H 0.58503 0.95889 0.57981
 H459 H 0.54998 0.90735 0.58398
 H460 H 0.45140 0.86570 0.53691
 H461 H 0.52125 1.10078 0.50382
 H462 H 0.42331 1.05763 0.44992
 H463 H 0.39211 1.00285 0.44913
 H464 H 0.40671 0.89149 0.49497
 H465 H 0.56623 1.07045 0.48470
 H466 H 0.56036 0.96272 0.42803
 H467 H 0.41521 0.99881 0.60459
 H468 H 0.40555 0.89707 0.54776
 Zr469 Zr -0.03329 0.51000 1.05599
 O470 O -0.06963 0.49176 1.08838
 O471 O -0.02281 0.55790 1.07331
 O472 O -0.01144 0.50538 1.10119
 O473 O -0.08834 0.53699 0.99742
 O474 O 0.03411 0.47123 1.09336
 O475 O -0.08046 0.53598 1.04980
 O476 O 0.02195 0.57635 1.04389
 O477 O 0.01938 0.51271 1.05011
 O478 O -0.02420 0.53879 1.01532
 O479 O -0.01624 0.45945 1.05432
 O480 O -0.05905 0.48452 1.02028
 Zr481 Zr 0.02177 0.46463 0.96943
 Zr482 Zr 0.03581 0.46251 1.04558
 Zr483 Zr -0.04672 0.51199 0.97944
 Zr484 Zr 0.02779 0.54018 1.00900
 O485 O -0.09193 0.49099 0.96120
 O486 O 0.07585 0.54807 1.02976
 O487 O 0.00533 0.51566 0.97113
 O488 O 0.04637 0.49102 1.00509
 O489 O 0.01274 0.43547 1.01008
 O490 O -0.03072 0.46192 0.97552
 C491 C 0.00071 0.57928 1.06622
 C492 C -0.09775 0.54410 1.02505
 C493 C 0.01558 0.48988 1.11046
 O494 O 0.08384 0.47848 1.06167
 O495 O 0.07719 0.43634 1.02690
 O496 O 0.06858 0.43824 0.97444
 C497 C 0.08655 0.43081 0.99881
 O498 O -0.07881 0.42997 1.05075
 Zr499 Zr -0.03970 0.43534 1.01719
 O500 O 0.01095 0.41515 0.95491
 O501 O 0.03445 0.41357 1.06697
 O502 O -0.02937 0.39110 1.04460
 O503 O -0.08581 0.42427 0.99406
 O504 O -0.03049 0.39532 0.98774
 C505 C -0.00986 0.39230 0.96523
 O506 O 0.05996 0.47980 0.93749
 O507 O -0.04892 0.56136 0.95881
 O508 O 0.00353 0.47510 0.92352
 O509 O -0.04140 0.50984 0.93132
 O510 O 0.01542 0.58675 0.98606
 O511 O 0.06235 0.55064 0.97222
 C512 C -0.02111 0.49391 0.91371
 H513 H -0.03342 0.56210 1.01616
 H514 H 0.07079 0.49321 1.00098
 H515 H -0.04240 0.45076 0.95800
 H516 H -0.02119 0.44693 1.07403
 H517 H 0.08079 0.57285 1.02867
 H518 H 0.09205 0.46094 1.07675
 H519 H 0.05547 0.41157 1.07940
 H520 H -0.04552 0.37302 1.03835
 H521 H 0.03109 0.60446 0.99394
 H522 H -0.07046 0.56271 0.94702
 H523 H -0.10181 0.50851 0.94706
 H524 H -0.09057 0.39960 0.99716
 H525 H 0.07496 0.57196 0.97646
 H526 H 0.06254 0.46119 0.92240
 H527 H -0.07385 0.51063 1.10282
 H528 H -0.08921 0.40700 1.04949
 Zr529 Zr -0.04737 0.48649 0.46060
 O530 O -0.08453 0.50706 0.43037
 O531 O -0.04619 0.43646 0.44659
 O532 O -0.03010 0.48559 0.41363
 O533 O -0.09920 0.46906 0.52464
 O534 O 0.02090 0.51336 0.41544
 O535 O -0.09585 0.46510 0.47186
 O536 O -0.00108 0.41490 0.47369
 O537 O 0.00484 0.47781 0.46254
 O538 O -0.03748 0.45987 0.50226
 O539 O -0.02379 0.53466 0.45754
 O540 O -0.06583 0.51741 0.49605
 Zr541 Zr 0.02233 0.53097 0.53920
 Zr542 Zr 0.02817 0.52582 0.46213
 Zr543 Zr -0.05298 0.49137 0.53745
 Zr544 Zr 0.01442 0.45285 0.50470
 O545 O -0.09323 0.51882 0.55691
 O546 O 0.05793 0.43728 0.48033
 O547 O -0.00098 0.48232 0.54212
 O548 O 0.04004 0.49977 0.50365
 O549 O 0.01275 0.55785 0.49745
 O550 O -0.02995 0.53918 0.53687
 C551 C -0.02519 0.41301 0.45364
 C552 C -0.11132 0.46038 0.49820
 C553 C -0.00250 0.49716 0.40102
 O554 O 0.06996 0.49931 0.44446
 O555 O 0.07263 0.55202 0.47521
 O556 O 0.06949 0.55591 0.52798
 C557 C 0.08494 0.56098 0.50165
 O558 O -0.08063 0.57307 0.46355
 Zr559 Zr -0.03958 0.56409 0.49455
 O560 O 0.01784 0.58102 0.55383
 O561 O 0.03179 0.57129 0.43506
 O562 O -0.02449 0.60455 0.46408
 O563 O -0.08149 0.58253 0.51957
 O564 O -0.02257 0.60410 0.52187
 C565 C -0.00107 0.60544 0.54414
 O566 O 0.06273 0.51311 0.56727
 O567 O -0.05909 0.44429 0.56183
 O568 O 0.00833 0.52393 0.58711
 O569 O -0.04229 0.49648 0.58453
 O570 O -0.00067 0.41006 0.53235
 O571 O 0.05191 0.44137 0.53874
 C572 C -0.01777 0.50935 0.60008
 H573 H -0.04954 0.43771 0.50404
 H574 H 0.06465 0.49596 0.50568
 H575 H -0.03848 0.55241 0.55449
 H576 H -0.02916 0.54626 0.43749
 H577 H 0.05924 0.41215 0.48253
 H578 H 0.08109 0.51467 0.42895
 H579 H 0.05195 0.56912 0.42167
 H580 H -0.03651 0.62529 0.47047
 H581 H 0.01143 0.39002 0.52447
 H582 H -0.07938 0.44622 0.57512
 H583 H -0.10370 0.50376 0.57303
 H584 H -0.08294 0.60738 0.51532
 H585 H 0.06129 0.41855 0.53489
 H586 H 0.06977 0.53218 0.58070
 H587 H -0.09280 0.48803 0.41747
 H588 H -0.08620 0.59760 0.46327
 Zr589 Zr 0.47909 -0.02484 -0.03035
 O590 O 0.44269 -0.01335 -0.06511
 O591 O 0.48931 -0.07599 -0.03915
 O592 O 0.49943 -0.02470 -0.07620
 O593 O 0.41931 -0.03725 0.02841
 O594 O 0.54845 0.00608 -0.07195
 O595 O 0.43150 -0.04969 -0.02189
 O596 O 0.52932 -0.09130 -0.00320
 O597 O 0.53125 -0.02901 -0.02246
 O598 O 0.48528 -0.04593 0.01432
 O599 O 0.49875 0.02511 -0.03500
 O600 O 0.45426 0.00872 -0.00043
 Zr601 Zr 0.53507 0.03330 0.05006
 Zr602 Zr 0.55036 0.02081 -0.02526
 Zr603 Zr 0.46292 -0.01211 0.04411
 Zr604 Zr 0.53702 -0.04795 0.02309
 O605 O 0.41886 0.01414 0.05721
 O606 O 0.58506 -0.06237 0.00657
 O607 O 0.51448 -0.01635 0.05528
 O608 O 0.55909 0.00032 0.01943
 O609 O 0.52906 0.05541 0.00548
 O610 O 0.48298 0.03682 0.04161
 C611 C 0.50965 -0.09740 -0.02616
 C612 C 0.41202 -0.05077 0.00231
 C613 C 0.52663 -0.01093 -0.08765
 O614 O 0.59512 -0.00504 -0.03675
 O615 O 0.59171 0.05013 -0.01059
 O616 O 0.58205 0.05981 0.04080
 C617 C 0.60035 0.06239 0.01577
 O618 O 0.44091 0.06240 -0.03930
 Zr619 Zr 0.47704 0.05745 -0.00282
 O620 O 0.52410 0.08330 0.06129
 O621 O 0.55503 0.06435 -0.05482
 O622 O 0.49497 0.09637 -0.03361
 O623 O 0.42986 0.07308 0.01499
 O624 O 0.48574 0.10075 0.02453
 C625 C 0.50388 0.10512 0.04902
 O626 O 0.57328 0.02285 0.08337
 O627 O 0.45660 -0.05732 0.07125
 O628 O 0.51621 0.02785 0.09674
 O629 O 0.46685 -0.00144 0.09113
 O630 O 0.52192 -0.08898 0.05293
 O631 O 0.56874 -0.04994 0.06309
 C632 C 0.48913 0.01335 0.10799
 H633 H 0.47465 -0.06874 0.01689
 H634 H 0.58348 -0.00150 0.02420
 H635 H 0.47091 0.05040 0.05687
 H636 H 0.49482 0.03471 -0.05614
 H637 H 0.58910 -0.08590 0.01436
 H638 H 0.60740 0.00959 -0.05209
 H639 H 0.57683 0.06245 -0.06592
 H640 H 0.48162 0.11708 -0.02978
 H641 H 0.53846 -0.10753 0.05053
 H642 H 0.43454 -0.05569 0.08193
 H643 H 0.40730 -0.00013 0.07329
 H644 H 0.42721 0.09760 0.00973
 H645 H 0.58158 -0.07144 0.06350
 H646 H 0.57634 0.04374 0.09572
 H647 H 0.43855 -0.03453 -0.07681
 H648 H 0.43443 0.08660 -0.04176
 Zr649 Zr 0.54111 0.51525 -0.04849
 O650 O 0.57953 0.50081 -0.07948
 O651 O 0.53149 0.56509 -0.06405
 O652 O 0.52196 0.51235 -0.09500
 O653 O 0.59483 0.53575 0.01348
 O654 O 0.47531 0.47801 -0.08979
 O655 O 0.58757 0.54210 -0.03906
 O656 O 0.48084 0.57496 -0.04151
 O657 O 0.48833 0.51759 -0.04463
 O658 O 0.53082 0.54049 -0.00723
 O659 O 0.52286 0.46456 -0.04869
 O660 O 0.56431 0.48593 -0.01281
 Zr661 Zr 0.48047 0.46367 0.03415
 Zr662 Zr 0.47042 0.46753 -0.04246
 Zr663 Zr 0.55122 0.51019 0.02841
 Zr664 Zr 0.47848 0.54161 -0.00299
 O665 O 0.59506 0.48683 0.04706
 O666 O 0.42926 0.55397 -0.01901
 O667 O 0.49889 0.51422 0.03482
 O668 O 0.45786 0.49263 -0.00166
 O669 O 0.49064 0.43752 -0.00675
 O670 O 0.53308 0.46019 0.03035
 C671 C 0.50476 0.58285 -0.06050
 C672 C 0.60431 0.54669 -0.01336
 C673 C 0.49557 0.49680 -0.10597
 O674 O 0.42532 0.48993 -0.05932
 O675 O 0.42839 0.43873 -0.02745
 O676 O 0.43359 0.43779 0.02535
 C677 C 0.41747 0.43086 -0.00014
 O678 O 0.58474 0.43276 -0.04235
 Zr679 Zr 0.54322 0.43658 -0.01145
 O680 O 0.48828 0.41335 0.04791
 O681 O 0.46958 0.42090 -0.06629
 O682 O 0.53275 0.39566 -0.04159
 O683 O 0.58676 0.42193 0.01424
 O684 O 0.52929 0.39378 0.01575
 C685 C 0.50725 0.38995 0.03739
 O686 O 0.44232 0.47669 0.06602
 O687 O 0.55354 0.55768 0.05084
 O688 O 0.49699 0.47048 0.08101
 O689 O 0.54459 0.50321 0.07619
 O690 O 0.49338 0.58841 0.01697
 O691 O 0.44584 0.54866 0.03545
 C692 C 0.52251 0.48691 0.09254
 H693 H 0.54063 0.56377 -0.00724
 H694 H 0.43315 0.49442 0.00122
 H695 H 0.54328 0.44727 0.04796
 H696 H 0.52864 0.45346 -0.06842
 H697 H 0.42626 0.57878 -0.01632
 H698 H 0.41507 0.47382 -0.07420
 H699 H 0.44895 0.42090 -0.07943
 H700 H 0.54713 0.37629 -0.03498
 H701 H 0.47785 0.60596 0.00855
 H702 H 0.57447 0.55781 0.06358
 H703 H 0.60503 0.50274 0.06226
 H704 H 0.59013 0.39727 0.01100
 H705 H 0.43822 0.57260 0.03564
 H706 H 0.43730 0.45600 0.07892
 H707 H 0.58419 0.52094 -0.09316
 H708 H 0.59379 0.40934 -0.04122
 Zr709 Zr 0.03116 1.03350 0.45550
 O710 O 0.07101 1.01912 0.42597
 O711 O 0.02154 1.08282 0.43788
 O712 O 0.01593 1.02656 0.40788
 O713 O 0.08639 1.04733 0.51813
 O714 O -0.03583 1.00055 0.41197
 O715 O 0.07878 1.05762 0.46608
 O716 O -0.01856 1.10315 0.47066
 O717 O -0.02102 1.04170 0.45953
 O718 O 0.02339 1.05782 0.49783
 O719 O 0.00808 0.98488 0.45443
 O720 O 0.05112 1.00046 0.49039
 Zr721 Zr -0.03413 0.98499 0.53707
 Zr722 Zr -0.04375 0.99358 0.45988
 Zr723 Zr 0.04096 1.02439 0.53254
 Zr724 Zr -0.02838 1.06407 0.50283
 O725 O 0.08289 0.99594 0.54876
 O726 O -0.07470 1.08073 0.48303
 O727 O -0.01066 1.03332 0.53974
 O728 O -0.05378 1.01742 0.50209
 O729 O -0.02686 0.96044 0.49479
 O730 O 0.01770 0.97651 0.53265
 C731 C 0.00048 1.10538 0.44673
 C732 C 0.09624 1.05937 0.49171
 C733 C -0.01070 1.01209 0.39598
 O734 O -0.08411 1.02305 0.44204
 O735 O -0.08867 0.96939 0.47419
 O736 O -0.08177 0.96133 0.52660
 C737 C -0.09872 0.95817 0.50087
 O738 O 0.06801 0.94736 0.46173
 Zr739 Zr 0.02497 0.95344 0.49046
 O740 O -0.03110 0.93414 0.55085
 O741 O -0.05171 0.94701 0.43689
 O742 O 0.01448 0.91534 0.45737
 O743 O 0.06321 0.93007 0.51799
 O744 O -0.00025 0.91179 0.51202
 C745 C -0.01974 0.90891 0.53589
 O746 O -0.07182 1.00255 0.56739
 O747 O 0.04756 1.06993 0.55746
 O748 O -0.01570 0.98562 0.58414
 O749 O 0.03483 1.01416 0.58021
 O750 O -0.01072 1.10640 0.52837
 O751 O -0.06219 1.07254 0.54012
 C752 C 0.01204 0.99798 0.59588
 H753 H 0.03485 1.08031 0.49866
 H754 H -0.07821 1.02132 0.50510
 H755 H 0.02645 0.96152 0.54935
 H756 H 0.01362 0.97287 0.43523
 H757 H -0.07661 1.10547 0.48674
 H758 H -0.09670 1.00838 0.42743
 H759 H -0.07131 0.95013 0.42270
 H760 H 0.02634 0.89439 0.46431
 H761 H -0.02459 1.12627 0.52207
 H762 H 0.06847 1.06732 0.57001
 H763 H 0.09459 1.00979 0.56462
 H764 H 0.06161 0.90528 0.51431
 H765 H -0.07117 1.09595 0.53839
 H766 H -0.07861 0.98274 0.58070
 H767 H 0.07627 1.03911 0.41225
 H768 H 0.07627 0.92369 0.46380
 Zr769 Zr 0.72166 0.27548 0.20410
 O770 O 0.72524 0.31160 0.16697
 O771 O 0.67011 0.26269 0.20181
 O772 O 0.71831 0.25393 0.15883
 O773 O 0.71434 0.33725 0.26072
 O774 O 0.75042 0.20604 0.16261
 O775 O 0.69786 0.32296 0.21214
 O776 O 0.66142 0.22409 0.24153
 O777 O 0.72019 0.22302 0.21464
 O778 O 0.70792 0.27035 0.25093
 O779 O 0.77083 0.25813 0.19564
 O780 O 0.75762 0.30407 0.22935
 Zr781 Zr 0.79278 0.22649 0.28023
 Zr782 Zr 0.76971 0.20627 0.20807
 Zr783 Zr 0.74448 0.29621 0.27615
 Zr784 Zr 0.70873 0.21855 0.26212
 O785 O 0.77118 0.34208 0.28448
 O786 O 0.69353 0.16923 0.24829
 O787 O 0.74381 0.24443 0.28938
 O788 O 0.75656 0.19878 0.25489
 O789 O 0.80699 0.23171 0.23351
 O790 O 0.79383 0.27891 0.26998
 C791 C 0.65130 0.24286 0.21875
 C792 C 0.69764 0.34325 0.23544
 C793 C 0.73215 0.22729 0.14716
 O794 O 0.74416 0.15941 0.20126
 O795 O 0.80118 0.16607 0.22197
 O796 O 0.81781 0.17994 0.27106
 C797 C 0.81753 0.16026 0.24729
 O798 O 0.80030 0.32099 0.18657
 Zr799 Zr 0.80592 0.28393 0.22294
 O800 O 0.84465 0.23836 0.28203
 O801 O 0.80989 0.20251 0.17600
 O802 O 0.83921 0.27255 0.18605
 O803 O 0.82361 0.33088 0.24062
 O804 O 0.85429 0.27322 0.24006
 C805 C 0.86435 0.25538 0.26347
 O806 O 0.79159 0.18972 0.31698
 O807 O 0.70368 0.30255 0.30722
 O808 O 0.79205 0.24559 0.32650
 O809 O 0.75954 0.29325 0.32267
 O810 O 0.67274 0.23222 0.29600
 O811 O 0.71395 0.18790 0.30318
 C812 C 0.77683 0.27137 0.33830
 H813 H 0.68554 0.28008 0.25546
 H814 H 0.75615 0.17437 0.26112
 H815 H 0.81000 0.29116 0.28350
 H816 H 0.77753 0.26194 0.17370
 H817 H 0.67181 0.16400 0.25880
 H818 H 0.75654 0.14739 0.18482
 H819 H 0.80732 0.18023 0.16576
 H820 H 0.85780 0.28966 0.18601
 H821 H 0.65497 0.21424 0.29665
 H822 H 0.70642 0.32528 0.31661
 H823 H 0.75880 0.35379 0.30108
 H824 H 0.84582 0.33579 0.23100
 H825 H 0.69412 0.17251 0.30543
 H826 H 0.81462 0.18883 0.32623
 H827 H 0.70280 0.31266 0.15662
 H828 H 0.82180 0.33371 0.18360
 Zr829 Zr 0.76782 0.72207 0.70341
 O830 O 0.75264 0.68414 0.67189
 O831 O 0.81601 0.73298 0.68659
 O832 O 0.76041 0.74257 0.65756
 O833 O 0.79590 0.66685 0.76226
 O834 O 0.72578 0.78775 0.66494
 O835 O 0.79532 0.67571 0.70972
 O836 O 0.83240 0.78012 0.71261
 O837 O 0.76970 0.77524 0.70747
 O838 O 0.79635 0.73230 0.74320
 O839 O 0.71728 0.73783 0.70640
 O840 O 0.74276 0.69603 0.74011
 Zr841 Zr 0.72344 0.77792 0.78983
 Zr842 Zr 0.71964 0.79065 0.71304
 Zr843 Zr 0.77058 0.70891 0.77991
 Zr844 Zr 0.79679 0.78492 0.74805
 O845 O 0.75020 0.66312 0.79914
 O846 O 0.80411 0.83343 0.72635
 O847 O 0.77394 0.76162 0.78705
 O848 O 0.74784 0.80318 0.75254
 O849 O 0.69390 0.76789 0.75029
 O850 O 0.72082 0.72482 0.78543
 C851 C 0.83688 0.75724 0.69216
 C852 C 0.80369 0.65839 0.73453
 C853 C 0.74299 0.76829 0.64744
 O854 O 0.73775 0.83822 0.69572
 O855 O 0.69041 0.83006 0.73136
 O856 O 0.69452 0.82330 0.78410
 C857 C 0.68382 0.83915 0.75930
 O858 O 0.68212 0.67186 0.71833
 Zr859 Zr 0.69368 0.71515 0.74509
 O860 O 0.67537 0.76807 0.80724
 O861 O 0.67156 0.78945 0.69140
 O862 O 0.65114 0.72294 0.71585
 O863 O 0.68282 0.67001 0.77118
 O864 O 0.65367 0.72861 0.77421
 C865 C 0.65136 0.74938 0.79675
 O866 O 0.74059 0.81694 0.81942
 O867 O 0.81970 0.70708 0.79955
 O868 O 0.73364 0.75917 0.83588
 O869 O 0.76881 0.71443 0.82785
 O870 O 0.84360 0.77369 0.76994
 O871 O 0.80604 0.82005 0.78415
 C872 C 0.75222 0.73408 0.84552
 H873 H 0.81965 0.72343 0.74237
 H874 H 0.74890 0.82809 0.75559
 H875 H 0.70986 0.71331 0.80350
 H876 H 0.70468 0.73210 0.68725
 H877 H 0.82859 0.83891 0.72726
 H878 H 0.71964 0.84795 0.68237
 H879 H 0.66931 0.81112 0.67937
 H880 H 0.63250 0.70845 0.72423
 H881 H 0.86044 0.79053 0.76200
 H882 H 0.82124 0.68548 0.81180
 H883 H 0.76770 0.65330 0.81311
 H884 H 0.65791 0.66706 0.77145
 H885 H 0.82698 0.83319 0.77960
 H886 H 0.72257 0.82046 0.83498
 H887 H 0.77185 0.68083 0.65753
 H888 H 0.69702 0.67312 0.69995
 Zr889 Zr 0.22574 0.21964 0.78776
 O890 O 0.22790 0.18130 0.82300
 O891 O 0.17621 0.23614 0.79279
 O892 O 0.22174 0.23960 0.83358
 O893 O 0.21459 0.16340 0.72623
 O894 O 0.25631 0.28657 0.83180
 O895 O 0.19780 0.17437 0.77572
 O896 O 0.17164 0.28116 0.75873
 O897 O 0.22873 0.27273 0.78007
 O898 O 0.21162 0.22922 0.74148
 O899 O 0.27605 0.23387 0.79781
 O900 O 0.25964 0.19141 0.76093
 Zr901 Zr 0.29993 0.27076 0.71447
 Zr902 Zr 0.27917 0.28626 0.78786
 Zr903 Zr 0.24698 0.20382 0.71482
 Zr904 Zr 0.21646 0.28147 0.73333
 O905 O 0.27020 0.15691 0.70495
 O906 O 0.20336 0.33163 0.74572
 O907 O 0.24973 0.25628 0.70431
 O908 O 0.26562 0.29811 0.74162
 O909 O 0.31454 0.26120 0.76083
 O910 O 0.29747 0.21787 0.72198
 C911 C 0.16071 0.26191 0.78092
 C912 C 0.19723 0.15647 0.75057
 C913 C 0.23520 0.26647 0.84579
 O914 O 0.26366 0.33556 0.79996
 O915 O 0.31364 0.32555 0.77677
 O916 O 0.32415 0.31818 0.72527
 C917 C 0.32754 0.33469 0.75093
 O918 O 0.30099 0.16885 0.80235
 Zr919 Zr 0.30927 0.20851 0.76877
 O920 O 0.35082 0.25623 0.71317
 O921 O 0.31906 0.28186 0.82045
 O922 O 0.34302 0.21641 0.80646
 O923 O 0.32450 0.16201 0.74907
 O924 O 0.35807 0.21629 0.75186
 C925 C 0.36897 0.23618 0.73019
 O926 O 0.30820 0.30695 0.67803
 O927 O 0.20592 0.20281 0.68306
 O928 O 0.29431 0.25553 0.66673
 O929 O 0.26329 0.20641 0.66923
 O930 O 0.17943 0.26892 0.69972
 O931 O 0.21930 0.31793 0.69624
 C932 C 0.27907 0.22977 0.65405
 H933 H 0.18829 0.22146 0.73698
 H934 H 0.26621 0.32293 0.73717
 H935 H 0.31260 0.20568 0.70776
 H936 H 0.28180 0.22847 0.81977
 H937 H 0.18111 0.33688 0.73614
 H938 H 0.23940 0.33683 0.79452
 H939 H 0.31876 0.30297 0.83269
 H940 H 0.36078 0.19883 0.80564
 H941 H 0.16364 0.28833 0.69865
 H942 H 0.20663 0.18083 0.67212
 H943 H 0.25742 0.14667 0.68754
 H944 H 0.34675 0.15605 0.75819
 H945 H 0.22882 0.30644 0.67801
 H946 H 0.33194 0.30432 0.67104
 H947 H 0.20497 0.17936 0.83215
 H948 H 0.32226 0.15629 0.80600
 Zr949 Zr 0.26804 0.79468 0.29170
 O950 O 0.25234 0.83425 0.32085
 O951 O 0.31598 0.78522 0.30952
 O952 O 0.26202 0.77688 0.33892
 O953 O 0.29310 0.84710 0.22876
 O954 O 0.23161 0.72765 0.33454
 O955 O 0.29469 0.84137 0.28180
 O956 O 0.33424 0.74061 0.28089
 O957 O 0.27174 0.74152 0.28942
 O958 O 0.29444 0.78380 0.25093
 O959 O 0.21812 0.77608 0.29182
 O960 O 0.24075 0.81768 0.25472
 Zr961 Zr 0.21999 0.73249 0.20988
 Zr962 Zr 0.22213 0.72330 0.28709
 Zr963 Zr 0.26622 0.80397 0.21409
 Zr964 Zr 0.29640 0.73117 0.24790
 O965 O 0.24420 0.84870 0.19506
 O966 O 0.30680 0.68449 0.27155
 O967 O 0.27026 0.75105 0.20913
 O968 O 0.24779 0.71029 0.24660
 O969 O 0.19325 0.74327 0.25052
 O970 O 0.21674 0.78565 0.21242
 C971 C 0.33763 0.76270 0.30232
 C972 C 0.30204 0.85716 0.25582
 C973 C 0.24736 0.74985 0.35069
 O974 O 0.24343 0.67758 0.30487
 O975 O 0.19357 0.68141 0.27297
 O976 O 0.19163 0.68675 0.22000
 C977 C 0.18452 0.67113 0.24612
 O978 O 0.18774 0.83854 0.28347
 Zr979 Zr 0.19204 0.79632 0.25361
 O980 O 0.17109 0.74072 0.19390
 O981 O 0.17535 0.72305 0.31081
 O982 O 0.15018 0.78631 0.28315
 O983 O 0.17786 0.84010 0.22714
 O984 O 0.15133 0.78225 0.22544
 C985 C 0.14806 0.76047 0.20377
 O986 O 0.23531 0.69204 0.18154
 O987 O 0.31348 0.80512 0.19119
 O988 O 0.22706 0.74870 0.16246
 O989 O 0.25928 0.79709 0.16621
 O990 O 0.34107 0.74367 0.22286
 O991 O 0.30482 0.69420 0.21341
 C992 C 0.24319 0.77467 0.15041
 H993 H 0.31761 0.79342 0.25072
 H994 H 0.24939 0.68531 0.24441
 H995 H 0.20448 0.79603 0.19457
 H996 H 0.20630 0.78205 0.31120
 H997 H 0.33144 0.68058 0.27010
 H998 H 0.22705 0.66743 0.31988
 H999 H 0.17481 0.70230 0.32434
 H1000 H 0.13134 0.80080 0.27566
 H1001 H 0.35925 0.72877 0.23105
 H1002 H 0.31420 0.82629 0.17823
 H1003 H 0.26045 0.85839 0.17970
 H1004 H 0.15336 0.84352 0.23043
 H1005 H 0.32658 0.68271 0.21756
 H1006 H 0.21612 0.68700 0.16739
 H1007 H 0.27150 0.83908 0.33508
 H1008 H 0.16439 0.84733 0.28259
 Zr1009 Zr 0.23414 0.78656 0.69828
 O1010 O 0.25241 0.82214 0.66461
 O1011 O 0.18400 0.78167 0.68568
 O1012 O 0.23349 0.76451 0.65328
 O1013 O 0.21706 0.84527 0.75547
 O1014 O 0.25882 0.71312 0.66114
 O1015 O 0.21126 0.83517 0.70358
 O1016 O 0.16290 0.74092 0.71918
 O1017 O 0.22556 0.73427 0.70624
 O1018 O 0.20959 0.78101 0.74119
 O1019 O 0.28198 0.76390 0.69726
 O1020 O 0.26612 0.81015 0.73076
 Zr1021 Zr 0.28202 0.72803 0.78368
 Zr1022 Zr 0.27342 0.71230 0.70798
 Zr1023 Zr 0.24190 0.80205 0.77366
 Zr1024 Zr 0.20298 0.72920 0.74985
 O1025 O 0.26883 0.84685 0.78516
 O1026 O 0.18683 0.68266 0.73023
 O1027 O 0.23361 0.75028 0.78470
 O1028 O 0.24976 0.70490 0.75112
 O1029 O 0.30677 0.73282 0.74072
 O1030 O 0.28957 0.78036 0.77488
 C1031 C 0.16037 0.76223 0.69616
 C1032 C 0.20667 0.85339 0.72797
 C1033 C 0.24373 0.73525 0.64380
 O1034 O 0.24770 0.66624 0.69798
 O1035 O 0.30105 0.67079 0.72501
 O1036 O 0.30733 0.68075 0.77691
 C1037 C 0.31203 0.66288 0.75225
 O1038 O 0.32070 0.82050 0.69432
 Zr1039 Zr 0.31275 0.78489 0.73159
 O1040 O 0.33195 0.73547 0.79778
 O1041 O 0.31687 0.70653 0.68009
 O1042 O 0.35214 0.76410 0.70483
 O1043 O 0.33133 0.83241 0.74698
 O1044 O 0.35304 0.77417 0.76226
 C1045 C 0.35540 0.75502 0.78682
 O1046 O 0.26500 0.69060 0.81622
 O1047 O 0.19698 0.80982 0.79906
 O1048 O 0.27911 0.74793 0.82958
 O1049 O 0.25068 0.79772 0.82162
 O1050 O 0.16220 0.74622 0.77719
 O1051 O 0.19362 0.69464 0.78760
 C1052 C 0.26606 0.77596 0.83924
 H1053 H 0.18749 0.79249 0.74212
 H1054 H 0.24648 0.68038 0.75618
 H1055 H 0.30332 0.79187 0.79086
 H1056 H 0.29266 0.76700 0.67659
 H1057 H 0.16203 0.68089 0.73304
 H1058 H 0.26158 0.65410 0.68267
 H1059 H 0.31433 0.68450 0.66943
 H1060 H 0.37301 0.77731 0.70927
 H1061 H 0.14196 0.73261 0.77153
 H1062 H 0.19958 0.83189 0.80966
 H1063 H 0.25465 0.85907 0.80017
 H1064 H 0.35578 0.83342 0.74205
 H1065 H 0.17097 0.68411 0.78510
 H1066 H 0.28445 0.68525 0.83003
 H1067 H 0.23317 0.82757 0.65059
 H1068 H 0.34522 0.82343 0.69054
 Zr1069 Zr 0.26131 0.22327 0.20846
 O1070 O 0.24271 0.18542 0.17835
 O1071 O 0.30855 0.23406 0.18929
 O1072 O 0.25404 0.24349 0.16254
 O1073 O 0.29421 0.17083 0.26732
 O1074 O 0.21931 0.28861 0.17036
 O1075 O 0.28828 0.17645 0.21478
 O1076 O 0.32127 0.28538 0.20999
 O1077 O 0.26186 0.27659 0.21154
 O1078 O 0.29223 0.23520 0.24641
 O1079 O 0.21057 0.23824 0.21323
 O1080 O 0.23952 0.19792 0.24727
 Zr1081 Zr 0.22034 0.28039 0.29548
 Zr1082 Zr 0.21188 0.29116 0.21881
 Zr1083 Zr 0.26933 0.21278 0.28525
 Zr1084 Zr 0.29146 0.28792 0.25003
 O1085 O 0.25187 0.16724 0.30728
 O1086 O 0.29693 0.33740 0.22976
 O1087 O 0.27127 0.26573 0.29077
 O1088 O 0.24240 0.30466 0.25657
 O1089 O 0.18870 0.26863 0.25775
 O1090 O 0.21952 0.22722 0.29222
 C1091 C 0.32701 0.26093 0.19139
 C1092 C 0.29906 0.16047 0.23958
 C1093 C 0.23756 0.26995 0.15278
 O1094 O 0.22353 0.34009 0.20023
 O1095 O 0.18505 0.33219 0.23769
 O1096 O 0.19161 0.32615 0.29027
 C1097 C 0.18141 0.34273 0.26566
 O1098 O 0.18289 0.17501 0.22211
 Zr1099 Zr 0.19019 0.21558 0.25352
 O1100 O 0.17388 0.26831 0.31579
 O1101 O 0.16267 0.28627 0.20008
 O1102 O 0.14373 0.22446 0.23017
 O1103 O 0.18301 0.16910 0.27872
 O1104 O 0.15351 0.22391 0.28744
 C1105 C 0.15160 0.24555 0.30930
 O1106 O 0.23722 0.32060 0.32392
 O1107 O 0.31981 0.21346 0.30173
 O1108 O 0.23413 0.26362 0.34116
 O1109 O 0.27052 0.21991 0.33329
 O1110 O 0.34062 0.27696 0.26701
 O1111 O 0.30310 0.32279 0.28580
 C1112 C 0.25466 0.24024 0.35092
 H1113 H 0.31556 0.22671 0.24426
 H1114 H 0.24375 0.32945 0.25941
 H1115 H 0.21040 0.21559 0.31108
 H1116 H 0.19716 0.23192 0.19470
 H1117 H 0.32142 0.34286 0.22899
 H1118 H 0.20496 0.34667 0.18583
 H1119 H 0.15893 0.30695 0.18702
 H1120 H 0.12674 0.20843 0.23920
 H1121 H 0.35627 0.29360 0.25692
 H1122 H 0.32295 0.19244 0.31453
 H1123 H 0.27069 0.15849 0.32034
 H1124 H 0.15856 0.16346 0.27807
 H1125 H 0.32493 0.33434 0.28125
 H1126 H 0.21998 0.32355 0.34034
 H1127 H 0.26092 0.18106 0.16318
 H1128 H 0.16008 0.16490 0.22509
 Zr1129 Zr 0.71872 0.72068 0.28969
 O1130 O 0.72572 0.68352 0.32542
 O1131 O 0.66899 0.73473 0.29747
 O1132 O 0.71805 0.74160 0.33520
 O1133 O 0.70545 0.66143 0.23081
 O1134 O 0.75116 0.78951 0.33061
 O1135 O 0.69155 0.67407 0.28074
 O1136 O 0.65830 0.77717 0.26170
 O1137 O 0.71847 0.77353 0.28087
 O1138 O 0.70059 0.72826 0.24438
 O1139 O 0.76890 0.73768 0.29561
 O1140 O 0.75135 0.69312 0.26109
 Zr1141 Zr 0.78383 0.77261 0.21040
 Zr1142 Zr 0.76870 0.78999 0.28461
 Zr1143 Zr 0.73422 0.70341 0.21572
 Zr1144 Zr 0.70212 0.78047 0.23492
 O1145 O 0.75848 0.65751 0.20430
 O1146 O 0.69040 0.83018 0.24965
 O1147 O 0.73365 0.75558 0.20400
 O1148 O 0.75116 0.79957 0.23923
 O1149 O 0.80256 0.76529 0.25571
 O1150 O 0.78423 0.71994 0.21931
 C1151 C 0.65027 0.75763 0.28474
 C1152 C 0.69019 0.65486 0.25644
 C1153 C 0.73246 0.76855 0.34632
 O1154 O 0.74635 0.83752 0.29360
 O1155 O 0.80171 0.82952 0.26997
 O1156 O 0.81084 0.81904 0.21871
 C1157 C 0.81467 0.83725 0.24333
 O1158 O 0.79780 0.67457 0.30078
 Zr1159 Zr 0.80058 0.71275 0.26510
 O1160 O 0.83455 0.76051 0.20473
 O1161 O 0.81060 0.79161 0.31526
 O1162 O 0.83738 0.72525 0.29913
 O1163 O 0.81583 0.66565 0.24662
 O1164 O 0.84673 0.72112 0.24292
 C1165 C 0.85463 0.74084 0.22003
 O1166 O 0.77940 0.80950 0.17405
 O1167 O 0.69042 0.69966 0.18748
 O1168 O 0.78018 0.75382 0.16406
 O1169 O 0.74680 0.70648 0.16889
 O1170 O 0.66162 0.76698 0.20502
 O1171 O 0.70334 0.81232 0.19436
 C1172 C 0.76403 0.72801 0.15263
 H1173 H 0.67740 0.71923 0.24153
 H1174 H 0.75114 0.82420 0.23383
 H1175 H 0.79868 0.70774 0.20452
 H1176 H 0.77700 0.73319 0.31707
 H1177 H 0.66716 0.83525 0.24240
 H1178 H 0.76044 0.84859 0.30968
 H1179 H 0.80960 0.81363 0.32608
 H1180 H 0.85624 0.70900 0.29731
 H1181 H 0.64382 0.78434 0.20724
 H1182 H 0.69143 0.67758 0.17675
 H1183 H 0.74459 0.64656 0.18800
 H1184 H 0.83907 0.66112 0.25417
 H1185 H 0.68229 0.82568 0.19299
 H1186 H 0.80178 0.81152 0.16375
 H1187 H 0.70374 0.68072 0.33626
 H1188 H 0.82041 0.66453 0.30409
 Zr1189 Zr 0.78020 0.28718 0.78987
 O1190 O 0.76366 0.32664 0.81876
 O1191 O 0.82771 0.27794 0.80937
 O1192 O 0.77052 0.27001 0.83683
 O1193 O 0.80792 0.33946 0.72747
 O1194 O 0.73882 0.22168 0.83096
 O1195 O 0.80573 0.33483 0.78052
 O1196 O 0.84780 0.23357 0.78149
 O1197 O 0.78383 0.23391 0.78805
 O1198 O 0.80892 0.27612 0.75046
 O1199 O 0.73020 0.26873 0.78728
 O1200 O 0.75509 0.30986 0.75141
 Zr1201 Zr 0.73687 0.22505 0.70564
 Zr1202 Zr 0.73426 0.21584 0.78292
 Zr1203 Zr 0.78288 0.29591 0.71213
 Zr1204 Zr 0.81091 0.22340 0.74778
 O1205 O 0.76215 0.34049 0.69148
 O1206 O 0.81964 0.17733 0.77302
 O1207 O 0.78723 0.24309 0.70747
 O1208 O 0.76234 0.20278 0.74384
 O1209 O 0.70774 0.23587 0.74483
 O1210 O 0.73356 0.27815 0.70811
 C1211 C 0.85033 0.25614 0.80256
 C1212 C 0.81445 0.35035 0.75472
 C1213 C 0.75323 0.24418 0.84785
 O1214 O 0.75480 0.17080 0.80277
 O1215 O 0.70696 0.17364 0.76700
 O1216 O 0.70789 0.17944 0.71402
 C1217 C 0.69914 0.16376 0.73964
 O1218 O 0.69924 0.33032 0.77811
 Zr1219 Zr 0.70641 0.28888 0.74786
 O1220 O 0.68882 0.23289 0.68757
 O1221 O 0.68535 0.21448 0.80261
 O1222 O 0.66235 0.27711 0.77404
 O1223 O 0.69462 0.33368 0.72182
 O1224 O 0.66815 0.27622 0.71644
 C1225 C 0.66596 0.25410 0.69495
 O1226 O 0.75483 0.18523 0.67795
 O1227 O 0.83155 0.29684 0.69189
 O1228 O 0.74435 0.24288 0.65868
 O1229 O 0.77917 0.28882 0.66402
 O1230 O 0.85651 0.23536 0.72399
 O1231 O 0.82124 0.18532 0.71476
 C1232 C 0.76174 0.26838 0.64720
 H1233 H 0.83198 0.28603 0.75113
 H1234 H 0.76401 0.17779 0.74180
 H1235 H 0.72242 0.28892 0.68982
 H1236 H 0.71696 0.27488 0.80579
 H1237 H 0.84431 0.17320 0.77292
 H1238 H 0.73727 0.16065 0.81663
 H1239 H 0.68406 0.19388 0.81630
 H1240 H 0.64385 0.29148 0.76563
 H1241 H 0.87442 0.22060 0.73291
 H1242 H 0.83315 0.31793 0.67889
 H1243 H 0.77947 0.35029 0.67721
 H1244 H 0.66993 0.33716 0.72344
 H1245 H 0.84269 0.17390 0.72030
 H1246 H 0.73625 0.17932 0.66345
 H1247 H 0.78244 0.33155 0.83340
 H1248 H 0.67555 0.33805 0.77661
 C1249 C 0.45794 1.02759 0.37214
 C1250 C 0.44641 1.03290 0.34183
 C1251 C 0.44596 1.00648 0.32033
 C1252 C 0.46187 0.97501 0.32937
 C1253 C 0.47229 0.96918 0.36084
 C1254 C 0.46956 0.99569 0.38260
 C1255 C 0.48377 0.93645 0.36954
 N1256 N 0.48694 0.91211 0.34791
 N1257 N 0.47901 0.91801 0.31825
 C1258 C 0.46667 0.94838 0.30827
 H1259 H 0.45648 1.04855 0.38809
 H1260 H 0.43710 1.05791 0.33588
 H1261 H 0.49012 0.92954 0.39318
 H1262 H 0.46071 0.95104 0.28390
 C1263 C -0.06314 0.49053 0.87246
 C1264 C -0.07548 0.49773 0.84296
 C1265 C -0.05435 0.50970 0.81871
 C1266 C -0.02081 0.51994 0.82694
 C1267 C -0.00798 0.51218 0.85742
 C1268 C -0.02938 0.49675 0.88014
 C1269 C 0.02524 0.52212 0.86469
 N1270 N 0.04394 0.53992 0.84348
 N1271 N 0.03138 0.54896 0.81580
 C1272 C -0.00040 0.54006 0.80705
 H1273 H -0.08060 0.48062 0.88987
 H1274 H -0.10212 0.49293 0.83896
 H1275 H 0.03631 0.51652 0.88719
 H1276 H -0.00990 0.55058 0.78549
 C1277 C 0.01786 0.00411 0.84297
 C1278 C 0.03029 0.00052 0.81272
 C1279 C 0.06505 0.00447 0.80605
 C1280 C 0.08742 0.01296 0.83123
 C1281 C 0.07410 0.01923 0.86105
 C1282 C 0.03946 0.01288 0.86739
 C1283 C 0.09608 0.03185 0.88412
 N1284 N 0.12955 0.03520 0.87860
 N1285 N 0.14264 0.02706 0.85141
 C1286 C 0.12301 0.01598 0.82777
 H1287 H -0.00860 -0.00116 0.84752
 H1288 H 0.01236 -0.00629 0.79491
 H1289 H 0.08697 0.03948 0.90645
 H1290 H 0.13598 0.01014 0.80667
 C1291 C 0.53719 0.51175 0.35853
 C1292 C 0.55664 0.51169 0.33192
 C1293 C 0.54907 0.49029 0.30678
 C1294 C 0.52245 0.46571 0.31127
 C1295 C 0.50267 0.46581 0.33896
 C1296 C 0.51005 0.48933 0.36247
 C1297 C 0.47681 0.44139 0.34285
 N1298 N 0.47143 0.41781 0.32076
 N1299 N 0.49045 0.41688 0.29533
 C1300 C 0.51582 0.43973 0.29000
 H1301 H 0.54529 0.52778 0.37747
 H1302 H 0.57893 0.52761 0.33256
 H1303 H 0.46093 0.44089 0.36331
 H1304 H 0.53107 0.43654 0.26970
 C1305 C 0.54188 0.51880 0.13827
 C1306 C 0.55476 0.52100 0.16835
 C1307 C 0.55401 0.49286 0.18861
 C1308 C 0.53929 0.46177 0.17827
 C1309 C 0.52678 0.45922 0.14723
 C1310 C 0.52847 0.48811 0.12682
 C1311 C 0.51473 0.42726 0.13748
 N1312 N 0.51462 0.40016 0.15751
 N1313 N 0.52619 0.40259 0.18647
 C1314 C 0.53862 0.43231 0.19743
 H1315 H 0.54364 0.54126 0.12326
 H1316 H 0.56582 0.54486 0.17570
 H1317 H 0.50566 0.42313 0.11421
 H1318 H 0.54911 0.43225 0.22057
 C1319 C 0.01163 1.01340 0.65214
 C1320 C 0.02801 1.01365 0.68121
 C1321 C 0.05632 0.99300 0.68759
 C1322 C 0.06518 0.96860 0.66491
 C1323 C 0.04746 0.96739 0.63605
 C1324 C 0.02155 0.99102 0.62898
 C1325 C 0.05607 0.94203 0.61488
 N1326 N 0.08055 0.91933 0.62205
 N1327 N 0.09674 0.92003 0.64915
 C1328 C 0.08962 0.94355 0.67073
 H1329 H -0.00775 1.03204 0.64716
 H1330 H 0.02003 1.03214 0.69798
 H1331 H 0.04275 0.93918 0.59325
 H1332 H 0.10211 0.94148 0.69257
 C1333 C -0.04994 0.48640 0.64545
 C1334 C -0.06206 0.48740 0.67560
 C1335 C -0.04760 0.50878 0.69756
 C1336 C -0.01863 0.52864 0.68859
 C1337 C -0.00505 0.52637 0.65779
 C1338 C -0.02263 0.50702 0.63501
 C1339 C 0.02546 0.54376 0.65130
 N1340 N 0.03978 0.56402 0.67293
 N1341 N 0.02560 0.56838 0.70054
 C1342 C -0.00323 0.55179 0.70891
 H1343 H -0.06335 0.46971 0.62982
 H1344 H -0.08371 0.47152 0.68148
 H1345 H 0.03859 0.54138 0.62966
 H1346 H -0.01395 0.55742 0.73116
 C1347 C 0.45578 -0.01164 0.15158
 C1348 C 0.44069 -0.01130 0.18060
 C1349 C 0.45024 0.01245 0.20257
 C1350 C 0.47637 0.03647 0.19481
 C1351 C 0.49258 0.03571 0.16505
 C1352 C 0.48079 0.01243 0.14229
 C1353 C 0.51927 0.05899 0.15933
 N1354 N 0.52784 0.08225 0.18090
 N1355 N 0.51150 0.08414 0.20778
 C1356 C 0.48594 0.06236 0.21532
 H1357 H 0.44666 -0.03084 0.13582
 H1358 H 0.42092 -0.02980 0.18573
 H1359 H 0.53358 0.05937 0.13816
 H1360 H 0.47310 0.06601 0.23707
 C1361 C 0.37669 0.38805 -0.02085
 C1362 C 0.34500 0.37204 -0.02277
 C1363 C 0.31829 0.38013 -0.00267
 C1364 C 0.32559 0.40464 0.02089
 C1365 C 0.35744 0.42216 0.02169
 C1366 C 0.38365 0.41318 0.00109
 C1367 C 0.36157 0.44890 0.04273
 N1368 N 0.33703 0.45556 0.06351
 N1369 N 0.30846 0.43753 0.06448
 C1370 C 0.30207 0.41243 0.04407
 H1371 H 0.39617 0.38064 -0.03695
 H1372 H 0.34221 0.35260 -0.03995
 H1373 H 0.38367 0.46507 0.04265
 H1374 H 0.27882 0.39869 0.04656
 C1375 C -0.13172 0.90516 0.51061
 C1376 C -0.16028 0.88448 0.50712
 C1377 C -0.19083 0.89687 0.49413
 C1378 C -0.18987 0.93047 0.48085
 C1379 C -0.16104 0.95205 0.48562
 C1380 C -0.13168 0.93926 0.50087
 C1381 C -0.16234 0.98589 0.47434
 N1382 N -0.18929 0.99660 0.45741
 N1383 N -0.21498 0.97577 0.45092
 C1384 C -0.21603 0.94311 0.46176
 H1385 H -0.10883 0.89378 0.51965
 H1386 H -0.15773 0.85805 0.51417
 H1387 H -0.14218 1.00393 0.47879
 H1388 H -0.23683 0.92719 0.45444
 C1389 C -0.14165 0.06793 0.98543
 C1390 C -0.17245 0.08439 0.98912
 C1391 C -0.17427 0.11976 0.99447
 C1392 C -0.14292 0.13863 0.99388
 C1393 C -0.11154 0.12144 0.98998
 C1394 C -0.11100 0.08583 0.98597
 C1395 C -0.08133 0.14056 0.99024
 N1396 N -0.08227 0.17476 0.99345
 N1397 N -0.11134 0.19107 0.99645
 C1398 C -0.14150 0.17437 0.99669
 H1399 H -0.14174 0.04055 0.98265
 H1400 H -0.19480 0.06865 0.98727
 H1401 H -0.05700 0.12864 0.98754
 H1402 H -0.16383 0.18958 0.99876
 C1403 C 0.34041 0.55656 0.48039
 C1404 C 0.31123 0.57597 0.48347
 C1405 C 0.31244 0.61018 0.49319
 C1406 C 0.34537 0.62509 0.49772
 C1407 C 0.37500 0.60494 0.49464
 C1408 C 0.37235 0.57040 0.48627
 C1409 C 0.40682 0.62021 0.49963
 N1410 N 0.40907 0.65358 0.50671
 N1411 N 0.38167 0.67267 0.50914
 C1412 C 0.35015 0.65972 0.50483
 H1413 H 0.33794 0.53015 0.47383
 H1414 H 0.28777 0.56357 0.47748
 H1415 H 0.42999 0.60602 0.49752
 H1416 H 0.32948 0.67701 0.50681
 C1417 C 0.12665 0.60747 0.51734
 C1418 C 0.15755 0.62552 0.51359
 C1419 C 0.18210 0.61531 0.49209
 C1420 C 0.17452 0.58632 0.47388
 C1421 C 0.14498 0.56627 0.47992
 C1422 C 0.11963 0.57771 0.50061
 C1423 C 0.14222 0.53460 0.46536
 N1424 N 0.16472 0.52588 0.44329
 N1425 N 0.19020 0.54648 0.43511
 C1426 C 0.19577 0.57640 0.44951
 H1427 H 0.10804 0.61697 0.53331
 H1428 H 0.16248 0.64736 0.52796
 H1429 H 0.12296 0.51630 0.47198
 H1430 H 0.21672 0.59218 0.44167
 C1431 C 0.63895 0.11331 0.02320
 C1432 C 0.66938 0.13097 0.01662
 C1433 C 0.69681 0.11523 0.00160
 C1434 C 0.69179 0.08069 -0.00760
 C1435 C 0.66242 0.06211 0.00201
 C1436 C 0.63484 0.07884 0.01599
 C1437 C 0.66101 0.02694 -0.00369
 N1438 N 0.68484 0.01240 -0.02146
 N1439 N 0.70998 0.03070 -0.03392
 C1440 C 0.71391 0.06430 -0.02811
 H1441 H 0.61818 0.12694 0.03334
 H1442 H 0.67132 0.15704 0.02407
 H1443 H 0.64101 0.01093 0.00571
 H1444 H 0.73378 0.07792 -0.04034
 C1445 C 0.63711 0.92082 0.48122
 C1446 C 0.66998 0.90782 0.48143
 C1447 C 0.67899 0.87963 0.50039
 C1448 C 0.65310 0.86382 0.51887
 C1449 C 0.61940 0.87651 0.51783
 C1450 C 0.61163 0.90610 0.49982
 C1451 C 0.59424 0.85893 0.53496
 N1452 N 0.60252 0.83188 0.55337
 N1453 N 0.63422 0.82120 0.55574
 C1454 C 0.65961 0.83631 0.53933
 H1455 H 0.63187 0.94342 0.46722
 H1456 H 0.68876 0.92024 0.46673
 H1457 H 0.56798 0.86614 0.53362
 H1458 H 0.68452 0.82683 0.54285
 C1459 C 0.12727 0.38588 0.98192
 C1460 C 0.15950 0.37115 0.98233
 C1461 C 0.18762 0.38702 0.99661
 C1462 C 0.18226 0.41960 1.01014
 C1463 C 0.14992 0.43530 1.00785
 C1464 C 0.12176 0.41763 0.99511
 C1465 C 0.14664 0.46878 1.01849
 N1466 N 0.17271 0.48439 1.03300
 N1467 N 0.20200 0.46882 1.03751
 C1468 C 0.20754 0.43714 1.02687
 H1469 H 0.10631 0.37198 0.97179
 H1470 H 0.16225 0.34685 0.97126
 H1471 H 0.12377 0.48293 1.01509
 H1472 H 0.23146 0.42625 1.03243
 C1473 C -0.00176 0.37726 0.41501
 C1474 C -0.00229 0.34907 0.39666
 C1475 C -0.02753 0.32386 0.40039
 C1476 C -0.05697 0.33174 0.41767
 C1477 C -0.05640 0.36074 0.43661
 C1478 C -0.02769 0.38237 0.43597
 C1479 C -0.08466 0.36731 0.45522
 N1480 N -0.11260 0.34723 0.45320
 N1481 N -0.11406 0.32121 0.43383
 C1482 C -0.08738 0.31295 0.41584
 H1483 H 0.01901 0.39536 0.41272
 H1484 H 0.01806 0.34653 0.38015
 H1485 H -0.08496 0.38841 0.47100
 H1486 H -0.09081 0.29269 0.39952
 C1487 C 0.47694 -0.14703 -0.04146
 C1488 C 0.47399 -0.17927 -0.05348
 C1489 C 0.50295 -0.19699 -0.06207
 C1490 C 0.53492 -0.18552 -0.05107
 C1491 C 0.53828 -0.15175 -0.04101
 C1492 C 0.50879 -0.13218 -0.03712
 C1493 C 0.57113 -0.13850 -0.03676
 N1494 N 0.59826 -0.15909 -0.03900
 N1495 N 0.59483 -0.19181 -0.04594
 C1496 C 0.56413 -0.20573 -0.05212
 H1497 H 0.45414 -0.13310 -0.03649
 H1498 H 0.44887 -0.18922 -0.05762
 H1499 H 0.57569 -0.11194 -0.03252
 H1500 H 0.56296 -0.23222 -0.05828
 C1501 C 0.01409 -0.15721 1.04370
 C1502 C 0.01127 -0.19101 1.05279
 C1503 C -0.01833 -0.20262 1.06748
 C1504 C -0.04819 -0.18370 1.06317
 C1505 C -0.04529 -0.14885 1.05560
 C1506 C -0.01305 -0.13536 1.04776
 C1507 C -0.07474 -0.12906 1.05608
 N1508 N -0.10527 -0.14443 1.06048
 N1509 N -0.10816 -0.17805 1.06470
 C1510 C -0.08059 -0.19829 1.06588
 H1511 H 0.03767 -0.14796 1.03402
 H1512 H 0.03375 -0.20656 1.05273
 H1513 H -0.07386 -0.10171 1.05288
 H1514 H -0.08402 -0.22551 1.06913
 C1515 C 0.50255 0.32784 0.54715
 C1516 C 0.50318 0.29540 0.55992
 C1517 C 0.47849 0.28527 0.58163
 C1518 C 0.44775 0.30334 0.58223
 C1519 C 0.44699 0.33664 0.56956
 C1520 C 0.47596 0.34942 0.55399
 C1521 C 0.41752 0.35585 0.57333
 N1522 N 0.38987 0.34121 0.58679
 N1523 N 0.38990 0.30888 0.59683
 C1524 C 0.41786 0.28936 0.59478
 H1525 H 0.52339 0.33652 0.53264
 H1526 H 0.52527 0.27999 0.55600
 H1527 H 0.41610 0.38215 0.56560
 H1528 H 0.41667 0.26312 0.60289
 C1529 C 0.46162 1.11911 0.59664
 C1530 C 0.46375 1.15146 0.60849
 C1531 C 0.49507 1.16508 0.61733
 C1532 C 0.52422 1.14417 0.61797
 C1533 C 0.52157 1.11076 0.60679
 C1534 C 0.49070 1.09966 0.59393
 C1535 C 0.55011 1.08964 0.60817
 N1536 N 0.57986 1.10199 0.61900
 N1537 N 0.58287 1.13397 0.62836
 C1538 C 0.55624 1.15545 0.62799
 H1539 H 0.43771 1.11039 0.58724
 H1540 H 0.44122 1.16696 0.60858
 H1541 H 0.54889 1.06338 0.60105
 H1542 H 0.56066 1.18078 0.63566
 C1543 C -0.02929 0.62740 1.08685
 C1544 C -0.02997 0.66069 1.09644
 C1545 C 0.00017 0.67792 1.10264
 C1546 C 0.03140 0.66098 1.10179
 C1547 C 0.03211 0.62691 1.09224
 C1548 C 0.00155 0.61086 1.08325
 C1549 C 0.06338 0.61023 1.09186
 N1550 N 0.09201 0.62718 1.09994
 N1551 N 0.09140 0.65965 1.10828
 C1552 C 0.06208 0.67716 1.10935
 H1553 H -0.05283 0.61537 1.08005
 H1554 H -0.05398 0.67368 1.09746
 H1555 H 0.06527 0.58388 1.08562
 H1556 H 0.06296 0.70338 1.11616
 C1557 C 0.48210 0.64025 -0.06293
 C1558 C 0.48345 0.67371 -0.07268
 C1559 C 0.50448 0.68437 -0.09721
 C1560 C 0.52254 0.65944 -0.11401
 C1561 C 0.51976 0.62461 -0.10472
 C1562 C 0.50150 0.61563 -0.07740
 C1563 C 0.53556 0.60013 -0.12304
 N1564 N 0.55543 0.61013 -0.14718
 N1565 N 0.56057 0.64292 -0.15417
 C1566 C 0.54517 0.66780 -0.13825
 H1567 H 0.46681 0.63417 -0.04270
 H1568 H 0.46783 0.69156 -0.06045
 H1569 H 0.53183 0.57318 -0.11894
 H1570 H 0.55140 0.69365 -0.14447
 C1571 C 0.00740 1.16625 0.43890
 C1572 C -0.00342 1.19678 0.42593
 C1573 C -0.02694 1.19717 0.40143
 C1574 C -0.04088 1.16641 0.39073
 C1575 C -0.02933 1.13525 0.40347
 C1576 C -0.00486 1.13551 0.42754
 C1577 C -0.04359 1.10483 0.39237
 N1578 N -0.06805 1.10602 0.37020
 N1579 N -0.07947 1.13554 0.35876
 C1580 C -0.06687 1.16578 0.36846
 H1581 H 0.02503 1.16658 0.45825
 H1582 H 0.00777 1.22024 0.43417
 H1583 H -0.03558 1.08023 0.40117
 H1584 H -0.07796 1.18907 0.35955
 C1585 C 0.74519 0.68895 0.88426
 C1586 C 0.75106 0.67357 0.91291
 C1587 C 0.76262 0.69225 0.93849
 C1588 C 0.77482 0.72610 0.93228
 C1589 C 0.76877 0.74201 0.90257
 C1590 C 0.75306 0.72329 0.87864
 C1591 C 0.78048 0.77546 0.89727
 N1592 N 0.79851 0.79145 0.91960
 N1593 N 0.80605 0.77598 0.94655
 C1594 C 0.79529 0.74379 0.95343
 H1595 H 0.73522 0.67335 0.86577
 H1596 H 0.74531 0.64661 0.91520
 H1597 H 0.77594 0.78879 0.87542
 H1598 H 0.80440 0.73185 0.97460
 C1599 C 0.22991 0.23001 0.40283
 C1600 C 0.23148 0.21443 0.43214
 C1601 C 0.26195 0.20086 0.44418
 C1602 C 0.29237 0.21078 0.42878
 C1603 C 0.29073 0.22610 0.39848
 C1604 C 0.25892 0.23376 0.38477
 C1605 C 0.32115 0.23441 0.38322
 N1606 N 0.35110 0.22904 0.39782
 N1607 N 0.35262 0.21628 0.42670
 C1608 C 0.32435 0.20737 0.44277
 H1609 H 0.20543 0.23691 0.39338
 H1610 H 0.20802 0.21156 0.44482
 H1611 H 0.32140 0.24629 0.36032
 H1612 H 0.32727 0.19921 0.46671
 C1613 C 0.79201 0.30824 0.38111
 C1614 C 0.78425 0.32255 0.40944
 C1615 C 0.76283 0.30617 0.43164
 C1616 C 0.74741 0.27478 0.42251
 C1617 C 0.75548 0.26024 0.39318
 C1618 C 0.77771 0.27744 0.37222
 C1619 C 0.73944 0.22964 0.38491
 N1620 N 0.71652 0.21474 0.40429
 N1621 N 0.70820 0.22865 0.43113
 C1622 C 0.72255 0.25816 0.44071
 H1623 H 0.80727 0.32299 0.36472
 H1624 H 0.79384 0.34805 0.41213
 H1625 H 0.74489 0.21749 0.36316
 H1626 H 0.71343 0.26873 0.46193
 C1627 C 0.25936 0.76517 0.89722
 C1628 C 0.25528 0.77805 0.92737
 C1629 C 0.25878 0.81326 0.93322
 C1630 C 0.26736 0.83529 0.90727
 C1631 C 0.27651 0.82121 0.87848
 C1632 C 0.26957 0.78655 0.87237
 C1633 C 0.29217 0.84262 0.85602
 N1634 N 0.29399 0.87664 0.86023
 N1635 N 0.28161 0.89059 0.88562
 C1636 C 0.26811 0.87129 0.90902
 H1637 H 0.25372 0.73858 0.89318
 H1638 H 0.24817 0.76028 0.94574
 H1639 H 0.30306 0.83246 0.83519
 H1640 H 0.25866 0.88462 0.92876
 C1641 C 0.22854 0.81274 0.10647
 C1642 C 0.23321 0.82570 0.07639
 C1643 C 0.25213 0.80837 0.05397
 C1644 C 0.26669 0.77645 0.06351
 C1645 C 0.26110 0.76301 0.09439
 C1646 C 0.24241 0.78171 0.11617
 C1647 C 0.27613 0.73201 0.10313
 N1648 N 0.29639 0.71590 0.08294
 N1649 N 0.30310 0.72905 0.05485
 C1650 C 0.28947 0.75882 0.04467
 H1651 H 0.21461 0.82784 0.12282
 H1652 H 0.22095 0.84954 0.07079
 H1653 H 0.27222 0.72059 0.12595
 H1654 H 0.29791 0.76884 0.02250
 C1655 C 0.76762 0.31237 0.60500
 C1656 C 0.76422 0.32543 0.57485
 C1657 C 0.75255 0.30536 0.55035
 C1658 C 0.74355 0.27062 0.55776
 C1659 C 0.74895 0.25670 0.58852
 C1660 C 0.76001 0.27814 0.61293
 C1661 C 0.74284 0.22168 0.59354
 N1662 N 0.72871 0.20280 0.57082
 N1663 N 0.72028 0.21652 0.54339
 C1664 C 0.72682 0.24970 0.53628
 H1665 H 0.77618 0.32998 0.62245
 H1666 H 0.77198 0.35165 0.57085
 H1667 H 0.74954 0.20883 0.61498
 H1668 H 0.71771 0.25952 0.51434
 C1669 C 0.24266 0.21944 0.60888
 C1670 C 0.23680 0.20536 0.57987
 C1671 C 0.26357 0.19873 0.56002
 C1672 C 0.29699 0.20840 0.56917
 C1673 C 0.30304 0.22150 0.59943
 C1674 C 0.27562 0.22628 0.61979
 C1675 C 0.33652 0.22799 0.60862
 N1676 N 0.36219 0.22249 0.58859
 N1677 N 0.35663 0.21081 0.56016
 C1678 C 0.32501 0.20361 0.54977
 H1679 H 0.22114 0.22305 0.62391
 H1680 H 0.21114 0.19900 0.57310
 H1681 H 0.34252 0.23750 0.63142
 H1682 H 0.32225 0.19353 0.52673
 C1683 C 0.73227 0.70834 0.10688
 C1684 C 0.72974 0.69516 0.07719
 C1685 C 0.75743 0.69580 0.05735
 C1686 C 0.78828 0.71117 0.06747
 C1687 C 0.79124 0.72368 0.09833
 C1688 C 0.76295 0.72166 0.11850
 C1689 C 0.82291 0.73618 0.10810
 N1690 N 0.84940 0.73687 0.08820
 N1691 N 0.84659 0.72550 0.05935
 C1692 C 0.81709 0.71257 0.04838
 H1693 H 0.71004 0.70680 0.12150
 H1694 H 0.70601 0.68389 0.06980
 H1695 H 0.82720 0.74522 0.13129
 H1696 H 0.81678 0.70283 0.02510
 C1697 C 0.18246 0.60930 0.25707
 C1698 C 0.16534 0.57889 0.26425
 C1699 C 0.12982 0.57607 0.26221
 C1700 C 0.11177 0.60637 0.25309
 C1701 C 0.12970 0.63699 0.24482
 C1702 C 0.16530 0.63841 0.24680
 C1703 C 0.11132 0.66571 0.23507
 N1704 N 0.07716 0.66427 0.23384
 N1705 N 0.06018 0.63605 0.24183
 C1706 C 0.07615 0.60727 0.25139
 H1707 H 0.20966 0.61024 0.26000
 H1708 H 0.18086 0.55774 0.27123
 H1709 H 0.12389 0.68920 0.22815
 H1710 H 0.06055 0.58557 0.25741
 C1711 C 0.69396 0.10068 0.73982
 C1712 C 0.67588 0.07043 0.74592
 C1713 C 0.64080 0.07027 0.75197
 C1714 C 0.62415 0.10273 0.75119
 C1715 C 0.64281 0.13332 0.74444
 C1716 C 0.67796 0.13227 0.73891
 C1717 C 0.62567 0.16457 0.74366
 N1718 N 0.59207 0.16538 0.74924
 N1719 N 0.57449 0.13709 0.75566
 C1720 C 0.58920 0.10605 0.75687
 H1721 H 0.72107 0.09947 0.73665
 H1722 H 0.69021 0.04729 0.74597
 H1723 H 0.63866 0.18837 0.73840
 H1724 H 0.57305 0.08457 0.76225
 C1725 C 0.81872 0.09766 0.25382
 C1726 C 0.83476 0.06619 0.25302
 C1727 C 0.86969 0.06364 0.24700
 C1728 C 0.88854 0.09498 0.24286
 C1729 C 0.87162 0.12686 0.24287
 C1730 C 0.83665 0.12808 0.24884
 C1731 C 0.89025 0.15687 0.23658
 N1732 N 0.92404 0.15545 0.23222
 N1733 N 0.94036 0.12602 0.23355
 C1734 C 0.92399 0.09596 0.23877
 H1735 H 0.79178 0.09825 0.25817
 H1736 H 0.81918 0.04406 0.25771
 H1737 H 0.87827 0.18150 0.23523
 H1738 H 0.93930 0.07348 0.23982
 C1739 C 0.31594 0.60001 0.75818
 C1740 C 0.33272 0.56922 0.75390
 C1741 C 0.36687 0.56821 0.74444
 C1742 C 0.38397 0.60040 0.73959
 C1743 C 0.36665 0.63160 0.74439
 C1744 C 0.33247 0.63134 0.75382
 C1745 C 0.38419 0.66261 0.73956
 N1746 N 0.41697 0.66260 0.73073
 N1747 N 0.43339 0.63371 0.72641
 C1748 C 0.41822 0.60286 0.73054
 H1749 H 0.28945 0.59933 0.76444
 H1750 H 0.31833 0.54630 0.75857
 H1751 H 0.37224 0.68691 0.74304
 H1752 H 0.43353 0.58085 0.72680
 C1753 C 0.33754 0.39305 0.72874
 C1754 C 0.34996 0.42649 0.73074
 C1755 C 0.37226 0.43606 0.75463
 C1756 C 0.38225 0.41084 0.77682
 C1757 C 0.36948 0.37683 0.77491
 C1758 C 0.34643 0.36791 0.75085
 C1759 C 0.38058 0.35266 0.79721
 N1760 N 0.40216 0.36208 0.82011
 N1761 N 0.41338 0.39401 0.82230
 C1762 C 0.40410 0.41864 0.80154
 H1763 H 0.31979 0.38710 0.71036
 H1764 H 0.34242 0.44504 0.71312
 H1765 H 0.37271 0.32628 0.79653
 H1766 H 0.41358 0.44411 0.80478
 C1767 C 0.85886 0.87595 0.26492
 C1768 C 0.87621 0.90713 0.26670
 C1769 C 0.87028 0.93389 0.24530
 C1770 C 0.84692 0.92776 0.22051
 C1771 C 0.82862 0.89623 0.21919
 C1772 C 0.83478 0.86987 0.24156
 C1773 C 0.80404 0.89261 0.19575
 N1774 N 0.80007 0.91738 0.17368
 N1775 N 0.81884 0.94566 0.17352
 C1776 C 0.84216 0.95161 0.19596
 H1777 H 0.86367 0.85657 0.28264
 H1778 H 0.89249 0.91091 0.28646
 H1779 H 0.78771 0.87055 0.19477
 H1780 H 0.85712 0.97467 0.19396
 C1781 C 0.67565 0.89779 0.77990
 C1782 C 0.66088 0.93016 0.77810
 C1783 C 0.63328 0.93711 0.75822
 C1784 C 0.61983 0.90966 0.74065
 C1785 C 0.63409 0.87648 0.74347
 C1786 C 0.66323 0.87080 0.76214
 C1787 C 0.61865 0.84972 0.72719
 N1788 N 0.59222 0.85606 0.70792
 N1789 N 0.58021 0.88735 0.70380
 C1790 C 0.59325 0.91422 0.71927
 H1791 H 0.69788 0.89422 0.79432
 H1792 H 0.67154 0.95022 0.79212
 H1793 H 0.62713 0.82375 0.72983
 H1794 H 0.58299 0.93881 0.71423
 C1795 C 0.13570 0.38292 0.28251
 C1796 C 0.12023 0.41511 0.28170
 C1797 C 0.13535 0.44357 0.26657
 C1798 C 0.16715 0.43869 0.25169
 C1799 C 0.18355 0.40653 0.25411
 C1800 C 0.16722 0.37794 0.26858
 C1801 C 0.21628 0.40394 0.24174
 N1802 N 0.23043 0.43040 0.22572
 N1803 N 0.21412 0.45951 0.22130
 C1804 C 0.18309 0.46446 0.23346
 H1805 H 0.12257 0.36159 0.29353
 H1806 H 0.09599 0.41764 0.29292
 H1807 H 0.23101 0.38132 0.24491
 H1808 H 0.17144 0.48844 0.22819
 C1809 C 0.13118 0.27219 0.82874
 C1810 C 0.10247 0.27808 0.84564
 C1811 C 0.07143 0.28190 0.83030
 C1812 C 0.07163 0.29089 0.79822
 C1813 C 0.10043 0.28334 0.78051
 C1814 C 0.12979 0.27178 0.79625
 C1815 C 0.09833 0.28734 0.74798
 N1816 N 0.07075 0.30211 0.73486
 N1817 N 0.04515 0.31274 0.75207
 C1818 C 0.04484 0.30794 0.78338
 H1819 H 0.15426 0.26613 0.84123
 H1820 H 0.10366 0.27480 0.87071
 H1821 H 0.11811 0.27909 0.73286
 H1822 H 0.02401 0.31785 0.79649
 C1823 C 0.59776 0.72980 0.29769
 C1824 C 0.56737 0.72837 0.31291
 C1825 C 0.55577 0.75673 0.32892
 C1826 C 0.57074 0.78912 0.32235
 C1827 C 0.60262 0.79046 0.30779
 C1828 C 0.61647 0.75997 0.29679
 C1829 C 0.61947 0.82209 0.30527
 N1830 N 0.60356 0.85086 0.31379
 N1831 N 0.57215 0.84995 0.32480
 C1832 C 0.55510 0.82011 0.32910
 H1833 H 0.60745 0.70675 0.28776
 H1834 H 0.55392 0.70423 0.31360
 H1835 H 0.64490 0.82435 0.29647
 H1836 H 0.52931 0.82102 0.33710
 C1837 C 0.60074 0.27652 0.21063
 C1838 C 0.56692 0.27995 0.20322
 C1839 C 0.54730 0.25090 0.19730
 C1840 C 0.55897 0.21897 0.20872
 C1841 C 0.59378 0.21488 0.21425
 C1842 C 0.61500 0.24414 0.21353
 C1843 C 0.60596 0.18156 0.21870
 N1844 N 0.58400 0.15486 0.22059
 N1845 N 0.55082 0.15916 0.21768
 C1846 C 0.53756 0.19031 0.21168
 H1847 H 0.61618 0.29931 0.21288
 H1848 H 0.55727 0.30534 0.19936
 H1849 H 0.63254 0.17624 0.22001
 H1850 H 0.51054 0.19244 0.20929
 C1851 C 0.09974 0.77043 0.70093
 C1852 C 0.06816 0.77673 0.68837
 C1853 C 0.06390 0.77975 0.65607
 C1854 C 0.09313 0.78162 0.63655
 C1855 C 0.12449 0.77194 0.64909
 C1856 C 0.12760 0.76661 0.68155
 C1857 C 0.15143 0.76638 0.62849
 N1858 N 0.14802 0.77369 0.59777
 N1859 N 0.11915 0.78539 0.58611
 C1860 C 0.09164 0.78943 0.60426
 H1861 H 0.10236 0.76803 0.72598
 H1862 H 0.04715 0.77773 0.70420
 H1863 H 0.17474 0.75529 0.63629
 H1864 H 0.06906 0.79812 0.59283
 C1865 C 0.89644 0.77444 0.69124
 C1866 C 0.92944 0.77024 0.68217
 C1867 C 0.93750 0.74764 0.65866
 C1868 C 0.91123 0.72859 0.64431
 C1869 C 0.87717 0.73539 0.65144
 C1870 C 0.86993 0.75696 0.67662
 C1871 C 0.85182 0.72047 0.63281
 N1872 N 0.86011 0.69700 0.61156
 N1873 N 0.89200 0.68789 0.60729
 C1874 C 0.91769 0.70279 0.62304
 H1875 H 0.89191 0.79143 0.71028
 H1876 H 0.94853 0.78604 0.69295
 H1877 H 0.82567 0.72776 0.63410
 H1878 H 0.94286 0.69444 0.61874
 C1879 C 0.38467 0.28282 0.18684
 C1880 C 0.41803 0.27660 0.18045
 C1881 C 0.42698 0.25004 0.16106
 C1882 C 0.40144 0.23190 0.14488
 C1883 C 0.36712 0.23903 0.15080
 C1884 C 0.35905 0.26240 0.17427
 C1885 C 0.34217 0.22257 0.13297
 N1886 N 0.35115 0.19896 0.11207
 N1887 N 0.38334 0.19093 0.10768
 C1888 C 0.40869 0.20653 0.12339
 H1889 H 0.37933 0.30215 0.20369
 H1890 H 0.43712 0.29240 0.19134
 H1891 H 0.31576 0.22892 0.13470
 H1892 H 0.43408 0.19906 0.11869
 C1893 C 0.37859 0.73053 0.33262
 C1894 C 0.41035 0.72658 0.34551
 C1895 C 0.43308 0.75385 0.34515
 C1896 C 0.42330 0.78650 0.33396
 C1897 C 0.39101 0.79052 0.32071
 C1898 C 0.36909 0.76191 0.31952
 C1899 C 0.38236 0.82277 0.30828
 N1900 N 0.40433 0.84933 0.31040
 N1901 N 0.43443 0.84578 0.32389
 C1902 C 0.44468 0.81533 0.33571
 H1903 H 0.36166 0.70868 0.33191
 H1904 H 0.41778 0.70176 0.35453
 H1905 H 0.35852 0.82729 0.29687
 H1906 H 0.46910 0.81417 0.34691
 C1907 C 0.89444 0.22860 0.83353
 C1908 C 0.92719 0.22729 0.84489
 C1909 C 0.94915 0.25506 0.84040
 C1910 C 0.93688 0.28622 0.82739
 C1911 C 0.90351 0.28749 0.81595
 C1912 C 0.88267 0.25809 0.81852
 C1913 C 0.89226 0.31813 0.80201
 N1914 N 0.91244 0.34618 0.80163
 N1915 N 0.94321 0.34564 0.81408
 C1916 C 0.95602 0.31682 0.82706
 H1917 H 0.87842 0.20612 0.83563
 H1918 H 0.93599 0.20381 0.85572
 H1919 H 0.86766 0.32031 0.79161
 H1920 H 0.98055 0.31865 0.83779
 C1921 C 0.55459 0.99317 0.64804
 C1922 C 0.57112 0.99715 0.67606
 C1923 C 0.55350 0.99675 0.70421
 C1924 C 0.51806 0.99084 0.70368
 C1925 C 0.50095 0.98619 0.67466
 C1926 C 0.51956 0.98758 0.64647
 C1927 C 0.46603 0.97977 0.67517
 N1928 N 0.44930 0.97885 0.70267
 N1929 N 0.46515 0.98374 0.72963
 C1930 C 0.49894 0.98972 0.73107
 H1931 H 0.56971 0.99476 0.62711
 H1932 H 0.59825 1.00123 0.67566
 H1933 H 0.45190 0.97530 0.65408
 H1934 H 0.51056 0.99327 0.75355
 C1935 C 0.01198 0.48646 1.16893
 C1936 C 0.02813 0.48707 1.19812
 C1937 C 0.06275 0.49501 1.20046
 C1938 C 0.08130 0.50183 1.17280
 C1939 C 0.06419 0.50554 1.14424
 C1940 C 0.02975 0.49580 1.14181
 C1941 C 0.08229 0.51918 1.11866
 N1942 N 0.11610 0.52445 1.12076
 N1943 N 0.13290 0.51747 1.14693
 C1944 C 0.11668 0.50613 1.17289
 H1945 H -0.01431 0.47874 1.16749
 H1946 H 0.01344 0.48211 1.21896
 H1947 H 0.06975 0.52576 1.09707
 H1948 H 0.13141 0.50095 1.19348
 C1949 C -0.01890 0.01144 1.14714
 C1950 C -0.03201 0.01282 1.17714
 C1951 C -0.05158 -0.01405 1.18997
 C1952 C -0.05491 -0.04453 1.17248
 C1953 C -0.04127 -0.04581 1.14181
 C1954 C -0.02415 -0.01716 1.12883
 C1955 C -0.04649 -0.07539 1.12444
 N1956 N -0.06387 -0.10214 1.13697
 N1957 N -0.07635 -0.10122 1.16561
 C1958 C -0.07242 -0.07351 1.18364
 H1959 H -0.00589 0.03366 1.13755
 H1960 H -0.02864 0.03621 1.18980
 H1961 H -0.03693 -0.07749 1.10104
 H1962 H -0.08258 -0.07494 1.20652
 C1963 C 0.47447 0.50700 0.64172
 C1964 C 0.46211 0.51229 0.67151
 C1965 C 0.44486 0.48643 0.68824
 C1966 C 0.44340 0.45319 0.67520
 C1967 C 0.45633 0.44791 0.64471
 C1968 C 0.47071 0.47544 0.62752
 C1969 C 0.45304 0.41544 0.63177
 N1970 N 0.43823 0.38971 0.64833
 N1971 N 0.42629 0.39441 0.67679
 C1972 C 0.42824 0.42512 0.69060
 H1973 H 0.48531 0.52845 0.62885
 H1974 H 0.46425 0.53765 0.68085
 H1975 H 0.46222 0.41025 0.60871
 H1976 H 0.41822 0.42686 0.71346
 C1977 C 0.44947 0.50831 -0.14199
 C1978 C 0.43385 0.50793 -0.17071
 C1979 C 0.45221 0.50274 -0.19797
 C1980 C 0.48745 0.49693 -0.19556
 C1981 C 0.50348 0.49626 -0.16568
 C1982 C 0.48409 0.50200 -0.13862
 C1983 C 0.53814 0.48936 -0.16413
 N1984 N 0.55572 0.48444 -0.19069
 N1985 N 0.54091 0.48578 -0.21858
 C1986 C 0.50740 0.49192 -0.22193
 H1987 H 0.43387 0.51278 -0.12185
 H1988 H 0.40685 0.51224 -0.17167
 H1989 H 0.55143 0.48796 -0.14216
 H1990 H 0.49663 0.49268 -0.24509
 C1991 C -0.01365 1.03214 0.34028
 C1992 C -0.02699 1.02738 0.31041
 C1993 C -0.04209 0.99606 0.30151
 C1994 C -0.03660 0.96735 0.32161
 C1995 C -0.02175 0.97207 0.35155
 C1996 C -0.01314 1.00523 0.36194
 C1997 C -0.01624 0.94317 0.37071
 N1998 N -0.02560 0.91187 0.36107
 N1999 N -0.03987 0.90747 0.33340
 C2000 C -0.04560 0.93402 0.31351
 H2001 H -0.00631 1.05754 0.34718
 H2002 H -0.02863 1.04959 0.29513
 H2003 H -0.00391 0.94508 0.39298
 H2004 H -0.05580 0.92823 0.29139
 C2005 C 0.03063 0.46862 0.36100
 C2006 C 0.04839 0.47105 0.33296
 C2007 C 0.04091 0.49660 0.31087
 C2008 C 0.01252 0.51758 0.31583
 C2009 C -0.00542 0.51520 0.34440
 C2010 C 0.00475 0.49153 0.36775
 C2011 C -0.03203 0.53785 0.34924
 N2012 N -0.04062 0.56073 0.32656
 N2013 N -0.02419 0.56260 0.29958
 C2014 C 0.00209 0.54188 0.29346
 H2015 H 0.03932 0.45080 0.37880
 H2016 H 0.07020 0.45505 0.32991
 H2017 H -0.04625 0.53730 0.37070
 H2018 H 0.01442 0.54428 0.27110
 C2019 C 0.56060 -0.03254 -0.13133
 C2020 C 0.57401 -0.02840 -0.16129
 C2021 C 0.56126 -0.00369 -0.18207
 C2022 C 0.53284 0.01546 -0.17318
 C2023 C 0.51878 0.01077 -0.14297
 C2024 C 0.53348 -0.01270 -0.12151
 C2025 C 0.49115 0.03093 -0.13480
 N2026 N 0.47841 0.05389 -0.15559
 N2027 N 0.49154 0.05823 -0.18388
 C2028 C 0.51834 0.03989 -0.19335
 H2029 H 0.57267 -0.05009 -0.11511
 H2030 H 0.59590 -0.04308 -0.16760
 H2031 H 0.47944 0.02849 -0.11218
 H2032 H 0.52796 0.04447 -0.21658
 C2033 C 0.63375 0.60260 -0.01347
 C2034 C 0.66168 0.62327 -0.00662
 C2035 C 0.69354 0.60944 0.00079
 C2036 C 0.69635 0.57338 0.00216
 C2037 C 0.66766 0.55232 -0.00444
 C2038 C 0.63622 0.56709 -0.01290
 C2039 C 0.67150 0.51678 -0.00279
 N2040 N 0.70194 0.50326 0.00462
 N2041 N 0.72876 0.52287 0.01048
 C2042 C 0.72702 0.55735 0.00939
 H2043 H 0.60970 0.61451 -0.01851
 H2044 H 0.65867 0.65066 -0.00813
 H2045 H 0.65067 0.49963 -0.00772
 H2046 H 0.74953 0.57173 0.01454
 C2047 C 0.12984 1.11312 0.48824
 C2048 C 0.15917 1.13232 0.49374
 C2049 C 0.18979 1.11706 0.50318
 C2050 C 0.18989 1.08106 0.50767
 C2051 C 0.15972 1.06155 0.50252
 C2052 C 0.12950 1.07770 0.49236
 C2053 C 0.16099 1.02601 0.50698
 N2054 N 0.19029 1.01101 0.51578
 N2055 N 0.21844 1.02909 0.52031
 C2056 C 0.21926 1.06345 0.51640
 H2057 H 0.10692 1.12622 0.48144
 H2058 H 0.15816 1.15964 0.48980
 H2059 H 0.13909 1.00993 0.50308
 H2060 H 0.24286 1.07643 0.52027
 C2061 C 0.15912 -0.06231 0.99913
 C2062 C 0.18983 -0.07932 0.99594
 C2063 C 0.19356 -0.11314 1.00625
 C2064 C 0.16536 -0.12973 1.02070
 C2065 C 0.13457 -0.11178 1.02539
 C2066 C 0.13087 -0.07806 1.01335
 C2067 C 0.10795 -0.12904 1.04065
 N2068 N 0.11130 -0.16216 1.04952
 N2069 N 0.13938 -0.17932 1.04389
 C2070 C 0.16630 -0.16436 1.02956
 H2071 H 0.15707 -0.03674 0.98939
 H2072 H 0.21031 -0.06643 0.98373
 H2073 H 0.08457 -0.11659 1.04578
 H2074 H 0.18798 -0.17982 1.02499
 C2075 C 0.63776 0.41552 0.48005
 C2076 C 0.66926 0.40004 0.47724
 C2077 C 0.67862 0.37257 0.49652
 C2078 C 0.65497 0.36055 0.51924
 C2079 C 0.62253 0.37623 0.52206
 C2080 C 0.61364 0.40420 0.50211
 C2081 C 0.59972 0.36218 0.54396
 N2082 N 0.60876 0.33501 0.56197
 N2083 N 0.63887 0.32058 0.55938
 C2084 C 0.66209 0.33225 0.53857
 H2085 H 0.63210 0.43666 0.46437
 H2086 H 0.68650 0.40958 0.45953
 H2087 H 0.57464 0.37199 0.54686
 H2088 H 0.68560 0.31890 0.53704
 C2089 C -0.14866 0.41562 0.52180
 C2090 C -0.17802 0.39546 0.52303
 C2091 C -0.20461 0.40117 0.50210
 C2092 C -0.20209 0.42934 0.48088
 C2093 C -0.17213 0.44971 0.47943
 C2094 C -0.14453 0.44192 0.49930
 C2095 C -0.17106 0.47731 0.45811
 N2096 N -0.19783 0.48352 0.43912
 N2097 N -0.22561 0.46411 0.44009
 C2098 C -0.22862 0.43726 0.46025
 H2099 H -0.12812 0.40935 0.53756
 H2100 H -0.17875 0.37354 0.53872
 H2101 H -0.14945 0.49426 0.45657
 H2102 H -0.25187 0.42255 0.46030
 C2103 C 0.38005 -0.10536 0.00011
 C2104 C 0.35035 -0.12482 0.00219
 C2105 C 0.31839 -0.10962 0.00497
 C2106 C 0.31718 -0.07364 0.00720
 C2107 C 0.34761 -0.05379 0.00554
 C2108 C 0.37927 -0.06981 0.00127
 C2109 C 0.34518 -0.01819 0.00733
 N2110 N 0.31454 -0.00353 0.01050
 N2111 N 0.28618 -0.02203 0.01189
 C2112 C 0.28646 -0.05647 0.01020
 H2113 H 0.40397 -0.11826 -0.00211
 H2114 H 0.35221 -0.15222 0.00035
 H2115 H 0.36730 -0.00184 0.00586
 H2116 H 0.26272 -0.07004 0.01150
 C2117 C 0.34168 1.05788 0.50127
 C2118 C 0.31563 1.08093 0.49622
 C2119 C 0.30720 1.10497 0.51837
 C2120 C 0.32433 1.10318 0.54772
 C2121 C 0.35214 1.08033 0.55257
 C2122 C 0.36189 1.05804 0.52841
 C2123 C 0.36934 1.08142 0.58133
 N2124 N 0.35915 1.10280 0.60367
 N2125 N 0.33293 1.12326 0.59942
 C2126 C 0.31530 1.12402 0.57240
 H2127 H 0.34704 1.04063 0.48262
 H2128 H 0.30240 1.08055 0.47412
 H2129 H 0.39053 1.06561 0.58692
 H2130 H 0.29420 1.14061 0.57090
 C2131 C -0.15192 0.56052 0.99985
 C2132 C -0.17930 0.58186 0.99472
 C2133 C -0.18821 0.60638 1.01619
 C2134 C -0.16990 0.60723 1.04485
 C2135 C -0.14079 0.58616 1.04975
 C2136 C -0.13079 0.56318 1.02626
 C2137 C -0.12269 0.58968 1.07780
 N2138 N -0.13316 0.61181 1.09943
 N2139 N -0.16051 0.63073 1.09510
 C2140 C -0.17911 0.62906 1.06869
 H2141 H -0.14638 0.54259 0.98179
 H2142 H -0.19328 0.57974 0.97311
 H2143 H -0.10058 0.57513 1.08333
 H2144 H -0.20120 0.64437 1.06694
 C2145 C 0.00495 0.66724 0.54292
 C2146 C 0.00672 0.69824 0.55752
 C2147 C 0.00567 0.69932 0.58985
 C2148 C 0.00217 0.66910 0.60818
 C2149 C -0.00226 0.63796 0.59318
 C2150 C 0.00092 0.63715 0.56051
 C2151 C -0.01122 0.60900 0.61130
 N2152 N -0.01341 0.61115 0.64262
 N2153 N -0.00690 0.64012 0.65706
 C2154 C 0.00112 0.66907 0.64098
 H2155 H 0.00665 0.66667 0.51778
 H2156 H 0.00943 0.72146 0.54363
 H2157 H -0.01732 0.58492 0.60094
 H2158 H 0.00573 0.69170 0.65406
 C2159 C 0.51201 0.16688 0.05440
 C2160 C 0.51370 0.19533 0.07312
 C2161 C 0.50385 0.19276 0.10428
 C2162 C 0.49022 0.16200 0.11664
 C2163 C 0.48666 0.13391 0.09718
 C2164 C 0.49938 0.13603 0.06649
 C2165 C 0.47010 0.10460 0.10907
 N2166 N 0.45916 0.10338 0.13886
 N2167 N 0.46387 0.12942 0.15770
 C2168 C 0.47913 0.15857 0.14769
 H2169 H 0.52166 0.16858 0.03087
 H2170 H 0.52377 0.21910 0.06365
 H2171 H 0.46508 0.08295 0.09500
 H2172 H 0.48144 0.17892 0.16387
 C2173 C 0.01996 0.16265 0.95069
 C2174 C 0.01895 0.19232 0.93257
 C2175 C 0.02313 0.19106 0.90027
 C2176 C 0.02896 0.15982 0.88573
 C2177 C 0.03134 0.13004 0.90425
 C2178 C 0.02545 0.13142 0.93673
 C2179 C 0.03930 0.09956 0.88957
 N2180 N 0.04262 0.09876 0.85823
 N2181 N 0.03851 0.12659 0.84053
 C2182 C 0.03160 0.15708 0.85315
 H2183 H 0.01509 0.16387 0.97543
 H2184 H 0.01446 0.21637 0.94370
 H2185 H 0.04323 0.07658 0.90288
 H2186 H 0.02794 0.17863 0.83754
 C2187 C 0.49674 0.64108 0.44753
 C2188 C 0.49730 0.67289 0.43300
 C2189 C 0.49573 0.67564 0.40064
 C2190 C 0.49223 0.64639 0.38233
 C2191 C 0.49274 0.61400 0.39694
 C2192 C 0.49470 0.61156 0.42989
 C2193 C 0.49225 0.58528 0.37786
 N2194 N 0.48938 0.58907 0.34655
 N2195 N 0.48721 0.61970 0.33294
 C2196 C 0.48851 0.64850 0.34973
 H2197 H 0.49791 0.63946 0.47271
 H2198 H 0.49993 0.69544 0.44697
 H2199 H 0.49472 0.55995 0.38732
 H2200 H 0.48647 0.67270 0.33745
 C2201 C 0.51671 0.83643 0.45375
 C2202 C 0.51715 0.80449 0.44084
 C2203 C 0.48991 0.79301 0.42277
 C2204 C 0.45958 0.81229 0.42154
 C2205 C 0.45996 0.84553 0.43333
 C2206 C 0.48892 0.85739 0.44903
 C2207 C 0.43138 0.86620 0.42874
 N2208 N 0.40328 0.85328 0.41519
 N2209 N 0.40196 0.82118 0.40600
 C2210 C 0.42894 0.80033 0.40886
 H2211 H 0.53838 0.84510 0.46703
 H2212 H 0.54009 0.78973 0.44278
 H2213 H 0.43112 0.89248 0.43573
 H2214 H 0.42523 0.77463 0.40211
 C2215 C 0.01859 0.33969 0.95473
 C2216 C 0.02089 0.30927 0.93946
 C2217 C -0.00507 0.29905 0.91944
 C2218 C -0.03627 0.31633 0.91916
 C2219 C -0.03828 0.34784 0.93397
 C2220 C -0.00995 0.35977 0.95062
 C2221 C -0.06807 0.36689 0.93055
 N2222 N -0.09472 0.35388 0.91469
 N2223 N -0.09342 0.32328 0.90201
 C2224 C -0.06514 0.30411 0.90376
 H2225 H 0.03983 0.34844 0.96854
 H2226 H 0.04463 0.29572 0.94030
 H2227 H -0.07040 0.39197 0.94015
 H2228 H -0.06605 0.27919 0.89413
 C2229 C 0.53321 0.34187 0.06442
 C2230 C 0.53094 0.31725 0.08777
 C2231 C 0.49945 0.30805 0.10044
 C2232 C 0.46941 0.32150 0.08732
 C2233 C 0.47183 0.34457 0.06201
 C2234 C 0.50393 0.35684 0.05266
 C2235 C 0.44196 0.35558 0.04733
 N2236 N 0.41151 0.34601 0.05906
 N2237 N 0.40915 0.32624 0.08448
 C2238 C 0.43704 0.31394 0.09912
 H2239 H 0.55795 0.35093 0.05712
 H2240 H 0.55406 0.30624 0.09681
 H2241 H 0.44277 0.37128 0.02644
 H2242 H 0.43357 0.29895 0.11995
 C2243 C -0.00730 0.84787 0.53751
 C2244 C -0.00570 0.81762 0.55430
 C2245 C -0.02495 0.81322 0.58112
 C2246 C -0.05042 0.83644 0.58829
 C2247 C -0.05256 0.86729 0.57109
 C2248 C -0.02809 0.87429 0.54746
 C2249 C -0.07862 0.88985 0.57886
 N2250 N -0.09997 0.88203 0.60261
 N2251 N -0.09717 0.85323 0.61922
 C2252 C -0.07301 0.83023 0.61289
 H2253 H 0.01059 0.85171 0.51872
 H2254 H 0.01353 0.79932 0.54853
 H2255 H -0.08322 0.91303 0.56595
 H2256 H -0.07212 0.80700 0.62656
 C2257 C 0.23846 0.25974 0.09445
 C2258 C 0.23828 0.27241 0.06341
 C2259 C 0.23736 0.30770 0.05682
 C2260 C 0.23678 0.33000 0.08231
 C2261 C 0.24282 0.31752 0.11279
 C2262 C 0.24067 0.28211 0.11960
 C2263 C 0.25210 0.34127 0.13542
 N2264 N 0.24911 0.37511 0.12931
 N2265 N 0.23834 0.38663 0.10175
 C2266 C 0.23198 0.36509 0.07815
 H2267 H 0.23751 0.23249 0.09878
 H2268 H 0.23958 0.25466 0.04452
 H2269 H 0.26254 0.33312 0.15754
 H2270 H 0.22339 0.37532 0.05631
 C2271 C 0.74183 0.81420 0.60785
 C2272 C 0.74234 0.82756 0.57787
 C2273 C 0.74527 0.80651 0.55218
 C2274 C 0.74572 0.77077 0.55713
 C2275 C 0.74460 0.75678 0.58808
 C2276 C 0.74353 0.77895 0.61387
 C2277 C 0.74389 0.72116 0.59173
 N2278 N 0.74534 0.70116 0.56641
 N2279 N 0.74715 0.71431 0.53766
 C2280 C 0.74735 0.74844 0.53216
 H2281 H 0.74082 0.83207 0.62668
 H2282 H 0.74166 0.85501 0.57469
 H2283 H 0.74154 0.70893 0.61426
 H2284 H 0.74821 0.75782 0.50838
 C2285 C 0.22600 0.69063 0.60740
 C2286 C 0.22673 0.67511 0.57854
 C2287 C 0.23851 0.69277 0.55213
 C2288 C 0.24740 0.72771 0.55466
 C2289 C 0.24729 0.74351 0.58428
 C2290 C 0.23749 0.72433 0.61118
 C2291 C 0.25867 0.77744 0.58591
 N2292 N 0.26838 0.79457 0.55967
 N2293 N 0.26781 0.78000 0.53198
 C2294 C 0.25778 0.74717 0.52862
 H2295 H 0.21819 0.67540 0.62746
 H2296 H 0.21983 0.64840 0.57715
 H2297 H 0.26009 0.79058 0.60765
 H2298 H 0.25769 0.73666 0.50565
 C2299 C 0.71737 0.18901 0.10404
 C2300 C 0.72417 0.17647 0.07452
 C2301 C 0.74409 0.19515 0.05322
 C2302 C 0.75541 0.22813 0.06117
 C2303 C 0.74838 0.24106 0.09116
 C2304 C 0.72995 0.22084 0.11321
 C2305 C 0.76177 0.27320 0.09856
 N2306 N 0.78008 0.29129 0.07720
 N2307 N 0.78624 0.27930 0.04905
 C2308 C 0.77463 0.24831 0.04034
 H2309 H 0.70408 0.17270 0.12064
 H2310 H 0.71567 0.15097 0.06903
 H2311 H 0.75784 0.28421 0.12100
 H2312 H 0.78050 0.23973 0.01723
 C2313 C 0.77774 0.23965 0.90151
 C2314 C 0.77776 0.22306 0.93067
 C2315 C 0.75004 0.20285 0.94102
 C2316 C 0.71997 0.20366 0.92295
 C2317 C 0.71923 0.22294 0.89450
 C2318 C 0.74933 0.23807 0.88219
 C2319 C 0.68830 0.22564 0.87853
 N2320 N 0.66083 0.20795 0.88879
 N2321 N 0.66223 0.18776 0.91398
 C2322 C 0.69086 0.18475 0.93120
 H2323 H 0.80092 0.25142 0.89309
 H2324 H 0.80088 0.22374 0.94423
 H2325 H 0.68575 0.24199 0.85814
 H2326 H 0.69033 0.16741 0.95083
 C2327 C 0.21832 0.72556 0.39723
 C2328 C 0.21882 0.70776 0.42570
 C2329 C 0.24836 0.70604 0.44345
 C2330 C 0.27665 0.72649 0.43383
 C2331 C 0.27666 0.74364 0.40423
 C2332 C 0.24750 0.74188 0.38497
 C2333 C 0.30647 0.76070 0.39475
 N2334 N 0.33348 0.76209 0.41418
 N2335 N 0.33288 0.74744 0.44235
 C2336 C 0.30543 0.72985 0.45282
 H2337 H 0.19542 0.72425 0.38340
 H2338 H 0.19675 0.69295 0.43260
 H2339 H 0.30879 0.77330 0.37241
 H2340 H 0.30614 0.71904 0.47605
 C2341 C 0.70841 0.80249 0.38888
 C2342 C 0.71254 0.81819 0.41767
 C2343 C 0.73872 0.80860 0.43800
 C2344 C 0.75943 0.78084 0.43012
 C2345 C 0.75466 0.76435 0.40126
 C2346 C 0.72978 0.77613 0.37992
 C2347 C 0.77611 0.73730 0.39410
 N2348 N 0.80056 0.72753 0.41448
 N2349 N 0.80516 0.74312 0.44141
 C2350 C 0.78555 0.76948 0.44987
 H2351 H 0.68980 0.81247 0.37265
 H2352 H 0.69662 0.83952 0.42320
 H2353 H 0.77341 0.72363 0.37266
 H2354 H 0.79053 0.78126 0.47196
 C2355 C 0.23893 0.25709 0.90349
 C2356 C 0.24195 0.27120 0.93321
 C2357 C 0.23323 0.30524 0.93852
 C2358 C 0.21887 0.32447 0.91342
 C2359 C 0.21468 0.30966 0.88369
 C2360 C 0.22666 0.27645 0.87814
 C2361 C 0.19989 0.32931 0.85963
 N2362 N 0.19091 0.36192 0.86472
 N2363 N 0.19603 0.37626 0.89213
 C2364 C 0.20994 0.35881 0.91643
 H2365 H 0.24884 0.23188 0.89976
 H2366 H 0.25365 0.25623 0.95166
 H2367 H 0.19532 0.31895 0.83685
 H2368 H 0.21407 0.37215 0.93762
 C2369 C 0.81966 0.41263 0.76469
 C2370 C 0.83661 0.44405 0.76149
 C2371 C 0.86924 0.44634 0.74877
 C2372 C 0.88494 0.41601 0.73912
 C2373 C 0.86743 0.38429 0.74154
 C2374 C 0.83471 0.38246 0.75508
 C2375 C 0.88390 0.35499 0.73118
 N2376 N 0.91585 0.35729 0.72004
 N2377 N 0.93254 0.38686 0.71859
 C2378 C 0.91830 0.41616 0.72794
 H2379 H 0.79446 0.41193 0.77443
 H2380 H 0.82475 0.46665 0.77030
 H2381 H 0.87213 0.33010 0.73260
 H2382 H 0.93329 0.43921 0.72666
 C2383 C 0.31028 0.91939 0.26484
 C2384 C 0.32948 0.94959 0.26284
 C2385 C 0.36296 0.94957 0.25210
 C2386 C 0.37717 0.91824 0.24314
 C2387 C 0.35748 0.88776 0.24445
 C2388 C 0.32391 0.88821 0.25602
 C2389 C 0.37258 0.85740 0.23491
 N2390 N 0.40524 0.85754 0.22552
 N2391 N 0.42387 0.88594 0.22499
 C2392 C 0.41104 0.91619 0.23360
 H2393 H 0.28456 0.92038 0.27326
 H2394 H 0.31858 0.97299 0.27097
 H2395 H 0.35900 0.83344 0.23534
 H2396 H 0.42747 0.93829 0.23297
 C2397 C 0.15242 0.88144 0.73734
 C2398 C 0.13272 0.91012 0.74212
 C2399 C 0.14503 0.94328 0.73571
 C2400 C 0.17819 0.94685 0.72327
 C2401 C 0.19831 0.91734 0.71839
 C2402 C 0.18538 0.88441 0.72587
 C2403 C 0.23123 0.92189 0.70693
 N2404 N 0.24332 0.95375 0.70079
 N2405 N 0.22478 0.98127 0.70560
 C2406 C 0.19280 0.97891 0.71674
 H2407 H 0.14215 0.85657 0.74368
 H2408 H 0.10741 0.90629 0.75112
 H2409 H 0.24738 0.90039 0.70275
 H2410 H 0.17938 1.00214 0.72069
 C2411 C 0.67999 0.39748 0.26002
 C2412 C 0.66126 0.42722 0.26248
 C2413 C 0.63931 0.43824 0.23886
 C2414 C 0.63758 0.41858 0.21131
 C2415 C 0.65467 0.38649 0.20962
 C2416 C 0.67698 0.37582 0.23429
 C2417 C 0.64779 0.36638 0.18339
 N2418 N 0.62819 0.37844 0.15987
 N2419 N 0.61454 0.40916 0.16059
 C2420 C 0.61866 0.42945 0.18538
 H2421 H 0.69646 0.39105 0.27937
 H2422 H 0.66353 0.44161 0.28364
 H2423 H 0.65662 0.34094 0.18098
 H2424 H 0.60741 0.45398 0.18412
 C2425 C 0.68423 0.59155 0.25983
 C2426 C 0.66632 0.56110 0.25467
 C2427 C 0.63238 0.56139 0.24505
 C2428 C 0.61658 0.59342 0.24022
 C2429 C 0.63475 0.62429 0.24547
 C2430 C 0.66870 0.62342 0.25612
 C2431 C 0.61817 0.65530 0.23970
 N2432 N 0.58552 0.65534 0.23006
 N2433 N 0.56836 0.62649 0.22563
 C2434 C 0.58273 0.59561 0.23039
 H2435 H 0.71054 0.59024 0.26673
 H2436 H 0.67868 0.53704 0.25942
 H2437 H 0.63081 0.67948 0.24290
 H2438 H 0.56765 0.57305 0.22622
 C2439 C 0.18536 0.09493 0.76096
 C2440 C 0.16842 0.06440 0.75433
 C2441 C 0.14053 0.06356 0.73390
 C2442 C 0.13033 0.09447 0.71943
 C2443 C 0.14743 0.12557 0.72619
 C2444 C 0.17490 0.12593 0.74764
 C2445 C 0.13584 0.15567 0.71163
 N2446 N 0.10913 0.15457 0.69181
 N2447 N 0.09314 0.12547 0.68559
 C2448 C 0.10272 0.09543 0.69882
 H2449 H 0.20693 0.09430 0.77653
 H2450 H 0.17593 0.04138 0.76673
 H2451 H 0.14743 0.18011 0.71617
 H2452 H 0.08897 0.07249 0.69290
 C2453 C 0.31419 0.10432 0.26297
 C2454 C 0.33539 0.07647 0.26746
 C2455 C 0.36170 0.06995 0.24687
 C2456 C 0.36524 0.09164 0.22003
 C2457 C 0.34391 0.12073 0.21567
 C2458 C 0.31849 0.12772 0.23794
 C2459 C 0.34991 0.14233 0.18969
 N2460 N 0.37435 0.13476 0.16906
 N2461 N 0.39374 0.10753 0.17293
 C2462 C 0.39032 0.08609 0.19780
 H2463 H 0.29485 0.10837 0.28024
 H2464 H 0.33168 0.06021 0.28786
 H2465 H 0.33568 0.16511 0.18521
 H2466 H 0.40732 0.06505 0.19983
 C2467 C 0.81377 0.59842 0.75114
 C2468 C 0.83456 0.57019 0.75601
 C2469 C 0.86655 0.56870 0.74239
 C2470 C 0.87706 0.59600 0.72232
 C2471 C 0.85588 0.62494 0.71736
 C2472 C 0.82402 0.62648 0.73247
 C2473 C 0.86830 0.65204 0.69865
 N2474 N 0.89922 0.65002 0.68538
 N2475 N 0.91878 0.62296 0.68980
 C2476 C 0.90883 0.59605 0.70789
 H2477 H 0.78983 0.59897 0.76327
 H2478 H 0.82607 0.54981 0.77154
 H2479 H 0.85399 0.67489 0.69446
 H2480 H 0.92593 0.57509 0.71096
 C2481 C 0.90042 0.71124 0.19547
 C2482 C 0.92743 0.71325 0.17517
 C2483 C 0.94287 0.74473 0.16893
 C2484 C 0.93466 0.77370 0.18636
 C2485 C 0.90746 0.77149 0.20707
 C2486 C 0.88907 0.74070 0.20959
 C2487 C 0.89885 0.80043 0.22399
 N2488 N 0.91702 0.82967 0.22027
 N2489 N 0.94299 0.83181 0.20069
 C2490 C 0.95238 0.80491 0.18352
 H2491 H 0.88626 0.68754 0.19764
 H2492 H 0.93423 0.69097 0.16219
 H2493 H 0.87829 0.79974 0.24050
 H2494 H 0.97395 0.80797 0.16833
 C2495 C 0.41862 0.20579 0.71268
 C2496 C 0.44864 0.20706 0.69613
 C2497 C 0.46482 0.23843 0.69064
 C2498 C 0.45478 0.26741 0.70698
 C2499 C 0.42413 0.26630 0.72330
 C2500 C 0.40490 0.23585 0.72375
 C2501 C 0.41310 0.29607 0.73755
 N2502 N 0.43217 0.32495 0.73558
 N2503 N 0.46133 0.32595 0.72017
 C2504 C 0.47326 0.29815 0.70569
 H2505 H 0.40417 0.18219 0.71353
 H2506 H 0.45640 0.18455 0.68397
 H2507 H 0.38974 0.29637 0.75045
 H2508 H 0.49706 0.30008 0.69341
 C2509 C 0.40068 0.72575 0.81541
 C2510 C 0.42872 0.72578 0.83485
 C2511 C 0.44396 0.75653 0.84311
 C2512 C 0.43245 0.78766 0.82995
 C2513 C 0.40218 0.78791 0.81271
 C2514 C 0.38676 0.75652 0.80475
 C2515 C 0.38775 0.81972 0.80541
 N2516 N 0.40499 0.84891 0.81129
 N2517 N 0.43541 0.84842 0.82456
 C2518 C 0.44978 0.81879 0.83405
 H2519 H 0.38902 0.70161 0.80955
 H2520 H 0.43773 0.70180 0.84449
 H2521 H 0.36262 0.82178 0.79607
 H2522 H 0.47454 0.81985 0.84470
 C2523 C 0.91291 0.22442 0.28511
 C2524 C 0.94280 0.22494 0.30194
 C2525 C 0.95901 0.25616 0.30707
 C2526 C 0.95226 0.28373 0.28633
 C2527 C 0.92320 0.28266 0.26717
 C2528 C 0.90094 0.25412 0.27029
 C2529 C 0.91767 0.31045 0.24660
 N2530 N 0.93962 0.33721 0.24581
 N2531 N 0.96682 0.33816 0.26408
 C2532 C 0.97397 0.31225 0.28422
 H2533 H 0.89750 0.20150 0.28628
 H2534 H 0.94951 0.20213 0.31479
 H2535 H 0.89744 0.31082 0.22996
 H2536 H 0.99684 0.31373 0.29804
 C2537 C 0.10320 0.27625 0.32742
 C2538 C 0.07156 0.27761 0.34047
 C2539 C 0.05651 0.24842 0.35397
 C2540 C 0.07389 0.21706 0.35419
 C2541 C 0.10649 0.21580 0.34099
 C2542 C 0.12057 0.24560 0.32708
 C2543 C 0.12417 0.18492 0.34273
 N2544 N 0.10950 0.15696 0.35612
 N2545 N 0.07850 0.15794 0.36797
 C2546 C 0.06028 0.18702 0.36750
 H2547 H 0.11370 0.29909 0.31646
 H2548 H 0.05839 0.30169 0.33948
 H2549 H 0.14967 0.18289 0.33411
 H2550 H 0.03549 0.18630 0.37746
 C2551 C 0.61887 0.74934 0.84436
 C2552 C 0.58930 0.75328 0.86063
 C2553 C 0.55904 0.75988 0.84487
 C2554 C 0.55827 0.76281 0.81216
 C2555 C 0.58864 0.75944 0.79545
 C2556 C 0.61889 0.75217 0.81197
 C2557 C 0.58775 0.76475 0.76298
 N2558 N 0.55807 0.77186 0.74850
 N2559 N 0.52934 0.77434 0.76428
 C2560 C 0.52843 0.77016 0.79564
 H2561 H 0.64195 0.74404 0.85714
 H2562 H 0.58989 0.75069 0.88578
 H2563 H 0.61029 0.76394 0.74900
 H2564 H 0.50458 0.77305 0.80736
 C2565 C 0.60505 0.25140 0.69675
 C2566 C 0.57381 0.24784 0.68306
 C2567 C 0.57119 0.24470 0.65093
 C2568 C 0.60031 0.24460 0.63194
 C2569 C 0.63216 0.24958 0.64578
 C2570 C 0.63419 0.25225 0.67850
 C2571 C 0.66065 0.25226 0.62633
 N2572 N 0.65729 0.24774 0.59529
 N2573 N 0.62739 0.24102 0.58242
 C2574 C 0.59878 0.23924 0.59965
 H2575 H 0.60653 0.25317 0.72185
 H2576 H 0.55149 0.24795 0.69760
 H2577 H 0.68539 0.25837 0.63530
 H2578 H 0.57528 0.23333 0.58798
 C2579 C 0.11517 0.76296 0.15630
 C2580 C 0.08485 0.76380 0.14050
 C2581 C 0.05429 0.76011 0.15657
 C2582 C 0.05425 0.75606 0.18942
 C2583 C 0.08527 0.75481 0.20549
 C2584 C 0.11560 0.75873 0.18855
 C2585 C 0.08490 0.74916 0.23797
 N2586 N 0.05510 0.74653 0.25326
 N2587 N 0.02578 0.74913 0.23825
 C2588 C 0.02443 0.75388 0.20697
 H2589 H 0.13847 0.76612 0.14332
 H2590 H 0.08529 0.76660 0.11537
 H2591 H 0.10787 0.74609 0.25129
 H2592 H 0.00019 0.75627 0.19631
   
