data_POSCAR
  _audit_creation_date              2014-09-24
  _audit_creation_method            'ToBaCCo'
  _symmetry_space_group_name_H-M    'P1'
  _symmetry_Int_Tables_number       1
  _symmetry_cell_setting            triclinic
  loop_
  _symmetry_equiv_pos_as_xyz
 x,y,z
_cell_length_a 76.2989
_cell_length_b 71.6919
_cell_length_c 75.7688
_cell_angle_alpha 89.622000
_cell_angle_beta 89.795800
_cell_angle_gamma 89.772000
loop_
  _atom_site_label
  _atom_site_type_symbol
  _atom_site_fract_x
  _atom_site_fract_y
  _atom_site_fract_z
C1 C 0.35332 0.35090 0.32976
 C2 C 0.36803 0.34333 0.32128
 C3 C 0.37599 0.32688 0.32762
 C4 C 0.36925 0.31829 0.34294
 C5 C 0.35459 0.32579 0.35165
 C6 C 0.34653 0.34211 0.34499
 C7 C 0.34508 0.36691 0.32301
 C8 C 0.33005 0.37430 0.33121
 C9 C 0.32342 0.36554 0.34649
 C10 C 0.33154 0.34949 0.35340
 C11 C 0.32471 0.34052 0.36840
 C12 C 0.33265 0.32422 0.37515
 C13 C 0.34766 0.31703 0.36672
 H14 H 0.37329 0.35029 0.30968
 H15 H 0.37510 0.30547 0.34782
 H16 H 0.35011 0.37331 0.31103
 H17 H 0.31195 0.37123 0.35303
 H18 H 0.31294 0.34598 0.37456
 H19 H 0.35399 0.30460 0.37190
 C20 C 0.35504 0.85441 -0.16513
 C21 C 0.37089 0.84742 -0.17184
 C22 C 0.37880 0.83123 -0.16464
 C23 C 0.37045 0.82243 -0.15015
 C24 C 0.35463 0.82938 -0.14327
 C25 C 0.34682 0.84534 -0.15087
 C26 C 0.34710 0.87005 -0.17293
 C27 C 0.33083 0.87702 -0.16678
 C28 C 0.32284 0.86778 -0.15229
 C29 C 0.33070 0.85210 -0.14436
 C30 C 0.32257 0.84293 -0.13011
 C31 C 0.33031 0.82704 -0.12234
 C32 C 0.34641 0.82045 -0.12898
 H33 H 0.37642 0.85418 -0.18338
 H34 H 0.37638 0.81042 -0.14379
 H35 H 0.35334 0.87608 -0.18446
 H36 H 0.31072 0.87299 -0.14669
 H37 H 0.31001 0.84793 -0.12532
 H38 H 0.35261 0.80836 -0.12297
 C39 C 0.85425 0.35092 -0.16786
 C40 C 0.86987 0.34393 -0.17509
 C41 C 0.87792 0.32763 -0.16826
 C42 C 0.86990 0.31867 -0.15367
 C43 C 0.85430 0.32560 -0.14628
 C44 C 0.84639 0.34171 -0.15348
 C45 C 0.84620 0.36677 -0.17520
 C46 C 0.83019 0.37378 -0.16844
 C47 C 0.82256 0.36438 -0.15386
 C48 C 0.83052 0.34851 -0.14640
 C49 C 0.82276 0.33924 -0.13202
 C50 C 0.83062 0.32323 -0.12462
 C51 C 0.84645 0.31656 -0.13183
 H52 H 0.87514 0.35082 -0.18668
 H53 H 0.87595 0.30657 -0.14758
 H54 H 0.85216 0.37296 -0.18680
 H55 H 0.81068 0.36962 -0.14779
 H56 H 0.81039 0.34429 -0.12680
 H57 H 0.85273 0.30437 -0.12612
 C58 C 0.85531 0.84886 0.33426
 C59 C 0.87125 0.84193 0.32776
 C60 C 0.87917 0.82614 0.33544
 C61 C 0.87100 0.81735 0.34990
 C62 C 0.85499 0.82411 0.35650
 C63 C 0.84708 0.83990 0.34860
 C64 C 0.84735 0.86439 0.32629
 C65 C 0.83106 0.87136 0.33235
 C66 C 0.82298 0.86216 0.34681
 C67 C 0.83085 0.84657 0.35491
 C68 C 0.82265 0.83743 0.36914
 C69 C 0.83043 0.82166 0.37709
 C70 C 0.84668 0.81519 0.37072
 H71 H 0.87731 0.84859 0.31640
 H72 H 0.87708 0.80525 0.35600
 H73 H 0.85365 0.87034 0.31476
 H74 H 0.81081 0.86735 0.35231
 H75 H 0.81000 0.84235 0.37376
 H76 H 0.85290 0.80321 0.37689
 C77 C 0.64862 0.65216 0.32747
 C78 C 0.63340 0.65967 0.31989
 C79 C 0.62400 0.67403 0.32831
 C80 C 0.63017 0.68104 0.34444
 C81 C 0.64542 0.67368 0.35222
 C82 C 0.65460 0.65911 0.34373
 C83 C 0.65801 0.63789 0.31898
 C84 C 0.67329 0.63034 0.32660
 C85 C 0.67900 0.63719 0.34293
 C86 C 0.66984 0.65153 0.35147
 C87 C 0.67580 0.65847 0.36758
 C88 C 0.66684 0.67302 0.37612
 C89 C 0.65164 0.68060 0.36835
 H90 H 0.62897 0.65445 0.30728
 H91 H 0.62296 0.69202 0.35108
 H92 H 0.65356 0.63288 0.30630
 H93 H 0.69055 0.63125 0.34912
 H94 H 0.68769 0.65280 0.37331
 H95 H 0.64461 0.69175 0.37492
 C96 C 0.65247 0.14985 -0.17274
 C97 C 0.63750 0.15823 -0.18017
 C98 C 0.62892 0.17306 -0.17158
 C99 C 0.63536 0.17926 -0.15526
 C100 C 0.65034 0.17115 -0.14775
 C101 C 0.65894 0.15642 -0.15654
 C102 C 0.66128 0.13531 -0.18149
 C103 C 0.67670 0.12720 -0.17438
 C104 C 0.68278 0.13393 -0.15801
 C105 C 0.67413 0.14839 -0.14919
 C106 C 0.68063 0.15509 -0.13316
 C107 C 0.67225 0.16986 -0.12436
 C108 C 0.65700 0.17774 -0.13172
 H109 H 0.63279 0.15350 -0.19284
 H110 H 0.62869 0.19045 -0.14838
 H111 H 0.65644 0.13105 -0.19424
 H112 H 0.69399 0.12757 -0.15161
 H113 H 0.69257 0.14915 -0.12777
 H114 H 0.65034 0.18903 -0.12497
 C115 C 0.15031 0.64964 -0.17152
 C116 C 0.13558 0.65814 -0.17925
 C117 C 0.12752 0.67372 -0.17138
 C118 C 0.13436 0.68068 -0.15550
 C119 C 0.14913 0.67242 -0.14767
 C120 C 0.15709 0.65681 -0.15568
 C121 C 0.15840 0.63415 -0.17945
 C122 C 0.17327 0.62548 -0.17178
 C123 C 0.17985 0.63300 -0.15593
 C124 C 0.17193 0.64846 -0.14793
 C125 C 0.17887 0.65587 -0.13237
 C126 C 0.17112 0.67147 -0.12430
 C127 C 0.15616 0.67962 -0.13202
 H128 H 0.13061 0.65284 -0.19162
 H129 H 0.12814 0.69249 -0.14915
 H130 H 0.15255 0.62855 -0.19126
 H131 H 0.19169 0.62747 -0.15002
 H132 H 0.19057 0.64967 -0.12673
 H133 H 0.14996 0.69153 -0.12581
 C134 C 0.14819 0.15390 0.32936
 C135 C 0.13305 0.16194 0.32194
 C136 C 0.12504 0.17789 0.32946
 C137 C 0.13255 0.18529 0.34495
 C138 C 0.14765 0.17742 0.35245
 C139 C 0.15549 0.16168 0.34466
 C140 C 0.15622 0.13829 0.32155
 C141 C 0.17151 0.13012 0.32887
 C142 C 0.17856 0.13822 0.34425
 C143 C 0.17073 0.15382 0.35210
 C144 C 0.17819 0.16191 0.36712
 C145 C 0.17052 0.17770 0.37494
 C146 C 0.15511 0.18523 0.36760
 H147 H 0.12815 0.15614 0.30978
 H148 H 0.12646 0.19690 0.35169
 H149 H 0.15005 0.13222 0.31013
 H150 H 0.19069 0.13305 0.34984
 H151 H 0.19021 0.15614 0.37248
 H152 H 0.14892 0.19723 0.37366
 C153 C 0.64863 0.34975 0.67271
 C154 C 0.63343 0.34169 0.67978
 C155 C 0.62529 0.32660 0.67138
 C156 C 0.63270 0.31946 0.65578
 C157 C 0.64796 0.32739 0.64852
 C158 C 0.65592 0.34263 0.65701
 C159 C 0.65664 0.36480 0.68115
 C160 C 0.67183 0.37306 0.67407
 C161 C 0.67903 0.36590 0.65837
 C162 C 0.67120 0.35075 0.64983
 C163 C 0.67842 0.34359 0.63424
 C164 C 0.67061 0.32841 0.62564
 C165 C 0.65535 0.32040 0.63289
 H166 H 0.62802 0.34706 0.69199
 H167 H 0.62646 0.30791 0.64916
 H168 H 0.65113 0.36995 0.69340
 H169 H 0.69060 0.37228 0.65265
 H170 H 0.69033 0.34966 0.62894
 H171 H 0.64911 0.30885 0.62627
 C172 C 0.64692 0.84859 1.17209
 C173 C 0.63125 0.84177 1.17935
 C174 C 0.62255 0.82631 1.17192
 C175 C 0.62998 0.81807 1.15670
 C176 C 0.64561 0.82481 1.14927
 C177 C 0.65415 0.84007 1.15703
 C178 C 0.65559 0.86368 1.17986
 C179 C 0.67146 0.87036 1.17279
 C180 C 0.67855 0.86178 1.15771
 C181 C 0.67000 0.84675 1.14978
 C182 C 0.67716 0.83817 1.13481
 C183 C 0.66868 0.82301 1.12687
 C184 C 0.65287 0.81646 1.13419
 H185 H 0.62646 0.84809 1.19138
 H186 H 0.62341 0.80672 1.15012
 H187 H 0.64989 0.87034 1.19134
 H188 H 0.69091 0.86661 1.15231
 H189 H 0.68952 0.84312 1.12951
 H190 H 0.64613 0.80490 1.12808
 C191 C 0.14601 0.34700 1.17165
 C192 C 0.13014 0.33984 1.17800
 C193 C 0.12181 0.32468 1.16968
 C194 C 0.12993 0.31693 1.15456
 C195 C 0.14569 0.32427 1.14783
 C196 C 0.15379 0.33931 1.15648
 C197 C 0.15432 0.36164 1.18046
 C198 C 0.17042 0.36872 1.17438
 C199 C 0.17797 0.36120 1.15903
 C200 C 0.16974 0.34661 1.15003
 C201 C 0.17730 0.33910 1.13478
 C202 C 0.16920 0.32435 1.12582
 C203 C 0.15346 0.31689 1.13253
 H204 H 0.12485 0.34561 1.19007
 H205 H 0.12373 0.30566 1.14752
 H206 H 0.14818 0.36760 1.19206
 H207 H 0.19044 0.36644 1.15427
 H208 H 0.18964 0.34462 1.12996
 H209 H 0.14713 0.30556 1.12567
 C210 C 0.14992 0.84775 0.67273
 C211 C 0.13461 0.84004 0.68003
 C212 C 0.12609 0.82479 0.67199
 C213 C 0.13356 0.81745 0.65636
 C214 C 0.14882 0.82504 0.64893
 C215 C 0.15698 0.84029 0.65707
 C216 C 0.15837 0.86272 0.68098
 C217 C 0.17382 0.87032 0.67376
 C218 C 0.18053 0.86299 0.65793
 C219 C 0.17233 0.84797 0.64964
 C220 C 0.17941 0.84034 0.63417
 C221 C 0.17159 0.82483 0.62614
 C222 C 0.15622 0.81733 0.63362
 H223 H 0.12912 0.84655 0.69165
 H224 H 0.12806 0.80523 0.65021
 H225 H 0.15318 0.86812 0.69326
 H226 H 0.19222 0.86895 0.65204
 H227 H 0.19106 0.84650 0.62840
 H228 H 0.15019 0.80522 0.62774
 C229 C 0.35243 0.65259 0.67341
 C230 C 0.36689 0.66126 0.68126
 C231 C 0.37436 0.67731 0.67360
 C232 C 0.36737 0.68442 0.65778
 C233 C 0.35283 0.67605 0.64993
 C234 C 0.34529 0.66009 0.65774
 C235 C 0.34479 0.63678 0.68118
 C236 C 0.33008 0.62829 0.67351
 C237 C 0.32304 0.63589 0.65788
 C238 C 0.33048 0.65177 0.64999
 C239 C 0.32316 0.65969 0.63468
 C240 C 0.33047 0.67582 0.62700
 C241 C 0.34551 0.68366 0.63456
 H242 H 0.37204 0.65578 0.69357
 H243 H 0.37320 0.69659 0.65160
 H244 H 0.35009 0.63130 0.69342
 H245 H 0.31181 0.62939 0.65177
 H246 H 0.31147 0.65361 0.62907
 H247 H 0.35148 0.69586 0.62856
 C248 C 0.35550 0.14987 1.16920
 C249 C 0.37114 0.15694 1.17605
 C250 C 0.37922 0.17290 1.16863
 C251 C 0.37119 0.18142 1.15383
 C252 C 0.35554 0.17441 1.14683
 C253 C 0.34761 0.15864 1.15461
 C254 C 0.34744 0.13437 1.17711
 C255 C 0.33142 0.12727 1.17072
 C256 C 0.32375 0.13624 1.15594
 C257 C 0.33171 0.15177 1.14790
 C258 C 0.32392 0.16063 1.13333
 C259 C 0.33178 0.17631 1.12538
 C260 C 0.34765 0.18304 1.13220
 H261 H 0.37641 0.15042 1.18782
 H262 H 0.37725 0.19322 1.14729
 H263 H 0.35342 0.12854 1.18885
 H264 H 0.31185 0.13091 1.15015
 H265 H 0.31152 0.15553 1.12840
 H266 H 0.35393 0.19497 1.12606
 C267 C 0.85492 0.65484 1.17063
 C268 C 0.86972 0.66331 1.17804
 C269 C 0.87707 0.67936 1.17027
 C270 C 0.86961 0.68669 1.15476
 C271 C 0.85472 0.67851 1.14736
 C272 C 0.84729 0.66257 1.15534
 C273 C 0.84742 0.63905 1.17858
 C274 C 0.83219 0.63070 1.17161
 C275 C 0.82472 0.63873 1.15625
 C276 C 0.83211 0.65452 1.14815
 C277 C 0.82438 0.66257 1.13310
 C278 C 0.83162 0.67862 1.12519
 C279 C 0.84695 0.68630 1.13229
 H280 H 0.87523 0.65768 1.19012
 H281 H 0.87533 0.69886 1.14848
 H282 H 0.85314 0.63396 1.19075
 H283 H 0.81345 0.63246 1.15005
 H284 H 0.81245 0.65667 1.12786
 H285 H 0.85282 0.69847 1.12614
 C286 C 0.85256 0.15353 0.66819
 C287 C 0.86733 0.16198 0.67565
 C288 C 0.87464 0.17811 0.66797
 C289 C 0.86710 0.18557 0.65255
 C290 C 0.85222 0.17741 0.64509
 C291 C 0.84489 0.16134 0.65292
 C292 C 0.84514 0.13760 0.67597
 C293 C 0.83015 0.12929 0.66870
 C294 C 0.82257 0.13722 0.65347
 C295 C 0.82978 0.15323 0.64559
 C296 C 0.82194 0.16144 0.63068
 C297 C 0.82905 0.17767 0.62297
 C298 C 0.84438 0.18533 0.63012
 H299 H 0.87286 0.15624 0.68767
 H300 H 0.87278 0.19781 0.64635
 H301 H 0.85086 0.13188 0.68792
 H302 H 0.81111 0.13087 0.64766
 H303 H 0.81003 0.15551 0.62542
 H304 H 0.85019 0.19760 0.62409
 C305 C 0.35358 0.34618 0.67070
 C306 C 0.34498 0.36153 0.67828
 C307 C 0.32966 0.36894 0.67063
 C308 C 0.32307 0.36079 0.65519
 C309 C 0.33160 0.34554 0.64743
 C310 C 0.34688 0.33812 0.65522
 C311 C 0.36879 0.33878 0.67839
 C312 C 0.37747 0.32341 0.67084
 C313 C 0.37066 0.31538 0.65541
 C314 C 0.35542 0.32264 0.64754
 C315 C 0.34862 0.31475 0.63208
 C316 C 0.33347 0.32224 0.62416
 C317 C 0.32502 0.33757 0.63200
 H318 H 0.35034 0.36784 0.69003
 H319 H 0.31113 0.36617 0.64931
 H320 H 0.37374 0.34485 0.69044
 H321 H 0.37734 0.30365 0.64940
 H322 H 0.35524 0.30298 0.62605
 H323 H 0.31316 0.34320 0.62616
 C324 C 0.34909 0.84746 0.17163
 C325 C 0.34154 0.86317 0.17962
 C326 C 0.32641 0.87160 0.17253
 C327 C 0.31891 0.86409 0.15721
 C328 C 0.32629 0.84835 0.14911
 C329 C 0.34143 0.83998 0.15633
 C330 C 0.36414 0.83908 0.17877
 C331 C 0.37165 0.82318 0.17093
 C332 C 0.36390 0.81580 0.15566
 C333 C 0.34887 0.82409 0.14830
 C334 C 0.34113 0.81671 0.13309
 C335 C 0.32602 0.82499 0.12578
 C336 C 0.31871 0.84081 0.13393
 H337 H 0.34728 0.86863 0.19157
 H338 H 0.30742 0.87062 0.15146
 H339 H 0.37013 0.84511 0.19034
 H340 H 0.36938 0.80340 0.14964
 H341 H 0.34700 0.80466 0.12682
 H342 H 0.30689 0.84710 0.12862
 C343 C 0.85115 0.34764 0.16910
 C344 C 0.84343 0.36337 0.17695
 C345 C 0.82846 0.37179 0.16951
 C346 C 0.82125 0.36423 0.15408
 C347 C 0.82886 0.34860 0.14606
 C348 C 0.84387 0.34026 0.15356
 C349 C 0.86593 0.33907 0.17665
 C350 C 0.87358 0.32321 0.16886
 C351 C 0.86634 0.31613 0.15322
 C352 C 0.85151 0.32446 0.14559
 C353 C 0.84411 0.31713 0.13019
 C354 C 0.82905 0.32531 0.12270
 C355 C 0.82154 0.34106 0.13075
 H356 H 0.84919 0.36917 0.18875
 H357 H 0.80951 0.37034 0.14843
 H358 H 0.87121 0.34451 0.18882
 H359 H 0.87228 0.30411 0.14694
 H360 H 0.85011 0.30510 0.12399
 H361 H 0.80976 0.34728 0.12528
 C362 C 0.85292 0.84468 0.66799
 C363 C 0.84473 0.86027 0.67560
 C364 C 0.82936 0.86787 0.66822
 C365 C 0.82226 0.85963 0.65306
 C366 C 0.83037 0.84414 0.64527
 C367 C 0.84572 0.83655 0.65276
 C368 C 0.86820 0.83710 0.67538
 C369 C 0.87647 0.82149 0.66780
 C370 C 0.86916 0.81341 0.65263
 C371 C 0.85385 0.82084 0.64504
 C372 C 0.84655 0.81292 0.62981
 C373 C 0.83131 0.82058 0.62220
 C374 C 0.82328 0.83611 0.63012
 H375 H 0.85046 0.86664 0.68715
 H376 H 0.81026 0.86513 0.64741
 H377 H 0.87353 0.84322 0.68724
 H378 H 0.87552 0.80149 0.64659
 H379 H 0.85286 0.80100 0.62373
 H380 H 0.81133 0.84185 0.62456
 C381 C 0.64376 0.65032 0.67314
 C382 C 0.65173 0.63505 0.68157
 C383 C 0.66702 0.62688 0.67457
 C384 C 0.67433 0.63426 0.65894
 C385 C 0.66658 0.64963 0.65042
 C386 C 0.65118 0.65762 0.65750
 C387 C 0.62873 0.65870 0.68037
 C388 C 0.62094 0.67428 0.67211
 C389 C 0.62822 0.68118 0.65630
 C390 C 0.64335 0.67311 0.64907
 C391 C 0.65099 0.68060 0.63378
 C392 C 0.66660 0.67309 0.62689
 C393 C 0.67419 0.65740 0.63517
 H394 H 0.64621 0.62977 0.69381
 H395 H 0.68603 0.62800 0.65335
 H396 H 0.62340 0.65341 0.69269
 H397 H 0.62218 0.69300 0.64967
 H398 H 0.64484 0.69246 0.62732
 H399 H 0.68633 0.65160 0.63009
 C400 C 0.64726 0.14709 0.17093
 C401 C 0.65503 0.13131 0.17870
 C402 C 0.67018 0.12322 0.17132
 C403 C 0.67738 0.13101 0.15583
 C404 C 0.66983 0.14687 0.14798
 C405 C 0.65474 0.15498 0.15558
 C406 C 0.63226 0.15522 0.17841
 C407 C 0.62466 0.17128 0.17085
 C408 C 0.63230 0.17914 0.15561
 C409 C 0.64723 0.17108 0.14792
 C410 C 0.65488 0.17904 0.13281
 C411 C 0.66992 0.17104 0.12512
 C412 C 0.67723 0.15485 0.13275
 H413 H 0.64951 0.12560 0.19077
 H414 H 0.68889 0.12472 0.14987
 H415 H 0.62639 0.14893 0.19005
 H416 H 0.62678 0.19174 0.14986
 H417 H 0.64930 0.19169 0.12724
 H418 H 0.68867 0.14841 0.12681
 C419 C 0.14334 0.64842 0.16898
 C420 C 0.15070 0.63276 0.17731
 C421 C 0.16536 0.62365 0.16999
 C422 C 0.17253 0.63037 0.15404
 C423 C 0.16540 0.64614 0.14562
 C424 C 0.15073 0.65519 0.15311
 C425 C 0.12894 0.65768 0.17649
 C426 C 0.12176 0.67364 0.16834
 C427 C 0.12914 0.68022 0.15246
 C428 C 0.14361 0.67117 0.14486
 C429 C 0.15127 0.67813 0.12935
 C430 C 0.16602 0.66934 0.12187
 C431 C 0.17288 0.65320 0.13001
 H432 H 0.14527 0.62794 0.18975
 H433 H 0.18370 0.62334 0.14817
 H434 H 0.12357 0.65270 0.18891
 H435 H 0.12360 0.69239 0.14597
 H436 H 0.14606 0.69075 0.12339
 H437 H 0.18411 0.64618 0.12425
 C438 C 0.14602 0.15060 0.66964
 C439 C 0.15401 0.13508 0.67764
 C440 C 0.16931 0.12714 0.67041
 C441 C 0.17659 0.13498 0.65498
 C442 C 0.16882 0.15059 0.64688
 C443 C 0.15343 0.15837 0.65418
 C444 C 0.13098 0.15876 0.67709
 C445 C 0.12319 0.17457 0.66926
 C446 C 0.13046 0.18195 0.65363
 C447 C 0.14559 0.17410 0.64618
 C448 C 0.15320 0.18203 0.63106
 C449 C 0.16879 0.17469 0.62394
 C450 C 0.17640 0.15879 0.63182
 H451 H 0.14850 0.12942 0.68973
 H452 H 0.18829 0.12890 0.64920
 H453 H 0.12564 0.15310 0.68926
 H454 H 0.12442 0.19395 0.64732
 H455 H 0.14705 0.19407 0.62492
 H456 H 0.18852 0.15313 0.62657
 C457 C 0.34939 0.64946 0.32827
 C458 C 0.34027 0.63452 0.32081
 C459 C 0.32453 0.62811 0.32841
 C460 C 0.31801 0.63687 0.34366
 C461 C 0.32705 0.65175 0.35132
 C462 C 0.34281 0.65808 0.34361
 C463 C 0.36491 0.65604 0.32049
 C464 C 0.37401 0.67114 0.32783
 C465 C 0.36747 0.67947 0.34330
 C466 C 0.35191 0.67311 0.35117
 C467 C 0.34522 0.68169 0.36638
 C468 C 0.32941 0.67558 0.37408
 C469 C 0.32044 0.66056 0.36644
 H470 H 0.34553 0.62775 0.30919
 H471 H 0.30574 0.63228 0.34945
 H472 H 0.36966 0.64968 0.30843
 H473 H 0.37451 0.69092 0.34923
 H474 H 0.35235 0.69310 0.37227
 H475 H 0.30811 0.65593 0.37206
 C476 C 0.35219 0.15213 0.82944
 C477 C 0.34420 0.13689 0.82123
 C478 C 0.32887 0.12890 0.82832
 C479 C 0.32164 0.13634 0.84388
 C480 C 0.32946 0.15161 0.85219
 C481 C 0.34476 0.15958 0.84495
 C482 C 0.36744 0.16007 0.82232
 C483 C 0.37536 0.17554 0.83036
 C484 C 0.36780 0.18293 0.84581
 C485 C 0.35260 0.17504 0.85317
 C486 C 0.34507 0.18240 0.86860
 C487 C 0.32984 0.17445 0.87594
 C488 C 0.32214 0.15906 0.86761
 H489 H 0.34976 0.13147 0.80912
 H490 H 0.31001 0.13012 0.84963
 H491 H 0.37327 0.15404 0.81060
 H492 H 0.37358 0.19503 0.85198
 H493 H 0.35120 0.19415 0.87501
 H494 H 0.31022 0.15306 0.87297
 C495 C 0.85184 0.65203 0.83001
 C496 C 0.84310 0.63674 0.82270
 C497 C 0.82733 0.63021 0.83013
 C498 C 0.82037 0.63921 0.84506
 C499 C 0.82901 0.65445 0.85256
 C500 C 0.84480 0.66090 0.84503
 C501 C 0.86744 0.65868 0.82245
 C502 C 0.87615 0.67411 0.82968
 C503 C 0.86912 0.68275 0.84477
 C504 C 0.85350 0.67630 0.85244
 C505 C 0.84638 0.68508 0.86734
 C506 C 0.83057 0.67881 0.87489
 C507 C 0.82199 0.66346 0.86738
 H508 H 0.84869 0.62979 0.81132
 H509 H 0.80807 0.63453 0.85071
 H510 H 0.87260 0.65209 0.81069
 H511 H 0.87585 0.69446 0.85060
 H512 H 0.85322 0.69675 0.87314
 H513 H 0.80965 0.65870 0.87289
 C514 C 0.84994 0.15137 0.32930
 C515 C 0.84228 0.13588 0.32120
 C516 C 0.82724 0.12744 0.32846
 C517 C 0.81986 0.13481 0.34398
 C518 C 0.82731 0.15037 0.35216
 C519 C 0.84243 0.15866 0.34485
 C520 C 0.86486 0.15982 0.32196
 C521 C 0.87251 0.17543 0.32999
 C522 C 0.86500 0.18250 0.34560
 C523 C 0.84998 0.17431 0.35300
 C524 C 0.84230 0.18162 0.36836
 C525 C 0.82710 0.17355 0.37565
 C526 C 0.81976 0.15785 0.36747
 H527 H 0.84790 0.13055 0.30908
 H528 H 0.80840 0.12831 0.34981
 H529 H 0.87031 0.15443 0.30979
 H530 H 0.87089 0.19437 0.35204
 H531 H 0.84820 0.19356 0.37468
 H532 H 0.80790 0.15169 0.37280
 C533 C 0.64694 0.35201 0.32625
 C534 C 0.65513 0.36739 0.31828
 C535 C 0.67020 0.37531 0.32576
 C536 C 0.67709 0.36755 0.34139
 C537 C 0.66911 0.35208 0.34948
 C538 C 0.65392 0.34436 0.34194
 C539 C 0.63213 0.34389 0.31855
 C540 C 0.62411 0.32824 0.32639
 C541 C 0.63091 0.32102 0.34226
 C542 C 0.64583 0.32882 0.34995
 C543 C 0.65298 0.32102 0.36532
 C544 C 0.66840 0.32826 0.37269
 C545 C 0.67626 0.34398 0.36479
 H546 H 0.64994 0.37297 0.30603
 H547 H 0.68862 0.37362 0.34734
 H548 H 0.62714 0.34945 0.30621
 H549 H 0.62467 0.30917 0.34858
 H550 H 0.64660 0.30916 0.37148
 H551 H 0.68825 0.34958 0.37022
 C552 C 0.64849 0.84983 0.82774
 C553 C 0.65658 0.86508 0.81945
 C554 C 0.67180 0.87305 0.82656
 C555 C 0.67894 0.86548 0.84217
 C556 C 0.67105 0.85014 0.85058
 C557 C 0.65572 0.84235 0.84338
 C558 C 0.63349 0.84169 0.82043
 C559 C 0.62555 0.82619 0.82860
 C560 C 0.63265 0.81907 0.84437
 C561 C 0.64773 0.82692 0.85169
 C562 C 0.65513 0.81929 0.86700
 C563 C 0.67064 0.82661 0.87405
 C564 C 0.67841 0.84223 0.86588
 H565 H 0.65119 0.87051 0.80723
 H566 H 0.69058 0.87158 0.84785
 H567 H 0.62826 0.84715 0.80815
 H568 H 0.62648 0.80732 0.85093
 H569 H 0.64885 0.80749 0.87338
 H570 H 0.69046 0.84789 0.87111
 C571 C 0.14734 0.34634 0.82791
 C572 C 0.15535 0.36168 0.81969
 C573 C 0.17054 0.36968 0.82685
 C574 C 0.17773 0.36202 0.84239
 C575 C 0.16991 0.34659 0.85071
 C576 C 0.15460 0.33878 0.84349
 C577 C 0.13234 0.33821 0.82059
 C578 C 0.12442 0.32266 0.82869
 C579 C 0.13159 0.31544 0.84440
 C580 C 0.14667 0.32328 0.85174
 C581 C 0.15411 0.31561 0.86703
 C582 C 0.16960 0.32298 0.87411
 C583 C 0.17732 0.33864 0.86596
 H584 H 0.14992 0.36718 0.80752
 H585 H 0.18934 0.36816 0.84811
 H586 H 0.12709 0.34374 0.80834
 H587 H 0.12545 0.30363 0.85090
 H588 H 0.14786 0.30378 0.87339
 H589 H 0.18936 0.34433 0.87117
 C590 C 0.14841 0.85010 0.33038
 C591 C 0.15615 0.86574 0.32240
 C592 C 0.17120 0.87391 0.32968
 C593 C 0.17850 0.86616 0.34512
 C594 C 0.17097 0.85044 0.35320
 C595 C 0.15581 0.84244 0.34585
 C596 C 0.13359 0.84176 0.32291
 C597 C 0.12601 0.82587 0.33074
 C598 C 0.13329 0.81855 0.34635
 C599 C 0.14819 0.82661 0.35383
 C600 C 0.15579 0.81880 0.36897
 C601 C 0.17117 0.82635 0.37614
 C602 C 0.17855 0.84235 0.36830
 H603 H 0.15063 0.87132 0.31030
 H604 H 0.19002 0.87242 0.35092
 H605 H 0.12824 0.84737 0.31074
 H606 H 0.12740 0.80648 0.35265
 H607 H 0.14980 0.80670 0.37511
 H608 H 0.19050 0.84818 0.37360
 O609 O 0.24853 1.01985 0.27344
 O610 O 0.27245 0.98342 0.24934
 O611 O 0.27303 1.01958 0.24946
 O612 O 0.24775 0.98354 0.27303
 O613 O 0.22755 0.98475 0.25229
 O614 O 0.25312 1.02038 0.22844
 O615 O 0.25231 0.98394 0.22852
 O616 O 0.22857 1.02106 0.25248
 Cu617 Cu 0.26242 1.00153 0.26342
 Cu618 Cu 0.23838 1.00263 0.23832
 C619 C 0.23451 1.02675 0.26713
 C620 C 0.26648 0.97738 0.23485
 C621 C 0.26746 1.02611 0.23489
 C622 C 0.23330 0.97798 0.26669
 O623 O 0.25372 0.51688 0.72713
 O624 O 0.22803 0.48053 0.74991
 O625 O 0.22924 0.51679 0.75105
 O626 O 0.25249 0.48055 0.72574
 O627 O 0.27253 0.47852 0.74659
 O628 O 0.24941 0.51488 0.77177
 O629 O 0.24822 0.47860 0.77063
 O630 O 0.27396 0.51480 0.74778
 Cu631 Cu 0.23886 0.49885 0.73636
 Cu632 Cu 0.26305 0.49653 0.76127
 C633 C 0.26823 0.52210 0.73360
 C634 C 0.23373 0.47334 0.76417
 C635 C 0.23539 0.52207 0.76575
 C636 C 0.26644 0.47328 0.73185
 O637 O 0.74992 -0.02079 0.22854
 O638 O 0.77357 0.01563 0.25243
 O639 O 0.77409 -0.02059 0.25275
 O640 O 0.74881 0.01545 0.22894
 O641 O 0.72850 0.01440 0.24972
 O642 O 0.75405 -0.02103 0.27380
 O643 O 0.75331 0.01542 0.27327
 O644 O 0.72991 -0.02184 0.24961
 Cu645 Cu 0.76361 -0.00253 0.23857
 Cu646 Cu 0.73944 -0.00332 0.26372
 C647 C 0.73591 -0.02758 0.23492
 C648 C 0.76750 0.02185 0.26687
 C649 C 0.76841 -0.02694 0.26738
 C650 C 0.73425 0.02101 0.23524
 O651 O 0.75114 0.48220 0.77698
 O652 O 0.72524 0.51815 0.75373
 O653 O 0.72639 0.48196 0.75341
 O654 O 0.74989 0.51852 0.77744
 O655 O 0.76971 0.51985 0.75621
 O656 O 0.74641 0.48277 0.73234
 O657 O 0.74515 0.51915 0.73256
 O658 O 0.77115 0.48355 0.75594
 Cu659 Cu 0.73618 0.50010 0.76752
 Cu660 Cu 0.76010 0.50142 0.74214
 C661 C 0.76561 0.47674 0.77043
 C662 C 0.73076 0.52478 0.73915
 C663 C 0.73235 0.47608 0.73878
 C664 C 0.76377 0.52552 0.77093
 O665 O 0.22213 0.51570 0.25122
 O666 O 0.24858 0.48104 0.27565
 O667 O 0.24649 0.51725 0.27524
 O668 O 0.22396 0.47942 0.25218
 O669 O 0.24390 0.48020 0.23104
 O670 O 0.26649 0.51834 0.25416
 O671 O 0.26865 0.48215 0.25463
 O672 O 0.24223 0.51655 0.23024
 Cu673 Cu 0.23326 0.49829 0.26566
 Cu674 Cu 0.25731 0.49939 0.24039
 C675 C 0.22769 0.52209 0.23656
 C676 C 0.26319 0.47570 0.26929
 C677 C 0.26035 0.52426 0.26871
 C678 C 0.23007 0.47325 0.23773
 O679 O 0.75533 1.01741 0.72361
 O680 O 0.72976 0.98171 0.74738
 O681 O 0.73131 1.01796 0.74794
 O682 O 0.75391 0.98104 0.72287
 O683 O 0.77423 0.97920 0.74344
 O684 O 0.75186 1.01627 0.76830
 O685 O 0.75023 0.97999 0.76782
 O686 O 0.77593 1.01550 0.74390
 Cu687 Cu 0.74054 0.99965 0.73338
 Cu688 Cu 0.76511 0.99757 0.75791
 C689 C 0.76997 1.02264 0.72974
 C690 C 0.73559 0.97476 0.76168
 C691 C 0.73780 1.02350 0.76240
 C692 C 0.76790 0.97375 0.72889
 O693 O 0.75121 0.51968 0.27079
 O694 O 0.77384 0.48257 0.24609
 O695 O 0.77572 0.51885 0.24690
 O696 O 0.74939 0.48334 0.27005
 O697 O 0.72936 0.48526 0.24920
 O698 O 0.75555 0.52101 0.22619
 O699 O 0.75391 0.48475 0.22515
 O700 O 0.73101 0.52147 0.25008
 Cu701 Cu 0.76454 0.50091 0.26055
 Cu702 Cu 0.74045 0.50328 0.23556
 C703 C 0.73727 0.52695 0.26466
 C704 C 0.76775 0.47733 0.23135
 C705 C 0.77011 0.52609 0.23264
 C706 C 0.73488 0.47818 0.26356
 O707 O 0.24908 -0.01768 0.72815
 O708 O 0.27235 0.01949 0.75127
 O709 O 0.27310 -0.01660 0.75231
 O710 O 0.24756 0.01872 0.72780
 O711 O 0.22733 0.01806 0.74866
 O712 O 0.25292 -0.01698 0.77322
 O713 O 0.25219 0.01941 0.77222
 O714 O 0.22882 -0.01826 0.74899
 Cu715 Cu 0.26249 0.00103 0.73776
 Cu716 Cu 0.23828 0.00055 0.76286
 C717 C 0.23509 -0.02446 0.73458
 C718 C 0.26637 0.02578 0.76572
 C719 C 0.26739 -0.02280 0.76698
 C720 C 0.23304 0.02444 0.73408
 O721 O 0.24559 0.27306 0.98243
 O722 O 0.27260 0.25154 1.01722
 O723 O 0.27181 0.24979 0.98278
 O724 O 0.24612 0.27444 1.01678
 O725 O 0.22785 0.25073 1.01843
 O726 O 0.25354 0.22608 0.98455
 O727 O 0.25432 0.22782 1.01883
 O728 O 0.22732 0.24933 0.98397
 Cu729 Cu 0.26087 0.26457 0.99965
 Cu730 Cu 0.23891 0.23613 1.00160
 C731 C 0.23189 0.26482 0.97715
 C732 C 0.26805 0.23607 1.02406
 C733 C 0.26700 0.23371 0.97779
 C734 C 0.23265 0.26676 1.02350
 O735 O 0.24728 0.77416 0.48363
 O736 O 0.27415 0.75122 0.51775
 O737 O 0.27409 0.75172 0.48327
 O738 O 0.24752 0.77377 0.51806
 O739 O 0.22944 0.74983 0.51788
 O740 O 0.25642 0.72744 0.48349
 O741 O 0.25622 0.72717 0.51795
 O742 O 0.22963 0.74987 0.48351
 Cu743 Cu 0.26257 0.76512 0.50067
 Cu744 Cu 0.24115 0.73615 0.50072
 C745 C 0.23391 0.76585 0.47763
 C746 C 0.26969 0.73537 0.52382
 C747 C 0.26976 0.73586 0.47734
 C748 C 0.23396 0.76558 0.52395
 O749 O 0.27186 0.74836 -0.01603
 O750 O 0.24540 0.72503 0.01817
 O751 O 0.24644 0.72430 -0.01612
 O752 O 0.27054 0.74935 0.01845
 O753 O 0.25112 0.77218 0.01715
 O754 O 0.22730 0.74739 -0.01771
 O755 O 0.22586 0.74774 0.01661
 O756 O 0.25267 0.77142 -0.01723
 Cu757 Cu 0.26053 0.73450 0.00125
 Cu758 Cu 0.23732 0.76200 -0.00039
 C759 C 0.26677 0.76381 -0.02257
 C760 C 0.23106 0.73234 0.02319
 C761 C 0.23278 0.73158 -0.02288
 C762 C 0.26487 0.76503 0.02381
 O763 O 0.22975 0.25078 0.48283
 O764 O 0.25658 0.27275 0.51689
 O765 O 0.25701 0.27224 0.48266
 O766 O 0.22961 0.25075 0.51724
 O767 O 0.24699 0.22609 0.51759
 O768 O 0.27444 0.24762 0.48308
 O769 O 0.27407 0.24819 0.51759
 O770 O 0.24709 0.22610 0.48311
 Cu771 Cu 0.24147 0.26407 0.49989
 Cu772 Cu 0.26240 0.23452 0.50041
 C773 C 0.23386 0.23480 0.47699
 C774 C 0.26988 0.26433 0.52310
 C775 C 0.27037 0.26356 0.47688
 C776 C 0.23364 0.23476 0.52337
 O777 O 0.74486 0.77603 0.98335
 O778 O 0.77207 0.75378 1.01753
 O779 O 0.77220 0.75434 0.98306
 O780 O 0.74448 0.77511 1.01777
 O781 O 0.72751 0.75028 1.01744
 O782 O 0.75521 0.72952 0.98286
 O783 O 0.75508 0.72895 1.01724
 O784 O 0.72787 0.75121 0.98296
 Cu785 Cu 0.76011 0.76729 1.00047
 Cu786 Cu 0.73969 0.73752 1.00008
 C787 C 0.73179 0.76736 0.97718
 C788 C 0.76819 0.73765 1.02334
 C789 C 0.76838 0.73841 0.97695
 C790 C 0.73132 0.76617 1.02365
 O791 O 0.74350 0.27571 0.48053
 O792 O 0.77011 0.25326 0.51510
 O793 O 0.76906 0.25158 0.48071
 O794 O 0.74441 0.27713 0.51488
 O795 O 0.72548 0.25401 0.51672
 O796 O 0.75012 0.22848 0.48260
 O797 O 0.75119 0.23013 0.51685
 O798 O 0.72455 0.25261 0.48222
 Cu799 Cu 0.75867 0.26673 0.49762
 Cu800 Cu 0.73590 0.23903 0.49976
 C801 C 0.72951 0.26794 0.47537
 C802 C 0.76519 0.23793 0.52196
 C803 C 0.76379 0.23565 0.47579
 C804 C 0.73081 0.26987 0.52176
 O805 O 0.77286 0.24589 -0.01695
 O806 O 0.74681 0.22397 0.01838
 O807 O 0.74724 0.22210 -0.01593
 O808 O 0.77222 0.24791 0.01745
 O809 O 0.75299 0.27092 0.01592
 O810 O 0.72829 0.24534 -0.01775
 O811 O 0.72746 0.24686 0.01658
 O812 O 0.75388 0.26914 -0.01838
 Cu813 Cu 0.76171 0.23266 0.00089
 Cu814 Cu 0.73874 0.26038 -0.00104
 C815 C 0.76783 0.26123 -0.02375
 C816 C 0.73267 0.23164 0.02353
 C817 C 0.73355 0.22935 -0.02263
 C818 C 0.76680 0.26381 0.02247
 O819 O 0.72545 0.74565 0.48336
 O820 O 0.75220 0.76937 0.51670
 O821 O 0.75207 0.76815 0.48242
 O822 O 0.72558 0.74684 0.51779
 O823 O 0.74361 0.72272 0.51869
 O824 O 0.77013 0.74405 0.48327
 O825 O 0.77023 0.74527 0.51773
 O826 O 0.74347 0.72153 0.48435
 Cu827 Cu 0.73700 0.75990 0.49999
 Cu828 Cu 0.75868 0.73098 0.50108
 C829 C 0.72993 0.72953 0.47809
 C830 C 0.76574 0.76141 0.52296
 C831 C 0.76562 0.75972 0.47675
 C832 C 0.73008 0.73119 0.52435
 O833 O 1.01476 0.27331 0.24613
 O834 O 0.98104 0.25002 0.27279
 O835 O 1.01526 0.25047 0.27283
 O836 O 0.98070 0.27230 0.24570
 O837 O 0.98145 0.24818 0.22779
 O838 O 1.01615 0.22650 0.25475
 O839 O 0.98176 0.22584 0.25496
 O840 O 1.01570 0.24946 0.22791
 Cu841 Cu 0.99788 0.26389 0.26118
 Cu842 Cu 0.99886 0.23506 0.23957
 C843 C 1.02106 0.26548 0.23252
 C844 C 0.97544 0.23407 0.26839
 C845 C 1.02175 0.23484 0.26834
 C846 C 0.97507 0.26389 0.23215
 O847 O 0.51879 0.27340 0.74889
 O848 O 0.48526 0.24919 0.77528
 O849 O 0.51945 0.24936 0.77462
 O850 O 0.48478 0.27298 0.74923
 O851 O 0.48491 0.25002 0.72999
 O852 O 0.51942 0.22611 0.75571
 O853 O 0.48499 0.22624 0.75604
 O854 O 0.51918 0.25026 0.72985
 Cu855 Cu 0.50205 0.26350 0.76393
 Cu856 Cu 0.50214 0.23581 0.74101
 C857 C 0.52481 0.26600 0.73492
 C858 C 0.47919 0.23371 0.77008
 C859 C 0.52550 0.23379 0.76945
 C860 C 0.47889 0.26558 0.73527
 O861 O -0.01892 0.22879 0.74429
 O862 O 0.01583 0.24983 0.77102
 O863 O -0.01833 0.25168 0.77090
 O864 O 0.01527 0.22738 0.74429
 O865 O 0.01614 0.25148 0.72605
 O866 O -0.01712 0.27564 0.75253
 O867 O 0.01687 0.27389 0.75274
 O868 O -0.01802 0.25287 0.72604
 Cu869 Cu -0.00167 0.23700 0.75946
 Cu870 Cu -0.00045 0.26585 0.73748
 C871 C -0.02449 0.23727 0.73063
 C872 C 0.02239 0.26539 0.76641
 C873 C -0.02345 0.26786 0.76622
 C874 C 0.02157 0.23542 0.73069
 O875 O 0.48341 0.27437 0.25019
 O876 O 0.51791 0.24975 0.22570
 O877 O 0.48386 0.24942 0.22549
 O878 O 0.51768 0.27428 0.25090
 O879 O 0.51729 0.25173 0.27084
 O880 O 0.48392 0.22698 0.24555
 O881 O 0.51800 0.22733 0.24578
 O882 O 0.48313 0.25197 0.27029
 Cu883 Cu 0.50074 0.26426 0.23610
 Cu884 Cu 0.50055 0.23727 0.26014
 C885 C 0.47723 0.26736 0.26431
 C886 C 0.52390 0.23436 0.23152
 C887 C 0.47814 0.23388 0.23123
 C888 C 0.52336 0.26710 0.26518
 O889 O 0.98397 0.74729 0.77168
 O890 O 1.01813 0.77174 0.74596
 O891 O 0.98398 0.77132 0.74577
 O892 O 1.01824 0.74817 0.77203
 O893 O 1.01919 0.72504 0.75299
 O894 O 0.98419 0.74798 0.72696
 O895 O 1.01843 0.74868 0.72682
 O896 O 0.98498 0.72394 0.75288
 Cu897 Cu 1.00098 0.76193 0.76077
 Cu898 Cu 1.00175 0.73408 0.73802
 C899 C 0.97862 0.73142 0.76665
 C900 C 1.02416 0.76432 0.73199
 C901 C 0.97814 0.76364 0.73194
 C902 C 1.02478 0.73280 0.76692
 O903 O 0.51428 0.77223 0.24618
 O904 O 0.48085 0.74571 0.27062
 O905 O 0.51508 0.74693 0.27095
 O906 O 0.48007 0.77048 0.24551
 O907 O 0.48166 0.74843 0.22539
 O908 O 0.51608 0.72469 0.25100
 O909 O 0.48197 0.72356 0.25058
 O910 O 0.51581 0.74999 0.22625
 Cu911 Cu 0.49745 0.76107 0.26031
 Cu912 Cu 0.49901 0.73446 0.23630
 C913 C 0.52088 0.76563 0.23212
 C914 C 0.47557 0.73018 0.26474
 C915 C 0.52157 0.73174 0.26527
 C916 C 0.47483 0.76341 0.23112
 O917 O -0.01656 0.73037 0.24651
 O918 O 0.01854 0.75133 0.27286
 O919 O -0.01562 0.75259 0.27352
 O920 O 0.01755 0.72923 0.24588
 O921 O 0.01794 0.75361 0.22797
 O922 O -0.01496 0.77699 0.25565
 O923 O 0.01900 0.77569 0.25492
 O924 O -0.01623 0.75481 0.22866
 Cu925 Cu 0.00092 0.73843 0.26150
 Cu926 Cu 0.00145 0.76770 0.23997
 C927 C -0.02245 0.73904 0.23310
 C928 C 0.02485 0.76704 0.26837
 C929 C -0.02093 0.76883 0.26931
 C930 C 0.02350 0.73749 0.23226
 O931 O 0.51605 0.75230 0.77417
 O932 O 0.48061 0.73060 0.74888
 O933 O 0.51477 0.72921 0.74798
 O934 O 0.48191 0.75411 0.77496
 O935 O 0.48264 0.77765 0.75608
 O936 O 0.51516 0.75287 0.72922
 O937 O 0.48103 0.75425 0.73012
 O938 O 0.51661 0.77591 0.75536
 Cu939 Cu 0.49825 0.73918 0.76339
 Cu940 Cu 0.49888 0.76751 0.74078
 C941 C 0.52249 0.76774 0.76906
 C942 C 0.47471 0.73874 0.73520
 C943 C 0.52070 0.73691 0.73404
 C944 C 0.47669 0.77020 0.77010
 C945 C 0.41938 0.30288 0.29968
 C946 C 0.40551 0.31104 0.29024
 C947 C 0.39139 0.31876 0.29936
 C948 C 0.39099 0.31848 0.31788
 C949 C 0.40502 0.30993 0.32683
 N950 N 0.41864 0.30240 0.31764
 C951 C 0.43455 0.29440 0.29053
 N952 N 0.44298 0.27963 0.29811
 C953 C 0.45674 0.27091 0.29015
 C954 C 0.46281 0.27710 0.27360
 C955 C 0.45456 0.29260 0.26580
 C956 C 0.44048 0.30126 0.27419
 H957 H 0.38064 0.32468 0.29186
 H958 H 0.40532 0.30945 0.34110
 H959 H 0.46283 0.25911 0.29671
 H960 H 0.45887 0.29793 0.25311
 H961 H 0.40533 0.31111 0.27596
 H962 H 0.43443 0.31329 0.26798
 C963 C 0.42347 0.80827 0.81024
 C964 C 0.42077 0.82762 0.80990
 C965 C 0.40629 0.83524 0.81851
 C966 C 0.39436 0.82376 0.82776
 C967 C 0.39826 0.80449 0.82859
 N968 N 0.41232 0.79740 0.81979
 C969 C 0.43779 0.79927 0.80013
 N970 N 0.44325 0.78184 0.80491
 C971 C 0.45579 0.77239 0.79575
 C972 C 0.46347 0.78040 0.78065
 C973 C 0.45801 0.79832 0.77549
 C974 C 0.44520 0.80775 0.78511
 H975 H 0.40483 0.85025 0.81821
 H976 H 0.38964 0.79475 0.83519
 H977 H 0.45957 0.75857 0.80017
 H978 H 0.46346 0.80500 0.76385
 H979 H 0.42975 0.83693 0.80319
 H980 H 0.44087 0.82127 0.78041
 C981 C -0.07756 0.30509 0.80593
 C982 C -0.08043 0.32441 0.80566
 C983 C -0.09490 0.33187 0.81441
 C984 C -0.10665 0.32027 0.82376
 C985 C -0.10265 0.30102 0.82441
 N986 N -0.08859 0.29408 0.81549
 C987 C -0.06311 0.29625 0.79585
 N988 N -0.05755 0.27885 0.80058
 C989 C -0.04480 0.26959 0.79154
 C990 C -0.03697 0.27781 0.77661
 C991 C -0.04256 0.29570 0.77148
 C992 C -0.05560 0.30491 0.78097
 H993 H -0.09644 0.34688 0.81421
 H994 H -0.11115 0.29118 0.83104
 H995 H -0.04094 0.25579 0.79592
 H996 H -0.03701 0.30253 0.75997
 H997 H -0.07157 0.33383 0.79893
 H998 H -0.05999 0.31841 0.77630
 C999 C -0.07499 0.80400 0.31050
 C1000 C -0.07638 0.82331 0.31324
 C1001 C -0.09109 0.83048 0.32182
 C1002 C -0.10439 0.81852 0.32780
 C1003 C -0.10212 0.79924 0.32551
 N1004 N -0.08773 0.79258 0.31696
 C1005 C -0.06035 0.79574 0.30034
 N1006 N -0.05592 0.77756 0.30325
 C1007 C -0.04318 0.76879 0.29379
 C1008 C -0.03428 0.77833 0.28025
 C1009 C -0.03867 0.79706 0.27701
 C1010 C -0.05164 0.80580 0.28700
 H1011 H -0.09212 0.84541 0.32371
 H1012 H -0.11206 0.78951 0.32989
 H1013 H -0.04026 0.75431 0.29667
 H1014 H -0.03220 0.80492 0.26664
 H1015 H -0.06627 0.83281 0.30884
 H1016 H -0.05513 0.82007 0.28385
 C1017 C 0.57824 0.69625 0.30296
 C1018 C 0.58106 0.67688 0.30340
 C1019 C 0.59580 0.66967 0.31189
 C1020 C 0.60777 0.68161 0.32009
 C1021 C 0.60416 0.70084 0.31991
 N1022 N 0.58974 0.70758 0.31142
 C1023 C 0.56325 0.70470 0.29336
 N1024 N 0.55716 0.72179 0.29830
 C1025 C 0.54376 0.73056 0.28978
 C1026 C 0.53577 0.72220 0.27516
 C1027 C 0.54192 0.70465 0.26979
 C1028 C 0.55559 0.69589 0.27880
 H1029 H 0.59780 0.65470 0.31212
 H1030 H 0.61303 0.71057 0.32605
 H1031 H 0.53952 0.74414 0.29430
 H1032 H 0.53626 0.69772 0.25851
 H1033 H 0.57195 0.66731 0.29740
 H1034 H 0.56036 0.68261 0.27405
 C1035 C 0.58430 0.20000 0.80504
 C1036 C 0.59699 0.21068 0.81371
 C1037 C 0.61149 0.20189 0.82126
 C1038 C 0.61351 0.18246 0.82023
 C1039 C 0.60067 0.17230 0.81121
 N1040 N 0.58663 0.18119 0.80393
 C1041 C 0.56877 0.20873 0.79664
 N1042 N 0.56109 0.20012 0.78270
 C1043 C 0.54711 0.20761 0.77405
 C1044 C 0.54002 0.22481 0.77933
 C1045 C 0.54745 0.23367 0.79396
 C1046 C 0.56174 0.22569 0.80265
 H1047 H 0.62130 0.21037 0.82763
 H1048 H 0.60164 0.15729 0.81015
 H1049 H 0.54171 0.20022 0.76292
 H1050 H 0.54233 0.24686 0.79862
 H1051 H 0.59603 0.22572 0.81434
 H1052 H 0.56706 0.23271 0.81402
 C1053 C 1.08322 0.70016 0.80406
 C1054 C 1.09602 0.71109 0.81229
 C1055 C 1.11040 0.70248 0.82027
 C1056 C 1.11217 0.68298 0.82013
 C1057 C 1.09917 0.67257 0.81160
 N1058 N 1.08528 0.68129 0.80385
 C1059 C 1.06785 0.70867 0.79518
 N1060 N 1.06027 0.69958 0.78145
 C1061 C 1.04639 0.70680 0.77242
 C1062 C 1.03928 0.72419 0.77712
 C1063 C 1.04662 0.73355 0.79151
 C1064 C 1.06084 0.72587 0.80055
 H1065 H 1.12031 0.71114 0.82625
 H1066 H 1.09990 0.65750 0.81125
 H1067 H 1.04106 0.69903 0.76150
 H1068 H 1.04150 0.74692 0.79570
 H1069 H 1.09523 0.72616 0.81224
 H1070 H 1.06611 0.73329 0.81171
 C1071 C 1.08034 0.20322 0.30606
 C1072 C 1.09159 0.21389 0.31648
 C1073 C 1.10623 0.20555 0.32421
 C1074 C 1.11004 0.18646 0.32164
 C1075 C 1.09840 0.17640 0.31082
 N1076 N 1.08418 0.18489 0.30350
 C1077 C 1.06481 0.21147 0.29717
 N1078 N 1.05821 0.20285 0.28270
 C1079 C 1.04432 0.20980 0.27354
 C1080 C 1.03620 0.22650 0.27879
 C1081 C 1.04251 0.23538 0.29392
 C1082 C 1.05670 0.22791 0.30318
 H1083 H 1.11494 0.21452 0.33147
 H1084 H 1.10007 0.16163 0.30860
 H1085 H 1.03982 0.20240 0.26201
 H1086 H 1.03655 0.24818 0.29857
 H1087 H 1.08955 0.22869 0.31828
 H1088 H 1.06109 0.23493 0.31494
 C1089 C 0.57993 0.30282 0.69609
 C1090 C 0.58149 0.32229 0.69471
 C1091 C 0.59607 0.32999 0.68631
 C1092 C 0.60911 0.31842 0.67913
 C1093 C 0.60669 0.29902 0.68010
 N1094 N 0.59242 0.29182 0.68850
 C1095 C 0.56526 0.29398 0.70588
 N1096 N 0.56032 0.27631 0.70172
 C1097 C 0.54731 0.26720 0.71055
 C1098 C 0.53858 0.27583 0.72469
 C1099 C 0.54355 0.29399 0.72925
 C1100 C 0.55683 0.30308 0.71993
 H1101 H 0.59716 0.34502 0.68544
 H1102 H 0.61641 0.28959 0.67472
 H1103 H 0.54398 0.25316 0.70667
 H1104 H 0.53729 0.30115 0.74013
 H1105 H 0.57157 0.33156 0.69997
 H1106 H 0.56070 0.31686 0.72409
 C1107 C 0.57718 0.80399 0.19655
 C1108 C 0.58099 0.82300 0.19832
 C1109 C 0.59581 0.83040 0.19008
 C1110 C 0.60699 0.81908 0.17978
 C1111 C 0.60218 0.80018 0.17790
 N1112 N 0.58778 0.79330 0.18626
 C1113 C 0.56209 0.79507 0.20561
 N1114 N 0.55618 0.77839 0.19957
 C1115 C 0.54288 0.76894 0.20756
 C1116 C 0.53479 0.77613 0.22274
 C1117 C 0.54065 0.79331 0.22920
 C1118 C 0.55427 0.80277 0.22074
 H1119 H 0.59801 0.84522 0.19137
 H1120 H 0.61024 0.79047 0.17061
 H1121 H 0.53884 0.75571 0.20215
 H1122 H 0.53491 0.79932 0.24096
 H1123 H 0.57257 0.83226 0.20574
 H1124 H 0.55885 0.81566 0.22640
 C1125 C 1.07622 0.30216 0.19348
 C1126 C 1.07951 0.32135 0.19451
 C1127 C 1.09430 0.32879 0.18634
 C1128 C 1.10595 0.31737 0.17673
 C1129 C 1.10139 0.29839 0.17499
 N1130 N 1.08706 0.29138 0.18348
 C1131 C 1.06157 0.29332 0.20337
 N1132 N 1.05546 0.27638 0.19820
 C1133 C 1.04244 0.26728 0.20707
 C1134 C 1.03489 0.27519 0.22223
 C1135 C 1.04108 0.29257 0.22781
 C1136 C 1.05439 0.30158 0.21854
 H1137 H 1.09623 0.34370 0.18726
 H1138 H 1.10973 0.28876 0.16790
 H1139 H 1.03813 0.25385 0.20235
 H1140 H 1.03582 0.29913 0.23953
 H1141 H 1.07079 0.33069 0.20148
 H1142 H 1.05923 0.31463 0.22362
 C1143 C 1.08083 0.80006 0.69468
 C1144 C 1.08376 0.79873 0.67647
 C1145 C 1.09854 0.80702 0.66897
 C1146 C 1.11063 0.81685 0.67945
 C1147 C 1.10673 0.81828 0.69765
 N1148 N 1.09228 0.80993 0.70461
 C1149 C 1.06570 0.79097 0.70346
 N1150 N 1.05985 0.79778 0.71916
 C1151 C 1.04643 0.78979 0.72830
 C1152 C 1.03819 0.77376 0.72181
 C1153 C 1.04403 0.76649 0.70567
 C1154 C 1.05773 0.77501 0.69648
 H1155 H 1.09997 0.80619 0.65480
 H1156 H 1.11549 0.82514 0.70667
 H1157 H 1.04242 0.79580 0.74075
 H1158 H 1.03816 0.75407 0.70022
 H1159 H 1.07462 0.79167 0.66794
 H1160 H 1.06230 0.76877 0.68434
 C1161 C 0.41720 0.70517 0.69838
 C1162 C 0.40378 0.71569 0.69047
 C1163 C 0.38983 0.70660 0.68247
 C1164 C 0.38915 0.68703 0.68227
 C1165 C 0.40272 0.67702 0.69055
 N1166 N 0.41617 0.68621 0.69832
 C1167 C 0.43216 0.71415 0.70727
 N1168 N 0.44035 0.70488 0.72066
 C1169 C 0.45399 0.71236 0.72963
 C1170 C 0.46022 0.73020 0.72521
 C1171 C 0.45221 0.73983 0.71120
 C1172 C 0.43822 0.73187 0.70221
 H1173 H 0.37941 0.71490 0.67670
 H1174 H 0.40277 0.66193 0.69065
 H1175 H 0.45988 0.70437 0.74024
 H1176 H 0.45668 0.75356 0.70725
 H1177 H 0.40376 0.73078 0.69078
 H1178 H 0.43242 0.73947 0.69130
 C1179 C 0.42384 0.19585 0.19329
 C1180 C 0.42088 0.17660 0.19430
 C1181 C 0.40639 0.16898 0.18590
 C1182 C 0.39469 0.18036 0.17621
 C1183 C 0.39879 0.19952 0.17484
 N1184 N 0.41289 0.20662 0.18340
 C1185 C 0.43833 0.20488 0.20295
 N1186 N 0.44421 0.22184 0.19736
 C1187 C 0.45702 0.23126 0.20597
 C1188 C 0.46456 0.22370 0.22132
 C1189 C 0.45864 0.20628 0.22734
 C1190 C 0.44556 0.19687 0.21827
 H1191 H 0.40479 0.15401 0.18666
 H1192 H 0.39035 0.20921 0.16791
 H1193 H 0.46114 0.24470 0.20090
 H1194 H 0.46397 0.19997 0.23920
 H1195 H 0.42970 0.16736 0.20133
 H1196 H 0.44090 0.18376 0.22357
 C1197 C -0.07958 0.70658 0.19481
 C1198 C -0.09297 0.71731 0.18709
 C1199 C -0.10702 0.70843 0.17905
 C1200 C -0.10784 0.68887 0.17862
 C1201 C -0.09421 0.67866 0.18657
 N1202 N -0.08068 0.68764 0.19441
 C1203 C -0.06466 0.71528 0.20401
 N1204 N -0.05653 0.70559 0.21717
 C1205 C -0.04299 0.71278 0.22648
 C1206 C -0.03680 0.73080 0.22269
 C1207 C -0.04473 0.74089 0.20892
 C1208 C -0.05862 0.73320 0.19956
 H1209 H -0.11746 0.71688 0.17351
 H1210 H -0.09422 0.66357 0.18645
 H1211 H -0.03715 0.70444 0.23688
 H1212 H -0.04029 0.75476 0.20545
 H1213 H -0.09293 0.73238 0.18766
 H1214 H -0.06437 0.74116 0.18886
 C1215 C -0.08174 0.20503 0.69238
 C1216 C -0.09513 0.21585 0.68475
 C1217 C -0.10928 0.20707 0.67678
 C1218 C -0.11020 0.18752 0.67631
 C1219 C -0.09658 0.17721 0.68416
 N1220 N -0.08295 0.18609 0.69195
 C1221 C -0.06674 0.21363 0.70152
 N1222 N -0.05869 0.20394 0.71472
 C1223 C -0.04510 0.21108 0.72402
 C1224 C -0.03879 0.22902 0.72015
 C1225 C -0.04662 0.23909 0.70631
 C1226 C -0.06056 0.23146 0.69697
 H1227 H -0.11970 0.21561 0.67133
 H1228 H -0.09665 0.16212 0.68401
 H1229 H -0.03935 0.20276 0.73448
 H1230 H -0.04208 0.25292 0.70279
 H1231 H -0.09499 0.23092 0.68534
 H1232 H -0.06626 0.23941 0.68623
 C1233 C 0.30366 0.42032 0.30654
 C1234 C 0.32203 0.42024 0.30746
 C1235 C 0.33062 0.40546 0.31585
 C1236 C 0.32100 0.39076 0.32338
 C1237 C 0.30262 0.39170 0.32269
 N1238 N 0.29455 0.40622 0.31438
 C1239 C 0.29389 0.43515 0.29708
 N1240 N 0.27711 0.43905 0.30203
 C1241 C 0.26716 0.45207 0.29356
 C1242 C 0.27395 0.46185 0.27897
 C1243 C 0.29118 0.45795 0.27357
 C1244 C 0.30118 0.44467 0.28257
 H1245 H 0.34480 0.40555 0.31646
 H1246 H 0.29467 0.38065 0.32824
 H1247 H 0.25390 0.45456 0.29810
 H1248 H 0.29692 0.46509 0.26233
 H1249 H 0.32973 0.43148 0.30190
 H1250 H 0.31427 0.44159 0.27787
 C1251 C 0.30614 -0.07832 0.80600
 C1252 C 0.32445 -0.07976 0.80588
 C1253 C 0.33259 -0.09422 0.81513
 C1254 C 0.32267 -0.10748 0.82470
 C1255 C 0.30430 -0.10489 0.82502
 N1256 N 0.29670 -0.09073 0.81574
 C1257 C 0.29677 -0.06370 0.79582
 N1258 N 0.28046 -0.05835 0.80115
 C1259 C 0.27093 -0.04529 0.79226
 C1260 C 0.27767 -0.03691 0.77688
 C1261 C 0.29438 -0.04236 0.77105
 C1262 C 0.30395 -0.05572 0.78044
 H1263 H 0.34676 -0.09447 0.81512
 H1264 H 0.29574 -0.11459 0.83174
 H1265 H 0.25805 -0.04159 0.79718
 H1266 H 0.30005 -0.03636 0.75919
 H1267 H 0.33251 -0.06970 0.79895
 H1268 H 0.31662 -0.05998 0.77541
 C1269 C 0.80513 0.41959 0.80645
 C1270 C 0.82341 0.41788 0.80560
 C1271 C 0.83169 0.40298 0.81409
 C1272 C 0.82193 0.38957 0.82364
 C1273 C 0.80361 0.39238 0.82465
 N1274 N 0.79587 0.40695 0.81611
 C1275 C 0.79559 0.43470 0.79710
 N1276 N 0.77945 0.43992 0.80306
 C1277 C 0.76974 0.45336 0.79492
 C1278 C 0.77611 0.46231 0.77966
 C1279 C 0.79265 0.45704 0.77321
 C1280 C 0.80239 0.44328 0.78184
 H1281 H 0.84584 0.40252 0.81355
 H1282 H 0.79515 0.38256 0.83136
 H1283 H 0.75701 0.45691 0.80029
 H1284 H 0.79803 0.46346 0.76141
 H1285 H 0.83137 0.42806 0.79871
 H1286 H 0.81489 0.43916 0.77630
 C1287 C 0.80668 -0.08361 0.30536
 C1288 C 0.82497 -0.08522 0.30520
 C1289 C 0.83301 -0.09984 0.31433
 C1290 C 0.82299 -0.11309 0.32381
 C1291 C 0.80463 -0.11037 0.32412
 N1292 N 0.79714 -0.09605 0.31498
 C1293 C 0.79743 -0.06873 0.29542
 N1294 N 0.78121 -0.06325 0.30091
 C1295 C 0.77180 -0.04991 0.29228
 C1296 C 0.77858 -0.04135 0.27700
 C1297 C 0.79519 -0.04693 0.27100
 C1298 C 0.80464 -0.06058 0.28013
 H1299 H 0.84718 -0.10020 0.31433
 H1300 H 0.79600 -0.12006 0.33075
 H1301 H 0.75899 -0.04612 0.29732
 H1302 H 0.80087 -0.04080 0.25921
 H1303 H 0.83311 -0.07516 0.29837
 H1304 H 0.81723 -0.06493 0.27499
 C1305 C 0.30619 0.58118 0.69891
 C1306 C 0.32454 0.58254 0.69836
 C1307 C 0.33233 0.59778 0.68995
 C1308 C 0.32194 0.61170 0.68204
 C1309 C 0.30365 0.60962 0.68261
 N1310 N 0.29636 0.59465 0.69089
 C1311 C 0.29714 0.56550 0.70785
 N1312 N 0.28069 0.56089 0.70255
 C1313 C 0.27136 0.54698 0.71038
 C1314 C 0.27845 0.53691 0.72463
 C1315 C 0.29534 0.54150 0.73038
 C1316 C 0.30472 0.55574 0.72205
 H1317 H 0.34649 0.59857 0.68946
 H1318 H 0.29511 0.62006 0.67683
 H1319 H 0.25833 0.54400 0.70557
 H1320 H 0.30128 0.53417 0.74140
 H1321 H 0.33285 0.57185 0.70407
 H1322 H 0.31754 0.55930 0.72702
 C1323 C 0.30649 1.08248 0.19743
 C1324 C 0.32476 1.08411 0.19807
 C1325 C 0.33299 1.09867 0.18907
 C1326 C 0.32319 1.11181 0.17920
 C1327 C 0.30487 1.10909 0.17844
 N1328 N 0.29719 1.09484 0.18747
 C1329 C 0.29702 1.06768 0.20724
 N1330 N 0.28095 1.06227 0.20147
 C1331 C 0.27135 1.04901 0.20997
 C1332 C 0.27777 1.04046 0.22539
 C1333 C 0.29422 1.04598 0.23167
 C1334 C 0.30385 1.05955 0.22268
 H1335 H 0.34715 1.09905 0.18946
 H1336 H 0.29639 1.11873 0.17150
 H1337 H 0.25868 1.04527 0.20472
 H1338 H 0.29963 1.03986 0.24358
 H1339 H 0.33275 1.07411 0.20518
 H1340 H 0.31629 1.06385 0.22806
 C1341 C 0.80867 0.58447 0.19748
 C1342 C 0.82673 0.58745 0.19918
 C1343 C 0.83450 0.60257 0.19057
 C1344 C 0.82448 0.61490 0.18002
 C1345 C 0.80643 0.61093 0.17836
 N1346 N 0.79919 0.59619 0.18702
 C1347 C 0.79953 0.56896 0.20663
 N1348 N 0.78376 0.56325 0.20033
 C1349 C 0.77429 0.54949 0.20823
 C1350 C 0.78052 0.54068 0.22358
 C1351 C 0.79672 0.54638 0.23036
 C1352 C 0.80623 0.56049 0.22199
 H1353 H 0.84855 0.60401 0.19176
 H1354 H 0.79774 0.61993 0.17094
 H1355 H 0.76183 0.54561 0.20258
 H1356 H 0.80197 0.54008 0.24226
 H1357 H 0.83495 0.57808 0.20677
 H1358 H 0.81842 0.56494 0.22781
 C1359 C 0.80705 1.08178 0.69420
 C1360 C 0.82538 1.08314 0.69306
 C1361 C 0.83290 1.09851 0.68460
 C1362 C 0.82227 1.11255 0.67723
 C1363 C 0.80400 1.11046 0.67838
 N1364 N 0.79698 1.09537 0.68668
 C1365 C 0.79829 1.06599 0.70325
 N1366 N 0.78170 1.06142 0.69840
 C1367 C 0.77257 1.04748 0.70642
 C1368 C 0.78004 1.03734 0.72044
 C1369 C 0.79710 1.04186 0.72572
 C1370 C 0.80627 1.05613 0.71716
 H1371 H 0.84704 1.09930 0.68366
 H1372 H 0.79528 1.12099 0.67303
 H1373 H 0.75940 1.04455 0.70200
 H1374 H 0.80333 1.03449 0.73654
 H1375 H 0.83386 1.07237 0.69837
 H1376 H 0.81923 1.05966 0.72177
 C1377 C 0.70220 0.58667 0.30113
 C1378 C 0.71122 0.60089 0.30989
 C1379 C 0.70180 0.61517 0.31803
 C1380 C 0.68340 0.61539 0.31754
 C1381 C 0.67490 0.60106 0.30839
 N1382 N 0.68438 0.58731 0.30050
 C1383 C 0.71157 0.57124 0.29223
 N1384 N 0.70393 0.56286 0.27815
 C1385 C 0.71181 0.54871 0.26924
 C1386 C 0.72835 0.54206 0.27448
 C1387 C 0.73630 0.55025 0.28917
 C1388 C 0.72799 0.56482 0.29806
 H1389 H 0.70895 0.62618 0.32450
 H1390 H 0.66075 0.60058 0.30774
 H1391 H 0.70514 0.54269 0.25807
 H1392 H 0.74899 0.54549 0.29375
 H1393 H 0.72539 0.60126 0.31018
 H1394 H 0.73427 0.57073 0.30949
 C1395 C 0.70399 1.08356 0.79969
 C1396 C 0.71303 1.09549 0.81100
 C1397 C 0.70407 1.10990 0.81941
 C1398 C 0.68596 1.11278 0.81665
 C1399 C 0.67759 1.10073 0.80467
 N1400 N 0.68664 1.08668 0.79674
 C1401 C 0.71289 1.06789 0.79061
 N1402 N 0.70605 1.06130 0.77530
 C1403 C 0.71363 1.04710 0.76617
 C1404 C 0.72906 1.03861 0.77240
 C1405 C 0.73614 1.04494 0.78832
 C1406 C 0.72810 1.05948 0.79747
 H1407 H 0.71173 1.11918 0.82748
 H1408 H 0.66370 1.10176 0.80211
 H1409 H 0.70764 1.04257 0.75401
 H1410 H 0.74791 1.03868 0.79373
 H1411 H 0.72698 1.09410 0.81311
 H1412 H 0.73368 1.06380 0.80988
 C1413 C 0.19929 0.57992 0.80399
 C1414 C 0.20021 0.58212 0.82233
 C1415 C 0.19148 0.59696 0.83031
 C1416 C 0.18159 0.60984 0.82022
 C1417 C 0.18056 0.60658 0.80188
 N1418 N 0.18935 0.59207 0.79442
 C1419 C 0.20876 0.56475 0.79474
 N1420 N 0.20295 0.55918 0.77865
 C1421 C 0.21112 0.54556 0.76924
 C1422 C 0.22620 0.53675 0.77591
 C1423 C 0.23251 0.54239 0.79240
 C1424 C 0.22389 0.55636 0.80181
 H1425 H 0.19207 0.59776 0.84454
 H1426 H 0.17358 0.61598 0.79317
 H1427 H 0.20585 0.54173 0.75653
 H1428 H 0.24419 0.53611 0.79798
 H1429 H 0.20729 0.57233 0.83058
 H1430 H 0.22933 0.56074 0.81427
 C1431 C 0.19763 1.08454 0.30480
 C1432 C 0.19896 1.08714 0.32306
 C1433 C 0.19018 1.10197 0.33099
 C1434 C 0.17980 1.11441 0.32094
 C1435 C 0.17828 1.11070 0.30271
 N1436 N 0.18717 1.09623 0.29528
 C1437 C 0.20731 1.06946 0.29559
 N1438 N 0.20136 1.06335 0.27972
 C1439 C 0.20972 1.04975 0.27043
 C1440 C 0.22513 1.04153 0.27701
 C1441 C 0.23158 1.04777 0.29324
 C1442 C 0.22279 1.06171 0.30251
 H1443 H 0.19115 1.10312 0.34518
 H1444 H 0.17085 1.11975 0.29405
 H1445 H 0.20433 1.04544 0.25792
 H1446 H 0.24351 1.04197 0.29876
 H1447 H 0.20644 1.07769 0.33131
 H1448 H 0.22837 1.06655 0.31475
 C1449 C 0.69587 0.41850 0.70127
 C1450 C 0.67753 0.41756 0.70023
 C1451 C 0.66973 0.40291 0.69119
 C1452 C 0.68009 0.38913 0.68314
 C1453 C 0.69841 0.39084 0.68412
 N1454 N 0.70571 0.40527 0.69302
 C1455 C 0.70478 0.43353 0.71105
 N1456 N 0.72117 0.43886 0.70601
 C1457 C 0.73017 0.45244 0.71453
 C1458 C 0.72275 0.46137 0.72923
 C1459 C 0.70596 0.45591 0.73478
 C1460 C 0.69695 0.44206 0.72575
 H1461 H 0.65557 0.40247 0.69037
 H1462 H 0.70693 0.38052 0.67819
 H1463 H 0.74314 0.45612 0.70989
 H1464 H 0.69977 0.46233 0.74611
 H1465 H 0.66924 0.42813 0.70610
 H1466 H 0.68417 0.43785 0.73051
 C1467 C 0.69894 -0.08475 0.19735
 C1468 C 0.69816 -0.08563 0.17885
 C1469 C 0.68909 -0.10015 0.17086
 C1470 C 0.68073 -0.11381 0.18119
 C1471 C 0.68152 -0.11220 0.19964
 N1472 N 0.69045 -0.09793 0.20713
 C1473 C 0.70862 -0.06984 0.20652
 N1474 N 0.70367 -0.06496 0.22315
 C1475 C 0.71207 -0.05153 0.23244
 C1476 C 0.72654 -0.04223 0.22507
 C1477 C 0.73200 -0.04721 0.20802
 C1478 C 0.72312 -0.06096 0.19873
 H1479 H 0.68846 -0.10056 0.15660
 H1480 H 0.67536 -0.12246 0.20814
 H1481 H 0.70749 -0.04822 0.24559
 H1482 H 0.74316 -0.04051 0.20185
 H1483 H 0.70421 -0.07511 0.17058
 H1484 H 0.72784 -0.06480 0.18577
 C1485 C 0.19564 0.41249 0.20284
 C1486 C 0.18736 0.39795 0.21211
 C1487 C 0.17928 0.38367 0.20283
 C1488 C 0.17938 0.38373 0.18430
 C1489 C 0.18814 0.39831 0.17552
 N1490 N 0.19594 0.41211 0.18487
 C1491 C 0.20418 0.42810 0.21212
 N1492 N 0.21781 0.43715 0.20422
 C1493 C 0.22626 0.45157 0.21206
 C1494 C 0.22097 0.45776 0.22881
 C1495 C 0.20676 0.44883 0.23703
 C1496 C 0.19835 0.43406 0.22876
 H1497 H 0.17313 0.37244 0.21017
 H1498 H 0.18852 0.39895 0.16126
 H1499 H 0.23707 0.45815 0.20519
 H1500 H 0.20213 0.45321 0.24988
 H1501 H 0.18736 0.39737 0.22638
 H1502 H 0.18723 0.42765 0.23526
 C1503 C 0.20102 -0.08530 0.69946
 C1504 C 0.21056 -0.09977 0.69148
 C1505 C 0.20168 -0.11424 0.68326
 C1506 C 0.18328 -0.11443 0.68290
 C1507 C 0.17422 -0.09991 0.69139
 N1508 N 0.18319 -0.08592 0.69935
 C1509 C 0.20996 -0.06954 0.70811
 N1510 N 0.20210 -0.06087 0.72201
 C1511 C 0.20976 -0.04645 0.73063
 C1512 C 0.22626 -0.03985 0.72523
 C1513 C 0.23438 -0.04836 0.71070
 C1514 C 0.22632 -0.06315 0.70214
 H1515 H 0.20924 -0.12542 0.67738
 H1516 H 0.16005 -0.09945 0.69142
 H1517 H 0.20296 -0.04018 0.74168
 H1518 H 0.24705 -0.04367 0.70599
 H1519 H 0.22473 -0.10013 0.69181
 H1520 H 0.23276 -0.06929 0.69082
 C1521 C 0.30929 0.29641 0.41953
 C1522 C 0.31656 0.28583 0.40578
 C1523 C 0.32434 0.29488 0.39142
 C1524 C 0.32494 0.31444 0.39068
 C1525 C 0.31761 0.32448 0.40477
 N1526 N 0.30999 0.31536 0.41855
 C1527 C 0.30006 0.28762 0.43461
 N1528 N 0.28725 0.29745 0.44300
 C1529 C 0.27782 0.29019 0.45663
 C1530 C 0.28109 0.27194 0.46262
 C1531 C 0.29453 0.26170 0.45445
 C1532 C 0.30404 0.26946 0.44047
 H1533 H 0.32944 0.28656 0.38068
 H1534 H 0.31794 0.33957 0.40487
 H1535 H 0.26768 0.29865 0.46265
 H1536 H 0.29760 0.24762 0.45872
 H1537 H 0.31578 0.27077 0.40574
 H1538 H 0.31444 0.26136 0.43449
 C1539 C 0.30497 0.79855 -0.07946
 C1540 C 0.31357 0.78822 -0.09260
 C1541 C 0.32177 0.79751 -0.10656
 C1542 C 0.32149 0.81707 -0.10754
 C1543 C 0.31257 0.82687 -0.09423
 N1544 N 0.30462 0.81750 -0.08077
 C1545 C 0.29579 0.78938 -0.06454
 N1546 N 0.28195 0.79824 -0.05686
 C1547 C 0.27266 0.79050 -0.04334
 C1548 C 0.27721 0.77280 -0.03673
 C1549 C 0.29170 0.76361 -0.04418
 C1550 C 0.30101 0.77183 -0.05804
 H1551 H 0.32806 0.78934 -0.11677
 H1552 H 0.31211 0.84195 -0.09437
 H1553 H 0.26167 0.79815 -0.03789
 H1554 H 0.29576 0.75000 -0.03941
 H1555 H 0.31363 0.77314 -0.09240
 H1556 H 0.31225 0.76456 -0.06342
 C1557 C 0.80592 0.29493 -0.08125
 C1558 C 0.81419 0.28452 -0.09455
 C1559 C 0.82227 0.29373 -0.10864
 C1560 C 0.82218 0.31330 -0.10958
 C1561 C 0.81369 0.32317 -0.09604
 N1562 N 0.80584 0.31388 -0.08248
 C1563 C 0.79672 0.28590 -0.06628
 N1564 N 0.78319 0.29511 -0.05840
 C1565 C 0.77391 0.28762 -0.04477
 C1566 C 0.77816 0.26982 -0.03819
 C1567 C 0.79230 0.26024 -0.04587
 C1568 C 0.80160 0.26820 -0.05989
 H1569 H 0.82826 0.28551 -0.11898
 H1570 H 0.81342 0.33826 -0.09611
 H1571 H 0.76320 0.29558 -0.03914
 H1572 H 0.79611 0.24653 -0.04114
 H1573 H 0.81406 0.26943 -0.09439
 H1574 H 0.81258 0.26064 -0.06544
 C1575 C 0.80456 0.79323 0.41968
 C1576 C 0.81333 0.78287 0.40667
 C1577 C 0.82175 0.79214 0.39282
 C1578 C 0.82148 0.81170 0.39181
 C1579 C 0.81243 0.82152 0.40500
 N1580 N 0.80428 0.81218 0.41835
 C1581 C 0.79509 0.78416 0.43448
 N1582 N 0.78157 0.79347 0.44226
 C1583 C 0.77210 0.78603 0.45578
 C1584 C 0.77611 0.76816 0.46233
 C1585 C 0.79021 0.75844 0.45474
 C1586 C 0.79972 0.76637 0.44085
 H1587 H 0.82819 0.78396 0.38271
 H1588 H 0.81198 0.83661 0.40484
 H1589 H 0.76142 0.79409 0.46133
 H1590 H 0.79385 0.74468 0.45947
 H1591 H 0.81338 0.76779 0.40686
 H1592 H 0.81070 0.75871 0.43541
 C1593 C 0.69498 0.30627 0.57915
 C1594 C 0.69392 0.32567 0.58139
 C1595 C 0.68577 0.33288 0.59640
 C1596 C 0.67858 0.32087 0.60921
 C1597 C 0.67949 0.30158 0.60621
 N1598 N 0.68756 0.29488 0.59151
 C1599 C 0.70399 0.29777 0.56379
 N1600 N 0.69953 0.28019 0.55887
 C1601 C 0.70761 0.27120 0.54533
 C1602 C 0.72130 0.27984 0.53596
 C1603 C 0.72615 0.29795 0.54083
 C1604 C 0.71756 0.30694 0.55469
 H1605 H 0.68499 0.34787 0.59793
 H1606 H 0.67420 0.29179 0.61575
 H1607 H 0.70351 0.25720 0.54210
 H1608 H 0.73672 0.30510 0.53406
 H1609 H 0.69911 0.33526 0.57163
 H1610 H 0.72192 0.32068 0.55847
 C1611 C 0.69232 0.79697 1.08185
 C1612 C 0.68405 0.78590 1.09477
 C1613 C 0.67619 0.79439 1.10933
 C1614 C 0.67653 0.81386 1.11114
 C1615 C 0.68487 0.82440 1.09789
 N1616 N 0.69251 0.81582 1.08387
 C1617 C 0.70157 0.78874 1.06652
 N1618 N 0.71470 0.79863 1.05867
 C1619 C 0.72413 0.79188 1.04485
 C1620 C 0.72055 0.77412 1.03807
 C1621 C 0.70680 0.76387 1.04568
 C1622 C 0.69727 0.77111 1.05984
 H1623 H 0.67026 0.78566 1.11940
 H1624 H 0.68529 0.83946 1.09861
 H1625 H 0.73453 0.80034 1.03931
 H1626 H 0.70348 0.75017 1.04080
 H1627 H 0.68408 0.77085 1.09402
 H1628 H 0.68661 0.76301 1.06532
 C1629 C 0.19464 0.30240 1.07989
 C1630 C 0.19351 0.32179 1.08219
 C1631 C 0.18495 0.32890 1.09699
 C1632 C 0.17739 0.31684 1.10951
 C1633 C 0.17824 0.29757 1.10639
 N1634 N 0.18677 0.29094 1.09192
 C1635 C 0.20427 0.29403 1.06485
 N1636 N 0.20012 0.27644 1.05968
 C1637 C 0.20875 0.26762 1.04637
 C1638 C 0.22266 0.27647 1.03752
 C1639 C 0.22719 0.29457 1.04267
 C1640 C 0.21808 0.30337 1.05629
 H1641 H 0.18420 0.34388 1.09862
 H1642 H 0.17260 0.28776 1.11570
 H1643 H 0.20486 0.25361 1.04291
 H1644 H 0.23792 0.30187 1.03631
 H1645 H 0.19901 0.33144 1.07267
 H1646 H 0.22222 0.31710 1.06031
 C1647 C 0.19550 0.79943 0.58089
 C1648 C 0.17715 0.80031 0.58210
 C1649 C 0.16933 0.80871 0.59674
 C1650 C 0.17970 0.81619 0.61024
 C1651 C 0.19801 0.81512 0.60839
 N1652 N 0.20531 0.80697 0.59397
 C1653 C 0.20459 0.79075 0.56573
 N1654 N 0.22086 0.79692 0.56122
 C1655 C 0.23027 0.78934 0.54778
 C1656 C 0.22350 0.77436 0.53814
 C1657 C 0.20679 0.76768 0.54262
 C1658 C 0.19727 0.77587 0.55634
 H1659 H 0.15517 0.80957 0.59736
 H1660 H 0.20657 0.82044 0.61852
 H1661 H 0.24316 0.79484 0.54487
 H1662 H 0.20111 0.75610 0.53558
 H1663 H 0.16891 0.79491 0.57174
 H1664 H 0.18456 0.77026 0.55981
 C1665 C 0.30663 0.70223 0.58219
 C1666 C 0.31361 0.71316 0.59573
 C1667 C 0.32130 0.70452 0.61030
 C1668 C 0.32214 0.68499 0.61149
 C1669 C 0.31479 0.67454 0.59777
 N1670 N 0.30728 0.68329 0.58370
 C1671 C 0.29800 0.71081 0.56668
 N1672 N 0.28492 0.70139 0.55848
 C1673 C 0.27597 0.70875 0.54458
 C1674 C 0.28004 0.72664 0.53816
 C1675 C 0.29382 0.73635 0.54609
 C1676 C 0.30283 0.72850 0.56030
 H1677 H 0.32630 0.71317 0.62079
 H1678 H 0.31519 0.65945 0.59810
 H1679 H 0.26554 0.70070 0.53874
 H1680 H 0.29752 0.75012 0.54148
 H1681 H 0.31278 0.72823 0.59537
 H1682 H 0.31350 0.73620 0.56612
 C1683 C 0.30688 0.20358 1.08159
 C1684 C 0.31519 0.21429 1.09453
 C1685 C 0.32334 0.20541 1.10875
 C1686 C 0.32327 0.18588 1.11018
 C1687 C 0.31475 0.17569 1.09699
 N1688 N 0.30683 0.18466 1.08329
 C1689 C 0.29756 0.21226 1.06653
 N1690 N 0.28411 0.20283 1.05895
 C1691 C 0.27469 0.21001 1.04531
 C1692 C 0.27865 0.22774 1.03842
 C1693 C 0.29271 0.23753 1.04577
 C1694 C 0.30219 0.22986 1.05978
 H1695 H 0.32936 0.21387 1.11882
 H1696 H 0.31449 0.16060 1.09745
 H1697 H 0.26404 0.20190 1.03995
 H1698 H 0.29632 0.25119 1.04079
 H1699 H 0.31503 0.22937 1.09402
 H1700 H 0.31310 0.23759 1.06507
 C1701 C 0.80656 0.70505 1.08108
 C1702 C 0.81393 0.71599 1.09441
 C1703 C 0.82205 0.70735 1.10874
 C1704 C 0.82291 0.68781 1.10992
 C1705 C 0.81518 0.67736 1.09642
 N1706 N 0.80727 0.68612 1.08257
 C1707 C 0.79748 0.71358 1.06580
 N1708 N 0.78446 0.70392 1.05774
 C1709 C 0.77518 0.71113 1.04400
 C1710 C 0.77882 0.72913 1.03758
 C1711 C 0.79250 0.73912 1.04539
 C1712 C 0.80186 0.73141 1.05943
 H1713 H 0.82737 0.71598 1.11909
 H1714 H 0.81559 0.66228 1.09674
 H1715 H 0.76484 0.70287 1.03827
 H1716 H 0.79587 0.75298 1.04077
 H1717 H 0.81308 0.73105 1.09409
 H1718 H 0.81246 0.73932 1.06510
 C1719 C 0.80360 0.20462 0.57933
 C1720 C 0.81125 0.21541 0.59260
 C1721 C 0.81949 0.20660 0.60679
 C1722 C 0.82022 0.18705 0.60784
 C1723 C 0.81222 0.17676 0.59438
 N1724 N 0.80418 0.18568 0.58070
 C1725 C 0.79441 0.21335 0.56422
 N1726 N 0.78091 0.20410 0.55655
 C1727 C 0.77156 0.21152 0.54294
 C1728 C 0.77570 0.22928 0.53623
 C1729 C 0.78985 0.23884 0.54365
 C1730 C 0.79922 0.23095 0.55761
 H1731 H 0.82499 0.21513 0.61710
 H1732 H 0.81252 0.16167 0.59459
 H1733 H 0.76085 0.20358 0.53750
 H1734 H 0.79359 0.25251 0.53880
 H1735 H 0.81053 0.23048 0.59234
 H1736 H 0.81018 0.23852 0.56301
 C1737 C 0.69042 0.69464 0.42282
 C1738 C 0.68873 0.67527 0.42081
 C1739 C 0.68052 0.66826 0.40586
 C1740 C 0.67383 0.68042 0.39293
 C1741 C 0.67495 0.69969 0.39588
 N1742 N 0.68321 0.70622 0.41048
 C1743 C 0.70025 0.70281 0.43771
 N1744 N 0.69668 0.72065 0.44267
 C1745 C 0.70570 0.72932 0.45570
 C1746 C 0.71947 0.72005 0.46441
 C1747 C 0.72339 0.70167 0.45948
 C1748 C 0.71386 0.69303 0.44618
 H1749 H 0.67953 0.65329 0.40432
 H1750 H 0.66994 0.70956 0.38626
 H1751 H 0.70229 0.74354 0.45902
 H1752 H 0.73397 0.69403 0.46574
 H1753 H 0.69369 0.66556 0.43059
 H1754 H 0.71756 0.67907 0.44228
 C1755 C 0.69648 0.19220 -0.07824
 C1756 C 0.69556 0.17278 -0.08034
 C1757 C 0.68731 0.16548 -0.09517
 C1758 C 0.67989 0.17741 -0.10789
 C1759 C 0.68055 0.19672 -0.10496
 N1760 N 0.68875 0.20351 -0.09047
 C1761 C 0.70578 0.20084 -0.06326
 N1762 N 0.70139 0.21853 -0.05848
 C1763 C 0.70981 0.22773 -0.04539
 C1764 C 0.72378 0.21919 -0.03638
 C1765 C 0.72856 0.20097 -0.04110
 C1766 C 0.71962 0.19176 -0.05449
 H1767 H 0.68674 0.15048 -0.09668
 H1768 H 0.67508 0.20645 -0.11445
 H1769 H 0.70573 0.24180 -0.04225
 H1770 H 0.73933 0.19389 -0.03458
 H1771 H 0.70100 0.16326 -0.07066
 H1772 H 0.72393 0.17794 -0.05820
 C1773 C 0.19595 0.69464 -0.07883
 C1774 C 0.19441 0.67520 -0.08032
 C1775 C 0.18599 0.66767 -0.09494
 C1776 C 0.17901 0.67940 -0.10809
 C1777 C 0.18031 0.69877 -0.10579
 N1778 N 0.18865 0.70578 -0.09147
 C1779 C 0.20535 0.70340 -0.06398
 N1780 N 0.20114 0.72119 -0.05936
 C1781 C 0.20952 0.73034 -0.04620
 C1782 C 0.22325 0.72163 -0.03694
 C1783 C 0.22790 0.70335 -0.04157
 C1784 C 0.21902 0.69420 -0.05503
 H1785 H 0.18489 0.65266 -0.09592
 H1786 H 0.17520 0.70834 -0.11562
 H1787 H 0.20557 0.74447 -0.04315
 H1788 H 0.23848 0.69614 -0.03487
 H1789 H 0.19949 0.66585 -0.07030
 H1790 H 0.22316 0.68028 -0.05863
 C1791 C 0.19528 0.20336 0.41927
 C1792 C 0.18750 0.21455 0.40616
 C1793 C 0.17935 0.20618 0.39182
 C1794 C 0.17888 0.18668 0.39041
 C1795 C 0.18689 0.17599 0.40377
 N1796 N 0.19483 0.18447 0.41760
 C1797 C 0.20450 0.21158 0.43450
 N1798 N 0.21776 0.20181 0.44230
 C1799 C 0.22712 0.20874 0.45602
 C1800 C 0.22329 0.22653 0.46270
 C1801 C 0.20938 0.23661 0.45513
 C1802 C 0.19996 0.22921 0.44111
 H1803 H 0.17378 0.21501 0.38162
 H1804 H 0.18675 0.16091 0.40331
 H1805 H 0.23764 0.20042 0.46155
 H1806 H 0.20584 0.25032 0.45994
 H1807 H 0.18808 0.22961 0.40664
 H1808 H 0.18918 0.23719 0.43566
 C1809 C 0.30249 0.41489 0.69441
 C1810 C 0.30385 0.41396 0.67594
 C1811 C 0.31282 0.39909 0.66821
 C1812 C 0.32046 0.38510 0.67876
 C1813 C 0.31902 0.38672 0.69717
 N1814 N 0.31025 0.40136 0.70440
 C1815 C 0.29310 0.43026 0.70337
 N1816 N 0.29775 0.43474 0.72015
 C1817 C 0.28958 0.44847 0.72937
 C1818 C 0.27564 0.45853 0.72181
 C1819 C 0.27050 0.45403 0.70459
 C1820 C 0.27918 0.43996 0.69534
 H1821 H 0.31396 0.39868 0.65397
 H1822 H 0.32457 0.37622 0.70584
 H1823 H 0.29390 0.45138 0.74266
 H1824 H 0.25974 0.46134 0.69829
 H1825 H 0.29838 0.42472 0.66753
 H1826 H 0.27473 0.43649 0.68223
 C1827 C 0.30294 0.91850 0.19846
 C1828 C 0.32127 0.91715 0.19732
 C1829 C 0.32891 0.90199 0.18873
 C1830 C 0.31839 0.88813 0.18124
 C1831 C 0.30009 0.89023 0.18236
 N1832 N 0.29295 0.90513 0.19080
 C1833 C 0.29415 0.93405 0.20779
 N1834 N 0.27769 0.93928 0.20283
 C1835 C 0.26870 0.95318 0.21107
 C1836 C 0.27618 0.96254 0.22540
 C1837 C 0.29306 0.95725 0.23081
 C1838 C 0.30208 0.94308 0.22206
 H1839 H 0.34306 0.90122 0.18779
 H1840 H 0.29145 0.87985 0.17689
 H1841 H 0.25567 0.95672 0.20654
 H1842 H 0.29931 0.96401 0.24186
 H1843 H 0.32967 0.92778 0.20274
 H1844 H 0.31491 0.93899 0.22676
 C1845 C 0.80318 0.41858 0.19382
 C1846 C 0.80470 0.41794 0.17536
 C1847 C 0.81316 0.40284 0.16747
 C1848 C 0.82014 0.38834 0.17786
 C1849 C 0.81872 0.38977 0.19630
 N1850 N 0.81040 0.40462 0.20368
 C1851 C 0.79400 0.43405 0.20287
 N1852 N 0.79860 0.43832 0.21971
 C1853 C 0.79056 0.45213 0.22896
 C1854 C 0.77681 0.46245 0.22136
 C1855 C 0.77172 0.45815 0.20408
 C1856 C 0.78027 0.44401 0.19481
 H1857 H 0.81435 0.40260 0.15323
 H1858 H 0.82382 0.37889 0.20483
 H1859 H 0.79482 0.45489 0.24230
 H1860 H 0.76111 0.46567 0.19774
 H1861 H 0.79966 0.42905 0.16706
 H1862 H 0.77585 0.44070 0.18165
 C1863 C 0.80314 0.91452 0.69182
 C1864 C 0.80424 0.91333 0.67336
 C1865 C 0.81294 0.89826 0.66569
 C1866 C 0.82059 0.88432 0.67630
 C1867 C 0.81950 0.88625 0.69471
 N1868 N 0.81095 0.90107 0.70188
 C1869 C 0.79393 0.93008 0.70071
 N1870 N 0.79884 0.93482 0.71734
 C1871 C 0.79085 0.94874 0.72647
 C1872 C 0.77685 0.95875 0.71896
 C1873 C 0.77144 0.95398 0.70189
 C1874 C 0.77993 0.93971 0.69273
 H1875 H 0.81384 0.89763 0.65144
 H1876 H 0.82509 0.87581 0.70342
 H1877 H 0.79538 0.95185 0.73965
 H1878 H 0.76063 0.96124 0.69564
 H1879 H 0.79872 0.92403 0.66489
 H1880 H 0.77528 0.93604 0.67975
 C1881 C 0.69191 0.58173 0.70222
 C1882 C 0.67355 0.58240 0.70122
 C1883 C 0.66544 0.59698 0.69204
 C1884 C 0.67553 0.61093 0.68385
 C1885 C 0.69387 0.60955 0.68493
 N1886 N 0.70146 0.59520 0.69392
 C1887 C 0.70125 0.56673 0.71187
 N1888 N 0.71787 0.56222 0.70683
 C1889 C 0.72743 0.54883 0.71522
 C1890 C 0.72039 0.53921 0.72979
 C1891 C 0.70334 0.54377 0.73533
 C1892 C 0.69373 0.55747 0.72641
 H1893 H 0.65128 0.59721 0.69120
 H1894 H 0.70218 0.62005 0.67897
 H1895 H 0.74057 0.54586 0.71057
 H1896 H 0.69744 0.53677 0.74657
 H1897 H 0.66550 0.57166 0.70716
 H1898 H 0.68075 0.56100 0.73115
 C1899 C 0.69525 0.07754 0.19793
 C1900 C 0.67688 0.07811 0.19692
 C1901 C 0.66870 0.09284 0.18802
 C1902 C 0.67873 0.10700 0.18010
 C1903 C 0.69708 0.10565 0.18108
 N1904 N 0.70474 0.09118 0.18983
 C1905 C 0.70464 0.06255 0.20755
 N1906 N 0.72134 0.05820 0.20265
 C1907 C 0.73096 0.04492 0.21113
 C1908 C 0.72389 0.03530 0.22568
 C1909 C 0.70675 0.03968 0.23106
 C1910 C 0.69710 0.05325 0.22205
 H1911 H 0.65454 0.09307 0.18724
 H1912 H 0.70534 0.11630 0.17530
 H1913 H 0.74416 0.04206 0.20661
 H1914 H 0.70081 0.03267 0.24227
 H1915 H 0.66887 0.06724 0.20270
 H1916 H 0.68406 0.05667 0.22670
 C1917 C 0.18924 0.57829 0.19820
 C1918 C 0.17088 0.57963 0.19757
 C1919 C 0.16308 0.59424 0.18816
 C1920 C 0.17346 0.60752 0.17936
 C1921 C 0.19176 0.60543 0.18004
 N1922 N 0.19905 0.59109 0.18929
 C1923 C 0.19834 0.56332 0.20815
 N1924 N 0.21487 0.55843 0.20316
 C1925 C 0.22433 0.54520 0.21186
 C1926 C 0.21729 0.53617 0.22676
 C1927 C 0.20031 0.54106 0.23224
 C1928 C 0.19078 0.55459 0.22298
 H1929 H 0.14892 0.59506 0.18766
 H1930 H 0.20030 0.61540 0.17361
 H1931 H 0.23742 0.54195 0.20723
 H1932 H 0.19441 0.53452 0.24372
 H1933 H 0.16260 0.56943 0.20401
 H1934 H 0.17788 0.55844 0.22770
 C1935 C 0.19429 0.08126 0.69687
 C1936 C 0.17593 0.08187 0.69578
 C1937 C 0.16779 0.09668 0.68698
 C1938 C 0.17785 0.11092 0.67923
 C1939 C 0.19620 0.10956 0.68030
 N1940 N 0.20382 0.09499 0.68895
 C1941 C 0.20361 0.06615 0.70639
 N1942 N 0.22029 0.06172 0.70149
 C1943 C 0.22983 0.04833 0.70992
 C1944 C 0.22270 0.03868 0.72443
 C1945 C 0.20557 0.04312 0.72979
 C1946 C 0.19599 0.05679 0.72082
 H1947 H 0.15363 0.09690 0.68611
 H1948 H 0.20449 0.12027 0.67465
 H1949 H 0.24304 0.04544 0.70542
 H1950 H 0.19958 0.03610 0.74097
 H1951 H 0.16789 0.07093 0.70141
 H1952 H 0.18297 0.06026 0.72547
 C1953 C 0.29643 0.58299 0.30496
 C1954 C 0.29746 0.58419 0.32342
 C1955 C 0.30665 0.59884 0.33105
 C1956 C 0.31487 0.61233 0.32040
 C1957 C 0.31371 0.61047 0.30199
 N1958 N 0.30470 0.59606 0.29486
 C1959 C 0.28688 0.56775 0.29613
 N1960 N 0.29181 0.56266 0.27955
 C1961 C 0.28361 0.54886 0.27057
 C1962 C 0.26941 0.53936 0.27824
 C1963 C 0.26395 0.54457 0.29522
 C1964 C 0.27262 0.55871 0.30419
 H1965 H 0.30755 0.59943 0.34530
 H1966 H 0.31970 0.62061 0.29325
 H1967 H 0.28818 0.54539 0.25746
 H1968 H 0.25298 0.53772 0.30160
 H1969 H 0.29157 0.57377 0.33193
 H1970 H 0.26794 0.56269 0.31713
 C1971 C 0.30397 0.08348 0.80190
 C1972 C 0.32235 0.08410 0.80281
 C1973 C 0.33045 0.09880 0.81153
 C1974 C 0.32035 0.11291 0.81939
 C1975 C 0.30200 0.11155 0.81847
 N1976 N 0.29440 0.09709 0.80990
 C1977 C 0.29475 0.06841 0.79248
 N1978 N 0.27827 0.06353 0.79770
 C1979 C 0.26899 0.04995 0.78949
 C1980 C 0.27618 0.04055 0.77495
 C1981 C 0.29305 0.04555 0.76924
 C1982 C 0.30235 0.05940 0.77794
 H1983 H 0.34461 0.09899 0.81229
 H1984 H 0.29367 0.12216 0.82423
 H1985 H 0.25597 0.04662 0.79426
 H1986 H 0.29910 0.03876 0.75802
 H1987 H 0.33042 0.07325 0.79711
 H1988 H 0.31518 0.06324 0.77304
 C1989 C 0.80002 0.58424 0.80713
 C1990 C 0.80085 0.58579 0.82558
 C1991 C 0.80982 0.60069 0.83306
 C1992 C 0.81803 0.61407 0.82228
 C1993 C 0.81714 0.61182 0.80390
 N1994 N 0.80831 0.59719 0.79691
 C1995 C 0.79056 0.56883 0.79843
 N1996 N 0.79544 0.56373 0.78184
 C1997 C 0.78723 0.54991 0.77289
 C1998 C 0.77303 0.54041 0.78058
 C1999 C 0.76767 0.54558 0.79761
 C2000 C 0.77636 0.55973 0.80656
 H2001 H 0.81053 0.60159 0.84730
 H2002 H 0.82316 0.62185 0.79505
 H2003 H 0.79173 0.54647 0.75975
 H2004 H 0.75670 0.53873 0.80401
 H2005 H 0.79494 0.57549 0.83421
 H2006 H 0.77170 0.56371 0.81950
 C2007 C 0.80379 0.08074 0.30269
 C2008 C 0.82213 0.08204 0.30357
 C2009 C 0.82976 0.09716 0.31207
 C2010 C 0.81922 0.11103 0.31975
 C2011 C 0.80093 0.10899 0.31888
 N2012 N 0.79380 0.09413 0.31051
 C2013 C 0.79502 0.06522 0.29348
 N2014 N 0.77861 0.06004 0.29864
 C2015 C 0.76966 0.04614 0.29055
 C2016 C 0.77713 0.03672 0.27616
 C2017 C 0.79396 0.04196 0.27054
 C2018 C 0.80293 0.05613 0.27913
 H2019 H 0.84391 0.09787 0.31282
 H2020 H 0.79228 0.11938 0.32450
 H2021 H 0.75666 0.04264 0.29524
 H2022 H 0.80020 0.03515 0.25944
 H2023 H 0.83055 0.07139 0.29802
 H2024 H 0.81572 0.06018 0.27427
 C2025 C 0.69552 0.42101 0.29949
 C2026 C 0.67714 0.42044 0.30028
 C2027 C 0.66890 0.40568 0.30901
 C2028 C 0.67886 0.39146 0.31701
 C2029 C 0.69721 0.39278 0.31622
 N2030 N 0.70495 0.40730 0.30763
 C2031 C 0.70500 0.43613 0.29017
 N2032 N 0.72158 0.44036 0.29532
 C2033 C 0.73125 0.45380 0.28718
 C2034 C 0.72437 0.46377 0.27276
 C2035 C 0.70736 0.45953 0.26712
 C2036 C 0.69764 0.44577 0.27578
 H2037 H 0.65472 0.40550 0.30966
 H2038 H 0.70543 0.38209 0.32207
 H2039 H 0.74437 0.45652 0.29189
 H2040 H 0.70157 0.46679 0.25599
 H2041 H 0.66917 0.43136 0.29448
 H2042 H 0.68470 0.44248 0.27093
 C2043 C 0.69683 0.91820 0.79915
 C2044 C 0.67846 0.91773 0.80031
 C2045 C 0.67032 0.90316 0.80943
 C2046 C 0.68037 0.88903 0.81744
 C2047 C 0.69872 0.89026 0.81629
 N2048 N 0.70635 0.90458 0.80732
 C2049 C 0.70618 0.93311 0.78940
 N2050 N 0.72287 0.93738 0.79415
 C2051 C 0.73241 0.95066 0.78564
 C2052 C 0.72527 0.96044 0.77122
 C2053 C 0.70814 0.95614 0.76598
 C2054 C 0.69856 0.94254 0.77502
 H2055 H 0.65616 0.90306 0.81035
 H2056 H 0.70700 0.87963 0.82214
 H2057 H 0.74562 0.95344 0.79005
 H2058 H 0.70215 0.96325 0.75487
 H2059 H 0.67042 0.92859 0.79450
 H2060 H 0.68553 0.93920 0.77047
 C2061 C 0.19524 0.41547 0.80008
 C2062 C 0.17687 0.41475 0.80109
 C2063 C 0.16884 0.39996 0.80997
 C2064 C 0.17899 0.38583 0.81787
 C2065 C 0.19732 0.38727 0.81682
 N2066 N 0.20485 0.40183 0.80811
 C2067 C 0.20450 0.43070 0.79070
 N2068 N 0.22110 0.43506 0.79571
 C2069 C 0.23056 0.44867 0.78757
 C2070 C 0.22345 0.45868 0.77329
 C2071 C 0.20643 0.45430 0.76778
 C2072 C 0.19692 0.44037 0.77644
 H2073 H 0.15467 0.39969 0.81082
 H2074 H 0.20569 0.37666 0.82257
 H2075 H 0.24369 0.45149 0.79219
 H2076 H 0.20047 0.46159 0.75676
 H2077 H 0.16876 0.42561 0.79539
 H2078 H 0.18396 0.43698 0.77170
 C2079 C 0.19536 0.92019 0.30325
 C2080 C 0.17701 0.91929 0.30432
 C2081 C 0.16914 0.90434 0.31312
 C2082 C 0.17945 0.89027 0.32088
 C2083 C 0.19777 0.89192 0.31980
 N2084 N 0.20513 0.90662 0.31116
 C2085 C 0.20445 0.93551 0.29382
 N2086 N 0.22102 0.94006 0.29875
 C2087 C 0.23036 0.95366 0.29046
 C2088 C 0.22314 0.96344 0.27609
 C2089 C 0.20613 0.95887 0.27069
 C2090 C 0.19674 0.94497 0.27951
 H2091 H 0.15498 0.90389 0.31399
 H2092 H 0.20625 0.88135 0.32546
 H2093 H 0.24348 0.95665 0.29499
 H2094 H 0.20009 0.96598 0.25961
 H2095 H 0.16878 0.93009 0.29869
 H2096 H 0.18380 0.94141 0.27484
 C2097 C 0.42281 0.30108 0.69682
 C2098 C 0.42069 0.32049 0.69527
 C2099 C 0.40609 0.32773 0.68654
 C2100 C 0.39356 0.31576 0.67926
 C2101 C 0.39647 0.29644 0.68059
 N2102 N 0.41077 0.28970 0.68924
 C2103 C 0.43767 0.29265 0.70660
 N2104 N 0.44309 0.27509 0.70243
 C2105 C 0.45633 0.26629 0.71117
 C2106 C 0.46483 0.27514 0.72522
 C2107 C 0.45937 0.29318 0.72981
 C2108 C 0.44585 0.30197 0.72057
 H2109 H 0.40464 0.34273 0.68542
 H2110 H 0.38714 0.28669 0.67521
 H2111 H 0.46003 0.25233 0.70726
 H2112 H 0.46546 0.30049 0.74063
 H2113 H 0.43024 0.33004 0.70055
 H2114 H 0.44162 0.31568 0.72470
 C2115 C 0.41716 0.79761 0.19402
 C2116 C 0.41561 0.79852 0.17556
 C2117 C 0.40081 0.80684 0.16802
 C2118 C 0.38751 0.81428 0.17877
 C2119 C 0.38967 0.81319 0.19717
 N2120 N 0.40421 0.80507 0.20419
 C2121 C 0.43251 0.78894 0.20280
 N2122 N 0.43689 0.79459 0.21933
 C2123 C 0.45050 0.78696 0.22844
 C2124 C 0.46050 0.77248 0.22105
 C2125 C 0.45617 0.76638 0.20405
 C2126 C 0.44225 0.77456 0.19489
 H2127 H 0.39994 0.80774 0.15378
 H2128 H 0.37970 0.81853 0.20601
 H2129 H 0.45329 0.79201 0.24156
 H2130 H 0.46345 0.75517 0.19787
 H2131 H 0.42583 0.79325 0.16698
 H2132 H 0.43892 0.76929 0.18199
 C2133 C 0.91752 0.29629 0.19352
 C2134 C 0.90446 0.28547 0.18558
 C2135 C 0.89022 0.29424 0.17750
 C2136 C 0.88887 0.31378 0.17725
 C2137 C 0.90218 0.32408 0.18540
 N2138 N 0.91590 0.31521 0.19327
 C2139 C 0.93263 0.28769 0.20276
 N2140 N 0.94046 0.29724 0.21603
 C2141 C 0.95412 0.29008 0.22540
 C2142 C 0.96074 0.27225 0.22156
 C2143 C 0.95313 0.26234 0.20765
 C2144 C 0.93913 0.26999 0.19823
 H2145 H 0.88006 0.28570 0.17180
 H2146 H 0.90179 0.33917 0.18541
 H2147 H 0.95968 0.29828 0.23592
 H2148 H 0.95790 0.24861 0.20412
 H2149 H 0.90490 0.27039 0.18600
 H2150 H 0.93364 0.26215 0.18744
 C2151 C 0.92205 0.79885 0.69315
 C2152 C 0.92021 0.81826 0.69124
 C2153 C 0.90554 0.82558 0.68269
 C2154 C 0.89267 0.81369 0.67591
 C2155 C 0.89533 0.79435 0.67751
 N2156 N 0.90970 0.78752 0.68601
 C2157 C 0.93692 0.79042 0.70296
 N2158 N 0.94217 0.77272 0.69909
 C2159 C 0.95542 0.76398 0.70791
 C2160 C 0.96407 0.77305 0.72174
 C2161 C 0.95877 0.79123 0.72601
 C2162 C 0.94526 0.79994 0.71670
 H2163 H 0.90429 0.84057 0.68133
 H2164 H 0.88575 0.78466 0.67249
 H2165 H 0.95900 0.74990 0.70426
 H2166 H 0.96498 0.79873 0.73665
 H2167 H 0.93001 0.82775 0.69616
 H2168 H 0.94116 0.81377 0.72061
 C2169 C 0.58058 0.30154 0.30166
 C2170 C 0.59362 0.29071 0.30984
 C2171 C 0.60777 0.29943 0.31782
 C2172 C 0.60905 0.31896 0.31775
 C2173 C 0.59587 0.32930 0.30915
 N2174 N 0.58219 0.32045 0.30140
 C2175 C 0.56540 0.29279 0.29297
 N2176 N 0.55793 0.30133 0.27874
 C2177 C 0.54431 0.29364 0.26984
 C2178 C 0.53745 0.27635 0.27520
 C2179 C 0.54466 0.26761 0.29014
 C2180 C 0.55857 0.27576 0.29904
 H2181 H 0.61788 0.29086 0.32379
 H2182 H 0.59630 0.34438 0.30881
 H2183 H 0.53903 0.30093 0.25848
 H2184 H 0.53970 0.25435 0.29486
 H2185 H 0.59316 0.27563 0.30977
 H2186 H 0.56380 0.26882 0.31061
 C2187 C 0.58115 0.79987 0.80512
 C2188 C 0.59428 0.78890 0.81299
 C2189 C 0.60871 0.79749 0.82061
 C2190 C 0.61017 0.81701 0.82046
 C2191 C 0.59685 0.82747 0.81228
 N2192 N 0.58291 0.81876 0.80488
 C2193 C 0.56576 0.79140 0.79654
 N2194 N 0.55780 0.80074 0.78306
 C2195 C 0.54387 0.79362 0.77427
 C2196 C 0.53712 0.77607 0.77897
 C2197 C 0.54487 0.76642 0.79312
 C2198 C 0.55914 0.77402 0.80193
 H2199 H 0.61890 0.78883 0.82632
 H2200 H 0.59739 0.84255 0.81193
 H2201 H 0.53820 0.80162 0.76354
 H2202 H 0.54000 0.75292 0.79729
 H2203 H 0.59371 0.77382 0.81291
 H2204 H 0.56474 0.76640 0.81293
 C2205 C 0.08013 0.29671 0.80460
 C2206 C 0.09309 0.28561 0.81260
 C2207 C 0.10745 0.29408 0.82051
 C2208 C 0.10900 0.31359 0.82051
 C2209 C 0.09578 0.32418 0.81229
 N2210 N 0.08194 0.31560 0.80459
 C2211 C 0.06494 0.28842 0.79551
 N2212 N 0.05727 0.29808 0.78205
 C2213 C 0.04357 0.29116 0.77276
 C2214 C 0.03675 0.27349 0.77690
 C2215 C 0.04419 0.26349 0.79101
 C2216 C 0.05823 0.27089 0.80034
 H2217 H 0.11754 0.28532 0.82627
 H2218 H 0.09636 0.33926 0.81208
 H2219 H 0.03814 0.29942 0.76208
 H2220 H 0.03926 0.24988 0.79475
 H2221 H 0.09249 0.27054 0.81237
 H2222 H 0.06360 0.26301 0.81129
 C2223 C 0.08237 0.79908 0.30633
 C2224 C 0.09565 0.78822 0.31408
 C2225 C 0.10981 0.79696 0.32207
 C2226 C 0.11085 0.81651 0.32239
 C2227 C 0.09735 0.82686 0.31437
 N2228 N 0.08370 0.81801 0.30660
 C2229 C 0.06732 0.79052 0.29723
 N2230 N 0.05928 0.80022 0.28403
 C2231 C 0.04563 0.79312 0.27480
 C2232 C 0.03925 0.77522 0.27873
 C2233 C 0.04709 0.76515 0.29256
 C2234 C 0.06108 0.77273 0.30184
 H2235 H 0.12015 0.78841 0.32765
 H2236 H 0.09755 0.84195 0.31440
 H2237 H 0.03988 0.80145 0.26434
 H2238 H 0.04249 0.75135 0.29614
 H2239 H 0.09543 0.77315 0.31361
 H2240 H 0.06676 0.76479 0.31259
 C2241 C 0.57709 0.70179 0.69610
 C2242 C 0.59025 0.71238 0.68787
 C2243 C 0.60447 0.70339 0.68003
 C2244 C 0.60568 0.68385 0.68031
 C2245 C 0.59231 0.67376 0.68882
 N2246 N 0.57859 0.68286 0.69646
 C2247 C 0.56202 0.71077 0.70501
 N2248 N 0.55436 0.70203 0.71904
 C2249 C 0.54092 0.70986 0.72827
 C2250 C 0.53446 0.72755 0.72350
 C2251 C 0.54184 0.73652 0.70875
 C2252 C 0.55555 0.72819 0.69947
 H2253 H 0.61471 0.71178 0.67409
 H2254 H 0.59266 0.65868 0.68929
 H2255 H 0.53551 0.70237 0.73946
 H2256 H 0.53716 0.75009 0.70447
 H2257 H 0.58990 0.72747 0.68786
 H2258 H 0.56091 0.73534 0.68806
 C2259 C 0.57986 0.19737 0.19449
 C2260 C 0.58107 0.19628 0.17603
 C2261 C 0.59557 0.18762 0.16833
 C2262 C 0.60889 0.18001 0.17893
 C2263 C 0.60698 0.18106 0.19735
 N2264 N 0.59273 0.18957 0.20454
 C2265 C 0.56501 0.20679 0.20335
 N2266 N 0.56036 0.20129 0.21995
 C2267 C 0.54715 0.20964 0.22908
 C2268 C 0.53792 0.22470 0.22160
 C2269 C 0.54259 0.23067 0.20456
 C2270 C 0.55606 0.22177 0.19539
 H2271 H 0.59626 0.18671 0.15409
 H2272 H 0.61697 0.17551 0.20604
 H2273 H 0.54406 0.20467 0.24224
 H2274 H 0.53588 0.24230 0.19832
 H2275 H 0.57086 0.20180 0.16759
 H2276 H 0.55969 0.22692 0.18244
 C2277 C 0.07904 0.70251 0.19293
 C2278 C 0.09247 0.71273 0.18470
 C2279 C 0.10631 0.70332 0.17660
 C2280 C 0.10688 0.68375 0.17665
 C2281 C 0.09321 0.67405 0.18507
 N2282 N 0.07989 0.68354 0.19295
 C2283 C 0.06440 0.71176 0.20228
 N2284 N 0.05634 0.70255 0.21581
 C2285 C 0.04312 0.71033 0.22535
 C2286 C 0.03725 0.72846 0.22145
 C2287 C 0.04507 0.73803 0.20727
 C2288 C 0.05859 0.72975 0.19766
 H2289 H 0.11678 0.71138 0.17067
 H2290 H 0.09304 0.65896 0.18531
 H2291 H 0.03736 0.70238 0.23608
 H2292 H 0.04085 0.75199 0.20369
 H2293 H 0.09263 0.72781 0.18491
 H2294 H 0.06427 0.73733 0.18667
 C2295 C 0.07904 0.20134 0.69348
 C2296 C 0.09232 0.21217 0.68573
 C2297 C 0.10666 0.20342 0.67787
 C2298 C 0.10789 0.18388 0.67766
 C2299 C 0.09444 0.17355 0.68577
 N2300 N 0.08059 0.18241 0.69342
 C2301 C 0.06375 0.21007 0.70223
 N2302 N 0.05578 0.20100 0.71590
 C2303 C 0.04208 0.20858 0.72494
 C2304 C 0.03565 0.22633 0.72033
 C2305 C 0.04334 0.23564 0.70594
 C2306 C 0.05732 0.22757 0.69686
 H2307 H 0.11695 0.21198 0.67227
 H2308 H 0.09482 0.15846 0.68587
 H2309 H 0.03643 0.20084 0.73586
 H2310 H 0.03871 0.24927 0.70180
 H2311 H 0.09194 0.22725 0.68608
 H2312 H 0.06292 0.23498 0.68571
 C2313 C 0.41934 0.69305 0.30145
 C2314 C 0.41691 0.67366 0.30234
 C2315 C 0.40226 0.66648 0.31111
 C2316 C 0.39003 0.67852 0.31904
 C2317 C 0.39315 0.69779 0.31810
 N2318 N 0.40749 0.70445 0.30949
 C2319 C 0.43440 0.70162 0.29212
 N2320 N 0.43955 0.71903 0.29689
 C2321 C 0.45281 0.72818 0.28860
 C2322 C 0.46165 0.71992 0.27435
 C2323 C 0.45657 0.70199 0.26916
 C2324 C 0.44300 0.69278 0.27800
 H2325 H 0.40061 0.65150 0.31184
 H2326 H 0.38401 0.70763 0.32385
 H2327 H 0.45622 0.74203 0.29299
 H2328 H 0.46296 0.69514 0.25817
 H2329 H 0.42627 0.66408 0.29659
 H2330 H 0.43902 0.67918 0.27345
 C2331 C 0.42146 0.19993 0.80734
 C2332 C 0.41982 0.19891 0.82579
 C2333 C 0.40485 0.19095 0.83331
 C2334 C 0.39145 0.18400 0.82254
 C2335 C 0.39371 0.18517 0.80414
 N2336 N 0.40843 0.19292 0.79714
 C2337 C 0.43695 0.20833 0.79860
 N2338 N 0.44154 0.20249 0.78214
 C2339 C 0.45522 0.20999 0.77302
 C2340 C 0.46501 0.22456 0.78030
 C2341 C 0.46050 0.23082 0.79725
 C2342 C 0.44656 0.22272 0.80645
 H2343 H 0.40391 0.18996 0.84754
 H2344 H 0.38369 0.18022 0.79528
 H2345 H 0.45815 0.20484 0.75994
 H2346 H 0.46764 0.24209 0.80333
 H2347 H 0.43009 0.20385 0.83437
 H2348 H 0.44306 0.22811 0.81929
 C2349 C 0.92211 0.69567 0.80418
 C2350 C 0.91990 0.67629 0.80576
 C2351 C 0.90503 0.66925 0.81423
 C2352 C 0.89237 0.68141 0.82123
 C2353 C 0.89531 0.70069 0.81975
 N2354 N 0.90986 0.70722 0.81138
 C2355 C 0.93729 0.70400 0.79482
 N2356 N 0.94221 0.72170 0.79887
 C2357 C 0.95555 0.73056 0.79038
 C2358 C 0.96467 0.72165 0.77667
 C2359 C 0.95981 0.70341 0.77226
 C2360 C 0.94618 0.69455 0.78127
 H2361 H 0.90353 0.65428 0.81544
 H2362 H 0.88586 0.71061 0.82483
 H2363 H 0.95879 0.74467 0.79414
 H2364 H 0.96641 0.69604 0.76170
 H2365 H 0.92957 0.66660 0.80073
 H2366 H 0.94238 0.68070 0.77724
 C2367 C 0.91724 0.20156 0.30603
 C2368 C 0.90417 0.21260 0.31392
 C2369 C 0.88969 0.20408 0.32180
 C2370 C 0.88809 0.18458 0.32187
 C2371 C 0.90142 0.17406 0.31375
 N2372 N 0.91539 0.18268 0.30610
 C2373 C 0.93266 0.20996 0.29712
 N2374 N 0.94058 0.20061 0.28365
 C2375 C 0.95444 0.20778 0.27453
 C2376 C 0.96113 0.22539 0.27882
 C2377 C 0.95345 0.23501 0.29298
 C2378 C 0.93930 0.22736 0.30215
 H2379 H 0.87955 0.21281 0.32746
 H2380 H 0.90083 0.15898 0.31361
 H2381 H 0.96004 0.19981 0.26380
 H2382 H 0.95825 0.24856 0.29689
 H2383 H 0.90481 0.22766 0.31364
 H2384 H 0.93375 0.23500 0.31311
 C2385 C 0.30964 0.29915 0.57825
 C2386 C 0.31193 0.31852 0.57946
 C2387 C 0.32012 0.32596 0.59421
 C2388 C 0.32623 0.31421 0.60774
 C2389 C 0.32454 0.29486 0.60562
 N2390 N 0.31628 0.28791 0.59119
 C2391 C 0.29970 0.29073 0.56356
 N2392 N 0.30297 0.27272 0.55889
 C2393 C 0.29387 0.26405 0.54589
 C2394 C 0.28039 0.27353 0.53692
 C2395 C 0.27677 0.29204 0.54163
 C2396 C 0.28632 0.30065 0.55489
 H2397 H 0.32159 0.34095 0.59510
 H2398 H 0.32914 0.28531 0.61572
 H2399 H 0.29703 0.24972 0.54275
 H2400 H 0.26642 0.29987 0.53518
 H2401 H 0.30745 0.32792 0.56918
 H2402 H 0.28285 0.31474 0.55857
 C2403 C 0.30081 0.80187 0.08044
 C2404 C 0.30216 0.82131 0.08207
 C2405 C 0.31057 0.82883 0.09671
 C2406 C 0.31770 0.81708 0.10976
 C2407 C 0.31645 0.79771 0.10740
 N2408 N 0.30815 0.79072 0.09303
 C2409 C 0.29162 0.79312 0.06543
 N2410 N 0.29610 0.77544 0.06067
 C2411 C 0.28796 0.76634 0.04732
 C2412 C 0.27423 0.77496 0.03801
 C2413 C 0.26932 0.79313 0.04278
 C2414 C 0.27795 0.80224 0.05643
 H2415 H 0.31162 0.84384 0.09773
 H2416 H 0.32166 0.78812 0.11715
 H2417 H 0.29211 0.75229 0.04417
 H2418 H 0.25872 0.80028 0.03605
 H2419 H 0.29702 0.83068 0.07209
 H2420 H 0.27360 0.81606 0.06012
 C2421 C 0.80388 0.30167 0.07764
 C2422 C 0.80533 0.32113 0.07899
 C2423 C 0.81378 0.32882 0.09351
 C2424 C 0.82087 0.31723 0.10670
 C2425 C 0.81958 0.29784 0.10459
 N2426 N 0.81122 0.29067 0.09035
 C2427 C 0.79451 0.29272 0.06289
 N2428 N 0.79876 0.27489 0.05846
 C2429 C 0.79035 0.26553 0.04546
 C2430 C 0.77653 0.27405 0.03620
 C2431 C 0.77187 0.29240 0.04059
 C2432 C 0.78080 0.30177 0.05388
 H2433 H 0.81486 0.34385 0.09436
 H2434 H 0.82476 0.28836 0.11446
 H2435 H 0.79431 0.25136 0.04258
 H2436 H 0.76122 0.29947 0.03387
 H2437 H 0.80019 0.33037 0.06890
 H2438 H 0.77662 0.31571 0.05733
 C2439 C 0.80595 0.79726 0.57718
 C2440 C 0.80811 0.81665 0.57831
 C2441 C 0.81680 0.82417 0.59274
 C2442 C 0.82349 0.81248 0.60605
 C2443 C 0.82179 0.79312 0.60403
 N2444 N 0.81310 0.78610 0.58990
 C2445 C 0.79578 0.78867 0.56274
 N2446 N 0.79919 0.77069 0.55813
 C2447 C 0.78999 0.76179 0.54535
 C2448 C 0.77626 0.77100 0.53653
 C2449 C 0.77246 0.78949 0.54118
 C2450 C 0.78214 0.79835 0.55422
 H2451 H 0.81824 0.83916 0.59352
 H2452 H 0.82679 0.78360 0.61398
 H2453 H 0.79330 0.74748 0.54227
 H2454 H 0.76190 0.79709 0.53483
 H2455 H 0.80321 0.82599 0.56818
 H2456 H 0.77859 0.81243 0.55786
 C2457 C 0.30714 0.70291 0.41912
 C2458 C 0.31548 0.71354 0.40593
 C2459 C 0.32290 0.70463 0.39137
 C2460 C 0.32205 0.68515 0.38983
 C2461 C 0.31364 0.67504 0.40334
 N2462 N 0.30644 0.68404 0.41736
 C2463 C 0.29835 0.71164 0.43447
 N2464 N 0.28504 0.70231 0.44262
 C2465 C 0.27597 0.70958 0.45646
 C2466 C 0.28014 0.72732 0.46292
 C2467 C 0.29409 0.73700 0.45501
 C2468 C 0.30323 0.72922 0.44085
 H2469 H 0.32887 0.71305 0.38109
 H2470 H 0.31283 0.65999 0.40281
 H2471 H 0.26540 0.70156 0.46224
 H2472 H 0.29787 0.75066 0.45965
 H2473 H 0.31584 0.72861 0.40647
 H2474 H 0.31405 0.73689 0.43512
 C2475 C 0.30477 0.19724 0.92173
 C2476 C 0.30633 0.17781 0.91999
 C2477 C 0.31475 0.17041 0.90522
 C2478 C 0.32175 0.18225 0.89219
 C2479 C 0.32046 0.20160 0.89473
 N2480 N 0.31208 0.20849 0.90918
 C2481 C 0.29526 0.20586 0.93671
 N2482 N 0.29920 0.22367 0.94138
 C2483 C 0.29062 0.23270 0.95460
 C2484 C 0.27698 0.22385 0.96386
 C2485 C 0.27266 0.20553 0.95921
 C2486 C 0.28173 0.19651 0.94569
 H2487 H 0.31585 0.15541 0.90404
 H2488 H 0.32563 0.21125 0.88500
 H2489 H 0.29432 0.24687 0.95767
 H2490 H 0.26215 0.19820 0.96589
 H2491 H 0.30126 0.16835 0.92992
 H2492 H 0.27776 0.18259 0.94207
 C2493 C 0.80728 0.70626 0.91933
 C2494 C 0.81553 0.71692 0.90610
 C2495 C 0.82329 0.70797 0.89173
 C2496 C 0.82285 0.68845 0.89042
 C2497 C 0.81455 0.67833 0.90398
 N2498 N 0.80701 0.68735 0.91780
 C2499 C 0.79806 0.71493 0.93446
 N2500 N 0.78506 0.70518 0.94264
 C2501 C 0.77565 0.71225 0.95633
 C2502 C 0.77912 0.73024 0.96261
 C2503 C 0.79274 0.74040 0.95465
 C2504 C 0.80224 0.73282 0.94062
 H2505 H 0.82920 0.71638 0.88140
 H2506 H 0.81406 0.66326 0.90365
 H2507 H 0.76536 0.70385 0.96215
 H2508 H 0.79596 0.75427 0.95916
 H2509 H 0.81557 0.73199 0.90646
 H2510 H 0.81280 0.74085 0.93486
 C2511 C 0.80115 0.19748 0.42045
 C2512 C 0.80254 0.17800 0.41909
 C2513 C 0.81121 0.17021 0.40464
 C2514 C 0.81859 0.18171 0.39154
 C2515 C 0.81732 0.20112 0.39366
 N2516 N 0.80875 0.20839 0.40782
 C2517 C 0.79162 0.20656 0.43518
 N2518 N 0.79583 0.22437 0.43959
 C2519 C 0.78735 0.23381 0.45260
 C2520 C 0.77351 0.22539 0.46193
 C2521 C 0.76888 0.20708 0.45754
 C2522 C 0.77787 0.19764 0.44422
 H2523 H 0.81225 0.15517 0.40379
 H2524 H 0.82271 0.21054 0.38385
 H2525 H 0.79129 0.24794 0.45548
 H2526 H 0.75822 0.20007 0.46430
 H2527 H 0.79721 0.16881 0.42911
 H2528 H 0.77371 0.18372 0.44080
 C2529 C 0.69208 0.30133 0.41737
 C2530 C 0.68427 0.29055 0.40417
 C2531 C 0.67658 0.29935 0.38968
 C2532 C 0.67655 0.31889 0.38821
 C2533 C 0.68463 0.32916 0.40164
 N2534 N 0.69214 0.32025 0.41562
 C2535 C 0.70090 0.29261 0.43272
 N2536 N 0.71444 0.30171 0.44046
 C2537 C 0.72354 0.29428 0.45422
 C2538 C 0.71913 0.27664 0.46104
 C2539 C 0.70490 0.26723 0.45357
 C2540 C 0.69576 0.27515 0.43945
 H2541 H 0.67099 0.29080 0.37942
 H2542 H 0.68485 0.34424 0.40113
 H2543 H 0.73431 0.30211 0.45970
 H2544 H 0.70095 0.25367 0.45849
 H2545 H 0.68450 0.27547 0.40472
 H2546 H 0.68475 0.26770 0.43401
 C2547 C 0.69445 0.80014 0.91884
 C2548 C 0.68695 0.78922 0.90557
 C2549 C 0.67925 0.79788 0.89101
 C2550 C 0.67896 0.81741 0.88954
 C2551 C 0.68682 0.82783 0.90298
 N2552 N 0.69430 0.81906 0.91706
 C2553 C 0.70316 0.79158 0.93433
 N2554 N 0.71620 0.80110 0.94249
 C2555 C 0.72523 0.79385 0.95639
 C2556 C 0.72131 0.77593 0.96286
 C2557 C 0.70758 0.76610 0.95497
 C2558 C 0.69847 0.77386 0.94077
 H2559 H 0.67381 0.78926 0.88073
 H2560 H 0.68685 0.84292 0.90243
 H2561 H 0.73561 0.80200 0.96217
 H2562 H 0.70400 0.75231 0.95963
 H2563 H 0.68737 0.77415 0.90610
 H2564 H 0.68782 0.76606 0.93504
 C2565 C 0.19385 0.29684 0.91888
 C2566 C 0.18605 0.28581 0.90587
 C2567 C 0.17816 0.29435 0.89134
 C2568 C 0.17795 0.31387 0.88966
 C2569 C 0.18604 0.32439 0.90290
 N2570 N 0.19372 0.31574 0.91692
 C2571 C 0.20285 0.28843 0.93427
 N2572 N 0.21622 0.29790 0.94192
 C2573 C 0.22545 0.29081 0.95576
 C2574 C 0.22137 0.27314 0.96273
 C2575 C 0.20732 0.26336 0.95534
 C2576 C 0.19804 0.27094 0.94117
 H2577 H 0.17255 0.28563 0.88122
 H2578 H 0.18611 0.33947 0.90221
 H2579 H 0.23608 0.29891 0.96115
 H2580 H 0.20362 0.24976 0.96039
 H2581 H 0.18641 0.27074 0.90657
 H2582 H 0.18716 0.26320 0.93581
 C2583 C 0.19598 0.79941 0.42011
 C2584 C 0.18850 0.78863 0.40672
 C2585 C 0.18046 0.79744 0.39244
 C2586 C 0.17978 0.81699 0.39138
 C2587 C 0.18763 0.82728 0.40493
 N2588 N 0.19546 0.81835 0.41872
 C2589 C 0.20496 0.79066 0.43533
 N2590 N 0.21821 0.80001 0.44334
 C2591 C 0.22741 0.79255 0.45702
 C2592 C 0.22343 0.77462 0.46342
 C2593 C 0.20951 0.76497 0.45566
 C2594 C 0.20025 0.77293 0.44168
 H2595 H 0.17507 0.78893 0.38205
 H2596 H 0.18737 0.84237 0.40468
 H2597 H 0.23794 0.80056 0.46273
 H2598 H 0.20588 0.75118 0.46027
 H2599 H 0.18920 0.77356 0.40697
 H2600 H 0.18946 0.76527 0.43604
 C2601 C 0.69175 0.69921 0.58258
 C2602 C 0.68377 0.71024 0.59559
 C2603 C 0.67559 0.70170 0.60996
 C2604 C 0.67528 0.68217 0.61150
 C2605 C 0.68359 0.67164 0.59830
 N2606 N 0.69154 0.68030 0.58441
 C2607 C 0.70093 0.70764 0.56727
 N2608 N 0.71437 0.69811 0.55958
 C2609 C 0.72369 0.70520 0.54578
 C2610 C 0.71962 0.72293 0.53888
 C2611 C 0.70554 0.73279 0.54634
 C2612 C 0.69617 0.72522 0.56048
 H2613 H 0.66982 0.71041 0.62007
 H2614 H 0.68362 0.65656 0.59891
 H2615 H 0.73434 0.69704 0.54033
 H2616 H 0.70183 0.74643 0.54134
 H2617 H 0.68419 0.72531 0.59499
 H2618 H 0.68524 0.73301 0.56585
 C2619 C 0.69414 0.19711 0.08026
 C2620 C 0.67578 0.19651 0.08142
 C2621 C 0.66787 0.18788 0.09594
 C2622 C 0.67816 0.17983 0.10934
 C2623 C 0.69647 0.18053 0.10752
 N2624 N 0.70387 0.18898 0.09324
 C2625 C 0.70332 0.20608 0.06525
 N2626 N 0.71973 0.20008 0.06097
 C2627 C 0.72919 0.20785 0.04763
 C2628 C 0.72229 0.22282 0.03780
 C2629 C 0.70545 0.22935 0.04206
 C2630 C 0.69591 0.22102 0.05573
 H2631 H 0.65371 0.18729 0.09656
 H2632 H 0.70494 0.17471 0.11758
 H2633 H 0.74218 0.20245 0.04488
 H2634 H 0.69967 0.24093 0.03489
 H2635 H 0.66758 0.20231 0.07112
 H2636 H 0.68311 0.22654 0.05903
 C2637 C 0.19127 0.69513 0.07749
 C2638 C 0.17289 0.69453 0.07820
 C2639 C 0.16464 0.68575 0.09245
 C2640 C 0.17461 0.67756 0.10601
 C2641 C 0.19296 0.67803 0.10451
 N2642 N 0.20069 0.68667 0.09051
 C2643 C 0.20077 0.70472 0.06303
 N2644 N 0.21735 0.69905 0.05901
 C2645 C 0.22713 0.70750 0.04627
 C2646 C 0.22039 0.72284 0.03685
 C2647 C 0.20337 0.72903 0.04086
 C2648 C 0.19352 0.72001 0.05389
 H2649 H 0.15046 0.68534 0.09284
 H2650 H 0.20119 0.67203 0.11469
 H2651 H 0.24023 0.70233 0.04368
 H2652 H 0.19770 0.74086 0.03398
 H2653 H 0.16493 0.70057 0.06784
 H2654 H 0.18059 0.72529 0.05703
 C2655 C 0.19412 0.20185 0.58030
 C2656 C 0.18611 0.21257 0.59352
 C2657 C 0.17782 0.20370 0.60766
 C2658 C 0.17743 0.18415 0.60874
 C2659 C 0.18571 0.17392 0.59531
 N2660 N 0.19378 0.18290 0.58168
 C2661 C 0.20357 0.21058 0.56532
 N2662 N 0.21687 0.20099 0.55747
 C2663 C 0.22646 0.20829 0.54396
 C2664 C 0.22284 0.22632 0.53755
 C2665 C 0.20890 0.23628 0.54517
 C2666 C 0.19923 0.22847 0.55900
 H2667 H 0.17206 0.21217 0.61795
 H2668 H 0.18565 0.15883 0.59555
 H2669 H 0.23699 0.20005 0.53837
 H2670 H 0.20554 0.25015 0.54054
 H2671 H 0.18662 0.22765 0.59329
 H2672 H 0.18842 0.23635 0.56450
   
