data_POSCAR
  _audit_creation_date              2014-09-24
  _audit_creation_method            'ToBaCCo'
  _symmetry_space_group_name_H-M    'P1'
  _symmetry_Int_Tables_number       1
  _symmetry_cell_setting            triclinic
  loop_
  _symmetry_equiv_pos_as_xyz
 x,y,z
_cell_length_a 62.4823
_cell_length_b 62.3765
_cell_length_c 62.4033
_cell_angle_alpha 89.942200
_cell_angle_beta 90.017800
_cell_angle_gamma 90.009000
loop_
  _atom_site_label
  _atom_site_type_symbol
  _atom_site_fract_x
  _atom_site_fract_y
  _atom_site_fract_z
O1 O 0.33990 0.36900 0.01872
 O2 O 0.37030 0.34079 -0.02319
 O3 O 0.34028 0.36970 -0.02298
 O4 O 0.37001 0.33995 0.01850
 O5 O 0.34551 0.31451 0.01785
 O6 O 0.31583 0.34425 -0.02359
 O7 O 0.34579 0.31535 -0.02381
 O8 O 0.31543 0.34352 0.01807
 Cu9 Cu 0.35757 0.35741 -0.00214
 Cu10 Cu 0.32819 0.32686 -0.00290
 C11 C 0.32239 0.36116 0.02549
 C12 C 0.36324 0.32322 -0.03068
 C13 C 0.32293 0.36209 -0.03044
 C14 C 0.36291 0.32206 0.02519
 O15 O 0.65926 0.63034 0.02169
 O16 O 0.63043 0.66008 -0.02039
 O17 O 0.65963 0.63022 -0.02010
 O18 O 0.63001 0.66015 0.02123
 O19 O 0.65520 0.68492 0.02136
 O20 O 0.68478 0.65498 -0.01993
 O21 O 0.65565 0.68482 -0.02021
 O22 O 0.68441 0.65515 0.02182
 Cu23 Cu 0.64234 0.64269 0.00059
 Cu24 Cu 0.67256 0.67241 0.00078
 C25 C 0.67678 0.63768 0.02898
 C26 C 0.63804 0.67762 -0.02741
 C27 C 0.67731 0.63745 -0.02715
 C28 C 0.63747 0.67774 0.02828
 O29 O 0.63270 0.33977 1.02339
 O30 O 0.66177 0.36829 0.98076
 O31 O 0.63233 0.33864 0.98168
 O32 O 0.66232 0.36915 1.02237
 O33 O 0.68721 0.34413 1.02270
 O34 O 0.65731 0.31367 0.98205
 O35 O 0.68673 0.34330 0.98112
 O36 O 0.65764 0.31475 1.02375
 Cu37 Cu 0.64476 0.35645 1.00200
 Cu38 Cu 0.67470 0.32644 1.00243
 C39 C 0.64019 0.32237 1.03087
 C40 C 0.67931 0.36077 0.97375
 C41 C 0.63968 0.32089 0.97493
 C42 C 0.67999 0.36193 1.02947
 O43 O 0.34104 0.62792 0.97909
 O44 O 0.37087 0.65740 1.02066
 O45 O 0.34149 0.62776 1.02077
 O46 O 0.37072 0.65740 0.97886
 O47 O 0.34577 0.68240 0.97907
 O48 O 0.31656 0.65275 1.02094
 O49 O 0.34587 0.68235 1.02079
 O50 O 0.31614 0.65298 0.97932
 Cu51 Cu 0.35855 0.64013 0.99980
 Cu52 Cu 0.32861 0.67013 1.00003
 C53 C 0.32340 0.63536 0.97218
 C54 C 0.36342 0.67493 1.02788
 C55 C 0.32396 0.63512 1.02804
 C56 C 0.36328 0.67500 0.97181
 O57 O -0.02106 0.37220 0.34284
 O58 O 0.02061 0.34273 0.37242
 O59 O 0.02066 0.37221 0.34278
 O60 O -0.02110 0.34250 0.37226
 O61 O -0.02096 0.31761 0.34723
 O62 O 0.02068 0.34718 0.31784
 O63 O 0.02068 0.31776 0.34742
 O64 O -0.02096 0.34722 0.31785
 Cu65 Cu -0.00023 0.35991 0.36008
 Cu66 Cu -0.00013 0.32995 0.33009
 C67 C -0.02815 0.36476 0.32527
 C68 C 0.02778 0.32518 0.36500
 C69 C 0.02781 0.36475 0.32523
 C70 C -0.02822 0.32492 0.36480
 O71 O 0.02008 0.66076 0.63028
 O72 O -0.02042 0.63050 0.66080
 O73 O -0.02155 0.65984 0.63102
 O74 O 0.02121 0.63106 0.65970
 O75 O 0.02132 0.65607 0.68465
 O76 O -0.02145 0.68487 0.65591
 O77 O -0.02027 0.65560 0.68567
 O78 O 0.02014 0.68573 0.65527
 Cu79 Cu -0.00018 0.64303 0.64295
 Cu80 Cu -0.00005 0.67307 0.67287
 C81 C 0.02700 0.67848 0.63756
 C82 C -0.02724 0.63788 0.67850
 C83 C -0.02883 0.67734 0.63847
 C84 C 0.02855 0.63859 0.67713
 O85 O 1.02314 0.63105 0.33888
 O86 O 0.98234 0.66104 0.36913
 O87 O 0.98156 0.63177 0.33927
 O88 O 1.02399 0.66010 0.36886
 O89 O 1.02428 0.68540 0.34420
 O90 O 0.98186 0.65710 0.31459
 O91 O 0.98267 0.68633 0.34442
 O92 O 1.02341 0.65641 0.31423
 Cu93 Cu 1.00271 0.64346 0.35652
 Cu94 Cu 1.00307 0.67386 0.32690
 C95 C 1.03019 0.63856 0.32131
 C96 C 0.97557 0.67887 0.36198
 C97 C 0.97454 0.63950 0.32178
 C98 C 1.03143 0.67765 0.36165
 O99 O 0.97704 0.33868 0.63079
 O100 O 1.01788 0.36870 0.66099
 O101 O 1.01861 0.33889 0.63168
 O102 O 0.97623 0.36862 0.65991
 O103 O 0.97575 0.34386 0.68516
 O104 O 1.01812 0.31415 0.65691
 O105 O 1.01737 0.34392 0.68621
 O106 O 0.97658 0.31395 0.65608
 Cu107 Cu 0.99750 0.35622 0.64333
 Cu108 Cu 0.99691 0.32651 0.67363
 C109 C 0.96989 0.32111 0.63822
 C110 C 1.02457 0.36147 0.67882
 C111 C 1.02556 0.32132 0.63934
 C112 C 0.96875 0.36136 0.67740
 O113 O 0.36737 0.02326 0.33961
 O114 O 0.33841 -0.01951 0.36807
 O115 O 0.36782 -0.01847 0.33842
 O116 O 0.33780 0.02212 0.36903
 O117 O 0.31286 0.02243 0.34401
 O118 O 0.34282 -0.01811 0.31347
 O119 O 0.31342 -0.01917 0.34310
 O120 O 0.34240 0.02359 0.31462
 Cu121 Cu 0.35537 0.00180 0.35627
 Cu122 Cu 0.32539 0.00221 0.32628
 C123 C 0.35985 0.03075 0.32224
 C124 C 0.32087 -0.02656 0.36055
 C125 C 0.36048 -0.02520 0.32067
 C126 C 0.32013 0.02916 0.36179
 O127 O 0.65872 -0.02135 0.62810
 O128 O 0.62895 0.02036 0.65743
 O129 O 0.65830 0.02035 0.62780
 O130 O 0.62902 -0.02145 0.65753
 O131 O 0.65397 -0.02120 0.68254
 O132 O 0.68326 0.02057 0.65280
 O133 O 0.65396 0.02054 0.68238
 O134 O 0.68361 -0.02107 0.65316
 Cu135 Cu 0.64123 -0.00057 0.64022
 Cu136 Cu 0.67118 -0.00029 0.67023
 C137 C 0.67634 -0.02826 0.63557
 C138 C 0.63642 0.02763 0.67493
 C139 C 0.67582 0.02760 0.63518
 C140 C 0.63645 -0.02846 0.67515
 O141 O 0.36971 0.97986 0.66025
 O142 O 0.34082 1.02191 0.63051
 O143 O 0.37012 1.02149 0.66026
 O144 O 0.34053 0.98010 0.63037
 O145 O 0.31537 0.98026 0.65514
 O146 O 0.34496 1.02161 0.68504
 O147 O 0.31570 1.02202 0.65532
 O148 O 0.34450 0.98002 0.68499
 Cu149 Cu 0.35780 1.00083 0.64284
 Cu150 Cu 0.32758 1.00099 0.67257
 C151 C 0.36210 0.97283 0.67779
 C152 C 0.32331 1.02919 0.63785
 C153 C 0.36268 1.02855 0.67784
 C154 C 0.32288 0.97307 0.63765
 O155 O 0.62994 0.97736 0.34066
 O156 O 0.66040 1.01925 0.36894
 O157 O 0.63026 1.01907 0.33992
 O158 O 0.65990 0.97753 0.36966
 O159 O 0.68440 0.97692 0.34423
 O160 O 0.65477 1.01843 0.31451
 O161 O 0.68485 1.01861 0.34352
 O162 O 0.65448 0.97676 0.31527
 Cu163 Cu 0.64268 0.99840 0.35734
 Cu164 Cu 0.67208 0.99765 0.32684
 C165 C 0.63701 0.96988 0.32310
 C166 C 0.67795 1.02606 0.36117
 C167 C 0.63737 1.02577 0.32204
 C168 C 0.67723 0.97010 0.36202
 C169 C 0.81345 0.81200 0.51083
 C170 C 0.81397 0.81175 0.48898
 C171 C 0.82970 0.79852 0.47702
 C172 C 0.79933 0.82528 0.47593
 C173 C 0.79973 0.82732 0.52277
 C174 C 0.82707 0.79747 0.52391
 C175 C 0.85178 0.80063 0.48081
 C176 C 0.86642 0.78816 0.46936
 C177 C 0.85916 0.77363 0.45389
 C178 C 0.83721 0.77168 0.44984
 C179 C 0.82255 0.78413 0.46129
 C180 C 0.80787 0.83939 0.46061
 C181 C 0.79441 0.85277 0.44874
 C182 C 0.77224 0.85210 0.45194
 C183 C 0.76356 0.83773 0.46686
 C184 C 0.77702 0.82430 0.47872
 C185 C 0.78512 0.81966 0.53805
 C186 C 0.77210 0.83394 0.54935
 C187 C 0.77369 0.85601 0.54559
 C188 C 0.78846 0.86378 0.53060
 C189 C 0.80150 0.84952 0.51931
 C190 C 0.82666 0.77514 0.52083
 C191 C 0.84004 0.76180 0.53291
 C192 C 0.85376 0.77061 0.54831
 C193 C 0.85388 0.79278 0.55176
 C194 C 0.84057 0.80612 0.53970
 H195 H 0.85764 0.81197 0.49256
 H196 H 0.88339 0.78990 0.47252
 H197 H 0.83143 0.76056 0.43784
 H198 H 0.80561 0.78241 0.45802
 H199 H 0.82501 0.84034 0.45815
 H200 H 0.80130 0.86380 0.43723
 H201 H 0.77009 0.81327 0.49020
 H202 H 0.78366 0.80262 0.54105
 H203 H 0.76080 0.82777 0.56099
 H204 H 0.78992 0.88084 0.52768
 H205 H 0.81298 0.85577 0.50791
 H206 H 0.81610 0.76811 0.50901
 H207 H 0.83976 0.74465 0.53016
 H208 H 0.86442 0.79977 0.56365
 H209 H 0.84106 0.82327 0.54239
 H210 H 0.74642 0.83702 0.46940
 C211 C 0.18621 0.18850 0.51305
 C212 C 0.18629 0.18826 0.49120
 C213 C 0.17256 0.20296 0.47845
 C214 C 0.19963 0.17283 0.47893
 C215 C 0.20111 0.17496 0.52576
 C216 C 0.17073 0.20174 0.52536
 C217 C 0.15863 0.19451 0.46296
 C218 C 0.14519 0.20805 0.45125
 C219 C 0.14564 0.23020 0.45479
 C220 C 0.15980 0.23881 0.46990
 C221 C 0.17329 0.22527 0.48161
 C222 C 0.19784 0.15064 0.48246
 C223 C 0.21041 0.13629 0.47075
 C224 C 0.22472 0.14394 0.45526
 C225 C 0.22634 0.16601 0.45146
 C226 C 0.21380 0.18038 0.46317
 C227 C 0.22335 0.17592 0.52243
 C228 C 0.23707 0.16248 0.53398
 C229 C 0.22871 0.14814 0.54910
 C230 C 0.20664 0.14749 0.55283
 C231 C 0.19291 0.16088 0.54129
 C232 C 0.17820 0.21601 0.54107
 C233 C 0.16378 0.22844 0.55284
 C234 C 0.14175 0.22659 0.54916
 C235 C 0.13418 0.21218 0.53373
 C236 C 0.14858 0.19973 0.52195
 H237 H 0.15789 0.17738 0.46022
 H238 H 0.13431 0.20122 0.43958
 H239 H 0.16034 0.25594 0.47270
 H240 H 0.18420 0.23214 0.49322
 H241 H 0.18668 0.14447 0.49422
 H242 H 0.20893 0.11924 0.47372
 H243 H 0.21526 0.19741 0.46010
 H244 H 0.23002 0.18694 0.51079
 H245 H 0.25414 0.16316 0.53103
 H246 H 0.20001 0.13647 0.56451
 H247 H 0.17584 0.15995 0.54415
 H248 H 0.19520 0.21765 0.54405
 H249 H 0.16981 0.23948 0.56481
 H250 H 0.11716 0.21052 0.53084
 H251 H 0.14248 0.18848 0.51025
 H252 H 0.23729 0.17210 0.43945
 C253 C 0.18817 0.81302 0.48926
 C254 C 0.18768 0.81312 0.51110
 C255 C 0.17212 0.79987 0.52326
 C256 C 0.20215 0.82704 0.52392
 C257 C 0.20162 0.82833 0.47698
 C258 C 0.17464 0.79818 0.47647
 C259 C 0.15002 0.80175 0.51950
 C260 C 0.13553 0.78908 0.53094
 C261 C 0.14296 0.77459 0.54639
 C262 C 0.16493 0.77292 0.55047
 C263 C 0.17944 0.78556 0.53902
 C264 C 0.19345 0.84111 0.53916
 C265 C 0.20674 0.85476 0.55089
 C266 C 0.22890 0.85440 0.54764
 C267 C 0.23776 0.84010 0.53280
 C268 C 0.22447 0.82640 0.52106
 C269 C 0.21607 0.82062 0.46159
 C270 C 0.22859 0.83489 0.44971
 C271 C 0.22665 0.85700 0.45299
 C272 C 0.21210 0.86481 0.46814
 C273 C 0.19955 0.85056 0.48002
 C274 C 0.17534 0.77590 0.47983
 C275 C 0.16206 0.76226 0.46800
 C276 C 0.14815 0.77075 0.45257
 C277 C 0.14772 0.79287 0.44886
 C278 C 0.16093 0.80651 0.46068
 H279 H 0.14403 0.81301 0.50772
 H280 H 0.11855 0.79061 0.52777
 H281 H 0.17084 0.76183 0.56246
 H282 H 0.19641 0.78403 0.54226
 H283 H 0.17631 0.84180 0.54167
 H284 H 0.19972 0.86573 0.56235
 H285 H 0.23153 0.81540 0.50967
 H286 H 0.21774 0.80355 0.45890
 H287 H 0.23974 0.82869 0.43796
 H288 H 0.21037 0.88190 0.47070
 H289 H 0.18816 0.85683 0.49148
 H290 H 0.18606 0.76912 0.49167
 H291 H 0.16258 0.74515 0.47094
 H292 H 0.13703 0.79961 0.43695
 H293 H 0.16021 0.82362 0.45778
 H294 H 0.25490 0.83963 0.53022
 C295 C 0.81270 0.18607 0.48627
 C296 C 0.81268 0.18594 0.50812
 C297 C 0.82783 0.19931 0.52067
 C298 C 0.79798 0.17196 0.52063
 C299 C 0.79962 0.17067 0.47371
 C300 C 0.82637 0.20114 0.47384
 C301 C 0.85004 0.19763 0.51748
 C302 C 0.86413 0.21031 0.52938
 C303 C 0.85619 0.22462 0.54471
 C304 C 0.83411 0.22612 0.54820
 C305 C 0.82000 0.21346 0.53629
 C306 C 0.80639 0.15801 0.53617
 C307 C 0.79287 0.14447 0.54780
 C308 C 0.77077 0.14482 0.54414
 C309 C 0.76220 0.15896 0.52893
 C310 C 0.77572 0.17255 0.51730
 C311 C 0.78532 0.17827 0.45809
 C312 C 0.77280 0.16392 0.44631
 C313 C 0.77459 0.14183 0.44991
 C314 C 0.78910 0.13413 0.46519
 C315 C 0.80164 0.14846 0.47696
 C316 C 0.82539 0.22339 0.47732
 C317 C 0.83901 0.23723 0.46611
 C318 C 0.85356 0.22900 0.45116
 C319 C 0.85421 0.20691 0.44725
 C320 C 0.84065 0.19307 0.45846
 H321 H 0.85641 0.18649 0.50582
 H322 H 0.88120 0.20893 0.52666
 H323 H 0.82781 0.23707 0.56009
 H324 H 0.80295 0.21484 0.53909
 H325 H 0.82347 0.15737 0.53905
 H326 H 0.79967 0.13364 0.55954
 H327 H 0.76887 0.18346 0.50566
 H328 H 0.78368 0.19532 0.45524
 H329 H 0.76169 0.17004 0.43446
 H330 H 0.79071 0.11706 0.46801
 H331 H 0.81290 0.14226 0.48862
 H332 H 0.81423 0.22997 0.48885
 H333 H 0.83829 0.25430 0.46920
 H334 H 0.86537 0.20037 0.43569
 H335 H 0.84160 0.17599 0.45546
 H336 H 0.74511 0.15943 0.52604
 C337 C 0.51072 0.81293 0.81312
 C338 C 0.48890 0.81295 0.81313
 C339 C 0.47647 0.82826 0.79982
 C340 C 0.47632 0.79816 0.82698
 C341 C 0.52317 0.79959 0.82839
 C342 C 0.52329 0.82680 0.79834
 C343 C 0.47971 0.85048 0.80169
 C344 C 0.46800 0.86472 0.78898
 C345 C 0.45279 0.85692 0.77446
 C346 C 0.44924 0.83482 0.77280
 C347 C 0.46096 0.82056 0.78548
 C348 C 0.46086 0.80654 0.84100
 C349 C 0.44928 0.79295 0.85451
 C350 C 0.45289 0.77081 0.85409
 C351 C 0.46798 0.76227 0.83986
 C352 C 0.47958 0.77586 0.82629
 C353 C 0.53868 0.78528 0.82065
 C354 C 0.55046 0.77260 0.83487
 C355 C 0.54696 0.77424 0.85696
 C356 C 0.53174 0.78872 0.86481
 C357 C 0.51997 0.80142 0.85060
 C358 C 0.52002 0.82611 0.77605
 C359 C 0.53162 0.83969 0.76247
 C360 C 0.54673 0.85391 0.77101
 C361 C 0.55036 0.85433 0.79314
 C362 C 0.53877 0.84080 0.80671
 H363 H 0.49129 0.85675 0.81298
 H364 H 0.47077 0.88180 0.79049
 H365 H 0.43745 0.82863 0.76168
 H366 H 0.45813 0.80350 0.78396
 H367 H 0.45804 0.82366 0.84173
 H368 H 0.43762 0.79974 0.86542
 H369 H 0.49115 0.76903 0.81533
 H370 H 0.54148 0.78378 0.80358
 H371 H 0.56225 0.76151 0.82864
 H372 H 0.52901 0.79021 0.88188
 H373 H 0.50839 0.81269 0.85690
 H374 H 0.50843 0.81516 0.76922
 H375 H 0.52874 0.83916 0.74536
 H376 H 0.56203 0.86523 0.79992
 H377 H 0.54161 0.84152 0.82382
 H378 H 0.47084 0.74515 0.83932
 C379 C 0.51080 0.18769 0.18829
 C380 C 0.48900 0.18838 0.18755
 C381 C 0.47562 0.17509 0.20206
 C382 C 0.47740 0.20197 0.17176
 C383 C 0.52418 0.20220 0.17500
 C384 C 0.52241 0.17196 0.20193
 C385 C 0.45999 0.16145 0.19337
 C386 C 0.44771 0.14838 0.20675
 C387 C 0.45080 0.14891 0.22895
 C388 C 0.46603 0.16281 0.23778
 C389 C 0.47832 0.17593 0.22441
 C390 C 0.48136 0.20002 0.14967
 C391 C 0.47010 0.21265 0.13498
 C392 C 0.45463 0.22721 0.14218
 C393 C 0.45045 0.22905 0.16414
 C394 C 0.46171 0.21644 0.17885
 C395 C 0.52145 0.22456 0.17579
 C396 C 0.53375 0.23794 0.16267
 C397 C 0.54902 0.22910 0.14884
 C398 C 0.55213 0.20689 0.14836
 C399 C 0.53984 0.19351 0.16142
 C400 C 0.53807 0.17912 0.21639
 C401 C 0.54939 0.16446 0.22901
 C402 C 0.54528 0.14247 0.22719
 C403 C 0.52981 0.13519 0.21266
 C404 C 0.51850 0.14984 0.20001
 H405 H 0.45760 0.16064 0.17620
 H406 H 0.43595 0.13769 0.19976
 H407 H 0.46850 0.16339 0.25496
 H408 H 0.49003 0.18663 0.23144
 H409 H 0.49306 0.18863 0.14383
 H410 H 0.47336 0.21099 0.11801
 H411 H 0.45830 0.21805 0.19579
 H412 H 0.50971 0.23160 0.18644
 H413 H 0.53127 0.25511 0.16322
 H414 H 0.56392 0.19989 0.13772
 H415 H 0.54225 0.17633 0.16065
 H416 H 0.54144 0.19608 0.21797
 H417 H 0.56138 0.17026 0.24012
 H418 H 0.52660 0.11821 0.21101
 H419 H 0.50682 0.14395 0.18863
 H420 H 0.43845 0.24018 0.16989
 C421 C 0.49172 0.18785 0.81189
 C422 C 0.51354 0.18792 0.81229
 C423 C 0.52628 0.17440 0.79744
 C424 C 0.52571 0.20096 0.82806
 C425 C 0.47894 0.20262 0.82546
 C426 C 0.47949 0.17251 0.79840
 C427 C 0.54156 0.16012 0.80573
 C428 C 0.55299 0.14662 0.79204
 C429 C 0.54940 0.14737 0.76991
 C430 C 0.53458 0.16194 0.76146
 C431 C 0.52315 0.17549 0.77515
 C432 C 0.52190 0.19885 0.85017
 C433 C 0.53342 0.21122 0.86486
 C434 C 0.54901 0.22565 0.85763
 C435 C 0.55312 0.22756 0.83566
 C436 C 0.54159 0.21522 0.82095
 C437 C 0.48230 0.22490 0.82479
 C438 C 0.47050 0.23851 0.83810
 C439 C 0.45511 0.23000 0.85202
 C440 C 0.45140 0.20787 0.85243
 C441 C 0.46318 0.19427 0.83917
 C442 C 0.46388 0.18015 0.78411
 C443 C 0.45210 0.16585 0.77154
 C444 C 0.45568 0.14376 0.77325
 C445 C 0.47105 0.13601 0.78764
 C446 C 0.48282 0.15030 0.80024
 H447 H 0.54427 0.15910 0.82284
 H448 H 0.56445 0.13543 0.79873
 H449 H 0.53174 0.16271 0.74435
 H450 H 0.51170 0.18666 0.76841
 H451 H 0.51004 0.18762 0.85602
 H452 H 0.53020 0.20950 0.88183
 H453 H 0.54488 0.21693 0.80399
 H454 H 0.49411 0.23170 0.81405
 H455 H 0.47344 0.25562 0.83761
 H456 H 0.43951 0.20113 0.86312
 H457 H 0.46029 0.17716 0.83986
 H458 H 0.46095 0.19721 0.78261
 H459 H 0.44018 0.17202 0.76052
 H460 H 0.47385 0.11894 0.78919
 H461 H 0.49446 0.14405 0.81149
 H462 H 0.56520 0.23861 0.82990
 C463 C 0.48699 0.81271 0.18744
 C464 C 0.50881 0.81233 0.18737
 C465 C 0.52159 0.82590 0.20216
 C466 C 0.52104 0.79884 0.17204
 C467 C 0.47423 0.79785 0.17392
 C468 C 0.47481 0.82846 0.20050
 C469 C 0.53733 0.83965 0.19383
 C470 C 0.54908 0.85293 0.20746
 C471 C 0.54535 0.85251 0.22957
 C472 C 0.52999 0.83854 0.23806
 C473 C 0.51822 0.82520 0.22443
 C474 C 0.51767 0.80064 0.14983
 C475 C 0.52940 0.78800 0.13556
 C476 C 0.54475 0.77358 0.14331
 C477 C 0.54837 0.77192 0.16539
 C478 C 0.53664 0.78454 0.17968
 C479 C 0.47736 0.77555 0.17500
 C480 C 0.46588 0.76186 0.16150
 C481 C 0.45101 0.77030 0.14697
 C482 C 0.44744 0.79244 0.14621
 C483 C 0.45892 0.80614 0.15967
 C484 C 0.45893 0.82129 0.21473
 C485 C 0.44739 0.83597 0.22709
 C486 C 0.45147 0.85796 0.22521
 C487 C 0.46706 0.86524 0.21082
 C488 C 0.47860 0.85058 0.19844
 H489 H 0.54023 0.84037 0.17674
 H490 H 0.56096 0.86366 0.20073
 H491 H 0.52704 0.83803 0.25516
 H492 H 0.50642 0.81444 0.23120
 H493 H 0.50604 0.81190 0.14358
 H494 H 0.52657 0.78952 0.11850
 H495 H 0.53959 0.78305 0.19672
 H496 H 0.48883 0.76881 0.18615
 H497 H 0.46870 0.74474 0.16227
 H498 H 0.43596 0.79914 0.13505
 H499 H 0.45621 0.82326 0.15865
 H500 H 0.45566 0.80432 0.21641
 H501 H 0.43530 0.83017 0.23811
 H502 H 0.47026 0.88223 0.20914
 H503 H 0.49045 0.85647 0.18723
 H504 H 0.56027 0.76089 0.17156
 C505 C 0.81231 0.51182 0.81378
 C506 C 0.81190 0.48996 0.81366
 C507 C 0.79851 0.47761 0.82894
 C508 C 0.82546 0.47723 0.79879
 C509 C 0.82783 0.52405 0.80055
 C510 C 0.79779 0.52457 0.82770
 C511 C 0.80057 0.48063 0.85116
 C512 C 0.78808 0.46869 0.86540
 C513 C 0.77357 0.45348 0.85757
 C514 C 0.77164 0.45021 0.83547
 C515 C 0.78411 0.46216 0.82122
 C516 C 0.83921 0.46145 0.80708
 C517 C 0.85240 0.44965 0.79342
 C518 C 0.85192 0.45336 0.77131
 C519 C 0.83798 0.46879 0.76286
 C520 C 0.82472 0.48061 0.77652
 C521 C 0.82045 0.53978 0.78624
 C522 C 0.83492 0.55126 0.77358
 C523 C 0.85691 0.54724 0.77525
 C524 C 0.86439 0.53183 0.78975
 C525 C 0.84995 0.52036 0.80243
 C526 C 0.77549 0.52160 0.82706
 C527 C 0.76215 0.53327 0.84076
 C528 C 0.77094 0.54816 0.85506
 C529 C 0.79309 0.55151 0.85542
 C530 C 0.80643 0.53985 0.84177
 H531 H 0.81193 0.49214 0.85745
 H532 H 0.78979 0.47123 0.88248
 H533 H 0.76052 0.43842 0.82926
 H534 H 0.78244 0.45948 0.80415
 H535 H 0.83997 0.45854 0.82418
 H536 H 0.86310 0.43773 0.80013
 H537 H 0.81397 0.49244 0.76977
 H538 H 0.80348 0.54296 0.78471
 H539 H 0.82897 0.56322 0.76248
 H540 H 0.88138 0.52870 0.79126
 H541 H 0.85597 0.50860 0.81369
 H542 H 0.76846 0.51017 0.81606
 H543 H 0.74502 0.53061 0.84029
 H544 H 0.80007 0.56301 0.86639
 H545 H 0.82356 0.54245 0.84246
 H546 H 0.83741 0.47173 0.74575
 C547 C 0.18754 0.50913 0.18587
 C548 C 0.18746 0.48727 0.18603
 C549 C 0.20050 0.47466 0.17066
 C550 C 0.17377 0.47487 0.20110
 C551 C 0.17240 0.52173 0.19918
 C552 C 0.20227 0.52159 0.17188
 C553 C 0.19845 0.47787 0.14845
 C554 C 0.21093 0.46603 0.13414
 C555 C 0.22540 0.45072 0.14186
 C556 C 0.22723 0.44717 0.16395
 C557 C 0.21477 0.45902 0.17828
 C558 C 0.15949 0.45946 0.19305
 C559 C 0.14594 0.44825 0.20690
 C560 C 0.14660 0.45219 0.22897
 C561 C 0.16113 0.46718 0.23718
 C562 C 0.17474 0.47839 0.22334
 C563 C 0.18025 0.53736 0.21333
 C564 C 0.16615 0.54926 0.22598
 C565 C 0.14406 0.54578 0.22448
 C566 C 0.13611 0.53045 0.21016
 C567 C 0.15019 0.51855 0.19749
 C568 C 0.22452 0.51821 0.17247
 C569 C 0.23807 0.52979 0.15886
 C570 C 0.22954 0.54499 0.14470
 C571 C 0.20745 0.54870 0.14434
 C572 C 0.19390 0.53713 0.15789
 H573 H 0.18721 0.48954 0.14224
 H574 H 0.20930 0.46880 0.11708
 H575 H 0.23832 0.43531 0.17008
 H576 H 0.21643 0.45621 0.19533
 H577 H 0.15855 0.45645 0.17598
 H578 H 0.13479 0.43667 0.20036
 H579 H 0.18590 0.48994 0.22991
 H580 H 0.19730 0.54014 0.21472
 H581 H 0.17246 0.56115 0.23694
 H582 H 0.11904 0.52773 0.20878
 H583 H 0.14381 0.50688 0.18635
 H584 H 0.23134 0.50657 0.18340
 H585 H 0.25515 0.52685 0.15934
 H586 H 0.20068 0.56044 0.13348
 H587 H 0.17683 0.54006 0.15724
 H588 H 0.16185 0.47028 0.25424
 C589 C 0.81309 0.49050 0.18823
 C590 C 0.81323 0.51236 0.18845
 C591 C 0.79840 0.52510 0.17486
 C592 C 0.82870 0.52466 0.20172
 C593 C 0.82679 0.47774 0.20295
 C594 C 0.79976 0.47824 0.17279
 C595 C 0.80668 0.54064 0.16083
 C596 C 0.79304 0.55224 0.14743
 C597 C 0.77094 0.54857 0.14800
 C598 C 0.76250 0.53345 0.16229
 C599 C 0.77615 0.52184 0.17575
 C600 C 0.85085 0.52123 0.19974
 C601 C 0.86525 0.53300 0.21220
 C602 C 0.85768 0.54845 0.22659
 C603 C 0.83566 0.55214 0.22841
 C604 C 0.82124 0.54037 0.21598
 C605 C 0.82605 0.48091 0.22524
 C606 C 0.83955 0.46922 0.23879
 C607 C 0.85372 0.45411 0.23020
 C608 C 0.85417 0.45055 0.20806
 C609 C 0.84072 0.46224 0.19452
 C610 C 0.78554 0.46251 0.18031
 C611 C 0.77299 0.45081 0.16592
 C612 C 0.77466 0.45460 0.14387
 C613 C 0.78902 0.47006 0.13624
 C614 C 0.80159 0.48176 0.15061
 H615 H 0.82377 0.54345 0.15997
 H616 H 0.79973 0.56393 0.13645
 H617 H 0.74541 0.53055 0.16291
 H618 H 0.76941 0.51020 0.18673
 H619 H 0.85695 0.50952 0.18850
 H620 H 0.88227 0.53011 0.21056
 H621 H 0.80424 0.54336 0.21759
 H622 H 0.81515 0.49253 0.23210
 H623 H 0.83902 0.47204 0.25591
 H624 H 0.86505 0.43888 0.20126
 H625 H 0.84147 0.45949 0.17740
 H626 H 0.78403 0.45945 0.19733
 H627 H 0.76200 0.43882 0.17199
 H628 H 0.79055 0.47302 0.11920
 H629 H 0.81279 0.49350 0.14446
 H630 H 0.82964 0.56412 0.23944
 C631 C 0.18614 0.48814 0.81226
 C632 C 0.18658 0.51000 0.81254
 C633 C 0.20025 0.52198 0.82789
 C634 C 0.17295 0.52306 0.79800
 C635 C 0.17043 0.47614 0.79902
 C636 C 0.20084 0.47513 0.82575
 C637 C 0.19850 0.51847 0.85008
 C638 C 0.21149 0.52980 0.86436
 C639 C 0.22618 0.54489 0.85663
 C640 C 0.22776 0.54870 0.83457
 C641 C 0.21479 0.53736 0.82027
 C642 C 0.15942 0.53882 0.80663
 C643 C 0.14612 0.55089 0.79327
 C644 C 0.14631 0.54747 0.77111
 C645 C 0.16006 0.53209 0.76232
 C646 C 0.17341 0.52000 0.77568
 C647 C 0.17762 0.46042 0.78462
 C648 C 0.16299 0.44896 0.77215
 C649 C 0.14102 0.45296 0.77407
 C650 C 0.13373 0.46841 0.78861
 C651 C 0.14835 0.47987 0.80111
 C652 C 0.22314 0.47804 0.82476
 C653 C 0.23667 0.46622 0.83818
 C654 C 0.22807 0.45124 0.85252
 C655 C 0.20592 0.44791 0.85319
 C656 C 0.19239 0.45973 0.83983
 H657 H 0.18707 0.50699 0.85629
 H658 H 0.21004 0.52684 0.88140
 H659 H 0.23900 0.56042 0.82844
 H660 H 0.21624 0.54040 0.80324
 H661 H 0.15889 0.54149 0.82377
 H662 H 0.13557 0.56277 0.80024
 H663 H 0.18401 0.50821 0.76867
 H664 H 0.19456 0.45720 0.78292
 H665 H 0.16879 0.43698 0.76102
 H666 H 0.11676 0.47153 0.79033
 H667 H 0.14246 0.49160 0.81245
 H668 H 0.23001 0.48957 0.81375
 H669 H 0.25379 0.46886 0.83746
 H670 H 0.19910 0.43634 0.86420
 H671 H 0.17527 0.45718 0.84078
 H672 H 0.16039 0.52937 0.74518
 C673 C 0.30497 0.40368 0.06522
 C674 C 0.28546 0.39531 0.07240
 C675 C 0.27821 0.37561 0.06453
 C676 C 0.29032 0.36438 0.04942
 C677 C 0.30987 0.37274 0.04196
 C678 C 0.31712 0.39248 0.05011
 C679 C 0.27272 0.40707 0.08756
 C680 C 0.26195 0.41699 0.10013
 C681 C 0.24925 0.42865 0.11473
 C682 C 0.23838 0.43867 0.12712
 H683 H 0.31072 0.41893 0.07120
 H684 H 0.26312 0.36899 0.06996
 H685 H 0.28429 0.34923 0.04347
 H686 H 0.33208 0.39937 0.04470
 C687 C 0.69174 0.59490 0.06957
 C688 C 0.71108 0.60295 0.07752
 C689 C 0.71908 0.62242 0.06978
 C690 C 0.70787 0.63377 0.05406
 C691 C 0.68846 0.62578 0.04586
 C692 C 0.68047 0.60624 0.05384
 C693 C 0.72301 0.59107 0.09328
 C694 C 0.73338 0.58122 0.10626
 C695 C 0.74596 0.56979 0.12116
 C696 C 0.75712 0.56009 0.13359
 H697 H 0.68543 0.57982 0.07543
 H698 H 0.73406 0.62877 0.07579
 H699 H 0.71445 0.64876 0.04828
 H700 H 0.66559 0.59965 0.04787
 C701 C 0.72273 0.37637 0.93430
 C702 C 0.71495 0.39595 0.92658
 C703 C 0.69529 0.40379 0.93390
 C704 C 0.68354 0.39221 0.94905
 C705 C 0.69134 0.37263 0.95709
 C706 C 0.71101 0.36477 0.94945
 C707 C 0.72734 0.40819 0.91149
 C708 C 0.73782 0.41853 0.89901
 C709 C 0.75018 0.43069 0.88453
 C710 C 0.76082 0.44109 0.87222
 H711 H 0.73795 0.37017 0.92874
 H712 H 0.68914 0.41894 0.92804
 H713 H 0.66846 0.39871 0.95461
 H714 H 0.71746 0.34975 0.95532
 C715 C 0.30646 0.59199 0.93311
 C716 C 0.28690 0.60009 0.92574
 C717 C 0.27947 0.61985 0.93327
 C718 C 0.29144 0.63141 0.94823
 C719 C 0.31105 0.62335 0.95588
 C720 C 0.31848 0.60354 0.94808
 C721 C 0.27427 0.58804 0.91070
 C722 C 0.26346 0.57805 0.89821
 C723 C 0.25061 0.56644 0.88369
 C724 C 0.23952 0.55659 0.87134
 H725 H 0.31236 0.57670 0.92738
 H726 H 0.26435 0.62625 0.92768
 H727 H 0.28526 0.64660 0.95390
 H728 H 0.33349 0.59689 0.95365
 C729 C 0.06789 0.30959 0.40791
 C730 C 0.07571 0.29019 0.39984
 C731 C 0.06803 0.28235 0.38030
 C732 C 0.05251 0.29378 0.36890
 C733 C 0.04445 0.31324 0.37693
 C734 C 0.05236 0.32107 0.39654
 C735 C 0.09129 0.27809 0.41176
 C736 C 0.10414 0.26765 0.42170
 C737 C 0.11892 0.25505 0.43327
 C738 C 0.13127 0.24393 0.44311
 H739 H 0.07370 0.31579 0.42305
 H740 H 0.07395 0.26732 0.37393
 H741 H 0.04677 0.28731 0.35386
 H742 H 0.04650 0.33599 0.40315
 C743 C 0.06567 0.72245 0.62147
 C744 C 0.07310 0.71488 0.60174
 C745 C 0.06563 0.69530 0.59376
 C746 C 0.05071 0.68334 0.60545
 C747 C 0.04307 0.69087 0.62528
 C748 C 0.05076 0.71054 0.63318
 C749 C 0.08823 0.72736 0.58964
 C750 C 0.10083 0.73801 0.57962
 C751 C 0.11553 0.75064 0.56800
 C752 C 0.12804 0.76153 0.55813
 H753 H 0.07135 0.73759 0.62778
 H754 H 0.07128 0.68930 0.57849
 H755 H 0.04510 0.66828 0.59892
 H756 H 0.04521 0.71680 0.64838
 C757 C 0.93699 0.72280 0.37834
 C758 C 0.92937 0.71496 0.39792
 C759 C 0.93665 0.69520 0.40565
 C760 C 0.95159 0.68335 0.39391
 C761 C 0.95944 0.69116 0.37426
 C762 C 0.95192 0.71100 0.36658
 C763 C 0.91421 0.72731 0.41011
 C764 C 0.90158 0.73780 0.42025
 C765 C 0.88683 0.75020 0.43204
 C766 C 0.87423 0.76086 0.44204
 H767 H 0.93146 0.73809 0.37221
 H768 H 0.93085 0.68899 0.42080
 H769 H 0.95705 0.66815 0.40027
 H770 H 0.95764 0.71747 0.35152
 C771 C 0.93126 0.27716 0.62198
 C772 C 0.92422 0.28458 0.60203
 C773 C 0.93183 0.30411 0.59403
 C774 C 0.94654 0.31614 0.60589
 C775 C 0.95385 0.30873 0.62591
 C776 C 0.94597 0.28914 0.63386
 C777 C 0.90943 0.27197 0.58965
 C778 C 0.89715 0.26125 0.57931
 C779 C 0.88287 0.24858 0.56724
 C780 C 0.87070 0.23768 0.55696
 H781 H 0.92548 0.26205 0.62831
 H782 H 0.92649 0.30999 0.57859
 H783 H 0.95231 0.33113 0.59931
 H784 H 0.95127 0.28299 0.64920
 C785 C 0.40246 0.07146 0.30750
 C786 C 0.39443 0.07952 0.28817
 C787 C 0.37495 0.07191 0.28016
 C788 C 0.36359 0.05617 0.29132
 C789 C 0.37160 0.04781 0.31068
 C790 C 0.39112 0.05571 0.31871
 C791 C 0.40645 0.09515 0.27624
 C792 C 0.41657 0.10797 0.26593
 C793 C 0.42845 0.12262 0.25350
 C794 C 0.43863 0.13481 0.24251
 H795 H 0.41756 0.07721 0.31382
 H796 H 0.36863 0.07801 0.26517
 H797 H 0.34862 0.05044 0.28471
 H798 H 0.39773 0.04962 0.33356
 C799 C 0.59392 0.06822 0.69038
 C800 C 0.60222 0.07618 0.70963
 C801 C 0.62171 0.06839 0.71743
 C802 C 0.63286 0.05264 0.70610
 C803 C 0.62463 0.04445 0.68678
 C804 C 0.60505 0.05245 0.67900
 C805 C 0.59063 0.09207 0.72165
 C806 C 0.58107 0.10517 0.73211
 C807 C 0.57001 0.12022 0.74480
 C808 C 0.56061 0.13279 0.75604
 H809 H 0.57881 0.07412 0.68422
 H810 H 0.62826 0.07442 0.73233
 H811 H 0.64789 0.04685 0.71253
 H812 H 0.59829 0.04648 0.66418
 C813 C 0.37723 0.93354 0.72161
 C814 C 0.39697 0.92600 0.71421
 C815 C 0.40515 0.93344 0.69470
 C816 C 0.39371 0.94852 0.68269
 C817 C 0.37393 0.95636 0.69010
 C818 C 0.36577 0.94861 0.70965
 C819 C 0.40898 0.91091 0.72685
 C820 C 0.41902 0.89841 0.73761
 C821 C 0.43077 0.88391 0.75036
 C822 C 0.44080 0.87158 0.76133
 H823 H 0.37077 0.92789 0.73670
 H824 H 0.42043 0.92770 0.68883
 H825 H 0.40043 0.95416 0.66772
 H826 H 0.35060 0.95432 0.71580
 C827 C 0.59352 0.93000 0.30861
 C828 C 0.60125 0.92188 0.28921
 C829 C 0.62077 0.92923 0.28104
 C830 C 0.63247 0.94474 0.29214
 C831 C 0.62479 0.95314 0.31159
 C832 C 0.60521 0.94553 0.31976
 C833 C 0.58900 0.90636 0.27737
 C834 C 0.57884 0.89360 0.26705
 C835 C 0.56708 0.87894 0.25451
 C836 C 0.55712 0.86672 0.24337
 H837 H 0.57840 0.92445 0.31505
 H838 H 0.62687 0.92307 0.26601
 H839 H 0.64748 0.95024 0.28541
 H840 H 0.59885 0.95167 0.33469
 C841 C 0.40673 0.30889 0.92943
 C842 C 0.39902 0.28947 0.92128
 C843 C 0.37952 0.28124 0.92862
 C844 C 0.36781 0.29229 0.94414
 C845 C 0.37547 0.31176 0.95256
 C846 C 0.39503 0.31999 0.94497
 C847 C 0.41130 0.27767 0.90578
 C848 C 0.42149 0.26739 0.89302
 C849 C 0.43331 0.25489 0.87840
 C850 C 0.44330 0.24378 0.86619
 H851 H 0.42183 0.31537 0.92389
 H852 H 0.37344 0.26619 0.92244
 H853 H 0.35282 0.28552 0.94963
 H854 H 0.40136 0.33493 0.95112
 C855 C 0.62286 0.72146 0.93334
 C856 C 0.60311 0.71405 0.92582
 C857 C 0.59495 0.69452 0.93325
 C858 C 0.60642 0.68251 0.94830
 C859 C 0.62620 0.68992 0.95612
 C860 C 0.63435 0.70949 0.94838
 C861 C 0.59106 0.72670 0.91078
 C862 C 0.58096 0.73746 0.89832
 C863 C 0.56913 0.75019 0.88387
 C864 C 0.55903 0.76114 0.87158
 H865 H 0.62930 0.73657 0.92770
 H866 H 0.57966 0.68865 0.92754
 H867 H 0.59970 0.66752 0.95394
 H868 H 0.64952 0.71566 0.95408
 C869 C 0.40606 0.69054 0.06828
 C870 C 0.39780 0.70983 0.07619
 C871 C 0.37828 0.71761 0.06842
 C872 C 0.36707 0.70621 0.05276
 C873 C 0.37526 0.68684 0.04462
 C874 C 0.39486 0.67909 0.05260
 C875 C 0.40946 0.72192 0.09197
 C876 C 0.41909 0.73242 0.10499
 C877 C 0.43024 0.74516 0.11996
 C878 C 0.43972 0.75641 0.13245
 H879 H 0.42118 0.68440 0.07416
 H880 H 0.37176 0.73254 0.07440
 H881 H 0.35203 0.71262 0.04698
 H882 H 0.40159 0.66424 0.04668
 C883 C 0.62499 0.28026 0.07196
 C884 C 0.60551 0.28829 0.07954
 C885 C 0.59751 0.30763 0.07148
 C886 C 0.60888 0.31884 0.05576
 C887 C 0.62840 0.31080 0.04789
 C888 C 0.63639 0.29143 0.05625
 C889 C 0.59346 0.27635 0.09515
 C890 C 0.58332 0.26606 0.10795
 C891 C 0.57141 0.25363 0.12258
 C892 C 0.56121 0.24265 0.13475
 H893 H 0.63129 0.26526 0.07807
 H894 H 0.58241 0.31395 0.07720
 H895 H 0.60229 0.33370 0.04966
 H896 H 0.65136 0.28481 0.05055
 C897 C 0.28096 0.06996 0.62267
 C898 C 0.28890 0.07770 0.60318
 C899 C 0.30822 0.06975 0.59509
 C900 C 0.31952 0.05404 0.60641
 C901 C 0.31159 0.04606 0.62597
 C902 C 0.29221 0.05426 0.63400
 C903 C 0.27692 0.09346 0.59134
 C904 C 0.26650 0.10643 0.58154
 C905 C 0.25384 0.12132 0.57017
 C906 C 0.24262 0.13373 0.56054
 H907 H 0.26600 0.07598 0.62905
 H908 H 0.31448 0.07561 0.57999
 H909 H 0.33439 0.04806 0.59979
 H910 H 0.28567 0.04849 0.64900
 C911 C 0.69480 0.06510 0.40310
 C912 C 0.71431 0.07225 0.39475
 C913 C 0.72157 0.06434 0.37510
 C914 C 0.70947 0.04921 0.36387
 C915 C 0.68985 0.04169 0.37218
 C916 C 0.68263 0.04997 0.39193
 C917 C 0.72707 0.08744 0.40650
 C918 C 0.73787 0.10003 0.41638
 C919 C 0.75061 0.11465 0.42798
 C920 C 0.76154 0.12707 0.43794
 H921 H 0.68904 0.07112 0.41832
 H922 H 0.73666 0.06978 0.36849
 H923 H 0.71563 0.04333 0.34875
 H924 H 0.66766 0.04466 0.39890
 C925 C 0.69327 0.93253 0.59234
 C926 C 0.71279 0.92514 0.60050
 C927 C 0.72020 0.93270 0.62025
 C928 C 0.70824 0.94771 0.63176
 C929 C 0.68867 0.95538 0.62363
 C930 C 0.68126 0.94755 0.60383
 C931 C 0.72544 0.91007 0.58851
 C932 C 0.73627 0.89757 0.57857
 C933 C 0.74916 0.88304 0.56703
 C934 C 0.76030 0.87070 0.55723
 H935 H 0.68740 0.92679 0.57705
 H936 H 0.73530 0.92710 0.62670
 H937 H 0.71441 0.95340 0.64694
 H938 H 0.66627 0.95314 0.59713
 C939 C 0.30496 0.93351 0.40351
 C940 C 0.28532 0.92614 0.39565
 C941 C 0.27753 0.93385 0.37608
 C942 C 0.28922 0.94905 0.36450
 C943 C 0.30888 0.95674 0.37238
 C944 C 0.31669 0.94870 0.39196
 C945 C 0.27295 0.91102 0.40786
 C946 C 0.26247 0.89850 0.41818
 C947 C 0.25009 0.88399 0.43029
 C948 C 0.23944 0.87167 0.44065
 H949 H 0.31112 0.92765 0.41865
 H950 H 0.26233 0.92826 0.36987
 H951 H 0.28277 0.95491 0.34949
 H952 H 0.33175 0.95430 0.39847
 C953 C 0.06366 0.40497 0.69537
 C954 C 0.07085 0.39716 0.71513
 C955 C 0.06312 0.37759 0.72289
 C956 C 0.04817 0.36590 0.71102
 C957 C 0.04074 0.37366 0.69118
 C958 C 0.04870 0.39331 0.68345
 C959 C 0.08601 0.40928 0.72755
 C960 C 0.09865 0.41938 0.73809
 C961 C 0.11340 0.43113 0.75055
 C962 C 0.12598 0.44111 0.76125
 H963 H 0.06954 0.42011 0.68921
 H964 H 0.06858 0.37140 0.73818
 H965 H 0.04236 0.35085 0.71743
 H966 H 0.04331 0.39973 0.66825
 C967 C 0.06879 0.62266 0.27727
 C968 C 0.07595 0.60271 0.28461
 C969 C 0.06843 0.59461 0.30412
 C970 C 0.05367 0.60635 0.31620
 C971 C 0.04625 0.62636 0.30887
 C972 C 0.05405 0.63442 0.28930
 C973 C 0.09078 0.59045 0.27195
 C974 C 0.10308 0.58020 0.26120
 C975 C 0.11739 0.56821 0.24848
 C976 C 0.12956 0.55799 0.23756
 H977 H 0.07451 0.62906 0.26217
 H978 H 0.07386 0.57917 0.30995
 H979 H 0.04798 0.59969 0.33118
 H980 H 0.04866 0.64976 0.28320
 C981 C 0.93163 0.37994 0.28237
 C982 C 0.92383 0.39943 0.29023
 C983 C 0.93157 0.40751 0.30965
 C984 C 0.94713 0.39619 0.32114
 C985 C 0.95516 0.37663 0.31331
 C986 C 0.94718 0.36860 0.29381
 C987 C 0.90820 0.41128 0.27811
 C988 C 0.89532 0.42116 0.26767
 C989 C 0.88050 0.43268 0.25506
 C990 C 0.86812 0.44247 0.24394
 H991 H 0.92577 0.37356 0.26732
 H992 H 0.92566 0.42261 0.31586
 H993 H 0.95292 0.40282 0.33609
 H994 H 0.95301 0.35359 0.28734
 C995 C 0.93418 0.62211 0.72264
 C996 C 0.92665 0.60236 0.71519
 C997 C 0.93402 0.59428 0.69562
 C998 C 0.94894 0.60587 0.68357
 C999 C 0.95669 0.62571 0.69099
 C1000 C 0.94909 0.63372 0.71064
 C1001 C 0.91153 0.59035 0.72776
 C1002 C 0.89894 0.58039 0.73848
 C1003 C 0.88427 0.56882 0.75119
 C1004 C 0.87178 0.55898 0.76213
 H1005 H 0.92859 0.62851 0.73777
 H1006 H 0.92829 0.57899 0.68971
 H1007 H 0.95447 0.59925 0.66852
 H1008 H 0.95473 0.64893 0.71681
 C1009 C 0.71969 0.62238 0.93362
 C1010 C 0.71166 0.60300 0.92573
 C1011 C 0.69214 0.59511 0.93338
 C1012 C 0.68070 0.60651 0.94890
 C1013 C 0.68866 0.62604 0.95708
 C1014 C 0.70832 0.63383 0.94914
 C1015 C 0.72367 0.59108 0.91005
 C1016 C 0.73399 0.58116 0.89710
 C1017 C 0.74644 0.56961 0.88216
 C1018 C 0.75740 0.55981 0.86965
 H1019 H 0.73481 0.62862 0.92783
 H1020 H 0.68579 0.58010 0.92740
 H1021 H 0.66567 0.59993 0.95452
 H1022 H 0.71504 0.64875 0.95493
 C1023 C 0.28072 0.37662 0.92991
 C1024 C 0.28828 0.39637 0.92247
 C1025 C 0.30747 0.40467 0.93051
 C1026 C 0.31902 0.39332 0.94602
 C1027 C 0.31151 0.37343 0.95376
 C1028 C 0.29220 0.36522 0.94540
 C1029 C 0.27610 0.40826 0.90688
 C1030 C 0.26561 0.41816 0.89402
 C1031 C 0.25295 0.42970 0.87924
 C1032 C 0.24181 0.43953 0.86689
 H1033 H 0.26586 0.37006 0.92381
 H1034 H 0.31345 0.41997 0.92488
 H1035 H 0.33378 0.40022 0.95197
 H1036 H 0.28584 0.35001 0.95086
 C1037 C 0.30901 0.59250 0.06725
 C1038 C 0.28958 0.60044 0.07504
 C1039 C 0.28171 0.62000 0.06742
 C1040 C 0.29312 0.63156 0.05199
 C1041 C 0.31266 0.62370 0.04386
 C1042 C 0.32049 0.60401 0.05181
 C1043 C 0.27746 0.58835 0.09053
 C1044 C 0.26702 0.57828 0.10330
 C1045 C 0.25442 0.56658 0.11801
 C1046 C 0.24329 0.55668 0.13033
 H1047 H 0.31525 0.57735 0.07302
 H1048 H 0.26665 0.62628 0.07332
 H1049 H 0.28650 0.64660 0.04637
 H1050 H 0.33544 0.59737 0.04605
 C1051 C 0.69599 0.40548 0.06711
 C1052 C 0.71558 0.39768 0.07465
 C1053 C 0.72322 0.37790 0.06740
 C1054 C 0.71140 0.36599 0.05258
 C1055 C 0.69168 0.37371 0.04471
 C1056 C 0.68410 0.39362 0.05228
 C1057 C 0.72800 0.41004 0.08964
 C1058 C 0.73855 0.42033 0.10212
 C1059 C 0.75103 0.43231 0.11667
 C1060 C 0.76178 0.44250 0.12906
 H1061 H 0.68993 0.42079 0.07263
 H1062 H 0.73838 0.37172 0.07314
 H1063 H 0.71784 0.35079 0.04723
 H1064 H 0.66904 0.40016 0.04669
 C1065 C 0.93129 0.71933 0.62385
 C1066 C 0.92346 0.71131 0.60445
 C1067 C 0.93120 0.69184 0.59652
 C1068 C 0.94685 0.68048 0.60783
 C1069 C 0.95506 0.68848 0.62732
 C1070 C 0.94694 0.70803 0.63522
 C1071 C 0.90786 0.72335 0.59244
 C1072 C 0.89503 0.73368 0.58234
 C1073 C 0.88032 0.74612 0.57049
 C1074 C 0.86804 0.75708 0.56037
 H1075 H 0.92542 0.73442 0.63012
 H1076 H 0.92526 0.68551 0.58149
 H1077 H 0.95259 0.66552 0.60118
 H1078 H 0.95275 0.71476 0.65013
 C1079 C 0.93234 0.28240 0.37904
 C1080 C 0.92438 0.29014 0.39849
 C1081 C 0.93204 0.30954 0.40671
 C1082 C 0.94766 0.32114 0.39557
 C1083 C 0.95591 0.31346 0.37597
 C1084 C 0.94794 0.29392 0.36785
 C1085 C 0.90863 0.27791 0.41010
 C1086 C 0.89562 0.26729 0.41966
 C1087 C 0.88065 0.25442 0.43072
 C1088 C 0.86813 0.24304 0.44007
 H1089 H 0.92655 0.26738 0.37253
 H1090 H 0.92600 0.31567 0.42178
 H1091 H 0.95330 0.33607 0.40239
 H1092 H 0.95379 0.28741 0.35287
 C1093 C 0.06418 0.27812 0.62496
 C1094 C 0.07199 0.28568 0.60536
 C1095 C 0.06472 0.30528 0.59725
 C1096 C 0.04953 0.31721 0.60857
 C1097 C 0.04132 0.30968 0.62825
 C1098 C 0.04899 0.28999 0.63634
 C1099 C 0.08721 0.27315 0.59340
 C1100 C 0.09981 0.26257 0.58331
 C1101 C 0.11446 0.25010 0.57145
 C1102 C 0.12692 0.23940 0.56130
 H1103 H 0.06971 0.26296 0.63138
 H1104 H 0.07067 0.31128 0.58208
 H1105 H 0.04412 0.33224 0.60176
 H1106 H 0.04316 0.28360 0.65139
 C1107 C 0.07102 0.69160 0.40413
 C1108 C 0.07893 0.71110 0.39640
 C1109 C 0.07133 0.71932 0.37697
 C1110 C 0.05575 0.70820 0.36537
 C1111 C 0.04746 0.68861 0.37306
 C1112 C 0.05543 0.68040 0.39257
 C1113 C 0.09446 0.72300 0.40860
 C1114 C 0.10721 0.73331 0.41879
 C1115 C 0.12183 0.74583 0.43065
 C1116 C 0.13401 0.75694 0.44069
 H1117 H 0.07678 0.68511 0.41917
 H1118 H 0.07733 0.73443 0.37086
 H1119 H 0.05013 0.71508 0.35046
 H1120 H 0.04955 0.66541 0.39907
 C1121 C 0.62116 0.93157 0.71840
 C1122 C 0.60166 0.92376 0.71060
 C1123 C 0.59364 0.93138 0.69108
 C1124 C 0.60501 0.94683 0.67946
 C1125 C 0.62457 0.95488 0.68723
 C1126 C 0.63255 0.94702 0.70681
 C1127 C 0.58973 0.90824 0.72285
 C1128 C 0.57979 0.89542 0.73338
 C1129 C 0.56820 0.88067 0.74606
 C1130 C 0.55838 0.86832 0.75722
 H1131 H 0.62751 0.92582 0.73350
 H1132 H 0.57854 0.92548 0.68490
 H1133 H 0.59841 0.95254 0.66445
 H1134 H 0.64755 0.95286 0.71326
 C1135 C 0.37632 0.93620 0.27650
 C1136 C 0.39595 0.92850 0.28410
 C1137 C 0.40391 0.93579 0.30375
 C1138 C 0.39234 0.95077 0.31574
 C1139 C 0.37262 0.95868 0.30819
 C1140 C 0.36473 0.95117 0.28844
 C1141 C 0.40796 0.91326 0.27163
 C1142 C 0.41797 0.90055 0.26109
 C1143 C 0.42965 0.88571 0.24865
 C1144 C 0.43960 0.87306 0.23798
 H1145 H 0.37001 0.93067 0.26130
 H1146 H 0.41909 0.92995 0.30979
 H1147 H 0.39887 0.95622 0.33086
 H1148 H 0.34962 0.95692 0.28216
 C1149 C 0.62098 0.06446 0.27806
 C1150 C 0.60153 0.07226 0.28597
 C1151 C 0.59394 0.06511 0.30583
 C1152 C 0.60567 0.05012 0.31768
 C1153 C 0.62518 0.04207 0.30979
 C1154 C 0.63274 0.04948 0.28987
 C1155 C 0.58928 0.08742 0.27359
 C1156 C 0.57908 0.10004 0.26309
 C1157 C 0.56720 0.11479 0.25069
 C1158 C 0.55715 0.12738 0.24001
 H1159 H 0.62701 0.06988 0.26271
 H1160 H 0.57890 0.07103 0.31211
 H1161 H 0.59939 0.04475 0.33294
 H1162 H 0.64768 0.04361 0.28333
 C1163 C 0.37872 0.06744 0.72168
 C1164 C 0.39850 0.07478 0.71413
 C1165 C 0.40641 0.06728 0.69454
 C1166 C 0.39468 0.05238 0.68262
 C1167 C 0.37485 0.04478 0.69015
 C1168 C 0.36696 0.05255 0.70979
 C1169 C 0.41079 0.08977 0.72662
 C1170 C 0.42110 0.10222 0.73719
 C1171 C 0.43316 0.11671 0.74966
 C1172 C 0.44345 0.12905 0.76038
 H1173 H 0.37245 0.07314 0.73682
 H1174 H 0.42171 0.07284 0.68855
 H1175 H 0.40121 0.04672 0.66758
 H1176 H 0.35176 0.04703 0.71605
 C1177 C 0.59373 0.69457 0.06693
 C1178 C 0.60168 0.71415 0.07441
 C1179 C 0.62148 0.72166 0.06709
 C1180 C 0.63323 0.70973 0.05223
 C1181 C 0.62530 0.69009 0.04448
 C1182 C 0.60545 0.68259 0.05206
 C1183 C 0.58941 0.72670 0.08938
 C1184 C 0.57915 0.73732 0.10181
 C1185 C 0.56714 0.74986 0.11628
 C1186 C 0.55691 0.76065 0.12861
 H1187 H 0.57841 0.68860 0.07248
 H1188 H 0.62778 0.73681 0.07278
 H1189 H 0.64844 0.71596 0.04672
 H1190 H 0.59889 0.66756 0.04641
 C1191 C 0.40630 0.30587 0.06459
 C1192 C 0.39869 0.28600 0.07173
 C1193 C 0.37926 0.27807 0.06390
 C1194 C 0.36752 0.28988 0.04889
 C1195 C 0.37509 0.30981 0.04149
 C1196 C 0.39459 0.31771 0.04957
 C1197 C 0.41089 0.27363 0.08694
 C1198 C 0.42104 0.26314 0.09961
 C1199 C 0.43285 0.25072 0.11441
 C1200 C 0.44283 0.24004 0.12705
 H1201 H 0.42133 0.31216 0.07055
 H1202 H 0.37321 0.26272 0.06931
 H1203 H 0.35259 0.28333 0.04299
 H1204 H 0.40087 0.33298 0.04421
 C1205 C 0.59636 0.30408 0.93575
 C1206 C 0.60433 0.28443 0.92844
 C1207 C 0.62392 0.27680 0.93619
 C1208 C 0.63548 0.28870 0.95123
 C1209 C 0.62757 0.30844 0.95875
 C1210 C 0.60789 0.31602 0.95080
 C1211 C 0.59237 0.27200 0.91313
 C1212 C 0.58240 0.26148 0.90036
 C1213 C 0.57076 0.24907 0.88546
 C1214 C 0.56084 0.23841 0.87277
 H1215 H 0.58120 0.31013 0.92986
 H1216 H 0.63024 0.26161 0.93065
 H1217 H 0.65056 0.28240 0.95702
 H1218 H 0.60135 0.33114 0.95626
 C1219 C 0.37853 0.71819 0.93177
 C1220 C 0.39802 0.71039 0.92396
 C1221 C 0.40604 0.69088 0.93161
 C1222 C 0.39469 0.67927 0.94707
 C1223 C 0.37514 0.68705 0.95512
 C1224 C 0.36715 0.70663 0.94723
 C1225 C 0.40993 0.72264 0.90842
 C1226 C 0.41986 0.73316 0.89561
 C1227 C 0.43144 0.74585 0.88085
 C1228 C 0.44125 0.75702 0.86849
 H1229 H 0.37217 0.73330 0.92600
 H1230 H 0.42113 0.68470 0.92571
 H1231 H 0.40129 0.66427 0.95280
 H1232 H 0.35216 0.71307 0.95307
 C1233 C 0.69316 0.93026 0.40517
 C1234 C 0.71233 0.92216 0.39688
 C1235 C 0.71992 0.92958 0.37712
 C1236 C 0.70845 0.94510 0.36573
 C1237 C 0.68921 0.95343 0.37397
 C1238 C 0.68166 0.94579 0.39380
 C1239 C 0.72447 0.90655 0.40878
 C1240 C 0.73491 0.89367 0.41871
 C1241 C 0.74749 0.87886 0.43030
 C1242 C 0.75858 0.86649 0.44017
 H1243 H 0.68716 0.92466 0.42048
 H1244 H 0.73476 0.92345 0.37057
 H1245 H 0.71471 0.95062 0.35052
 H1246 H 0.66691 0.95186 0.40059
 C1247 C 0.30752 0.93282 0.59475
 C1248 C 0.28802 0.92511 0.60265
 C1249 C 0.28000 0.93296 0.62206
 C1250 C 0.29137 0.94850 0.63349
 C1251 C 0.31095 0.95643 0.62565
 C1252 C 0.31893 0.94837 0.60616
 C1253 C 0.27603 0.90942 0.59073
 C1254 C 0.26573 0.89645 0.58079
 C1255 C 0.25332 0.88150 0.56920
 C1256 C 0.24239 0.86899 0.55935
 H1257 H 0.31386 0.92688 0.57973
 H1258 H 0.26490 0.92713 0.62831
 H1259 H 0.28478 0.95435 0.64843
 H1260 H 0.33395 0.95412 0.59968
 C1261 C 0.30346 0.06735 0.40603
 C1262 C 0.28386 0.07490 0.39822
 C1263 C 0.27626 0.06771 0.37840
 C1264 C 0.28813 0.05295 0.36647
 C1265 C 0.30780 0.04516 0.37422
 C1266 C 0.31538 0.05258 0.39412
 C1267 C 0.27141 0.08984 0.41061
 C1268 C 0.26085 0.10228 0.42093
 C1269 C 0.24835 0.11679 0.43294
 C1270 C 0.23761 0.12916 0.44314
 H1271 H 0.30950 0.07280 0.42137
 H1272 H 0.26110 0.07344 0.37220
 H1273 H 0.28183 0.04757 0.35122
 H1274 H 0.33044 0.04690 0.40056
 C1275 C 0.71865 0.06773 0.61944
 C1276 C 0.71080 0.07527 0.59982
 C1277 C 0.69138 0.06742 0.59187
 C1278 C 0.67989 0.05201 0.60343
 C1279 C 0.68773 0.04423 0.62311
 C1280 C 0.70721 0.05233 0.63102
 C1281 C 0.72292 0.09073 0.58770
 C1282 C 0.73336 0.10348 0.57759
 C1283 C 0.74594 0.11817 0.56584
 C1284 C 0.75705 0.13047 0.55589
 H1285 H 0.73369 0.07367 0.62572
 H1286 H 0.68516 0.07311 0.57669
 H1287 H 0.66496 0.04612 0.59689
 H1288 H 0.71369 0.04669 0.64610
 C1289 C 0.93510 0.62449 0.27809
 C1290 C 0.92739 0.60481 0.28562
 C1291 C 0.93477 0.59667 0.30518
 C1292 C 0.94993 0.60807 0.31709
 C1293 C 0.95794 0.62778 0.30956
 C1294 C 0.95026 0.63591 0.28996
 C1295 C 0.91220 0.59280 0.27311
 C1296 C 0.89960 0.58268 0.26254
 C1297 C 0.88497 0.57078 0.25008
 C1298 C 0.87252 0.56060 0.23939
 H1299 H 0.92950 0.63092 0.26296
 H1300 H 0.92892 0.58145 0.31116
 H1301 H 0.95551 0.60135 0.33209
 H1302 H 0.95610 0.65102 0.28370
 C1303 C 0.92877 0.40471 0.69204
 C1304 C 0.92072 0.39692 0.71147
 C1305 C 0.92810 0.37735 0.71957
 C1306 C 0.94359 0.36567 0.70840
 C1307 C 0.95192 0.37344 0.68894
 C1308 C 0.94426 0.39306 0.68082
 C1309 C 0.90530 0.40921 0.72341
 C1310 C 0.89263 0.41946 0.73376
 C1311 C 0.87811 0.43138 0.74632
 C1312 C 0.86599 0.44146 0.75746
 H1313 H 0.92320 0.41987 0.68564
 H1314 H 0.92201 0.37118 0.73462
 H1315 H 0.94913 0.35064 0.71509
 H1316 H 0.95034 0.39950 0.66590
 C1317 C 0.06906 0.59586 0.69226
 C1318 C 0.07691 0.60384 0.71168
 C1319 C 0.06924 0.62335 0.71962
 C1320 C 0.05365 0.63478 0.70829
 C1321 C 0.04550 0.62681 0.68884
 C1322 C 0.05346 0.60726 0.68089
 C1323 C 0.09244 0.59177 0.72374
 C1324 C 0.10521 0.58162 0.73410
 C1325 C 0.11986 0.56972 0.74657
 C1326 C 0.13208 0.55956 0.75755
 H1327 H 0.07485 0.58075 0.68598
 H1328 H 0.07518 0.62966 0.73466
 H1329 H 0.04787 0.64976 0.71486
 H1330 H 0.04754 0.60067 0.66598
 C1331 C 0.06813 0.40748 0.30936
 C1332 C 0.07594 0.39922 0.29003
 C1333 C 0.06816 0.37966 0.28234
 C1334 C 0.05258 0.36841 0.29383
 C1335 C 0.04453 0.37660 0.31323
 C1336 C 0.05253 0.39625 0.32091
 C1337 C 0.09166 0.41091 0.27783
 C1338 C 0.10463 0.42054 0.26723
 C1339 C 0.11957 0.43166 0.25438
 C1340 C 0.13206 0.44106 0.24301
 H1341 H 0.07401 0.42264 0.31545
 H1342 H 0.07406 0.37312 0.26738
 H1343 H 0.04679 0.35334 0.28747
 H1344 H 0.04668 0.40299 0.33578
   
