data_POSCAR
  _audit_creation_date              2014-09-24
  _audit_creation_method            'ToBaCCo'
  _symmetry_space_group_name_H-M    'P1'
  _symmetry_Int_Tables_number       1
  _symmetry_cell_setting            triclinic
  loop_
  _symmetry_equiv_pos_as_xyz
 x,y,z
_cell_length_a 61.0286
_cell_length_b 60.9774
_cell_length_c 55.6115
_cell_angle_alpha 89.967300
_cell_angle_beta 89.976000
_cell_angle_gamma 90.140300
loop_
  _atom_site_label
  _atom_site_type_symbol
  _atom_site_fract_x
  _atom_site_fract_y
  _atom_site_fract_z
C1 C 0.36186 0.00010 0.25005
 C2 C 0.13887 -0.00070 0.74989
 C3 C 0.63844 0.49976 0.25001
 C4 C 0.86190 0.50010 0.75014
 C5 C 0.24952 0.38905 1.00018
 C6 C 0.74985 0.11207 1.00014
 C7 C 0.25037 0.61155 0.50013
 C8 C 0.74973 0.88880 0.50010
 C9 C 0.00019 0.25012 0.37484
 C10 C 0.00021 0.75052 0.12517
 C11 C 0.49950 0.24990 0.62527
 C12 C 0.50015 0.74954 0.87478
 C13 C -0.25001 0.61205 0.99982
 C14 C -0.25008 0.38861 0.49988
 C15 C 0.24950 -0.11098 -0.00018
 C16 C 0.25011 1.11146 0.49974
 C17 C 0.13814 0.49983 0.25002
 C18 C -0.13799 1.00024 0.24983
 C19 C 0.36242 0.49965 -0.25002
 C20 C 0.63813 -0.00029 -0.24999
 C21 C -0.00055 0.25064 0.87469
 C22 C 0.50026 0.24951 0.12530
 C23 C 0.00044 0.74999 0.62535
 C24 C 0.50012 0.75008 0.37463
 B25 B -0.01224 0.01282 1.02032
 B26 B -0.02484 0.00756 0.99439
 B27 B -0.00430 0.02561 0.99531
 B28 B 0.01465 0.01688 1.01517
 B29 B 0.00526 -0.00753 1.02648
 B30 B -0.01959 -0.01311 1.01358
 B31 B 0.01113 -0.01225 0.97815
 B32 B 0.02373 -0.00698 1.00407
 B33 B 0.00319 -0.02504 1.00316
 B34 B -0.01576 -0.01631 0.98330
 B35 B -0.00636 0.00810 0.97199
 B36 B 0.01847 0.01368 0.98489
 B37 B 0.48830 0.51252 0.52081
 B38 B 0.47584 0.50728 0.49480
 B39 B 0.49644 0.52526 0.49585
 B40 B 0.51523 0.51648 0.51586
 B41 B 0.50568 0.49211 0.52712
 B42 B 0.48090 0.48661 0.51404
 B43 B 0.51184 0.48733 0.47884
 B44 B 0.52429 0.49257 0.50485
 B45 B 0.50370 0.47459 0.50380
 B46 B 0.48490 0.48337 0.48379
 B47 B 0.49445 0.50774 0.47253
 B48 B 0.51923 0.51324 0.48561
 B49 B 0.51157 0.98735 0.52117
 B50 B 0.52413 0.99275 0.49524
 B51 B 0.50367 0.97461 0.49614
 B52 B 0.48469 0.98319 0.51605
 B53 B 0.49399 1.00761 0.52741
 B54 B 0.51880 1.01333 0.51449
 B55 B 0.48807 1.01246 0.47910
 B56 B 0.47551 1.00705 0.50503
 B57 B 0.49597 1.02519 0.50413
 B58 B 0.51494 1.01662 0.48422
 B59 B 0.50565 0.99220 0.47286
 B60 B 0.48084 0.98647 0.48578
 B61 B 0.01137 0.48785 1.02131
 B62 B 0.02389 0.49316 0.99533
 B63 B 0.00335 0.47511 0.99633
 B64 B -0.01554 0.48381 1.01629
 B65 B -0.00609 0.50821 1.02757
 B66 B 0.01870 0.51379 1.01456
 B67 B -0.01213 0.51300 0.97927
 B68 B -0.02464 0.50770 1.00526
 B69 B -0.00410 0.52575 1.00425
 B70 B 0.01478 0.51704 0.98429
 B71 B 0.00534 0.49265 0.97302
 B72 B -0.01946 0.48707 0.98603
 B73 B 0.01210 0.51258 0.47924
 B74 B 0.02444 0.50736 0.50532
 B75 B 0.00393 0.52534 0.50413
 B76 B -0.01483 0.51655 0.48406
 B77 B -0.00536 0.49217 0.47290
 B78 B 0.01934 0.48668 0.48610
 B79 B -0.01172 0.48743 0.52117
 B80 B -0.02405 0.49265 0.49509
 B81 B -0.00355 0.47467 0.49627
 B82 B 0.01521 0.48347 0.51634
 B83 B 0.00575 0.50785 0.52750
 B84 B -0.01896 0.51334 0.51430
 B85 B 0.51219 0.01200 -0.02064
 B86 B 0.52447 0.00685 0.00549
 B87 B 0.50390 0.02476 0.00422
 B88 B 0.48523 0.01587 -0.01591
 B89 B 0.49482 -0.00848 -0.02701
 B90 B 0.51951 -0.01387 -0.01372
 B91 B 0.48834 -0.01320 0.02123
 B92 B 0.47606 -0.00805 -0.00489
 B93 B 0.49663 -0.02595 -0.00362
 B94 B 0.51530 -0.01707 0.01651
 B95 B 0.50571 0.00729 0.02761
 B96 B 0.48102 0.01267 0.01432
 B97 B 0.48835 0.48701 -0.02086
 B98 B 0.47603 0.49214 0.00525
 B99 B 0.49659 0.47422 0.00400
 B100 B 0.51530 0.48311 -0.01611
 B101 B 0.50575 0.50749 -0.02721
 B102 B 0.48104 0.51288 -0.01395
 B103 B 0.51215 0.51214 0.02104
 B104 B 0.52447 0.50701 -0.00508
 B105 B 0.50391 0.52493 -0.00382
 B106 B 0.48520 0.51604 0.01628
 B107 B 0.49475 0.49166 0.02739
 B108 B 0.51946 0.48627 0.01413
 B109 B -0.01206 0.98745 0.47905
 B110 B -0.02422 0.99254 0.50527
 B111 B -0.00368 0.97463 0.50383
 B112 B 0.01492 0.98355 0.48360
 B113 B 0.00530 1.00794 0.47261
 B114 B -0.01933 1.01331 0.48606
 B115 B 0.01199 1.01252 0.52082
 B116 B 0.02415 1.00743 0.49461
 B117 B 0.00360 1.02535 0.49605
 B118 B -0.01499 1.01643 0.51627
 B119 B -0.00537 0.99203 0.52726
 B120 B 0.01925 0.98667 0.51381
 B121 B 0.76274 0.23819 0.22914
 B122 B 0.75755 0.22576 0.25520
 B123 B 0.77551 0.24637 0.25404
 B124 B 0.76670 0.26516 0.23401
 B125 B 0.74233 0.25558 0.22286
 B126 B 0.73687 0.23079 0.23601
 B127 B 0.73764 0.26180 0.27114
 B128 B 0.74283 0.27423 0.24507
 B129 B 0.72487 0.25361 0.24624
 B130 B 0.73368 0.23483 0.26627
 B131 B 0.75805 0.24441 0.27742
 B132 B 0.76351 0.26920 0.26426
 B133 B 0.73752 0.76162 0.72857
 B134 B 0.74269 0.77415 0.75456
 B135 B 0.72477 0.75350 0.75354
 B136 B 0.73361 0.73466 0.73360
 B137 B 0.75796 0.74424 0.72236
 B138 B 0.76338 0.76909 0.73537
 B139 B 0.76267 0.73820 0.77067
 B140 B 0.75750 0.72567 0.74468
 B141 B 0.77542 0.74632 0.74570
 B142 B 0.76658 0.76516 0.76564
 B143 B 0.74223 0.75558 0.77688
 B144 B 0.73681 0.73073 0.76387
 B145 B 0.26199 0.26203 0.77099
 B146 B 0.25693 0.27424 0.74478
 B147 B 0.27484 0.25368 0.74622
 B148 B 0.26591 0.23504 0.76640
 B149 B 0.24152 0.24464 0.77736
 B150 B 0.23616 0.26930 0.76394
 B151 B 0.23701 0.23801 0.72913
 B152 B 0.24207 0.22580 0.75533
 B153 B 0.22416 0.24635 0.75390
 B154 B 0.23309 0.26500 0.73372
 B155 B 0.25749 0.25540 0.72276
 B156 B 0.26285 0.23074 0.73618
 B157 B 0.23762 0.73791 0.27094
 B158 B 0.24275 0.72566 0.24478
 B159 B 0.22479 0.74618 0.24613
 B160 B 0.23365 0.76488 0.26625
 B161 B 0.25805 0.75535 0.27728
 B162 B 0.26348 0.73068 0.26395
 B163 B 0.26262 0.76190 0.22903
 B164 B 0.25749 0.77415 0.25518
 B165 B 0.27545 0.75363 0.25384
 B166 B 0.26659 0.73493 0.23371
 B167 B 0.24220 0.74446 0.22269
 B168 B 0.23676 0.76913 0.23602
 B169 B 0.26254 0.73735 0.72965
 B170 B 0.25733 0.72481 0.75564
 B171 B 0.27537 0.74535 0.75458
 B172 B 0.26662 0.76427 0.73468
 B173 B 0.24220 0.75486 0.72350
 B174 B 0.23664 0.73003 0.73651
 B175 B 0.23760 0.76085 0.77183
 B176 B 0.24281 0.77340 0.74584
 B177 B 0.22476 0.75286 0.74689
 B178 B 0.23351 0.73393 0.76680
 B179 B 0.25794 0.74334 0.77797
 B180 B 0.26349 0.76817 0.76496
 B181 B 0.23761 0.26168 0.22877
 B182 B 0.24273 0.27426 0.25474
 B183 B 0.22480 0.25362 0.25371
 B184 B 0.23368 0.23474 0.23385
 B185 B 0.25806 0.24429 0.22266
 B186 B 0.26346 0.26915 0.23563
 B187 B 0.26265 0.23834 0.27099
 B188 B 0.25753 0.22575 0.24502
 B189 B 0.27546 0.24640 0.24605
 B190 B 0.26659 0.26528 0.26592
 B191 B 0.24220 0.25573 0.27710
 B192 B 0.23680 0.23087 0.26413
 B193 B 0.76274 0.76191 0.27099
 B194 B 0.75761 0.77424 0.24487
 B195 B 0.77555 0.75371 0.24614
 B196 B 0.76670 0.73495 0.26624
 B197 B 0.74231 0.74446 0.27732
 B198 B 0.73689 0.76918 0.26406
 B199 B 0.73771 0.73806 0.22906
 B200 B 0.74284 0.72573 0.25518
 B201 B 0.72490 0.74627 0.25391
 B202 B 0.73375 0.76502 0.23382
 B203 B 0.75814 0.75551 0.22273
 B204 B 0.76356 0.73079 0.23600
 B205 B 0.73693 0.23824 0.77096
 B206 B 0.74210 0.22590 0.74487
 B207 B 0.72415 0.24644 0.74609
 B208 B 0.73299 0.26520 0.76616
 B209 B 0.75736 0.25569 0.77727
 B210 B 0.76280 0.23097 0.76405
 B211 B 0.76202 0.26208 0.72900
 B212 B 0.75685 0.27441 0.75510
 B213 B 0.77480 0.25388 0.75387
 B214 B 0.76596 0.23512 0.73380
 B215 B 0.74159 0.24462 0.72269
 B216 B 0.73615 0.26935 0.73591
 C217 C 0.37559 1.00581 0.27069
 C218 C 0.38631 1.01105 0.28797
 C219 C 0.39851 1.01752 0.30890
 C220 C 0.38904 1.03162 0.32579
 C221 C 0.40039 1.03710 0.34677
 C222 C 0.42141 1.02854 0.35108
 C223 C 0.43098 1.01477 0.33371
 C224 C 0.41958 1.00929 0.31276
 C225 C 0.43273 1.03260 0.37426
 C226 C 0.45557 1.03570 0.37499
 C227 C 0.46661 1.03627 0.39699
 C228 C 0.45494 1.03390 0.41850
 C229 C 0.43210 1.03203 0.41802
 C230 C 0.42103 1.03145 0.39604
 C231 C 0.46655 1.02949 0.44042
 C232 C 0.47619 1.02353 0.45811
 H233 H 0.37274 1.03812 0.32291
 H234 H 0.39269 1.04788 0.35972
 H235 H 0.44697 1.00761 0.33669
 H236 H 0.42703 0.99832 0.29982
 H237 H 0.46498 1.03691 0.35852
 H238 H 0.48432 1.03746 0.39716
 H239 H 0.42296 1.02979 0.43456
 H240 H 0.40348 1.02880 0.39609
 C241 C -0.12440 0.50583 0.77081
 C242 C -0.11372 0.51110 0.78810
 C243 C -0.10155 0.51763 0.80903
 C244 C -0.11106 0.53176 0.82587
 C245 C -0.09973 0.53731 0.84685
 C246 C -0.07871 0.52879 0.85121
 C247 C -0.06911 0.51498 0.83389
 C248 C -0.08048 0.50944 0.81295
 C249 C -0.06741 0.53293 0.87439
 C250 C -0.04457 0.53606 0.87512
 C251 C -0.03356 0.53671 0.89714
 C252 C -0.04524 0.53439 0.91865
 C253 C -0.06808 0.53248 0.91815
 C254 C -0.07913 0.53184 0.89616
 C255 C -0.03364 0.53002 0.94058
 C256 C -0.02401 0.52408 0.95828
 H257 H -0.12737 0.53823 0.82295
 H258 H -0.10746 0.54811 0.85975
 H259 H -0.05311 0.50785 0.83691
 H260 H -0.07300 0.49844 0.80005
 H261 H -0.03516 0.53724 0.85866
 H262 H -0.01584 0.53791 0.89732
 H263 H -0.07723 0.53028 0.93468
 H264 H -0.09667 0.52916 0.89620
 C265 C 0.12464 -0.00632 0.77018
 C266 C 0.11361 -0.01149 0.78725
 C267 C 0.10111 -0.01788 0.80801
 C268 C 0.08027 -0.00910 0.81193
 C269 C 0.06867 -0.01445 0.83280
 C270 C 0.07781 -0.02864 0.85005
 C271 C 0.09857 -0.03777 0.84568
 C272 C 0.11013 -0.03241 0.82478
 C273 C 0.06634 -0.03258 0.87319
 C274 C 0.07803 -0.03195 0.89498
 C275 C 0.06692 -0.03244 0.91695
 C276 C 0.04404 -0.03372 0.91740
 C277 C 0.03235 -0.03556 0.89585
 C278 C 0.04342 -0.03506 0.87386
 C279 C 0.03251 -0.02927 0.93936
 C280 C 0.02294 -0.02331 0.95710
 H281 H 0.07318 0.00222 0.79909
 H282 H 0.05289 -0.00686 0.83583
 H283 H 0.10594 -0.04888 0.85853
 H284 H 0.12625 -0.03934 0.82187
 H285 H 0.09565 -0.02977 0.89506
 H286 H 0.07609 -0.03061 0.93351
 H287 H 0.01461 -0.03628 0.89600
 H288 H 0.03402 -0.03586 0.85738
 C289 C 0.62469 0.49401 0.27065
 C290 C 0.61395 0.48874 0.28791
 C291 C 0.60170 0.48224 0.30881
 C292 C 0.58063 0.49047 0.31265
 C293 C 0.56919 0.48497 0.33358
 C294 C 0.57871 0.47116 0.35096
 C295 C 0.59973 0.46259 0.34668
 C296 C 0.61114 0.46811 0.32572
 C297 C 0.56734 0.46709 0.37412
 C298 C 0.57901 0.46820 0.39592
 C299 C 0.56789 0.46763 0.41788
 C300 C 0.54505 0.46578 0.41833
 C301 C 0.53342 0.46344 0.39681
 C302 C 0.54449 0.46401 0.37482
 C303 C 0.53341 0.47023 0.44023
 C304 C 0.52374 0.47621 0.45789
 H305 H 0.57321 0.50146 0.29971
 H306 H 0.55320 0.49213 0.33654
 H307 H 0.60740 0.45180 0.35963
 H308 H 0.62743 0.46160 0.32286
 H309 H 0.59656 0.47083 0.39598
 H310 H 0.57700 0.46984 0.43443
 H311 H 0.51570 0.46228 0.39695
 H312 H 0.53512 0.46282 0.35834
 C313 C 0.62480 0.50546 0.22930
 C314 C 0.61415 0.51069 0.21199
 C315 C 0.60200 0.51715 0.19104
 C316 C 0.58085 0.50902 0.18723
 C317 C 0.56948 0.51451 0.16628
 C318 C 0.57916 0.52820 0.14885
 C319 C 0.60026 0.53666 0.15309
 C320 C 0.61159 0.53117 0.17407
 C321 C 0.56784 0.53228 0.12568
 C322 C 0.57949 0.53105 0.10388
 C323 C 0.56839 0.53164 0.08192
 C324 C 0.54557 0.53361 0.08147
 C325 C 0.53396 0.53607 0.10300
 C326 C 0.54502 0.53548 0.12499
 C327 C 0.53389 0.52919 0.05960
 C328 C 0.52416 0.52323 0.04196
 H329 H 0.57331 0.49811 0.20023
 H330 H 0.55342 0.50742 0.16336
 H331 H 0.60806 0.54738 0.14010
 H332 H 0.62796 0.53760 0.17691
 H333 H 0.59702 0.52831 0.10381
 H334 H 0.57748 0.52933 0.06537
 H335 H 0.51625 0.53734 0.10286
 H336 H 0.53566 0.53677 0.14147
 C337 C 0.12578 1.00464 0.72864
 C338 C 0.11569 1.00948 0.71079
 C339 C 0.10434 1.01537 0.68911
 C340 C 0.08713 1.03049 0.68973
 C341 C 0.07618 1.03615 0.66852
 C342 C 0.08240 1.02676 0.64644
 C343 C 0.09990 1.01177 0.64603
 C344 C 0.11078 1.00615 0.66722
 C345 C 0.06996 1.03139 0.62410
 C346 C 0.08086 1.03329 0.60188
 C347 C 0.06895 1.03426 0.58045
 C348 C 0.04605 1.03354 0.58099
 C349 C 0.03506 1.03295 0.60306
 C350 C 0.04692 1.03196 0.62451
 C351 C 0.03408 1.02937 0.55924
 C352 C 0.02416 1.02354 0.54167
 H353 H 0.08212 1.03785 0.70658
 H354 H 0.06288 1.04783 0.66936
 H355 H 0.10481 1.00394 0.62942
 H356 H 0.12411 0.99445 0.66656
 H357 H 0.09858 1.03321 0.60103
 H358 H 0.07762 1.03444 0.56343
 H359 H 0.01733 1.03199 0.60365
 H360 H 0.03805 1.03027 0.64128
 C361 C -0.12442 0.49438 0.72947
 C362 C -0.11374 0.48913 0.71218
 C363 C -0.10158 0.48263 0.69124
 C364 C -0.08044 0.49078 0.68738
 C365 C -0.06907 0.48527 0.66644
 C366 C -0.07874 0.47153 0.64906
 C367 C -0.09983 0.46305 0.65336
 C368 C -0.11116 0.46857 0.67434
 C369 C -0.06741 0.46742 0.62589
 C370 C -0.07907 0.46859 0.60410
 C371 C -0.06798 0.46797 0.58214
 C372 C -0.04515 0.46601 0.58167
 C373 C -0.03354 0.46361 0.60320
 C374 C -0.04460 0.46423 0.62519
 C375 C -0.03347 0.47040 0.55977
 C376 C -0.02374 0.47635 0.54210
 H377 H -0.07291 0.50172 0.70033
 H378 H -0.05301 0.49237 0.66347
 H379 H -0.10761 0.45230 0.64042
 H380 H -0.12752 0.46213 0.67721
 H381 H -0.09660 0.47132 0.60404
 H382 H -0.07707 0.47024 0.56559
 H383 H -0.01583 0.46236 0.60304
 H384 H -0.03523 0.46299 0.64167
 C385 C 0.37552 -0.00563 0.22935
 C386 C 0.38617 -0.01092 0.21206
 C387 C 0.39833 -0.01747 0.19114
 C388 C 0.38873 -0.03156 0.17428
 C389 C 0.40007 -0.03718 0.15334
 C390 C 0.42119 -0.02875 0.14903
 C391 C 0.43087 -0.01497 0.16636
 C392 C 0.41949 -0.00937 0.18727
 C393 C 0.43253 -0.03297 0.12589
 C394 C 0.45534 -0.03620 0.12523
 C395 C 0.46642 -0.03691 0.10326
 C396 C 0.45484 -0.03455 0.08171
 C397 C 0.43201 -0.03256 0.08213
 C398 C 0.42089 -0.03185 0.10408
 C399 C 0.46655 -0.03022 0.05981
 C400 C 0.47629 -0.02429 0.04215
 H401 H 0.37237 -0.03798 0.17717
 H402 H 0.39228 -0.04795 0.14043
 H403 H 0.44694 -0.00792 0.16338
 H404 H 0.42703 0.00159 0.20019
 H405 H 0.46469 -0.03740 0.14172
 H406 H 0.48413 -0.03818 0.10313
 H407 H 0.42294 -0.03033 0.06556
 H408 H 0.40337 -0.02910 0.10399
 C409 C 0.26864 0.40247 0.00619
 C410 C 0.28496 0.41295 0.01030
 C411 C 0.30505 0.42474 0.01413
 C412 C 0.31096 0.44171 -0.00153
 C413 C 0.33155 0.45159 0.00039
 C414 C 0.34653 0.44454 0.01798
 C415 C 0.34017 0.42791 0.03412
 C416 C 0.31955 0.41806 0.03216
 C417 C 0.36910 0.45357 0.01847
 C418 C 0.38712 0.43953 0.02179
 C419 C 0.40849 0.44769 0.02044
 C420 C 0.41210 0.46995 0.01582
 C421 C 0.39431 0.48414 0.01299
 C422 C 0.37292 0.47602 0.01432
 C423 C 0.43406 0.47797 0.01285
 C424 C 0.45249 0.48441 0.00983
 H425 H 0.29992 0.44684 -0.01570
 H426 H 0.33607 0.46411 -0.01251
 H427 H 0.35126 0.42233 0.04801
 H428 H 0.31515 0.40485 0.04430
 H429 H 0.38472 0.42212 0.02462
 H430 H 0.42218 0.43657 0.02251
 H431 H 0.39698 0.50141 0.00938
 H432 H 0.35937 0.48724 0.01194
 C433 C -0.23120 0.90223 0.50622
 C434 C -0.21492 0.91274 0.51042
 C435 C -0.19490 0.92461 0.51436
 C436 C -0.18036 0.91786 0.53233
 C437 C -0.15979 0.92780 0.53437
 C438 C -0.15352 0.94458 0.51838
 C439 C -0.16854 0.95170 0.50087
 C440 C -0.18909 0.94173 0.49886
 C441 C -0.13098 0.95369 0.51890
 C442 C -0.12725 0.97618 0.51494
 C443 C -0.10589 0.98438 0.51357
 C444 C -0.08805 0.97023 0.51619
 C445 C -0.09158 0.94793 0.52066
 C446 C -0.11291 0.93969 0.52204
 C447 C -0.06613 0.97832 0.51312
 C448 C -0.04772 0.98480 0.51000
 H449 H -0.18469 0.90454 0.54434
 H450 H -0.14866 0.92217 0.54820
 H451 H -0.16409 0.96434 0.48808
 H452 H -0.20016 0.94691 0.48474
 H453 H -0.14085 0.98737 0.51270
 H454 H -0.10329 1.00168 0.51008
 H455 H -0.07784 0.93683 0.52257
 H456 H -0.11524 0.92225 0.52473
 C457 C -0.23130 0.09833 0.99424
 C458 C -0.21517 0.08759 0.99022
 C459 C -0.19531 0.07551 0.98648
 C460 C -0.18927 0.05918 1.00284
 C461 C -0.16883 0.04908 1.00091
 C462 C -0.15413 0.05528 0.98262
 C463 C -0.16063 0.07125 0.96582
 C464 C -0.18110 0.08132 0.96778
 C465 C -0.13167 0.04610 0.98205
 C466 C -0.11358 0.05986 0.97759
 C467 C -0.09227 0.05163 0.97883
 C468 C -0.08880 0.02957 0.98447
 C469 C -0.10667 0.01562 0.98845
 C470 C -0.12800 0.02382 0.98723
 C471 C -0.06687 0.02154 0.98727
 C472 C -0.04842 0.01515 0.99011
 H473 H -0.20008 0.05473 1.01753
 H474 H -0.16418 0.03708 1.01432
 H475 H -0.14976 0.07617 0.95139
 H476 H -0.18560 0.09403 0.95510
 H477 H -0.11585 0.07715 0.97394
 H478 H -0.07851 0.06257 0.97587
 H479 H -0.10411 -0.00149 0.99285
 H480 H -0.14161 0.01280 0.99051
 C481 C 0.26926 0.59785 0.49429
 C482 C 0.28543 0.58715 0.49031
 C483 C 0.30534 0.57514 0.48658
 C484 C 0.31138 0.55875 0.50287
 C485 C 0.33184 0.54871 0.50096
 C486 C 0.34657 0.55502 0.48274
 C487 C 0.34008 0.57105 0.46600
 C488 C 0.31959 0.58107 0.46796
 C489 C 0.36905 0.54586 0.48217
 C490 C 0.38714 0.55967 0.47783
 C491 C 0.40845 0.55145 0.47907
 C492 C 0.41194 0.52936 0.48461
 C493 C 0.39407 0.51538 0.48846
 C494 C 0.37274 0.52356 0.48723
 C495 C 0.43387 0.52135 0.48745
 C496 C 0.45230 0.51494 0.49036
 H497 H 0.30054 0.55421 0.51750
 H498 H 0.33648 0.53665 0.51431
 H499 H 0.35098 0.57605 0.45163
 H500 H 0.31510 0.59382 0.45533
 H501 H 0.38485 0.57697 0.47427
 H502 H 0.42220 0.56242 0.47621
 H503 H 0.39664 0.49825 0.49278
 H504 H 0.35913 0.51251 0.49042
 C505 C 0.23146 0.59780 0.50602
 C506 C 0.21526 0.58707 0.51003
 C507 C 0.19530 0.57504 0.51378
 C508 C 0.18109 0.58095 0.53241
 C509 C 0.16055 0.57094 0.53437
 C510 C 0.15397 0.55493 0.51763
 C511 C 0.16866 0.54864 0.49941
 C512 C 0.18918 0.55867 0.49749
 C513 C 0.13143 0.54581 0.51818
 C514 C 0.12761 0.52352 0.51310
 C515 C 0.10622 0.51538 0.51184
 C516 C 0.08844 0.52938 0.51568
 C517 C 0.09207 0.55145 0.52124
 C518 C 0.11343 0.55963 0.52252
 C519 C 0.06647 0.52140 0.51279
 C520 C 0.04801 0.51501 0.50983
 H521 H 0.18566 0.59369 0.54504
 H522 H 0.14968 0.57593 0.54874
 H523 H 0.16396 0.53660 0.48605
 H524 H 0.19999 0.55415 0.48285
 H525 H 0.14115 0.51245 0.50992
 H526 H 0.10355 0.49826 0.50750
 H527 H 0.07838 0.56244 0.52409
 H528 H 0.11582 0.57692 0.52609
 C529 C 0.73096 0.09833 0.00615
 C530 C 0.71480 0.08759 0.01025
 C531 C 0.69490 0.07549 0.01409
 C532 C 0.68056 0.08157 0.03255
 C533 C 0.66008 0.07146 0.03456
 C534 C 0.65368 0.05517 0.01807
 C535 C 0.66850 0.04870 0.00004
 C536 C 0.68896 0.05884 -0.00194
 C537 C 0.63119 0.04592 0.01864
 C538 C 0.62753 0.02355 0.01391
 C539 C 0.60619 0.01527 0.01262
 C540 C 0.58831 0.02923 0.01608
 C541 C 0.59178 0.05139 0.02130
 C542 C 0.61309 0.05971 0.02260
 C543 C 0.56640 0.02110 0.01311
 C544 C 0.54798 0.01461 0.01009
 H545 H 0.68499 0.09452 0.04498
 H546 H 0.64911 0.07659 0.04879
 H547 H 0.66393 0.03645 -0.01313
 H548 H 0.69986 0.05418 -0.01643
 H549 H 0.64115 0.01251 0.01102
 H550 H 0.60363 -0.00192 0.00854
 H551 H 0.57802 0.06234 0.02385
 H552 H 0.61537 0.07706 0.02590
 C553 C 0.73095 0.90282 0.49480
 C554 C 0.71486 0.91372 0.49114
 C555 C 0.69501 0.92590 0.48768
 C556 C 0.68839 0.94112 0.50501
 C557 C 0.66795 0.95120 0.50315
 C558 C 0.65383 0.94610 0.48395
 C559 C 0.66091 0.93127 0.46623
 C560 C 0.68138 0.92120 0.46812
 C561 C 0.63133 0.95521 0.48330
 C562 C 0.61346 0.94167 0.47725
 C563 C 0.59208 0.94971 0.47837
 C564 C 0.58832 0.97137 0.48548
 C565 C 0.60598 0.98511 0.49105
 C566 C 0.62738 0.97710 0.48995
 C567 C 0.56628 0.97912 0.48817
 C568 C 0.54776 0.98532 0.49095
 H569 H 0.69875 0.94468 0.52035
 H570 H 0.66283 0.96231 0.51726
 H571 H 0.65049 0.92722 0.45110
 H572 H 0.68633 0.90936 0.45467
 H573 H 0.61595 0.92465 0.47244
 H574 H 0.57848 0.93892 0.47418
 H575 H 0.60319 1.00191 0.49660
 H576 H 0.64083 0.98795 0.49447
 C577 C 0.23072 0.40308 0.99497
 C578 C 0.21460 0.41395 0.99137
 C579 C 0.19473 0.42610 0.98793
 C580 C 0.18110 0.42140 0.96837
 C581 C 0.16062 0.43144 0.96648
 C582 C 0.15352 0.44626 0.98421
 C583 C 0.16763 0.45136 1.00342
 C584 C 0.18809 0.44129 1.00527
 C585 C 0.13103 0.45538 0.98353
 C586 C 0.12709 0.47727 0.99017
 C587 C 0.10569 0.48531 0.99122
 C588 C 0.08802 0.47159 0.98560
 C589 C 0.09178 0.44992 0.97850
 C590 C 0.11315 0.44185 0.97744
 C591 C 0.06599 0.47937 0.98824
 C592 C 0.04748 0.48562 0.99101
 H593 H 0.18607 0.40957 0.95491
 H594 H 0.15021 0.42740 0.95134
 H595 H 0.16250 0.46245 1.01753
 H596 H 0.19843 0.44486 1.02062
 H597 H 0.14054 0.48811 0.99472
 H598 H 0.10291 0.50211 0.99676
 H599 H 0.07817 0.43915 0.97428
 H600 H 0.11564 0.42484 0.97263
 C601 C -0.00154 0.26978 0.39004
 C602 C -0.00291 0.28613 0.40222
 C603 C -0.00440 0.30590 0.41640
 C604 C 0.01455 0.31790 0.42178
 C605 C 0.01312 0.33749 0.43477
 C606 C -0.00733 0.34543 0.44260
 C607 C -0.02627 0.33312 0.43732
 C608 C -0.02480 0.31350 0.42432
 C609 C -0.00885 0.36682 0.45545
 C610 C -0.02583 0.38166 0.45016
 C611 C -0.02627 0.40246 0.46080
 C612 C -0.00982 0.40873 0.47696
 C613 C 0.00677 0.39386 0.48288
 C614 C 0.00724 0.37306 0.47227
 C615 C -0.00870 0.43103 0.48550
 C616 C -0.00700 0.45003 0.49134
 H617 H 0.03042 0.31226 0.41566
 H618 H 0.02799 0.34670 0.43815
 H619 H -0.04223 0.33863 0.44328
 H620 H -0.03960 0.30437 0.42029
 H621 H -0.03831 0.37753 0.43708
 H622 H -0.03906 0.41390 0.45585
 H623 H 0.01968 0.39855 0.49524
 H624 H 0.02036 0.36194 0.47701
 C625 C 0.49812 -0.23074 -0.11018
 C626 C 0.49636 -0.21430 -0.09819
 C627 C 0.49423 -0.19441 -0.08434
 C628 C 0.48307 -0.17641 -0.09399
 C629 C 0.48155 -0.15683 -0.08101
 C630 C 0.49120 -0.15490 -0.05811
 C631 C 0.50216 -0.17319 -0.04842
 C632 C 0.50365 -0.19278 -0.06145
 C633 C 0.49055 -0.13364 -0.04491
 C634 C 0.50916 -0.12600 -0.03248
 C635 C 0.50918 -0.10528 -0.02166
 C636 C 0.49060 -0.09191 -0.02297
 C637 C 0.47180 -0.09959 -0.03470
 C638 C 0.47174 -0.12031 -0.04555
 C639 C 0.49166 -0.06961 -0.01439
 C640 C 0.49329 -0.05061 -0.00855
 H641 H 0.47577 -0.17742 -0.11172
 H642 H 0.47330 -0.14300 -0.08918
 H643 H 0.50956 -0.17235 -0.03075
 H644 H 0.51229 -0.20660 -0.05375
 H645 H 0.52401 -0.13566 -0.03191
 H646 H 0.52393 -0.09943 -0.01290
 H647 H 0.45736 -0.08934 -0.03599
 H648 H 0.45706 -0.12580 -0.05468
 C649 C 0.00197 -0.22983 1.10995
 C650 C 0.00332 -0.21347 1.09773
 C651 C 0.00473 -0.19371 1.08350
 C652 C -0.01427 -0.18187 1.07812
 C653 C -0.01294 -0.16229 1.06506
 C654 C 0.00746 -0.15419 1.05717
 C655 C 0.02646 -0.16633 1.06245
 C656 C 0.02509 -0.18593 1.07552
 C657 C 0.00888 -0.13280 1.04424
 C658 C 0.02582 -0.11781 1.04944
 C659 C 0.02615 -0.09703 1.03873
 C660 C 0.00964 -0.09093 1.02259
 C661 C -0.00690 -0.10595 1.01676
 C662 C -0.00727 -0.12674 1.02744
 C663 C 0.00843 -0.06864 1.01398
 C664 C 0.00667 -0.04966 1.00811
 H665 H -0.03012 -0.18764 1.08429
 H666 H -0.02785 -0.15321 1.06168
 H667 H 0.04239 -0.16069 1.05644
 H668 H 0.03992 -0.19494 1.07955
 H669 H 0.03834 -0.12181 1.06249
 H670 H 0.03891 -0.08547 1.04361
 H671 H -0.01985 -0.10139 1.00442
 H672 H -0.02035 -0.13797 1.02276
 C673 C 0.50130 0.26955 0.61004
 C674 C 0.50271 0.28592 0.59784
 C675 C 0.50422 0.30570 0.58366
 C676 C 0.48529 0.31766 0.57834
 C677 C 0.48674 0.33728 0.56535
 C678 C 0.50719 0.34528 0.55748
 C679 C 0.52612 0.33301 0.56270
 C680 C 0.52463 0.31337 0.57569
 C681 C 0.50873 0.36670 0.54464
 C682 C 0.52577 0.38157 0.54989
 C683 C 0.52624 0.40239 0.53926
 C684 C 0.50976 0.40864 0.52316
 C685 C 0.49312 0.39375 0.51727
 C686 C 0.49262 0.37292 0.52787
 C687 C 0.50870 0.43095 0.51461
 C688 C 0.50705 0.44995 0.50877
 H689 H 0.46942 0.31198 0.58450
 H690 H 0.47189 0.34646 0.56202
 H691 H 0.54207 0.33856 0.55671
 H692 H 0.53941 0.30426 0.57968
 H693 H 0.53827 0.37745 0.56293
 H694 H 0.53907 0.41385 0.54418
 H695 H 0.48020 0.39842 0.50495
 H696 H 0.47947 0.36179 0.52315
 C697 C 0.49770 1.23023 0.61010
 C698 C 0.49629 1.21386 0.59794
 C699 C 0.49478 1.19406 0.58380
 C700 C 0.47435 1.18619 0.57620
 C701 C 0.47288 1.16654 0.56325
 C702 C 0.49186 1.15446 0.55770
 C703 C 0.51234 1.16267 0.56521
 C704 C 0.51376 1.18230 0.57815
 C705 C 0.49036 1.13303 0.54492
 C706 C 0.50630 1.12697 0.52786
 C707 C 0.50587 1.10615 0.51729
 C708 C 0.48947 1.09108 0.52349
 C709 C 0.47316 1.09717 0.53987
 C710 C 0.47355 1.11799 0.55048
 C711 C 0.49065 1.06878 0.51495
 C712 C 0.49242 1.04980 0.50911
 H713 H 0.45953 1.19514 0.58044
 H714 H 0.45690 1.16082 0.55754
 H715 H 0.52723 1.15364 0.56163
 H716 H 0.52966 1.18814 0.58403
 H717 H 0.51927 1.13825 0.52291
 H718 H 0.51867 1.10161 0.50475
 H719 H 0.46051 1.08557 0.54503
 H720 H 0.46119 1.12198 0.56373
 C721 C -0.00162 0.73086 1.10999
 C722 C -0.00306 0.71449 1.09783
 C723 C -0.00462 0.69470 1.08369
 C724 C 0.01431 0.68280 1.07818
 C725 C 0.01283 0.66317 1.06526
 C726 C -0.00766 0.65509 1.05761
 C727 C -0.02659 0.66731 1.06302
 C728 C -0.02506 0.68696 1.07595
 C729 C -0.00923 0.63366 1.04485
 C730 C -0.02617 0.61874 1.05032
 C731 C -0.02665 0.59791 1.03975
 C732 C -0.01028 0.59169 1.02348
 C733 C 0.00625 0.60664 1.01737
 C734 C 0.00676 0.62747 1.02791
 C735 C -0.00920 0.56937 1.01499
 C736 C -0.00752 0.55038 1.00919
 H737 H 0.03021 0.68854 1.08417
 H738 H 0.02768 0.65404 1.06178
 H739 H -0.04257 0.66169 1.05720
 H740 H -0.03984 0.69602 1.08009
 H741 H -0.03858 0.62283 1.06348
 H742 H -0.03940 0.58640 1.04484
 H743 H 0.01909 0.60200 1.00493
 H744 H 0.01984 0.63866 1.02303
 C745 C 0.50195 0.72997 -0.10989
 C746 C 0.50334 0.71365 -0.09762
 C747 C 0.50483 0.69391 -0.08338
 C748 C 0.48587 0.68192 -0.07797
 C749 C 0.48728 0.66232 -0.06499
 C750 C 0.50772 0.65434 -0.05720
 C751 C 0.52668 0.66664 -0.06250
 C752 C 0.52522 0.68627 -0.07550
 C753 C 0.50923 0.63291 -0.04440
 C754 C 0.52619 0.61807 -0.04974
 C755 C 0.52660 0.59724 -0.03916
 C756 C 0.51014 0.59094 -0.02300
 C757 C 0.49357 0.60580 -0.01701
 C758 C 0.49313 0.62664 -0.02757
 C759 C 0.50901 0.56860 -0.01451
 C760 C 0.50731 0.54959 -0.00872
 H761 H 0.47000 0.68758 -0.08408
 H762 H 0.47240 0.65311 -0.06160
 H763 H 0.54263 0.66111 -0.05657
 H764 H 0.54003 0.69540 -0.07956
 H765 H 0.53868 0.62223 -0.06282
 H766 H 0.53938 0.58580 -0.04415
 H767 H 0.48066 0.60109 -0.00465
 H768 H 0.48003 0.63776 -0.02278
 C769 C 0.00190 1.23047 0.39005
 C770 C 0.00324 1.21410 0.40224
 C771 C 0.00466 1.19431 0.41642
 C772 C 0.02502 1.18674 0.42451
 C773 C 0.02643 1.16710 0.43749
 C774 C 0.00746 1.15473 0.44258
 C775 C -0.01294 1.16264 0.43458
 C776 C -0.01430 1.18225 0.42160
 C777 C 0.00893 1.13331 0.45541
 C778 C -0.00729 1.12699 0.47207
 C779 C -0.00687 1.10617 0.48265
 C780 C 0.00981 1.09135 0.47685
 C781 C 0.02638 1.09770 0.46087
 C782 C 0.02599 1.11852 0.45025
 C783 C 0.00868 1.06902 0.48536
 C784 C 0.00698 1.05001 0.49115
 H785 H 0.03982 1.19592 0.42063
 H786 H 0.04234 1.16161 0.44359
 H787 H -0.02781 1.15338 0.43781
 H788 H -0.03013 1.18786 0.41534
 H789 H -0.02047 1.13807 0.47671
 H790 H -0.01987 1.10142 0.49488
 H791 H 0.03924 1.08630 0.45602
 H792 H 0.03858 1.12272 0.43731
 C793 C 0.75576 0.62581 0.97919
 C794 C 0.76105 0.63654 0.96193
 C795 C 0.76758 0.64877 0.94101
 C796 C 0.75930 0.66982 0.93706
 C797 C 0.76483 0.68123 0.91612
 C798 C 0.77870 0.67168 0.89883
 C799 C 0.78731 0.65069 0.90322
 C800 C 0.78178 0.63932 0.92420
 C801 C 0.78281 0.68301 0.87563
 C802 C 0.78179 0.67126 0.85388
 C803 C 0.78238 0.68232 0.83188
 C804 C 0.78416 0.70519 0.83134
 C805 C 0.78641 0.71690 0.85283
 C806 C 0.78581 0.70588 0.87486
 C807 C 0.77974 0.71676 0.80939
 C808 C 0.77377 0.72637 0.79168
 H809 H 0.74825 0.67725 0.94994
 H810 H 0.75763 0.69720 0.91307
 H811 H 0.79816 0.64300 0.89034
 H812 H 0.78832 0.62303 0.92714
 H813 H 0.77920 0.65369 0.85387
 H814 H 0.78024 0.67314 0.81535
 H815 H 0.78751 0.73463 0.85262
 H816 H 0.78693 0.71531 0.89131
 C817 C 0.25583 0.12564 0.47943
 C818 C 0.26109 0.13662 0.46235
 C819 C 0.26761 0.14904 0.44156
 C820 C 0.28221 0.13992 0.42494
 C821 C 0.28768 0.15138 0.40400
 C822 C 0.27860 0.17215 0.39945
 C823 C 0.26433 0.18139 0.41656
 C824 C 0.25887 0.16988 0.43747
 C825 C 0.28265 0.18351 0.37627
 C826 C 0.28515 0.20644 0.37547
 C827 C 0.28574 0.21742 0.35341
 C828 C 0.28399 0.20561 0.33193
 C829 C 0.28270 0.18271 0.33251
 C830 C 0.28211 0.17170 0.35454
 C831 C 0.27961 0.21705 0.30988
 C832 C 0.27368 0.22656 0.29209
 H833 H 0.28910 0.12379 0.42799
 H834 H 0.29883 0.14394 0.39127
 H835 H 0.25678 0.19717 0.41339
 H836 H 0.24750 0.17705 0.45018
 H837 H 0.28588 0.21593 0.39190
 H838 H 0.28647 0.23517 0.35316
 H839 H 0.28094 0.17345 0.31599
 H840 H 0.27993 0.15407 0.35456
 C841 C 0.74424 0.37487 0.47923
 C842 C 0.73903 0.36413 0.46196
 C843 C 0.73258 0.35187 0.44105
 C844 C 0.74082 0.33078 0.43725
 C845 C 0.73535 0.31932 0.41634
 C846 C 0.72159 0.32885 0.39893
 C847 C 0.71302 0.34989 0.40317
 C848 C 0.71850 0.36131 0.42412
 C849 C 0.71753 0.31745 0.37579
 C850 C 0.71865 0.32910 0.35397
 C851 C 0.71807 0.31796 0.33203
 C852 C 0.71621 0.29510 0.33163
 C853 C 0.71386 0.28348 0.35318
 C854 C 0.71444 0.29458 0.37515
 C855 C 0.72062 0.28343 0.30975
 C856 C 0.72657 0.27374 0.29209
 H857 H 0.75178 0.32336 0.45022
 H858 H 0.74251 0.30331 0.41341
 H859 H 0.70225 0.35756 0.39021
 H860 H 0.71199 0.37762 0.42695
 H861 H 0.72129 0.34667 0.35386
 H862 H 0.72029 0.32707 0.31546
 H863 H 0.71269 0.26575 0.35307
 H864 H 0.71324 0.28522 0.39165
 C865 C 0.24391 0.87481 0.97952
 C866 C 0.23876 0.86377 0.96245
 C867 C 0.23238 0.85126 0.94170
 C868 C 0.21789 0.86030 0.92492
 C869 C 0.21251 0.84871 0.90406
 C870 C 0.22158 0.82790 0.89975
 C871 C 0.23575 0.81875 0.91701
 C872 C 0.24112 0.83038 0.93784
 C873 C 0.21761 0.81637 0.87667
 C874 C 0.21507 0.79344 0.87608
 C875 C 0.21451 0.78231 0.85414
 C876 C 0.21634 0.79395 0.83254
 C877 C 0.21768 0.81686 0.83290
 C878 C 0.21823 0.82803 0.85482
 C879 C 0.22071 0.78236 0.81060
 C880 C 0.22661 0.77273 0.79288
 H881 H 0.21099 0.87645 0.92779
 H882 H 0.20143 0.85608 0.89120
 H883 H 0.24330 0.80293 0.91403
 H884 H 0.25241 0.82328 0.95069
 H885 H 0.21426 0.78407 0.89261
 H886 H 0.21374 0.76455 0.85406
 H887 H 0.21950 0.82599 0.81629
 H888 H 0.22045 0.84565 0.85467
 C889 C 0.25476 0.87589 0.02107
 C890 C 0.25955 0.86577 0.03892
 C891 C 0.26540 0.85437 0.06060
 C892 C 0.28049 0.83713 0.05998
 C893 C 0.28611 0.82616 0.08119
 C894 C 0.27673 0.83238 0.10327
 C895 C 0.26176 0.84990 0.10368
 C896 C 0.25617 0.86081 0.08249
 C897 C 0.28135 0.81991 0.12562
 C898 C 0.28326 0.83081 0.14783
 C899 C 0.28424 0.81889 0.16927
 C900 C 0.28353 0.79597 0.16875
 C901 C 0.28292 0.78498 0.14668
 C902 C 0.28191 0.79686 0.12522
 C903 C 0.27939 0.78398 0.19051
 C904 C 0.27360 0.77406 0.20811
 H905 H 0.28785 0.83213 0.04313
 H906 H 0.29778 0.81283 0.08035
 H907 H 0.25393 0.85481 0.12029
 H908 H 0.24450 0.87416 0.08316
 H909 H 0.28318 0.84855 0.14866
 H910 H 0.28444 0.82756 0.18627
 H911 H 0.28196 0.76724 0.14611
 H912 H 0.28022 0.78798 0.10846
 C913 C 0.75555 0.37494 0.52060
 C914 C 0.76073 0.36427 0.53793
 C915 C 0.76714 0.35209 0.55889
 C916 C 0.78115 0.36166 0.57585
 C917 C 0.78659 0.35030 0.59684
 C918 C 0.77809 0.32920 0.60111
 C919 C 0.76440 0.31954 0.58369
 C920 C 0.75896 0.33094 0.56273
 C921 C 0.78213 0.31785 0.62429
 C922 C 0.78529 0.29501 0.62499
 C923 C 0.78587 0.28393 0.64698
 C924 C 0.78343 0.29555 0.66850
 C925 C 0.78149 0.31840 0.66804
 C926 C 0.78092 0.32951 0.64608
 C927 C 0.77902 0.28385 0.69039
 C928 C 0.77308 0.27412 0.70806
 H929 H 0.78761 0.37802 0.57300
 H930 H 0.79730 0.35808 0.60983
 H931 H 0.75728 0.30348 0.58663
 H932 H 0.74806 0.32341 0.54974
 H933 H 0.78656 0.28565 0.60851
 H934 H 0.78710 0.26621 0.64713
 H935 H 0.77920 0.32749 0.68459
 H936 H 0.77821 0.34705 0.64614
 C937 C 0.24477 0.12460 0.52095
 C938 C 0.23995 0.13470 0.53880
 C939 C 0.23410 0.14604 0.56051
 C940 C 0.24332 0.13952 0.58237
 C941 C 0.23773 0.15036 0.60360
 C942 C 0.22278 0.16789 0.60325
 C943 C 0.21340 0.17420 0.58119
 C944 C 0.21902 0.16329 0.55995
 C945 C 0.21817 0.18029 0.62563
 C946 C 0.21764 0.20334 0.62530
 C947 C 0.21666 0.21515 0.64680
 C948 C 0.21606 0.20408 0.66884
 C949 C 0.21531 0.18116 0.66929
 C950 C 0.21626 0.16931 0.64781
 C951 C 0.22023 0.21599 0.69062
 C952 C 0.22604 0.22586 0.70823
 H953 H 0.25498 0.12616 0.58299
 H954 H 0.24556 0.14539 0.62019
 H955 H 0.20175 0.18753 0.58039
 H956 H 0.21167 0.16835 0.54311
 H957 H 0.21934 0.21227 0.60857
 H958 H 0.21765 0.23289 0.64627
 H959 H 0.21511 0.17243 0.68627
 H960 H 0.21631 0.15157 0.64860
 C961 C 0.74430 0.62569 0.02053
 C962 C 0.73907 0.63632 0.03786
 C963 C 0.73262 0.64845 0.05884
 C964 C 0.74072 0.66962 0.06268
 C965 C 0.73526 0.68095 0.08366
 C966 C 0.72162 0.67120 0.10110
 C967 C 0.71318 0.65008 0.09683
 C968 C 0.71866 0.63879 0.07581
 C969 C 0.71758 0.68248 0.12431
 C970 C 0.71887 0.67077 0.14607
 C971 C 0.71830 0.68183 0.16806
 C972 C 0.71629 0.70467 0.16857
 C973 C 0.71378 0.71633 0.14708
 C974 C 0.71434 0.70531 0.12506
 C975 C 0.72071 0.71632 0.19047
 C976 C 0.72666 0.72603 0.20813
 H977 H 0.75158 0.67721 0.04968
 H978 H 0.74232 0.69703 0.08661
 H979 H 0.70251 0.64224 0.10982
 H980 H 0.71225 0.62241 0.07295
 H981 H 0.72163 0.65323 0.14610
 H982 H 0.72065 0.67269 0.18458
 H983 H 0.71248 0.73405 0.14727
 H984 H 0.71301 0.71471 0.10861
 C985 C 0.15188 0.51875 0.24406
 C986 C 0.16261 0.53493 0.24000
 C987 C 0.17467 0.55487 0.23619
 C988 C 0.19117 0.56091 0.25236
 C989 C 0.20125 0.58142 0.25040
 C990 C 0.19488 0.59618 0.23227
 C991 C 0.17875 0.58969 0.21565
 C992 C 0.16868 0.56915 0.21764
 C993 C 0.20406 0.61871 0.23170
 C994 C 0.19027 0.63678 0.22754
 C995 C 0.19851 0.65813 0.22883
 C996 C 0.22061 0.66168 0.23423
 C997 C 0.23457 0.64384 0.23789
 C998 C 0.22637 0.62246 0.23661
 C999 C 0.22865 0.68365 0.23718
 C1000 C 0.23507 0.70210 0.24019
 H1001 H 0.19575 0.55005 0.26693
 H1002 H 0.21338 0.58606 0.26367
 H1003 H 0.17369 0.60061 0.20134
 H1004 H 0.15585 0.56465 0.20511
 H1005 H 0.17296 0.63444 0.22410
 H1006 H 0.18755 0.67187 0.22612
 H1007 H 0.25171 0.64645 0.24211
 H1008 H 0.23741 0.60886 0.23965
 C1009 C 0.65182 0.01866 0.74409
 C1010 C 0.66250 0.03489 0.74005
 C1011 C 0.67449 0.05489 0.73628
 C1012 C 0.69099 0.06095 0.75242
 C1013 C 0.70099 0.08150 0.75051
 C1014 C 0.69453 0.09628 0.73243
 C1015 C 0.67839 0.08977 0.71583
 C1016 C 0.66841 0.06919 0.71778
 C1017 C 0.70363 0.11884 0.73190
 C1018 C 0.68977 0.13687 0.72781
 C1019 C 0.69794 0.15825 0.72911
 C1020 C 0.72004 0.16187 0.73446
 C1021 C 0.73407 0.14406 0.73806
 C1022 C 0.72594 0.12266 0.73677
 C1023 C 0.72803 0.18385 0.73737
 C1024 C 0.73443 0.20232 0.74035
 H1025 H 0.69564 0.05007 0.76696
 H1026 H 0.71312 0.08615 0.76376
 H1027 H 0.67327 0.10071 0.70156
 H1028 H 0.65557 0.06468 0.70526
 H1029 H 0.67246 0.13448 0.72441
 H1030 H 0.68693 0.17196 0.72645
 H1031 H 0.75122 0.14673 0.74223
 H1032 H 0.73703 0.10910 0.73976
 C1033 C 0.84829 0.01912 0.25567
 C1034 C 0.83759 0.03529 0.25966
 C1035 C 0.82555 0.05520 0.26340
 C1036 C 0.80917 0.06123 0.24712
 C1037 C 0.79911 0.08170 0.24905
 C1038 C 0.80540 0.09643 0.26727
 C1039 C 0.82142 0.08994 0.28399
 C1040 C 0.83146 0.06945 0.28202
 C1041 C 0.79622 0.11891 0.26785
 C1042 C 0.80999 0.13703 0.27218
 C1043 C 0.80175 0.15835 0.27095
 C1044 C 0.77968 0.16182 0.26543
 C1045 C 0.76573 0.14393 0.26159
 C1046 C 0.77394 0.12258 0.26280
 C1047 C 0.77165 0.18376 0.26259
 C1048 C 0.76522 0.20220 0.25967
 H1049 H 0.80466 0.05040 0.23249
 H1050 H 0.78707 0.08634 0.23571
 H1051 H 0.82640 0.10084 0.29836
 H1052 H 0.84420 0.06495 0.29464
 H1053 H 0.82728 0.13476 0.27573
 H1054 H 0.81270 0.17213 0.27380
 H1055 H 0.74862 0.14648 0.25728
 H1056 H 0.76291 0.10895 0.25963
 C1057 C 0.34866 0.51848 0.75590
 C1058 C 0.33789 0.53459 0.75992
 C1059 C 0.32574 0.55443 0.76366
 C1060 C 0.30941 0.56043 0.74732
 C1061 C 0.29924 0.58084 0.74925
 C1062 C 0.30537 0.59555 0.76755
 C1063 C 0.32134 0.58909 0.78435
 C1064 C 0.33149 0.56865 0.78237
 C1065 C 0.29611 0.61800 0.76813
 C1066 C 0.30979 0.63615 0.77258
 C1067 C 0.30149 0.65744 0.77134
 C1068 C 0.27944 0.66085 0.76569
 C1069 C 0.26557 0.64291 0.76172
 C1070 C 0.27384 0.62159 0.76295
 C1071 C 0.27135 0.68277 0.76285
 C1072 C 0.26493 0.70121 0.75998
 H1073 H 0.30501 0.54961 0.73263
 H1074 H 0.28724 0.58546 0.73585
 H1075 H 0.32620 0.59997 0.79878
 H1076 H 0.34419 0.56418 0.79505
 H1077 H 0.32707 0.63394 0.77623
 H1078 H 0.31237 0.67125 0.77429
 H1079 H 0.24847 0.64542 0.75731
 H1080 H 0.26287 0.60793 0.75968
 C1081 C 0.34872 0.48073 0.74400
 C1082 C 0.33799 0.46456 0.73991
 C1083 C 0.32588 0.44465 0.73608
 C1084 C 0.33200 0.43028 0.71768
 C1085 C 0.32185 0.40979 0.71566
 C1086 C 0.30550 0.40344 0.73212
 C1087 C 0.29901 0.41830 0.75009
 C1088 C 0.30918 0.43876 0.75207
 C1089 C 0.29620 0.38097 0.73155
 C1090 C 0.27382 0.37736 0.73620
 C1091 C 0.26548 0.35603 0.73749
 C1092 C 0.27939 0.33809 0.73410
 C1093 C 0.30157 0.34151 0.72896
 C1094 C 0.30994 0.36281 0.72766
 C1095 C 0.27121 0.31619 0.73708
 C1096 C 0.26469 0.29777 0.74012
 H1097 H 0.34499 0.43467 0.70528
 H1098 H 0.32700 0.39879 0.70148
 H1099 H 0.28671 0.41377 0.76323
 H1100 H 0.30449 0.44969 0.76652
 H1101 H 0.26281 0.39102 0.73903
 H1102 H 0.24828 0.35352 0.74150
 H1103 H 0.31248 0.32770 0.72646
 H1104 H 0.32730 0.36504 0.72442
 C1105 C 0.84828 0.98131 0.24392
 C1106 C 0.83758 0.96510 0.23991
 C1107 C 0.82555 0.94513 0.23617
 C1108 C 0.80905 0.93909 0.25235
 C1109 C 0.79901 0.91856 0.25046
 C1110 C 0.80543 0.90378 0.23237
 C1111 C 0.82156 0.91027 0.21574
 C1112 C 0.83159 0.93083 0.21767
 C1113 C 0.79627 0.88124 0.23186
 C1114 C 0.81009 0.86318 0.22775
 C1115 C 0.80186 0.84182 0.22905
 C1116 C 0.77976 0.83825 0.23442
 C1117 C 0.76577 0.85608 0.23805
 C1118 C 0.77396 0.87747 0.23676
 C1119 C 0.77172 0.81628 0.23734
 C1120 C 0.76529 0.79782 0.24032
 H1121 H 0.80443 0.94997 0.26689
 H1122 H 0.78687 0.91392 0.26373
 H1123 H 0.82665 0.89934 0.20147
 H1124 H 0.84442 0.93533 0.20513
 H1125 H 0.82740 0.86553 0.22432
 H1126 H 0.81284 0.82809 0.22637
 H1127 H 0.74862 0.85345 0.24224
 H1128 H 0.76289 0.89105 0.23977
 C1129 C 0.65188 0.98081 0.75577
 C1130 C 0.66260 0.96464 0.75967
 C1131 C 0.67464 0.94472 0.76329
 C1132 C 0.69101 0.93877 0.74695
 C1133 C 0.70106 0.91829 0.74874
 C1134 C 0.69479 0.90346 0.76688
 C1135 C 0.67878 0.90986 0.78367
 C1136 C 0.66875 0.93036 0.78184
 C1137 C 0.70396 0.88097 0.76732
 C1138 C 0.69019 0.86283 0.77159
 C1139 C 0.69842 0.84152 0.77026
 C1140 C 0.72050 0.83807 0.76471
 C1141 C 0.73444 0.85598 0.76091
 C1142 C 0.72624 0.87732 0.76223
 C1143 C 0.72855 0.81614 0.76183
 C1144 C 0.73499 0.79771 0.75893
 H1145 H 0.69552 0.94969 0.73237
 H1146 H 0.71310 0.91373 0.73535
 H1147 H 0.67381 0.89888 0.79799
 H1148 H 0.65601 0.93479 0.79451
 H1149 H 0.67290 0.86509 0.77517
 H1150 H 0.68748 0.82773 0.77308
 H1151 H 0.75156 0.85345 0.75659
 H1152 H 0.73727 0.89097 0.75910
 C1153 C 0.15184 0.48091 0.25580
 C1154 C 0.16254 0.46473 0.25971
 C1155 C 0.17457 0.44480 0.26333
 C1156 C 0.19099 0.43889 0.24704
 C1157 C 0.20105 0.41841 0.24884
 C1158 C 0.19472 0.40354 0.26693
 C1159 C 0.17866 0.40991 0.28366
 C1160 C 0.16862 0.43041 0.28183
 C1161 C 0.20391 0.38106 0.26736
 C1162 C 0.19014 0.36291 0.27154
 C1163 C 0.19839 0.34161 0.27022
 C1164 C 0.22048 0.33818 0.26476
 C1165 C 0.23443 0.35611 0.26105
 C1166 C 0.22621 0.37744 0.26236
 C1167 C 0.22856 0.31626 0.26191
 C1168 C 0.23502 0.29783 0.25905
 H1169 H 0.19555 0.44984 0.23251
 H1170 H 0.21314 0.41387 0.23549
 H1171 H 0.17364 0.39890 0.29794
 H1172 H 0.15584 0.43481 0.29445
 H1173 H 0.17283 0.36515 0.27505
 H1174 H 0.18745 0.32780 0.27297
 H1175 H 0.25157 0.35359 0.25680
 H1176 H 0.23724 0.39110 0.25930
 C1177 C 0.01909 0.24888 0.85949
 C1178 C 0.03545 0.24748 0.84732
 C1179 C 0.05522 0.24594 0.83316
 C1180 C 0.06731 0.26487 0.82787
 C1181 C 0.08692 0.26340 0.81493
 C1182 C 0.09480 0.24293 0.80708
 C1183 C 0.08240 0.22400 0.81228
 C1184 C 0.06276 0.22552 0.82522
 C1185 C 0.11622 0.24136 0.79431
 C1186 C 0.13095 0.22428 0.79960
 C1187 C 0.15177 0.22379 0.78904
 C1188 C 0.15817 0.24028 0.77295
 C1189 C 0.14341 0.25696 0.76701
 C1190 C 0.12258 0.25748 0.77755
 C1191 C 0.18050 0.24133 0.76449
 C1192 C 0.19951 0.24298 0.75874
 H1193 H 0.06172 0.28077 0.83402
 H1194 H 0.09620 0.27826 0.81162
 H1195 H 0.08786 0.20803 0.80630
 H1196 H 0.05356 0.21074 0.82919
 H1197 H 0.12672 0.21176 0.81263
 H1198 H 0.16313 0.21092 0.79400
 H1199 H 0.14819 0.26989 0.75470
 H1200 H 0.11155 0.27067 0.77279
 C1201 C 0.51976 0.74834 0.35942
 C1202 C 0.53612 0.74696 0.34725
 C1203 C 0.55591 0.74546 0.33311
 C1204 C 0.56354 0.72504 0.32525
 C1205 C 0.58320 0.72357 0.31233
 C1206 C 0.59552 0.74253 0.30707
 C1207 C 0.58755 0.76300 0.31483
 C1208 C 0.56792 0.76443 0.32775
 C1209 C 0.61695 0.74101 0.29432
 C1210 C 0.62326 0.75711 0.27751
 C1211 C 0.64410 0.75664 0.26699
 C1212 C 0.65892 0.74004 0.27301
 C1213 C 0.65259 0.72357 0.28916
 C1214 C 0.63175 0.72401 0.29970
 C1215 C 0.68125 0.74114 0.26455
 C1216 C 0.70026 0.74284 0.25879
 H1217 H 0.55440 0.71023 0.32928
 H1218 H 0.58873 0.70760 0.30642
 H1219 H 0.59676 0.77788 0.31147
 H1220 H 0.56226 0.78031 0.33383
 H1221 H 0.61218 0.77023 0.27269
 H1222 H 0.64884 0.76955 0.25464
 H1223 H 0.66399 0.71077 0.29418
 H1224 H 0.62756 0.71152 0.31277
 C1225 C 0.51990 0.25130 0.14049
 C1226 C 0.53626 0.25270 0.15265
 C1227 C 0.55603 0.25421 0.16680
 C1228 C 0.56370 0.27462 0.17475
 C1229 C 0.58334 0.27610 0.18769
 C1230 C 0.59560 0.25715 0.19290
 C1231 C 0.58760 0.23669 0.18504
 C1232 C 0.56799 0.23526 0.17210
 C1233 C 0.61702 0.25869 0.20568
 C1234 C 0.62325 0.24255 0.22244
 C1235 C 0.64407 0.24304 0.23299
 C1236 C 0.65895 0.25969 0.22706
 C1237 C 0.65268 0.27619 0.21097
 C1238 C 0.63187 0.27574 0.20039
 C1239 C 0.68125 0.25862 0.23555
 C1240 C 0.70024 0.25696 0.24134
 H1241 H 0.55460 0.28942 0.17077
 H1242 H 0.58889 0.29207 0.19368
 H1243 H 0.59678 0.22183 0.18836
 H1244 H 0.56231 0.21937 0.16595
 H1245 H 0.61213 0.22938 0.22719
 H1246 H 0.64876 0.23009 0.24530
 H1247 H 0.66413 0.28904 0.20602
 H1248 H 0.62774 0.28826 0.18736
 C1249 C 0.02005 0.75174 0.64059
 C1250 C 0.03638 0.75308 0.65281
 C1251 C 0.05613 0.75447 0.66703
 C1252 C 0.06391 0.77485 0.67496
 C1253 C 0.08351 0.77622 0.68799
 C1254 C 0.09563 0.75719 0.69328
 C1255 C 0.08751 0.73677 0.68543
 C1256 C 0.06794 0.73545 0.67241
 C1257 C 0.11702 0.75860 0.70614
 C1258 C 0.12309 0.74244 0.72295
 C1259 C 0.14388 0.74280 0.73357
 C1260 C 0.15889 0.75934 0.72767
 C1261 C 0.15278 0.77587 0.71153
 C1262 C 0.13200 0.77554 0.70088
 C1263 C 0.18117 0.75812 0.73621
 C1264 C 0.20014 0.75635 0.74203
 H1265 H 0.05492 0.78970 0.67092
 H1266 H 0.08916 0.79215 0.69396
 H1267 H 0.09658 0.72185 0.68881
 H1268 H 0.06217 0.71960 0.66627
 H1269 H 0.11187 0.72936 0.72767
 H1270 H 0.14845 0.72984 0.74592
 H1271 H 0.16433 0.78863 0.70660
 H1272 H 0.12799 0.78808 0.68782
 C1273 C 0.98076 0.74823 0.64050
 C1274 C 0.96436 0.74686 0.65263
 C1275 C 0.94453 0.74542 0.66672
 C1276 C 0.93258 0.76440 0.67189
 C1277 C 0.91292 0.76302 0.68477
 C1278 C 0.90486 0.74259 0.69268
 C1279 C 0.91712 0.72361 0.68760
 C1280 C 0.93680 0.72503 0.67472
 C1281 C 0.88339 0.74112 0.70538
 C1282 C 0.86853 0.72407 0.70011
 C1283 C 0.84768 0.72367 0.71062
 C1284 C 0.84138 0.74021 0.72663
 C1285 C 0.85626 0.75687 0.73253
 C1286 C 0.87711 0.75731 0.72205
 C1287 C 0.81905 0.74132 0.73506
 C1288 C 0.80006 0.74299 0.74082
 H1289 H 0.93831 0.78026 0.66570
 H1290 H 0.90375 0.77791 0.68799
 H1291 H 0.91151 0.70767 0.69363
 H1292 H 0.94590 0.71021 0.67084
 H1293 H 0.87270 0.71151 0.68715
 H1294 H 0.83624 0.71082 0.70569
 H1295 H 0.85154 0.76984 0.74478
 H1296 H 0.88824 0.77047 0.72678
 C1297 C 0.48060 0.24779 0.14050
 C1298 C 0.46423 0.24646 0.15267
 C1299 C 0.44444 0.24508 0.16682
 C1300 C 0.43250 0.26408 0.17193
 C1301 C 0.41287 0.26276 0.18486
 C1302 C 0.40482 0.24237 0.19291
 C1303 C 0.41707 0.22337 0.18790
 C1304 C 0.43673 0.22473 0.17496
 C1305 C 0.38339 0.24095 0.20568
 C1306 C 0.36852 0.22388 0.20055
 C1307 C 0.34769 0.22354 0.21110
 C1308 C 0.34142 0.24016 0.22702
 C1309 C 0.35631 0.25684 0.23281
 C1310 C 0.37714 0.25722 0.22228
 C1311 C 0.31910 0.24132 0.23548
 C1312 C 0.30010 0.24303 0.24122
 H1313 H 0.43821 0.27991 0.16563
 H1314 H 0.40370 0.27767 0.18802
 H1315 H 0.41149 0.20745 0.19404
 H1316 H 0.44582 0.20990 0.17113
 H1317 H 0.37266 0.21126 0.18765
 H1318 H 0.33623 0.21067 0.20627
 H1319 H 0.35162 0.26988 0.24498
 H1320 H 0.38828 0.27041 0.22690
 C1321 C 0.48048 0.75183 0.35944
 C1322 C 0.46412 0.75320 0.34728
 C1323 C 0.44434 0.75467 0.33314
 C1324 C 0.43237 0.73568 0.32779
 C1325 C 0.41275 0.73708 0.31487
 C1326 C 0.40476 0.75753 0.30707
 C1327 C 0.41704 0.77652 0.31232
 C1328 C 0.43668 0.77507 0.32526
 C1329 C 0.38334 0.75902 0.29431
 C1330 C 0.36850 0.77600 0.29965
 C1331 C 0.34769 0.77640 0.28908
 C1332 C 0.34140 0.75993 0.27295
 C1333 C 0.35626 0.74335 0.26697
 C1334 C 0.37708 0.74291 0.27751
 C1335 C 0.31908 0.75879 0.26447
 C1336 C 0.30009 0.75707 0.25870
 H1337 H 0.43804 0.71980 0.33390
 H1338 H 0.40357 0.72218 0.31152
 H1339 H 0.41149 0.79248 0.30639
 H1340 H 0.44579 0.78990 0.32927
 H1341 H 0.37265 0.78850 0.31271
 H1342 H 0.33625 0.78919 0.29407
 H1343 H 0.35155 0.73043 0.25463
 H1344 H 0.38819 0.72980 0.27273
 C1345 C 0.97981 0.25240 0.85951
 C1346 C 0.96346 0.25376 0.84734
 C1347 C 0.94368 0.25519 0.83320
 C1348 C 0.93173 0.23619 0.82787
 C1349 C 0.91212 0.23755 0.81494
 C1350 C 0.90410 0.25798 0.80712
 C1351 C 0.91635 0.27699 0.81236
 C1352 C 0.93599 0.27558 0.82530
 C1353 C 0.88267 0.25943 0.79435
 C1354 C 0.86781 0.27639 0.79968
 C1355 C 0.84699 0.27675 0.78912
 C1356 C 0.84073 0.26025 0.77300
 C1357 C 0.85562 0.24369 0.76703
 C1358 C 0.87644 0.24330 0.77757
 C1359 C 0.81842 0.25907 0.76453
 C1360 C 0.79943 0.25733 0.75875
 H1361 H 0.93743 0.22032 0.83399
 H1362 H 0.90295 0.22264 0.81160
 H1363 H 0.91078 0.29294 0.80641
 H1364 H 0.94508 0.29042 0.82929
 H1365 H 0.87194 0.28890 0.81273
 H1366 H 0.83554 0.28952 0.79410
 H1367 H 0.85094 0.23076 0.75470
 H1368 H 0.88758 0.23021 0.77279
 C1369 C 0.62435 0.99401 0.72940
 C1370 C 0.61360 0.98878 0.71215
 C1371 C 0.60135 0.98232 0.69126
 C1372 C 0.61077 0.96818 0.67436
 C1373 C 0.59937 0.96270 0.65340
 C1374 C 0.57837 0.97131 0.64912
 C1375 C 0.56886 0.98513 0.66649
 C1376 C 0.58030 0.99059 0.68741
 C1377 C 0.56700 0.96725 0.62596
 C1378 C 0.54415 0.96421 0.62528
 C1379 C 0.53309 0.96362 0.60330
 C1380 C 0.54473 0.96593 0.58176
 C1381 C 0.56758 0.96776 0.58220
 C1382 C 0.57868 0.96834 0.60416
 C1383 C 0.53311 0.97033 0.55985
 C1384 C 0.52346 0.97628 0.54216
 H1385 H 0.62705 0.96164 0.67722
 H1386 H 0.60703 0.95190 0.64046
 H1387 H 0.55288 0.99232 0.66353
 H1388 H 0.57289 1.00160 0.70035
 H1389 H 0.53477 0.96304 0.64176
 H1390 H 0.51537 0.96248 0.60315
 H1391 H 0.57670 0.96995 0.56565
 H1392 H 0.59623 0.97095 0.60408
 C1393 C 0.12434 0.49415 1.22941
 C1394 C 0.11357 0.48893 1.21217
 C1395 C 0.10130 0.48250 1.19128
 C1396 C 0.11069 0.46837 1.17435
 C1397 C 0.09927 0.46293 1.15341
 C1398 C 0.07827 0.47155 1.14916
 C1399 C 0.06878 0.48535 1.16656
 C1400 C 0.08024 0.49079 1.18748
 C1401 C 0.06688 0.46754 1.12601
 C1402 C 0.04403 0.46451 1.12535
 C1403 C 0.03294 0.46398 1.10338
 C1404 C 0.04456 0.46632 1.08183
 C1405 C 0.06741 0.46812 1.08225
 C1406 C 0.07853 0.46865 1.10420
 C1407 C 0.03292 0.47077 1.05995
 C1408 C 0.02326 0.47675 1.04229
 H1409 H 0.12698 0.46182 1.17719
 H1410 H 0.10691 0.45213 1.14044
 H1411 H 0.05281 0.49256 1.16363
 H1412 H 0.07286 0.50178 1.20044
 H1413 H 0.03466 0.46332 1.14184
 H1414 H 0.01522 0.46284 1.10326
 H1415 H 0.07652 0.47034 1.06569
 H1416 H 0.09609 0.47126 1.10411
 C1417 C -0.12425 0.00597 1.22917
 C1418 C -0.11354 0.01122 1.21188
 C1419 C -0.10136 0.01771 1.19092
 C1420 C -0.08034 0.00939 1.18694
 C1421 C -0.06898 0.01487 1.16596
 C1422 C -0.07853 0.02874 1.14866
 C1423 C -0.09949 0.03739 1.15308
 C1424 C -0.11081 0.03190 1.17410
 C1425 C -0.06725 0.03281 1.12544
 C1426 C -0.07902 0.03180 1.10371
 C1427 C -0.06801 0.03240 1.08168
 C1428 C -0.04516 0.03418 1.08110
 C1429 C -0.03342 0.03641 1.10257
 C1430 C -0.04439 0.03581 1.12462
 C1431 C -0.03364 0.02980 1.05912
 C1432 C -0.02406 0.02387 1.04137
 H1433 H -0.07291 -0.00166 1.19983
 H1434 H -0.05303 0.00764 1.16289
 H1435 H -0.10717 0.04824 1.14020
 H1436 H -0.12707 0.03848 1.17707
 H1437 H -0.09658 0.02923 1.10373
 H1438 H -0.07721 0.03027 1.06518
 H1439 H -0.01570 0.03751 1.10233
 H1440 H -0.03494 0.03692 1.14105
 C1441 C 0.37615 0.50548 0.72935
 C1442 C 0.38685 0.51081 0.71209
 C1443 C 0.39902 0.51739 0.69116
 C1444 C 0.42010 0.50922 0.68722
 C1445 C 0.43146 0.51477 0.66625
 C1446 C 0.42183 0.52857 0.64893
 C1447 C 0.40081 0.53708 0.65331
 C1448 C 0.38949 0.53151 0.67431
 C1449 C 0.43310 0.53268 0.62571
 C1450 C 0.42135 0.53154 0.60398
 C1451 C 0.43238 0.53214 0.58196
 C1452 C 0.45522 0.53404 0.58140
 C1453 C 0.46692 0.53642 0.60288
 C1454 C 0.45593 0.53582 0.62492
 C1455 C 0.46679 0.52961 0.55946
 C1456 C 0.47641 0.52363 0.54177
 H1457 H 0.42759 0.49823 0.70012
 H1458 H 0.44745 0.50765 0.66322
 H1459 H 0.39306 0.54786 0.64041
 H1460 H 0.37318 0.53797 0.67725
 H1461 H 0.40381 0.52886 0.60399
 H1462 H 0.42321 0.52990 0.56546
 H1463 H 0.48464 0.53762 0.60265
 H1464 H 0.46537 0.53703 0.64135
 C1465 C 0.37607 0.49391 -0.22932
 C1466 C 0.38671 0.48864 -0.21202
 C1467 C 0.39883 0.48214 -0.19106
 C1468 C 0.38920 0.46810 -0.17414
 C1469 C 0.40049 0.46258 -0.15313
 C1470 C 0.42158 0.47103 -0.14883
 C1471 C 0.43130 0.48474 -0.16622
 C1472 C 0.41998 0.49026 -0.18719
 C1473 C 0.43285 0.46694 -0.12563
 C1474 C 0.45566 0.46373 -0.12488
 C1475 C 0.46667 0.46312 -0.10287
 C1476 C 0.45502 0.46557 -0.08137
 C1477 C 0.43220 0.46755 -0.08187
 C1478 C 0.42115 0.46815 -0.10386
 C1479 C 0.46665 0.46997 -0.05946
 C1480 C 0.47635 0.47592 -0.04179
 H1481 H 0.37284 0.46168 -0.17702
 H1482 H 0.39266 0.45186 -0.14017
 H1483 H 0.44736 0.49182 -0.16325
 H1484 H 0.42755 0.50118 -0.20016
 H1485 H 0.46506 0.46245 -0.14134
 H1486 H 0.48438 0.46185 -0.10268
 H1487 H 0.42307 0.46985 -0.06535
 H1488 H 0.40362 0.47090 -0.10384
 C1489 C -0.12436 0.99454 0.27054
 C1490 C -0.11375 0.98930 0.28788
 C1491 C -0.10167 0.98280 0.30887
 C1492 C -0.11138 0.96887 0.32584
 C1493 C -0.10013 0.96334 0.34687
 C1494 C -0.07899 0.97169 0.35115
 C1495 C -0.06920 0.98531 0.33372
 C1496 C -0.08049 0.99083 0.31273
 C1497 C -0.06774 0.96758 0.37436
 C1498 C -0.04496 0.96423 0.37512
 C1499 C -0.03395 0.96358 0.39713
 C1500 C -0.04558 0.96613 0.41863
 C1501 C -0.06840 0.96825 0.41812
 C1502 C -0.07944 0.96890 0.39613
 C1503 C -0.03392 0.97049 0.44053
 C1504 C -0.02417 0.97640 0.45817
 H1505 H -0.12777 0.96252 0.32297
 H1506 H -0.10801 0.95269 0.35985
 H1507 H -0.05310 0.99231 0.33668
 H1508 H -0.07285 1.00167 0.29973
 H1509 H -0.03556 0.96287 0.35866
 H1510 H -0.01625 0.96221 0.39732
 H1511 H -0.07751 0.97063 0.43464
 H1512 H -0.09695 0.97174 0.39615
 C1513 C 0.12455 0.50553 0.27077
 C1514 C 0.11394 0.51077 0.28811
 C1515 C 0.10183 0.51726 0.30909
 C1516 C 0.11149 0.53125 0.32602
 C1517 C 0.10020 0.53679 0.34701
 C1518 C 0.07907 0.52840 0.35131
 C1519 C 0.06933 0.51472 0.33392
 C1520 C 0.08066 0.50919 0.31296
 C1521 C 0.06777 0.53253 0.37450
 C1522 C 0.04497 0.53581 0.37522
 C1523 C 0.03393 0.53646 0.39722
 C1524 C 0.04554 0.53398 0.41873
 C1525 C 0.06836 0.53192 0.41825
 C1526 C 0.07944 0.53128 0.39627
 C1527 C 0.03386 0.52960 0.44063
 C1528 C 0.02413 0.52366 0.45830
 H1529 H 0.12787 0.53763 0.32313
 H1530 H 0.10803 0.54748 0.35997
 H1531 H 0.05324 0.50769 0.33689
 H1532 H 0.07307 0.49831 0.29999
 H1533 H 0.03560 0.53711 0.35875
 H1534 H 0.01622 0.53778 0.39739
 H1535 H 0.07745 0.52960 0.43479
 H1536 H 0.09695 0.52848 0.39632
 C1537 C 0.62453 0.00534 -0.22922
 C1538 C 0.61392 0.01054 -0.21186
 C1539 C 0.60183 0.01698 -0.19086
 C1540 C 0.58067 0.00887 -0.18698
 C1541 C 0.56935 0.01435 -0.16599
 C1542 C 0.57908 0.02801 -0.14859
 C1543 C 0.60019 0.03645 -0.15290
 C1544 C 0.61148 0.03096 -0.17392
 C1545 C 0.56780 0.03210 -0.12539
 C1546 C 0.57949 0.03084 -0.10362
 C1547 C 0.56843 0.03145 -0.08163
 C1548 C 0.54560 0.03348 -0.08113
 C1549 C 0.53397 0.03596 -0.10263
 C1550 C 0.54500 0.03535 -0.12464
 C1551 C 0.53394 0.02907 -0.05922
 C1552 C 0.52422 0.02311 -0.04155
 H1553 H 0.57309 -0.00201 -0.19995
 H1554 H 0.55328 0.00729 -0.16301
 H1555 H 0.60802 0.04714 -0.13993
 H1556 H 0.62784 0.03737 -0.17681
 H1557 H 0.59701 0.02807 -0.10360
 H1558 H 0.57754 0.02912 -0.06511
 H1559 H 0.51627 0.03726 -0.10244
 H1560 H 0.53561 0.03666 -0.14110
 C1561 C 0.73108 0.59833 -0.00612
 C1562 C 0.71490 0.58760 -0.01016
 C1563 C 0.69498 0.57552 -0.01392
 C1564 C 0.68903 0.55890 0.00217
 C1565 C 0.66856 0.54879 0.00026
 C1566 C 0.65373 0.55525 -0.01775
 C1567 C 0.66013 0.57151 -0.03431
 C1568 C 0.68063 0.58160 -0.03236
 C1569 C 0.63124 0.54602 -0.01826
 C1570 C 0.61314 0.55981 -0.02224
 C1571 C 0.59183 0.55151 -0.02091
 C1572 C 0.58834 0.52935 -0.01563
 C1573 C 0.60621 0.51539 -0.01214
 C1574 C 0.62755 0.52365 -0.01347
 C1575 C 0.56642 0.52124 -0.01267
 C1576 C 0.54800 0.51476 -0.00965
 H1577 H 0.69995 0.55424 0.01665
 H1578 H 0.66399 0.53656 0.01348
 H1579 H 0.64915 0.57663 -0.04852
 H1580 H 0.68506 0.59453 -0.04484
 H1581 H 0.61543 0.57716 -0.02559
 H1582 H 0.57807 0.56247 -0.02348
 H1583 H 0.60364 0.49820 -0.00803
 H1584 H 0.64116 0.51261 -0.01057
 C1585 C 0.23103 1.09805 0.49362
 C1586 C 0.21474 1.08753 0.48944
 C1587 C 0.19472 1.07566 0.48552
 C1588 C 0.18897 1.05848 0.50097
 C1589 C 0.16844 1.04849 0.49898
 C1590 C 0.15337 1.05564 0.48153
 C1591 C 0.15957 1.07248 0.46560
 C1592 C 0.18013 1.08245 0.46762
 C1593 C 0.13084 1.04649 0.48103
 C1594 C 0.11273 1.06046 0.47798
 C1595 C 0.09142 1.05217 0.47935
 C1596 C 0.08794 1.02985 0.48372
 C1597 C 0.10582 1.01572 0.48626
 C1598 C 0.12716 1.02397 0.48490
 C1599 C 0.06605 1.02170 0.48678
 C1600 C 0.04765 1.01519 0.48989
 H1601 H 0.20008 1.05327 0.51503
 H1602 H 0.16403 1.03580 0.51173
 H1603 H 0.14840 1.07814 0.45182
 H1604 H 0.18441 1.09581 0.45564
 H1605 H 0.11503 1.07791 0.47536
 H1606 H 0.07766 1.06325 0.47751
 H1607 H 0.10326 0.99841 0.48968
 H1608 H 0.14078 1.01280 0.48707
 C1609 C 0.23067 -0.09697 1.00497
 C1610 C 0.21453 -0.08611 1.00852
 C1611 C 0.19462 -0.07399 1.01185
 C1612 C 0.18806 -0.05876 0.99449
 C1613 C 0.16759 -0.04872 0.99623
 C1614 C 0.15337 -0.05387 1.01536
 C1615 C 0.16039 -0.06872 1.03312
 C1616 C 0.18090 -0.07874 1.03133
 C1617 C 0.13088 -0.04477 1.01593
 C1618 C 0.11298 -0.05832 1.02191
 C1619 C 0.09161 -0.05025 1.02077
 C1620 C 0.08787 -0.02857 1.01370
 C1621 C 0.10556 -0.01483 1.00817
 C1622 C 0.12695 -0.02287 1.00929
 C1623 C 0.06584 -0.02077 1.01105
 C1624 C 0.04734 -0.01452 1.00831
 H1625 H 0.19850 -0.05516 0.97921
 H1626 H 0.16253 -0.03760 0.98211
 H1627 H 0.14990 -0.07280 1.04818
 H1628 H 0.18580 -0.09059 1.04481
 H1629 H 0.11545 -0.07534 1.02671
 H1630 H 0.07799 -0.06104 1.02493
 H1631 H 0.10279 0.00198 1.00266
 H1632 H 0.14042 -0.01201 1.00482
 C1633 C 0.73102 0.40233 0.50569
 C1634 C 0.71485 0.41302 0.50964
 C1635 C 0.69492 0.42502 0.51332
 C1636 C 0.68888 0.44138 0.49700
 C1637 C 0.66839 0.45138 0.49887
 C1638 C 0.65364 0.44505 0.51707
 C1639 C 0.66014 0.42905 0.53384
 C1640 C 0.68066 0.41907 0.53193
 C1641 C 0.63114 0.45416 0.51758
 C1642 C 0.61308 0.44032 0.52191
 C1643 C 0.59175 0.44848 0.52063
 C1644 C 0.58822 0.47056 0.51507
 C1645 C 0.60606 0.48458 0.51123
 C1646 C 0.62742 0.47644 0.51249
 C1647 C 0.56628 0.47853 0.51221
 C1648 C 0.54784 0.48492 0.50929
 H1649 H 0.69973 0.44592 0.48239
 H1650 H 0.66375 0.46341 0.48549
 H1651 H 0.64923 0.42404 0.54819
 H1652 H 0.68516 0.40634 0.54458
 H1653 H 0.61540 0.42302 0.52549
 H1654 H 0.57802 0.43749 0.52348
 H1655 H 0.60346 0.50170 0.50689
 H1656 H 0.64100 0.48753 0.50932
 C1657 C -0.23115 0.40235 0.49401
 C1658 C -0.21494 0.41305 0.49003
 C1659 C -0.19496 0.42507 0.48632
 C1660 C -0.18887 0.44145 0.50261
 C1661 C -0.16833 0.45146 0.50074
 C1662 C -0.15360 0.44514 0.48257
 C1663 C -0.16015 0.42912 0.46583
 C1664 C -0.18071 0.41913 0.46774
 C1665 C -0.13106 0.45425 0.48207
 C1666 C -0.11305 0.44041 0.47780
 C1667 C -0.09169 0.44857 0.47912
 C1668 C -0.08806 0.47065 0.48466
 C1669 C -0.10584 0.48467 0.48845
 C1670 C -0.12723 0.47653 0.48714
 C1671 C -0.06608 0.47862 0.48759
 C1672 C -0.04762 0.48500 0.49056
 H1673 H -0.19970 0.44599 0.51721
 H1674 H -0.16365 0.46350 0.51410
 H1675 H -0.14925 0.42411 0.45149
 H1676 H -0.18526 0.40638 0.45511
 H1677 H -0.11545 0.42311 0.47423
 H1678 H -0.07800 0.43758 0.47631
 H1679 H -0.10316 0.50179 0.49277
 H1680 H -0.14077 0.48762 0.49027
 C1681 C 0.26860 -0.09755 -0.00623
 C1682 C 0.28494 -0.08708 -0.01035
 C1683 C 0.30504 -0.07532 -0.01421
 C1684 C 0.31972 -0.08227 -0.03195
 C1685 C 0.34036 -0.07245 -0.03387
 C1686 C 0.34657 -0.05560 -0.01798
 C1687 C 0.33142 -0.04828 -0.00070
 C1688 C 0.31080 -0.05812 0.00119
 C1689 C 0.36916 -0.04661 -0.01837
 C1690 C 0.37298 -0.02411 -0.01464
 C1691 C 0.39437 -0.01600 -0.01323
 C1692 C 0.41216 -0.03026 -0.01556
 C1693 C 0.40855 -0.05258 -0.01976
 C1694 C 0.38719 -0.06073 -0.02118
 C1695 C 0.43411 -0.02223 -0.01255
 C1696 C 0.45254 -0.01579 -0.00950
 H1697 H 0.31544 -0.09566 -0.04388
 H1698 H 0.35159 -0.07825 -0.04752
 H1699 H 0.33582 -0.03556 0.01201
 H1700 H 0.29962 -0.05278 0.01514
 H1701 H 0.35942 -0.01283 -0.01264
 H1702 H 0.39703 0.00132 -0.00996
 H1703 H 0.42224 -0.06376 -0.02144
 H1704 H 0.38478 -0.07818 -0.02369
 C1705 C 0.26888 1.09741 0.50502
 C1706 C 0.28495 1.08649 0.50868
 C1707 C 0.30477 1.07427 0.51217
 C1708 C 0.31143 1.05912 0.49479
 C1709 C 0.33185 1.04898 0.49670
 C1710 C 0.34589 1.05395 0.51601
 C1711 C 0.33876 1.06872 0.53378
 C1712 C 0.31832 1.07885 0.53183
 C1713 C 0.36835 1.04478 0.51674
 C1714 C 0.38624 1.05824 0.52296
 C1715 C 0.40760 1.05014 0.52191
 C1716 C 0.41134 1.02851 0.51470
 C1717 C 0.39366 1.01484 0.50896
 C1718 C 0.37227 1.02291 0.50998
 C1719 C 0.43336 1.02071 0.51206
 C1720 C 0.45188 1.01449 0.50931
 H1721 H 0.30114 1.05565 0.47938
 H1722 H 0.33700 1.03793 0.48256
 H1723 H 0.34913 1.07267 0.54898
 H1724 H 0.31334 1.09064 0.54532
 H1725 H 0.38378 1.07524 0.52786
 H1726 H 0.42121 1.06088 0.52623
 H1727 H 0.39643 0.99807 0.50332
 H1728 H 0.35882 1.01212 0.50533
 C1729 C -0.23116 0.59830 1.00569
 C1730 C -0.21503 0.58756 1.00968
 C1731 C -0.19515 0.57548 1.01340
 C1732 C -0.18907 0.55921 0.99701
 C1733 C -0.16862 0.54913 0.99893
 C1734 C -0.15396 0.55529 1.01725
 C1735 C -0.16051 0.57119 1.03409
 C1736 C -0.18098 0.58125 1.03214
 C1737 C -0.13149 0.54613 1.01782
 C1738 C -0.11342 0.55990 1.02233
 C1739 C -0.09211 0.55169 1.02108
 C1740 C -0.08860 0.52965 1.01537
 C1741 C -0.10645 0.51570 1.01135
 C1742 C -0.12779 0.52387 1.01259
 C1743 C -0.06666 0.52166 1.01253
 C1744 C -0.04821 0.51529 1.00964
 H1745 H -0.19985 0.55479 0.98230
 H1746 H -0.16394 0.53718 0.98550
 H1747 H -0.14966 0.57608 1.04855
 H1748 H -0.18552 0.59391 1.04485
 H1749 H -0.11572 0.57717 1.02603
 H1750 H -0.07836 0.56264 1.02408
 H1751 H -0.10386 0.49860 1.00690
 H1752 H -0.14139 0.51284 1.00927
 C1753 C 0.00218 0.73034 0.61015
 C1754 C 0.00355 0.71398 0.59797
 C1755 C 0.00501 0.69421 0.58381
 C1756 C 0.02541 0.68655 0.57592
 C1757 C 0.02685 0.66692 0.56295
 C1758 C 0.00788 0.65464 0.55766
 C1759 C -0.01256 0.66264 0.56546
 C1760 C -0.01396 0.68224 0.57842
 C1761 C 0.00936 0.63323 0.54485
 C1762 C -0.00673 0.62701 0.52802
 C1763 C -0.00629 0.60619 0.51743
 C1764 C 0.01026 0.59130 0.52340
 C1765 C 0.02671 0.59755 0.53956
 C1766 C 0.02631 0.61837 0.55017
 C1767 C 0.00912 0.56899 0.51488
 C1768 C 0.00739 0.54999 0.50906
 H1769 H 0.04022 0.69566 0.57996
 H1770 H 0.04279 0.66137 0.55701
 H1771 H -0.02745 0.65345 0.56207
 H1772 H -0.02982 0.68792 0.58452
 H1773 H -0.01981 0.63815 0.52324
 H1774 H -0.01920 0.60152 0.50507
 H1775 H 0.03948 0.58609 0.54453
 H1776 H 0.03880 0.62249 0.56325
 C1777 C 0.50197 0.22983 0.11014
 C1778 C 0.50332 0.21345 0.09800
 C1779 C 0.50478 0.19366 0.08386
 C1780 C 0.48582 0.18160 0.07866
 C1781 C 0.48721 0.16199 0.06571
 C1782 C 0.50762 0.15407 0.05774
 C1783 C 0.52657 0.16644 0.06285
 C1784 C 0.52514 0.18608 0.07581
 C1785 C 0.50910 0.13266 0.04493
 C1786 C 0.52616 0.11787 0.05011
 C1787 C 0.52658 0.09706 0.03949
 C1788 C 0.51004 0.09073 0.02347
 C1789 C 0.49337 0.10555 0.01765
 C1790 C 0.49292 0.12636 0.02824
 C1791 C 0.50894 0.06842 0.01495
 C1792 C 0.50727 0.04941 0.00914
 H1793 H 0.46997 0.18722 0.08489
 H1794 H 0.47234 0.15273 0.06246
 H1795 H 0.54250 0.16095 0.05678
 H1796 H 0.53994 0.19526 0.07970
 H1797 H 0.53872 0.12205 0.06308
 H1798 H 0.53943 0.08566 0.04436
 H1799 H 0.48040 0.10081 0.00540
 H1800 H 0.47975 0.13744 0.02358
 C1801 C -0.00235 0.23096 0.88988
 C1802 C -0.00376 0.21458 0.90204
 C1803 C -0.00526 0.19476 0.91617
 C1804 C 0.01370 0.18289 0.92161
 C1805 C 0.01227 0.16323 0.93451
 C1806 C -0.00819 0.15509 0.94219
 C1807 C -0.02715 0.16727 0.93685
 C1808 C -0.02568 0.18695 0.92393
 C1809 C -0.00970 0.13362 0.95492
 C1810 C -0.02661 0.11867 0.94946
 C1811 C -0.02702 0.09781 0.95999
 C1812 C -0.01062 0.09159 0.97620
 C1813 C 0.00589 0.10656 0.98230
 C1814 C 0.00633 0.12742 0.97180
 C1815 C -0.00948 0.06925 0.98465
 C1816 C -0.00776 0.05024 0.99041
 H1817 H 0.02958 0.18867 0.91559
 H1818 H 0.02715 0.15412 0.93793
 H1819 H -0.04311 0.16161 0.94269
 H1820 H -0.04048 0.19599 0.91985
 H1821 H -0.03905 0.12277 0.93634
 H1822 H -0.03975 0.08629 0.95491
 H1823 H 0.01875 0.10191 0.99471
 H1824 H 0.01939 0.13862 0.97668
 C1825 C 0.49834 0.73041 0.38983
 C1826 C 0.49696 0.71403 0.40200
 C1827 C 0.49550 0.69423 0.41616
 C1828 C 0.47513 0.68650 0.42414
 C1829 C 0.47369 0.66684 0.43710
 C1830 C 0.49266 0.65461 0.44229
 C1831 C 0.51308 0.66267 0.43440
 C1832 C 0.51447 0.68231 0.42145
 C1833 C 0.49118 0.63317 0.45509
 C1834 C 0.50732 0.62697 0.47184
 C1835 C 0.50688 0.60614 0.48242
 C1836 C 0.49027 0.59121 0.47653
 C1837 C 0.47377 0.59744 0.46045
 C1838 C 0.47417 0.61827 0.44984
 C1839 C 0.49139 0.56889 0.48506
 C1840 C 0.49307 0.54989 0.49089
 H1841 H 0.46032 0.69558 0.42017
 H1842 H 0.45776 0.66124 0.44311
 H1843 H 0.52796 0.65352 0.43771
 H1844 H 0.53032 0.68803 0.41528
 H1845 H 0.52045 0.63814 0.47656
 H1846 H 0.51983 0.60148 0.49472
 H1847 H 0.46096 0.58595 0.45553
 H1848 H 0.46165 0.62237 0.43683
 C1849 C 0.50192 0.76973 0.38982
 C1850 C 0.50332 0.78609 0.40201
 C1851 C 0.50483 0.80586 0.41619
 C1852 C 0.52526 0.81371 0.42384
 C1853 C 0.52673 0.83333 0.43683
 C1854 C 0.50775 0.84542 0.44237
 C1855 C 0.48728 0.83724 0.43480
 C1856 C 0.48586 0.81764 0.42182
 C1857 C 0.50926 0.86683 0.45520
 C1858 C 0.49329 0.87287 0.47223
 C1859 C 0.49373 0.89368 0.48285
 C1860 C 0.51016 0.90874 0.47672
 C1861 C 0.52649 0.90267 0.46035
 C1862 C 0.52609 0.88186 0.44970
 C1863 C 0.50899 0.93103 0.48529
 C1864 C 0.50722 0.95000 0.49115
 H1865 H 0.54007 0.80474 0.41961
 H1866 H 0.54270 0.83902 0.44258
 H1867 H 0.47239 0.84628 0.43838
 H1868 H 0.46996 0.81183 0.41590
 H1869 H 0.48030 0.86160 0.47714
 H1870 H 0.48092 0.89821 0.49537
 H1871 H 0.53916 0.91425 0.45524
 H1872 H 0.53847 0.87788 0.43647
 C1873 C 0.00125 0.27028 0.88990
 C1874 C 0.00266 0.28663 0.90210
 C1875 C 0.00417 0.30639 0.91630
 C1876 C -0.01478 0.31825 0.92180
 C1877 C -0.01335 0.33784 0.93481
 C1878 C 0.00711 0.34592 0.94253
 C1879 C 0.02606 0.33375 0.93712
 C1880 C 0.02459 0.31414 0.92411
 C1881 C 0.00863 0.36732 0.95538
 C1882 C 0.02557 0.38228 0.95002
 C1883 C 0.02600 0.40307 0.96068
 C1884 C 0.00960 0.40921 0.97693
 C1885 C -0.00694 0.39423 0.98294
 C1886 C -0.00740 0.37343 0.97230
 C1887 C 0.00848 0.43150 0.98551
 C1888 C 0.00678 0.45049 0.99137
 H1889 H -0.03067 0.31251 0.91576
 H1890 H -0.02823 0.34694 0.93829
 H1891 H 0.04203 0.33937 0.94299
 H1892 H 0.03938 0.30511 0.91998
 H1893 H 0.03801 0.37825 0.93687
 H1894 H 0.03875 0.41460 0.95567
 H1895 H -0.01980 0.39881 0.99537
 H1896 H -0.02048 0.36222 0.97711
 C1897 C 0.49854 0.26915 0.11005
 C1898 C 0.49719 0.28550 0.09784
 C1899 C 0.49573 0.30527 0.08364
 C1900 C 0.51468 0.31734 0.07840
 C1901 C 0.51328 0.33695 0.06542
 C1902 C 0.49286 0.34484 0.05747
 C1903 C 0.47391 0.33247 0.06261
 C1904 C 0.47536 0.31283 0.07560
 C1905 C 0.49136 0.36626 0.04465
 C1906 C 0.47430 0.38104 0.04985
 C1907 C 0.47388 0.40187 0.03924
 C1908 C 0.49041 0.40822 0.02321
 C1909 C 0.50708 0.39341 0.01736
 C1910 C 0.50753 0.37258 0.02794
 C1911 C 0.49152 0.43055 0.01470
 C1912 C 0.49320 0.44956 0.00890
 H1913 H 0.53053 0.31174 0.08463
 H1914 H 0.52814 0.34621 0.06215
 H1915 H 0.45798 0.33794 0.05655
 H1916 H 0.46056 0.30365 0.07953
 H1917 H 0.46175 0.37684 0.06283
 H1918 H 0.46102 0.41326 0.04412
 H1919 H 0.52005 0.39817 0.00510
 H1920 H 0.52071 0.36151 0.02326
 C1921 C -0.00126 0.76965 0.61014
 C1922 C -0.00262 0.78602 0.59794
 C1923 C -0.00412 0.80579 0.58375
 C1924 C -0.02450 0.81326 0.57563
 C1925 C -0.02599 0.83288 0.56262
 C1926 C -0.00708 0.84533 0.55752
 C1927 C 0.01335 0.83752 0.56555
 C1928 C 0.01479 0.81792 0.57856
 C1929 C -0.00863 0.86672 0.54466
 C1930 C 0.00756 0.87308 0.52799
 C1931 C 0.00704 0.89388 0.51736
 C1932 C -0.00970 0.90863 0.52311
 C1933 C -0.02625 0.90224 0.53911
 C1934 C -0.02577 0.88144 0.54977
 C1935 C -0.00866 0.93095 0.51456
 C1936 C -0.00703 0.94996 0.50874
 H1937 H -0.03927 0.80402 0.57952
 H1938 H -0.04193 0.83829 0.55650
 H1939 H 0.02818 0.84684 0.56232
 H1940 H 0.03065 0.81239 0.58484
 H1941 H 0.02080 0.86206 0.52338
 H1942 H 0.02003 0.89867 0.50513
 H1943 H -0.03917 0.91359 0.54393
 H1944 H -0.03834 0.87721 0.56272
 C1945 C 0.24390 0.37488 0.02052
 C1946 C 0.23872 0.36387 0.03762
 C1947 C 0.23230 0.35141 0.05841
 C1948 C 0.24108 0.33057 0.06241
 C1949 C 0.23570 0.31901 0.08330
 C1950 C 0.22147 0.32818 0.10049
 C1951 C 0.21235 0.34895 0.09604
 C1952 C 0.21775 0.36047 0.07512
 C1953 C 0.21749 0.31674 0.12364
 C1954 C 0.21805 0.32849 0.14541
 C1955 C 0.21751 0.31741 0.16740
 C1956 C 0.21624 0.29451 0.16791
 C1957 C 0.21447 0.28277 0.14639
 C1958 C 0.21501 0.29381 0.12437
 C1959 C 0.22064 0.28302 0.18991
 C1960 C 0.22658 0.27347 0.20768
 H1961 H 0.25242 0.32345 0.04962
 H1962 H 0.24328 0.30322 0.08639
 H1963 H 0.20123 0.35634 0.10883
 H1964 H 0.21082 0.37660 0.07214
 H1965 H 0.22023 0.34612 0.14545
 H1966 H 0.21929 0.32663 0.18395
 H1967 H 0.21375 0.26501 0.14658
 H1968 H 0.21426 0.28436 0.10790
 C1969 C 0.74401 0.87462 0.52041
 C1970 C 0.73876 0.86363 0.53749
 C1971 C 0.73225 0.85120 0.55827
 C1972 C 0.74093 0.83032 0.56228
 C1973 C 0.73548 0.81879 0.58317
 C1974 C 0.72127 0.82804 0.60034
 C1975 C 0.71225 0.84884 0.59587
 C1976 C 0.71771 0.86033 0.57494
 C1977 C 0.71725 0.81665 0.62351
 C1978 C 0.71788 0.82842 0.64526
 C1979 C 0.71734 0.81736 0.66727
 C1980 C 0.71600 0.79447 0.66780
 C1981 C 0.71414 0.78271 0.64630
 C1982 C 0.71469 0.79372 0.62427
 C1983 C 0.72044 0.78298 0.68980
 C1984 C 0.72642 0.77343 0.70755
 H1985 H 0.75225 0.82315 0.54952
 H1986 H 0.74299 0.80298 0.58629
 H1987 H 0.70114 0.85630 0.60865
 H1988 H 0.71086 0.87649 0.57195
 H1989 H 0.72012 0.84604 0.64528
 H1990 H 0.71918 0.82659 0.68380
 H1991 H 0.71337 0.76495 0.64651
 H1992 H 0.71388 0.78426 0.60782
 C1993 C 0.25606 0.62528 0.52080
 C1994 C 0.26126 0.63598 0.53810
 C1995 C 0.26768 0.64816 0.55907
 C1996 C 0.25939 0.66921 0.56300
 C1997 C 0.26481 0.68056 0.58399
 C1998 C 0.27858 0.67097 0.60135
 C1999 C 0.28720 0.64998 0.59698
 C2000 C 0.28178 0.63866 0.57595
 C2001 C 0.28259 0.68225 0.62458
 C2002 C 0.28147 0.67047 0.64631
 C2003 C 0.28202 0.68148 0.66833
 C2004 C 0.28385 0.70435 0.66890
 C2005 C 0.28618 0.71609 0.64742
 C2006 C 0.28562 0.70512 0.62538
 C2007 C 0.27946 0.71589 0.69086
 C2008 C 0.27354 0.72549 0.70860
 H2009 H 0.24842 0.67667 0.55007
 H2010 H 0.25760 0.69653 0.58702
 H2011 H 0.29798 0.64226 0.60991
 H2012 H 0.28833 0.62238 0.57302
 H2013 H 0.27886 0.65290 0.64630
 H2014 H 0.27982 0.67228 0.68484
 H2015 H 0.28732 0.73383 0.64766
 H2016 H 0.28681 0.71458 0.60895
 C2017 C 0.75565 0.12581 0.02076
 C2018 C 0.76095 0.13652 0.03802
 C2019 C 0.76751 0.14871 0.05893
 C2020 C 0.75934 0.16981 0.06284
 C2021 C 0.76488 0.18119 0.08378
 C2022 C 0.77866 0.17156 0.10111
 C2023 C 0.78717 0.15052 0.09675
 C2024 C 0.78162 0.13919 0.07578
 C2025 C 0.78278 0.18286 0.12429
 C2026 C 0.78165 0.17112 0.14606
 C2027 C 0.78226 0.18217 0.16805
 C2028 C 0.78417 0.20503 0.16856
 C2029 C 0.78653 0.21673 0.14706
 C2030 C 0.78591 0.20572 0.12504
 C2031 C 0.77976 0.21663 0.19049
 C2032 C 0.77381 0.22627 0.20818
 H2033 H 0.74836 0.17730 0.04993
 H2034 H 0.75776 0.19720 0.08679
 H2035 H 0.79795 0.14278 0.10966
 H2036 H 0.78807 0.12286 0.07286
 H2037 H 0.77897 0.15356 0.14608
 H2038 H 0.78003 0.17301 0.18458
 H2039 H 0.78773 0.23446 0.14725
 H2040 H 0.78712 0.21514 0.10858
 C2041 C 0.74411 0.12572 0.97945
 C2042 C 0.73884 0.13637 0.96214
 C2043 C 0.73232 0.14851 0.94118
 C2044 C 0.74043 0.16968 0.93728
 C2045 C 0.73489 0.18102 0.91632
 C2046 C 0.72117 0.17130 0.89897
 C2047 C 0.71273 0.15019 0.90331
 C2048 C 0.71828 0.13888 0.92430
 C2049 C 0.71704 0.18260 0.87578
 C2050 C 0.71822 0.17090 0.85401
 C2051 C 0.71758 0.18198 0.83202
 C2052 C 0.71559 0.20482 0.83152
 C2053 C 0.71318 0.21647 0.85303
 C2054 C 0.71382 0.20543 0.87504
 C2055 C 0.71996 0.21648 0.80960
 C2056 C 0.72588 0.22621 0.79192
 H2057 H 0.75136 0.17725 0.95021
 H2058 H 0.74196 0.19710 0.91332
 H2059 H 0.70200 0.14236 0.89038
 H2060 H 0.71186 0.12251 0.92721
 H2061 H 0.72097 0.15337 0.85398
 H2062 H 0.71985 0.17286 0.81549
 H2063 H 0.71190 0.23419 0.85284
 H2064 H 0.71257 0.21482 0.89150
 C2065 C 0.24470 0.62522 0.47942
 C2066 C 0.23947 0.63588 0.46210
 C2067 C 0.23300 0.64801 0.44112
 C2068 C 0.24108 0.66920 0.43726
 C2069 C 0.23557 0.68054 0.41629
 C2070 C 0.22193 0.67080 0.39888
 C2071 C 0.21353 0.64966 0.40318
 C2072 C 0.21904 0.63835 0.42418
 C2073 C 0.21782 0.68210 0.37569
 C2074 C 0.21908 0.67043 0.35392
 C2075 C 0.21843 0.68152 0.33194
 C2076 C 0.21637 0.70436 0.33145
 C2077 C 0.21389 0.71598 0.35296
 C2078 C 0.21454 0.70492 0.37497
 C2079 C 0.22071 0.71605 0.30954
 C2080 C 0.22661 0.72581 0.29187
 H2081 H 0.25194 0.67678 0.45024
 H2082 H 0.24261 0.69663 0.41333
 H2083 H 0.20285 0.64182 0.39021
 H2084 H 0.21265 0.62196 0.42706
 H2085 H 0.22187 0.65290 0.35387
 H2086 H 0.22076 0.67242 0.31540
 H2087 H 0.21256 0.73369 0.35279
 H2088 H 0.21323 0.71430 0.39143
 C2089 C 0.75509 0.87564 0.47891
 C2090 C 0.75993 0.86552 0.46108
 C2091 C 0.76581 0.85414 0.43941
 C2092 C 0.75671 0.86069 0.41749
 C2093 C 0.76231 0.84978 0.39631
 C2094 C 0.77714 0.83215 0.39676
 C2095 C 0.78640 0.82582 0.41886
 C2096 C 0.78078 0.83679 0.44006
 C2097 C 0.78174 0.81968 0.37442
 C2098 C 0.78211 0.79662 0.37481
 C2099 C 0.78305 0.78476 0.35335
 C2100 C 0.78379 0.79578 0.33128
 C2101 C 0.78471 0.81870 0.33077
 C2102 C 0.78378 0.83060 0.35222
 C2103 C 0.77959 0.78386 0.30951
 C2104 C 0.77375 0.77400 0.29191
 H2105 H 0.74514 0.87412 0.41680
 H2106 H 0.75457 0.85478 0.37968
 H2107 H 0.79797 0.81241 0.41974
 H2108 H 0.78803 0.83171 0.45694
 H2109 H 0.78030 0.78774 0.39156
 H2110 H 0.78195 0.76703 0.35391
 H2111 H 0.78500 0.82739 0.31377
 H2112 H 0.78385 0.84834 0.35139
 C2113 C 0.25479 0.37589 0.97896
 C2114 C 0.25954 0.36577 0.96111
 C2115 C 0.26533 0.35438 0.93941
 C2116 C 0.28036 0.33708 0.93998
 C2117 C 0.28590 0.32611 0.91875
 C2118 C 0.27651 0.33240 0.89670
 C2119 C 0.26161 0.34998 0.89634
 C2120 C 0.25609 0.36088 0.91755
 C2121 C 0.28103 0.31994 0.87434
 C2122 C 0.28294 0.33086 0.85213
 C2123 C 0.28383 0.31896 0.83068
 C2124 C 0.28302 0.29603 0.83121
 C2125 C 0.28241 0.28502 0.85328
 C2126 C 0.28150 0.29688 0.87474
 C2127 C 0.27881 0.28408 0.80946
 C2128 C 0.27298 0.27419 0.79187
 H2129 H 0.28772 0.33203 0.95682
 H2130 H 0.29752 0.31274 0.91956
 H2131 H 0.25377 0.35494 0.87975
 H2132 H 0.24447 0.37428 0.91692
 H2133 H 0.28293 0.34860 0.85129
 H2134 H 0.28402 0.32764 0.81368
 H2135 H 0.28139 0.26728 0.85385
 H2136 H 0.27981 0.28800 0.89150
 C2137 C 0.84814 0.48119 0.75605
 C2138 C 0.83738 0.46502 0.76007
 C2139 C 0.82528 0.44509 0.76381
 C2140 C 0.80879 0.43911 0.74761
 C2141 C 0.79867 0.41862 0.74950
 C2142 C 0.80499 0.40381 0.76762
 C2143 C 0.82111 0.41025 0.78427
 C2144 C 0.83122 0.43076 0.78234
 C2145 C 0.79575 0.38131 0.76813
 C2146 C 0.80949 0.36320 0.77229
 C2147 C 0.80120 0.34187 0.77097
 C2148 C 0.77910 0.33837 0.76555
 C2149 C 0.76518 0.35626 0.76188
 C2150 C 0.77344 0.37762 0.76318
 C2151 C 0.77101 0.31643 0.76261
 C2152 C 0.76455 0.29798 0.75963
 H2153 H 0.80425 0.45001 0.73305
 H2154 H 0.78654 0.41403 0.73621
 H2155 H 0.82612 0.39929 0.79857
 H2156 H 0.84404 0.43521 0.79490
 H2157 H 0.82681 0.36549 0.77576
 H2158 H 0.81213 0.32810 0.77369
 H2159 H 0.74804 0.35368 0.75765
 H2160 H 0.76243 0.39124 0.76014
 C2161 C 0.34810 0.98119 0.25598
 C2162 C 0.33738 0.96500 0.26003
 C2163 C 0.32533 0.94505 0.26381
 C2164 C 0.33131 0.93077 0.28237
 C2165 C 0.32128 0.91022 0.28434
 C2166 C 0.30519 0.90370 0.26768
 C2167 C 0.29882 0.91846 0.24954
 C2168 C 0.30887 0.93898 0.24761
 C2169 C 0.29605 0.88116 0.26823
 C2170 C 0.27375 0.87737 0.26328
 C2171 C 0.26558 0.85598 0.26200
 C2172 C 0.27957 0.83816 0.26570
 C2173 C 0.30166 0.84175 0.27113
 C2174 C 0.30986 0.86311 0.27242
 C2175 C 0.27157 0.81618 0.26277
 C2176 C 0.26516 0.79772 0.25977
 H2177 H 0.34411 0.93529 0.29493
 H2178 H 0.32633 0.89930 0.29865
 H2179 H 0.28672 0.91380 0.23624
 H2180 H 0.30430 0.94984 0.23303
 H2181 H 0.26269 0.89094 0.26021
 H2182 H 0.24845 0.85333 0.25776
 H2183 H 0.31264 0.82803 0.27386
 H2184 H 0.32716 0.86548 0.27589
 C2185 C 0.15285 0.98045 0.74470
 C2186 C 0.16369 0.96430 0.74114
 C2187 C 0.17581 0.94439 0.73779
 C2188 C 0.19109 0.93786 0.75509
 C2189 C 0.20113 0.91737 0.75335
 C2190 C 0.19593 0.90312 0.73429
 C2191 C 0.18102 0.91011 0.71659
 C2192 C 0.17100 0.93062 0.71837
 C2193 C 0.20502 0.88060 0.73374
 C2194 C 0.19147 0.86268 0.72789
 C2195 C 0.19954 0.84129 0.72907
 C2196 C 0.22123 0.83757 0.73604
 C2197 C 0.23497 0.85529 0.74143
 C2198 C 0.22694 0.87670 0.74028
 C2199 C 0.22902 0.81553 0.73875
 C2200 C 0.23528 0.79702 0.74154
 H2201 H 0.19474 0.94832 0.77032
 H2202 H 0.21229 0.91234 0.76743
 H2203 H 0.17690 0.89958 0.70158
 H2204 H 0.15911 0.93550 0.70495
 H2205 H 0.17445 0.86513 0.72317
 H2206 H 0.18875 0.82765 0.72501
 H2207 H 0.25179 0.85253 0.74688
 H2208 H 0.23780 0.89018 0.74464
 C2209 C 0.65217 0.48088 0.24416
 C2210 C 0.66288 0.46472 0.24019
 C2211 C 0.67492 0.44481 0.23648
 C2212 C 0.69132 0.43882 0.25275
 C2213 C 0.70137 0.41834 0.25087
 C2214 C 0.69507 0.40357 0.23271
 C2215 C 0.67903 0.41002 0.21599
 C2216 C 0.66900 0.43052 0.21790
 C2217 C 0.70423 0.38108 0.23220
 C2218 C 0.69044 0.36296 0.22795
 C2219 C 0.69865 0.34164 0.22925
 C2220 C 0.72073 0.33816 0.23475
 C2221 C 0.73469 0.35606 0.23852
 C2222 C 0.72651 0.37741 0.23723
 C2223 C 0.72875 0.31622 0.23765
 C2224 C 0.73516 0.29779 0.24060
 H2225 H 0.69585 0.44969 0.26734
 H2226 H 0.71343 0.41374 0.26422
 H2227 H 0.67404 0.39909 0.20166
 H2228 H 0.65624 0.43499 0.20529
 H2229 H 0.67315 0.36523 0.22441
 H2230 H 0.68770 0.32786 0.22645
 H2231 H 0.75182 0.35350 0.24281
 H2232 H 0.73756 0.39104 0.24035
 C2233 C 0.65215 0.51869 0.25594
 C2234 C 0.66285 0.53490 0.25998
 C2235 C 0.67488 0.55486 0.26376
 C2236 C 0.69140 0.56091 0.24761
 C2237 C 0.70145 0.58143 0.24954
 C2238 C 0.69502 0.59620 0.26763
 C2239 C 0.67886 0.58969 0.28424
 C2240 C 0.66883 0.56915 0.28227
 C2241 C 0.70418 0.61874 0.26817
 C2242 C 0.69036 0.63679 0.27228
 C2243 C 0.69858 0.65815 0.27099
 C2244 C 0.72069 0.66172 0.26564
 C2245 C 0.73469 0.64389 0.26202
 C2246 C 0.72650 0.62250 0.26330
 C2247 C 0.72873 0.68370 0.26272
 C2248 C 0.73515 0.70216 0.25973
 H2249 H 0.69603 0.55004 0.23307
 H2250 H 0.71361 0.58608 0.23628
 H2251 H 0.67376 0.60062 0.29851
 H2252 H 0.65597 0.56464 0.29479
 H2253 H 0.67304 0.63444 0.27569
 H2254 H 0.68760 0.67188 0.27366
 H2255 H 0.75184 0.64653 0.25785
 H2256 H 0.73756 0.60892 0.26030
 C2257 C 0.15231 0.01839 0.75597
 C2258 C 0.16280 0.03469 0.76015
 C2259 C 0.17462 0.05476 0.76407
 C2260 C 0.19163 0.06067 0.74849
 C2261 C 0.20153 0.08126 0.75049
 C2262 C 0.19445 0.09623 0.76808
 C2263 C 0.17779 0.08987 0.78414
 C2264 C 0.16791 0.06925 0.78211
 C2265 C 0.20349 0.11882 0.76862
 C2266 C 0.18947 0.13686 0.77189
 C2267 C 0.19763 0.15824 0.77057
 C2268 C 0.21989 0.16184 0.76603
 C2269 C 0.23407 0.14403 0.76326
 C2270 C 0.22594 0.12263 0.76457
 C2271 C 0.22792 0.18381 0.76305
 C2272 C 0.23435 0.20226 0.76000
 H2273 H 0.19678 0.04963 0.73432
 H2274 H 0.21409 0.08579 0.73765
 H2275 H 0.17218 0.10096 0.79803
 H2276 H 0.15468 0.06485 0.79418
 H2277 H 0.17206 0.13447 0.77466
 H2278 H 0.18652 0.17195 0.77259
 H2279 H 0.25133 0.14670 0.75971
 H2280 H 0.23715 0.10906 0.76222
 C2281 C 0.34818 0.01901 0.24418
 C2282 C 0.33751 0.03520 0.24021
 C2283 C 0.32550 0.05514 0.23654
 C2284 C 0.30900 0.06105 0.25273
 C2285 C 0.29898 0.08154 0.25090
 C2286 C 0.30541 0.09642 0.23287
 C2287 C 0.32156 0.09006 0.21623
 C2288 C 0.33156 0.06954 0.21809
 C2289 C 0.29626 0.11892 0.23242
 C2290 C 0.31009 0.13706 0.22835
 C2291 C 0.30186 0.15837 0.22966
 C2292 C 0.27974 0.16182 0.23500
 C2293 C 0.26575 0.14391 0.23860
 C2294 C 0.27395 0.12257 0.23730
 C2295 C 0.27168 0.18375 0.23785
 C2296 C 0.26524 0.20219 0.24071
 H2297 H 0.30437 0.05009 0.26722
 H2298 H 0.28683 0.08608 0.26419
 H2299 H 0.32666 0.10107 0.20200
 H2300 H 0.34440 0.06514 0.20554
 H2301 H 0.32740 0.13480 0.22494
 H2302 H 0.31283 0.17216 0.22700
 H2303 H 0.24860 0.14645 0.24276
 H2304 H 0.26288 0.10892 0.24027
 C2305 C 0.84822 0.51900 0.74424
 C2306 C 0.83754 0.53518 0.74023
 C2307 C 0.82553 0.55510 0.73649
 C2308 C 0.80903 0.56106 0.75267
 C2309 C 0.79899 0.58154 0.75076
 C2310 C 0.80541 0.59636 0.73267
 C2311 C 0.82154 0.58995 0.71603
 C2312 C 0.83156 0.56944 0.71797
 C2313 C 0.79624 0.61885 0.73213
 C2314 C 0.81005 0.63698 0.72799
 C2315 C 0.80182 0.65829 0.72925
 C2316 C 0.77970 0.66175 0.73460
 C2317 C 0.76572 0.64384 0.73827
 C2318 C 0.77393 0.62250 0.73702
 C2319 C 0.77165 0.68368 0.73743
 C2320 C 0.76520 0.70211 0.74031
 H2321 H 0.80441 0.55015 0.76721
 H2322 H 0.78686 0.58611 0.76404
 H2323 H 0.82662 0.60092 0.70175
 H2324 H 0.84439 0.56501 0.70543
 H2325 H 0.82737 0.63472 0.72456
 H2326 H 0.81278 0.67208 0.72653
 H2327 H 0.74858 0.64638 0.74245
 H2328 H 0.76287 0.60886 0.74005
 C2329 C 0.98059 0.75226 0.14041
 C2330 C 0.96424 0.75361 0.15260
 C2331 C 0.94447 0.75504 0.16677
 C2332 C 0.93679 0.77543 0.17467
 C2333 C 0.91715 0.77683 0.18763
 C2334 C 0.90488 0.75782 0.19288
 C2335 C 0.91290 0.73739 0.18507
 C2336 C 0.93252 0.73603 0.17212
 C2337 C 0.88346 0.75927 0.20565
 C2338 C 0.87721 0.74312 0.22245
 C2339 C 0.85638 0.74352 0.23299
 C2340 C 0.84150 0.76008 0.22701
 C2341 C 0.84778 0.77659 0.21089
 C2342 C 0.86860 0.77623 0.20032
 C2343 C 0.81919 0.75890 0.23549
 C2344 C 0.80019 0.75716 0.24126
 H2345 H 0.94588 0.79026 0.17066
 H2346 H 0.91158 0.79277 0.19358
 H2347 H 0.90373 0.72248 0.18842
 H2348 H 0.93821 0.72017 0.16601
 H2349 H 0.88834 0.73003 0.22723
 H2350 H 0.85169 0.73057 0.24532
 H2351 H 0.83633 0.78936 0.20591
 H2352 H 0.87274 0.78875 0.18727
 C2353 C 0.47986 0.25166 0.64048
 C2354 C 0.46351 0.25304 0.65266
 C2355 C 0.44374 0.25452 0.66683
 C2356 C 0.43614 0.27492 0.67478
 C2357 C 0.41651 0.27638 0.68775
 C2358 C 0.40417 0.25742 0.69295
 C2359 C 0.41210 0.23697 0.68508
 C2360 C 0.43171 0.23556 0.67212
 C2361 C 0.38276 0.25892 0.70574
 C2362 C 0.37645 0.24277 0.72249
 C2363 C 0.35563 0.24323 0.73305
 C2364 C 0.34082 0.25987 0.72713
 C2365 C 0.34716 0.27639 0.71105
 C2366 C 0.36797 0.27596 0.70046
 C2367 C 0.31850 0.25876 0.73561
 C2368 C 0.29949 0.25708 0.74137
 H2369 H 0.44531 0.28973 0.67081
 H2370 H 0.41102 0.29234 0.69374
 H2371 H 0.40286 0.22209 0.68839
 H2372 H 0.43733 0.21968 0.66596
 H2373 H 0.38752 0.22961 0.72723
 H2374 H 0.35088 0.23027 0.74535
 H2375 H 0.33576 0.28922 0.70610
 H2376 H 0.37216 0.28850 0.68744
 C2377 C 0.48059 0.74753 0.85949
 C2378 C 0.46427 0.74601 0.84728
 C2379 C 0.44451 0.74444 0.83313
 C2380 C 0.43660 0.72395 0.82569
 C2381 C 0.41693 0.72243 0.81281
 C2382 C 0.40487 0.74141 0.80717
 C2383 C 0.41312 0.76194 0.81450
 C2384 C 0.43276 0.76341 0.82737
 C2385 C 0.38339 0.73986 0.79452
 C2386 C 0.37726 0.75573 0.77741
 C2387 C 0.35639 0.75529 0.76700
 C2388 C 0.34134 0.73894 0.77343
 C2389 C 0.34749 0.72268 0.78987
 C2390 C 0.36837 0.72309 0.80031
 C2391 C 0.31900 0.74012 0.76507
 C2392 C 0.30000 0.74187 0.75938
 H2393 H 0.44553 0.70914 0.83003
 H2394 H 0.41118 0.70641 0.80724
 H2395 H 0.40410 0.77684 0.81084
 H2396 H 0.43863 0.77935 0.83313
 H2397 H 0.38852 0.76867 0.77229
 H2398 H 0.35179 0.76804 0.75442
 H2399 H 0.33592 0.71008 0.79520
 H2400 H 0.37241 0.71079 0.81361
 C2401 C 0.98054 0.24836 0.35966
 C2402 C 0.96418 0.24699 0.34749
 C2403 C 0.94440 0.24553 0.33335
 C2404 C 0.93670 0.22513 0.32538
 C2405 C 0.91706 0.22369 0.31244
 C2406 C 0.90481 0.24266 0.30729
 C2407 C 0.91284 0.26310 0.31517
 C2408 C 0.93246 0.26450 0.32810
 C2409 C 0.88338 0.24117 0.29452
 C2410 C 0.87715 0.25734 0.27779
 C2411 C 0.85632 0.25689 0.26726
 C2412 C 0.84144 0.24024 0.27318
 C2413 C 0.84769 0.22371 0.28924
 C2414 C 0.86851 0.22413 0.29980
 C2415 C 0.81913 0.24134 0.26471
 C2416 C 0.80014 0.24302 0.25893
 H2417 H 0.94579 0.21032 0.32932
 H2418 H 0.91148 0.20774 0.30644
 H2419 H 0.90368 0.27799 0.31189
 H2420 H 0.93816 0.28037 0.33427
 H2421 H 0.88829 0.27050 0.27306
 H2422 H 0.85164 0.26985 0.25498
 H2423 H 0.83624 0.21087 0.29418
 H2424 H 0.87264 0.21158 0.31280
 C2425 C 0.01984 0.25188 0.35964
 C2426 C 0.03619 0.25324 0.34745
 C2427 C 0.05597 0.25467 0.33327
 C2428 C 0.06793 0.23569 0.32811
 C2429 C 0.08753 0.23705 0.31513
 C2430 C 0.09553 0.25747 0.30709
 C2431 C 0.08326 0.27645 0.31215
 C2432 C 0.06363 0.27504 0.32514
 C2433 C 0.11693 0.25893 0.29426
 C2434 C 0.13179 0.27601 0.29938
 C2435 C 0.15260 0.27640 0.28877
 C2436 C 0.15886 0.25980 0.27282
 C2437 C 0.14398 0.24311 0.26705
 C2438 C 0.12317 0.24269 0.27763
 C2439 C 0.18117 0.25867 0.26433
 C2440 C 0.20016 0.25698 0.25855
 H2441 H 0.06225 0.21984 0.33440
 H2442 H 0.09671 0.22217 0.31192
 H2443 H 0.08881 0.29237 0.30602
 H2444 H 0.05453 0.28985 0.32900
 H2445 H 0.12766 0.28862 0.31230
 H2446 H 0.16404 0.28928 0.29360
 H2447 H 0.14866 0.23009 0.25485
 H2448 H 0.11204 0.22949 0.27301
 C2449 C 0.51985 0.75139 0.85967
 C2450 C 0.53624 0.75281 0.84754
 C2451 C 0.55603 0.75428 0.83339
 C2452 C 0.56366 0.77466 0.82526
 C2453 C 0.58328 0.77610 0.81227
 C2454 C 0.59558 0.75715 0.80721
 C2455 C 0.58763 0.73672 0.81527
 C2456 C 0.56803 0.73532 0.82825
 C2457 C 0.61698 0.75864 0.79436
 C2458 C 0.62321 0.74241 0.77772
 C2459 C 0.64401 0.74286 0.76710
 C2460 C 0.65886 0.75958 0.77283
 C2461 C 0.65260 0.77618 0.78880
 C2462 C 0.63181 0.77575 0.79945
 C2463 C 0.68116 0.75849 0.76429
 C2464 C 0.70014 0.75683 0.75846
 H2465 H 0.55452 0.78946 0.82911
 H2466 H 0.58880 0.79204 0.80614
 H2467 H 0.59684 0.72185 0.81206
 H2468 H 0.56238 0.71947 0.83454
 H2469 H 0.61210 0.72919 0.77312
 H2470 H 0.64869 0.72985 0.75489
 H2471 H 0.66403 0.78907 0.79360
 H2472 H 0.62767 0.78835 0.81237
 C2473 C 0.51914 0.24816 0.64045
 C2474 C 0.53550 0.24679 0.65262
 C2475 C 0.55528 0.24534 0.66676
 C2476 C 0.56726 0.26432 0.67207
 C2477 C 0.58687 0.26294 0.68500
 C2478 C 0.59486 0.24249 0.69283
 C2479 C 0.58256 0.22351 0.68761
 C2480 C 0.56293 0.22494 0.67467
 C2481 C 0.61627 0.24101 0.70560
 C2482 C 0.63110 0.22403 0.70029
 C2483 C 0.65192 0.22363 0.71085
 C2484 C 0.65821 0.24013 0.72696
 C2485 C 0.64336 0.25672 0.73291
 C2486 C 0.62254 0.25715 0.72238
 C2487 C 0.68052 0.24127 0.73543
 C2488 C 0.69952 0.24300 0.74121
 H2489 H 0.56159 0.28020 0.66594
 H2490 H 0.59606 0.27783 0.68833
 H2491 H 0.58811 0.20755 0.69358
 H2492 H 0.55381 0.21011 0.67069
 H2493 H 0.62695 0.21151 0.68725
 H2494 H 0.66335 0.21084 0.70588
 H2495 H 0.64806 0.26965 0.74523
 H2496 H 0.61142 0.27026 0.72714
 C2497 C 0.01987 0.74875 0.14033
 C2498 C 0.03623 0.74734 0.15248
 C2499 C 0.05600 0.74579 0.16662
 C2500 C 0.06805 0.76472 0.17199
 C2501 C 0.08764 0.76323 0.18494
 C2502 C 0.09555 0.74274 0.19273
 C2503 C 0.08319 0.72381 0.18745
 C2504 C 0.06357 0.72534 0.17450
 C2505 C 0.11695 0.74115 0.20552
 C2506 C 0.13172 0.72412 0.20020
 C2507 C 0.15252 0.72362 0.21080
 C2508 C 0.15885 0.74005 0.22696
 C2509 C 0.14405 0.75669 0.23293
 C2510 C 0.12325 0.75722 0.22235
 C2511 C 0.18116 0.74110 0.23546
 C2512 C 0.20015 0.74277 0.24125
 H2513 H 0.06244 0.78062 0.16590
 H2514 H 0.09689 0.77809 0.18831
 H2515 H 0.08867 0.70782 0.19338
 H2516 H 0.05440 0.71056 0.17047
 H2517 H 0.12754 0.71165 0.18712
 H2518 H 0.16390 0.71079 0.20582
 H2519 H 0.14879 0.76958 0.24529
 H2520 H 0.11218 0.77037 0.22713
   
