data_POSCAR
  _audit_creation_date              2014-09-24
  _audit_creation_method            'ToBaCCo'
  _symmetry_space_group_name_H-M    'P1'
  _symmetry_Int_Tables_number       1
  _symmetry_cell_setting            triclinic
  loop_
  _symmetry_equiv_pos_as_xyz
 x,y,z
_cell_length_a 53.6799
_cell_length_b 37.6155
_cell_length_c 37.3681
_cell_angle_alpha 89.307100
_cell_angle_beta 89.034500
_cell_angle_gamma 90.590200
loop_
  _atom_site_label
  _atom_site_type_symbol
  _atom_site_fract_x
  _atom_site_fract_y
  _atom_site_fract_z
C1 C 1.21404 0.25392 0.31096
 H2 H 1.21288 0.22520 0.31065
 C3 C 1.19728 0.27295 0.33200
 H4 H 1.18357 0.25864 0.34835
 C5 C 1.23253 0.30741 0.28873
 H6 H 1.24599 0.32077 0.27128
 C7 C 1.21611 0.32755 0.30950
 H8 H 1.21697 0.35629 0.30763
 N9 N 1.23071 0.27127 0.28899
 C10 C 1.23542 0.20112 0.19574
 H11 H 1.25516 0.19803 0.19112
 C12 C 1.21860 0.18403 0.17315
 H13 H 1.22572 0.16787 0.15158
 C14 C 1.20215 0.22733 0.22779
 H15 H 1.19548 0.24480 0.24836
 C16 C 1.18480 0.21059 0.20623
 H17 H 1.16519 0.21463 0.21177
 Zn18 Zn 1.24948 0.24394 0.25561
 N19 N 1.22699 0.22174 0.22304
 C20 C 1.28466 0.18934 0.26049
 N21 N 1.26863 0.20907 0.28030
 C22 C 1.26835 0.20661 0.31664
 C23 C 1.28501 0.18442 0.33433
 C24 C 1.30212 0.16769 0.27696
 C25 C 1.26399 0.29610 0.20319
 C26 C 1.28096 0.31808 0.18423
 C27 C 1.31399 0.29426 0.22012
 C28 C 1.29644 0.27344 0.23874
 N29 N 1.27202 0.27424 0.22979
 H30 H 1.28497 0.19192 0.23173
 H31 H 1.25610 0.22311 0.33228
 H32 H 1.28484 0.18525 0.36324
 H33 H 1.31421 0.15240 0.25972
 H34 H 1.24441 0.29650 0.19678
 H35 H 1.27416 0.33573 0.16357
 H36 H 1.33339 0.29194 0.22714
 H37 H 1.30248 0.25662 0.26047
 C38 C 1.19284 0.18840 0.17850
 C39 C 1.19767 0.31026 0.33058
 C40 C 1.30643 0.31724 0.19254
 C41 C 1.30318 0.16532 0.31472
 C42 C 0.71474 -0.24475 0.31201
 H43 H 0.71436 -0.27350 0.31343
 C44 C 0.69815 -0.22542 0.33298
 H45 H 0.68522 -0.23945 0.35082
 C46 C 0.73150 -0.19169 0.28613
 H47 H 0.74429 -0.17864 0.26750
 C48 C 0.71522 -0.17122 0.30681
 H49 H 0.71546 -0.14257 0.30362
 N50 N 0.73030 -0.22784 0.28809
 C51 C 0.73418 -0.29700 0.19460
 H52 H 0.75393 -0.29770 0.18860
 C53 C 0.71746 -0.31389 0.17176
 H54 H 0.72458 -0.32776 0.14859
 C55 C 0.70078 -0.27633 0.23054
 H56 H 0.69400 -0.26126 0.25290
 C57 C 0.68353 -0.29287 0.20868
 H58 H 0.66391 -0.29095 0.21549
 Zn59 Zn 0.74845 -0.25664 0.25540
 N60 N 0.72566 -0.27917 0.22380
 C61 C 0.77886 -0.31712 0.26342
 N62 N 0.76681 -0.29105 0.28154
 C63 C 0.77021 -0.28661 0.31725
 C64 C 0.78673 -0.30819 0.33584
 C65 C 0.79581 -0.33893 0.28086
 C66 C 0.76327 -0.20417 0.20369
 C67 C 0.78036 -0.18269 0.18441
 C68 C 0.81375 -0.21214 0.21508
 C69 C 0.79611 -0.23255 0.23403
 N70 N 0.77139 -0.22825 0.22821
 H71 H 0.77635 -0.31989 0.23503
 H72 H 0.76118 -0.26513 0.33109
 H73 H 0.79002 -0.30333 0.36388
 H74 H 0.80595 -0.35867 0.26578
 H75 H 0.74349 -0.20132 0.19950
 H76 H 0.77351 -0.16305 0.16571
 H77 H 0.83330 -0.21670 0.21987
 H78 H 0.80232 -0.25165 0.25364
 C79 C 0.69171 -0.31204 0.17881
 C80 C 0.69766 -0.18825 0.32956
 C81 C 0.80604 -0.18639 0.19019
 C82 C 0.80023 -0.33408 0.31735
 C83 C 0.71453 0.25604 -0.18905
 H84 H 0.71409 0.22731 -0.18737
 C85 C 0.69786 0.27563 -0.16843
 H86 H 0.68484 0.26181 -0.15056
 C87 C 0.73133 0.30881 -0.21551
 H88 H 0.74408 0.32158 -0.23441
 C89 C 0.71498 0.32953 -0.19519
 H90 H 0.71515 0.35813 -0.19882
 N91 N 0.73027 0.27268 -0.21291
 C92 C 0.73486 0.20243 -0.30574
 H93 H 0.75462 0.20115 -0.31140
 C94 C 0.71812 0.18536 -0.32845
 H95 H 0.72524 0.17079 -0.35117
 C96 C 0.70143 0.22466 -0.27088
 H97 H 0.69463 0.24044 -0.24906
 C98 C 0.68418 0.20792 -0.29256
 H99 H 0.66454 0.21036 -0.28605
 Zn100 Zn 0.74884 0.24375 -0.24503
 N101 N 0.72632 0.22111 -0.27708
 C102 C 0.78032 0.18461 -0.23677
 N103 N 0.76712 0.20941 -0.21848
 C104 C 0.76953 0.21290 -0.18245
 C105 C 0.78620 0.19167 -0.16369
 C106 C 0.79742 0.16319 -0.21914
 C107 C 0.76497 0.29404 -0.29853
 C108 C 0.78259 0.31487 -0.31759
 C109 C 0.81465 0.28994 -0.28076
 C110 C 0.79645 0.27002 -0.26243
 N111 N 0.77216 0.27222 -0.27150
 H112 H 0.77870 0.18273 -0.26540
 H113 H 0.75967 0.23349 -0.16841
 H114 H 0.78868 0.19584 -0.13534
 H115 H 0.80845 0.14451 -0.23433
 H116 H 0.74544 0.29555 -0.30507
 H117 H 0.77548 0.33284 -0.33760
 H118 H 0.83363 0.28486 -0.27333
 H119 H 0.80194 0.25258 -0.24087
 C120 C 0.69234 0.18787 -0.32182
 C121 C 0.69744 0.31278 -0.17217
 C122 C 0.80826 0.31353 -0.30899
 C123 C 0.80086 0.16715 -0.18228
 C124 C 1.21437 -0.24477 -0.18832
 H125 H 1.21395 -0.27352 -0.18708
 C126 C 1.19781 -0.22549 -0.16722
 H127 H 1.18486 -0.23958 -0.14946
 C128 C 1.23117 -0.19163 -0.21397
 H129 H 1.24396 -0.17852 -0.23255
 C130 C 1.21495 -0.17122 -0.19313
 H131 H 1.21523 -0.14256 -0.19620
 N132 N 1.22994 -0.22779 -0.21216
 C133 C 1.23397 -0.29671 -0.30571
 H134 H 1.25374 -0.29742 -0.31156
 C135 C 1.21732 -0.31353 -0.32868
 H136 H 1.22450 -0.32741 -0.35182
 C137 C 1.20047 -0.27615 -0.26986
 H138 H 1.19364 -0.26120 -0.24745
 C139 C 1.18329 -0.29260 -0.29187
 H140 H 1.16365 -0.29077 -0.28515
 Zn141 Zn 1.24810 -0.25656 -0.24486
 N142 N 1.22537 -0.27895 -0.27652
 C143 C 1.27811 -0.31756 -0.23670
 N144 N 1.26638 -0.29107 -0.21876
 C145 C 1.27009 -0.28617 -0.18318
 C146 C 1.28658 -0.30773 -0.16455
 C147 C 1.29502 -0.33939 -0.21920
 C148 C 1.26321 -0.20364 -0.29604
 C149 C 1.28049 -0.18223 -0.31505
 C150 C 1.31362 -0.21303 -0.28514
 C151 C 1.29581 -0.23325 -0.26637
 N152 N 1.27113 -0.22826 -0.27193
 H153 H 1.27542 -0.32065 -0.26502
 H154 H 1.26135 -0.26431 -0.16954
 H155 H 1.29011 -0.30253 -0.13664
 H156 H 1.30489 -0.35952 -0.23414
 H157 H 1.24345 -0.20028 -0.30009
 H158 H 1.27380 -0.16210 -0.33335
 H159 H 1.33311 -0.21824 -0.28060
 H160 H 1.30188 -0.25278 -0.24711
 C161 C 1.19156 -0.31163 -0.32178
 C162 C 1.19742 -0.18830 -0.17036
 C163 C 1.30614 -0.18664 -0.30949
 C164 C 1.29975 -0.33406 -0.18285
 C165 C 0.26507 0.20363 0.69680
 H166 H 0.24532 0.20229 0.69157
 C167 C 0.28157 0.18149 0.67829
 H168 H 0.27420 0.16291 0.65919
 C169 C 0.29837 0.22840 0.72926
 H170 H 0.30499 0.24580 0.74982
 C171 C 0.31546 0.20761 0.71087
 H172 H 0.33502 0.21092 0.71672
 N173 N 0.27372 0.22660 0.72169
 C174 C 0.21239 0.24556 0.79617
 H175 H 0.21100 0.27416 0.79364
 C176 C 0.19474 0.22658 0.81654
 H177 H 0.18059 0.24151 0.83057
 C178 C 0.23341 0.19257 0.78153
 H179 H 0.24831 0.17944 0.76727
 C180 C 0.21620 0.17239 0.80193
 H181 H 0.21808 0.14380 0.80209
 Zn182 Zn 0.25137 0.25637 0.74713
 N183 N 0.23088 0.22838 0.77846
 C184 C 0.20664 0.26648 0.71122
 N185 N 0.22997 0.28042 0.71462
 C186 C 0.23674 0.31113 0.69719
 C187 C 0.21935 0.33000 0.67718
 C188 C 0.18865 0.28463 0.69192
 C189 C 0.26809 0.28895 0.81101
 C190 C 0.28451 0.30900 0.83148
 C191 C 0.30425 0.33056 0.77678
 C192 C 0.28741 0.31032 0.75740
 N193 N 0.27009 0.28938 0.77461
 H194 H 0.20170 0.24153 0.72421
 H195 H 0.25532 0.32181 0.69949
 H196 H 0.22480 0.35502 0.66456
 H197 H 0.17002 0.27346 0.69042
 H198 H 0.25471 0.27158 0.82444
 H199 H 0.28348 0.30687 0.86040
 H200 H 0.31860 0.34573 0.76253
 H201 H 0.28963 0.30906 0.72869
 C202 C 0.19585 0.18914 0.81897
 C203 C 0.30725 0.18333 0.68521
 C204 C 0.30334 0.32930 0.81432
 C205 C 0.19475 0.31727 0.67532
 C206 C 0.76500 0.70547 0.69411
 H207 H 0.74558 0.70610 0.68705
 C208 C 0.78131 0.68313 0.67556
 H209 H 0.77408 0.66649 0.65463
 C210 C 0.79775 0.72539 0.73069
 H211 H 0.80414 0.74109 0.75274
 C212 C 0.81469 0.70413 0.71253
 H213 H 0.83402 0.70525 0.72020
 N214 N 0.77349 0.72630 0.72093
 C215 C 0.71063 0.74719 0.79153
 H216 H 0.70884 0.77559 0.78756
 C217 C 0.69250 0.72829 0.81117
 H218 H 0.67752 0.74323 0.82321
 C219 C 0.73321 0.69453 0.78111
 H220 H 0.74893 0.68151 0.76868
 C221 C 0.71557 0.67449 0.80081
 H222 H 0.71803 0.64602 0.80227
 Zn223 Zn 0.75182 0.75715 0.74632
 N224 N 0.73025 0.73010 0.77655
 C225 C 0.71171 0.76437 0.70111
 N226 N 0.73143 0.78265 0.71436
 C227 C 0.73428 0.81821 0.70822
 C228 C 0.71675 0.83667 0.68819
 C229 C 0.69340 0.78196 0.68192
 C230 C 0.76841 0.78977 0.81012
 C231 C 0.78506 0.80941 0.83061
 C232 C 0.80666 0.82763 0.77608
 C233 C 0.78942 0.80815 0.75664
 N234 N 0.77120 0.78886 0.77387
 H235 H 0.70956 0.73632 0.70711
 H236 H 0.74961 0.83256 0.71978
 H237 H 0.71882 0.86509 0.68409
 H238 H 0.67730 0.76725 0.67283
 H239 H 0.75386 0.77424 0.82333
 H240 H 0.78317 0.80886 0.85951
 H241 H 0.82161 0.84172 0.76199
 H242 H 0.79134 0.80682 0.72782
 C243 C 0.69433 0.69105 0.81564
 C244 C 0.80664 0.68238 0.68459
 C245 C 0.80494 0.82772 0.81360
 C246 C 0.69579 0.81861 0.67551
 C247 C 0.76533 0.20668 0.19432
 H248 H 0.74564 0.20584 0.18864
 C249 C 0.78185 0.18492 0.17542
 H250 H 0.77463 0.16712 0.15547
 C251 C 0.79843 0.22971 0.22847
 H252 H 0.80490 0.24630 0.24980
 C253 C 0.81554 0.20914 0.20987
 H254 H 0.83504 0.21158 0.21644
 N255 N 0.77387 0.22852 0.22027
 C256 C 0.71317 0.24378 0.29661
 H257 H 0.71171 0.27243 0.29547
 C258 C 0.69572 0.22376 0.31634
 H259 H 0.68104 0.23723 0.33089
 C260 C 0.73379 0.19147 0.27819
 H261 H 0.74845 0.17903 0.26280
 C262 C 0.71667 0.17034 0.29774
 H263 H 0.71818 0.14166 0.29710
 Zn264 Zn 0.75144 0.25701 0.24683
 N265 N 0.73138 0.22747 0.27737
 C266 C 0.70608 0.26875 0.21282
 N267 N 0.72974 0.28178 0.21520
 C268 C 0.73685 0.31183 0.19684
 C269 C 0.71948 0.33111 0.17717
 C270 C 0.68816 0.28725 0.19378
 C271 C 0.76859 0.28752 0.31163
 C272 C 0.78507 0.30712 0.33244
 C273 C 0.80402 0.33094 0.27812
 C274 C 0.78718 0.31106 0.25839
 N275 N 0.77017 0.28927 0.27521
 H276 H 0.70086 0.24411 0.22618
 H277 H 0.75572 0.32160 0.19800
 H278 H 0.72523 0.35565 0.16385
 H279 H 0.66933 0.27670 0.19299
 H280 H 0.75546 0.26956 0.32474
 H281 H 0.78434 0.30409 0.36130
 H282 H 0.81801 0.34705 0.26418
 H283 H 0.78909 0.31093 0.22962
 C284 C 0.69692 0.18651 0.31623
 C285 C 0.80742 0.18599 0.18314
 C286 C 0.80351 0.32834 0.31559
 C287 C 0.69461 0.31934 0.17636
 C288 C 0.26571 0.70641 0.19367
 H289 H 0.24644 0.70765 0.18601
 C290 C 0.28210 0.68437 0.17494
 H291 H 0.27510 0.66860 0.15318
 C292 C 0.29803 0.72445 0.23197
 H293 H 0.30420 0.73934 0.25472
 C294 C 0.31505 0.70338 0.21372
 H295 H 0.33428 0.70370 0.22199
 N296 N 0.27396 0.72624 0.22139
 C297 C 0.21135 0.74697 0.29301
 H298 H 0.20963 0.77544 0.28963
 C299 C 0.19328 0.72778 0.31257
 H300 H 0.17780 0.74174 0.32466
 C301 C 0.23338 0.69411 0.28050
 H302 H 0.24883 0.68112 0.26735
 C303 C 0.21575 0.67386 0.29998
 H304 H 0.21767 0.64525 0.30152
 Zn305 Zn 0.25230 0.75705 0.24689
 N306 N 0.23071 0.72991 0.27710
 C307 C 0.21256 0.76517 0.20041
 N308 N 0.23200 0.78302 0.21497
 C309 C 0.23499 0.81872 0.20980
 C310 C 0.21784 0.83791 0.18973
 C311 C 0.19490 0.78333 0.18050
 C312 C 0.26948 0.79014 0.31044
 C313 C 0.28622 0.81025 0.33037
 C314 C 0.30776 0.82678 0.27533
 C315 C 0.29027 0.80714 0.25658
 N316 N 0.27203 0.78850 0.27427
 H317 H 0.21013 0.73700 0.20567
 H318 H 0.25015 0.83267 0.22220
 H319 H 0.22008 0.86645 0.18683
 H320 H 0.17925 0.76876 0.16985
 H321 H 0.25503 0.77476 0.32413
 H322 H 0.28414 0.80889 0.35918
 H323 H 0.32158 0.84154 0.25968
 H324 H 0.29184 0.80560 0.22773
 C325 C 0.19516 0.69067 0.31578
 C326 C 0.30726 0.68287 0.18475
 C327 C 0.30660 0.82806 0.31318
 C328 C 0.19715 0.82029 0.17554
 O329 O 1.03454 0.06559 0.06158
 O330 O 1.06234 0.03258 0.02901
 C331 C 1.05705 0.05671 0.05236
 O332 O 0.96507 -0.06232 0.06637
 O333 O 0.93742 -0.03076 0.03239
 C334 C 0.94260 -0.05404 0.05700
 O335 O 1.03517 -0.05780 0.06797
 O336 O 1.06289 -0.02704 0.03143
 C337 C 1.05770 -0.04906 0.05764
 O338 O 0.96499 0.06606 0.06067
 O339 O 0.93756 0.03085 0.03016
 C340 C 0.94261 0.05591 0.05251
 Zr341 Zr 0.99987 0.04691 0.04275
 O342 O 0.99829 0.05103 0.09917
 O343 O 1.00037 0.10274 0.03569
 Zr344 Zr 1.00018 -0.04256 0.04778
 O345 O 0.99897 -0.03749 0.10406
 O346 O 1.00217 -0.09864 0.05172
 O347 O 1.02231 0.00291 0.05186
 O348 O 0.97828 0.00192 0.05223
 O349 O 0.96536 0.06192 -0.06502
 O350 O 0.93791 0.02885 -0.03038
 C351 C 0.94292 0.05245 -0.05509
 O352 O 1.03523 -0.06355 -0.06231
 O353 O 1.06272 -0.02967 -0.03072
 C354 C 1.05767 -0.05389 -0.05403
 O355 O 0.96575 -0.06771 -0.05791
 O356 O 0.93792 -0.03313 -0.02726
 C357 C 0.94321 -0.05838 -0.04940
 O358 O 1.03494 0.06081 -0.06840
 O359 O 1.06258 0.03013 -0.03388
 C360 C 1.05740 0.05262 -0.05922
 Zr361 Zr 1.00015 0.04319 -0.04726
 O362 O 0.99788 0.04012 -0.10366
 O363 O 1.00198 0.09938 -0.05027
 Zr364 Zr 1.00039 -0.04652 -0.04206
 O365 O 0.99831 -0.05106 -0.09833
 O366 O 1.00152 -0.10230 -0.03482
 Zr367 Zr 1.03749 0.00099 -0.00043
 Zr368 Zr 0.96288 -0.00052 0.00089
 O369 O 0.97865 -0.00240 -0.05095
 O370 O 1.02257 -0.00151 -0.05220
 O371 O 0.97763 0.05155 -0.00216
 O372 O 1.02211 -0.05063 0.00277
 O373 O 1.02179 0.05198 -0.00293
 O374 O 0.97797 -0.05192 0.00360
 H375 H 0.96715 0.00241 0.07365
 H376 H 1.03335 -0.07134 0.00371
 H377 H 0.96761 -0.00350 -0.07190
 H378 H 1.03289 0.07320 -0.00413
 H379 H 0.99107 -0.10839 0.03330
 H380 H 1.00170 -0.11249 -0.05914
 H381 H 1.01042 -0.03381 -0.10893
 H382 H 1.01246 0.02665 -0.11233
 H383 H 0.99025 0.10851 -0.03193
 H384 H 1.00047 0.11284 0.06006
 H385 H 1.00727 0.03033 0.10894
 H386 H 0.99906 -0.06203 0.11401
 O387 O 1.03422 0.56647 0.55947
 O388 O 1.06198 0.53346 0.52685
 C389 C 1.05671 0.55774 0.55006
 O390 O 0.96607 0.43705 0.56661
 O391 O 0.93800 0.46804 0.53309
 C392 C 0.94348 0.44488 0.55765
 O393 O 1.03577 0.44347 0.56738
 O394 O 1.06294 0.47382 0.52973
 C395 C 1.05812 0.45229 0.55640
 O396 O 0.96471 0.56594 0.55965
 O397 O 0.93729 0.53015 0.52973
 C398 C 0.94234 0.55541 0.55188
 Zr399 Zr 0.99961 0.54715 0.54130
 O400 O 0.99834 0.55156 0.59768
 O401 O 0.99969 0.60292 0.53369
 Zr402 Zr 1.00060 0.45780 0.54729
 O403 O 0.99968 0.46405 0.60343
 O404 O 1.00316 0.40186 0.55217
 O405 O 1.02244 0.50359 0.55046
 O406 O 0.97835 0.50196 0.55152
 O407 O 0.96438 0.56022 0.43380
 O408 O 0.93722 0.52744 0.46926
 C409 C 0.94204 0.55069 0.44413
 O410 O 1.03530 0.43608 0.43738
 O411 O 1.06280 0.47071 0.46828
 C412 C 1.05777 0.44606 0.44538
 O413 O 0.96553 0.43116 0.44225
 O414 O 0.93769 0.46565 0.47304
 C415 C 0.94301 0.44038 0.45099
 O416 O 1.03414 0.55970 0.42942
 O417 O 1.06213 0.53021 0.46436
 C418 C 1.05673 0.55210 0.43859
 Zr419 Zr 0.99943 0.54239 0.45138
 O420 O 0.99684 0.53944 0.39502
 O421 O 1.00102 0.59859 0.44816
 Zr422 Zr 1.00021 0.45275 0.45746
 O423 O 0.99792 0.44734 0.40131
 O424 O 1.00164 0.39709 0.46516
 Zr425 Zr 1.03719 0.50120 0.49797
 Zr426 Zr 0.96262 0.49880 0.50047
 O427 O 0.97816 0.49652 0.44845
 O428 O 1.02203 0.49791 0.44645
 O429 O 0.97708 0.55098 0.49664
 O430 O 1.02221 0.44942 0.50205
 O431 O 1.02124 0.55200 0.49526
 O432 O 0.97813 0.44763 0.50351
 H433 H 0.96736 0.50244 0.57309
 H434 H 1.03358 0.42887 0.50315
 H435 H 0.96705 0.49506 0.42760
 H436 H 1.03224 0.57330 0.49362
 H437 H 0.99264 0.39162 0.53333
 H438 H 1.00175 0.38671 0.44091
 H439 H 1.01007 0.46432 0.39034
 H440 H 1.01086 0.52484 0.38634
 H441 H 0.98889 0.60769 0.46598
 H442 H 0.99978 0.61325 0.55796
 H443 H 1.00830 0.53179 0.60741
 H444 H 0.99989 0.43972 0.61390
 O445 O 0.53445 0.06603 0.55966
 O446 O 0.56226 0.03260 0.52751
 C447 C 0.55696 0.05700 0.55060
 O448 O 0.46548 -0.06224 0.56705
 O449 O 0.43773 -0.03124 0.53295
 C450 C 0.44300 -0.05416 0.55784
 O451 O 0.53505 -0.05759 0.56793
 O452 O 0.56259 -0.02712 0.53104
 C453 C 0.55752 -0.04891 0.55745
 O454 O 0.46495 0.06600 0.55960
 O455 O 0.43736 0.03072 0.52944
 C456 C 0.44252 0.05579 0.55178
 Zr457 Zr 0.49976 0.04709 0.54124
 O458 O 0.49871 0.05285 0.59750
 O459 O 0.49984 0.10271 0.53266
 Zr460 Zr 0.50019 -0.04237 0.54743
 O461 O 0.49930 -0.03650 0.60363
 O462 O 0.50226 -0.09841 0.55197
 O463 O 0.52226 0.00322 0.55080
 O464 O 0.47827 0.00213 0.55148
 O465 O 0.46493 0.06029 0.43347
 O466 O 0.43747 0.02785 0.46880
 C467 C 0.44250 0.05081 0.44346
 O468 O 0.53498 -0.06472 0.43756
 O469 O 0.56252 -0.03036 0.46860
 C470 C 0.55743 -0.05492 0.44569
 O471 O 0.46541 -0.06825 0.44175
 O472 O 0.43753 -0.03388 0.47274
 C473 C 0.44289 -0.05881 0.45024
 O474 O 0.53463 0.05904 0.42955
 O475 O 0.56236 0.02941 0.46478
 C476 C 0.55714 0.05124 0.43889
 Zr477 Zr 0.49984 0.04211 0.45143
 O478 O 0.49683 0.03850 0.39515
 O479 O 0.50208 0.09819 0.44681
 Zr480 Zr 0.50014 -0.04740 0.45762
 O481 O 0.49816 -0.05204 0.40136
 O482 O 0.50111 -0.10318 0.46473
 Zr483 Zr 0.53736 0.00063 0.49851
 Zr484 Zr 0.46263 -0.00096 0.50033
 O485 O 0.47834 -0.00347 0.44845
 O486 O 0.52229 -0.00253 0.44686
 O487 O 0.47738 0.05113 0.49646
 O488 O 0.52198 -0.05097 0.50239
 O489 O 0.52160 0.05159 0.49544
 O490 O 0.47781 -0.05233 0.50349
 H491 H 0.46731 0.00281 0.57307
 H492 H 0.53319 -0.07170 0.50356
 H493 H 0.46731 -0.00479 0.42750
 H494 H 0.53269 0.07280 0.49383
 H495 H 0.49156 -0.10846 0.53323
 H496 H 0.50114 -0.11334 0.44037
 H497 H 0.50993 -0.03431 0.39076
 H498 H 0.51155 0.02565 0.38601
 H499 H 0.49048 0.10800 0.46493
 H500 H 0.50041 0.11346 0.55671
 H501 H 0.50638 0.03133 0.60782
 H502 H 0.49950 -0.06089 0.61395
 O503 O 0.53419 0.56671 0.05913
 O504 O 0.56205 0.53378 0.02658
 C505 C 0.55671 0.55795 0.04989
 O506 O 0.46594 0.43797 0.06613
 O507 O 0.43800 0.46869 0.03205
 C508 C 0.44342 0.44580 0.05684
 O509 O 0.53568 0.44408 0.06671
 O510 O 0.56294 0.47438 0.02914
 C511 C 0.55806 0.45292 0.05584
 O512 O 0.46480 0.56655 0.05919
 O513 O 0.43742 0.53160 0.02841
 C514 C 0.44243 0.55638 0.05102
 Zr515 Zr 0.49958 0.54765 0.04067
 O516 O 0.49826 0.55251 0.09701
 O517 O 0.49954 0.60337 0.03268
 Zr518 Zr 0.50051 0.45825 0.04644
 O519 O 0.49962 0.46388 0.10268
 O520 O 0.50307 0.40222 0.05051
 O521 O 0.52231 0.50405 0.04983
 O522 O 0.47829 0.50251 0.05077
 O523 O 0.46450 0.56107 -0.06691
 O524 O 0.43727 0.52768 -0.03204
 C525 C 0.44213 0.55126 -0.05687
 O526 O 0.53501 0.43693 -0.06397
 O527 O 0.56248 0.47128 -0.03288
 C528 C 0.55746 0.44686 -0.05595
 O529 O 0.46528 0.43228 -0.05866
 O530 O 0.43758 0.46700 -0.02800
 C531 C 0.44277 0.44173 -0.05006
 O532 O 0.53428 0.56098 -0.07053
 O533 O 0.56227 0.53090 -0.03600
 C534 C 0.55685 0.55322 -0.06138
 Zr535 Zr 0.49952 0.54318 -0.04920
 O536 O 0.49721 0.54001 -0.10560
 O537 O 0.50088 0.59937 -0.05259
 Zr538 Zr 0.50014 0.45354 -0.04337
 O539 O 0.49792 0.44757 -0.09952
 O540 O 0.50152 0.39787 -0.03536
 Zr541 Zr 0.53725 0.50183 -0.00259
 Zr542 Zr 0.46255 0.49968 -0.00039
 O543 O 0.47822 0.49738 -0.05231
 O544 O 0.52208 0.49868 -0.05416
 O545 O 0.47710 0.55175 -0.00402
 O546 O 0.52220 0.45005 0.00121
 O547 O 0.52129 0.55262 -0.00523
 O548 O 0.47800 0.44835 0.00262
 H549 H 0.46715 0.50301 0.07216
 H550 H 0.53358 0.42950 0.00224
 H551 H 0.46729 0.49593 -0.07339
 H552 H 0.53225 0.57395 -0.00672
 H553 H 0.49142 0.39201 0.03304
 H554 H 0.50125 0.38738 -0.05955
 H555 H 0.50890 0.46603 -0.11057
 H556 H 0.51172 0.52638 -0.11429
 H557 H 0.48883 0.60839 -0.03463
 H558 H 0.49998 0.61378 0.05688
 H559 H 0.50693 0.53159 0.10689
 H560 H 0.49999 0.43946 0.11289
 C561 C 1.13678 0.13338 0.11911
 C562 C 1.13281 0.16856 0.12971
 C563 C 1.15167 0.18680 0.14755
 C564 C 1.17420 0.16988 0.15594
 C565 C 1.17807 0.13471 0.14443
 C566 C 1.15942 0.11638 0.12589
 C567 C 1.11666 0.11380 0.10119
 C568 C 1.12056 0.07861 0.09041
 C569 C 1.10116 0.06001 0.07377
 C570 C 1.07786 0.07619 0.06891
 C571 C 1.07437 0.11150 0.07984
 C572 C 1.09374 0.13052 0.09569
 C573 C 1.16269 0.08116 0.11458
 C574 C 1.14366 0.06268 0.09696
 C575 C 1.10983 0.18465 0.12293
 C576 C 1.09058 0.16588 0.10636
 H577 H 1.18007 0.06772 0.11956
 H578 H 1.14695 0.03555 0.08879
 H579 H 1.10657 0.21181 0.13097
 H580 H 1.07303 0.17911 0.10203
 H581 H 1.14861 0.21409 0.15534
 H582 H 1.19518 0.12122 0.15090
 H583 H 1.10396 0.03283 0.06539
 H584 H 1.05663 0.12430 0.07567
 C585 C 1.13606 0.63469 0.61710
 C586 C 1.13153 0.66911 0.62958
 C587 C 1.15023 0.68706 0.64801
 C588 C 1.17315 0.67057 0.65494
 C589 C 1.17762 0.63633 0.64141
 C590 C 1.15909 0.61825 0.62245
 C591 C 1.11607 0.61521 0.59883
 C592 C 1.12043 0.58064 0.58653
 C593 C 1.10110 0.56197 0.56989
 C594 C 1.07746 0.57748 0.56636
 C595 C 1.07353 0.61222 0.57869
 C596 C 1.09278 0.63128 0.59475
 C597 C 1.16286 0.58375 0.60948
 C598 C 1.14389 0.56530 0.59174
 C599 C 1.10818 0.68462 0.62417
 C600 C 1.08908 0.66594 0.60719
 H601 H 1.18056 0.57078 0.61336
 H602 H 1.14750 0.53862 0.58248
 H603 H 1.10451 0.71121 0.63364
 H604 H 1.07120 0.67861 0.60406
 H605 H 1.14677 0.71371 0.65750
 H606 H 1.19510 0.62328 0.64672
 H607 H 1.10422 0.53518 0.56053
 H608 H 1.05548 0.62450 0.57565
 C609 C 0.63648 0.13357 0.61799
 C610 C 0.63212 0.16819 0.63002
 C611 C 0.65091 0.18628 0.64812
 C612 C 0.67379 0.16973 0.65528
 C613 C 0.67804 0.13517 0.64241
 C614 C 0.65941 0.11696 0.62371
 C615 C 0.61641 0.11404 0.59991
 C616 C 0.62061 0.07927 0.58805
 C617 C 0.60124 0.06067 0.57135
 C618 C 0.57773 0.07649 0.56726
 C619 C 0.57393 0.11133 0.57941
 C620 C 0.59321 0.13030 0.59552
 C621 C 0.66296 0.08216 0.61139
 C622 C 0.64395 0.06372 0.59371
 C623 C 0.60880 0.18376 0.62454
 C624 C 0.58965 0.16509 0.60767
 H625 H 0.68052 0.06896 0.61572
 H626 H 0.64745 0.03688 0.58482
 H627 H 0.60519 0.21041 0.63388
 H628 H 0.57183 0.17790 0.60435
 H629 H 0.64755 0.21310 0.65716
 H630 H 0.69542 0.12199 0.64803
 H631 H 0.60422 0.03371 0.56236
 H632 H 0.55597 0.12379 0.57617
 C633 C 0.63602 0.63431 0.11786
 C634 C 0.63155 0.66871 0.13041
 C635 C 0.65029 0.68661 0.14881
 C636 C 0.67321 0.67009 0.15567
 C637 C 0.67760 0.63582 0.14216
 C638 C 0.65902 0.61779 0.12320
 C639 C 0.61600 0.61493 0.09952
 C640 C 0.62033 0.58043 0.08705
 C641 C 0.60103 0.56191 0.07017
 C642 C 0.57741 0.57750 0.06659
 C643 C 0.57348 0.61217 0.07922
 C644 C 0.59274 0.63108 0.09545
 C645 C 0.66273 0.58330 0.11016
 C646 C 0.64375 0.56499 0.09225
 C647 C 0.60822 0.68429 0.12506
 C648 C 0.58909 0.66571 0.10801
 H649 H 0.68039 0.57027 0.11408
 H650 H 0.64732 0.53836 0.08280
 H651 H 0.60459 0.71085 0.13465
 H652 H 0.57124 0.67846 0.10486
 H653 H 0.64687 0.71326 0.15829
 H654 H 0.69507 0.62274 0.14747
 H655 H 0.60418 0.53519 0.06064
 H656 H 0.55548 0.62461 0.07625
 C657 C 0.86261 -0.12554 0.13366
 C658 C 0.84060 -0.13452 0.11594
 C659 C 0.82181 -0.15378 0.13461
 C660 C 0.82493 -0.16376 0.17079
 C661 C 0.84682 -0.15321 0.18830
 C662 C 0.86583 -0.13469 0.16978
 C663 C 0.88285 -0.10663 0.11392
 C664 C 0.90514 -0.09879 0.13148
 C665 C 0.92458 -0.08172 0.11248
 C666 C 0.92174 -0.07186 0.07637
 C667 C 0.89910 -0.07921 0.05923
 C668 C 0.87966 -0.09711 0.07783
 C669 C 0.88820 -0.12571 0.18660
 C670 C 0.90759 -0.10826 0.16769
 C671 C 0.83807 -0.12458 0.07978
 C672 C 0.85721 -0.10604 0.06110
 H673 H 0.89087 -0.13267 0.21449
 H674 H 0.92467 -0.10218 0.18152
 H675 H 0.82118 -0.13128 0.06578
 H676 H 0.85452 -0.09894 0.03325
 H677 H 0.80517 -0.16182 0.12070
 H678 H 0.84924 -0.15971 0.21635
 H679 H 0.94185 -0.07571 0.12590
 H680 H 0.89688 -0.07176 0.03137
 C681 C 0.86428 0.37184 0.63512
 C682 C 0.84078 0.36803 0.61982
 C683 C 0.82189 0.34905 0.63864
 C684 C 0.82618 0.33356 0.67297
 C685 C 0.85010 0.33932 0.68789
 C686 C 0.86905 0.35768 0.66908
 C687 C 0.88437 0.39098 0.61521
 C688 C 0.90796 0.39425 0.63055
 C689 C 0.92713 0.41181 0.61142
 C690 C 0.92284 0.42654 0.57730
 C691 C 0.89893 0.42358 0.56244
 C692 C 0.87965 0.40548 0.58122
 C693 C 0.89281 0.36203 0.68377
 C694 C 0.91197 0.37984 0.66475
 C695 C 0.83675 0.38283 0.58564
 C696 C 0.85582 0.40131 0.56672
 H697 H 0.89671 0.35123 0.71008
 H698 H 0.93009 0.38231 0.67689
 H699 H 0.81869 0.38008 0.57337
 H700 H 0.85190 0.41225 0.54047
 H701 H 0.80448 0.34512 0.62509
 H702 H 0.85423 0.33100 0.71489
 H703 H 0.94535 0.41432 0.62329
 H704 H 0.89546 0.43483 0.53618
 C705 C 0.36301 -0.12571 0.63467
 C706 C 0.34077 -0.13380 0.61710
 C707 C 0.32196 -0.15320 0.63552
 C708 C 0.32522 -0.16410 0.67140
 C709 C 0.34739 -0.15458 0.68880
 C710 C 0.36647 -0.13600 0.67044
 C711 C 0.38328 -0.10674 0.61507
 C712 C 0.40586 -0.09999 0.63231
 C713 C 0.42534 -0.08291 0.61330
 C714 C 0.42219 -0.07190 0.57754
 C715 C 0.39926 -0.07820 0.56086
 C716 C 0.37983 -0.09615 0.57936
 C717 C 0.38915 -0.12818 0.68698
 C718 C 0.40857 -0.11063 0.66817
 C719 C 0.33804 -0.12290 0.58126
 C720 C 0.35716 -0.10415 0.56280
 H721 H 0.39205 -0.13617 0.71454
 H722 H 0.42587 -0.10543 0.68178
 H723 H 0.32101 -0.12902 0.56733
 H724 H 0.35430 -0.09621 0.53522
 H725 H 0.30518 -0.16067 0.62163
 H726 H 0.34999 -0.16197 0.71659
 H727 H 0.44287 -0.07788 0.62645
 H728 H 0.39677 -0.06985 0.53337
 C729 C 0.36318 0.37660 0.13477
 C730 C 0.34184 0.36539 0.11665
 C731 C 0.32299 0.34666 0.13569
 C732 C 0.32527 0.33960 0.17269
 C733 C 0.34644 0.35249 0.19050
 C734 C 0.36562 0.37031 0.17162
 C735 C 0.38356 0.39481 0.11470
 C736 C 0.40531 0.40467 0.13264
 C737 C 0.42495 0.42096 0.11331
 C738 C 0.42270 0.42821 0.07653
 C739 C 0.40062 0.41884 0.05899
 C740 C 0.38107 0.40159 0.07789
 C741 C 0.38741 0.38137 0.18880
 C742 C 0.40701 0.39802 0.16957
 C743 C 0.34000 0.37262 0.07977
 C744 C 0.35923 0.39064 0.06075
 H745 H 0.38948 0.37661 0.21725
 H746 H 0.42365 0.40569 0.18369
 H747 H 0.32360 0.36417 0.06551
 H748 H 0.35712 0.39563 0.03233
 H749 H 0.30697 0.33677 0.12149
 H750 H 0.34823 0.34831 0.21907
 H751 H 0.44182 0.42853 0.12696
 H752 H 0.39891 0.42429 0.03063
 C753 C 0.86086 0.11628 -0.12856
 C754 C 0.83683 0.11469 -0.11306
 C755 C 0.81708 0.13109 -0.13084
 C756 C 0.82127 0.14839 -0.16407
 C757 C 0.84541 0.14925 -0.17940
 C758 C 0.86531 0.13349 -0.16164
 C759 C 0.88181 0.09987 -0.10968
 C760 C 0.90590 0.10223 -0.12484
 C761 C 0.92583 0.08705 -0.10661
 C762 C 0.92178 0.06906 -0.07370
 C763 C 0.89739 0.06647 -0.05916
 C764 C 0.87738 0.08221 -0.07684
 C765 C 0.88962 0.13496 -0.17612
 C766 C 0.90960 0.11969 -0.15797
 C767 C 0.83313 0.09688 -0.08008
 C768 C 0.85303 0.08076 -0.06236
 H769 H 0.89327 0.14820 -0.20161
 H770 H 0.92808 0.12155 -0.16999
 H771 H 0.81468 0.09537 -0.06789
 H772 H 0.84936 0.06724 -0.03700
 H773 H 0.79849 0.13033 -0.11903
 H774 H 0.84879 0.16305 -0.20469
 H775 H 0.94442 0.08881 -0.11831
 H776 H 0.89400 0.05241 -0.03406
 C777 C 0.85994 0.61400 0.37054
 C778 C 0.83612 0.61371 0.38671
 C779 C 0.81643 0.63031 0.36903
 C780 C 0.82046 0.64655 0.33525
 C781 C 0.84435 0.64600 0.31917
 C782 C 0.86422 0.63003 0.33683
 C783 C 0.88087 0.59753 0.38939
 C784 C 0.90477 0.59869 0.37358
 C785 C 0.92470 0.58357 0.39183
 C786 C 0.92082 0.56686 0.42542
 C787 C 0.89660 0.56533 0.44062
 C788 C 0.87659 0.58108 0.42290
 C789 C 0.88835 0.63025 0.32168
 C790 C 0.90831 0.61493 0.33981
 C791 C 0.83257 0.59708 0.42033
 C792 C 0.85244 0.58088 0.43804
 H793 H 0.89187 0.64257 0.29570
 H794 H 0.92667 0.61582 0.32730
 H795 H 0.81428 0.59658 0.43305
 H796 H 0.84890 0.56832 0.46390
 H797 H 0.79801 0.63063 0.38137
 H798 H 0.84760 0.65894 0.29340
 H799 H 0.94316 0.58444 0.37962
 H800 H 0.89334 0.55221 0.46626
 C801 C 0.36090 0.11297 0.36759
 C802 C 0.36471 0.12519 0.33235
 C803 C 0.34504 0.14126 0.31424
 C804 C 0.32160 0.14683 0.33149
 C805 C 0.31839 0.13378 0.36714
 C806 C 0.33775 0.11654 0.38495
 C807 C 0.38167 0.09647 0.38685
 C808 C 0.37766 0.08320 0.42177
 C809 C 0.39750 0.06760 0.43996
 C810 C 0.42143 0.06650 0.42398
 C811 C 0.42508 0.07983 0.38886
 C812 C 0.40518 0.09442 0.37001
 C813 C 0.33439 0.10283 0.41991
 C814 C 0.35393 0.08609 0.43785
 C815 C 0.38838 0.12191 0.31608
 C816 C 0.40831 0.10700 0.33467
 H817 H 0.31651 0.10507 0.43352
 H818 H 0.35052 0.07571 0.46468
 H819 H 0.39161 0.13135 0.28886
 H820 H 0.42630 0.10527 0.32127
 H821 H 0.34902 0.15179 0.28766
 H822 H 0.30054 0.13542 0.38089
 H823 H 0.39440 0.05679 0.46665
 H824 H 0.44328 0.07836 0.37599
 C825 C 0.35969 0.61446 -0.12979
 C826 C 0.33601 0.61461 -0.11318
 C827 C 0.31622 0.63100 -0.13085
 C828 C 0.32002 0.64662 -0.16498
 C829 C 0.34377 0.64560 -0.18145
 C830 C 0.36373 0.62987 -0.16384
 C831 C 0.38073 0.59810 -0.11109
 C832 C 0.40452 0.59887 -0.12733
 C833 C 0.42455 0.58382 -0.10924
 C834 C 0.42087 0.56743 -0.07547
 C835 C 0.39679 0.56640 -0.05980
 C836 C 0.37669 0.58216 -0.07728
 C837 C 0.38773 0.62968 -0.17941
 C838 C 0.40781 0.61458 -0.16139
 C839 C 0.33270 0.59853 -0.07924
 C840 C 0.35267 0.58241 -0.06167
 H841 H 0.39105 0.64152 -0.20566
 H842 H 0.42606 0.61521 -0.17423
 H843 H 0.31453 0.59839 -0.06615
 H844 H 0.34933 0.57032 -0.03552
 H845 H 0.29791 0.63163 -0.11820
 H846 H 0.34684 0.65806 -0.20750
 H847 H 0.44293 0.58441 -0.12170
 H848 H 0.39372 0.55362 -0.03396
 C849 C 1.13836 -0.12986 -0.12078
 C850 C 1.13303 -0.16152 -0.13877
 C851 C 1.15255 -0.18049 -0.15445
 C852 C 1.17730 -0.16800 -0.15255
 C853 C 1.18238 -0.13601 -0.13468
 C854 C 1.16292 -0.11691 -0.11848
 C855 C 1.11780 -0.10993 -0.10405
 C856 C 1.12303 -0.07851 -0.08557
 C857 C 1.10336 -0.05998 -0.06925
 C858 C 1.07860 -0.07259 -0.07175
 C859 C 1.07380 -0.10398 -0.09081
 C860 C 1.09328 -0.12282 -0.10678
 C861 C 1.16743 -0.08519 -0.10000
 C862 C 1.14784 -0.06637 -0.08376
 C863 C 1.10826 -0.17355 -0.14090
 C864 C 1.08870 -0.15447 -0.12525
 H865 H 1.18627 -0.07488 -0.09799
 H866 H 1.15215 -0.04210 -0.06971
 H867 H 1.10395 -0.19791 -0.15482
 H868 H 1.06984 -0.16464 -0.12752
 H869 H 1.14845 -0.20471 -0.16876
 H870 H 1.20141 -0.12631 -0.13309
 H871 H 1.10731 -0.03587 -0.05471
 H872 H 1.05491 -0.11417 -0.09282
 C873 C 1.13855 0.36919 0.37965
 C874 C 1.13310 0.33820 0.36061
 C875 C 1.15262 0.31904 0.34511
 C876 C 1.17750 0.33065 0.34829
 C877 C 1.18269 0.36197 0.36727
 C878 C 1.16322 0.38126 0.38324
 C879 C 1.11798 0.38936 0.39610
 C880 C 1.12332 0.42016 0.41555
 C881 C 1.10362 0.43897 0.43151
 C882 C 1.07874 0.42719 0.42784
 C883 C 1.07387 0.39636 0.40789
 C884 C 1.09336 0.37731 0.39216
 C885 C 1.16785 0.41231 0.40275
 C886 C 1.14825 0.43137 0.41870
 C887 C 1.10822 0.32700 0.35729
 C888 C 1.08868 0.34626 0.37276
 H889 H 1.18678 0.42192 0.40581
 H890 H 1.15266 0.45509 0.43360
 H891 H 1.10383 0.30312 0.34262
 H892 H 1.06974 0.33668 0.36959
 H893 H 1.14841 0.29539 0.32995
 H894 H 1.20181 0.37102 0.36988
 H895 H 1.10765 0.46264 0.44672
 H896 H 1.05491 0.38677 0.40497
 C897 C 0.63832 -0.13017 0.37878
 C898 C 0.63314 -0.16201 0.36102
 C899 C 0.65274 -0.18077 0.34529
 C900 C 0.67743 -0.16797 0.34708
 C901 C 0.68234 -0.13575 0.36464
 C902 C 0.66279 -0.11680 0.38077
 C903 C 0.61769 -0.11057 0.39573
 C904 C 0.62279 -0.07896 0.41397
 C905 C 0.60305 -0.06068 0.43040
 C906 C 0.57839 -0.07371 0.42823
 C907 C 0.57373 -0.10544 0.40971
 C908 C 0.59327 -0.12400 0.39353
 C909 C 0.66715 -0.08491 0.39901
 C910 C 0.64750 -0.06636 0.41540
 C911 C 0.60847 -0.17454 0.35936
 C912 C 0.58885 -0.15584 0.37533
 H913 H 0.68592 -0.07427 0.40076
 H914 H 0.65169 -0.04195 0.42929
 H915 H 0.60429 -0.19907 0.34566
 H916 H 0.57008 -0.16646 0.37351
 H917 H 0.64877 -0.20515 0.33117
 H918 H 0.70131 -0.12582 0.36614
 H919 H 0.60688 -0.03639 0.44471
 H920 H 0.55492 -0.11604 0.40825
 C921 C 0.63831 0.37125 -0.12276
 C922 C 0.63301 0.33968 -0.14091
 C923 C 0.65255 0.32080 -0.15666
 C924 C 0.67729 0.33328 -0.15467
 C925 C 0.68234 0.36524 -0.13670
 C926 C 0.66286 0.38424 -0.12040
 C927 C 0.61772 0.39103 -0.10590
 C928 C 0.62292 0.42236 -0.08725
 C929 C 0.60320 0.44081 -0.07093
 C930 C 0.57844 0.42822 -0.07361
 C931 C 0.57371 0.39684 -0.09272
 C932 C 0.59323 0.37809 -0.10870
 C933 C 0.66733 0.41583 -0.10167
 C934 C 0.64771 0.43450 -0.08529
 C935 C 0.60827 0.32755 -0.14302
 C936 C 0.58869 0.34649 -0.12725
 H937 H 0.68616 0.42612 -0.09955
 H938 H 0.65197 0.45868 -0.07102
 H939 H 0.60400 0.30321 -0.15699
 H940 H 0.56985 0.33624 -0.12949
 H941 H 0.64848 0.29660 -0.17100
 H942 H 0.70137 0.37492 -0.13505
 H943 H 0.60713 0.46488 -0.05632
 H944 H 0.55486 0.38657 -0.09485
 C945 C 1.13757 0.12986 -0.12986
 C946 C 1.16163 0.11573 -0.13093
 C947 C 1.18101 0.13529 -0.14791
 C948 C 1.17657 0.16921 -0.16337
 C949 C 1.15204 0.18266 -0.16164
 C950 C 1.13263 0.16317 -0.14521
 C951 C 1.11710 0.10947 -0.11226
 C952 C 1.09300 0.12361 -0.11174
 C953 C 1.07362 0.10439 -0.09491
 C954 C 1.07815 0.07144 -0.07809
 C955 C 1.10246 0.05754 -0.07875
 C956 C 1.12202 0.07642 -0.09611
 C957 C 1.10826 0.17640 -0.14413
 C958 C 1.08876 0.15690 -0.12774
 C959 C 1.16584 0.08240 -0.11477
 C960 C 1.14640 0.06312 -0.09758
 H961 H 1.10423 0.20207 -0.15604
 H962 H 1.07023 0.16807 -0.12743
 H963 H 1.18435 0.07118 -0.11531
 H964 H 1.15048 0.03761 -0.08536
 H965 H 1.19962 0.12450 -0.14771
 H966 H 1.14751 0.20762 -0.17455
 H967 H 1.05508 0.11554 -0.09423
 H968 H 1.10609 0.03215 -0.06596
 C969 C 1.13652 0.62975 0.36705
 C970 C 1.16139 0.62140 0.37426
 C971 C 1.18063 0.64130 0.35740
 C972 C 1.17502 0.66955 0.33383
 C973 C 1.14995 0.67745 0.32698
 C974 C 1.13065 0.65764 0.34344
 C975 C 1.11620 0.60906 0.38469
 C976 C 1.09139 0.61750 0.37737
 C977 C 1.07213 0.59815 0.39447
 C978 C 1.07744 0.57069 0.41912
 C979 C 1.10251 0.56236 0.42596
 C980 C 1.12197 0.58150 0.40874
 C981 C 1.10558 0.66521 0.33675
 C982 C 1.08627 0.64544 0.35340
 C983 C 1.16646 0.59348 0.39831
 C984 C 1.14709 0.57391 0.41531
 H985 H 1.10084 0.68666 0.31857
 H986 H 1.06718 0.65221 0.34761
 H987 H 1.18556 0.58680 0.40419
 H988 H 1.15182 0.55272 0.43381
 H989 H 1.19988 0.63521 0.36294
 H990 H 1.14548 0.69874 0.30842
 H991 H 1.05299 0.60500 0.38900
 H992 H 1.10688 0.54131 0.44482
 C993 C 0.63763 0.12565 0.36570
 C994 C 0.66234 0.11503 0.37084
 C995 C 0.68184 0.13471 0.35434
 C996 C 0.67663 0.16494 0.33322
 C997 C 0.65171 0.17482 0.32805
 C998 C 0.63216 0.15535 0.34423
 C999 C 0.61708 0.10582 0.38375
 C1000 C 0.59246 0.11689 0.37892
 C1001 C 0.57302 0.09853 0.39664
 C1002 C 0.57797 0.06938 0.41939
 C1003 C 0.60284 0.05869 0.42410
 C1004 C 0.62248 0.07674 0.40613
 C1005 C 0.60727 0.16535 0.33976
 C1006 C 0.58774 0.14645 0.35685
 C1007 C 0.66700 0.08535 0.39287
 C1008 C 0.64742 0.06662 0.41033
 H1009 H 0.60286 0.18820 0.32319
 H1010 H 0.56881 0.15528 0.35304
 H1011 H 0.68596 0.07678 0.39695
 H1012 H 0.65185 0.04418 0.42744
 H1013 H 0.70100 0.12714 0.35859
 H1014 H 0.64753 0.19769 0.31134
 H1015 H 0.55406 0.10750 0.39327
 H1016 H 0.60691 0.03657 0.44185
 C1017 C 0.63637 0.63143 -0.13251
 C1018 C 0.66069 0.61818 -0.13251
 C1019 C 0.67991 0.63790 -0.14964
 C1020 C 0.67508 0.67102 -0.16658
 C1021 C 0.65028 0.68354 -0.16599
 C1022 C 0.63103 0.66398 -0.14917
 C1023 C 0.61607 0.61088 -0.11468
 C1024 C 0.59175 0.62417 -0.11505
 C1025 C 0.57253 0.60474 -0.09805
 C1026 C 0.57743 0.57236 -0.08032
 C1027 C 0.60198 0.55938 -0.08004
 C1028 C 0.62139 0.57851 -0.09743
 C1029 C 0.60644 0.67640 -0.14893
 C1030 C 0.58712 0.65682 -0.13215
 C1031 C 0.66530 0.58558 -0.11511
 C1032 C 0.64600 0.56612 -0.09781
 H1033 H 0.60210 0.70152 -0.16176
 H1034 H 0.56842 0.66739 -0.13246
 H1035 H 0.68401 0.57507 -0.11480
 H1036 H 0.65038 0.54118 -0.08464
 H1037 H 0.69869 0.62784 -0.14838
 H1038 H 0.64541 0.70778 -0.17997
 H1039 H 0.55381 0.61531 -0.09800
 H1040 H 0.60595 0.53451 -0.06645
 C1041 C 0.86339 -0.12529 -0.12557
 C1042 C 0.83851 -0.11923 -0.11533
 C1043 C 0.81928 -0.13466 -0.13519
 C1044 C 0.82493 -0.15558 -0.16525
 C1045 C 0.85000 -0.16141 -0.17491
 C1046 C 0.86927 -0.14642 -0.15519
 C1047 C 0.88370 -0.10911 -0.10502
 C1048 C 0.90851 -0.11534 -0.11537
 C1049 C 0.92776 -0.09942 -0.09634
 C1050 C 0.92247 -0.07693 -0.06735
 C1051 C 0.89743 -0.07127 -0.05700
 C1052 C 0.87794 -0.08744 -0.07574
 C1053 C 0.89433 -0.15221 -0.16452
 C1054 C 0.91363 -0.13695 -0.14492
 C1055 C 0.83345 -0.09777 -0.08556
 C1056 C 0.85283 -0.08209 -0.06615
 H1057 H 0.89907 -0.16858 -0.18725
 H1058 H 0.93272 -0.14194 -0.15313
 H1059 H 0.81436 -0.09290 -0.07729
 H1060 H 0.84810 -0.06557 -0.04352
 H1061 H 0.80001 -0.13008 -0.12762
 H1062 H 0.85450 -0.17811 -0.19752
 H1063 H 0.94687 -0.10394 -0.10475
 H1064 H 0.89310 -0.05408 -0.03472
 C1065 C 0.86263 0.37427 0.37571
 C1066 C 0.83794 0.37824 0.38796
 C1067 C 0.81848 0.36314 0.36834
 C1068 C 0.82371 0.34470 0.33653
 C1069 C 0.84859 0.34090 0.32485
 C1070 C 0.86811 0.35554 0.34433
 C1071 C 0.88316 0.39019 0.39597
 C1072 C 0.90779 0.38604 0.38364
 C1073 C 0.92722 0.40167 0.40250
 C1074 C 0.92225 0.42187 0.43324
 C1075 C 0.89742 0.42560 0.44547
 C1076 C 0.87777 0.40960 0.42698
 C1077 C 0.89300 0.35180 0.33298
 C1078 C 0.91252 0.36676 0.35235
 C1079 C 0.83328 0.39738 0.41943
 C1080 C 0.85285 0.41288 0.43855
 H1081 H 0.89742 0.33729 0.30887
 H1082 H 0.93147 0.36341 0.34262
 H1083 H 0.81434 0.40058 0.42924
 H1084 H 0.84844 0.42761 0.46254
 H1085 H 0.79934 0.36611 0.37744
 H1086 H 0.85277 0.32606 0.30082
 H1087 H 0.94619 0.39887 0.39259
 H1088 H 0.89337 0.44113 0.46907
 C1089 C 0.36349 -0.12353 0.37166
 C1090 C 0.33950 -0.12634 0.38684
 C1091 C 0.32044 -0.14269 0.36740
 C1092 C 0.32489 -0.15536 0.33218
 C1093 C 0.34936 -0.15124 0.31751
 C1094 C 0.36859 -0.13604 0.33720
 C1095 C 0.38375 -0.10739 0.39235
 C1096 C 0.40794 -0.10593 0.37754
 C1097 C 0.42717 -0.09090 0.39725
 C1098 C 0.42234 -0.07640 0.43121
 C1099 C 0.39790 -0.07758 0.44556
 C1100 C 0.37857 -0.09366 0.42643
 C1101 C 0.39302 -0.13380 0.32317
 C1102 C 0.41240 -0.11920 0.34310
 C1103 C 0.33503 -0.11262 0.42120
 C1104 C 0.35417 -0.09629 0.44052
 H1105 H 0.39723 -0.14363 0.29664
 H1106 H 0.43100 -0.11812 0.33139
 H1107 H 0.31654 -0.11439 0.43323
 H1108 H 0.34987 -0.08589 0.46678
 H1109 H 0.30197 -0.14374 0.37944
 H1110 H 0.35432 -0.16212 0.29172
 H1111 H 0.44582 -0.08960 0.38566
 H1112 H 0.39398 -0.06618 0.47147
 C1113 C 0.36234 0.37582 -0.12563
 C1114 C 0.33758 0.38046 -0.11397
 C1115 C 0.31817 0.36524 -0.13360
 C1116 C 0.32351 0.34595 -0.16487
 C1117 C 0.34847 0.34155 -0.17602
 C1118 C 0.36793 0.35636 -0.15651
 C1119 C 0.38282 0.39176 -0.10524
 C1120 C 0.40752 0.38695 -0.11700
 C1121 C 0.42691 0.40254 -0.09808
 C1122 C 0.42190 0.42341 -0.06785
 C1123 C 0.39698 0.42786 -0.05615
 C1124 C 0.37735 0.41187 -0.07474
 C1125 C 0.39290 0.35206 -0.16729
 C1126 C 0.41236 0.36707 -0.14782
 C1127 C 0.33280 0.40036 -0.08305
 C1128 C 0.35233 0.41586 -0.06385
 H1129 H 0.39746 0.33702 -0.19099
 H1130 H 0.43136 0.36323 -0.15713
 H1131 H 0.31381 0.40414 -0.07366
 H1132 H 0.34773 0.43113 -0.04032
 H1133 H 0.29900 0.36880 -0.12488
 H1134 H 0.35276 0.32611 -0.19963
 H1135 H 0.44592 0.39922 -0.10756
 H1136 H 0.39286 0.44402 -0.03299
 C1137 C 1.13818 -0.12163 0.12661
 C1138 C 1.16297 -0.11299 0.11724
 C1139 C 1.18236 -0.13191 0.13331
 C1140 C 1.17696 -0.15950 0.15822
 C1141 C 1.15197 -0.16758 0.16731
 C1142 C 1.13255 -0.14874 0.15168
 C1143 C 1.11770 -0.10208 0.10975
 C1144 C 1.09297 -0.11085 0.11920
 C1145 C 1.07354 -0.09278 0.10265
 C1146 C 1.07858 -0.06626 0.07645
 C1147 C 1.10357 -0.05740 0.06767
 C1148 C 1.12321 -0.07528 0.08426
 C1149 C 1.10758 -0.15652 0.16067
 C1150 C 1.08812 -0.13788 0.14471
 C1151 C 1.16777 -0.08572 0.09189
 C1152 C 1.14824 -0.06725 0.07564
 H1153 H 1.10305 -0.17727 0.18013
 H1154 H 1.06911 -0.14487 0.15228
 H1155 H 1.18678 -0.07869 0.08439
 H1156 H 1.15275 -0.04661 0.05603
 H1157 H 1.20155 -0.12557 0.12613
 H1158 H 1.14768 -0.18825 0.18698
 H1159 H 1.05447 -0.09987 0.10982
 H1160 H 1.10773 -0.03694 0.04774
 C1161 C 1.13772 0.37877 0.62581
 C1162 C 1.16089 0.37549 0.60820
 C1163 C 1.17964 0.35546 0.62446
 C1164 C 1.17517 0.33863 0.65790
 C1165 C 1.15185 0.34246 0.67519
 C1166 C 1.13307 0.36247 0.65929
 C1167 C 1.11780 0.39927 0.60868
 C1168 C 1.09452 0.40190 0.62607
 C1169 C 1.07533 0.42013 0.60914
 C1170 C 1.07923 0.43578 0.57505
 C1171 C 1.10292 0.43378 0.55835
 C1172 C 1.12224 0.41524 0.57497
 C1173 C 1.10969 0.36633 0.67616
 C1174 C 1.09072 0.38569 0.65979
 C1175 C 1.16472 0.39209 0.57461
 C1176 C 1.14574 0.41165 0.55829
 H1177 H 1.10594 0.35406 0.70210
 H1178 H 1.07286 0.38775 0.67351
 H1179 H 1.18249 0.38976 0.56070
 H1180 H 1.14942 0.42378 0.53226
 H1181 H 1.19750 0.35243 0.61093
 H1182 H 1.14841 0.33012 0.70120
 H1183 H 1.05724 0.42173 0.62232
 H1184 H 1.10608 0.44559 0.53202
 C1185 C 0.63748 -0.12273 0.62641
 C1186 C 0.66170 -0.12057 0.61166
 C1187 C 0.68084 -0.13984 0.62782
 C1188 C 0.67567 -0.16159 0.65799
 C1189 C 0.65129 -0.16363 0.67231
 C1190 C 0.63215 -0.14396 0.65682
 C1191 C 0.61729 -0.10252 0.60958
 C1192 C 0.59312 -0.10470 0.62437
 C1193 C 0.57384 -0.08632 0.60769
 C1194 C 0.57849 -0.06595 0.57629
 C1195 C 0.60303 -0.06343 0.56228
 C1196 C 0.62248 -0.08180 0.57878
 C1197 C 0.60780 -0.14502 0.67117
 C1198 C 0.58862 -0.12569 0.65523
 C1199 C 0.66623 -0.09929 0.58103
 C1200 C 0.64694 -0.08034 0.56479
 H1201 H 0.60355 -0.16095 0.69489
 H1202 H 0.57008 -0.12741 0.66705
 H1203 H 0.68482 -0.09742 0.56936
 H1204 H 0.65119 -0.06455 0.54098
 H1205 H 0.69965 -0.13833 0.61684
 H1206 H 0.64742 -0.18006 0.69584
 H1207 H 0.55513 -0.08834 0.61895
 H1208 H 0.60690 -0.04790 0.53816
 C1209 C 0.63769 0.38062 0.12631
 C1210 C 0.66084 0.37710 0.10871
 C1211 C 0.67960 0.35726 0.12520
 C1212 C 0.67515 0.34089 0.15888
 C1213 C 0.65187 0.34511 0.17620
 C1214 C 0.63308 0.36485 0.16004
 C1215 C 0.61773 0.40075 0.10888
 C1216 C 0.59446 0.40361 0.12626
 C1217 C 0.57524 0.42153 0.10908
 C1218 C 0.57912 0.43663 0.07473
 C1219 C 0.60281 0.43444 0.05804
 C1220 C 0.62214 0.41621 0.07492
 C1221 C 0.60971 0.36888 0.17688
 C1222 C 0.59070 0.38792 0.16024
 C1223 C 0.66464 0.39318 0.07487
 C1224 C 0.64562 0.41243 0.05828
 H1225 H 0.60599 0.35696 0.20300
 H1226 H 0.57286 0.39014 0.17396
 H1227 H 0.68241 0.39066 0.06101
 H1228 H 0.64926 0.42420 0.03207
 H1229 H 0.69741 0.35394 0.11163
 H1230 H 0.64844 0.33317 0.20239
 H1231 H 0.55717 0.42334 0.12232
 H1232 H 0.60596 0.44581 0.03152
 C1233 C 0.86294 0.12545 0.12743
 C1234 C 0.86552 0.13231 0.16400
 C1235 C 0.84669 0.15048 0.18220
 C1236 C 0.82576 0.16329 0.16393
 C1237 C 0.82324 0.15557 0.12725
 C1238 C 0.84174 0.13641 0.10893
 C1239 C 0.88303 0.10691 0.10808
 C1240 C 0.88041 0.09947 0.07156
 C1241 C 0.89976 0.08195 0.05334
 C1242 C 0.92175 0.07311 0.07130
 C1243 C 0.92400 0.08077 0.10781
 C1244 C 0.90460 0.09730 0.12646
 C1245 C 0.83976 0.12852 0.07237
 C1246 C 0.85867 0.11013 0.05407
 C1247 C 0.88712 0.12152 0.18162
 C1248 C 0.90643 0.10451 0.16310
 H1249 H 0.82348 0.13668 0.05773
 H1250 H 0.85638 0.10460 0.02592
 H1251 H 0.88930 0.12677 0.20984
 H1252 H 0.92292 0.09699 0.17757
 H1253 H 0.84858 0.15500 0.21061
 H1254 H 0.80734 0.16529 0.11272
 H1255 H 0.89807 0.07610 0.02519
 H1256 H 0.94078 0.07345 0.12174
 C1257 C 0.86217 0.62255 0.62804
 C1258 C 0.86424 0.62762 0.66501
 C1259 C 0.84533 0.64541 0.68348
 C1260 C 0.82487 0.65966 0.66513
 C1261 C 0.82284 0.65363 0.62804
 C1262 C 0.84139 0.63484 0.60943
 C1263 C 0.88243 0.60467 0.60837
 C1264 C 0.88032 0.59912 0.57141
 C1265 C 0.89981 0.58228 0.55286
 C1266 C 0.92146 0.57222 0.57097
 C1267 C 0.92328 0.57809 0.60790
 C1268 C 0.90369 0.59390 0.62686
 C1269 C 0.83989 0.62874 0.57244
 C1270 C 0.85893 0.61095 0.55382
 C1271 C 0.88549 0.61558 0.68272
 C1272 C 0.90498 0.59923 0.66391
 H1273 H 0.82392 0.63790 0.55771
 H1274 H 0.85702 0.60683 0.52535
 H1275 H 0.88728 0.61940 0.71126
 H1276 H 0.92120 0.59079 0.67850
 H1277 H 0.84682 0.64865 0.71213
 H1278 H 0.80737 0.66452 0.61340
 H1279 H 0.89851 0.57790 0.52437
 H1280 H 0.93984 0.56989 0.62188
 C1281 C 0.36297 0.12353 0.62892
 C1282 C 0.36645 0.13233 0.66486
 C1283 C 0.34755 0.14998 0.68346
 C1284 C 0.32565 0.16058 0.66606
 C1285 C 0.32225 0.15080 0.63006
 C1286 C 0.34081 0.13202 0.61147
 C1287 C 0.38310 0.10561 0.60904
 C1288 C 0.37957 0.09622 0.57320
 C1289 C 0.39891 0.07926 0.55445
 C1290 C 0.42179 0.07287 0.57110
 C1291 C 0.42500 0.08265 0.60695
 C1292 C 0.40563 0.09859 0.62620
 C1293 C 0.33793 0.12221 0.57557
 C1294 C 0.35689 0.10437 0.55685
 C1295 C 0.38902 0.12405 0.68135
 C1296 C 0.40836 0.10769 0.66227
 H1297 H 0.32091 0.12848 0.56176
 H1298 H 0.35389 0.09730 0.52925
 H1299 H 0.39192 0.13081 0.70909
 H1300 H 0.42560 0.10217 0.67585
 H1301 H 0.35016 0.15588 0.71146
 H1302 H 0.30562 0.15865 0.61612
 H1303 H 0.39643 0.07184 0.52685
 H1304 H 0.44249 0.07734 0.61999
 C1305 C 0.36251 0.62333 0.12744
 C1306 C 0.36398 0.62641 0.16472
 C1307 C 0.34527 0.64453 0.18334
 C1308 C 0.32555 0.66067 0.16492
 C1309 C 0.32413 0.65662 0.12749
 C1310 C 0.34250 0.63775 0.10866
 C1311 C 0.38262 0.60530 0.10762
 C1312 C 0.38114 0.60189 0.07029
 C1313 C 0.40059 0.58512 0.05159
 C1314 C 0.42155 0.57299 0.07007
 C1315 C 0.42265 0.57646 0.10737
 C1316 C 0.40310 0.59222 0.12639
 C1317 C 0.34160 0.63370 0.07132
 C1318 C 0.36050 0.61584 0.05250
 C1319 C 0.38443 0.61208 0.18262
 C1320 C 0.40376 0.59543 0.16374
 H1321 H 0.32625 0.64462 0.05646
 H1322 H 0.35914 0.61342 0.02373
 H1323 H 0.38574 0.61434 0.21140
 H1324 H 0.41939 0.58519 0.17852
 H1325 H 0.34632 0.64640 0.21219
 H1326 H 0.30924 0.66905 0.11283
 H1327 H 0.39983 0.58244 0.02279
 H1328 H 0.43865 0.56648 0.12149
   
