data_POSCAR
  _audit_creation_date              2014-09-24
  _audit_creation_method            'ToBaCCo'
  _symmetry_space_group_name_H-M    'P1'
  _symmetry_Int_Tables_number       1
  _symmetry_cell_setting            triclinic
  loop_
  _symmetry_equiv_pos_as_xyz
 x,y,z
_cell_length_a 36.4825
_cell_length_b 36.4514
_cell_length_c 36.4376
_cell_angle_alpha 89.914100
_cell_angle_beta 90.005600
_cell_angle_gamma 89.952000
loop_
  _atom_site_label
  _atom_site_type_symbol
  _atom_site_fract_x
  _atom_site_fract_y
  _atom_site_fract_z
C1 C 0.24099 0.92041 0.02713
 C2 C 0.23891 0.90235 -0.00672
 C3 C 0.23987 0.92157 -0.04020
 C4 C 0.24400 0.96035 -0.03968
 C5 C 0.24581 0.97902 -0.00553
 C6 C 0.24400 0.95901 0.02788
 C7 C 0.24463 0.97817 0.06131
 C8 C 0.24876 1.01593 0.06211
 C9 C 0.25116 1.03630 0.02949
 C10 C 0.24899 1.01791 -0.00470
 C11 C 0.24470 0.98119 -0.07222
 C12 C 0.24889 1.01907 -0.07139
 C13 C 0.25052 1.03824 -0.03795
 C14 C 0.25532 1.07695 -0.03672
 C15 C 0.25799 1.09436 -0.00246
 C16 C 0.25594 1.07463 0.03033
 H17 H 0.24195 0.96423 0.08739
 H18 H 0.24997 1.02898 0.08874
 H19 H 0.24200 0.96856 -0.09889
 H20 H 0.25104 1.03303 -0.09749
 H21 H 0.23681 0.87266 -0.00695
 H22 H 0.26125 1.12392 -0.00121
 C23 C 0.75643 0.41710 0.46642
 C24 C 0.75831 0.39904 0.50044
 C25 C 0.76033 0.41870 0.53337
 C26 C 0.76135 0.45734 0.53256
 C27 C 0.75911 0.47604 0.49853
 C28 C 0.75703 0.45594 0.46529
 C29 C 0.75484 0.47526 0.43192
 C30 C 0.75502 0.51342 0.43119
 C31 C 0.75584 0.53383 0.46388
 C32 C 0.75792 0.51496 0.49786
 C33 C 0.76397 0.47774 0.56514
 C34 C 0.76340 0.51575 0.56442
 C35 C 0.75903 0.53491 0.53123
 C36 C 0.75586 0.57355 0.53059
 C37 C 0.75413 0.59182 0.49684
 C38 C 0.75509 0.57261 0.46358
 H39 H 0.75291 0.46114 0.40592
 H40 H 0.75395 0.52670 0.40466
 H41 H 0.76643 0.46454 0.59164
 H42 H 0.76604 0.52990 0.59035
 H43 H 0.75688 0.36934 0.50137
 H44 H 0.75284 0.62155 0.49639
 C45 C 0.73331 1.03485 0.91956
 C46 C 0.73288 1.00164 0.90013
 C47 C 0.73691 0.96767 0.91788
 C48 C 0.74122 0.96673 0.95657
 C49 C 0.73972 0.99990 0.97686
 C50 C 0.73602 1.03397 0.95834
 C51 C 0.73402 1.06636 0.97914
 C52 C 0.73778 1.06570 1.01692
 C53 C 0.74166 1.03241 1.03601
 C54 C 0.74259 0.99912 1.01579
 C55 C 0.74768 0.93366 0.97547
 C56 C 0.75037 0.93284 1.01358
 C57 C 0.74741 0.96517 1.03430
 C58 C 0.75048 0.96466 1.07298
 C59 C 0.75018 0.99775 1.09240
 C60 C 0.74646 1.03163 1.07458
 H61 H 0.72950 1.09284 0.96649
 H62 H 0.73776 1.09187 1.03078
 H63 H 0.75079 0.90797 0.96101
 H64 H 0.75528 0.90661 1.02663
 H65 H 0.73093 1.00228 0.87041
 H66 H 0.75307 0.99712 1.12205
 C67 C 0.25064 0.53174 0.41644
 C68 C 0.25080 0.49803 0.39796
 C69 C 0.25107 0.46465 0.41723
 C70 C 0.25141 0.46497 0.45613
 C71 C 0.25056 0.49895 0.47503
 C72 C 0.25043 0.53238 0.45515
 C73 C 0.25095 0.56576 0.47446
 C74 C 0.25087 0.56634 0.51251
 C75 C 0.25029 0.53358 0.53279
 C76 C 0.25045 0.49957 0.51397
 C77 C 0.25314 0.43226 0.47662
 C78 C 0.25275 0.43287 0.51483
 C79 C 0.25093 0.46623 0.53404
 C80 C 0.25003 0.46723 0.57285
 C81 C 0.24988 0.50103 0.59097
 C82 C 0.25026 0.53403 0.57147
 H83 H 0.25157 0.59191 0.46038
 H84 H 0.25138 0.59284 0.52587
 H85 H 0.25483 0.40580 0.46331
 H86 H 0.25402 0.40690 0.52922
 H87 H 0.25116 0.49780 0.36820
 H88 H 0.24961 0.50167 0.62074
 C89 C 0.92171 0.23930 -0.02916
 C90 C 0.90324 0.23763 0.00472
 C91 C 0.92238 0.23593 0.03807
 C92 C 0.96113 0.23465 0.03785
 C93 C 0.98021 0.23573 0.00402
 C94 C 0.96051 0.23653 -0.02952
 C95 C 0.98006 0.23286 -0.06259
 C96 C 1.01805 0.23298 -0.06296
 C97 C 1.03816 0.23667 -0.03028
 C98 C 1.01917 0.23604 0.00366
 C99 C 0.98127 0.23182 0.07062
 C100 C 1.01940 0.23206 0.07027
 C101 C 1.03896 0.23572 0.03717
 C102 C 1.07785 0.23751 0.03655
 C103 C 1.09604 0.23782 0.00261
 C104 C 1.07688 0.23928 -0.03071
 H105 H 0.96616 0.22994 -0.08864
 H106 H 1.03157 0.23028 -0.08926
 H107 H 0.96772 0.22939 0.09693
 H108 H 1.03343 0.22943 0.09630
 H109 H 0.87357 0.23959 0.00532
 H110 H 1.12572 0.24011 0.00221
 C111 C 0.57378 0.75572 0.53435
 C112 C 0.59275 0.75676 0.50102
 C113 C 0.57430 0.75579 0.46738
 C114 C 0.53560 0.75582 0.46690
 C115 C 0.51596 0.75626 0.50054
 C116 C 0.53510 0.75565 0.53440
 C117 C 0.51513 0.75388 0.56731
 C118 C 0.47701 0.75366 0.56703
 C119 C 0.45738 0.75539 0.53384
 C120 C 0.47706 0.75618 0.50029
 C121 C 0.51606 0.75425 0.43375
 C122 C 0.47804 0.75471 0.43352
 C123 C 0.45799 0.75632 0.46645
 C124 C 0.41931 0.75738 0.46626
 C125 C 0.40007 0.75671 0.49958
 C126 C 0.41858 0.75577 0.53334
 H127 H 0.52877 0.75249 0.59364
 H128 H 0.46310 0.75203 0.59320
 H129 H 0.52990 0.75255 0.40757
 H130 H 0.46454 0.75346 0.40711
 H131 H 0.62249 0.75648 0.50126
 H132 H 0.37035 0.75717 0.49923
 C133 C 0.03161 0.74469 -0.07632
 C134 C -0.00181 0.74758 -0.09491
 C135 C -0.03538 0.75139 -0.07651
 C136 C -0.03573 0.74988 -0.03752
 C137 C -0.00197 0.74773 -0.01807
 C138 C 0.03175 0.74633 -0.03751
 C139 C 0.06477 0.74867 -0.01773
 C140 C 0.06490 0.74893 0.02029
 C141 C 0.03200 0.74739 0.04022
 C142 C -0.00178 0.74839 0.02100
 C143 C -0.06844 0.75256 -0.01728
 C144 C -0.06830 0.75110 0.02078
 C145 C -0.03527 0.75029 0.04070
 C146 C -0.03484 0.75046 0.07975
 C147 C -0.00110 0.74658 0.09808
 C148 C 0.03217 0.74542 0.07893
 H149 H 0.09099 0.75041 -0.03147
 H150 H 0.09123 0.75039 0.03387
 H151 H -0.09476 0.75595 -0.03036
 H152 H -0.09463 0.75114 0.03437
 H153 H -0.00178 0.74654 -0.12471
 H154 H -0.00052 0.74587 0.12785
 C155 C 0.46614 0.25616 0.58256
 C156 C 0.49961 0.25700 0.60144
 C157 C 0.53321 0.25869 0.58268
 C158 C 0.53337 0.25839 0.54386
 C159 C 0.49975 0.25576 0.52446
 C160 C 0.46606 0.25466 0.54379
 C161 C 0.43312 0.25204 0.52388
 C162 C 0.43320 0.25133 0.48570
 C163 C 0.46625 0.25289 0.46599
 C164 C 0.49981 0.25459 0.48553
 C165 C 0.56623 0.26134 0.52388
 C166 C 0.56633 0.25925 0.48584
 C167 C 0.53349 0.25504 0.46622
 C168 C 0.53349 0.25143 0.42767
 C169 C 0.50024 0.25105 0.40863
 C170 C 0.46670 0.25259 0.42717
 H171 H 0.40689 0.25045 0.53765
 H172 H 0.40709 0.24930 0.47176
 H173 H 0.59234 0.26526 0.53733
 H174 H 0.59246 0.26122 0.47190
 H175 H 0.49948 0.25757 0.63120
 H176 H 0.50046 0.24941 0.37890
 C177 C 1.08577 0.03258 0.26187
 C178 C 1.10439 -0.00100 0.25924
 C179 C 1.08550 -0.03461 0.25900
 C180 C 1.04672 -0.03453 0.26119
 C181 C 1.02751 -0.00066 0.26216
 C182 C 1.04703 0.03292 0.26332
 C183 C 1.02727 0.06596 0.26595
 C184 C 0.98913 0.06619 0.26480
 C185 C 0.96931 0.03341 0.26062
 C186 C 0.98860 -0.00037 0.26076
 C187 C 1.02648 -0.06738 0.26058
 C188 C 0.98858 -0.06705 0.26089
 C189 C 0.96909 -0.03391 0.25919
 C190 C 0.93056 -0.03356 0.25570
 C191 C 0.91199 -0.00006 0.25410
 C192 C 0.93070 0.03339 0.25638
 H193 H 1.04111 0.09207 0.26855
 H194 H 0.97534 0.09240 0.26668
 H195 H 1.03945 -0.09398 0.25927
 H196 H 0.97482 -0.09330 0.26136
 H197 H 1.13407 -0.00094 0.25728
 H198 H 0.88241 -0.00004 0.25105
 C199 C 0.42744 0.47179 0.75119
 C200 C 0.40835 0.50504 0.75146
 C201 C 0.42686 0.53868 0.75189
 C202 C 0.46564 0.53920 0.75163
 C203 C 0.48526 0.50562 0.75039
 C204 C 0.46608 0.47181 0.74999
 C205 C 0.48598 0.43884 0.74892
 C206 C 0.52403 0.43901 0.74865
 C207 C 0.54368 0.47214 0.75014
 C208 C 0.52418 0.50578 0.75039
 C209 C 0.48529 0.57229 0.75363
 C210 C 0.52344 0.57245 0.75336
 C211 C 0.54346 0.53954 0.75101
 C212 C 0.58228 0.53946 0.74958
 C213 C 0.60113 0.50592 0.75050
 C214 C 0.58238 0.47241 0.75162
 H215 H 0.47231 0.41250 0.74831
 H216 H 0.53788 0.41278 0.74741
 H217 H 0.47138 0.59843 0.75566
 H218 H 0.53711 0.59871 0.75523
 H219 H 0.37863 0.50472 0.75242
 H220 H 0.63086 0.50590 0.75047
 C221 C 1.03646 0.92904 0.74287
 C222 C 1.00248 0.91123 0.73995
 C223 C 0.96961 0.93073 0.73924
 C224 C 0.97008 0.96932 0.74028
 C225 C 1.00385 0.98815 0.74354
 C226 C 1.03727 0.96813 0.74379
 C227 C 1.07038 0.98781 0.74289
 C228 C 1.07071 1.02600 0.74423
 C229 C 1.03791 1.04633 0.74678
 C230 C 1.00410 1.02712 0.74580
 C231 C 0.93743 0.98945 0.73752
 C232 C 0.93761 1.02729 0.74006
 C233 C 0.97043 1.04671 0.74578
 C234 C 0.97038 1.08543 0.74910
 C235 C 1.00406 1.10412 0.74828
 C236 C 1.03784 1.08536 0.74728
 H237 H 1.09645 0.97383 0.74056
 H238 H 1.09711 1.03933 0.74257
 H239 H 0.91129 0.97612 0.73320
 H240 H 0.91158 1.04115 0.73694
 H241 H 1.00139 0.88147 0.73984
 H242 H 1.00411 1.13386 0.74981
 C243 C 0.47319 0.57941 0.24698
 C244 C 0.50700 0.59769 0.24567
 C245 C 0.54026 0.57841 0.24606
 C246 C 0.53994 0.53963 0.24569
 C247 C 0.50596 0.52073 0.24656
 C248 C 0.47254 0.54063 0.24774
 C249 C 0.43934 0.52125 0.25071
 C250 C 0.43881 0.48319 0.25081
 C251 C 0.47147 0.46294 0.24860
 C252 C 0.50541 0.48178 0.24729
 C253 C 0.57267 0.51925 0.24517
 C254 C 0.57207 0.48105 0.24538
 C255 C 0.53875 0.46176 0.24695
 C256 C 0.53781 0.42294 0.24839
 C257 C 0.50402 0.40479 0.24837
 C258 C 0.47100 0.42423 0.24801
 H259 H 0.41331 0.53521 0.25322
 H260 H 0.41245 0.46976 0.25298
 H261 H 0.59911 0.53266 0.24448
 H262 H 0.59807 0.46676 0.24451
 H263 H 0.50746 0.62744 0.24595
 H264 H 0.50340 0.37503 0.24864
 O265 O 0.25997 0.15274 0.19365
 O266 O 0.30576 0.14698 0.24609
 O267 O 0.16565 0.19420 0.24701
 O268 O 0.15182 0.24249 0.28322
 O269 O 0.20880 0.24519 0.14908
 O270 O 0.25821 0.28846 0.13903
 O271 O 0.25734 0.30140 0.33811
 O272 O 0.21669 0.25178 0.34866
 O273 O 0.35330 0.24948 0.29547
 O274 O 0.36410 0.20706 0.24249
 O275 O 0.30936 0.34285 0.24260
 O276 O 0.25508 0.35238 0.20098
 O277 O 0.26012 0.34393 0.29244
 O278 O 0.21845 0.35443 0.24133
 O279 O 0.35334 0.29873 0.24685
 O280 O 0.36646 0.24812 0.20565
 O281 O 0.30936 0.25403 0.33957
 O282 O 0.26463 0.21014 0.35128
 O283 O 0.26193 0.19696 0.14948
 O284 O 0.29968 0.24820 0.13834
 O285 O 0.16432 0.24570 0.19289
 O286 O 0.15348 0.28687 0.24324
 O287 O 0.21150 0.15197 0.25110
 O288 O 0.26126 0.13738 0.28056
 Zr289 Zr 0.25964 0.18221 0.24376
 O290 O 0.29225 0.21473 0.27858
 Zr291 Zr 0.19357 0.24494 0.24296
 O292 O 0.22431 0.28099 0.27634
 Zr293 Zr 0.25809 0.24601 0.17867
 O294 O 0.29214 0.28071 0.20951
 Zr295 Zr 0.25996 0.25076 0.30998
 O296 O 0.22671 0.21420 0.27927
 Zr297 Zr 0.32439 0.24932 0.24567
 O298 O 0.29420 0.21433 0.21072
 Zr299 Zr 0.25946 0.31334 0.24379
 O300 O 0.22487 0.28096 0.21011
 O301 O 0.22469 0.21119 0.20931
 O302 O 0.29403 0.28453 0.27905
 C303 C 0.26181 0.16347 0.16002
 C304 C 0.17760 0.16121 0.25131
 C305 C 0.17513 0.24571 0.15927
 C306 C 0.25809 0.33471 0.32633
 C307 C 0.34289 0.25230 0.32896
 C308 C 0.34293 0.33221 0.24482
 H309 H 0.30722 0.19869 0.29457
 H310 H 0.30725 0.29565 0.19268
 H311 H 0.20908 0.19476 0.19438
 H312 H 0.20746 0.29621 0.29114
 H313 H 0.19983 0.23156 0.34211
 H314 H 0.15934 0.25842 0.30384
 H315 H 0.36045 0.26656 0.18664
 H316 H 0.32036 0.23339 0.14787
 H317 H 0.24801 0.18994 0.34418
 H318 H 0.26740 0.14756 0.30491
 H319 H 0.27413 0.34655 0.18261
 H320 H 0.23862 0.30589 0.14610
 H321 H 0.32047 0.15161 0.22372
 H322 H 0.36062 0.19066 0.26387
 H323 H 0.16417 0.30773 0.22961
 H324 H 0.20063 0.34961 0.26123
 O325 O 0.75468 0.85131 0.20664
 O326 O 0.71340 0.86065 0.25788
 O327 O 0.84908 0.80448 0.25612
 O328 O 0.86113 0.75636 0.29351
 O329 O 0.80393 0.75612 0.16004
 O330 O 0.74912 0.71626 0.14962
 O331 O 0.75687 0.70280 0.34937
 O332 O 0.79845 0.75281 0.35859
 O333 O 0.66031 0.75483 0.30952
 O334 O 0.64993 0.79918 0.25583
 O335 O 0.70073 0.66072 0.25495
 O336 O 0.74539 0.65187 0.21188
 O337 O 0.74984 0.65929 0.30516
 O338 O 0.79492 0.65152 0.25605
 O339 O 0.65796 0.70624 0.25777
 O340 O 0.64467 0.75745 0.21997
 O341 O 0.70573 0.75111 0.35215
 O342 O 0.75335 0.79183 0.36458
 O343 O 0.75253 0.80831 0.16140
 O344 O 0.71191 0.75871 0.14987
 O345 O 0.84783 0.75354 0.20435
 O346 O 0.85651 0.71095 0.25373
 O347 O 0.80520 0.84896 0.25787
 O348 O 0.75488 0.86031 0.29791
 Zr349 Zr 0.75536 0.82066 0.25562
 O350 O 0.72165 0.78935 0.29036
 Zr351 Zr 0.81885 0.75523 0.25372
 O352 O 0.78738 0.72080 0.28755
 Zr353 Zr 0.75391 0.75780 0.18983
 O354 O 0.71945 0.72399 0.22175
 Zr355 Zr 0.75394 0.75296 0.32133
 O356 O 0.78812 0.78785 0.29019
 Zr357 Zr 0.68804 0.75541 0.25846
 O358 O 0.71905 0.78983 0.22314
 Zr359 Zr 0.75085 0.68958 0.25570
 O360 O 0.78583 0.72078 0.22083
 O361 O 0.78868 0.79045 0.22062
 O362 O 0.71812 0.71975 0.29157
 C363 C 0.75355 0.84168 0.17275
 C364 C 0.83869 0.83820 0.25746
 C365 C 0.83757 0.75421 0.17076
 C366 C 0.75436 0.66938 0.33864
 C367 C 0.67192 0.75229 0.34280
 C368 C 0.66742 0.67235 0.25604
 H369 H 0.70703 0.80589 0.30606
 H370 H 0.70386 0.70938 0.20507
 H371 H 0.80456 0.80608 0.20514
 H372 H 0.80410 0.70485 0.30177
 H373 H 0.81532 0.77273 0.35102
 H374 H 0.85368 0.74022 0.31404
 H375 H 0.65258 0.74337 0.19819
 H376 H 0.69251 0.77509 0.15948
 H377 H 0.73920 0.81342 0.35631
 H378 H 0.77190 0.85134 0.31711
 H379 H 0.76671 0.65566 0.19555
 H380 H 0.77041 0.69971 0.15262
 H381 H 0.69462 0.85326 0.23973
 H382 H 0.65320 0.81444 0.27802
 H383 H 0.84745 0.69283 0.23569
 H384 H 0.78456 0.62661 0.25955
 O385 O 0.74632 0.15633 0.79981
 O386 O 0.71910 0.14120 0.74944
 O387 O 0.84790 0.20440 0.75144
 O388 O 0.86177 0.25358 0.71882
 O389 O 0.80032 0.24878 0.85007
 O390 O 0.75271 0.28792 0.86272
 O391 O 0.75022 0.30179 0.65736
 O392 O 0.78950 0.25531 0.64693
 O393 O 0.65493 0.25940 0.70707
 O394 O 0.64269 0.21857 0.75116
 O395 O 0.70516 0.35000 0.75243
 O396 O 0.75370 0.36233 0.79038
 O397 O 0.75344 0.34655 0.70084
 O398 O 0.79757 0.35528 0.75627
 O399 O 0.65936 0.30800 0.75764
 O400 O 0.64978 0.25112 0.79929
 O401 O 0.69707 0.25811 0.66109
 O402 O 0.74440 0.20846 0.65246
 O403 O 0.74828 0.19799 0.84622
 O404 O 0.70845 0.25265 0.85713
 O405 O 0.84557 0.25207 0.80729
 O406 O 0.85381 0.29720 0.75354
 O407 O 0.80500 0.15922 0.75201
 O408 O 0.75122 0.15400 0.70522
 Zr409 Zr 0.75368 0.18753 0.75254
 O410 O 0.71703 0.21997 0.72159
 Zr411 Zr 0.81737 0.25220 0.75595
 O412 O 0.78601 0.28504 0.72009
 Zr413 Zr 0.75232 0.24958 0.81927
 O414 O 0.72051 0.28703 0.78880
 Zr415 Zr 0.74877 0.25406 0.68830
 O416 O 0.78590 0.22067 0.71852
 Zr417 Zr 0.68641 0.25636 0.75453
 O418 O 0.71729 0.21846 0.78593
 Zr419 Zr 0.75279 0.31860 0.75237
 O420 O 0.78522 0.28659 0.78878
 O421 O 0.78699 0.21650 0.78842
 O422 O 0.71653 0.28971 0.71920
 C423 C 0.74479 0.16511 0.83373
 C424 C 0.83851 0.17067 0.75103
 C425 C 0.83408 0.25035 0.84080
 C426 C 0.75222 0.33533 0.66724
 C427 C 0.66382 0.26014 0.67316
 C428 C 0.67140 0.34122 0.75544
 H429 H 0.70068 0.20409 0.70687
 H430 H 0.70658 0.30274 0.80595
 H431 H 0.80200 0.19997 0.80393
 H432 H 0.80282 0.29925 0.70422
 H433 H 0.80680 0.23513 0.65254
 H434 H 0.85089 0.25164 0.69405
 H435 H 0.65296 0.27281 0.81519
 H436 H 0.69174 0.23197 0.85171
 H437 H 0.73749 0.21782 0.62784
 H438 H 0.77469 0.15715 0.69194
 H439 H 0.74439 0.35243 0.81386
 H440 H 0.76716 0.30917 0.85397
 H441 H 0.69378 0.15078 0.74807
 H442 H 0.65257 0.19479 0.75976
 H443 H 0.84832 0.31278 0.77502
 H444 H 0.81132 0.35419 0.73290
 O445 O 0.24129 0.83934 0.80116
 O446 O 0.28274 0.85137 0.75015
 O447 O 0.14764 0.79532 0.74511
 O448 O 0.13593 0.74856 0.70700
 O449 O 0.19045 0.74059 0.84150
 O450 O 0.24427 0.70304 0.85268
 O451 O 0.24551 0.69555 0.65222
 O452 O 0.20092 0.74484 0.64377
 O453 O 0.33779 0.74781 0.69639
 O454 O 0.35069 0.78502 0.74793
 O455 O 0.29478 0.65147 0.74975
 O456 O 0.23838 0.63967 0.78711
 O457 O 0.24902 0.65152 0.69643
 O458 O 0.20530 0.63765 0.74467
 O459 O 0.33859 0.69574 0.74672
 O460 O 0.34723 0.74956 0.78988
 O461 O 0.29353 0.74568 0.65244
 O462 O 0.24594 0.78560 0.64018
 O463 O 0.23971 0.79381 0.84396
 O464 O 0.28237 0.74508 0.85366
 O465 O 0.14740 0.74360 0.79632
 O466 O 0.13990 0.70169 0.74558
 O467 O 0.19093 0.84017 0.74884
 O468 O 0.24230 0.85230 0.70924
 Zr469 Zr 0.24092 0.81123 0.75024
 O470 O 0.27555 0.78060 0.71550
 Zr471 Zr 0.17746 0.74592 0.74749
 O472 O 0.20957 0.71221 0.71340
 Zr473 Zr 0.24087 0.74537 0.81316
 O474 O 0.27620 0.71239 0.78166
 Zr475 Zr 0.24456 0.74517 0.68202
 O476 O 0.20958 0.77954 0.71321
 Zr477 Zr 0.30859 0.74524 0.74675
 O478 O 0.27658 0.77886 0.78210
 Zr479 Zr 0.24487 0.68010 0.74593
 O480 O 0.20921 0.71028 0.78024
 O481 O 0.20678 0.77949 0.78287
 O482 O 0.27930 0.71071 0.71194
 C483 C 0.24005 0.82770 0.83453
 C484 C 0.15755 0.82915 0.74667
 C485 C 0.15704 0.74099 0.83007
 C486 C 0.24823 0.66203 0.66290
 C487 C 0.32702 0.74748 0.66268
 C488 C 0.32829 0.66216 0.74935
 H489 H 0.29060 0.79772 0.70082
 H490 H 0.29111 0.69745 0.79867
 H491 H 0.19044 0.79449 0.79845
 H492 H 0.19364 0.69711 0.69752
 H493 H 0.18394 0.76483 0.65087
 H494 H 0.14365 0.73291 0.68624
 H495 H 0.34374 0.72825 0.80635
 H496 H 0.30134 0.76263 0.84538
 H497 H 0.25778 0.80766 0.65047
 H498 H 0.22474 0.84465 0.69000
 H499 H 0.25791 0.64350 0.80549
 H500 H 0.22833 0.68305 0.84375
 H501 H 0.30043 0.84423 0.76950
 H502 H 0.34040 0.80773 0.73729
 H503 H 0.14855 0.68314 0.76347
 H504 H 0.18678 0.64404 0.72590
 O505 O 0.25203 0.35520 0.70656
 O506 O 0.21027 0.36551 0.75719
 O507 O 0.34620 0.31065 0.75791
 O508 O 0.35760 0.26346 0.79765
 O509 O 0.30334 0.26013 0.66279
 O510 O 0.25162 0.21776 0.65336
 O511 O 0.25287 0.21017 0.85258
 O512 O 0.29335 0.25978 0.86185
 O513 O 0.15674 0.25906 0.80947
 O514 O 0.14896 0.30542 0.75389
 O515 O 0.19742 0.16658 0.75749
 O516 O 0.25098 0.15480 0.71673
 O517 O 0.24795 0.16576 0.80900
 O518 O 0.28790 0.15232 0.75723
 O519 O 0.15482 0.21208 0.75510
 O520 O 0.14075 0.26205 0.72210
 O521 O 0.20155 0.25629 0.85276
 O522 O 0.24991 0.30058 0.86410
 O523 O 0.24969 0.31118 0.66231
 O524 O 0.21369 0.25861 0.64900
 O525 O 0.34662 0.25831 0.70774
 O526 O 0.35479 0.21709 0.75764
 O527 O 0.30184 0.35476 0.75859
 O528 O 0.25131 0.36605 0.79762
 Zr529 Zr 0.25244 0.32567 0.75606
 O530 O 0.21821 0.29499 0.79094
 Zr531 Zr 0.31661 0.26089 0.75658
 O532 O 0.28458 0.22676 0.79042
 Zr533 Zr 0.25286 0.26131 0.69162
 O534 O 0.21739 0.22835 0.72324
 Zr535 Zr 0.25026 0.25936 0.82298
 O536 O 0.28486 0.29379 0.79179
 Zr537 Zr 0.18542 0.26049 0.75891
 O538 O 0.21699 0.29394 0.72329
 Zr539 Zr 0.24831 0.19478 0.75872
 O540 O 0.28419 0.22549 0.72433
 O541 O 0.28671 0.29512 0.72220
 O542 O 0.21481 0.22540 0.79336
 C543 C 0.25003 0.34478 0.67300
 C544 C 0.33539 0.34426 0.75885
 C545 C 0.33680 0.25852 0.67401
 C546 C 0.25140 0.17653 0.84243
 C547 C 0.16787 0.25673 0.84294
 C548 C 0.16416 0.17818 0.75481
 H549 H 0.20319 0.31165 0.80610
 H550 H 0.20193 0.21405 0.70622
 H551 H 0.30247 0.31076 0.70657
 H552 H 0.30110 0.21146 0.80549
 H553 H 0.31134 0.27839 0.85361
 H554 H 0.35058 0.24641 0.81758
 H555 H 0.15109 0.25754 0.69748
 H556 H 0.19285 0.27409 0.65676
 H557 H 0.22987 0.31807 0.85883
 H558 H 0.26610 0.35627 0.81821
 H559 H 0.23166 0.16063 0.69857
 H560 H 0.27062 0.19996 0.66114
 H561 H 0.19242 0.35864 0.73793
 H562 H 0.15118 0.32043 0.77631
 H563 H 0.34557 0.19819 0.74049
 H564 H 0.30737 0.15857 0.77503
 O565 O 0.75938 0.65738 0.69171
 O566 O 0.80167 0.64966 0.74326
 O567 O 0.66416 0.70120 0.74324
 O568 O 0.65122 0.74933 0.77997
 O569 O 0.70750 0.75093 0.64545
 O570 O 0.75721 0.79205 0.63383
 O571 O 0.75526 0.80858 0.83324
 O572 O 0.71730 0.75402 0.84472
 O573 O 0.85383 0.75693 0.78940
 O574 O 0.86565 0.71531 0.74020
 O575 O 0.80837 0.84901 0.73946
 O576 O 0.75542 0.85774 0.69544
 O577 O 0.75600 0.85082 0.78730
 O578 O 0.71752 0.86024 0.73494
 O579 O 0.85241 0.80485 0.73698
 O580 O 0.86277 0.74990 0.69795
 O581 O 0.81076 0.76064 0.83433
 O582 O 0.76682 0.72084 0.85054
 O583 O 0.75927 0.70085 0.64675
 O584 O 0.79862 0.75205 0.63450
 O585 O 0.66342 0.75194 0.68971
 O586 O 0.65369 0.79428 0.74060
 O587 O 0.70927 0.65802 0.74444
 O588 O 0.76082 0.64840 0.78330
 Zr589 Zr 0.75824 0.68804 0.74094
 O590 O 0.79187 0.72113 0.77413
 Zr591 Zr 0.69286 0.75139 0.73964
 O592 O 0.72403 0.78737 0.77246
 Zr593 Zr 0.75690 0.75090 0.67478
 O594 O 0.79087 0.78640 0.70469
 Zr595 Zr 0.76032 0.75751 0.80592
 O596 O 0.72606 0.72082 0.77613
 Zr597 Zr 0.82362 0.75538 0.74049
 O598 O 0.79293 0.71939 0.70713
 Zr599 Zr 0.75862 0.81945 0.73910
 O600 O 0.72401 0.78660 0.70593
 O601 O 0.72354 0.71707 0.70630
 O602 O 0.79397 0.79120 0.77424
 C603 C 0.75968 0.66743 0.65782
 C604 C 0.67548 0.66777 0.74481
 C605 C 0.67399 0.75153 0.65604
 C606 C 0.75356 0.84184 0.82127
 C607 C 0.84422 0.75962 0.82314
 C608 C 0.84194 0.83837 0.73791
 H609 H 0.80728 0.70529 0.78987
 H610 H 0.80569 0.80106 0.68735
 H611 H 0.70790 0.70077 0.69132
 H612 H 0.70689 0.80242 0.78710
 H613 H 0.70210 0.73251 0.83807
 H614 H 0.66033 0.76288 0.80162
 H615 H 0.85831 0.76968 0.67986
 H616 H 0.81781 0.73465 0.64268
 H617 H 0.77026 0.69616 0.83997
 H618 H 0.74272 0.65584 0.80213
 H619 H 0.77708 0.85421 0.67950
 H620 H 0.74019 0.81146 0.64223
 H621 H 0.81944 0.65689 0.72403
 H622 H 0.85871 0.69588 0.75784
 H623 H 0.66057 0.81173 0.72092
 H624 H 0.69769 0.85356 0.75221
 O625 O 0.25708 0.65395 0.29639
 O626 O 0.22019 0.63960 0.24741
 O627 O 0.35122 0.70434 0.24812
 O628 O 0.36164 0.75185 0.20879
 O629 O 0.30157 0.75161 0.34217
 O630 O 0.25198 0.78834 0.35367
 O631 O 0.24650 0.79420 0.14816
 O632 O 0.28614 0.74896 0.13525
 O633 O 0.15627 0.74885 0.19934
 O634 O 0.14392 0.71204 0.24764
 O635 O 0.20324 0.84448 0.24240
 O636 O 0.25206 0.85990 0.27787
 O637 O 0.24893 0.84076 0.18954
 O638 O 0.29557 0.85235 0.24329
 O639 O 0.15880 0.80100 0.24702
 O640 O 0.15206 0.74526 0.29249
 O641 O 0.19830 0.74298 0.15363
 O642 O 0.25719 0.70164 0.14550
 O643 O 0.25317 0.69770 0.34077
 O644 O 0.20921 0.75082 0.34885
 O645 O 0.34643 0.75659 0.29896
 O646 O 0.35417 0.79681 0.24231
 O647 O 0.30991 0.65757 0.24734
 O648 O 0.25682 0.64577 0.20394
 Zr649 Zr 0.25759 0.68383 0.24771
 O650 O 0.21973 0.71329 0.21533
 Zr651 Zr 0.31868 0.75128 0.24766
 O652 O 0.28605 0.78137 0.21049
 Zr653 Zr 0.25365 0.74852 0.31160
 O654 O 0.22051 0.78345 0.27966
 Zr655 Zr 0.25003 0.74729 0.18055
 O656 O 0.28839 0.71672 0.21200
 Zr657 Zr 0.18767 0.74999 0.24687
 O658 O 0.21999 0.71452 0.27990
 Zr659 Zr 0.25155 0.81457 0.24179
 O660 O 0.28512 0.78547 0.27934
 O661 O 0.28960 0.71615 0.28177
 O662 O 0.21628 0.78289 0.20991
 C663 C 0.25489 0.66403 0.32989
 C664 C 0.34297 0.67026 0.24811
 C665 C 0.33501 0.75539 0.33254
 C666 C 0.24635 0.82821 0.15654
 C667 C 0.16505 0.74517 0.16562
 C668 C 0.16979 0.83461 0.24469
 H669 H 0.20428 0.69570 0.20167
 H670 H 0.20598 0.79928 0.29621
 H671 H 0.30570 0.70152 0.29794
 H672 H 0.30191 0.79584 0.19390
 H673 H 0.31045 0.75578 0.14508
 H674 H 0.35290 0.73736 0.18758
 H675 H 0.15166 0.76921 0.30524
 H676 H 0.19442 0.72839 0.34506
 H677 H 0.23507 0.68616 0.14770
 H678 H 0.27887 0.65049 0.18881
 H679 H 0.24301 0.85084 0.30180
 H680 H 0.26532 0.80999 0.34414
 H681 H 0.19830 0.64811 0.26101
 H682 H 0.15436 0.68810 0.24036
 H683 H 0.34883 0.81344 0.26305
 H684 H 0.30745 0.85244 0.21887
 O685 O 0.74721 0.33432 0.30594
 O686 O 0.78777 0.34566 0.25358
 O687 O 0.65191 0.29085 0.24892
 O688 O 0.63957 0.24324 0.21245
 O689 O 0.69433 0.23812 0.34672
 O690 O 0.74692 0.19741 0.35688
 O691 O 0.74676 0.18937 0.15785
 O692 O 0.70386 0.24107 0.14926
 O693 O 0.84127 0.24137 0.20091
 O694 O 0.85299 0.28142 0.25353
 O695 O 0.79857 0.14665 0.25246
 O696 O 0.74457 0.13546 0.29397
 O697 O 0.75029 0.14573 0.20245
 O698 O 0.70870 0.13280 0.25232
 O699 O 0.84236 0.19098 0.25109
 O700 O 0.85243 0.24366 0.29315
 O701 O 0.79682 0.23741 0.15731
 O702 O 0.75276 0.27847 0.14430
 O703 O 0.74544 0.28894 0.34894
 O704 O 0.78595 0.23949 0.35905
 O705 O 0.65125 0.24119 0.30155
 O706 O 0.64334 0.19757 0.25162
 O707 O 0.69526 0.33546 0.25415
 O708 O 0.74649 0.34821 0.21465
 Zr709 Zr 0.74523 0.30632 0.25486
 O710 O 0.77919 0.27524 0.21973
 Zr711 Zr 0.68134 0.24145 0.25273
 O712 O 0.71298 0.20702 0.21899
 Zr713 Zr 0.74483 0.24061 0.31819
 O714 O 0.78019 0.20757 0.28673
 Zr715 Zr 0.74791 0.23942 0.18701
 O716 O 0.71356 0.27460 0.21805
 Zr717 Zr 0.81227 0.24021 0.25135
 O718 O 0.78061 0.27379 0.28686
 Zr719 Zr 0.74840 0.17510 0.25160
 O720 O 0.71276 0.20566 0.28563
 O721 O 0.71108 0.27505 0.28781
 O722 O 0.78260 0.20534 0.21716
 C723 C 0.74664 0.32275 0.33940
 C724 C 0.66190 0.32455 0.25106
 C725 C 0.66094 0.23944 0.33530
 C726 C 0.74902 0.15589 0.16883
 C727 C 0.83040 0.23922 0.16733
 C728 C 0.83210 0.15733 0.25176
 H729 H 0.79393 0.29199 0.20430
 H730 H 0.79542 0.19258 0.30345
 H731 H 0.69525 0.29062 0.30337
 H732 H 0.69667 0.19184 0.20358
 H733 H 0.68859 0.26262 0.15572
 H734 H 0.64810 0.22878 0.19116
 H735 H 0.84775 0.22362 0.31086
 H736 H 0.80597 0.25551 0.35014
 H737 H 0.75269 0.30282 0.15610
 H738 H 0.72747 0.34210 0.19627
 H739 H 0.76571 0.13891 0.31062
 H740 H 0.72927 0.17865 0.34844
 H741 H 0.80581 0.33821 0.27249
 H742 H 0.84493 0.30167 0.23738
 H743 H 0.65100 0.17992 0.27084
 H744 H 0.68900 0.13979 0.23502
 C745 C 0.22918 0.12240 0.11792
 C746 C 0.22754 0.10219 0.08555
 C747 C 0.25939 0.09502 0.06531
 C748 C 0.29369 0.10751 0.07844
 C749 C 0.29528 0.12836 0.11115
 C750 C 0.26268 0.13605 0.13067
 C751 C 0.32960 0.14117 0.12312
 N752 N 0.36022 0.13309 0.10362
 N753 N 0.35878 0.11317 0.07304
 C754 C 0.32660 0.10007 0.05980
 H755 H 0.20396 0.12881 0.13227
 H756 H 0.20117 0.09266 0.07578
 H757 H 0.33235 0.15724 0.14792
 H758 H 0.32706 0.08388 0.03496
 C759 C 0.78644 0.64185 0.60163
 C760 C 0.78490 0.62014 0.57033
 C761 C 0.75575 0.59586 0.56474
 C762 C 0.72771 0.59316 0.59162
 C763 C 0.73007 0.61422 0.62428
 C764 C 0.75940 0.63934 0.62879
 C765 C 0.70201 0.61046 0.65052
 N766 N 0.67352 0.58747 0.64415
 N767 N 0.67095 0.56829 0.61320
 C768 C 0.69686 0.57055 0.58663
 H769 H 0.80873 0.66129 0.60444
 H770 H 0.80646 0.62260 0.55003
 H771 H 0.70208 0.62581 0.67580
 H772 H 0.69303 0.55477 0.56184
 C773 C 0.72520 0.87681 0.12183
 C774 C 0.72457 0.90634 0.09737
 C775 C 0.75454 0.93027 0.09466
 C776 C 0.78623 0.92342 0.11601
 C777 C 0.78629 0.89444 0.14193
 C778 C 0.75531 0.87119 0.14503
 C779 C 0.81772 0.88953 0.16370
 N780 N 0.84716 0.91173 0.15911
 N781 N 0.84745 0.93834 0.13407
 C782 C 0.81809 0.94478 0.11223
 H783 H 0.70140 0.85915 0.12379
 H784 H 0.70011 0.91127 0.08124
 H785 H 0.81941 0.86795 0.18390
 H786 H 0.82009 0.96609 0.09173
 C787 C 0.28023 0.39601 0.64124
 C788 C 0.28034 0.42543 0.61688
 C789 C 0.24929 0.43361 0.59578
 C790 C 0.21755 0.41147 0.59909
 C791 C 0.21755 0.38133 0.62373
 C792 C 0.24918 0.37377 0.64495
 C793 C 0.18527 0.36060 0.62731
 N794 N 0.15526 0.36936 0.60713
 N795 N 0.15529 0.39761 0.58391
 C796 C 0.18529 0.41907 0.57933
 H797 H 0.30444 0.39077 0.65769
 H798 H 0.30462 0.44242 0.61491
 H799 H 0.18345 0.33784 0.64622
 H800 H 0.18356 0.44191 0.56046
 C801 C 0.76585 0.12467 0.88388
 C802 C 0.76357 0.09204 0.90370
 C803 C 0.73343 0.06823 0.89968
 C804 C 0.70450 0.07843 0.87563
 C805 C 0.70688 0.11174 0.85557
 C806 C 0.73819 0.13449 0.85927
 C807 C 0.67734 0.12165 0.83274
 N808 N 0.64752 0.09963 0.83033
 N809 N 0.64508 0.06856 0.84940
 C810 C 0.67233 0.05734 0.87211
 H811 H 0.79018 0.14149 0.88649
 H812 H 0.78616 0.08471 0.92161
 H813 H 0.67733 0.14705 0.81738
 H814 H 0.66824 0.03237 0.88759
 C815 C 0.22303 0.62133 0.37185
 C816 C 0.22155 0.58791 0.39061
 C817 C 0.25307 0.56622 0.39483
 C818 C 0.28689 0.57887 0.38074
 C819 C 0.28831 0.61263 0.36153
 C820 C 0.25606 0.63385 0.35683
 C821 C 0.32220 0.62407 0.34732
 N822 N 0.35258 0.60322 0.35241
 N823 N 0.35131 0.57163 0.37075
 C824 C 0.31955 0.55876 0.38514
 H825 H 0.19797 0.63676 0.36769
 H826 H 0.19560 0.57870 0.40175
 H827 H 0.32473 0.64957 0.33256
 H828 H 0.32016 0.53295 0.39982
 C829 C 0.26589 0.87897 0.87078
 C830 C 0.26606 0.90162 0.90165
 C831 C 0.23686 0.90116 0.92689
 C832 C 0.20624 0.87813 0.91971
 C833 C 0.20653 0.85452 0.88883
 C834 C 0.23695 0.85462 0.86459
 C835 C 0.17574 0.83206 0.88271
 N836 N 0.14647 0.83384 0.90553
 N837 N 0.14574 0.85676 0.93391
 C838 C 0.17439 0.87912 0.94156
 H839 H 0.28932 0.87924 0.85252
 H840 H 0.28989 0.91864 0.90661
 H841 H 0.17421 0.81379 0.85952
 H842 H 0.17163 0.89813 0.96405
 C843 C 0.77742 0.37104 0.37576
 C844 C 0.78030 0.39278 0.40715
 C845 C 0.75160 0.39452 0.43272
 C846 C 0.71912 0.37424 0.42620
 C847 C 0.71667 0.35123 0.39497
 C848 C 0.74618 0.34962 0.36965
 C849 C 0.68441 0.33070 0.38995
 N850 N 0.65642 0.33369 0.41423
 N851 N 0.65846 0.35583 0.44317
 C852 C 0.68874 0.37628 0.44991
 H853 H 0.80036 0.36970 0.35693
 H854 H 0.80528 0.40816 0.41176
 H855 H 0.68092 0.31278 0.36667
 H856 H 0.68861 0.39411 0.47355
 C857 C 0.15085 0.21623 0.10387
 C858 C 0.12750 0.21431 0.07382
 C859 C 0.09952 0.24027 0.06862
 C860 C 0.09620 0.26977 0.09408
 C861 C 0.11998 0.27145 0.12497
 C862 C 0.14742 0.24431 0.12977
 C863 C 0.11683 0.30151 0.14890
 N864 N 0.09177 0.32816 0.14222
 N865 N 0.07003 0.32709 0.11293
 C866 C 0.07166 0.29917 0.08847
 H867 H 0.17206 0.19558 0.10683
 H868 H 0.13112 0.19198 0.05453
 H869 H 0.13449 0.30456 0.17238
 H870 H 0.05416 0.30065 0.06460
 C871 C 0.62365 0.78086 0.62139
 C872 C 0.59936 0.78201 0.59184
 C873 C 0.59582 0.75184 0.56833
 C874 C 0.61615 0.71954 0.57542
 C875 C 0.64222 0.71907 0.60411
 C876 C 0.64590 0.75007 0.62719
 C877 C 0.66361 0.68730 0.60884
 N878 N 0.65812 0.65773 0.58700
 N879 N 0.63261 0.65770 0.56090
 C880 C 0.61129 0.68750 0.55455
 H881 H 0.62634 0.80476 0.63883
 H882 H 0.58388 0.80687 0.58669
 H883 H 0.68417 0.68544 0.63004
 H884 H 0.59030 0.68573 0.53376
 C885 C 0.10104 0.76909 0.85395
 C886 C 0.07014 0.76975 0.87607
 C887 C 0.06395 0.74233 0.90243
 C888 C 0.08949 0.71286 0.90548
 C889 C 0.12128 0.71245 0.88291
 C890 C 0.12694 0.74093 0.85704
 C891 C 0.14533 0.68244 0.88571
 N892 N 0.13795 0.65470 0.90939
 N893 N 0.10789 0.65469 0.93008
 C894 C 0.08326 0.68252 0.92866
 H895 H 0.10475 0.79087 0.83398
 H896 H 0.05107 0.79238 0.87292
 H897 H 0.16954 0.68037 0.86889
 H898 H 0.05885 0.68037 0.94531
 C899 C 0.60859 0.27298 0.36053
 C900 C 0.57757 0.27587 0.38243
 C901 C 0.56782 0.24744 0.40630
 C902 C 0.59006 0.21554 0.40841
 C903 C 0.62204 0.21288 0.38644
 C904 C 0.63106 0.24183 0.36222
 C905 C 0.64305 0.18061 0.38845
 N906 N 0.63271 0.15303 0.41122
 N907 N 0.60264 0.15545 0.43179
 C908 C 0.58087 0.18563 0.43104
 H909 H 0.61494 0.29516 0.34172
 H910 H 0.56072 0.30029 0.38042
 H911 H 0.66736 0.17690 0.37198
 H912 H 0.55651 0.18578 0.44792
 C913 C 0.89313 0.72488 0.14672
 C914 C 0.92513 0.72477 0.12602
 C915 C 0.93276 0.75310 0.10105
 C916 C 0.90779 0.78315 0.09847
 C917 C 0.87472 0.78280 0.11916
 C918 C 0.86748 0.75331 0.14347
 C919 C 0.85090 0.81302 0.11616
 N920 N 0.85998 0.84188 0.09450
 N921 N 0.89138 0.84274 0.07594
 C922 C 0.91569 0.81463 0.07744
 H923 H 0.88852 0.70266 0.16598
 H924 H 0.94383 0.70183 0.12904
 H925 H 0.82541 0.81429 0.13114
 H926 H 0.94114 0.81733 0.06249
 C927 C 0.38980 0.22725 0.64618
 C928 C 0.42160 0.22702 0.62498
 C929 C 0.43158 0.25776 0.60420
 C930 C 0.40883 0.28937 0.60470
 C931 C 0.37616 0.28939 0.62590
 C932 C 0.36678 0.25803 0.64688
 C933 C 0.35467 0.32144 0.62639
 N934 N 0.36525 0.35128 0.60681
 N935 N 0.39593 0.35129 0.58701
 C936 C 0.41812 0.32147 0.58538
 H937 H 0.38340 0.20339 0.66276
 H938 H 0.43881 0.20278 0.62506
 H939 H 0.32968 0.32315 0.64220
 H940 H 0.44291 0.32325 0.56921
 C941 C 0.85384 0.22014 0.89773
 C942 C 0.87348 0.21840 0.93039
 C943 C 0.90102 0.24400 0.93823
 C944 C 0.90734 0.27319 0.91282
 C945 C 0.88732 0.27474 0.87931
 C946 C 0.86035 0.24784 0.87175
 C947 C 0.89378 0.30430 0.85538
 N948 N 0.91829 0.33067 0.86450
 N949 N 0.93643 0.32977 0.89618
 C950 C 0.93154 0.30226 0.92075
 H951 H 0.83281 0.19973 0.89286
 H952 H 0.86777 0.19611 0.94927
 H953 H 0.87935 0.30702 0.82975
 H954 H 0.94622 0.30373 0.94647
 C955 C 0.36218 0.72571 0.38642
 C956 C 0.38071 0.72667 0.41977
 C957 C 0.39845 0.75862 0.43126
 C958 C 0.39781 0.79017 0.40840
 C959 C 0.37922 0.78903 0.37418
 C960 C 0.36124 0.75647 0.36324
 C961 C 0.37826 0.82103 0.35268
 N962 N 0.39528 0.85188 0.36455
 N963 N 0.41288 0.85292 0.39656
 C964 C 0.41464 0.82320 0.41893
 H965 H 0.34761 0.70091 0.37897
 H966 H 0.38113 0.70231 0.43684
 H967 H 0.36414 0.82182 0.32665
 H968 H 0.42892 0.82573 0.44481
 C969 C 0.12814 0.12106 0.22797
 C970 C 0.10688 0.08929 0.23015
 C971 C 0.10769 0.06702 0.26160
 C972 C 0.12969 0.07756 0.29181
 C973 C 0.15151 0.10967 0.28949
 C974 C 0.15110 0.13117 0.25703
 C975 C 0.17293 0.11941 0.32007
 N976 N 0.17245 0.09823 0.35070
 N977 N 0.15194 0.06810 0.35286
 C978 C 0.13051 0.05708 0.32454
 H979 H 0.12782 0.13702 0.20286
 H980 H 0.09010 0.08159 0.20687
 H981 H 0.18969 0.14387 0.32010
 H982 H 0.11417 0.03257 0.32799
 C983 C 0.64997 0.61324 0.77561
 C984 C 0.62799 0.58202 0.77649
 C985 C 0.60419 0.57390 0.74744
 C986 C 0.60250 0.59806 0.71688
 C987 C 0.62392 0.63059 0.71663
 C988 C 0.64823 0.63785 0.74610
 C989 C 0.62128 0.65403 0.68605
 N990 N 0.59907 0.64515 0.65759
 N991 N 0.57958 0.61429 0.65747
 C992 C 0.58071 0.59036 0.68597
 H993 H 0.66883 0.61810 0.79806
 H994 H 0.62990 0.56372 0.79987
 H995 H 0.63683 0.67913 0.68429
 H996 H 0.56472 0.56550 0.68406
 C997 C 0.89695 0.15115 0.72387
 C998 C 0.93024 0.13252 0.72480
 C999 C 0.93732 0.10586 0.75165
 C1000 C 0.91033 0.09944 0.77933
 C1001 C 0.87628 0.11856 0.77829
 C1002 C 0.86953 0.14448 0.75005
 C1003 C 0.85089 0.11233 0.80671
 N1004 N 0.85911 0.08865 0.83423
 N1005 N 0.89111 0.07114 0.83555
 C1006 C 0.91704 0.07593 0.80933
 H1007 H 0.89278 0.17169 0.70274
 H1008 H 0.95025 0.13824 0.70356
 H1009 H 0.82476 0.12622 0.80765
 H1010 H 0.94287 0.06172 0.81249
 C1011 C 0.38127 0.62078 0.22161
 C1012 C 0.41352 0.60014 0.22058
 C1013 C 0.43900 0.60171 0.24943
 C1014 C 0.43171 0.62459 0.27994
 C1015 C 0.39998 0.64703 0.28008
 C1016 C 0.37436 0.64476 0.25075
 C1017 C 0.39480 0.67086 0.31001
 N1018 N 0.41898 0.67104 0.33826
 N1019 N 0.44806 0.64901 0.33867
 C1020 C 0.45513 0.62569 0.31063
 H1021 H 0.36237 0.61925 0.19872
 H1022 H 0.41872 0.58276 0.19705
 H1023 H 0.37145 0.68883 0.31166
 H1024 H 0.47877 0.60804 0.31281
 C1025 C 0.10266 0.85600 0.71803
 C1026 C 0.07329 0.88028 0.71709
 C1027 C 0.06819 0.90669 0.74474
 C1028 C 0.09316 0.90736 0.77483
 C1029 C 0.12355 0.88286 0.77538
 C1030 C 0.12819 0.85708 0.74659
 C1031 C 0.14718 0.88365 0.80591
 N1032 N 0.14048 0.90689 0.83411
 N1033 N 0.11151 0.92909 0.83413
 C1034 C 0.08747 0.92983 0.80578
 H1035 H 0.10551 0.83610 0.69615
 H1036 H 0.05439 0.87861 0.69420
 H1037 H 0.17050 0.86560 0.80806
 H1038 H 0.06386 0.94757 0.80808
 C1039 C 0.60914 0.35365 0.22048
 C1040 C 0.57923 0.37738 0.21985
 C1041 C 0.57150 0.40007 0.24986
 C1042 C 0.59456 0.39889 0.28116
 C1043 C 0.62556 0.37534 0.28145
 C1044 C 0.63257 0.35237 0.25088
 C1045 C 0.64769 0.37465 0.31305
 N1046 N 0.63913 0.39598 0.34228
 N1047 N 0.60981 0.41775 0.34216
 C1048 C 0.58716 0.41980 0.31273
 H1049 H 0.61392 0.33591 0.19713
 H1050 H 0.56157 0.37767 0.19594
 H1051 H 0.67155 0.35725 0.31495
 H1052 H 0.56351 0.43762 0.31440
 C1053 C 0.86392 0.89375 0.28539
 C1054 C 0.88504 0.92540 0.28426
 C1055 C 0.90861 0.93219 0.25477
 C1056 C 0.91126 0.90620 0.22592
 C1057 C 0.89092 0.87311 0.22787
 C1058 C 0.86642 0.86743 0.25755
 C1059 C 0.89473 0.84764 0.19911
 N1060 N 0.91710 0.85520 0.17036
 N1061 N 0.93561 0.88659 0.16820
 C1062 C 0.93323 0.91245 0.19480
 H1063 H 0.84493 0.89000 0.30796
 H1064 H 0.88269 0.94504 0.30644
 H1065 H 0.87991 0.82207 0.19884
 H1066 H 0.94848 0.93764 0.19136
 C1067 C 0.37689 0.38549 0.72534
 C1068 C 0.39821 0.41714 0.72325
 C1069 C 0.40612 0.43742 0.75488
 C1070 C 0.39326 0.42506 0.78942
 C1071 C 0.37136 0.39308 0.79148
 C1072 C 0.36293 0.37352 0.75909
 C1073 C 0.35834 0.38184 0.82603
 N1074 N 0.36711 0.40139 0.85642
 N1075 N 0.38793 0.43134 0.85454
 C1076 C 0.40132 0.44383 0.82212
 H1077 H 0.37006 0.37101 0.70030
 H1078 H 0.40804 0.42631 0.69672
 H1079 H 0.34154 0.35758 0.82914
 H1080 H 0.41821 0.46819 0.82224
 C1081 C 0.14676 0.22357 0.89746
 C1082 C 0.12550 0.21975 0.92881
 C1083 C 0.09718 0.24457 0.93665
 C1084 C 0.09126 0.27484 0.91245
 C1085 C 0.11293 0.27847 0.88020
 C1086 C 0.14092 0.25255 0.87286
 C1087 C 0.10714 0.30914 0.85749
 N1088 N 0.08165 0.33460 0.86661
 N1089 N 0.06193 0.33176 0.89720
 C1090 C 0.06614 0.30312 0.92059
 H1091 H 0.16845 0.20382 0.89255
 H1092 H 0.13093 0.19676 0.94693
 H1093 H 0.12297 0.31354 0.83294
 H1094 H 0.05023 0.30319 0.94557
 C1095 C 0.62084 0.77990 0.37781
 C1096 C 0.59769 0.78119 0.40827
 C1097 C 0.59675 0.75213 0.43352
 C1098 C 0.61919 0.72100 0.42760
 C1099 C 0.64441 0.72074 0.39813
 C1100 C 0.64492 0.75038 0.37284
 C1101 C 0.66798 0.69038 0.39475
 N1102 N 0.66521 0.66176 0.41839
 N1103 N 0.64041 0.66135 0.44513
 C1104 C 0.61714 0.68985 0.45034
 H1105 H 0.62121 0.80289 0.35894
 H1106 H 0.58070 0.80521 0.41249
 H1107 H 0.68794 0.68865 0.37306
 H1108 H 0.59688 0.68767 0.47175
 C1109 C 0.87386 0.73542 0.87939
 C1110 C 0.90325 0.73297 0.90383
 C1111 C 0.93297 0.75746 0.90169
 C1112 C 0.93236 0.78526 0.87420
 C1113 C 0.90370 0.78609 0.84795
 C1114 C 0.87404 0.76107 0.85074
 C1115 C 0.90553 0.81254 0.81995
 N1116 N 0.93326 0.83722 0.81913
 N1117 N 0.95908 0.83775 0.84485
 C1118 C 0.95929 0.81304 0.87261
 H1119 H 0.85174 0.71572 0.88163
 H1120 H 0.90344 0.71069 0.92355
 H1121 H 0.88491 0.81430 0.79902
 H1122 H 0.98037 0.81555 0.89329
 C1123 C 0.39429 0.22214 0.36038
 C1124 C 0.42416 0.22217 0.38411
 C1125 C 0.43276 0.25337 0.40473
 C1126 C 0.41049 0.28515 0.40161
 C1127 C 0.37974 0.28492 0.37778
 C1128 C 0.37192 0.25315 0.35691
 C1129 C 0.35866 0.31709 0.37462
 N1130 N 0.36787 0.34732 0.39419
 N1131 N 0.39681 0.34761 0.41646
 C1132 C 0.41852 0.31767 0.42072
 H1133 H 0.38881 0.19782 0.34421
 H1134 H 0.44117 0.19785 0.38594
 H1135 H 0.33519 0.31860 0.35658
 H1136 H 0.44190 0.31966 0.43883
 C1137 C 0.10937 0.77421 0.14121
 C1138 C 0.07673 0.77390 0.12146
 C1139 C 0.06698 0.74350 0.10024
 C1140 C 0.09079 0.71269 0.09903
 C1141 C 0.12446 0.71331 0.11867
 C1142 C 0.13381 0.74451 0.13980
 C1143 C 0.14687 0.68198 0.11757
 N1144 N 0.13641 0.65230 0.09777
 N1145 N 0.10491 0.65173 0.07931
 C1146 C 0.08168 0.68079 0.07940
 H1147 H 0.11552 0.79788 0.15811
 H1148 H 0.05884 0.79760 0.12280
 H1149 H 0.17241 0.68065 0.13244
 H1150 H 0.05622 0.67858 0.06437
 C1151 C 0.62620 0.23460 0.62267
 C1152 C 0.59379 0.23331 0.60229
 C1153 C 0.56772 0.26163 0.60450
 C1154 C 0.57466 0.29190 0.62777
 C1155 C 0.60665 0.29228 0.64989
 C1156 C 0.63280 0.26344 0.64710
 C1157 C 0.61150 0.32189 0.67405
 N1158 N 0.58677 0.34965 0.67501
 N1159 N 0.55738 0.34984 0.65340
 C1160 C 0.55057 0.32206 0.62970
 H1161 H 0.64537 0.21196 0.62077
 H1162 H 0.58884 0.20988 0.58471
 H1163 H 0.63508 0.32361 0.69163
 H1164 H 0.52650 0.32401 0.61251
 C1165 C 0.85859 0.20761 0.11464
 C1166 C 0.88002 0.20705 0.08296
 C1167 C 0.90101 0.23758 0.07288
 C1168 C 0.90065 0.26922 0.09554
 C1169 C 0.87910 0.26962 0.12802
 C1170 C 0.85776 0.23856 0.13744
 C1171 C 0.87857 0.30182 0.14920
 N1172 N 0.89860 0.33134 0.13870
 N1173 N 0.91882 0.33096 0.10828
 C1174 C 0.92040 0.30104 0.08628
 H1175 H 0.84191 0.18388 0.12110
 H1176 H 0.87986 0.18275 0.06586
 H1177 H 0.86227 0.30391 0.17382
 H1178 H 0.93687 0.30254 0.06166
 C1179 C 0.35658 0.72024 0.60831
 C1180 C 0.37758 0.72266 0.57643
 C1181 C 0.39658 0.75489 0.56777
 C1182 C 0.39446 0.78526 0.59197
 C1183 C 0.37344 0.78263 0.62468
 C1184 C 0.35431 0.74978 0.63281
 C1185 C 0.37121 0.81361 0.64750
 N1186 N 0.38917 0.84484 0.63827
 N1187 N 0.40893 0.84729 0.60764
 C1188 C 0.41208 0.81866 0.58412
 H1189 H 0.34131 0.69532 0.61354
 H1190 H 0.37877 0.69927 0.55815
 H1191 H 0.35525 0.81338 0.67245
 H1192 H 0.42810 0.82237 0.55943
 C1193 C 0.22619 0.12432 0.87774
 C1194 C 0.22710 0.10006 0.90737
 C1195 C 0.25727 0.09906 0.93142
 C1196 C 0.28772 0.12239 0.92434
 C1197 C 0.28656 0.14725 0.89440
 C1198 C 0.25516 0.14864 0.87151
 C1199 C 0.31748 0.16941 0.88777
 N1200 N 0.34744 0.16659 0.90958
 N1201 N 0.34878 0.14289 0.93735
 C1202 C 0.32018 0.12055 0.94529
 H1203 H 0.20205 0.12515 0.86043
 H1204 H 0.20336 0.08291 0.91241
 H1205 H 0.31849 0.18843 0.86507
 H1206 H 0.32344 0.10108 0.96743
 C1207 C 0.72763 0.61827 0.37452
 C1208 C 0.72731 0.59568 0.40548
 C1209 C 0.75757 0.59436 0.42918
 C1210 C 0.78925 0.61519 0.42080
 C1211 C 0.78922 0.63878 0.38991
 C1212 C 0.75769 0.64101 0.36728
 C1213 C 0.82111 0.65919 0.38244
 N1214 N 0.85081 0.65603 0.40459
 N1215 N 0.85085 0.63378 0.43360
 C1216 C 0.82119 0.61321 0.44241
 H1217 H 0.70344 0.61959 0.35730
 H1218 H 0.70297 0.57978 0.41152
 H1219 H 0.82297 0.67718 0.35895
 H1220 H 0.82301 0.59527 0.46601
 C1221 C 0.71958 0.11816 0.12101
 C1222 C 0.71859 0.08712 0.09872
 C1223 C 0.74921 0.06385 0.09578
 C1224 C 0.78179 0.07285 0.11513
 C1225 C 0.78245 0.10401 0.13826
 C1226 C 0.75094 0.12644 0.14142
 C1227 C 0.81505 0.11215 0.15714
 N1228 N 0.84509 0.09075 0.15254
 N1229 N 0.84484 0.06200 0.13010
 C1230 C 0.81441 0.05253 0.11103
 H1231 H 0.69520 0.13495 0.12356
 H1232 H 0.69340 0.08066 0.08436
 H1233 H 0.81710 0.13572 0.17496
 H1234 H 0.81624 0.02973 0.09228
 C1235 C 0.21914 0.62079 0.61811
 C1236 C 0.21938 0.58893 0.59700
 C1237 C 0.25172 0.56867 0.59253
 C1238 C 0.28471 0.58135 0.60844
 C1239 C 0.28439 0.61354 0.63008
 C1240 C 0.25118 0.63292 0.63532
 C1241 C 0.31749 0.62525 0.64595
 N1242 N 0.34875 0.60599 0.64002
 N1243 N 0.34908 0.57576 0.61955
 C1244 C 0.31815 0.56275 0.60359
 H1245 H 0.19348 0.63516 0.62236
 H1246 H 0.19405 0.57952 0.58470
 H1247 H 0.31882 0.64973 0.66264
 H1248 H 0.32002 0.53813 0.58715
 C1249 C 0.77055 0.90323 0.84446
 C1250 C 0.76703 0.93303 0.86792
 C1251 C 0.73934 0.93414 0.89445
 C1252 C 0.71413 0.90455 0.89655
 C1253 C 0.71880 0.87327 0.87360
 C1254 C 0.74799 0.87234 0.84778
 C1255 C 0.69268 0.84501 0.87592
 N1256 N 0.66425 0.84778 0.89974
 N1257 N 0.65987 0.87707 0.92108
 C1258 C 0.68362 0.90562 0.92011
 H1259 H 0.79091 0.90473 0.82317
 H1260 H 0.78586 0.95581 0.86492
 H1261 H 0.69396 0.82113 0.85854
 H1262 H 0.67823 0.92902 0.93748
 C1263 C 0.28540 0.38992 0.35426
 C1264 C 0.28341 0.42163 0.37553
 C1265 C 0.25180 0.42988 0.39575
 C1266 C 0.22160 0.40541 0.39455
 C1267 C 0.22386 0.37279 0.37335
 C1268 C 0.25606 0.36516 0.35297
 C1269 C 0.19309 0.34960 0.37219
 N1270 N 0.16239 0.35848 0.39119
 N1271 N 0.16025 0.38908 0.41099
 C1272 C 0.18868 0.41291 0.41318
 H1273 H 0.30990 0.38490 0.33821
 H1274 H 0.30662 0.44016 0.37593
 H1275 H 0.19301 0.32465 0.35623
 H1276 H 0.18519 0.43756 0.42927
 C1277 C 0.27180 0.87672 0.11638
 C1278 C 0.27107 0.89776 0.08435
 C1279 C 0.24012 0.89798 0.06140
 C1280 C 0.20939 0.87633 0.07100
 C1281 C 0.21099 0.85328 0.10230
 C1282 C 0.24230 0.85396 0.12546
 C1283 C 0.18070 0.83061 0.10969
 N1284 N 0.15049 0.83215 0.08808
 N1285 N 0.14848 0.85486 0.05953
 C1286 C 0.17677 0.87715 0.05042
 H1287 H 0.29619 0.87697 0.13334
 H1288 H 0.29488 0.91406 0.07732
 H1289 H 0.18040 0.81240 0.13299
 H1290 H 0.17328 0.89563 0.02754
 C1291 C 0.78657 0.37298 0.62274
 C1292 C 0.78877 0.39102 0.58897
 C1293 C 0.75702 0.39855 0.56862
 C1294 C 0.72238 0.38867 0.58299
 C1295 C 0.72027 0.36987 0.61693
 C1296 C 0.75261 0.36195 0.63686
 C1297 C 0.68564 0.35907 0.62973
 N1298 N 0.65512 0.36743 0.61017
 N1299 N 0.65700 0.38574 0.57858
 C1300 C 0.68955 0.39669 0.56433
 H1301 H 0.81164 0.36616 0.63717
 H1302 H 0.81539 0.39891 0.57843
 H1303 H 0.68276 0.34430 0.65523
 H1304 H 0.68945 0.41155 0.53864
 C1305 C 0.12702 0.12540 0.77710
 C1306 C 0.09581 0.10320 0.77551
 C1307 C 0.07054 0.10633 0.74643
 C1308 C 0.07818 0.13142 0.71750
 C1309 C 0.11014 0.15357 0.71898
 C1310 C 0.13406 0.15136 0.74965
 C1311 C 0.11772 0.17675 0.68900
 N1312 N 0.09462 0.17796 0.65990
 N1313 N 0.06465 0.15725 0.65848
 C1314 C 0.05578 0.13388 0.68603
 H1315 H 0.14501 0.12332 0.80067
 H1316 H 0.09059 0.08434 0.79793
 H1317 H 0.14225 0.19318 0.68792
 H1318 H 0.03171 0.11697 0.68264
 C1319 C 0.62813 0.62830 0.22236
 C1320 C 0.59698 0.60613 0.21971
 C1321 C 0.57469 0.59983 0.25042
 C1322 C 0.58457 0.61534 0.28464
 C1323 C 0.61557 0.63860 0.28705
 C1324 C 0.63736 0.64524 0.25561
 C1325 C 0.62384 0.65453 0.32110
 N1326 N 0.60278 0.64703 0.35085
 N1327 N 0.57408 0.62459 0.34878
 C1328 C 0.56433 0.60840 0.31676
 H1329 H 0.64437 0.63340 0.19799
 H1330 H 0.58980 0.59434 0.19341
 H1331 H 0.64698 0.67267 0.32425
 H1332 H 0.54114 0.58999 0.31678
 C1333 C 0.12390 0.87252 0.27710
 C1334 C 0.10550 0.90581 0.28161
 C1335 C 0.10543 0.93258 0.25372
 C1336 C 0.12398 0.92510 0.22029
 C1337 C 0.14303 0.89148 0.21606
 C1338 C 0.14326 0.86519 0.24481
 C1339 C 0.16126 0.88493 0.18276
 N1340 N 0.15994 0.91005 0.15533
 N1341 N 0.14142 0.94129 0.15893
 C1342 C 0.12324 0.94960 0.19028
 H1343 H 0.12462 0.85318 0.29970
 H1344 H 0.09150 0.91097 0.30733
 H1345 H 0.17608 0.85978 0.17824
 H1346 H 0.10812 0.97508 0.19118
 C1347 C 0.64658 0.39605 0.72501
 C1348 C 0.62592 0.42812 0.72426
 C1349 C 0.60408 0.43795 0.75420
 C1350 C 0.60323 0.41493 0.78565
 C1351 C 0.62375 0.38180 0.78606
 C1352 C 0.64542 0.37228 0.75529
 C1353 C 0.62302 0.36014 0.81798
 N1354 N 0.60275 0.37084 0.84727
 N1355 N 0.58348 0.40188 0.84691
 C1356 C 0.58317 0.42436 0.81723
 H1357 H 0.66395 0.38984 0.70174
 H1358 H 0.62713 0.44555 0.70018
 H1359 H 0.63862 0.33509 0.82010
 H1360 H 0.56751 0.44951 0.81874
 C1361 C 0.85799 0.10232 0.28077
 C1362 C 0.88187 0.07264 0.28205
 C1363 C 0.90839 0.06754 0.25476
 C1364 C 0.91124 0.09349 0.22580
 C1365 C 0.88792 0.12472 0.22541
 C1366 C 0.86046 0.12849 0.25273
 C1367 C 0.89190 0.15017 0.19659
 N1368 N 0.91697 0.14422 0.16978
 N1369 N 0.93815 0.11446 0.16967
 C1370 C 0.93595 0.08879 0.19653
 H1371 H 0.83716 0.10479 0.30183
 H1372 H 0.87910 0.05293 0.30417
 H1373 H 0.87492 0.17431 0.19458
 H1374 H 0.95343 0.06492 0.19463
 C1375 C 0.37958 0.62632 0.72319
 C1376 C 0.40284 0.59591 0.72346
 C1377 C 0.40445 0.57264 0.75409
 C1378 C 0.38338 0.58106 0.78561
 C1379 C 0.35933 0.61157 0.78507
 C1380 C 0.35662 0.63355 0.75307
 C1381 C 0.33918 0.61947 0.81700
 N1382 N 0.34273 0.59791 0.84714
 N1383 N 0.36522 0.56913 0.84759
 C1384 C 0.38574 0.56004 0.81795
 H1385 H 0.37845 0.64350 0.69895
 H1386 H 0.41909 0.58998 0.69930
 H1387 H 0.32128 0.64298 0.81856
 H1388 H 0.40403 0.53679 0.82013
 C1389 C 0.89462 0.86747 0.70759
 C1390 C 0.92600 0.88912 0.70821
 C1391 C 0.93492 0.90966 0.73938
 C1392 C 0.91150 0.90882 0.77040
 C1393 C 0.87943 0.88700 0.76959
 C1394 C 0.87119 0.86606 0.73797
 C1395 C 0.85797 0.88487 0.80150
 N1396 N 0.86755 0.90413 0.83182
 N1397 N 0.89743 0.92505 0.83247
 C1398 C 0.91987 0.92785 0.80295
 H1399 H 0.88900 0.85096 0.68353
 H1400 H 0.94385 0.88940 0.68445
 H1401 H 0.83449 0.86693 0.80299
 H1402 H 0.94424 0.94448 0.80546
 C1403 C 0.39401 0.36193 0.27696
 C1404 C 0.42551 0.38341 0.27753
 C1405 C 0.43633 0.40310 0.24636
 C1406 C 0.41465 0.40154 0.21411
 C1407 C 0.38241 0.37985 0.21364
 C1408 C 0.37230 0.35977 0.24532
 C1409 C 0.36216 0.37791 0.18087
 N1410 N 0.37336 0.39686 0.15085
 N1411 N 0.40359 0.41731 0.15131
 C1412 C 0.42469 0.42018 0.18180
 H1413 H 0.38693 0.34611 0.30116
 H1414 H 0.44195 0.38426 0.30228
 H1415 H 0.33772 0.36139 0.17876
 H1416 H 0.44919 0.43678 0.18040
   
