data_POSCAR
  _audit_creation_date              2014-09-24
  _audit_creation_method            'ToBaCCo'
  _symmetry_space_group_name_H-M    'P1'
  _symmetry_Int_Tables_number       1
  _symmetry_cell_setting            triclinic
  loop_
  _symmetry_equiv_pos_as_xyz
 x,y,z
_cell_length_a 59.6101
_cell_length_b 59.5788
_cell_length_c 59.6478
_cell_angle_alpha 89.998300
_cell_angle_beta 89.927800
_cell_angle_gamma 90.036700
loop_
  _atom_site_label
  _atom_site_type_symbol
  _atom_site_fract_x
  _atom_site_fract_y
  _atom_site_fract_z
C1 C 0.36365 0.33481 0.33527
 C2 C 0.35404 0.32526 0.35449
 C3 C 0.33485 0.33486 0.36409
 C4 C 0.32530 0.35406 0.35448
 C5 C 0.33488 0.36363 0.33526
 C6 C 0.35407 0.35401 0.32568
 H7 H 0.36129 0.31024 0.36176
 H8 H 0.31028 0.36135 0.36175
 H9 H 0.36134 0.36125 0.31065
 C10 C 0.36402 0.83503 -0.16589
 C11 C 0.35432 0.85418 -0.17550
 C12 C 0.33506 0.86371 -0.16592
 C13 C 0.32554 0.85409 -0.14668
 C14 C 0.33522 0.83496 -0.13706
 C15 C 0.35446 0.82546 -0.14664
 H16 H 0.36156 0.86147 -0.19055
 H17 H 0.31048 0.86126 -0.13936
 H18 H 0.36176 0.81049 -0.13930
 C19 C 0.86321 0.33545 -0.16543
 C20 C 0.85361 0.32590 -0.14621
 C21 C 0.83445 0.33552 -0.13658
 C22 C 0.82490 0.35474 -0.14615
 C23 C 0.83448 0.36433 -0.16538
 C24 C 0.85366 0.35467 -0.17499
 H25 H 0.86084 0.31086 -0.13896
 H26 H 0.80990 0.36200 -0.13881
 H27 H 0.86098 0.36188 -0.19003
 C28 C 0.86358 0.83547 0.33479
 C29 C 0.85392 0.85460 0.32514
 C30 C 0.83468 0.86419 0.33471
 C31 C 0.82516 0.85463 0.35398
 C32 C 0.83482 0.83550 0.36363
 C33 C 0.85403 0.82595 0.35404
 H34 H 0.86120 0.86178 0.31007
 H35 H 0.81012 0.86184 0.36130
 H36 H 0.86135 0.81099 0.36136
 C37 C 0.63635 0.66539 0.33536
 C38 C 0.64592 0.67495 0.35457
 C39 C 0.66505 0.66532 0.36419
 C40 C 0.67460 0.64608 0.35463
 C41 C 0.66505 0.63650 0.33543
 C42 C 0.64591 0.64615 0.32582
 H43 H 0.63868 0.69000 0.36180
 H44 H 0.68957 0.63878 0.36192
 H45 H 0.63867 0.63890 0.31080
 C46 C 0.63631 0.16469 -0.16529
 C47 C 0.64600 0.14556 -0.17493
 C48 C 0.66525 0.13602 -0.16540
 C49 C 0.67476 0.14562 -0.14616
 C50 C 0.66506 0.16475 -0.13652
 C51 C 0.64583 0.17426 -0.14607
 H52 H 0.63873 0.13834 -0.18997
 H53 H 0.68981 0.13845 -0.13888
 H54 H 0.63849 0.18922 -0.13876
 C55 C 0.13650 0.66475 -0.16539
 C56 C 0.14610 0.67431 -0.14621
 C57 C 0.16524 0.66468 -0.13661
 C58 C 0.17478 0.64544 -0.14617
 C59 C 0.16520 0.63584 -0.16538
 C60 C 0.14604 0.64551 -0.17496
 H61 H 0.13888 0.68937 -0.13896
 H62 H 0.18976 0.63817 -0.13885
 H63 H 0.13872 0.63829 -0.18997
 C64 C 0.13622 0.16507 0.33493
 C65 C 0.14586 0.14591 0.32531
 C66 C 0.16502 0.13629 0.33490
 C67 C 0.17451 0.14581 0.35416
 C68 C 0.16489 0.16497 0.36380
 C69 C 0.14572 0.17458 0.35419
 H70 H 0.13866 0.13870 0.31025
 H71 H 0.18950 0.13852 0.36143
 H72 H 0.13843 0.18957 0.36149
 C73 C 0.63630 0.33491 0.66512
 C74 C 0.64590 0.35411 0.67471
 C75 C 0.66514 0.36369 0.66517
 C76 C 0.67475 0.35409 0.64598
 C77 C 0.66516 0.33490 0.63637
 C78 C 0.64592 0.32533 0.64594
 H79 H 0.63862 0.36137 0.68972
 H80 H 0.68980 0.36135 0.63875
 H81 H 0.63865 0.31032 0.63866
 C82 C 0.63624 0.83515 1.16561
 C83 C 0.64590 0.85431 1.17525
 C84 C 0.66513 0.86393 1.16567
 C85 C 0.67466 0.85439 1.14640
 C86 C 0.66501 0.83525 1.13675
 C87 C 0.64580 0.82565 1.14633
 H88 H 0.63866 0.86154 1.19032
 H89 H 0.68968 0.86163 1.13908
 H90 H 0.63853 0.81067 1.13897
 C91 C 0.13572 0.33470 1.16530
 C92 C 0.14531 0.32513 1.14607
 C93 C 0.16453 0.33470 1.13647
 C94 C 0.17414 0.35389 1.14606
 C95 C 0.16458 0.36349 1.16527
 C96 C 0.14537 0.35391 1.17487
 H97 H 0.13805 0.31011 1.13876
 H98 H 0.18917 0.36115 1.13879
 H99 H 0.13815 0.36123 1.18990
 C100 C 0.13630 0.83479 0.66541
 C101 C 0.14597 0.85396 0.67504
 C102 C 0.16521 0.86355 0.66547
 C103 C 0.17475 0.85398 0.64621
 C104 C 0.16510 0.83483 0.63658
 C105 C 0.14588 0.82526 0.64616
 H106 H 0.13872 0.86120 0.69009
 H107 H 0.18979 0.86120 0.63890
 H108 H 0.13860 0.81027 0.63880
 C109 C 0.36374 0.66515 0.66513
 C110 C 0.35411 0.64597 0.67473
 C111 C 0.33493 0.63635 0.66516
 C112 C 0.32541 0.64590 0.64593
 C113 C 0.33502 0.66509 0.63631
 C114 C 0.35421 0.67469 0.64590
 H115 H 0.36133 0.63874 0.68977
 H116 H 0.31040 0.63862 0.63867
 H117 H 0.36150 0.68970 0.63862
 C118 C 0.36353 0.16468 1.16492
 C119 C 0.35394 0.14546 1.17450
 C120 C 0.33472 0.13583 1.16496
 C121 C 0.32515 0.14545 1.14577
 C122 C 0.33473 0.16467 1.13618
 C123 C 0.35393 0.17426 1.14575
 H124 H 0.36126 0.13823 1.18951
 H125 H 0.31013 0.13821 1.13847
 H126 H 0.36120 0.18929 1.13848
 C127 C 0.86370 0.66529 1.16481
 C128 C 0.85411 0.67487 1.14564
 C129 C 0.83490 0.66529 1.13608
 C130 C 0.82530 0.64608 1.14568
 C131 C 0.83488 0.63648 1.16486
 C132 C 0.85409 0.64608 1.17440
 H133 H 0.86138 0.68989 1.13836
 H134 H 0.81027 0.63882 1.13845
 H135 H 0.86135 0.63881 1.18940
 C136 C 0.86398 0.16509 0.66544
 C137 C 0.85432 0.14591 0.67507
 C138 C 0.83512 0.13628 0.66550
 C139 C 0.82562 0.14583 0.64624
 C140 C 0.83526 0.16500 0.63661
 C141 C 0.85444 0.17461 0.64618
 H142 H 0.86155 0.13868 0.69013
 H143 H 0.81061 0.13858 0.63893
 H144 H 0.86171 0.18961 0.63883
 C145 C 0.33463 0.36367 0.66542
 C146 C 0.35383 0.35410 0.67497
 C147 C 0.36344 0.33490 0.66539
 C148 C 0.35385 0.32530 0.64622
 C149 C 0.33465 0.33486 0.63665
 C150 C 0.32506 0.35406 0.64624
 H151 H 0.36109 0.36138 0.68997
 H152 H 0.36112 0.31028 0.63895
 H153 H 0.31004 0.36131 0.63900
 C154 C 0.33556 0.86401 0.16427
 C155 C 0.35477 0.85445 0.17383
 C156 C 0.36438 0.83525 0.16426
 C157 C 0.35479 0.82563 0.14509
 C158 C 0.33558 0.83518 0.13552
 C159 C 0.32599 0.85439 0.14511
 H160 H 0.36203 0.86174 0.18882
 H161 H 0.36206 0.81061 0.13784
 H162 H 0.31096 0.86162 0.13787
 C163 C 0.83497 0.36385 0.16479
 C164 C 0.85419 0.35427 0.17431
 C165 C 0.86379 0.33508 0.16469
 C166 C 0.85418 0.32551 0.14551
 C167 C 0.83497 0.33507 0.13598
 C168 C 0.82538 0.35426 0.14561
 H169 H 0.86146 0.36153 0.18931
 H170 H 0.86145 0.31050 0.13822
 H171 H 0.81035 0.36151 0.13839
 C172 C 0.83552 0.86458 0.66506
 C173 C 0.85473 0.85500 0.67459
 C174 C 0.86431 0.83579 0.66501
 C175 C 0.85469 0.82619 0.64585
 C176 C 0.83548 0.83575 0.63631
 C177 C 0.82591 0.85496 0.64591
 H178 H 0.86201 0.86228 0.68958
 H179 H 0.86194 0.81116 0.63859
 H180 H 0.81089 0.86221 0.63868
 C181 C 0.66520 0.63646 0.66560
 C182 C 0.64600 0.64605 0.67519
 C183 C 0.63641 0.66526 0.66562
 C184 C 0.64602 0.67484 0.64642
 C185 C 0.66522 0.66527 0.63682
 C186 C 0.67479 0.64606 0.64640
 H187 H 0.63872 0.63878 0.69020
 H188 H 0.63875 0.68986 0.63916
 H189 H 0.68981 0.63880 0.63913
 C190 C 0.66499 0.13559 0.16494
 C191 C 0.67458 0.14519 0.14574
 C192 C 0.66502 0.16439 0.13616
 C193 C 0.64582 0.17397 0.14576
 C194 C 0.63621 0.16439 0.16496
 C195 C 0.64579 0.14518 0.17452
 H196 H 0.68960 0.13792 0.13847
 H197 H 0.63856 0.18900 0.13851
 H198 H 0.63851 0.13792 0.18954
 C199 C 0.16509 0.63622 0.16481
 C200 C 0.14590 0.64585 0.17439
 C201 C 0.13634 0.66505 0.16480
 C202 C 0.14595 0.67460 0.14559
 C203 C 0.16514 0.66499 0.13600
 C204 C 0.17468 0.64578 0.14560
 H205 H 0.13862 0.63860 0.18941
 H206 H 0.13871 0.68962 0.13832
 H207 H 0.18969 0.63849 0.13834
 C208 C 0.16458 0.13525 0.66529
 C209 C 0.14536 0.14482 0.67486
 C210 C 0.13577 0.16403 0.66530
 C211 C 0.14540 0.17364 0.64613
 C212 C 0.16462 0.16409 0.63654
 C213 C 0.17419 0.14488 0.64612
 H214 H 0.13807 0.13753 0.68986
 H215 H 0.13814 0.18866 0.63888
 H216 H 0.18922 0.13764 0.63886
 C217 C 0.33523 0.63643 0.33469
 C218 C 0.35441 0.64605 0.32508
 C219 C 0.36401 0.66527 0.33464
 C220 C 0.35443 0.67483 0.35386
 C221 C 0.33525 0.66522 0.36348
 C222 C 0.32566 0.64601 0.35391
 H223 H 0.36167 0.63880 0.31006
 H224 H 0.36170 0.68985 0.36111
 H225 H 0.31066 0.63872 0.36120
 C226 C 0.33465 0.13545 0.83504
 C227 C 0.32502 0.14505 0.85421
 C228 C 0.33455 0.16429 0.86379
 C229 C 0.35377 0.17389 0.85421
 C230 C 0.36341 0.16431 0.83504
 C231 C 0.35386 0.14508 0.82548
 H232 H 0.30999 0.13777 0.86146
 H233 H 0.36100 0.18894 0.86146
 H234 H 0.36117 0.13781 0.81048
 C235 C 0.83528 0.63662 0.83508
 C236 C 0.85447 0.64622 0.82546
 C237 C 0.86403 0.66548 0.83496
 C238 C 0.85441 0.67512 0.85411
 C239 C 0.83522 0.66553 0.86375
 C240 C 0.82567 0.64627 0.85423
 H241 H 0.86176 0.63891 0.81047
 H242 H 0.86165 0.69018 0.86132
 H243 H 0.81066 0.63899 0.86153
 C244 C 0.83509 0.13580 0.33479
 C245 C 0.85426 0.14545 0.32517
 C246 C 0.86385 0.16466 0.33474
 C247 C 0.85429 0.17420 0.35397
 C248 C 0.83512 0.16457 0.36361
 C249 C 0.82554 0.14535 0.35403
 H250 H 0.86150 0.13821 0.31013
 H251 H 0.86155 0.18923 0.36123
 H252 H 0.81055 0.13804 0.36133
 C253 C 0.66497 0.36343 0.33526
 C254 C 0.67455 0.35382 0.35442
 C255 C 0.66500 0.33458 0.36399
 C256 C 0.64581 0.32497 0.35441
 C257 C 0.63621 0.33457 0.33524
 C258 C 0.64578 0.35381 0.32569
 H259 H 0.68956 0.36110 0.36168
 H260 H 0.63856 0.30992 0.36165
 H261 H 0.63851 0.36109 0.31070
 C262 C 0.66492 0.86462 0.83511
 C263 C 0.67448 0.85502 0.85429
 C264 C 0.66487 0.83582 0.86391
 C265 C 0.64566 0.82625 0.85435
 C266 C 0.63608 0.83583 0.83517
 C267 C 0.64570 0.85503 0.82557
 H268 H 0.68951 0.86228 0.86153
 H269 H 0.63837 0.81124 0.86163
 H270 H 0.63845 0.86229 0.81057
 C271 C 0.16430 0.36355 0.83522
 C272 C 0.17386 0.35392 0.85439
 C273 C 0.16429 0.33466 0.86391
 C274 C 0.14513 0.32505 0.85429
 C275 C 0.13555 0.33467 0.83512
 C276 C 0.14513 0.35393 0.82561
 H277 H 0.18885 0.36120 0.86168
 H278 H 0.13788 0.30999 0.86150
 H279 H 0.13789 0.36122 0.81061
 C280 C 0.16527 0.86395 0.33494
 C281 C 0.14606 0.85437 0.32540
 C282 C 0.13641 0.83519 0.33501
 C283 C 0.14596 0.82562 0.35421
 C284 C 0.16518 0.83519 0.36377
 C285 C 0.17482 0.85436 0.35414
 H286 H 0.13882 0.86162 0.31038
 H287 H 0.13866 0.81062 0.36150
 H288 H 0.18985 0.86161 0.36137
 O289 O 0.24804 1.02212 0.27801
 O290 O 0.27891 0.97842 0.24712
 O291 O 0.27886 1.02218 0.24714
 O292 O 0.24811 0.97836 0.27802
 O293 O 0.22192 0.97831 0.25193
 O294 O 0.25268 1.02214 0.22105
 O295 O 0.25272 0.97838 0.22103
 O296 O 0.22186 1.02207 0.25193
 Cu297 Cu 0.26611 1.00027 0.26518
 Cu298 Cu 0.23467 1.00022 0.23387
 C299 C 0.22971 1.02965 0.27021
 C300 C 0.27105 0.97083 0.22883
 C301 C 0.27099 1.02975 0.22886
 C302 C 0.22979 0.97075 0.27022
 O303 O 0.24714 0.52204 0.77884
 O304 O 0.27797 0.47823 0.74807
 O305 O 0.27802 0.52199 0.74803
 O306 O 0.24708 0.47827 0.77887
 O307 O 0.22096 0.47827 0.75272
 O308 O 0.25190 0.52199 0.72187
 O309 O 0.25185 0.47823 0.72191
 O310 O 0.22102 0.52204 0.75269
 Cu311 Cu 0.26517 0.50013 0.76607
 Cu312 Cu 0.23381 0.50013 0.73468
 C313 C 0.22885 0.52963 0.77098
 C314 C 0.27014 0.47064 0.72977
 C315 C 0.27021 0.52956 0.72972
 C316 C 0.22877 0.47069 0.77102
 O317 O 0.75230 -0.02260 0.27853
 O318 O 0.72148 0.02112 0.24769
 O319 O 0.72144 -0.02265 0.24777
 O320 O 0.75232 0.02117 0.27847
 O321 O 0.77847 0.02113 0.25228
 O322 O 0.74759 -0.02269 0.22158
 O323 O 0.74763 0.02108 0.22150
 O324 O 0.77846 -0.02263 0.25234
 Cu325 Cu 0.73426 -0.00074 0.26574
 Cu326 Cu 0.76566 -0.00078 0.23430
 C327 C 0.77061 -0.03018 0.27067
 C328 C 0.72933 0.02867 0.22937
 C329 C 0.72928 -0.03025 0.22946
 C330 C 0.77063 0.02874 0.27059
 O331 O 0.75257 0.47806 0.77884
 O332 O 0.72177 0.52185 0.74810
 O333 O 0.72176 0.47809 0.74803
 O334 O 0.75263 0.52183 0.77886
 O335 O 0.77879 0.52185 0.75269
 O336 O 0.74793 0.47812 0.72186
 O337 O 0.74793 0.52189 0.72193
 O338 O 0.77874 0.47808 0.75267
 Cu339 Cu 0.73456 0.49996 0.76608
 Cu340 Cu 0.76597 0.49999 0.73467
 C341 C 0.77087 0.47048 0.77097
 C342 C 0.72962 0.52945 0.72980
 C343 C 0.72961 0.47054 0.72971
 C344 C 0.77094 0.52942 0.77100
 O345 O 0.24759 0.47796 0.22159
 O346 O 0.27850 0.52176 0.25227
 O347 O 0.27843 0.47800 0.25237
 O348 O 0.24766 0.52172 0.22149
 O349 O 0.22150 0.52180 0.24767
 O350 O 0.25227 0.47808 0.27855
 O351 O 0.25234 0.52185 0.27845
 O352 O 0.22143 0.47804 0.24777
 Cu353 Cu 0.26567 0.49985 0.23431
 Cu354 Cu 0.23426 0.49995 0.26573
 C355 C 0.22926 0.47041 0.22948
 C356 C 0.27066 0.52939 0.27056
 C357 C 0.27057 0.47047 0.27070
 C358 C 0.22936 0.52933 0.22934
 O359 O 0.72178 0.97906 0.75233
 O360 O 0.75269 1.02284 0.72154
 O361 O 0.75269 0.97908 0.72155
 O362 O 0.72176 1.02282 0.75232
 O363 O 0.74786 1.02285 0.77850
 O364 O 0.77878 0.97910 0.74772
 O365 O 0.77878 1.02287 0.74772
 O366 O 0.74787 0.97909 0.77851
 Cu367 Cu 0.73462 1.00095 0.73431
 Cu368 Cu 0.76594 1.00098 0.76573
 C369 C 0.72958 0.97149 0.77064
 C370 C 0.77098 1.03043 0.72940
 C371 C 0.77098 0.97151 0.72941
 C372 C 0.72956 1.03040 0.77063
 O373 O 0.75216 0.52195 0.22170
 O374 O 0.72138 0.47815 0.25259
 O375 O 0.72139 0.52192 0.25263
 O376 O 0.75218 0.47819 0.22169
 O377 O 0.77839 0.47820 0.24775
 O378 O 0.74760 0.52192 0.27869
 O379 O 0.74759 0.47815 0.27865
 O380 O 0.77837 0.52196 0.24776
 Cu381 Cu 0.73415 0.50005 0.23454
 Cu382 Cu 0.76561 0.50006 0.26583
 C383 C 0.77048 0.52954 0.22949
 C384 C 0.72927 0.47056 0.27086
 C385 C 0.72927 0.52949 0.27091
 C386 C 0.77051 0.47063 0.22947
 O387 O 0.25233 -0.02308 0.77840
 O388 O 0.22134 0.02067 0.74775
 O389 O 0.22141 -0.02310 0.74770
 O390 O 0.25220 0.02069 0.77851
 O391 O 0.27832 0.02082 0.75229
 O392 O 0.24753 -0.02299 0.72148
 O393 O 0.24746 0.02078 0.72153
 O394 O 0.27845 -0.02295 0.75218
 Cu395 Cu 0.23421 -0.00122 0.76572
 Cu396 Cu 0.26556 -0.00107 0.73424
 C397 C 0.27065 -0.03058 0.77049
 C398 C 0.22915 0.02830 0.72944
 C399 C 0.22924 -0.03062 0.72936
 C400 C 0.27048 0.02834 0.77063
 O401 O 0.22099 0.25192 1.02196
 O402 O 0.25178 0.22104 0.97820
 O403 O 0.25184 0.22111 1.02192
 O404 O 0.22095 0.25189 0.97824
 O405 O 0.24710 0.27808 0.97815
 O406 O 0.27800 0.24731 1.02182
 O407 O 0.27793 0.24724 0.97811
 O408 O 0.24715 0.27812 1.02187
 Cu409 Cu 0.23377 0.23387 1.00009
 Cu410 Cu 0.26517 0.26531 0.99998
 C411 C 0.22884 0.27026 1.02949
 C412 C 0.27008 0.22890 0.97058
 C413 C 0.27017 0.22899 1.02943
 C414 C 0.22878 0.27021 0.97063
 O415 O 0.22163 0.75235 0.52187
 O416 O 0.25250 0.72159 0.47809
 O417 O 0.25248 0.72154 0.52181
 O418 O 0.22165 0.75241 0.47815
 O419 O 0.24780 0.77861 0.47816
 O420 O 0.27863 0.74775 0.52182
 O421 O 0.27865 0.74780 0.47810
 O422 O 0.24777 0.77856 0.52188
 Cu423 Cu 0.23445 0.73435 0.49998
 Cu424 Cu 0.26583 0.76581 0.49999
 C425 C 0.22946 0.77067 0.52945
 C426 C 0.27081 0.72947 0.47052
 C427 C 0.27078 0.72941 0.52938
 C428 C 0.22949 0.77075 0.47059
 O429 O 0.27881 0.75223 -0.02240
 O430 O 0.24798 0.72142 0.02142
 O431 O 0.24798 0.72136 -0.02230
 O432 O 0.27886 0.75226 0.02132
 O433 O 0.25271 0.77844 0.02135
 O434 O 0.22183 0.74754 -0.02229
 O435 O 0.22183 0.74760 0.02143
 O436 O 0.25267 0.77841 -0.02237
 Cu437 Cu 0.26603 0.73420 -0.00049
 Cu438 Cu 0.23464 0.76562 -0.00047
 C439 C 0.27097 0.77055 -0.02997
 C440 C 0.22967 0.72929 0.02900
 C441 C 0.22967 0.72921 -0.02985
 C442 C 0.27102 0.77059 0.02889
 O443 O 0.27823 0.25206 0.47854
 O444 O 0.24739 0.22109 0.52221
 O445 O 0.24738 0.22120 0.47849
 O446 O 0.27818 0.25202 0.52225
 O447 O 0.25200 0.27816 0.52230
 O448 O 0.22121 0.24735 0.47857
 O449 O 0.22121 0.24723 0.52228
 O450 O 0.25205 0.27821 0.47859
 Cu451 Cu 0.26542 0.23397 0.50037
 Cu452 Cu 0.23399 0.26535 0.50044
 C453 C 0.27038 0.27038 0.47100
 C454 C 0.22907 0.22890 0.52981
 C455 C 0.22907 0.22906 0.47095
 C456 C 0.27031 0.27032 0.52985
 O457 O 0.77839 0.74822 1.02183
 O458 O 0.74757 0.77914 0.97820
 O459 O 0.74756 0.77906 1.02192
 O460 O 0.77842 0.74831 0.97812
 O461 O 0.75226 0.72212 0.97809
 O462 O 0.72140 0.75287 1.02189
 O463 O 0.72141 0.75294 0.97818
 O464 O 0.75222 0.72203 1.02181
 Cu465 Cu 0.76560 0.76631 1.00002
 Cu466 Cu 0.73420 0.73487 0.99999
 C467 C 0.77053 0.72988 1.02937
 C468 C 0.72926 0.77128 0.97063
 C469 C 0.72925 0.77118 1.02949
 C470 C 0.77058 0.72999 0.97053
 O471 O 0.74789 0.27811 0.47823
 O472 O 0.77879 0.24737 0.52193
 O473 O 0.77874 0.24729 0.47821
 O474 O 0.74793 0.27818 0.52194
 O475 O 0.72178 0.25198 0.52204
 O476 O 0.75259 0.22108 0.47831
 O477 O 0.75264 0.22116 0.52203
 O478 O 0.72174 0.25191 0.47833
 Cu479 Cu 0.76596 0.26536 0.50006
 Cu480 Cu 0.73457 0.23391 0.50019
 C481 C 0.72958 0.27023 0.47071
 C482 C 0.77095 0.22905 0.52955
 C483 C 0.77089 0.22895 0.47068
 C484 C 0.72963 0.27033 0.52956
 O485 O 0.75212 0.27841 0.02174
 O486 O 0.72131 0.24752 -0.02196
 O487 O 0.72135 0.24746 0.02175
 O488 O 0.75203 0.27851 -0.02198
 O489 O 0.77827 0.25243 -0.02210
 O490 O 0.74760 0.22138 0.02165
 O491 O 0.74756 0.22144 -0.02207
 O492 O 0.77836 0.25233 0.02161
 Cu493 Cu 0.73407 0.26559 -0.00010
 Cu494 Cu 0.76558 0.23428 -0.00024
 C495 C 0.77047 0.27061 0.02924
 C496 C 0.72921 0.22924 -0.02958
 C497 C 0.72927 0.22915 0.02927
 C498 C 0.77035 0.27074 -0.02962
 O499 O 0.77861 0.75283 0.47841
 O500 O 0.74787 0.72196 0.52223
 O501 O 0.74780 0.72194 0.47851
 O502 O 0.77870 0.75284 0.52213
 O503 O 0.75252 0.77899 0.52220
 O504 O 0.72162 0.74809 0.47858
 O505 O 0.72169 0.74810 0.52230
 O506 O 0.75244 0.77898 0.47848
 Cu507 Cu 0.76587 0.73477 0.50031
 Cu508 Cu 0.73445 0.76616 0.50040
 C509 C 0.77074 0.77114 0.47086
 C510 C 0.72956 0.72979 0.52985
 C511 C 0.72947 0.72977 0.47099
 C512 C 0.77085 0.77116 0.52971
 O513 O 0.97832 0.25246 0.22116
 O514 O 1.02202 0.22166 0.25203
 O515 O 0.97828 0.22159 0.25197
 O516 O 1.02207 0.25250 0.22119
 O517 O 1.02200 0.27868 0.24734
 O518 O 0.97820 0.24777 0.27811
 O519 O 1.02194 0.24784 0.27817
 O520 O 0.97825 0.27863 0.24730
 Cu521 Cu 1.00018 0.23443 0.23397
 Cu522 Cu 1.00009 0.26585 0.26535
 C523 C 0.97072 0.27077 0.22900
 C524 C 1.02954 0.22952 0.27034
 C525 C 0.97066 0.22943 0.27026
 C526 C 1.02962 0.27083 0.22904
 O527 O 0.52168 0.22120 0.75233
 O528 O 0.47793 0.25209 0.72163
 O529 O 0.52167 0.25210 0.72156
 O530 O 0.47793 0.22116 0.75238
 O531 O 0.47793 0.24728 0.77857
 O532 O 0.52168 0.27822 0.74776
 O533 O 0.47794 0.27821 0.74783
 O534 O 0.52168 0.24732 0.77852
 Cu535 Cu 0.49980 0.23402 0.73435
 Cu536 Cu 0.49981 0.26537 0.76580
 C537 C 0.52925 0.22902 0.77063
 C538 C 0.47036 0.27039 0.72953
 C539 C 0.52925 0.27041 0.72944
 C540 C 0.47036 0.22897 0.77070
 O541 O -0.02262 0.22113 0.74757
 O542 O 0.02113 0.25193 0.77840
 O543 O -0.02261 0.25208 0.77829
 O544 O 0.02113 0.22099 0.74766
 O545 O 0.02131 0.24709 0.72144
 O546 O -0.02241 0.27818 0.75207
 O547 O 0.02133 0.27803 0.75217
 O548 O -0.02243 0.24722 0.72135
 Cu549 Cu -0.00076 0.23392 0.76561
 Cu550 Cu -0.00053 0.26524 0.73413
 C551 C -0.03010 0.22895 0.72923
 C552 C 0.02880 0.27021 0.77052
 C553 C -0.03008 0.27041 0.77037
 C554 C 0.02879 0.22877 0.72936
 O555 O 0.47808 0.27812 0.25246
 O556 O 0.52180 0.24725 0.22160
 O557 O 0.47806 0.24732 0.22158
 O558 O 0.52182 0.27807 0.25245
 O559 O 0.52173 0.25186 0.27856
 O560 O 0.47797 0.22111 0.24769
 O561 O 0.52171 0.22104 0.24771
 O562 O 0.47799 0.25190 0.27856
 Cu563 Cu 0.49995 0.26532 0.23441
 Cu564 Cu 0.49984 0.23385 0.26574
 C565 C 0.47046 0.27025 0.27075
 C566 C 0.52933 0.22891 0.22942
 C567 C 0.47044 0.22900 0.22939
 C568 C 0.52935 0.27018 0.27075
 O569 O 1.02252 0.77891 0.74743
 O570 O 0.97867 0.74813 0.77824
 O571 O 1.02241 0.74800 0.77819
 O572 O 0.97877 0.77902 0.74745
 O573 O 0.97870 0.75288 0.72127
 O574 O 1.02233 0.72186 0.75201
 O575 O 0.97859 0.72199 0.75206
 O576 O 1.02245 0.75277 0.72125
 Cu577 Cu 1.00060 0.76614 0.76545
 Cu578 Cu 1.00051 0.73476 0.73402
 C579 C 1.03008 0.77106 0.72911
 C580 C 0.97104 0.72984 0.77038
 C581 C 1.02992 0.72967 0.77031
 C582 C 0.97118 0.77120 0.72915
 O583 O 0.52241 0.72202 0.25217
 O584 O 0.47881 0.75278 0.22114
 O585 O 0.52255 0.75284 0.22132
 O586 O 0.47867 0.72198 0.25202
 O587 O 0.47853 0.74819 0.27813
 O588 O 0.52241 0.77906 0.24742
 O589 O 0.47866 0.77899 0.24725
 O590 O 0.52227 0.74823 0.27828
 Cu591 Cu 0.50062 0.73478 0.23404
 Cu592 Cu 0.50045 0.76625 0.26538
 C593 C 0.52988 0.72990 0.27049
 C594 C 0.47118 0.77110 0.22894
 C595 C 0.53008 0.77119 0.22916
 C596 C 0.47101 0.72985 0.27029
 O597 O -0.02188 0.72180 0.24752
 O598 O 0.02185 0.75259 0.27839
 O599 O -0.02190 0.75265 0.27834
 O600 O 0.02186 0.72177 0.24753
 O601 O 0.02195 0.74797 0.22140
 O602 O -0.02180 0.77884 0.25221
 O603 O 0.02195 0.77879 0.25226
 O604 O -0.02179 0.74800 0.22139
 Cu605 Cu -0.00003 0.73458 0.26556
 Cu606 Cu 0.00009 0.76602 0.23420
 C607 C -0.02940 0.72968 0.22921
 C608 C 0.02947 0.77091 0.27056
 C609 C -0.02942 0.77099 0.27050
 C610 C 0.02948 0.72963 0.22924
 O611 O 0.52160 0.75299 0.77874
 O612 O 0.47797 0.72203 0.74791
 O613 O 0.52171 0.72205 0.74802
 O614 O 0.47785 0.75297 0.77863
 O615 O 0.47795 0.77907 0.75241
 O616 O 0.52181 0.74815 0.72180
 O617 O 0.47807 0.74813 0.72169
 O618 O 0.52170 0.77909 0.75252
 Cu619 Cu 0.49977 0.73490 0.76595
 Cu620 Cu 0.49989 0.76622 0.73448
 C621 C 0.52921 0.77129 0.77086
 C622 C 0.47046 0.72982 0.72956
 C623 C 0.52935 0.72985 0.72971
 C624 C 0.47030 0.77126 0.77072
 C625 C 0.41724 0.30462 0.30511
 C626 C 0.42615 0.31353 0.28530
 C627 C 0.44366 0.30251 0.27425
 C628 C 0.38281 0.32441 0.32489
 C629 C 0.44358 0.27369 0.30295
 C630 C 0.42606 0.28475 0.31397
 C631 C 0.39863 0.31549 0.31599
 C632 C 0.45248 0.28238 0.28288
 H633 H 0.41941 0.32888 0.27828
 H634 H 0.45013 0.30964 0.25884
 H635 H 0.44997 0.25824 0.31003
 H636 H 0.41925 0.27768 0.32927
 C637 C 0.41683 0.80559 0.80474
 C638 C 0.42577 0.81444 0.78492
 C639 C 0.44338 0.80344 0.77398
 C640 C 0.38222 0.82528 0.82432
 C641 C 0.44331 0.77477 0.80282
 C642 C 0.42571 0.78581 0.81372
 C643 C 0.39813 0.81643 0.81549
 C644 C 0.45225 0.78339 0.78273
 H645 H 0.41899 0.82973 0.77779
 H646 H 0.44987 0.81052 0.75856
 H647 H 0.44974 0.75938 0.81000
 H648 H 0.41887 0.77878 0.82903
 C649 C -0.08326 0.30507 0.80450
 C650 C -0.07431 0.31386 0.78466
 C651 C -0.05681 0.30275 0.77368
 C652 C -0.11765 0.32502 0.82419
 C653 C -0.05700 0.27407 0.80252
 C654 C -0.07450 0.28522 0.81346
 C655 C -0.10185 0.31604 0.81531
 C656 C -0.04805 0.28264 0.78242
 H657 H -0.08100 0.32919 0.77756
 H658 H -0.05030 0.30978 0.75825
 H659 H -0.05065 0.25863 0.80969
 H660 H -0.08134 0.27824 0.82879
 C661 C -0.08273 0.80535 0.30474
 C662 C -0.07379 0.81425 0.28494
 C663 C -0.05625 0.80324 0.27393
 C664 C -0.11723 0.82511 0.32444
 C665 C -0.05636 0.77445 0.30266
 C666 C -0.07390 0.78550 0.31363
 C667 C -0.10137 0.81621 0.31557
 C668 C -0.04742 0.78312 0.28259
 H669 H -0.08053 0.82958 0.27789
 H670 H -0.04976 0.81035 0.25853
 H671 H -0.04996 0.75900 0.30977
 H672 H -0.08073 0.77844 0.32893
 C673 C 0.58293 0.69560 0.30506
 C674 C 0.57415 0.68668 0.28522
 C675 C 0.55669 0.69768 0.27410
 C676 C 0.61725 0.67581 0.32495
 C677 C 0.55659 0.72650 0.30278
 C678 C 0.57404 0.71547 0.31387
 C679 C 0.60148 0.68473 0.31600
 C680 C 0.54781 0.71780 0.28269
 H681 H 0.58094 0.67133 0.27823
 H682 H 0.55033 0.69053 0.25867
 H683 H 0.55013 0.74196 0.30984
 H684 H 0.58075 0.72255 0.32919
 C685 C 0.58257 0.19470 0.80476
 C686 C 0.57370 0.18583 0.78494
 C687 C 0.55615 0.19683 0.77397
 C688 C 0.61709 0.17500 0.82439
 C689 C 0.55612 0.22553 0.80278
 C690 C 0.57367 0.21450 0.81371
 C691 C 0.60123 0.18386 0.81555
 C692 C 0.54725 0.21689 0.78269
 H693 H 0.58050 0.17054 0.77784
 H694 H 0.54972 0.18974 0.75854
 H695 H 0.54966 0.24093 0.80993
 H696 H 0.58045 0.22153 0.82903
 C697 C 1.08302 0.69510 0.80453
 C698 C 1.07413 0.68627 0.78471
 C699 C 1.05666 0.69735 0.77370
 C700 C 1.11738 0.67519 0.82424
 C701 C 1.05675 0.72608 0.80248
 C702 C 1.07423 0.71496 0.81345
 C703 C 1.10159 0.68416 0.81536
 C704 C 1.04786 0.71747 0.78239
 H705 H 1.08085 0.67092 0.77763
 H706 H 1.05020 0.69028 0.75828
 H707 H 1.05037 0.74153 0.80961
 H708 H 1.08102 0.72197 0.82877
 C709 C 1.08270 0.19523 0.30474
 C710 C 1.07380 0.21506 0.31361
 C711 C 1.05631 0.22610 0.30257
 C712 C 1.11708 0.17546 0.32455
 C713 C 1.05640 0.19732 0.27384
 C714 C 1.07389 0.18632 0.28490
 C715 C 1.10128 0.18437 0.31563
 C716 C 1.04750 0.21742 0.28248
 H717 H 1.08053 0.22212 0.32893
 H718 H 1.04985 0.24153 0.30967
 H719 H 1.05001 0.19020 0.25841
 H720 H 1.08069 0.17100 0.27787
 C721 C 0.58257 0.30479 0.69516
 C722 C 0.57369 0.31366 0.71501
 C723 C 0.55614 0.30264 0.72603
 C724 C 0.61709 0.32455 0.67546
 C725 C 0.55612 0.27393 0.69722
 C726 C 0.57367 0.28498 0.68624
 C727 C 0.60122 0.31566 0.68433
 C728 C 0.54725 0.28256 0.71733
 H729 H 0.58049 0.32896 0.72208
 H730 H 0.54971 0.30972 0.74146
 H731 H 0.54966 0.25851 0.69009
 H732 H 0.58045 0.27795 0.67091
 C733 C 0.58351 0.80554 0.19503
 C734 C 0.57469 0.78568 0.18614
 C735 C 0.55711 0.77463 0.19708
 C736 C 0.61807 0.82531 0.17540
 C737 C 0.55694 0.80344 0.22578
 C738 C 0.57453 0.81445 0.21480
 C739 C 0.60219 0.81641 0.18424
 C740 C 0.54813 0.78331 0.21711
 H741 H 0.58156 0.77861 0.17086
 H742 H 0.55071 0.75918 0.18996
 H743 H 0.55042 0.81057 0.24116
 H744 H 0.58126 0.82980 0.22186
 C745 C 1.08300 0.30517 0.19482
 C746 C 1.07413 0.28534 0.18591
 C747 C 1.05656 0.27430 0.19688
 C748 C 1.11755 0.32490 0.17512
 C749 C 1.05651 0.30306 0.22563
 C750 C 1.07408 0.31407 0.21462
 C751 C 1.10167 0.31602 0.18399
 C752 C 1.04764 0.28296 0.21696
 H753 H 1.08094 0.27828 0.17061
 H754 H 1.05012 0.25887 0.18976
 H755 H 1.05004 0.31017 0.24104
 H756 H 1.08086 0.32939 0.22168
 C757 C 1.08353 0.80529 0.69488
 C758 C 1.07460 0.78549 0.68596
 C759 C 1.05701 0.77448 0.69693
 C760 C 1.11811 0.82498 0.67520
 C761 C 1.05706 0.80322 0.72570
 C762 C 1.07465 0.81419 0.71470
 C763 C 1.10222 0.81611 0.68405
 C764 C 1.04813 0.78315 0.71702
 H765 H 1.08139 0.77843 0.67065
 H766 H 1.05053 0.75907 0.68980
 H767 H 1.05062 0.81034 0.74112
 H768 H 1.08147 0.82949 0.72177
 C769 C 0.41731 0.69537 0.69524
 C770 C 0.42622 0.71519 0.68632
 C771 C 0.44372 0.72627 0.69732
 C772 C 0.38290 0.67556 0.67549
 C773 C 0.44360 0.69758 0.72614
 C774 C 0.42611 0.68653 0.71510
 C775 C 0.39871 0.68448 0.68438
 C776 C 0.45251 0.71766 0.71745
 H777 H 0.41950 0.72220 0.67097
 H778 H 0.45019 0.74168 0.69018
 H779 H 0.44998 0.69051 0.74159
 H780 H 0.41929 0.67123 0.72218
 C781 C 0.41717 0.19478 0.19502
 C782 C 0.42600 0.18584 0.21483
 C783 C 0.44353 0.19681 0.22588
 C784 C 0.38270 0.17506 0.17526
 C785 C 0.44362 0.22563 0.19719
 C786 C 0.42608 0.21463 0.18617
 C787 C 0.39854 0.18395 0.18415
 C788 C 0.45244 0.21692 0.21726
 H789 H 0.41918 0.17050 0.22185
 H790 H 0.44993 0.18966 0.24128
 H791 H 0.45009 0.24107 0.19011
 H792 H 0.41934 0.22172 0.17087
 C793 C -0.08266 0.69539 0.19488
 C794 C -0.07375 0.71524 0.18601
 C795 C -0.05622 0.72626 0.19701
 C796 C -0.11712 0.67566 0.17515
 C797 C -0.05629 0.69746 0.22573
 C798 C -0.07382 0.68647 0.21469
 C799 C -0.10128 0.68455 0.18403
 C800 C -0.04739 0.71757 0.21709
 H801 H -0.08050 0.72231 0.17071
 H802 H -0.04976 0.74170 0.18992
 H803 H -0.04988 0.69033 0.24114
 H804 H -0.08062 0.67114 0.22173
 C805 C -0.08339 0.19467 0.69495
 C806 C -0.07460 0.18580 0.71480
 C807 C -0.05706 0.19679 0.72582
 C808 C -0.11788 0.17494 0.67523
 C809 C -0.05689 0.22549 0.69701
 C810 C -0.07443 0.21446 0.68602
 C811 C -0.10203 0.18383 0.68410
 C812 C -0.04810 0.21685 0.71712
 H813 H -0.08145 0.17051 0.72188
 H814 H -0.05069 0.18969 0.74127
 H815 H -0.05038 0.24088 0.68987
 H816 H -0.08114 0.22150 0.67068
 C817 C 0.30482 0.41724 0.30509
 C818 C 0.31373 0.42606 0.28524
 C819 C 0.30275 0.44358 0.27418
 C820 C 0.32453 0.38280 0.32488
 C821 C 0.27399 0.44367 0.30295
 C822 C 0.28500 0.42615 0.31398
 C823 C 0.31566 0.39863 0.31597
 C824 C 0.28266 0.45249 0.28284
 H825 H 0.32904 0.41925 0.27819
 H826 H 0.30987 0.44998 0.25874
 H827 H 0.25857 0.45014 0.31006
 H828 H 0.27794 0.41941 0.32931
 C829 C 0.30522 -0.08379 0.80460
 C830 C 0.28537 -0.07502 0.81356
 C831 C 0.27425 -0.05751 0.80262
 C832 C 0.32515 -0.11819 0.82426
 C833 C 0.30296 -0.05734 0.77380
 C834 C 0.31404 -0.07485 0.78477
 C835 C 0.31617 -0.10238 0.81540
 C836 C 0.28284 -0.04856 0.78253
 H837 H 0.27837 -0.08185 0.82888
 H838 H 0.25881 -0.05114 0.80979
 H839 H 0.31002 -0.05084 0.75837
 H840 H 0.32938 -0.08155 0.77767
 C841 C 0.80507 0.41708 0.80516
 C842 C 0.78526 0.42599 0.81409
 C843 C 0.77427 0.44357 0.80313
 C844 C 0.82471 0.38251 0.82482
 C845 C 0.80303 0.44355 0.77435
 C846 C 0.81398 0.42597 0.78534
 C847 C 0.81587 0.39840 0.81597
 C848 C 0.78296 0.45245 0.78305
 H849 H 0.77819 0.41920 0.82940
 H850 H 0.75887 0.45003 0.81027
 H851 H 0.81015 0.44999 0.75893
 H852 H 0.82928 0.41916 0.77826
 C853 C 0.80498 -0.08335 0.30503
 C854 C 0.78515 -0.07449 0.31393
 C855 C 0.77409 -0.05699 0.30291
 C856 C 0.82480 -0.11773 0.32484
 C857 C 0.80284 -0.05701 0.27412
 C858 C 0.81386 -0.07451 0.28518
 C859 C 0.81588 -0.10193 0.31592
 C860 C 0.78274 -0.04815 0.28279
 H861 H 0.77811 -0.08125 0.32927
 H862 H 0.75866 -0.05056 0.31002
 H863 H 0.80994 -0.05059 0.25868
 H864 H 0.82919 -0.08128 0.27813
 C865 C 0.30468 0.58277 0.69535
 C866 C 0.31352 0.57392 0.71519
 C867 C 0.30247 0.55640 0.72624
 C868 C 0.32452 0.61719 0.67556
 C869 C 0.27376 0.55639 0.69749
 C870 C 0.28485 0.57390 0.68647
 C871 C 0.31558 0.60137 0.68447
 C872 C 0.28238 0.54753 0.71759
 H873 H 0.32884 0.58070 0.72223
 H874 H 0.30955 0.54998 0.74167
 H875 H 0.25834 0.54995 0.69038
 H876 H 0.27783 0.58066 0.67115
 C877 C 0.30522 1.08312 0.19452
 C878 C 0.28539 1.07422 0.18567
 C879 C 0.27438 1.05665 0.19667
 C880 C 0.32491 1.11766 0.17478
 C881 C 0.30317 1.05668 0.22535
 C882 C 0.31414 1.07425 0.21431
 C883 C 0.31604 1.10179 0.18366
 C884 C 0.28307 1.04778 0.21673
 H885 H 0.27831 1.08100 0.17038
 H886 H 0.25895 1.05019 0.18960
 H887 H 0.31030 1.05024 0.24074
 H888 H 0.32946 1.08105 0.22132
 C889 C 0.80475 0.58284 0.19506
 C890 C 0.78490 0.57395 0.18624
 C891 C 0.77388 0.55641 0.19728
 C892 C 0.82449 0.61730 0.17525
 C893 C 0.80269 0.55643 0.22593
 C894 C 0.81368 0.57397 0.21486
 C895 C 0.81560 0.60146 0.18417
 C896 C 0.78258 0.54755 0.21734
 H897 H 0.77783 0.58072 0.17095
 H898 H 0.75844 0.54996 0.19022
 H899 H 0.80983 0.55000 0.24133
 H900 H 0.82901 0.58076 0.22186
 C901 C 0.80542 1.08370 0.69511
 C902 C 0.78560 1.07482 0.68620
 C903 C 0.77453 1.05729 0.69720
 C904 C 0.82525 1.11816 0.67535
 C905 C 0.80321 1.05732 0.72598
 C906 C 0.81425 1.07485 0.71494
 C907 C 0.81632 1.10232 0.68425
 C908 C 0.78313 1.04843 0.71730
 H909 H 0.77860 1.08159 0.67088
 H910 H 0.75911 1.05084 0.69008
 H911 H 0.81028 1.05089 0.74141
 H912 H 0.82956 1.08163 0.72200
 C913 C 0.69506 0.58278 0.30531
 C914 C 0.68612 0.57390 0.28553
 C915 C 0.69708 0.55636 0.27446
 C916 C 0.67538 0.61729 0.32508
 C917 C 0.72589 0.55636 0.30311
 C918 C 0.71489 0.57390 0.31414
 C919 C 0.68424 0.60143 0.31619
 C920 C 0.71719 0.54748 0.28306
 H921 H 0.67079 0.58069 0.27853
 H922 H 0.68994 0.54992 0.25907
 H923 H 0.74133 0.54991 0.31017
 H924 H 0.72198 0.58068 0.32943
 C925 C 0.69506 1.08357 0.80494
 C926 C 0.68624 1.07470 0.78510
 C927 C 0.69731 1.05721 0.77406
 C928 C 0.67516 1.11794 0.82473
 C929 C 0.72599 1.05725 0.80284
 C930 C 0.71489 1.07474 0.81384
 C931 C 0.68412 1.10215 0.81582
 C932 C 0.71739 1.04837 0.78273
 H933 H 0.67092 1.08145 0.77804
 H934 H 0.69024 1.05077 0.75863
 H935 H 0.74141 1.05083 0.80996
 H936 H 0.72189 1.08152 0.82917
 C937 C 0.19462 0.58305 0.80518
 C938 C 0.18573 0.57416 0.78537
 C939 C 0.19670 0.55657 0.77438
 C940 C 0.17497 0.61764 0.82483
 C941 C 0.22541 0.55655 0.80314
 C942 C 0.21440 0.57414 0.81409
 C943 C 0.18381 0.60174 0.81598
 C944 C 0.21676 0.54767 0.78306
 H945 H 0.17045 0.58097 0.77830
 H946 H 0.18960 0.55012 0.75897
 H947 H 0.24080 0.55009 0.81026
 H948 H 0.22145 0.58094 0.82939
 C949 C 0.19529 1.08279 0.30465
 C950 C 0.21515 1.07397 0.31348
 C951 C 0.22623 1.05649 0.30244
 C952 C 0.17544 1.11716 0.32448
 C953 C 0.19744 1.05643 0.27376
 C954 C 0.18640 1.07391 0.28484
 C955 C 0.18438 1.10136 0.31555
 C956 C 0.21757 1.04761 0.28236
 H957 H 0.22220 1.08076 0.32878
 H958 H 0.24168 1.05009 0.30950
 H959 H 0.19033 1.04998 0.25835
 H960 H 0.17105 1.08065 0.27783
 C961 C 0.69528 0.41730 0.69535
 C962 C 0.68639 0.42613 0.71520
 C963 C 0.69739 0.44365 0.72625
 C964 C 0.67552 0.38286 0.67556
 C965 C 0.72615 0.44372 0.69748
 C966 C 0.71511 0.42620 0.68646
 C967 C 0.68442 0.39869 0.68447
 C968 C 0.71749 0.45255 0.71759
 H969 H 0.67107 0.41932 0.72225
 H970 H 0.69028 0.45006 0.74169
 H971 H 0.74158 0.45019 0.69036
 H972 H 0.72216 0.41946 0.67113
 C973 C 0.69485 -0.08353 0.19525
 C974 C 0.68599 -0.07464 0.21508
 C975 C 0.69703 -0.05711 0.22609
 C976 C 0.67501 -0.11796 0.17552
 C977 C 0.72577 -0.05715 0.19730
 C978 C 0.71470 -0.07468 0.18633
 C979 C 0.68394 -0.10214 0.18441
 C980 C 0.71713 -0.04826 0.21739
 H981 H 0.67066 -0.08140 0.22216
 H982 H 0.68993 -0.05065 0.24151
 H983 H 0.74121 -0.05073 0.19016
 H984 H 0.72173 -0.08147 0.17101
 C985 C 0.19483 0.41712 0.19531
 C986 C 0.18596 0.42603 0.21513
 C987 C 0.19700 0.44357 0.22612
 C988 C 0.17499 0.38266 0.17562
 C989 C 0.22575 0.44349 0.19734
 C990 C 0.21468 0.42595 0.18638
 C991 C 0.18392 0.39849 0.18449
 C992 C 0.21711 0.45241 0.21742
 H993 H 0.17063 0.41928 0.22221
 H994 H 0.18991 0.45004 0.24153
 H995 H 0.24119 0.44990 0.19019
 H996 H 0.22171 0.41914 0.17107
 C997 C 0.19490 -0.08389 0.69507
 C998 C 0.18603 -0.07506 0.71492
 C999 C 0.19704 -0.05753 0.72595
 C1000 C 0.17509 -0.11833 0.67531
 C1001 C 0.22576 -0.05746 0.69714
 C1002 C 0.21471 -0.07499 0.68615
 C1003 C 0.18401 -0.10251 0.68420
 C1004 C 0.21712 -0.04862 0.71726
 H1005 H 0.17072 -0.08187 0.72200
 H1006 H 0.18995 -0.05112 0.74140
 H1007 H 0.24118 -0.05099 0.69001
 H1008 H 0.22175 -0.08174 0.67080
 C1009 C 0.30471 0.30477 0.41775
 C1010 C 0.31362 0.28495 0.42662
 C1011 C 0.30261 0.27390 0.44415
 C1012 C 0.32447 0.32452 0.38327
 C1013 C 0.27382 0.30262 0.44415
 C1014 C 0.28486 0.31364 0.42663
 C1015 C 0.31557 0.31563 0.39912
 C1016 C 0.28250 0.28253 0.45302
 H1017 H 0.32895 0.27792 0.41984
 H1018 H 0.30973 0.25848 0.45059
 H1019 H 0.25838 0.30971 0.45059
 H1020 H 0.27780 0.32896 0.41985
 C1021 C 0.30523 0.80484 -0.08332
 C1022 C 0.31412 0.78501 -0.07447
 C1023 C 0.30314 0.77398 -0.05691
 C1024 C 0.32490 0.82459 -0.11785
 C1025 C 0.27441 0.80276 -0.05684
 C1026 C 0.28542 0.81375 -0.07440
 C1027 C 0.31605 0.81569 -0.10198
 C1028 C 0.28307 0.78266 -0.04799
 H1029 H 0.32942 0.77794 -0.08129
 H1030 H 0.31025 0.75855 -0.05049
 H1031 H 0.25900 0.80989 -0.05036
 H1032 H 0.27837 0.82908 -0.08116
 C1033 C 0.80445 0.30530 -0.08290
 C1034 C 0.81343 0.28549 -0.07409
 C1035 C 0.80250 0.27437 -0.05655
 C1036 C 0.82409 0.32515 -0.11739
 C1037 C 0.77365 0.30303 -0.05642
 C1038 C 0.78461 0.31411 -0.07396
 C1039 C 0.81524 0.31623 -0.10154
 C1040 C 0.78240 0.28295 -0.04761
 H1041 H 0.82876 0.27850 -0.08092
 H1042 H 0.80968 0.25896 -0.05016
 H1043 H 0.75821 0.31007 -0.04993
 H1044 H 0.77749 0.32941 -0.08069
 C1045 C 0.80489 0.80546 0.41745
 C1046 C 0.81382 0.78564 0.42631
 C1047 C 0.80288 0.77461 0.44389
 C1048 C 0.82451 0.82517 0.38287
 C1049 C 0.77410 0.80335 0.44397
 C1050 C 0.78508 0.81435 0.42639
 C1051 C 0.81568 0.81630 0.39876
 C1052 C 0.78280 0.78327 0.45282
 H1053 H 0.82912 0.77860 0.41947
 H1054 H 0.81002 0.75919 0.45031
 H1055 H 0.75869 0.81045 0.45045
 H1056 H 0.77800 0.82965 0.41962
 C1057 C 0.69532 0.30473 0.58279
 C1058 C 0.71515 0.31362 0.57387
 C1059 C 0.72618 0.30260 0.55636
 C1060 C 0.67556 0.32452 0.61722
 C1061 C 0.69743 0.27380 0.55645
 C1062 C 0.68643 0.28486 0.57397
 C1063 C 0.68446 0.31561 0.60139
 C1064 C 0.71752 0.28247 0.54754
 H1065 H 0.72220 0.32897 0.58061
 H1066 H 0.74161 0.30971 0.54989
 H1067 H 0.69032 0.25835 0.55006
 H1068 H 0.67111 0.27780 0.58078
 C1069 C 0.69499 0.80533 1.08291
 C1070 C 0.68609 0.78551 1.07401
 C1071 C 0.69706 0.77454 1.05642
 C1072 C 0.67533 0.82495 1.11750
 C1073 C 0.72582 0.80333 1.05643
 C1074 C 0.71481 0.81427 1.07402
 C1075 C 0.68418 0.81612 1.10161
 C1076 C 0.71714 0.78325 1.04753
 H1077 H 0.67078 0.77842 1.08081
 H1078 H 0.68994 0.75912 1.04996
 H1079 H 0.74123 0.81048 1.04998
 H1080 H 0.72187 0.82958 1.08082
 C1081 C 0.19459 0.30459 1.08279
 C1082 C 0.21441 0.31350 1.07387
 C1083 C 0.22542 0.30250 1.05633
 C1084 C 0.17488 0.32434 1.11728
 C1085 C 0.19666 0.27371 1.05641
 C1086 C 0.18568 0.28475 1.07395
 C1087 C 0.18375 0.31545 1.10143
 C1088 C 0.21675 0.28238 1.04749
 H1089 H 0.22147 0.32884 1.08063
 H1090 H 0.24084 0.30962 1.04985
 H1091 H 0.18954 0.25827 1.05000
 H1092 H 0.17037 0.27768 1.08077
 C1093 C 0.19515 0.80486 0.58281
 C1094 C 0.21496 0.81380 0.57393
 C1095 C 0.22600 0.80285 0.55636
 C1096 C 0.17544 0.82451 0.61736
 C1097 C 0.19726 0.77404 0.55635
 C1098 C 0.18626 0.78503 0.57392
 C1099 C 0.18431 0.81566 0.60148
 C1100 C 0.21734 0.78275 0.54747
 H1101 H 0.22201 0.82912 0.58072
 H1102 H 0.24141 0.81000 0.54991
 H1103 H 0.19015 0.75861 0.54990
 H1104 H 0.17095 0.77794 0.58071
 C1105 C 0.30503 0.69512 0.58262
 C1106 C 0.31393 0.71497 0.57375
 C1107 C 0.30296 0.72599 0.55622
 C1108 C 0.32471 0.67542 0.61711
 C1109 C 0.27422 0.69718 0.55622
 C1110 C 0.28523 0.68619 0.57375
 C1111 C 0.31585 0.68429 0.60126
 C1112 C 0.28289 0.71730 0.54735
 H1113 H 0.32924 0.72204 0.58054
 H1114 H 0.31007 0.74143 0.54979
 H1115 H 0.25881 0.69005 0.54978
 H1116 H 0.27817 0.67086 0.58053
 C1117 C 0.30457 0.19475 1.08262
 C1118 C 0.31344 0.21459 1.07370
 C1119 C 0.30241 0.22560 1.05620
 C1120 C 0.32437 0.17504 1.11703
 C1121 C 0.27367 0.19680 1.05631
 C1122 C 0.28473 0.18582 1.07381
 C1123 C 0.31546 0.18392 1.10122
 C1124 C 0.28231 0.21690 1.04740
 H1125 H 0.32877 0.22167 1.08043
 H1126 H 0.30951 0.24103 1.04972
 H1127 H 0.25823 0.18966 1.04993
 H1128 H 0.27769 0.17050 1.08063
 C1129 C 0.80481 0.69547 1.08253
 C1130 C 0.81371 0.71533 1.07369
 C1131 C 0.80273 0.72639 1.05619
 C1132 C 0.82453 0.67567 1.11693
 C1133 C 0.77397 0.69760 1.05616
 C1134 C 0.78499 0.68657 1.07365
 C1135 C 0.81565 0.68458 1.10112
 C1136 C 0.78264 0.71773 1.04732
 H1137 H 0.82903 0.72238 1.08047
 H1138 H 0.80984 0.74184 1.04978
 H1139 H 0.75854 0.69049 1.04972
 H1140 H 0.77793 0.67123 1.08041
 C1141 C 0.80526 0.19492 0.58286
 C1142 C 0.81415 0.21474 0.57392
 C1143 C 0.80316 0.22571 0.55637
 C1144 C 0.82495 0.17530 0.61739
 C1145 C 0.77442 0.19690 0.55647
 C1146 C 0.78545 0.18596 0.57402
 C1147 C 0.81609 0.18414 0.60152
 C1148 C 0.78308 0.21699 0.54754
 H1149 H 0.82946 0.22184 0.58067
 H1150 H 0.81026 0.24113 0.54989
 H1151 H 0.75900 0.18974 0.55007
 H1152 H 0.77840 0.17065 0.58085
 C1153 C 0.69513 0.69542 0.41781
 C1154 C 0.68624 0.71525 0.42671
 C1155 C 0.69724 0.72629 0.44421
 C1156 C 0.67540 0.67568 0.38337
 C1157 C 0.72601 0.69755 0.44415
 C1158 C 0.71497 0.68654 0.42664
 C1159 C 0.68428 0.68457 0.39920
 C1160 C 0.71734 0.71764 0.45304
 H1161 H 0.67091 0.72229 0.41996
 H1162 H 0.69012 0.74172 0.45067
 H1163 H 0.74144 0.69044 0.45055
 H1164 H 0.72203 0.67122 0.41984
 C1165 C 0.69500 0.19488 -0.08284
 C1166 C 0.68605 0.21468 -0.07393
 C1167 C 0.69701 0.22572 -0.05640
 C1168 C 0.67536 0.17513 -0.11732
 C1169 C 0.72585 0.19705 -0.05647
 C1170 C 0.71485 0.18604 -0.07400
 C1171 C 0.68420 0.18402 -0.10148
 C1172 C 0.71712 0.21711 -0.04756
 H1173 H 0.67071 0.22169 -0.08068
 H1174 H 0.68985 0.24112 -0.04993
 H1175 H 0.74129 0.18997 -0.05006
 H1176 H 0.72195 0.17075 -0.08081
 C1177 C 0.19535 0.69482 -0.08302
 C1178 C 0.18646 0.71467 -0.07416
 C1179 C 0.19746 0.72573 -0.05666
 C1180 C 0.17561 0.67505 -0.11744
 C1181 C 0.22620 0.69695 -0.05666
 C1182 C 0.21516 0.68593 -0.07416
 C1183 C 0.18450 0.68395 -0.10162
 C1184 C 0.21754 0.71707 -0.04780
 H1185 H 0.17115 0.72172 -0.08093
 H1186 H 0.19035 0.74117 -0.05023
 H1187 H 0.24162 0.68984 -0.05023
 H1188 H 0.22221 0.67060 -0.08093
 C1189 C 0.19484 0.19488 0.41759
 C1190 C 0.18592 0.21467 0.42654
 C1191 C 0.19689 0.22565 0.44411
 C1192 C 0.17518 0.17527 0.38303
 C1193 C 0.22566 0.19692 0.44399
 C1194 C 0.21466 0.18597 0.42643
 C1195 C 0.18403 0.18410 0.39892
 C1196 C 0.21698 0.21697 0.45294
 H1197 H 0.17060 0.22174 0.41979
 H1198 H 0.18976 0.24105 0.45060
 H1199 H 0.24109 0.18980 0.45040
 H1200 H 0.22173 0.17068 0.41959
 C1201 C 0.30448 0.41733 0.69551
 C1202 C 0.28467 0.42620 0.68662
 C1203 C 0.27362 0.44375 0.69760
 C1204 C 0.32425 0.38285 0.67578
 C1205 C 0.30234 0.44376 0.72635
 C1206 C 0.31334 0.42621 0.71533
 C1207 C 0.31535 0.39870 0.68467
 C1208 C 0.28226 0.45263 0.71768
 H1209 H 0.27764 0.41941 0.67131
 H1210 H 0.25821 0.45019 0.69048
 H1211 H 0.30943 0.45021 0.74176
 H1212 H 0.32865 0.41944 0.72239
 C1213 C 0.30540 0.91763 0.19443
 C1214 C 0.31430 0.92651 0.21423
 C1215 C 0.30329 0.94402 0.22530
 C1216 C 0.32517 0.88319 0.17464
 C1217 C 0.27451 0.94398 0.19662
 C1218 C 0.28555 0.92647 0.18559
 C1219 C 0.31627 0.89901 0.18355
 C1220 C 0.28318 0.95286 0.21669
 H1221 H 0.32964 0.91975 0.22124
 H1222 H 0.31041 0.95047 0.24070
 H1223 H 0.25907 0.95040 0.18955
 H1224 H 0.27850 0.91968 0.17029
 C1225 C 0.80482 0.41742 0.19503
 C1226 C 0.78496 0.42627 0.18621
 C1227 C 0.77393 0.44378 0.19725
 C1228 C 0.82459 0.38300 0.17520
 C1229 C 0.80274 0.44381 0.22590
 C1230 C 0.81374 0.42630 0.21482
 C1231 C 0.81569 0.39882 0.18412
 C1232 C 0.78262 0.45266 0.21731
 H1233 H 0.77789 0.41949 0.17091
 H1234 H 0.75848 0.45020 0.19020
 H1235 H 0.80987 0.45025 0.24130
 H1236 H 0.82908 0.41954 0.22182
 C1237 C 0.80538 0.91824 0.69516
 C1238 C 0.81422 0.92711 0.71499
 C1239 C 0.80320 0.94465 0.72601
 C1240 C 0.82516 0.88377 0.67544
 C1241 C 0.77452 0.94465 0.69723
 C1242 C 0.78558 0.92711 0.68625
 C1243 C 0.81626 0.89961 0.68432
 C1244 C 0.78313 0.95352 0.71732
 H1245 H 0.82952 0.92033 0.72206
 H1246 H 0.81027 0.95109 0.74144
 H1247 H 0.75911 0.95108 0.69010
 H1248 H 0.77857 0.92033 0.67092
 C1249 C 0.69532 0.58278 0.69562
 C1250 C 0.71515 0.57393 0.68670
 C1251 C 0.72618 0.55638 0.69766
 C1252 C 0.67556 0.61727 0.67595
 C1253 C 0.69742 0.55632 0.72643
 C1254 C 0.68642 0.57387 0.71544
 C1255 C 0.68446 0.60143 0.68481
 C1256 C 0.71751 0.54747 0.71773
 H1257 H 0.72220 0.58074 0.67139
 H1258 H 0.74161 0.54996 0.69052
 H1259 H 0.69030 0.54985 0.74184
 H1260 H 0.67110 0.58063 0.72251
 C1261 C 0.69506 0.08193 0.19505
 C1262 C 0.71487 0.07303 0.18614
 C1263 C 0.72589 0.05550 0.19714
 C1264 C 0.67534 0.11640 0.17530
 C1265 C 0.69714 0.05556 0.22593
 C1266 C 0.68616 0.07309 0.21489
 C1267 C 0.68422 0.10056 0.18419
 C1268 C 0.71722 0.04666 0.21725
 H1269 H 0.72193 0.07979 0.17081
 H1270 H 0.74131 0.04904 0.19002
 H1271 H 0.69003 0.04914 0.24136
 H1272 H 0.67085 0.07989 0.22195
 C1273 C 0.19512 0.58258 0.19497
 C1274 C 0.18621 0.57375 0.21482
 C1275 C 0.19719 0.55623 0.22587
 C1276 C 0.17542 0.61704 0.17519
 C1277 C 0.22594 0.55614 0.19710
 C1278 C 0.21493 0.57366 0.18608
 C1279 C 0.18429 0.60120 0.18410
 C1280 C 0.21727 0.54731 0.21721
 H1281 H 0.17090 0.58056 0.22187
 H1282 H 0.19006 0.54982 0.24131
 H1283 H 0.24136 0.54967 0.18998
 H1284 H 0.22200 0.58041 0.17075
 C1285 C 0.19473 0.08159 0.69531
 C1286 C 0.18588 0.07268 0.71515
 C1287 C 0.19691 0.05514 0.72613
 C1288 C 0.17494 0.11607 0.67564
 C1289 C 0.22561 0.05520 0.69729
 C1290 C 0.21454 0.07274 0.68635
 C1291 C 0.18384 0.10022 0.68451
 C1292 C 0.21699 0.04630 0.71739
 H1293 H 0.17057 0.07944 0.72226
 H1294 H 0.18984 0.04868 0.74156
 H1295 H 0.24102 0.04878 0.69012
 H1296 H 0.22156 0.07954 0.67102
 C1297 C 0.30506 0.58273 0.30469
 C1298 C 0.28522 0.57389 0.31363
 C1299 C 0.27416 0.55633 0.30269
 C1300 C 0.32485 0.61724 0.32435
 C1301 C 0.30291 0.55626 0.27390
 C1302 C 0.31393 0.57381 0.28488
 C1303 C 0.31594 0.60138 0.31549
 C1304 C 0.28281 0.54741 0.28261
 H1305 H 0.27818 0.58070 0.32894
 H1306 H 0.25873 0.54991 0.30983
 H1307 H 0.31001 0.54978 0.25849
 H1308 H 0.32926 0.58057 0.27779
 C1309 C 0.30467 0.08171 0.80493
 C1310 C 0.28490 0.07273 0.81386
 C1311 C 0.27390 0.05516 0.80286
 C1312 C 0.32433 0.11624 0.82468
 C1313 C 0.30261 0.05534 0.77404
 C1314 C 0.31357 0.07291 0.78507
 C1315 C 0.31548 0.10037 0.81579
 C1316 C 0.28256 0.04636 0.78274
 H1317 H 0.27784 0.07945 0.82920
 H1318 H 0.25851 0.04864 0.81001
 H1319 H 0.30972 0.04896 0.75858
 H1320 H 0.32885 0.07977 0.77799
 C1321 C 0.80524 0.58279 0.80518
 C1322 C 0.81414 0.57388 0.78537
 C1323 C 0.80316 0.55631 0.77439
 C1324 C 0.82494 0.61737 0.82479
 C1325 C 0.77439 0.55633 0.80315
 C1326 C 0.78541 0.57391 0.81410
 C1327 C 0.81607 0.60148 0.81596
 C1328 C 0.78306 0.54743 0.78308
 H1329 H 0.82946 0.58067 0.77830
 H1330 H 0.81028 0.54985 0.75898
 H1331 H 0.75896 0.54989 0.81028
 H1332 H 0.77834 0.58072 0.82940
 C1333 C 0.80497 0.08209 0.30476
 C1334 C 0.78514 0.07321 0.31369
 C1335 C 0.77410 0.05565 0.30274
 C1336 C 0.82473 0.11660 0.32445
 C1337 C 0.80284 0.05564 0.27394
 C1338 C 0.81385 0.07320 0.28494
 C1339 C 0.81583 0.10074 0.31558
 C1340 C 0.78275 0.04676 0.28265
 H1341 H 0.77810 0.08000 0.32901
 H1342 H 0.75868 0.04921 0.30988
 H1343 H 0.80995 0.04919 0.25852
 H1344 H 0.82917 0.07999 0.27785
 C1345 C 0.69502 0.41719 0.30518
 C1346 C 0.71487 0.42607 0.31402
 C1347 C 0.72588 0.44364 0.30302
 C1348 C 0.67532 0.38265 0.32491
 C1349 C 0.69706 0.44366 0.27438
 C1350 C 0.68609 0.42609 0.28541
 C1351 C 0.68419 0.39852 0.31603
 C1352 C 0.71717 0.45254 0.28298
 H1353 H 0.72195 0.41927 0.32930
 H1354 H 0.74132 0.45008 0.31009
 H1355 H 0.68992 0.45012 0.25899
 H1356 H 0.67076 0.41931 0.27840
 C1357 C 0.69515 0.91823 0.80495
 C1358 C 0.71496 0.92712 0.81385
 C1359 C 0.72603 0.94465 0.80285
 C1360 C 0.67532 0.88378 0.82472
 C1361 C 0.69735 0.94461 0.77407
 C1362 C 0.68631 0.92708 0.78511
 C1363 C 0.68425 0.89961 0.81582
 C1364 C 0.71743 0.95350 0.78275
 H1365 H 0.72197 0.92036 0.82918
 H1366 H 0.74144 0.95110 0.80998
 H1367 H 0.69028 0.95103 0.75864
 H1368 H 0.67101 0.92029 0.77805
 C1369 C 0.19440 0.41734 0.80526
 C1370 C 0.18553 0.42624 0.78545
 C1371 C 0.19655 0.44381 0.77445
 C1372 C 0.17466 0.38278 0.82491
 C1373 C 0.22526 0.44380 0.80320
 C1374 C 0.21421 0.42623 0.81416
 C1375 C 0.18355 0.39867 0.81607
 C1376 C 0.21663 0.45269 0.78312
 H1377 H 0.17023 0.41945 0.77839
 H1378 H 0.18946 0.45026 0.75904
 H1379 H 0.24068 0.45024 0.81031
 H1380 H 0.22125 0.41943 0.82947
 C1381 C 0.19549 0.91750 0.30467
 C1382 C 0.21534 0.92639 0.31350
 C1383 C 0.22638 0.94391 0.30244
 C1384 C 0.17569 0.88309 0.32453
 C1385 C 0.19759 0.94386 0.27377
 C1386 C 0.18658 0.92634 0.28486
 C1387 C 0.18461 0.89891 0.31559
 C1388 C 0.21769 0.95275 0.28237
 H1389 H 0.22240 0.91964 0.32880
 H1390 H 0.24181 0.95036 0.30951
 H1391 H 0.19046 0.95028 0.25836
 H1392 H 0.17125 0.91955 0.27786
 C1393 C 0.41709 0.30477 0.69538
 C1394 C 0.42596 0.28496 0.68644
 C1395 C 0.44349 0.27390 0.69738
 C1396 C 0.38262 0.32454 0.67573
 C1397 C 0.44350 0.30261 0.72619
 C1398 C 0.42596 0.31363 0.71521
 C1399 C 0.39846 0.31565 0.68458
 C1400 C 0.45237 0.28253 0.71747
 H1401 H 0.41917 0.27793 0.67112
 H1402 H 0.44993 0.25849 0.69023
 H1403 H 0.44994 0.30970 0.74161
 H1404 H 0.41919 0.32894 0.72230
 C1405 C 0.41800 0.80527 0.19443
 C1406 C 0.42694 0.78543 0.18560
 C1407 C 0.44445 0.77445 0.19666
 C1408 C 0.38356 0.82491 0.17462
 C1409 C 0.44430 0.80327 0.22535
 C1410 C 0.42679 0.81422 0.21426
 C1411 C 0.39939 0.81606 0.18353
 C1412 C 0.45323 0.78317 0.21675
 H1413 H 0.42023 0.77833 0.17029
 H1414 H 0.45094 0.75902 0.18960
 H1415 H 0.45066 0.81043 0.24077
 H1416 H 0.41996 0.82954 0.22126
 C1417 C 0.91746 0.30502 0.19470
 C1418 C 0.92631 0.31394 0.21451
 C1419 C 0.94385 0.30296 0.22554
 C1420 C 0.88298 0.32473 0.17501
 C1421 C 0.94389 0.27418 0.19681
 C1422 C 0.92636 0.28519 0.18582
 C1423 C 0.89883 0.31585 0.18387
 C1424 C 0.95274 0.28287 0.21688
 H1425 H 0.91952 0.32926 0.22156
 H1426 H 0.95026 0.31009 0.24095
 H1427 H 0.95035 0.25875 0.18970
 H1428 H 0.91959 0.27812 0.17052
 C1429 C 0.91796 0.80565 0.69498
 C1430 C 0.92681 0.78582 0.68605
 C1431 C 0.94433 0.77475 0.69699
 C1432 C 0.88350 0.82543 0.67533
 C1433 C 0.94438 0.80347 0.72578
 C1434 C 0.92686 0.81451 0.71480
 C1435 C 0.89934 0.81653 0.68418
 C1436 C 0.95322 0.78337 0.71708
 H1437 H 0.92002 0.77879 0.67074
 H1438 H 0.95075 0.75932 0.68985
 H1439 H 0.95083 0.81056 0.74120
 H1440 H 0.92010 0.82983 0.72188
 C1441 C 0.58261 0.30443 0.30511
 C1442 C 0.57370 0.28458 0.31396
 C1443 C 0.55618 0.27356 0.30294
 C1444 C 0.61705 0.32418 0.32488
 C1445 C 0.55624 0.30239 0.27425
 C1446 C 0.57377 0.31337 0.28531
 C1447 C 0.60122 0.31528 0.31598
 C1448 C 0.54734 0.28227 0.28288
 H1449 H 0.58045 0.27749 0.32926
 H1450 H 0.54971 0.25812 0.31002
 H1451 H 0.54983 0.30953 0.25885
 H1452 H 0.58057 0.32871 0.27829
 C1453 C 0.58242 0.80570 0.80514
 C1454 C 0.57360 0.81455 0.78528
 C1455 C 0.55608 0.80353 0.77427
 C1456 C 0.61689 0.82547 0.82483
 C1457 C 0.55598 0.77483 0.80309
 C1458 C 0.57350 0.78589 0.81407
 C1459 C 0.60105 0.81657 0.81597
 C1460 C 0.54717 0.78345 0.78297
 H1461 H 0.58042 0.82985 0.77820
 H1462 H 0.54969 0.81060 0.75882
 H1463 H 0.54950 0.75942 0.81023
 H1464 H 0.58023 0.77888 0.82941
 C1465 C 0.08201 0.30452 0.80489
 C1466 C 0.07304 0.28472 0.81380
 C1467 C 0.05553 0.27369 0.80278
 C1468 C 0.11641 0.32428 0.82471
 C1469 C 0.05575 0.30238 0.77396
 C1470 C 0.07326 0.31338 0.78502
 C1471 C 0.10061 0.31538 0.81579
 C1472 C 0.04678 0.28232 0.78264
 H1473 H 0.07973 0.27770 0.82916
 H1474 H 0.04901 0.25829 0.80991
 H1475 H 0.04941 0.30946 0.75850
 H1476 H 0.08012 0.32867 0.77795
 C1477 C 0.08273 0.80515 0.30492
 C1478 C 0.07380 0.78532 0.31379
 C1479 C 0.05627 0.77431 0.30277
 C1480 C 0.11722 0.82484 0.32467
 C1481 C 0.05638 0.80310 0.27405
 C1482 C 0.07392 0.81407 0.28510
 C1483 C 0.10137 0.81597 0.31578
 C1484 C 0.04746 0.78300 0.28269
 H1485 H 0.08054 0.77824 0.32909
 H1486 H 0.04979 0.75888 0.30987
 H1487 H 0.04999 0.81024 0.25864
 H1488 H 0.08074 0.82940 0.27807
 C1489 C 0.58272 0.69543 0.69563
 C1490 C 0.57379 0.68659 0.71546
 C1491 C 0.55622 0.69763 0.72642
 C1492 C 0.61722 0.67562 0.67597
 C1493 C 0.55632 0.72631 0.69759
 C1494 C 0.57388 0.71523 0.68666
 C1495 C 0.60137 0.68453 0.68483
 C1496 C 0.54738 0.71770 0.71768
 H1497 H 0.58054 0.67129 0.72257
 H1498 H 0.54974 0.69056 0.74185
 H1499 H 0.54990 0.74171 0.69042
 H1500 H 0.58071 0.72224 0.67134
 C1501 C 0.58258 0.19455 0.19509
 C1502 C 0.57366 0.18563 0.21489
 C1503 C 0.55613 0.19665 0.22593
 C1504 C 0.61703 0.17477 0.17533
 C1505 C 0.55624 0.22546 0.19723
 C1506 C 0.57376 0.21441 0.18623
 C1507 C 0.60120 0.18367 0.18423
 C1508 C 0.54731 0.21678 0.21730
 H1509 H 0.58039 0.17028 0.22192
 H1510 H 0.54965 0.18952 0.24133
 H1511 H 0.54984 0.24092 0.19014
 H1512 H 0.58058 0.22148 0.17093
 C1513 C 0.08273 0.69525 0.19493
 C1514 C 0.07382 0.68636 0.21474
 C1515 C 0.05630 0.69738 0.22578
 C1516 C 0.11717 0.67545 0.17517
 C1517 C 0.05638 0.72617 0.19705
 C1518 C 0.07391 0.71511 0.18605
 C1519 C 0.10134 0.68437 0.18406
 C1520 C 0.04747 0.71750 0.21713
 H1521 H 0.08056 0.67102 0.22178
 H1522 H 0.04982 0.69026 0.24119
 H1523 H 0.04998 0.74161 0.18995
 H1524 H 0.08072 0.72217 0.17074
 C1525 C 0.08208 0.19421 0.69528
 C1526 C 0.07312 0.18540 0.71511
 C1527 C 0.05558 0.19648 0.72607
 C1528 C 0.11657 0.17438 0.67565
 C1529 C 0.05574 0.22514 0.69723
 C1530 C 0.07328 0.21403 0.68631
 C1531 C 0.10072 0.18330 0.68450
 C1532 C 0.04679 0.21656 0.71732
 H1533 H 0.07985 0.17009 0.72223
 H1534 H 0.04908 0.18943 0.74150
 H1535 H 0.04936 0.24056 0.69005
 H1536 H 0.08012 0.22102 0.67098
 C1537 C 0.41766 0.69547 0.30451
 C1538 C 0.42648 0.71533 0.31339
 C1539 C 0.44403 0.72639 0.30241
 C1540 C 0.38319 0.67566 0.32426
 C1541 C 0.44415 0.69759 0.27371
 C1542 C 0.42660 0.68657 0.28472
 C1543 C 0.39902 0.68458 0.31536
 C1544 C 0.45298 0.71772 0.28236
 H1545 H 0.41965 0.72239 0.32868
 H1546 H 0.45043 0.74185 0.30952
 H1547 H 0.45064 0.69047 0.25831
 H1548 H 0.41986 0.67122 0.27768
 C1549 C 0.41708 0.19453 0.80497
 C1550 C 0.42595 0.21436 0.81389
 C1551 C 0.44349 0.22543 0.80291
 C1552 C 0.38260 0.17471 0.82469
 C1553 C 0.44350 0.19672 0.77411
 C1554 C 0.42596 0.18567 0.78513
 C1555 C 0.39845 0.18363 0.81581
 C1556 C 0.45237 0.21681 0.78280
 H1557 H 0.41916 0.22138 0.82922
 H1558 H 0.44992 0.24086 0.81004
 H1559 H 0.44995 0.18963 0.75868
 H1560 H 0.41919 0.17036 0.77806
 C1561 C 0.91769 0.69558 0.80474
 C1562 C 0.92663 0.71539 0.81363
 C1563 C 0.94418 0.72641 0.80262
 C1564 C 0.88321 0.67585 0.82455
 C1565 C 0.94407 0.69768 0.77384
 C1566 C 0.92652 0.68669 0.78489
 C1567 C 0.89905 0.68474 0.81563
 C1568 C 0.95301 0.71775 0.78251
 H1569 H 0.91988 0.72244 0.82897
 H1570 H 0.95067 0.74182 0.80973
 H1571 H 0.95048 0.69057 0.75840
 H1572 H 0.91969 0.67139 0.77784
 C1573 C 0.91741 0.19496 0.30456
 C1574 C 0.92623 0.21482 0.31344
 C1575 C 0.94375 0.22592 0.30245
 C1576 C 0.88300 0.17509 0.32433
 C1577 C 0.94385 0.19715 0.27371
 C1578 C 0.92633 0.18609 0.28474
 C1579 C 0.89881 0.18403 0.31542
 C1580 C 0.95267 0.21727 0.28237
 H1581 H 0.91942 0.22186 0.32876
 H1582 H 0.95015 0.24137 0.30956
 H1583 H 0.95032 0.19005 0.25829
 H1584 H 0.91959 0.17074 0.27769
 C1585 C 0.30457 0.30467 0.58308
 C1586 C 0.31348 0.28484 0.57420
 C1587 C 0.30250 0.27379 0.55669
 C1588 C 0.32429 0.32447 0.61750
 C1589 C 0.27373 0.30254 0.55671
 C1590 C 0.28475 0.31355 0.57422
 C1591 C 0.31542 0.31555 0.60168
 C1592 C 0.28241 0.28244 0.54783
 H1593 H 0.32880 0.27780 0.58097
 H1594 H 0.30962 0.25836 0.55025
 H1595 H 0.25831 0.30964 0.55028
 H1596 H 0.27769 0.32887 0.58100
 C1597 C 0.30542 0.80498 0.08201
 C1598 C 0.31429 0.78513 0.07314
 C1599 C 0.30326 0.77407 0.05566
 C1600 C 0.32521 0.82477 0.11639
 C1601 C 0.27452 0.80284 0.05569
 C1602 C 0.28558 0.81387 0.07318
 C1603 C 0.31630 0.81586 0.10059
 C1604 C 0.28316 0.78273 0.04683
 H1605 H 0.32961 0.77808 0.07989
 H1606 H 0.31036 0.75863 0.04922
 H1607 H 0.25909 0.80995 0.04929
 H1608 H 0.27855 0.82920 0.07996
 C1609 C 0.80480 0.30495 0.08242
 C1610 C 0.81374 0.28517 0.07347
 C1611 C 0.80273 0.27413 0.05597
 C1612 C 0.82458 0.32471 0.11683
 C1613 C 0.77388 0.30279 0.05614
 C1614 C 0.78492 0.31380 0.07365
 C1615 C 0.81568 0.31581 0.10102
 C1616 C 0.78258 0.28274 0.04720
 H1617 H 0.82910 0.27816 0.08017
 H1618 H 0.80988 0.25874 0.04947
 H1619 H 0.75841 0.30986 0.04978
 H1620 H 0.77784 0.32908 0.08048
 C1621 C 0.80527 0.80555 0.58282
 C1622 C 0.81415 0.78572 0.57393
 C1623 C 0.80312 0.77466 0.55645
 C1624 C 0.82508 0.82535 0.61718
 C1625 C 0.77434 0.80340 0.55653
 C1626 C 0.78541 0.81442 0.57401
 C1627 C 0.81616 0.81644 0.60139
 C1628 C 0.78300 0.78330 0.54765
 H1629 H 0.82949 0.77868 0.58066
 H1630 H 0.81022 0.75923 0.55000
 H1631 H 0.75890 0.81049 0.55015
 H1632 H 0.77837 0.82975 0.58081
 C1633 C 0.30515 0.69526 0.41719
 C1634 C 0.31403 0.71510 0.42607
 C1635 C 0.30303 0.72610 0.44362
 C1636 C 0.32489 0.67557 0.38268
 C1637 C 0.27429 0.69729 0.44363
 C1638 C 0.28533 0.68632 0.42607
 C1639 C 0.31601 0.68444 0.39854
 C1640 C 0.28294 0.71739 0.45251
 H1641 H 0.32934 0.72219 0.41928
 H1642 H 0.31013 0.74153 0.45007
 H1643 H 0.25887 0.69014 0.45007
 H1644 H 0.27829 0.67099 0.41929
 C1645 C 0.30437 0.19448 0.91735
 C1646 C 0.31327 0.21435 0.92616
 C1647 C 0.30227 0.22542 0.94368
 C1648 C 0.32414 0.17467 0.88294
 C1649 C 0.27351 0.19663 0.94378
 C1650 C 0.28454 0.18559 0.92627
 C1651 C 0.31523 0.18358 0.89875
 C1652 C 0.28218 0.21675 0.95260
 H1653 H 0.32859 0.22140 0.91935
 H1654 H 0.30939 0.24087 0.95007
 H1655 H 0.25809 0.18951 0.95026
 H1656 H 0.27749 0.17025 0.91953
 C1657 C 0.80499 0.69572 0.91729
 C1658 C 0.81386 0.71556 0.92616
 C1659 C 0.80282 0.72659 0.94368
 C1660 C 0.82482 0.67594 0.88288
 C1661 C 0.77407 0.69779 0.94365
 C1662 C 0.78514 0.68680 0.92614
 C1663 C 0.81589 0.68485 0.89869
 C1664 C 0.78271 0.71790 0.95253
 H1665 H 0.82919 0.72263 0.91940
 H1666 H 0.80992 0.74203 0.95012
 H1667 H 0.75864 0.69066 0.95008
 H1668 H 0.77811 0.67147 0.91936
 C1669 C 0.80511 0.19462 0.41735
 C1670 C 0.81402 0.21447 0.42619
 C1671 C 0.80305 0.22550 0.44374
 C1672 C 0.82478 0.17490 0.38282
 C1673 C 0.77430 0.19670 0.44385
 C1674 C 0.78530 0.18570 0.42629
 C1675 C 0.81592 0.18377 0.39869
 C1676 C 0.78298 0.21682 0.45268
 H1677 H 0.82932 0.22154 0.41935
 H1678 H 0.81018 0.24095 0.45015
 H1679 H 0.75889 0.18958 0.45034
 H1680 H 0.77824 0.17037 0.41954
 C1681 C 0.69517 0.30447 0.41753
 C1682 C 0.71501 0.31340 0.42634
 C1683 C 0.72607 0.30242 0.44384
 C1684 C 0.67538 0.32420 0.38313
 C1685 C 0.69734 0.27361 0.44394
 C1686 C 0.68631 0.28462 0.42643
 C1687 C 0.68429 0.31531 0.39894
 C1688 C 0.71743 0.28231 0.45275
 H1689 H 0.72204 0.32873 0.41954
 H1690 H 0.74150 0.30956 0.45023
 H1691 H 0.69024 0.25817 0.45040
 H1692 H 0.67098 0.27754 0.41970
 C1693 C 0.69496 0.80567 0.91747
 C1694 C 0.71479 0.81457 0.92633
 C1695 C 0.72582 0.80355 0.94383
 C1696 C 0.67523 0.82545 0.88306
 C1697 C 0.69705 0.77476 0.94382
 C1698 C 0.68606 0.78582 0.92632
 C1699 C 0.68412 0.81654 0.89888
 C1700 C 0.71715 0.78343 0.95268
 H1701 H 0.72185 0.82991 0.91957
 H1702 H 0.74124 0.81066 0.95026
 H1703 H 0.68994 0.75931 0.95024
 H1704 H 0.67074 0.77876 0.91955
 C1705 C 0.19441 0.30449 0.91746
 C1706 C 0.21424 0.31342 0.92629
 C1707 C 0.22530 0.30242 0.94379
 C1708 C 0.17465 0.32426 0.88306
 C1709 C 0.19655 0.27362 0.94384
 C1710 C 0.18554 0.28464 0.92634
 C1711 C 0.18354 0.31535 0.89887
 C1712 C 0.21665 0.28231 0.95267
 H1713 H 0.22128 0.32875 0.91950
 H1714 H 0.24072 0.30956 0.95019
 H1715 H 0.18946 0.25817 0.95029
 H1716 H 0.17022 0.27757 0.91960
 C1717 C 0.19522 0.80508 0.41739
 C1718 C 0.21503 0.81399 0.42626
 C1719 C 0.22605 0.80299 0.44377
 C1720 C 0.17552 0.82482 0.38294
 C1721 C 0.19731 0.77418 0.44376
 C1722 C 0.18632 0.78522 0.42624
 C1723 C 0.18438 0.81593 0.39877
 C1724 C 0.21739 0.78287 0.45263
 H1725 H 0.22208 0.82933 0.41949
 H1726 H 0.24146 0.81012 0.45021
 H1727 H 0.19020 0.75874 0.45018
 H1728 H 0.17102 0.77815 0.41946
 C1729 C 0.69532 0.69542 0.58316
 C1730 C 0.68641 0.71525 0.57431
 C1731 C 0.69738 0.72630 0.55677
 C1732 C 0.67559 0.67564 0.61764
 C1733 C 0.72616 0.69757 0.55671
 C1734 C 0.71515 0.68655 0.57426
 C1735 C 0.68448 0.68454 0.60180
 C1736 C 0.71748 0.71766 0.54786
 H1737 H 0.67109 0.72228 0.58112
 H1738 H 0.69025 0.74172 0.55034
 H1739 H 0.74159 0.69047 0.55024
 H1740 H 0.72222 0.67123 0.58102
 C1741 C 0.69510 0.19462 0.08253
 C1742 C 0.68613 0.21443 0.07369
 C1743 C 0.69708 0.22553 0.05617
 C1744 C 0.67540 0.17478 0.11699
 C1745 C 0.72595 0.19688 0.05610
 C1746 C 0.71496 0.18581 0.07363
 C1747 C 0.68428 0.18370 0.10115
 C1748 C 0.71721 0.21696 0.04726
 H1749 H 0.67079 0.22141 0.08050
 H1750 H 0.68991 0.24094 0.04976
 H1751 H 0.74140 0.18984 0.04963
 H1752 H 0.72207 0.17051 0.08038
 C1753 C 0.19532 0.69503 0.08232
 C1754 C 0.18644 0.71485 0.07343
 C1755 C 0.19745 0.72587 0.05588
 C1756 C 0.17553 0.67533 0.11681
 C1757 C 0.22620 0.69710 0.05591
 C1758 C 0.21515 0.68612 0.07345
 C1759 C 0.18444 0.68419 0.10096
 C1760 C 0.21755 0.71719 0.04702
 H1761 H 0.17112 0.72191 0.08020
 H1762 H 0.19035 0.74129 0.04943
 H1763 H 0.24163 0.68998 0.04947
 H1764 H 0.22219 0.67081 0.08025
 C1765 C 0.19476 0.19438 0.58299
 C1766 C 0.18586 0.21423 0.57419
 C1767 C 0.19686 0.22534 0.55668
 C1768 C 0.17501 0.17450 0.61740
 C1769 C 0.22563 0.19660 0.55657
 C1770 C 0.21460 0.18553 0.57407
 C1771 C 0.18391 0.18345 0.60158
 C1772 C 0.21695 0.21672 0.54777
 H1773 H 0.17053 0.22125 0.58100
 H1774 H 0.18973 0.24078 0.55030
 H1775 H 0.24106 0.18952 0.55010
 H1776 H 0.22166 0.17019 0.58080
   
