data_POSCAR
  _audit_creation_date              2014-09-24
  _audit_creation_method            'ToBaCCo'
  _symmetry_space_group_name_H-M    'P1'
  _symmetry_Int_Tables_number       1
  _symmetry_cell_setting            triclinic
  loop_
  _symmetry_equiv_pos_as_xyz
 x,y,z
_cell_length_a 65.5236
_cell_length_b 65.5424
_cell_length_c 65.4856
_cell_angle_alpha 89.319500
_cell_angle_beta 89.455000
_cell_angle_gamma 89.483800
loop_
  _atom_site_label
  _atom_site_type_symbol
  _atom_site_fract_x
  _atom_site_fract_y
  _atom_site_fract_z
C1 C 0.73331 0.65189 0.97500
 H2 H 0.74781 0.65235 0.96697
 C3 C 0.71658 0.66286 0.96738
 H4 H 0.71819 0.67189 0.95351
 C5 C 0.71314 0.63886 1.00236
 H6 H 0.71165 0.62908 1.01566
 C7 C 0.69606 0.64957 0.99528
 H8 H 0.68159 0.64816 1.00328
 N9 N 0.73132 0.64020 0.99221
 C10 C 0.79254 0.62986 1.01614
 H11 H 0.79214 0.61341 1.01773
 C12 C 0.80977 0.64048 1.02217
 H13 H 0.82272 0.63221 1.02844
 C14 C 0.77608 0.66074 1.00619
 H15 H 0.76283 0.66857 1.00015
 C16 C 0.79306 0.67198 1.01207
 H17 H 0.79290 0.68845 1.01045
 Zn18 Zn 0.75382 0.62387 1.00055
 N19 N 0.77624 0.64003 1.00811
 C20 C 0.78036 0.60809 0.97006
 N21 N 0.76121 0.60712 0.97825
 C22 C 0.74666 0.59516 0.96992
 C23 C 0.75123 0.58336 0.95280
 C24 C 0.78555 0.59655 0.95299
 C25 C 0.74245 0.61822 1.04123
 C26 C 0.73638 0.60773 1.05888
 C27 C 0.73933 0.57609 1.04039
 C28 C 0.74537 0.58722 1.02305
 N29 N 0.74646 0.60794 1.02370
 H30 H 0.79156 0.61807 0.97649
 H31 H 0.73145 0.59498 0.97649
 H32 H 0.73955 0.57398 0.94617
 H33 H 0.80078 0.59754 0.94649
 H34 H 0.74369 0.63467 1.04135
 H35 H 0.73287 0.61619 1.07263
 H36 H 0.73817 0.55962 1.03961
 H37 H 0.74902 0.57930 1.00910
 C38 C 0.81007 0.66171 1.02006
 C39 C 0.69776 0.66157 0.97757
 C40 C 0.73462 0.58648 1.05843
 C41 C 0.77086 0.58412 0.94426
 C42 C 0.73364 0.34839 0.52064
 H43 H 0.74817 0.34739 0.52831
 C44 C 0.71703 0.33718 0.52802
 H45 H 0.71876 0.32740 0.54136
 C46 C 0.71329 0.36300 0.49441
 H47 H 0.71168 0.37346 0.48166
 C48 C 0.69633 0.35206 0.50128
 H49 H 0.68183 0.35399 0.49365
 N50 N 0.73151 0.36097 0.50409
 C51 C 0.79264 0.37176 0.47932
 H52 H 0.79215 0.38825 0.47852
 C53 C 0.80993 0.36123 0.47244
 H54 H 0.82283 0.36962 0.46633
 C55 C 0.77635 0.34065 0.48812
 H56 H 0.76315 0.33270 0.49404
 C57 C 0.79338 0.32950 0.48137
 H58 H 0.79331 0.31299 0.48223
 Zn59 Zn 0.75388 0.37744 0.49602
 N60 N 0.77640 0.36141 0.48719
 C61 C 0.78043 0.39153 0.52662
 N62 N 0.76124 0.39304 0.51892
 C63 C 0.74666 0.40483 0.52805
 C64 C 0.75126 0.41598 0.54546
 C65 C 0.78565 0.40241 0.54397
 C66 C 0.74229 0.38513 0.45590
 C67 C 0.73607 0.39652 0.43891
 C68 C 0.73897 0.42719 0.45878
 C69 C 0.74516 0.41520 0.47545
 N70 N 0.74634 0.39453 0.47381
 H71 H 0.79166 0.38169 0.51955
 H72 H 0.73142 0.40544 0.52184
 H73 H 0.73958 0.42531 0.55266
 H74 H 0.80094 0.40107 0.55002
 H75 H 0.74360 0.36870 0.45497
 H76 H 0.73251 0.38887 0.42482
 H77 H 0.73771 0.44359 0.46026
 H78 H 0.74885 0.42241 0.48967
 C79 C 0.81034 0.33992 0.47354
 C80 C 0.69818 0.33913 0.51830
 C81 C 0.73422 0.41771 0.44042
 C82 C 0.77095 0.41473 0.55346
 C83 C 0.23266 -0.15105 0.02018
 H84 H 0.24718 -0.15207 0.02787
 C85 C 0.21602 -0.16222 0.02757
 H86 H 0.21772 -0.17199 0.04092
 C87 C 0.21235 -0.13644 -0.00608
 H88 H 0.21077 -0.12600 -0.01885
 C89 C 0.19537 -0.14733 0.00079
 H90 H 0.18088 -0.14539 -0.00686
 N91 N 0.23056 -0.13849 0.00361
 C92 C 0.29170 -0.12788 -0.02121
 H93 H 0.29122 -0.11138 -0.02208
 C94 C 0.30898 -0.13844 -0.02804
 H95 H 0.32189 -0.13008 -0.03418
 C96 C 0.27540 -0.15894 -0.01227
 H97 H 0.26220 -0.16686 -0.00630
 C98 C 0.29243 -0.17012 -0.01896
 H99 H 0.29237 -0.18664 -0.01802
 Zn100 Zn 0.25298 -0.12209 -0.00449
 N101 N 0.27546 -0.13818 -0.01329
 C102 C 0.27958 -0.10803 0.02606
 N103 N 0.26040 -0.10645 0.01837
 C104 C 0.24587 -0.09459 0.02748
 C105 C 0.25053 -0.08342 0.04486
 C106 C 0.28487 -0.09714 0.04337
 C107 C 0.24143 -0.11449 -0.04463
 C108 C 0.23523 -0.10316 -0.06167
 C109 C 0.23814 -0.07241 -0.04187
 C110 C 0.24431 -0.08437 -0.02517
 N111 N 0.24547 -0.10504 -0.02675
 H112 H 0.29077 -0.11794 0.01899
 H113 H 0.23063 -0.09392 0.02129
 H114 H 0.23890 -0.07403 0.05206
 H115 H 0.30016 -0.09853 0.04942
 H116 H 0.24273 -0.13093 -0.04550
 H117 H 0.23171 -0.11096 -0.07570
 H118 H 0.23693 -0.05599 -0.04035
 H119 H 0.24799 -0.07712 -0.01097
 C120 C 0.30940 -0.15974 -0.02683
 C121 C 0.19718 -0.16025 0.01782
 C122 C 0.23339 -0.08193 -0.06024
 C123 C 0.27023 -0.08474 0.05286
 C124 C 0.23440 0.15238 0.47418
 H125 H 0.24891 0.15289 0.46617
 C126 C 0.21765 0.16333 0.46659
 H127 H 0.21925 0.17241 0.45274
 C128 C 0.21424 0.13922 0.50150
 H129 H 0.21276 0.12940 0.51476
 C130 C 0.19715 0.14993 0.49444
 H131 H 0.18267 0.14845 0.50242
 N132 N 0.23242 0.14063 0.49136
 C133 C 0.29366 0.13024 0.51525
 H134 H 0.29326 0.11380 0.51678
 C135 C 0.31087 0.14085 0.52135
 H136 H 0.32381 0.13256 0.52760
 C137 C 0.27719 0.16116 0.50542
 H138 H 0.26394 0.16901 0.49940
 C139 C 0.29415 0.17239 0.51137
 H140 H 0.29398 0.18886 0.50982
 Zn141 Zn 0.25494 0.12429 0.49965
 N142 N 0.27736 0.14045 0.50726
 C143 C 0.28147 0.10860 0.46911
 N144 N 0.26233 0.10760 0.47731
 C145 C 0.24779 0.09565 0.46898
 C146 C 0.25235 0.08387 0.45184
 C147 C 0.28666 0.09708 0.45202
 C148 C 0.24358 0.11853 0.54032
 C149 C 0.23754 0.10797 0.55795
 C150 C 0.24057 0.07640 0.53939
 C151 C 0.24657 0.08757 0.52207
 N152 N 0.24760 0.10829 0.52276
 H153 H 0.29267 0.11857 0.47555
 H154 H 0.23258 0.09545 0.47555
 H155 H 0.24067 0.07448 0.44521
 H156 H 0.30189 0.09808 0.44552
 H157 H 0.24477 0.13498 0.54048
 H158 H 0.23400 0.11628 0.57175
 H159 H 0.23943 0.05995 0.53868
 H160 H 0.25023 0.07969 0.50810
 C161 C 0.31116 0.16209 0.51934
 C162 C 0.19883 0.16197 0.47676
 C163 C 0.23586 0.08674 0.55743
 C164 C 0.27197 0.08464 0.44329
 C165 C 0.15246 0.47499 0.23362
 H166 H 0.15290 0.46703 0.24818
 C167 C 0.16348 0.46737 0.21695
 H168 H 0.17255 0.45357 0.21867
 C169 C 0.13938 0.50217 0.21324
 H170 H 0.12955 0.51538 0.21165
 C171 C 0.15015 0.49508 0.19622
 H172 H 0.14874 0.50300 0.18168
 N173 N 0.14070 0.49210 0.23150
 C174 C 0.12993 0.51601 0.29263
 H175 H 0.11348 0.51744 0.29216
 C176 C 0.14044 0.52218 0.30988
 H177 H 0.13208 0.52839 0.32277
 C178 C 0.16097 0.50635 0.27630
 H179 H 0.16889 0.50038 0.26310
 C180 C 0.17210 0.51238 0.29330
 H181 H 0.18858 0.51093 0.29321
 Zn182 Zn 0.12422 0.50035 0.25390
 N183 N 0.14024 0.50807 0.27638
 C184 C 0.10845 0.46978 0.28048
 N185 N 0.10755 0.47795 0.26130
 C186 C 0.09571 0.46954 0.24670
 C187 C 0.08397 0.45234 0.25125
 C188 C 0.09696 0.45263 0.28566
 C189 C 0.11841 0.54093 0.24232
 C190 C 0.10781 0.55848 0.23620
 C191 C 0.07628 0.53978 0.23923
 C192 C 0.08748 0.52253 0.24532
 N193 N 0.10820 0.52334 0.24640
 H194 H 0.11834 0.47629 0.29173
 H195 H 0.09558 0.47610 0.23146
 H196 H 0.07469 0.44564 0.23953
 H197 H 0.09790 0.44614 0.30092
 H198 H 0.13486 0.54119 0.24356
 H199 H 0.11611 0.57232 0.23264
 H200 H 0.05983 0.53897 0.23806
 H201 H 0.07962 0.50854 0.24901
 C202 C 0.16169 0.52029 0.31026
 C203 C 0.16219 0.47746 0.19805
 C204 C 0.08659 0.55785 0.23448
 C205 C 0.08466 0.44381 0.27091
 C206 C -0.15281 0.02066 0.23244
 H207 H -0.15375 0.02832 0.24696
 C208 C -0.16405 0.02805 0.21583
 H209 H -0.17377 0.04139 0.21762
 C210 C -0.13834 -0.00555 0.21208
 H211 H -0.12792 -0.01828 0.21047
 C212 C -0.14929 0.00132 0.19513
 H213 H -0.14738 -0.00634 0.18064
 N214 N -0.14029 0.00412 0.23030
 C215 C -0.12924 -0.02066 0.29145
 H216 H -0.11275 -0.02150 0.29082
 C217 C -0.13967 -0.02748 0.30886
 H218 H -0.13121 -0.03360 0.32171
 C219 C -0.16044 -0.01176 0.27540
 H220 H -0.16846 -0.00581 0.26225
 C221 C -0.17149 -0.01844 0.29256
 H222 H -0.18801 -0.01752 0.29264
 Zn223 Zn -0.12374 -0.00393 0.25263
 N224 N -0.13967 -0.01276 0.27527
 C225 C -0.10944 0.02662 0.27906
 N226 N -0.10804 0.01895 0.25987
 C227 C -0.09628 0.02808 0.24521
 C228 C -0.08503 0.04545 0.24974
 C229 C -0.09846 0.04392 0.28422
 C230 C -0.11618 -0.04402 0.24109
 C231 C -0.10484 -0.06099 0.23486
 C232 C -0.07412 -0.04110 0.23758
 C233 C -0.08605 -0.02446 0.24378
 N234 N -0.10673 -0.02612 0.24505
 H235 H -0.11926 0.01954 0.29035
 H236 H -0.09575 0.02190 0.22996
 H237 H -0.07572 0.05266 0.23801
 H238 H -0.09971 0.04994 0.29952
 H239 H -0.13261 -0.04497 0.24247
 H240 H -0.11253 -0.07507 0.23137
 H241 H -0.05770 -0.03960 0.23625
 H242 H -0.07879 -0.01024 0.24741
 C243 C -0.16097 -0.02629 0.30946
 C244 C -0.16217 0.01835 0.19697
 C245 C -0.08364 -0.05946 0.23293
 C246 C -0.08616 0.05342 0.26944
 C247 C 0.34728 0.52028 0.73286
 H248 H 0.34630 0.52787 0.74743
 C249 C 0.33603 0.52772 0.71629
 H250 H 0.32626 0.54101 0.71809
 C251 C 0.36184 0.49422 0.71239
 H252 H 0.37231 0.48153 0.71071
 C253 C 0.35088 0.50115 0.69546
 H254 H 0.35278 0.49361 0.68092
 N255 N 0.35986 0.50379 0.73065
 C256 C 0.37087 0.47880 0.79171
 H257 H 0.38737 0.47805 0.79114
 C258 C 0.36042 0.47182 0.80904
 H259 H 0.36887 0.46568 0.82190
 C260 C 0.33969 0.48758 0.77558
 H261 H 0.33168 0.49355 0.76243
 C262 C 0.32861 0.48074 0.79267
 H263 H 0.31209 0.48156 0.79269
 Zn264 Zn 0.37640 0.49569 0.75296
 N265 N 0.36046 0.48671 0.77553
 C266 C 0.39058 0.52619 0.77953
 N267 N 0.39202 0.51859 0.76031
 C268 C 0.40375 0.52781 0.74569
 C269 C 0.41492 0.54522 0.75029
 C270 C 0.40148 0.54352 0.78475
 C271 C 0.38410 0.45568 0.74124
 C272 C 0.39550 0.43877 0.73497
 C273 C 0.42616 0.45873 0.73785
 C274 C 0.41416 0.47531 0.74409
 N275 N 0.39349 0.47359 0.74531
 H276 H 0.38077 0.51903 0.79080
 H277 H 0.40431 0.52169 0.73043
 H278 H 0.42421 0.55250 0.73858
 H279 H 0.40019 0.54950 0.80008
 H280 H 0.36766 0.45469 0.74258
 H281 H 0.38785 0.42468 0.73140
 H282 H 0.44257 0.46027 0.73658
 H283 H 0.42138 0.48953 0.74780
 C284 C 0.33911 0.47287 0.80957
 C285 C 0.33795 0.51811 0.69740
 C286 C 0.41669 0.44036 0.73310
 C287 C 0.41375 0.55312 0.77001
 C288 C 0.65254 0.97532 0.73478
 H289 H 0.65302 0.96727 0.74929
 C290 C 0.66357 0.96782 0.71805
 H291 H 0.67267 0.95403 0.71968
 C292 C 0.63939 1.00259 0.71457
 H293 H 0.62953 1.01579 0.71306
 C294 C 0.65017 0.99563 0.69750
 H295 H 0.64873 1.00363 0.68300
 N296 N 0.64075 0.99241 0.73276
 C297 C 0.62995 1.01599 0.79403
 H298 H 0.61350 1.01738 0.79357
 C299 C 0.64044 1.02211 0.81131
 H300 H 0.63202 1.02823 0.82421
 C301 C 0.66100 1.00647 0.77765
 H302 H 0.66892 1.00057 0.76441
 C303 C 0.67213 1.01244 0.79467
 H304 H 0.68862 1.01100 0.79451
 Zn305 Zn 0.62426 1.00052 0.75522
 N306 N 0.64027 1.00815 0.77775
 C307 C 0.60851 0.96980 0.78165
 N308 N 0.60762 0.97806 0.76250
 C309 C 0.59580 0.96970 0.74785
 C310 C 0.58406 0.95248 0.75232
 C311 C 0.59703 0.95262 0.78674
 C312 C 0.61839 1.04115 0.74385
 C313 C 0.60779 1.05869 0.73774
 C314 C 0.57628 1.03991 0.74057
 C315 C 0.58749 1.02268 0.74666
 N316 N 0.60821 1.02352 0.74782
 H317 H 0.61838 0.97626 0.79293
 H318 H 0.59567 0.97633 0.73264
 H319 H 0.57478 0.94583 0.74056
 H320 H 0.59795 0.94607 0.80197
 H321 H 0.63483 1.04143 0.74514
 H322 H 0.61606 1.07256 0.73423
 H323 H 0.55984 1.03908 0.73932
 H324 H 0.57965 1.00865 0.75027
 C325 C 0.66172 1.02026 0.81168
 C326 C 0.66225 0.97802 0.69921
 C327 C 0.58657 1.05802 0.73592
 C328 C 0.58474 0.94386 0.77194
 C329 C 0.02031 0.23211 -0.15117
 H330 H 0.02795 0.24667 -0.15200
 C331 C 0.02782 0.21564 -0.16246
 H332 H 0.04120 0.21753 -0.17212
 C333 C -0.00592 0.21152 -0.13693
 H334 H -0.01871 0.20976 -0.12657
 C335 C 0.00107 0.19470 -0.14794
 H336 H -0.00651 0.18016 -0.14618
 N337 N 0.00371 0.22979 -0.13873
 C338 C -0.02129 0.29068 -0.12757
 H339 H -0.02221 0.28997 -0.11107
 C340 C -0.02811 0.30809 -0.13799
 H341 H -0.03431 0.32086 -0.12951
 C342 C -0.01221 0.27484 -0.15880
 H343 H -0.00619 0.26177 -0.16683
 C344 C -0.01889 0.29201 -0.16984
 H345 H -0.01789 0.29218 -0.18636
 Zn346 Zn -0.00449 0.25194 -0.12212
 N347 N -0.01331 0.27461 -0.13802
 C348 C 0.02595 0.27841 -0.10761
 N349 N 0.01830 0.25920 -0.10628
 C350 C 0.02744 0.24452 -0.09456
 C351 C 0.04481 0.24905 -0.08329
 C352 C 0.04325 0.28357 -0.09661
 C353 C -0.04459 0.24016 -0.11480
 C354 C -0.06163 0.23379 -0.10358
 C355 C -0.04189 0.23640 -0.07269
 C356 C -0.02520 0.24274 -0.08454
 N357 N -0.02675 0.24413 -0.10523
 H358 H 0.01887 0.28973 -0.11740
 H359 H 0.02128 0.22926 -0.09409
 H360 H 0.05203 0.23729 -0.07403
 H361 H 0.04927 0.29888 -0.09781
 H362 H -0.04544 0.24165 -0.13124
 H363 H -0.07563 0.23033 -0.11146
 H364 H -0.04040 0.23501 -0.05626
 H365 H -0.01103 0.24638 -0.07719
 C366 C -0.02683 0.30880 -0.15930
 C367 C 0.01815 0.19675 -0.16072
 C368 C -0.06023 0.23172 -0.08234
 C369 C 0.05277 0.26876 -0.08436
 C370 C 0.47584 0.23413 0.15294
 H371 H 0.46779 0.24861 0.15345
 C372 C 0.46835 0.21735 0.16395
 H373 H 0.45455 0.21890 0.17307
 C374 C 0.50311 0.21407 0.13972
 H375 H 0.51631 0.21264 0.12984
 C376 C 0.49615 0.19695 0.15048
 H377 H 0.50415 0.18250 0.14900
 N378 N 0.49293 0.23222 0.14112
 C379 C 0.51649 0.29355 0.13035
 H380 H 0.51789 0.29314 0.11388
 C381 C 0.52259 0.31080 0.14086
 H382 H 0.52871 0.32376 0.13249
 C383 C 0.50697 0.27706 0.16141
 H384 H 0.50108 0.26379 0.16934
 C385 C 0.51292 0.29406 0.17254
 H386 H 0.51150 0.29391 0.18904
 Zn387 Zn 0.50101 0.25475 0.12464
 N388 N 0.50865 0.27722 0.14066
 C389 C 0.47026 0.28111 0.10896
 N390 N 0.47852 0.26201 0.10803
 C391 C 0.47015 0.24738 0.09621
 C392 C 0.45289 0.25182 0.08451
 C393 C 0.45305 0.28617 0.09752
 C394 C 0.54165 0.24353 0.11867
 C395 C 0.55919 0.23752 0.10801
 C396 C 0.54036 0.24042 0.07653
 C397 C 0.52313 0.24640 0.08779
 N398 N 0.52400 0.24748 0.10852
 H399 H 0.47674 0.29237 0.11883
 H400 H 0.47678 0.23221 0.09606
 H401 H 0.44623 0.24008 0.07524
 H402 H 0.44649 0.30137 0.09847
 H403 H 0.54196 0.24476 0.13512
 H404 H 0.57307 0.23403 0.11626
 H405 H 0.53949 0.23923 0.06008
 H406 H 0.50909 0.25000 0.07998
 C407 C 0.52073 0.31110 0.16213
 C408 C 0.47854 0.19856 0.16258
 C409 C 0.55848 0.23578 0.08678
 C410 C 0.44427 0.27140 0.08523
 C411 C 0.97501 0.73405 0.65352
 H412 H 0.96704 0.74856 0.65410
 C413 C 0.96751 0.71729 0.66457
 H414 H 0.95378 0.71890 0.67378
 C415 C 1.00211 0.71388 0.64012
 H416 H 1.01525 0.71240 0.63016
 C417 C 0.99514 0.69678 0.65091
 H418 H 1.00307 0.68229 0.64937
 N419 N 0.99203 0.73207 0.64160
 C420 C 1.01591 0.79328 0.63093
 H421 H 1.01724 0.79292 0.61446
 C422 C 1.02218 0.81045 0.64147
 H423 H 1.02835 0.82340 0.63312
 C424 C 1.00643 0.77675 0.66198
 H425 H 1.00049 0.76349 0.66990
 C426 C 1.01255 0.79367 0.67314
 H427 H 1.01121 0.79346 0.68964
 Zn428 Zn 1.00018 0.75460 0.62516
 N429 N 1.00802 0.77697 0.64123
 C430 C 0.96954 0.78120 0.60967
 N431 N 0.97768 0.76206 0.60864
 C432 C 0.96920 0.74754 0.59676
 C433 C 0.95198 0.75216 0.58508
 C434 C 0.95237 0.78644 0.59825
 C435 C 1.04074 0.74318 0.61903
 C436 C 1.05822 0.73716 0.60830
 C437 C 1.03933 0.74031 0.57688
 C438 C 1.02215 0.74630 0.58821
 N439 N 1.02308 0.74727 0.60894
 H440 H 0.97610 0.79237 0.61959
 H441 H 0.97574 0.73233 0.59653
 H442 H 0.94524 0.74052 0.57574
 H443 H 0.94592 0.80168 0.59927
 H444 H 1.04109 0.74432 0.63549
 H445 H 1.07211 0.73357 0.61650
 H446 H 1.03842 0.73922 0.56042
 H447 H 1.00811 0.75001 0.58045
 C448 C 1.02043 0.81069 0.66275
 C449 C 0.97762 0.69846 0.66313
 C450 C 1.05746 0.73554 0.58706
 C451 C 0.94349 0.77179 0.58588
 C452 C 0.52090 0.73347 0.34793
 H453 H 0.52855 0.74802 0.34697
 C454 C 0.52833 0.71692 0.33672
 H455 H 0.54168 0.71872 0.32700
 C456 C 0.49468 0.71302 0.36239
 H457 H 0.48192 0.71134 0.37280
 C458 C 0.50160 0.69612 0.35147
 H459 H 0.49400 0.68160 0.35335
 N460 N 0.50433 0.73126 0.36043
 C461 C 0.47943 0.79226 0.37122
 H462 H 0.47857 0.79166 0.38773
 C463 C 0.47257 0.80960 0.36071
 H464 H 0.46640 0.82241 0.36917
 C465 C 0.48839 0.77620 0.34009
 H466 H 0.49438 0.76307 0.33213
 C467 C 0.48167 0.79328 0.32894
 H468 H 0.48262 0.79327 0.31241
 Zn469 Zn 0.49618 0.75354 0.37690
 N470 N 0.48737 0.77612 0.36086
 C471 C 0.52666 0.78008 0.39124
 N472 N 0.51900 0.76087 0.39267
 C473 C 0.52810 0.74627 0.40451
 C474 C 0.54543 0.75086 0.41580
 C475 C 0.54393 0.78530 0.40226
 C476 C 0.45607 0.74185 0.38436
 C477 C 0.43905 0.73559 0.39566
 C478 C 0.45880 0.73842 0.42647
 C479 C 0.47550 0.74465 0.41457
 N480 N 0.47393 0.74589 0.39387
 H481 H 0.51961 0.79133 0.38136
 H482 H 0.52192 0.73101 0.40506
 H483 H 0.55261 0.73916 0.42518
 H484 H 0.54995 0.80061 0.40099
 H485 H 0.45520 0.74320 0.36791
 H486 H 0.42501 0.73204 0.38792
 H487 H 0.46022 0.73713 0.44291
 H488 H 0.48968 0.74834 0.42188
 C489 C 0.47376 0.81016 0.33938
 C490 C 0.51864 0.69805 0.33861
 C491 C 0.44048 0.73370 0.41688
 C492 C 0.55339 0.77057 0.41464
 C493 C 0.39988 -0.01752 0.27047
 H494 H 0.40038 -0.00296 0.27806
 C495 C 0.41108 -0.03413 0.27814
 H496 H 0.42033 -0.03235 0.29162
 C497 C 0.38655 -0.03795 0.24417
 H498 H 0.37658 -0.03958 0.23128
 C499 C 0.39749 -0.05490 0.25133
 H500 H 0.39606 -0.06944 0.24378
 N501 N 0.38794 -0.01969 0.25375
 C502 C 0.37703 0.04129 0.22838
 H503 H 0.36058 0.04074 0.22723
 C504 C 0.38746 0.05864 0.22176
 H505 H 0.37904 0.07153 0.21549
 C506 C 0.40811 0.02514 0.23795
 H507 H 0.41608 0.01200 0.24412
 C508 C 0.41916 0.04225 0.23148
 H509 H 0.43562 0.04229 0.23279
 Zn510 Zn 0.37140 0.00270 0.24536
 N511 N 0.38738 0.02511 0.23654
 C512 C 0.35630 0.02951 0.27564
 N513 N 0.35506 0.01031 0.26808
 C514 C 0.34317 -0.00408 0.27734
 C515 C 0.33175 0.00072 0.29481
 C516 C 0.34514 0.03493 0.29302
 C517 C 0.36508 -0.00896 0.20525
 C518 C 0.35427 -0.01496 0.18812
 C519 C 0.32295 -0.01180 0.20767
 C520 C 0.33436 -0.00583 0.22448
 N521 N 0.35508 -0.00485 0.22305
 H522 H 0.36622 0.04059 0.26847
 H523 H 0.34278 -0.01935 0.27126
 H524 H 0.32243 -0.01084 0.30219
 H525 H 0.34636 0.05021 0.29900
 H526 H 0.38153 -0.00779 0.20448
 H527 H 0.36240 -0.01850 0.17410
 H528 H 0.30649 -0.01285 0.20895
 H529 H 0.32667 -0.00211 0.23862
 C530 C 0.40869 0.05918 0.22343
 C531 C 0.40976 -0.05301 0.26853
 C532 C 0.33304 -0.01653 0.18938
 C533 C 0.33280 0.02041 0.30271
 C534 C 0.09499 1.02371 0.77462
 H535 H 0.09398 1.00913 0.78247
 C536 C 0.08394 1.04051 0.78188
 H537 H 0.07428 1.03887 0.79531
 C538 C 0.10943 1.04396 0.74802
 H539 H 0.11977 1.04543 0.73517
 C540 C 0.09866 1.06111 0.75477
 H541 H 0.10058 1.07563 0.74695
 N542 N 0.10740 1.02570 0.75794
 C543 C 0.11755 0.96455 0.73398
 H544 H 0.13404 0.96472 0.73302
 C545 C 0.10692 0.94753 0.72744
 H546 H 0.11522 0.93453 0.72142
 C547 C 0.08656 0.98137 0.74285
 H548 H 0.07871 0.99468 0.74867
 C549 C 0.07530 0.96461 0.73644
 H550 H 0.05879 0.96499 0.73744
 Zn551 Zn 0.12360 1.00298 0.75003
 N552 N 0.10732 0.98092 0.74172
 C553 C 0.13791 0.97587 0.78084
 N554 N 0.13951 0.99505 0.77282
 C555 C 0.15172 1.00918 0.78148
 C556 C 0.16328 1.00407 0.79867
 C557 C 0.14918 0.97015 0.79797
 C558 C 0.13086 1.01466 0.70963
 C559 C 0.14214 1.02027 0.69231
 C560 C 0.17305 1.01588 0.71180
 C561 C 0.16117 1.01034 0.72879
 N562 N 0.14044 1.01015 0.72748
 H563 H 0.12773 0.96501 0.77414
 H564 H 0.15242 1.02444 0.77504
 H565 H 0.17299 1.01537 0.80547
 H566 H 0.14780 0.95484 0.80424
 H567 H 0.11438 1.01410 0.70895
 H568 H 0.13436 1.02412 0.67824
 H569 H 0.18952 1.01626 0.71299
 H570 H 0.16853 1.00626 0.74297
 C571 C 0.08562 0.94752 0.72874
 C572 C 0.08589 1.05939 0.77191
 C573 C 0.16341 1.02100 0.69345
 C574 C 0.16199 0.98435 0.80694
 C575 C 0.59456 0.52450 0.27409
 H576 H 0.59351 0.50992 0.28194
 C577 C 0.58358 0.54133 0.28138
 H578 H 0.57394 0.53972 0.29482
 C579 C 0.60905 0.54471 0.24749
 H580 H 0.61938 0.54616 0.23463
 C581 C 0.59835 0.56190 0.25426
 H582 H 0.60031 0.57642 0.24645
 N583 N 0.60697 0.52646 0.25740
 C584 C 0.61702 0.46530 0.23341
 H585 H 0.63351 0.46547 0.23243
 C586 C 0.60638 0.44829 0.22686
 H587 H 0.61468 0.43530 0.22081
 C588 C 0.58604 0.48212 0.24234
 H589 H 0.57820 0.49542 0.24818
 C590 C 0.57477 0.46537 0.23592
 H591 H 0.55826 0.46575 0.23693
 Zn592 Zn 0.62311 0.50371 0.24946
 N593 N 0.60680 0.48167 0.24118
 C594 C 0.63744 0.47657 0.28025
 N595 N 0.63905 0.49575 0.27224
 C596 C 0.65130 0.50987 0.28087
 C597 C 0.66289 0.50473 0.29803
 C598 C 0.64874 0.47083 0.29735
 C599 C 0.63034 0.51538 0.20906
 C600 C 0.64160 0.52097 0.19173
 C601 C 0.67253 0.51653 0.21117
 C602 C 0.66067 0.51101 0.22818
 N603 N 0.63994 0.51085 0.22689
 H604 H 0.62723 0.46573 0.27357
 H605 H 0.65200 0.52512 0.27443
 H606 H 0.67264 0.51601 0.30480
 H607 H 0.64736 0.45552 0.30362
 H608 H 0.61386 0.51485 0.20841
 H609 H 0.63381 0.52484 0.17767
 H610 H 0.68901 0.51689 0.21234
 H611 H 0.66804 0.50691 0.24234
 C612 C 0.58508 0.44829 0.22818
 C613 C 0.58559 0.56022 0.27142
 C614 C 0.66288 0.52167 0.19284
 C615 C 0.66160 0.48501 0.30630
 C616 C 0.89926 0.48250 0.77166
 H617 H 0.89970 0.49705 0.77926
 C618 C 0.91046 0.46591 0.77937
 H619 H 0.91965 0.46769 0.79288
 C620 C 0.88608 0.46205 0.74529
 H621 H 0.87616 0.46041 0.73236
 C622 C 0.89702 0.44511 0.75249
 H623 H 0.89564 0.43058 0.74494
 N624 N 0.88738 0.48030 0.75490
 C625 C 0.87636 0.54126 0.72950
 H626 H 0.85992 0.54066 0.72831
 C627 C 0.88676 0.55863 0.72287
 H628 H 0.87832 0.57148 0.71656
 C629 C 0.90747 0.52521 0.73914
 H630 H 0.91546 0.51209 0.74534
 C631 C 0.91848 0.54234 0.73267
 H632 H 0.93495 0.54242 0.73400
 Zn633 Zn 0.87081 0.50265 0.74645
 N634 N 0.88675 0.52511 0.73769
 C635 C 0.85550 0.52939 0.77669
 N636 N 0.85435 0.51019 0.76912
 C637 C 0.84249 0.49575 0.77832
 C638 C 0.83099 0.50049 0.79576
 C639 C 0.84427 0.53475 0.79404
 C640 C 0.86472 0.49101 0.70631
 C641 C 0.85402 0.48496 0.68912
 C642 C 0.82259 0.48792 0.70854
 C643 C 0.83390 0.49395 0.72541
 N644 N 0.85462 0.49505 0.72407
 H645 H 0.86541 0.54051 0.76957
 H646 H 0.84217 0.48049 0.77223
 H647 H 0.82170 0.48890 0.80310
 H648 H 0.84542 0.55003 0.80005
 H649 H 0.88116 0.49226 0.70562
 H650 H 0.86223 0.48146 0.67514
 H651 H 0.80614 0.48678 0.70976
 H652 H 0.82613 0.49762 0.73953
 C653 C 0.90799 0.55923 0.72458
 C654 C 0.90922 0.44702 0.76974
 C655 C 0.83279 0.48326 0.69029
 C656 C 0.83196 0.52018 0.80369
 C657 C 0.27044 0.39779 -0.01699
 H658 H 0.27804 0.39831 -0.00241
 C659 C 0.27806 0.40902 -0.03362
 H660 H 0.29150 0.41831 -0.03185
 C661 C 0.24417 0.38440 -0.03743
 H662 H 0.23130 0.37440 -0.03905
 C663 C 0.25127 0.39537 -0.05442
 H664 H 0.24371 0.39393 -0.06897
 N665 N 0.25376 0.38580 -0.01915
 C666 C 0.22846 0.37499 0.04189
 H667 H 0.22737 0.35854 0.04146
 C668 C 0.22181 0.38547 0.05916
 H669 H 0.21556 0.37710 0.07211
 C670 C 0.23790 0.40603 0.02552
 H671 H 0.24403 0.41397 0.01231
 C672 C 0.23140 0.41713 0.04254
 H673 H 0.23263 0.43360 0.04245
 Zn674 Zn 0.24541 0.36929 0.00331
 N675 N 0.23657 0.38531 0.02564
 C676 C 0.27572 0.35432 0.03026
 N677 N 0.26815 0.35302 0.01104
 C678 C 0.27742 0.34115 -0.00330
 C679 C 0.29494 0.32982 0.00156
 C680 C 0.29315 0.34326 0.03574
 C681 C 0.20533 0.36292 -0.00837
 C682 C 0.18820 0.35209 -0.01437
 C683 C 0.20776 0.32079 -0.01111
 C684 C 0.22457 0.33222 -0.00514
 N685 N 0.22313 0.35293 -0.00421
 H686 H 0.26854 0.36423 0.04130
 H687 H 0.27133 0.34071 -0.01858
 H688 H 0.30234 0.32054 -0.00996
 H689 H 0.29916 0.34453 0.05103
 H690 H 0.20456 0.37936 -0.00726
 H691 H 0.17419 0.36021 -0.01796
 H692 H 0.20905 0.30435 -0.01211
 H693 H 0.23871 0.32455 -0.00138
 C694 C 0.22339 0.40671 0.05954
 C695 C 0.26843 0.40769 -0.05253
 C696 C 0.18947 0.33087 -0.01589
 C697 C 0.30288 0.33096 0.02126
 C698 C 0.77410 0.09373 1.02378
 H699 H 0.78191 0.09256 1.00920
 C700 C 0.78131 0.08273 1.04070
 H701 H 0.79464 0.07296 1.03915
 C702 C 0.74770 0.10853 1.04391
 H703 H 0.73496 0.11899 1.04529
 C704 C 0.75440 0.09782 1.06117
 H705 H 0.74663 0.09990 1.07569
 N706 N 0.75755 0.10630 1.02566
 C707 C 0.73355 0.11637 0.96438
 H708 H 0.73274 0.13286 0.96444
 C709 C 0.72685 0.10572 0.94743
 H710 H 0.72086 0.11403 0.93436
 C711 C 0.74219 0.08538 0.98143
 H712 H 0.74797 0.07753 0.99480
 C713 C 0.73561 0.07411 0.96474
 H714 H 0.73646 0.05760 0.96523
 Zn715 Zn 0.74973 0.12245 1.00279
 N716 N 0.74124 0.10614 0.98083
 C717 C 0.78057 0.13641 0.97555
 N718 N 0.77263 0.13814 0.99474
 C719 C 0.78141 0.15035 1.00879
 C720 C 0.79865 0.16177 1.00359
 C721 C 0.79777 0.14754 0.96974
 C722 C 0.70945 0.13005 1.01442
 C723 C 0.69225 0.14148 1.01998
 C724 C 0.71197 0.17222 1.01540
 C725 C 0.72883 0.16020 1.00991
 N726 N 0.72735 0.13949 1.00983
 H727 H 0.77377 0.12624 0.96475
 H728 H 0.77501 0.15115 1.02405
 H729 H 0.80555 0.17149 1.01483
 H730 H 0.80398 0.14607 0.95443
 H731 H 0.70864 0.11358 1.01395
 H732 H 0.67814 0.13381 1.02390
 H733 H 0.71329 0.18867 1.01570
 H734 H 0.74305 0.16744 1.00578
 C735 C 0.72795 0.08442 0.94757
 C736 C 0.77140 0.08489 1.05958
 C737 C 0.69357 0.16273 1.02060
 C738 C 0.80686 0.16035 0.98386
 C739 C 0.27365 0.59459 0.52357
 H740 H 0.28148 0.59353 0.50900
 C741 C 0.28089 0.58356 0.54045
 H742 H 0.29428 0.57388 0.53888
 C743 C 0.24712 0.60913 0.54372
 H744 H 0.23430 0.61949 0.54512
 C745 C 0.25385 0.59838 0.56094
 H746 H 0.24604 0.60035 0.57546
 N747 N 0.25701 0.60704 0.52547
 C748 C 0.23302 0.61710 0.46419
 H749 H 0.23209 0.63358 0.46429
 C750 C 0.22643 0.60644 0.44720
 H751 H 0.22041 0.61473 0.43414
 C752 C 0.24185 0.58613 0.48119
 H753 H 0.24767 0.57830 0.49455
 C754 C 0.23540 0.57486 0.46446
 H755 H 0.23636 0.55835 0.46492
 Zn756 Zn 0.24911 0.62320 0.50264
 N757 N 0.24075 0.60689 0.48063
 C758 C 0.27989 0.63742 0.47547
 N759 N 0.27192 0.63905 0.49466
 C760 C 0.28061 0.65127 0.50875
 C761 C 0.29780 0.66280 0.50361
 C762 C 0.29703 0.64865 0.46971
 C763 C 0.20877 0.63052 0.51425
 C764 C 0.19150 0.64183 0.51982
 C765 C 0.21103 0.67270 0.51534
 C766 C 0.22797 0.66080 0.50983
 N767 N 0.22662 0.64008 0.50971
 H768 H 0.27316 0.62724 0.46464
 H769 H 0.27419 0.65200 0.52401
 H770 H 0.30463 0.67251 0.51488
 H771 H 0.30328 0.64725 0.45441
 H772 H 0.20806 0.61405 0.51375
 H773 H 0.17743 0.63407 0.52371
 H774 H 0.21226 0.68917 0.51568
 H775 H 0.24215 0.66813 0.50573
 C776 C 0.22770 0.58515 0.44730
 C777 C 0.27094 0.58557 0.55932
 C778 C 0.19268 0.66309 0.52050
 C779 C 0.30604 0.66147 0.48388
 C780 C 0.77044 0.89973 0.48347
 H781 H 0.77803 0.90023 0.49805
 C782 C 0.77808 0.91094 0.46684
 H783 H 0.79154 0.92021 0.46861
 C784 C 0.74416 0.88636 0.46301
 H785 H 0.73129 0.87636 0.46138
 C786 C 0.75129 0.89732 0.44603
 H787 H 0.74374 0.89588 0.43147
 N788 N 0.75375 0.88775 0.48130
 C789 C 0.72837 0.87673 0.54228
 H790 H 0.72725 0.86029 0.54176
 C791 C 0.72173 0.88713 0.55961
 H792 H 0.71545 0.87869 0.57250
 C793 C 0.73791 0.90784 0.52610
 H794 H 0.74409 0.91583 0.51294
 C795 C 0.73142 0.91885 0.54318
 H796 H 0.73270 0.93532 0.54319
 Zn797 Zn 0.74538 0.87118 0.50371
 N798 N 0.73653 0.88712 0.52609
 C799 C 0.77563 0.85608 0.53066
 N800 N 0.76810 0.85486 0.51142
 C801 C 0.77738 0.84303 0.49705
 C802 C 0.79486 0.83163 0.50191
 C803 C 0.79301 0.84494 0.53615
 C804 C 0.70530 0.86484 0.49198
 C805 C 0.68820 0.85405 0.48587
 C806 C 0.70777 0.82274 0.48900
 C807 C 0.72455 0.83415 0.49507
 N808 N 0.72310 0.85485 0.49612
 H809 H 0.76845 0.86596 0.54172
 H810 H 0.77132 0.84266 0.48175
 H811 H 0.80225 0.82236 0.49038
 H812 H 0.79898 0.84614 0.55145
 H813 H 0.70452 0.88128 0.49318
 H814 H 0.67419 0.86217 0.48229
 H815 H 0.70908 0.80631 0.48789
 H816 H 0.73870 0.82646 0.49882
 C817 C 0.72337 0.90836 0.56011
 C818 C 0.76846 0.90962 0.44792
 C819 C 0.68950 0.83283 0.48422
 C820 C 0.80274 0.83266 0.52165
 C821 C -0.01692 0.27030 0.39860
 H822 H -0.00231 0.27785 0.39901
 C823 C -0.03343 0.27799 0.40989
 H824 H -0.03155 0.29144 0.41912
 C825 C -0.03755 0.24410 0.38539
 H826 H -0.03930 0.23124 0.37543
 C827 C -0.05443 0.25127 0.39642
 H828 H -0.06901 0.24378 0.39507
 N829 N -0.01924 0.25363 0.38667
 C830 C 0.04158 0.22817 0.37541
 H831 H 0.04095 0.22708 0.35895
 C832 C 0.05895 0.22149 0.38576
 H833 H 0.07177 0.21521 0.37727
 C834 C 0.02561 0.23767 0.40659
 H835 H 0.01253 0.24384 0.41464
 C836 C 0.04274 0.23113 0.41756
 H837 H 0.04285 0.23238 0.43404
 Zn838 Zn 0.00303 0.24524 0.37000
 N839 N 0.02548 0.23633 0.38586
 C840 C 0.02991 0.27549 0.35474
 N841 N 0.01066 0.26798 0.35362
 C842 C -0.00378 0.27731 0.34185
 C843 C 0.00102 0.29482 0.33044
 C844 C 0.03533 0.29290 0.34358
 C845 C -0.00887 0.20521 0.36371
 C846 C -0.01504 0.18816 0.35292
 C847 C -0.01197 0.20779 0.32157
 C848 C -0.00583 0.22453 0.33298
 N849 N -0.00473 0.22303 0.35369
 H850 H 0.04103 0.26826 0.36457
 H851 H -0.01908 0.27126 0.34155
 H852 H -0.01057 0.30226 0.32123
 H853 H 0.05065 0.29886 0.34471
 H854 H -0.00761 0.20439 0.38016
 H855 H -0.01862 0.17413 0.36106
 H856 H -0.01311 0.20914 0.30512
 H857 H -0.00208 0.23868 0.32527
 C858 C 0.05959 0.22308 0.40700
 C859 C -0.05238 0.26844 0.40868
 C860 C -0.01674 0.18950 0.33168
 C861 C 0.02076 0.30268 0.33137
 C862 C 1.02327 0.77481 0.09344
 H863 H 1.00868 0.78259 0.09238
 C864 C 1.04011 0.78218 0.08245
 H865 H 1.03848 0.79561 0.07279
 C866 C 1.04351 0.74831 0.10798
 H867 H 1.04497 0.73546 0.11834
 C868 C 1.06070 0.75517 0.09727
 H869 H 1.07524 0.74742 0.09926
 N870 N 1.02524 0.75813 0.10588
 C871 C 0.96412 0.73384 0.11597
 H872 H 0.96430 0.73284 0.13247
 C873 C 0.94714 0.72721 0.10534
 H874 H 0.93415 0.72108 0.11365
 C875 C 0.98093 0.74289 0.08496
 H876 H 0.99422 0.74882 0.07710
 C877 C 0.96420 0.73639 0.07370
 H878 H 0.96457 0.73743 0.05718
 Zn879 Zn 1.00250 0.75008 0.12204
 N880 N 0.98047 0.74171 0.10573
 C881 C 0.97527 0.78067 0.13635
 N882 N 0.99448 0.77277 0.13796
 C883 C 1.00857 0.78146 0.15020
 C884 C 1.00340 0.79857 0.16178
 C885 C 0.96948 0.79772 0.14764
 C886 C 1.01424 0.70976 0.12930
 C887 C 1.01986 0.69245 0.14059
 C888 C 1.01539 0.71182 0.17153
 C889 C 1.00983 0.72880 0.15964
 N890 N 1.00967 0.72754 0.13890
 H891 H 0.96444 0.77395 0.12615
 H892 H 1.02385 0.77511 0.15090
 H893 H 1.01466 0.80539 0.17151
 H894 H 0.95416 0.80390 0.14626
 H895 H 1.01370 0.70913 0.11282
 H896 H 1.02376 0.67844 0.13280
 H897 H 1.01575 0.71296 0.18801
 H898 H 1.00571 0.74292 0.16701
 C899 C 0.94713 0.72855 0.08403
 C900 C 1.05901 0.77231 0.08449
 C901 C 1.02056 0.69354 0.16188
 C902 C 0.98365 0.80672 0.16048
 C903 C 0.52419 0.27456 0.59390
 H904 H 0.50963 0.28238 0.59276
 C905 C 0.54109 0.28185 0.58295
 H906 H 0.53954 0.29526 0.57325
 C907 C 0.54431 0.24802 0.60857
 H908 H 0.54569 0.23519 0.61895
 C909 C 0.56155 0.25480 0.59790
 H910 H 0.57605 0.24702 0.59995
 N911 N 0.52607 0.25790 0.60638
 C912 C 0.46484 0.23380 0.61620
 H913 H 0.46491 0.23283 0.63270
 C914 C 0.44788 0.22721 0.60548
 H915 H 0.43483 0.22115 0.61373
 C916 C 0.48185 0.24274 0.58526
 H917 H 0.49520 0.24861 0.57747
 C918 C 0.46515 0.23629 0.57392
 H919 H 0.46562 0.23730 0.55740
 Zn920 Zn 0.50323 0.24994 0.62245
 N921 N 0.48127 0.24159 0.60604
 C922 C 0.47601 0.28063 0.63655
 N923 N 0.49519 0.27269 0.63827
 C924 C 0.50924 0.28137 0.65057
 C925 C 0.50405 0.29850 0.66210
 C926 C 0.47020 0.29771 0.64779
 C927 C 0.51484 0.20960 0.62988
 C928 C 0.52037 0.19232 0.64126
 C929 C 0.51575 0.21178 0.67211
 C930 C 0.51029 0.22874 0.66014
 N931 N 0.51026 0.22743 0.63940
 H932 H 0.46522 0.27392 0.62631
 H933 H 0.52450 0.27497 0.65136
 H934 H 0.51528 0.30530 0.67189
 H935 H 0.45490 0.30393 0.64632
 H936 H 0.51441 0.20893 0.61339
 H937 H 0.52429 0.17827 0.63353
 H938 H 0.51601 0.21298 0.68859
 H939 H 0.50616 0.24289 0.66744
 C940 C 0.44800 0.22853 0.58416
 C941 C 0.55995 0.27192 0.58507
 C942 C 0.52095 0.19346 0.66254
 C943 C 0.48432 0.30670 0.66069
 C944 C 0.48239 0.77044 0.89896
 H945 H 0.49700 0.77796 0.89942
 C946 C 0.46585 0.77816 0.91019
 H947 H 0.46773 0.79161 0.91942
 C948 C 0.46175 0.74427 0.88569
 H949 H 0.46001 0.73141 0.87573
 C950 C 0.44485 0.75148 0.89666
 H951 H 0.43026 0.74400 0.89526
 N952 N 0.48008 0.75377 0.88703
 C953 C 0.54087 0.72816 0.87598
 H954 H 0.54028 0.72706 0.85952
 C955 C 0.55819 0.72143 0.88638
 H956 H 0.57101 0.71511 0.87793
 C957 C 0.52484 0.73773 0.90711
 H958 H 0.51175 0.74394 0.91512
 C959 C 0.54192 0.73115 0.91813
 H960 H 0.54199 0.73241 0.93461
 Zn961 Zn 0.50238 0.74532 0.87044
 N962 N 0.52476 0.73637 0.88638
 C963 C 0.52938 0.77549 0.85526
 N964 N 0.51012 0.76803 0.85406
 C965 C 0.49576 0.77738 0.84223
 C966 C 0.50063 0.79488 0.83083
 C967 C 0.53488 0.79290 0.84413
 C968 C 0.49045 0.70531 0.86419
 C969 C 0.48430 0.68823 0.85341
 C970 C 0.48747 0.70780 0.82204
 C971 C 0.49358 0.72456 0.83342
 N972 N 0.49464 0.72309 0.85414
 H973 H 0.54044 0.76825 0.86515
 H974 H 0.48044 0.77136 0.84187
 H975 H 0.48910 0.80234 0.82157
 H976 H 0.55020 0.79882 0.84533
 H977 H 0.49166 0.70452 0.88064
 H978 H 0.48069 0.67423 0.86158
 H979 H 0.48637 0.70911 0.80558
 H980 H 0.49737 0.73869 0.82570
 C981 C 0.55877 0.72304 0.90763
 C982 C 0.44689 0.76864 0.90892
 C983 C 0.48266 0.68953 0.83217
 C984 C 0.52038 0.80270 0.83186
 C985 C 0.46714 -0.17294 0.32899
 C986 C 0.46110 -0.15778 0.32026
 C987 C 0.45361 -0.13950 0.31036
 C988 C 0.45849 -0.12035 0.31816
 C989 C 0.45040 -0.10259 0.30921
 C990 C 0.43740 -0.10391 0.29243
 C991 C 0.43272 -0.12305 0.28448
 C992 C 0.44080 -0.14081 0.29342
 C993 C 0.42822 -0.08574 0.28387
 C994 C 0.42008 -0.07068 0.27683
 H995 H 0.46831 -0.11917 0.33130
 H996 H 0.45406 -0.08788 0.31554
 H997 H 0.42262 -0.12425 0.27155
 H998 H 0.43686 -0.15554 0.28732
 C999 C 0.96625 0.32675 0.82985
 C1000 C 0.96027 0.34201 0.82125
 C1001 C 0.95285 0.36040 0.81151
 C1002 C 0.95638 0.37937 0.82041
 C1003 C 0.94836 0.39719 0.81152
 C1004 C 0.93679 0.39612 0.79370
 C1005 C 0.93347 0.37717 0.78466
 C1006 C 0.94148 0.35935 0.79355
 C1007 C 0.92764 0.41430 0.78513
 C1008 C 0.91952 0.42936 0.77808
 H1009 H 0.96508 0.38035 0.83434
 H1010 H 0.95096 0.41174 0.81869
 H1011 H 0.92447 0.37615 0.77092
 H1012 H 0.93860 0.34476 0.78658
 C1013 C 0.02623 1.17920 0.82882
 C1014 C 0.03301 1.16423 0.82056
 C1015 C 0.04120 1.14611 0.81121
 C1016 C 0.05758 1.14747 0.79738
 C1017 C 0.06605 1.12976 0.78897
 C1018 C 0.05819 1.11060 0.79437
 C1019 C 0.04168 1.10925 0.80805
 C1020 C 0.03320 1.12697 0.81646
 C1021 C 0.06747 1.09236 0.78634
 C1022 C 0.07562 1.07721 0.77973
 H1023 H 0.06393 1.16218 0.79327
 H1024 H 0.07886 1.13097 0.77845
 H1025 H 0.03551 1.09452 0.81238
 H1026 H 0.02058 1.12573 0.82719
 C1027 C 0.52663 0.68043 0.32823
 C1028 C 0.53334 0.66539 0.32002
 C1029 C 0.54142 0.64719 0.31072
 C1030 C 0.53354 0.62808 0.31627
 C1031 C 0.54190 0.61031 0.30789
 C1032 C 0.55819 0.61156 0.29392
 C1033 C 0.56593 0.63069 0.28823
 C1034 C 0.55757 0.64846 0.29661
 C1035 C 0.56736 0.59326 0.28589
 C1036 C 0.57542 0.57808 0.27926
 H1037 H 0.52109 0.62692 0.32722
 H1038 H 0.53583 0.59560 0.31245
 H1039 H 0.57856 0.63183 0.27748
 H1040 H 0.56383 0.66315 0.29226
 C1041 C 0.52708 0.32884 0.17306
 C1042 C 0.53270 0.34394 0.18164
 C1043 C 0.53984 0.36216 0.19122
 C1044 C 0.55362 0.36077 0.20741
 C1045 C 0.56168 0.37850 0.21573
 C1046 C 0.55598 0.39769 0.20790
 C1047 C 0.54191 0.39909 0.19195
 C1048 C 0.53386 0.38136 0.18364
 C1049 C 0.56548 0.41580 0.21542
 C1050 C 0.57405 0.43077 0.22139
 H1051 H 0.55844 0.34600 0.21332
 H1052 H 0.57263 0.37723 0.22798
 H1053 H 0.53749 0.41384 0.18570
 H1054 H 0.52330 0.38261 0.17104
 C1055 C 0.02697 0.82833 0.67371
 C1056 C 0.03275 0.84336 0.68231
 C1057 C 0.04006 0.86149 0.69193
 C1058 C 0.03332 0.88074 0.68516
 C1059 C 0.04150 0.89842 0.69346
 C1060 C 0.05645 0.89692 0.70857
 C1061 C 0.06293 0.87767 0.71559
 C1062 C 0.05475 0.85999 0.70729
 C1063 C 0.06599 0.91503 0.71603
 C1064 C 0.07459 0.93000 0.72197
 H1065 H 0.02206 0.88208 0.67320
 H1066 H 0.03647 0.91322 0.68783
 H1067 H 0.07457 0.87633 0.72718
 H1068 H 0.06016 0.84519 0.71256
 C1069 C 0.96950 0.68062 0.67320
 C1070 C 0.96265 0.66541 0.68109
 C1071 C 0.95432 0.64704 0.68992
 C1072 C 0.96334 0.62809 0.68556
 C1073 C 0.95464 0.61012 0.69324
 C1074 C 0.93689 0.61102 0.70529
 C1075 C 0.92802 0.62998 0.70986
 C1076 C 0.93671 0.64795 0.70219
 C1077 C 0.92729 0.59252 0.71233
 C1078 C 0.91878 0.57721 0.71800
 H1079 H 0.97691 0.62720 0.67602
 H1080 H 0.96158 0.59554 0.68954
 H1081 H 0.91424 0.63085 0.71910
 H1082 H 0.92956 0.66251 0.70558
 C1083 C 0.47042 0.18068 0.17258
 C1084 C 0.46355 0.16544 0.18039
 C1085 C 0.45521 0.14703 0.18912
 C1086 C 0.46396 0.12806 0.18435
 C1087 C 0.45523 0.11007 0.19193
 C1088 C 0.43771 0.11097 0.20432
 C1089 C 0.42910 0.12994 0.20930
 C1090 C 0.43783 0.14793 0.20172
 C1091 C 0.42806 0.09247 0.21128
 C1092 C 0.41952 0.07716 0.21690
 H1093 H 0.47735 0.12718 0.17454
 H1094 H 0.46196 0.09549 0.18791
 H1095 H 0.41551 0.13081 0.21881
 H1096 H 0.43088 0.16250 0.20544
 C1097 C 0.32822 0.46576 -0.17257
 C1098 C 0.31960 0.45961 -0.15739
 C1099 C 0.30984 0.45200 -0.13908
 C1100 C 0.31804 0.45638 -0.11995
 C1101 C 0.30919 0.44819 -0.10217
 C1102 C 0.29211 0.43559 -0.10345
 C1103 C 0.28376 0.43141 -0.12256
 C1104 C 0.29261 0.43960 -0.14034
 C1105 C 0.28362 0.42630 -0.08528
 C1106 C 0.27665 0.41808 -0.07022
 H1107 H 0.33141 0.46589 -0.11880
 H1108 H 0.31582 0.45145 -0.08749
 H1109 H 0.27060 0.42162 -0.12373
 H1110 H 0.28619 0.43605 -0.15505
 C1111 C 0.82817 0.96679 0.32742
 C1112 C 0.81959 0.96080 0.34269
 C1113 C 0.80987 0.95337 0.36110
 C1114 C 0.81852 0.95732 0.38012
 C1115 C 0.80970 0.94929 0.39798
 C1116 C 0.79218 0.93726 0.39689
 C1117 C 0.78339 0.93351 0.37788
 C1118 C 0.79221 0.94155 0.36002
 C1119 C 0.78370 0.92809 0.41512
 C1120 C 0.77672 0.91995 0.43022
 H1121 H 0.83222 0.96638 0.38112
 H1122 H 0.81668 0.95221 0.41258
 H1123 H 0.76989 0.92417 0.37685
 H1124 H 0.78544 0.93833 0.34539
 C1125 C 0.82800 0.02590 1.18023
 C1126 C 0.81975 0.03259 1.16515
 C1127 C 0.81045 0.04066 1.14691
 C1128 C 0.79656 0.05699 1.14807
 C1129 C 0.78820 0.06536 1.13023
 C1130 C 0.79371 0.05744 1.11115
 C1131 C 0.80745 0.04098 1.11000
 C1132 C 0.81580 0.03261 1.12784
 C1133 C 0.78573 0.06662 1.09277
 C1134 C 0.77917 0.07470 1.07752
 H1135 H 0.79237 0.06338 1.16273
 H1136 H 0.77764 0.07812 1.13129
 H1137 H 0.81186 0.03478 1.09532
 H1138 H 0.82658 0.02004 1.12675
 C1139 C 0.32754 0.52613 0.67975
 C1140 C 0.31932 0.53287 0.66468
 C1141 C 0.31003 0.54101 0.64646
 C1142 C 0.29606 0.55727 0.64770
 C1143 C 0.28771 0.56571 0.62989
 C1144 C 0.29329 0.55794 0.61077
 C1145 C 0.30710 0.54155 0.60955
 C1146 C 0.31545 0.53311 0.62735
 C1147 C 0.28530 0.56719 0.59244
 C1148 C 0.27872 0.57532 0.57722
 H1149 H 0.29182 0.56356 0.66239
 H1150 H 0.27709 0.57843 0.63101
 H1151 H 0.31157 0.53546 0.59484
 H1152 H 0.32629 0.52058 0.62622
 C1153 C 0.17262 0.52673 0.32798
 C1154 C 0.18119 0.53242 0.34307
 C1155 C 0.19077 0.53965 0.36127
 C1156 C 0.18335 0.53356 0.38052
 C1157 C 0.19165 0.54169 0.39823
 C1158 C 0.20742 0.55594 0.39676
 C1159 C 0.21509 0.56176 0.37752
 C1160 C 0.20678 0.55363 0.35982
 C1161 C 0.21492 0.56549 0.41485
 C1162 C 0.22089 0.57410 0.42980
 H1163 H 0.17089 0.52285 0.38182
 H1164 H 0.18552 0.53718 0.41301
 H1165 H 0.22720 0.57286 0.37621
 H1166 H 0.21256 0.55853 0.34502
 C1167 C 0.67208 0.02632 0.82847
 C1168 C 0.68072 0.03195 0.84354
 C1169 C 0.69040 0.03911 0.86172
 C1170 C 0.68280 0.03330 0.88098
 C1171 C 0.69122 0.04137 0.89866
 C1172 C 0.70728 0.05529 0.89715
 C1173 C 0.71512 0.06082 0.87790
 C1174 C 0.70670 0.05275 0.86022
 C1175 C 0.71493 0.06481 0.91520
 C1176 C 0.72101 0.07339 0.93012
 H1177 H 0.67012 0.02285 0.88231
 H1178 H 0.68496 0.03708 0.91345
 H1179 H 0.72746 0.07167 0.87655
 H1180 H 0.71261 0.05744 0.84541
 C1181 C 0.67227 0.96990 0.68138
 C1182 C 0.68011 0.96304 0.66618
 C1183 C 0.68889 0.95471 0.64782
 C1184 C 0.70123 0.93717 0.64880
 C1185 C 0.70885 0.92847 0.63084
 C1186 C 0.70416 0.93727 0.61183
 C1187 C 0.69202 0.95495 0.61086
 C1188 C 0.68440 0.96365 0.62882
 C1189 C 0.71115 0.92766 0.59335
 C1190 C 0.71680 0.91915 0.57806
 H1191 H 0.70472 0.93008 0.66339
 H1192 H 0.71816 0.91475 0.63176
 H1193 H 0.68823 0.96183 0.59624
 H1194 H 0.67480 0.97717 0.62788
 C1195 C 0.17221 0.46920 0.18028
 C1196 C 0.18005 0.46222 0.16514
 C1197 C 0.18883 0.45372 0.14686
 C1198 C 0.20112 0.43615 0.14799
 C1199 C 0.20875 0.42730 0.13012
 C1200 C 0.20412 0.43597 0.11103
 C1201 C 0.19204 0.45368 0.10991
 C1202 C 0.18441 0.46254 0.12779
 C1203 C 0.21114 0.42622 0.09265
 C1204 C 0.21680 0.41761 0.07742
 H1205 H 0.20456 0.42916 0.16265
 H1206 H 0.21801 0.41356 0.13116
 H1207 H 0.18830 0.46047 0.09523
 H1208 H 0.17485 0.47608 0.12673
 C1209 C -0.17187 0.32895 0.46651
 C1210 C -0.15675 0.32024 0.46041
 C1211 C -0.13853 0.31035 0.45286
 C1212 C -0.13995 0.29338 0.44017
 C1213 C -0.12225 0.28442 0.43202
 C1214 C -0.10306 0.29240 0.43653
 C1215 C -0.10163 0.30922 0.44941
 C1216 C -0.11932 0.31818 0.45756
 C1217 C -0.08496 0.28382 0.42728
 C1218 C -0.06997 0.27676 0.41907
 H1219 H -0.15472 0.28725 0.43636
 H1220 H -0.12354 0.27146 0.42201
 H1221 H -0.08688 0.31557 0.45293
 H1222 H -0.11805 0.33135 0.46729
 C1223 C 0.32721 0.82926 0.96622
 C1224 C 0.34236 0.82055 0.96021
 C1225 C 0.36063 0.81067 0.95275
 C1226 C 0.35931 0.79322 0.94070
 C1227 C 0.37704 0.78425 0.93264
 C1228 C 0.39616 0.79269 0.93660
 C1229 C 0.39749 0.80999 0.94885
 C1230 C 0.37977 0.81896 0.95691
 C1231 C 0.41428 0.78407 0.92741
 C1232 C 0.42928 0.77699 0.91925
 H1233 H 0.34459 0.78673 0.93732
 H1234 H 0.37582 0.77092 0.92311
 H1235 H 0.41218 0.81669 0.95194
 H1236 H 0.38096 0.83250 0.96615
 C1237 C 1.17948 0.82938 0.02575
 C1238 C 1.16437 0.82117 0.03240
 C1239 C 1.14611 0.81188 0.04042
 C1240 C 1.14735 0.79702 0.05592
 C1241 C 1.12953 0.78860 0.06424
 C1242 C 1.11039 0.79500 0.05709
 C1243 C 1.10916 0.80972 0.04146
 C1244 C 1.12698 0.81814 0.03314
 C1245 C 1.09207 0.78691 0.06625
 C1246 C 1.07688 0.78023 0.07431
 H1247 H 1.16206 0.79211 0.06171
 H1248 H 1.13066 0.77727 0.07637
 H1249 H 1.09445 0.81483 0.03586
 H1250 H 1.12584 0.82967 0.02120
 C1251 C 0.68050 0.32874 0.52625
 C1252 C 0.66541 0.32051 0.53292
 C1253 C 0.64718 0.31120 0.54098
 C1254 C 0.62811 0.31658 0.53290
 C1255 C 0.61029 0.30820 0.54125
 C1256 C 0.61145 0.29440 0.55771
 C1257 C 0.63053 0.28887 0.56565
 C1258 C 0.64835 0.29726 0.55731
 C1259 C 0.59310 0.28638 0.56686
 C1260 C 0.57787 0.27976 0.57491
 H1261 H 0.62702 0.32741 0.52032
 H1262 H 0.59562 0.31263 0.53503
 H1263 H 0.63160 0.27826 0.57842
 H1264 H 0.66300 0.29304 0.56372
 C1265 C 0.32885 0.17311 0.52571
 C1266 C 0.34392 0.18175 0.53136
 C1267 C 0.36209 0.19140 0.53854
 C1268 C 0.36063 0.20752 0.55236
 C1269 C 0.37832 0.21588 0.56048
 C1270 C 0.39755 0.20817 0.55482
 C1271 C 0.39902 0.19230 0.54072
 C1272 C 0.38134 0.18394 0.53260
 C1273 C 0.41561 0.21571 0.56440
 C1274 C 0.43054 0.22171 0.57305
 H1275 H 0.34583 0.21333 0.55715
 H1276 H 0.37699 0.22806 0.57147
 H1277 H 0.41380 0.18614 0.53634
 H1278 H 0.38264 0.17141 0.52202
 C1279 C 0.82779 0.67275 0.02633
 C1280 C 0.84287 0.68142 0.03189
 C1281 C 0.86107 0.69112 0.03895
 C1282 C 0.88030 0.68362 0.03299
 C1283 C 0.89801 0.69205 0.04099
 C1284 C 0.89658 0.70801 0.05498
 C1285 C 0.87737 0.71575 0.06066
 C1286 C 0.85965 0.70733 0.05267
 C1287 C 0.91468 0.71563 0.06445
 C1288 C 0.92963 0.72167 0.07301
 H1289 H 0.88157 0.67102 0.02249
 H1290 H 0.91278 0.68586 0.03659
 H1291 H 0.87608 0.72801 0.07157
 H1292 H 0.84487 0.71317 0.05747
 C1293 C 0.67994 0.67157 0.96937
 C1294 C 0.66475 0.67942 0.96245
 C1295 C 0.64640 0.68822 0.95407
 C1296 C 0.64740 0.70066 0.93656
 C1297 C 0.62946 0.70834 0.92783
 C1298 C 0.61045 0.70360 0.93657
 C1299 C 0.60947 0.69135 0.95423
 C1300 C 0.62741 0.68368 0.96296
 C1301 C 0.59200 0.71067 0.92694
 C1302 C 0.57671 0.71639 0.91842
 H1303 H 0.66199 0.70420 0.92951
 H1304 H 0.63039 0.71773 0.91413
 H1305 H 0.59486 0.68753 0.96106
 H1306 H 0.62646 0.67400 0.97645
 C1307 C 0.18099 0.17195 0.46857
 C1308 C 0.16578 0.17976 0.46166
 C1309 C 0.14740 0.18851 0.45330
 C1310 C 0.14833 0.20086 0.43571
 C1311 C 0.13036 0.20848 0.42700
 C1312 C 0.11138 0.20378 0.43583
 C1313 C 0.11047 0.19162 0.45355
 C1314 C 0.12844 0.18401 0.46227
 C1315 C 0.09289 0.21080 0.42624
 C1316 C 0.07757 0.21648 0.41775
 H1317 H 0.16290 0.20436 0.42860
 H1318 H 0.13124 0.21780 0.41325
 H1319 H 0.09588 0.18783 0.46046
 H1320 H 0.12754 0.17440 0.47582
 C1321 C 0.57561 0.07570 0.72858
 C1322 C 0.56694 0.09063 0.72196
 C1323 C 0.55719 0.10852 0.71347
 C1324 C 0.56351 0.12795 0.71929
 C1325 C 0.55518 0.14535 0.70989
 C1326 C 0.54051 0.14338 0.69463
 C1327 C 0.53392 0.12395 0.68908
 C1328 C 0.54225 0.10655 0.69848
 C1329 C 0.53311 0.16116 0.68385
 C1330 C 0.52734 0.17596 0.67438
 H1331 H 0.57515 0.12964 0.73078
 H1332 H 0.56047 0.16029 0.71421
 H1333 H 0.52268 0.12225 0.67721
 H1334 H 0.53735 0.09159 0.69378
 C1335 C 1.07562 0.57556 0.22722
 C1336 C 1.06694 0.59051 0.22067
 C1337 C 1.05717 0.60843 0.21229
 C1338 C 1.06362 0.62785 0.21805
 C1339 C 1.05524 0.64528 0.20875
 C1340 C 1.04038 0.64336 0.19367
 C1341 C 1.03366 0.62396 0.18818
 C1342 C 1.04204 0.60653 0.19747
 C1343 C 1.03290 0.66118 0.18301
 C1344 C 1.02706 0.67601 0.17362
 H1345 H 1.07540 0.62948 0.22939
 H1346 H 1.06062 0.66020 0.21303
 H1347 H 1.02227 0.62231 0.17645
 H1348 H 1.03704 0.59159 0.19282
 C1349 C 0.92807 0.92344 0.22554
 C1350 C 0.93732 0.90896 0.21889
 C1351 C 0.94766 0.89150 0.21043
 C1352 C 0.94417 0.87201 0.21868
 C1353 C 0.95280 0.85484 0.20939
 C1354 C 0.96495 0.85709 0.19180
 C1355 C 0.96880 0.87661 0.18380
 C1356 C 0.96017 0.89379 0.19309
 C1357 C 0.97231 0.83934 0.18121
 C1358 C 0.97782 0.82446 0.17196
 H1359 H 0.93441 0.87006 0.23200
 H1360 H 0.94962 0.83980 0.21562
 H1361 H 0.97806 0.87851 0.17012
 H1362 H 0.96285 0.90878 0.18650
 C1363 C 0.42847 0.42332 0.72569
 C1364 C 0.43777 0.40887 0.71903
 C1365 C 0.44816 0.39145 0.71056
 C1366 C 0.44491 0.37198 0.71895
 C1367 C 0.45358 0.35482 0.70966
 C1368 C 0.46554 0.35707 0.69194
 C1369 C 0.46915 0.37659 0.68380
 C1370 C 0.46048 0.39375 0.69309
 C1371 C 0.47293 0.33932 0.68137
 C1372 C 0.47847 0.32444 0.67214
 H1373 H 0.43529 0.37002 0.73237
 H1374 H 0.45058 0.33979 0.71600
 H1375 H 0.47826 0.37849 0.67003
 H1376 H 0.46298 0.40872 0.68640
 C1377 C 0.42468 0.57124 0.77519
 C1378 C 0.43347 0.58646 0.78013
 C1379 C 0.44350 0.60463 0.78677
 C1380 C 0.46149 0.60309 0.79810
 C1381 C 0.47030 0.62062 0.80603
 C1382 C 0.46116 0.63976 0.80266
 C1383 C 0.44341 0.64134 0.79097
 C1384 C 0.43459 0.62381 0.78304
 C1385 C 0.46921 0.65753 0.81232
 C1386 C 0.47555 0.67223 0.82104
 H1387 H 0.46842 0.58832 0.80118
 H1388 H 0.48395 0.61921 0.81516
 H1389 H 0.43614 0.65605 0.78840
 H1390 H 0.42060 0.62516 0.77441
 C1391 C -0.07513 0.07150 0.27457
 C1392 C -0.06627 0.08668 0.27949
 C1393 C -0.05616 0.10480 0.28613
 C1394 C -0.03821 0.10317 0.29751
 C1395 C -0.02933 0.12065 0.30548
 C1396 C -0.03837 0.13984 0.30209
 C1397 C -0.05608 0.14151 0.29035
 C1398 C -0.06496 0.12402 0.28238
 C1399 C -0.03027 0.15756 0.31179
 C1400 C -0.02388 0.17223 0.32053
 H1401 H -0.03135 0.08836 0.30062
 H1402 H -0.01571 0.11917 0.31465
 H1403 H -0.06327 0.15625 0.28775
 H1404 H -0.07892 0.12544 0.27372
 C1405 C 0.07343 0.42565 0.27594
 C1406 C 0.06454 0.41027 0.28073
 C1407 C 0.05461 0.39177 0.28718
 C1408 C 0.06115 0.37298 0.27938
 C1409 C 0.05291 0.35482 0.28710
 C1410 C 0.03808 0.35539 0.30265
 C1411 C 0.03118 0.37420 0.31010
 C1412 C 0.03943 0.39236 0.30238
 C1413 C 0.03118 0.33671 0.31206
 C1414 C 0.02606 0.32114 0.32055
 H1415 H 0.07299 0.37234 0.26774
 H1416 H 0.05847 0.34035 0.28135
 H1417 H 0.01985 0.37481 0.32224
 H1418 H 0.03437 0.40680 0.30863
 C1419 C 0.57349 0.92569 0.77688
 C1420 C 0.56458 0.91031 0.78161
 C1421 C 0.55460 0.89180 0.78797
 C1422 C 0.56124 0.87301 0.78025
 C1423 C 0.55293 0.85485 0.78789
 C1424 C 0.53794 0.85541 0.80328
 C1425 C 0.53094 0.87422 0.81065
 C1426 C 0.53926 0.89238 0.80301
 C1427 C 0.53096 0.83674 0.81263
 C1428 C 0.52577 0.82116 0.82107
 H1429 H 0.57321 0.87237 0.76873
 H1430 H 0.55857 0.84038 0.78221
 H1431 H 0.51948 0.87483 0.82266
 H1432 H 0.53412 0.90682 0.80919
 C1433 C 0.72802 0.57658 0.07459
 C1434 C 0.72152 0.56789 0.08959
 C1435 C 0.71319 0.55813 0.10756
 C1436 C 0.71896 0.56461 0.12697
 C1437 C 0.70970 0.55626 0.14444
 C1438 C 0.69462 0.54139 0.14257
 C1439 C 0.68912 0.53463 0.12318
 C1440 C 0.69839 0.54298 0.10571
 C1441 C 0.68398 0.53394 0.16043
 C1442 C 0.67460 0.52812 0.17528
 H1443 H 0.73029 0.57641 0.12856
 H1444 H 0.71398 0.56168 0.15935
 H1445 H 0.67740 0.52322 0.12157
 H1446 H 0.69372 0.53795 0.09077
 C1447 C 0.22865 1.07581 0.57521
 C1448 C 0.22213 1.06716 0.59021
 C1449 C 0.21378 1.05743 0.60820
 C1450 C 0.21945 1.06403 0.62760
 C1451 C 0.21017 1.05569 0.64507
 C1452 C 0.19520 1.04072 0.64321
 C1453 C 0.18981 1.03385 0.62383
 C1454 C 0.19908 1.04219 0.60636
 C1455 C 0.18454 1.03327 0.66106
 C1456 C 0.17515 1.02746 0.67591
 H1457 H 0.23070 1.07590 0.62919
 H1458 H 0.21436 1.06119 0.65998
 H1459 H 0.17816 1.02236 0.62222
 H1460 H 0.19450 1.03707 0.59143
 C1461 C 0.22670 0.92873 0.92417
 C1462 C 0.22013 0.93806 0.90964
 C1463 C 0.21175 0.94847 0.89213
 C1464 C 0.22011 0.94509 0.87268
 C1465 C 0.21087 0.95374 0.85543
 C1466 C 0.19323 0.96580 0.85756
 C1467 C 0.18513 0.96954 0.87705
 C1468 C 0.19437 0.96090 0.89430
 C1469 C 0.18268 0.97312 0.83972
 C1470 C 0.17345 0.97860 0.82477
 H1471 H 0.23346 0.93540 0.87081
 H1472 H 0.21718 0.95063 0.84042
 H1473 H 0.17141 0.97873 0.87886
 H1474 H 0.18770 0.96349 0.90926
 C1475 C 0.72683 0.42947 0.42329
 C1476 C 0.72017 0.43876 0.40878
 C1477 C 0.71169 0.44912 0.39129
 C1478 C 0.69431 0.46154 0.39353
 C1479 C 0.68499 0.47017 0.37631
 C1480 C 0.69301 0.46641 0.35679
 C1481 C 0.71064 0.45435 0.35459
 C1482 C 0.71996 0.44572 0.37181
 C1483 C 0.68239 0.47374 0.33900
 C1484 C 0.67311 0.47923 0.32408
 H1485 H 0.68771 0.46415 0.40852
 H1486 H 0.67128 0.47935 0.37818
 H1487 H 0.71688 0.45124 0.33956
 H1488 H 0.73331 0.43603 0.36989
 C1489 C 0.77612 0.42564 0.57160
 C1490 C 0.78105 0.43441 0.58684
 C1491 C 0.78767 0.44440 0.60503
 C1492 C 0.78358 0.43566 0.62425
 C1493 C 0.79148 0.44443 0.64183
 C1494 C 0.80349 0.46197 0.64026
 C1495 C 0.80722 0.47094 0.62108
 C1496 C 0.79933 0.46218 0.60350
 C1497 C 0.81308 0.46995 0.65811
 C1498 C 0.82174 0.47623 0.67290
 H1499 H 0.77470 0.42184 0.62559
 H1500 H 0.78861 0.43729 0.65658
 H1501 H 0.81660 0.48442 0.61968
 H1502 H 0.80269 0.46898 0.58870
 C1503 C 0.27547 -0.07382 0.07097
 C1504 C 0.28049 -0.06507 0.08618
 C1505 C 0.28723 -0.05511 0.10434
 C1506 C 0.29895 -0.03737 0.10276
 C1507 C 0.30699 -0.02866 0.12030
 C1508 C 0.30334 -0.03764 0.13950
 C1509 C 0.29127 -0.05513 0.14113
 C1510 C 0.28323 -0.06385 0.12358
 C1511 C 0.31309 -0.02973 0.15730
 C1512 C 0.32186 -0.02349 0.17203
 H1513 H 0.30226 -0.03057 0.08795
 H1514 H 0.31642 -0.01521 0.11886
 H1515 H 0.28847 -0.06228 0.15588
 H1516 H 0.27430 -0.07764 0.12497
 C1517 C 0.27702 0.07335 0.42520
 C1518 C 0.28185 0.06442 0.40989
 C1519 C 0.28835 0.05443 0.39146
 C1520 C 0.30351 0.03923 0.39222
 C1521 C 0.31128 0.03094 0.37414
 C1522 C 0.30393 0.03781 0.35523
 C1523 C 0.28841 0.05265 0.35449
 C1524 C 0.28064 0.06094 0.37257
 C1525 C 0.31340 0.03087 0.33663
 C1526 C 0.32193 0.02573 0.32111
 H1527 H 0.30969 0.03420 0.40674
 H1528 H 0.32339 0.01960 0.37488
 H1529 H 0.28273 0.05819 0.33994
 H1530 H 0.26903 0.07279 0.37180
 C1531 C 0.77591 0.57283 0.92617
 C1532 C 0.78074 0.56391 0.91085
 C1533 C 0.78726 0.55395 0.89242
 C1534 C 0.80242 0.53875 0.89317
 C1535 C 0.81023 0.53050 0.87509
 C1536 C 0.80292 0.53742 0.85617
 C1537 C 0.78741 0.55225 0.85544
 C1538 C 0.77959 0.56050 0.87352
 C1539 C 0.81245 0.53053 0.83758
 C1540 C 0.82102 0.52544 0.82207
 H1541 H 0.80857 0.53368 0.90769
 H1542 H 0.82234 0.51916 0.87583
 H1543 H 0.78176 0.55783 0.84089
 H1544 H 0.76799 0.57236 0.87275
 C1545 C 0.07510 0.72834 0.57596
 C1546 C 0.08998 0.72183 0.56717
 C1547 C 0.10784 0.71349 0.55729
 C1548 C 0.10582 0.69855 0.54234
 C1549 C 0.12319 0.68928 0.53388
 C1550 C 0.14265 0.69491 0.54035
 C1551 C 0.14468 0.71012 0.55502
 C1552 C 0.12730 0.71940 0.56348
 C1553 C 0.16042 0.68425 0.53284
 C1554 C 0.17521 0.67485 0.52698
 H1555 H 0.09084 0.69378 0.53754
 H1556 H 0.12145 0.67744 0.52264
 H1557 H 0.15965 0.71450 0.56022
 H1558 H 0.12903 0.73084 0.57512
 C1559 C 0.57616 0.22855 1.07577
 C1560 C 0.59107 0.22200 1.06705
 C1561 C 0.60894 0.21361 1.05724
 C1562 C 0.60692 0.19909 1.04188
 C1563 C 0.62428 0.18973 1.03347
 C1564 C 0.64371 0.19487 1.04039
 C1565 C 0.64575 0.20967 1.05548
 C1566 C 0.62840 0.21902 1.06388
 C1567 C 0.66143 0.18410 1.03290
 C1568 C 0.67616 0.17461 1.02707
 H1569 H 0.59194 0.19470 1.03672
 H1570 H 0.62253 0.17822 1.02190
 H1571 H 0.66070 0.21367 1.06102
 H1572 H 0.63012 0.23014 1.07585
 C1573 C 0.92417 0.22492 0.92823
 C1574 C 0.90965 0.21827 0.93748
 C1575 C 0.89213 0.20983 0.94782
 C1576 C 0.89426 0.19230 0.96010
 C1577 C 0.87700 0.18306 0.96873
 C1578 C 0.85756 0.19133 0.96512
 C1579 C 0.85547 0.20910 0.95319
 C1580 C 0.87272 0.21833 0.94456
 C1581 C 0.83970 0.18084 0.97248
 C1582 C 0.82472 0.17169 0.97801
 H1583 H 0.90918 0.18552 0.96260
 H1584 H 0.87878 0.16925 0.97781
 H1585 H 0.84049 0.21554 0.95019
 H1586 H 0.87089 0.23181 0.93498
 C1587 C 0.42332 0.72630 0.42856
 C1588 C 0.40877 0.71966 0.43778
 C1589 C 0.39124 0.71121 0.44808
 C1590 C 0.37181 0.71957 0.44462
 C1591 C 0.35455 0.71031 0.45321
 C1592 C 0.35666 0.69265 0.46529
 C1593 C 0.37613 0.68453 0.46911
 C1594 C 0.39339 0.69380 0.46052
 C1595 C 0.33882 0.68210 0.47261
 C1596 C 0.32387 0.67289 0.47809
 H1597 H 0.36997 0.73295 0.43491
 H1598 H 0.33956 0.71663 0.45004
 H1599 H 0.37793 0.67080 0.47832
 H1600 H 0.40833 0.68713 0.46318
 C1601 C 0.57144 0.77575 0.42572
 C1602 C 0.58660 0.78070 0.43461
 C1603 C 0.60470 0.78735 0.44476
 C1604 C 0.62397 0.78341 0.43614
 C1605 C 0.64146 0.79136 0.44505
 C1606 C 0.63975 0.80328 0.46261
 C1607 C 0.62053 0.80685 0.47148
 C1608 C 0.60303 0.79890 0.46257
 C1609 C 0.65750 0.81296 0.47072
 C1610 C 0.67220 0.82169 0.47710
 H1611 H 0.62542 0.77461 0.42229
 H1612 H 0.65624 0.78862 0.43798
 H1613 H 0.61902 0.81616 0.48498
 H1614 H 0.58820 0.80215 0.46929
 C1615 C 0.07090 0.27386 -0.07338
 C1616 C 0.08613 0.27876 -0.06458
 C1617 C 0.10433 0.28536 -0.05456
 C1618 C 0.12352 0.28137 -0.06333
 C1619 C 0.14110 0.28931 -0.05457
 C1620 C 0.13955 0.30126 -0.03702
 C1621 C 0.12040 0.30488 -0.02801
 C1622 C 0.10282 0.29695 -0.03676
 C1623 C 0.15738 0.31094 -0.02909
 C1624 C 0.17213 0.31969 -0.02285
 H1625 H 0.12484 0.27255 -0.07717
 H1626 H 0.15582 0.28653 -0.06175
 H1627 H 0.11902 0.31422 -0.01451
 H1628 H 0.08805 0.30024 -0.02993
 C1629 C 0.42606 0.27631 0.07403
 C1630 C 0.41065 0.28101 0.06517
 C1631 C 0.39210 0.28733 0.05525
 C1632 C 0.37332 0.27957 0.06199
 C1633 C 0.35513 0.28716 0.05373
 C1634 C 0.35565 0.30255 0.03871
 C1635 C 0.37445 0.30996 0.03162
 C1636 C 0.39264 0.30237 0.03987
 C1637 C 0.33695 0.31185 0.03177
 C1638 C 0.32135 0.32024 0.02662
 H1639 H 0.37273 0.26805 0.07398
 H1640 H 0.34068 0.28144 0.05944
 H1641 H 0.37502 0.32198 0.02012
 H1642 H 0.40707 0.30859 0.03466
 C1643 C 0.92535 0.77690 0.57466
 C1644 C 0.91000 0.78176 0.56577
 C1645 C 0.89154 0.78829 0.55582
 C1646 C 0.87268 0.78060 0.56240
 C1647 C 0.85458 0.78837 0.55411
 C1648 C 0.85527 0.80386 0.53919
 C1649 C 0.87415 0.81120 0.53226
 C1650 C 0.89225 0.80343 0.54055
 C1651 C 0.83666 0.81331 0.53221
 C1652 C 0.82114 0.82182 0.52703
 H1653 H 0.87194 0.76900 0.57431
 H1654 H 0.84006 0.78270 0.55970
 H1655 H 0.87485 0.82329 0.52085
 H1656 H 0.90674 0.80959 0.53546
   
