data_POSCAR
  _audit_creation_date              2014-09-24
  _audit_creation_method            'ToBaCCo'
  _symmetry_space_group_name_H-M    'P1'
  _symmetry_Int_Tables_number       1
  _symmetry_cell_setting            triclinic
  loop_
  _symmetry_equiv_pos_as_xyz
 x,y,z
_cell_length_a 55.7402
_cell_length_b 55.6899
_cell_length_c 55.6620
_cell_angle_alpha 90.026400
_cell_angle_beta 89.969800
_cell_angle_gamma 89.972400
loop_
  _atom_site_label
  _atom_site_type_symbol
  _atom_site_fract_x
  _atom_site_fract_y
  _atom_site_fract_z
O1 O 0.87531 0.15771 0.81212
 O2 O 0.90189 0.12627 0.80565
 O3 O 0.81278 0.12378 0.84171
 O4 O 0.80371 0.10067 0.87321
 O5 O 0.84219 0.18731 0.87541
 O6 O 0.87549 0.19405 0.90134
 O7 O 0.87589 0.06185 0.90693
 O8 O 0.84810 0.05595 0.87671
 O9 O 0.93717 0.09147 0.87572
 O10 O 0.94500 0.12544 0.84875
 O11 O 0.90806 0.12356 0.93692
 O12 O 0.87424 0.15006 0.94495
 O13 O 0.87600 0.09069 0.93602
 O14 O 0.84804 0.12542 0.94361
 O15 O 0.93703 0.12383 0.90811
 O16 O 0.94400 0.15171 0.87344
 O17 O 0.90833 0.06257 0.87617
 O18 O 0.87684 0.05882 0.84460
 O19 O 0.87597 0.18661 0.84120
 O20 O 0.90228 0.19350 0.87503
 O21 O 0.81318 0.15854 0.87534
 O22 O 0.80778 0.12426 0.90330
 O23 O 0.84156 0.12461 0.81265
 O24 O 0.87497 0.09551 0.80812
 Zr25 Zr 0.87420 0.12546 0.83172
 O26 O 0.89689 0.10327 0.85227
 Zr27 Zr 0.83210 0.12579 0.87411
 O28 O 0.85273 0.10293 0.89603
 Zr29 Zr 0.87447 0.16772 0.87400
 O30 O 0.89670 0.14703 0.89655
 Zr31 Zr 0.87586 0.08184 0.87500
 O32 O 0.85284 0.10237 0.85278
 Zr33 Zr 0.91801 0.12408 0.87548
 O34 O 0.89749 0.14658 0.85279
 Zr35 Zr 0.87566 0.12374 0.91754
 O36 O 0.85322 0.14688 0.89729
 O37 O 0.85206 0.14792 0.85178
 O38 O 0.89821 0.10148 0.89771
 C39 C 0.87626 0.17966 0.81917
 C40 C 0.81965 0.12361 0.81969
 C41 C 0.82021 0.18048 0.87600
 C42 C 0.87604 0.06872 0.92894
 C43 C 0.93028 0.06949 0.87615
 C44 C 0.93003 0.12360 0.93005
 H45 H 0.90677 0.09325 0.84141
 H46 H 0.90651 0.15789 0.90657
 H47 H 0.84180 0.15820 0.84154
 H48 H 0.84195 0.09270 0.90572
 H49 H 0.83708 0.05945 0.86321
 H50 H 0.81019 0.08536 0.87942
 H51 H 0.94125 0.16281 0.88704
 H52 H 0.91474 0.18796 0.86362
 H53 H 0.88024 0.04230 0.85031
 H54 H 0.87003 0.10086 0.79185
 H55 H 0.88595 0.16274 0.94082
 H56 H 0.86489 0.18820 0.91436
 H57 H 0.91494 0.13627 0.81237
 H58 H 0.94122 0.11309 0.83655
 H59 H 0.81229 0.13730 0.91451
 H60 H 0.83714 0.11167 0.94088
 O61 O 0.84217 0.68740 0.37498
 O62 O 0.87355 0.69392 0.40160
 O63 O 0.87623 0.65768 0.31245
 O64 O 0.89931 0.62617 0.30341
 O65 O 0.81273 0.62403 0.34197
 O66 O 0.80598 0.59821 0.37537
 O67 O 0.93809 0.59268 0.37581
 O68 O 0.94395 0.62278 0.34787
 O69 O 0.90836 0.62409 0.43705
 O70 O 0.87435 0.65098 0.44483
 O71 O 0.87645 0.56277 0.40806
 O72 O 0.85003 0.55461 0.37425
 O73 O 0.90931 0.56359 0.37596
 O74 O 0.87463 0.55594 0.34796
 O75 O 0.87613 0.59164 0.43700
 O76 O 0.84819 0.62624 0.44392
 O77 O 0.93728 0.62356 0.40816
 O78 O 0.94102 0.65499 0.37652
 O79 O 0.81334 0.65833 0.37572
 O80 O 0.80647 0.62455 0.40214
 O81 O 0.84152 0.62405 0.31292
 O82 O 0.87580 0.59611 0.30758
 O83 O 0.87530 0.68678 0.34121
 O84 O 0.90429 0.69143 0.37465
 Zr85 Zr 0.87441 0.66781 0.37393
 O86 O 0.89660 0.64734 0.39667
 Zr87 Zr 0.87420 0.62534 0.33186
 O88 O 0.89705 0.60349 0.35256
 Zr89 Zr 0.83226 0.62555 0.37429
 O90 O 0.85293 0.60306 0.39659
 Zr91 Zr 0.91807 0.62458 0.37566
 O92 O 0.89754 0.64673 0.35258
 Zr93 Zr 0.87581 0.62419 0.41787
 O94 O 0.85331 0.64680 0.39728
 Zr95 Zr 0.87626 0.58205 0.37558
 O96 O 0.85313 0.60222 0.35306
 O97 O 0.85203 0.64770 0.35179
 O98 O 0.89845 0.60194 0.39811
 C99 C 0.82025 0.68035 0.37596
 C100 C 0.87637 0.67970 0.31929
 C101 C 0.81960 0.62338 0.31996
 C102 C 0.93125 0.57067 0.37600
 C103 C 0.93032 0.62368 0.43013
 C104 C 0.87640 0.56969 0.43004
 H105 H 0.90657 0.65823 0.40653
 H106 H 0.84210 0.59306 0.40644
 H107 H 0.84176 0.65791 0.34149
 H108 H 0.90729 0.59378 0.34178
 H109 H 0.94046 0.63625 0.33679
 H110 H 0.91461 0.62000 0.30990
 H111 H 0.83712 0.61263 0.44118
 H112 H 0.81198 0.63599 0.41459
 H113 H 0.95753 0.64930 0.37993
 H114 H 0.89892 0.70768 0.36968
 H115 H 0.83732 0.55878 0.38593
 H116 H 0.81186 0.58516 0.36482
 H117 H 0.86348 0.68726 0.41465
 H118 H 0.88665 0.66319 0.44100
 H119 H 0.86278 0.58491 0.31212
 H120 H 0.88840 0.55861 0.33707
 O121 O 0.37463 0.15699 0.31233
 O122 O 0.40133 0.12552 0.30601
 O123 O 0.31229 0.12303 0.34228
 O124 O 0.30338 0.10000 0.37388
 O125 O 0.34167 0.18676 0.37564
 O126 O 0.37501 0.19375 0.40136
 O127 O 0.37568 0.06155 0.40772
 O128 O 0.34780 0.05547 0.37760
 O129 O 0.43680 0.09120 0.37603
 O130 O 0.44450 0.12502 0.34896
 O131 O 0.40786 0.12345 0.43724
 O132 O 0.37399 0.14997 0.44523
 O133 O 0.37579 0.09053 0.43665
 O134 O 0.34785 0.12528 0.44413
 O135 O 0.43672 0.12366 0.40832
 O136 O 0.44350 0.15142 0.37352
 O137 O 0.40802 0.06222 0.37679
 O138 O 0.37644 0.05819 0.34539
 O139 O 0.37531 0.18602 0.34127
 O140 O 0.40176 0.19308 0.37500
 O141 O 0.31272 0.15792 0.37578
 O142 O 0.30743 0.12381 0.40386
 O143 O 0.34100 0.12379 0.31314
 O144 O 0.37444 0.09475 0.30865
 Zr145 Zr 0.37368 0.12481 0.33212
 O146 O 0.39642 0.10276 0.35274
 Zr147 Zr 0.33170 0.12523 0.37463
 O148 O 0.35242 0.10254 0.39664
 Zr149 Zr 0.37398 0.16726 0.37418
 O150 O 0.39629 0.14674 0.39679
 Zr151 Zr 0.37552 0.08138 0.37566
 O152 O 0.35244 0.10176 0.35336
 Zr153 Zr 0.41758 0.12374 0.37577
 O154 O 0.39697 0.14608 0.35301
 Zr155 Zr 0.37538 0.12350 0.41797
 O156 O 0.35284 0.14648 0.39764
 O157 O 0.35154 0.14730 0.35213
 O158 O 0.39792 0.10119 0.39818
 C159 C 0.37554 0.17898 0.31926
 C160 C 0.31911 0.12276 0.32024
 C161 C 0.31971 0.17986 0.37634
 C162 C 0.37584 0.06851 0.42972
 C163 C 0.42993 0.06922 0.37659
 C164 C 0.42981 0.12350 0.43029
 H165 H 0.40629 0.09271 0.34191
 H166 H 0.40612 0.15766 0.40673
 H167 H 0.34123 0.15751 0.34187
 H168 H 0.34168 0.09235 0.40642
 H169 H 0.33674 0.05887 0.36410
 H170 H 0.30986 0.08480 0.38034
 H171 H 0.44078 0.16257 0.38710
 H172 H 0.41416 0.18755 0.36353
 H173 H 0.37987 0.04170 0.35119
 H174 H 0.36948 0.10002 0.29237
 H175 H 0.38573 0.16260 0.44105
 H176 H 0.36457 0.18790 0.41450
 H177 H 0.41430 0.13573 0.31257
 H178 H 0.44063 0.11270 0.33676
 H179 H 0.31200 0.13685 0.41505
 H180 H 0.33694 0.11153 0.44148
 O181 O 0.12516 0.34207 0.31217
 O182 O 0.09854 0.37354 0.30574
 O183 O 0.18753 0.37599 0.34206
 O184 O 0.19652 0.39897 0.37365
 O185 O 0.15797 0.31245 0.37550
 O186 O 0.12461 0.30558 0.40125
 O187 O 0.12425 0.43783 0.40727
 O188 O 0.15221 0.44370 0.37711
 O189 O 0.06315 0.40830 0.37572
 O190 O 0.05527 0.37446 0.34877
 O191 O 0.09192 0.37610 0.43697
 O192 O 0.12561 0.34960 0.44510
 O193 O 0.12403 0.40894 0.43628
 O194 O 0.15196 0.37410 0.44380
 O195 O 0.06307 0.37594 0.40806
 O196 O 0.05624 0.34807 0.37330
 O197 O 0.09198 0.43710 0.37642
 O198 O 0.12352 0.44101 0.34499
 O199 O 0.12437 0.31314 0.34118
 O200 O 0.09785 0.30627 0.37494
 O201 O 0.18691 0.34116 0.37557
 O202 O 0.19233 0.37531 0.40361
 O203 O 0.15887 0.37521 0.31291
 O204 O 0.12548 0.40428 0.30832
 Zr205 Zr 0.12616 0.37431 0.33186
 O206 O 0.10346 0.39651 0.35242
 Zr207 Zr 0.16808 0.37390 0.37439
 O208 O 0.14743 0.39674 0.39633
 Zr209 Zr 0.12571 0.33201 0.37403
 O210 O 0.10343 0.35267 0.39659
 Zr211 Zr 0.12441 0.41787 0.37528
 O212 O 0.14745 0.39736 0.35304
 Zr213 Zr 0.08224 0.37568 0.37551
 O214 O 0.10278 0.35318 0.35281
 Zr215 Zr 0.12439 0.37591 0.41770
 O216 O 0.14688 0.35278 0.39745
 O217 O 0.14822 0.35182 0.35193
 O218 O 0.10194 0.39822 0.39787
 C219 C 0.12420 0.32010 0.31916
 C220 C 0.18074 0.37621 0.32002
 C221 C 0.18003 0.31913 0.37616
 C222 C 0.12402 0.43092 0.42927
 C223 C 0.06994 0.43035 0.37624
 C224 C 0.06999 0.37612 0.43003
 H225 H 0.09363 0.40656 0.34157
 H226 H 0.09356 0.34181 0.40655
 H227 H 0.15852 0.34155 0.34170
 H228 H 0.15819 0.40694 0.40608
 H229 H 0.16325 0.44023 0.36361
 H230 H 0.19005 0.41428 0.37989
 H231 H 0.05888 0.33698 0.38693
 H232 H 0.08548 0.31180 0.36345
 H233 H 0.12011 0.45751 0.35078
 H234 H 0.13046 0.39894 0.29205
 H235 H 0.11406 0.33683 0.44079
 H236 H 0.13514 0.31139 0.41433
 H237 H 0.08550 0.36348 0.31238
 H238 H 0.05919 0.38672 0.33653
 H239 H 0.18778 0.36225 0.41477
 H240 H 0.16283 0.38789 0.44120
 O241 O 0.62503 0.84165 0.31236
 O242 O 0.59834 0.87299 0.30584
 O243 O 0.68730 0.87583 0.34216
 O244 O 0.69611 0.89906 0.37368
 O245 O 0.65802 0.81229 0.37571
 O246 O 0.62476 0.80529 0.40149
 O247 O 0.62364 0.93754 0.40726
 O248 O 0.65156 0.94352 0.37710
 O249 O 0.56270 0.90760 0.37586
 O250 O 0.55498 0.87371 0.34896
 O251 O 0.59164 0.87572 0.43714
 O252 O 0.62552 0.84937 0.44526
 O253 O 0.62356 0.90873 0.43634
 O254 O 0.65169 0.87407 0.44395
 O255 O 0.56279 0.87533 0.40824
 O256 O 0.55617 0.84729 0.37348
 O257 O 0.59137 0.93656 0.37647
 O258 O 0.62287 0.94060 0.34500
 O259 O 0.62439 0.81276 0.34142
 O260 O 0.59795 0.80581 0.37523
 O261 O 0.68683 0.84114 0.37576
 O262 O 0.69209 0.87539 0.40371
 O263 O 0.65864 0.87487 0.31301
 O264 O 0.62511 0.90388 0.30843
 Zr265 Zr 0.62592 0.87391 0.33199
 O266 O 0.60307 0.89600 0.35251
 Zr267 Zr 0.66783 0.87379 0.37450
 O268 O 0.64705 0.89655 0.39641
 Zr269 Zr 0.62567 0.83169 0.37424
 O270 O 0.60328 0.85225 0.39678
 Zr271 Zr 0.62391 0.91752 0.37532
 O272 O 0.64709 0.89711 0.35312
 Zr273 Zr 0.58197 0.87510 0.37567
 O274 O 0.60264 0.85270 0.35298
 Zr275 Zr 0.62412 0.87565 0.41785
 O276 O 0.64673 0.85262 0.39762
 O277 O 0.64807 0.85157 0.35210
 O278 O 0.60156 0.89780 0.39796
 C279 C 0.62416 0.81969 0.31939
 C280 C 0.68052 0.87595 0.32011
 C281 C 0.68006 0.81908 0.37636
 C282 C 0.62343 0.93069 0.42927
 C283 C 0.56937 0.92969 0.37636
 C284 C 0.56970 0.87562 0.43021
 H285 H 0.59318 0.90597 0.34166
 H286 H 0.59347 0.84136 0.40677
 H287 H 0.65842 0.84132 0.34189
 H288 H 0.65775 0.90683 0.40614
 H289 H 0.66261 0.94008 0.36359
 H290 H 0.68956 0.91431 0.37996
 H291 H 0.55879 0.83633 0.38721
 H292 H 0.58555 0.81123 0.36372
 H293 H 0.61936 0.95709 0.35076
 H294 H 0.63016 0.89856 0.29218
 H295 H 0.61397 0.83658 0.44103
 H296 H 0.63522 0.81121 0.41459
 H297 H 0.58529 0.86297 0.31252
 H298 H 0.55883 0.88596 0.33669
 H299 H 0.68758 0.86235 0.41492
 H300 H 0.66250 0.88790 0.44130
 O301 O 0.62518 0.65726 0.18736
 O302 O 0.59834 0.62601 0.19378
 O303 O 0.68738 0.62295 0.15780
 O304 O 0.69640 0.59979 0.12632
 O305 O 0.65836 0.68664 0.12414
 O306 O 0.62510 0.69364 0.09826
 O307 O 0.62395 0.56141 0.09243
 O308 O 0.65176 0.55533 0.12260
 O309 O 0.56289 0.59146 0.12376
 O310 O 0.55523 0.62545 0.15069
 O311 O 0.59217 0.62336 0.06254
 O312 O 0.62615 0.64962 0.05453
 O313 O 0.62403 0.59025 0.06339
 O314 O 0.65221 0.62480 0.05586
 O315 O 0.56320 0.62380 0.09135
 O316 O 0.55639 0.65173 0.12603
 O317 O 0.59158 0.56235 0.12326
 O318 O 0.62309 0.55839 0.15478
 O319 O 0.62463 0.68610 0.15839
 O320 O 0.59834 0.69325 0.12458
 O321 O 0.68722 0.65768 0.12418
 O322 O 0.69246 0.62337 0.09621
 O323 O 0.65863 0.62400 0.18675
 O324 O 0.62512 0.59512 0.19134
 Zr325 Zr 0.62602 0.62502 0.16771
 O326 O 0.60324 0.60296 0.14714
 Zr327 Zr 0.66812 0.62507 0.12537
 O328 O 0.64739 0.60234 0.10340
 Zr329 Zr 0.62598 0.66726 0.12553
 O330 O 0.60367 0.64674 0.10293
 Zr331 Zr 0.62415 0.58140 0.12439
 O332 O 0.64726 0.60177 0.14666
 Zr333 Zr 0.58223 0.62392 0.12396
 O334 O 0.60284 0.64629 0.14670
 Zr335 Zr 0.62457 0.62331 0.08192
 O336 O 0.64713 0.64629 0.10221
 O337 O 0.64829 0.64733 0.14772
 O338 O 0.60189 0.60119 0.10171
 C339 C 0.62436 0.67931 0.18051
 C340 C 0.68064 0.62286 0.17991
 C341 C 0.68030 0.67966 0.12355
 C342 C 0.62384 0.56827 0.07041
 C343 C 0.56969 0.56944 0.12333
 C344 C 0.57020 0.62354 0.06940
 H345 H 0.59331 0.59302 0.15800
 H346 H 0.59392 0.65766 0.09292
 H347 H 0.65861 0.65753 0.15797
 H348 H 0.65812 0.59205 0.09369
 H349 H 0.66281 0.55874 0.13610
 H350 H 0.68987 0.58453 0.12005
 H351 H 0.55925 0.66284 0.11247
 H352 H 0.58588 0.68782 0.13603
 H353 H 0.61961 0.54189 0.14905
 H354 H 0.63010 0.60047 0.20760
 H355 H 0.61453 0.66239 0.05868
 H356 H 0.63563 0.68773 0.08520
 H357 H 0.58542 0.63626 0.18716
 H358 H 0.55905 0.61321 0.16297
 H359 H 0.68801 0.63642 0.08498
 H360 H 0.66301 0.61096 0.05855
 O361 O 0.37469 0.84326 0.68792
 O362 O 0.40136 0.87477 0.69409
 O363 O 0.31224 0.87708 0.65808
 O364 O 0.30327 0.90009 0.62647
 O365 O 0.34167 0.81332 0.62476
 O366 O 0.37500 0.80632 0.59896
 O367 O 0.37553 0.93843 0.59224
 O368 O 0.34766 0.94464 0.62235
 O369 O 0.43668 0.90896 0.62387
 O370 O 0.44447 0.87517 0.65099
 O371 O 0.40765 0.87655 0.56287
 O372 O 0.37381 0.84995 0.55505
 O373 O 0.37568 0.90938 0.56350
 O374 O 0.34770 0.87471 0.55610
 O375 O 0.43651 0.87645 0.59162
 O376 O 0.44351 0.84878 0.62644
 O377 O 0.40786 0.93792 0.62314
 O378 O 0.37627 0.94201 0.65458
 O379 O 0.37536 0.81416 0.65904
 O380 O 0.40177 0.80703 0.62530
 O381 O 0.31267 0.84214 0.62463
 O382 O 0.30729 0.87620 0.59649
 O383 O 0.34100 0.87644 0.68714
 O384 O 0.37441 0.90553 0.69144
 Zr385 Zr 0.37366 0.87540 0.66806
 O386 O 0.39634 0.89742 0.64731
 Zr387 Zr 0.33160 0.87486 0.62568
 O388 O 0.35226 0.89750 0.60354
 Zr389 Zr 0.37396 0.83285 0.62610
 O390 O 0.39622 0.85331 0.60338
 Zr391 Zr 0.37538 0.91872 0.62438
 O392 O 0.35235 0.89840 0.64681
 Zr393 Zr 0.41749 0.87640 0.62426
 O394 O 0.39696 0.85410 0.64714
 Zr395 Zr 0.37523 0.87649 0.58224
 O396 O 0.35274 0.85356 0.60266
 O397 O 0.35152 0.85285 0.64816
 O398 O 0.39777 0.89887 0.60185
 C399 C 0.37561 0.82125 0.68103
 C400 C 0.31909 0.87740 0.68011
 C401 C 0.31970 0.82019 0.62411
 C402 C 0.37574 0.93151 0.57018
 C403 C 0.42979 0.93094 0.62329
 C404 C 0.42971 0.87655 0.56957
 H405 H 0.40621 0.90750 0.65809
 H406 H 0.40605 0.84239 0.59343
 H407 H 0.34124 0.84266 0.65847
 H408 H 0.34152 0.90767 0.59374
 H409 H 0.33659 0.94129 0.63586
 H410 H 0.30971 0.91526 0.61990
 H411 H 0.44081 0.83763 0.61287
 H412 H 0.41423 0.81268 0.63664
 H413 H 0.37967 0.95847 0.64872
 H414 H 0.36948 0.90029 0.70775
 H415 H 0.38571 0.83741 0.55911
 H416 H 0.36455 0.81216 0.58582
 H417 H 0.41433 0.86456 0.68751
 H418 H 0.44061 0.88752 0.66317
 H419 H 0.31191 0.86317 0.58530
 H420 H 0.33683 0.88851 0.55869
 O421 O 0.87543 0.34218 0.68752
 O422 O 0.90214 0.37350 0.69391
 O423 O 0.81303 0.37631 0.65801
 O424 O 0.80395 0.39935 0.62648
 O425 O 0.84229 0.31261 0.62435
 O426 O 0.87558 0.30571 0.59842
 O427 O 0.87624 0.43783 0.59251
 O428 O 0.84848 0.44395 0.62272
 O429 O 0.93743 0.40811 0.62375
 O430 O 0.94521 0.37417 0.65074
 O431 O 0.90821 0.37613 0.56270
 O432 O 0.87438 0.34962 0.55474
 O433 O 0.87631 0.40896 0.56360
 O434 O 0.84825 0.37436 0.55604
 O435 O 0.93713 0.37580 0.59140
 O436 O 0.94418 0.34792 0.62604
 O437 O 0.90864 0.43711 0.62323
 O438 O 0.87715 0.44105 0.65485
 O439 O 0.87605 0.31332 0.65855
 O440 O 0.90232 0.30619 0.62475
 O441 O 0.81333 0.34146 0.62442
 O442 O 0.80797 0.37571 0.59643
 O443 O 0.84184 0.37544 0.68701
 O444 O 0.87534 0.40438 0.69145
 Zr445 Zr 0.87445 0.37441 0.66788
 O446 O 0.89714 0.39652 0.64726
 Zr447 Zr 0.83231 0.37415 0.62558
 O448 O 0.85296 0.39691 0.60357
 Zr449 Zr 0.87460 0.33210 0.62571
 O450 O 0.89686 0.35265 0.60308
 Zr451 Zr 0.87615 0.41796 0.62451
 O452 O 0.85312 0.39754 0.64683
 Zr453 Zr 0.91819 0.37559 0.62406
 O454 O 0.89767 0.35318 0.64683
 Zr455 Zr 0.87585 0.37597 0.58212
 O456 O 0.85336 0.35295 0.60241
 O457 O 0.85223 0.35200 0.64792
 O458 O 0.89845 0.39820 0.60183
 C459 C 0.87633 0.32013 0.68066
 C460 C 0.81994 0.37652 0.68001
 C461 C 0.82033 0.31951 0.62377
 C462 C 0.87640 0.43104 0.57043
 C463 C 0.93056 0.43011 0.62325
 C464 C 0.93027 0.37607 0.56937
 H465 H 0.90705 0.40652 0.65808
 H466 H 0.90665 0.34177 0.59305
 H467 H 0.84196 0.34177 0.65820
 H468 H 0.84220 0.40714 0.59386
 H469 H 0.83743 0.44054 0.63623
 H470 H 0.81046 0.41463 0.62023
 H471 H 0.94142 0.33683 0.61243
 H472 H 0.91483 0.31176 0.63607
 H473 H 0.88062 0.45754 0.64909
 H474 H 0.87041 0.39907 0.70774
 H475 H 0.88622 0.33701 0.55876
 H476 H 0.86508 0.31161 0.58535
 H477 H 0.91512 0.36336 0.68723
 H478 H 0.94141 0.38649 0.66297
 H479 H 0.81249 0.36268 0.58520
 H480 H 0.83743 0.38819 0.55870
 O481 O 0.81251 0.87465 0.15759
 O482 O 0.80598 0.90134 0.12618
 O483 O 0.84209 0.81226 0.12351
 O484 O 0.87349 0.80318 0.10032
 O485 O 0.87571 0.84168 0.18694
 O486 O 0.90152 0.87500 0.19380
 O487 O 0.90715 0.87547 0.06146
 O488 O 0.87699 0.84756 0.05563
 O489 O 0.87579 0.93667 0.09122
 O490 O 0.84903 0.94460 0.12518
 O491 O 0.93705 0.90771 0.12316
 O492 O 0.94520 0.87395 0.14961
 O493 O 0.93620 0.87560 0.09026
 O494 O 0.94378 0.84759 0.12506
 O495 O 0.90823 0.93666 0.12347
 O496 O 0.87361 0.94353 0.15153
 O497 O 0.87638 0.90784 0.06236
 O498 O 0.84494 0.87634 0.05849
 O499 O 0.84151 0.87538 0.18637
 O500 O 0.87525 0.90182 0.19327
 O501 O 0.87567 0.81275 0.15816
 O502 O 0.90355 0.80726 0.12388
 O503 O 0.81311 0.84097 0.12445
 O504 O 0.80840 0.87438 0.09540
 Zr505 Zr 0.83206 0.87367 0.12527
 O506 O 0.85253 0.89637 0.10303
 Zr507 Zr 0.87443 0.83163 0.12545
 O508 O 0.89631 0.85226 0.10257
 Zr509 Zr 0.87427 0.87400 0.16743
 O510 O 0.89677 0.89626 0.14673
 Zr511 Zr 0.87526 0.87536 0.08154
 O512 O 0.85307 0.85233 0.10208
 Zr513 Zr 0.87569 0.91754 0.12383
 O514 O 0.85306 0.89702 0.14637
 Zr515 Zr 0.91776 0.87525 0.12337
 O516 O 0.89757 0.85277 0.14654
 O517 O 0.85211 0.85153 0.14766
 O518 O 0.89791 0.89778 0.10116
 C519 C 0.81940 0.87557 0.17965
 C520 C 0.82000 0.81895 0.12342
 C521 C 0.87630 0.81960 0.18021
 C522 C 0.92915 0.87565 0.06828
 C523 C 0.87624 0.92989 0.06915
 C524 C 0.93016 0.92969 0.12319
 H525 H 0.84167 0.90623 0.09303
 H526 H 0.90678 0.90610 0.15758
 H527 H 0.84191 0.84124 0.15795
 H528 H 0.90600 0.84147 0.09231
 H529 H 0.86350 0.83654 0.05913
 H530 H 0.87974 0.80963 0.08501
 H531 H 0.88725 0.94083 0.16257
 H532 H 0.86377 0.91423 0.18781
 H533 H 0.85067 0.87975 0.04197
 H534 H 0.79219 0.86938 0.10082
 H535 H 0.94095 0.88550 0.16242
 H536 H 0.91456 0.86443 0.18793
 H537 H 0.81262 0.91435 0.13630
 H538 H 0.83670 0.94064 0.11303
 H539 H 0.91476 0.81178 0.13691
 H540 H 0.94112 0.83673 0.11125
 O541 O 0.37518 0.34151 0.18729
 O542 O 0.40196 0.37286 0.19367
 O543 O 0.31289 0.37565 0.15781
 O544 O 0.30372 0.39865 0.12631
 O545 O 0.34219 0.31201 0.12405
 O546 O 0.37550 0.30518 0.09814
 O547 O 0.37594 0.43743 0.09242
 O548 O 0.34814 0.44334 0.12271
 O549 O 0.43714 0.40768 0.12370
 O550 O 0.44502 0.37376 0.15057
 O551 O 0.40810 0.37571 0.06248
 O552 O 0.37430 0.34921 0.05444
 O553 O 0.37600 0.40858 0.06334
 O554 O 0.34804 0.37382 0.05584
 O555 O 0.43704 0.37540 0.09129
 O556 O 0.44398 0.34745 0.12590
 O557 O 0.40837 0.43656 0.12314
 O558 O 0.37693 0.44049 0.15473
 O559 O 0.37587 0.31269 0.15828
 O560 O 0.40226 0.30571 0.12445
 O561 O 0.31320 0.34083 0.12419
 O562 O 0.30779 0.37509 0.09622
 O563 O 0.34164 0.37471 0.18673
 O564 O 0.37504 0.40366 0.19135
 Zr565 Zr 0.37425 0.37377 0.16766
 O566 O 0.39690 0.39597 0.14710
 Zr567 Zr 0.33215 0.37354 0.12536
 O568 O 0.35275 0.39636 0.10338
 Zr569 Zr 0.37448 0.33154 0.12544
 O570 O 0.39669 0.35219 0.10284
 Zr571 Zr 0.37589 0.41742 0.12437
 O572 O 0.35290 0.39692 0.14665
 Zr573 Zr 0.41799 0.37511 0.12389
 O574 O 0.39752 0.35261 0.14661
 Zr575 Zr 0.37568 0.37552 0.08186
 O576 O 0.35324 0.35241 0.10215
 O577 O 0.35207 0.35137 0.14767
 O578 O 0.39824 0.39774 0.10166
 C579 C 0.37607 0.31946 0.18042
 C580 C 0.31964 0.37580 0.17990
 C581 C 0.32022 0.31888 0.12352
 C582 C 0.37607 0.43056 0.07040
 C583 C 0.43039 0.42975 0.12322
 C584 C 0.43006 0.37567 0.06935
 H585 H 0.40678 0.40598 0.15795
 H586 H 0.40651 0.34133 0.09281
 H587 H 0.34179 0.34113 0.15793
 H588 H 0.34196 0.40660 0.09370
 H589 H 0.33714 0.43986 0.13624
 H590 H 0.31020 0.41397 0.12014
 H591 H 0.44120 0.33634 0.11232
 H592 H 0.41468 0.31119 0.13592
 H593 H 0.38037 0.45699 0.14897
 H594 H 0.37012 0.39826 0.20762
 H595 H 0.38600 0.33651 0.05858
 H596 H 0.36497 0.31105 0.08509
 H597 H 0.41490 0.36265 0.18703
 H598 H 0.44115 0.38600 0.16286
 H599 H 0.31229 0.36205 0.08500
 H600 H 0.33715 0.38759 0.05855
 O601 O 0.37468 0.65838 0.81266
 O602 O 0.40147 0.62705 0.80616
 O603 O 0.31245 0.62410 0.84240
 O604 O 0.30354 0.60101 0.87396
 O605 O 0.34169 0.68782 0.87597
 O606 O 0.37504 0.69468 0.90183
 O607 O 0.37597 0.56255 0.90765
 O608 O 0.34812 0.55647 0.87753
 O609 O 0.43703 0.59235 0.87605
 O610 O 0.44462 0.62636 0.84909
 O611 O 0.40799 0.62426 0.93732
 O612 O 0.37414 0.65076 0.94546
 O613 O 0.37606 0.59141 0.93658
 O614 O 0.34803 0.62602 0.94426
 O615 O 0.43679 0.62464 0.90848
 O616 O 0.44368 0.65255 0.87387
 O617 O 0.40830 0.56333 0.87672
 O618 O 0.37668 0.55940 0.84528
 O619 O 0.37536 0.68720 0.84168
 O620 O 0.40171 0.69428 0.87538
 O621 O 0.31278 0.65894 0.87598
 O622 O 0.30759 0.62470 0.90402
 O623 O 0.34116 0.62505 0.81328
 O624 O 0.37469 0.59616 0.80865
 Zr625 Zr 0.37383 0.62609 0.83228
 O626 O 0.39661 0.60396 0.85279
 Zr627 Zr 0.33183 0.62626 0.87477
 O628 O 0.35260 0.60350 0.89668
 Zr629 Zr 0.37404 0.66835 0.87450
 O630 O 0.39642 0.64778 0.89701
 Zr631 Zr 0.37575 0.58247 0.87564
 O632 O 0.35263 0.60291 0.85342
 Zr633 Zr 0.41772 0.62487 0.87591
 O634 O 0.39709 0.64731 0.85326
 Zr635 Zr 0.37553 0.62442 0.91806
 O636 O 0.35293 0.64745 0.89787
 O637 O 0.35164 0.64846 0.85236
 O638 O 0.39811 0.60222 0.89823
 C639 C 0.37557 0.68044 0.81954
 C640 C 0.31928 0.62393 0.82037
 C641 C 0.31973 0.68090 0.87659
 C642 C 0.37617 0.56932 0.92975
 C643 C 0.43021 0.57035 0.87655
 C644 C 0.43003 0.62434 0.93054
 H645 H 0.40650 0.59397 0.84192
 H646 H 0.40623 0.65866 0.90700
 H647 H 0.34132 0.65868 0.84213
 H648 H 0.34189 0.59325 0.90644
 H649 H 0.33701 0.55990 0.86408
 H650 H 0.31007 0.58577 0.88028
 H651 H 0.44091 0.66364 0.88748
 H652 H 0.41421 0.68873 0.86401
 H653 H 0.38018 0.54290 0.85101
 H654 H 0.36973 0.60151 0.79239
 H655 H 0.38592 0.66339 0.94138
 H656 H 0.36455 0.68877 0.91491
 H657 H 0.41441 0.63728 0.81276
 H658 H 0.44079 0.61407 0.83685
 H659 H 0.31213 0.63773 0.91523
 H660 H 0.33718 0.61222 0.94161
 O661 O 0.12477 0.65791 0.68771
 O662 O 0.09809 0.62644 0.69394
 O663 O 0.18722 0.62398 0.65805
 O664 O 0.19635 0.60097 0.62650
 O665 O 0.15799 0.68762 0.62461
 O666 O 0.12478 0.69463 0.59871
 O667 O 0.12411 0.56248 0.59230
 O668 O 0.15193 0.55635 0.62252
 O669 O 0.06297 0.59204 0.62366
 O670 O 0.05508 0.62589 0.65078
 O671 O 0.09212 0.62420 0.56273
 O672 O 0.12587 0.65076 0.55480
 O673 O 0.12410 0.59142 0.56349
 O674 O 0.15216 0.62615 0.55610
 O675 O 0.06320 0.62434 0.59145
 O676 O 0.05610 0.65222 0.62615
 O677 O 0.09174 0.56316 0.62296
 O678 O 0.12311 0.55905 0.65458
 O679 O 0.12419 0.68693 0.65878
 O680 O 0.09789 0.69399 0.62495
 O681 O 0.18688 0.65883 0.62462
 O682 O 0.19238 0.62470 0.59651
 O683 O 0.15845 0.62473 0.68698
 O684 O 0.12504 0.59571 0.69142
 Zr685 Zr 0.12583 0.62572 0.66793
 O686 O 0.10318 0.60363 0.64722
 Zr687 Zr 0.16796 0.62613 0.62562
 O688 O 0.14739 0.60342 0.60351
 Zr689 Zr 0.12567 0.66815 0.62589
 O690 O 0.10345 0.64762 0.60319
 Zr691 Zr 0.12421 0.58230 0.62438
 O692 O 0.14719 0.60266 0.64679
 Zr693 Zr 0.08214 0.62460 0.62410
 O694 O 0.10260 0.64698 0.64694
 Zr695 Zr 0.12449 0.62438 0.58213
 O696 O 0.14694 0.64738 0.60252
 O697 O 0.14802 0.64821 0.64804
 O698 O 0.10191 0.60207 0.60177
 C699 C 0.12389 0.67990 0.68077
 C700 C 0.18046 0.62374 0.68015
 C701 C 0.18005 0.68088 0.62406
 C702 C 0.12397 0.56932 0.57024
 C703 C 0.06971 0.56997 0.62303
 C704 C 0.07006 0.62413 0.56942
 H705 H 0.09327 0.59358 0.65799
 H706 H 0.09364 0.65851 0.59319
 H707 H 0.15829 0.65842 0.65834
 H708 H 0.15817 0.59321 0.59376
 H709 H 0.16292 0.55973 0.63607
 H710 H 0.18989 0.58571 0.62015
 H711 H 0.05880 0.66329 0.61252
 H712 H 0.08538 0.68837 0.63625
 H713 H 0.11967 0.54259 0.64871
 H714 H 0.12997 0.60101 0.70771
 H715 H 0.11415 0.66343 0.55897
 H716 H 0.13530 0.68876 0.58563
 H717 H 0.08508 0.63654 0.68728
 H718 H 0.05881 0.61345 0.66290
 H719 H 0.18788 0.63778 0.58533
 H720 H 0.16296 0.61229 0.55867
 O721 O 0.12492 0.15739 0.18733
 O722 O 0.09806 0.12611 0.19371
 O723 O 0.18715 0.12311 0.15779
 O724 O 0.19619 0.09998 0.12628
 O725 O 0.15814 0.18676 0.12420
 O726 O 0.12494 0.19380 0.09827
 O727 O 0.12380 0.06161 0.09227
 O728 O 0.15162 0.05552 0.12251
 O729 O 0.06276 0.09154 0.12361
 O730 O 0.05502 0.12548 0.15058
 O731 O 0.09196 0.12349 0.06252
 O732 O 0.12584 0.14980 0.05447
 O733 O 0.12387 0.09049 0.06328
 O734 O 0.15205 0.12512 0.05585
 O735 O 0.06308 0.12378 0.09128
 O736 O 0.05615 0.15177 0.12591
 O737 O 0.09142 0.06254 0.12305
 O738 O 0.12284 0.05843 0.15457
 O739 O 0.12439 0.18623 0.15836
 O740 O 0.09811 0.19337 0.12455
 O741 O 0.18693 0.15787 0.12425
 O742 O 0.19230 0.12365 0.09624
 O743 O 0.15838 0.12409 0.18673
 O744 O 0.12487 0.09522 0.19129
 Zr745 Zr 0.12578 0.12513 0.16767
 O746 O 0.10305 0.10306 0.14707
 Zr747 Zr 0.16789 0.12524 0.12536
 O748 O 0.14721 0.10254 0.10333
 Zr749 Zr 0.12576 0.16739 0.12552
 O750 O 0.10345 0.14689 0.10289
 Zr751 Zr 0.12397 0.08155 0.12428
 O752 O 0.14704 0.10191 0.14661
 Zr753 Zr 0.08206 0.12402 0.12389
 O754 O 0.10261 0.14640 0.14665
 Zr755 Zr 0.12437 0.12351 0.08187
 O756 O 0.14692 0.14648 0.10218
 O757 O 0.14806 0.14747 0.14771
 O758 O 0.10172 0.10134 0.10162
 C759 C 0.12412 0.17945 0.18048
 C760 C 0.18039 0.12298 0.17990
 C761 C 0.18018 0.17994 0.12366
 C762 C 0.12368 0.06850 0.07026
 C763 C 0.06942 0.06944 0.12312
 C764 C 0.06990 0.12355 0.06924
 H765 H 0.09311 0.09308 0.15789
 H766 H 0.09368 0.15780 0.09288
 H767 H 0.15836 0.15767 0.15798
 H768 H 0.15795 0.09227 0.09361
 H769 H 0.16263 0.05892 0.13604
 H770 H 0.18968 0.08473 0.11996
 H771 H 0.05892 0.16281 0.11228
 H772 H 0.08560 0.18788 0.13592
 H773 H 0.11934 0.04195 0.14878
 H774 H 0.12982 0.10057 0.20756
 H775 H 0.11425 0.16259 0.05867
 H776 H 0.13549 0.18790 0.08522
 H777 H 0.08514 0.13632 0.18706
 H778 H 0.05879 0.11318 0.16281
 H779 H 0.18786 0.13672 0.08504
 H780 H 0.16285 0.11129 0.05851
 O781 O 0.68794 0.37582 0.84236
 O782 O 0.69424 0.40237 0.87392
 O783 O 0.65836 0.31324 0.87596
 O784 O 0.62686 0.30406 0.89898
 O785 O 0.62494 0.34286 0.81242
 O786 O 0.59908 0.37625 0.80567
 O787 O 0.59274 0.37622 0.93782
 O788 O 0.62286 0.34832 0.94381
 O789 O 0.62408 0.43751 0.90862
 O790 O 0.65110 0.44556 0.87479
 O791 O 0.56318 0.40859 0.87625
 O792 O 0.55535 0.37483 0.84941
 O793 O 0.56396 0.37643 0.90887
 O794 O 0.55646 0.34859 0.87406
 O795 O 0.59186 0.43751 0.87627
 O796 O 0.62655 0.44466 0.84841
 O797 O 0.62339 0.40857 0.93734
 O798 O 0.65492 0.37709 0.94124
 O799 O 0.65911 0.37664 0.81342
 O800 O 0.62541 0.40298 0.80636
 O801 O 0.62491 0.31373 0.84112
 O802 O 0.59688 0.30816 0.87526
 O803 O 0.68726 0.34201 0.87532
 O804 O 0.69167 0.37531 0.90458
 Zr805 Zr 0.66821 0.37468 0.87455
 O806 O 0.64756 0.39729 0.89676
 Zr807 Zr 0.62597 0.33255 0.87392
 O808 O 0.60390 0.35310 0.89674
 Zr809 Zr 0.62625 0.37510 0.83212
 O810 O 0.60358 0.39730 0.85277
 Zr811 Zr 0.62475 0.37617 0.91799
 O812 O 0.64712 0.35322 0.89751
 Zr813 Zr 0.62447 0.41850 0.87592
 O814 O 0.64728 0.39807 0.85342
 Zr815 Zr 0.58256 0.37615 0.87589
 O816 O 0.60291 0.35375 0.85279
 O817 O 0.64835 0.35259 0.85193
 O818 O 0.60217 0.39863 0.89835
 C819 C 0.68117 0.37684 0.82028
 C820 C 0.68044 0.31997 0.87621
 C821 C 0.62434 0.32084 0.81920
 C822 C 0.57071 0.37644 0.93097
 C823 C 0.62349 0.43065 0.93066
 C824 C 0.56985 0.43067 0.87643
 H825 H 0.65833 0.40714 0.90687
 H826 H 0.59361 0.40718 0.84192
 H827 H 0.65864 0.34236 0.84165
 H828 H 0.59415 0.34229 0.90689
 H829 H 0.63638 0.33730 0.94038
 H830 H 0.62046 0.31045 0.91425
 H831 H 0.61294 0.44202 0.83732
 H832 H 0.63665 0.41549 0.81208
 H833 H 0.64908 0.38046 0.95774
 H834 H 0.70793 0.37036 0.89925
 H835 H 0.55935 0.38683 0.83695
 H836 H 0.58601 0.36572 0.81148
 H837 H 0.68760 0.41545 0.86388
 H838 H 0.66328 0.44168 0.88712
 H839 H 0.58566 0.31280 0.86228
 H840 H 0.55912 0.33763 0.88778
 O841 O 0.12445 0.84265 0.81261
 O842 O 0.09767 0.87401 0.80621
 O843 O 0.18659 0.87676 0.84246
 O844 O 0.19542 0.89987 0.87406
 O845 O 0.15739 0.81308 0.87579
 O846 O 0.12404 0.80605 0.90162
 O847 O 0.12294 0.93814 0.90797
 O848 O 0.15086 0.94433 0.87787
 O849 O 0.06201 0.90846 0.87627
 O850 O 0.05441 0.87459 0.84913
 O851 O 0.09086 0.87632 0.93737
 O852 O 0.12475 0.84979 0.94540
 O853 O 0.12282 0.90920 0.93678
 O854 O 0.15081 0.87460 0.94440
 O855 O 0.06213 0.87609 0.90849
 O856 O 0.05536 0.84825 0.87374
 O857 O 0.09068 0.93740 0.87713
 O858 O 0.12224 0.94156 0.84568
 O859 O 0.12377 0.81375 0.84152
 O860 O 0.09738 0.80651 0.87517
 O861 O 0.18619 0.84193 0.87593
 O862 O 0.19143 0.87605 0.90403
 O863 O 0.15796 0.87590 0.81342
 O864 O 0.12449 0.90485 0.80882
 Zr865 Zr 0.12525 0.87487 0.83236
 O866 O 0.10242 0.89693 0.85293
 Zr867 Zr 0.16716 0.87459 0.87483
 O868 O 0.14635 0.89724 0.89686
 Zr869 Zr 0.12501 0.83250 0.87441
 O870 O 0.10255 0.85296 0.89697
 Zr871 Zr 0.12323 0.91832 0.87589
 O872 O 0.14640 0.89800 0.85357
 Zr873 Zr 0.08129 0.87593 0.87595
 O874 O 0.10197 0.85358 0.85323
 Zr875 Zr 0.12338 0.87624 0.91814
 O876 O 0.14606 0.85332 0.89787
 O877 O 0.14742 0.85245 0.85234
 O878 O 0.10084 0.89851 0.89839
 C879 C 0.12361 0.82057 0.81942
 C880 C 0.17994 0.87696 0.82033
 C881 C 0.17943 0.81986 0.87644
 C882 C 0.12271 0.93130 0.93003
 C883 C 0.06868 0.93055 0.87692
 C884 C 0.06883 0.87629 0.93056
 H885 H 0.09255 0.90696 0.84211
 H886 H 0.09272 0.84204 0.90691
 H887 H 0.15777 0.84225 0.84209
 H888 H 0.15704 0.90746 0.90666
 H889 H 0.16195 0.94096 0.86437
 H890 H 0.18890 0.91507 0.88051
 H891 H 0.05806 0.83714 0.88733
 H892 H 0.08488 0.81210 0.86385
 H893 H 0.11871 0.95801 0.85152
 H894 H 0.12951 0.89953 0.79256
 H895 H 0.11298 0.83718 0.94125
 H896 H 0.13454 0.81191 0.91471
 H897 H 0.08469 0.86381 0.81278
 H898 H 0.05822 0.88697 0.83698
 H899 H 0.18685 0.86303 0.91524
 H900 H 0.16174 0.88833 0.94171
 O901 O 0.68755 0.12495 0.65745
 O902 O 0.69381 0.09818 0.62603
 O903 O 0.65818 0.18744 0.62345
 O904 O 0.62676 0.19661 0.60034
 O905 O 0.62465 0.15839 0.68708
 O906 O 0.59865 0.12521 0.69408
 O907 O 0.59251 0.12431 0.56187
 O908 O 0.62272 0.15211 0.55576
 O909 O 0.62365 0.06312 0.59151
 O910 O 0.65059 0.05520 0.62542
 O911 O 0.56276 0.09249 0.62362
 O912 O 0.55488 0.12632 0.65016
 O913 O 0.56367 0.12442 0.59080
 O914 O 0.55629 0.15259 0.62552
 O915 O 0.59136 0.06346 0.62379
 O916 O 0.62594 0.05633 0.65174
 O917 O 0.62307 0.09188 0.56260
 O918 O 0.65470 0.12322 0.55851
 O919 O 0.65866 0.12446 0.68637
 O920 O 0.62483 0.09828 0.69353
 O921 O 0.62472 0.18724 0.65823
 O922 O 0.59674 0.19276 0.62408
 O923 O 0.68700 0.15858 0.62429
 O924 O 0.69141 0.12509 0.59523
 Zr925 Zr 0.66788 0.12598 0.62523
 O926 O 0.64720 0.10333 0.60312
 Zr927 Zr 0.62575 0.16825 0.62555
 O928 O 0.60366 0.14767 0.60282
 Zr929 Zr 0.62584 0.12600 0.66761
 O930 O 0.60315 0.10377 0.64708
 Zr931 Zr 0.62449 0.12440 0.58173
 O932 O 0.64689 0.14737 0.60210
 Zr933 Zr 0.62402 0.08234 0.62408
 O934 O 0.64684 0.10281 0.64648
 Zr935 Zr 0.58222 0.12484 0.62380
 O936 O 0.60258 0.14730 0.64680
 O937 O 0.64804 0.14829 0.64768
 O938 O 0.60182 0.10215 0.60151
 C939 C 0.68074 0.12412 0.67953
 C940 C 0.68023 0.18063 0.62329
 C941 C 0.62415 0.18046 0.68030
 C942 C 0.57046 0.12422 0.56870
 C943 C 0.62310 0.06985 0.56942
 C944 C 0.56938 0.07038 0.62355
 H945 H 0.65797 0.09338 0.59308
 H946 H 0.59313 0.09399 0.65797
 H947 H 0.65833 0.15854 0.65791
 H948 H 0.59396 0.15846 0.59260
 H949 H 0.63628 0.16309 0.55913
 H950 H 0.62037 0.19015 0.58509
 H951 H 0.61232 0.05910 0.66281
 H952 H 0.63607 0.08570 0.68793
 H953 H 0.64887 0.11977 0.54203
 H954 H 0.70767 0.13002 0.60055
 H955 H 0.55901 0.11463 0.66287
 H956 H 0.58564 0.13580 0.68822
 H957 H 0.68714 0.08521 0.63618
 H958 H 0.66278 0.05894 0.61307
 H959 H 0.58553 0.18830 0.63713
 H960 H 0.55890 0.16336 0.61164
 C961 C 0.37655 0.71126 0.75866
 C962 C 0.37720 0.73548 0.76534
 C963 C 0.37753 0.74171 0.78969
 C964 C 0.37712 0.72383 0.80730
 C965 C 0.37638 0.80307 0.69927
 C966 C 0.37615 0.69332 0.77624
 C967 C 0.37725 0.75397 0.74726
 C968 C 0.37714 0.76949 0.73216
 C969 C 0.37683 0.78765 0.71446
 C970 C 0.37637 0.69938 0.80081
 H971 H 0.37627 0.70624 0.73985
 H972 H 0.37801 0.76040 0.79507
 H973 H 0.37731 0.72919 0.82600
 H974 H 0.37557 0.67473 0.77057
 C975 C 0.37651 0.28878 0.24136
 C976 C 0.37745 0.26455 0.23475
 C977 C 0.37817 0.25826 0.21042
 C978 C 0.37787 0.27610 0.19276
 C979 C 0.37632 0.19718 0.30104
 C980 C 0.37621 0.30667 0.22373
 C981 C 0.37739 0.24612 0.25289
 C982 C 0.37720 0.23066 0.26805
 C983 C 0.37681 0.21257 0.28582
 C984 C 0.37682 0.30055 0.19918
 H985 H 0.37591 0.29384 0.26015
 H986 H 0.37888 0.23956 0.20509
 H987 H 0.37837 0.27070 0.17407
 H988 H 0.37537 0.32526 0.22936
 C989 C 0.62218 0.74045 0.21062
 C990 C 0.62277 0.73412 0.23492
 C991 C 0.62368 0.70989 0.24149
 C992 C 0.62407 0.69203 0.22383
 C993 C 0.62346 0.80143 0.30125
 C994 C 0.62258 0.72264 0.19291
 C995 C 0.62270 0.75250 0.25310
 C996 C 0.62278 0.76794 0.26828
 C997 C 0.62306 0.78601 0.28605
 C998 C 0.62358 0.69819 0.19930
 H999 H 0.62149 0.75916 0.20533
 H1000 H 0.62417 0.70479 0.26027
 H1001 H 0.62487 0.67342 0.22942
 H1002 H 0.62217 0.72807 0.17424
 C1003 C 0.12241 0.24066 0.21049
 C1004 C 0.12266 0.23437 0.23481
 C1005 C 0.12320 0.21013 0.24143
 C1006 C 0.12355 0.19224 0.22380
 C1007 C 0.12346 0.30185 0.30100
 C1008 C 0.12276 0.22282 0.19282
 C1009 C 0.12262 0.25280 0.25295
 C1010 C 0.12273 0.26828 0.26809
 C1011 C 0.12304 0.28641 0.28582
 C1012 C 0.12338 0.19836 0.19925
 H1013 H 0.12202 0.25937 0.20516
 H1014 H 0.12343 0.20507 0.26022
 H1015 H 0.12405 0.17363 0.22942
 H1016 H 0.12263 0.22822 0.17414
 C1017 C 0.12289 0.78991 0.75845
 C1018 C 0.12225 0.76568 0.76507
 C1019 C 0.12187 0.75939 0.78939
 C1020 C 0.12220 0.77723 0.80705
 C1021 C 0.12312 0.69812 0.69897
 C1022 C 0.12321 0.80781 0.77609
 C1023 C 0.12223 0.74723 0.74695
 C1024 C 0.12235 0.73172 0.73183
 C1025 C 0.12267 0.71356 0.71414
 C1026 C 0.12292 0.80168 0.80063
 H1027 H 0.12321 0.79497 0.73966
 H1028 H 0.12141 0.74068 0.79471
 H1029 H 0.12197 0.77182 0.82574
 H1030 H 0.12379 0.82641 0.77047
 C1031 C 0.87752 0.28954 0.74158
 C1032 C 0.87814 0.26531 0.73496
 C1033 C 0.87842 0.25898 0.71064
 C1034 C 0.87797 0.27680 0.69298
 C1035 C 0.87712 0.19792 0.80106
 C1036 C 0.87707 0.30741 0.72396
 C1037 C 0.87818 0.24691 0.75308
 C1038 C 0.87803 0.23145 0.76820
 C1039 C 0.87764 0.21334 0.78590
 C1040 C 0.87722 0.30125 0.69942
 H1041 H 0.87728 0.29461 0.76038
 H1042 H 0.87888 0.24027 0.70532
 H1043 H 0.87811 0.27138 0.67429
 H1044 H 0.87650 0.32602 0.72958
 C1045 C 0.71133 0.37945 0.75920
 C1046 C 0.73559 0.37866 0.76556
 C1047 C 0.74212 0.37753 0.78980
 C1048 C 0.72446 0.37709 0.80764
 C1049 C 0.80178 0.37748 0.69823
 C1050 C 0.69363 0.37901 0.77699
 C1051 C 0.75373 0.37866 0.74718
 C1052 C 0.76888 0.37849 0.73173
 C1053 C 0.78660 0.37805 0.71363
 C1054 C 0.69997 0.37775 0.80145
 H1055 H 0.70608 0.38030 0.74048
 H1056 H 0.76086 0.37687 0.79491
 H1057 H 0.73001 0.37609 0.82626
 H1058 H 0.67500 0.37956 0.77154
 C1059 C 0.21054 0.62184 0.74129
 C1060 C 0.23482 0.62181 0.73492
 C1061 C 0.24138 0.62213 0.71065
 C1062 C 0.22374 0.62259 0.69280
 C1063 C 0.30106 0.62297 0.80221
 C1064 C 0.19286 0.62231 0.72349
 C1065 C 0.25296 0.62179 0.75331
 C1066 C 0.26811 0.62196 0.76876
 C1067 C 0.28585 0.62239 0.78684
 C1068 C 0.19924 0.62276 0.69901
 H1069 H 0.20526 0.62162 0.76003
 H1070 H 0.26013 0.62214 0.70553
 H1071 H 0.22931 0.62296 0.67417
 H1072 H 0.17422 0.62242 0.72896
 C1073 C 0.21042 0.12150 0.24108
 C1074 C 0.23469 0.12094 0.23473
 C1075 C 0.24127 0.12081 0.21046
 C1076 C 0.22365 0.12133 0.19259
 C1077 C 0.30088 0.12183 0.30209
 C1078 C 0.19276 0.12201 0.22326
 C1079 C 0.25282 0.12084 0.25314
 C1080 C 0.26795 0.12094 0.26860
 C1081 C 0.28568 0.12130 0.28670
 C1082 C 0.19915 0.12200 0.19877
 H1083 H 0.20512 0.12163 0.25981
 H1084 H 0.26003 0.12042 0.20535
 H1085 H 0.22924 0.12132 0.17395
 H1086 H 0.17412 0.12254 0.22872
 C1087 C 0.71084 0.12207 0.74067
 C1088 C 0.73511 0.12223 0.73429
 C1089 C 0.74166 0.12280 0.71003
 C1090 C 0.72402 0.12330 0.69218
 C1091 C 0.80145 0.12280 0.80150
 C1092 C 0.69315 0.12257 0.72288
 C1093 C 0.75328 0.12207 0.75267
 C1094 C 0.76845 0.12211 0.76809
 C1095 C 0.78623 0.12237 0.78614
 C1096 C 0.69952 0.12324 0.69839
 H1097 H 0.70557 0.12166 0.75940
 H1098 H 0.76042 0.12296 0.70489
 H1099 H 0.72959 0.12383 0.67355
 H1100 H 0.67450 0.12252 0.72835
 C1101 C 0.78948 0.87759 0.24093
 C1102 C 0.76517 0.87734 0.23467
 C1103 C 0.75856 0.87669 0.21043
 C1104 C 0.77615 0.87623 0.19251
 C1105 C 0.69881 0.87677 0.30197
 C1106 C 0.80711 0.87713 0.22306
 C1107 C 0.74705 0.87749 0.25311
 C1108 C 0.73188 0.87745 0.26857
 C1109 C 0.71407 0.87719 0.28662
 C1110 C 0.80067 0.87640 0.19860
 H1111 H 0.79481 0.87806 0.25964
 H1112 H 0.73979 0.87647 0.20537
 H1113 H 0.77052 0.87565 0.17390
 H1114 H 0.82577 0.87726 0.22845
 C1115 C 0.74112 0.78899 0.37812
 C1116 C 0.73477 0.76470 0.37812
 C1117 C 0.71055 0.75813 0.37784
 C1118 C 0.69271 0.77579 0.37744
 C1119 C 0.80200 0.69846 0.37684
 C1120 C 0.72335 0.80669 0.37771
 C1121 C 0.75312 0.74654 0.37808
 C1122 C 0.76854 0.73137 0.37786
 C1123 C 0.78660 0.71363 0.37740
 C1124 C 0.69890 0.80030 0.37728
 H1125 H 0.75983 0.79426 0.37831
 H1126 H 0.70544 0.73936 0.37782
 H1127 H 0.67411 0.77021 0.37711
 H1128 H 0.72879 0.82535 0.37761
 C1129 C 0.71077 0.24155 0.62154
 C1130 C 0.73500 0.23497 0.62171
 C1131 C 0.74134 0.21066 0.62213
 C1132 C 0.72355 0.19299 0.62248
 C1133 C 0.80216 0.30130 0.62292
 C1134 C 0.69293 0.22391 0.62189
 C1135 C 0.75337 0.25313 0.62176
 C1136 C 0.76878 0.26830 0.62196
 C1137 C 0.78681 0.28608 0.62239
 C1138 C 0.69910 0.19939 0.62243
 H1139 H 0.70567 0.26032 0.62124
 H1140 H 0.76005 0.20537 0.62230
 H1141 H 0.72899 0.17432 0.62292
 H1142 H 0.67432 0.22951 0.62186
 C1143 C 0.75905 0.78859 0.12232
 C1144 C 0.76552 0.76432 0.12181
 C1145 C 0.78979 0.75786 0.12160
 C1146 C 0.80754 0.77560 0.12199
 C1147 C 0.69852 0.69782 0.12274
 C1148 C 0.77675 0.80636 0.12270
 C1149 C 0.74725 0.74607 0.12178
 C1150 C 0.73189 0.73084 0.12191
 C1151 C 0.71388 0.71303 0.12226
 C1152 C 0.80124 0.80009 0.12260
 H1153 H 0.74032 0.79378 0.12251
 H1154 H 0.79499 0.73912 0.12124
 H1155 H 0.82618 0.77010 0.12192
 H1156 H 0.77121 0.82499 0.12319
 C1157 C 0.21071 0.24088 0.12224
 C1158 C 0.23494 0.23429 0.12201
 C1159 C 0.24128 0.20998 0.12211
 C1160 C 0.22349 0.19231 0.12253
 C1161 C 0.30207 0.30066 0.12275
 C1162 C 0.19287 0.22323 0.12265
 C1163 C 0.25330 0.25245 0.12193
 C1164 C 0.26870 0.26764 0.12202
 C1165 C 0.28672 0.28543 0.12231
 C1166 C 0.19904 0.19871 0.12285
 H1167 H 0.20560 0.25965 0.12219
 H1168 H 0.25999 0.20469 0.12196
 H1169 H 0.22893 0.17364 0.12268
 H1170 H 0.17426 0.22883 0.12291
 C1171 C 0.24055 0.78976 0.87814
 C1172 C 0.23423 0.76545 0.87814
 C1173 C 0.21000 0.75889 0.87778
 C1174 C 0.19215 0.77654 0.87736
 C1175 C 0.30152 0.69910 0.87740
 C1176 C 0.22275 0.80745 0.87771
 C1177 C 0.25262 0.74728 0.87822
 C1178 C 0.26805 0.73210 0.87814
 C1179 C 0.28613 0.71432 0.87784
 C1180 C 0.19830 0.80107 0.87727
 H1181 H 0.25925 0.79505 0.87838
 H1182 H 0.20490 0.74012 0.87775
 H1183 H 0.17355 0.77096 0.87700
 H1184 H 0.22818 0.82612 0.87764
 C1185 C 0.24098 0.28880 0.37811
 C1186 C 0.23453 0.26453 0.37814
 C1187 C 0.21028 0.25806 0.37777
 C1188 C 0.19252 0.27578 0.37727
 C1189 C 0.30155 0.19806 0.37720
 C1190 C 0.22327 0.30656 0.37761
 C1191 C 0.25282 0.24630 0.37821
 C1192 C 0.26819 0.23109 0.37808
 C1193 C 0.28620 0.21329 0.37771
 C1194 C 0.19880 0.30027 0.37711
 H1195 H 0.25970 0.29400 0.37837
 H1196 H 0.20511 0.23931 0.37776
 H1197 H 0.17389 0.27028 0.37690
 H1198 H 0.22878 0.32520 0.37751
 C1199 C 0.46055 0.62294 0.99150
 C1200 C 0.48478 0.62356 0.98492
 C1201 C 0.49112 0.62438 0.96062
 C1202 C 0.47333 0.62461 0.94294
 C1203 C 0.55203 0.62347 1.05118
 C1204 C 0.44271 0.62318 0.97385
 C1205 C 0.50315 0.62345 1.00308
 C1206 C 0.51858 0.62341 1.01823
 C1207 C 0.53665 0.62343 1.03597
 C1208 C 0.44888 0.62405 0.94933
 H1209 H 0.45545 0.62229 1.01028
 H1210 H 0.50982 0.62486 0.95534
 H1211 H 0.47877 0.62527 0.92427
 H1212 H 0.42410 0.62267 0.97943
 C1213 C 0.50930 0.12360 0.53876
 C1214 C 0.51558 0.12329 0.51443
 C1215 C 0.53980 0.12318 0.50778
 C1216 C 0.55769 0.12344 0.52539
 C1217 C 0.44805 0.12338 0.44844
 C1218 C 0.52713 0.12386 0.55640
 C1219 C 0.49715 0.12321 0.49634
 C1220 C 0.48165 0.12322 0.48124
 C1221 C 0.46350 0.12329 0.46358
 C1222 C 0.55157 0.12385 0.54994
 H1223 H 0.49061 0.12367 0.54411
 H1224 H 0.54486 0.12292 0.48899
 H1225 H 0.57629 0.12336 0.51975
 H1226 H 0.52173 0.12412 0.57509
 C1227 C 0.46006 0.87727 0.50845
 C1228 C 0.48431 0.87668 0.51492
 C1229 C 0.49073 0.87615 0.53921
 C1230 C 0.47299 0.87615 0.55698
 C1231 C 0.55146 0.87586 0.44841
 C1232 C 0.44227 0.87727 0.52619
 C1233 C 0.50263 0.87653 0.49667
 C1234 C 0.51802 0.87634 0.48144
 C1235 C 0.53607 0.87609 0.46363
 C1236 C 0.44852 0.87666 0.55070
 H1237 H 0.45489 0.87770 0.48970
 H1238 H 0.50945 0.87570 0.54443
 H1239 H 0.47849 0.87569 0.57563
 H1240 H 0.42365 0.87772 0.52068
 C1241 C 0.96049 0.37734 0.50825
 C1242 C 0.98474 0.37670 0.51469
 C1243 C 0.99121 0.37593 0.53895
 C1244 C 0.97351 0.37575 0.55674
 C1245 C 1.05177 0.37634 0.44820
 C1246 C 0.94273 0.37716 0.52600
 C1247 C 1.00301 0.37671 0.49644
 C1248 C 1.01837 0.37665 0.48121
 C1249 C 1.03639 0.37650 0.46341
 C1250 C 0.94904 0.37633 0.55049
 H1251 H 0.95529 0.37795 0.48950
 H1252 H 1.00994 0.37543 0.54412
 H1253 H 0.97904 0.37512 0.57538
 H1254 H 0.92410 0.37767 0.52053
 C1255 C 0.03803 0.87671 0.99147
 C1256 C 0.01382 0.87670 0.98481
 C1257 C 0.00759 0.87668 0.96047
 C1258 C 0.02546 0.87659 0.94284
 C1259 C -0.05366 0.87591 1.05099
 C1260 C 0.05596 0.87662 0.97387
 C1261 C -0.00464 0.87658 1.00291
 C1262 C -0.02014 0.87641 1.01803
 C1263 C -0.03827 0.87615 1.03576
 C1264 C 0.04989 0.87651 0.94931
 H1265 H 0.04306 0.87673 1.01027
 H1266 H -0.01109 0.87669 0.95511
 H1267 H 0.02010 0.87656 0.92414
 H1268 H 0.07455 0.87661 0.97952
 C1269 C 0.00888 0.12260 0.03903
 C1270 C 0.01527 0.12302 0.01473
 C1271 C 0.03951 0.12352 0.00819
 C1272 C 0.05731 0.12366 0.02588
 C1273 C -0.05181 0.12340 -0.05171
 C1274 C 0.02663 0.12275 0.05675
 C1275 C -0.00306 0.12304 -0.00347
 C1276 C -0.01845 0.12311 -0.01867
 C1277 C -0.03647 0.12325 -0.03647
 C1278 C 0.05109 0.12332 0.05041
 H1279 H -0.00984 0.12220 0.04428
 H1280 H 0.04465 0.12385 -0.01058
 H1281 H 0.07593 0.12409 0.02033
 H1282 H 0.02115 0.12241 0.07542
 C1283 C 0.12208 0.99214 0.96094
 C1284 C 0.12211 0.98544 0.98517
 C1285 C 0.12214 0.96110 0.99138
 C1286 C 0.12224 0.94351 0.97346
 C1287 C 0.12330 1.05130 1.05299
 C1288 C 0.12219 0.97457 0.94296
 C1289 C 0.12230 1.00348 1.00370
 C1290 C 0.12256 1.01853 1.01928
 C1291 C 0.12294 1.03616 1.03751
 C1292 C 0.12235 0.95002 0.94901
 H1293 H 0.12205 1.01094 0.95594
 H1294 H 0.12215 0.95571 1.01008
 H1295 H 0.12232 0.92482 0.97881
 H1296 H 0.12221 0.98025 0.92436
 C1297 C 0.12339 0.53945 0.50893
 C1298 C 0.12320 0.51513 0.51517
 C1299 C 0.12312 0.50846 0.53941
 C1300 C 0.12332 0.52604 0.55736
 C1301 C 0.12375 0.44912 0.44750
 C1302 C 0.12360 0.55707 0.52682
 C1303 C 0.12322 0.49705 0.49668
 C1304 C 0.12333 0.48196 0.48114
 C1305 C 0.12353 0.46429 0.46296
 C1306 C 0.12363 0.55059 0.55128
 H1307 H 0.12344 0.54482 0.49022
 H1308 H 0.12295 0.48967 0.54444
 H1309 H 0.12328 0.52039 0.57597
 H1310 H 0.12377 0.57575 0.52145
 C1311 C 0.37735 0.53929 0.99098
 C1312 C 0.37686 0.51498 0.98468
 C1313 C 0.37627 0.50837 0.96042
 C1314 C 0.37611 0.52600 0.94252
 C1315 C 0.37630 0.44880 1.05219
 C1316 C 0.37719 0.55695 0.97314
 C1317 C 0.37681 0.49685 1.00313
 C1318 C 0.37670 0.48172 1.01863
 C1319 C 0.37650 0.46400 1.03677
 C1320 C 0.37651 0.55053 0.94866
 H1321 H 0.37782 0.54462 1.00970
 H1322 H 0.37589 0.48959 0.95534
 H1323 H 0.37561 0.52039 0.92390
 H1324 H 0.37756 0.57562 0.97856
 C1325 C 0.87756 0.46107 0.50927
 C1326 C 0.87710 0.48537 0.51562
 C1327 C 0.87653 0.49197 0.53987
 C1328 C 0.87635 0.47434 0.55774
 C1329 C 0.87663 0.55153 0.44826
 C1330 C 0.87738 0.44340 0.52708
 C1331 C 0.87708 0.50350 0.49722
 C1332 C 0.87699 0.51863 0.48177
 C1333 C 0.87682 0.53635 0.46367
 C1334 C 0.87672 0.44982 0.55156
 H1335 H 0.87802 0.45577 0.49054
 H1336 H 0.87617 0.51075 0.54496
 H1337 H 0.87586 0.47993 0.57636
 H1338 H 0.87774 0.42473 0.52164
 C1339 C 0.87726 0.95993 0.00799
 C1340 C 0.87691 0.98423 0.01434
 C1341 C 0.87650 0.99082 0.03860
 C1342 C 0.87635 0.97318 0.05646
 C1343 C 0.87628 1.05050 -0.05290
 C1344 C 0.87711 0.94225 0.02579
 C1345 C 0.87684 1.00236 -0.00404
 C1346 C 0.87670 1.01752 -0.01947
 C1347 C 0.87649 1.03528 -0.03753
 C1348 C 0.87661 0.94866 0.05027
 H1349 H 0.87759 0.95464 -0.01075
 H1350 H 0.87623 1.00959 0.04371
 H1351 H 0.87597 0.97877 0.07509
 H1352 H 0.87734 0.92359 0.02035
 C1353 C 0.62154 0.03965 0.50830
 C1354 C 0.62194 0.01536 0.51467
 C1355 C 0.62246 0.00883 0.53894
 C1356 C 0.62272 0.02651 0.55678
 C1357 C 0.62300 -0.05105 0.44744
 C1358 C 0.62180 0.05737 0.52608
 C1359 C 0.62206 -0.00282 0.49629
 C1360 C 0.62228 -0.01801 0.48087
 C1361 C 0.62264 -0.03581 0.46281
 C1362 C 0.62249 0.05102 0.55057
 H1363 H 0.62113 0.04491 0.48956
 H1364 H 0.62277 -0.00993 0.54407
 H1365 H 0.62320 0.02096 0.57542
 H1366 H 0.62155 0.07603 0.52062
 C1367 C 0.53897 0.99066 0.37771
 C1368 C 0.51474 0.98417 0.37746
 C1369 C 0.50831 0.95990 0.37697
 C1370 C 0.52605 0.94214 0.37667
 C1371 C 0.44815 1.05106 0.37699
 C1372 C 0.55675 0.97296 0.37741
 C1373 C 0.49649 1.00244 0.37751
 C1374 C 0.48125 1.01778 0.37745
 C1375 C 0.46341 1.03574 0.37725
 C1376 C 0.55051 0.94846 0.37684
 H1377 H 0.54414 1.00941 0.37809
 H1378 H 0.48958 0.95469 0.37677
 H1379 H 0.52057 0.92349 0.37625
 H1380 H 0.57537 0.97850 0.37758
 C1381 C 0.00835 0.03925 0.12202
 C1382 C 0.01478 0.01496 0.12214
 C1383 C 0.03902 0.00847 0.12239
 C1384 C 0.05679 0.02616 0.12261
 C1385 C -0.05167 -0.05210 0.12287
 C1386 C 0.02608 0.05701 0.12225
 C1387 C -0.00346 -0.00332 0.12220
 C1388 C -0.01867 -0.01870 0.12235
 C1389 C -0.03646 -0.03673 0.12261
 C1390 C 0.05055 0.05068 0.12261
 H1391 H -0.01038 0.04448 0.12182
 H1392 H 0.04420 -0.01029 0.12248
 H1393 H 0.07541 0.02061 0.12287
 H1394 H 0.02061 0.07567 0.12219
 C1395 C 0.46060 0.49082 0.12200
 C1396 C 0.48486 0.48440 0.12224
 C1397 C 0.49136 0.46014 0.12265
 C1398 C 0.47369 0.44233 0.12290
 C1399 C 0.55141 0.55133 0.12291
 C1400 C 0.44288 0.47307 0.12225
 C1401 C 0.50306 0.50272 0.12226
 C1402 C 0.51829 0.51808 0.12238
 C1403 C 0.53613 0.53604 0.12262
 C1404 C 0.44920 0.44859 0.12275
 H1405 H 0.45537 0.50956 0.12169
 H1406 H 0.51011 0.45497 0.12285
 H1407 H 0.47922 0.42370 0.12327
 H1408 H 0.42424 0.47857 0.12211
 C1409 C 0.00874 0.53959 0.62220
 C1410 C 0.01525 0.51532 0.62163
 C1411 C 0.03951 0.50891 0.62127
 C1412 C 0.05723 0.52666 0.62161
 C1413 C -0.05122 0.44827 0.62268
 C1414 C 0.02642 0.55739 0.62255
 C1415 C -0.00295 0.49699 0.62169
 C1416 C -0.01816 0.48161 0.62188
 C1417 C -0.03597 0.46361 0.62226
 C1418 C 0.05090 0.55114 0.62235
 H1419 H -0.01000 0.54475 0.62248
 H1420 H 0.04475 0.49017 0.62082
 H1421 H 0.07587 0.52117 0.62138
 H1422 H 0.02088 0.57602 0.62306
 C1423 C 0.53944 0.49171 0.87740
 C1424 C 0.51519 0.48524 0.87745
 C1425 C 0.50877 0.46095 0.87729
 C1426 C 0.52651 0.44318 0.87700
 C1427 C 0.44848 0.55219 0.87695
 C1428 C 0.55722 0.47399 0.87711
 C1429 C 0.49692 0.50354 0.87749
 C1430 C 0.48165 0.51889 0.87741
 C1431 C 0.46377 0.53687 0.87721
 C1432 C 0.55098 0.44948 0.87685
 H1433 H 0.54462 0.51046 0.87753
 H1434 H 0.49004 0.45575 0.87733
 H1435 H 0.52102 0.42453 0.87686
 H1436 H 0.57584 0.47952 0.87705
 C1437 C 0.62297 0.49149 0.96149
 C1438 C 0.62243 0.48482 0.98572
 C1439 C 0.62198 0.46050 0.99196
 C1440 C 0.62220 0.44288 0.97407
 C1441 C 0.62347 0.55102 1.05319
 C1442 C 0.62320 0.47391 0.94355
 C1443 C 0.62256 0.50292 1.00420
 C1444 C 0.62279 0.51805 1.01969
 C1445 C 0.62314 0.53579 1.03779
 C1446 C 0.62291 0.44936 0.94962
 H1447 H 0.62332 0.51028 0.95647
 H1448 H 0.62154 0.45514 1.01067
 H1449 H 0.62191 0.42419 0.97943
 H1450 H 0.62370 0.47956 0.92495
 C1451 C 0.37694 0.96116 0.50876
 C1452 C 0.37646 0.98552 0.51491
 C1453 C 0.37585 0.99227 0.53913
 C1454 C 0.37566 0.97476 0.55714
 C1455 C 0.37606 1.05134 0.44703
 C1456 C 0.37675 0.94361 0.52672
 C1457 C 0.37646 1.00354 0.49635
 C1458 C 0.37639 1.01858 0.48077
 C1459 C 0.37624 1.03621 0.46253
 C1460 C 0.37606 0.95018 0.55115
 H1461 H 0.37743 0.95572 0.49008
 H1462 H 0.37548 1.01108 0.54409
 H1463 H 0.37515 0.98049 0.57572
 H1464 H 0.37713 0.92491 0.52141
 C1465 C 0.00909 0.62324 0.53909
 C1466 C 0.01554 0.62311 0.51481
 C1467 C 0.03980 0.62323 0.50832
 C1468 C 0.05756 0.62353 0.52605
 C1469 C -0.05149 0.62336 0.44833
 C1470 C 0.02680 0.62354 0.55686
 C1471 C -0.00275 0.62302 0.49657
 C1472 C -0.01812 0.62304 0.48136
 C1473 C -0.03613 0.62317 0.46356
 C1474 C 0.05128 0.62375 0.55056
 H1475 H -0.00964 0.62314 0.54431
 H1476 H 0.04499 0.62313 0.48956
 H1477 H 0.07620 0.62363 0.52053
 H1478 H 0.02128 0.62364 0.57551
 C1479 C 0.53997 0.37694 0.99185
 C1480 C 0.51577 0.37691 0.98517
 C1481 C 0.50952 0.37687 0.96085
 C1482 C 0.52737 0.37678 0.94322
 C1483 C 0.44825 0.37598 1.05116
 C1484 C 0.55788 0.37684 0.97426
 C1485 C 0.49732 0.37676 1.00325
 C1486 C 0.48182 0.37656 1.01833
 C1487 C 0.46367 0.37626 1.03600
 C1488 C 0.55180 0.37670 0.94971
 H1489 H 0.54499 0.37698 1.01065
 H1490 H 0.49083 0.37686 0.95549
 H1491 H 0.52201 0.37672 0.92453
 H1492 H 0.57647 0.37684 0.97991
 C1493 C 0.50826 0.04029 0.62252
 C1494 C 0.51464 0.01599 0.62243
 C1495 C 0.53888 0.00945 0.62261
 C1496 C 0.55668 0.02712 0.62295
 C1497 C 0.44799 -0.05088 0.62283
 C1498 C 0.52602 0.05801 0.62286
 C1499 C 0.49636 -0.00225 0.62233
 C1500 C 0.48110 -0.01758 0.62237
 C1501 C 0.46325 -0.03555 0.62255
 C1502 C 0.55048 0.05164 0.62313
 H1503 H 0.48954 0.04555 0.62238
 H1504 H 0.54402 -0.00931 0.62254
 H1505 H 0.57529 0.02153 0.62310
 H1506 H 0.52058 0.07668 0.62293
 C1507 C 0.03997 0.49154 0.37737
 C1508 C 0.01569 0.48523 0.37697
 C1509 C 0.00909 0.46100 0.37650
 C1510 C 0.02670 0.44311 0.37634
 C1511 C -0.05052 0.55252 0.37627
 C1512 C 0.05762 0.47371 0.37721
 C1513 C -0.00242 0.50364 0.37689
 C1514 C -0.01756 0.51909 0.37675
 C1515 C -0.03530 0.53715 0.37651
 C1516 C 0.05120 0.44926 0.37664
 H1517 H 0.04527 0.51025 0.37774
 H1518 H -0.00967 0.45593 0.37619
 H1519 H 0.02110 0.42450 0.37591
 H1520 H 0.07627 0.47912 0.37748
 C1521 C 0.03829 0.99158 0.87839
 C1522 C 0.01404 0.98514 0.87788
 C1523 C 0.00760 0.96086 0.87729
 C1524 C 0.02533 0.94307 0.87709
 C1525 C -0.05251 1.05224 0.87664
 C1526 C 0.05606 0.97385 0.87819
 C1527 C -0.00421 1.00346 0.87772
 C1528 C -0.01944 1.01884 0.87746
 C1529 C -0.03726 1.03687 0.87705
 C1530 C 0.04981 0.94935 0.87745
 H1531 H 0.04348 1.01032 0.87886
 H1532 H -0.01112 0.95567 0.87690
 H1533 H 0.01985 0.92443 0.87657
 H1534 H 0.07468 0.97937 0.87854
 C1535 C 0.71077 0.62197 0.24104
 C1536 C 0.73503 0.62110 0.23464
 C1537 C 0.74155 0.62051 0.21037
 C1538 C 0.72389 0.62092 0.19253
 C1539 C 0.80139 0.62244 0.30180
 C1540 C 0.69308 0.62238 0.22326
 C1541 C 0.75321 0.62114 0.25299
 C1542 C 0.76839 0.62137 0.26840
 C1543 C 0.78617 0.62184 0.28644
 C1544 C 0.69942 0.62193 0.19876
 H1545 H 0.70553 0.62246 0.25978
 H1546 H 0.76029 0.61986 0.20522
 H1547 H 0.72944 0.62056 0.17389
 H1548 H 0.67446 0.62318 0.22874
 C1549 C 0.21025 0.87856 0.75924
 C1550 C 0.23451 0.87905 0.76565
 C1551 C 0.24097 0.87909 0.78995
 C1552 C 0.22327 0.87855 0.80777
 C1553 C 0.30087 0.87831 0.69832
 C1554 C 0.19252 0.87802 0.77700
 C1555 C 0.25272 0.87919 0.74728
 C1556 C 0.26790 0.87912 0.73183
 C1557 C 0.28566 0.87881 0.71373
 C1558 C 0.19880 0.87795 0.80151
 H1559 H 0.20503 0.87849 0.74049
 H1560 H 0.25971 0.87943 0.79512
 H1561 H 0.22878 0.87849 0.82642
 H1562 H 0.17390 0.87755 0.77148
 C1563 C 0.28956 0.37699 0.24106
 C1564 C 0.26531 0.37790 0.23470
 C1565 C 0.25877 0.37836 0.21044
 C1566 C 0.27641 0.37782 0.19258
 C1567 C 0.19899 0.37709 0.30190
 C1568 C 0.30724 0.37645 0.22326
 C1569 C 0.24716 0.37802 0.25308
 C1570 C 0.23199 0.37793 0.26851
 C1571 C 0.21423 0.37759 0.28656
 C1572 C 0.30088 0.37679 0.19877
 H1573 H 0.29482 0.37660 0.25980
 H1574 H 0.24003 0.37903 0.20532
 H1575 H 0.27085 0.37810 0.17394
 H1576 H 0.32586 0.37565 0.22871
 C1577 C 0.87786 0.78922 0.24123
 C1578 C 0.87817 0.76496 0.23468
 C1579 C 0.87810 0.75855 0.21039
 C1580 C 0.87763 0.77631 0.19267
 C1581 C 0.87725 0.69782 0.30105
 C1582 C 0.87739 0.80704 0.22355
 C1583 C 0.87824 0.74662 0.25287
 C1584 C 0.87812 0.73121 0.26805
 C1585 C 0.87776 0.71317 0.28582
 C1586 C 0.87721 0.80079 0.19903
 H1587 H 0.87788 0.79437 0.26001
 H1588 H 0.87830 0.73982 0.20513
 H1589 H 0.87749 0.77082 0.17400
 H1590 H 0.87706 0.82567 0.22910
 C1591 C 0.62275 0.24164 0.71033
 C1592 C 0.62272 0.23534 0.73465
 C1593 C 0.62295 0.21110 0.74126
 C1594 C 0.62329 0.19321 0.72362
 C1595 C 0.62359 0.30272 0.80090
 C1596 C 0.62310 0.22381 0.69266
 C1597 C 0.62270 0.25376 0.75278
 C1598 C 0.62282 0.26924 0.76793
 C1599 C 0.62315 0.28734 0.78567
 C1600 C 0.62342 0.19935 0.69908
 H1601 H 0.62261 0.26036 0.70502
 H1602 H 0.62295 0.20602 0.76005
 H1603 H 0.62355 0.17459 0.72923
 H1604 H 0.62320 0.22923 0.67398
 C1605 C 0.74149 0.28968 0.87718
 C1606 C 0.73509 0.26541 0.87789
 C1607 C 0.71084 0.25893 0.87830
 C1608 C 0.69304 0.27664 0.87790
 C1609 C 0.80207 0.19875 0.87686
 C1610 C 0.72374 0.30743 0.87678
 C1611 C 0.75341 0.24716 0.87791
 C1612 C 0.76877 0.23191 0.87775
 C1613 C 0.78675 0.21404 0.87737
 C1614 C 0.69927 0.30113 0.87707
 H1615 H 0.76021 0.29490 0.87684
 H1616 H 0.70568 0.24018 0.87882
 H1617 H 0.67442 0.27112 0.87813
 H1618 H 0.72923 0.32607 0.87613
 C1619 C 0.21038 0.74190 0.62234
 C1620 C 0.23463 0.73540 0.62245
 C1621 C 0.24106 0.71112 0.62288
 C1622 C 0.22333 0.69338 0.62327
 C1623 C 0.30156 0.80196 0.62332
 C1624 C 0.19260 0.72420 0.62273
 C1625 C 0.25293 0.75363 0.62241
 C1626 C 0.26828 0.76886 0.62253
 C1627 C 0.28625 0.78669 0.62286
 C1628 C 0.19886 0.69970 0.62326
 H1629 H 0.20521 0.76066 0.62203
 H1630 H 0.25979 0.70590 0.62300
 H1631 H 0.22883 0.67474 0.62369
 H1632 H 0.17397 0.72973 0.62271
   
