data_POSCAR
  _audit_creation_date              2014-09-24
  _audit_creation_method            'ToBaCCo'
  _symmetry_space_group_name_H-M    'P1'
  _symmetry_Int_Tables_number       1
  _symmetry_cell_setting            triclinic
  loop_
  _symmetry_equiv_pos_as_xyz
 x,y,z
_cell_length_a 66.0405
_cell_length_b 65.9845
_cell_length_c 65.8637
_cell_angle_alpha 89.985400
_cell_angle_beta 89.982200
_cell_angle_gamma 89.949000
loop_
  _atom_site_label
  _atom_site_type_symbol
  _atom_site_fract_x
  _atom_site_fract_y
  _atom_site_fract_z
N1 N 0.35751 1.34462 0.30180
 N2 N 0.34594 1.36058 0.30447
 C3 C 0.35086 1.37482 0.29072
 C4 C 0.36619 1.36729 0.27837
 C5 C 0.36991 1.34793 0.28592
 H6 H 0.34324 1.38927 0.28944
 H7 H 0.38098 1.33708 0.28059
 Cu8 Cu 0.32428 1.36037 0.32441
 Cu9 Cu 0.35526 1.32082 0.31929
 Cu10 Cu 0.33001 1.33023 0.36479
 N11 N 0.30461 1.36028 0.34629
 N12 N 0.30712 1.34889 0.36245
 C13 C 0.29198 1.35259 0.37566
 C14 C 0.27900 1.36690 0.36714
 C15 C 0.28764 1.37131 0.34842
 H16 H 0.29048 1.34509 0.39017
 H17 H 0.28238 1.38213 0.33730
 N18 N 0.34839 1.30694 0.36073
 N19 N 0.35744 1.30309 0.34328
 C20 C 0.36845 1.28603 0.34514
 C21 C 0.36621 1.27864 0.36472
 C22 C 0.35334 1.29235 0.37415
 H23 H 0.37770 1.27972 0.33318
 H24 H 0.34771 1.29163 0.38954
 H25 H 0.32756 1.32493 0.33459
 H26 H 0.34986 1.34052 0.34216
 N27 N 0.36169 0.84760 0.80529
 N28 N 0.34709 0.86115 0.80470
 C29 C 0.35047 0.87389 0.78906
 C30 C 0.36822 0.86809 0.77948
 C31 C 0.37491 0.85135 0.79022
 H32 H 0.34096 0.88664 0.78513
 H33 H 0.38827 0.84239 0.78713
 Cu34 Cu 0.32560 0.86102 0.82493
 Cu35 Cu 0.36229 0.82578 0.82518
 Cu36 Cu 0.32299 0.82425 0.86011
 N37 N 0.30398 0.86046 0.84500
 N38 N 0.30286 0.84581 0.85847
 C39 C 0.28683 0.84911 0.87066
 C40 C 0.27745 0.86689 0.86463
 C41 C 0.28876 0.87368 0.84828
 H42 H 0.28272 0.83963 0.88340
 H43 H 0.28614 0.88726 0.83948
 N44 N 0.34490 0.80395 0.85934
 N45 N 0.36013 0.80484 0.84639
 C46 C 0.37289 0.78934 0.85010
 C47 C 0.36529 0.77807 0.86609
 C48 C 0.34751 0.78777 0.87154
 H49 H 0.38656 0.78628 0.84162
 H50 H 0.33743 0.78355 0.88375
 H51 H 0.33136 0.82488 0.82989
 H52 H 0.34647 0.84077 0.84776
 N53 N 0.86232 1.34899 0.80664
 N54 N 0.84630 1.36053 0.80417
 C55 C 0.84929 1.37275 0.78806
 C56 C 0.86838 1.36880 0.78004
 C57 C 0.87616 1.35363 0.79241
 H58 H 0.83846 1.38387 0.78284
 H59 H 0.89045 1.34583 0.79075
 Cu60 Cu 0.82324 1.35888 0.82253
 Cu61 Cu 0.86336 1.32727 0.82658
 Cu62 Cu 0.82062 1.32081 0.85632
 N63 N 0.80339 1.35893 0.84446
 N64 N 0.80238 1.34384 0.85742
 C65 C 0.78685 1.34696 0.87023
 C66 C 0.77758 1.36510 0.86517
 C67 C 0.78857 1.37234 0.84873
 H68 H 0.78268 1.33674 0.88236
 H69 H 0.78566 1.38603 0.84020
 N70 N 0.84442 1.30304 0.85808
 N71 N 0.86101 1.30587 0.84730
 C72 C 0.87452 1.29131 0.85208
 C73 C 0.86602 1.27871 0.86658
 C74 C 0.84693 1.28670 0.87004
 H75 H 0.88923 1.28966 0.84508
 H76 H 0.83570 1.28115 0.88059
 H77 H 0.83282 1.32315 0.82698
 H78 H 0.84324 1.34009 0.84715
 N79 N 0.86124 0.84735 0.30467
 N80 N 0.84846 0.86251 0.30659
 C81 C 0.85203 0.87616 0.29182
 C82 C 0.86776 0.86906 0.27973
 C83 C 0.87313 0.85064 0.28842
 H84 H 0.84337 0.88989 0.28970
 H85 H 0.88512 0.84053 0.28367
 Cu86 Cu 0.82766 0.86192 0.32749
 Cu87 Cu 0.86212 0.82482 0.32390
 Cu88 Cu 0.82451 0.82382 0.36080
 N89 N 0.80630 0.86131 0.34781
 N90 N 0.80494 0.84596 0.36046
 C91 C 0.78862 0.84852 0.37240
 C92 C 0.77919 0.86648 0.36701
 C93 C 0.79087 0.87423 0.35135
 H94 H 0.78407 0.83816 0.38427
 H95 H 0.78807 0.88800 0.34291
 N96 N 0.84579 0.80296 0.35863
 N97 N 0.86033 0.80350 0.34487
 C98 C 0.87297 0.78776 0.34803
 C99 C 0.86594 0.77671 0.36444
 C100 C 0.84868 0.78678 0.37073
 H101 H 0.88628 0.78450 0.33904
 H102 H 0.83924 0.78288 0.38355
 H103 H 0.83160 0.82533 0.33031
 H104 H 0.84850 0.83944 0.34802
 N105 N 0.64172 0.65628 0.30353
 N106 N 0.65568 0.64206 0.30373
 C107 C 0.65190 0.62881 0.28862
 C108 C 0.63457 0.63506 0.27854
 C109 C 0.62855 0.65255 0.28843
 H110 H 0.66072 0.61536 0.28549
 H111 H 0.61561 0.66196 0.28485
 Cu112 Cu 0.67641 0.64210 0.32477
 Cu113 Cu 0.64176 0.67891 0.32260
 Cu114 Cu 0.67492 0.67494 0.36335
 N115 N 0.69676 0.64118 0.34614
 N116 N 0.69553 0.65383 0.36151
 C117 C 0.71037 0.64970 0.37484
 C118 C 0.72159 0.63358 0.36751
 C119 C 0.71256 0.62857 0.34918
 H120 H 0.71288 0.65795 0.38879
 H121 H 0.71685 0.61634 0.33914
 N122 N 0.65315 0.69536 0.36197
 N123 N 0.64087 0.69723 0.34626
 C124 C 0.62818 0.71287 0.34962
 C125 C 0.63266 0.72123 0.36836
 C126 C 0.64855 0.70971 0.37574
 H127 H 0.61637 0.71764 0.33931
 H128 H 0.65645 0.71192 0.38993
 H129 H 0.67159 0.67793 0.33271
 H130 H 0.65287 0.66116 0.34560
 N131 N 0.64224 0.15640 0.80296
 N132 N 0.65481 0.14101 0.80426
 C133 C 0.65099 0.12802 0.78893
 C134 C 0.63535 0.13586 0.77716
 C135 C 0.63032 0.15399 0.78661
 H136 H 0.65925 0.11411 0.78638
 H137 H 0.61831 0.16432 0.78250
 Cu138 Cu 0.67525 0.14005 0.82561
 Cu139 Cu 0.64075 0.17756 0.82352
 Cu140 Cu 0.67512 0.17454 0.86312
 N141 N 0.69510 0.13905 0.84753
 N142 N 0.69466 0.15250 0.86224
 C143 C 0.70964 0.14853 0.87547
 C144 C 0.72020 0.13173 0.86872
 C145 C 0.71058 0.12612 0.85087
 H146 H 0.71285 0.15749 0.88882
 H147 H 0.71446 0.11347 0.84119
 N148 N 0.65428 0.19580 0.86130
 N149 N 0.64154 0.19731 0.84595
 C150 C 0.62921 0.21328 0.84917
 C151 C 0.63436 0.22215 0.86748
 C152 C 0.65033 0.21067 0.87472
 H153 H 0.61696 0.21775 0.83925
 H154 H 0.65849 0.21302 0.88874
 H155 H 0.67074 0.17617 0.83212
 H156 H 0.65255 0.16015 0.84673
 N157 N 1.14013 0.65431 0.80454
 N158 N 1.15414 0.64016 0.80480
 C159 C 1.15104 0.62745 0.78908
 C160 C 1.13432 0.63417 0.77832
 C161 C 1.12781 0.65126 0.78859
 H162 H 1.16042 0.61450 0.78548
 H163 H 1.11489 0.66062 0.78489
 Cu164 Cu 1.17529 0.64030 0.82538
 Cu165 Cu 1.13856 0.67545 0.82504
 Cu166 Cu 1.17564 0.67555 0.86231
 N167 N 1.19592 0.64037 0.84646
 N168 N 1.19588 0.65407 0.86094
 C169 C 1.21155 0.65057 0.87354
 C170 C 1.22209 0.63383 0.86650
 C171 C 1.21172 0.62778 0.84927
 H172 H 1.21517 0.65969 0.88667
 H173 H 1.21530 0.61499 0.83966
 N174 N 1.15379 0.69593 0.86102
 N175 N 1.13948 0.69559 0.84704
 C176 C 1.12637 0.71080 0.85061
 C177 C 1.13276 0.72133 0.86757
 C178 C 1.15025 0.71154 0.87374
 H179 H 1.11317 0.71409 0.84148
 H180 H 1.15942 0.71525 0.88681
 H181 H 1.16919 0.67620 0.83170
 H182 H 1.15309 0.65945 0.84787
 N183 N 1.13978 0.15295 0.30577
 N184 N 1.15577 0.14127 0.30373
 C185 C 1.15279 0.12860 0.28795
 C186 C 1.13386 0.13258 0.27972
 C187 C 1.12611 0.14816 0.29145
 H188 H 1.16346 0.11717 0.28305
 H189 H 1.11174 0.15575 0.28952
 Cu190 Cu 1.17871 0.14347 0.32216
 Cu191 Cu 1.13797 0.17403 0.32622
 Cu192 Cu 1.17881 0.17914 0.35869
 N193 N 1.19747 0.14235 0.34495
 N194 N 1.19718 0.15614 0.35934
 C195 C 1.21169 0.15192 0.37302
 C196 C 1.22171 0.13452 0.36689
 C197 C 1.21227 0.12888 0.34897
 H198 H 1.21497 0.16111 0.38621
 H199 H 1.21582 0.11588 0.33962
 N200 N 1.15492 0.19695 0.35976
 N201 N 1.13911 0.19460 0.34776
 C202 C 1.12513 0.20869 0.35241
 C203 C 1.13247 0.22053 0.36809
 C204 C 1.15143 0.21264 0.37236
 H205 H 1.11083 0.21051 0.34465
 H206 H 1.16182 0.21775 0.38396
 H207 H 1.16847 0.17872 0.32873
 H208 H 1.15724 0.16024 0.34700
 N209 N 0.64092 1.34473 0.69670
 N210 N 0.65460 1.35917 0.69607
 C211 C 0.65107 1.37236 0.71125
 C212 C 0.63436 1.36578 0.72208
 C213 C 0.62835 1.34813 0.71244
 H214 H 0.65996 1.38578 0.71423
 H215 H 0.61539 1.33885 0.71619
 Cu216 Cu 0.67555 1.35959 0.67534
 Cu217 Cu 0.63948 1.32358 0.67611
 Cu218 Cu 0.67504 1.32559 0.63737
 N219 N 0.69568 1.36014 0.65379
 N220 N 0.69514 1.34709 0.63873
 C221 C 0.71055 1.35095 0.62591
 C222 C 0.72143 1.36722 0.63340
 C223 C 0.71155 1.37266 0.65113
 H224 H 0.71386 1.34225 0.61240
 H225 H 0.71553 1.38494 0.66122
 N226 N 0.65362 1.30489 0.63871
 N227 N 0.64048 1.30371 0.65377
 C228 C 0.62809 1.28783 0.65045
 C229 C 0.63362 1.27868 0.63237
 C230 C 0.64986 1.28990 0.62538
 H231 H 0.61563 1.28354 0.66018
 H232 H 0.65841 1.28722 0.61164
 H233 H 0.66978 1.32377 0.66828
 H234 H 0.65262 1.34070 0.65341
 N235 N 0.64029 0.84611 1.19579
 N236 N 0.65437 0.86017 1.19532
 C237 C 0.65103 0.87341 1.21051
 C238 C 0.63407 0.86720 1.22118
 C239 C 0.62769 0.84977 1.21143
 H240 H 0.66030 0.88653 1.21369
 H241 H 0.61457 0.84071 1.21514
 Cu242 Cu 0.67573 0.85989 1.17492
 Cu243 Cu 0.63881 0.82458 1.17564
 Cu244 Cu 0.67561 0.82451 1.13819
 N245 N 0.69598 0.85979 1.15341
 N246 N 0.69557 0.84611 1.13893
 C247 C 0.71065 0.84980 1.12571
 C248 C 0.72121 0.86666 1.13228
 C249 C 0.71151 0.87258 1.14997
 H250 H 0.71381 0.84077 1.11238
 H251 H 0.71525 0.88549 1.15935
 N252 N 0.65420 0.80389 1.13989
 N253 N 0.63991 0.80408 1.15390
 C254 C 0.62730 0.78835 1.15064
 C255 C 0.63414 0.77766 1.13391
 C256 C 0.65121 0.78795 1.12752
 H257 H 0.61428 0.78474 1.15990
 H258 H 0.66057 0.78423 1.11458
 H259 H 0.66931 0.82395 1.16900
 H260 H 0.65308 0.84073 1.15293
 N261 N 1.13972 1.34604 1.19549
 N262 N 1.15376 1.36014 1.19506
 C263 C 1.15040 1.37338 1.21023
 C264 C 1.13349 1.36713 1.22091
 C265 C 1.12713 1.34966 1.21117
 H266 H 1.15964 1.38654 1.21342
 H267 H 1.11405 1.34055 1.21490
 Cu268 Cu 1.17478 1.35996 1.17443
 Cu269 Cu 1.13837 1.32455 1.17521
 Cu270 Cu 1.17572 1.32453 1.13803
 N271 N 1.19583 1.35973 1.15381
 N272 N 1.19582 1.34610 1.13927
 C273 C 1.21151 1.34966 1.12671
 C274 C 1.22198 1.36637 1.13384
 C275 C 1.21158 1.37236 1.15106
 H276 H 1.21519 1.34059 1.11355
 H277 H 1.21510 1.38517 1.16069
 N278 N 1.15409 1.30401 1.13941
 N279 N 1.13970 1.30415 1.15333
 C280 C 1.12710 1.28846 1.14994
 C281 C 1.13402 1.27783 1.13321
 C282 C 1.15115 1.28811 1.12696
 H283 H 1.11404 1.28480 1.15912
 H284 H 1.16062 1.28440 1.11410
 H285 H 1.16891 1.32398 1.16866
 H286 H 1.15270 1.34033 1.15229
 N287 N 1.14167 0.84396 0.69680
 N288 N 1.15455 0.85905 0.69546
 C289 C 1.15004 0.87296 0.70971
 C290 C 1.13356 0.86613 0.72074
 C291 C 1.12869 0.84760 0.71215
 H292 H 1.15839 0.88683 0.71215
 H293 H 1.11649 0.83759 0.71656
 Cu294 Cu 1.17661 0.85890 0.67594
 Cu295 Cu 1.14291 0.82077 0.67860
 Cu296 Cu 1.17486 0.82578 0.63704
 N297 N 1.19624 0.85958 0.65398
 N298 N 1.19514 0.84711 0.63849
 C299 C 1.21035 0.85117 0.62549
 C300 C 1.22166 0.86701 0.63332
 C301 C 1.21221 0.87196 0.65142
 H302 H 1.21327 0.84285 0.61165
 H303 H 1.21654 0.88384 0.66185
 N304 N 1.15357 0.80499 0.63877
 N305 N 1.14192 0.80262 0.65487
 C306 C 1.12947 0.78676 0.65172
 C307 C 1.13346 0.77876 0.63270
 C308 C 1.14884 0.79073 0.62495
 H309 H 1.11808 0.78166 0.66235
 H310 H 1.15630 0.78894 0.61046
 H311 H 1.17266 0.82282 0.66779
 H312 H 1.15308 0.83926 0.65560
 N313 N 0.35954 0.65364 0.69590
 N314 N 0.34655 0.63865 0.69436
 C315 C 0.35020 0.62510 0.70920
 C316 C 0.36629 0.63202 0.72073
 C317 C 0.37182 0.65021 0.71185
 H318 H 0.34168 0.61133 0.71161
 H319 H 0.38413 0.66000 0.71637
 Cu320 Cu 0.32600 0.63856 0.67326
 Cu321 Cu 0.36020 0.67593 0.67651
 Cu322 Cu 0.32411 0.67539 0.63814
 N323 N 0.30562 0.63848 0.65201
 N324 N 0.30469 0.65313 0.63852
 C325 C 0.28904 0.64963 0.62590
 C326 C 0.27971 0.63176 0.63175
 C327 C 0.29068 0.62511 0.64836
 H328 H 0.28491 0.65924 0.61326
 H329 H 0.28776 0.61170 0.65731
 N330 N 0.34508 0.69656 0.64047
 N331 N 0.35845 0.69700 0.65537
 C332 C 0.37059 0.71318 0.65285
 C333 C 0.36472 0.72336 0.63547
 C334 C 0.34851 0.71237 0.62799
 H335 H 0.38317 0.71699 0.66261
 H336 H 0.33984 0.71573 0.61448
 H337 H 0.32985 0.67505 0.66890
 H338 H 0.34749 0.66023 0.65249
 N339 N 0.35969 0.15312 1.19571
 N340 N 0.34650 0.13829 1.19413
 C341 C 0.34989 0.12476 1.20907
 C342 C 0.36601 0.13156 1.22068
 C343 C 0.37179 0.14962 1.21175
 H344 H 0.34118 0.11111 1.21148
 H345 H 0.38417 0.15933 1.21633
 Cu346 Cu 0.32603 0.13859 1.17291
 Cu347 Cu 0.36085 0.17539 1.17635
 Cu348 Cu 0.32497 0.17548 1.13789
 N349 N 0.30566 0.13888 1.15158
 N350 N 0.30514 0.15366 1.13819
 C351 C 0.28924 0.15090 1.12575
 C352 C 0.27927 0.13339 1.13154
 C353 C 0.29017 0.12611 1.14796
 H354 H 0.28525 0.16091 1.11337
 H355 H 0.28673 0.11281 1.15690
 N356 N 0.34628 0.19624 1.14026
 N357 N 0.35958 0.19649 1.15521
 C358 C 0.37191 0.21255 1.15279
 C359 C 0.36621 0.22282 1.13540
 C360 C 0.34992 0.21204 1.12783
 H361 H 0.38445 0.21624 1.16265
 H362 H 0.34129 0.21556 1.11434
 H363 H 0.33054 0.17499 1.16870
 H364 H 0.34801 0.15990 1.15234
 N365 N 0.86051 0.65229 1.19550
 N366 N 0.84677 0.63791 1.19440
 C367 C 0.85003 0.62443 1.20940
 C368 C 0.86658 0.63082 1.22059
 C369 C 0.87282 0.64857 1.21134
 H370 H 0.84090 0.61113 1.21220
 H371 H 0.88558 0.65789 1.21557
 Cu372 Cu 0.82588 0.63886 1.17359
 Cu373 Cu 0.86186 0.67454 1.17610
 Cu374 Cu 0.82414 0.67654 1.13945
 N375 N 0.80480 0.63981 1.15297
 N376 N 0.80398 0.65495 1.14000
 C377 C 0.78790 0.65244 1.12774
 C378 C 0.77813 0.63470 1.13321
 C379 C 0.78932 0.62706 1.14926
 H380 H 0.78382 0.66258 1.11553
 H381 H 0.78621 0.61340 1.15777
 N382 N 0.84601 0.69677 1.14142
 N383 N 0.86056 0.69575 1.15512
 C384 C 0.87379 0.71092 1.15183
 C385 C 0.86722 0.72209 1.13534
 C386 C 0.84952 0.71274 1.12917
 H387 H 0.88725 0.71363 1.16074
 H388 H 0.84026 0.71690 1.11629
 H389 H 0.83120 0.67522 1.16993
 H390 H 0.84737 0.65995 1.15236
 N391 N 0.86148 0.15193 0.69414
 N392 N 0.84680 0.13850 0.69423
 C393 C 0.84940 0.12589 0.71010
 C394 C 0.86673 0.13165 0.72040
 C395 C 0.87403 0.14821 0.70980
 H396 H 0.83954 0.11337 0.71382
 H397 H 0.88719 0.15721 0.71352
 Cu398 Cu 0.82569 0.13870 0.67368
 Cu399 Cu 0.86266 0.17386 0.67442
 Cu400 Cu 0.82380 0.17612 0.63914
 N401 N 0.80422 0.14003 0.65351
 N402 N 0.80340 0.15494 0.64033
 C403 C 0.78715 0.15241 0.62830
 C404 C 0.77725 0.13489 0.63416
 C405 C 0.78854 0.12739 0.65022
 H406 H 0.78310 0.16237 0.61591
 H407 H 0.78546 0.11386 0.65892
 N408 N 0.84587 0.19608 0.64025
 N409 N 0.86099 0.19495 0.65330
 C410 C 0.87382 0.21044 0.64985
 C411 C 0.86634 0.22192 0.63395
 C412 C 0.84861 0.21236 0.62827
 H413 H 0.88743 0.21337 0.65848
 H414 H 0.83860 0.21679 0.61606
 H415 H 0.83181 0.17486 0.66955
 H416 H 0.84711 0.15919 0.65156
 N417 N 1.34723 0.36045 0.69523
 N418 N 1.36224 0.34749 0.69349
 C419 C 1.37561 0.35078 0.70859
 C420 C 1.36854 0.36662 0.72045
 C421 C 1.35046 0.37235 0.71150
 H422 H 1.38933 0.34215 0.71091
 H423 H 1.34058 0.38453 0.71623
 Cu424 Cu 1.36302 0.32735 0.67187
 Cu425 Cu 1.32502 0.36142 0.67596
 Cu426 Cu 1.32295 0.32319 0.64023
 N427 N 1.36064 0.30528 0.65237
 N428 N 1.34457 0.30321 0.64082
 C429 C 1.34671 0.28654 0.62927
 C430 C 1.36531 0.27766 0.63356
 C431 C 1.37370 0.29010 0.64837
 H432 H 1.33578 0.28176 0.61805
 H433 H 1.38807 0.28816 0.65595
 N434 N 1.30260 0.34495 0.64186
 N435 N 1.30371 0.35984 0.65518
 C436 C 1.28860 0.37307 0.65162
 C437 C 1.27735 0.36616 0.63532
 C438 C 1.28663 0.34824 0.62957
 H439 H 1.28601 0.38680 0.66019
 H440 H 1.28248 0.33873 0.61688
 H441 H 1.32633 0.33052 0.67056
 H442 H 1.33932 0.34734 0.65167
 N443 N 1.34645 0.85964 1.19633
 N444 N 1.36225 0.84773 1.19405
 C445 C 1.37578 0.85169 1.20880
 C446 C 1.36803 0.86685 1.22123
 C447 C 1.34927 0.87141 1.21279
 H448 H 1.38998 0.84376 1.21058
 H449 H 1.33866 0.88285 1.21778
 Cu450 Cu 1.36275 0.82759 1.17254
 Cu451 Cu 1.32401 0.85993 1.17693
 Cu452 Cu 1.32526 0.82328 1.13893
 N453 N 1.36320 0.80633 1.15211
 N454 N 1.34789 0.80422 1.13956
 C455 C 1.35110 0.78790 1.12774
 C456 C 1.36961 0.77931 1.13296
 C457 C 1.37683 0.79156 1.14853
 H458 H 1.34085 0.78303 1.11594
 H459 H 1.39067 0.78960 1.15704
 N460 N 1.30382 0.84401 1.14094
 N461 N 1.30306 0.85768 1.15557
 C462 C 1.28714 0.87004 1.15222
 C463 C 1.27757 0.86398 1.13453
 C464 C 1.28855 0.84743 1.12784
 H465 H 1.28330 0.88304 1.16143
 H466 H 1.28577 0.83870 1.11425
 H467 H 1.32609 0.82970 1.16959
 H468 H 1.33940 0.84784 1.15249
 N469 N 0.84679 0.36144 1.19515
 N470 N 0.85982 0.34643 1.19636
 C471 C 0.87209 0.34958 1.21241
 C472 C 0.86672 0.36782 1.22153
 C473 C 0.85057 0.37486 1.21001
 H474 H 0.88443 0.33969 1.21664
 H475 H 0.84183 0.38849 1.21244
 Cu476 Cu 0.85996 0.32514 1.17584
 Cu477 Cu 0.82541 0.36243 1.17480
 Cu478 Cu 0.82518 0.32415 1.13878
 N479 N 0.86014 0.30387 1.15530
 N480 N 0.84621 0.30358 1.14104
 C481 C 0.84942 0.28760 1.12882
 C482 C 0.86632 0.27726 1.13565
 C483 C 0.87281 0.28807 1.15249
 H484 H 0.84032 0.28398 1.11567
 H485 H 0.88566 0.28456 1.16203
 N486 N 0.80518 0.34632 1.13909
 N487 N 0.80503 0.36069 1.15302
 C488 C 0.78940 0.37331 1.14935
 C489 C 0.77937 0.36666 1.13217
 C490 C 0.78981 0.34955 1.12606
 H491 H 0.78578 0.38657 1.15827
 H492 H 0.78629 0.34004 1.11318
 H493 H 0.82425 0.33167 1.16923
 H494 H 0.84129 0.34706 1.15267
 N495 N 0.84723 0.86208 0.69397
 N496 N 0.86043 0.84719 0.69486
 C497 C 0.87315 0.85054 0.71050
 C498 C 0.86768 0.86857 0.71979
 C499 C 0.85117 0.87545 0.70885
 H500 H 0.88561 0.84076 0.71469
 H501 H 0.84243 0.88901 0.71173
 Cu502 Cu 0.85981 0.82507 0.67528
 Cu503 Cu 0.82545 0.86281 0.67412
 Cu504 Cu 0.82355 0.82348 0.63942
 N505 N 0.85934 0.80389 0.65468
 N506 N 0.84480 0.80314 0.64108
 C507 C 0.84776 0.78702 0.62895
 C508 C 0.86517 0.77714 0.63514
 C509 C 0.87218 0.78831 0.65150
 H510 H 0.83818 0.78304 0.61625
 H511 H 0.88551 0.78519 0.66051
 N512 N 0.80349 0.84556 0.64008
 N513 N 0.80449 0.86082 0.65296
 C514 C 0.78903 0.87364 0.64928
 C515 C 0.77767 0.86600 0.63338
 C516 C 0.78729 0.84818 0.62795
 H517 H 0.78602 0.88734 0.65774
 H518 H 0.78297 0.83803 0.61582
 H519 H 0.82392 0.83188 0.66967
 H520 H 0.84062 0.84649 0.65206
 N521 N 0.65468 0.64003 0.69526
 N522 N 0.64106 0.65456 0.69559
 C523 C 0.62859 0.65163 0.71149
 C524 C 0.63463 0.63426 0.72161
 C525 C 0.65123 0.62726 0.71083
 H526 H 0.61585 0.66121 0.71527
 H527 H 0.66028 0.61403 0.71424
 Cu528 Cu 0.64065 0.67573 0.67505
 Cu529 Cu 0.67601 0.63899 0.67485
 Cu530 Cu 0.67548 0.67642 0.63786
 N531 N 0.64014 0.69618 0.65378
 N532 N 0.65411 0.69668 0.63957
 C533 C 0.65040 0.71236 0.62703
 C534 C 0.63304 0.72211 0.63360
 C535 C 0.62691 0.71141 0.65060
 H536 H 0.65938 0.71609 0.61383
 H537 H 0.61388 0.71459 0.66001
 N538 N 0.69585 0.65463 0.63866
 N539 N 0.69628 0.64056 0.65291
 C540 C 0.71196 0.62798 0.64930
 C541 C 0.72172 0.63432 0.63184
 C542 C 0.71109 0.65123 0.62551
 H543 H 0.71574 0.61489 0.65841
 H544 H 0.71431 0.66044 0.61233
 H545 H 0.67649 0.66962 0.66852
 H546 H 0.65966 0.65355 0.65242
 N547 N 0.65387 1.13920 1.19497
 N548 N 0.64092 1.15430 1.19583
 C549 C 0.62867 1.15168 1.21194
 C550 C 0.63405 1.13382 1.22171
 C551 C 0.65013 1.12629 1.21036
 H552 H 0.61642 1.16180 1.21590
 H553 H 0.65881 1.11271 1.21324
 Cu554 Cu 0.64061 1.17520 1.17504
 Cu555 Cu 0.67528 1.13805 1.17454
 Cu556 Cu 0.67535 1.17612 1.13803
 N557 N 0.64018 1.19608 1.15422
 N558 N 0.65411 1.19657 1.13997
 C559 C 0.65045 1.21235 1.12755
 C560 C 0.63311 1.22212 1.13420
 C561 C 0.62694 1.21131 1.15111
 H562 H 0.65938 1.21607 1.11432
 H563 H 0.61389 1.21445 1.16052
 N564 N 0.69548 1.15404 1.13863
 N565 N 0.69563 1.13971 1.15263
 C566 C 0.71128 1.12710 1.14898
 C567 C 0.72130 1.13369 1.13176
 C568 C 0.71085 1.15077 1.12560
 H569 H 0.71494 1.11388 1.15796
 H570 H 0.71434 1.16022 1.11266
 H571 H 0.67633 1.16873 1.16857
 H572 H 0.65943 1.15312 1.15215
 N573 N 0.15459 0.64085 1.19629
 N574 N 0.14225 0.65645 1.19752
 C575 C 0.13006 0.65402 1.21374
 C576 C 0.13480 0.63571 1.22310
 C577 C 0.15049 0.62783 1.21146
 H578 H 0.11811 0.66441 1.21789
 H579 H 0.15859 0.61380 1.21388
 Cu580 Cu 0.14258 0.67719 1.17645
 Cu581 Cu 0.17517 0.63837 1.17509
 Cu582 Cu 0.17382 0.67448 1.13672
 N583 N 0.14133 0.69741 1.15488
 N584 N 0.15311 0.69546 1.13891
 C585 C 0.14869 0.71005 1.12541
 C586 C 0.13334 0.72212 1.13327
 C587 C 0.12913 0.71360 1.15215
 H588 H 0.15646 0.71187 1.11109
 H589 H 0.11760 0.71835 1.16279
 N590 N 0.19370 0.65219 1.13744
 N591 N 0.19458 0.63873 1.15226
 C592 C 0.21029 0.62614 1.14879
 C593 C 0.21963 0.63187 1.13087
 C594 C 0.20868 0.64841 1.12410
 H595 H 0.21456 0.61363 1.15849
 H596 H 0.21174 0.65731 1.11068
 H597 H 0.17724 0.66863 1.16740
 H598 H 0.15828 0.65306 1.15339
 N599 N 0.15324 1.13899 0.69460
 N600 N 0.13978 1.15365 0.69504
 C601 C 0.12754 1.15099 0.71114
 C602 C 0.13334 1.13347 0.72128
 C603 C 0.14974 1.12624 0.71019
 H604 H 0.11498 1.16083 0.71482
 H605 H 0.15886 1.11303 0.71347
 Cu606 Cu 0.13892 1.17442 0.67411
 Cu607 Cu 0.17488 1.13827 0.67447
 Cu608 Cu 0.17535 1.17681 0.63857
 N609 N 0.13914 1.19559 0.65358
 N610 N 0.15399 1.19710 0.64040
 C611 C 0.15078 1.21338 0.62850
 C612 C 0.13266 1.22244 0.63424
 C613 C 0.12574 1.21060 0.65024
 H614 H 0.16053 1.21772 0.61606
 H615 H 0.11215 1.21290 0.65908
 N616 N 0.19556 1.15482 0.63914
 N617 N 0.19553 1.14027 0.65290
 C618 C 0.21110 1.12760 0.64915
 C619 C 0.22125 1.13436 0.63207
 C620 C 0.21096 1.15163 0.62612
 H621 H 0.21456 1.11416 0.65788
 H622 H 0.21451 1.16118 0.61328
 H623 H 0.17511 1.16912 0.66907
 H624 H 0.15938 1.15326 0.65170
 N625 N 1.34801 0.63953 0.30566
 N626 N 1.36175 0.65392 0.30592
 C627 C 1.37454 0.65115 0.29022
 C628 C 1.36855 0.63401 0.27968
 C629 C 1.35168 0.62702 0.28996
 H630 H 1.38733 0.66076 0.28676
 H631 H 1.34249 0.61405 0.28603
 Cu632 Cu 1.36133 0.67485 0.32673
 Cu633 Cu 1.32594 0.63838 0.32521
 Cu634 Cu 1.32460 0.67600 0.36194
 N635 N 1.36095 0.69544 0.34789
 N636 N 1.34592 0.69635 0.36092
 C637 C 1.34854 0.71244 0.37315
 C638 C 1.36643 0.72211 0.36779
 C639 C 1.37393 0.71073 0.35169
 H640 H 1.33841 0.71636 0.38542
 H641 H 1.38749 0.71365 0.34299
 N642 N 1.30448 0.65401 0.36048
 N643 N 1.30485 0.63986 0.34632
 C644 C 1.28913 0.62721 0.34921
 C645 C 1.27845 0.63358 0.36611
 C646 C 1.28864 0.65057 0.37290
 H647 H 1.28586 0.61411 0.33994
 H648 H 1.28464 0.65986 0.38581
 H649 H 1.32518 0.66904 0.33139
 H650 H 1.34106 0.65299 0.34847
 N651 N 1.34865 1.13736 0.80786
 N652 N 1.36017 1.15338 0.80535
 C653 C 1.37151 1.15083 0.78853
 C654 C 1.36691 1.13210 0.78014
 C655 C 1.35230 1.12402 0.79289
 H656 H 1.38272 1.16150 0.78319
 H657 H 1.34487 1.10949 0.79153
 Cu658 Cu 1.36018 1.17513 0.82530
 Cu659 Cu 1.33060 1.13444 0.83100
 Cu660 Cu 1.31989 1.17943 0.85604
 N661 N 1.35879 1.19614 0.84597
 N662 N 1.34284 1.19793 0.85777
 C663 C 1.34535 1.21400 0.87008
 C664 C 1.36401 1.22267 0.86594
 C665 C 1.37212 1.21088 0.85054
 H666 H 1.33445 1.21880 0.88136
 H667 H 1.38647 1.21308 0.84296
 N668 N 1.30289 1.15497 0.85847
 N669 N 1.30741 1.13773 0.84940
 C670 C 1.29349 1.12374 0.85441
 C671 C 1.27949 1.13249 0.86740
 C672 C 1.28598 1.15237 0.86961
 H673 H 1.29346 1.10838 0.84871
 H674 H 1.27917 1.16400 0.87894
 H675 H 1.32490 1.16447 0.82836
 H676 H 1.34035 1.15727 0.85097
 N677 N 0.84773 0.63832 0.80614
 N678 N 0.86091 0.65323 0.80566
 C679 C 0.87346 0.65049 0.78979
 C680 C 0.86791 0.63288 0.77984
 C681 C 0.85154 0.62552 0.79069
 H682 H 0.88577 0.66051 0.78579
 H683 H 0.84272 0.61215 0.78727
 Cu684 Cu 0.86026 0.67485 0.82571
 Cu685 Cu 0.82592 0.63720 0.82603
 Cu686 Cu 0.82392 0.67613 0.86131
 N687 N 0.85973 0.69586 0.84641
 N688 N 0.84513 0.69653 0.85996
 C689 C 0.84800 0.71260 0.87217
 C690 C 0.86542 0.72252 0.86607
 C691 C 0.87251 0.71143 0.84969
 H692 H 0.83834 0.71654 0.88483
 H693 H 0.88584 0.71463 0.84071
 N694 N 0.80393 0.65404 0.86033
 N695 N 0.80497 0.63890 0.84729
 C696 C 0.78949 0.62608 0.85081
 C697 C 0.77808 0.63360 0.86675
 C698 C 0.78769 0.65133 0.87239
 H699 H 0.78648 0.61248 0.84219
 H700 H 0.78332 0.66138 0.88459
 H701 H 0.82436 0.66801 0.83093
 H702 H 0.84091 0.65311 0.84842
 N703 N 0.84782 1.13769 0.30656
 N704 N 0.86015 1.15322 0.30495
 C705 C 0.87121 1.15125 0.28792
 C706 C 0.86568 1.13339 0.27838
 C707 C 0.85079 1.12514 0.29072
 H708 H 0.88290 1.16169 0.28320
 H709 H 0.84272 1.11107 0.28844
 Cu710 Cu 0.86172 1.17360 0.32613
 Cu711 Cu 0.82956 1.13474 0.32964
 Cu712 Cu 0.82135 1.17958 0.35621
 N713 N 0.86087 1.19480 0.34652
 N714 N 0.84493 1.19730 0.35818
 C715 C 0.84801 1.21336 0.37041
 C716 C 0.86706 1.22122 0.36632
 C717 C 0.87474 1.20902 0.35103
 H718 H 0.83727 1.21871 0.38159
 H719 H 0.88920 1.21057 0.34351
 N720 N 0.80316 1.15593 0.35794
 N721 N 0.80661 1.13872 0.34832
 C722 C 0.79189 1.12542 0.35304
 C723 C 0.77849 1.13465 0.36635
 C724 C 0.78619 1.15401 0.36910
 H725 H 0.79087 1.11026 0.34693
 H726 H 0.78014 1.16575 0.37880
 H727 H 0.82588 1.16508 0.32822
 H728 H 0.84038 1.15605 0.35079
 N729 N 0.65304 0.36144 0.30588
 N730 N 0.63967 0.34674 0.30494
 C731 C 0.62737 0.35001 0.28894
 C732 C 0.63310 0.36800 0.27955
 C733 C 0.64946 0.37478 0.29088
 H734 H 0.61481 0.34035 0.28486
 H735 H 0.65857 0.38810 0.28814
 Cu736 Cu 0.63924 0.32558 0.32558
 Cu737 Cu 0.67478 0.36179 0.32576
 Cu738 Cu 0.67554 0.32302 0.36131
 N739 N 0.63932 0.30425 0.34601
 N740 N 0.65401 0.30287 0.35939
 C741 C 0.65069 0.28672 0.37141
 C742 C 0.63268 0.27756 0.36554
 C743 C 0.62592 0.28924 0.34933
 H744 H 0.66032 0.28252 0.38399
 H745 H 0.61240 0.28689 0.34041
 N746 N 0.69587 0.34494 0.36069
 N747 N 0.69562 0.35952 0.34696
 C748 C 0.71148 0.37189 0.35014
 C749 C 0.72218 0.36492 0.36676
 C750 C 0.71181 0.34785 0.37315
 H751 H 0.71492 0.38518 0.34119
 H752 H 0.71579 0.33814 0.38575
 H753 H 0.67534 0.33084 0.33102
 H754 H 0.65940 0.34642 0.34846
 N755 N 0.65468 0.86019 0.80463
 N756 N 0.63971 0.84710 0.80555
 C757 C 0.62687 0.85061 0.79003
 C758 C 0.63430 0.86668 0.77873
 C759 C 0.65198 0.87235 0.78847
 H760 H 0.61334 0.84194 0.78695
 H761 H 0.66197 0.88464 0.78431
 Cu762 Cu 0.63922 0.82641 0.82662
 Cu763 Cu 0.67635 0.86108 0.82473
 Cu764 Cu 0.67505 0.82452 0.86255
 N765 N 0.63873 0.80560 0.84759
 N766 N 0.65319 0.80479 0.86128
 C767 C 0.65016 0.78867 0.87337
 C768 C 0.63281 0.77881 0.86703
 C769 C 0.62587 0.79003 0.85066
 H770 H 0.65984 0.78448 0.88593
 H771 H 0.61278 0.78674 0.84138
 N772 N 0.69591 0.84578 0.86122
 N773 N 0.69671 0.85943 0.84659
 C774 C 0.71258 0.87180 0.85001
 C775 C 0.72208 0.86575 0.86773
 C776 C 0.71110 0.84921 0.87440
 H777 H 0.71658 0.88466 0.84067
 H778 H 0.71400 0.84032 0.88787
 H779 H 0.67550 0.83067 0.83178
 H780 H 0.66012 0.84801 0.84803
 N781 N 0.15267 0.36047 0.80582
 N782 N 0.13876 0.34624 0.80623
 C783 C 0.12597 0.34903 0.79054
 C784 C 0.13208 0.36607 0.77990
 C785 C 0.14904 0.37297 0.79010
 H786 H 0.11309 0.33952 0.78717
 H787 H 0.15831 0.38584 0.78609
 Cu788 Cu 0.13908 0.32539 0.82713
 Cu789 Cu 0.17480 0.36147 0.82535
 Cu790 Cu 0.17594 0.32380 0.86210
 N791 N 0.13938 0.30467 0.84817
 N792 N 0.15449 0.30356 0.86109
 C793 C 0.15186 0.28737 0.87318
 C794 C 0.13393 0.27779 0.86779
 C795 C 0.12640 0.28935 0.85184
 H796 H 0.16204 0.28327 0.88533
 H797 H 0.11282 0.28653 0.84316
 N798 N 0.19619 0.34569 0.86061
 N799 N 0.19592 0.35983 0.84643
 C800 C 0.21173 0.37238 0.84931
 C801 C 0.22235 0.36596 0.86622
 C802 C 0.21205 0.34904 0.87303
 H803 H 0.21509 0.38546 0.84002
 H804 H 0.21598 0.33974 0.88596
 H805 H 0.17531 0.33084 0.83159
 H806 H 0.15972 0.34703 0.84874
 N807 N 0.15285 0.86016 0.30610
 N808 N 0.13878 0.84610 0.30662
 C809 C 0.12609 0.84888 0.29085
 C810 C 0.13246 0.86570 0.28002
 C811 C 0.14947 0.87249 0.29018
 H812 H 0.11306 0.83952 0.28757
 H813 H 0.15892 0.88522 0.28607
 Cu814 Cu 0.13825 0.82563 0.32791
 Cu815 Cu 0.17482 0.86114 0.32569
 Cu816 Cu 0.17586 0.82365 0.36242
 N817 N 0.13935 0.80452 0.34855
 N818 N 0.15452 0.80338 0.36139
 C819 C 0.15203 0.78705 0.37334
 C820 C 0.13410 0.77744 0.36797
 C821 C 0.12647 0.78910 0.35214
 H822 H 0.16229 0.78292 0.38543
 H823 H 0.11283 0.78636 0.34352
 N824 N 0.19607 0.84553 0.36102
 N825 N 0.19583 0.85962 0.34680
 C826 C 0.21164 0.87216 0.34965
 C827 C 0.22225 0.86579 0.36658
 C828 C 0.21192 0.84890 0.37345
 H829 H 0.21502 0.88520 0.34031
 H830 H 0.21584 0.83963 0.38640
 H831 H 0.17464 0.83038 0.33180
 H832 H 0.15964 0.84697 0.34923
 O833 O 0.98039 0.92719 0.89866
 O834 O 0.98043 0.90360 0.87495
 C835 C 0.97339 0.91999 0.88222
 C836 C 0.95635 0.93040 0.87194
 C837 C 0.94859 0.92295 0.85354
 H838 H 0.95603 0.91031 0.84616
 O839 O 1.01949 1.07244 0.89782
 O840 O 1.01937 1.09587 0.87394
 C841 C 1.02637 1.07947 0.88124
 C842 C 1.04342 1.06908 0.87092
 C843 C 1.05166 1.07714 0.85301
 H844 H 1.04415 1.08981 0.84578
 O845 O 0.89891 0.97993 0.92779
 O846 O 0.87505 0.97994 0.90437
 C847 C 0.88240 0.97297 0.92077
 C848 C 0.87213 0.95604 0.93134
 C849 C 0.85382 0.94821 0.92385
 H850 H 0.84648 0.95560 0.91115
 O851 O 1.10108 1.01961 0.92639
 O852 O 1.12491 1.01948 0.90293
 C853 C 1.11758 1.02654 0.91931
 C854 C 1.12794 1.04343 0.92987
 C855 C 1.14608 1.05145 0.92216
 H856 H 1.15273 1.04490 0.90864
 O857 O 0.92800 0.89858 0.98057
 O858 O 0.90455 0.87481 0.98061
 C859 C 0.92089 0.88213 0.97356
 C860 C 0.93119 0.87190 0.95639
 C861 C 0.92300 0.85414 0.94806
 H862 H 0.91009 0.84710 0.95532
 O863 O 1.07271 1.10046 0.97970
 O864 O 1.09623 1.12415 0.97971
 C865 C 1.07986 1.11689 0.97267
 C866 C 1.06961 1.12719 0.95550
 C867 C 1.07772 1.14508 0.94733
 H868 H 1.09045 1.15218 0.95484
 O869 O 0.92662 1.01925 0.89959
 O870 O 0.90277 1.01925 0.87616
 C871 C 0.91930 1.02618 0.88315
 C872 C 0.92964 1.04304 0.87252
 C873 C 0.92146 1.05107 0.85457
 H874 H 0.90844 1.04382 0.84773
 O875 O 1.07339 0.98021 0.89836
 O876 O 1.09710 0.98012 0.87478
 C877 C 1.08062 0.97321 0.88191
 C878 C 1.07005 0.95643 0.87136
 C879 C 1.07778 0.94843 0.85317
 H880 H 1.09140 0.95485 0.84667
 O881 O 1.02012 0.89978 0.92650
 O882 O 1.02022 0.87607 0.90292
 C883 C 1.02717 0.88334 0.91938
 C884 C 1.04392 0.87286 0.93008
 C885 C 1.05190 0.85468 0.92238
 H886 H 1.04559 0.84829 0.90863
 O887 O 0.98053 1.10093 0.92580
 O888 O 0.98047 1.12444 0.90199
 C889 C 0.97359 1.11739 0.91856
 C890 C 0.95686 1.12799 0.92918
 C891 C 0.94817 1.14561 0.92087
 H892 H 0.95408 1.15173 0.90681
 O893 O 0.90045 1.07402 0.98016
 O894 O 0.87696 1.09780 0.98019
 C895 C 0.88405 1.08131 0.97318
 C896 C 0.87338 1.07073 0.95643
 C897 C 0.85525 1.07856 0.94846
 H898 H 0.84903 1.09240 0.95474
 O899 O 1.10090 0.92680 0.98072
 O900 O 1.12438 0.90303 0.98055
 C901 C 1.11725 0.91954 0.97362
 C902 C 1.12765 0.93002 0.95663
 C903 C 1.14598 0.92245 0.94884
 H904 H 1.15318 0.90969 0.95623
 O905 O 0.97990 1.07275 0.89855
 O906 O 0.97972 1.09620 0.87469
 C907 C 0.97267 1.07991 0.88219
 C908 C 0.95549 1.06952 0.87218
 C909 C 0.94673 1.07765 0.85452
 H910 H 0.95280 1.09149 0.84813
 O911 O 1.01992 0.92713 0.89826
 O912 O 1.01999 0.90349 0.87460
 C913 C 1.02687 0.91998 0.88175
 C914 C 1.04363 0.93054 0.87120
 C915 C 1.05134 0.92299 0.85282
 H916 H 1.04402 0.91017 0.84566
 O917 O 1.10065 0.97995 0.92657
 O918 O 1.12442 0.97981 0.90306
 C919 C 1.11705 0.97282 0.91946
 C920 C 1.12738 0.95589 0.93005
 C921 C 1.14545 0.94781 0.92224
 H922 H 1.15181 0.95418 0.90850
 O923 O 0.89914 1.01958 0.92762
 O924 O 0.87525 1.01958 0.90424
 C925 C 0.88268 1.02664 0.92056
 C926 C 0.87254 1.04378 0.93098
 C927 C 0.85417 1.05156 0.92356
 H928 H 0.84672 1.04399 0.91105
 O929 O 0.92831 1.10165 0.98024
 O930 O 0.90483 1.12543 0.98034
 C931 C 0.92118 1.11813 0.97327
 C932 C 0.93145 1.12842 0.95614
 C933 C 0.92325 1.14622 0.94786
 H934 H 0.91030 1.15324 0.95510
 O935 O 1.07302 0.89919 0.98093
 O936 O 1.09643 0.87536 0.98083
 C937 C 1.08004 0.88270 0.97389
 C938 C 1.06951 0.87238 0.95692
 C939 C 1.07697 0.85398 0.94921
 H940 H 1.08961 0.84666 0.95670
 O941 O 1.07350 1.01982 0.89853
 O942 O 1.09729 1.01980 0.87503
 C943 C 1.08086 1.02687 0.88216
 C944 C 1.07047 1.04382 0.87167
 C945 C 1.07897 1.05265 0.85420
 H946 H 1.09321 1.04688 0.84847
 O947 O 0.92635 0.97969 0.89970
 O948 O 0.90254 0.97969 0.87624
 C949 C 0.91904 0.97271 0.88329
 C950 C 0.92959 0.95598 0.87262
 C951 C 0.92183 0.94810 0.85441
 H952 H 0.90811 0.95449 0.84807
 O953 O 1.02009 1.10026 0.92550
 O954 O 1.02013 1.12374 0.90167
 C955 C 1.02722 1.11654 0.91810
 C956 C 1.04427 1.12682 0.92849
 C957 C 1.05307 1.14434 0.92012
 H958 H 1.04722 1.15032 0.90599
 O959 O 0.98052 0.89923 0.92617
 O960 O 0.98056 0.87558 0.90252
 C961 C 0.97354 0.88279 0.91896
 C962 C 0.95666 0.87234 0.92947
 C963 C 0.94791 0.85482 0.92107
 H964 H 0.95382 0.84878 0.90698
 O965 O 1.10076 1.07292 0.97987
 O966 O 1.12427 1.09663 0.97985
 C967 C 1.11720 1.08013 0.97292
 C968 C 1.12778 1.06959 0.95612
 C969 C 1.14606 1.07726 0.94833
 H970 H 1.15305 1.09025 0.95550
 O971 O 0.89991 0.92597 0.98063
 O972 O 0.87643 0.90223 0.98069
 C973 C 0.88349 0.91872 0.97370
 C974 C 0.87282 0.92931 0.95699
 C975 C 0.85472 0.92146 0.94903
 H976 H 0.84847 0.90768 0.95538
 Cu977 Cu 1.00024 0.91569 0.91476
 Cu978 Cu 1.00034 0.88729 0.88639
 Cu979 Cu 1.00001 1.08425 0.91430
 Cu980 Cu 0.99992 1.11240 0.88566
 Cu981 Cu 0.91513 0.99960 0.91604
 Cu982 Cu 0.88649 0.99962 0.88791
 Cu983 Cu 1.08477 0.99991 0.91481
 Cu984 Cu 1.11333 0.99977 0.88660
 C985 C 0.94691 0.94709 0.88120
 H986 H 0.95271 0.95279 0.89548
 C987 C 0.93123 0.93159 0.84469
 C988 C 1.05271 1.05218 0.87991
 H989 H 1.04647 1.04593 0.89377
 C990 C 1.06971 1.06937 0.84468
 C991 C 0.88135 0.94666 0.94810
 H992 H 0.89556 0.95250 0.95383
 C993 C 0.84505 0.93079 0.93245
 C994 C 1.11900 1.05253 0.94694
 H995 H 1.10479 1.04669 0.95271
 C996 C 1.15529 1.06838 0.93127
 C997 C 0.94821 0.88073 0.94717
 H998 H 0.95447 0.89456 0.95340
 C999 C 0.93098 0.84564 0.93019
 C1000 C 1.05268 1.11837 0.94617
 H1001 H 1.04640 1.10452 0.95235
 C1002 C 1.06987 1.15363 0.92940
 C1003 C 0.94685 1.05218 0.88104
 H1004 H 0.95315 1.04616 0.89497
 C1005 C 0.92967 1.06855 0.84557
 C1006 C 1.05291 0.94744 0.88018
 H1007 H 1.04715 0.95322 0.89446
 C1008 C 1.06855 0.93169 0.84373
 C1009 C 1.05280 0.88156 0.94741
 H1010 H 1.04707 0.89584 0.95315
 C1011 C 1.06842 0.84507 0.93182
 C1012 C 0.94844 1.11959 0.94687
 H1013 H 0.95468 1.10571 0.95305
 C1014 C 0.93125 1.15479 0.93004
 C1015 C 0.88187 1.05330 0.94760
 H1016 H 0.89610 1.04746 0.95332
 C1017 C 0.84544 1.06907 0.93204
 C1018 C 1.11863 0.94693 0.94730
 H1019 H 1.10443 0.95277 0.95311
 C1020 C 1.15496 0.93113 0.93152
 O1021 O 1.02015 0.92732 1.10188
 O1022 O 1.02007 0.90380 1.12568
 C1023 C 1.02718 0.92010 1.11832
 C1024 C 1.04443 0.93022 1.12850
 C1025 C 1.05265 0.92200 1.14634
 H1026 H 1.04525 0.90921 1.15347
 O1027 O 0.98101 1.07210 1.10171
 O1028 O 0.98103 1.09560 1.12551
 C1029 C 0.97399 1.07923 1.11818
 C1030 C 0.95681 1.06898 1.12837
 C1031 C 0.94852 1.07709 1.14623
 H1032 H 0.95585 1.08989 1.15342
 O1033 O 0.89899 1.01990 1.07267
 O1034 O 0.87515 1.02001 1.09612
 C1035 C 0.88253 1.02696 1.07972
 C1036 C 0.87234 1.04398 1.06917
 C1037 C 0.85400 1.05185 1.07660
 H1038 H 0.84660 1.04444 1.08925
 O1039 O 1.10214 0.98018 1.07335
 O1040 O 1.12600 0.98031 1.09677
 C1041 C 1.11873 0.97335 1.08034
 C1042 C 1.12914 0.95653 1.06970
 C1043 C 1.14740 0.94861 1.07725
 H1044 H 1.15466 0.95591 1.09004
 O1045 O 1.07330 0.89932 1.02073
 O1046 O 1.09673 0.87550 1.02062
 C1047 C 1.08044 0.88288 1.02778
 C1048 C 1.06997 0.87257 1.04483
 C1049 C 1.07775 0.85448 1.05298
 H1050 H 1.09142 0.84807 1.04658
 O1051 O 0.92842 1.10139 1.01997
 O1052 O 0.90495 1.12518 1.02004
 C1053 C 0.92131 1.11782 1.02706
 C1054 C 0.93162 1.12796 1.04428
 C1055 C 0.92355 1.14581 1.05262
 H1056 H 0.91078 1.15300 1.04527
 O1057 O 0.92644 0.98030 1.10072
 O1058 O 0.90270 0.98041 1.12427
 C1059 C 0.91917 0.97339 1.11718
 C1060 C 0.92973 0.95669 1.12790
 C1061 C 0.92184 0.94874 1.14603
 H1062 H 0.90796 0.95500 1.15214
 O1063 O 1.07398 1.01903 1.10169
 O1064 O 1.09767 1.01906 1.12529
 C1065 C 1.08112 1.02590 1.11822
 C1066 C 1.07050 1.04258 1.12885
 C1067 C 1.07808 1.05028 1.14721
 H1068 H 1.09091 1.04295 1.15433
 O1069 O 0.98033 0.89957 1.07448
 O1070 O 0.98030 0.87607 1.09829
 C1071 C 0.97336 0.88316 1.08176
 C1072 C 0.95671 0.87249 1.07118
 C1073 C 0.94877 0.85439 1.07907
 H1074 H 0.95506 0.84815 1.09291
 O1075 O 1.02045 1.10007 1.07403
 O1076 O 1.02057 1.12360 1.09779
 C1077 C 1.02748 1.11646 1.08126
 C1078 C 1.04427 1.12692 1.07064
 C1079 C 1.05293 1.14456 1.07887
 H1080 H 1.04705 1.15065 1.09295
 O1081 O 0.89999 0.92607 1.02027
 O1082 O 0.87654 0.90230 1.02033
 C1083 C 0.88359 0.91882 1.02726
 C1084 C 0.87291 0.92945 1.04395
 C1085 C 0.85475 0.92168 1.05187
 H1086 H 0.84848 0.90791 1.04555
 O1087 O 1.10054 1.07287 1.01956
 O1088 O 1.12403 1.09660 1.01946
 C1089 C 1.11693 1.08016 1.02653
 C1090 C 1.12741 1.06991 1.04359
 C1091 C 1.14528 1.07814 1.05166
 H1092 H 1.15214 1.09113 1.04435
 O1093 O 1.02062 1.07242 1.10191
 O1094 O 1.02065 1.09591 1.12571
 C1095 C 1.02766 1.07954 1.11838
 C1096 C 1.04454 1.06899 1.12878
 C1097 C 1.05261 1.07673 1.14692
 H1098 H 1.04620 1.09037 1.15342
 O1099 O 0.98053 0.92765 1.10196
 O1100 O 0.98045 0.90419 1.12582
 C1101 C 0.97352 0.92062 1.11849
 C1102 C 0.95657 0.93119 1.12877
 C1103 C 0.94880 0.92384 1.14722
 H1104 H 0.95636 0.91134 1.15469
 O1105 O 1.10133 1.01977 1.07361
 O1106 O 1.12509 1.02000 1.09712
 C1107 C 1.11763 1.02703 1.08078
 C1108 C 1.12764 1.04420 1.07031
 C1109 C 1.14524 1.05298 1.07844
 H1110 H 1.15159 1.04695 1.09234
 O1111 O 0.89887 0.98029 1.07282
 O1112 O 0.87506 0.98038 1.09630
 C1113 C 0.88240 0.97332 1.07993
 C1114 C 0.87216 0.95630 1.06948
 C1115 C 0.85380 0.94855 1.07693
 H1116 H 0.84641 0.95603 1.08955
 O1117 O 1.07273 1.10058 1.01946
 O1118 O 1.09623 1.12430 1.01938
 C1119 C 1.07987 1.11703 1.02645
 C1120 C 1.06960 1.12734 1.04358
 C1121 C 1.07770 1.14522 1.05175
 H1122 H 1.09054 1.15229 1.04437
 O1123 O 0.92784 0.89843 1.02026
 O1124 O 0.90443 0.87461 1.02030
 C1125 C 0.92078 0.88196 1.02729
 C1126 C 0.93123 0.87172 1.04433
 C1127 C 0.92374 0.85342 1.05221
 H1128 H 0.91110 0.84606 1.04480
 O1129 O 1.07453 0.97951 1.10123
 O1130 O 1.09831 0.97945 1.12472
 C1131 C 1.08190 0.97240 1.11755
 C1132 C 1.07149 0.95543 1.12796
 C1133 C 1.07981 0.94664 1.14553
 H1134 H 1.09389 0.95247 1.15157
 O1135 O 0.92647 1.01988 1.10069
 O1136 O 0.90268 1.02006 1.12418
 C1137 C 0.91919 1.02695 1.11708
 C1138 C 0.92973 1.04375 1.12763
 C1139 C 0.92138 1.05244 1.14523
 H1140 H 0.90725 1.04662 1.15117
 O1141 O 0.98088 1.10029 1.07440
 O1142 O 0.98094 1.12383 1.09816
 C1143 C 0.97389 1.11669 1.08171
 C1144 C 0.95699 1.12722 1.07127
 C1145 C 0.94829 1.14475 1.07974
 H1146 H 0.95418 1.15062 1.09390
 O1147 O 1.01984 0.89951 1.07417
 O1148 O 1.01981 0.87596 1.09793
 C1149 C 1.02674 0.88304 1.08138
 C1150 C 1.04354 0.87248 1.07082
 C1151 C 1.05122 0.85411 1.07840
 H1152 H 1.04378 0.84696 1.09117
 O1153 O 1.10136 0.92667 1.02037
 O1154 O 1.12483 0.90288 1.02022
 C1155 C 1.11781 0.91939 1.02723
 C1156 C 1.12852 0.92992 1.04393
 C1157 C 1.14658 0.92197 1.05195
 H1158 H 1.15281 0.90818 1.04559
 O1159 O 0.90030 1.07403 1.01986
 O1160 O 0.87682 1.09781 1.01987
 C1161 C 0.88388 1.08130 1.02683
 C1162 C 0.87317 1.07073 1.04353
 C1163 C 0.85505 1.07862 1.05144
 H1164 H 0.84884 1.09242 1.04509
 Cu1165 Cu 1.00019 0.91589 1.08576
 Cu1166 Cu 1.00014 0.88767 1.11434
 Cu1167 Cu 1.00075 1.08386 1.08564
 Cu1168 Cu 1.00081 1.11208 1.11419
 Cu1169 Cu 0.91630 0.91464 1.00044
 Cu1170 Cu 0.88815 0.88608 1.00048
 Cu1171 Cu 1.08478 0.91536 1.00071
 Cu1172 Cu 1.11292 0.88678 1.00052
 Cu1173 Cu 0.91673 1.08540 1.00005
 Cu1174 Cu 0.88856 1.11396 1.00012
 Cu1175 Cu 1.08432 1.08433 0.99963
 Cu1176 Cu 1.11253 1.11281 0.99959
 Cu1177 Cu 0.91506 1.00008 1.08436
 Cu1178 Cu 0.88650 1.00023 1.11258
 Cu1179 Cu 1.08563 0.99960 1.08511
 Cu1180 Cu 1.11418 0.99972 1.11333
 C1181 C 1.05378 0.94711 1.11959
 H1182 H 1.04758 0.95343 1.10574
 C1183 C 1.07053 0.92984 1.15483
 C1184 C 0.94749 1.05210 1.11936
 H1185 H 0.95369 1.04587 1.10547
 C1186 C 0.93061 1.06919 1.15463
 C1187 C 0.88164 1.05335 1.05244
 H1188 H 0.89587 1.04747 1.04674
 C1189 C 0.84528 1.06930 1.06797
 C1190 C 1.12000 0.94726 1.05285
 H1191 H 1.10581 0.95316 1.04709
 C1192 C 1.15618 0.93119 1.06862
 C1193 C 1.05283 0.88141 1.05384
 H1194 H 1.04706 0.89563 1.04798
 C1195 C 1.06847 0.84502 1.06974
 C1196 C 0.94854 1.11896 1.05353
 H1197 H 0.95474 1.10510 1.04727
 C1198 C 0.93148 1.15416 1.07060
 C1199 C 0.94713 0.94783 1.11942
 H1200 H 0.95297 0.95351 1.10514
 C1201 C 0.93127 0.93234 1.15592
 C1202 C 1.05354 1.05185 1.11992
 H1203 H 1.04773 1.04611 1.10566
 C1204 C 1.06938 1.06748 1.15632
 C1205 C 0.94790 0.88098 1.05375
 H1206 H 0.95363 0.89520 1.04786
 C1207 C 0.93227 0.84469 1.06972
 C1208 C 1.05269 1.11847 1.05295
 H1209 H 1.04648 1.10456 1.04685
 C1210 C 1.06974 1.15381 1.06958
 C1211 C 0.88143 0.94681 1.05280
 H1212 H 0.89568 0.95260 1.04709
 C1213 C 0.84501 0.93112 1.06836
 C1214 C 1.11886 1.05276 1.05285
 H1215 H 1.10498 1.04644 1.04681
 C1216 C 1.15419 1.07001 1.06926
 O1217 O 0.98034 0.42743 0.39837
 O1218 O 0.98042 0.40399 0.37452
 C1219 C 0.97340 0.42036 0.38185
 C1220 C 0.95639 0.43081 0.37158
 C1221 C 0.94863 0.42338 0.35318
 H1222 H 0.95627 0.41093 0.34571
 O1223 O 1.02045 0.57192 0.39813
 O1224 O 1.02039 0.59537 0.37428
 C1225 C 1.02744 0.57902 0.38163
 C1226 C 1.04463 0.56879 0.37142
 C1227 C 1.05295 0.57702 0.35363
 H1228 H 1.04548 0.58975 0.34647
 O1229 O 0.89857 0.47997 0.42762
 O1230 O 0.87485 0.48011 0.40406
 C1231 C 0.88211 0.47305 0.42047
 C1232 C 0.87182 0.45598 0.43081
 C1233 C 0.85403 0.44766 0.42267
 H1234 H 0.84696 0.45489 0.40973
 O1235 O 1.10187 0.51939 0.42745
 O1236 O 1.12568 0.51925 0.40397
 C1237 C 1.11835 0.52631 0.42035
 C1238 C 1.12856 0.54340 0.43069
 C1239 C 1.14639 0.55166 0.42257
 H1240 H 1.15351 0.54435 0.40971
 O1241 O 0.92738 0.39862 0.47994
 O1242 O 0.90399 0.37479 0.48001
 C1243 C 0.92030 0.38215 0.47293
 C1244 C 0.93073 0.37193 0.45584
 C1245 C 0.92315 0.35369 0.44790
 H1246 H 0.91040 0.34642 0.45522
 O1247 O 1.07272 0.60054 0.48045
 O1248 O 1.09618 0.62429 0.48051
 C1249 C 1.07980 0.61702 0.47348
 C1250 C 1.06950 0.62728 0.45632
 C1251 C 1.07750 0.64523 0.44820
 H1252 H 1.09005 0.65248 0.45585
 O1253 O 0.92649 0.51935 0.39971
 O1254 O 0.90278 0.51949 0.37613
 C1255 C 0.91931 0.52634 0.38324
 C1256 C 0.92999 0.54293 0.37251
 C1257 C 0.92221 0.55077 0.35429
 H1258 H 0.90844 0.54444 0.34802
 O1259 O 1.07416 0.48003 0.39944
 O1260 O 1.09788 0.47990 0.37586
 C1261 C 1.08136 0.47303 0.38299
 C1262 C 1.07070 0.45637 0.37235
 C1263 C 1.07846 0.44843 0.35415
 H1264 H 1.09222 0.45472 0.34783
 O1265 O 1.01975 0.39950 0.42619
 O1266 O 1.01987 0.37598 0.40241
 C1267 C 1.02673 0.38307 0.41897
 C1268 C 1.04335 0.37241 0.42970
 C1269 C 1.05118 0.35414 0.42205
 H1270 H 1.04481 0.34772 0.40834
 O1271 O 0.98093 0.60011 0.42569
 O1272 O 0.98093 0.62356 0.40183
 C1273 C 0.97395 0.61651 0.41836
 C1274 C 0.95713 0.62710 0.42883
 C1275 C 0.94846 0.64466 0.42037
 H1276 H 0.95439 0.65063 0.40625
 O1277 O 0.90015 0.57397 0.48004
 O1278 O 0.87672 0.59780 0.47996
 C1279 C 0.88375 0.58126 0.47304
 C1280 C 0.87306 0.57066 0.45636
 C1281 C 0.85493 0.57851 0.44840
 H1282 H 0.84865 0.59230 0.45472
 O1283 O 1.10087 0.42577 0.48001
 O1284 O 1.12419 0.40184 0.48006
 C1285 C 1.11716 0.41830 0.47296
 C1286 C 1.12770 0.42861 0.45597
 C1287 C 1.14524 0.42012 0.44733
 H1288 H 1.15109 0.40600 0.45330
 O1289 O 0.98084 0.57190 0.39836
 O1290 O 0.98079 0.59531 0.37445
 C1291 C 0.97380 0.57895 0.38186
 C1292 C 0.95677 0.56846 0.37167
 C1293 C 0.94897 0.57584 0.35325
 H1294 H 0.95637 0.58845 0.34580
 O1295 O 1.01991 0.42741 0.39853
 O1296 O 1.02001 0.40396 0.37468
 C1297 C 1.02696 0.42034 0.38204
 C1298 C 1.04393 0.43084 0.37174
 C1299 C 1.05165 0.42340 0.35332
 H1300 H 1.04418 0.41079 0.34595
 O1301 O 1.10193 0.47979 0.42721
 O1302 O 1.12569 0.47963 0.40369
 C1303 C 1.11834 0.47267 0.42009
 C1304 C 1.12847 0.45549 0.43047
 C1305 C 1.14635 0.44717 0.42248
 H1306 H 1.15358 0.45453 0.40971
 O1307 O 0.89883 0.51959 0.42755
 O1308 O 0.87507 0.51973 0.40402
 C1309 C 0.88243 0.52671 0.42041
 C1310 C 0.87227 0.54380 0.43084
 C1311 C 0.85398 0.55166 0.42333
 H1312 H 0.84660 0.54424 0.41068
 O1313 O 0.92839 0.60121 0.48003
 O1314 O 0.90497 0.62505 0.47992
 C1315 C 0.92133 0.61766 0.47294
 C1316 C 0.93168 0.62780 0.45576
 C1317 C 0.92357 0.64559 0.44737
 H1318 H 0.91067 0.65271 0.45459
 O1319 O 1.07256 0.39871 0.48034
 O1320 O 1.09584 0.37472 0.48044
 C1321 C 1.07950 0.38214 0.47343
 C1322 C 1.06892 0.37182 0.45651
 C1323 C 1.07629 0.35339 0.44885
 H1324 H 1.08892 0.34603 0.45631
 O1325 O 1.07480 0.51965 0.39906
 O1326 O 1.09858 0.51957 0.37556
 C1327 C 1.08216 0.52667 0.38267
 C1328 C 1.07177 0.54362 0.37214
 C1329 C 1.08028 0.55254 0.35470
 H1330 H 1.09451 0.54682 0.34889
 O1331 O 0.92611 0.47977 0.39963
 O1332 O 0.90242 0.47991 0.37604
 C1333 C 0.91885 0.47286 0.38317
 C1334 C 0.92941 0.45614 0.37248
 C1335 C 0.92151 0.44810 0.35440
 H1336 H 0.90757 0.45427 0.34833
 O1337 O 1.02052 0.59977 0.42579
 O1338 O 1.02060 0.62325 0.40196
 C1339 C 1.02758 0.61611 0.41847
 C1340 C 1.04444 0.62658 0.42902
 C1341 C 1.05321 0.64412 0.42068
 H1342 H 1.04749 0.64995 0.40643
 O1343 O 0.98019 0.39948 0.42594
 O1344 O 0.98028 0.37598 0.40214
 C1345 C 0.97324 0.38308 0.41863
 C1346 C 0.95644 0.37250 0.42914
 C1347 C 0.94843 0.35443 0.42122
 H1348 H 0.95480 0.34809 0.40747
 O1349 O 1.10106 0.57341 0.48010
 O1350 O 1.12454 0.59715 0.48012
 C1351 C 1.11742 0.58073 0.47306
 C1352 C 1.12792 0.57032 0.45613
 C1353 C 1.14549 0.57869 0.44744
 H1354 H 1.15147 0.59276 0.45337
 O1355 O 0.89934 0.42602 0.48018
 O1356 O 0.87591 0.40223 0.48024
 C1357 C 0.88296 0.41871 0.47323
 C1358 C 0.87240 0.42916 0.45637
 C1359 C 0.85487 0.42075 0.44769
 H1360 H 0.84893 0.40667 0.45365
 Cu1361 Cu 1.00004 0.41582 0.41463
 Cu1362 Cu 1.00017 0.38763 0.38604
 Cu1363 Cu 1.00067 0.58358 0.41438
 Cu1364 Cu 1.00067 0.61171 0.38573
 Cu1365 Cu 0.91486 0.49965 0.41601
 Cu1366 Cu 0.88638 0.49984 0.38772
 Cu1367 Cu 1.08581 0.49973 0.41564
 Cu1368 Cu 1.11436 0.49955 0.38743
 C1369 C 0.94688 0.44741 0.38092
 H1370 H 0.95274 0.45317 0.39516
 C1371 C 0.93102 0.43174 0.34451
 C1372 C 1.05394 0.55188 0.38036
 H1373 H 1.04765 0.54553 0.39416
 C1374 C 1.07103 0.56936 0.34532
 C1375 C 0.88070 0.44682 0.44786
 H1376 H 0.89453 0.45304 0.45409
 C1377 C 0.84556 0.42984 0.43077
 C1378 C 1.11962 0.55265 0.44766
 H1379 H 1.10576 0.54645 0.45388
 C1380 C 1.15482 0.56951 0.43058
 C1381 C 0.94754 0.38106 0.44651
 H1382 H 0.95334 0.39522 0.45244
 C1383 C 0.93177 0.34488 0.43048
 C1384 C 1.05273 0.61827 0.44684
 H1385 H 1.04653 0.60437 0.45298
 C1386 C 1.06982 0.65361 0.43012
 C1387 C 0.94733 0.55182 0.38103
 H1388 H 0.95313 0.54616 0.39534
 C1389 C 0.93157 0.56721 0.34449
 C1390 C 1.05338 0.44751 0.38098
 H1391 H 1.04762 0.45322 0.39528
 C1392 C 1.06905 0.43193 0.34447
 C1393 C 1.05226 0.38107 0.44701
 H1394 H 1.04663 0.39540 0.45272
 C1395 C 1.06767 0.34450 0.43150
 C1396 C 0.94866 0.61884 0.44657
 H1397 H 0.95486 0.60499 0.45285
 C1398 C 0.93157 0.65397 0.42946
 C1399 C 0.88154 0.55324 0.44753
 H1400 H 0.89575 0.54737 0.45328
 C1401 C 0.84524 0.56913 0.43187
 C1402 C 1.11946 0.44630 0.44743
 H1403 H 1.10560 0.45257 0.45361
 C1404 C 1.15472 0.42925 0.43051
 O1405 O 1.01933 0.42740 0.60176
 O1406 O 1.01923 0.40385 0.62552
 C1407 C 1.02625 0.42025 0.61827
 C1408 C 1.04329 0.43052 0.62864
 C1409 C 1.05146 0.42234 0.64652
 H1410 H 1.04410 0.40949 0.65359
 O1411 O 0.98048 0.57257 0.60137
 O1412 O 0.98055 0.59604 0.62520
 C1413 C 0.97349 0.57970 0.61786
 C1414 C 0.95636 0.56944 0.62808
 C1415 C 0.94817 0.57750 0.64600
 H1416 H 0.95549 0.59031 0.65315
 O1417 O 0.89888 0.51991 0.57256
 O1418 O 0.87498 0.52000 0.59595
 C1419 C 0.88237 0.52693 0.57954
 C1420 C 0.87217 0.54391 0.56893
 C1421 C 0.85383 0.55179 0.57633
 H1422 H 0.84641 0.54440 0.58898
 O1423 O 1.10096 0.47964 0.57332
 O1424 O 1.12475 0.47957 0.59680
 C1425 C 1.11740 0.47258 0.58041
 C1426 C 1.12774 0.45566 0.56982
 C1427 C 1.14586 0.44761 0.57755
 H1428 H 1.15236 0.45407 0.59117
 O1429 O 1.07285 0.39874 0.52000
 O1430 O 1.09618 0.37481 0.52011
 C1431 C 1.07984 0.38224 0.52708
 C1432 C 1.06931 0.37204 0.54413
 C1433 C 1.07677 0.35370 0.55201
 H1434 H 1.08932 0.34630 0.54448
 O1435 O 0.92808 0.60148 0.51976
 O1436 O 0.90466 0.62532 0.51962
 C1437 C 0.92096 0.61796 0.52674
 C1438 C 0.93119 0.62817 0.54394
 C1439 C 0.92295 0.64590 0.55234
 H1440 H 0.91003 0.65296 0.54510
 O1441 O 0.92643 0.48061 0.60093
 O1442 O 0.90267 0.48074 0.62447
 C1443 C 0.91920 0.47377 0.61744
 C1444 C 0.92972 0.45702 0.62811
 C1445 C 0.92222 0.44945 0.64658
 H1446 H 0.90952 0.45695 0.65376
 O1447 O 1.07362 0.51940 0.60130
 O1448 O 1.09735 0.51935 0.62484
 C1449 C 1.08095 0.52644 0.61767
 C1450 C 1.07064 0.54349 0.62806
 C1451 C 1.07909 0.55224 0.64558
 H1452 H 1.09308 0.54620 0.65165
 O1453 O 0.98018 0.39923 0.57382
 O1454 O 0.98009 0.37571 0.59761
 C1455 C 0.97321 0.38280 0.58106
 C1456 C 0.95647 0.37225 0.57050
 C1457 C 0.94786 0.35464 0.57886
 H1458 H 0.95381 0.34857 0.59292
 O1459 O 1.02003 0.60049 0.57379
 O1460 O 1.02003 0.62407 0.59751
 C1461 C 1.02697 0.61694 0.58100
 C1462 C 1.04377 0.62744 0.57043
 C1463 C 1.05149 0.64579 0.57799
 H1464 H 1.04425 0.65290 0.59091
 O1465 O 0.89968 0.42603 0.51987
 O1466 O 0.87621 0.40227 0.52000
 C1467 C 0.88336 0.41873 0.52700
 C1468 C 0.87297 0.42919 0.54400
 C1469 C 0.85535 0.42093 0.55267
 H1470 H 0.84922 0.40694 0.54668
 O1471 O 1.10090 0.57266 0.51972
 O1472 O 1.12446 0.59632 0.51976
 C1473 C 1.11738 0.57978 0.52663
 C1474 C 1.12796 0.56912 0.54336
 C1475 C 1.14639 0.57657 0.55096
 H1476 H 1.15355 0.58930 0.54350
 O1477 O 1.02006 0.57260 0.60151
 O1478 O 1.02012 0.59614 0.62527
 C1479 C 1.02707 0.57972 0.61799
 C1480 C 1.04408 0.56930 0.62832
 C1481 C 1.05244 0.57748 0.64612
 H1482 H 1.04530 0.59051 0.65310
 O1483 O 0.97971 0.42721 0.60133
 O1484 O 0.97963 0.40371 0.62514
 C1485 C 0.97259 0.42005 0.61776
 C1486 C 0.95562 0.43056 0.62806
 C1487 C 0.94756 0.42287 0.64623
 H1488 H 0.95396 0.40920 0.65267
 O1489 O 1.10106 0.51929 0.57333
 O1490 O 1.12485 0.51924 0.59681
 C1491 C 1.11752 0.52628 0.58042
 C1492 C 1.12789 0.54316 0.56983
 C1493 C 1.14604 0.55116 0.57752
 H1494 H 1.15250 0.54473 0.59118
 O1495 O 0.89913 0.48027 0.57270
 O1496 O 0.87532 0.48034 0.59618
 C1497 C 0.88271 0.47324 0.57984
 C1498 C 0.87253 0.45606 0.56955
 C1499 C 0.85468 0.44785 0.57766
 H1500 H 0.84759 0.45516 0.59056
 O1501 O 1.07335 0.60062 0.52020
 O1502 O 1.09685 0.62435 0.52025
 C1503 C 1.08051 0.61703 0.52730
 C1504 C 1.07003 0.62738 0.54429
 C1505 C 1.07771 0.64556 0.55226
 H1506 H 1.09123 0.65214 0.54569
 O1507 O 0.92762 0.39851 0.51960
 O1508 O 0.90419 0.37471 0.51966
 C1509 C 0.92058 0.38202 0.52660
 C1510 C 0.93099 0.37175 0.54364
 C1511 C 0.92290 0.35392 0.55194
 H1512 H 0.90998 0.34685 0.54473
 O1513 O 1.07351 0.47979 0.60136
 O1514 O 1.09725 0.47964 0.62490
 C1515 C 1.08077 0.47272 0.61777
 C1516 C 1.07025 0.45586 0.62823
 C1517 C 1.07852 0.44709 0.64584
 H1518 H 1.09258 0.45294 0.65191
 O1519 O 0.92629 0.52016 0.60062
 O1520 O 0.90244 0.52033 0.62406
 C1521 C 0.91894 0.52726 0.61697
 C1522 C 0.92941 0.54410 0.62748
 C1523 C 0.92115 0.55271 0.64518
 H1524 H 0.90712 0.54677 0.65127
 O1525 O 0.98048 0.60071 0.57402
 O1526 O 0.98046 0.62419 0.59784
 C1527 C 0.97346 0.61709 0.58135
 C1528 C 0.95658 0.62760 0.57090
 C1529 C 0.94781 0.64510 0.57936
 H1530 H 0.95369 0.65107 0.59349
 O1531 O 1.01976 0.39964 0.57401
 O1532 O 1.01968 0.37607 0.59775
 C1533 C 1.02678 0.38326 0.58132
 C1534 C 1.04368 0.37275 0.57088
 C1535 C 1.05180 0.35477 0.57893
 H1536 H 1.04554 0.34869 0.59284
 O1537 O 1.10079 0.42632 0.51969
 O1538 O 1.12418 0.40246 0.51979
 C1539 C 1.11718 0.41904 0.52666
 C1540 C 1.12776 0.42960 0.54345
 C1541 C 1.14608 0.42200 0.55119
 H1542 H 1.15316 0.40910 0.54392
 O1543 O 0.90021 0.57389 0.51969
 O1544 O 0.87677 0.59772 0.51958
 C1545 C 0.88379 0.58120 0.52660
 C1546 C 0.87305 0.57066 0.54329
 C1547 C 0.85492 0.57857 0.55118
 H1548 H 0.84873 0.59237 0.54481
 Cu1549 Cu 0.99974 0.41574 0.58535
 Cu1550 Cu 0.99966 0.38748 0.61390
 Cu1551 Cu 1.00028 0.58424 0.58528
 Cu1552 Cu 1.00032 0.61245 0.61386
 Cu1553 Cu 0.91584 0.41469 0.49988
 Cu1554 Cu 0.88772 0.38611 0.49999
 Cu1555 Cu 1.08444 0.41479 0.50001
 Cu1556 Cu 1.11244 0.38605 0.50013
 Cu1557 Cu 0.91657 0.58526 0.49989
 Cu1558 Cu 0.88846 0.61389 0.49975
 Cu1559 Cu 1.08465 0.58444 0.50013
 Cu1560 Cu 1.11284 0.61293 0.50019
 Cu1561 Cu 0.91506 0.50023 0.58435
 Cu1562 Cu 0.88644 0.50035 0.61249
 Cu1563 Cu 1.08490 0.49953 0.58498
 Cu1564 Cu 1.11344 0.49943 0.61320
 C1565 C 1.05260 0.44748 0.61979
 H1566 H 1.04647 0.45375 0.60588
 C1567 C 1.06927 0.43025 0.65511
 C1568 C 0.94706 0.55255 0.61910
 H1569 H 0.95320 0.54637 0.60516
 C1570 C 0.93038 0.56949 0.65453
 C1571 C 0.88150 0.55327 0.55222
 H1572 H 0.89573 0.54739 0.54655
 C1573 C 0.84514 0.56925 0.56770
 C1574 C 1.11887 0.44662 0.55270
 H1575 H 1.10465 0.45245 0.54694
 C1576 C 1.15521 0.43079 0.56836
 C1577 C 1.05255 0.38126 0.55347
 H1578 H 1.04676 0.39543 0.54752
 C1579 C 1.06833 0.34502 0.56960
 C1580 C 0.94819 0.61930 0.55315
 H1581 H 0.95449 0.60550 0.54687
 C1582 C 0.93089 0.65434 0.57025
 C1583 C 0.94662 0.44767 0.61916
 H1584 H 0.95242 0.45335 0.60486
 C1585 C 0.93091 0.43223 0.65574
 C1586 C 1.05310 0.55212 0.61959
 H1587 H 1.04684 0.54584 0.60575
 C1588 C 1.07015 0.56932 0.65471
 C1589 C 0.94797 0.38063 0.55284
 H1590 H 0.95414 0.39453 0.54665
 C1591 C 0.93098 0.34541 0.56975
 C1592 C 1.05299 0.61851 0.55342
 H1593 H 1.04725 0.60426 0.54763
 C1594 C 1.06855 0.65494 0.56910
 C1595 C 0.88141 0.44679 0.55254
 H1596 H 0.89529 0.45294 0.54631
 C1597 C 0.84610 0.43011 0.56959
 C1598 C 1.11901 0.55221 0.55270
 H1599 H 1.10474 0.54648 0.54701
 C1600 C 1.15550 0.56784 0.56818
 O1601 O 0.47972 0.92718 0.39895
 O1602 O 0.47980 0.90355 0.37527
 C1603 C 0.47269 0.91992 0.38254
 C1604 C 0.45569 0.93032 0.37217
 C1605 C 0.44758 0.92243 0.35412
 H1606 H 0.45401 0.90873 0.34778
 O1607 O 0.51985 1.07258 0.39795
 O1608 O 0.51980 1.09605 0.37410
 C1609 C 0.52674 1.07962 0.38137
 C1610 C 0.54367 1.06918 0.37094
 C1611 C 0.55182 1.07723 0.35297
 H1612 H 0.54439 1.09000 0.34585
 O1613 O 0.39900 0.98014 0.42741
 O1614 O 0.37529 0.98011 0.40384
 C1615 C 0.38260 0.97309 0.42025
 C1616 C 0.37240 0.95597 0.43060
 C1617 C 0.35459 0.94769 0.42247
 H1618 H 0.34753 0.95492 0.40952
 O1619 O 0.60131 1.02001 0.42617
 O1620 O 0.62493 1.01992 0.40250
 C1621 C 0.61767 1.02705 0.41888
 C1622 C 0.62787 1.04419 0.42922
 C1623 C 0.64546 1.05293 0.42095
 H1624 H 0.65184 1.04676 0.40712
 O1625 O 0.42755 0.89873 0.48087
 O1626 O 0.40404 0.87501 0.48102
 C1627 C 0.42046 0.88221 0.47400
 C1628 C 0.43084 0.87182 0.45698
 C1629 C 0.42286 0.85384 0.44892
 H1630 H 0.41020 0.84668 0.45648
 O1631 O 0.57294 1.10102 0.47988
 O1632 O 0.59640 1.12476 0.47990
 C1633 C 0.58001 1.11752 0.47291
 C1634 C 0.56953 1.12788 0.45590
 C1635 C 0.57696 1.14629 0.44816
 H1636 H 0.58940 1.15368 0.45585
 O1637 O 0.42638 1.01992 0.39955
 O1638 O 0.40266 1.01994 0.37600
 C1639 C 0.41912 1.02692 0.38313
 C1640 C 0.42963 1.04366 0.37249
 C1641 C 0.42181 1.05152 0.35430
 H1642 H 0.40810 1.04510 0.34798
 O1643 O 0.57343 0.98025 0.39885
 O1644 O 0.59694 0.98008 0.37507
 C1645 C 0.58053 0.97316 0.38240
 C1646 C 0.56989 0.95631 0.37200
 C1647 C 0.57762 0.94826 0.35384
 H1648 H 0.59130 0.95461 0.34740
 O1649 O 0.51945 0.89970 0.42674
 O1650 O 0.51956 0.87597 0.40318
 C1651 C 0.52648 0.88325 0.41963
 C1652 C 0.54338 0.87291 0.43023
 C1653 C 0.55110 0.85449 0.42284
 H1654 H 0.54378 0.84720 0.41008
 O1655 O 0.48066 1.10094 0.42586
 O1656 O 0.48072 1.12438 0.40199
 C1657 C 0.47377 1.11739 0.41856
 C1658 C 0.45692 1.12804 0.42894
 C1659 C 0.44877 1.14589 0.42066
 H1660 H 0.45582 1.15261 0.40743
 O1661 O 0.39963 1.07419 0.47968
 O1662 O 0.37606 1.09788 0.47960
 C1663 C 0.38317 1.08136 0.47272
 C1664 C 0.37249 1.07063 0.45611
 C1665 C 0.35433 1.07840 0.44816
 H1666 H 0.34811 1.09224 0.45440
 O1667 O 0.60129 0.92770 0.48022
 O1668 O 0.62485 0.90400 0.48039
 C1669 C 0.61775 0.92045 0.47333
 C1670 C 0.62826 0.93073 0.45634
 C1671 C 0.64611 0.92251 0.44818
 H1672 H 0.65301 0.90949 0.45543
 O1673 O 0.48030 1.07277 0.39846
 O1674 O 0.48026 1.09618 0.37457
 C1675 C 0.47325 1.07985 0.38198
 C1676 C 0.45623 1.06937 0.37178
 C1677 C 0.44838 1.07680 0.35340
 H1678 H 0.45569 1.08949 0.34602
 O1679 O 0.51936 0.92723 0.39867
 O1680 O 0.51947 0.90358 0.37503
 C1681 C 0.52639 0.92005 0.38221
 C1682 C 0.54330 0.93054 0.37175
 C1683 C 0.55104 0.92297 0.35337
 H1684 H 0.54367 0.91021 0.34616
 O1685 O 0.60151 0.98039 0.42623
 O1686 O 0.62509 0.98018 0.40253
 C1687 C 0.61788 0.97328 0.41902
 C1688 C 0.62821 0.95636 0.42958
 C1689 C 0.64583 0.94763 0.42136
 H1690 H 0.65205 0.95362 0.40738
 O1691 O 0.39858 1.01977 0.42725
 O1692 O 0.37480 1.01974 0.40376
 C1693 C 0.38209 1.02673 0.42017
 C1694 C 0.37176 1.04370 0.43067
 C1695 C 0.35335 1.05140 0.42325
 H1696 H 0.34597 1.04383 0.41070
 O1697 O 0.42734 1.10190 0.47934
 O1698 O 0.40381 1.12563 0.47918
 C1699 C 0.42016 1.11827 0.47216
 C1700 C 0.43057 1.12842 0.45500
 C1701 C 0.42243 1.14608 0.44627
 H1702 H 0.40866 1.15253 0.45245
 O1703 O 0.57321 0.90031 0.47997
 O1704 O 0.59675 0.87659 0.48008
 C1705 C 0.58038 0.88385 0.47300
 C1706 C 0.56985 0.87333 0.45616
 C1707 C 0.57755 0.85509 0.44832
 H1708 H 0.59115 0.84862 0.45484
 O1709 O 0.57378 1.01985 0.39831
 O1710 O 0.59736 1.01976 0.37459
 C1711 C 0.58098 1.02682 0.38183
 C1712 C 0.57052 1.04373 0.37138
 C1713 C 0.57890 1.05248 0.35382
 H1714 H 0.59302 1.04661 0.34792
 O1715 O 0.42629 0.98036 0.39912
 O1716 O 0.40261 0.98038 0.37552
 C1717 C 0.41911 0.97345 0.38261
 C1718 C 0.42967 0.95666 0.37203
 C1719 C 0.42211 0.94888 0.35367
 H1720 H 0.40932 0.95624 0.34651
 O1721 O 0.52026 1.10033 0.42575
 O1722 O 0.52031 1.12382 0.40193
 C1723 C 0.52733 1.11666 0.41841
 C1724 C 0.54414 1.12718 0.42895
 C1725 C 0.55223 1.14520 0.42102
 H1726 H 0.54606 1.15127 0.40706
 O1727 O 0.47989 0.89928 0.42650
 O1728 O 0.47995 0.87561 0.40286
 C1729 C 0.47293 0.88283 0.41931
 C1730 C 0.45610 0.87234 0.42989
 C1731 C 0.44742 0.85473 0.42160
 H1732 H 0.45324 0.84881 0.40744
 O1733 O 0.60076 1.07325 0.47967
 O1734 O 0.62424 1.09699 0.47968
 C1735 C 0.61714 1.08053 0.47266
 C1736 C 0.62761 1.07022 0.45564
 C1737 C 0.64537 1.07849 0.44736
 H1738 H 0.65213 1.09167 0.45441
 O1739 O 0.39952 0.92619 0.48040
 O1740 O 0.37598 0.90252 0.48048
 C1741 C 0.38318 0.91889 0.47335
 C1742 C 0.37282 0.92924 0.45628
 C1743 C 0.35527 0.92087 0.44759
 H1744 H 0.34921 0.90686 0.45361
 Cu1745 Cu 0.49960 0.91572 0.41507
 Cu1746 Cu 0.49973 0.88731 0.38670
 Cu1747 Cu 0.50026 1.08430 0.41440
 Cu1748 Cu 0.50027 1.11246 0.38576
 Cu1749 Cu 0.41493 1.00004 0.41570
 Cu1750 Cu 0.38644 1.00004 0.38743
 Cu1751 Cu 0.58517 1.00014 0.41477
 Cu1752 Cu 0.61345 0.99994 0.38629
 C1753 C 0.44666 0.94747 0.38096
 H1754 H 0.45250 0.95330 0.39517
 C1755 C 0.43084 0.93162 0.34461
 C1756 C 0.55291 1.05219 0.37981
 H1757 H 0.54676 1.04598 0.39373
 C1758 C 0.56970 1.06931 0.34445
 C1759 C 0.38123 0.94682 0.44769
 H1760 H 0.39506 0.95303 0.45393
 C1761 C 0.34605 0.92994 0.43060
 C1762 C 0.61914 1.05291 0.44663
 H1763 H 0.60531 1.04660 0.45280
 C1764 C 0.65428 1.07017 0.42985
 C1765 C 0.44770 0.88075 0.44758
 H1766 H 0.45386 0.89469 0.45367
 C1767 C 0.43071 0.84533 0.43097
 C1768 C 0.55289 1.11865 0.44640
 H1769 H 0.54713 1.10444 0.45224
 C1770 C 0.56860 1.15503 0.43054
 C1771 C 0.44691 1.05262 0.38106
 H1772 H 0.45276 1.04693 0.39533
 C1773 C 0.43106 1.06808 0.34459
 C1774 C 0.55268 0.94740 0.38079
 H1775 H 0.54693 0.95320 0.39506
 C1776 C 0.56831 0.93161 0.34433
 C1777 C 0.55270 0.88207 0.44706
 H1778 H 0.54695 0.89637 0.45273
 C1779 C 0.56829 0.84550 0.43167
 C1780 C 0.44788 1.11959 0.44628
 H1781 H 0.45394 1.10569 0.45260
 C1782 C 0.43136 1.15491 0.42902
 C1783 C 0.38103 1.05324 0.44731
 H1784 H 0.39531 1.04748 0.45301
 C1785 C 0.34456 1.06889 0.43174
 C1786 C 0.61961 0.94785 0.44712
 H1787 H 0.60572 0.95414 0.45321
 C1788 C 0.65488 0.93063 0.43050
 O1789 O 0.51994 0.92755 0.60158
 O1790 O 0.51996 0.90402 0.62536
 C1791 C 0.52694 0.92042 0.61808
 C1792 C 0.54382 0.93091 0.62852
 C1793 C 0.55254 0.92257 0.64612
 H1794 H 0.54656 0.90857 0.65225
 O1795 O 0.48024 1.07358 0.60138
 O1796 O 0.48013 1.09727 0.62500
 C1797 C 0.47323 1.08078 0.61782
 C1798 C 0.45634 1.07027 0.62819
 C1799 C 0.44858 1.07771 0.64660
 H1800 H 0.45597 1.09039 0.65394
 O1801 O 0.39897 1.02072 0.57247
 O1802 O 0.37523 1.02078 0.59602
 C1803 C 0.38250 1.02772 0.57956
 C1804 C 0.37217 1.04465 0.56897
 C1805 C 0.35378 1.05241 0.57640
 H1806 H 0.34646 1.04498 0.58908
 O1807 O 0.60047 0.98092 0.57416
 O1808 O 0.62418 0.98085 0.59772
 C1809 C 0.61683 0.97378 0.58136
 C1810 C 0.62704 0.95666 0.57095
 C1811 C 0.64454 0.94783 0.57931
 H1812 H 0.65073 0.95382 0.59330
 O1813 O 0.57324 0.89988 0.51969
 O1814 O 0.59677 0.87615 0.51974
 C1815 C 0.58034 0.88338 0.52667
 C1816 C 0.56981 0.87293 0.54357
 C1817 C 0.57732 0.85455 0.55132
 H1818 H 0.59004 0.84731 0.54391
 O1819 O 0.42766 1.10201 0.51910
 O1820 O 0.40414 1.12575 0.51896
 C1821 C 0.42050 1.11849 0.52604
 C1822 C 0.43073 1.12877 0.54322
 C1823 C 0.42252 1.14660 0.55145
 H1824 H 0.40976 1.15370 0.54398
 O1825 O 0.42674 0.98127 0.60050
 O1826 O 0.40309 0.98129 0.62415
 C1827 C 0.41958 0.97434 0.61701
 C1828 C 0.43017 0.95755 0.62759
 C1829 C 0.42267 0.94992 0.64604
 H1830 H 0.40985 0.95726 0.65319
 O1831 O 0.57333 1.02110 0.60175
 O1832 O 0.59704 1.02111 0.62532
 C1833 C 0.58069 1.02824 0.61808
 C1834 C 0.57045 1.04540 0.62833
 C1835 C 0.57894 1.05430 0.64575
 H1836 H 0.59303 1.04837 0.65168
 O1837 O 0.48064 0.89946 0.57368
 O1838 O 0.48070 0.87597 0.59751
 C1839 C 0.47374 0.88302 0.58098
 C1840 C 0.45683 0.87248 0.57065
 C1841 C 0.44863 0.85467 0.57894
 H1842 H 0.45581 0.84782 0.59203
 O1843 O 0.51957 1.10121 0.57332
 O1844 O 0.51952 1.12506 0.59676
 C1845 C 0.52650 1.11773 0.58034
 C1846 C 0.54336 1.12806 0.56969
 C1847 C 0.55121 1.14637 0.57719
 H1848 H 0.54396 1.15361 0.59003
 O1849 O 0.39946 0.92673 0.52010
 O1850 O 0.37588 0.90309 0.52025
 C1851 C 0.38304 0.91958 0.52715
 C1852 C 0.37260 0.93018 0.54400
 C1853 C 0.35493 0.92200 0.55265
 H1854 H 0.34878 0.90802 0.54666
 O1855 O 0.60085 1.07306 0.51934
 O1856 O 0.62437 1.09676 0.51932
 C1857 C 0.61727 1.08028 0.52630
 C1858 C 0.62770 1.06993 0.54331
 C1859 C 0.64554 1.07810 0.55149
 H1860 H 0.65251 1.09101 0.54415
 O1861 O 0.51976 1.07400 0.60169
 O1862 O 0.51969 1.09779 0.62519
 C1863 C 0.52673 1.08133 0.61810
 C1864 C 0.54379 1.07108 0.62854
 C1865 C 0.55210 1.07933 0.64634
 H1866 H 0.54480 1.09227 0.65331
 O1867 O 0.48029 0.92779 0.60087
 O1868 O 0.48029 0.90434 0.62473
 C1869 C 0.47322 0.92068 0.61732
 C1870 C 0.45623 0.93121 0.62762
 C1871 C 0.44824 0.92356 0.64583
 H1872 H 0.45475 0.90999 0.65240
 O1873 O 0.60066 1.02057 0.57368
 O1874 O 0.62440 1.02056 0.59722
 C1875 C 0.61713 1.02754 0.58078
 C1876 C 0.62749 1.04440 0.57018
 C1877 C 0.64501 1.05318 0.57849
 H1878 H 0.65106 1.04730 0.59259
 O1879 O 0.39901 0.98109 0.57266
 O1880 O 0.37532 0.98115 0.59627
 C1881 C 0.38259 0.97409 0.57986
 C1882 C 0.37228 0.95701 0.56956
 C1883 C 0.35439 0.94887 0.57768
 H1884 H 0.34736 0.95616 0.59062
 O1885 O 0.57305 1.10077 0.51965
 O1886 O 0.59656 1.12448 0.51961
 C1887 C 0.58021 1.11720 0.52669
 C1888 C 0.56974 1.12766 0.54364
 C1889 C 0.57757 1.14577 0.55162
 H1890 H 0.59121 1.15216 0.54512
 O1891 O 0.42708 0.89895 0.52053
 O1892 O 0.40353 0.87527 0.52071
 C1893 C 0.41987 0.88261 0.52773
 C1894 C 0.43027 0.87243 0.54485
 C1895 C 0.42199 0.85490 0.55368
 H1896 H 0.40805 0.84871 0.54766
 O1897 O 0.57265 0.98149 0.60186
 O1898 O 0.59633 0.98146 0.62546
 C1899 C 0.57984 0.97454 0.61833
 C1900 C 0.56946 0.95759 0.62878
 C1901 C 0.57764 0.94930 0.64661
 H1902 H 0.59065 0.95646 0.65357
 O1903 O 0.42645 1.02087 0.60051
 O1904 O 0.40275 1.02088 0.62411
 C1905 C 0.41920 1.02786 0.61696
 C1906 C 0.42973 1.04459 0.62759
 C1907 C 0.42193 1.05251 0.64578
 H1908 H 0.40821 1.04612 0.65210
 O1909 O 0.47997 1.10146 0.57376
 O1910 O 0.47985 1.12520 0.59732
 C1911 C 0.47286 1.11788 0.58092
 C1912 C 0.45594 1.12824 0.57036
 C1913 C 0.44707 1.14574 0.57874
 H1914 H 0.45281 1.15166 0.59293
 O1915 O 0.52018 0.90012 0.57350
 O1916 O 0.52024 0.87656 0.59725
 C1917 C 0.52722 0.88374 0.58077
 C1918 C 0.54405 0.87327 0.57021
 C1919 C 0.55205 0.85514 0.57799
 H1920 H 0.54568 0.84876 0.59172
 O1921 O 0.60061 0.92799 0.51992
 O1922 O 0.62415 0.90427 0.52005
 C1923 C 0.61694 0.92072 0.52704
 C1924 C 0.62719 0.93097 0.54421
 C1925 C 0.64493 0.92269 0.55252
 H1926 H 0.65187 0.90967 0.54532
 O1927 O 0.39969 1.07454 0.51935
 O1928 O 0.37613 1.09824 0.51927
 C1929 C 0.38328 1.08181 0.52634
 C1930 C 0.37272 1.07129 0.54318
 C1931 C 0.35456 1.07909 0.55112
 H1932 H 0.34825 1.09282 0.54471
 Cu1933 Cu 0.50026 0.91609 0.58504
 Cu1934 Cu 0.50030 0.88788 0.61362
 Cu1935 Cu 0.49990 1.08519 0.58518
 Cu1936 Cu 0.49980 1.11373 0.61342
 Cu1937 Cu 0.41575 0.91503 0.50046
 Cu1938 Cu 0.38749 0.88660 0.50062
 Cu1939 Cu 0.58472 0.91634 0.49993
 Cu1940 Cu 0.61300 0.88789 0.50008
 Cu1941 Cu 0.41595 1.08580 0.49936
 Cu1942 Cu 0.38770 1.11428 0.49925
 Cu1943 Cu 0.58453 1.08467 0.49962
 Cu1944 Cu 0.61274 1.11313 0.49963
 Cu1945 Cu 0.41516 1.00099 0.58417
 Cu1946 Cu 0.38671 1.00102 0.61249
 Cu1947 Cu 0.58441 1.00102 0.58550
 Cu1948 Cu 0.61287 1.00097 0.61379
 C1949 C 0.55236 0.94847 0.62002
 H1950 H 0.54611 0.95464 0.60613
 C1951 C 0.56954 0.93159 0.65526
 C1952 C 0.44700 1.05352 0.61898
 H1953 H 0.45280 1.04781 0.60470
 C1954 C 0.43125 1.06905 0.65547
 C1955 C 0.38135 1.05402 0.55218
 H1956 H 0.39560 1.04821 0.54647
 C1957 C 0.34490 1.06977 0.56772
 C1958 C 0.61851 0.94813 0.55336
 H1959 H 0.60471 0.95448 0.54714
 C1960 C 0.65358 0.93077 0.57026
 C1961 C 0.55298 0.88200 0.55294
 H1962 H 0.54722 0.89625 0.54716
 C1963 C 0.56868 0.84558 0.56866
 C1964 C 0.44765 1.11989 0.55259
 H1965 H 0.45397 1.10606 0.54641
 C1966 C 0.43028 1.15506 0.56944
 C1967 C 0.44713 0.94826 0.61866
 H1968 H 0.45289 0.95395 0.60435
 C1969 C 0.43149 0.93281 0.65524
 C1970 C 0.55286 1.05390 0.61988
 H1971 H 0.54659 1.04751 0.60610
 C1972 C 0.56992 1.07133 0.65495
 C1973 C 0.44773 0.88105 0.55341
 H1974 H 0.45387 0.89489 0.54704
 C1975 C 0.43102 0.84589 0.57079
 C1976 C 0.55258 1.11897 0.55274
 H1977 H 0.54674 1.10475 0.54699
 C1978 C 0.56843 1.15530 0.56838
 C1979 C 0.38110 0.94774 0.55253
 H1980 H 0.39502 0.95381 0.54632
 C1981 C 0.34573 0.93118 0.56956
 C1982 C 0.61899 1.05286 0.55255
 H1983 H 0.60513 1.04658 0.54642
 C1984 C 0.65416 1.07011 0.56930
 O1985 O 0.47967 0.42665 0.89949
 O1986 O 0.47968 0.40305 0.87580
 C1987 C 0.47266 0.41946 0.88305
 C1988 C 0.45579 0.42999 0.87263
 C1989 C 0.44789 0.42230 0.85441
 H1990 H 0.45443 0.40873 0.84789
 O1991 O 0.51962 0.57234 0.89799
 O1992 O 0.51959 0.59578 0.87411
 C1993 C 0.52657 0.57939 0.88144
 C1994 C 0.54358 0.56897 0.87112
 C1995 C 0.55193 0.57714 0.85331
 H1996 H 0.54477 0.59015 0.84631
 O1997 O 0.39897 0.47996 0.92775
 O1998 O 0.37518 0.47997 0.90426
 C1999 C 0.38252 0.47295 0.92065
 C2000 C 0.37230 0.45585 0.93101
 C2001 C 0.35450 0.44756 0.92286
 H2002 H 0.34746 0.45481 0.90991
 O2003 O 0.60078 0.51935 0.92633
 O2004 O 0.62443 0.51925 0.90269
 C2005 C 0.61715 0.52637 0.91907
 C2006 C 0.62739 0.54347 0.92943
 C2007 C 0.64496 0.55217 0.92111
 H2008 H 0.65122 0.54605 0.90720
 O2009 O 0.42729 0.39846 0.98111
 O2010 O 0.40379 0.37474 0.98142
 C2011 C 0.42015 0.38195 0.97428
 C2012 C 0.43040 0.37154 0.95719
 C2013 C 0.42211 0.35379 0.94891
 H2014 H 0.40911 0.34688 0.95616
 O2015 O 0.57266 0.60049 0.97965
 O2016 O 0.59620 0.62418 0.97949
 C2017 C 0.57981 0.61690 0.97253
 C2018 C 0.56947 0.62719 0.95541
 C2019 C 0.57754 0.64506 0.94715
 H2020 H 0.59048 0.65208 0.95437
 O2021 O 0.42631 0.51961 0.89958
 O2022 O 0.40251 0.51957 0.87611
 C2023 C 0.41899 0.52655 0.88315
 C2024 C 0.42947 0.54326 0.87241
 C2025 C 0.42154 0.55116 0.85427
 H2026 H 0.40780 0.54477 0.84801
 O2027 O 0.57298 0.47965 0.89889
 O2028 O 0.59653 0.47948 0.87515
 C2029 C 0.58011 0.47255 0.88246
 C2030 C 0.56952 0.45567 0.87209
 C2031 C 0.57727 0.44757 0.85397
 H2032 H 0.59092 0.45394 0.84749
 O2033 O 0.51933 0.39905 0.92722
 O2034 O 0.51936 0.37532 0.90365
 C2035 C 0.52633 0.38260 0.92010
 C2036 C 0.54324 0.37226 0.93065
 C2037 C 0.55104 0.35391 0.92313
 H2038 H 0.54373 0.34667 0.91034
 O2039 O 0.48023 0.60064 0.92556
 O2040 O 0.48017 0.62407 0.90168
 C2041 C 0.47322 0.61703 0.91822
 C2042 C 0.45641 0.62760 0.92874
 C2043 C 0.44763 0.64511 0.92030
 H2044 H 0.45346 0.65110 0.90616
 O2045 O 0.40008 0.57421 0.98022
 O2046 O 0.37664 0.59803 0.98016
 C2047 C 0.38372 0.58152 0.97317
 C2048 C 0.37320 0.57101 0.95630
 C2049 C 0.35564 0.57938 0.94758
 H2050 H 0.34973 0.59353 0.95341
 O2051 O 0.60106 0.42718 0.98059
 O2052 O 0.62453 0.40340 0.98068
 C2053 C 0.61747 0.41989 0.97365
 C2054 C 0.62796 0.43019 0.95662
 C2055 C 0.64589 0.42207 0.94853
 H2056 H 0.65288 0.40919 0.95592
 O2057 O 0.48009 0.57243 0.89828
 O2058 O 0.48004 0.59580 0.87434
 C2059 C 0.47306 0.57946 0.88177
 C2060 C 0.45607 0.56895 0.87160
 C2061 C 0.44814 0.57641 0.85328
 H2062 H 0.45542 0.58912 0.84589
 O2063 O 0.51925 0.42647 0.89904
 O2064 O 0.51928 0.40281 0.87539
 C2065 C 0.52622 0.41928 0.88255
 C2066 C 0.54307 0.42978 0.87201
 C2067 C 0.55082 0.42215 0.85367
 H2068 H 0.54352 0.40931 0.84653
 O2069 O 0.60102 0.47972 0.92632
 O2070 O 0.62464 0.47952 0.90265
 C2071 C 0.61741 0.47261 0.91913
 C2072 C 0.62778 0.45571 0.92973
 C2073 C 0.64542 0.44700 0.92153
 H2074 H 0.65155 0.45294 0.90750
 O2075 O 0.39905 0.51964 0.92783
 O2076 O 0.37523 0.51962 0.90438
 C2077 C 0.38260 0.52667 0.92074
 C2078 C 0.37246 0.54388 0.93104
 C2079 C 0.35459 0.55212 0.92298
 H2080 H 0.34737 0.54466 0.91025
 O2081 O 0.42805 0.60163 0.98010
 O2082 O 0.40462 0.62547 0.98017
 C2083 C 0.42093 0.61809 0.97307
 C2084 C 0.43113 0.62824 0.95582
 C2085 C 0.42288 0.64597 0.94745
 H2086 H 0.41000 0.65306 0.95474
 O2087 O 0.57316 0.39960 0.98040
 O2088 O 0.59661 0.37579 0.98049
 C2089 C 0.58027 0.38311 0.97341
 C2090 C 0.56974 0.37264 0.95655
 C2091 C 0.57752 0.35449 0.94857
 H2092 H 0.59118 0.34808 0.95501
 O2093 O 0.57336 0.51928 0.89834
 O2094 O 0.59697 0.51916 0.87466
 C2095 C 0.58060 0.52625 0.88188
 C2096 C 0.57022 0.54325 0.87145
 C2097 C 0.57866 0.55199 0.85391
 H2098 H 0.59267 0.54599 0.84784
 O2099 O 0.42642 0.48004 0.89960
 O2100 O 0.40266 0.48002 0.87608
 C2101 C 0.41917 0.47309 0.88314
 C2102 C 0.42972 0.45630 0.87254
 C2103 C 0.42225 0.44860 0.85411
 H2104 H 0.40940 0.45588 0.84695
 O2105 O 0.51980 0.60021 0.92560
 O2106 O 0.51984 0.62369 0.90177
 C2107 C 0.52686 0.61654 0.91825
 C2108 C 0.54382 0.62691 0.92867
 C2109 C 0.55242 0.64454 0.92036
 H2110 H 0.54637 0.65070 0.90639
 O2111 O 0.47976 0.39860 0.92691
 O2112 O 0.47973 0.37494 0.90326
 C2113 C 0.47275 0.38217 0.91971
 C2114 C 0.45586 0.37177 0.93026
 C2115 C 0.44705 0.35423 0.92194
 H2116 H 0.45294 0.34810 0.90788
 O2117 O 0.60045 0.57269 0.97989
 O2118 O 0.62397 0.59639 0.97969
 C2119 C 0.61685 0.57987 0.97283
 C2120 C 0.62731 0.56942 0.95590
 C2121 C 0.64512 0.57758 0.94765
 H2122 H 0.65198 0.59067 0.95476
 O2123 O 0.39944 0.42607 0.98072
 O2124 O 0.37591 0.40239 0.98090
 C2125 C 0.38308 0.41875 0.97372
 C2126 C 0.37270 0.42909 0.95666
 C2127 C 0.35517 0.42071 0.94793
 H2128 H 0.34912 0.40669 0.95393
 Cu2129 Cu 0.49951 0.41505 0.91553
 Cu2130 Cu 0.49954 0.38666 0.88715
 Cu2131 Cu 0.49992 0.58407 0.91426
 Cu2132 Cu 0.49991 0.61219 0.88558
 Cu2133 Cu 0.41507 0.49980 0.91605
 Cu2134 Cu 0.38647 0.49979 0.88789
 Cu2135 Cu 0.58468 0.49951 0.91485
 Cu2136 Cu 0.61301 0.49931 0.88641
 C2137 C 0.44668 0.44705 0.88151
 H2138 H 0.45242 0.45278 0.89580
 C2139 C 0.43115 0.43151 0.84494
 C2140 C 0.55265 0.55183 0.87990
 H2141 H 0.54641 0.54556 0.89375
 C2142 C 0.56968 0.56904 0.84475
 C2143 C 0.38111 0.44669 0.94810
 H2144 H 0.39494 0.45291 0.95435
 C2145 C 0.34598 0.42978 0.93093
 C2146 C 0.61873 0.55217 0.94687
 H2147 H 0.60487 0.54593 0.95304
 C2148 C 0.65392 0.56932 0.93005
 C2149 C 0.44746 0.38024 0.94794
 H2150 H 0.45378 0.39406 0.95412
 C2151 C 0.43007 0.34517 0.93109
 C2152 C 0.55242 0.61840 0.94624
 H2153 H 0.54623 0.60450 0.95242
 C2154 C 0.56936 0.65372 0.92945
 C2155 C 0.44679 0.55220 0.88089
 H2156 H 0.45271 0.54648 0.89513
 C2157 C 0.43075 0.56774 0.84455
 C2158 C 0.55236 0.44673 0.88094
 H2159 H 0.54659 0.45258 0.89518
 C2160 C 0.56804 0.43081 0.84457
 C2161 C 0.55254 0.38135 0.94753
 H2162 H 0.54673 0.39560 0.95329
 C2163 C 0.56829 0.34497 0.93187
 C2164 C 0.44808 0.61933 0.94654
 H2165 H 0.45438 0.60552 0.95282
 C2166 C 0.43075 0.65437 0.92949
 C2167 C 0.38147 0.55325 0.94791
 H2168 H 0.39535 0.54705 0.95412
 C2169 C 0.34621 0.57008 0.93083
 C2170 C 0.61922 0.44722 0.94731
 H2171 H 0.60529 0.45346 0.95337
 C2172 C 0.65461 0.43011 0.93077
 O2173 O 0.52003 0.42793 1.10232
 O2174 O 0.52003 0.40442 1.12611
 C2175 C 0.52700 0.42081 1.11883
 C2176 C 0.54400 0.43121 1.12915
 C2177 C 0.55174 0.42369 1.14754
 H2178 H 0.54408 0.41124 1.15497
 O2179 O 0.48101 0.57259 1.10155
 O2180 O 0.48096 0.59625 1.12519
 C2181 C 0.47398 0.57982 1.11797
 C2182 C 0.45686 0.56959 1.12824
 C2183 C 0.44866 0.57776 1.14611
 H2184 H 0.45603 0.59059 1.15320
 O2185 O 0.39909 0.52038 1.07299
 O2186 O 0.37529 0.52055 1.09648
 C2187 C 0.38264 0.52746 1.08005
 C2188 C 0.37242 0.54444 1.06947
 C2189 C 0.35404 0.55225 1.07686
 H2190 H 0.34667 0.54487 1.08955
 O2191 O 0.60168 0.48076 1.07350
 O2192 O 0.62556 0.48079 1.09689
 C2193 C 0.61822 0.47383 1.08048
 C2194 C 0.62852 0.45692 1.06987
 C2195 C 0.64684 0.44904 1.07733
 H2196 H 0.65418 0.45639 1.09004
 O2197 O 0.57297 0.39953 1.02014
 O2198 O 0.59641 0.37570 1.02019
 C2199 C 0.58002 0.38302 1.02716
 C2200 C 0.56950 0.37271 1.04416
 C2201 C 0.57695 0.35431 1.05191
 H2202 H 0.58957 0.34696 1.04443
 O2203 O 0.42812 0.60174 1.01980
 O2204 O 0.40471 0.62559 1.01985
 C2205 C 0.42109 0.61824 1.02681
 C2206 C 0.43163 0.62850 1.04381
 C2207 C 0.42426 0.64691 1.05159
 H2208 H 0.41179 0.65437 1.04398
 O2209 O 0.42639 0.48061 1.10102
 O2210 O 0.40269 0.48081 1.12461
 C2211 C 0.41910 0.47368 1.11747
 C2212 C 0.42954 0.45682 1.12807
 C2213 C 0.42153 0.44867 1.14608
 H2214 H 0.40766 0.45491 1.15221
 O2215 O 0.57387 0.51983 1.10189
 O2216 O 0.59759 0.51983 1.12544
 C2217 C 0.58105 0.52671 1.11839
 C2218 C 0.57045 0.54343 1.12900
 C2219 C 0.57803 0.55121 1.14734
 H2220 H 0.59087 0.54392 1.15448
 O2221 O 0.48064 0.40002 1.07441
 O2222 O 0.48073 0.37648 1.09818
 C2223 C 0.47376 0.38356 1.08166
 C2224 C 0.45691 0.37298 1.07126
 C2225 C 0.44883 0.35510 1.07950
 H2226 H 0.45601 0.34829 1.09261
 O2227 O 0.52043 0.60051 1.07380
 O2228 O 0.52051 0.62415 1.09746
 C2229 C 0.52744 0.61693 1.08097
 C2230 C 0.54424 0.62735 1.07035
 C2231 C 0.55292 0.64498 1.07857
 H2232 H 0.54702 0.65109 1.09264
 O2233 O 0.39931 0.42655 1.02039
 O2234 O 0.37575 0.40288 1.02064
 C2235 C 0.38290 0.41940 1.02747
 C2236 C 0.37243 0.43004 1.04427
 C2237 C 0.35475 0.42187 1.05291
 H2238 H 0.34864 0.40786 1.04697
 O2239 O 0.60058 0.57312 1.01959
 O2240 O 0.62409 0.59682 1.01931
 C2241 C 0.61698 0.58044 1.02650
 C2242 C 0.62745 0.57030 1.04362
 C2243 C 0.64525 0.57863 1.05176
 H2244 H 0.65207 0.59165 1.04448
 O2245 O 0.52061 0.57305 1.10188
 O2246 O 0.52055 0.59667 1.12556
 C2247 C 0.52759 0.58027 1.11834
 C2248 C 0.54446 0.56979 1.12883
 C2249 C 0.55251 0.57763 1.14695
 H2250 H 0.54607 0.59129 1.15336
 O2251 O 0.48042 0.42795 1.10206
 O2252 O 0.48043 0.40444 1.12586
 C2253 C 0.47339 0.42081 1.11853
 C2254 C 0.45631 0.43122 1.12878
 C2255 C 0.44839 0.42365 1.14707
 H2256 H 0.45587 0.41103 1.15443
 O2257 O 0.60120 0.52038 1.07376
 O2258 O 0.62500 0.52051 1.09724
 C2259 C 0.61755 0.52756 1.08090
 C2260 C 0.62762 0.54467 1.07041
 C2261 C 0.64517 0.55352 1.07860
 H2262 H 0.65146 0.54755 1.09255
 O2263 O 0.39891 0.48080 1.07299
 O2264 O 0.37517 0.48098 1.09655
 C2265 C 0.38242 0.47392 1.08013
 C2266 C 0.37206 0.45692 1.06977
 C2267 C 0.35412 0.44885 1.07783
 H2268 H 0.34706 0.45620 1.09071
 O2269 O 0.57269 0.60077 1.01939
 O2270 O 0.59623 0.62445 1.01914
 C2271 C 0.57986 0.61725 1.02627
 C2272 C 0.56962 0.62766 1.04336
 C2273 C 0.57776 0.64554 1.05151
 H2274 H 0.59064 0.65255 1.04416
 O2275 O 0.42721 0.39904 1.02083
 O2276 O 0.40369 0.37534 1.02117
 C2277 C 0.42004 0.38274 1.02813
 C2278 C 0.43047 0.37269 1.04532
 C2279 C 0.42230 0.35510 1.05412
 H2280 H 0.40846 0.34876 1.04804
 O2281 O 0.57415 0.48032 1.10142
 O2282 O 0.59794 0.48025 1.12490
 C2283 C 0.58149 0.47326 1.11779
 C2284 C 0.57097 0.45648 1.12837
 C2285 C 0.57888 0.44834 1.14640
 H2286 H 0.59282 0.45446 1.15248
 O2287 O 0.42660 0.52027 1.10097
 O2288 O 0.40285 0.52053 1.12450
 C2289 C 0.41934 0.52741 1.11735
 C2290 C 0.42988 0.54427 1.12779
 C2291 C 0.42159 0.55304 1.14540
 H2292 H 0.40752 0.54719 1.15147
 O2293 O 0.48085 0.60061 1.07405
 O2294 O 0.48092 0.62430 1.09767
 C2295 C 0.47388 0.61708 1.08124
 C2296 C 0.45712 0.62767 1.07067
 C2297 C 0.44912 0.64575 1.07860
 H2298 H 0.45534 0.65183 1.09252
 O2299 O 0.52019 0.40030 1.07441
 O2300 O 0.52028 0.37674 1.09816
 C2301 C 0.52722 0.38389 1.08165
 C2302 C 0.54394 0.37331 1.07099
 C2303 C 0.55187 0.35513 1.07876
 H2304 H 0.54555 0.34881 1.09254
 O2305 O 0.60088 0.42708 1.02028
 O2306 O 0.62434 0.40328 1.02034
 C2307 C 0.61724 0.41978 1.02731
 C2308 C 0.62784 0.43029 1.04411
 C2309 C 0.64593 0.42238 1.05206
 H2310 H 0.65217 0.40861 1.04568
 O2311 O 0.40012 0.57426 1.01992
 O2312 O 0.37665 0.59805 1.01989
 C2313 C 0.38373 0.58156 1.02690
 C2314 C 0.37308 0.57105 1.04368
 C2315 C 0.35490 0.57887 1.05154
 H2316 H 0.34857 0.59257 1.04507
 Cu2317 Cu 0.50032 0.41643 1.08594
 Cu2318 Cu 0.50037 0.38816 1.11446
 Cu2319 Cu 0.50075 0.58431 1.08545
 Cu2320 Cu 0.50072 0.61271 1.11385
 Cu2321 Cu 0.41567 0.41490 1.00073
 Cu2322 Cu 0.38744 0.38644 1.00106
 Cu2323 Cu 0.58466 0.41572 1.00035
 Cu2324 Cu 0.61282 0.38715 1.00043
 Cu2325 Cu 0.41644 0.58557 1.00003
 Cu2326 Cu 0.38831 0.61418 1.00004
 Cu2327 Cu 0.58423 0.58439 0.99965
 Cu2328 Cu 0.61247 0.61283 0.99937
 Cu2329 Cu 0.41514 0.50050 1.08465
 Cu2330 Cu 0.38662 0.50073 1.11290
 Cu2331 Cu 0.58536 0.50032 1.08528
 Cu2332 Cu 0.61395 0.50034 1.11346
 C2333 C 0.55351 0.44782 1.11989
 H2334 H 0.54765 0.45365 1.10567
 C2335 C 0.56936 0.43197 1.15624
 C2336 C 0.44755 0.55264 1.11937
 H2337 H 0.45369 0.54637 1.10547
 C2338 C 0.43083 0.56987 1.15466
 C2339 C 0.38166 0.55377 1.05270
 H2340 H 0.39592 0.54794 1.04703
 C2341 C 0.34520 0.56957 1.06812
 C2342 C 0.61931 0.44761 1.05306
 H2343 H 0.60509 0.45349 1.04734
 C2344 C 0.65562 0.43165 1.06865
 C2345 C 0.55281 0.38193 1.05364
 H2346 H 0.54710 0.39620 1.04785
 C2347 C 0.56838 0.34545 1.06934
 C2348 C 0.44829 0.61918 1.05326
 H2349 H 0.45400 0.60494 1.04740
 C2350 C 0.43273 0.65562 1.06915
 C2351 C 0.44696 0.44800 1.11958
 H2352 H 0.45291 0.45385 1.10542
 C2353 C 0.43085 0.43210 1.15580
 C2354 C 0.55348 0.55264 1.12005
 H2355 H 0.54768 0.54683 1.10582
 C2356 C 0.56930 0.56846 1.15639
 C2357 C 0.44781 0.38149 1.05398
 H2358 H 0.45385 0.39537 1.04764
 C2359 C 0.43133 0.34618 1.07127
 C2360 C 0.55266 0.61887 1.05270
 H2361 H 0.54642 0.60497 1.04660
 C2362 C 0.56976 0.65419 1.06931
 C2363 C 0.38092 0.44761 1.05278
 H2364 H 0.39487 0.45365 1.04660
 C2365 C 0.34549 0.43112 1.06976
 C2366 C 0.61892 0.55315 1.05288
 H2367 H 0.60510 0.54676 1.04678
 C2368 C 0.65410 0.57056 1.06943
 C2369 C 1.10448 1.10422 1.22858
 C2370 C 1.12574 1.10277 1.23098
 C2371 C 1.13522 1.11172 1.24785
 C2372 C 1.12388 1.12259 1.26222
 C2373 C 1.10287 1.12424 1.25960
 C2374 C 1.09327 1.11520 1.24307
 C2375 C 1.09490 1.09437 1.21046
 C2376 C 1.07379 1.09397 1.20731
 C2377 C 1.06562 1.08499 1.18998
 C2378 C 1.07820 1.07627 1.17518
 C2379 C 1.09926 1.07628 1.17839
 C2380 C 1.10762 1.08498 1.19595
 C2381 C 1.13743 1.09275 1.21634
 C2382 C 1.12860 1.08428 1.19908
 H2383 H 1.15371 1.09168 1.21810
 H2384 H 1.13835 1.07693 1.18807
 H2385 H 1.15151 1.11060 1.24949
 H2386 H 1.09366 1.13245 1.27042
 H2387 H 1.04932 1.08478 1.18825
 H2388 H 1.10926 1.06982 1.16706
 H2389 H 1.07712 1.11720 1.24186
 H2390 H 1.06329 1.10036 1.21808
 C2391 C 1.10731 0.60846 0.72464
 C2392 C 1.11808 0.59598 0.73840
 C2393 C 1.12726 0.60450 0.75565
 C2394 C 1.12529 0.62526 0.75982
 C2395 C 1.11425 0.63750 0.74639
 C2396 C 1.10545 0.62928 0.72900
 C2397 C 1.09794 0.59886 0.70629
 C2398 C 1.08826 0.61018 0.69099
 C2399 C 1.07947 0.60055 0.67434
 C2400 C 1.07983 0.57935 0.67251
 C2401 C 1.08982 0.56796 0.68753
 C2402 C 1.09910 0.57755 0.70416
 C2403 C 1.11924 0.57503 0.73508
 C2404 C 1.10968 0.56598 0.71851
 H2405 H 1.12739 0.56543 0.74565
 H2406 H 1.11078 0.54968 0.71680
 H2407 H 1.13545 0.59484 0.76614
 H2408 H 1.11254 0.65357 0.74921
 H2409 H 1.07260 0.60988 0.66270
 H2410 H 1.09029 0.55158 0.68640
 H2411 H 1.09704 0.63947 0.71937
 H2412 H 1.08753 0.62649 0.69139
 C2413 C 0.60747 1.11041 0.72485
 C2414 C 0.61998 1.09834 0.73740
 C2415 C 0.62968 1.10695 0.75434
 C2416 C 0.62624 1.12733 0.75976
 C2417 C 0.61312 1.13895 0.74759
 C2418 C 0.60403 1.13072 0.73035
 C2419 C 0.59790 1.10085 0.70658
 C2420 C 0.58718 1.11208 0.69193
 C2421 C 0.57835 1.10250 0.67526
 C2422 C 0.57958 1.08137 0.67283
 C2423 C 0.59060 1.07011 0.68725
 C2424 C 0.60012 1.07973 0.70373
 C2425 C 0.62226 1.07761 0.73330
 C2426 C 0.61216 1.06842 0.71712
 H2427 H 0.63166 1.06825 0.74300
 H2428 H 0.61411 1.05227 0.71484
 H2429 H 0.63924 1.09743 0.76369
 H2430 H 0.61001 1.15468 0.75100
 H2431 H 0.57081 1.11185 0.66408
 H2432 H 0.59180 1.05380 0.68575
 H2433 H 0.59409 1.14044 0.72175
 H2434 H 0.58581 1.12835 0.69280
 C2435 C 0.60473 0.60629 1.22798
 C2436 C 0.62594 0.60441 1.23054
 C2437 C 0.63552 0.61347 1.24728
 C2438 C 0.62439 0.62508 1.26120
 C2439 C 0.60349 0.62740 1.25832
 C2440 C 0.59373 0.61806 1.24202
 C2441 C 0.59503 0.59611 1.21009
 C2442 C 0.57392 0.59572 1.20702
 C2443 C 0.56566 0.58645 1.18987
 C2444 C 0.57817 0.57744 1.17517
 C2445 C 0.59922 0.57739 1.17836
 C2446 C 0.60766 0.58631 1.19577
 C2447 C 0.63751 0.59391 1.21614
 C2448 C 0.62861 0.58537 1.19896
 H2449 H 0.65376 0.59259 1.21799
 H2450 H 0.63829 0.57771 1.18809
 H2451 H 0.65176 0.61195 1.24915
 H2452 H 0.59455 0.63629 1.26885
 H2453 H 0.54935 0.58627 1.18820
 H2454 H 0.60918 0.57068 1.16714
 H2455 H 0.57765 0.62049 1.24057
 H2456 H 0.56350 0.60232 1.21776
 C2457 C 0.89401 0.89766 1.22821
 C2458 C 0.89764 0.87691 1.23212
 C2459 C 0.88928 0.86765 1.24940
 C2460 C 0.87632 0.87846 1.26251
 C2461 C 0.87199 0.89883 1.25789
 C2462 C 0.88082 0.90834 1.24115
 C2463 C 0.90390 0.90718 1.21008
 C2464 C 0.90320 0.92815 1.20618
 C2465 C 0.91240 0.93625 1.18892
 C2466 C 0.92232 0.92369 1.17485
 C2467 C 0.92343 0.90278 1.17890
 C2468 C 0.91476 0.89457 1.19655
 C2469 C 0.90919 0.86538 1.21850
 C2470 C 0.91714 0.87392 1.20085
 H2471 H 0.91177 0.84940 1.22132
 H2472 H 0.92562 0.86426 1.19060
 H2473 H 0.89238 0.85176 1.25210
 H2474 H 0.86211 0.90780 1.26743
 H2475 H 0.91183 0.95250 1.18669
 H2476 H 0.93086 0.89273 1.16823
 H2477 H 0.87691 0.92399 1.23847
 H2478 H 0.89589 0.93860 1.21644
 C2479 C 0.89668 0.39574 0.72866
 C2480 C 0.87580 0.39876 0.73232
 C2481 C 0.86661 0.39025 0.74959
 C2482 C 0.87769 0.37780 0.76297
 C2483 C 0.89828 0.37425 0.75870
 C2484 C 0.90766 0.38317 0.74195
 C2485 C 0.90605 0.40556 0.71041
 C2486 C 0.92704 0.40525 0.70662
 C2487 C 0.93500 0.41425 0.68919
 C2488 C 0.92231 0.42358 0.67484
 C2489 C 0.90138 0.42436 0.67880
 C2490 C 0.89328 0.41584 0.69659
 C2491 C 0.86409 0.40980 0.71842
 C2492 C 0.87255 0.41776 0.70072
 H2493 H 0.84803 0.41196 0.72106
 H2494 H 0.86276 0.42581 0.69026
 H2495 H 0.85062 0.39285 0.75207
 H2496 H 0.90750 0.36482 0.76844
 H2497 H 0.95125 0.41397 0.68706
 H2498 H 0.89124 0.43135 0.66792
 H2499 H 0.92345 0.37976 0.73953
 H2500 H 0.93760 0.39839 0.71706
 C2501 C 0.39714 0.89599 0.72788
 C2502 C 0.37593 0.89762 0.73059
 C2503 C 0.36663 0.88879 0.74762
 C2504 C 0.37807 0.87772 0.76175
 C2505 C 0.39898 0.87566 0.75872
 C2506 C 0.40844 0.88472 0.74209
 C2507 C 0.40654 0.90593 0.70969
 C2508 C 0.42760 0.90647 0.70640
 C2509 C 0.43560 0.91549 0.68899
 C2510 C 0.42286 0.92410 0.67426
 C2511 C 0.40184 0.92402 0.67766
 C2512 C 0.39366 0.91531 0.69532
 C2513 C 0.36409 0.90769 0.71610
 C2514 C 0.37272 0.91605 0.69869
 H2515 H 0.34784 0.90883 0.71809
 H2516 H 0.36286 0.92338 0.68778
 H2517 H 0.35039 0.89011 0.74959
 H2518 H 0.40816 0.86720 0.76938
 H2519 H 0.45189 0.91581 0.68715
 H2520 H 0.39172 0.93044 0.66642
 H2521 H 0.42454 0.88250 0.74055
 H2522 H 0.43821 0.90018 0.71714
 C2523 C 0.39365 0.39670 1.22786
 C2524 C 0.39673 0.37575 1.23121
 C2525 C 0.38807 0.36621 1.24821
 C2526 C 0.37544 0.37700 1.26166
 C2527 C 0.37197 0.39771 1.25779
 C2528 C 0.38101 0.40742 1.24130
 C2529 C 0.40353 0.40640 1.20979
 C2530 C 0.40294 0.42743 1.20614
 C2531 C 0.41207 0.43569 1.18889
 C2532 C 0.42185 0.42324 1.17462
 C2533 C 0.42279 0.40226 1.17838
 C2534 C 0.41411 0.39388 1.19596
 C2535 C 0.40800 0.36431 1.21728
 C2536 C 0.41615 0.37310 1.19984
 H2537 H 0.41023 0.34822 1.21970
 H2538 H 0.42442 0.36350 1.18936
 H2539 H 0.39069 0.35017 1.25042
 H2540 H 0.36247 0.40673 1.26764
 H2541 H 0.41157 0.45196 1.18686
 H2542 H 0.43007 0.39231 1.16753
 H2543 H 0.37765 0.42328 1.23919
 H2544 H 0.39574 0.43781 1.21653
 C2545 C 0.89154 1.10445 0.77441
 C2546 C 0.90426 1.11495 0.76068
 C2547 C 0.89602 1.12406 0.74326
 C2548 C 0.87530 1.12234 0.73892
 C2549 C 0.86283 1.11147 0.75225
 C2550 C 0.87077 1.10270 0.76980
 C2551 C 0.90085 1.09528 0.79302
 C2552 C 0.88931 1.08595 0.80837
 C2553 C 0.89868 1.07748 0.82534
 C2554 C 0.91985 1.07779 0.82743
 C2555 C 0.93145 1.08735 0.81231
 C2556 C 0.92211 1.09635 0.79540
 C2557 C 0.92515 1.11599 0.76421
 C2558 C 0.93392 1.10660 0.78102
 H2559 H 0.93492 1.12394 0.75366
 H2560 H 0.95019 1.10762 0.78293
 H2561 H 0.90586 1.13209 0.73284
 H2562 H 0.84679 1.10992 0.74927
 H2563 H 0.88920 1.07091 0.83703
 H2564 H 0.94780 1.08772 0.81360
 H2565 H 0.86043 1.09446 0.77941
 H2566 H 0.87301 1.08530 0.80776
 C2567 C 0.89391 0.60168 0.27238
 C2568 C 0.89561 0.62288 0.26966
 C2569 C 0.88682 0.63223 0.25267
 C2570 C 0.87579 0.62085 0.23849
 C2571 C 0.87354 0.59995 0.24155
 C2572 C 0.88254 0.59043 0.25820
 C2573 C 0.90397 0.59222 0.29047
 C2574 C 0.90443 0.57113 0.29380
 C2575 C 0.91369 0.56310 0.31107
 C2576 C 0.92262 0.57583 0.32560
 C2577 C 0.92258 0.59685 0.32219
 C2578 C 0.91362 0.60506 0.30469
 C2579 C 0.90582 0.63469 0.28405
 C2580 C 0.91436 0.62601 0.30134
 H2581 H 0.90702 0.65095 0.28204
 H2582 H 0.92188 0.63585 0.31215
 H2583 H 0.88824 0.64847 0.25071
 H2584 H 0.86507 0.59083 0.23086
 H2585 H 0.91392 0.54681 0.31298
 H2586 H 0.92923 0.60694 0.33331
 H2587 H 0.88027 0.57433 0.25975
 H2588 H 0.89789 0.56056 0.28319
 C2589 C 0.39342 1.10247 0.27246
 C2590 C 0.39485 1.12372 0.26988
 C2591 C 0.38600 1.13306 0.25290
 C2592 C 0.37521 1.12162 0.23858
 C2593 C 0.37329 1.10066 0.24148
 C2594 C 0.38231 1.09117 0.25813
 C2595 C 0.40347 1.09305 0.29056
 C2596 C 0.40412 1.07195 0.29380
 C2597 C 0.41336 1.06394 0.31109
 C2598 C 0.42210 1.07669 0.32572
 C2599 C 0.42186 1.09772 0.32240
 C2600 C 0.41290 1.10593 0.30490
 C2601 C 0.40485 1.13557 0.28439
 C2602 C 0.41342 1.12690 0.30167
 H2603 H 0.40585 1.15186 0.28248
 H2604 H 0.42075 1.13676 0.31257
 H2605 H 0.38723 1.14933 0.25107
 H2606 H 0.36504 1.09147 0.23067
 H2607 H 0.41375 1.04763 0.31293
 H2608 H 0.42835 1.10783 0.33361
 H2609 H 0.38027 1.07502 0.25954
 H2610 H 0.39774 1.06135 0.28313
 C2611 C 0.39366 0.60259 0.77235
 C2612 C 0.39511 0.62387 0.76992
 C2613 C 0.38638 0.63332 0.75294
 C2614 C 0.37568 0.62198 0.73849
 C2615 C 0.37388 0.60098 0.74116
 C2616 C 0.38278 0.59137 0.75780
 C2617 C 0.40346 0.59305 0.79053
 C2618 C 0.40395 0.57194 0.79372
 C2619 C 0.41302 0.56381 0.81105
 C2620 C 0.42174 0.57647 0.82577
 C2621 C 0.42156 0.59752 0.82256
 C2622 C 0.41277 0.60583 0.80502
 C2623 C 0.40496 0.63562 0.78460
 C2624 C 0.41336 0.62683 0.80190
 H2625 H 0.40598 0.65191 0.78281
 H2626 H 0.42061 0.63662 0.81293
 H2627 H 0.38756 0.64962 0.75123
 H2628 H 0.36575 0.59184 0.73022
 H2629 H 0.41332 0.54750 0.81284
 H2630 H 0.42802 0.60755 0.83385
 H2631 H 0.38079 0.57520 0.75904
 H2632 H 0.39759 0.56140 0.78297
 C2633 C 1.10534 0.89615 0.77162
 C2634 C 1.10400 0.87483 0.76946
 C2635 C 1.11288 0.86518 0.75265
 C2636 C 1.12365 0.87638 0.73811
 C2637 C 1.12527 0.89744 0.74048
 C2638 C 1.11620 0.90723 0.75693
 C2639 C 1.09552 0.90588 0.78971
 C2640 C 1.09501 0.92703 0.79269
 C2641 C 1.08602 0.93532 0.81000
 C2642 C 1.07739 0.92280 0.82491
 C2643 C 1.07755 0.90171 0.82188
 C2644 C 1.08627 0.89323 0.80438
 C2645 C 1.09415 0.86324 0.78429
 C2646 C 1.08572 0.87221 0.80149
 H2647 H 1.09320 0.84692 0.78271
 H2648 H 1.07850 0.86252 0.81264
 H2649 H 1.11184 0.84886 0.75119
 H2650 H 1.13345 0.90647 0.72949
 H2651 H 1.08573 0.95164 0.81162
 H2652 H 1.07118 0.89177 0.83331
 H2653 H 1.11809 0.92342 0.75794
 H2654 H 1.10132 0.93746 0.78180
 C2655 C 1.10599 0.39677 0.27231
 C2656 C 1.10390 0.37559 0.26958
 C2657 C 1.11262 0.36607 0.25262
 C2658 C 1.12403 0.37723 0.23858
 C2659 C 1.12655 0.39811 0.24160
 C2660 C 1.11760 0.40780 0.25816
 C2661 C 1.09614 0.40641 0.29040
 C2662 C 1.09606 0.42751 0.29372
 C2663 C 1.08701 0.43571 0.31102
 C2664 C 1.07792 0.42316 0.32561
 C2665 C 1.07761 0.40212 0.32222
 C2666 C 1.08632 0.39375 0.30467
 C2667 C 1.09346 0.36398 0.28398
 C2668 C 1.08515 0.37282 0.30131
 H2669 H 1.09196 0.34775 0.28198
 H2670 H 1.07748 0.36312 0.31214
 H2671 H 1.11093 0.34985 0.25065
 H2672 H 1.13528 0.40709 0.23098
 H2673 H 1.08704 0.45201 0.31289
 H2674 H 1.07085 0.39213 0.33338
 H2675 H 1.12015 0.42386 0.25969
 H2676 H 1.10273 0.43797 0.28307
 C2677 C 0.60603 0.89663 0.27244
 C2678 C 0.60421 0.87543 0.26975
 C2679 C 0.61317 0.86598 0.25288
 C2680 C 0.62456 0.87724 0.23888
 C2681 C 0.62690 0.89813 0.24193
 C2682 C 0.61771 0.90775 0.25841
 C2683 C 0.59585 0.90620 0.29041
 C2684 C 0.59539 0.92731 0.29359
 C2685 C 0.58611 0.93545 0.31080
 C2686 C 0.57718 0.92284 0.32545
 C2687 C 0.57715 0.90179 0.32213
 C2688 C 0.58610 0.89346 0.30466
 C2689 C 0.59380 0.86373 0.28411
 C2690 C 0.58524 0.87251 0.30135
 H2691 H 0.59251 0.84747 0.28214
 H2692 H 0.57763 0.86274 0.31217
 H2693 H 0.61164 0.84974 0.25090
 H2694 H 0.63564 0.90717 0.23137
 H2695 H 0.58588 0.95176 0.31258
 H2696 H 0.57047 0.89176 0.33330
 H2697 H 0.62010 0.92384 0.25998
 H2698 H 0.60194 0.93781 0.28291
 C2699 C 0.60589 0.39545 0.77296
 C2700 C 0.60430 0.37420 0.77051
 C2701 C 0.61336 0.36465 0.75374
 C2702 C 0.62462 0.37588 0.73961
 C2703 C 0.62666 0.39684 0.74239
 C2704 C 0.61737 0.40655 0.75876
 C2705 C 0.59568 0.40512 0.79085
 C2706 C 0.59508 0.42625 0.79385
 C2707 C 0.58579 0.43449 0.81100
 C2708 C 0.57696 0.42194 0.82577
 C2709 C 0.57709 0.40086 0.82265
 C2710 C 0.58608 0.39244 0.80525
 C2711 C 0.59403 0.36256 0.78501
 C2712 C 0.58541 0.37144 0.80217
 H2713 H 0.59291 0.34627 0.78323
 H2714 H 0.57791 0.36172 0.81310
 H2715 H 0.61203 0.34837 0.75195
 H2716 H 0.63525 0.40588 0.73171
 H2717 H 0.58546 0.45082 0.81264
 H2718 H 0.57051 0.39089 0.83393
 H2719 H 0.61957 0.42268 0.76010
 H2720 H 0.60155 0.43671 0.78307
 C2721 C 1.22518 1.10837 1.10491
 C2722 C 1.23903 1.09567 1.11528
 C2723 C 1.25647 1.10396 1.12422
 C2724 C 1.26071 1.12473 1.12247
 C2725 C 1.24720 1.13718 1.11179
 C2726 C 1.22964 1.12918 1.10318
 C2727 C 1.20658 1.09900 1.09586
 C2728 C 1.19118 1.11050 1.08657
 C2729 C 1.17427 1.10107 1.07814
 C2730 C 1.17226 1.07988 1.07849
 C2731 C 1.18740 1.06832 1.08804
 C2732 C 1.20430 1.07770 1.09695
 C2733 C 1.23559 1.07475 1.11634
 C2734 C 1.21876 1.06593 1.10711
 H2735 H 1.24623 1.06500 1.12419
 H2736 H 1.21693 1.04964 1.10814
 H2737 H 1.26700 1.09413 1.13212
 H2738 H 1.25005 1.15326 1.11024
 H2739 H 1.16257 1.11052 1.07157
 H2740 H 1.18615 1.05195 1.08844
 H2741 H 1.21992 1.13952 1.09507
 H2742 H 1.19173 1.12682 1.08589
 C2743 C 1.22798 0.60256 0.60459
 C2744 C 1.23094 0.62368 0.60228
 C2745 C 1.24800 0.63306 0.61088
 C2746 C 1.26194 0.62182 0.62236
 C2747 C 1.25867 0.60099 0.62506
 C2748 C 1.24198 0.59145 0.61628
 C2749 C 1.20979 0.59306 0.59488
 C2750 C 1.20630 0.57200 0.59495
 C2751 C 1.18895 0.56391 0.58600
 C2752 C 1.17443 0.57654 0.57691
 C2753 C 1.17800 0.59755 0.57646
 C2754 C 1.19564 0.60580 0.58502
 C2755 C 1.21667 0.63537 0.59177
 C2756 C 1.19923 0.62668 0.58362
 H2757 H 1.21885 0.65156 0.59008
 H2758 H 1.18851 0.63644 0.57588
 H2759 H 1.25012 0.64924 0.60903
 H2760 H 1.26915 0.59193 0.63385
 H2761 H 1.18700 0.54762 0.58611
 H2762 H 1.16693 0.60763 0.56970
 H2763 H 1.24023 0.57544 0.61906
 H2764 H 1.21687 0.56147 0.60163
 C2765 C 0.72388 1.10926 0.60661
 C2766 C 0.73738 1.09681 0.61771
 C2767 C 0.75454 1.10530 0.62700
 C2768 C 0.75883 1.12603 0.62494
 C2769 C 0.74560 1.13825 0.61364
 C2770 C 0.72835 1.13004 0.60464
 C2771 C 0.70565 1.09966 0.59707
 C2772 C 0.69063 1.11094 0.58694
 C2773 C 0.67403 1.10133 0.57812
 C2774 C 0.67199 1.08015 0.57887
 C2775 C 0.68677 1.06880 0.58922
 C2776 C 0.70332 1.07840 0.59856
 C2777 C 0.73389 1.07591 0.61913
 C2778 C 0.71739 1.06687 0.60952
 H2779 H 0.74424 1.06634 0.62759
 H2780 H 0.71551 1.05061 0.61087
 H2781 H 0.76483 1.09563 0.63539
 H2782 H 0.74848 1.15429 0.61182
 H2783 H 0.66259 1.11065 0.57096
 H2784 H 0.68551 1.05245 0.58995
 H2785 H 0.71888 1.14021 0.59602
 H2786 H 0.69122 1.12724 0.58588
 C2787 C 0.72451 0.60936 1.10583
 C2788 C 0.73841 0.59670 1.11619
 C2789 C 0.75570 0.60508 1.12534
 C2790 C 0.75972 0.62592 1.12387
 C2791 C 0.74613 0.63834 1.11325
 C2792 C 0.72874 0.63024 1.10440
 C2793 C 0.70609 0.59987 1.09652
 C2794 C 0.69070 0.61128 1.08710
 C2795 C 0.67393 0.60175 1.07848
 C2796 C 0.67207 0.58054 1.07877
 C2797 C 0.68723 0.56906 1.08838
 C2798 C 0.70398 0.57854 1.09746
 C2799 C 0.73517 0.57575 1.11703
 C2800 C 0.71848 0.56684 1.10764
 H2801 H 0.74586 0.56602 1.12487
 H2802 H 0.71680 0.55052 1.10854
 H2803 H 0.76627 0.59527 1.13320
 H2804 H 0.74881 0.65447 1.11194
 H2805 H 0.66223 0.61112 1.07183
 H2806 H 0.68610 0.55268 1.08872
 H2807 H 0.71895 0.64057 1.09637
 H2808 H 0.69113 0.62760 1.08647
 C2809 C 1.22638 0.89623 0.89306
 C2810 C 1.22926 0.87507 0.89508
 C2811 C 1.24601 0.86564 0.88591
 C2812 C 1.25975 0.87688 0.87418
 C2813 C 1.25649 0.89773 0.87167
 C2814 C 1.24009 0.90732 0.88101
 C2815 C 1.20857 0.90578 0.90347
 C2816 C 1.20527 0.92687 0.90379
 C2817 C 1.18820 0.93500 0.91328
 C2818 C 1.17378 0.92238 0.92254
 C2819 C 1.17726 0.90135 0.92274
 C2820 C 1.19461 0.89305 0.91362
 C2821 C 1.21523 0.86339 0.90592
 C2822 C 1.19811 0.87213 0.91469
 H2823 H 1.21736 0.84716 0.90739
 H2824 H 1.18754 0.86238 0.92263
 H2825 H 1.24811 0.84944 0.88762
 H2826 H 1.26680 0.90680 0.86270
 H2827 H 1.18635 0.95131 0.91338
 H2828 H 1.16629 0.89131 0.92969
 H2829 H 1.23834 0.92337 0.87843
 H2830 H 1.21576 0.93738 0.89697
 C2831 C 1.22547 0.39287 0.39207
 C2832 C 1.23842 0.38100 0.40437
 C2833 C 1.25583 0.37198 0.39597
 C2834 C 1.26118 0.37533 0.37552
 C2835 C 1.24844 0.38766 0.36362
 C2836 C 1.23088 0.39617 0.37168
 C2837 C 1.20688 0.40194 0.40146
 C2838 C 1.19212 0.41230 0.39005
 C2839 C 1.17526 0.42084 0.39950
 C2840 C 1.17268 0.41963 0.42064
 C2841 C 1.18713 0.40885 0.43208
 C2842 C 1.20390 0.39971 0.42260
 C2843 C 1.23419 0.37866 0.42510
 C2844 C 1.21754 0.38815 0.43409
 H2845 H 1.24413 0.36968 0.43462
 H2846 H 1.21517 0.38617 0.45025
 H2847 H 1.26547 0.36292 0.40568
 H2848 H 1.25172 0.39068 0.34783
 H2849 H 1.16405 0.42821 0.39004
 H2850 H 1.18546 0.40765 0.44839
 H2851 H 1.22193 0.40557 0.36173
 H2852 H 1.19310 0.41371 0.37377
 C2853 C 0.72522 0.89184 0.39382
 C2854 C 0.73923 0.90450 0.38364
 C2855 C 0.75661 0.89612 0.37461
 C2856 C 0.76059 0.87527 0.37601
 C2857 C 0.74683 0.86282 0.38635
 C2858 C 0.72937 0.87093 0.39509
 C2859 C 0.70680 0.90134 0.40315
 C2860 C 0.69142 0.88993 0.41256
 C2861 C 0.67468 0.89947 0.42126
 C2862 C 0.67282 0.92067 0.42105
 C2863 C 0.68795 0.93216 0.41142
 C2864 C 0.70471 0.92267 0.40229
 C2865 C 0.73600 0.92548 0.38285
 C2866 C 0.71925 0.93439 0.39219
 H2867 H 0.74673 0.93520 0.37511
 H2868 H 0.71757 0.95071 0.39134
 H2869 H 0.76729 0.90595 0.36693
 H2870 H 0.74943 0.84667 0.38759
 H2871 H 0.66299 0.89009 0.42792
 H2872 H 0.68681 0.94854 0.41113
 H2873 H 0.71947 0.86056 0.40293
 H2874 H 0.69184 0.87361 0.41316
 C2875 C 0.72465 0.39107 0.89358
 C2876 C 0.73811 0.40350 0.88241
 C2877 C 0.75520 0.39496 0.87293
 C2878 C 0.75943 0.37418 0.87484
 C2879 C 0.74626 0.36203 0.88628
 C2880 C 0.72912 0.37029 0.89549
 C2881 C 0.70641 0.40067 0.90318
 C2882 C 0.69140 0.38937 0.91329
 C2883 C 0.67473 0.39896 0.92207
 C2884 C 0.67258 0.42013 0.92131
 C2885 C 0.68739 0.43150 0.91101
 C2886 C 0.70403 0.42193 0.90171
 C2887 C 0.73460 0.42441 0.88107
 C2888 C 0.71810 0.43346 0.89075
 H2889 H 0.74492 0.43398 0.87260
 H2890 H 0.71620 0.44972 0.88942
 H2891 H 0.76541 0.40459 0.86441
 H2892 H 0.74903 0.34595 0.88801
 H2893 H 0.66330 0.38960 0.92919
 H2894 H 0.68606 0.44785 0.91026
 H2895 H 0.71972 0.36014 0.90419
 H2896 H 0.69202 0.37308 0.91433
 C2897 C 0.77262 0.89441 1.10302
 C2898 C 0.76982 0.89634 1.12425
 C2899 C 0.75284 0.88757 1.13366
 C2900 C 0.73884 0.87630 1.12231
 C2901 C 0.74191 0.87402 1.10137
 C2902 C 0.75849 0.88300 1.09181
 C2903 C 0.79079 0.90422 1.09352
 C2904 C 0.79425 0.90435 1.07241
 C2905 C 0.81161 0.91333 1.06434
 C2906 C 0.82611 0.92232 1.07704
 C2907 C 0.82257 0.92258 1.09809
 C2908 C 0.80498 0.91391 1.10634
 C2909 C 0.78416 0.90664 1.13602
 C2910 C 0.80151 0.91496 1.12730
 H2911 H 0.78210 0.90802 1.15229
 H2912 H 0.81229 0.92252 1.13712
 H2913 H 0.75082 0.88910 1.14992
 H2914 H 0.73133 0.86543 1.09225
 H2915 H 0.81359 0.91333 1.04802
 H2916 H 0.83366 0.92927 1.10819
 H2917 H 0.76006 0.88061 1.07569
 H2918 H 0.78368 0.89776 1.06183
 C2919 C 0.77525 0.39429 0.60814
 C2920 C 0.76144 0.38387 0.59546
 C2921 C 0.74406 0.37487 0.60382
 C2922 C 0.73986 0.37654 0.62464
 C2923 C 0.75331 0.38730 0.63707
 C2924 C 0.77080 0.39601 0.62899
 C2925 C 0.79382 0.40336 0.59870
 C2926 C 0.80916 0.41272 0.61018
 C2927 C 0.82605 0.42116 0.60070
 C2928 C 0.82810 0.42073 0.57948
 C2929 C 0.81304 0.41108 0.56792
 C2930 C 0.79614 0.40219 0.57736
 C2931 C 0.76489 0.38279 0.57450
 C2932 C 0.78170 0.39200 0.56561
 H2933 H 0.75427 0.37491 0.56476
 H2934 H 0.78354 0.39093 0.54930
 H2935 H 0.73358 0.36692 0.59399
 H2936 H 0.75049 0.38881 0.65319
 H2937 H 0.83769 0.42783 0.61014
 H2938 H 0.81435 0.41060 0.55153
 H2939 H 0.78048 0.40415 0.63933
 H2940 H 0.80858 0.41348 0.62652
 C2941 C 0.27526 0.89458 0.60807
 C2942 C 0.26142 0.88426 0.59534
 C2943 C 0.24412 0.87506 0.60368
 C2944 C 0.24006 0.87640 0.62455
 C2945 C 0.25360 0.88697 0.63705
 C2946 C 0.27097 0.89590 0.62899
 C2947 C 0.29367 0.90396 0.59864
 C2948 C 0.30895 0.91342 0.61014
 C2949 C 0.32573 0.92208 0.60067
 C2950 C 0.32773 0.92179 0.57945
 C2951 C 0.31270 0.91212 0.56787
 C2952 C 0.29591 0.90302 0.57729
 C2953 C 0.26476 0.88345 0.57435
 C2954 C 0.28149 0.89285 0.56549
 H2955 H 0.25415 0.87561 0.56457
 H2956 H 0.28327 0.89196 0.54916
 H2957 H 0.23360 0.86722 0.59380
 H2958 H 0.25093 0.88820 0.65322
 H2959 H 0.33734 0.92878 0.61012
 H2960 H 0.31396 0.91178 0.55146
 H2961 H 0.28071 0.90388 0.63940
 H2962 H 0.30841 0.91408 0.62649
 C2963 C 0.27523 0.39430 1.10844
 C2964 C 0.26169 0.38346 1.09583
 C2965 C 0.24454 0.37407 1.10425
 C2966 C 0.24028 0.37585 1.12504
 C2967 C 0.25345 0.38702 1.13740
 C2968 C 0.27072 0.39607 1.12928
 C2969 C 0.29356 0.40378 1.09896
 C2970 C 0.30869 0.41354 1.11040
 C2971 C 0.32542 0.42223 1.10089
 C2972 C 0.32751 0.42171 1.07967
 C2973 C 0.31262 0.41176 1.06815
 C2974 C 0.29591 0.40256 1.07763
 C2975 C 0.26516 0.38235 1.07487
 C2976 C 0.28172 0.39195 1.06593
 H2977 H 0.25474 0.37415 1.06518
 H2978 H 0.28359 0.39084 1.04962
 H2979 H 0.23424 0.36580 1.09449
 H2980 H 0.25053 0.38861 1.15350
 H2981 H 0.33694 0.42912 1.11031
 H2982 H 0.31394 0.41121 1.05176
 H2983 H 0.28019 0.40454 1.13956
 H2984 H 0.30809 0.41436 1.12673
 C2985 C 0.77226 1.10472 0.89767
 C2986 C 0.76909 1.10224 0.87656
 C2987 C 0.75187 1.11069 0.86724
 C2988 C 0.73798 1.12216 0.87857
 C2989 C 0.74139 1.12490 0.89940
 C2990 C 0.75822 1.11628 0.90887
 C2991 C 0.79070 1.09531 0.90709
 C2992 C 0.79455 1.09578 0.92812
 C2993 C 0.81209 1.08707 0.93612
 C2994 C 0.82644 1.07780 0.92342
 C2995 C 0.82255 1.07702 0.90243
 C2996 C 0.80475 1.08539 0.89427
 C2997 C 0.78331 1.09173 0.86480
 C2998 C 0.80089 1.08374 0.87341
 H2999 H 0.78097 1.08989 0.84862
 H3000 H 0.81155 1.07598 0.86360
 H3001 H 0.74961 1.10878 0.85106
 H3002 H 0.73093 1.13363 0.90855
 H3003 H 0.81430 1.08747 0.95241
 H3004 H 0.83350 1.07013 0.89230
 H3005 H 0.76004 1.11908 0.92489
 H3006 H 0.78414 1.10261 0.93872
 C3007 C 0.77286 0.60561 0.39691
 C3008 C 0.77045 0.60418 0.37559
 C3009 C 0.75353 0.61299 0.36610
 C3010 C 0.73913 0.62375 0.37749
 C3011 C 0.74173 0.62538 0.39856
 C3012 C 0.75829 0.61641 0.40817
 C3013 C 0.79107 0.59591 0.40648
 C3014 C 0.79433 0.59560 0.42763
 C3015 C 0.81171 0.58672 0.43577
 C3016 C 0.82642 0.57799 0.42311
 C3017 C 0.82313 0.57796 0.40202
 C3018 C 0.80555 0.58660 0.39368
 C3019 C 0.78513 0.59430 0.36383
 C3020 C 0.80241 0.58592 0.37265
 H3021 H 0.78336 0.59326 0.34751
 H3022 H 0.81343 0.57867 0.36285
 H3023 H 0.75185 0.61190 0.34977
 H3024 H 0.73083 0.63348 0.40777
 H3025 H 0.81356 0.58657 0.45210
 H3026 H 0.83441 0.57149 0.39198
 H3027 H 0.75945 0.61832 0.42438
 H3028 H 0.78361 0.60199 0.43818
 C3029 C 0.27251 1.10607 0.39667
 C3030 C 0.26950 1.10361 0.37553
 C3031 C 0.25268 1.11256 0.36600
 C3032 C 0.23905 1.12455 0.37709
 C3033 C 0.24233 1.12735 0.39793
 C3034 C 0.25875 1.11819 0.40764
 C3035 C 0.29053 1.09610 0.40630
 C3036 C 0.29412 1.09641 0.42738
 C3037 C 0.31137 1.08728 0.43556
 C3038 C 0.32567 1.07774 0.42299
 C3039 C 0.32197 1.07702 0.40197
 C3040 C 0.30445 1.08579 0.39364
 C3041 C 0.28352 1.09264 0.36395
 C3042 C 0.30078 1.08420 0.37275
 H3043 H 0.28130 1.09084 0.34775
 H3044 H 0.31133 1.07614 0.36306
 H3045 H 0.25055 1.11063 0.34980
 H3046 H 0.23207 1.13653 0.40687
 H3047 H 0.31342 1.08763 0.45187
 H3048 H 0.33288 1.06993 0.39195
 H3049 H 0.26053 1.12103 0.42366
 H3050 H 0.28373 1.10346 0.43786
 C3051 C 0.27567 0.60640 0.89200
 C3052 C 0.26247 0.61791 0.90440
 C3053 C 0.24520 0.62708 0.89596
 C3054 C 0.24048 0.62447 0.87534
 C3055 C 0.25332 0.61263 0.86322
 C3056 C 0.27069 0.60376 0.87136
 C3057 C 0.29414 0.59718 0.90150
 C3058 C 0.30901 0.58691 0.89016
 C3059 C 0.32584 0.57839 0.89970
 C3060 C 0.32826 0.57957 0.92086
 C3061 C 0.31365 0.59014 0.93225
 C3062 C 0.29688 0.59920 0.92271
 C3063 C 0.26637 0.61987 0.92522
 C3064 C 0.28302 0.61045 0.93423
 H3065 H 0.25623 0.62860 0.93477
 H3066 H 0.28521 0.61221 0.95044
 H3067 H 0.23518 0.63586 0.90558
 H3068 H 0.25008 0.61035 0.84727
 H3069 H 0.33714 0.57107 0.89031
 H3070 H 0.31520 0.59123 0.94858
 H3071 H 0.27987 0.59472 0.86128
 H3072 H 0.30814 0.58552 0.87387
 C3073 C 1.10852 1.22422 1.10598
 C3074 C 1.09600 1.23793 1.11675
 C3075 C 1.10444 1.25520 1.12592
 C3076 C 1.12518 1.25941 1.12399
 C3077 C 1.13745 1.24606 1.11290
 C3078 C 1.12931 1.22867 1.10408
 C3079 C 1.09901 1.20580 1.09672
 C3080 C 1.11038 1.19054 1.08703
 C3081 C 1.10084 1.17377 1.07844
 C3082 C 1.07968 1.17176 1.07901
 C3083 C 1.06824 1.18675 1.08895
 C3084 C 1.07775 1.20352 1.09802
 C3085 C 1.07510 1.23452 1.11798
 C3086 C 1.06613 1.21785 1.10856
 H3087 H 1.06546 1.24506 1.12612
 H3088 H 1.04986 1.21604 1.10974
 H3089 H 1.09475 1.26563 1.13413
 H3090 H 1.15350 1.24892 1.11120
 H3091 H 1.11020 1.16217 1.07156
 H3092 H 1.05189 1.18548 1.08955
 H3093 H 1.13952 1.21907 1.09567
 H3094 H 1.12667 1.19108 1.08617
 C3095 C 1.10522 0.72744 0.60357
 C3096 C 1.10446 0.72962 0.62494
 C3097 C 1.11341 0.74651 0.63431
 C3098 C 1.12361 0.76118 0.62276
 C3099 C 1.12461 0.75881 0.60162
 C3100 C 1.11553 0.74224 0.59212
 C3101 C 1.09537 0.70925 0.59414
 C3102 C 1.09443 0.70618 0.57299
 C3103 C 1.08547 0.68878 0.56497
 C3104 C 1.07729 0.67387 0.57776
 C3105 C 1.07784 0.67698 0.59886
 C3106 C 1.08658 0.69456 0.60708
 C3107 C 1.09508 0.71476 0.63686
 C3108 C 1.08654 0.69750 0.62815
 H3109 H 1.09454 0.71636 0.65323
 H3110 H 1.07969 0.68634 0.63807
 H3111 H 1.11281 0.74796 0.65069
 H3112 H 1.13230 0.76988 0.59227
 H3113 H 1.08486 0.68708 0.54863
 H3114 H 1.07179 0.66555 0.60899
 H3115 H 1.11694 0.74124 0.57585
 H3116 H 1.10040 0.71705 0.56234
 C3117 C 0.60573 1.22733 0.60312
 C3118 C 0.60432 1.22981 0.62443
 C3119 C 0.61320 1.24672 0.63384
 C3120 C 0.62404 1.26101 0.62241
 C3121 C 0.62583 1.25825 0.60138
 C3122 C 0.61676 1.24171 0.59182
 C3123 C 0.59576 1.20925 0.59361
 C3124 C 0.59513 1.20610 0.57247
 C3125 C 0.58601 1.18883 0.56438
 C3126 C 0.57737 1.17411 0.57709
 C3127 C 0.57761 1.17733 0.59819
 C3128 C 0.58644 1.19483 0.60647
 C3129 C 0.59439 1.21524 0.63625
 C3130 C 0.58590 1.19798 0.62750
 H3131 H 0.59340 1.21706 0.65257
 H3132 H 0.57864 1.18702 0.63735
 H3133 H 0.61204 1.24849 0.65016
 H3134 H 0.63407 1.26905 0.59217
 H3135 H 0.58562 1.18707 0.54804
 H3136 H 0.57120 1.16606 0.60829
 H3137 H 0.61876 1.24040 0.57563
 H3138 H 0.60144 1.21685 0.56188
 C3139 C 0.60860 0.72423 1.10639
 C3140 C 0.59607 0.73790 1.11720
 C3141 C 0.60452 0.75508 1.12653
 C3142 C 0.62528 0.75924 1.12470
 C3143 C 0.63756 0.74590 1.11363
 C3144 C 0.62941 0.72860 1.10465
 C3145 C 0.59908 0.70593 1.09688
 C3146 C 0.61043 0.69074 1.08708
 C3147 C 0.60088 0.67407 1.07830
 C3148 C 0.57971 0.67211 1.07879
 C3149 C 0.56828 0.68706 1.08880
 C3150 C 0.57780 0.70371 1.09807
 C3151 C 0.57515 0.73455 1.11829
 C3152 C 0.56618 0.71799 1.10868
 H3153 H 0.56551 0.74505 1.12647
 H3154 H 0.54990 0.71622 1.10977
 H3155 H 0.59483 0.76551 1.13475
 H3156 H 0.65363 0.74872 1.11202
 H3157 H 0.61024 0.66250 1.07137
 H3158 H 0.55193 0.68584 1.08933
 H3159 H 0.63964 0.71902 1.09624
 H3160 H 0.62673 0.69124 1.08628
 C3161 C 0.89194 1.22502 0.89368
 C3162 C 0.90452 1.23944 0.88400
 C3163 C 0.89600 1.25683 0.87509
 C3164 C 0.87503 1.26032 0.87591
 C3165 C 0.86267 1.24611 0.88576
 C3166 C 0.87094 1.22871 0.89450
 C3167 C 0.90160 1.20660 0.90288
 C3168 C 0.89032 1.19097 0.91204
 C3169 C 0.89999 1.17425 0.92063
 C3170 C 0.92119 1.17263 0.92052
 C3171 C 0.93256 1.18797 0.91110
 C3172 C 0.92295 1.20478 0.90218
 C3173 C 0.92554 1.23654 0.88346
 C3174 C 0.93456 1.21968 0.89250
 H3175 H 0.93519 1.24758 0.87606
 H3176 H 0.95090 1.21824 0.89180
 H3177 H 0.90581 1.26779 0.86779
 H3178 H 0.84644 1.24824 0.88658
 H3179 H 0.89073 1.16239 0.92718
 H3180 H 0.94895 1.18696 0.91090
 H3181 H 0.86060 1.21846 0.90190
 H3182 H 0.87401 1.19122 0.91262
 C3183 C 0.89206 0.72351 0.39202
 C3184 C 0.90446 0.73735 0.38131
 C3185 C 0.89583 0.75447 0.37197
 C3186 C 0.87500 0.75837 0.37367
 C3187 C 0.86284 0.74486 0.38466
 C3188 C 0.87118 0.72764 0.39365
 C3189 C 0.90178 0.70529 0.40152
 C3190 C 0.89057 0.68996 0.41123
 C3191 C 0.90028 0.67341 0.42008
 C3192 C 0.92148 0.67169 0.41972
 C3193 C 0.93278 0.68673 0.40972
 C3194 C 0.92309 0.70330 0.40043
 C3195 C 0.92543 0.73424 0.38032
 C3196 C 0.93457 0.71775 0.38992
 H3197 H 0.93498 0.74489 0.37223
 H3198 H 0.95088 0.71617 0.38891
 H3199 H 0.90544 0.76503 0.36385
 H3200 H 0.84673 0.74749 0.38619
 H3201 H 0.89104 0.66175 0.42699
 H3202 H 0.94915 0.68565 0.40927
 H3203 H 0.86104 0.71793 0.40200
 H3204 H 0.87426 0.69028 0.41196
 C3205 C 0.39410 1.22503 0.39018
 C3206 C 0.38502 1.23965 0.40302
 C3207 C 0.37581 1.25697 0.39465
 C3208 C 0.37565 1.26018 0.37356
 C3209 C 0.38477 1.24568 0.36093
 C3210 C 0.39385 1.22838 0.36906
 C3211 C 0.40375 1.20674 0.39971
 C3212 C 0.41261 1.19105 0.38824
 C3213 C 0.42147 1.17438 0.39779
 C3214 C 0.42193 1.17288 0.41905
 C3215 C 0.41300 1.18839 0.43062
 C3216 C 0.40382 1.20515 0.42114
 C3217 C 0.38535 1.23701 0.42413
 C3218 C 0.39466 1.22021 0.43299
 H3219 H 0.37841 1.24819 0.43398
 H3220 H 0.39459 1.21895 0.44940
 H3221 H 0.36905 1.26808 0.40469
 H3222 H 0.38484 1.24754 0.34461
 H3223 H 0.42771 1.16244 0.38840
 H3224 H 0.41331 1.18753 0.44705
 H3225 H 0.40064 1.21790 0.35850
 H3226 H 0.41273 1.19120 0.37188
 C3227 C 0.39122 0.72449 0.89318
 C3228 C 0.40366 0.73849 0.88273
 C3229 C 0.39509 0.75579 0.87373
 C3230 C 0.37425 0.75970 0.87539
 C3231 C 0.36204 0.74604 0.88614
 C3232 C 0.37035 0.72865 0.89488
 C3233 C 0.40092 0.70607 0.90232
 C3234 C 0.38970 0.69061 0.91183
 C3235 C 0.39942 0.67390 0.92038
 C3236 C 0.42062 0.67214 0.91991
 C3237 C 0.43190 0.68728 0.91007
 C3238 C 0.42223 0.70402 0.90110
 C3239 C 0.42462 0.73533 0.88161
 C3240 C 0.43372 0.71861 0.89083
 H3241 H 0.43417 0.74609 0.87369
 H3242 H 0.45002 0.71699 0.88972
 H3243 H 0.40476 0.76643 0.86580
 H3244 H 0.34593 0.74864 0.88765
 H3245 H 0.39019 0.66217 0.92719
 H3246 H 0.44827 0.68617 0.90954
 H3247 H 0.36017 0.71880 0.90302
 H3248 H 0.37340 0.69098 0.91266
 C3249 C 1.10336 0.77273 0.89520
 C3250 C 1.12455 0.77004 0.89711
 C3251 C 1.13401 0.75306 0.88838
 C3252 C 1.12275 0.73896 0.87715
 C3253 C 1.10185 0.74192 0.87486
 C3254 C 1.09224 0.75850 0.88381
 C3255 C 1.09379 0.79088 0.90499
 C3256 C 1.07271 0.79420 0.90518
 C3257 C 1.06457 0.81155 0.91414
 C3258 C 1.07717 0.82619 0.92305
 C3259 C 1.09819 0.82279 0.92324
 C3260 C 1.10651 0.80521 0.91460
 C3261 C 1.13622 0.78451 0.90734
 C3262 C 1.12744 0.80186 0.91562
 H3263 H 1.15246 0.78254 0.90870
 H3264 H 1.13718 0.81275 0.92312
 H3265 H 1.15023 0.75111 0.88991
 H3266 H 1.09280 0.73126 0.86629
 H3267 H 1.04828 0.81342 0.91420
 H3268 H 1.10820 0.83399 0.92986
 H3269 H 1.07616 0.75999 0.88141
 H3270 H 1.06222 0.78352 0.89866
 C3271 C 1.10273 0.27186 0.39563
 C3272 C 1.12403 0.26970 0.39685
 C3273 C 1.13359 0.25277 0.38816
 C3274 C 1.12230 0.23804 0.37781
 C3275 C 1.10123 0.24033 0.37643
 C3276 C 1.09154 0.25695 0.38524
 C3277 C 1.09311 0.29015 0.40513
 C3278 C 1.07200 0.29332 0.40548
 C3279 C 1.06382 0.31078 0.41422
 C3280 C 1.07642 0.32562 0.42276
 C3281 C 1.09746 0.32246 0.42267
 C3282 C 1.10583 0.30485 0.41417
 C3283 C 1.13571 0.28460 0.40642
 C3284 C 1.12683 0.30189 0.41470
 H3285 H 1.15202 0.28299 0.40731
 H3286 H 1.13657 0.31308 0.42174
 H3287 H 1.14991 0.25137 0.38907
 H3288 H 1.09209 0.22917 0.36863
 H3289 H 1.04752 0.31257 0.41442
 H3290 H 1.10744 0.33389 0.42894
 H3291 H 1.07533 0.25787 0.38356
 H3292 H 1.06151 0.28249 0.39921
 C3293 C 0.60472 0.77273 0.39743
 C3294 C 0.60363 0.77035 0.37610
 C3295 C 0.61246 0.75336 0.36676
 C3296 C 0.62287 0.73883 0.37830
 C3297 C 0.62420 0.74140 0.39939
 C3298 C 0.61523 0.75805 0.40887
 C3299 C 0.59500 0.79102 0.40682
 C3300 C 0.59436 0.79430 0.42796
 C3301 C 0.58546 0.81177 0.43593
 C3302 C 0.57705 0.82654 0.42310
 C3303 C 0.57735 0.82323 0.40203
 C3304 C 0.58600 0.80558 0.39386
 C3305 C 0.59406 0.78509 0.36417
 C3306 C 0.58566 0.80243 0.37283
 H3307 H 0.59329 0.78332 0.34782
 H3308 H 0.57865 0.81351 0.36290
 H3309 H 0.61162 0.75175 0.35041
 H3310 H 0.63208 0.73041 0.40870
 H3311 H 0.58506 0.81364 0.45226
 H3312 H 0.57114 0.83456 0.39187
 H3313 H 0.61688 0.75920 0.42511
 H3314 H 0.60051 0.78354 0.43862
 C3315 C 0.60580 0.27308 0.89695
 C3316 C 0.60453 0.27073 0.87562
 C3317 C 0.61364 0.25397 0.86614
 C3318 C 0.62453 0.23967 0.87753
 C3319 C 0.62611 0.24227 0.89860
 C3320 C 0.61684 0.25868 0.90822
 C3321 C 0.59570 0.29107 0.90651
 C3322 C 0.59506 0.29417 0.92767
 C3323 C 0.58589 0.31142 0.93581
 C3324 C 0.57720 0.32615 0.92312
 C3325 C 0.57741 0.32296 0.90202
 C3326 C 0.58631 0.30551 0.89370
 C3327 C 0.59450 0.28529 0.86384
 C3328 C 0.58583 0.30243 0.87266
 H3329 H 0.59358 0.28355 0.84750
 H3330 H 0.57850 0.31340 0.86284
 H3331 H 0.61261 0.25233 0.84980
 H3332 H 0.63435 0.23146 0.90779
 H3333 H 0.58553 0.31315 0.95215
 H3334 H 0.57095 0.33424 0.89196
 H3335 H 0.61869 0.25986 0.92444
 H3336 H 0.60143 0.28343 0.93823
 C3337 C 0.89697 0.77314 1.10745
 C3338 C 0.87575 0.77067 1.10567
 C3339 C 0.86618 0.75389 1.11461
 C3340 C 0.87736 0.73971 1.12586
 C3341 C 0.89829 0.74248 1.12805
 C3342 C 0.90802 0.75890 1.11893
 C3343 C 0.90664 0.79108 1.09738
 C3344 C 0.92775 0.79421 1.09707
 C3345 C 0.93599 0.81137 1.08783
 C3346 C 0.92345 0.82598 1.07876
 C3347 C 0.90241 0.82278 1.07867
 C3348 C 0.89400 0.80540 1.08761
 C3349 C 0.86415 0.78512 1.09530
 C3350 C 0.87304 0.80226 1.08673
 H3351 H 0.84789 0.78330 1.09403
 H3352 H 0.86336 0.81314 1.07912
 H3353 H 0.84994 0.75211 1.11314
 H3354 H 0.90730 0.73175 1.13661
 H3355 H 0.95228 0.81312 1.08771
 H3356 H 0.89246 0.83397 1.07193
 H3357 H 0.92413 0.76022 1.12121
 H3358 H 0.93819 0.78353 1.10372
 C3359 C 0.89197 0.27556 0.60690
 C3360 C 0.90455 0.26151 0.61715
 C3361 C 0.89607 0.24424 0.62628
 C3362 C 0.87522 0.24041 0.62489
 C3363 C 0.86286 0.25419 0.61444
 C3364 C 0.87106 0.27155 0.60562
 C3365 C 0.90155 0.29388 0.59749
 C3366 C 0.89020 0.30930 0.58805
 C3367 C 0.89980 0.32592 0.57924
 C3368 C 0.92100 0.32762 0.57938
 C3369 C 0.93243 0.31248 0.58909
 C3370 C 0.92287 0.29582 0.59831
 C3371 C 0.92552 0.26459 0.61789
 C3372 C 0.93451 0.28123 0.60846
 H3373 H 0.93518 0.25380 0.62567
 H3374 H 0.95083 0.28279 0.60926
 H3375 H 0.90582 0.23351 0.63402
 H3376 H 0.84672 0.25167 0.61320
 H3377 H 0.89049 0.33765 0.57253
 H3378 H 0.94880 0.31354 0.58934
 H3379 H 0.86076 0.28146 0.59770
 H3380 H 0.87390 0.30900 0.58749
 C3381 C 0.39311 0.77635 0.60987
 C3382 C 0.38244 0.76266 0.59726
 C3383 C 0.37285 0.74564 0.60573
 C3384 C 0.37420 0.74166 0.62662
 C3385 C 0.38510 0.75503 0.63901
 C3386 C 0.39437 0.77217 0.63082
 C3387 C 0.40293 0.79446 0.60029
 C3388 C 0.41271 0.80964 0.61166
 C3389 C 0.42171 0.82618 0.60206
 C3390 C 0.42146 0.82803 0.58082
 C3391 C 0.41156 0.81304 0.56936
 C3392 C 0.40208 0.79653 0.57892
 C3393 C 0.38173 0.76584 0.57624
 C3394 C 0.39157 0.78225 0.56724
 H3395 H 0.37365 0.75533 0.56654
 H3396 H 0.39073 0.78390 0.55089
 H3397 H 0.36478 0.73520 0.59594
 H3398 H 0.38635 0.75235 0.65518
 H3399 H 0.42859 0.83776 0.61143
 H3400 H 0.41125 0.81414 0.55295
 H3401 H 0.40262 0.78179 0.64114
 H3402 H 0.41334 0.80923 0.62801
 C3403 C 0.39436 0.27602 1.11005
 C3404 C 0.38389 0.26225 1.09736
 C3405 C 0.37445 0.24512 1.10576
 C3406 C 0.37576 0.24111 1.12664
 C3407 C 0.38655 0.25451 1.13910
 C3408 C 0.39567 0.27177 1.13098
 C3409 C 0.40391 0.29431 1.10055
 C3410 C 0.41335 0.30964 1.11201
 C3411 C 0.42210 0.32635 1.10248
 C3412 C 0.42195 0.32821 1.08124
 C3413 C 0.41236 0.31309 1.06970
 C3414 C 0.40311 0.29641 1.07918
 C3415 C 0.38321 0.26546 1.07635
 C3416 C 0.39286 0.28201 1.06743
 H3417 H 0.37530 0.25486 1.06660
 H3418 H 0.39207 0.28369 1.05108
 H3419 H 0.36650 0.23464 1.09593
 H3420 H 0.38779 0.25178 1.15526
 H3421 H 0.42873 0.33803 1.11190
 H3422 H 0.41212 0.31421 1.05329
 H3423 H 0.40382 0.28143 1.14134
 H3424 H 0.41387 0.30922 1.12837
 C3425 C 1.10631 1.10824 0.77413
 C3426 C 1.11954 1.09646 0.76207
 C3427 C 1.12894 1.10504 0.74494
 C3428 C 1.12446 1.12501 0.73882
 C3429 C 1.11058 1.13628 0.75047
 C3430 C 1.10180 1.12813 0.76791
 C3431 C 1.09709 1.09877 0.79262
 C3432 C 1.08590 1.10994 0.80696
 C3433 C 1.07735 1.10042 0.82380
 C3434 C 1.07930 1.07939 0.82672
 C3435 C 1.09089 1.06824 0.81266
 C3436 C 1.10020 1.07785 0.79605
 C3437 C 1.12277 1.07599 0.76679
 C3438 C 1.11289 1.06676 0.78309
 H3439 H 1.13271 1.06684 0.75744
 H3440 H 1.11556 1.05078 0.78583
 H3441 H 1.13909 1.09575 0.73599
 H3442 H 1.10666 1.15169 0.74650
 H3443 H 1.06943 1.10976 0.83473
 H3444 H 1.09271 1.05203 0.81455
 H3445 H 1.09123 1.13755 0.77611
 H3446 H 1.08395 1.12612 0.80569
 C3447 C 1.10723 0.60945 0.27523
 C3448 C 1.11977 0.59764 0.26249
 C3449 C 1.12920 0.60651 0.24554
 C3450 C 1.12557 0.62692 0.24032
 C3451 C 1.11229 0.63825 0.25259
 C3452 C 1.10341 0.62974 0.26984
 C3453 C 1.09810 0.59963 0.29361
 C3454 C 1.08743 0.61061 0.30848
 C3455 C 1.07901 0.60079 0.32522
 C3456 C 1.08061 0.57966 0.32754
 C3457 C 1.09168 0.56866 0.31298
 C3458 C 1.10076 0.57853 0.29637
 C3459 C 1.12244 0.57693 0.26645
 C3460 C 1.11275 0.56749 0.28274
 H3461 H 1.13185 0.56777 0.25656
 H3462 H 1.11501 0.55136 0.28491
 H3463 H 1.13881 0.59714 0.23610
 H3464 H 1.10895 0.65395 0.24924
 H3465 H 1.07143 0.60995 0.33654
 H3466 H 1.09320 0.55238 0.31445
 H3467 H 1.09338 0.63925 0.27859
 H3468 H 1.08576 0.62685 0.30768
 C3469 C 0.60657 1.10832 0.27419
 C3470 C 0.61935 1.09638 0.26179
 C3471 C 0.62888 1.10502 0.24477
 C3472 C 0.62499 1.12525 0.23911
 C3473 C 0.61152 1.13669 0.25107
 C3474 C 0.60263 1.12847 0.26841
 C3475 C 0.59723 1.09878 0.29257
 C3476 C 0.58644 1.11000 0.30717
 C3477 C 0.57779 1.10043 0.32393
 C3478 C 0.57927 1.07932 0.32651
 C3479 C 0.59043 1.06810 0.31218
 C3480 C 0.59980 1.07772 0.29561
 C3481 C 0.62203 1.07575 0.26611
 C3482 C 0.61205 1.06651 0.28234
 H3483 H 0.63162 1.06648 0.25651
 H3484 H 0.61429 1.05042 0.28479
 H3485 H 0.63870 1.09561 0.23556
 H3486 H 0.60807 1.15230 0.24745
 H3487 H 0.57018 1.10977 0.33508
 H3488 H 0.59186 1.05183 0.31382
 H3489 H 0.59242 1.13804 0.27686
 H3490 H 0.58488 1.12624 0.30618
 C3491 C 0.60699 0.60838 0.77494
 C3492 C 0.61777 0.59591 0.76117
 C3493 C 0.62709 0.60448 0.74401
 C3494 C 0.62531 0.62529 0.73996
 C3495 C 0.61424 0.63750 0.75338
 C3496 C 0.60526 0.62923 0.77067
 C3497 C 0.59752 0.59872 0.79323
 C3498 C 0.58782 0.60999 0.80855
 C3499 C 0.57900 0.60033 0.82517
 C3500 C 0.57936 0.57911 0.82696
 C3501 C 0.58935 0.56776 0.81191
 C3502 C 0.59865 0.57740 0.79531
 C3503 C 0.61882 0.57495 0.76440
 C3504 C 0.60921 0.56586 0.78092
 H3505 H 0.62697 0.56537 0.75381
 H3506 H 0.61027 0.54955 0.78258
 H3507 H 0.63528 0.59483 0.73352
 H3508 H 0.61266 0.65361 0.75066
 H3509 H 0.57212 0.60962 0.83683
 H3510 H 0.58981 0.55138 0.81302
 H3511 H 0.59686 0.63941 0.78032
 H3512 H 0.58709 0.62631 0.80818
 C3513 C 0.89502 0.89742 0.77171
 C3514 C 0.89667 0.87620 0.76899
 C3515 C 0.88804 0.86692 0.75185
 C3516 C 0.87721 0.87840 0.73757
 C3517 C 0.87523 0.89935 0.74054
 C3518 C 0.88405 0.90878 0.75730
 C3519 C 0.90465 0.90678 0.79007
 C3520 C 0.90493 0.92785 0.79355
 C3521 C 0.91378 0.93580 0.81106
 C3522 C 0.92249 0.92302 0.82569
 C3523 C 0.92256 0.90201 0.82218
 C3524 C 0.91399 0.89387 0.80445
 C3525 C 0.90658 0.86432 0.78355
 C3526 C 0.91481 0.87293 0.80103
 H3527 H 0.90777 0.84806 0.78155
 H3528 H 0.92208 0.86304 0.81197
 H3529 H 0.88934 0.85066 0.74991
 H3530 H 0.86699 0.90858 0.72975
 H3531 H 0.91392 0.95209 0.81305
 H3532 H 0.92903 0.89187 0.83339
 H3533 H 0.88190 0.92491 0.75877
 H3534 H 0.89856 0.93849 0.78289
 C3535 C 0.89383 0.39671 0.27239
 C3536 C 0.89766 0.37600 0.26840
 C3537 C 0.88909 0.36663 0.25127
 C3538 C 0.87569 0.37728 0.23849
 C3539 C 0.87126 0.39762 0.24318
 C3540 C 0.88031 0.40723 0.25970
 C3541 C 0.90379 0.40633 0.29041
 C3542 C 0.90286 0.42729 0.29433
 C3543 C 0.91202 0.43547 0.31158
 C3544 C 0.92213 0.42300 0.32560
 C3545 C 0.92350 0.40211 0.32149
 C3546 C 0.91489 0.39384 0.30385
 C3547 C 0.90953 0.36461 0.28187
 C3548 C 0.91753 0.37322 0.29947
 H3549 H 0.91229 0.34867 0.27902
 H3550 H 0.92622 0.36366 0.30963
 H3551 H 0.89233 0.35078 0.24846
 H3552 H 0.86112 0.40650 0.23385
 H3553 H 0.91127 0.45171 0.31381
 H3554 H 0.93109 0.39212 0.33210
 H3555 H 0.87626 0.42283 0.26245
 H3556 H 0.89541 0.43767 0.28412
 C3557 C 0.39633 0.89396 0.27247
 C3558 C 0.37544 0.89693 0.26885
 C3559 C 0.36623 0.88827 0.25167
 C3560 C 0.37729 0.87571 0.23838
 C3561 C 0.39785 0.87208 0.24271
 C3562 C 0.40726 0.88117 0.25934
 C3563 C 0.40577 0.90408 0.29051
 C3564 C 0.42678 0.90398 0.29412
 C3565 C 0.43482 0.91328 0.31135
 C3566 C 0.42216 0.92271 0.32568
 C3567 C 0.40120 0.92331 0.32188
 C3568 C 0.39303 0.91450 0.30427
 C3569 C 0.36376 0.90809 0.28266
 C3570 C 0.37227 0.91627 0.30023
 H3571 H 0.34769 0.91019 0.28007
 H3572 H 0.36250 0.92442 0.31064
 H3573 H 0.35023 0.89087 0.24917
 H3574 H 0.40704 0.86255 0.23305
 H3575 H 0.45108 0.91314 0.31335
 H3576 H 0.39109 0.93039 0.33272
 H3577 H 0.42305 0.87776 0.26180
 H3578 H 0.43730 0.89706 0.28368
 C3579 C 0.39720 0.39398 0.77252
 C3580 C 0.37598 0.39537 0.76984
 C3581 C 0.36677 0.38652 0.75279
 C3582 C 0.37831 0.37576 0.73850
 C3583 C 0.39924 0.37384 0.74153
 C3584 C 0.40860 0.38285 0.75825
 C3585 C 0.40650 0.40408 0.79066
 C3586 C 0.42756 0.40487 0.79392
 C3587 C 0.43545 0.41412 0.81125
 C3588 C 0.42263 0.42270 0.82594
 C3589 C 0.40161 0.42238 0.82255
 C3590 C 0.39353 0.41343 0.80498
 C3591 C 0.36404 0.40533 0.78431
 C3592 C 0.37258 0.41389 0.80166
 H3593 H 0.34777 0.40630 0.78234
 H3594 H 0.36265 0.42118 0.81254
 H3595 H 0.35052 0.38774 0.75087
 H3596 H 0.40852 0.36560 0.73078
 H3597 H 0.45174 0.41460 0.81310
 H3598 H 0.39144 0.42878 0.83376
 H3599 H 0.42473 0.38080 0.75978
 H3600 H 0.43822 0.39860 0.78323
 C3601 C 1.10582 0.89103 1.22596
 C3602 C 1.11673 0.90351 1.23957
 C3603 C 1.12561 0.89510 1.25701
 C3604 C 1.12324 0.87445 1.26153
 C3605 C 1.11191 0.86224 1.24836
 C3606 C 1.10338 0.87035 1.23075
 C3607 C 1.09695 0.90051 1.20728
 C3608 C 1.08732 0.88915 1.19200
 C3609 C 1.07904 0.89869 1.17503
 C3610 C 1.07987 0.91986 1.17285
 C3611 C 1.08986 0.93126 1.18782
 C3612 C 1.09864 0.92175 1.20476
 C3613 C 1.11839 0.92436 1.23589
 C3614 C 1.10925 0.93333 1.21905
 H3615 H 1.12664 0.93395 1.24637
 H3616 H 1.11074 0.94957 1.21705
 H3617 H 1.13398 0.90476 1.26733
 H3618 H 1.10986 0.84627 1.25150
 H3619 H 1.07215 0.88933 1.16343
 H3620 H 1.09068 0.94761 1.18641
 H3621 H 1.09477 0.86022 1.22126
 H3622 H 1.08625 0.87286 1.19269
 C3623 C 1.10506 0.39141 0.72600
 C3624 C 1.11596 0.40392 0.73960
 C3625 C 1.12496 0.39550 0.75699
 C3626 C 1.12276 0.37482 0.76144
 C3627 C 1.11146 0.36259 0.74827
 C3628 C 1.10280 0.37070 0.73072
 C3629 C 1.09602 0.40090 0.70740
 C3630 C 1.08630 0.38954 0.69217
 C3631 C 1.07787 0.39908 0.67527
 C3632 C 1.07864 0.42026 0.67311
 C3633 C 1.08867 0.43167 0.68805
 C3634 C 1.09759 0.42215 0.70492
 C3635 C 1.11751 0.42478 0.73595
 C3636 C 1.10825 0.43374 0.71917
 H3637 H 1.12577 0.43439 0.74640
 H3638 H 1.10965 0.44999 0.71719
 H3639 H 1.13331 0.40518 0.76730
 H3640 H 1.10953 0.34659 0.75135
 H3641 H 1.07095 0.38972 0.66370
 H3642 H 1.08943 0.44801 0.68668
 H3643 H 1.09426 0.36052 0.72121
 H3644 H 1.08527 0.37325 0.69284
 C3645 C 0.60865 0.89417 0.72516
 C3646 C 0.59610 0.88371 0.73908
 C3647 C 0.60458 0.87444 0.75632
 C3648 C 0.62541 0.87590 0.76026
 C3649 C 0.63774 0.88657 0.74662
 C3650 C 0.62954 0.89553 0.72929
 C3651 C 0.59905 0.90370 0.70686
 C3652 C 0.61037 0.91329 0.69150
 C3653 C 0.60075 0.92216 0.67487
 C3654 C 0.57956 0.92195 0.67310
 C3655 C 0.56816 0.91213 0.68821
 C3656 C 0.57774 0.90282 0.70485
 C3657 C 0.57513 0.88291 0.73593
 C3658 C 0.56613 0.89249 0.71934
 H3659 H 0.56549 0.87498 0.74661
 H3660 H 0.54982 0.89162 0.71773
 H3661 H 0.59485 0.86652 0.76693
 H3662 H 0.65387 0.88788 0.74923
 H3663 H 0.61007 0.92895 0.66318
 H3664 H 0.55179 0.91182 0.68713
 H3665 H 0.63981 0.90362 0.71948
 H3666 H 0.62668 0.91390 0.69184
 C3667 C 0.60648 0.39679 1.22836
 C3668 C 0.60237 0.37618 1.23254
 C3669 C 0.61078 0.36685 1.24979
 C3670 C 0.62432 0.37741 1.26246
 C3671 C 0.62912 0.39760 1.25751
 C3672 C 0.62021 0.40720 1.24089
 C3673 C 0.59657 0.40642 1.21031
 C3674 C 0.59761 0.42736 1.20635
 C3675 C 0.58845 0.43559 1.18912
 C3676 C 0.57824 0.42317 1.17514
 C3677 C 0.57675 0.40229 1.17931
 C3678 C 0.58535 0.39399 1.19696
 C3679 C 0.59038 0.36485 1.21915
 C3680 C 0.58251 0.37343 1.20147
 H3681 H 0.58744 0.34897 1.22215
 H3682 H 0.57372 0.36391 1.19137
 H3683 H 0.60730 0.35109 1.25276
 H3684 H 0.63943 0.40639 1.26673
 H3685 H 0.58928 0.45181 1.18688
 H3686 H 0.56908 0.39234 1.16874
 H3687 H 0.62452 0.42269 1.23794
 H3688 H 0.60514 0.43770 1.21654
 C3689 C 0.89296 1.10808 1.22452
 C3690 C 0.88226 1.09548 1.23822
 C3691 C 0.87300 1.10386 1.25550
 C3692 C 0.87461 1.12466 1.25968
 C3693 C 0.88535 1.13706 1.24614
 C3694 C 0.89436 1.12895 1.22880
 C3695 C 0.90263 1.09855 1.20626
 C3696 C 0.91272 1.10989 1.19124
 C3697 C 0.92164 1.10034 1.17461
 C3698 C 0.92100 1.07916 1.17251
 C3699 C 0.91078 1.06774 1.18732
 C3700 C 0.90142 1.07726 1.20395
 C3701 C 0.88120 1.07455 1.23479
 C3702 C 0.89075 1.06561 1.21816
 H3703 H 0.87304 1.06488 1.24528
 H3704 H 0.88964 1.04933 1.21632
 H3705 H 0.86501 1.09405 1.26597
 H3706 H 0.88678 1.15317 1.24888
 H3707 H 0.92880 1.10969 1.16318
 H3708 H 0.91020 1.05138 1.18602
 H3709 H 0.90254 1.13927 1.21913
 H3710 H 0.91372 1.12619 1.19187
 C3711 C 0.89471 0.60779 0.72570
 C3712 C 0.88427 0.59513 0.73952
 C3713 C 0.87534 0.60343 0.75701
 C3714 C 0.87713 0.62418 0.76130
 C3715 C 0.88791 0.63660 0.74784
 C3716 C 0.89653 0.62858 0.73025
 C3717 C 0.90371 0.59842 0.70703
 C3718 C 0.91306 0.60992 0.69166
 C3719 C 0.92147 0.60049 0.67470
 C3720 C 0.92101 0.57932 0.67259
 C3721 C 0.91134 0.56775 0.68766
 C3722 C 0.90248 0.57714 0.70464
 C3723 C 0.88310 0.57422 0.73600
 C3724 C 0.89227 0.56539 0.71909
 H3725 H 0.87521 0.56449 0.74663
 H3726 H 0.89115 0.54911 0.71719
 H3727 H 0.86737 0.59361 0.76751
 H3728 H 0.88950 0.65266 0.75074
 H3729 H 0.92814 0.60993 0.66304
 H3730 H 0.91083 0.55139 0.68629
 H3731 H 0.90470 0.63890 0.72056
 H3732 H 0.91384 0.62623 0.69228
 C3733 C 0.39426 1.10334 0.72802
 C3734 C 0.39590 1.12455 0.73079
 C3735 C 0.38707 1.13383 0.74785
 C3736 C 0.37620 1.12235 0.76211
 C3737 C 0.37423 1.10140 0.75903
 C3738 C 0.38311 1.09201 0.74228
 C3739 C 0.40414 1.09396 0.70981
 C3740 C 0.40445 1.07289 0.70635
 C3741 C 0.41352 1.06490 0.68896
 C3742 C 0.42242 1.07765 0.67442
 C3743 C 0.42252 1.09867 0.67795
 C3744 C 0.41373 1.10683 0.69557
 C3745 C 0.40608 1.13640 0.71640
 C3746 C 0.41457 1.12777 0.69904
 H3747 H 0.40730 1.15265 0.71846
 H3748 H 0.42207 1.13763 0.68824
 H3749 H 0.38843 1.15008 0.74979
 H3750 H 0.36598 1.09208 0.76971
 H3751 H 0.41366 1.04861 0.68699
 H3752 H 0.42914 1.10879 0.66683
 H3753 H 0.38093 1.07589 0.74075
 H3754 H 0.39793 1.06226 0.71692
 C3755 C 0.39538 0.60868 1.22570
 C3756 C 0.38457 0.59617 1.23937
 C3757 C 0.37566 0.60458 1.25680
 C3758 C 0.37788 0.62526 1.26124
 C3759 C 0.38910 0.63750 1.24799
 C3760 C 0.39768 0.62939 1.23040
 C3761 C 0.40430 0.59919 1.20704
 C3762 C 0.41389 0.61056 1.19173
 C3763 C 0.42222 0.60102 1.17478
 C3764 C 0.42147 0.57985 1.17266
 C3765 C 0.41154 0.56843 1.18766
 C3766 C 0.40272 0.57794 1.20459
 C3767 C 0.38300 0.57531 1.23575
 C3768 C 0.39216 0.56634 1.21892
 H3769 H 0.37481 0.56570 1.24627
 H3770 H 0.39075 0.55010 1.21696
 H3771 H 0.36736 0.59489 1.26716
 H3772 H 0.39103 0.65350 1.25104
 H3773 H 0.42906 0.61038 1.16316
 H3774 H 0.41078 0.55208 1.18630
 H3775 H 0.40620 0.63956 1.22085
 H3776 H 0.41489 0.62686 1.19238
 C3777 C 1.10863 1.22468 0.89407
 C3778 C 1.09664 1.23739 0.88166
 C3779 C 1.10521 1.25465 0.87256
 C3780 C 1.12542 1.26023 0.87653
 C3781 C 1.13689 1.24798 0.88972
 C3782 C 1.12873 1.23042 0.89819
 C3783 C 1.09918 1.20602 0.90288
 C3784 C 1.11044 1.19118 0.91327
 C3785 C 1.10094 1.17421 0.92152
 C3786 C 1.07986 1.17164 0.92001
 C3787 C 1.06860 1.18616 0.90916
 C3788 C 1.07815 1.20298 0.90022
 C3789 C 1.07604 1.23309 0.87885
 C3790 C 1.06689 1.21655 0.88835
 H3791 H 1.06674 1.24293 0.86953
 H3792 H 1.05082 1.21413 0.88606
 H3793 H 1.09576 1.26410 0.86302
 H3794 H 1.15246 1.25157 0.89328
 H3795 H 1.11029 1.16292 0.92890
 H3796 H 1.05234 1.18451 0.90772
 H3797 H 1.13834 1.22170 0.90815
 H3798 H 1.12667 1.19217 0.91485
 C3799 C 1.10873 0.72448 0.39451
 C3800 C 1.09691 0.73687 0.38162
 C3801 C 1.10551 0.75408 0.37246
 C3802 C 1.12559 0.75989 0.37675
 C3803 C 1.13690 0.74790 0.39031
 C3804 C 1.12870 0.73042 0.39891
 C3805 C 1.09923 0.70590 0.40345
 C3806 C 1.11038 0.69135 0.41437
 C3807 C 1.10085 0.67443 0.42267
 C3808 C 1.07983 0.67162 0.42071
 C3809 C 1.06869 0.68587 0.40937
 C3810 C 1.07830 0.70262 0.40036
 C3811 C 1.07642 0.73233 0.37842
 C3812 C 1.06720 0.71586 0.38799
 H3813 H 1.06725 0.74191 0.36871
 H3814 H 1.05122 0.71324 0.38535
 H3815 H 1.09616 0.76327 0.36258
 H3816 H 1.15237 0.75166 0.39413
 H3817 H 1.11016 0.66337 0.43042
 H3818 H 1.05249 0.68404 0.40757
 H3819 H 1.13816 0.72197 0.40923
 H3820 H 1.12655 0.69254 0.41632
 C3821 C 0.60372 1.22675 0.39264
 C3822 C 0.62427 1.23099 0.39685
 C3823 C 0.63364 1.24803 0.38818
 C3824 C 0.62319 1.26053 0.37435
 C3825 C 0.60305 1.25554 0.36946
 C3826 C 0.59340 1.23907 0.37859
 C3827 C 0.59406 1.20887 0.40282
 C3828 C 0.57316 1.20483 0.40168
 C3829 C 0.56495 1.18774 0.41107
 C3830 C 0.57734 1.17393 0.42158
 C3831 C 0.59816 1.17822 0.42321
 C3832 C 0.60643 1.19575 0.41441
 C3833 C 0.63551 1.21788 0.40924
 C3834 C 0.62692 1.20036 0.41739
 H3835 H 0.65134 1.22095 0.41230
 H3836 H 0.63639 1.19048 0.42649
 H3837 H 0.64935 1.25101 0.39176
 H3838 H 0.59436 1.26460 0.35890
 H3839 H 0.54875 1.18545 0.41013
 H3840 H 0.60811 1.16783 0.43112
 H3841 H 0.57796 1.23605 0.37421
 H3842 H 0.56286 1.21486 0.39387
 C3843 C 0.60769 0.72445 0.89313
 C3844 C 0.59501 0.73840 0.88285
 C3845 C 0.60332 0.75590 0.87396
 C3846 C 0.62408 0.76007 0.87572
 C3847 C 0.63651 0.74640 0.88622
 C3848 C 0.62850 0.72881 0.89475
 C3849 C 0.59830 0.70589 0.90226
 C3850 C 0.60979 0.69050 0.91158
 C3851 C 0.60036 0.67366 0.92018
 C3852 C 0.57919 0.67171 0.91996
 C3853 C 0.56762 0.68681 0.91033
 C3854 C 0.57701 0.70367 0.90129
 C3855 C 0.57409 0.73501 0.88188
 C3856 C 0.56525 0.71818 0.89115
 H3857 H 0.56435 0.74571 0.87410
 H3858 H 0.54897 0.71641 0.89021
 H3859 H 0.59352 0.76654 0.86616
 H3860 H 0.65259 0.74919 0.88773
 H3861 H 0.60979 0.66198 0.92681
 H3862 H 0.55126 0.68557 0.91000
 H3863 H 0.63885 0.71901 0.90275
 H3864 H 0.62609 0.69099 0.91220
 C3865 C 0.89227 1.22391 1.10816
 C3866 C 0.90456 1.23715 1.11973
 C3867 C 0.89596 1.25427 1.12912
 C3868 C 0.87534 1.25880 1.12659
 C3869 C 0.86334 1.24585 1.11478
 C3870 C 0.87161 1.22864 1.10572
 C3871 C 0.90190 1.20567 1.09859
 C3872 C 0.89069 1.19081 1.08818
 C3873 C 0.90031 1.17420 1.07934
 C3874 C 0.92145 1.17197 1.08032
 C3875 C 0.93273 1.18657 1.09101
 C3876 C 0.92310 1.20313 1.10039
 C3877 C 0.92538 1.23345 1.12146
 C3878 C 0.93450 1.21700 1.11174
 H3879 H 0.93486 1.24361 1.13022
 H3880 H 0.95071 1.21496 1.11334
 H3881 H 0.90547 1.26439 1.13790
 H3882 H 0.84739 1.24893 1.11258
 H3883 H 0.89101 1.16290 1.07196
 H3884 H 0.94904 1.18516 1.09198
 H3885 H 0.86161 1.21945 1.09666
 H3886 H 0.87442 1.19151 1.08694
 C3887 C 0.89131 0.72385 0.60772
 C3888 C 0.90370 0.73768 0.61846
 C3889 C 0.89506 0.75482 0.62775
 C3890 C 0.87425 0.75876 0.62600
 C3891 C 0.86210 0.74523 0.61502
 C3892 C 0.87044 0.72799 0.60606
 C3893 C 0.90104 0.70564 0.59820
 C3894 C 0.88985 0.69035 0.58841
 C3895 C 0.89958 0.67381 0.57955
 C3896 C 0.92077 0.67206 0.57997
 C3897 C 0.93204 0.68707 0.59004
 C3898 C 0.92234 0.70363 0.59934
 C3899 C 0.92466 0.73453 0.61950
 C3900 C 0.93381 0.71803 0.60991
 H3901 H 0.93419 0.74515 0.62762
 H3902 H 0.95011 0.71643 0.61097
 H3903 H 0.90466 0.76537 0.63588
 H3904 H 0.84599 0.74786 0.61347
 H3905 H 0.89035 0.66218 0.57258
 H3906 H 0.94841 0.68598 0.59053
 H3907 H 0.86030 0.71828 0.59772
 H3908 H 0.87355 0.69069 0.58762
 C3909 C 0.39089 1.22514 0.60618
 C3910 C 0.40297 1.23802 0.61830
 C3911 C 0.39434 1.25508 0.62773
 C3912 C 0.37386 1.26021 0.62457
 C3913 C 0.36218 1.24766 0.61188
 C3914 C 0.37048 1.23037 0.60295
 C3915 C 0.40053 1.20680 0.59684
 C3916 C 0.38938 1.19199 0.58630
 C3917 C 0.39904 1.17528 0.57768
 C3918 C 0.42016 1.17293 0.57898
 C3919 C 0.43134 1.18748 0.58982
 C3920 C 0.42166 1.20407 0.59907
 C3921 C 0.42371 1.23408 0.62054
 C3922 C 0.43293 1.21772 0.61078
 H3923 H 0.43306 1.24403 0.62967
 H3924 H 0.44908 1.21555 0.61272
 H3925 H 0.40393 1.26466 0.63697
 H3926 H 0.34639 1.25085 0.60895
 H3927 H 0.38978 1.16399 0.57021
 H3928 H 0.44763 1.18599 0.59105
 H3929 H 0.36070 1.22148 0.59334
 H3930 H 0.37313 1.19280 0.58487
 C3931 C 0.39812 0.72783 1.10658
 C3932 C 0.37745 0.73192 1.10275
 C3933 C 0.36822 0.74916 1.11120
 C3934 C 0.37896 0.76209 1.12437
 C3935 C 0.39925 0.75729 1.12887
 C3936 C 0.40872 0.74056 1.12001
 C3937 C 0.40761 0.70973 1.09663
 C3938 C 0.42853 0.70568 1.09752
 C3939 C 0.43661 0.68846 1.08826
 C3940 C 0.42408 0.67455 1.07811
 C3941 C 0.40323 0.67877 1.07680
 C3942 C 0.39506 0.69641 1.08551
 C3943 C 0.36599 0.71853 1.09092
 C3944 C 0.37448 0.70090 1.08290
 H3945 H 0.35009 0.72150 1.08814
 H3946 H 0.36487 0.69083 1.07418
 H3947 H 0.35241 0.75199 1.10792
 H3948 H 0.40816 0.76665 1.13894
 H3949 H 0.45282 0.68615 1.08898
 H3950 H 0.39319 0.66826 1.06919
 H3951 H 0.42428 0.73772 1.12409
 H3952 H 0.43895 0.71579 1.10502
 C3953 C 0.89146 0.77590 0.89325
 C3954 C 0.90386 0.76205 0.88253
 C3955 C 0.89525 0.74486 0.87336
 C3956 C 0.87445 0.74089 0.87523
 C3957 C 0.86230 0.75442 0.88623
 C3958 C 0.87062 0.77172 0.89507
 C3959 C 0.90117 0.79420 0.90259
 C3960 C 0.88996 0.80956 0.91228
 C3961 C 0.89967 0.82616 0.92100
 C3962 C 0.92087 0.82789 0.92055
 C3963 C 0.93215 0.81282 0.91056
 C3964 C 0.92247 0.79621 0.90137
 C3965 C 0.92481 0.76521 0.88137
 C3966 C 0.93394 0.78176 0.89084
 H3967 H 0.93434 0.75456 0.87326
 H3968 H 0.95024 0.78337 0.88972
 H3969 H 0.90485 0.73431 0.86522
 H3970 H 0.84621 0.75176 0.88788
 H3971 H 0.89043 0.83784 0.92790
 H3972 H 0.94852 0.81390 0.91003
 H3973 H 0.86049 0.78144 0.90343
 H3974 H 0.87366 0.80923 0.91307
 C3975 C 0.89663 0.27263 0.39391
 C3976 C 0.87532 0.27051 0.39505
 C3977 C 0.86579 0.25360 0.38629
 C3978 C 0.87713 0.23883 0.37597
 C3979 C 0.89820 0.24112 0.37467
 C3980 C 0.90785 0.25772 0.38352
 C3981 C 0.90624 0.29084 0.40355
 C3982 C 0.92735 0.29392 0.40403
 C3983 C 0.93554 0.31127 0.41294
 C3984 C 0.92296 0.32612 0.42153
 C3985 C 0.90190 0.32305 0.42133
 C3986 C 0.89351 0.30553 0.41264
 C3987 C 0.86363 0.28542 0.40464
 C3988 C 0.87250 0.30264 0.41306
 H3989 H 0.84731 0.28385 0.40546
 H3990 H 0.86275 0.31382 0.42013
 H3991 H 0.84947 0.25220 0.38716
 H3992 H 0.90740 0.22996 0.36693
 H3993 H 0.95184 0.31297 0.41322
 H3994 H 0.89192 0.33446 0.42767
 H3995 H 0.92407 0.25863 0.38188
 H3996 H 0.93785 0.28309 0.39774
 C3997 C 0.39186 0.77471 0.39488
 C3998 C 0.40379 0.76224 0.38216
 C3999 C 0.39517 0.74517 0.37277
 C4000 C 0.37498 0.73952 0.37676
 C4001 C 0.36357 0.75154 0.39021
 C4002 C 0.37178 0.76892 0.39897
 C4003 C 0.40136 0.79319 0.40401
 C4004 C 0.39015 0.80783 0.41472
 C4005 C 0.39967 0.82469 0.42316
 C4006 C 0.42074 0.82733 0.42154
 C4007 C 0.43197 0.81296 0.41044
 C4008 C 0.42238 0.79628 0.40129
 C4009 C 0.42438 0.76658 0.37935
 C4010 C 0.43358 0.78293 0.38912
 H4011 H 0.43364 0.75692 0.36980
 H4012 H 0.44964 0.78539 0.38679
 H4013 H 0.40457 0.73591 0.36300
 H4014 H 0.34800 0.74791 0.39376
 H4015 H 0.39033 0.83585 0.43073
 H4016 H 0.44821 0.81466 0.40891
 H4017 H 0.36222 0.77744 0.40916
 H4018 H 0.37393 0.80680 0.41638
 C4019 C 0.39030 0.27555 0.89410
 C4020 C 0.40275 0.26139 0.88386
 C4021 C 0.39409 0.24428 0.87457
 C4022 C 0.37314 0.24077 0.87565
 C4023 C 0.36093 0.25464 0.88617
 C4024 C 0.36933 0.27180 0.89524
 C4025 C 0.40008 0.29377 0.90355
 C4026 C 0.38891 0.30930 0.91303
 C4027 C 0.39869 0.32587 0.92176
 C4028 C 0.41990 0.32742 0.92152
 C4029 C 0.43116 0.31215 0.91181
 C4030 C 0.42143 0.29553 0.90268
 C4031 C 0.42376 0.26423 0.88316
 C4032 C 0.43292 0.28080 0.89256
 H4033 H 0.43332 0.25336 0.87538
 H4034 H 0.44925 0.28220 0.89173
 H4035 H 0.40377 0.23352 0.86681
 H4036 H 0.34473 0.25241 0.88724
 H4037 H 0.38949 0.33768 0.92849
 H4038 H 0.44754 0.31308 0.91149
 H4039 H 0.35912 0.28181 0.90315
 H4040 H 0.37261 0.30912 0.91366
 C4041 C 1.10558 0.77282 1.10464
 C4042 C 1.10267 0.76929 1.12562
 C4043 C 1.11144 0.75222 1.13495
 C4044 C 1.12409 0.73901 1.12392
 C4045 C 1.12754 0.74320 1.10324
 C4046 C 1.11834 0.75969 1.09373
 C4047 C 1.09552 0.79083 1.09510
 C4048 C 1.09567 0.79439 1.07402
 C4049 C 1.08655 0.81167 1.06589
 C4050 C 1.07722 0.82607 1.07851
 C4051 C 1.07653 0.82230 1.09955
 C4052 C 1.08518 0.80466 1.10781
 C4053 C 1.09151 0.78315 1.13726
 C4054 C 1.08337 0.80069 1.12864
 H4055 H 1.08943 0.78063 1.15339
 H4056 H 1.07526 0.81114 1.13839
 H4057 H 1.10892 0.74978 1.15101
 H4058 H 1.13707 0.73356 1.09402
 H4059 H 1.08675 0.81365 1.04957
 H4060 H 1.06950 0.83320 1.10963
 H4061 H 1.12168 0.76204 1.07787
 H4062 H 1.10251 0.78389 1.06350
 C4063 C 1.10368 0.27341 0.60747
 C4064 C 1.12438 0.26949 0.60364
 C4065 C 1.13376 0.25237 0.61217
 C4066 C 1.12316 0.23951 0.62553
 C4067 C 1.10286 0.24421 0.63009
 C4068 C 1.09321 0.26073 0.62107
 C4069 C 1.09399 0.29133 0.59739
 C4070 C 1.07302 0.29511 0.59818
 C4071 C 1.06476 0.31221 0.58883
 C4072 C 1.07716 0.32624 0.57868
 C4073 C 1.09807 0.32227 0.57746
 C4074 C 1.10642 0.30476 0.58624
 C4075 C 1.13571 0.28295 0.59175
 C4076 C 1.12705 0.30048 0.58368
 H4077 H 1.15165 0.28013 0.58898
 H4078 H 1.13656 0.31064 0.57495
 H4079 H 1.14959 0.24960 0.60889
 H4080 H 1.09405 0.23487 0.64029
 H4081 H 1.04852 0.31432 0.58949
 H4082 H 1.10802 0.33288 0.56986
 H4083 H 1.07763 0.26348 0.62516
 H4084 H 1.06270 0.28488 0.60567
 C4085 C 0.60361 0.77356 0.60604
 C4086 C 0.62477 0.77077 0.60398
 C4087 C 0.63421 0.75383 0.61278
 C4088 C 0.62300 0.73986 0.62424
 C4089 C 0.60216 0.74300 0.62680
 C4090 C 0.59253 0.75955 0.61776
 C4091 C 0.59404 0.79160 0.59602
 C4092 C 0.57296 0.79491 0.59578
 C4093 C 0.56482 0.81215 0.58660
 C4094 C 0.57742 0.82672 0.57754
 C4095 C 0.59844 0.82330 0.57735
 C4096 C 0.60675 0.80579 0.58618
 C4097 C 0.63643 0.78508 0.59350
 C4098 C 0.62766 0.80238 0.58509
 H4099 H 0.65265 0.78303 0.59203
 H4100 H 0.63740 0.81315 0.57740
 H4101 H 0.65041 0.75178 0.61108
 H4102 H 0.59316 0.73246 0.63559
 H4103 H 0.54853 0.81401 0.58651
 H4104 H 0.60846 0.83441 0.57059
 H4105 H 0.57649 0.76118 0.62033
 H4106 H 0.56248 0.78429 0.60242
 C4107 C 0.60347 0.27346 1.10666
 C4108 C 0.62463 0.27073 1.10458
 C4109 C 0.63414 0.25382 1.11336
 C4110 C 0.62298 0.23980 1.12481
 C4111 C 0.60213 0.24286 1.12738
 C4112 C 0.59244 0.25940 1.11837
 C4113 C 0.59384 0.29150 1.09668
 C4114 C 0.57276 0.29482 1.09655
 C4115 C 0.56458 0.31206 1.08739
 C4116 C 0.57714 0.32660 1.07824
 C4117 C 0.59815 0.32318 1.07797
 C4118 C 0.60651 0.30570 1.08679
 C4119 C 0.63624 0.28505 1.09406
 C4120 C 0.62742 0.30232 1.08564
 H4121 H 0.65246 0.28304 1.09258
 H4122 H 0.63712 0.31310 1.07793
 H4123 H 0.65034 0.25182 1.11166
 H4124 H 0.59316 0.23228 1.13615
 H4125 H 0.54829 0.31393 1.08739
 H4126 H 0.60814 0.33429 1.07116
 H4127 H 0.57639 0.26095 1.12091
 H4128 H 0.56231 0.28421 1.10326
 C4129 C 1.22774 1.10324 0.89490
 C4130 C 1.22942 1.12463 0.89501
 C4131 C 1.24635 1.13408 0.88617
 C4132 C 1.26167 1.12255 0.87692
 C4133 C 1.25982 1.10136 0.87670
 C4134 C 1.24315 1.09183 0.88553
 C4135 C 1.20948 1.09373 0.90455
 C4136 C 1.20669 1.07259 0.90578
 C4137 C 1.18929 1.06448 0.91464
 C4138 C 1.17412 1.07716 0.92248
 C4139 C 1.17689 1.09826 0.92156
 C4140 C 1.19443 1.10658 0.91283
 C4141 C 1.21411 1.13648 0.90375
 C4142 C 1.19694 1.12766 0.91233
 H4143 H 1.21535 1.15286 0.90384
 H4144 H 1.18547 1.13751 0.91876
 H4145 H 1.24737 1.15046 0.88629
 H4146 H 1.27135 1.09196 0.86981
 H4147 H 1.18778 1.04816 0.91548
 H4148 H 1.16522 1.10828 0.92732
 H4149 H 1.24264 1.07552 0.88474
 H4150 H 1.21774 1.06201 0.90006
 C4151 C 1.22511 0.60600 0.39168
 C4152 C 1.23860 0.61702 0.40419
 C4153 C 1.25579 0.62628 0.39571
 C4154 C 1.26016 0.62416 0.37497
 C4155 C 1.24710 0.61273 0.36274
 C4156 C 1.22976 0.60383 0.37091
 C4157 C 1.20670 0.59674 0.40122
 C4158 C 1.19155 0.58698 0.38983
 C4159 C 1.17479 0.57839 0.39939
 C4160 C 1.17270 0.57903 0.42061
 C4161 C 1.18757 0.58909 0.43206
 C4162 C 1.20430 0.59819 0.42252
 C4163 C 1.23506 0.61841 0.42512
 C4164 C 1.21847 0.60891 0.43413
 H4165 H 1.24545 0.62673 0.43474
 H4166 H 1.21656 0.61021 0.45043
 H4167 H 1.26603 0.63471 0.40539
 H4168 H 1.25013 0.61084 0.34669
 H4169 H 1.16326 0.57145 0.39000
 H4170 H 1.18624 0.58977 0.44844
 H4171 H 1.22037 0.59514 0.36074
 H4172 H 1.19215 0.58606 0.37350
 C4173 C 0.72464 1.10911 0.39345
 C4174 C 0.73932 1.09636 0.38438
 C4175 C 0.75673 1.10476 0.37546
 C4176 C 0.76000 1.12580 0.37563
 C4177 C 0.74552 1.13835 0.38485
 C4178 C 0.72810 1.13018 0.39362
 C4179 C 0.70621 1.09955 0.40271
 C4180 C 0.69038 1.11095 0.41139
 C4181 C 0.67364 1.10137 0.42000
 C4182 C 0.67218 1.08014 0.42039
 C4183 C 0.68776 1.06864 0.41151
 C4184 C 0.70460 1.07816 0.40258
 C4185 C 0.73664 1.07530 0.38443
 C4186 C 0.71975 1.06639 0.39348
 H4187 H 0.74788 1.06551 0.37751
 H4188 H 0.71848 1.05001 0.39323
 H4189 H 0.76788 1.09480 0.36867
 H4190 H 0.74748 1.15462 0.38519
 H4191 H 0.66163 1.11071 0.42616
 H4192 H 0.68691 1.05224 0.41174
 H4193 H 0.71763 1.14066 0.40052
 H4194 H 0.69050 1.12729 0.41156
 C4195 C 0.72423 0.60814 0.89355
 C4196 C 0.73829 0.59550 0.88339
 C4197 C 0.75564 0.60392 0.87437
 C4198 C 0.75956 0.62477 0.87580
 C4199 C 0.74580 0.63718 0.88621
 C4200 C 0.72835 0.62905 0.89492
 C4201 C 0.70579 0.59862 0.90277
 C4202 C 0.69027 0.61004 0.91196
 C4203 C 0.67352 0.60049 0.92059
 C4204 C 0.67180 0.57927 0.92053
 C4205 C 0.68703 0.56778 0.91105
 C4206 C 0.70379 0.57728 0.90197
 C4207 C 0.73515 0.57452 0.88264
 C4208 C 0.71843 0.56558 0.89197
 H4209 H 0.74595 0.56481 0.87495
 H4210 H 0.71683 0.54925 0.89118
 H4211 H 0.76635 0.59412 0.86667
 H4212 H 0.74839 0.65333 0.88751
 H4213 H 0.66173 0.60986 0.92710
 H4214 H 0.68597 0.55140 0.91085
 H4215 H 0.71845 0.63937 0.90282
 H4216 H 0.69060 0.62636 0.91244
 C4217 C 1.22718 0.89278 1.10441
 C4218 C 1.22955 0.89446 1.12571
 C4219 C 1.24614 0.88527 1.13541
 C4220 C 1.26019 0.87381 1.12428
 C4221 C 1.25753 0.87175 1.10325
 C4222 C 1.24132 0.88114 1.09341
 C4223 C 1.20943 0.90307 1.09461
 C4224 C 1.20643 0.90346 1.07343
 C4225 C 1.18941 0.91286 1.06508
 C4226 C 1.17480 0.92204 1.07757
 C4227 C 1.17791 0.92206 1.09869
 C4228 C 1.19516 0.91296 1.10722
 C4229 C 1.21518 0.90500 1.13726
 C4230 C 1.19820 0.91378 1.12825
 H4231 H 1.21692 0.90622 1.15358
 H4232 H 1.18736 0.92150 1.13790
 H4233 H 1.24786 0.88667 1.15171
 H4234 H 1.26817 0.86307 1.09426
 H4235 H 1.18776 0.91303 1.04873
 H4236 H 1.16674 0.92887 1.10862
 H4237 H 1.24007 0.87893 1.07724
 H4238 H 1.21709 0.89673 1.06302
 C4239 C 1.22663 0.39569 0.60654
 C4240 C 1.22900 0.37440 0.60522
 C4241 C 1.24567 0.36490 0.61445
 C4242 C 1.25983 0.37622 0.62556
 C4243 C 1.25714 0.39723 0.62731
 C4244 C 1.24083 0.40688 0.61789
 C4245 C 1.20881 0.40528 0.59619
 C4246 C 1.20585 0.42642 0.59537
 C4247 C 1.18874 0.43459 0.58599
 C4248 C 1.17399 0.42198 0.57729
 C4249 C 1.17710 0.40090 0.57760
 C4250 C 1.19443 0.39253 0.58668
 C4251 C 1.21453 0.36269 0.59503
 C4252 C 1.19747 0.37152 0.58624
 H4253 H 1.21627 0.34638 0.59410
 H4254 H 1.18657 0.36175 0.57881
 H4255 H 1.24738 0.34860 0.61332
 H4256 H 1.26783 0.40635 0.63576
 H4257 H 1.18711 0.45092 0.58552
 H4258 H 1.16583 0.39089 0.57111
 H4259 H 1.23956 0.42305 0.61986
 H4260 H 1.21660 0.43692 0.60175
 C4261 C 0.72391 0.89164 0.60648
 C4262 C 0.73796 0.90421 0.61670
 C4263 C 0.75530 0.89573 0.62568
 C4264 C 0.75922 0.87487 0.62420
 C4265 C 0.74551 0.86254 0.61368
 C4266 C 0.72807 0.87074 0.60498
 C4267 C 0.70545 0.90123 0.59735
 C4268 C 0.68994 0.88989 0.58810
 C4269 C 0.67318 0.89951 0.57955
 C4270 C 0.67143 0.92072 0.57976
 C4271 C 0.68664 0.93214 0.58932
 C4272 C 0.70342 0.92256 0.59830
 C4273 C 0.73479 0.92519 0.61759
 C4274 C 0.71805 0.93420 0.60835
 H4275 H 0.74558 0.93485 0.62534
 H4276 H 0.71643 0.95052 0.60926
 H4277 H 0.76598 0.90549 0.63344
 H4278 H 0.74811 0.84639 0.61232
 H4279 H 0.66140 0.89019 0.57296
 H4280 H 0.68556 0.94852 0.58963
 H4281 H 0.71819 0.86047 0.59701
 H4282 H 0.69029 0.87357 0.58750
 C4283 C 0.72764 0.39405 1.10317
 C4284 C 0.73062 0.39615 1.12436
 C4285 C 0.74765 0.38741 1.13367
 C4286 C 0.76152 0.37597 1.12230
 C4287 C 0.75817 0.37333 1.10145
 C4288 C 0.74153 0.38230 1.09196
 C4289 C 0.70956 0.40407 1.09373
 C4290 C 0.70613 0.40433 1.07262
 C4291 C 0.68889 0.41356 1.06458
 C4292 C 0.67444 0.42265 1.07731
 C4293 C 0.67796 0.42280 1.09836
 C4294 C 0.69548 0.41392 1.10658
 C4295 C 0.71640 0.40661 1.13616
 C4296 C 0.69904 0.41500 1.12752
 H4297 H 0.71858 0.40809 1.15241
 H4298 H 0.68835 0.42269 1.13736
 H4299 H 0.74986 0.38915 1.14988
 H4300 H 0.76862 0.36453 1.09234
 H4301 H 0.68695 0.41367 1.04825
 H4302 H 0.66694 0.42958 1.10848
 H4303 H 0.73972 0.37966 1.07591
 H4304 H 0.71668 0.39769 1.06202
 C4305 C 0.77303 1.10642 1.10260
 C4306 C 0.77009 1.10427 1.12378
 C4307 C 0.75303 1.11293 1.13315
 C4308 C 0.73911 1.12434 1.12183
 C4309 C 0.74237 1.12695 1.10096
 C4310 C 0.75903 1.11805 1.09142
 C4311 C 0.79119 1.09656 1.09311
 C4312 C 0.79468 1.09647 1.07200
 C4313 C 0.81199 1.08737 1.06393
 C4314 C 0.82644 1.07825 1.07664
 C4315 C 0.82288 1.07798 1.09769
 C4316 C 0.80531 1.08673 1.10592
 C4317 C 0.78436 1.09385 1.13555
 C4318 C 0.80176 1.08556 1.12686
 H4319 H 0.78221 1.09233 1.15180
 H4320 H 0.81248 1.07790 1.13668
 H4321 H 0.75087 1.11118 1.14937
 H4322 H 0.73186 1.13568 1.09187
 H4323 H 0.81397 1.08737 1.04761
 H4324 H 0.83391 1.07119 1.10779
 H4325 H 0.76075 1.12066 1.07535
 H4326 H 0.78414 1.10315 1.06143
 C4327 C 0.77314 0.60667 0.60248
 C4328 C 0.77034 0.60468 0.62370
 C4329 C 0.75340 0.61348 0.63313
 C4330 C 0.73942 0.62485 0.62183
 C4331 C 0.74253 0.62727 0.60091
 C4332 C 0.75908 0.61826 0.59131
 C4333 C 0.79122 0.59672 0.59294
 C4334 C 0.79462 0.59655 0.57182
 C4335 C 0.81188 0.58738 0.56371
 C4336 C 0.82634 0.57825 0.57639
 C4337 C 0.82287 0.57805 0.59745
 C4338 C 0.80537 0.58689 0.60573
 C4339 C 0.78464 0.59426 0.63544
 C4340 C 0.80193 0.58583 0.62669
 H4341 H 0.78258 0.59284 0.65171
 H4342 H 0.81268 0.57817 0.63649
 H4343 H 0.75136 0.61187 0.64938
 H4344 H 0.73197 0.63596 0.59183
 H4345 H 0.81381 0.58734 0.54738
 H4346 H 0.83393 0.57127 0.60752
 H4347 H 0.76068 0.62072 0.57521
 H4348 H 0.78407 0.60323 0.56127
 C4349 C 0.27269 1.10683 0.60260
 C4350 C 0.26980 1.10463 0.62379
 C4351 C 0.25283 1.11337 0.63324
 C4352 C 0.23895 1.12493 0.62202
 C4353 C 0.24216 1.12759 0.60115
 C4354 C 0.25872 1.11860 0.59151
 C4355 C 0.29079 1.09693 0.59303
 C4356 C 0.29424 1.09688 0.57192
 C4357 C 0.31154 1.08780 0.56378
 C4358 C 0.32602 1.07865 0.57643
 C4359 C 0.32247 1.07830 0.59749
 C4360 C 0.30492 1.08702 0.60578
 C4361 C 0.28405 1.09408 0.63548
 C4362 C 0.30139 1.08576 0.62672
 H4363 H 0.28192 1.09250 0.65172
 H4364 H 0.31211 1.07802 0.63649
 H4365 H 0.25071 1.11157 0.64947
 H4366 H 0.23168 1.13644 0.59214
 H4367 H 0.31348 1.08785 0.54746
 H4368 H 0.33352 1.07149 0.60756
 H4369 H 0.26041 1.12124 0.57544
 H4370 H 0.28368 1.10359 0.56139
 C4371 C 0.27201 0.60536 1.10215
 C4372 C 0.26917 0.60356 1.12338
 C4373 C 0.25189 0.61191 1.13262
 C4374 C 0.23757 0.62261 1.12108
 C4375 C 0.24066 0.62477 1.10013
 C4376 C 0.25758 0.61622 1.09075
 C4377 C 0.29049 0.59595 1.09282
 C4378 C 0.29407 0.59576 1.07173
 C4379 C 0.31163 0.58701 1.06381
 C4380 C 0.32623 0.57834 1.07665
 C4381 C 0.32264 0.57826 1.09770
 C4382 C 0.30486 0.58669 1.10580
 C4383 C 0.28375 0.59377 1.13532
 C4384 C 0.30134 0.58577 1.12676
 H4385 H 0.28167 0.59250 1.15159
 H4386 H 0.31227 0.57857 1.13669
 H4387 H 0.24986 0.61050 1.14889
 H4388 H 0.22986 0.63293 1.09086
 H4389 H 0.31368 0.58690 1.04750
 H4390 H 0.33382 0.57184 1.10789
 H4391 H 0.25913 0.61848 1.07461
 H4392 H 0.28344 0.60208 1.06105
 C4393 C 0.77328 0.89348 0.89730
 C4394 C 0.77068 0.89530 0.87604
 C4395 C 0.75382 0.88647 0.86653
 C4396 C 0.73971 0.87526 0.87780
 C4397 C 0.74259 0.87304 0.89877
 C4398 C 0.75908 0.88207 0.90844
 C4399 C 0.79129 0.90343 0.90693
 C4400 C 0.79451 0.90369 0.92807
 C4401 C 0.81172 0.91282 0.93627
 C4402 C 0.82630 0.92183 0.92366
 C4403 C 0.82300 0.92195 0.90257
 C4404 C 0.80556 0.91312 0.89420
 C4405 C 0.78510 0.90561 0.86436
 C4406 C 0.80231 0.91406 0.87320
 H4407 H 0.78320 0.90691 0.84806
 H4408 H 0.81316 0.92162 0.86345
 H4409 H 0.75195 0.88795 0.85024
 H4410 H 0.73192 0.86451 0.90786
 H4411 H 0.81353 0.91292 0.95261
 H4412 H 0.83417 0.92865 0.89255
 H4413 H 0.76049 0.87974 0.92458
 H4414 H 0.78387 0.89710 0.93858
 C4415 C 0.77575 0.39223 0.39209
 C4416 C 0.76229 0.38124 0.40468
 C4417 C 0.74510 0.37189 0.39628
 C4418 C 0.74070 0.37394 0.37554
 C4419 C 0.75384 0.38518 0.36320
 C4420 C 0.77117 0.39413 0.37128
 C4421 C 0.79402 0.40181 0.40156
 C4422 C 0.80904 0.41175 0.39012
 C4423 C 0.82565 0.42067 0.39963
 C4424 C 0.82773 0.42018 0.42085
 C4425 C 0.81296 0.40999 0.43236
 C4426 C 0.79638 0.40058 0.42288
 C4427 C 0.76582 0.38005 0.42563
 C4428 C 0.78231 0.38978 0.43456
 H4429 H 0.75547 0.37175 0.43532
 H4430 H 0.78420 0.38864 0.45087
 H4431 H 0.73482 0.36354 0.40600
 H4432 H 0.75082 0.38696 0.34714
 H4433 H 0.83709 0.42771 0.39021
 H4434 H 0.81427 0.40945 0.44875
 H4435 H 0.78058 0.40269 0.36102
 H4436 H 0.80845 0.41257 0.37378
 C4437 C 0.27573 0.89327 0.39194
 C4438 C 0.26216 0.88244 0.40455
 C4439 C 0.24494 0.87319 0.39614
 C4440 C 0.24062 0.87512 0.37537
 C4441 C 0.25380 0.88632 0.36303
 C4442 C 0.27116 0.89521 0.37113
 C4443 C 0.29414 0.90259 0.40141
 C4444 C 0.30934 0.91223 0.38995
 C4445 C 0.32610 0.92087 0.39946
 C4446 C 0.32814 0.92041 0.42068
 C4447 C 0.31321 0.91049 0.43221
 C4448 C 0.29648 0.90135 0.42273
 C4449 C 0.26564 0.88126 0.42550
 C4450 C 0.28225 0.89079 0.43443
 H4451 H 0.25519 0.87309 0.43519
 H4452 H 0.28411 0.88965 0.45074
 H4453 H 0.23462 0.86491 0.40588
 H4454 H 0.25082 0.88804 0.34696
 H4455 H 0.33765 0.92771 0.39003
 H4456 H 0.31450 0.90997 0.44860
 H4457 H 0.28063 0.90371 0.36087
 H4458 H 0.30877 0.91301 0.37361
 C4459 C 0.27574 0.39336 0.89188
 C4460 C 0.26213 0.38247 0.90438
 C4461 C 0.24494 0.37326 0.89587
 C4462 C 0.24068 0.37530 0.87510
 C4463 C 0.25386 0.38660 0.86286
 C4464 C 0.27121 0.39545 0.87107
 C4465 C 0.29415 0.40258 0.90145
 C4466 C 0.30942 0.41220 0.89009
 C4467 C 0.32616 0.42077 0.89969
 C4468 C 0.32812 0.42025 0.92092
 C4469 C 0.31314 0.41031 0.93235
 C4470 C 0.29642 0.40124 0.92278
 C4471 C 0.26554 0.38118 0.92534
 C4472 C 0.28213 0.39065 0.93438
 H4473 H 0.25506 0.37297 0.93496
 H4474 H 0.28393 0.38943 0.95069
 H4475 H 0.23460 0.36493 0.90555
 H4476 H 0.25092 0.38842 0.84680
 H4477 H 0.33777 0.42760 0.89032
 H4478 H 0.31437 0.40972 0.94875
 H4479 H 0.28069 0.40403 0.86090
 H4480 H 0.30891 0.41303 0.87375
   
