data_POSCAR
  _audit_creation_date              2014-09-24
  _audit_creation_method            'ToBaCCo'
  _symmetry_space_group_name_H-M    'P1'
  _symmetry_Int_Tables_number       1
  _symmetry_cell_setting            triclinic
  loop_
  _symmetry_equiv_pos_as_xyz
 x,y,z
_cell_length_a 46.9334
_cell_length_b 46.6791
_cell_length_c 47.1189
_cell_angle_alpha 89.760500
_cell_angle_beta 89.937900
_cell_angle_gamma 89.981300
loop_
  _atom_site_label
  _atom_site_type_symbol
  _atom_site_fract_x
  _atom_site_fract_y
  _atom_site_fract_z
N1 N 0.39090 0.31127 0.33001
 N2 N 0.38989 0.33031 0.30936
 C3 C 0.41132 0.32516 0.29104
 C4 C 0.42648 0.30181 0.30088
 C5 C 0.41297 0.29342 0.32554
 H6 H 0.41491 0.33658 0.27134
 H7 H 0.41788 0.27476 0.33831
 Cu8 Cu 0.35942 0.35866 0.30708
 Cu9 Cu 0.36126 0.30871 0.35876
 Cu10 Cu 0.30853 0.36002 0.35737
 N11 N 0.33015 0.38834 0.30776
 N12 N 0.31073 0.38915 0.32791
 C13 C 0.29252 0.41079 0.32262
 C14 C 0.30106 0.42423 0.29793
 C15 C 0.32490 0.40950 0.28893
 H16 H 0.27370 0.41559 0.33498
 H17 H 0.33678 0.41332 0.26961
 N18 N 0.31199 0.33168 0.38823
 N19 N 0.33218 0.31196 0.38877
 C20 C 0.32754 0.29428 0.41097
 C21 C 0.30341 0.30345 0.42498
 C22 C 0.29400 0.32707 0.41006
 H23 H 0.33975 0.27521 0.41572
 H24 H 0.27459 0.33891 0.41395
 H25 H 0.32888 0.32753 0.33582
 H26 H 0.35173 0.35180 0.35754
 N27 N 0.39831 0.82055 -0.16323
 N28 N 0.39430 0.83661 -0.18588
 C29 C 0.41229 0.82831 -0.20650
 C30 C 0.42898 0.80626 -0.19599
 C31 C 0.41967 0.80198 -0.16837
 H32 H 0.41324 0.83764 -0.22754
 H33 H 0.42675 0.78555 -0.15372
 Cu34 Cu 0.36630 0.86723 -0.18615
 Cu35 Cu 0.37302 0.82318 -0.13029
 Cu36 Cu 0.30764 0.85258 -0.14888
 N37 N 0.33303 0.89178 -0.18847
 N38 N 0.30972 0.88537 -0.17435
 C39 C 0.28897 0.90380 -0.18164
 C40 C 0.29999 0.92316 -0.20109
 C41 C 0.32811 0.91490 -0.20492
 H42 H 0.26738 0.90305 -0.17358
 H43 H 0.34324 0.92398 -0.21977
 N44 N 0.31309 0.82773 -0.11553
 N45 N 0.33812 0.81757 -0.10757
 C46 C 0.33461 0.80149 -0.08399
 C47 C 0.30598 0.80160 -0.07702
 C48 C 0.29301 0.81847 -0.09732
 H49 H 0.35134 0.78959 -0.07346
 H50 H 0.27050 0.82318 -0.09894
 H51 H 0.34311 0.82839 -0.16026
 H52 H 0.34864 0.86059 -0.13765
 N53 N 0.88828 0.31196 -0.17165
 N54 N 0.89084 0.33409 -0.18882
 C55 C 0.91373 0.33024 -0.20562
 C56 C 0.92603 0.30431 -0.19852
 C57 C 0.90930 0.29314 -0.17704
 H58 H 0.92003 0.34431 -0.22280
 H59 H 0.91142 0.27231 -0.16712
 Cu60 Cu 0.86176 0.36370 -0.18995
 Cu61 Cu 0.85591 0.30784 -0.14610
 Cu62 Cu 0.82132 0.37207 -0.13195
 N63 N 0.83165 0.39220 -0.18866
 N64 N 0.81682 0.39659 -0.16538
 C65 C 0.79830 0.41818 -0.16994
 C66 C 0.80130 0.42729 -0.19783
 C67 C 0.82256 0.41021 -0.20908
 H68 H 0.78280 0.42561 -0.15463
 H69 H 0.83081 0.41097 -0.23052
 N70 N 0.81839 0.33797 -0.10715
 N71 N 0.83055 0.31324 -0.11336
 C72 C 0.82219 0.29336 -0.09436
 C73 C 0.80400 0.30621 -0.07527
 C74 C 0.80195 0.33446 -0.08392
 H75 H 0.82817 0.27099 -0.09484
 H76 H 0.78829 0.35075 -0.07496
 H77 H 0.82713 0.33949 -0.15967
 H78 H 0.85974 0.35030 -0.13978
 N79 N 0.88610 0.80812 0.32884
 N80 N 0.88771 0.82928 0.31040
 C81 C 0.91044 0.82511 0.29345
 C82 C 0.92366 0.80003 0.30183
 C83 C 0.90759 0.78965 0.32418
 H84 H 0.91605 0.83833 0.27538
 H85 H 0.91045 0.76948 0.33519
 Cu86 Cu 0.85769 0.85792 0.30821
 Cu87 Cu 0.85423 0.80453 0.35513
 Cu88 Cu 0.81882 0.86885 0.36684
 N89 N 0.82905 0.88791 0.30968
 N90 N 0.81469 0.89302 0.33310
 C91 C 0.79707 0.91538 0.32867
 C92 C 0.80016 0.92432 0.30073
 C93 C 0.82056 0.90629 0.28932
 H94 H 0.78210 0.92353 0.34414
 H95 H 0.82865 0.90670 0.26782
 N96 N 0.81613 0.83554 0.39281
 N97 N 0.82892 0.81087 0.38774
 C98 C 0.82073 0.79155 0.40736
 C99 C 0.80179 0.80464 0.42558
 C100 C 0.79933 0.83251 0.41586
 H101 H 0.82713 0.76930 0.40775
 H102 H 0.78513 0.84880 0.42398
 H103 H 0.82428 0.83479 0.34063
 H104 H 0.85721 0.84726 0.35897
 N105 N 0.60910 0.68596 0.33382
 N106 N 0.60931 0.66531 0.31489
 C107 C 0.58766 0.66945 0.29658
 C108 C 0.57321 0.69386 0.30460
 C109 C 0.58738 0.70392 0.32819
 H110 H 0.58362 0.65674 0.27788
 H111 H 0.58322 0.72374 0.33925
 Cu112 Cu 0.63961 0.63679 0.31425
 Cu113 Cu 0.63937 0.69023 0.36169
 Cu114 Cu 0.69234 0.63900 0.36218
 N115 N 0.66945 0.60776 0.31514
 N116 N 0.68978 0.60844 0.33434
 C117 C 0.70853 0.58728 0.32912
 C118 C 0.69937 0.57260 0.30547
 C119 C 0.67461 0.58610 0.29704
 H120 H 0.72814 0.58376 0.34064
 H121 H 0.66216 0.58127 0.27837
 N122 N 0.68927 0.66884 0.39149
 N123 N 0.66901 0.68852 0.39127
 C124 C 0.67366 0.70702 0.41263
 C125 C 0.69788 0.69846 0.42688
 C126 C 0.70731 0.67431 0.41300
 H127 H 0.66123 0.72606 0.41679
 H128 H 0.72662 0.66251 0.41749
 H129 H 0.67105 0.66992 0.33910
 H130 H 0.64916 0.64728 0.36360
 N131 N 0.60410 0.18321 -0.16034
 N132 N 0.60588 0.16503 -0.18154
 C133 C 0.58660 0.17216 -0.20148
 C134 C 0.57192 0.19597 -0.19211
 C135 C 0.58343 0.20243 -0.16594
 H136 H 0.58387 0.16128 -0.22151
 H137 H 0.57786 0.22029 -0.15247
 Cu138 Cu 0.63373 0.13417 -0.18143
 Cu139 Cu 0.63034 0.18137 -0.12824
 Cu140 Cu 0.69435 0.14981 -0.14744
 N141 N 0.66710 0.10984 -0.18477
 N142 N 0.69105 0.11652 -0.17197
 C143 C 0.71146 0.09796 -0.17982
 C144 C 0.69961 0.07828 -0.19832
 C145 C 0.67133 0.08650 -0.20094
 H146 H 0.73338 0.09882 -0.17279
 H147 H 0.65554 0.07727 -0.21488
 N148 N 0.69042 0.17593 -0.11490
 N149 N 0.66577 0.18675 -0.10664
 C150 C 0.66997 0.20296 -0.08344
 C151 C 0.69866 0.20234 -0.07699
 C152 C 0.71101 0.18507 -0.09727
 H153 H 0.65359 0.21510 -0.07269
 H154 H 0.73336 0.17971 -0.09907
 H155 H 0.65890 0.17384 -0.15910
 H156 H 0.65365 0.14303 -0.13430
 N157 N 0.10901 0.68828 -0.16747
 N158 N 0.10957 0.66861 -0.18740
 C159 C 0.08767 0.67312 -0.20533
 C160 C 0.07265 0.69673 -0.19602
 C161 C 0.08678 0.70594 -0.17207
 H162 H 0.08375 0.66120 -0.22456
 H163 H 0.08222 0.72506 -0.16001
 Cu164 Cu 0.14033 0.64055 -0.18956
 Cu165 Cu 0.13944 0.69188 -0.13963
 Cu166 Cu 0.19289 0.64130 -0.14125
 N167 N 0.17030 0.61153 -0.18930
 N168 N 0.19046 0.61164 -0.16990
 C169 C 0.20907 0.59043 -0.17531
 C170 C 0.20004 0.57627 -0.19926
 C171 C 0.17547 0.59015 -0.20775
 H172 H 0.22844 0.58639 -0.16354
 H173 H 0.16304 0.58564 -0.22651
 N174 N 0.18981 0.67003 -0.11099
 N175 N 0.16945 0.68958 -0.11036
 C176 C 0.17445 0.70757 -0.08862
 C177 C 0.19900 0.69877 -0.07503
 C178 C 0.20820 0.67500 -0.08967
 H179 H 0.16209 0.72649 -0.08383
 H180 H 0.22771 0.66326 -0.08592
 H181 H 0.17122 0.67302 -0.16308
 H182 H 0.14955 0.64901 -0.13969
 N183 N 0.11032 0.18689 0.33227
 N184 N 0.11025 0.16649 0.31306
 C185 C 0.08848 0.17101 0.29498
 C186 C 0.07423 0.19539 0.30342
 C187 C 0.08865 0.20506 0.32703
 H188 H 0.08413 0.15848 0.27623
 H189 H 0.08459 0.22466 0.33849
 Cu190 Cu 0.14016 0.13755 0.31186
 Cu191 Cu 0.14072 0.19030 0.36017
 Cu192 Cu 0.19389 0.13936 0.35881
 N193 N 0.17047 0.10899 0.31143
 N194 N 0.19122 0.10951 0.33020
 C195 C 0.20998 0.08857 0.32424
 C196 C 0.20041 0.07418 0.30057
 C197 C 0.17538 0.08765 0.29288
 H198 H 0.22974 0.08484 0.33544
 H199 H 0.16242 0.08288 0.27454
 N200 N 0.19097 0.16835 0.38899
 N201 N 0.17060 0.18790 0.38952
 C202 C 0.17535 0.20579 0.41139
 C203 C 0.19975 0.19695 0.42520
 C204 C 0.20919 0.17329 0.41049
 H205 H 0.16289 0.22465 0.41616
 H206 H 0.22864 0.16151 0.41441
 H207 H 0.17191 0.17045 0.33648
 H208 H 0.15070 0.14733 0.36117
 N209 N 0.61008 0.30838 0.67136
 N210 N 0.61063 0.32831 0.69103
 C211 C 0.58929 0.32346 0.70960
 C212 C 0.57471 0.29935 0.70093
 C213 C 0.58844 0.29024 0.67671
 H214 H 0.58525 0.33577 0.72857
 H215 H 0.58381 0.27109 0.66473
 Cu216 Cu 0.64030 0.35759 0.69155
 Cu217 Cu 0.63953 0.30553 0.64248
 Cu218 Cu 0.69134 0.35781 0.64137
 N219 N 0.66898 0.38779 0.68951
 N220 N 0.68854 0.38809 0.66948
 C221 C 0.70650 0.41008 0.67399
 C222 C 0.69763 0.42431 0.69804
 C223 C 0.67387 0.40965 0.70745
 H224 H 0.72546 0.41451 0.66168
 H225 H 0.66193 0.41389 0.72662
 N226 N 0.68824 0.32827 0.61176
 N227 N 0.66831 0.30829 0.61214
 C228 C 0.67290 0.29008 0.59051
 C229 C 0.69674 0.29913 0.57590
 C230 C 0.70604 0.32328 0.58988
 H231 H 0.66081 0.27081 0.58650
 H232 H 0.72516 0.33533 0.58524
 H233 H 0.67158 0.32592 0.66447
 H234 H 0.64838 0.34884 0.64152
 N235 N 0.61320 0.80827 1.17362
 N236 N 0.61052 0.83044 1.19056
 C237 C 0.58781 0.82637 1.20760
 C238 C 0.57583 0.80025 1.20090
 C239 C 0.59248 0.78922 1.17940
 H240 H 0.58140 0.84047 1.22460
 H241 H 0.59045 0.76840 1.16962
 Cu242 Cu 0.63945 0.86022 1.19098
 Cu243 Cu 0.64520 0.80447 1.14755
 Cu244 Cu 0.67919 0.86895 1.13264
 N245 N 0.66747 0.89070 1.18838
 N246 N 0.68282 0.89432 1.16526
 C247 C 0.70103 0.91624 1.16919
 C248 C 0.69697 0.92655 1.19631
 C249 C 0.67565 0.90990 1.20798
 H250 H 0.71679 0.92332 1.15394
 H251 H 0.66737 0.91119 1.22937
 N252 N 0.68240 0.83486 1.10826
 N253 N 0.67028 0.81010 1.11456
 C254 C 0.67865 0.79034 1.09562
 C255 C 0.69701 0.80328 1.07661
 C256 C 0.69891 0.83149 1.08510
 H257 H 0.67262 0.76798 1.09609
 H258 H 0.71244 0.84788 1.07600
 H259 H 0.67399 0.83621 1.16062
 H260 H 0.64109 0.84686 1.14104
 N261 N 0.11092 0.30822 1.17046
 N262 N 0.10810 0.33064 1.18706
 C263 C 0.08551 0.32661 1.20427
 C264 C 0.07372 0.30028 1.19804
 C265 C 0.09039 0.28909 1.17662
 H266 H 0.07912 0.34083 1.22118
 H267 H 0.08860 0.26803 1.16731
 Cu268 Cu 0.13703 0.36043 1.18703
 Cu269 Cu 0.14317 0.30396 1.14469
 Cu270 Cu 0.17985 0.36727 1.13074
 N271 N 0.16540 0.39066 1.18527
 N272 N 0.18241 0.39315 1.16317
 C273 C 0.20100 0.41460 1.16781
 C274 C 0.19536 0.42593 1.19428
 C275 C 0.17271 0.41027 1.20481
 H276 H 0.21796 0.42078 1.15348
 H277 H 0.16308 0.41238 1.22555
 N278 N 0.18268 0.33298 1.10650
 N279 N 0.16931 0.30874 1.11231
 C280 C 0.17722 0.28878 1.09335
 C281 C 0.19660 0.30100 1.07489
 C282 C 0.19958 0.32902 1.08371
 H283 H 0.17018 0.26673 1.09346
 H284 H 0.21397 0.34488 1.07501
 H285 H 0.17223 0.33502 1.15860
 H286 H 0.14068 0.34648 1.13739
 N287 N 0.10820 0.80852 0.66836
 N288 N 0.10692 0.82959 0.68677
 C289 C 0.08493 0.82490 0.70460
 C290 C 0.07181 0.79968 0.69675
 C291 C 0.08714 0.78973 0.67382
 H292 H 0.07964 0.83795 0.72276
 H293 H 0.08405 0.76964 0.66290
 Cu294 Cu 0.13601 0.85930 0.68720
 Cu295 Cu 0.13899 0.80527 0.64087
 Cu296 Cu 0.18601 0.86241 0.63610
 N297 N 0.16477 0.88927 0.68678
 N298 N 0.18397 0.89059 0.66645
 C299 C 0.20229 0.91203 0.67201
 C300 C 0.19403 0.92479 0.69707
 C301 C 0.17024 0.90986 0.70597
 H302 H 0.22102 0.91708 0.65958
 H303 H 0.15869 0.91301 0.72558
 N304 N 0.18476 0.83125 0.60800
 N305 N 0.16720 0.80922 0.61014
 C306 C 0.17305 0.79049 0.58927
 C307 C 0.19527 0.80127 0.57336
 C308 C 0.20232 0.82702 0.58577
 H309 H 0.16278 0.76997 0.58648
 H310 H 0.21986 0.84082 0.57984
 H311 H 0.17007 0.83015 0.66074
 H312 H 0.14386 0.84890 0.63737
 N313 N 0.38969 0.69419 0.66947
 N314 N 0.38974 0.67394 0.68900
 C315 C 0.41112 0.67896 0.70739
 C316 C 0.42507 0.70356 0.69883
 C317 C 0.41096 0.71275 0.67478
 H318 H 0.41567 0.66635 0.72614
 H319 H 0.41517 0.73210 0.66280
 Cu320 Cu 0.36083 0.64392 0.68957
 Cu321 Cu 0.36033 0.69652 0.64045
 Cu322 Cu 0.31159 0.64140 0.63798
 N323 N 0.33304 0.61290 0.68748
 N324 N 0.31432 0.61159 0.66675
 C325 C 0.29669 0.58932 0.67135
 C326 C 0.30489 0.57596 0.69618
 C327 C 0.32790 0.59144 0.70599
 H328 H 0.27822 0.58424 0.65863
 H329 H 0.33901 0.58812 0.72582
 N330 N 0.31391 0.67118 0.60837
 N331 N 0.33239 0.69249 0.60950
 C332 C 0.32713 0.71079 0.58795
 C333 C 0.30439 0.70039 0.57261
 C334 C 0.29643 0.67537 0.58609
 H335 H 0.33792 0.73097 0.58451
 H336 H 0.27820 0.66222 0.58094
 H337 H 0.32886 0.67422 0.66157
 H338 H 0.35417 0.65302 0.63934
 N339 N 0.38943 0.19039 1.16814
 N340 N 0.39241 0.16831 1.18534
 C341 C 0.41531 0.17259 1.20199
 C342 C 0.42717 0.19869 1.19471
 C343 C 0.41018 0.20952 1.17332
 H344 H 0.42184 0.15877 1.21927
 H345 H 0.41183 0.23041 1.16344
 Cu346 Cu 0.36335 0.13868 1.18685
 Cu347 Cu 0.35668 0.19440 1.14307
 Cu348 Cu 0.32042 0.13072 1.13089
 N349 N 0.33497 0.10842 1.18593
 N350 N 0.31797 0.10553 1.16394
 C351 C 0.29947 0.08410 1.16908
 C352 C 0.30514 0.07317 1.19577
 C353 C 0.32776 0.08903 1.20591
 H354 H 0.28259 0.07760 1.15488
 H355 H 0.33750 0.08716 1.22662
 N356 N 0.31706 0.16460 1.10603
 N357 N 0.33017 0.18906 1.11122
 C358 C 0.32163 0.20877 1.09215
 C359 C 0.30212 0.19611 1.07427
 C360 C 0.29972 0.16812 1.08353
 H361 H 0.32830 0.23094 1.09183
 H362 H 0.28534 0.15203 1.07541
 H363 H 0.32790 0.16343 1.15803
 H364 H 0.35948 0.15185 1.13691
 N365 N 0.88975 0.68810 1.16758
 N366 N 0.89077 0.66727 1.18645
 C367 C 0.91274 0.67199 1.20421
 C368 C 0.92613 0.69694 1.19578
 C369 C 0.91099 0.70672 1.17263
 H370 H 0.91772 0.65926 1.22277
 H371 H 0.91424 0.72670 1.16139
 Cu372 Cu 0.86134 0.63797 1.18737
 Cu373 Cu 0.85875 0.69159 1.14038
 Cu374 Cu 0.81003 0.63576 1.13780
 N375 N 0.83191 0.60873 1.18836
 N376 N 0.81219 0.60773 1.16856
 C377 C 0.79375 0.58651 1.17474
 C378 C 0.80249 0.57360 1.19964
 C379 C 0.82666 0.58818 1.20783
 H380 H 0.77482 0.58151 1.16267
 H381 H 0.83880 0.58465 1.22701
 N382 N 0.81146 0.66675 1.10919
 N383 N 0.82976 0.68821 1.11043
 C384 C 0.82385 0.70703 1.08953
 C385 C 0.80078 0.69691 1.07454
 C386 C 0.79335 0.67144 1.08749
 H387 H 0.83458 0.72726 1.08618
 H388 H 0.77518 0.65821 1.08238
 H389 H 0.82748 0.66776 1.16134
 H390 H 0.85247 0.64808 1.13755
 N391 N 0.89102 0.19045 0.67097
 N392 N 0.89371 0.16830 0.68812
 C393 C 0.91642 0.17240 0.70506
 C394 C 0.92843 0.19849 0.69807
 C395 C 0.91177 0.20948 0.67649
 H396 H 0.92264 0.15853 0.72241
 H397 H 0.91359 0.23043 0.66677
 Cu398 Cu 0.86435 0.13900 0.68934
 Cu399 Cu 0.85848 0.19482 0.64569
 Cu400 Cu 0.82103 0.13173 0.63365
 N401 N 0.83558 0.10916 0.68863
 N402 N 0.81837 0.10653 0.66677
 C403 C 0.79955 0.08541 0.67210
 C404 C 0.80526 0.07444 0.69879
 C405 C 0.82820 0.08996 0.70871
 H406 H 0.78242 0.07919 0.65808
 H407 H 0.83800 0.08803 0.72939
 N408 N 0.81841 0.16561 0.60862
 N409 N 0.83206 0.18980 0.61372
 C410 C 0.82426 0.20951 0.59432
 C411 C 0.80478 0.19713 0.57625
 C412 C 0.80144 0.16934 0.58586
 H413 H 0.83148 0.23150 0.59385
 H414 H 0.78680 0.15351 0.57769
 H415 H 0.82917 0.16434 0.66066
 H416 H 0.86045 0.15220 0.63944
 N417 N 0.31349 0.39092 0.66740
 N418 N 0.33294 0.39004 0.68748
 C419 C 0.32804 0.41148 0.70592
 C420 C 0.30442 0.42650 0.69674
 C421 C 0.29561 0.41289 0.67236
 H422 H 0.33985 0.41517 0.72526
 H423 H 0.27671 0.41769 0.66012
 Cu424 Cu 0.36143 0.35961 0.68882
 Cu425 Cu 0.31060 0.36117 0.63876
 Cu426 Cu 0.36097 0.30742 0.63984
 N427 N 0.39073 0.32995 0.68802
 N428 N 0.39072 0.30985 0.66852
 C429 C 0.41199 0.29125 0.67390
 C430 C 0.42610 0.30029 0.69792
 C431 C 0.41207 0.32479 0.70646
 H432 H 0.41599 0.27179 0.66217
 H433 H 0.41634 0.33705 0.72541
 N434 N 0.33226 0.31106 0.60946
 N435 N 0.31308 0.33179 0.60895
 C436 C 0.29527 0.32747 0.58698
 C437 C 0.30373 0.30297 0.57306
 C438 C 0.32713 0.29301 0.58782
 H439 H 0.27660 0.34019 0.58229
 H440 H 0.33853 0.27330 0.58388
 H441 H 0.32949 0.32867 0.66181
 H442 H 0.35341 0.35080 0.63882
 N443 N 0.31289 0.88901 0.16655
 N444 N 0.33250 0.88888 0.18651
 C445 C 0.32711 0.91027 0.20483
 C446 C 0.30295 0.92445 0.19580
 C447 C 0.29436 0.91044 0.17154
 H448 H 0.33901 0.91452 0.22400
 H449 H 0.27534 0.91470 0.15930
 Cu450 Cu 0.36181 0.85935 0.18793
 Cu451 Cu 0.31112 0.85931 0.13773
 Cu452 Cu 0.36382 0.80781 0.13852
 N453 N 0.39174 0.83042 0.18770
 N454 N 0.39271 0.81054 0.16800
 C455 C 0.41415 0.79229 0.17384
 C456 C 0.42730 0.80137 0.19838
 C457 C 0.41259 0.82549 0.20673
 H458 H 0.41893 0.77306 0.16204
 H459 H 0.41604 0.83762 0.22592
 N460 N 0.33547 0.81077 0.10779
 N461 N 0.31521 0.83044 0.10755
 C462 C 0.29772 0.82551 0.08547
 C463 C 0.30754 0.80175 0.07117
 C464 C 0.33138 0.79284 0.08584
 H465 H 0.27835 0.83722 0.08098
 H466 H 0.34369 0.77371 0.08175
 H467 H 0.33130 0.82743 0.16051
 H468 H 0.35423 0.85092 0.13784
 N469 N 0.81211 0.39000 0.16892
 N470 N 0.83183 0.38903 0.18874
 C471 C 0.82688 0.41000 0.20766
 C472 C 0.80287 0.42478 0.19914
 C473 C 0.79394 0.41156 0.17458
 H474 H 0.83891 0.41351 0.22688
 H475 H 0.77487 0.41638 0.16262
 Cu476 Cu 0.86057 0.35892 0.18919
 Cu477 Cu 0.80954 0.36092 0.13958
 Cu478 Cu 0.85992 0.30704 0.14000
 N479 N 0.88980 0.32932 0.18828
 N480 N 0.88964 0.30916 0.16883
 C481 C 0.91090 0.29053 0.17420
 C482 C 0.92511 0.29968 0.19815
 C483 C 0.91121 0.32422 0.20662
 H484 H 0.91494 0.27111 0.16243
 H485 H 0.91566 0.33660 0.22545
 N486 N 0.83131 0.31132 0.10951
 N487 N 0.81226 0.33217 0.10922
 C488 C 0.79465 0.32843 0.08700
 C489 C 0.80305 0.30416 0.07269
 C490 C 0.82623 0.29373 0.08748
 H491 H 0.77608 0.34135 0.08242
 H492 H 0.83755 0.27402 0.08326
 H493 H 0.82858 0.32812 0.16221
 H494 H 0.85242 0.35036 0.13924
 N495 N 0.80951 0.89061 0.67117
 N496 N 0.82894 0.88923 0.69124
 C497 C 0.82421 0.91039 0.71004
 C498 C 0.80065 0.92569 0.70114
 C499 C 0.79177 0.91260 0.67651
 H500 H 0.83626 0.91388 0.72925
 H501 H 0.77313 0.91800 0.66412
 Cu502 Cu 0.85755 0.85888 0.69188
 Cu503 Cu 0.80685 0.86189 0.64158
 Cu504 Cu 0.85833 0.80928 0.64027
 N505 N 0.88725 0.82971 0.68979
 N506 N 0.88783 0.81073 0.66922
 C507 C 0.90946 0.79232 0.67375
 C508 C 0.92315 0.80030 0.69837
 C509 C 0.90855 0.82398 0.70811
 H510 H 0.91405 0.77370 0.66096
 H511 H 0.91250 0.83534 0.72767
 N512 N 0.82954 0.81365 0.61010
 N513 N 0.80984 0.83387 0.61061
 C514 C 0.79187 0.82996 0.58870
 C515 C 0.80074 0.80624 0.57376
 C516 C 0.82456 0.79632 0.58786
 H517 H 0.77274 0.84226 0.58483
 H518 H 0.83625 0.77694 0.58317
 H519 H 0.82638 0.82872 0.66314
 H520 H 0.84987 0.85258 0.64142
 N521 N 0.68612 0.60933 0.66784
 N522 N 0.66622 0.60961 0.68753
 C523 C 0.67095 0.58785 0.70584
 C524 C 0.69494 0.57325 0.69698
 C525 C 0.70412 0.58745 0.67291
 H526 H 0.65888 0.58379 0.72499
 H527 H 0.72344 0.58324 0.66113
 Cu528 Cu 0.63763 0.63999 0.68881
 Cu529 Cu 0.68962 0.63990 0.63981
 Cu530 Cu 0.63888 0.69330 0.64073
 N531 N 0.60839 0.66975 0.68822
 N532 N 0.60868 0.69022 0.66892
 C533 C 0.58747 0.70884 0.67434
 C534 C 0.57313 0.69950 0.69822
 C535 C 0.58693 0.67474 0.70660
 H536 H 0.58373 0.72857 0.66282
 H537 H 0.58247 0.66220 0.72543
 N538 N 0.66823 0.69059 0.61086
 N539 N 0.68761 0.67005 0.61043
 C540 C 0.70572 0.67493 0.58873
 C541 C 0.69725 0.69963 0.57495
 C542 C 0.67353 0.70908 0.58946
 H543 H 0.72445 0.66233 0.58401
 H544 H 0.66187 0.72865 0.58542
 H545 H 0.67005 0.67170 0.66297
 H546 H 0.64684 0.64998 0.63913
 N547 N 0.69178 0.11171 0.16655
 N548 N 0.67183 0.11159 0.18620
 C549 C 0.67678 0.08980 0.20438
 C550 C 0.70100 0.07562 0.19556
 C551 C 0.71009 0.09006 0.17159
 H552 H 0.66443 0.08517 0.22323
 H553 H 0.72925 0.08587 0.15954
 Cu554 Cu 0.64237 0.14104 0.18734
 Cu555 Cu 0.69412 0.14178 0.13786
 Cu556 Cu 0.64028 0.19203 0.13695
 N557 N 0.61207 0.16963 0.18621
 N558 N 0.61094 0.18912 0.16599
 C559 C 0.58907 0.20703 0.17111
 C560 C 0.57580 0.19820 0.19576
 C561 C 0.59089 0.17452 0.20491
 H562 H 0.58410 0.22597 0.15877
 H563 H 0.58741 0.16266 0.22436
 N564 N 0.66937 0.18971 0.10688
 N565 N 0.69021 0.17067 0.10739
 C566 C 0.70817 0.17612 0.08570
 C567 C 0.69802 0.19955 0.07088
 C568 C 0.67351 0.20771 0.08484
 H569 H 0.72796 0.16494 0.08180
 H570 H 0.66072 0.22642 0.08022
 H571 H 0.67286 0.17329 0.15983
 H572 H 0.65096 0.14900 0.13721
 N573 N 0.18851 0.61106 0.16670
 N574 N 0.16817 0.61115 0.18595
 C575 C 0.17246 0.58922 0.20412
 C576 C 0.19666 0.57475 0.19568
 C577 C 0.20641 0.58915 0.17198
 H578 H 0.15986 0.58486 0.22287
 H579 H 0.22586 0.58489 0.16043
 Cu580 Cu 0.13955 0.64140 0.18686
 Cu581 Cu 0.19221 0.64144 0.13859
 Cu582 Cu 0.14096 0.69439 0.13840
 N583 N 0.11028 0.67103 0.18584
 N584 N 0.11069 0.69149 0.16654
 C585 C 0.08927 0.70995 0.17168
 C586 C 0.07467 0.70041 0.19532
 C587 C 0.08852 0.67578 0.20389
 H588 H 0.08539 0.72955 0.15999
 H589 H 0.08378 0.66311 0.22256
 N590 N 0.17047 0.69143 0.10871
 N591 N 0.19006 0.67109 0.10882
 C592 C 0.20822 0.67565 0.08713
 C593 C 0.19960 0.69992 0.07277
 C594 C 0.17570 0.70949 0.08693
 H595 H 0.22711 0.66313 0.08281
 H596 H 0.16389 0.72887 0.08241
 H597 H 0.17195 0.67326 0.16123
 H598 H 0.14931 0.65105 0.13727
 N599 N 0.18835 0.10937 0.66766
 N600 N 0.16861 0.11003 0.68750
 C601 C 0.17318 0.08838 0.70592
 C602 C 0.19696 0.07352 0.69706
 C603 C 0.20617 0.08736 0.67282
 H604 H 0.16110 0.08451 0.72511
 H605 H 0.22523 0.08266 0.66079
 Cu606 Cu 0.14048 0.14064 0.68884
 Cu607 Cu 0.19152 0.13934 0.63902
 Cu608 Cu 0.14200 0.19394 0.64074
 N609 N 0.11179 0.17075 0.68860
 N610 N 0.11234 0.19147 0.66957
 C611 C 0.09133 0.21024 0.67523
 C612 C 0.07687 0.20061 0.69893
 C613 C 0.09034 0.17561 0.70696
 H614 H 0.08752 0.22997 0.66373
 H615 H 0.08549 0.16267 0.72543
 N616 N 0.17039 0.19010 0.61009
 N617 N 0.18920 0.16905 0.60930
 C618 C 0.20680 0.17324 0.58708
 C619 C 0.19859 0.19799 0.57330
 C620 C 0.17556 0.20824 0.58838
 H621 H 0.22520 0.16024 0.58213
 H622 H 0.16445 0.22819 0.58460
 H623 H 0.17304 0.17164 0.66244
 H624 H 0.14884 0.15046 0.63907
 N625 N 0.30869 0.60852 0.33100
 N626 N 0.32990 0.60724 0.31274
 C627 C 0.32499 0.58576 0.29437
 C628 C 0.29948 0.57295 0.30163
 C629 C 0.28964 0.58790 0.32489
 H630 H 0.33825 0.58056 0.27634
 H631 H 0.26948 0.58484 0.33562
 Cu632 Cu 0.36089 0.63503 0.31308
 Cu633 Cu 0.30592 0.63888 0.35906
 Cu634 Cu 0.35879 0.68978 0.35931
 N635 N 0.38958 0.66523 0.31285
 N636 N 0.38889 0.68639 0.33120
 C637 C 0.40999 0.70497 0.32521
 C638 C 0.42468 0.69480 0.30198
 C639 C 0.41122 0.66965 0.29454
 H640 H 0.41366 0.72499 0.33606
 H641 H 0.41612 0.65633 0.27646
 N642 N 0.32922 0.68786 0.38888
 N643 N 0.30877 0.66842 0.38873
 C644 C 0.29067 0.67377 0.41029
 C645 C 0.30037 0.69757 0.42462
 C646 C 0.32473 0.70603 0.41055
 H647 H 0.27123 0.66210 0.41455
 H648 H 0.33737 0.72484 0.41502
 H649 H 0.32835 0.66859 0.33537
 H650 H 0.34898 0.64661 0.36171
 N651 N 0.30975 0.10619 0.83127
 N652 N 0.32985 0.10705 0.81178
 C653 C 0.32543 0.08576 0.79305
 C654 C 0.30142 0.07084 0.80139
 C655 C 0.29192 0.08438 0.82561
 H656 H 0.33775 0.08221 0.77399
 H657 H 0.27253 0.07974 0.83716
 Cu658 Cu 0.35837 0.13744 0.81131
 Cu659 Cu 0.30597 0.13586 0.85995
 Cu660 Cu 0.35705 0.18886 0.86097
 N661 N 0.38767 0.16701 0.81302
 N662 N 0.38736 0.18673 0.83290
 C663 C 0.40886 0.20527 0.82833
 C664 C 0.42339 0.19661 0.80442
 C665 C 0.40943 0.17238 0.79510
 H666 H 0.41281 0.22439 0.84058
 H667 H 0.41413 0.16040 0.77608
 N668 N 0.32753 0.18523 0.89050
 N669 N 0.30789 0.16496 0.89014
 C670 C 0.28956 0.16934 0.91173
 C671 C 0.29823 0.19339 0.92630
 C672 C 0.32224 0.20300 0.91233
 H673 H 0.27055 0.15691 0.91580
 H674 H 0.33403 0.22231 0.91697
 H675 H 0.32591 0.16832 0.83785
 H676 H 0.34879 0.14547 0.86119
 N677 N 0.80683 0.61039 0.83222
 N678 N 0.82710 0.61011 0.81290
 C679 C 0.82213 0.58850 0.79470
 C680 C 0.79757 0.57463 0.80320
 C681 C 0.78831 0.58905 0.82697
 H682 H 0.83465 0.58387 0.77599
 H683 H 0.76887 0.58511 0.83869
 Cu684 Cu 0.85685 0.63931 0.81212
 Cu685 Cu 0.80423 0.64043 0.86055
 Cu686 Cu 0.85770 0.69102 0.86149
 N687 N 0.88737 0.66766 0.81365
 N688 N 0.88791 0.68746 0.83344
 C689 C 0.90991 0.70531 0.82850
 C690 C 0.92390 0.69610 0.80446
 C691 C 0.90906 0.67229 0.79544
 H692 H 0.91438 0.72454 0.84041
 H693 H 0.91294 0.66028 0.77624
 N694 N 0.82791 0.68891 0.89092
 N695 N 0.80741 0.66952 0.89054
 C696 C 0.78925 0.67469 0.91208
 C697 C 0.79886 0.69836 0.92658
 C698 C 0.82331 0.70694 0.91270
 H699 H 0.76979 0.66300 0.91621
 H700 H 0.83595 0.72568 0.91742
 H701 H 0.82577 0.67185 0.83835
 H702 H 0.84745 0.64805 0.86190
 N703 N 0.81061 0.10708 0.33345
 N704 N 0.83076 0.10703 0.31401
 C705 C 0.82567 0.08573 0.29551
 C706 C 0.80110 0.07181 0.30389
 C707 C 0.79200 0.08587 0.32795
 H708 H 0.83792 0.08154 0.27653
 H709 H 0.77249 0.08194 0.33956
 Cu710 Cu 0.86009 0.13655 0.31313
 Cu711 Cu 0.80809 0.13700 0.36201
 Cu712 Cu 0.86039 0.18893 0.36167
 N713 N 0.88989 0.16559 0.31366
 N714 N 0.89016 0.18584 0.33301
 C715 C 0.91167 0.20409 0.32742
 C716 C 0.92560 0.19464 0.30341
 C717 C 0.91127 0.17028 0.29511
 H718 H 0.91597 0.22358 0.33898
 H719 H 0.91534 0.15784 0.27623
 N720 N 0.83129 0.18612 0.39181
 N721 N 0.81127 0.16621 0.39194
 C722 C 0.79341 0.17107 0.41379
 C723 C 0.80273 0.19506 0.42801
 C724 C 0.82668 0.20415 0.41358
 H725 H 0.77421 0.15907 0.41823
 H726 H 0.83884 0.22332 0.41783
 H727 H 0.82862 0.16870 0.33925
 H728 H 0.85116 0.14580 0.36285
 N729 N 0.68967 0.38778 0.33341
 N730 N 0.67002 0.38777 0.31351
 C731 C 0.67518 0.40949 0.29531
 C732 C 0.69920 0.42377 0.30443
 C733 C 0.70796 0.40946 0.32856
 H734 H 0.66323 0.41390 0.27617
 H735 H 0.72703 0.41361 0.34071
 Cu736 Cu 0.64091 0.35803 0.31200
 Cu737 Cu 0.69210 0.35757 0.36183
 Cu738 Cu 0.63964 0.30594 0.36140
 N739 N 0.61094 0.32913 0.31280
 N740 N 0.61023 0.30913 0.33255
 C741 C 0.58858 0.29106 0.32720
 C742 C 0.57501 0.30034 0.30291
 C743 C 0.58970 0.32443 0.29418
 H744 H 0.58396 0.27177 0.33912
 H745 H 0.58593 0.33669 0.27504
 N746 N 0.66842 0.30845 0.39165
 N747 N 0.68859 0.32820 0.39178
 C748 C 0.70629 0.32308 0.41370
 C749 C 0.69669 0.29910 0.42796
 C750 C 0.67277 0.29027 0.41348
 H751 H 0.72557 0.33490 0.41815
 H752 H 0.66048 0.27114 0.41771
 H753 H 0.67186 0.32595 0.33909
 H754 H 0.64903 0.34914 0.36202
 N755 N 0.68473 0.89634 0.83520
 N756 N 0.66636 0.89416 0.81424
 C757 C 0.67199 0.91462 0.79476
 C758 C 0.69492 0.93043 0.80420
 C759 C 0.70259 0.91825 0.82980
 H760 H 0.66119 0.91707 0.77464
 H761 H 0.72081 0.92388 0.84265
 Cu762 Cu 0.63841 0.86343 0.81354
 Cu763 Cu 0.68693 0.86826 0.86588
 Cu764 Cu 0.64136 0.81002 0.86099
 N765 N 0.60999 0.83307 0.81397
 N766 N 0.61117 0.81228 0.83286
 C767 C 0.59037 0.79320 0.82757
 C768 C 0.57535 0.80265 0.80421
 C769 C 0.58832 0.82791 0.79598
 H770 H 0.58711 0.77339 0.83909
 H771 H 0.58301 0.84080 0.77761
 N772 N 0.66910 0.81450 0.89190
 N773 N 0.68606 0.83695 0.89414
 C774 C 0.70368 0.83289 0.91636
 C775 C 0.69734 0.80676 0.92858
 C776 C 0.67541 0.79563 0.91264
 H777 H 0.72089 0.84702 0.92229
 H778 H 0.66578 0.77476 0.91526
 H779 H 0.67232 0.83541 0.84146
 H780 H 0.64510 0.85382 0.86382
 N781 N 0.19114 0.39138 0.83203
 N782 N 0.17071 0.39222 0.81293
 C783 C 0.17601 0.41374 0.79453
 C784 C 0.20096 0.42697 0.80268
 C785 C 0.21011 0.41228 0.82643
 H786 H 0.16343 0.41872 0.77594
 H787 H 0.22974 0.41573 0.83790
 Cu788 Cu 0.14038 0.36373 0.81264
 Cu789 Cu 0.19323 0.36123 0.86057
 Cu790 Cu 0.13999 0.31040 0.86073
 N791 N 0.11044 0.33483 0.81316
 N792 N 0.11015 0.31422 0.83232
 C793 C 0.08860 0.29612 0.82663
 C794 C 0.07465 0.30604 0.80277
 C795 C 0.08904 0.33050 0.79464
 H796 H 0.08435 0.27638 0.83794
 H797 H 0.08508 0.34321 0.77582
 N798 N 0.16927 0.31239 0.89063
 N799 N 0.18965 0.33193 0.89059
 C800 C 0.20746 0.32666 0.91238
 C801 C 0.19775 0.30279 0.92674
 C802 C 0.17362 0.29417 0.91244
 H803 H 0.22687 0.33831 0.91669
 H804 H 0.16112 0.27521 0.91682
 H805 H 0.17164 0.33049 0.83768
 H806 H 0.14999 0.35335 0.86208
 N807 N 0.18845 0.88985 0.32955
 N808 N 0.16864 0.88981 0.30981
 C809 C 0.17388 0.91129 0.29133
 C810 C 0.19812 0.92542 0.30012
 C811 C 0.20692 0.91128 0.32433
 H812 H 0.16182 0.91562 0.27226
 H813 H 0.22612 0.91538 0.33630
 Cu814 Cu 0.13914 0.86043 0.30888
 Cu815 Cu 0.19082 0.85998 0.35832
 Cu816 Cu 0.13692 0.80991 0.35983
 N817 N 0.10862 0.83213 0.31061
 N818 N 0.10741 0.81291 0.33108
 C819 C 0.08549 0.79502 0.32622
 C820 C 0.07227 0.80357 0.30149
 C821 C 0.08745 0.82707 0.29200
 H822 H 0.08058 0.77615 0.33869
 H823 H 0.08415 0.83856 0.27231
 N824 N 0.16624 0.81220 0.38958
 N825 N 0.18704 0.83126 0.38887
 C826 C 0.20512 0.82593 0.41042
 C827 C 0.19513 0.80251 0.42533
 C828 C 0.17056 0.79424 0.41161
 H829 H 0.22489 0.83717 0.41418
 H830 H 0.15781 0.77555 0.41643
 H831 H 0.16949 0.82830 0.33667
 H832 H 0.14763 0.85289 0.35908
 C833 C 0.24623 0.91034 0.26446
 C834 C 0.26688 0.91015 0.24386
 C835 C 0.26923 0.93804 0.23390
 N836 N 0.25050 0.95515 0.24755
 C837 C 0.23661 0.93836 0.26646
 C838 C 0.28715 0.94682 0.21136
 C839 C 0.29042 0.97559 0.20245
 C840 C 0.30410 0.98408 0.17772
 C841 C 0.30457 1.01352 0.17772
 C842 C 0.29110 1.02231 0.20244
 N843 N 0.28277 0.99901 0.21747
 C844 C 0.28870 1.05113 0.21139
 C845 C 0.27105 1.06022 0.23402
 C846 C 0.26915 1.08816 0.24376
 C847 C 0.24857 1.08833 0.26443
 C848 C 0.23847 1.06051 0.26670
 N849 N 0.25203 1.04348 0.24787
 C850 C 0.21578 1.05181 0.28455
 C851 C 0.20644 1.02313 0.28742
 C852 C 0.18150 1.01480 0.30095
 C853 C 0.18103 0.98534 0.30085
 C854 C 0.20570 0.97643 0.28728
 N855 N 0.22115 0.99959 0.27939
 C856 C 0.21414 0.94752 0.28424
 H857 H 0.23890 0.89184 0.27628
 H858 H 0.27848 0.89146 0.23677
 H859 H 0.24200 0.99930 0.27210
 H860 H 0.31323 0.97049 0.16152
 H861 H 0.31422 1.02683 0.16151
 H862 H 0.28087 1.10672 0.23642
 H863 H 0.24152 1.10700 0.27603
 H864 H 0.16454 0.97203 0.31007
 H865 H 0.27554 0.99901 0.23826
 H866 H 0.16543 1.02847 0.31029
 C867 C 0.24306 0.41138 0.76082
 C868 C 0.26287 0.41128 0.73944
 C869 C 0.26862 0.43972 0.73296
 N870 N 0.25286 0.45706 0.74965
 C871 C 0.23718 0.43987 0.76670
 C872 C 0.28870 0.44890 0.71240
 C873 C 0.29553 0.47788 0.70645
 C874 C 0.31810 0.48648 0.68940
 C875 C 0.31815 0.51591 0.68926
 C876 C 0.29558 0.52464 0.70619
 N877 N 0.28162 0.50129 0.71618
 C878 C 0.28879 0.55367 0.71176
 C879 C 0.26832 0.56301 0.73178
 C880 C 0.26234 0.59150 0.73761
 C881 C 0.24215 0.59157 0.75864
 C882 C 0.23631 0.56314 0.76499
 N883 N 0.25233 0.54581 0.74853
 C884 C 0.21588 0.55393 0.78517
 C885 C 0.20913 0.52495 0.79114
 C886 C 0.18651 0.51630 0.80809
 C887 C 0.18679 0.48688 0.80859
 C888 C 0.20957 0.47821 0.79192
 N889 N 0.22336 0.50158 0.78176
 C890 C 0.21681 0.44922 0.78682
 H891 H 0.23384 0.39255 0.77067
 H892 H 0.27206 0.39236 0.72987
 H893 H 0.24258 0.50160 0.77100
 H894 H 0.33327 0.47297 0.67847
 H895 H 0.33335 0.52934 0.67818
 H896 H 0.27161 0.61035 0.72785
 H897 H 0.23274 0.61047 0.76802
 H898 H 0.17168 0.47343 0.81978
 H899 H 0.26254 0.50132 0.72719
 H900 H 0.17115 0.52976 0.81882
 C901 C 0.74589 -0.08904 0.23047
 C902 C 0.76599 -0.08989 0.25152
 C903 C 0.76836 -0.06224 0.26215
 N904 N 0.74988 -0.04480 0.24836
 C905 C 0.73637 -0.06102 0.22885
 C906 C 0.78469 -0.05424 0.28630
 C907 C 0.78595 -0.02559 0.29648
 C908 C 0.79821 -0.01712 0.32198
 C909 C 0.79839 0.01231 0.32215
 C910 C 0.78647 0.02127 0.29675
 N911 N 0.77906 -0.00189 0.28124
 C912 C 0.78517 0.05013 0.28755
 C913 C 0.76911 0.05966 0.26396
 C914 C 0.76847 0.08766 0.25396
 C915 C 0.74899 0.08839 0.23231
 C916 C 0.73836 0.06083 0.22972
 N917 N 0.75049 0.04341 0.24926
 C918 C 0.71630 0.05272 0.21105
 C919 C 0.70708 0.02415 0.20756
 C920 C 0.68223 0.01615 0.19381
 C921 C 0.68158 -0.01330 0.19387
 C922 C 0.70611 -0.02251 0.20756
 N923 N 0.72167 0.00044 0.21555
 C924 C 0.71404 -0.05151 0.21105
 H925 H 0.73864 -0.10719 0.21821
 H926 H 0.77661 -0.10912 0.25875
 H927 H 0.74239 -0.00009 0.22321
 H928 H 0.80722 -0.03044 0.33847
 H929 H 0.80719 0.02556 0.33878
 H930 H 0.78034 0.10586 0.26176
 H931 H 0.74302 0.10722 0.22023
 H932 H 0.66500 -0.02642 0.18468
 H933 H 0.77349 -0.00144 0.25996
 H934 H 0.66625 0.03006 0.18458
 C935 C 0.76318 0.58858 0.75386
 C936 C 0.74299 0.58833 0.73284
 C937 C 0.73309 0.56041 0.73108
 N938 N 0.74633 0.54374 0.75054
 C939 C 0.76493 0.56082 0.76432
 C940 C 0.71085 0.55121 0.71310
 C941 C 0.70256 0.52226 0.71027
 C942 C 0.67786 0.51311 0.69697
 C943 C 0.67851 0.48364 0.69711
 C944 C 0.70362 0.47556 0.71045
 N945 N 0.71823 0.49924 0.71818
 C946 C 0.71324 0.44699 0.71336
 C947 C 0.73632 0.43860 0.73082
 C948 C 0.74714 0.41104 0.73249
 C949 C 0.76753 0.41125 0.75328
 C950 C 0.76873 0.43904 0.76373
 N951 N 0.74930 0.45552 0.75011
 C952 C 0.78495 0.44793 0.78762
 C953 C 0.78533 0.47671 0.79744
 C954 C 0.79757 0.48590 0.82269
 C955 C 0.79687 0.51533 0.82247
 C956 C 0.78439 0.52354 0.79709
 N957 N 0.77752 0.49996 0.78197
 C958 C 0.78199 0.55220 0.78752
 H959 H 0.77481 0.60724 0.76094
 H960 H 0.73613 0.60673 0.72060
 H961 H 0.77171 0.49994 0.76074
 H962 H 0.66124 0.52629 0.68782
 H963 H 0.66248 0.46978 0.68803
 H964 H 0.74053 0.39243 0.72059
 H965 H 0.77913 0.39260 0.76049
 H966 H 0.80541 0.52909 0.83881
 H967 H 0.73913 0.49967 0.72532
 H968 H 0.80712 0.47305 0.83926
 C969 C 0.25318 0.41006 0.26180
 C970 C 0.23245 0.41036 0.24132
 C971 C 0.23009 0.43847 0.23195
 N972 N 0.24897 0.45521 0.24581
 C973 C 0.26288 0.43799 0.26430
 C974 C 0.21205 0.44780 0.20970
 C975 C 0.20919 0.47679 0.20127
 C976 C 0.19573 0.48599 0.17667
 C977 C 0.19574 0.51544 0.17720
 C978 C 0.20910 0.52351 0.20216
 N979 N 0.21703 0.49981 0.21678
 C980 C 0.21188 0.55211 0.21158
 C981 C 0.22920 0.56060 0.23460
 C982 C 0.23099 0.58830 0.24496
 C983 C 0.25132 0.58798 0.26582
 C984 C 0.26136 0.56008 0.26758
 N985 N 0.24798 0.54350 0.24828
 C986 C 0.28394 0.55094 0.28530
 C987 C 0.29319 0.52216 0.28747
 C988 C 0.31807 0.51339 0.30080
 C989 C 0.31849 0.48395 0.29989
 C990 C 0.29384 0.47547 0.28606
 N991 N 0.27846 0.49888 0.27878
 C992 C 0.28535 0.44669 0.28228
 H993 H 0.26050 0.39131 0.27323
 H994 H 0.22086 0.39181 0.23391
 H995 H 0.25764 0.49880 0.27147
 H996 H 0.18647 0.47292 0.16017
 H997 H 0.18651 0.52930 0.16119
 H998 H 0.21926 0.60699 0.23793
 H999 H 0.25826 0.60639 0.27785
 H1000 H 0.33492 0.47033 0.30876
 H1001 H 0.22415 0.49935 0.23758
 H1002 H 0.33414 0.52674 0.31053
 C1003 C 0.76901 1.09098 0.74577
 C1004 C 0.74813 1.09210 0.76603
 C1005 C 0.73778 1.06438 0.76952
 N1006 N 0.75150 1.04665 0.75138
 C1007 C 0.77082 1.06273 0.73712
 C1008 C 0.71392 1.05654 0.78662
 C1009 C 0.70360 1.02788 0.78883
 C1010 C 0.67849 1.01963 0.80234
 C1011 C 0.67792 0.99021 0.80271
 C1012 C 0.70271 0.98101 0.78972
 N1013 N 0.71827 1.00400 0.78147
 C1014 C 0.71124 0.95200 0.78787
 C1015 C 0.73406 0.94218 0.77091
 C1016 C 0.74351 0.91405 0.76993
 C1017 C 0.76457 0.91309 0.74977
 C1018 C 0.76739 0.94068 0.73914
 N1019 N 0.74852 0.95832 0.75190
 C1020 C 0.78569 0.94868 0.71665
 C1021 C 0.78947 0.97724 0.70731
 C1022 C 0.80342 0.98511 0.68252
 C1023 C 0.80420 1.01454 0.68198
 C1024 C 0.79066 1.02392 0.70644
 N1025 N 0.78200 1.00102 0.72186
 C1026 C 0.78847 1.05292 0.71477
 H1027 H 0.78070 1.10923 0.73767
 H1028 H 0.74076 1.11161 0.77586
 H1029 H 0.77458 1.00155 0.74258
 H1030 H 0.66251 1.03305 0.81205
 H1031 H 0.66144 0.97712 0.81226
 H1032 H 0.73576 0.89595 0.78211
 H1033 H 0.77614 0.89411 0.74342
 H1034 H 0.81406 1.02745 0.66558
 H1035 H 0.73930 1.00332 0.77480
 H1036 H 0.81251 0.97114 0.66663
 C1037 C 0.76802 0.40977 0.24794
 C1038 C 0.74755 0.40958 0.26872
 C1039 C 0.73763 0.43746 0.27100
 N1040 N 0.75118 0.45455 0.25211
 C1041 C 0.76997 0.43777 0.23816
 C1042 C 0.71508 0.44620 0.28889
 C1043 C 0.70627 0.47496 0.29212
 C1044 C 0.68143 0.48346 0.30566
 C1045 C 0.68148 0.51292 0.30590
 C1046 C 0.70635 0.52166 0.29248
 N1047 N 0.72143 0.49837 0.28440
 C1048 C 0.71526 0.55046 0.28968
 C1049 C 0.73781 0.55952 0.27185
 C1050 C 0.74770 0.58744 0.26978
 C1051 C 0.76806 0.58764 0.24889
 C1052 C 0.76999 0.55983 0.23884
 N1053 N 0.75128 0.54278 0.25272
 C1054 C 0.78727 0.55116 0.21584
 C1055 C 0.79005 0.52244 0.20678
 C1056 C 0.80296 0.51404 0.18166
 C1057 C 0.80302 0.48459 0.18153
 C1058 C 0.79012 0.47574 0.20657
 N1059 N 0.78253 0.49895 0.22193
 C1060 C 0.78739 0.44688 0.21536
 H1061 H 0.77971 0.39125 0.24057
 H1062 H 0.74049 0.39090 0.28043
 H1063 H 0.77579 0.49875 0.24289
 H1064 H 0.66509 0.46987 0.31475
 H1065 H 0.66518 0.52633 0.31521
 H1066 H 0.74066 0.60593 0.28166
 H1067 H 0.77969 0.60629 0.24163
 H1068 H 0.81188 0.47125 0.16499
 H1069 H 0.74230 0.49841 0.27714
 H1070 H 0.81181 0.52767 0.16524
 C1071 C 0.22935 -0.09066 0.74517
 C1072 C 0.25047 -0.09137 0.76518
 C1073 C 0.26091 -0.06359 0.76766
 N1074 N 0.24699 -0.04624 0.74923
 C1075 C 0.22753 -0.06261 0.73570
 C1076 C 0.28503 -0.05538 0.78404
 C1077 C 0.29499 -0.02661 0.78573
 C1078 C 0.32019 -0.01800 0.79873
 C1079 C 0.32021 0.01143 0.79910
 C1080 C 0.29505 0.02025 0.78650
 N1081 N 0.27979 -0.00298 0.77856
 C1082 C 0.28585 0.04906 0.78480
 C1083 C 0.26298 0.05844 0.76762
 C1084 C 0.25303 0.08639 0.76626
 C1085 C 0.23223 0.08693 0.74586
 C1086 C 0.23007 0.05927 0.73547
 N1087 N 0.24909 0.04201 0.74859
 C1088 C 0.21219 0.05088 0.71289
 C1089 C 0.20874 0.02222 0.70404
 C1090 C 0.19530 0.01397 0.67919
 C1091 C 0.19462 -0.01548 0.67928
 C1092 C 0.20768 -0.02444 0.70419
 N1093 N 0.21598 -0.00131 0.71925
 C1094 C 0.20993 -0.05328 0.71314
 H1095 H 0.21746 -0.10902 0.73778
 H1096 H 0.25789 -0.11065 0.77554
 H1097 H 0.22301 -0.00151 0.74012
 H1098 H 0.33653 -0.03126 0.80815
 H1099 H 0.33657 0.02476 0.80837
 H1100 H 0.26032 0.10468 0.77827
 H1101 H 0.22042 0.10568 0.73919
 H1102 H 0.18521 -0.02872 0.66299
 H1103 H 0.25863 -0.00266 0.77233
 H1104 H 0.18652 0.02771 0.66284
 C1105 C 0.23923 0.25889 1.08985
 C1106 C 0.25888 0.23724 1.08974
 C1107 C 0.26463 0.23113 1.06152
 N1108 N 0.24885 0.24824 1.04448
 C1109 C 0.23323 0.26523 1.06169
 C1110 C 0.28474 0.21056 1.05227
 C1111 C 0.29053 0.20391 1.02351
 C1112 C 0.31295 0.18672 1.01469
 C1113 C 0.31221 0.18618 0.98558
 C1114 C 0.28942 0.20315 0.97723
 N1115 N 0.27594 0.21339 1.00052
 C1116 C 0.28223 0.20881 0.94856
 C1117 C 0.26237 0.22975 0.93954
 C1118 C 0.25634 0.23600 0.91137
 C1119 C 0.23742 0.25833 0.91145
 C1120 C 0.23232 0.26502 0.93966
 N1121 N 0.24761 0.24750 0.95673
 C1122 C 0.21322 0.28655 0.94887
 C1123 C 0.20694 0.29282 0.97759
 C1124 C 0.18501 0.31073 0.98619
 C1125 C 0.18500 0.31059 1.01533
 C1126 C 0.20702 0.29271 1.02392
 N1127 N 0.22061 0.28239 1.00072
 C1128 C 0.21326 0.28612 1.05265
 H1129 H 0.23044 0.26878 1.10865
 H1130 H 0.26789 0.22723 1.10844
 H1131 H 0.23915 0.27040 1.00061
 H1132 H 0.32864 0.17605 1.02781
 H1133 H 0.32718 0.17499 0.97209
 H1134 H 0.26489 0.22577 0.89263
 H1135 H 0.22839 0.26839 0.89277
 H1136 H 0.17005 0.32200 1.02865
 H1137 H 0.25689 0.22458 1.00076
 H1138 H 0.17011 0.32228 0.97287
 C1139 C 0.23645 0.75959 0.40982
 C1140 C 0.25778 0.73955 0.40966
 C1141 C 0.26447 0.73392 0.43780
 N1142 N 0.24790 0.74992 0.45504
 C1143 C 0.23076 0.76568 0.43806
 C1144 C 0.28515 0.71379 0.44684
 C1145 C 0.29179 0.70756 0.47554
 C1146 C 0.30941 0.68530 0.48414
 C1147 C 0.31030 0.68593 0.51326
 C1148 C 0.29315 0.70852 0.52182
 N1149 N 0.28238 0.72191 0.49865
 C1150 C 0.28809 0.71588 0.55053
 C1151 C 0.26735 0.73579 0.55983
 C1152 C 0.26137 0.74159 0.58807
 C1153 C 0.23933 0.76083 0.58824
 C1154 C 0.23251 0.76631 0.56010
 N1155 N 0.24969 0.75098 0.54285
 C1156 C 0.21138 0.78598 0.55110
 C1157 C 0.20538 0.79290 0.52243
 C1158 C 0.18798 0.81538 0.51393
 C1159 C 0.18782 0.81546 0.48479
 C1160 C 0.20503 0.79296 0.47612
 N1161 N 0.21526 0.77903 0.49923
 C1162 C 0.21059 0.78615 0.44737
 H1163 H 0.22643 0.76873 0.39119
 H1164 H 0.26720 0.73017 0.39089
 H1165 H 0.22646 0.75994 0.49922
 H1166 H 0.32031 0.66994 0.47083
 H1167 H 0.32200 0.67112 0.52662
 H1168 H 0.27160 0.73271 0.60671
 H1169 H 0.22963 0.76989 0.60702
 H1170 H 0.17647 0.83059 0.47150
 H1171 H 0.27107 0.74093 0.49856
 H1172 H 0.17680 0.83046 0.52732
 C1173 C 0.26877 0.75617 0.08659
 C1174 C 0.24714 0.73647 0.08692
 C1175 C 0.23834 0.73315 0.05903
 N1176 N 0.25377 0.75043 0.04179
 C1177 C 0.27258 0.76433 0.05850
 C1178 C 0.21563 0.71524 0.05037
 C1179 C 0.20713 0.71111 0.02186
 C1180 C 0.18324 0.69578 0.01360
 C1181 C 0.18306 0.69563 -0.01558
 C1182 C 0.20684 0.71088 -0.02446
 N1183 N 0.22144 0.71999 -0.00149
 C1184 C 0.21512 0.71455 -0.05315
 C1185 C 0.23788 0.73222 -0.06240
 C1186 C 0.24698 0.73455 -0.09033
 C1187 C 0.26865 0.75419 -0.09065
 C1188 C 0.27204 0.76350 -0.06295
 N1189 N 0.25309 0.75015 -0.04578
 C1190 C 0.29149 0.78496 -0.05441
 C1191 C 0.29645 0.79283 -0.02585
 C1192 C 0.31151 0.81697 -0.01759
 C1193 C 0.31162 0.81714 0.01158
 C1194 C 0.29654 0.79317 0.02044
 N1195 N 0.28779 0.77822 -0.00251
 C1196 C 0.29204 0.78552 0.04919
 H1197 H 0.28008 0.76387 0.10505
 H1198 H 0.23864 0.72610 0.10569
 H1199 H 0.27882 0.75795 -0.00226
 H1200 H 0.16773 0.68539 0.02716
 H1201 H 0.16739 0.68508 -0.02872
 H1202 H 0.23879 0.72344 -0.10870
 H1203 H 0.28043 0.76091 -0.10927
 H1204 H 0.32154 0.83325 0.02475
 H1205 H 0.24133 0.72938 -0.00172
 H1206 H 0.32125 0.83298 -0.03115
 C1207 C 0.24169 0.23948 0.40993
 C1208 C 0.26153 0.26101 0.40989
 C1209 C 0.26727 0.26723 0.43807
 N1210 N 0.25149 0.25022 0.45522
 C1211 C 0.23581 0.23323 0.43814
 C1212 C 0.28751 0.28771 0.44719
 C1213 C 0.29443 0.29339 0.47587
 C1214 C 0.31710 0.31036 0.48438
 C1215 C 0.31713 0.31031 0.51353
 C1216 C 0.29445 0.29333 0.52219
 N1217 N 0.28044 0.28351 0.49908
 C1218 C 0.28759 0.28755 0.55094
 C1219 C 0.26712 0.26727 0.56015
 C1220 C 0.26114 0.26111 0.58835
 C1221 C 0.24103 0.23985 0.58840
 C1222 C 0.23521 0.23369 0.56021
 N1223 N 0.25122 0.25048 0.54307
 C1224 C 0.21481 0.21338 0.55109
 C1225 C 0.20814 0.20746 0.52239
 C1226 C 0.18554 0.19041 0.51385
 C1227 C 0.18575 0.19020 0.48470
 C1228 C 0.20846 0.20716 0.47607
 N1229 N 0.22229 0.21717 0.49922
 C1230 C 0.21553 0.21274 0.44734
 H1231 H 0.23253 0.22974 0.39125
 H1232 H 0.27077 0.27077 0.39116
 H1233 H 0.24143 0.22814 0.49923
 H1234 H 0.33233 0.32140 0.47098
 H1235 H 0.33238 0.32130 0.52682
 H1236 H 0.27039 0.27077 0.60704
 H1237 H 0.23169 0.23017 0.60713
 H1238 H 0.17062 0.17908 0.47138
 H1239 H 0.26127 0.27258 0.49909
 H1240 H 0.17021 0.17947 0.52722
 C1241 C 0.74157 0.76291 1.09091
 C1242 C 0.76099 0.74103 1.09051
 C1243 C 0.76528 0.73403 1.06224
 N1244 N 0.74893 0.75087 1.04548
 C1245 C 0.73434 0.76852 1.06289
 C1246 C 0.78437 0.71262 1.05272
 C1247 C 0.78994 0.70610 1.02390
 C1248 C 0.81094 0.68725 1.01493
 C1249 C 0.81071 0.68768 0.98579
 C1250 C 0.78961 0.70683 0.97760
 N1251 N 0.77670 0.71749 1.00098
 C1252 C 0.78349 0.71410 0.94903
 C1253 C 0.76456 0.73604 0.94030
 C1254 C 0.75971 0.74376 0.91226
 C1255 C 0.74058 0.76593 0.91267
 C1256 C 0.73420 0.77104 0.94095
 N1257 N 0.74892 0.75277 0.95773
 C1258 C 0.71402 0.79139 0.95045
 C1259 C 0.70717 0.79650 0.97927
 C1260 C 0.68400 0.81261 0.98812
 C1261 C 0.68391 0.81188 1.01724
 C1262 C 0.70708 0.79542 1.02555
 N1263 N 0.72149 0.78656 1.00224
 C1264 C 0.71383 0.78897 1.05418
 H1265 H 0.73372 0.77343 1.10979
 H1266 H 0.77088 0.73150 1.10901
 H1267 H 0.74101 0.77618 1.00205
 H1268 H 0.82536 0.67483 1.02800
 H1269 H 0.82491 0.67565 0.97220
 H1270 H 0.76899 0.73447 0.89338
 H1271 H 0.73219 0.77684 0.89417
 H1272 H 0.66816 0.82193 1.03073
 H1273 H 0.75901 0.73066 1.00125
 H1274 H 0.66837 0.82335 0.97497
 C1275 C 0.73704 0.25508 0.41285
 C1276 C 0.75851 0.23518 0.41285
 C1277 C 0.76581 0.23043 0.44101
 N1278 N 0.74951 0.24689 0.45807
 C1279 C 0.73188 0.26197 0.44100
 C1280 C 0.78712 0.21099 0.45017
 C1281 C 0.79401 0.20509 0.47890
 C1282 C 0.81333 0.18433 0.48754
 C1283 C 0.81362 0.18458 0.51670
 C1284 C 0.79438 0.20543 0.52526
 N1285 N 0.78292 0.21809 0.50204
 C1286 C 0.78808 0.21192 0.55398
 C1287 C 0.76662 0.23120 0.56308
 C1288 C 0.75908 0.23563 0.59121
 C1289 C 0.73740 0.25529 0.59115
 C1290 C 0.73229 0.26231 0.56299
 N1291 N 0.75017 0.24756 0.54596
 C1292 C 0.71230 0.28306 0.55380
 C1293 C 0.70724 0.29048 0.52509
 C1294 C 0.69133 0.31398 0.51643
 C1295 C 0.69128 0.31393 0.48728
 C1296 C 0.70715 0.29039 0.47879
 N1297 N 0.71640 0.27594 0.50200
 C1298 C 0.71211 0.28289 0.45012
 H1299 H 0.72668 0.26370 0.39416
 H1300 H 0.76768 0.22540 0.39417
 H1301 H 0.72606 0.25598 0.50210
 H1302 H 0.82578 0.17020 0.47424
 H1303 H 0.82641 0.17071 0.53002
 H1304 H 0.76805 0.22560 0.60992
 H1305 H 0.72679 0.26357 0.60979
 H1306 H 0.68085 0.32962 0.47386
 H1307 H 0.76942 0.23553 0.50197
 H1308 H 0.68095 0.32971 0.52972
 C1309 C 0.73321 0.25227 -0.09013
 C1310 C 0.75395 0.27294 -0.08976
 C1311 C 0.76418 0.27400 -0.06218
 N1312 N 0.75047 0.25457 -0.04577
 C1313 C 0.73143 0.24133 -0.06278
 C1314 C 0.78696 0.29154 -0.05316
 C1315 C 0.79546 0.29447 -0.02454
 C1316 C 0.82047 0.30754 -0.01578
 C1317 C 0.82049 0.30684 0.01341
 C1318 C 0.79552 0.29330 0.02173
 N1319 N 0.78026 0.28614 -0.00153
 C1320 C 0.78690 0.28927 0.05023
 C1321 C 0.76417 0.27128 0.05872
 C1322 C 0.75440 0.26845 0.08637
 C1323 C 0.73363 0.24783 0.08601
 C1324 C 0.73134 0.23867 0.05815
 N1325 N 0.75020 0.25287 0.04157
 C1326 C 0.71342 0.21620 0.04896
 C1327 C 0.71008 0.20817 0.02026
 C1328 C 0.69672 0.18331 0.01129
 C1329 C 0.69668 0.18398 -0.01789
 C1330 C 0.70996 0.20927 -0.02601
 N1331 N 0.71779 0.22400 -0.00261
 C1332 C 0.71350 0.21847 -0.05444
 H1333 H 0.72095 0.24595 -0.10851
 H1334 H 0.76082 0.28561 -0.10779
 H1335 H 0.72509 0.24497 -0.00225
 H1336 H 0.83698 0.31675 -0.02904
 H1337 H 0.83698 0.31546 0.02695
 H1338 H 0.76174 0.27971 0.10502
 H1339 H 0.72192 0.24017 0.10433
 H1340 H 0.68775 0.16773 -0.03157
 H1341 H 0.75942 0.27878 -0.00166
 H1342 H 0.68775 0.16649 0.02440
 C1343 C 0.73744 0.74303 0.41127
 C1344 C 0.75703 0.76476 0.41100
 C1345 C 0.76396 0.77021 0.43908
 N1346 N 0.74899 0.75262 0.45639
 C1347 C 0.73276 0.73594 0.43950
 C1348 C 0.78461 0.79039 0.44794
 C1349 C 0.79141 0.79627 0.47663
 C1350 C 0.81462 0.81251 0.48511
 C1351 C 0.81459 0.81261 0.51425
 C1352 C 0.79141 0.79637 0.52296
 N1353 N 0.77705 0.78696 0.49988
 C1354 C 0.78440 0.79092 0.55174
 C1355 C 0.76388 0.77077 0.56111
 C1356 C 0.75761 0.76512 0.58937
 C1357 C 0.73792 0.74346 0.58963
 C1358 C 0.73267 0.73652 0.56153
 N1359 N 0.74859 0.75325 0.54421
 C1360 C 0.71314 0.71526 0.55262
 C1361 C 0.70698 0.70859 0.52397
 C1362 C 0.68553 0.69004 0.51554
 C1363 C 0.68563 0.68983 0.48639
 C1364 C 0.70712 0.70828 0.47765
 N1365 N 0.72034 0.71919 0.50071
 C1366 C 0.71340 0.71463 0.44888
 H1367 H 0.72765 0.73367 0.39270
 H1368 H 0.76523 0.77527 0.39218
 H1369 H 0.73842 0.73180 0.50057
 H1370 H 0.83031 0.82287 0.47170
 H1371 H 0.83021 0.82311 0.52751
 H1372 H 0.76648 0.77530 0.60797
 H1373 H 0.72859 0.73393 0.60844
 H1374 H 0.67114 0.67778 0.47315
 H1375 H 0.75751 0.77665 0.49999
 H1376 H 0.67096 0.67817 0.52898
 C1377 C 0.90999 0.25744 0.24047
 C1378 C 0.91010 0.23622 0.26065
 C1379 C 0.93844 0.23023 0.26656
 N1380 N 0.95553 0.24707 0.25055
 C1381 C 0.93827 0.26375 0.23456
 C1382 C 0.94774 0.21011 0.28712
 C1383 C 0.97661 0.20458 0.29405
 C1384 C 0.98528 0.18772 0.31677
 C1385 C 1.01455 0.18790 0.31681
 C1386 C 1.02311 0.20486 0.29412
 N1387 N 0.99983 0.21452 0.28006
 C1388 C 1.05193 0.21081 0.28732
 C1389 C 1.06104 0.23124 0.26696
 C1390 C 1.08931 0.23777 0.26128
 C1391 C 1.08920 0.25906 0.24119
 C1392 C 1.06087 0.26483 0.23503
 N1393 N 1.04377 0.24782 0.25088
 C1394 C 1.05157 0.28499 0.21451
 C1395 C 1.02271 0.29059 0.20764
 C1396 C 1.01404 0.30736 0.18485
 C1397 C 0.98478 0.30708 0.18473
 C1398 C 0.97621 0.29012 0.20742
 N1399 N 0.99948 0.28059 0.22158
 C1400 C 0.94739 0.28411 0.21415
 H1401 H 0.89118 0.26701 0.23115
 H1402 H 0.89137 0.22650 0.27003
 H1403 H 0.99949 0.26969 0.24074
 H1404 H 0.97193 0.17667 0.33202
 H1405 H 1.02798 0.17702 0.33210
 H1406 H 1.10813 0.22837 0.27076
 H1407 H 1.10794 0.26905 0.23212
 H1408 H 0.97137 0.31787 0.16936
 H1409 H 0.99981 0.22543 0.26091
 H1410 H 1.02741 0.31838 0.16958
 C1411 C 0.58838 0.23799 0.76577
 C1412 C 0.58893 0.25771 0.74414
 C1413 C 0.56079 0.26379 0.73744
 N1414 N 0.54318 0.24835 0.75428
 C1415 C 0.55993 0.23250 0.77159
 C1416 C 0.55211 0.28389 0.71659
 C1417 C 0.52343 0.29087 0.71018
 C1418 C 0.51530 0.31345 0.69273
 C1419 C 0.48604 0.31354 0.69203
 C1420 C 0.47693 0.29100 0.70904
 N1421 N 0.49990 0.27701 0.71963
 C1422 C 0.44793 0.28420 0.71407
 C1423 C 0.43819 0.26401 0.73437
 C1424 C 0.40974 0.25815 0.73985
 C1425 C 0.40919 0.23838 0.76142
 C1426 C 0.43732 0.23268 0.76846
 N1427 N 0.45493 0.24840 0.75189
 C1428 C 0.44600 0.21264 0.78936
 C1429 C 0.47466 0.20601 0.79616
 C1430 C 0.48279 0.18363 0.81384
 C1431 C 0.51203 0.18362 0.81464
 C1432 C 0.52115 0.20601 0.79744
 N1433 N 0.49819 0.21988 0.78669
 C1434 C 0.55017 0.21250 0.79208
 H1435 H 0.60689 0.22867 0.77592
 H1436 H 0.60795 0.26665 0.73457
 H1437 H 0.49849 0.23880 0.77519
 H1438 H 0.52901 0.32856 0.68184
 H1439 H 0.47297 0.32873 0.68049
 H1440 H 0.39122 0.26728 0.72955
 H1441 H 0.39017 0.22919 0.77075
 H1442 H 0.52508 0.16848 0.82626
 H1443 H 0.49961 0.25787 0.73078
 H1444 H 0.46909 0.16852 0.82476
 C1445 C 0.09086 0.26443 0.76067
 C1446 C 0.09131 0.24299 0.74091
 C1447 C 0.06314 0.23648 0.73486
 N1448 N 0.04560 0.25325 0.75033
 C1449 C 0.06243 0.27036 0.76618
 C1450 C 0.05438 0.21585 0.71477
 C1451 C 0.02569 0.20945 0.70801
 C1452 C 0.01748 0.19219 0.68556
 C1453 C -0.01177 0.19165 0.68549
 C1454 C -0.02077 0.20859 0.70791
 N1455 N 0.00223 0.21892 0.72184
 C1456 C -0.04972 0.21409 0.71440
 C1457 C -0.05937 0.23445 0.73441
 C1458 C -0.08780 0.24019 0.74008
 C1459 C -0.08828 0.26176 0.75967
 C1460 C -0.06012 0.26844 0.76559
 N1461 N -0.04256 0.25173 0.75008
 C1462 C -0.05138 0.28921 0.78557
 C1463 C -0.02269 0.29568 0.79230
 C1464 C -0.01449 0.31296 0.81474
 C1465 C 0.01477 0.31332 0.81497
 C1466 C 0.02380 0.29626 0.79265
 N1467 N 0.00080 0.28605 0.77862
 C1468 C 0.05277 0.29065 0.78625
 H1469 H 0.10943 0.27435 0.77003
 H1470 H 0.11028 0.23339 0.73197
 H1471 H 0.00110 0.27484 0.75973
 H1472 H 0.03112 0.18139 0.67047
 H1473 H -0.02490 0.18039 0.67032
 H1474 H -0.10638 0.23003 0.73099
 H1475 H -0.10729 0.27130 0.76858
 H1476 H 0.02788 0.32456 0.83017
 H1477 H 0.00195 0.23003 0.74080
 H1478 H -0.02816 0.32383 0.82977
 C1479 C 0.41147 0.25967 0.25886
 C1480 C 0.41161 0.23996 0.23740
 C1481 C 0.43996 0.23450 0.23102
 N1482 N 0.45702 0.25028 0.24792
 C1483 C 0.43973 0.26571 0.26496
 C1484 C 0.44932 0.21444 0.21055
 C1485 C 0.47818 0.20751 0.20499
 C1486 C 0.48689 0.18527 0.18757
 C1487 C 0.51615 0.18513 0.18781
 C1488 C 0.52469 0.20731 0.20537
 N1489 N 0.50140 0.22114 0.21535
 C1490 C 0.55349 0.21385 0.21155
 C1491 C 0.56255 0.23358 0.23240
 C1492 C 0.59081 0.23908 0.23905
 C1493 C 0.59063 0.25863 0.26066
 C1494 C 0.56228 0.26462 0.26651
 N1495 N 0.54524 0.24924 0.24922
 C1496 C 0.55292 0.28474 0.28688
 C1497 C 0.52408 0.29188 0.29220
 C1498 C 0.51542 0.31455 0.30911
 C1499 C 0.48617 0.31486 0.30870
 C1500 C 0.47760 0.29236 0.29157
 N1501 N 0.50085 0.27816 0.28201
 C1502 C 0.44879 0.28579 0.28548
 H1503 H 0.39263 0.26852 0.26877
 H1504 H 0.39288 0.23053 0.22787
 H1505 H 0.50084 0.25899 0.27105
 H1506 H 0.47357 0.17041 0.17604
 H1507 H 0.52960 0.17013 0.17657
 H1508 H 0.60965 0.22991 0.22944
 H1509 H 0.60933 0.26757 0.27071
 H1510 H 0.47275 0.33018 0.31955
 H1511 H 0.50137 0.23999 0.22680
 H1512 H 0.52880 0.32960 0.32034
 C1513 C 1.08755 0.73855 0.76122
 C1514 C 1.08739 0.75822 0.73956
 C1515 C 1.05904 0.76378 0.73332
 N1516 N 1.04198 0.74806 0.75046
 C1517 C 1.05929 0.73257 0.76754
 C1518 C 1.04968 0.78386 0.71274
 C1519 C 1.02081 0.79073 0.70717
 C1520 C 1.01208 0.81328 0.68999
 C1521 C 0.98282 0.81333 0.69023
 C1522 C 0.97430 0.79077 0.70753
 N1523 N 0.99761 0.77681 0.71736
 C1524 C 0.94549 0.78402 0.71361
 C1525 C 0.93643 0.76374 0.73413
 C1526 C 0.90817 0.75785 0.74052
 C1527 C 0.90833 0.73795 0.76198
 C1528 C 0.93668 0.73217 0.76803
 N1529 N 0.95373 0.74797 0.75097
 C1530 C 0.94604 0.71199 0.78853
 C1531 C 0.97493 0.70528 0.79424
 C1532 C 0.98369 0.68279 0.81150
 C1533 C 1.01297 0.68294 0.81144
 C1534 C 1.02145 0.70551 0.79415
 N1535 N 0.99811 0.71930 0.78415
 C1536 C 1.05026 0.71247 0.78826
 H1537 H 1.10640 0.72961 0.77106
 H1538 H 1.10609 0.76754 0.72975
 H1539 H 0.99799 0.73838 0.77291
 H1540 H 1.02540 0.82843 0.67867
 H1541 H 0.96936 0.82852 0.67916
 H1542 H 0.88933 0.76702 0.73087
 H1543 H 0.88962 0.72872 0.77186
 H1544 H 1.02646 0.66786 0.82262
 H1545 H 0.99770 0.75771 0.72857
 H1546 H 0.97038 0.66758 0.82274
 C1547 C 0.41042 0.73724 0.25965
 C1548 C 0.41093 0.75899 0.24004
 C1549 C 0.43938 0.76508 0.23477
 N1550 N 0.45616 0.74775 0.25058
 C1551 C 0.43857 0.73071 0.26585
 C1552 C 0.44909 0.78571 0.21492
 C1553 C 0.47808 0.79148 0.20877
 C1554 C 0.48723 0.80872 0.18650
 C1555 C 0.51648 0.80855 0.18704
 C1556 C 0.52456 0.79125 0.20965
 N1557 N 0.50099 0.78137 0.22311
 C1558 C 0.55322 0.78504 0.21678
 C1559 C 0.56190 0.76429 0.23697
 C1560 C 0.59005 0.75805 0.24348
 C1561 C 0.58955 0.73632 0.26310
 C1562 C 0.56110 0.73000 0.26812
 N1563 N 0.54432 0.74713 0.25210
 C1564 C 0.55139 0.70931 0.28792
 C1565 C 0.52241 0.70337 0.29393
 C1566 C 0.51327 0.68604 0.31612
 C1567 C 0.48402 0.68620 0.31557
 C1568 C 0.47593 0.70362 0.29305
 N1569 N 0.49950 0.71355 0.27963
 C1570 C 0.44727 0.70988 0.28596
 H1571 H 0.39142 0.72747 0.26841
 H1572 H 0.39239 0.76902 0.23063
 H1573 H 0.49993 0.72495 0.26076
 H1574 H 0.47421 0.81996 0.17112
 H1575 H 0.53022 0.81962 0.17215
 H1576 H 0.60906 0.76802 0.23498
 H1577 H 0.60809 0.72649 0.27270
 H1578 H 0.47028 0.67506 0.33042
 H1579 H 0.50056 0.77012 0.24208
 H1580 H 0.52630 0.67477 0.33147
 C1581 C -0.09059 0.75785 0.25965
 C1582 C -0.09012 0.73812 0.23822
 C1583 C -0.06168 0.73288 0.23210
 N1584 N -0.04487 0.74881 0.24912
 C1585 C -0.06242 0.76414 0.26599
 C1586 C -0.05200 0.71301 0.21164
 C1587 C -0.02303 0.70683 0.20586
 C1588 C -0.01390 0.68448 0.18880
 C1589 C 0.01535 0.68530 0.18858
 C1590 C 0.02344 0.70816 0.20549
 N1591 N -0.00013 0.72145 0.21554
 C1592 C 0.05210 0.71588 0.21092
 C1593 C 0.06084 0.73634 0.23121
 C1594 C 0.08900 0.74276 0.23739
 C1595 C 0.08855 0.76249 0.25884
 C1596 C 0.06011 0.76765 0.26507
 N1597 N 0.04330 0.75161 0.24815
 C1598 C 0.05044 0.78740 0.28566
 C1599 C 0.02146 0.79340 0.29165
 C1600 C 0.01233 0.81560 0.30890
 C1601 C -0.01693 0.81480 0.30909
 C1602 C -0.02503 0.79213 0.29195
 N1603 N -0.00145 0.77890 0.28182
 C1604 C -0.05370 0.78453 0.28636
 H1605 H -0.10959 0.76671 0.26923
 H1606 H -0.10868 0.72865 0.22840
 H1607 H -0.00095 0.75987 0.27065
 H1608 H -0.02694 0.66894 0.17784
 H1609 H 0.02909 0.67051 0.17740
 H1610 H 0.10798 0.73395 0.22771
 H1611 H 0.10711 0.77196 0.26865
 H1612 H -0.03066 0.82951 0.32037
 H1613 H -0.00063 0.74063 0.22645
 H1614 H 0.02537 0.83106 0.31997
 C1615 C 0.41237 0.75337 0.73337
 C1616 C 0.41279 0.77367 0.75431
 C1617 C 0.44039 0.77436 0.76495
 N1618 N 0.45656 0.75475 0.75129
 C1619 C 0.43964 0.74212 0.73180
 C1620 C 0.44938 0.79021 0.78904
 C1621 C 0.47803 0.79031 0.79882
 C1622 C 0.48729 0.80216 0.82423
 C1623 C 0.51656 0.80143 0.82393
 C1624 C 0.52457 0.78927 0.79838
 N1625 N 0.50104 0.78266 0.78321
 C1626 C 0.55299 0.78691 0.78872
 C1627 C 0.56141 0.76978 0.76553
 C1628 C 0.58895 0.76798 0.75502
 C1629 C 0.58853 0.74770 0.73404
 C1630 C 0.56072 0.73784 0.73234
 N1631 N 0.54429 0.75115 0.75183
 C1632 C 0.55138 0.71556 0.71439
 C1633 C 0.52251 0.70744 0.71156
 C1634 C 0.51319 0.68275 0.69821
 C1635 C 0.48389 0.68368 0.69825
 C1636 C 0.47607 0.70894 0.71159
 N1637 N 0.49975 0.72337 0.71942
 C1638 C 0.44774 0.71892 0.71434
 H1639 H 0.39382 0.74710 0.72128
 H1640 H 0.39441 0.78560 0.76146
 H1641 H 0.50038 0.74436 0.72654
 H1642 H 0.47456 0.81146 0.84094
 H1643 H 0.53036 0.80969 0.84037
 H1644 H 0.60756 0.77964 0.76204
 H1645 H 0.60676 0.74078 0.72177
 H1646 H 0.46998 0.66774 0.68906
 H1647 H 0.50092 0.77717 0.76190
 H1648 H 0.52614 0.66597 0.68905
   
